# Generated by pormake.
# Topology gar, (4,6)-cn, num edge types: 1
# Building blocks:
#     Node 0, Type 0, BuildingBlock: GALJAG_clean_sbu_0, # of connection points: 4
#     Node 1, Type 0, BuildingBlock: GALJAG_clean_sbu_0, # of connection points: 4
#     Node 2, Type 0, BuildingBlock: GALJAG_clean_sbu_0, # of connection points: 4
#     Node 3, Type 0, BuildingBlock: GALJAG_clean_sbu_0, # of connection points: 4
#     Node 4, Type 0, BuildingBlock: GALJAG_clean_sbu_0, # of connection points: 4
#     Node 5, Type 0, BuildingBlock: GALJAG_clean_sbu_0, # of connection points: 4
#     Node 6, Type 0, BuildingBlock: GALJAG_clean_sbu_0, # of connection points: 4
#     Node 7, Type 0, BuildingBlock: GALJAG_clean_sbu_0, # of connection points: 4
#     Node 8, Type 0, BuildingBlock: GALJAG_clean_sbu_0, # of connection points: 4
#     Node 9, Type 0, BuildingBlock: GALJAG_clean_sbu_0, # of connection points: 4
#     Node 10, Type 0, BuildingBlock: GALJAG_clean_sbu_0, # of connection points: 4
#     Node 11, Type 0, BuildingBlock: GALJAG_clean_sbu_0, # of connection points: 4
#     Node 12, Type 0, BuildingBlock: GALJAG_clean_sbu_0, # of connection points: 4
#     Node 13, Type 0, BuildingBlock: GALJAG_clean_sbu_0, # of connection points: 4
#     Node 14, Type 0, BuildingBlock: GALJAG_clean_sbu_0, # of connection points: 4
#     Node 15, Type 0, BuildingBlock: GALJAG_clean_sbu_0, # of connection points: 4
#     Node 16, Type 0, BuildingBlock: GALJAG_clean_sbu_0, # of connection points: 4
#     Node 17, Type 0, BuildingBlock: GALJAG_clean_sbu_0, # of connection points: 4
#     Node 18, Type 0, BuildingBlock: GALJAG_clean_sbu_0, # of connection points: 4
#     Node 19, Type 0, BuildingBlock: GALJAG_clean_sbu_0, # of connection points: 4
#     Node 20, Type 0, BuildingBlock: GALJAG_clean_sbu_0, # of connection points: 4
#     Node 21, Type 0, BuildingBlock: GALJAG_clean_sbu_0, # of connection points: 4
#     Node 22, Type 0, BuildingBlock: GALJAG_clean_sbu_0, # of connection points: 4
#     Node 23, Type 0, BuildingBlock: GALJAG_clean_sbu_0, # of connection points: 4
#     Node 24, Type 1, BuildingBlock: KUMJIN_clean_sbu_1, # of connection points: 6
#     Node 25, Type 1, BuildingBlock: KUMJIN_clean_sbu_1, # of connection points: 6
#     Node 26, Type 1, BuildingBlock: KUMJIN_clean_sbu_1, # of connection points: 6
#     Node 27, Type 1, BuildingBlock: KUMJIN_clean_sbu_1, # of connection points: 6
#     Node 28, Type 1, BuildingBlock: KUMJIN_clean_sbu_1, # of connection points: 6
#     Node 29, Type 1, BuildingBlock: KUMJIN_clean_sbu_1, # of connection points: 6
#     Node 30, Type 1, BuildingBlock: KUMJIN_clean_sbu_1, # of connection points: 6
#     Node 31, Type 1, BuildingBlock: KUMJIN_clean_sbu_1, # of connection points: 6
#     Node 32, Type 1, BuildingBlock: KUMJIN_clean_sbu_1, # of connection points: 6
#     Node 33, Type 1, BuildingBlock: KUMJIN_clean_sbu_1, # of connection points: 6
#     Node 34, Type 1, BuildingBlock: KUMJIN_clean_sbu_1, # of connection points: 6
#     Node 35, Type 1, BuildingBlock: KUMJIN_clean_sbu_1, # of connection points: 6
#     Node 36, Type 1, BuildingBlock: KUMJIN_clean_sbu_1, # of connection points: 6
#     Node 37, Type 1, BuildingBlock: KUMJIN_clean_sbu_1, # of connection points: 6
#     Node 38, Type 1, BuildingBlock: KUMJIN_clean_sbu_1, # of connection points: 6
#     Node 39, Type 1, BuildingBlock: KUMJIN_clean_sbu_1, # of connection points: 6
#     Edge 40, Type (0, 1), BuildingBlock: ZUJKAS_clean_linker_0, # of connection points: 2
#     Edge 41, Type (0, 1), BuildingBlock: ZUJKAS_clean_linker_0, # of connection points: 2
#     Edge 42, Type (0, 1), BuildingBlock: ZUJKAS_clean_linker_0, # of connection points: 2
#     Edge 43, Type (0, 1), BuildingBlock: ZUJKAS_clean_linker_0, # of connection points: 2
#     Edge 44, Type (0, 1), BuildingBlock: ZUJKAS_clean_linker_0, # of connection points: 2
#     Edge 45, Type (0, 1), BuildingBlock: ZUJKAS_clean_linker_0, # of connection points: 2
#     Edge 46, Type (0, 1), BuildingBlock: ZUJKAS_clean_linker_0, # of connection points: 2
#     Edge 47, Type (0, 1), BuildingBlock: ZUJKAS_clean_linker_0, # of connection points: 2
#     Edge 48, Type (0, 1), BuildingBlock: ZUJKAS_clean_linker_0, # of connection points: 2
#     Edge 49, Type (0, 1), BuildingBlock: ZUJKAS_clean_linker_0, # of connection points: 2
#     Edge 50, Type (0, 1), BuildingBlock: ZUJKAS_clean_linker_0, # of connection points: 2
#     Edge 51, Type (0, 1), BuildingBlock: ZUJKAS_clean_linker_0, # of connection points: 2
#     Edge 52, Type (0, 1), BuildingBlock: ZUJKAS_clean_linker_0, # of connection points: 2
#     Edge 53, Type (0, 1), BuildingBlock: ZUJKAS_clean_linker_0, # of connection points: 2
#     Edge 54, Type (0, 1), BuildingBlock: ZUJKAS_clean_linker_0, # of connection points: 2
#     Edge 55, Type (0, 1), BuildingBlock: ZUJKAS_clean_linker_0, # of connection points: 2
#     Edge 56, Type (0, 1), BuildingBlock: ZUJKAS_clean_linker_0, # of connection points: 2
#     Edge 57, Type (0, 1), BuildingBlock: ZUJKAS_clean_linker_0, # of connection points: 2
#     Edge 58, Type (0, 1), BuildingBlock: ZUJKAS_clean_linker_0, # of connection points: 2
#     Edge 59, Type (0, 1), BuildingBlock: ZUJKAS_clean_linker_0, # of connection points: 2
#     Edge 60, Type (0, 1), BuildingBlock: ZUJKAS_clean_linker_0, # of connection points: 2
#     Edge 61, Type (0, 1), BuildingBlock: ZUJKAS_clean_linker_0, # of connection points: 2
#     Edge 62, Type (0, 1), BuildingBlock: ZUJKAS_clean_linker_0, # of connection points: 2
#     Edge 63, Type (0, 1), BuildingBlock: ZUJKAS_clean_linker_0, # of connection points: 2
#     Edge 64, Type (0, 1), BuildingBlock: ZUJKAS_clean_linker_0, # of connection points: 2
#     Edge 65, Type (0, 1), BuildingBlock: ZUJKAS_clean_linker_0, # of connection points: 2
#     Edge 66, Type (0, 1), BuildingBlock: ZUJKAS_clean_linker_0, # of connection points: 2
#     Edge 67, Type (0, 1), BuildingBlock: ZUJKAS_clean_linker_0, # of connection points: 2
#     Edge 68, Type (0, 1), BuildingBlock: ZUJKAS_clean_linker_0, # of connection points: 2
#     Edge 69, Type (0, 1), BuildingBlock: ZUJKAS_clean_linker_0, # of connection points: 2
#     Edge 70, Type (0, 1), BuildingBlock: ZUJKAS_clean_linker_0, # of connection points: 2
#     Edge 71, Type (0, 1), BuildingBlock: ZUJKAS_clean_linker_0, # of connection points: 2
#     Edge 72, Type (0, 1), BuildingBlock: ZUJKAS_clean_linker_0, # of connection points: 2
#     Edge 73, Type (0, 1), BuildingBlock: ZUJKAS_clean_linker_0, # of connection points: 2
#     Edge 74, Type (0, 1), BuildingBlock: ZUJKAS_clean_linker_0, # of connection points: 2
#     Edge 75, Type (0, 1), BuildingBlock: ZUJKAS_clean_linker_0, # of connection points: 2
#     Edge 76, Type (0, 1), BuildingBlock: ZUJKAS_clean_linker_0, # of connection points: 2
#     Edge 77, Type (0, 1), BuildingBlock: ZUJKAS_clean_linker_0, # of connection points: 2
#     Edge 78, Type (0, 1), BuildingBlock: ZUJKAS_clean_linker_0, # of connection points: 2
#     Edge 79, Type (0, 1), BuildingBlock: ZUJKAS_clean_linker_0, # of connection points: 2
#     Edge 80, Type (0, 1), BuildingBlock: ZUJKAS_clean_linker_0, # of connection points: 2
#     Edge 81, Type (0, 1), BuildingBlock: ZUJKAS_clean_linker_0, # of connection points: 2
#     Edge 82, Type (0, 1), BuildingBlock: ZUJKAS_clean_linker_0, # of connection points: 2
#     Edge 83, Type (0, 1), BuildingBlock: ZUJKAS_clean_linker_0, # of connection points: 2
#     Edge 84, Type (0, 1), BuildingBlock: ZUJKAS_clean_linker_0, # of connection points: 2
#     Edge 85, Type (0, 1), BuildingBlock: ZUJKAS_clean_linker_0, # of connection points: 2
#     Edge 86, Type (0, 1), BuildingBlock: ZUJKAS_clean_linker_0, # of connection points: 2
#     Edge 87, Type (0, 1), BuildingBlock: ZUJKAS_clean_linker_0, # of connection points: 2
#     Edge 88, Type (0, 1), BuildingBlock: ZUJKAS_clean_linker_0, # of connection points: 2
#     Edge 89, Type (0, 1), BuildingBlock: ZUJKAS_clean_linker_0, # of connection points: 2
#     Edge 90, Type (0, 1), BuildingBlock: ZUJKAS_clean_linker_0, # of connection points: 2
#     Edge 91, Type (0, 1), BuildingBlock: ZUJKAS_clean_linker_0, # of connection points: 2
#     Edge 92, Type (0, 1), BuildingBlock: ZUJKAS_clean_linker_0, # of connection points: 2
#     Edge 93, Type (0, 1), BuildingBlock: ZUJKAS_clean_linker_0, # of connection points: 2
#     Edge 94, Type (0, 1), BuildingBlock: ZUJKAS_clean_linker_0, # of connection points: 2
#     Edge 95, Type (0, 1), BuildingBlock: ZUJKAS_clean_linker_0, # of connection points: 2
#     Edge 96, Type (0, 1), BuildingBlock: ZUJKAS_clean_linker_0, # of connection points: 2
#     Edge 97, Type (0, 1), BuildingBlock: ZUJKAS_clean_linker_0, # of connection points: 2
#     Edge 98, Type (0, 1), BuildingBlock: ZUJKAS_clean_linker_0, # of connection points: 2
#     Edge 99, Type (0, 1), BuildingBlock: ZUJKAS_clean_linker_0, # of connection points: 2
#     Edge 100, Type (0, 1), BuildingBlock: ZUJKAS_clean_linker_0, # of connection points: 2
#     Edge 101, Type (0, 1), BuildingBlock: ZUJKAS_clean_linker_0, # of connection points: 2
#     Edge 102, Type (0, 1), BuildingBlock: ZUJKAS_clean_linker_0, # of connection points: 2
#     Edge 103, Type (0, 1), BuildingBlock: ZUJKAS_clean_linker_0, # of connection points: 2
#     Edge 104, Type (0, 1), BuildingBlock: ZUJKAS_clean_linker_0, # of connection points: 2
#     Edge 105, Type (0, 1), BuildingBlock: ZUJKAS_clean_linker_0, # of connection points: 2
#     Edge 106, Type (0, 1), BuildingBlock: ZUJKAS_clean_linker_0, # of connection points: 2
#     Edge 107, Type (0, 1), BuildingBlock: ZUJKAS_clean_linker_0, # of connection points: 2
#     Edge 108, Type (0, 1), BuildingBlock: ZUJKAS_clean_linker_0, # of connection points: 2
#     Edge 109, Type (0, 1), BuildingBlock: ZUJKAS_clean_linker_0, # of connection points: 2
#     Edge 110, Type (0, 1), BuildingBlock: ZUJKAS_clean_linker_0, # of connection points: 2
#     Edge 111, Type (0, 1), BuildingBlock: ZUJKAS_clean_linker_0, # of connection points: 2
#     Edge 112, Type (0, 1), BuildingBlock: ZUJKAS_clean_linker_0, # of connection points: 2
#     Edge 113, Type (0, 1), BuildingBlock: ZUJKAS_clean_linker_0, # of connection points: 2
#     Edge 114, Type (0, 1), BuildingBlock: ZUJKAS_clean_linker_0, # of connection points: 2
#     Edge 115, Type (0, 1), BuildingBlock: ZUJKAS_clean_linker_0, # of connection points: 2
#     Edge 116, Type (0, 1), BuildingBlock: ZUJKAS_clean_linker_0, # of connection points: 2
#     Edge 117, Type (0, 1), BuildingBlock: ZUJKAS_clean_linker_0, # of connection points: 2
#     Edge 118, Type (0, 1), BuildingBlock: ZUJKAS_clean_linker_0, # of connection points: 2
#     Edge 119, Type (0, 1), BuildingBlock: ZUJKAS_clean_linker_0, # of connection points: 2
#     Edge 120, Type (0, 1), BuildingBlock: ZUJKAS_clean_linker_0, # of connection points: 2
#     Edge 121, Type (0, 1), BuildingBlock: ZUJKAS_clean_linker_0, # of connection points: 2
#     Edge 122, Type (0, 1), BuildingBlock: ZUJKAS_clean_linker_0, # of connection points: 2
#     Edge 123, Type (0, 1), BuildingBlock: ZUJKAS_clean_linker_0, # of connection points: 2
#     Edge 124, Type (0, 1), BuildingBlock: ZUJKAS_clean_linker_0, # of connection points: 2
#     Edge 125, Type (0, 1), BuildingBlock: ZUJKAS_clean_linker_0, # of connection points: 2
#     Edge 126, Type (0, 1), BuildingBlock: ZUJKAS_clean_linker_0, # of connection points: 2
#     Edge 127, Type (0, 1), BuildingBlock: ZUJKAS_clean_linker_0, # of connection points: 2
#     Edge 128, Type (0, 1), BuildingBlock: ZUJKAS_clean_linker_0, # of connection points: 2
#     Edge 129, Type (0, 1), BuildingBlock: ZUJKAS_clean_linker_0, # of connection points: 2
#     Edge 130, Type (0, 1), BuildingBlock: ZUJKAS_clean_linker_0, # of connection points: 2
#     Edge 131, Type (0, 1), BuildingBlock: ZUJKAS_clean_linker_0, # of connection points: 2
#     Edge 132, Type (0, 1), BuildingBlock: ZUJKAS_clean_linker_0, # of connection points: 2
#     Edge 133, Type (0, 1), BuildingBlock: ZUJKAS_clean_linker_0, # of connection points: 2
#     Edge 134, Type (0, 1), BuildingBlock: ZUJKAS_clean_linker_0, # of connection points: 2
#     Edge 135, Type (0, 1), BuildingBlock: ZUJKAS_clean_linker_0, # of connection points: 2
# Relax obj value: 0.073
# Max RMSD: 0.173
# Mean RMSD: 0.126
data_MOF--net-gar--node1-GALJAG_clean_sbu_0--node2-KUMJIN_clean_sbu_1--edge1-ZUJKAS_clean_linker_0
_symmetry_space_group_name_H-M    P1
_symmetry_Int_Tables_number       1
_symmetry_cell_setting            triclinic
loop_
_symmetry_equiv_pos_as_xyz
'x, y, z'
_cell_length_a     76.298607
_cell_length_b     76.261198
_cell_length_c     72.043319
_cell_angle_alpha  95.457266
_cell_angle_beta   95.504485
_cell_angle_gamma 99.968866
loop_
_atom_site_label
_atom_site_type_symbol
_atom_site_fract_x
_atom_site_fract_y
_atom_site_fract_z
_atom_type_partial_charge
In0 In 0.04456 0.30918 0.36318 0.0
O1 O 0.06085 0.30603 0.33714 0.0
O2 O 0.0756 0.31088 0.36384 0.0
C3 C 0.01026 0.3049 0.34415 0.0
C4 C 0.04302 0.27857 0.38079 0.0
C5 C 0.04579 0.34235 0.38386 0.0
O6 O 0.02354 0.31561 0.34011 0.0
O7 O 0.01432 0.29581 0.35711 0.0
O8 O 0.04771 0.32838 0.39137 0.0
O9 O 0.04413 0.33982 0.36618 0.0
C10 C 0.07609 0.30763 0.34641 0.0
O11 O 0.04264 0.29375 0.38941 0.0
O12 O 0.04381 0.27877 0.36336 0.0
In13 In 0.02016 0.75819 0.68481 0.0
O14 O 0.02356 0.77158 0.6578 0.0
O15 O 0.02309 0.78848 0.68278 0.0
C16 C 0.01564 0.72677 0.66164 0.0
C17 C 0.05554 0.76181 0.70217 0.0
C18 C 0.98694 0.75747 0.69928 0.0
O19 O 0.01604 0.74192 0.65575 0.0
O20 O 0.01724 0.7273 0.67937 0.0
O21 O 1.00131 0.75726 0.70965 0.0
O22 O 0.98942 0.75765 0.68229 0.0
C23 C 0.02422 0.78734 0.66535 0.0
O24 O 0.04647 0.77418 0.7033 0.0
O25 O 0.04645 0.74739 0.69372 0.0
In26 In 0.54436 0.80819 0.86429 0.0
O27 O 0.55883 0.80179 0.8376 0.0
O28 O 0.57509 0.8109 0.86315 0.0
C29 C 0.51093 0.80516 0.84432 0.0
C30 C 0.54437 0.77803 0.88256 0.0
C31 C 0.54428 0.84059 0.88573 0.0
O32 O 0.52475 0.8149 0.83985 0.0
O33 O 0.51419 0.79676 0.85811 0.0
O34 O 0.53588 0.82568 0.88906 0.0
O35 O 0.55331 0.83927 0.87203 0.0
C36 C 0.5746 0.80535 0.84601 0.0
O37 O 0.55299 0.79329 0.88954 0.0
O38 O 0.53579 0.77806 0.86671 0.0
In39 In 0.51969 0.25749 0.18376 0.0
O40 O 0.51218 0.23867 0.15622 0.0
O41 O 0.52283 0.22764 0.1798 0.0
C42 C 0.52128 0.28769 0.16605 0.0
C43 C 0.48715 0.25654 0.19957 0.0
C44 C 0.55572 0.26156 0.19809 0.0
O45 O 0.51638 0.27209 0.15762 0.0
O46 O 0.52521 0.2882 0.18354 0.0
O47 O 0.54306 0.25753 0.20809 0.0
O48 O 0.55013 0.26353 0.18149 0.0
C49 C 0.51697 0.22516 0.16254 0.0
O50 O 0.50223 0.2633 0.20872 0.0
O51 O 0.4887 0.24969 0.18335 0.0
In52 In 0.05534 0.79304 0.11321 0.0
O53 O 0.0593 0.77006 0.08982 0.0
O54 O 0.04236 0.76285 0.1102 0.0
C55 C 0.05647 0.82523 0.09663 0.0
C56 C 0.02685 0.79261 0.13339 0.0
C57 C 0.08689 0.79653 0.13623 0.0
O58 O 0.04575 0.81083 0.09022 0.0
O59 O 0.06719 0.82306 0.11031 0.0
O60 O 0.07311 0.80174 0.14143 0.0
O61 O 0.085 0.78989 0.11922 0.0
C62 C 0.04958 0.75737 0.09634 0.0
O63 O 0.04128 0.78807 0.13945 0.0
O64 O 0.02677 0.79775 0.11724 0.0
In65 In 0.50561 0.77 0.43326 0.0
O66 O 0.5212 0.77016 0.40694 0.0
O67 O 0.53639 0.77188 0.43323 0.0
C68 C 0.47192 0.76706 0.41349 0.0
C69 C 0.5066 0.73872 0.45042 0.0
C70 C 0.50822 0.80456 0.45112 0.0
O71 O 0.48627 0.76805 0.40591 0.0
O72 O 0.47427 0.76643 0.43104 0.0
O73 O 0.50917 0.7912 0.46003 0.0
O74 O 0.50639 0.80059 0.4336 0.0
C75 C 0.53652 0.77116 0.4157 0.0
O76 O 0.51015 0.75429 0.45924 0.0
O77 O 0.50158 0.73876 0.43317 0.0
In78 In 0.5551 0.293 0.61275 0.0
O79 O 0.55613 0.26996 0.58794 0.0
O80 O 0.54687 0.26235 0.61299 0.0
C81 C 0.55514 0.3263 0.59883 0.0
C82 C 0.5252 0.29187 0.63068 0.0
C83 C 0.58735 0.29647 0.63455 0.0
O84 O 0.55159 0.3115 0.58829 0.0
O85 O 0.55901 0.32424 0.61582 0.0
O86 O 0.57235 0.29386 0.64072 0.0
O87 O 0.58643 0.2978 0.61711 0.0
C88 C 0.55046 0.25702 0.59699 0.0
O89 O 0.54045 0.29137 0.6388 0.0
O90 O 0.52481 0.29324 0.61329 0.0
In91 In 1.00471 0.27031 0.9338 0.0
O92 O 1.00353 0.25329 0.95985 0.0
O93 O 0.01025 0.24125 0.93476 0.0
C94 C 0.0081 0.3036 0.95492 0.0
C95 C 0.03464 0.27164 0.91504 0.0
C96 C 0.97264 0.26963 0.91109 0.0
O97 O 0.99463 0.29124 0.95441 0.0
O98 O 0.02011 0.2989 0.94578 0.0
O99 O 0.98742 0.27914 0.90891 0.0
O100 O 0.97407 0.25976 0.92406 0.0
C101 C 0.00804 0.23962 0.95163 0.0
O102 O 0.01903 0.26469 0.90729 0.0
O103 O 0.035 0.27827 0.93186 0.0
In104 In 0.39498 0.02277 0.29845 0.0
O105 O 0.41769 0.02786 0.28075 0.0
O106 O 0.39094 0.01998 0.26704 0.0
C107 C 0.41369 0.02556 0.33161 0.0
C108 C 0.37938 0.05086 0.29861 0.0
C109 C 0.37672 0.99028 0.2998 0.0
O110 O 0.41824 0.01748 0.31727 0.0
O111 O 0.4004 0.03307 0.32892 0.0
O112 O 0.37065 1.00413 0.30471 0.0
O113 O 0.39176 0.99288 0.2937 0.0
C114 C 0.40741 0.02434 0.26554 0.0
O115 O 0.37049 0.03505 0.29636 0.0
O116 O 0.39625 0.0524 0.30049 0.0
In117 In 0.26933 0.1791 0.51192 0.0
O118 O 0.26961 0.20389 0.53367 0.0
O119 O 0.2788 0.18133 0.54331 0.0
C120 C 0.27136 0.19363 0.47857 0.0
C121 C 0.29678 0.16134 0.51447 0.0
C122 C 0.23588 0.15892 0.50837 0.0
O123 O 0.26885 0.2027 0.49343 0.0
O124 O 0.27301 0.17783 0.48079 0.0
O125 O 0.2482 0.15462 0.49954 0.0
O126 O 0.24021 0.17355 0.51879 0.0
C127 C 0.27555 0.19675 0.54758 0.0
O128 O 0.28105 0.15449 0.5171 0.0
O129 O 0.29884 0.17741 0.51074 0.0
In130 In 0.13465 0.04324 0.78586 0.0
O131 O 0.11219 0.02958 0.76189 0.0
O132 O 0.12974 0.05285 0.75695 0.0
C133 C 0.12072 0.0434 0.81963 0.0
C134 C 0.15265 0.01574 0.78183 0.0
C135 C 0.15561 0.07596 0.79153 0.0
O136 O 0.11095 0.04298 0.80429 0.0
O137 O 0.13699 0.0438 0.81774 0.0
O138 O 0.16159 0.06178 0.79381 0.0
O139 O 0.13892 0.07372 0.78672 0.0
C140 C 0.11692 0.04047 0.75031 0.0
O141 O 0.15827 0.03101 0.77713 0.0
O142 O 0.13774 0.01414 0.78828 0.0
In143 In 0.29138 0.91844 0.00109 0.0
O144 O 0.2813 0.8964 0.01824 0.0
O145 O 0.29643 0.92108 0.03249 0.0
C146 C 0.28963 0.8999 0.96795 0.0
C147 C 0.26465 0.93607 0.00067 0.0
C148 C 0.32417 0.93577 0.99992 0.0
O149 O 0.29745 0.89532 0.98245 0.0
O150 O 0.28166 0.91287 0.97055 0.0
O151 O 0.31057 0.94175 0.99388 0.0
O152 O 0.3212 0.92136 0.00731 0.0
C153 C 0.28783 0.90561 0.03364 0.0
O154 O 0.28078 0.9441 0.00342 0.0
O155 O 0.26216 0.91916 0.99853 0.0
In156 In 0.29694 0.39174 0.03511 0.0
O157 O 0.29234 0.3662 0.04977 0.0
O158 O 0.29724 0.39124 0.06677 0.0
C159 C 0.29512 0.37165 0.00153 0.0
C160 C 0.26781 0.40741 0.03673 0.0
C161 C 0.32955 0.41314 0.03621 0.0
O162 O 0.30726 0.37188 0.01476 0.0
O163 O 0.28374 0.38119 0.00532 0.0
O164 O 0.31605 0.41504 0.02551 0.0
O165 O 0.32642 0.40096 0.04678 0.0
C166 C 0.29367 0.3744 0.06607 0.0
O167 O 0.28351 0.41649 0.0382 0.0
O168 O 0.26694 0.39069 0.03416 0.0
In169 In 0.76779 0.12778 0.04646 0.0
O170 O 0.78391 0.10765 0.05719 0.0
O171 O 0.79246 0.12182 0.0347 0.0
C172 C 0.73381 0.11206 0.04363 0.0
C173 C 0.7755 0.14728 0.07958 0.0
C174 C 0.76624 0.14604 0.01697 0.0
O175 O 0.74547 0.10419 0.03691 0.0
O176 O 0.73944 0.12759 0.05198 0.0
O177 O 0.77311 0.15338 0.03309 0.0
O178 O 0.75972 0.12956 0.01584 0.0
C179 C 0.79565 0.11114 0.04626 0.0
O180 O 0.78085 0.15307 0.06488 0.0
O181 O 0.76618 0.13172 0.07749 0.0
In182 In 0.18171 0.54418 0.25096 0.0
O183 O 0.20522 0.52984 0.25482 0.0
O184 O 0.17962 0.51512 0.24248 0.0
C185 C 0.19604 0.57848 0.25505 0.0
C186 C 0.16346 0.54074 0.21742 0.0
C187 C 0.1665 0.54305 0.28246 0.0
O188 O 0.20537 0.56678 0.25095 0.0
O189 O 0.1799 0.57269 0.25677 0.0
O190 O 0.15821 0.54464 0.26691 0.0
O191 O 0.1826 0.54121 0.28214 0.0
C192 C 0.19586 0.51503 0.24748 0.0
O193 O 0.15633 0.53629 0.23177 0.0
O194 O 0.18005 0.54709 0.22001 0.0
In195 In 0.79614 0.89238 0.53561 0.0
O196 O 0.79268 0.86658 0.55001 0.0
O197 O 0.79459 0.89129 0.56701 0.0
C198 C 0.79384 0.87171 0.50236 0.0
C199 C 0.76683 0.90806 0.5369 0.0
C200 C 0.82902 0.91334 0.53556 0.0
O201 O 0.80302 0.86891 0.51697 0.0
O202 O 0.78566 0.88463 0.50467 0.0
O203 O 0.81589 0.91347 0.5236 0.0
O204 O 0.82551 0.90313 0.548 0.0
C205 C 0.79254 0.87446 0.56622 0.0
O206 O 0.78255 0.91667 0.54189 0.0
O207 O 0.76601 0.89179 0.53106 0.0
In208 In 0.92217 0.0164 0.26159 0.0
O209 O 0.94548 0.01376 0.24413 0.0
O210 O 0.92222 0.02095 0.23062 0.0
C211 C 0.9408 0.01938 0.29636 0.0
C212 C 0.90705 0.04614 0.26191 0.0
C213 C 0.90209 0.98284 0.25903 0.0
O214 O 0.94802 0.02474 0.28239 0.0
O215 O 0.9244 0.01275 0.29281 0.0
O216 O 0.89661 0.99682 0.26486 0.0
O217 O 0.91752 0.98574 0.25368 0.0
C218 C 0.93793 0.01822 0.22937 0.0
O219 O 0.89794 0.03048 0.25865 0.0
O220 O 0.92368 0.0468 0.26538 0.0
In221 In 0.26676 0.62795 0.54523 0.0
O222 O 0.28441 0.60756 0.54955 0.0
O223 O 0.29617 0.6335 0.54296 0.0
C224 C 0.23494 0.6069 0.54308 0.0
C225 C 0.27174 0.64706 0.57831 0.0
C226 C 0.26306 0.64492 0.51488 0.0
O227 O 0.24633 0.60374 0.53224 0.0
O228 O 0.24018 0.61983 0.55562 0.0
O229 O 0.25965 0.65106 0.53074 0.0
O230 O 0.26841 0.63015 0.51431 0.0
C231 C 0.29838 0.61822 0.54694 0.0
O232 O 0.26647 0.65318 0.5635 0.0
O233 O 0.27483 0.6313 0.5764 0.0
In234 In 0.42163 0.51683 0.76204 0.0
O235 O 0.39807 0.53111 0.75553 0.0
O236 O 0.4228 0.54714 0.76777 0.0
C237 C 0.4018 0.48309 0.76065 0.0
C238 C 0.43824 0.52061 0.73046 0.0
C239 C 0.44074 0.51973 0.79646 0.0
O240 O 0.39607 0.49708 0.76587 0.0
O241 O 0.41733 0.48607 0.75569 0.0
O242 O 0.44695 0.51543 0.78142 0.0
O243 O 0.42499 0.52278 0.79416 0.0
C244 C 0.4067 0.54665 0.76136 0.0
O245 O 0.4466 0.52 0.7463 0.0
O246 O 0.4215 0.51888 0.73041 0.0
In247 In 0.6828 0.04483 0.75189 0.0
O248 O 0.70606 0.03016 0.7535 0.0
O249 O 0.67919 0.01526 0.74878 0.0
C250 C 0.69838 0.07858 0.75521 0.0
C251 C 0.66947 0.03961 0.71646 0.0
C252 C 0.66521 0.04659 0.7818 0.0
O253 O 0.70709 0.06655 0.75947 0.0
O254 O 0.68207 0.07335 0.7492 0.0
O255 O 0.65822 0.04796 0.76555 0.0
O256 O 0.68112 0.04392 0.78296 0.0
C257 C 0.69573 0.01506 0.75024 0.0
O258 O 0.66035 0.03457 0.72934 0.0
O259 O 0.68535 0.04765 0.7214 0.0
In260 In 0.77043 0.68014 0.01153 0.0
O261 O 0.78355 0.65598 0.00681 0.0
O262 O 0.80021 0.68042 0.01939 0.0
C263 C 0.73788 0.65859 0.0063 0.0
C264 C 0.77344 0.6953 0.04795 0.0
C265 C 0.77256 0.69525 0.97861 0.0
O266 O 0.75238 0.6528 0.00686 0.0
O267 O 0.73967 0.67547 0.00821 0.0
O268 O 0.76519 0.70183 0.99193 0.0
O269 O 0.7791 0.68176 0.98222 0.0
C270 C 0.79904 0.66403 0.01355 0.0
O271 O 0.77781 0.70443 0.03476 0.0
O272 O 0.76743 0.67896 0.04265 0.0
In273 In 0.89674 0.5231 0.79866 0.0
O274 O 0.87183 0.53332 0.79067 0.0
O275 O 0.89504 0.55234 0.80312 0.0
C276 C 0.87826 0.49049 0.79784 0.0
C277 C 0.91046 0.52577 0.76636 0.0
C278 C 0.91433 0.52453 0.83232 0.0
O279 O 0.87315 0.50382 0.80586 0.0
O280 O 0.89274 0.49362 0.79068 0.0
O281 O 0.92009 0.51802 0.81781 0.0
O282 O 0.90038 0.53107 0.82956 0.0
C283 C 0.87885 0.54942 0.79613 0.0
O284 O 0.91957 0.53266 0.78175 0.0
O285 O 0.89491 0.51755 0.7676 0.0
In286 In 0.78939 0.41868 0.49835 0.0
O287 O 0.78366 0.39552 0.51562 0.0
O288 O 0.79665 0.42111 0.52961 0.0
C289 C 0.78753 0.40236 0.46394 0.0
C290 C 0.76012 0.433 0.49725 0.0
C291 C 0.82207 0.43759 0.50169 0.0
O292 O 0.78662 0.39357 0.47794 0.0
O293 O 0.78888 0.41903 0.46742 0.0
O294 O 0.80875 0.44455 0.50531 0.0
O295 O 0.81892 0.42087 0.49692 0.0
C296 C 0.79016 0.40496 0.53091 0.0
O297 O 0.77456 0.44095 0.49248 0.0
O298 O 0.7604 0.41777 0.50252 0.0
In299 In 0.63363 0.54293 0.28537 0.0
O300 O 0.65928 0.53138 0.28548 0.0
O301 O 0.63489 0.51326 0.28616 0.0
C302 C 0.65574 0.57493 0.28679 0.0
C303 C 0.61674 0.53871 0.24934 0.0
C304 C 0.61768 0.54349 0.31818 0.0
O305 O 0.65982 0.5623 0.29541 0.0
O306 O 0.64052 0.57147 0.27728 0.0
O307 O 0.61051 0.53352 0.30343 0.0
O308 O 0.63205 0.5535 0.316 0.0
C309 C 0.65164 0.51539 0.28587 0.0
O310 O 0.61224 0.54864 0.2625 0.0
O311 O 0.62916 0.53069 0.25451 0.0
Eu312 Eu 0.06662 0.04985 0.04788 0.0
C313 C 1.00203 0.9909 0.00364 0.0
N314 N 0.0129 1.0055 0.99882 0.0
C315 C 0.01371 0.99001 0.96842 0.0
C316 C 0.99688 0.97512 0.99101 0.0
C317 C 0.01848 1.00536 0.98137 0.0
C318 C 1.00294 0.9748 0.97328 0.0
C319 C 0.98469 0.97676 0.02662 0.0
C320 C 0.99586 0.99174 0.02124 0.0
C321 C 0.9797 0.96103 0.01409 0.0
C322 C 0.98573 0.96022 0.99633 0.0
Eu323 Eu 0.01829 0.03119 0.02116 0.0
N324 N 1.00109 0.00706 0.03325 0.0
C325 C 0.9789 0.97802 0.04447 0.0
C326 C 0.99469 0.00865 0.05022 0.0
C327 C 0.98384 0.99409 0.05628 0.0
H328 H 0.02606 0.0172 0.97704 0.0
H329 H 0.97902 0.99538 0.0699 0.0
H330 H 0.0574 0.06057 0.09229 0.0
H331 H 0.10332 0.09122 0.00127 0.0
H332 H 0.99742 0.02125 0.05888 0.0
H333 H 0.97039 0.96679 0.04915 0.0
H334 H 0.08545 0.06388 0.01 0.0
H335 H 0.01814 0.99002 0.95459 0.0
H336 H 0.97112 0.94941 0.01799 0.0
H337 H 0.98164 0.94801 0.98678 0.0
H338 H 0.06351 0.08679 0.11609 0.0
H339 H 0.99918 0.96297 0.96315 0.0
H340 H 0.11087 0.11858 0.02396 0.0
N341 N 0.06955 0.07448 0.07121 0.0
C342 C 0.07955 0.08998 0.06722 0.0
C343 C 0.06786 0.08794 0.10232 0.0
C344 C 0.08391 0.10517 0.08076 0.0
C345 C 0.06401 0.07318 0.08858 0.0
C346 C 0.07781 0.10403 0.09839 0.0
N347 N 0.08151 0.07582 0.03675 0.0
C348 C 0.08788 0.07584 0.0197 0.0
C349 C 0.09645 0.10648 0.04539 0.0
C350 C 0.08579 0.09063 0.04964 0.0
C351 C 0.10264 0.10667 0.02773 0.0
C352 C 0.09834 0.09129 0.01485 0.0
H353 H 0.08098 0.11537 0.10917 0.0
H354 H 0.09801 0.13266 0.08675 0.0
H355 H 0.10892 0.13382 0.05583 0.0
O356 O 0.09363 0.0457 0.04471 0.0
O357 O 0.04998 0.07139 0.03993 0.0
O358 O 0.03172 0.05809 0.01331 0.0
O359 O 0.08514 0.04912 0.07295 0.0
O360 O 0.0664 0.03631 0.01802 0.0
O361 O 0.03959 0.03969 0.0024 0.0
O362 O 0.9949 0.04298 0.02628 0.0
O363 O 0.03117 0.00846 0.03262 0.0
O364 O 0.05879 0.01971 0.04978 0.0
O365 O 0.9975 0.03075 0.99801 0.0
O366 O 0.02108 0.0467 0.05026 0.0
O367 O 0.04538 0.03821 0.06522 0.0
C368 C 0.03934 0.07249 0.02463 0.0
C369 C 0.11559 0.04451 0.0708 0.0
C370 C 0.14226 0.03229 0.06667 0.0
C371 C 0.14801 0.03636 0.0859 0.0
C372 C 0.12133 0.0488 0.09007 0.0
C373 C 0.13761 0.04484 0.09755 0.0
C374 C 0.12631 0.0366 0.05915 0.0
C375 C 0.05626 0.03739 0.00245 0.0
C376 C 0.09786 0.04656 0.0628 0.0
C377 C 0.09447 0.12093 0.07647 0.0
C378 C 0.10071 0.12158 0.05886 0.0
C379 C 0.04571 0.00622 0.04303 0.0
C380 C 0.97104 0.04368 0.00165 0.0
C381 C 0.94632 0.05897 0.00699 0.0
C382 C 0.93869 0.05314 0.98839 0.0
C383 C 0.96335 0.0379 0.98311 0.0
C384 C 0.96257 0.05431 0.01342 0.0
C385 C 0.94723 0.04268 0.97652 0.0
C386 C 0.02969 0.04283 0.06553 0.0
C387 C 0.98812 0.03917 0.00871 0.0
H388 H 0.16032 0.0328 0.09185 0.0
H389 H 0.11313 0.05488 0.09934 0.0
H390 H 0.14197 0.04797 0.11243 0.0
H391 H 0.12183 0.03286 0.04431 0.0
H392 H 0.92596 0.05631 0.98314 0.0
H393 H 0.96976 0.02973 0.97373 0.0
H394 H 0.96869 0.05908 0.02762 0.0
H395 H 0.94127 0.03816 0.96225 0.0
Eu396 Eu 0.25968 0.79135 0.31173 0.0
C397 C 0.29802 0.75533 0.24132 0.0
N398 N 0.30558 0.76849 0.25521 0.0
C399 C 0.33049 0.75373 0.2611 0.0
C400 C 0.30614 0.74038 0.23721 0.0
C401 C 0.32175 0.76813 0.26486 0.0
C402 C 0.32255 0.73968 0.24736 0.0
C403 C 0.27406 0.7437 0.2164 0.0
C404 C 0.28215 0.75695 0.23119 0.0
C405 C 0.28166 0.72838 0.21273 0.0
C406 C 0.2977 0.72676 0.22308 0.0
Eu407 Eu 0.28933 0.79146 0.26226 0.0
N408 N 0.27517 0.77194 0.23514 0.0
C409 C 0.25893 0.74653 0.20535 0.0
C410 C 0.26166 0.77559 0.22309 0.0
C411 C 0.253 0.76276 0.20841 0.0
H412 H 0.32785 0.77892 0.2755 0.0
H413 H 0.24186 0.76548 0.19935 0.0
H414 H 0.21805 0.79875 0.3003 0.0
H415 H 0.31047 0.82484 0.36939 0.0
H416 H 0.25744 0.78839 0.22458 0.0
H417 H 0.25226 0.73664 0.19392 0.0
H418 H 0.29759 0.80197 0.34339 0.0
H419 H 0.34328 0.75343 0.26887 0.0
H420 H 0.27549 0.71795 0.2016 0.0
H421 H 0.30361 0.71505 0.21985 0.0
H422 H 0.19876 0.81985 0.31021 0.0
H423 H 0.32929 0.72847 0.24457 0.0
H424 H 0.29315 0.84755 0.38034 0.0
N425 N 0.23991 0.81037 0.32091 0.0
C426 C 0.24605 0.82295 0.33583 0.0
C427 C 0.21206 0.82093 0.31748 0.0
C428 C 0.23546 0.83536 0.34188 0.0
C429 C 0.2231 0.80906 0.31184 0.0
C430 C 0.2183 0.8342 0.33249 0.0
N431 N 0.27323 0.81176 0.33842 0.0
C432 C 0.28984 0.81184 0.34744 0.0
C433 C 0.27008 0.83701 0.35998 0.0
C434 C 0.26318 0.82371 0.3448 0.0
C435 C 0.28736 0.83751 0.36871 0.0
C436 C 0.2972 0.82476 0.36251 0.0
H437 H 0.20976 0.84347 0.33674 0.0
H438 H 0.23444 0.8583 0.36168 0.0
H439 H 0.26476 0.85979 0.37748 0.0
O440 O 0.25977 0.77067 0.33055 0.0
O441 O 0.26834 0.81997 0.30684 0.0
O442 O 0.27987 0.80391 0.28703 0.0
O443 O 0.23462 0.77518 0.3171 0.0
O444 O 0.28877 0.78488 0.31442 0.0
O445 O 0.30611 0.79665 0.29133 0.0
O446 O 0.29045 0.81355 0.2452 0.0
O447 O 0.2837 0.76494 0.27333 0.0
O448 O 0.26064 0.77423 0.28492 0.0
O449 O 0.31504 0.80549 0.25559 0.0
O450 O 0.25996 0.79567 0.25722 0.0
O451 O 0.24319 0.7928 0.28332 0.0
C452 C 0.27751 0.81982 0.29284 0.0
C453 C 0.23418 0.76484 0.34697 0.0
C454 C 0.23659 0.75678 0.37888 0.0
C455 C 0.21798 0.75574 0.37889 0.0
C456 C 0.21561 0.76366 0.34715 0.0
C457 C 0.20764 0.75943 0.36318 0.0
C458 C 0.2446 0.76205 0.3631 0.0
C459 C 0.30441 0.78947 0.30743 0.0
C460 C 0.24234 0.76679 0.32944 0.0
C461 C 0.24234 0.8486 0.35693 0.0
C462 C 0.25961 0.84945 0.36592 0.0
C463 C 0.27042 0.76195 0.28333 0.0
C464 C 0.31327 0.81573 0.22548 0.0
C465 C 0.31043 0.82707 0.19527 0.0
C466 C 0.32318 0.81732 0.18915 0.0
C467 C 0.32594 0.8058 0.21925 0.0
C468 C 0.30556 0.82631 0.21338 0.0
C469 C 0.33086 0.80666 0.20113 0.0
C470 C 0.24496 0.79538 0.26545 0.0
C471 C 0.30761 0.81516 0.24433 0.0
H472 H 0.21124 0.75132 0.39063 0.0
H473 H 0.20721 0.76555 0.33477 0.0
H474 H 0.1933 0.75829 0.36316 0.0
H475 H 0.25894 0.76313 0.36305 0.0
H476 H 0.32702 0.81783 0.17509 0.0
H477 H 0.33198 0.79739 0.22829 0.0
H478 H 0.29575 0.834 0.21803 0.0
H479 H 0.3406 0.79902 0.19634 0.0
Eu480 Eu 0.49785 0.02323 0.5455 0.0
C481 C 0.56496 0.06286 0.50888 0.0
N482 N 0.55296 0.04745 0.50278 0.0
C483 C 0.5505 0.05603 0.47157 0.0
C484 C 0.5695 0.0758 0.49652 0.0
C485 C 0.54638 0.04357 0.48423 0.0
C486 C 0.56192 0.0723 0.47777 0.0
C487 C 0.58523 0.08172 0.53404 0.0
C488 C 0.57301 0.06574 0.5275 0.0
C489 C 0.58941 0.09468 0.52178 0.0
C490 C 0.58163 0.09171 0.5031 0.0
Eu491 Eu 0.54817 0.02752 0.52575 0.0
N492 N 0.56853 0.05319 0.53937 0.0
C493 C 0.59287 0.08426 0.55277 0.0
C494 C 0.57634 0.05529 0.55743 0.0
C495 C 0.58847 0.07096 0.56447 0.0
H496 H 0.53829 0.03073 0.47884 0.0
H497 H 0.59452 0.07279 0.57886 0.0
H498 H 0.50906 0.01901 0.59233 0.0
H499 H 0.44684 0.97984 0.49573 0.0
H500 H 0.57336 0.0448 0.56628 0.0
H501 H 0.60228 0.09637 0.55831 0.0
H502 H 0.46839 0.00757 0.50798 0.0
H503 H 0.54507 0.05296 0.45695 0.0
H504 H 0.59875 0.10704 0.5266 0.0
H505 H 0.58517 0.10179 0.49379 0.0
H506 H 0.50569 0.99545 0.61307 0.0
H507 H 0.56513 0.08189 0.46787 0.0
H508 H 0.44347 0.95408 0.51437 0.0
N509 N 0.4958 1.00206 0.5678 0.0
C510 C 0.48494 0.98598 0.56144 0.0
C511 C 0.50011 0.99249 0.59849 0.0
C512 C 0.48193 0.97233 0.57336 0.0
C513 C 0.50243 1.00575 0.58638 0.0
C514 C 0.49008 0.97562 0.59189 0.0
N515 N 0.47808 0.99696 0.53229 0.0
C516 C 0.4674 0.99615 0.51579 0.0
C517 C 0.46326 0.96753 0.53716 0.0
C518 C 0.47562 0.9835 0.54344 0.0
C519 C 0.45314 0.9661 0.51961 0.0
C520 C 0.45503 0.98058 0.50901 0.0
H521 H 0.48803 0.9655 0.60145 0.0
H522 H 0.46789 0.94553 0.57575 0.0
H523 H 0.45159 0.94135 0.54411 0.0
O524 O 0.47635 0.03708 0.53539 0.0
O525 O 0.50379 0.99915 0.52625 0.0
O526 O 0.534 1.00066 0.53364 0.0
O527 O 0.47646 0.02676 0.56233 0.0
O528 O 0.50776 0.03608 0.52078 0.0
O529 O 0.52436 0.01994 0.50416 0.0
O530 O 0.57476 0.01992 0.53277 0.0
O531 O 0.53991 0.05435 0.53681 0.0
O532 O 0.51499 0.05149 0.55396 0.0
O533 O 0.56 0.01308 0.50455 0.0
O534 O 0.53933 0.01652 0.55179 0.0
O535 O 0.52139 0.03174 0.56758 0.0
C536 C 0.51812 0.99153 0.52641 0.0
C537 C 0.46136 0.05089 0.55882 0.0
C538 C 0.43767 0.06856 0.55785 0.0
C539 C 0.44375 0.0761 0.57639 0.0
C540 C 0.46755 0.05888 0.57722 0.0
C541 C 0.45874 0.0714 0.58592 0.0
C542 C 0.4466 0.05604 0.54906 0.0
C543 C 0.50988 0.02671 0.5054 0.0
C544 C 0.46848 0.03557 0.55058 0.0
C545 C 0.47026 0.95612 0.56677 0.0
C546 C 0.46094 0.95374 0.54876 0.0
C547 C 0.52885 0.06125 0.54746 0.0
C548 C 0.58897 1.0045 0.50802 0.0
C549 C 0.61348 0.98767 0.51083 0.0
C550 C 0.61497 0.98831 0.4916 0.0
C551 C 0.5909 1.00499 0.48886 0.0
C552 C 0.60056 0.99605 0.51915 0.0
C553 C 0.60384 0.997 0.48077 0.0
C554 C 0.53663 0.02631 0.56667 0.0
C555 C 0.57436 0.01237 0.51564 0.0
H556 H 0.43699 0.08576 0.58339 0.0
H557 H 0.47888 0.05508 0.58507 0.0
H558 H 0.46339 0.0773 0.60019 0.0
H559 H 0.44163 0.04982 0.53493 0.0
H560 H 0.62492 0.98216 0.48497 0.0
H561 H 0.58233 0.01153 0.48004 0.0
H562 H 0.59923 0.99554 0.53394 0.0
H563 H 0.60519 0.99747 0.46599 0.0
Eu564 Eu 0.31067 0.26611 0.77964 0.0
C565 C 0.24344 0.29159 0.73897 0.0
N566 N 0.25484 0.30045 0.75391 0.0
C567 C 0.256 0.32808 0.7404 0.0
C568 C 0.23809 0.30075 0.72392 0.0
C569 C 0.26099 0.31845 0.75497 0.0
C570 C 0.24454 0.31919 0.72478 0.0
C571 C 0.22612 0.2636 0.72289 0.0
C572 C 0.23758 0.27317 0.73844 0.0
C573 C 0.22069 0.27272 0.70793 0.0
C574 C 0.22666 0.29122 0.70844 0.0
Eu575 Eu 0.26228 0.28299 0.77767 0.0
N576 N 0.24358 0.26453 0.75281 0.0
C577 C 0.22053 0.24511 0.72279 0.0
C578 C 0.23758 0.24669 0.75315 0.0
C579 C 0.22617 0.23666 0.73806 0.0
H580 H 0.2695 0.32547 0.76719 0.0
H581 H 0.22158 0.22244 0.73831 0.0
H582 H 0.30215 0.22296 0.78809 0.0
H583 H 0.35799 0.32287 0.81786 0.0
H584 H 0.24123 0.24023 0.76515 0.0
H585 H 0.21171 0.23728 0.71111 0.0
H586 H 0.33509 0.30723 0.79243 0.0
H587 H 0.26094 0.34235 0.74126 0.0
H588 H 0.21192 0.26557 0.69585 0.0
H589 H 0.22243 0.29803 0.69674 0.0
H590 H 0.31081 0.20445 0.81248 0.0
H591 H 0.24074 0.32669 0.71349 0.0
H592 H 0.36853 0.3063 0.84334 0.0
N593 N 0.31848 0.24704 0.80178 0.0
C594 C 0.33095 0.25472 0.81634 0.0
C595 C 0.3165 0.21859 0.81378 0.0
C596 C 0.33653 0.24457 0.83041 0.0
C597 C 0.31147 0.22917 0.8001 0.0
C598 C 0.32902 0.22633 0.82906 0.0
N599 N 0.33202 0.2824 0.80378 0.0
C600 C 0.33923 0.30002 0.80367 0.0
C601 C 0.35131 0.28117 0.83198 0.0
C602 C 0.33814 0.27284 0.81721 0.0
C603 C 0.3584 0.29941 0.83224 0.0
C604 C 0.3524 0.30884 0.81795 0.0
H605 H 0.33292 0.21809 0.83961 0.0
H606 H 0.35381 0.24531 0.85629 0.0
H607 H 0.36681 0.27732 0.85761 0.0
O608 O 0.33229 0.27438 0.76233 0.0
O609 O 0.3018 0.27465 0.80819 0.0
O610 O 0.28282 0.29461 0.80228 0.0
O611 O 0.32507 0.24664 0.76711 0.0
O612 O 0.30811 0.29234 0.7676 0.0
O613 O 0.28705 0.30512 0.78263 0.0
O614 O 0.23851 0.27488 0.79318 0.0
O615 O 0.27372 0.27677 0.74968 0.0
O616 O 0.28845 0.25431 0.75663 0.0
O617 O 0.24611 0.30222 0.78654 0.0
O618 O 0.26518 0.25805 0.792 0.0
O619 O 0.28526 0.24517 0.77583 0.0
C620 C 0.29199 0.28636 0.81385 0.0
C621 C 0.35501 0.25633 0.76091 0.0
C622 C 0.38313 0.25852 0.74675 0.0
C623 C 0.38972 0.24865 0.76044 0.0
C624 C 0.36208 0.24678 0.7747 0.0
C625 C 0.3793 0.24297 0.77441 0.0
C626 C 0.36576 0.26242 0.74707 0.0
C627 C 0.30184 0.30645 0.77427 0.0
C628 C 0.33598 0.25832 0.75965 0.0
C629 C 0.34942 0.25288 0.84532 0.0
C630 C 0.35683 0.27111 0.84606 0.0
C631 C 0.28183 0.26356 0.74424 0.0
C632 C 0.21952 0.29715 0.80284 0.0
C633 C 0.19392 0.29393 0.82173 0.0
C634 C 0.19178 0.31137 0.81857 0.0
C635 C 0.21665 0.31452 0.80013 0.0
C636 C 0.20784 0.28664 0.81362 0.0
C637 C 0.20296 0.32147 0.80787 0.0
C638 C 0.27232 0.24413 0.78672 0.0
C639 C 0.23488 0.29102 0.79416 0.0
H640 H 0.40298 0.24539 0.76034 0.0
H641 H 0.35414 0.24189 0.78547 0.0
H642 H 0.38452 0.23538 0.78491 0.0
H643 H 0.36043 0.26965 0.73625 0.0
H644 H 0.18123 0.31722 0.82436 0.0
H645 H 0.22505 0.32292 0.79193 0.0
H646 H 0.20971 0.27322 0.81592 0.0
H647 H 0.20102 0.33486 0.80557 0.0
Eu648 Eu 0.04462 1.0025 0.51753 0.0
C649 C 0.02195 0.06823 0.56067 0.0
N650 N 0.01356 0.05821 0.54459 0.0
C651 C 0.98524 0.05652 0.55686 0.0
C652 C 0.01225 0.07226 0.57575 0.0
C653 C 0.99533 0.05315 0.54217 0.0
C654 C 0.99376 0.06588 0.57383 0.0
C655 C 0.04888 0.08697 0.5776 0.0
C656 C 0.04012 0.07548 0.56169 0.0
C657 C 0.03938 0.09041 0.59288 0.0
C658 C 0.02114 0.08303 0.59198 0.0
Eu659 Eu 0.03236 0.05313 0.52107 0.0
N660 N 0.04913 0.07171 0.54687 0.0
C661 C 0.06684 0.095 0.57747 0.0
C662 C 0.06628 0.08028 0.54615 0.0
C663 C 0.07549 0.09184 0.56156 0.0
H664 H 0.98835 0.04681 0.52884 0.0
H665 H 0.08921 0.09833 0.56114 0.0
H666 H 0.08769 0.01125 0.50748 0.0
H667 H 0.98671 0.95673 0.47928 0.0
H668 H 0.0728 0.07798 0.53371 0.0
H669 H 0.07401 0.10396 0.5894 0.0
H670 H 1.00316 0.97823 0.50559 0.0
H671 H 0.97084 0.05218 0.55497 0.0
H672 H 0.04593 0.09906 0.6053 0.0
H673 H 0.0139 0.08615 0.60372 0.0
H674 H 0.1048 1.00421 0.48151 0.0
H675 H 0.98585 0.06869 0.58509 0.0
H676 H 1.00209 0.94841 0.45195 0.0
N677 N 0.06263 0.99707 0.49346 0.0
C678 C 0.05429 0.98532 0.47851 0.0
C679 C 0.09056 0.99903 0.48035 0.0
C680 C 0.06379 0.98054 0.4635 0.0
C681 C 0.08066 1.00332 0.49493 0.0
C682 C 0.08206 0.98776 0.46447 0.0
N683 N 0.02729 0.9826 0.4929 0.0
C684 C 0.00985 0.97504 0.49355 0.0
C685 C 0.02737 0.96549 0.46301 0.0
C686 C 0.03622 0.97782 0.47827 0.0
C687 C 0.00934 0.95796 0.46339 0.0
C688 C 1.00058 0.96267 0.47877 0.0
H689 H 0.08981 0.98438 0.45325 0.0
H690 H 0.06197 0.96474 0.43652 0.0
H691 H 0.03014 0.95161 0.43606 0.0
O692 O 0.03906 0.97489 0.52561 0.0
O693 O 0.03674 0.01382 0.48999 0.0
O694 O 0.01788 0.03406 0.49634 0.0
O695 O 0.06574 0.99159 0.53239 0.0
O696 O 0.01822 1.00506 0.52869 0.0
O697 O 0.00839 0.02961 0.51671 0.0
O698 O 0.0431 0.07284 0.50259 0.0
O699 O 0.05011 0.04515 0.54539 0.0
O700 O 0.03775 0.01571 0.54473 0.0
O701 O 0.01966 0.07608 0.51582 0.0
O702 O 0.05518 0.04548 0.50628 0.0
O703 O 0.06768 0.02625 0.52362 0.0
C704 C 0.02472 0.02348 0.48466 0.0
C705 C 0.06272 0.96145 0.54139 0.0
C706 C 0.05902 0.93388 0.55671 0.0
C707 C 0.07689 0.9327 0.55455 0.0
C708 C 0.0806 0.95999 0.53967 0.0
C709 C 0.08759 0.9457 0.54618 0.0
C710 C 0.0519 0.94836 0.5501 0.0
C711 C 1.0055 0.01386 0.52339 0.0
C712 C 0.05551 0.97613 0.53307 0.0
C713 C 0.05489 0.9685 0.44818 0.0
C714 C 0.03675 0.961 0.44793 0.0
C715 C 0.0472 0.03051 0.55382 0.0
C716 C 0.02324 0.08972 0.48772 0.0
C717 C 0.02326 0.11363 0.46695 0.0
C718 C 0.0075 0.10364 0.45676 0.0
C719 C 0.00752 0.08013 0.47716 0.0
C720 C 0.03109 0.10662 0.48261 0.0
C721 C 0.9997 0.0871 0.46187 0.0
C722 C 0.06924 0.04055 0.51459 0.0
C723 C 0.03087 0.08261 0.50459 0.0
H724 H 0.08265 0.92175 0.55956 0.0
H725 H 0.08912 0.96975 0.53292 0.0
H726 H 0.10136 0.94465 0.54465 0.0
H727 H 0.03808 0.9493 0.55155 0.0
H728 H 1.00109 0.10878 0.44489 0.0
H729 H 1.00117 0.0673 0.48088 0.0
H730 H 0.04315 0.11424 0.49074 0.0
H731 H 0.98745 0.07968 0.45397 0.0
Eu732 Eu 0.29089 0.81484 0.75142 0.0
C733 C 0.24874 0.74702 0.78645 0.0
N734 N 0.26391 0.75924 0.79294 0.0
C735 C 0.25482 0.76096 0.82395 0.0
C736 C 0.23595 0.74152 0.79865 0.0
C737 C 0.26739 0.76565 0.81157 0.0
C738 C 0.23898 0.74896 0.81745 0.0
C739 C 0.23138 0.72563 0.7612 0.0
C740 C 0.24632 0.7392 0.76775 0.0
C741 C 0.2186 0.7204 0.77332 0.0
C742 C 0.22081 0.72839 0.79192 0.0
Eu743 Eu 0.28417 0.7644 0.77037 0.0
N744 N 0.25866 0.74466 0.75601 0.0
C745 C 0.22985 0.71755 0.74265 0.0
C746 C 0.25763 0.73647 0.7382 0.0
C747 C 0.24308 0.72293 0.73115 0.0
H748 H 0.28002 0.77396 0.81728 0.0
H749 H 0.24218 0.7165 0.71695 0.0
H750 H 0.29577 0.80483 0.70487 0.0
H751 H 0.33535 0.85936 0.8065 0.0
H752 H 0.26822 0.74021 0.72962 0.0
H753 H 0.21861 0.707 0.73716 0.0
H754 H 0.30776 0.83841 0.79281 0.0
H755 H 0.25756 0.76626 0.83862 0.0
H756 H 0.207 0.71005 0.7685 0.0
H757 H 0.21091 0.72402 0.80113 0.0
H758 H 0.31877 0.81186 0.68389 0.0
H759 H 0.22944 0.74509 0.82721 0.0
H760 H 0.35955 0.86771 0.78671 0.0
N761 N 0.31181 0.81923 0.72935 0.0
C762 C 0.32722 0.83101 0.73609 0.0
C763 C 0.32141 0.81712 0.69859 0.0
C764 C 0.34049 0.8359 0.72419 0.0
C765 C 0.30851 0.8128 0.71073 0.0
C766 C 0.3375 0.82861 0.70535 0.0
N767 N 0.317 0.8336 0.76639 0.0
C768 C 0.31859 0.84127 0.78446 0.0
C769 C 0.34551 0.85092 0.76194 0.0
C770 C 0.32973 0.83858 0.75489 0.0
C771 C 0.34762 0.8582 0.78079 0.0
C772 C 0.33405 0.85343 0.79206 0.0
H773 H 0.34736 0.83208 0.6958 0.0
H774 H 0.36646 0.85202 0.7223 0.0
H775 H 0.37086 0.86507 0.75527 0.0
O776 O 0.28098 0.83909 0.76136 0.0
O777 O 0.31654 0.80487 0.76334 0.0
O778 O 0.31112 0.78166 0.78232 0.0
O779 O 0.28603 0.83424 0.7324 0.0
O780 O 0.27769 0.80704 0.7768 0.0
O781 O 0.29159 0.78778 0.79249 0.0
O782 O 0.29978 0.74413 0.76019 0.0
O783 O 0.25824 0.77213 0.7562 0.0
O784 O 0.26154 0.80066 0.74593 0.0
O785 O 0.2871 0.74183 0.78557 0.0
O786 O 0.29691 0.77404 0.74558 0.0
O787 O 0.28194 0.79169 0.72922 0.0
C788 C 0.32212 0.79401 0.77516 0.0
C789 C 0.26346 0.85095 0.73805 0.0
C790 C 0.24501 0.87396 0.74017 0.0
C791 C 0.23494 0.86608 0.72318 0.0
C792 C 0.25296 0.84299 0.72124 0.0
C793 C 0.23881 0.85057 0.71387 0.0
C794 C 0.25922 0.86632 0.74764 0.0
C795 C 0.28625 0.80313 0.79193 0.0
C796 C 0.2798 0.84446 0.74468 0.0
C797 C 0.35619 0.84814 0.73129 0.0
C798 C 0.35868 0.85561 0.75007 0.0
C799 C 0.2516 0.78528 0.74877 0.0
C800 C 0.31182 0.72726 0.78363 0.0
C801 C 0.3308 0.70436 0.78354 0.0
C802 C 0.33538 0.70891 0.80299 0.0
C803 C 0.31706 0.73173 0.80302 0.0
C804 C 0.31875 0.71347 0.77391 0.0
C805 C 0.3286 0.72249 0.8126 0.0
C806 C 0.28791 0.77676 0.73019 0.0
C807 C 0.29712 0.73494 0.77439 0.0
H808 H 0.22396 0.87186 0.71723 0.0
H809 H 0.25588 0.83112 0.71356 0.0
H810 H 0.23094 0.84451 0.70082 0.0
H811 H 0.26726 0.87262 0.76055 0.0
H812 H 0.34404 0.70172 0.8109 0.0
H813 H 0.31176 0.74199 0.81099 0.0
H814 H 0.31459 0.70968 0.75905 0.0
H815 H 0.33209 0.72568 0.82761 0.0
Eu816 Eu 0.52583 0.05486 0.98748 0.0
C817 C 0.56034 0.01372 0.05846 0.0
N818 N 0.54809 0.00782 0.04311 0.0
C819 C 0.56044 0.98114 0.03801 0.0
C820 C 0.5735 1.00368 0.06378 0.0
C821 C 0.54773 0.99158 0.03315 0.0
C822 C 0.57345 0.98724 0.05331 0.0
C823 C 0.57288 0.03681 0.08425 0.0
C824 C 0.55993 0.03004 0.06877 0.0
C825 C 0.58602 0.02684 0.08948 0.0
C826 C 0.58629 0.01031 0.07933 0.0
Eu827 Eu 0.52655 0.02605 0.03702 0.0
N828 N 0.54738 0.0397 0.06304 0.0
C829 C 0.57236 0.05349 0.09392 0.0
C830 C 0.54642 0.05566 0.07287 0.0
C831 C 0.55902 0.0629 0.08826 0.0
H832 H 0.53743 0.98634 0.02171 0.0
H833 H 0.55834 0.07568 0.09583 0.0
H834 H 0.51586 0.09459 1.00043 0.0
H835 H 0.49356 1.00378 0.92944 0.0
H836 H 0.5359 0.06284 0.06912 0.0
H837 H 0.58213 0.05917 0.10584 0.0
H838 H 0.51731 0.01807 0.95407 0.0
H839 H 0.56011 0.96829 0.03005 0.0
H840 H 0.59608 0.03183 0.10134 0.0
H841 H 0.59651 1.00278 0.08357 0.0
H842 H 0.4926 0.11239 0.99243 0.0
H843 H 0.58328 0.97911 0.05701 0.0
H844 H 0.46789 0.0185 0.92134 0.0
N845 N 0.50434 0.07259 0.98006 0.0
C846 C 0.49113 0.06575 0.96599 0.0
C847 C 0.49198 0.09926 0.98494 0.0
C848 C 0.47745 0.07533 0.9611 0.0
C849 C 0.50511 0.08916 0.98944 0.0
C850 C 0.47803 0.09228 0.97076 0.0
N851 N 0.50478 0.04029 0.96164 0.0
C852 C 0.50599 0.02451 0.95155 0.0
C853 C 0.47749 0.04144 0.94211 0.0
C854 C 0.49121 0.04901 0.95668 0.0
C855 C 0.47819 0.02479 0.93256 0.0
C856 C 0.49262 0.01641 0.93714 0.0
H857 H 0.4678 0.10009 0.96737 0.0
H858 H 0.45299 0.07481 0.94292 0.0
H859 H 0.45299 0.0451 0.92631 0.0
O860 O 0.546 0.05588 0.96856 0.0
O861 O 0.49963 0.05028 0.99891 0.0
O862 O 0.50653 0.02601 0.01134 0.0
O863 O 0.54192 0.08068 0.98309 0.0
O864 O 0.5327 0.02617 0.98375 0.0
O865 O 0.52388 0.00883 0.00815 0.0
O866 O 0.50883 0.02701 0.05889 0.0
O867 O 0.55447 0.04046 0.03481 0.0
O868 O 0.53801 0.04349 0.01039 0.0
O869 O 0.51359 1.00109 0.04644 0.0
O870 O 0.51863 0.05404 0.03896 0.0
O871 O 0.53098 0.07177 0.01643 0.0
C872 C 0.49556 0.03738 0.00924 0.0
C873 C 0.54934 0.08077 0.95168 0.0
C874 C 0.55568 0.07713 0.91923 0.0
C875 C 0.55341 0.09482 0.91743 0.0
C876 C 0.54731 0.0985 0.94991 0.0
C877 C 0.54896 0.10534 0.93267 0.0
C878 C 0.55262 0.07006 0.93603 0.0
C879 C 0.52917 0.01063 0.99115 0.0
C880 C 0.54947 0.07329 0.96974 0.0
C881 C 0.46367 0.0677 0.94682 0.0
C882 C 0.46366 0.05077 0.93738 0.0
C883 C 0.55383 0.0473 0.01937 0.0
C884 C 0.49412 1.00052 0.07113 0.0
C885 C 0.47705 1.00219 0.09757 0.0
C886 C 0.47155 0.98353 0.095 0.0
C887 C 0.48865 0.9818 0.06853 0.0
C888 C 0.48825 0.01065 0.08568 0.0
C889 C 0.47735 0.97336 0.08047 0.0
C890 C 0.52395 0.0697 0.03251 0.0
C891 C 0.50583 0.00964 0.05876 0.0
H892 H 0.55584 0.10078 0.90465 0.0
H893 H 0.54471 0.10708 0.9618 0.0
H894 H 0.5475 0.11904 0.93133 0.0
H895 H 0.5538 0.05623 0.93718 0.0
H896 H 0.46288 0.97689 0.10428 0.0
H897 H 0.49302 0.97374 0.0573 0.0
H898 H 0.49244 0.02511 0.08791 0.0
H899 H 0.47313 0.95895 0.07847 0.0
Eu900 Eu 0.26398 0.24823 0.25015 0.0
C901 C 0.32458 0.3087 0.29733 0.0
N902 N 0.30857 0.30016 0.30167 0.0
C903 C 0.32079 0.30121 0.33376 0.0
C904 C 0.3394 0.31387 0.31124 0.0
C905 C 0.30644 0.29643 0.31957 0.0
C906 C 0.33732 0.30999 0.3296 0.0
C907 C 0.34269 0.3212 0.2741 0.0
C908 C 0.3262 0.3124 0.27893 0.0
C909 C 0.35739 0.32646 0.28797 0.0
C910 C 0.35574 0.32283 0.30648 0.0
Eu911 Eu 0.28479 0.29507 0.27724 0.0
N912 N 0.31176 0.30713 0.26572 0.0
C913 C 0.34394 0.32453 0.25546 0.0
C914 C 0.3128 0.31086 0.24768 0.0
C915 C 0.32891 0.31934 0.2422 0.0
H916 H 0.29352 0.29048 0.32315 0.0
H917 H 0.32964 0.32211 0.22781 0.0
H918 H 0.25031 0.25629 0.20639 0.0
H919 H 0.22572 0.21305 0.30039 0.0
H920 H 0.30126 0.30765 0.2375 0.0
H921 H 0.35638 0.33124 0.2512 0.0
H922 H 0.25257 0.22838 0.28854 0.0
H923 H 0.31899 0.29839 0.34797 0.0
H924 H 0.37011 0.33335 0.28452 0.0
H925 H 0.36721 0.32701 0.31702 0.0
H926 H 0.22282 0.2502 0.18425 0.0
H927 H 0.34837 0.31383 0.34068 0.0
H928 H 0.19659 0.20747 0.2806 0.0
N929 N 0.23783 0.24511 0.2287 0.0
C930 C 0.22255 0.23604 0.23413 0.0
C931 C 0.22248 0.24636 0.19831 0.0
C932 C 0.20653 0.23189 0.22173 0.0
C933 C 0.23802 0.25014 0.21103 0.0
C934 C 0.20665 0.23721 0.20367 0.0
N935 N 0.23875 0.23416 0.26352 0.0
C936 C 0.2399 0.22744 0.28038 0.0
C937 C 0.20734 0.22083 0.25783 0.0
C938 C 0.22299 0.23053 0.25203 0.0
C939 C 0.20829 0.21496 0.27565 0.0
C940 C 0.22468 0.21817 0.2869 0.0
H941 H 0.19468 0.2341 0.1937 0.0
H942 H 0.17863 0.21889 0.21815 0.0
H943 H 0.17932 0.20929 0.24976 0.0
O944 O 0.27093 0.222 0.2533 0.0
O945 O 0.24368 0.26655 0.2573 0.0
O946 O 0.25711 0.28307 0.28483 0.0
O947 O 0.26192 0.22868 0.22543 0.0
O948 O 0.27847 0.24851 0.27987 0.0
O949 O 0.27368 0.27456 0.29554 0.0
O950 O 0.27734 0.32008 0.26995 0.0
O951 O 0.30558 0.27756 0.27003 0.0
O952 O 0.29249 0.25911 0.24343 0.0
O953 O 0.28609 0.31734 0.29887 0.0
O954 O 0.26995 0.29437 0.24801 0.0
O955 O 0.27496 0.26879 0.23181 0.0
C956 C 0.24256 0.27594 0.27339 0.0
C957 C 0.26904 0.19912 0.22692 0.0
C958 C 0.28097 0.17195 0.22973 0.0
C959 C 0.27394 0.16554 0.21113 0.0
C960 C 0.2622 0.19281 0.20821 0.0
C961 C 0.26459 0.17601 0.2004 0.0
C962 C 0.27832 0.1886 0.23756 0.0
C963 C 0.27677 0.25819 0.29558 0.0
C964 C 0.26723 0.21685 0.23533 0.0
C965 C 0.191 0.22229 0.22755 0.0
C966 C 0.19139 0.21684 0.24556 0.0
C967 C 0.30693 0.26729 0.2546 0.0
C968 C 0.26351 0.33421 0.29324 0.0
C969 C 0.2436 0.35525 0.28886 0.0
C970 C 0.23302 0.34768 0.30196 0.0
C971 C 0.25292 0.32653 0.30639 0.0
C972 C 0.25884 0.34861 0.28465 0.0
C973 C 0.23777 0.33337 0.31079 0.0
C974 C 0.27163 0.28507 0.23218 0.0
C975 C 0.27892 0.32699 0.28744 0.0
H976 H 0.276 0.15269 0.20483 0.0
H977 H 0.25506 0.20084 0.19966 0.0
H978 H 0.25935 0.17118 0.18598 0.0
H979 H 0.28371 0.19344 0.25199 0.0
H980 H 0.22123 0.35288 0.30536 0.0
H981 H 0.25622 0.31522 0.31311 0.0
H982 H 0.26688 0.35447 0.27437 0.0
H983 H 0.22966 0.3275 0.32094 0.0
Eu984 Eu 0.54714 0.50235 0.01702 0.0
C985 C 0.51673 0.57114 0.05411 0.0
N986 N 0.50944 0.55946 0.03878 0.0
C987 C 0.48007 0.55905 0.04804 0.0
C988 C 0.50584 0.57716 0.06718 0.0
C989 C 0.4914 0.55349 0.03544 0.0
C990 C 0.48731 0.5709 0.064 0.0
C991 C 0.5432 0.58873 0.07289 0.0
C992 C 0.5352 0.57683 0.05696 0.0
C993 C 0.53237 0.59485 0.08586 0.0
C994 C 0.51376 0.58905 0.08303 0.0
Eu995 Eu 0.52965 0.55053 0.01872 0.0
N996 N 0.54542 0.57006 0.04461 0.0
C997 C 0.56188 0.59382 0.0755 0.0
C998 C 0.56358 0.57513 0.04694 0.0
C999 C 0.5721 0.58701 0.06243 0.0
H1000 H 0.48569 0.54455 0.02297 0.0
H1001 H 0.58655 0.59087 0.06432 0.0
H1002 H 0.59012 0.50433 0.01014 0.0
H1003 H 0.48684 0.46282 0.97563 0.0
H1004 H 0.57151 0.5699 0.037 0.0
H1005 H 0.56854 0.6029 0.08758 0.0
H1006 H 0.50436 0.4815 0.00318 0.0
H1007 H 0.46576 0.55421 0.04542 0.0
H1008 H 0.53828 0.60393 0.09822 0.0
H1009 H 0.5056 0.59379 0.09325 0.0
H1010 H 0.60788 0.49482 0.98531 0.0
H1011 H 0.4785 0.57515 0.07375 0.0
H1012 H 0.50216 0.45276 0.94892 0.0
N1013 N 0.56515 0.49226 0.9949 0.0
C1014 C 0.55648 0.48164 0.97937 0.0
C1015 C 0.59342 0.49114 0.98338 0.0
C1016 C 0.56602 0.47575 0.96489 0.0
C1017 C 0.58336 0.49673 0.9973 0.0
C1018 C 0.5847 0.48075 0.96701 0.0
N1019 N 0.52917 0.483 0.99196 0.0
C1020 C 0.51114 0.47765 0.99153 0.0
C1021 C 0.52854 0.46588 0.96188 0.0
C1022 C 0.53797 0.47675 0.9779 0.0
C1023 C 0.5099 0.46108 0.96098 0.0
C1024 C 0.5012 0.46681 0.97599 0.0
H1025 H 0.59252 0.4765 0.95621 0.0
H1026 H 0.56373 0.46058 0.93747 0.0
H1027 H 0.53092 0.45196 0.93483 0.0
O1028 O 0.53843 0.47977 0.03302 0.0
O1029 O 0.54039 0.51273 0.98868 0.0
O1030 O 0.51832 0.52747 0.99662 0.0
O1031 O 0.56653 0.48845 0.03065 0.0
O1032 O 0.52143 0.50477 0.03059 0.0
O1033 O 0.50823 0.52545 0.01542 0.0
O1034 O 0.53972 0.57302 0.00303 0.0
O1035 O 0.53746 0.54102 0.04736 0.0
O1036 O 0.55876 0.52466 0.04008 0.0
O1037 O 0.51135 0.56471 0.00368 0.0
O1038 O 0.55496 0.54766 0.00539 0.0
O1039 O 0.56932 0.52698 0.01931 0.0
C1040 C 0.5273 0.52117 0.98382 0.0
C1041 C 0.55773 0.45836 0.03697 0.0
C1042 C 0.55529 0.4305 0.05166 0.0
C1043 C 0.56634 0.42418 0.03909 0.0
C1044 C 0.56868 0.45167 0.02446 0.0
C1045 C 0.573 0.43471 0.02561 0.0
C1046 C 0.55106 0.44767 0.05063 0.0
C1047 C 0.50726 0.51162 0.02522 0.0
C1048 C 0.55467 0.47701 0.03722 0.0
C1049 C 0.55665 0.46512 0.9488 0.0
C1050 C 0.53796 0.4602 0.9473 0.0
C1051 C 0.5499 0.53182 0.05254 0.0
C1052 C 0.52099 0.59488 0.99776 0.0
C1053 C 0.52233 0.62254 0.98235 0.0
C1054 C 0.51117 0.62854 0.99503 0.0
C1055 C 0.51017 0.60157 0.0104 0.0
C1056 C 0.52733 0.60562 0.98383 0.0
C1057 C 0.5053 0.61823 0.00898 0.0
C1058 C 0.56957 0.54179 0.01106 0.0
C1059 C 0.5238 0.57604 0.99773 0.0
H1060 H 0.56993 0.4111 0.03982 0.0
H1061 H 0.57419 0.45966 0.01401 0.0
H1062 H 0.58165 0.42977 0.0161 0.0
H1063 H 0.54279 0.45277 0.06053 0.0
H1064 H 0.50704 0.64137 0.99417 0.0
H1065 H 0.50505 0.59371 0.02113 0.0
H1066 H 0.53554 0.60058 0.97385 0.0
H1067 H 0.49671 0.62309 0.01862 0.0
Eu1068 Eu 0.78958 0.31415 0.25006 0.0
C1069 C 0.74756 0.24807 0.29241 0.0
N1070 N 0.76421 0.25824 0.29761 0.0
C1071 C 0.75779 0.262 0.32956 0.0
C1072 C 0.7352 0.24511 0.30567 0.0
C1073 C 0.76971 0.26441 0.31606 0.0
C1074 C 0.74039 0.25255 0.3243 0.0
C1075 C 0.72624 0.22844 0.26862 0.0
C1076 C 0.74303 0.23972 0.27398 0.0
C1077 C 0.71378 0.22609 0.28169 0.0
C1078 C 0.71823 0.2344 0.30012 0.0
Eu1079 Eu 0.7823 0.26128 0.27278 0.0
N1080 N 0.75513 0.24234 0.26134 0.0
C1081 C 0.72262 0.21949 0.25037 0.0
C1082 C 0.75224 0.23266 0.24407 0.0
C1083 C 0.7358 0.22138 0.23816 0.0
H1084 H 0.78336 0.27095 0.32067 0.0
H1085 H 0.7334 0.21397 0.2243 0.0
H1086 H 0.79718 0.30609 0.20345 0.0
H1087 H 0.82754 0.36497 0.30399 0.0
H1088 H 0.76271 0.23351 0.23503 0.0
H1089 H 0.7099 0.21067 0.24578 0.0
H1090 H 0.80129 0.34267 0.28905 0.0
H1091 H 0.76212 0.2672 0.34409 0.0
H1092 H 0.70078 0.21757 0.27778 0.0
H1093 H 0.70858 0.23211 0.31013 0.0
H1094 H 0.82177 0.31284 0.18459 0.0
H1095 H 0.73127 0.25055 0.33487 0.0
H1096 H 0.85423 0.37173 0.28712 0.0
N1097 N 0.81193 0.31955 0.22924 0.0
C1098 C 0.82699 0.33144 0.23681 0.0
C1099 C 0.82357 0.31783 0.19935 0.0
C1100 C 0.84124 0.33622 0.226 0.0
C1101 C 0.80972 0.31362 0.21043 0.0
C1102 C 0.83952 0.32891 0.20724 0.0
N1103 N 0.8138 0.33561 0.26517 0.0
C1104 C 0.81325 0.34492 0.28212 0.0
C1105 C 0.8429 0.35287 0.26277 0.0
C1106 C 0.82784 0.33982 0.25507 0.0
C1107 C 0.84291 0.36165 0.28075 0.0
C1108 C 0.82792 0.35782 0.29036 0.0
H1109 H 0.85013 0.33233 0.19851 0.0
H1110 H 0.86755 0.35236 0.22585 0.0
H1111 H 0.86904 0.36685 0.25802 0.0
O1112 O 0.77807 0.33813 0.25886 0.0
O1113 O 0.81524 0.30584 0.2649 0.0
O1114 O 0.81136 0.27702 0.27586 0.0
O1115 O 0.78021 0.32988 0.22924 0.0
O1116 O 0.77888 0.30297 0.27586 0.0
O1117 O 0.79138 0.28485 0.29436 0.0
O1118 O 0.79451 0.24043 0.2585 0.0
O1119 O 0.75691 0.26934 0.25814 0.0
O1120 O 0.76053 0.2979 0.24694 0.0
O1121 O 0.78956 0.23962 0.28751 0.0
O1122 O 0.78902 0.27897 0.25142 0.0
O1123 O 0.78441 0.29188 0.22664 0.0
C1124 C 0.8214 0.29246 0.27274 0.0
C1125 C 0.7684 0.35688 0.23503 0.0
C1126 C 0.75226 0.38153 0.23984 0.0
C1127 C 0.75513 0.38604 0.22181 0.0
C1128 C 0.77111 0.36163 0.21697 0.0
C1129 C 0.76449 0.37611 0.21044 0.0
C1130 C 0.7589 0.36692 0.2465 0.0
C1131 C 0.78894 0.30092 0.29107 0.0
C1132 C 0.77561 0.34146 0.24143 0.0
C1133 C 0.85649 0.34868 0.23395 0.0
C1134 C 0.85732 0.35697 0.25225 0.0
C1135 C 0.75063 0.28249 0.25022 0.0
C1136 C 0.81429 0.22766 0.2787 0.0
C1137 C 0.83495 0.20661 0.27631 0.0
C1138 C 0.84712 0.21787 0.29012 0.0
C1139 C 0.8265 0.23847 0.29282 0.0
C1140 C 0.81847 0.21156 0.27061 0.0
C1141 C 0.84286 0.23365 0.29836 0.0
C1142 C 0.78582 0.27715 0.23337 0.0
C1143 C 0.79666 0.23245 0.27359 0.0
H1144 H 0.75 0.39722 0.21651 0.0
H1145 H 0.77843 0.35419 0.20785 0.0
H1146 H 0.76663 0.37963 0.19652 0.0
H1147 H 0.75663 0.36341 0.26042 0.0
H1148 H 0.85976 0.2142 0.29488 0.0
H1149 H 0.82339 0.25069 0.29959 0.0
H1150 H 0.80892 0.20286 0.2601 0.0
H1151 H 0.8522 0.2421 0.30921 0.0
Eu1152 Eu 0.01713 0.55318 0.48613 0.0
C1153 C 0.05922 0.51522 0.55643 0.0
N1154 N 0.04571 0.50776 0.5429 0.0
C1155 C 0.05957 0.48216 0.53723 0.0
C1156 C 0.07386 0.50665 0.56054 0.0
C1157 C 0.04548 0.49133 0.53351 0.0
C1158 C 0.07395 0.48996 0.55063 0.0
C1159 C 0.07119 0.53873 0.5817 0.0
C1160 C 0.05787 0.531 0.56683 0.0
C1161 C 0.08635 0.53085 0.58516 0.0
C1162 C 0.08764 0.51478 0.57465 0.0
Eu1163 Eu 0.0234 0.52473 0.53588 0.0
N1164 N 0.04287 0.53802 0.56332 0.0
C1165 C 0.0685 0.55367 0.59314 0.0
C1166 C 0.03935 0.55134 0.5757 0.0
C1167 C 0.05229 0.55972 0.59041 0.0
H1168 H 0.0344 0.48525 0.52318 0.0
H1169 H 0.04967 0.57071 0.59976 0.0
H1170 H 0.01033 0.59503 0.49899 0.0
H1171 H 0.97696 0.50035 0.43459 0.0
H1172 H 0.02658 0.55564 0.5744 0.0
H1173 H 0.07844 0.56007 0.60464 0.0
H1174 H 1.00152 0.51328 0.45903 0.0
H1175 H 0.05934 0.46912 0.52973 0.0
H1176 H 0.09683 0.53672 0.59635 0.0
H1177 H 0.09912 0.50853 0.57785 0.0
H1178 H 0.9892 0.6146 0.49017 0.0
H1179 H 0.08487 0.48285 0.55347 0.0
H1180 H 0.95505 0.51861 0.42377 0.0
N1181 N 0.99702 0.57274 0.47963 0.0
C1182 C 0.98353 0.56653 0.46557 0.0
C1183 C 0.98737 0.60107 0.48324 0.0
C1184 C 0.97124 0.57742 0.45998 0.0
C1185 C 0.99919 0.58981 0.48837 0.0
C1186 C 0.97332 0.59486 0.46901 0.0
N1187 N 0.99364 0.53875 0.46281 0.0
C1188 C 0.9921 0.5215 0.45481 0.0
C1189 C 0.96756 0.54217 0.44269 0.0
C1190 C 0.9818 0.54911 0.45689 0.0
C1191 C 0.96584 0.52443 0.43466 0.0
C1192 C 0.97815 0.51407 0.44076 0.0
H1193 H 0.96419 0.60364 0.46505 0.0
H1194 H 0.94773 0.57881 0.44115 0.0
H1195 H 0.94443 0.54793 0.42612 0.0
O1196 O 0.03245 0.55279 0.46198 0.0
O1197 O 0.98992 0.5416 0.49308 0.0
O1198 O 0.00988 0.5341 0.51218 0.0
O1199 O 0.03091 0.57829 0.47802 0.0
O1200 O 0.02587 0.5251 0.4824 0.0
O1201 O 0.0191 0.50753 0.50721 0.0
O1202 O 1.00067 0.52438 0.55185 0.0
O1203 O 0.04855 0.53189 0.52247 0.0
O1204 O 0.03852 0.55491 0.51049 0.0
O1205 O 0.00799 0.49932 0.54177 0.0
O1206 O 0.02046 0.5543 0.54158 0.0
O1207 O 0.01734 0.56994 0.5148 0.0
C1208 C 0.99304 0.53331 0.50728 0.0
C1209 C 0.04743 0.58014 0.45114 0.0
C1210 C 0.06451 0.57978 0.42449 0.0
C1211 C 0.0668 0.59855 0.42561 0.0
C1212 C 0.04989 0.59892 0.45232 0.0
C1213 C 0.05952 0.60806 0.43953 0.0
C1214 C 0.05473 0.57068 0.43721 0.0
C1215 C 0.02359 0.50953 0.48997 0.0
C1216 C 0.03652 0.57024 0.46369 0.0
C1217 C 0.95726 0.57062 0.44563 0.0
C1218 C 0.9554 0.55304 0.43705 0.0
C1219 C 0.0506 0.54479 0.51166 0.0
C1220 C 0.99511 0.501 0.57051 0.0
C1221 C 0.98202 0.50466 0.59963 0.0
C1222 C 0.99055 0.49132 0.60649 0.0
C1223 C 1.00361 0.48759 0.5774 0.0
C1224 C 0.98409 0.50929 0.58162 0.0
C1225 C 1.00122 0.48273 0.59532 0.0
C1226 C 0.01818 0.56876 0.53324 0.0
C1227 C 0.99784 0.5071 0.55215 0.0
H1228 H 0.07449 0.60585 0.41599 0.0
H1229 H 0.04421 0.6065 0.46293 0.0
H1230 H 0.06138 0.62252 0.44043 0.0
H1231 H 0.05269 0.55617 0.43613 0.0
H1232 H 0.98909 0.48773 0.62053 0.0
H1233 H 0.01219 0.481 0.56907 0.0
H1234 H 0.97749 0.51969 0.57648 0.0
H1235 H 0.00784 0.47248 0.60067 0.0
Eu1236 Eu 0.81018 0.76658 0.28072 0.0
C1237 C 0.7446 0.79254 0.23785 0.0
N1238 N 0.75485 0.80116 0.25368 0.0
C1239 C 0.75518 0.82946 0.24177 0.0
C1240 C 0.73936 0.80221 0.2232 0.0
C1241 C 0.76006 0.81934 0.25594 0.0
C1242 C 0.74481 0.82087 0.22532 0.0
C1243 C 0.72916 0.76466 0.21976 0.0
C1244 C 0.73955 0.77391 0.23613 0.0
C1245 C 0.72386 0.77431 0.2052 0.0
C1246 C 0.72895 0.79301 0.20691 0.0
Eu1247 Eu 0.76192 0.7828 0.27662 0.0
N1248 N 0.74531 0.76479 0.25021 0.0
C1249 C 0.72443 0.74597 0.21848 0.0
C1250 C 0.74019 0.74669 0.24936 0.0
C1251 C 0.72987 0.73697 0.2334 0.0
H1252 H 0.76769 0.8261 0.26881 0.0
H1253 H 0.72601 0.72256 0.23266 0.0
H1254 H 0.80347 0.72334 0.28876 0.0
H1255 H 0.85378 0.82485 0.32102 0.0
H1256 H 0.7439 0.73973 0.26098 0.0
H1257 H 0.71645 0.73839 0.20613 0.0
H1258 H 0.83308 0.8083 0.29423 0.0
H1259 H 0.75933 0.84389 0.24358 0.0
H1260 H 0.71586 0.76742 0.19252 0.0
H1261 H 0.72478 0.80023 0.19552 0.0
H1262 H 0.812 0.70514 0.31352 0.0
H1263 H 0.74105 0.82877 0.21438 0.0
H1264 H 0.86351 0.80883 0.34734 0.0
N1265 N 0.81821 0.74786 0.30316 0.0
C1266 C 0.82974 0.75596 0.31831 0.0
C1267 C 0.81701 0.71944 0.31509 0.0
C1268 C 0.83515 0.74605 0.33269 0.0
C1269 C 0.81205 0.72982 0.30118 0.0
C1270 C 0.82853 0.7276 0.33097 0.0
N1271 N 0.83026 0.78351 0.30564 0.0
C1272 C 0.83681 0.80132 0.3058 0.0
C1273 C 0.84807 0.78311 0.33504 0.0
C1274 C 0.83609 0.77427 0.3195 0.0
C1275 C 0.85429 0.80155 0.33566 0.0
C1276 C 0.84876 0.81066 0.32088 0.0
H1277 H 0.83235 0.71952 0.34172 0.0
H1278 H 0.85119 0.74745 0.35949 0.0
H1279 H 0.86252 0.77988 0.36154 0.0
O1280 O 0.83251 0.77545 0.26439 0.0
O1281 O 0.8 0.77527 0.30862 0.0
O1282 O 0.78141 0.79544 0.30185 0.0
O1283 O 0.82525 0.74756 0.2686 0.0
O1284 O 0.80728 0.79237 0.26781 0.0
O1285 O 0.78613 0.8055 0.28223 0.0
O1286 O 0.73877 0.7724 0.29118 0.0
O1287 O 0.77455 0.7762 0.24958 0.0
O1288 O 0.78891 0.75361 0.25715 0.0
O1289 O 0.74197 0.79915 0.28322 0.0
O1290 O 0.76489 0.75837 0.29173 0.0
O1291 O 0.78539 0.74492 0.27695 0.0
C1292 C 0.79088 0.78779 0.31387 0.0
C1293 C 0.85512 0.75713 0.26206 0.0
C1294 C 0.88275 0.75909 0.24699 0.0
C1295 C 0.88923 0.74836 0.25984 0.0
C1296 C 0.86209 0.74668 0.27499 0.0
C1297 C 0.87902 0.74232 0.27381 0.0
C1298 C 0.86566 0.76351 0.24817 0.0
C1299 C 0.80114 0.80665 0.27426 0.0
C1300 C 0.83617 0.7594 0.26138 0.0
C1301 C 0.84694 0.75483 0.34828 0.0
C1302 C 0.8534 0.7733 0.34944 0.0
C1303 C 0.78214 0.76254 0.24455 0.0
C1304 C 0.72486 0.79344 0.30885 0.0
C1305 C 0.70096 0.79144 0.32978 0.0
C1306 C 0.71071 0.80682 0.34086 0.0
C1307 C 0.73395 0.80898 0.32012 0.0
C1308 C 0.70812 0.78474 0.31364 0.0
C1309 C 0.72698 0.81552 0.33602 0.0
C1310 C 0.77176 0.74418 0.2869 0.0
C1311 C 0.73224 0.78712 0.29148 0.0
H1312 H 0.90226 0.74468 0.25905 0.0
H1313 H 0.85428 0.74146 0.28571 0.0
H1314 H 0.88414 0.73401 0.28363 0.0
H1315 H 0.86038 0.7714 0.23796 0.0
H1316 H 0.70551 0.81234 0.35317 0.0
H1317 H 0.74634 0.81632 0.31645 0.0
H1318 H 0.70071 0.77295 0.30488 0.0
H1319 H 0.73414 0.82755 0.34454 0.0
Eu1320 Eu 0.75786 0.29149 0.81094 0.0
C1321 C 0.79994 0.25879 0.74033 0.0
N1322 N 0.80672 0.27253 0.75388 0.0
C1323 C 0.8344 0.26181 0.75783 0.0
C1324 C 0.81011 0.24569 0.73524 0.0
C1325 C 0.8237 0.27431 0.7626 0.0
C1326 C 0.82755 0.24738 0.74414 0.0
C1327 C 0.77504 0.24324 0.718 0.0
C1328 C 0.78263 0.25765 0.73182 0.0
C1329 C 0.78504 0.23004 0.71304 0.0
C1330 C 0.80255 0.23129 0.7216 0.0
Eu1331 Eu 0.78767 0.29236 0.76238 0.0
N1332 N 0.77319 0.2705 0.73717 0.0
C1333 C 0.75761 0.24249 0.70956 0.0
C1334 C 0.75639 0.2701 0.72838 0.0
C1335 C 0.74834 0.25608 0.71465 0.0
H1336 H 0.82899 0.28538 0.77329 0.0
H1337 H 0.73495 0.2558 0.70797 0.0
H1338 H 0.7174 0.30145 0.79715 0.0
H1339 H 0.80562 0.32009 0.87247 0.0
H1340 H 0.74897 0.28048 0.73156 0.0
H1341 H 0.75129 0.23162 0.69895 0.0
H1342 H 0.79351 0.29894 0.84455 0.0
H1343 H 0.84787 0.26325 0.76479 0.0
H1344 H 0.77937 0.21884 0.70255 0.0
H1345 H 0.81011 0.22103 0.71759 0.0
H1346 H 0.69886 0.32338 0.80643 0.0
H1347 H 0.83581 0.23762 0.74059 0.0
H1348 H 0.78886 0.34338 0.88327 0.0
N1349 N 0.73875 0.31177 0.81878 0.0
C1350 C 0.7444 0.32348 0.83454 0.0
C1351 C 0.71173 0.32369 0.81434 0.0
C1352 C 0.73407 0.33619 0.84044 0.0
C1353 C 0.72245 0.31142 0.80894 0.0
C1354 C 0.71762 0.33624 0.83005 0.0
N1355 N 0.77038 0.31052 0.83871 0.0
C1356 C 0.78614 0.30917 0.84871 0.0
C1357 C 0.76699 0.33505 0.86099 0.0
C1358 C 0.7606 0.3228 0.84484 0.0
C1359 C 0.78346 0.33414 0.87086 0.0
C1360 C 0.793 0.32107 0.86476 0.0
H1361 H 0.70928 0.34575 0.83416 0.0
H1362 H 0.73271 0.35832 0.86115 0.0
H1363 H 0.76159 0.35744 0.87902 0.0
O1364 O 0.75755 0.26978 0.82857 0.0
O1365 O 0.77208 0.31986 0.81038 0.0
O1366 O 0.77722 0.30342 0.78671 0.0
O1367 O 0.7326 0.27696 0.81777 0.0
O1368 O 0.78655 0.28385 0.81371 0.0
O1369 O 0.80451 0.29602 0.79123 0.0
O1370 O 0.7871 0.31271 0.74347 0.0
O1371 O 0.7808 0.26521 0.77209 0.0
O1372 O 0.75755 0.27466 0.78358 0.0
O1373 O 0.81242 0.31029 0.75848 0.0
O1374 O 0.75992 0.30051 0.75806 0.0
O1375 O 0.74182 0.29293 0.78216 0.0
C1376 C 0.77964 0.3193 0.79534 0.0
C1377 C 0.73508 0.26921 0.84859 0.0
C1378 C 0.73781 0.25944 0.87953 0.0
C1379 C 0.72859 0.27271 0.88624 0.0
C1380 C 0.72567 0.2824 0.85527 0.0
C1381 C 0.72241 0.28406 0.87405 0.0
C1382 C 0.74087 0.25769 0.86072 0.0
C1383 C 0.80241 0.2888 0.80722 0.0
C1384 C 0.74037 0.26809 0.82959 0.0
C1385 C 0.74042 0.3484 0.8565 0.0
C1386 C 0.75685 0.34788 0.8667 0.0
C1387 C 0.76733 0.26241 0.78193 0.0
C1388 C 0.81235 0.32011 0.72809 0.0
C1389 C 0.81146 0.33257 0.6984 0.0
C1390 C 0.82483 0.32327 0.69305 0.0
C1391 C 0.82565 0.31067 0.72268 0.0
C1392 C 0.8054 0.33111 0.71592 0.0
C1393 C 0.83192 0.31237 0.70521 0.0
C1394 C 0.74434 0.29836 0.76532 0.0
C1395 C 0.8044 0.31798 0.7456 0.0
H1396 H 0.72605 0.27416 0.90079 0.0
H1397 H 0.72106 0.29155 0.84615 0.0
H1398 H 0.71525 0.29425 0.87919 0.0
H1399 H 0.74834 0.24768 0.85562 0.0
H1400 H 0.8295 0.32419 0.67938 0.0
H1401 H 0.83097 0.30185 0.73176 0.0
H1402 H 0.79492 0.33822 0.71989 0.0
H1403 H 0.84208 0.30502 0.70097 0.0
Eu1404 Eu 0.76276 0.74766 0.7499 0.0
C1405 C 0.8252 0.80653 0.79513 0.0
N1406 N 0.80921 0.79836 0.79991 0.0
C1407 C 0.82218 0.79895 0.83167 0.0
C1408 C 0.84036 0.8113 0.80865 0.0
C1409 C 0.80747 0.79459 0.81787 0.0
C1410 C 0.83868 0.80739 0.82707 0.0
C1411 C 0.8428 0.819 0.77149 0.0
C1412 C 0.82639 0.81038 0.7767 0.0
C1413 C 0.85785 0.82383 0.78498 0.0
C1414 C 0.85663 0.82002 0.80349 0.0
Eu1415 Eu 0.78484 0.79445 0.77627 0.0
N1416 N 0.81154 0.8058 0.76392 0.0
C1417 C 0.84354 0.82281 0.75293 0.0
C1418 C 0.81207 0.81014 0.74604 0.0
C1419 C 0.82808 0.81838 0.74017 0.0
H1420 H 0.7946 0.78894 0.82182 0.0
H1421 H 0.8284 0.82168 0.7259 0.0
H1422 H 0.75142 0.75508 0.70512 0.0
H1423 H 0.72086 0.71722 0.80009 0.0
H1424 H 0.80015 0.80784 0.73639 0.0
H1425 H 0.85588 0.82944 0.7484 0.0
H1426 H 0.74877 0.73129 0.78915 0.0
H1427 H 0.82069 0.79612 0.84593 0.0
H1428 H 0.8705 0.83062 0.78125 0.0
H1429 H 0.86836 0.82394 0.81375 0.0
H1430 H 0.72465 0.74937 0.68201 0.0
H1431 H 0.84999 0.81096 0.83786 0.0
H1432 H 0.69265 0.71124 0.7787 0.0
N1433 N 0.73758 0.74519 0.7273 0.0
C1434 C 0.72178 0.73677 0.7323 0.0
C1435 C 0.7236 0.74599 0.69617 0.0
C1436 C 0.70619 0.73275 0.71928 0.0
C1437 C 0.73872 0.74962 0.70947 0.0
C1438 C 0.70726 0.73753 0.70109 0.0
N1439 N 0.73647 0.73566 0.76272 0.0
C1440 C 0.73653 0.73002 0.78012 0.0
C1441 C 0.70498 0.72302 0.75585 0.0
C1442 C 0.7212 0.73188 0.75044 0.0
C1443 C 0.70484 0.71808 0.77404 0.0
C1444 C 0.72071 0.72153 0.78619 0.0
H1445 H 0.69562 0.73453 0.69066 0.0
H1446 H 0.67806 0.72056 0.71479 0.0
H1447 H 0.67697 0.71213 0.74678 0.0
O1448 O 0.76809 0.7211 0.75442 0.0
O1449 O 0.74289 0.7663 0.75735 0.0
O1450 O 0.75678 0.78415 0.78402 0.0
O1451 O 0.75885 0.7266 0.72658 0.0
O1452 O 0.77715 0.74802 0.77961 0.0
O1453 O 0.77304 0.77459 0.79481 0.0
O1454 O 0.7792 0.82027 0.76951 0.0
O1455 O 0.80466 0.77571 0.76956 0.0
O1456 O 0.79141 0.75769 0.74273 0.0
O1457 O 0.78714 0.81654 0.79835 0.0
O1458 O 0.76958 0.79344 0.74721 0.0
O1459 O 0.77452 0.76766 0.73141 0.0
C1460 C 0.74208 0.7765 0.77302 0.0
C1461 C 0.77652 0.70431 0.72862 0.0
C1462 C 0.79133 0.67887 0.7308 0.0
C1463 C 0.79895 0.68226 0.71422 0.0
C1464 C 0.78433 0.70791 0.71216 0.0
C1465 C 0.79541 0.69677 0.70493 0.0
C1466 C 0.77985 0.68968 0.73762 0.0
C1467 C 0.77575 0.75813 0.79513 0.0
C1468 C 0.76439 0.71502 0.73666 0.0
C1469 C 0.6901 0.72387 0.72467 0.0
C1470 C 0.68949 0.71906 0.74289 0.0
C1471 C 0.80593 0.76582 0.75386 0.0
C1472 C 0.76579 0.83487 0.79286 0.0
C1473 C 0.74551 0.8553 0.78674 0.0
C1474 C 0.73593 0.84951 0.80141 0.0
C1475 C 0.75628 0.82917 0.80766 0.0
C1476 C 0.7604 0.84797 0.78259 0.0
C1477 C 0.74139 0.83651 0.81188 0.0
C1478 C 0.77124 0.78394 0.7315 0.0
C1479 C 0.78079 0.82686 0.78711 0.0
H1480 H 0.80797 0.67405 0.70879 0.0
H1481 H 0.78187 0.7192 0.7049 0.0
H1482 H 0.80143 0.69951 0.69226 0.0
H1483 H 0.77361 0.68682 0.75019 0.0
H1484 H 0.72447 0.85523 0.80494 0.0
H1485 H 0.7602 0.81898 0.8158 0.0
H1486 H 0.76767 0.85226 0.77108 0.0
H1487 H 0.73405 0.8321 0.82324 0.0
Eu1488 Eu 0.56585 0.54967 0.54913 0.0
C1489 C 0.50491 0.48973 0.50304 0.0
N1490 N 0.51379 0.50529 0.49795 0.0
C1491 C 0.51257 0.49161 0.46638 0.0
C1492 C 0.49953 0.47442 0.4898 0.0
C1493 C 0.51749 0.5065 0.4799 0.0
C1494 C 0.50355 0.4755 0.47134 0.0
C1495 C 0.49114 0.47332 0.52688 0.0
C1496 C 0.5008 0.48918 0.52147 0.0
C1497 C 0.48587 0.45808 0.51371 0.0
C1498 C 0.49003 0.45863 0.49524 0.0
Eu1499 Eu 0.51866 0.53011 0.52109 0.0
N1500 N 0.50583 0.50422 0.53396 0.0
C1501 C 0.4866 0.47338 0.54524 0.0
C1502 C 0.50048 0.50457 0.55148 0.0
C1503 C 0.49116 0.48913 0.55754 0.0
H1504 H 0.52357 0.51913 0.47566 0.0
H1505 H 0.48704 0.48954 0.57152 0.0
H1506 H 0.55542 0.56149 0.59272 0.0
H1507 H 0.60972 0.58844 0.50645 0.0
H1508 H 0.50248 0.51682 0.56054 0.0
H1509 H 0.47911 0.4615 0.54988 0.0
H1510 H 0.59163 0.56127 0.51566 0.0
H1511 H 0.51542 0.49266 0.45206 0.0
H1512 H 0.47835 0.44584 0.51761 0.0
H1513 H 0.48567 0.44679 0.48521 0.0
H1514 H 0.55889 0.58858 0.61509 0.0
H1515 H 0.49952 0.46405 0.46075 0.0
H1516 H 0.61281 0.61742 0.52616 0.0
N1517 N 0.56777 0.575 0.57153 0.0
C1518 C 0.57748 0.59057 0.56736 0.0
C1519 C 0.5639 0.58941 0.60158 0.0
C1520 C 0.58034 0.60633 0.58008 0.0
C1521 C 0.56152 0.57411 0.58862 0.0
C1522 C 0.5732 0.60563 0.59723 0.0
N1523 N 0.58272 0.57509 0.53886 0.0
C1524 C 0.59198 0.57402 0.52367 0.0
C1525 C 0.59592 0.60636 0.5463 0.0
C1526 C 0.58517 0.5906 0.5506 0.0
C1527 C 0.60439 0.60563 0.52992 0.0
C1528 C 0.60261 0.58932 0.51871 0.0
H1529 H 0.57521 0.61742 0.60741 0.0
H1530 H 0.59293 0.63435 0.58516 0.0
H1531 H 0.60657 0.63438 0.55561 0.0
O1532 O 0.59121 0.54031 0.54683 0.0
O1533 O 0.54974 0.57122 0.53977 0.0
O1534 O 0.5302 0.55786 0.51379 0.0
O1535 O 0.58496 0.55154 0.57408 0.0
O1536 O 0.56616 0.53739 0.51869 0.0
O1537 O 0.53935 0.54014 0.50215 0.0
O1538 O 0.49276 0.53601 0.52734 0.0
O1539 O 0.53626 0.50912 0.52752 0.0
O1540 O 0.55359 0.52122 0.55504 0.0
O1541 O 0.49714 0.52894 0.49857 0.0
O1542 O 0.52002 0.54618 0.54986 0.0
O1543 O 0.54413 0.53837 0.56582 0.0
C1544 C 0.53909 0.57229 0.52443 0.0
C1545 C 0.61358 0.54203 0.57386 0.0
C1546 C 0.64115 0.53059 0.57175 0.0
C1547 C 0.64623 0.53594 0.59098 0.0
C1548 C 0.6188 0.54754 0.59307 0.0
C1549 C 0.63508 0.54448 0.60156 0.0
C1550 C 0.62483 0.53363 0.56332 0.0
C1551 C 0.55628 0.53852 0.50287 0.0
C1552 C 0.59637 0.54471 0.56474 0.0
C1553 C 0.59061 0.62214 0.57555 0.0
C1554 C 0.59838 0.62216 0.55872 0.0
C1555 C 0.54572 0.50711 0.54324 0.0
C1556 C 0.47395 0.5454 0.50326 0.0
C1557 C 0.45279 0.56496 0.51017 0.0
C1558 C 0.44699 0.56373 0.49089 0.0
C1559 C 0.46794 0.54428 0.48404 0.0
C1560 C 0.46639 0.5559 0.51625 0.0
C1561 C 0.45461 0.5535 0.47792 0.0
C1562 C 0.52868 0.54349 0.56567 0.0
C1563 C 0.48594 0.53354 0.50978 0.0
H1564 H 0.65883 0.53369 0.59772 0.0
H1565 H 0.61031 0.55413 0.60153 0.0
H1566 H 0.63905 0.5487 0.61636 0.0
H1567 H 0.62076 0.52913 0.54855 0.0
H1568 H 0.4361 0.57013 0.48591 0.0
H1569 H 0.47315 0.53583 0.47379 0.0
H1570 H 0.47058 0.55653 0.53114 0.0
H1571 H 0.4498 0.55228 0.46314 0.0
Eu1572 Eu 0.99701 0.52389 0.04567 0.0
C1573 C 0.06923 0.5633 0.0076 0.0
N1574 N 0.05695 0.54809 0.00151 0.0
C1575 C 0.05563 0.55612 0.97004 0.0
C1576 C 0.0744 0.57593 0.9951 0.0
C1577 C 0.05096 0.54393 0.98281 0.0
C1578 C 0.06716 0.57231 0.97625 0.0
C1579 C 0.08981 0.58191 0.03273 0.0
C1580 C 0.07716 0.56619 0.02629 0.0
C1581 C 0.09454 0.59459 0.02033 0.0
C1582 C 0.0869 0.5916 0.0016 0.0
Eu1583 Eu 0.05092 0.52895 0.025 0.0
N1584 N 0.07217 0.55398 0.03832 0.0
C1585 C 0.0972 0.58457 0.05158 0.0
C1586 C 0.07938 0.5564 0.05663 0.0
C1587 C 0.09197 0.57175 0.06356 0.0
H1588 H 0.04291 0.53108 0.97735 0.0
H1589 H 0.09759 0.57373 0.07814 0.0
H1590 H 0.99629 0.5262 0.0933 0.0
H1591 H 0.95013 0.47808 0.99294 0.0
H1592 H 0.0752 0.54663 0.06591 0.0
H1593 H 0.1069 0.59651 0.05703 0.0
H1594 H 0.9706 0.50618 0.00551 0.0
H1595 H 0.05056 0.55288 0.95533 0.0
H1596 H 0.10418 0.60676 0.02508 0.0
H1597 H 0.09088 0.60144 0.99218 0.0
H1598 H 0.98668 0.50582 0.11653 0.0
H1599 H 0.07083 0.58167 0.96625 0.0
H1600 H 0.94284 0.45438 0.01362 0.0
N1601 N 0.98734 0.50646 0.06974 0.0
C1602 C 0.97713 0.49009 0.06357 0.0
C1603 C 0.98418 0.50112 0.1017 0.0
C1604 C 0.97107 0.47814 0.07641 0.0
C1605 C 0.98973 0.51256 0.08849 0.0
C1606 C 0.97521 0.48367 0.09565 0.0
N1607 N 0.97592 0.49817 0.03255 0.0
C1608 C 0.96795 0.49582 0.01446 0.0
C1609 C 0.9593 0.46963 0.03799 0.0
C1610 C 0.9712 0.48588 0.04451 0.0
C1611 C 0.95205 0.46665 0.01911 0.0
C1612 C 0.95612 0.47998 0.0074 0.0
H1613 H 0.97078 0.47489 0.10592 0.0
H1614 H 0.9558 0.45202 0.07942 0.0
H1615 H 0.94556 0.44456 0.04577 0.0
O1616 O 0.97296 0.53246 0.03295 0.0
O1617 O 1.00435 0.49931 0.02789 0.0
O1618 O 0.03561 0.50192 0.03215 0.0
O1619 O 0.98457 0.54301 0.0613 0.0
O1620 O 0.01186 0.53521 0.0226 0.0
O1621 O 0.028 0.52278 0.00252 0.0
O1622 O 0.07633 0.51959 0.03391 0.0
O1623 O 0.04396 0.55557 0.03851 0.0
O1624 O 0.01602 0.55184 0.05106 0.0
O1625 O 0.06183 0.51213 0.00552 0.0
O1626 O 0.03307 0.52399 0.04702 0.0
O1627 O 0.01707 0.52184 0.06994 0.0
C1628 C 0.0193 0.49263 0.02598 0.0
C1629 C 0.95375 0.54176 0.05461 0.0
C1630 C 0.92733 0.55531 0.05587 0.0
C1631 C 0.92267 0.54588 0.07101 0.0
C1632 C 0.94878 0.532 0.06947 0.0
C1633 C 0.93327 0.53408 0.07761 0.0
C1634 C 0.94278 0.55309 0.0476 0.0
C1635 C 0.01267 0.52658 0.00629 0.0
C1636 C 0.97147 0.5425 0.04819 0.0
C1637 C 0.9603 0.46144 0.06976 0.0
C1638 C 0.95443 0.4572 0.0506 0.0
C1639 C 0.03137 0.56184 0.04758 0.0
C1640 C 0.0892 0.501 0.01033 0.0
C1641 C 0.11355 0.48442 0.01513 0.0
C1642 C 0.11352 0.48126 0.99562 0.0
C1643 C 0.08959 0.49778 0.99081 0.0
C1644 C 0.10142 0.49441 0.02258 0.0
C1645 C 0.10166 0.48798 0.98356 0.0
C1646 C 0.03275 0.52209 0.06472 0.0
C1647 C 0.07559 0.51083 0.01722 0.0
H1648 H 0.91086 0.54766 0.07767 0.0
H1649 H 0.95716 0.52327 0.07518 0.0
H1650 H 0.92967 0.52682 0.08931 0.0
H1651 H 0.94672 0.56088 0.03634 0.0
H1652 H 0.12287 0.47371 0.98973 0.0
H1653 H 0.08051 0.50281 0.98103 0.0
H1654 H 0.10137 0.49683 0.03765 0.0
H1655 H 0.10181 0.48558 0.96853 0.0
H1656 H 0.99183 0.22415 0.98064 0.0
H1657 H 0.9969 0.19667 0.99426 0.0
H1658 H 0.03707 0.19059 0.95729 0.0
H1659 H 0.03175 0.21765 0.94337 0.0
H1660 H 1.00125 0.15755 0.96386 0.0
H1661 H 0.05313 0.18934 0.02252 0.0
H1662 H 0.03547 0.20079 0.01445 0.0
H1663 H 0.05277 0.19786 0.99996 0.0
C1664 C 1.00181 0.21703 0.97548 0.0
C1665 C 0.01132 0.22323 0.9608 0.0
C1666 C 1.00471 0.20124 0.98328 0.0
C1667 C 0.01744 0.19137 0.97692 0.0
C1668 C 0.02712 0.19775 0.9625 0.0
H1669 H 0.06392 0.10298 0.02105 0.0
H1670 H 0.0584 0.13103 0.00971 0.0
C1671 C 0.02402 0.2133 0.95449 0.0
C1672 C 0.02038 0.17424 0.98484 0.0
H1673 H 0.04534 0.15789 0.01917 0.0
C1674 C 0.01081 0.15763 0.97603 0.0
C1675 C 0.03313 0.1741 1.00046 0.0
C1676 C 0.04431 0.19141 0.01004 0.0
C1677 C 0.01363 0.1411 0.98224 0.0
C1678 C 0.02602 0.14087 0.99835 0.0
C1679 C 0.03568 0.15763 0.00704 0.0
C1680 C 0.02944 0.12358 0.00606 0.0
C1681 C 1.00375 0.12408 0.97075 0.0
C1682 C 0.01527 0.10967 0.00851 0.0
C1683 C 0.01855 0.09332 0.01456 0.0
C1684 C 0.03611 0.09047 0.0193 0.0
C1685 C 0.05027 0.10463 0.0178 0.0
C1686 C 0.04703 0.1208 0.01119 0.0
H1687 H 1.00007 0.12633 0.95598 0.0
H1688 H 0.01188 0.11334 0.97066 0.0
H1689 H 0.99111 0.1194 0.97671 0.0
H1690 H 1.00152 0.11135 0.00571 0.0
H1691 H 0.00724 0.08287 0.01569 0.0
H1692 H 0.09634 0.81594 0.17083 0.0
H1693 H 0.1233 0.81716 0.19265 0.0
H1694 H 0.14165 0.77975 0.15367 0.0
H1695 H 0.11513 0.77921 0.13146 0.0
H1696 H 0.13537 0.79394 0.21141 0.0
H1697 H 0.1866 0.81497 0.16478 0.0
H1698 H 0.16317 0.81486 0.1583 0.0
H1699 H 0.17209 0.79452 0.15487 0.0
C1700 C 0.10624 0.80814 0.1668 0.0
C1701 C 0.10361 0.79762 0.14927 0.0
C1702 C 0.12169 0.80881 0.17935 0.0
C1703 C 0.13492 0.79884 0.17484 0.0
C1704 C 0.13213 0.78809 0.1574 0.0
H1705 H 0.22846 0.77135 0.23599 0.0
H1706 H 0.2019 0.77297 0.21462 0.0
C1707 C 0.11682 0.78767 0.1447 0.0
C1708 C 0.15117 0.79921 0.18863 0.0
H1709 H 0.19695 0.80375 0.19293 0.0
C1710 C 0.14882 0.79629 0.20734 0.0
C1711 C 0.16891 0.80236 0.18359 0.0
C1712 C 0.17287 0.80705 0.16435 0.0
C1713 C 0.16347 0.79597 0.2208 0.0
C1714 C 0.18105 0.79855 0.21554 0.0
C1715 C 0.18348 0.80164 0.19697 0.0
C1716 C 0.19707 0.79761 0.22893 0.0
C1717 C 0.16002 0.79241 0.24048 0.0
C1718 C 0.20328 0.81088 0.24423 0.0
C1719 C 0.21873 0.8101 0.25629 0.0
C1720 C 0.22833 0.79614 0.25318 0.0
C1721 C 0.22182 0.78267 0.23821 0.0
C1722 C 0.20649 0.78348 0.22613 0.0
H1723 H 0.14553 0.78816 0.24168 0.0
H1724 H 0.16729 0.78187 0.24508 0.0
H1725 H 0.16512 0.80481 0.25022 0.0
H1726 H 0.19634 0.82198 0.24668 0.0
H1727 H 0.22335 0.82057 0.26785 0.0
H1728 H 0.4935 0.83112 0.43628 0.0
H1729 H 0.49445 0.86197 0.45024 0.0
H1730 H 0.52508 0.85171 0.5001 0.0
H1731 H 0.52386 0.82058 0.4863 0.0
H1732 H 0.4882 0.87258 0.49943 0.0
H1733 H 0.54797 0.90038 0.46559 0.0
H1734 H 0.53161 0.88181 0.45358 0.0
H1735 H 0.54577 0.87851 0.47375 0.0
C1736 C 0.50044 0.83538 0.45024 0.0
C1737 C 0.50865 0.82328 0.46011 0.0
C1738 C 0.50092 0.85306 0.45824 0.0
C1739 C 0.50984 0.85931 0.47627 0.0
C1740 C 0.51799 0.84726 0.48624 0.0
H1741 H 0.54357 0.97008 0.52968 0.0
H1742 H 0.54099 0.93837 0.51835 0.0
C1743 C 0.5173 0.82943 0.47833 0.0
C1744 C 0.51104 0.87853 0.48428 0.0
H1745 H 0.53505 0.92084 0.48379 0.0
C1746 C 0.49845 0.88314 0.49604 0.0
C1747 C 0.5244 0.89239 0.47997 0.0
C1748 C 0.53829 0.88821 0.46754 0.0
C1749 C 0.49889 0.90112 0.50352 0.0
C1750 C 0.51213 0.9151 0.49897 0.0
C1751 C 0.52481 0.91036 0.48733 0.0
C1752 C 0.51334 0.93462 0.50628 0.0
C1753 C 0.48535 0.90486 0.51661 0.0
C1754 C 0.4988 0.94357 0.50322 0.0
C1755 C 0.50028 0.96189 0.50969 0.0
C1756 C 0.51632 0.9719 0.51949 0.0
C1757 C 0.53091 0.96296 0.52235 0.0
C1758 C 0.52945 0.94469 0.51583 0.0
H1759 H 0.47976 0.89269 0.52297 0.0
H1760 H 0.49135 0.91562 0.52806 0.0
H1761 H 0.47407 0.90929 0.50858 0.0
H1762 H 0.48633 0.93649 0.49546 0.0
H1763 H 0.48892 0.96827 0.50667 0.0
H1764 H 0.51727 0.26938 0.65672 0.0
H1765 H 0.4912 0.26584 0.67413 0.0
H1766 H 0.47158 0.30749 0.64626 0.0
H1767 H 0.49714 0.31 0.62772 0.0
H1768 H 0.48114 0.28664 0.69875 0.0
H1769 H 0.42644 0.27271 0.63978 0.0
H1770 H 0.44956 0.27341 0.63602 0.0
H1771 H 0.44099 0.29387 0.63996 0.0
C1772 C 0.50725 0.27761 0.65415 0.0
C1773 C 0.5091 0.28984 0.64078 0.0
C1774 C 0.49235 0.27564 0.66416 0.0
C1775 C 0.4791 0.28617 0.66142 0.0
C1776 C 0.48115 0.2987 0.64826 0.0
H1777 H 0.40144 0.29201 0.74399 0.0
H1778 H 0.424 0.30042 0.72258 0.0
C1779 C 0.49584 0.30026 0.63775 0.0
C1780 C 0.46365 0.28423 0.67292 0.0
H1781 H 0.41782 0.27599 0.67047 0.0
C1782 C 0.46732 0.28435 0.69247 0.0
C1783 C 0.44549 0.28118 0.66489 0.0
C1784 C 0.44035 0.28011 0.64401 0.0
C1785 C 0.45354 0.28119 0.70403 0.0
C1786 C 0.43548 0.27826 0.69602 0.0
C1787 C 0.43169 0.27841 0.67659 0.0
C1788 C 0.42048 0.27387 0.70756 0.0
C1789 C 0.45835 0.28033 0.7247 0.0
C1790 C 0.41072 0.25629 0.7059 0.0
C1791 C 0.39799 0.25149 0.71818 0.0
C1792 C 0.39455 0.26425 0.73209 0.0
C1793 C 0.40373 0.28201 0.73322 0.0
C1794 C 0.41665 0.28678 0.72108 0.0
H1795 H 0.47284 0.28028 0.72824 0.0
H1796 H 0.45496 0.29212 0.73288 0.0
H1797 H 0.4505 0.2681 0.72918 0.0
H1798 H 0.41349 0.24612 0.69561 0.0
H1799 H 0.39117 0.23767 0.71717 0.0
H1800 H 0.02666 0.78792 0.62776 0.0
H1801 H 0.02902 0.81385 0.60993 0.0
H1802 H 0.02709 0.84828 0.66047 0.0
H1803 H 0.02506 0.82244 0.67845 0.0
H1804 H 1.00615 0.83759 0.60429 0.0
H1805 H 0.07155 0.87376 0.64097 0.0
H1806 H 0.06287 0.85067 0.64353 0.0
H1807 H 0.05468 0.86842 0.6563 0.0
C1808 C 0.02684 0.80103 0.63511 0.0
C1809 C 0.02581 0.80312 0.65456 0.0
C1810 C 0.02812 0.81585 0.62487 0.0
C1811 C 0.02848 0.83311 0.63385 0.0
C1812 C 0.02723 0.8352 0.65325 0.0
H1813 H 0.04577 0.93784 0.59047 0.0
H1814 H 0.03511 0.91378 0.60938 0.0
C1815 C 0.02598 0.82038 0.66351 0.0
C1816 C 0.03011 0.84885 0.62286 0.0
H1817 H 0.05682 0.88895 0.61899 0.0
C1818 C 0.01722 0.84883 0.60753 0.0
C1819 C 0.04452 0.86359 0.62707 0.0
C1820 C 0.05929 0.86411 0.64275 0.0
C1821 C 0.01838 0.86307 0.59633 0.0
C1822 C 0.03291 0.87767 0.60041 0.0
C1823 C 0.04559 0.87785 0.61594 0.0
C1824 C 0.03616 0.89218 0.58797 0.0
C1825 C 1.004 0.86239 0.58025 0.0
C1826 C 0.03988 0.88809 0.56949 0.0
C1827 C 0.04602 0.90179 0.55878 0.0
C1828 C 0.04845 0.91987 0.56623 0.0
C1829 C 0.04372 0.92402 0.58429 0.0
C1830 C 0.03777 0.91028 0.59513 0.0
H1831 H 0.99137 0.85345 0.58233 0.0
H1832 H 1.00113 0.87596 0.57848 0.0
H1833 H 0.00863 0.85704 0.56708 0.0
H1834 H 0.03907 0.87429 0.56374 0.0
H1835 H 0.04979 0.89825 0.54498 0.0
H1836 H 0.49841 0.82547 0.81773 0.0
H1837 H 0.46712 0.82475 0.80498 0.0
H1838 H 0.44968 0.78149 0.8372 0.0
H1839 H 0.48063 0.78243 0.85017 0.0
H1840 H 0.44068 0.79917 0.78435 0.0
H1841 H 0.41841 0.816 0.85354 0.0
H1842 H 0.44176 0.8178 0.85028 0.0
H1843 H 0.42845 0.79641 0.85282 0.0
C1844 C 0.48791 0.81578 0.82204 0.0
C1845 C 0.49215 0.80412 0.83515 0.0
C1846 C 0.46995 0.81537 0.81474 0.0
C1847 C 0.45575 0.80335 0.8204 0.0
C1848 C 0.46013 0.79129 0.83294 0.0
H1849 H 0.33899 0.77728 0.8021 0.0
H1850 H 0.37099 0.7799 0.81162 0.0
C1851 C 0.47797 0.79175 0.84028 0.0
C1852 C 0.43642 0.80333 0.81339 0.0
H1853 H 0.3954 0.80551 0.82829 0.0
C1854 C 0.43081 0.80069 0.79397 0.0
C1855 C 0.42334 0.80535 0.82579 0.0
C1856 C 0.4283 0.80923 0.84675 0.0
C1857 C 0.41261 0.79928 0.78673 0.0
C1858 C 0.39944 0.80097 0.79919 0.0
C1859 C 0.4052 0.80401 0.81858 0.0
C1860 C 0.37965 0.79923 0.79269 0.0
C1861 C 0.4077 0.79529 0.76578 0.0
C1862 C 0.37335 0.80918 0.77879 0.0
C1863 C 0.35488 0.80737 0.77298 0.0
C1864 C 0.34196 0.79608 0.78131 0.0
C1865 C 0.3483 0.78628 0.79535 0.0
C1866 C 0.36677 0.78781 0.8009 0.0
H1867 H 0.41786 0.78891 0.75899 0.0
H1868 H 0.39446 0.78631 0.76226 0.0
H1869 H 0.40712 0.80803 0.75969 0.0
H1870 H 0.38268 0.81846 0.7724 0.0
H1871 H 0.35082 0.81469 0.76174 0.0
H1872 H 0.49154 0.20929 0.13383 0.0
H1873 H 0.49143 0.18226 0.11247 0.0
H1874 H 0.54248 0.17705 0.14068 0.0
H1875 H 0.54177 0.20319 0.16295 0.0
H1876 H 0.51012 0.17478 0.08731 0.0
H1877 H 0.52017 0.12694 0.13855 0.0
H1878 H 0.51566 0.14885 0.14568 0.0
H1879 H 0.53813 0.14584 0.14223 0.0
C1880 C 0.50255 0.20212 0.13568 0.0
C1881 C 0.51651 0.20819 0.15026 0.0
C1882 C 0.50255 0.18668 0.12337 0.0
C1883 C 0.51677 0.17712 0.12498 0.0
C1884 C 0.53092 0.18349 0.13942 0.0
H1885 H 0.54571 0.10292 0.03738 0.0
H1886 H 0.54337 0.1291 0.05913 0.0
C1887 C 0.53061 0.19859 0.15212 0.0
C1888 C 0.5171 0.16112 0.11108 0.0
H1889 H 0.52496 0.11803 0.10699 0.0
C1890 C 0.5133 0.16239 0.09175 0.0
C1891 C 0.52094 0.14463 0.11657 0.0
C1892 C 0.52375 0.14141 0.13689 0.0
C1893 C 0.51362 0.14801 0.07799 0.0
C1894 C 0.51825 0.13196 0.08351 0.0
C1895 C 0.52171 0.13047 0.10273 0.0
C1896 C 0.51923 0.11641 0.06957 0.0
C1897 C 0.50856 0.14984 0.05761 0.0
C1898 C 0.5065 0.10053 0.06819 0.0
C1899 C 0.50787 0.08555 0.05588 0.0
C1900 C 0.522 0.08609 0.04459 0.0
C1901 C 0.53456 0.10212 0.0457 0.0
C1902 C 0.53324 0.11709 0.05815 0.0
H1903 H 0.50352 0.16245 0.05571 0.0
H1904 H 0.52041 0.14966 0.04984 0.0
H1905 H 0.49806 0.13831 0.05128 0.0
H1906 H 0.49553 0.09968 0.07675 0.0
H1907 H 0.49787 0.07348 0.05523 0.0
H1908 H 0.08347 0.30866 0.30951 0.0
H1909 H 0.11065 0.30301 0.29581 0.0
H1910 H 0.13382 0.2935 0.34996 0.0
H1911 H 0.10699 0.29961 0.36377 0.0
H1912 H 0.15023 0.32111 0.30884 0.0
H1913 H 0.1359 0.24748 0.31122 0.0
H1914 H 0.11854 0.26088 0.31111 0.0
H1915 H 0.13328 0.26125 0.33215 0.0
C1916 C 0.09438 0.30547 0.31855 0.0
C1917 C 0.09289 0.30471 0.33785 0.0
C1918 C 0.11 0.30223 0.31066 0.0
C1919 C 0.12447 0.29767 0.32171 0.0
C1920 C 0.12297 0.29689 0.34097 0.0
H1921 H 0.23339 0.28006 0.30926 0.0
H1922 H 0.20469 0.28466 0.31975 0.0
C1923 C 0.10755 0.30048 0.34892 0.0
C1924 C 0.14107 0.2937 0.31327 0.0
H1925 H 0.16442 0.25989 0.30304 0.0
C1926 C 0.1532 0.30769 0.30746 0.0
C1927 C 0.14522 0.27621 0.31134 0.0
C1928 C 0.13256 0.26049 0.31663 0.0
C1929 C 0.16932 0.30474 0.30035 0.0
C1930 C 0.17358 0.28731 0.29868 0.0
C1931 C 0.16134 0.27328 0.30423 0.0
C1932 C 0.19097 0.28368 0.29191 0.0
C1933 C 0.18204 0.32038 0.29499 0.0
C1934 C 0.19306 0.28123 0.27263 0.0
C1935 C 0.20952 0.27824 0.26652 0.0
C1936 C 0.22453 0.278 0.27952 0.0
C1937 C 0.2223 0.28032 0.29877 0.0
C1938 C 0.2058 0.28294 0.30484 0.0
H1939 H 0.17749 0.33331 0.2981 0.0
H1940 H 0.19554 0.32123 0.30267 0.0
H1941 H 0.18334 0.31826 0.27976 0.0
H1942 H 0.18195 0.28173 0.26226 0.0
H1943 H 0.21062 0.27656 0.2516 0.0
H1944 H 0.92743 0.03509 0.19952 0.0
H1945 H 0.94326 0.04123 0.17209 0.0
H1946 H 0.98502 0.01447 0.19332 0.0
H1947 H 0.96942 0.0085 0.22096 0.0
H1948 H 0.98422 0.05958 0.17365 0.0
H1949 H 0.96322 0.9906 0.13645 0.0
H1950 H 0.95027 0.9999 0.15331 0.0
H1951 H 0.97063 0.99279 0.16122 0.0
C1952 C 0.93994 0.03043 0.19832 0.0
C1953 C 0.94712 0.0212 0.21237 0.0
C1954 C 0.94901 0.03405 0.18269 0.0
C1955 C 0.9653 0.0283 0.18069 0.0
C1956 C 0.97246 0.01901 0.19462 0.0
H1957 H 0.03809 0.02631 0.09631 0.0
H1958 H 0.02292 0.02459 0.12467 0.0
C1959 C 0.96351 0.01558 0.21037 0.0
C1960 C 0.97469 0.03169 0.16388 0.0
H1961 H 0.98413 0.01067 0.12301 0.0
C1962 C 0.98415 0.04895 0.1625 0.0
C1963 C 0.97452 0.01779 0.14939 0.0
C1964 C 0.96406 0.99921 0.14996 0.0
C1965 C 0.9938 0.05254 0.14714 0.0
C1966 C 0.9938 0.03855 0.13276 0.0
C1967 C 0.98416 0.02136 0.13408 0.0
C1968 C 1.00397 0.04122 0.11632 0.0
C1969 C 1.00433 0.0711 0.14657 0.0
C1970 C 0.99845 0.05129 0.10225 0.0
C1971 C 1.00705 0.05221 0.08591 0.0
C1972 C 0.02136 0.04312 0.08339 0.0
C1973 C 0.02716 0.03351 0.0978 0.0
C1974 C 0.01849 0.03249 0.11402 0.0
H1975 H 1.00513 0.07972 0.16007 0.0
H1976 H 0.01812 0.07037 0.14327 0.0
H1977 H 0.99781 0.07754 0.1353 0.0
H1978 H 0.98716 0.05799 0.10365 0.0
H1979 H 1.00228 0.05976 0.0751 0.0
H1980 H 0.24409 0.67127 0.50983 0.0
H1981 H 0.24573 0.69091 0.48493 0.0
H1982 H 0.28243 0.66158 0.45926 0.0
H1983 H 0.28037 0.64148 0.48386 0.0
H1984 H 0.27807 0.71219 0.47874 0.0
H1985 H 0.24647 0.66624 0.41494 0.0
H1986 H 0.24351 0.66058 0.43835 0.0
H1987 H 0.26429 0.65937 0.42898 0.0
C1988 C 0.25226 0.66886 0.49869 0.0
C1989 C 0.26222 0.65504 0.49872 0.0
C1990 C 0.25322 0.68005 0.48456 0.0
C1991 C 0.26426 0.67766 0.47041 0.0
C1992 C 0.2737 0.66345 0.46999 0.0
H1993 H 0.26392 0.73807 0.37548 0.0
H1994 H 0.27758 0.72249 0.39903 0.0
C1995 C 0.27253 0.65204 0.48401 0.0
C1996 C 0.26657 0.69085 0.45689 0.0
H1997 H 0.25576 0.69644 0.41127 0.0
C1998 C 0.27342 0.70879 0.46391 0.0
C1999 C 0.26078 0.68618 0.4376 0.0
C2000 C 0.25324 0.66708 0.42945 0.0
C2001 C 0.27368 0.72243 0.45224 0.0
C2002 C 0.26674 0.71791 0.4332 0.0
C2003 C 0.26107 0.69983 0.42593 0.0
C2004 C 0.26279 0.7315 0.42106 0.0
C2005 C 0.2809 0.74152 0.46053 0.0
C2006 C 0.25059 0.74247 0.42598 0.0
C2007 C 0.24301 0.75188 0.41263 0.0
C2008 C 0.24723 0.75009 0.39407 0.0
C2009 C 0.26046 0.74007 0.38964 0.0
C2010 C 0.26827 0.731 0.40308 0.0
H2011 H 0.29146 0.74211 0.47244 0.0
H2012 H 0.28653 0.7498 0.44988 0.0
H2013 H 0.26988 0.74745 0.46606 0.0
H2014 H 0.24592 0.74277 0.43972 0.0
H2015 H 0.23316 0.75975 0.41661 0.0
H2016 H 0.66162 0.06649 0.69796 0.0
H2017 H 0.6395 0.06319 0.67034 0.0
H2018 H 0.63661 0.00582 0.66506 0.0
H2019 H 0.65804 0.00911 0.69338 0.0
H2020 H 0.63456 0.04805 0.63382 0.0
H2021 H 0.58686 0.01171 0.67714 0.0
H2022 H 0.60903 0.02314 0.68675 0.0
H2023 H 0.60589 1.00147 0.67335 0.0
C2024 C 0.65668 0.0533 0.69041 0.0
C2025 C 0.66122 0.03801 0.69742 0.0
C2026 C 0.64409 0.05141 0.67479 0.0
C2027 C 0.63625 0.03423 0.66614 0.0
C2028 C 0.64232 0.0191 0.67197 0.0
H2029 H 0.55591 1.00099 0.57478 0.0
H2030 H 0.57899 1.00312 0.60109 0.0
C2031 C 0.65458 0.02097 0.68788 0.0
C2032 C 0.6203 0.03217 0.65268 0.0
H2033 H 0.57559 0.01486 0.64616 0.0
C2034 C 0.62167 0.04079 0.63645 0.0
C2035 C 0.60351 0.02299 0.6566 0.0
C2036 C 0.60113 0.01444 0.67449 0.0
C2037 C 0.60659 0.04022 0.62373 0.0
C2038 C 0.58998 0.03077 0.6275 0.0
C2039 C 0.58851 0.02217 0.64366 0.0
C2040 C 0.57431 0.02848 0.61382 0.0
C2041 C 0.60833 0.04975 0.60642 0.0
C2042 C 0.5639 0.04187 0.613 0.0
C2043 C 0.55063 0.04067 0.59804 0.0
C2044 C 0.54807 0.02623 0.58391 0.0
C2045 C 0.55787 0.01237 0.58547 0.0
C2046 C 0.57093 0.01349 0.60043 0.0
H2047 H 0.62246 0.05564 0.60504 0.0
H2048 H 0.60274 0.04038 0.59364 0.0
H2049 H 0.60044 0.06067 0.60717 0.0
H2050 H 0.5666 0.05351 0.62341 0.0
H2051 H 0.54316 0.05147 0.59692 0.0
H2052 H 0.32314 0.36137 0.98536 0.0
H2053 H 0.32272 0.34644 0.95364 0.0
H2054 H 0.26555 0.34376 0.94417 0.0
H2055 H 0.26614 0.35962 0.97547 0.0
H2056 H 0.30749 0.31481 0.93724 0.0
H2057 H 0.2792 0.36461 0.89827 0.0
H2058 H 0.28647 0.36878 0.9231 0.0
H2059 H 0.26477 0.35555 0.91455 0.0
C2060 C 0.3105 0.35761 0.97646 0.0
C2061 C 0.29469 0.36172 0.9828 0.0
C2062 C 0.31026 0.3491 0.95833 0.0
C2063 C 0.29416 0.34429 0.94626 0.0
C2064 C 0.27825 0.34787 0.95288 0.0
H2065 H 0.26415 0.292 0.83263 0.0
H2066 H 0.26497 0.30474 0.86525 0.0
C2067 C 0.27855 0.35677 0.97085 0.0
C2068 C 0.29404 0.33519 0.92698 0.0
H2069 H 0.28078 0.33708 0.88066 0.0
C2070 C 0.30173 0.31975 0.92486 0.0
C2071 C 0.28656 0.34161 0.91076 0.0
C2072 C 0.27896 0.35864 0.91175 0.0
C2073 C 0.30181 0.31035 0.90711 0.0
C2074 C 0.29415 0.31666 0.89093 0.0
C2075 C 0.28654 0.33215 0.89305 0.0
C2076 C 0.2937 0.30746 0.87164 0.0
C2077 C 0.30973 0.29352 0.90598 0.0
C2078 C 0.30952 0.30452 0.86433 0.0
C2079 C 0.30898 0.29686 0.84576 0.0
C2080 C 0.2927 0.29241 0.83406 0.0
C2081 C 0.2769 0.29527 0.84139 0.0
C2082 C 0.27736 0.30259 0.86001 0.0
H2083 H 0.31006 0.28769 0.91954 0.0
H2084 H 0.30205 0.28322 0.89486 0.0
H2085 H 0.32373 0.29682 0.90262 0.0
H2086 H 0.32237 0.30866 0.87275 0.0
H2087 H 0.32135 0.29526 0.84035 0.0
H2088 H 0.97416 0.03863 0.30979 0.0
H2089 H 0.99011 0.03999 0.3414 0.0
H2090 H 0.94562 1.00368 0.35719 0.0
H2091 H 0.92957 1.00238 0.32583 0.0
H2092 H 0.96707 0.04462 0.3815 0.0
H2093 H 1.00219 0.98769 0.3653 0.0
H2094 H 0.99774 1.0024 0.34788 0.0
H2095 H 0.97963 0.98702 0.35469 0.0
C2096 C 0.96781 0.03093 0.32 0.0
C2097 C 0.95062 0.02039 0.31533 0.0
C2098 C 0.97691 0.03174 0.33802 0.0
C2099 C 0.96902 0.0219 0.35155 0.0
C2100 C 0.9519 0.01138 0.34693 0.0
H2101 H 1.00613 0.99498 0.46089 0.0
H2102 H 0.99335 0.99504 0.42836 0.0
C2103 C 0.94275 0.01068 0.32902 0.0
C2104 C 0.97856 0.02253 0.37059 0.0
H2105 H 1.00634 1.00118 0.39656 0.0
C2106 C 0.97577 0.03524 0.38484 0.0
C2107 C 0.98962 0.01008 0.37485 0.0
C2108 C 0.9926 0.99596 0.35996 0.0
C2109 C 0.98365 0.03573 0.4034 0.0
C2110 C 0.99503 0.02342 0.40771 0.0
C2111 C 0.99777 0.01071 0.39333 0.0
C2112 C 1.00375 0.02316 0.42712 0.0
C2113 C 0.97913 0.04903 0.41827 0.0
C2114 C 0.01428 0.03875 0.43718 0.0
C2115 C 0.02141 0.03868 0.45581 0.0
C2116 C 0.01863 0.0229 0.46453 0.0
C2117 C 0.00877 0.00715 0.45431 0.0
C2118 C 1.00137 0.00727 0.43577 0.0
H2119 H 0.96635 0.05341 0.41394 0.0
H2120 H 0.978 0.0433 0.43181 0.0
H2121 H 0.98986 0.06111 0.42055 0.0
H2122 H 0.01683 0.05105 0.43073 0.0
H2123 H 0.02902 0.05099 0.46346 0.0
H2124 H 0.2956 0.64564 0.60832 0.0
H2125 H 0.30125 0.66618 0.6376 0.0
H2126 H 0.25801 0.69201 0.61807 0.0
H2127 H 0.25265 0.672 0.58878 0.0
H2128 H 0.30738 0.70702 0.63251 0.0
H2129 H 0.25366 0.68249 0.67579 0.0
H2130 H 0.2624 0.66775 0.65931 0.0
H2131 H 0.24684 0.68122 0.65101 0.0
C2132 C 0.28717 0.65553 0.61054 0.0
C2133 C 0.27389 0.65759 0.59648 0.0
C2134 C 0.29036 0.6671 0.62714 0.0
C2135 C 0.2799 0.6803 0.62975 0.0
C2136 C 0.26601 0.68167 0.61614 0.0
H2137 H 0.26568 0.77109 0.69777 0.0
H2138 H 0.26686 0.74934 0.67077 0.0
C2139 C 0.26308 0.67042 0.59947 0.0
C2140 C 0.28476 0.69443 0.64529 0.0
H2141 H 0.26743 0.71332 0.68221 0.0
C2142 C 0.29898 0.70835 0.6437 0.0
C2143 C 0.27349 0.69591 0.65947 0.0
C2144 C 0.25829 0.68099 0.66166 0.0
C2145 C 0.30161 0.72438 0.65553 0.0
C2146 C 0.2898 0.72612 0.66916 0.0
C2147 C 0.27615 0.71186 0.67133 0.0
C2148 C 0.29169 0.74228 0.68214 0.0
C2149 C 0.31638 0.73957 0.65295 0.0
C2150 C 0.30561 0.74567 0.6968 0.0
C2151 C 0.30484 0.75777 0.71214 0.0
C2152 C 0.29013 0.76652 0.71285 0.0
C2153 C 0.27702 0.76431 0.69742 0.0
C2154 C 0.27774 0.75206 0.68208 0.0
H2155 H 0.3223 0.73711 0.63965 0.0
H2156 H 0.31126 0.75234 0.65302 0.0
H2157 H 0.32717 0.74119 0.6648 0.0
H2158 H 0.31632 0.738 0.69701 0.0
H2159 H 0.31531 0.75961 0.72381 0.0
H2160 H 0.63457 0.05947 0.78378 0.0
H2161 H 0.61645 0.05921 0.80987 0.0
H2162 H 0.65507 0.0358 0.84233 0.0
H2163 H 0.67358 0.03636 0.81628 0.0
H2164 H 0.60252 0.0265 0.82499 0.0
H2165 H 0.64537 0.07863 0.87774 0.0
H2166 H 0.64804 0.0776 0.85305 0.0
H2167 H 0.65557 0.06135 0.8668 0.0
C2168 C 0.63925 0.05438 0.79651 0.0
C2169 C 0.65527 0.0477 0.79804 0.0
C2170 C 0.62893 0.05423 0.81134 0.0
C2171 C 0.63446 0.04735 0.82779 0.0
C2172 C 0.65073 0.04121 0.82966 0.0
H2173 H 0.58029 0.05582 0.92583 0.0
H2174 H 0.59651 0.04167 0.90344 0.0
C2175 C 0.66121 0.0415 0.81484 0.0
C2176 C 0.62258 0.04608 0.84254 0.0
H2177 H 0.61692 0.06644 0.88495 0.0
C2178 C 0.60568 0.03499 0.83827 0.0
C2179 C 0.627 0.05712 0.85975 0.0
C2180 C 0.64493 0.06945 0.8647 0.0
C2181 C 0.5926 0.03535 0.85053 0.0
C2182 C 0.59668 0.04716 0.86723 0.0
C2183 C 0.61394 0.05742 0.872 0.0
C2184 C 0.58303 0.05061 0.87934 0.0
C2185 C 0.57446 0.02353 0.84535 0.0
C2186 C 0.56953 0.0597 0.87295 0.0
C2187 C 0.55981 0.06765 0.88576 0.0
C2188 C 0.5637 0.06669 0.90504 0.0
C2189 C 0.57654 0.05657 0.91109 0.0
C2190 C 0.58595 0.04845 0.89832 0.0
H2191 H 0.57505 0.01197 0.83494 0.0
H2192 H 0.56903 0.01842 0.85796 0.0
H2193 H 0.56505 0.03147 0.839 0.0
H2194 H 0.56738 0.06172 0.85829 0.0
H2195 H 0.54986 0.07514 0.88069 0.0
H2196 H 0.28483 0.33835 0.068 0.0
H2197 H 0.27902 0.32319 0.09592 0.0
H2198 H 0.28931 0.37427 0.13003 0.0
H2199 H 0.29513 0.38954 0.10223 0.0
H2200 H 0.30446 0.32707 0.12998 0.0
H2201 H 0.24008 0.34783 0.14365 0.0
H2202 H 0.24843 0.3484 0.12102 0.0
H2203 H 0.25813 0.36528 0.14003 0.0
C2204 C 0.28586 0.34635 0.08145 0.0
C2205 C 0.2905 0.36513 0.08293 0.0
C2206 C 0.28247 0.33768 0.09735 0.0
C2207 C 0.28349 0.34763 0.11497 0.0
C2208 C 0.28814 0.36637 0.11651 0.0
H2209 H 0.26706 0.31937 0.22721 0.0
H2210 H 0.26983 0.33434 0.19881 0.0
C2211 C 0.29159 0.37505 0.10063 0.0
C2212 C 0.28068 0.33834 0.13191 0.0
H2213 H 0.25298 0.33175 0.16612 0.0
C2214 C 0.29319 0.32801 0.13789 0.0
C2215 C 0.2661 0.33985 0.1423 0.0
C2216 C 0.2523 0.35083 0.13643 0.0
C2217 C 0.29176 0.31939 0.1542 0.0
C2218 C 0.27687 0.32042 0.16441 0.0
C2219 C 0.26433 0.33081 0.15834 0.0
C2220 C 0.27422 0.31103 0.18148 0.0
C2221 C 0.30668 0.30989 0.16057 0.0
C2222 C 0.27526 0.29281 0.18123 0.0
C2223 C 0.27445 0.28445 0.19763 0.0
C2224 C 0.27147 0.29377 0.21452 0.0
C2225 C 0.26934 0.31174 0.2145 0.0
C2226 C 0.27086 0.32031 0.19821 0.0
H2227 H 0.31946 0.31561 0.15536 0.0
H2228 H 0.30899 0.31077 0.1761 0.0
H2229 H 0.30318 0.29557 0.15474 0.0
H2230 H 0.27709 0.28506 0.16841 0.0
H2231 H 0.27643 0.2707 0.19705 0.0
H2232 H 0.26587 0.97145 0.99761 0.0
H2233 H 0.24134 0.98799 0.00105 0.0
H2234 H 0.20574 0.93886 0.007 0.0
H2235 H 0.23005 0.92219 0.00347 0.0
H2236 H 0.1958 0.9746 0.98257 0.0
H2237 H 0.22159 0.98122 0.05867 0.0
H2238 H 0.23647 0.98057 0.04072 0.0
H2239 H 0.22143 0.96062 0.04409 0.0
C2240 C 0.25271 0.96417 0.99928 0.0
C2241 C 0.24976 0.94567 1.00051 0.0
C2242 C 0.23876 0.97356 0.001 0.0
C2243 C 0.22192 0.96446 0.00404 0.0
C2244 C 0.21869 0.94588 0.0043 0.0
H2245 H 0.1404 0.99664 0.06344 0.0
H2246 H 0.15637 0.97903 0.04289 0.0
C2247 C 0.23257 0.93647 0.00245 0.0
C2248 C 0.20875 0.97458 0.01046 0.0
H2249 H 0.19559 0.99239 0.05064 0.0
C2250 C 0.19567 0.97863 0.99739 0.0
C2251 C 0.20889 0.97958 0.02982 0.0
C2252 C 0.22283 0.97536 0.04423 0.0
C2253 C 0.18236 0.98764 0.00342 0.0
C2254 C 0.18244 0.99244 0.02282 0.0
C2255 C 0.19565 0.98847 0.03577 0.0
C2256 C 0.16929 1.00195 0.03054 0.0
C2257 C 0.16817 0.99169 0.98927 0.0
C2258 C 0.17123 0.02049 0.02999 0.0
C2259 C 0.16234 0.03051 0.04183 0.0
C2260 C 0.15177 0.02199 0.05439 0.0
C2261 C 0.14903 1.00336 0.05417 0.0
C2262 C 0.15777 0.99334 0.04224 0.0
H2263 H 0.16907 0.98551 0.97487 0.0
H2264 H 0.15467 0.98673 0.9933 0.0
H2265 H 0.16967 0.00641 0.98915 0.0
H2266 H 0.18039 0.02728 0.02125 0.0
H2267 H 0.1641 0.04489 0.04161 0.0
H2268 H 0.70491 0.66737 0.00951 0.0
H2269 H 0.67625 0.64666 0.00839 0.0
H2270 H 0.70272 0.60177 0.99765 0.0
H2271 H 0.73135 0.62227 0.99889 0.0
H2272 H 0.65869 0.61818 0.97798 0.0
H2273 H 0.67713 0.59238 0.04548 0.0
H2274 H 0.68894 0.61313 0.03899 0.0
H2275 H 0.69276 0.59207 0.02836 0.0
C2276 C 0.70458 0.65309 0.00679 0.0
C2277 C 0.72036 0.64642 0.00441 0.0
C2278 C 0.68824 0.64131 0.00617 0.0
C2279 C 0.68749 0.62273 0.0032 0.0
C2280 C 0.70312 0.61607 1.00026 0.0
H2281 H 0.60324 0.53299 0.01424 0.0
H2282 H 0.63149 0.55165 0.00981 0.0
C2283 C 0.71943 0.6278 0.00092 0.0
C2284 C 0.67041 0.61024 0.00347 0.0
H2285 H 0.64927 0.57914 0.02876 0.0
C2286 C 0.65655 0.6096 0.98904 0.0
C2287 C 0.66786 0.59895 0.0178 0.0
C2288 C 0.68238 0.59917 0.03364 0.0
C2289 C 0.64017 0.59775 0.9884 0.0
C2290 C 0.63734 0.58678 0.00309 0.0
C2291 C 0.65134 0.58745 0.01748 0.0
C2292 C 0.6199 0.5749 0.00422 0.0
C2293 C 0.62638 0.59686 0.97168 0.0
C2294 C 0.60388 0.58158 0.00255 0.0
C2295 C 0.58759 0.57058 0.00408 0.0
C2296 C 0.58696 0.55285 0.00833 0.0
C2297 C 0.60306 0.54633 0.01057 0.0
C2298 C 0.61931 0.55713 0.00823 0.0
H2299 H 0.63284 0.60057 0.95907 0.0
H2300 H 0.61805 0.58327 0.96826 0.0
H2301 H 0.61753 0.60663 0.97476 0.0
H2302 H 0.60393 0.59544 1.0004 0.0
H2303 H 0.57556 0.57628 0.00262 0.0
H2304 H 0.63764 0.47977 0.27765 0.0
H2305 H 0.65409 0.45497 0.27399 0.0
H2306 H 0.70409 0.4921 0.28828 0.0
H2307 H 0.68777 0.51702 0.29171 0.0
H2308 H 0.6827 0.45484 0.24771 0.0
H2309 H 0.70549 0.4491 0.32225 0.0
H2310 H 0.68612 0.45872 0.31542 0.0
H2311 H 0.70822 0.47131 0.31509 0.0
C2312 C 0.65212 0.48262 0.28023 0.0
C2313 C 0.66144 0.5003 0.28498 0.0
C2314 C 0.66148 0.46846 0.27812 0.0
C2315 C 0.68024 0.47174 0.28106 0.0
C2316 C 0.68958 0.48932 0.28618 0.0
H2317 H 0.76443 0.41399 0.25975 0.0
H2318 H 0.74609 0.43485 0.27219 0.0
C2319 C 0.68025 0.50352 0.28805 0.0
C2320 C 0.69014 0.45696 0.27752 0.0
H2321 H 0.71745 0.43199 0.29897 0.0
C2322 C 0.69015 0.44969 0.2589 0.0
C2323 C 0.69992 0.45045 0.29219 0.0
C2324 C 0.69993 0.45766 0.31241 0.0
C2325 C 0.70004 0.43629 0.25451 0.0
C2326 C 0.70986 0.42978 0.26917 0.0
C2327 C 0.70977 0.43695 0.28782 0.0
C2328 C 0.72102 0.41618 0.26506 0.0
C2329 C 0.7004 0.42957 0.23417 0.0
C2330 C 0.713 0.39861 0.25768 0.0
C2331 C 0.72346 0.38668 0.25077 0.0
C2332 C 0.74202 0.39223 0.25119 0.0
C2333 C 0.75015 0.40944 0.25957 0.0
C2334 C 0.7397 0.42132 0.26659 0.0
H2335 H 0.69455 0.43807 0.22447 0.0
H2336 H 0.71435 0.42915 0.23122 0.0
H2337 H 0.69257 0.41573 0.23115 0.0
H2338 H 0.69858 0.39444 0.25642 0.0
H2339 H 0.71697 0.37353 0.24407 0.0
H2340 H 0.83237 0.47271 0.51494 0.0
H2341 H 0.86283 0.49013 0.51895 0.0
H2342 H 0.88239 0.44407 0.49537 0.0
H2343 H 0.85199 0.42645 0.49135 0.0
H2344 H 0.89319 0.47548 0.54103 0.0
H2345 H 0.90233 0.49031 0.46783 0.0
H2346 H 0.88055 0.48648 0.47619 0.0
H2347 H 0.89165 0.468 0.47104 0.0
C2348 C 0.84315 0.46634 0.51052 0.0
C2349 C 0.84002 0.44824 0.5031 0.0
C2350 C 0.86042 0.47628 0.51279 0.0
C2351 C 0.87453 0.4682 0.50747 0.0
C2352 C 0.87142 0.45034 0.49947 0.0
H2353 H 0.98483 0.49759 0.50533 0.0
H2354 H 0.95656 0.48052 0.51217 0.0
C2355 C 0.85418 0.44035 0.49729 0.0
C2356 C 0.89277 0.47806 0.51144 0.0
H2357 H 0.92772 0.49781 0.49042 0.0
C2358 C 0.90081 0.4805 0.53008 0.0
C2359 C 0.90231 0.48441 0.49693 0.0
C2360 C 0.89382 0.48231 0.47685 0.0
C2361 C 0.91865 0.48901 0.53455 0.0
C2362 C 0.92823 0.49503 0.51998 0.0
C2363 C 0.92009 0.49286 0.50142 0.0
C2364 C 0.94682 0.50391 0.52331 0.0
C2365 C 0.92734 0.49128 0.55454 0.0
C2366 C 0.95066 0.52249 0.5282 0.0
C2367 C 0.96676 0.53221 0.52432 0.0
C2368 C 0.97891 0.52324 0.51579 0.0
C2369 C 0.97569 0.50456 0.51237 0.0
C2370 C 0.95967 0.49485 0.51633 0.0
H2371 H 0.91823 0.48489 0.56411 0.0
H2372 H 0.93968 0.48537 0.55522 0.0
H2373 H 0.93141 0.50577 0.55956 0.0
H2374 H 0.94057 0.52956 0.53321 0.0
H2375 H 0.96918 0.54672 0.52671 0.0
H2376 H 0.39533 0.08556 0.29889 0.0
H2377 H 0.3803 0.11098 0.29472 0.0
H2378 H 0.32895 0.07638 0.29346 0.0
H2379 H 0.34381 0.05094 0.29767 0.0
H2380 H 0.35589 0.10778 0.26142 0.0
H2381 H 0.32441 0.12323 0.32596 0.0
H2382 H 0.34351 0.11211 0.32585 0.0
H2383 H 0.32142 0.09978 0.31771 0.0
C2384 C 0.38086 0.0835 0.29816 0.0
C2385 C 0.37065 0.06638 0.29841 0.0
C2386 C 0.37236 0.09799 0.29591 0.0
C2387 C 0.35364 0.09546 0.29412 0.0
C2388 C 0.34346 0.07855 0.29529 0.0
H2389 H 0.27196 0.13723 0.23636 0.0
H2390 H 0.29026 0.12043 0.2553 0.0
C2391 C 0.35193 0.06405 0.29745 0.0
C2392 C 0.34461 0.10951 0.28769 0.0
H2393 H 0.31272 0.13397 0.29782 0.0
C2394 C 0.34674 0.11384 0.26949 0.0
C2395 C 0.33262 0.11705 0.29832 0.0
C2396 C 0.33042 0.11294 0.31812 0.0
C2397 C 0.33649 0.12507 0.26123 0.0
C2398 C 0.32406 0.13215 0.2716 0.0
C2399 C 0.32233 0.12836 0.29005 0.0
C2400 C 0.31223 0.14283 0.26282 0.0
C2401 C 0.33843 0.12876 0.24123 0.0
C2402 C 0.31876 0.16081 0.26109 0.0
C2403 C 0.30851 0.17027 0.25025 0.0
C2404 C 0.29168 0.16178 0.24104 0.0
C2405 C 0.28502 0.14386 0.24316 0.0
C2406 C 0.29527 0.13442 0.25411 0.0
H2407 H 0.34789 0.12117 0.23472 0.0
H2408 H 0.32519 0.12518 0.2326 0.0
H2409 H 0.34337 0.14329 0.24091 0.0
H2410 H 0.33199 0.16728 0.2676 0.0
H2411 H 0.31387 0.18411 0.24871 0.0
H2412 H 0.29819 0.13185 0.53245 0.0
H2413 H 0.32246 0.11481 0.53485 0.0
H2414 H 0.35241 0.15013 0.50095 0.0
H2415 H 0.32846 0.1678 0.49933 0.0
H2416 H 0.33624 0.09601 0.50921 0.0
H2417 H 0.38939 0.15165 0.5443 0.0
H2418 H 0.36614 0.15369 0.54119 0.0
H2419 H 0.37955 0.15605 0.52201 0.0
C2420 C 0.31002 0.13604 0.52561 0.0
C2421 C 0.31155 0.15121 0.51584 0.0
C2422 C 0.32384 0.12626 0.52693 0.0
C2423 C 0.33939 0.13131 0.5183 0.0
C2424 C 0.34078 0.14626 0.50816 0.0
H2425 H 0.43638 0.08419 0.52552 0.0
H2426 H 0.41167 0.09741 0.51174 0.0
C2427 C 0.32707 0.15629 0.50716 0.0
C2428 C 0.354 0.12082 0.52005 0.0
H2429 H 0.39806 0.12398 0.53645 0.0
C2430 C 0.34978 0.10216 0.51508 0.0
C2431 C 0.37169 0.12883 0.52769 0.0
C2432 C 0.37697 0.14862 0.53427 0.0
C2433 C 0.36264 0.09128 0.51798 0.0
C2434 C 0.38015 0.0993 0.52592 0.0
C2435 C 0.38459 0.11796 0.53021 0.0
C2436 C 0.39365 0.08861 0.53182 0.0
C2437 C 0.35737 0.07129 0.51289 0.0
C2438 C 0.39149 0.07911 0.54744 0.0
C2439 C 0.40563 0.07188 0.55547 0.0
C2440 C 0.42201 0.0739 0.54784 0.0
C2441 C 0.4238 0.08246 0.53154 0.0
C2442 C 0.40975 0.08996 0.52369 0.0
H2443 H 0.345 0.0677 0.5028 0.0
H2444 H 0.36832 0.06574 0.50672 0.0
H2445 H 0.35478 0.06485 0.52579 0.0
H2446 H 0.37923 0.07814 0.55402 0.0
H2447 H 0.40398 0.06524 0.568 0.0
H2448 H 0.68015 0.59099 0.31608 0.0
H2449 H 0.69988 0.62027 0.31852 0.0
H2450 H 0.67917 0.62692 0.26223 0.0
H2451 H 0.65859 0.59818 0.26029 0.0
H2452 H 0.72622 0.63225 0.3007 0.0
H2453 H 0.67469 0.67386 0.28749 0.0
H2454 H 0.66889 0.65065 0.2913 0.0
H2455 H 0.67359 0.65668 0.26844 0.0
C2456 C 0.67973 0.59882 0.30431 0.0
C2457 C 0.66778 0.59246 0.28806 0.0
C2458 C 0.69101 0.61553 0.3057 0.0
C2459 C 0.69079 0.62605 0.29072 0.0
C2460 C 0.67916 0.61942 0.27426 0.0
H2461 H 0.77285 0.71159 0.26815 0.0
H2462 H 0.75406 0.6828 0.271 0.0
C2463 C 0.66751 0.60293 0.27308 0.0
C2464 C 0.70315 0.64363 0.29212 0.0
H2465 H 0.70498 0.68766 0.28547 0.0
C2466 C 0.72151 0.64437 0.29752 0.0
C2467 C 0.69706 0.6596 0.28828 0.0
C2468 C 0.67745 0.6602 0.28376 0.0
C2469 C 0.73392 0.66046 0.29865 0.0
C2470 C 0.7279 0.67611 0.29386 0.0
C2471 C 0.70956 0.67554 0.28895 0.0
C2472 C 0.74041 0.69318 0.29341 0.0
C2473 C 0.75336 0.66067 0.30518 0.0
C2474 C 0.73892 0.70856 0.30504 0.0
C2475 C 0.74958 0.72506 0.30339 0.0
C2476 C 0.76189 0.72646 0.29004 0.0
C2477 C 0.76369 0.71092 0.27876 0.0
C2478 C 0.75297 0.69445 0.28037 0.0
H2479 H 0.75515 0.64868 0.31227 0.0
H2480 H 0.76109 0.66083 0.29289 0.0
H2481 H 0.75907 0.67289 0.315 0.0
H2482 H 0.72926 0.70784 0.31516 0.0
H2483 H 0.74794 0.73679 0.31231 0.0
H2484 H 0.87191 0.46815 0.7661 0.0
H2485 H 0.85356 0.43817 0.76098 0.0
H2486 H 0.84275 0.44295 0.81887 0.0
H2487 H 0.86025 0.47356 0.82364 0.0
H2488 H 0.85997 0.41025 0.77751 0.0
H2489 H 0.7935 0.42481 0.7923 0.0
H2490 H 0.81194 0.44227 0.78938 0.0
H2491 H 0.81071 0.43299 0.81139 0.0
C2492 C 0.86545 0.46276 0.77763 0.0
C2493 C 0.86732 0.4728 0.79522 0.0
C2494 C 0.85501 0.44579 0.77471 0.0
C2495 C 0.84671 0.43858 0.78949 0.0
C2496 C 0.84869 0.44858 0.80719 0.0
H2497 H 0.81216 0.33432 0.81224 0.0
H2498 H 0.83008 0.36249 0.80578 0.0
C2499 C 0.85874 0.46586 0.80996 0.0
C2500 C 0.83692 0.42015 0.7865 0.0
H2501 H 0.79692 0.39414 0.79065 0.0
C2502 C 0.84609 0.40672 0.78008 0.0
C2503 C 0.81882 0.41577 0.78976 0.0
C2504 C 0.80813 0.42976 0.79591 0.0
C2505 C 0.8377 0.38879 0.77737 0.0
C2506 C 0.81995 0.38441 0.78153 0.0
C2507 C 0.81058 0.39781 0.78737 0.0
C2508 C 0.81147 0.36597 0.78231 0.0
C2509 C 0.84788 0.37465 0.77048 0.0
C2510 C 0.79534 0.35885 0.77107 0.0
C2511 C 0.78513 0.34299 0.77489 0.0
C2512 C 0.79114 0.33437 0.78987 0.0
C2513 C 0.8076 0.341 0.80057 0.0
C2514 C 0.81782 0.35682 0.79675 0.0
H2515 H 0.85947 0.38045 0.76338 0.0
H2516 H 0.85306 0.36834 0.78262 0.0
H2517 H 0.83899 0.36398 0.7606 0.0
H2518 H 0.79027 0.36604 0.76009 0.0
H2519 H 0.77225 0.33789 0.76674 0.0
H2520 H 0.08139 0.85662 0.1049 0.0
H2521 H 0.07972 0.88659 0.09581 0.0
H2522 H 0.02813 0.86587 0.06455 0.0
H2523 H 0.02986 0.83578 0.07342 0.0
H2524 H 0.07614 0.89984 0.06013 0.0
H2525 H 0.01811 0.90926 0.09819 0.0
H2526 H 0.03119 0.89222 0.10276 0.0
H2527 H 0.01472 0.88882 0.08257 0.0
C2528 C 0.0697 0.85834 0.09597 0.0
C2529 C 0.0558 0.84348 0.08991 0.0
C2530 C 0.06874 0.87564 0.09076 0.0
C2531 C 0.05368 0.87893 0.0796 0.0
C2532 C 0.03985 0.86407 0.07338 0.0
H2533 H 0.02102 0.97421 0.03499 0.0
H2534 H 0.02314 0.9445 0.04401 0.0
C2535 C 0.04092 0.84668 0.07835 0.0
C2536 C 0.05254 0.89775 0.07447 0.0
H2537 H 0.02766 0.93129 0.07843 0.0
C2538 C 0.06554 0.90668 0.06424 0.0
C2539 C 0.03883 0.90707 0.07971 0.0
C2540 C 0.02498 0.899 0.09156 0.0
C2541 C 0.06495 0.92406 0.05881 0.0
C2542 C 0.05119 0.93336 0.06397 0.0
C2543 C 0.03824 0.92446 0.07428 0.0
C2544 C 0.04989 0.9521 0.05864 0.0
C2545 C 0.07887 0.93208 0.047 0.0
C2546 C 0.064 0.96691 0.06388 0.0
C2547 C 0.06267 0.98422 0.05885 0.0
C2548 C 0.04719 0.9875 0.04829 0.0
C2549 C 0.03312 0.97263 0.04312 0.0
C2550 C 0.03436 0.9554 0.04833 0.0
H2551 H 0.08533 0.92169 0.03997 0.0
H2552 H 0.07288 0.93935 0.0361 0.0
H2553 H 0.08946 0.94178 0.05613 0.0
H2554 H 0.07609 0.96518 0.07212 0.0
H2555 H 0.07389 0.99507 0.06332 0.0
H2556 H 0.93917 0.24877 0.9114 0.0
H2557 H 0.9105 0.2514 0.89418 0.0
H2558 H 0.93713 0.29659 0.86961 0.0
H2559 H 0.96579 0.29363 0.88628 0.0
H2560 H 0.89028 0.27654 0.89451 0.0
H2561 H 0.91047 0.26894 0.82296 0.0
H2562 H 0.92426 0.26466 0.84317 0.0
H2563 H 0.92459 0.28726 0.83764 0.0
C2564 C 0.93898 0.25915 0.90215 0.0
C2565 C 0.95502 0.27081 0.90012 0.0
C2566 C 0.92247 0.2607 0.8923 0.0
C2567 C 0.92136 0.27397 0.88006 0.0
C2568 C 0.93737 0.28582 0.87833 0.0
H2569 H 0.83678 0.30712 0.80703 0.0
H2570 H 0.8644 0.30343 0.82511 0.0
C2571 C 0.95389 0.28417 0.88804 0.0
C2572 C 0.90356 0.27565 0.8695 0.0
H2573 H 0.88281 0.27863 0.82572 0.0
C2574 C 0.88868 0.27688 0.87944 0.0
C2575 C 0.90111 0.27616 0.84976 0.0
C2576 C 0.9159 0.27401 0.83773 0.0
C2577 C 0.87192 0.27911 0.87048 0.0
C2578 C 0.86949 0.2797 0.85071 0.0
C2579 C 0.88435 0.2783 0.8408 0.0
C2580 C 0.85199 0.28213 0.84004 0.0
C2581 C 0.85722 0.28148 0.88256 0.0
C2582 C 0.83531 0.27145 0.84198 0.0
C2583 C 0.81924 0.2738 0.83177 0.0
C2584 C 0.81932 0.2866 0.81886 0.0
C2585 C 0.83601 0.29708 0.81673 0.0
C2586 C 0.85197 0.29494 0.82714 0.0
H2587 H 0.86271 0.28645 0.89733 0.0
H2588 H 0.84903 0.291 0.87718 0.0
H2589 H 0.84836 0.26832 0.88264 0.0
H2590 H 0.83466 0.261 0.85118 0.0
H2591 H 0.8068 0.26526 0.83367 0.0
H2592 H 0.55363 0.23964 0.56165 0.0
H2593 H 0.55004 0.20711 0.55216 0.0
H2594 H 0.5401 0.19681 0.60831 0.0
H2595 H 0.54316 0.22886 0.6176 0.0
H2596 H 0.5676 0.18076 0.56327 0.0
H2597 H 0.49815 0.16298 0.58033 0.0
H2598 H 0.50881 0.18591 0.57965 0.0
H2599 H 0.51308 0.17467 0.60006 0.0
C2600 C 0.55056 0.23044 0.57194 0.0
C2601 C 0.54852 0.23716 0.59041 0.0
C2602 C 0.54852 0.21171 0.5665 0.0
C2603 C 0.54432 0.19904 0.5793 0.0
C2604 C 0.54271 0.20587 0.5978 0.0
H2605 H 0.52197 0.08126 0.57918 0.0
H2606 H 0.52667 0.11394 0.5863 0.0
C2607 C 0.54462 0.22444 0.60318 0.0
C2608 C 0.54195 0.17886 0.57367 0.0
H2609 H 0.51349 0.13879 0.57471 0.0
C2610 C 0.55568 0.17163 0.56568 0.0
C2611 C 0.52652 0.16654 0.57676 0.0
C2612 C 0.51073 0.17291 0.5845 0.0
C2613 C 0.55477 0.15284 0.56143 0.0
C2614 C 0.5393 0.14046 0.56457 0.0
C2615 C 0.52547 0.14781 0.57229 0.0
C2616 C 0.53713 0.12005 0.56025 0.0
C2617 C 0.5709 0.1466 0.55439 0.0
C2618 C 0.54124 0.11184 0.54316 0.0
C2619 C 0.53904 0.09299 0.53933 0.0
C2620 C 0.53201 0.08146 0.5521 0.0
C2621 C 0.52746 0.08955 0.56896 0.0
C2622 C 0.53012 0.10842 0.57302 0.0
H2623 H 0.58334 0.15664 0.55892 0.0
H2624 H 0.57282 0.1337 0.55946 0.0
H2625 H 0.56911 0.14486 0.53881 0.0
H2626 H 0.54584 0.11995 0.53245 0.0
H2627 H 0.54232 0.08743 0.52599 0.0
H2628 H 0.56795 0.76144 0.42905 0.0
H2629 H 0.59532 0.76161 0.41357 0.0
H2630 H 0.57037 0.78131 0.36558 0.0
H2631 H 0.54285 0.78092 0.38088 0.0
H2632 H 0.59166 0.74844 0.36023 0.0
H2633 H 0.62875 0.81116 0.40252 0.0
H2634 H 0.61457 0.79487 0.41368 0.0
H2635 H 0.60469 0.80734 0.397 0.0
C2636 C 0.56829 0.76585 0.41522 0.0
C2637 C 0.55318 0.77124 0.40625 0.0
C2638 C 0.58395 0.76589 0.40635 0.0
C2639 C 0.58499 0.7715 0.38838 0.0
C2640 C 0.5699 0.7768 0.37936 0.0
H2641 H 0.66719 0.79074 0.31225 0.0
H2642 H 0.63864 0.78378 0.32574 0.0
C2643 C 0.55417 0.77659 0.38815 0.0
C2644 C 0.60193 0.77232 0.37922 0.0
H2645 H 0.64383 0.79752 0.37987 0.0
C2646 C 0.60305 0.75919 0.36449 0.0
C2647 C 0.61691 0.78622 0.38486 0.0
C2648 C 0.61635 0.8008 0.40035 0.0
C2649 C 0.61868 0.75967 0.35531 0.0
C2650 C 0.63354 0.77375 0.36075 0.0
C2651 C 0.63247 0.78674 0.37562 0.0
C2652 C 0.65032 0.77541 0.35123 0.0
C2653 C 0.61944 0.74495 0.34005 0.0
C2654 C 0.66639 0.77269 0.3608 0.0
C2655 C 0.68265 0.77656 0.35306 0.0
C2656 C 0.6833 0.78323 0.33552 0.0
C2657 C 0.6671 0.7852 0.32554 0.0
C2658 C 0.65078 0.78133 0.33332 0.0
H2659 H 0.60764 0.73392 0.33881 0.0
H2660 H 0.61997 0.75055 0.32641 0.0
H2661 H 0.63181 0.73936 0.34289 0.0
H2662 H 0.66646 0.76817 0.37461 0.0
H2663 H 0.69492 0.77513 0.36119 0.0
H2664 H 0.05019 0.24612 0.36664 0.0
H2665 H 0.04961 0.21873 0.38215 0.0
H2666 H 0.03458 0.2456 0.43188 0.0
H2667 H 0.03536 0.27309 0.41656 0.0
H2668 H 0.06919 0.2132 0.41836 0.0
H2669 H 0.99523 0.19898 0.41734 0.0
H2670 H 1.00647 0.21356 0.4021 0.0
H2671 H 1.00596 0.2215 0.42628 0.0
C2672 C 0.04675 0.24622 0.38089 0.0
C2673 C 0.04272 0.26186 0.39029 0.0
C2674 C 0.0465 0.23053 0.38978 0.0
C2675 C 0.04192 0.22995 0.40819 0.0
C2676 C 0.03801 0.24558 0.41764 0.0
H2677 H 0.0236 0.1473 0.4844 0.0
H2678 H 0.03004 0.1759 0.47092 0.0
C2679 C 0.03849 0.26134 0.40885 0.0
C2680 C 0.04088 0.213 0.41743 0.0
H2681 H 0.01147 0.18106 0.43474 0.0
C2682 C 0.05656 0.20615 0.42189 0.0
C2683 C 0.02442 0.20363 0.42197 0.0
C2684 C 1.00699 0.20963 0.41657 0.0
C2685 C 0.05624 0.19053 0.43112 0.0
C2686 C 0.03979 0.18137 0.43595 0.0
C2687 C 0.02413 0.18814 0.43132 0.0
C2688 C 0.03831 0.16444 0.44528 0.0
C2689 C 0.07353 0.18412 0.43602 0.0
C2690 C 0.04107 0.14843 0.43559 0.0
C2691 C 0.03727 0.13208 0.44324 0.0
C2692 C 0.03084 0.13134 0.46089 0.0
C2693 C 0.02885 0.14747 0.47097 0.0
C2694 C 0.03242 0.16381 0.46319 0.0
H2695 H 0.08543 0.19435 0.4345 0.0
H2696 H 0.07446 0.18062 0.45065 0.0
H2697 H 0.07388 0.17186 0.42656 0.0
H2698 H 0.04533 0.14841 0.42168 0.0
H2699 H 0.03865 0.11985 0.43502 0.0
H2700 H 0.57302 0.26037 0.23383 0.0
H2701 H 0.60547 0.26428 0.24361 0.0
H2702 H 0.61597 0.27109 0.1868 0.0
H2703 H 0.58388 0.26757 0.17715 0.0
H2704 H 0.63145 0.24567 0.23352 0.0
H2705 H 0.64992 0.31403 0.21345 0.0
H2706 H 0.62694 0.30369 0.21438 0.0
H2707 H 0.63818 0.29838 0.19428 0.0
C2708 C 0.58223 0.26279 0.22343 0.0
C2709 C 0.57557 0.26376 0.20466 0.0
C2710 C 0.60091 0.26502 0.22905 0.0
C2711 C 0.61359 0.26841 0.21613 0.0
C2712 C 0.60685 0.26907 0.19734 0.0
H2713 H 0.73151 0.28921 0.21793 0.0
H2714 H 0.69888 0.28504 0.21024 0.0
C2715 C 0.58829 0.26689 0.19176 0.0
C2716 C 0.63369 0.27082 0.22199 0.0
H2717 H 0.67392 0.29882 0.22059 0.0
C2718 C 0.6407 0.25737 0.23077 0.0
C2719 C 0.64612 0.28598 0.21845 0.0
C2720 C 0.63992 0.30142 0.20979 0.0
C2721 C 0.6594 0.25827 0.23541 0.0
C2722 C 0.6719 0.27348 0.23188 0.0
C2723 C 0.66479 0.28705 0.22334 0.0
C2724 C 0.69222 0.27559 0.23661 0.0
C2725 C 0.66542 0.24238 0.24329 0.0
C2726 C 0.70006 0.27195 0.25409 0.0
C2727 C 0.71881 0.27377 0.25821 0.0
C2728 C 0.73059 0.27999 0.24535 0.0
C2729 C 0.72293 0.28428 0.22817 0.0
C2730 C 0.70412 0.28194 0.2238 0.0
H2731 H 0.65536 0.2299 0.23903 0.0
H2732 H 0.67839 0.24017 0.23861 0.0
H2733 H 0.66694 0.24468 0.25885 0.0
H2734 H 0.69173 0.26795 0.26484 0.0
H2735 H 0.72414 0.27082 0.2718 0.0
H2736 H 0.56899 0.87219 0.89184 0.0
H2737 H 0.56651 0.90066 0.90954 0.0
H2738 H 0.51305 0.87775 0.9198 0.0
H2739 H 0.51607 0.84905 0.90335 0.0
H2740 H 0.5474 0.9247 0.90571 0.0
H2741 H 0.52949 0.89798 0.97143 0.0
H2742 H 0.53643 0.88427 0.95276 0.0
H2743 H 0.51362 0.88789 0.9518 0.0
C2744 C 0.5568 0.87317 0.8981 0.0
C2745 C 0.54288 0.85814 0.89641 0.0
C2746 C 0.55533 0.88955 0.90822 0.0
C2747 C 0.53975 0.89157 0.91672 0.0
C2748 C 0.52558 0.87666 0.91434 0.0
H2749 H 0.50474 0.97929 0.98382 0.0
H2750 H 0.50721 0.95147 0.96499 0.0
C2751 C 0.52725 0.86017 0.9047 0.0
C2752 C 0.53823 0.90925 0.92755 0.0
H2753 H 0.52637 0.92801 0.96869 0.0
C2754 C 0.5429 0.92535 0.91955 0.0
C2755 C 0.53228 0.91049 0.94568 0.0
C2756 C 0.52784 0.89426 0.95599 0.0
C2757 C 0.54147 0.94225 0.92872 0.0
C2758 C 0.53552 0.94347 0.94685 0.0
C2759 C 0.53087 0.92738 0.95485 0.0
C2760 C 0.53385 0.96107 0.95777 0.0
C2761 C 0.54585 0.95851 0.91845 0.0
C2762 C 0.54788 0.97614 0.9603 0.0
C2763 C 0.54618 0.99233 0.97062 0.0
C2764 C 0.5307 0.99377 0.97937 0.0
C2765 C 0.51685 0.97866 0.97727 0.0
C2766 C 0.51832 0.96267 0.96649 0.0
H2767 H 0.54424 0.95481 0.903 0.0
H2768 H 0.5372 0.96845 0.92168 0.0
H2769 H 0.56005 0.96494 0.92268 0.0
H2770 H 0.56036 0.97538 0.9546 0.0
H2771 H 0.55724 1.00359 0.97225 0.0
H2772 H 0.95505 0.75688 0.67782 0.0
H2773 H 0.92541 0.7582 0.68753 0.0
H2774 H 0.94684 0.76027 0.74537 0.0
H2775 H 0.97675 0.75905 0.73565 0.0
H2776 H 0.90266 0.736 0.70588 0.0
H2777 H 0.92035 0.80201 0.74896 0.0
H2778 H 0.93517 0.79405 0.73338 0.0
H2779 H 0.93356 0.7859 0.75589 0.0
C2780 C 0.95358 0.75763 0.69267 0.0
C2781 C 0.96862 0.7579 0.70587 0.0
C2782 C 0.93643 0.75838 0.69824 0.0
C2783 C 0.9335 0.75963 0.7173 0.0
C2784 C 0.94847 0.75972 0.73058 0.0
H2785 H 0.83853 0.7724 0.77614 0.0
H2786 H 0.86833 0.77037 0.76725 0.0
C2787 C 0.9657 0.75888 0.72498 0.0
C2788 C 0.91482 0.76052 0.72298 0.0
H2789 H 0.89097 0.78607 0.74913 0.0
C2790 C 0.90017 0.74699 0.71535 0.0
C2791 C 0.91115 0.77472 0.7354 0.0
C2792 C 0.92581 0.7901 0.74379 0.0
C2793 C 0.88246 0.74699 0.72001 0.0
C2794 C 0.87866 0.76137 0.73223 0.0
C2795 C 0.89338 0.77494 0.73981 0.0
C2796 C 0.85983 0.76254 0.73761 0.0
C2797 C 0.86821 0.73102 0.7122 0.0
C2798 C 0.84447 0.75919 0.72418 0.0
C2799 C 0.82714 0.75988 0.72942 0.0
C2800 C 0.82444 0.76457 0.74823 0.0
C2801 C 0.83982 0.76858 0.76154 0.0
C2802 C 0.85708 0.76748 0.75638 0.0
H2803 H 0.87412 0.71891 0.70893 0.0
H2804 H 0.85819 0.72787 0.72216 0.0
H2805 H 0.86127 0.73389 0.69888 0.0
H2806 H 0.8458 0.75621 0.70947 0.0
H2807 H 0.81585 0.75709 0.71858 0.0
H2808 H 0.14061 0.04642 0.8537 0.0
H2809 H 0.13031 0.04521 0.88471 0.0
H2810 H 0.07563 0.03892 0.85972 0.0
H2811 H 0.0859 0.03997 0.82844 0.0
H2812 H 0.11124 0.06668 0.90459 0.0
H2813 H 0.07344 0.99687 0.89113 0.0
H2814 H 0.08908 0.00615 0.87579 0.0
H2815 H 0.06691 0.01131 0.87449 0.0
C2816 C 0.12636 0.04476 0.85473 0.0
C2817 C 0.11407 0.04318 0.83848 0.0
C2818 C 0.12049 0.0441 0.87255 0.0
C2819 C 0.10216 0.04169 0.87466 0.0
C2820 C 0.08983 0.04042 0.8585 0.0
H2821 H 0.04158 0.04683 0.96954 0.0
H2822 H 0.05367 0.04755 0.93948 0.0
C2823 C 0.09572 0.04114 0.8406 0.0
C2824 C 0.09608 0.04059 0.89378 0.0
H2825 H 0.07007 0.0135 0.91978 0.0
C2826 C 0.10233 0.055 0.90791 0.0
C2827 C 0.08457 0.02529 0.8983 0.0
C2828 C 0.07822 0.00894 0.88421 0.0
C2829 C 0.097 0.05468 0.92612 0.0
C2830 C 0.08521 0.03956 0.93044 0.0
C2831 C 0.07914 0.02508 0.91646 0.0
C2832 C 0.0782 0.03903 0.94906 0.0
C2833 C 0.10365 0.07064 0.94062 0.0
C2834 C 0.08798 0.03395 0.96458 0.0
C2835 C 0.08097 0.03329 0.98196 0.0
C2836 C 0.06405 0.03773 0.98413 0.0
C2837 C 0.05449 0.043 0.96849 0.0
C2838 C 0.06142 0.04352 0.95121 0.0
H2839 H 0.11261 0.08151 0.93507 0.0
H2840 H 0.09209 0.07601 0.94559 0.0
H2841 H 0.11105 0.06642 0.95295 0.0
H2842 H 0.101 0.03045 0.96324 0.0
H2843 H 0.08879 0.02931 0.99365 0.0
H2844 H 0.80933 0.41958 0.56417 0.0
H2845 H 0.80671 0.40863 0.59484 0.0
H2846 H 0.765 0.36492 0.56947 0.0
H2847 H 0.76804 0.3754 0.5387 0.0
H2848 H 0.77787 0.40255 0.61597 0.0
H2849 H 0.80196 0.33974 0.59439 0.0
H2850 H 0.80383 0.35837 0.58063 0.0
H2851 H 0.78281 0.3432 0.57966 0.0
C2852 C 0.7997 0.40757 0.56517 0.0
C2853 C 0.78905 0.39813 0.54914 0.0
C2854 C 0.79811 0.40145 0.58265 0.0
C2855 C 0.78576 0.38593 0.58429 0.0
C2856 C 0.77481 0.37676 0.56836 0.0
H2857 H 0.77961 0.3222 0.67703 0.0
H2858 H 0.76776 0.33741 0.65138 0.0
C2859 C 0.7766 0.3827 0.55084 0.0
C2860 C 0.78507 0.37876 0.60248 0.0
H2861 H 0.79283 0.34286 0.62449 0.0
C2862 C 0.781 0.38945 0.61788 0.0
C2863 C 0.78927 0.36171 0.60481 0.0
C2864 C 0.79488 0.35014 0.58906 0.0
C2865 C 0.78126 0.38354 0.63573 0.0
C2866 C 0.78565 0.36659 0.63801 0.0
C2867 C 0.78917 0.35574 0.62251 0.0
C2868 C 0.78922 0.36052 0.65651 0.0
C2869 C 0.77715 0.39546 0.65204 0.0
C2870 C 0.80489 0.3688 0.66807 0.0
C2871 C 0.81181 0.35999 0.68238 0.0
C2872 C 0.80301 0.34295 0.68527 0.0
C2873 C 0.78658 0.33533 0.67478 0.0
C2874 C 0.77974 0.34406 0.66037 0.0
H2875 H 0.7696 0.40574 0.64724 0.0
H2876 H 0.76928 0.38744 0.66153 0.0
H2877 H 0.78991 0.40249 0.66023 0.0
H2878 H 0.81253 0.38134 0.66505 0.0
H2879 H 0.82442 0.36605 0.69058 0.0
H2880 H 0.41211 0.04728 0.36314 0.0
H2881 H 0.42415 0.04393 0.39512 0.0
H2882 H 0.4432 0.99654 0.37425 0.0
H2883 H 0.43178 1.00012 0.34227 0.0
H2884 H 0.41863 0.01449 0.41755 0.0
H2885 H 0.48804 0.03232 0.39886 0.0
H2886 H 0.4687 0.03583 0.38423 0.0
H2887 H 0.47442 0.0139 0.38378 0.0
C2888 C 0.41902 0.03627 0.36545 0.0
C2889 C 0.42157 0.02423 0.35042 0.0
C2890 C 0.42561 0.03425 0.38361 0.0
C2891 C 0.43456 0.0201 0.38673 0.0
C2892 C 0.43647 0.00766 0.37183 0.0
H2893 H 0.50298 0.99822 0.47872 0.0
H2894 H 0.48047 0.99345 0.45131 0.0
C2895 C 0.43018 0.00984 0.35368 0.0
C2896 C 0.44348 0.01925 0.40528 0.0
H2897 H 0.48489 0.02228 0.42855 0.0
C2898 C 0.4331 0.01612 0.42007 0.0
C2899 C 0.46232 0.02173 0.40827 0.0
C2900 C 0.47405 0.02631 0.393 0.0
C2901 C 0.44128 0.015 0.43801 0.0
C2902 C 0.46008 0.01703 0.44079 0.0
C2903 C 0.47039 0.02031 0.42603 0.0
C2904 C 0.46984 0.01729 0.45917 0.0
C2905 C 0.42995 0.01172 0.45382 0.0
C2906 C 0.47087 0.03212 0.47248 0.0
C2907 C 0.48374 0.03496 0.48794 0.0
C2908 C 0.49566 0.02302 0.48999 0.0
C2909 C 0.49403 0.00771 0.47712 0.0
C2910 C 0.48107 1.00482 0.46175 0.0
H2911 H 0.41566 0.00653 0.44853 0.0
H2912 H 0.43496 1.00208 0.46268 0.0
H2913 H 0.43078 0.02453 0.46286 0.0
H2914 H 0.46255 0.04207 0.4703 0.0
H2915 H 0.48486 0.04685 0.49781 0.0
H2916 H 0.76541 0.67722 0.07789 0.0
H2917 H 0.76794 0.68909 0.11098 0.0
H2918 H 0.78858 0.7419 0.0971 0.0
H2919 H 0.78596 0.7301 0.0638 0.0
H2920 H 0.79824 0.70762 0.13571 0.0
H2921 H 0.74612 0.74962 0.12623 0.0
H2922 H 0.74874 0.73222 0.10846 0.0
H2923 H 0.76393 0.75336 0.11165 0.0
C2924 C 0.77046 0.69139 0.08182 0.0
C2925 C 0.7753 0.70275 0.0681 0.0
C2926 C 0.77195 0.69814 0.10081 0.0
C2927 C 0.7782 0.71645 0.10659 0.0
C2928 C 0.78339 0.72779 0.09299 0.0
H2929 H 0.78366 0.78185 0.21447 0.0
H2930 H 0.7838 0.77066 0.18143 0.0
C2931 C 0.78194 0.72102 0.07394 0.0
C2932 C 0.77906 0.72359 0.1268 0.0
H2933 H 0.76131 0.75161 0.15658 0.0
C2934 C 0.7902 0.71727 0.1403 0.0
C2935 C 0.76861 0.73621 0.13283 0.0
C2936 C 0.75605 0.74319 0.1191 0.0
C2937 C 0.79146 0.72346 0.15956 0.0
C2938 C 0.78073 0.73589 0.1657 0.0
C2939 C 0.76958 0.74215 0.15209 0.0
C2940 C 0.78081 0.74266 0.18602 0.0
C2941 C 0.80474 0.71694 0.17293 0.0
C2942 C 0.77874 0.73079 0.19981 0.0
C2943 C 0.77922 0.73726 0.21877 0.0
C2944 C 0.78106 0.75573 0.22437 0.0
C2945 C 0.78227 0.76756 0.21057 0.0
C2946 C 0.78234 0.76113 0.19166 0.0
H2947 H 0.81584 0.71285 0.16564 0.0
H2948 H 0.81061 0.72739 0.18472 0.0
H2949 H 0.79787 0.70497 0.17873 0.0
H2950 H 0.77667 0.71646 0.19596 0.0
H2951 H 0.77789 0.72777 0.22906 0.0
H2952 H 0.09217 0.01271 0.73035 0.0
H2953 H 0.08108 0.00937 0.69677 0.0
H2954 H 0.11284 0.06081 0.69138 0.0
H2955 H 0.12424 0.06396 0.72457 0.0
H2956 H 0.062 0.02804 0.67619 0.0
H2957 H 0.12742 0.03188 0.64847 0.0
H2958 H 0.12493 0.02956 0.6728 0.0
H2959 H 0.12702 0.05127 0.66443 0.0
C2960 C 0.09677 0.0233 0.72199 0.0
C2961 C 0.10913 0.03859 0.73022 0.0
C2962 C 0.09046 0.02137 0.70274 0.0
C2963 C 0.09639 0.03464 0.69125 0.0
C2964 C 0.10842 0.05008 0.69962 0.0
H2965 H 0.07073 0.05725 0.57651 0.0
H2966 H 0.08219 0.05755 0.60947 0.0
C2967 C 0.11479 0.05196 0.71875 0.0
C2968 C 0.08957 0.03274 0.67074 0.0
H2969 H 0.10286 0.03567 0.62682 0.0
C2970 C 0.07097 0.02953 0.66541 0.0
C2971 C 0.10117 0.03462 0.65648 0.0
C2972 C 0.12123 0.03683 0.66081 0.0
C2973 C 0.06372 0.02878 0.64652 0.0
C2974 C 0.07532 0.0311 0.63235 0.0
C2975 C 0.09391 0.03404 0.63761 0.0
C2976 C 0.06842 0.03075 0.61207 0.0
C2977 C 0.04364 0.02605 0.64199 0.0
C2978 C 0.05707 0.01552 0.60225 0.0
C2979 C 0.05026 0.01545 0.58342 0.0
C2980 C 0.05473 0.03058 0.57381 0.0
C2981 C 0.06656 0.04558 0.5835 0.0
C2982 C 0.07329 0.04569 0.60237 0.0
H2983 H 0.03694 0.02901 0.65464 0.0
H2984 H 0.03989 0.03467 0.63124 0.0
H2985 H 0.03846 0.01186 0.63631 0.0
H2986 H 0.05346 1.00362 0.60915 0.0
H2987 H 0.04144 1.0035 0.57642 0.0
H2988 H 0.80258 0.41867 0.4362 0.0
H2989 H 0.80587 0.4048 0.40502 0.0
H2990 H 0.77798 0.35404 0.41812 0.0
H2991 H 0.77497 0.36776 0.44958 0.0
H2992 H 0.81311 0.35513 0.40364 0.0
H2993 H 0.76455 0.38624 0.36084 0.0
H2994 H 0.77975 0.40023 0.37923 0.0
H2995 H 0.76253 0.38322 0.38514 0.0
C2996 C 0.79697 0.40459 0.43232 0.0
C2997 C 0.78848 0.39417 0.44508 0.0
C2998 C 0.79887 0.39676 0.4146 0.0
C2999 C 0.79203 0.37856 0.40947 0.0
C3000 C 0.78331 0.36817 0.42206 0.0
H3001 H 0.76275 0.31228 0.30831 0.0
H3002 H 0.76627 0.33273 0.33717 0.0
C3003 C 0.78161 0.37594 0.43989 0.0
C3004 C 0.79453 0.37004 0.39117 0.0
H3005 H 0.7791 0.36582 0.34489 0.0
C3006 C 0.8058 0.35741 0.39068 0.0
C3007 C 0.78497 0.37339 0.37459 0.0
C3008 C 0.77218 0.38644 0.37481 0.0
C3009 C 0.80697 0.34704 0.37396 0.0
C3010 C 0.79704 0.35004 0.35729 0.0
C3011 C 0.78664 0.36355 0.35772 0.0
C3012 C 0.79535 0.33799 0.33978 0.0
C3013 C 0.81796 0.33239 0.37471 0.0
C3014 C 0.81051 0.33405 0.33184 0.0
C3015 C 0.80843 0.32155 0.31604 0.0
C3016 C 0.79123 0.3141 0.30727 0.0
C3017 C 0.7761 0.31839 0.31477 0.0
C3018 C 0.77815 0.33006 0.33113 0.0
H3019 H 0.82088 0.32913 0.38927 0.0
H3020 H 0.811 0.31993 0.36592 0.0
H3021 H 0.831 0.33693 0.36944 0.0
H3022 H 0.82387 0.34045 0.3379 0.0
H3023 H 0.82019 0.31814 0.31029 0.0
H3024 H 0.44142 0.02444 0.25752 0.0
H3025 H 0.45243 0.02694 0.22685 0.0
H3026 H 0.39932 0.02959 0.20211 0.0
H3027 H 0.38814 0.027 0.23268 0.0
H3028 H 0.42262 1.00141 0.18641 0.0
H3029 H 0.4526 0.07419 0.19521 0.0
H3030 H 0.45446 0.06155 0.21503 0.0
H3031 H 0.43295 0.06542 0.20597 0.0
C3032 C 0.43217 0.02571 0.24556 0.0
C3033 C 0.41402 0.02565 0.24732 0.0
C3034 C 0.43844 0.02718 0.22819 0.0
C3035 C 0.42665 0.02877 0.21258 0.0
C3036 C 0.40852 0.02857 0.21422 0.0
H3037 H 0.44721 0.01677 0.09695 0.0
H3038 H 0.43493 0.02943 0.12446 0.0
C3039 C 0.4022 0.027 0.23156 0.0
C3040 C 0.43316 0.02944 0.19426 0.0
H3041 H 0.45873 0.05658 0.16837 0.0
C3042 C 0.43025 0.01348 0.18224 0.0
C3043 C 0.4431 0.0453 0.18924 0.0
C3044 C 0.44599 0.06269 0.20194 0.0
C3045 C 0.43773 0.01278 0.16536 0.0
C3046 C 0.44813 0.02852 0.16049 0.0
C3047 C 0.45062 0.04466 0.17226 0.0
C3048 C 0.45772 0.02752 0.14397 0.0
C3049 C 0.43519 0.99506 0.15318 0.0
C3050 C 0.47486 0.0232 0.14603 0.0
C3051 C 0.4817 0.01581 0.13051 0.0
C3052 C 0.47141 0.01285 0.11297 0.0
C3053 C 0.4551 0.01884 0.11057 0.0
C3054 C 0.44825 0.02624 0.1261 0.0
H3055 H 0.42721 0.98398 0.15942 0.0
H3056 H 0.42825 0.99616 0.13919 0.0
H3057 H 0.44842 0.99153 0.15099 0.0
H3058 H 0.48217 0.02399 0.15984 0.0
H3059 H 0.49442 0.01135 0.13239 0.0
H3060 H 0.75722 0.72249 0.96532 0.0
H3061 H 0.75726 0.73218 0.93372 0.0
H3062 H 0.78906 0.69279 0.91805 0.0
H3063 H 0.78883 0.68292 0.94927 0.0
H3064 H 0.78542 0.74597 0.91515 0.0
H3065 H 0.7492 0.68228 0.87512 0.0
H3066 H 0.75016 0.68648 0.90031 0.0
H3067 H 0.76875 0.67971 0.88979 0.0
C3068 C 0.76421 0.71591 0.95512 0.0
C3069 C 0.77299 0.70191 0.95985 0.0
C3070 C 0.76419 0.72142 0.93704 0.0
C3071 C 0.77285 0.71298 0.92329 0.0
C3072 C 0.78186 0.69922 0.92815 0.0
H3073 H 0.78978 0.72926 0.8065 0.0
H3074 H 0.78954 0.7182 0.83753 0.0
C3075 C 0.78186 0.6937 0.94613 0.0
C3076 C 0.77309 0.71898 0.90413 0.0
H3077 H 0.76276 0.70449 0.85724 0.0
C3078 C 0.78036 0.73691 0.9025 0.0
C3079 C 0.76666 0.70715 0.88754 0.0
C3080 C 0.7581 0.68787 0.88822 0.0
C3081 C 0.78163 0.74327 0.88488 0.0
C3082 C 0.77506 0.7315 0.86827 0.0
C3083 C 0.76786 0.71353 0.86988 0.0
C3084 C 0.77496 0.73778 0.84921 0.0
C3085 C 0.79044 0.7625 0.8843 0.0
C3086 C 0.76646 0.75212 0.84519 0.0
C3087 C 0.76679 0.75854 0.82767 0.0
C3088 C 0.77534 0.75061 0.81348 0.0
C3089 C 0.78323 0.73576 0.81717 0.0
C3090 C 0.78308 0.72943 0.8349 0.0
H3091 H 0.79976 0.76774 0.8972 0.0
H3092 H 0.798 0.76396 0.87194 0.0
H3093 H 0.77997 0.77093 0.88343 0.0
H3094 H 0.75952 0.7584 0.85564 0.0
H3095 H 0.76018 0.76973 0.82523 0.0
H3096 H 0.80868 0.0938 0.07442 0.0
H3097 H 0.83968 0.08937 0.08092 0.0
H3098 H 0.8531 0.11354 0.03112 0.0
H3099 H 0.82243 0.11801 0.02456 0.0
H3100 H 0.85645 0.06949 0.05615 0.0
H3101 H 0.89399 0.13894 0.07093 0.0
H3102 H 0.87025 0.13311 0.0728 0.0
H3103 H 0.87814 0.13618 0.05034 0.0
C3104 C 0.81826 0.09801 0.06483 0.0
C3105 C 0.81324 0.10613 0.04895 0.0
C3106 C 0.83593 0.09576 0.06872 0.0
C3107 C 0.84866 0.10177 0.05687 0.0
C3108 C 0.84354 0.10947 0.0408 0.0
H3109 H 0.92892 0.08639 0.99982 0.0
H3110 H 0.90914 0.09934 0.01966 0.0
C3111 C 0.82596 0.11167 0.03688 0.0
C3112 C 0.86677 0.09781 0.05948 0.0
H3113 H 0.90993 0.11696 0.05624 0.0
C3114 C 0.86835 0.07978 0.05692 0.0
C3115 C 0.88206 0.11141 0.06047 0.0
C3116 C 0.88104 0.131 0.06398 0.0
C3117 C 0.8845 0.07491 0.05293 0.0
C3118 C 0.8995 0.08856 0.05225 0.0
C3119 C 0.89837 0.10658 0.05683 0.0
C3120 C 0.91486 0.08448 0.043 0.0
C3121 C 0.88474 0.05533 0.04742 0.0
C3122 C 0.92515 0.07255 0.05 0.0
C3123 C 0.93601 0.06476 0.0385 0.0
C3124 C 0.93695 0.06912 0.02002 0.0
C3125 C 0.92801 0.08243 0.01379 0.0
C3126 C 0.91698 0.09005 0.02522 0.0
H3127 H 0.8712 0.04684 0.04626 0.0
H3128 H 0.89011 0.05349 0.03372 0.0
H3129 H 0.89354 0.05042 0.05814 0.0
H3130 H 0.92375 0.0683 0.06379 0.0
H3131 H 0.94278 0.05453 0.0437 0.0
H3132 H 0.34066 0.43639 0.01119 0.0
H3133 H 0.37117 0.4521 0.00928 0.0
H3134 H 0.39018 0.42919 0.05811 0.0
H3135 H 0.35981 0.41311 0.0598 0.0
H3136 H 0.39309 0.47694 0.03412 0.0
H3137 H 0.42534 0.41765 0.02254 0.0
H3138 H 0.40133 0.4159 0.02082 0.0
H3139 H 0.41429 0.4181 0.04342 0.0
C3140 C 0.35134 0.43471 0.02152 0.0
C3141 C 0.34781 0.42348 0.03563 0.0
C3142 C 0.3688 0.44365 0.02039 0.0
C3143 C 0.3831 0.44157 0.03332 0.0
C3144 C 0.37952 0.43064 0.04765 0.0
H3145 H 0.49753 0.488 0.05061 0.0
H3146 H 0.46748 0.471 0.05277 0.0
C3147 C 0.36209 0.4216 0.04871 0.0
C3148 C 0.40158 0.45141 0.03224 0.0
H3149 H 0.44479 0.44602 0.02881 0.0
C3150 C 0.40437 0.47016 0.03288 0.0
C3151 C 0.41636 0.4426 0.03069 0.0
C3152 C 0.4142 0.42244 0.02915 0.0
C3153 C 0.42149 0.48035 0.03235 0.0
C3154 C 0.43628 0.47156 0.03073 0.0
C3155 C 0.43351 0.45279 0.03012 0.0
C3156 C 0.45461 0.4816 0.02931 0.0
C3157 C 0.42354 0.5005 0.03399 0.0
C3158 C 0.4575 0.49295 0.01523 0.0
C3159 C 0.4745 0.50292 0.01425 0.0
C3160 C 0.48917 0.50145 0.02704 0.0
C3161 C 0.48646 0.4896 0.04072 0.0
C3162 C 0.46931 0.47982 0.0419 0.0
H3163 H 0.41258 0.5052 0.04102 0.0
H3164 H 0.43655 0.50713 0.04198 0.0
H3165 H 0.42293 0.50488 0.01973 0.0
H3166 H 0.44659 0.49407 0.00489 0.0
H3167 H 0.47619 0.51151 0.00317 0.0
H3168 H 0.3729 0.54893 0.74658 0.0
H3169 H 0.35965 0.57588 0.74508 0.0
H3170 H 0.40885 0.60818 0.77291 0.0
H3171 H 0.42228 0.58133 0.77417 0.0
H3172 H 0.35402 0.59914 0.77417 0.0
H3173 H 0.39875 0.63581 0.72883 0.0
H3174 H 0.39804 0.61237 0.73133 0.0
H3175 H 0.41053 0.62931 0.74907 0.0
C3176 C 0.38094 0.56179 0.75229 0.0
C3177 C 0.39866 0.56299 0.76047 0.0
C3178 C 0.37335 0.57719 0.75139 0.0
C3179 C 0.38333 0.59414 0.75856 0.0
C3180 C 0.40101 0.59535 0.76683 0.0
H3181 H 0.3656 0.70029 0.78636 0.0
H3182 H 0.37733 0.67337 0.77703 0.0
C3183 C 0.40863 0.57995 0.76769 0.0
C3184 C 0.37489 0.61036 0.75835 0.0
H3185 H 0.37972 0.65251 0.74468 0.0
C3186 C 0.3595 0.61072 0.7675 0.0
C3187 C 0.38206 0.6255 0.7497 0.0
C3188 C 0.39816 0.62572 0.73902 0.0
C3189 C 0.3515 0.62601 0.7689 0.0
C3190 C 0.35882 0.64129 0.76051 0.0
C3191 C 0.374 0.64078 0.75099 0.0
C3192 C 0.352 0.65843 0.76317 0.0
C3193 C 0.33581 0.62593 0.78019 0.0
C3194 C 0.33402 0.65941 0.75765 0.0
C3195 C 0.32722 0.67487 0.76309 0.0
C3196 C 0.33835 0.68959 0.77407 0.0
C3197 C 0.35664 0.68906 0.77816 0.0
C3198 C 0.36338 0.67368 0.77278 0.0
H3199 H 0.33442 0.6148 0.78914 0.0
H3200 H 0.3372 0.63878 0.78934 0.0
H3201 H 0.32329 0.62423 0.77047 0.0
H3202 H 0.32507 0.64797 0.74982 0.0
H3203 H 0.31309 0.67489 0.75968 0.0
H3204 H 0.21865 0.58655 0.51126 0.0
H3205 H 0.18648 0.57944 0.50142 0.0
H3206 H 0.17641 0.60338 0.55517 0.0
H3207 H 0.20861 0.61095 0.565 0.0
H3208 H 0.16131 0.5587 0.51793 0.0
H3209 H 0.14741 0.62783 0.51819 0.0
H3210 H 0.16986 0.62306 0.51932 0.0
H3211 H 0.15844 0.62365 0.54003 0.0
C3212 C 0.20956 0.59 0.52108 0.0
C3213 C 0.21598 0.5992 0.53886 0.0
C3214 C 0.19129 0.58619 0.51536 0.0
C3215 C 0.17932 0.59143 0.52741 0.0
C3216 C 0.18561 0.59981 0.54553 0.0
H3217 H 0.07285 0.56111 0.5414 0.0
H3218 H 0.10407 0.57567 0.54166 0.0
C3219 C 0.20391 0.60377 0.55122 0.0
C3220 C 0.16011 0.58681 0.52146 0.0
H3221 H 0.12186 0.60406 0.51647 0.0
C3222 C 0.15271 0.56861 0.51717 0.0
C3223 C 0.14912 0.59992 0.52068 0.0
C3224 C 0.15664 0.61973 0.52464 0.0
C3225 C 0.13431 0.56299 0.51287 0.0
C3226 C 0.12327 0.57601 0.51266 0.0
C3227 C 0.13064 0.59428 0.51638 0.0
C3228 C 0.10398 0.57049 0.51157 0.0
C3229 C 0.12665 0.54317 0.5097 0.0
C3230 C 0.09388 0.56316 0.49446 0.0
C3231 C 0.07613 0.55481 0.49431 0.0
C3232 C 0.06878 0.55366 0.51129 0.0
C3233 C 0.07867 0.56167 0.52826 0.0
C3234 C 0.09625 0.57014 0.52838 0.0
H3235 H 0.13716 0.53483 0.51134 0.0
H3236 H 0.11682 0.53969 0.5198 0.0
H3237 H 0.11945 0.53971 0.49534 0.0
H3238 H 0.09993 0.56331 0.48146 0.0
H3239 H 0.06835 0.54885 0.48115 0.0
H3240 H 0.72928 0.00923 0.76052 0.0
H3241 H 0.73887 0.98008 0.75882 0.0
H3242 H 0.68633 0.95433 0.73262 0.0
H3243 H 0.67657 0.9832 0.73437 0.0
H3244 H 0.71076 0.94995 0.77611 0.0
H3245 H 0.73139 0.93461 0.70501 0.0
H3246 H 0.73487 0.95732 0.7164 0.0
H3247 H 0.71266 0.94585 0.7078 0.0
C3248 C 0.71994 0.99737 0.75409 0.0
C3249 C 0.7022 0.99826 0.7478 0.0
C3250 C 0.72544 0.98088 0.753 0.0
C3251 C 0.71329 0.96538 0.74534 0.0
C3252 C 0.69584 0.96635 0.73826 0.0
H3253 H 0.7124 0.85723 0.77019 0.0
H3254 H 0.70386 0.8825 0.75502 0.0
C3255 C 0.6903 0.98275 0.7395 0.0
C3256 C 0.7177 0.94792 0.74784 0.0
H3257 H 0.73238 0.91253 0.72607 0.0
C3258 C 0.71545 0.94169 0.76522 0.0
C3259 C 0.72359 0.93745 0.73338 0.0
C3260 C 0.72584 0.94404 0.71453 0.0
C3261 C 0.71926 0.92505 0.76873 0.0
C3262 C 0.72534 0.91454 0.75436 0.0
C3263 C 0.7275 0.92071 0.73686 0.0
C3264 C 0.73084 0.8978 0.75831 0.0
C3265 C 0.71719 0.91895 0.78788 0.0
C3266 C 0.74883 0.89817 0.76457 0.0
C3267 C 0.75365 0.88402 0.77339 0.0
C3268 C 0.74049 0.86941 0.77599 0.0
C3269 C 0.72264 0.86857 0.76861 0.0
C3270 C 0.71784 0.88274 0.75971 0.0
H3271 H 0.71342 0.92936 0.79781 0.0
H3272 H 0.70665 0.90674 0.78656 0.0
H3273 H 0.7299 0.91545 0.79393 0.0
H3274 H 0.75889 0.90993 0.76381 0.0
H3275 H 0.76751 0.88492 0.77903 0.0
H3276 H 0.76436 0.94116 0.55379 0.0
H3277 H 0.73731 0.95425 0.55562 0.0
H3278 H 0.70571 0.90661 0.52376 0.0
H3279 H 0.73253 0.89329 0.52239 0.0
H3280 H 0.71567 0.96248 0.52788 0.0
H3281 H 0.67539 0.91289 0.56547 0.0
H3282 H 0.69894 0.91341 0.56389 0.0
H3283 H 0.6825 0.90269 0.54473 0.0
C3284 C 0.75161 0.93344 0.5473 0.0
C3285 C 0.75058 0.91617 0.53799 0.0
C3286 C 0.73615 0.94091 0.54839 0.0
C3287 C 0.71934 0.9313 0.54018 0.0
C3288 C 0.71836 0.91411 0.53073 0.0
H3289 H 0.61646 0.95275 0.50444 0.0
H3290 H 0.64181 0.93924 0.51548 0.0
C3291 C 0.73376 0.90657 0.52979 0.0
C3292 C 0.70309 0.93971 0.54035 0.0
H3293 H 0.65946 0.93287 0.54978 0.0
C3294 C 0.70349 0.95614 0.53298 0.0
C3295 C 0.68711 0.93143 0.54693 0.0
C3296 C 0.68598 0.91422 0.55587 0.0
C3297 C 0.68823 0.96414 0.53124 0.0
C3298 C 0.67213 0.95567 0.53741 0.0
C3299 C 0.67181 0.93943 0.54519 0.0
C3300 C 0.65517 0.96266 0.53409 0.0
C3301 C 0.68926 0.98116 0.52195 0.0
C3302 C 0.65368 0.97996 0.54173 0.0
C3303 C 0.63909 0.98769 0.53546 0.0
C3304 C 0.62581 0.97819 0.52152 0.0
C3305 C 0.62655 0.96034 0.51519 0.0
C3306 C 0.64105 0.95263 0.52147 0.0
H3307 H 0.70141 0.98389 0.51456 0.0
H3308 H 0.67728 0.98046 0.51167 0.0
H3309 H 0.68973 0.99264 0.53279 0.0
H3310 H 0.66428 0.98783 0.55175 0.0
H3311 H 0.63888 1.00149 0.54048 0.0
H3312 H 0.36745 0.47355 0.76903 0.0
H3313 H 0.35101 0.44338 0.7713 0.0
H3314 H 0.39637 0.42093 0.7558 0.0
H3315 H 0.41293 0.45107 0.75361 0.0
H3316 H 0.34153 0.41365 0.74423 0.0
H3317 H 0.3859 0.39893 0.80421 0.0
H3318 H 0.38671 0.42126 0.79752 0.0
H3319 H 0.39729 0.4055 0.78458 0.0
C3320 C 0.37393 0.46219 0.76608 0.0
C3321 C 0.39153 0.46474 0.7612 0.0
C3322 C 0.36451 0.44494 0.76739 0.0
C3323 C 0.37253 0.42987 0.76403 0.0
C3324 C 0.39 0.43235 0.75883 0.0
H3325 H 0.33068 0.3151 0.75466 0.0
H3326 H 0.34796 0.34488 0.75244 0.0
C3327 C 0.39941 0.44959 0.75744 0.0
C3328 C 0.36249 0.41159 0.76571 0.0
H3329 H 0.36326 0.37489 0.78951 0.0
C3330 C 0.34627 0.40522 0.75417 0.0
C3331 C 0.36863 0.40056 0.77873 0.0
C3332 C 0.3855 0.40692 0.7921 0.0
C3333 C 0.33619 0.38811 0.75515 0.0
C3334 C 0.3424 0.37709 0.76804 0.0
C3335 C 0.35858 0.38338 0.7796 0.0
C3336 C 0.33209 0.35903 0.76973 0.0
C3337 C 0.319 0.38173 0.74232 0.0
C3338 C 0.31746 0.35712 0.78026 0.0
C3339 C 0.30757 0.3401 0.78166 0.0
C3340 C 0.31203 0.32462 0.77243 0.0
C3341 C 0.32675 0.32666 0.76189 0.0
C3342 C 0.33671 0.34368 0.76063 0.0
H3343 H 0.3166 0.39135 0.73213 0.0
H3344 H 0.31932 0.36856 0.73446 0.0
H3345 H 0.30757 0.37981 0.75082 0.0
H3346 H 0.31373 0.36882 0.78745 0.0
H3347 H 0.29652 0.33909 0.79011 0.0
H3348 H 0.22754 0.5961 0.24548 0.0
H3349 H 0.23903 0.62853 0.25162 0.0
H3350 H 0.19194 0.63572 0.27801 0.0
H3351 H 0.18036 0.60366 0.27195 0.0
H3352 H 0.21531 0.65839 0.24148 0.0
H3353 H 0.24096 0.65593 0.31627 0.0
H3354 H 0.23867 0.63685 0.29873 0.0
H3355 H 0.21911 0.64327 0.30723 0.0
C3356 C 0.21972 0.60466 0.25257 0.0
C3357 C 0.20318 0.59757 0.25829 0.0
C3358 C 0.2262 0.62301 0.25596 0.0
C3359 C 0.21619 0.63411 0.26524 0.0
C3360 C 0.19967 0.62711 0.27082 0.0
H3361 H 0.23671 0.74934 0.29104 0.0
H3362 H 0.222 0.71802 0.28795 0.0
C3363 C 0.19315 0.60889 0.26733 0.0
C3364 C 0.22318 0.65311 0.26963 0.0
H3365 H 0.24416 0.68428 0.30528 0.0
C3366 C 0.22161 0.66416 0.25538 0.0
C3367 C 0.23102 0.66022 0.28789 0.0
C3368 C 0.23266 0.64852 0.30348 0.0
C3369 C 0.22821 0.68251 0.25896 0.0
C3370 C 0.23654 0.6895 0.27709 0.0
C3371 C 0.23768 0.67854 0.29144 0.0
C3372 C 0.24562 0.70796 0.28095 0.0
C3373 C 0.22672 0.69428 0.24339 0.0
C3374 C 0.26379 0.71214 0.27868 0.0
C3375 C 0.27234 0.7299 0.28084 0.0
C3376 C 0.26264 0.74349 0.28509 0.0
C3377 C 0.24458 0.7391 0.2882 0.0
C3378 C 0.23609 0.72132 0.28619 0.0
H3379 H 0.21892 0.6868 0.23035 0.0
H3380 H 0.22016 0.70561 0.24797 0.0
H3381 H 0.24033 0.70007 0.24017 0.0
H3382 H 0.27114 0.7017 0.27463 0.0
H3383 H 0.28625 0.73299 0.27827 0.0
H3384 H 0.52225 0.73589 0.48601 0.0
H3385 H 0.52875 0.70898 0.49943 0.0
H3386 H 0.50329 0.67643 0.44863 0.0
H3387 H 0.4974 0.70334 0.43497 0.0
H3388 H 0.51068 0.67948 0.50902 0.0
H3389 H 0.54843 0.65767 0.45222 0.0
H3390 H 0.54154 0.67914 0.4538 0.0
H3391 H 0.52613 0.65927 0.44322 0.0
C3392 C 0.51802 0.723 0.47765 0.0
C3393 C 0.50938 0.72199 0.45924 0.0
C3394 C 0.52177 0.70749 0.48539 0.0
C3395 C 0.51704 0.69036 0.47503 0.0
C3396 C 0.50779 0.68932 0.45689 0.0
H3397 H 0.52065 0.57919 0.49206 0.0
H3398 H 0.51634 0.6078 0.4817 0.0
C3399 C 0.5042 0.70482 0.44908 0.0
C3400 C 0.52164 0.67373 0.48315 0.0
H3401 H 0.53986 0.63616 0.4732 0.0
C3402 C 0.51721 0.67014 0.50117 0.0
C3403 C 0.53038 0.66132 0.4733 0.0
C3404 C 0.53707 0.66463 0.45467 0.0
C3405 C 0.52053 0.65447 0.50909 0.0
C3406 C 0.52872 0.64181 0.49893 0.0
C3407 C 0.53346 0.64558 0.4811 0.0
C3408 C 0.53169 0.62422 0.50593 0.0
C3409 C 0.51466 0.65134 0.52809 0.0
C3410 C 0.54205 0.62342 0.52309 0.0
C3411 C 0.54461 0.6068 0.52917 0.0
C3412 C 0.53695 0.59038 0.51827 0.0
C3413 C 0.52679 0.59133 0.50104 0.0
C3414 C 0.5243 0.60785 0.495 0.0
H3415 H 0.50491 0.65988 0.5321 0.0
H3416 H 0.50849 0.63708 0.52836 0.0
H3417 H 0.52653 0.65466 0.53882 0.0
H3418 H 0.54833 0.63568 0.53178 0.0
H3419 H 0.55253 0.60685 0.54247 0.0
H3420 H 0.62116 0.31539 0.63197 0.0
H3421 H 0.64855 0.317 0.65379 0.0
H3422 H 0.61915 0.2804 0.6867 0.0
H3423 H 0.59181 0.2791 0.66537 0.0
H3424 H 0.6475 0.32281 0.70227 0.0
H3425 H 0.67064 0.26419 0.66684 0.0
H3426 H 0.65841 0.27821 0.65376 0.0
H3427 H 0.64701 0.26326 0.66827 0.0
C3428 C 0.6206 0.30764 0.64381 0.0
C3429 C 0.60431 0.29715 0.64696 0.0
C3430 C 0.63622 0.30861 0.6563 0.0
C3431 C 0.6359 0.29883 0.67191 0.0
C3432 C 0.61972 0.28814 0.67485 0.0
H3433 H 0.7094 0.28182 0.76583 0.0
H3434 H 0.68335 0.28274 0.7434 0.0
C3435 C 0.6041 0.28742 0.66262 0.0
C3436 C 0.65231 0.29972 0.68532 0.0
H3437 H 0.68692 0.27773 0.69568 0.0
C3438 C 0.6562 0.31305 0.70075 0.0
C3439 C 0.66357 0.28689 0.68345 0.0
C3440 C 0.65986 0.27228 0.6672 0.0
C3441 C 0.67098 0.31379 0.71437 0.0
C3442 C 0.68218 0.30091 0.71254 0.0
C3443 C 0.67835 0.28763 0.69707 0.0
C3444 C 0.6979 0.301 0.72664 0.0
C3445 C 0.67451 0.32817 0.73084 0.0
C3446 C 0.71476 0.31107 0.7248 0.0
C3447 C 0.72972 0.31058 0.73761 0.0
C3448 C 0.72814 0.30009 0.75266 0.0
C3449 C 0.71112 0.29028 0.75464 0.0
C3450 C 0.6962 0.29068 0.74173 0.0
H3451 H 0.66435 0.33699 0.73054 0.0
H3452 H 0.67454 0.3219 0.74414 0.0
H3453 H 0.68797 0.3365 0.73083 0.0
H3454 H 0.7164 0.31915 0.71329 0.0
H3455 H 0.74258 0.3183 0.73562 0.0
H3456 H 0.98097 0.32007 0.96682 0.0
H3457 H 0.98264 0.35159 0.97891 0.0
H3458 H 0.03971 0.36134 0.97659 0.0
H3459 H 0.03788 0.33017 0.96359 0.0
H3460 H 0.99688 0.37304 0.00816 0.0
H3461 H 0.02965 0.40148 0.94985 0.0
H3462 H 0.0214 0.37781 0.94923 0.0
H3463 H 0.04309 0.38785 0.9615 0.0
C3464 C 0.99389 0.32893 0.96889 0.0
C3465 C 0.00926 0.32246 0.96404 0.0
C3466 C 0.99485 0.34708 0.97583 0.0
C3467 C 0.01124 0.35937 0.97827 0.0
C3468 C 0.02672 0.35264 0.97421 0.0
H3469 H 0.04634 0.47314 0.02206 0.0
H3470 H 0.04393 0.44133 0.01118 0.0
C3471 C 0.02571 0.33461 0.96696 0.0
C3472 C 0.01215 0.37903 0.98517 0.0
H3473 H 0.02896 0.422 0.97673 0.0
C3474 C 1.0038 0.38367 0.00112 0.0
C3475 C 0.02106 0.39328 0.97616 0.0
C3476 C 0.02912 0.38987 0.95813 0.0
C3477 C 1.00447 0.40175 0.00841 0.0
C3478 C 0.01371 0.41591 0.99962 0.0
C3479 C 0.02199 0.41132 0.98368 0.0
C3480 C 0.01499 0.4355 0.00665 0.0
C3481 C 0.99559 0.40552 0.02581 0.0
C3482 C 0.99959 0.44328 0.00765 0.0
C3483 C 1.00094 0.46165 0.01381 0.0
C3484 C 0.01771 0.47292 0.01928 0.0
C3485 C 0.03312 0.46509 0.01814 0.0
C3486 C 0.03177 0.44676 0.01186 0.0
H3487 H 0.99306 0.39357 0.03354 0.0
H3488 H 1.00392 0.41677 0.03541 0.0
H3489 H 0.9825 0.40936 0.02171 0.0
H3490 H 0.98644 0.4352 0.00336 0.0
H3491 H 0.9888 0.46701 0.01415 0.0
H3492 H 0.01736 0.76821 0.15739 0.0
H3493 H 0.99094 0.76445 0.17429 0.0
H3494 H 0.97476 0.81018 0.15125 0.0
H3495 H 1.00063 0.8131 0.13323 0.0
H3496 H 0.98143 0.78376 0.20061 0.0
H3497 H 0.92816 0.77762 0.14109 0.0
H3498 H 0.95121 0.77752 0.13754 0.0
H3499 H 0.94378 0.79835 0.1433 0.0
C3500 C 0.00809 0.77738 0.15584 0.0
C3501 C 0.011 0.7909 0.14395 0.0
C3502 C 0.99295 0.77524 0.16552 0.0
C3503 C 0.9805 0.7868 0.1639 0.0
C3504 C 0.98368 0.80063 0.15231 0.0
H3505 H 0.90406 0.79165 0.24722 0.0
H3506 H 0.92688 0.79994 0.22611 0.0
C3507 C 0.99859 0.80244 0.14216 0.0
C3508 C 0.96474 0.78458 0.17494 0.0
H3509 H 0.91896 0.77947 0.17169 0.0
C3510 C 0.9678 0.78283 0.19419 0.0
C3511 C 0.94681 0.78325 0.1667 0.0
C3512 C 0.94225 0.78411 0.14599 0.0
C3513 C 0.95364 0.77961 0.20527 0.0
C3514 C 0.93583 0.7786 0.19713 0.0
C3515 C 0.93265 0.78046 0.17796 0.0
C3516 C 0.92041 0.7747 0.20826 0.0
C3517 C 0.9578 0.77671 0.22554 0.0
C3518 C 0.90879 0.75802 0.20486 0.0
C3519 C 0.89582 0.75328 0.21692 0.0
C3520 C 0.89406 0.76527 0.2324 0.0
C3521 C 0.90504 0.78229 0.23524 0.0
C3522 C 0.91812 0.78697 0.22327 0.0
H3523 H 0.97176 0.77456 0.22873 0.0
H3524 H 0.95604 0.78866 0.23474 0.0
H3525 H 0.94847 0.76495 0.22908 0.0
H3526 H 0.91033 0.74833 0.19339 0.0
H3527 H 0.88761 0.74 0.21459 0.0
H3528 H 0.5408 0.32115 0.17818 0.0
H3529 H 0.54485 0.34739 0.16059 0.0
H3530 H 0.50979 0.31706 0.11368 0.0
H3531 H 0.50581 0.29076 0.13106 0.0
H3532 H 0.55015 0.33861 0.10999 0.0
H3533 H 0.50134 0.37631 0.14062 0.0
H3534 H 0.51436 0.36414 0.15525 0.0
H3535 H 0.49726 0.35209 0.13762 0.0
C3536 C 0.53379 0.32015 0.1642 0.0
C3537 C 0.52296 0.3039 0.156 0.0
C3538 C 0.53613 0.33513 0.15419 0.0
C3539 C 0.52754 0.33416 0.13589 0.0
C3540 C 0.51652 0.31806 0.12778 0.0
H3541 H 0.52836 0.40158 0.04595 0.0
H3542 H 0.52061 0.37922 0.06769 0.0
C3543 C 0.51428 0.30306 0.13772 0.0
C3544 C 0.5307 0.34966 0.12484 0.0
H3545 H 0.51748 0.38932 0.11739 0.0
C3546 C 0.54306 0.34972 0.11164 0.0
C3547 C 0.5214 0.3641 0.12703 0.0
C3548 C 0.50779 0.36432 0.14085 0.0
C3549 C 0.54637 0.36388 0.10054 0.0
C3550 C 0.53703 0.37829 0.10264 0.0
C3551 C 0.52468 0.37828 0.11589 0.0
C3552 C 0.53979 0.39313 0.09068 0.0
C3553 C 0.55982 0.36342 0.08655 0.0
C3554 C 0.55281 0.40858 0.0966 0.0
C3555 C 0.55715 0.42141 0.08424 0.0
C3556 C 0.54854 0.41892 0.0658 0.0
C3557 C 0.53503 0.40383 0.06016 0.0
C3558 C 0.53063 0.39108 0.07253 0.0
H3559 H 0.56649 0.3516 0.08709 0.0
H3560 H 0.55302 0.36307 0.07215 0.0
H3561 H 0.57021 0.37579 0.08929 0.0
H3562 H 0.56013 0.41031 0.1105 0.0
H3563 H 0.5678 0.43281 0.08877 0.0
H3564 H 0.98169 0.27694 0.34171 0.0
H3565 H 0.95063 0.27563 0.32842 0.0
H3566 H 0.96437 0.32999 0.31532 0.0
H3567 H 0.99563 0.33078 0.32737 0.0
H3568 H 0.92544 0.29063 0.33698 0.0
H3569 H 0.93692 0.31155 0.26716 0.0
H3570 H 0.95475 0.30666 0.28293 0.0
H3571 H 0.94826 0.32836 0.28543 0.0
C3572 C 0.97815 0.28851 0.33568 0.0
C3573 C 0.99134 0.30386 0.33538 0.0
C3574 C 0.96025 0.28781 0.32811 0.0
C3575 C 0.95479 0.30256 0.32028 0.0
C3576 C 0.96798 0.31806 0.3204 0.0
H3577 H 0.84667 0.32371 0.283 0.0
H3578 H 0.87871 0.32672 0.29394 0.0
C3579 C 0.98598 0.31858 0.3275 0.0
C3580 C 0.9353 0.30186 0.3128 0.0
H3581 H 0.90753 0.31122 0.27594 0.0
C3582 C 0.92168 0.29505 0.32354 0.0
C3583 C 0.92989 0.30756 0.29521 0.0
C3584 C 0.94322 0.31376 0.28195 0.0
C3585 C 0.90327 0.29392 0.31743 0.0
C3586 C 0.89796 0.29984 0.30004 0.0
C3587 C 0.91146 0.30681 0.28934 0.0
C3588 C 0.87849 0.29821 0.2925 0.0
C3589 C 0.88956 0.28649 0.32977 0.0
C3590 C 0.86755 0.28127 0.28742 0.0
C3591 C 0.84935 0.2796 0.28061 0.0
C3592 C 0.84124 0.29475 0.27899 0.0
C3593 C 0.8523 0.31173 0.28378 0.0
C3594 C 0.87068 0.31345 0.29027 0.0
H3595 H 0.89562 0.28641 0.3444 0.0
H3596 H 0.87862 0.29438 0.32999 0.0
H3597 H 0.88353 0.27248 0.32405 0.0
H3598 H 0.87314 0.26925 0.28857 0.0
H3599 H 0.84163 0.26635 0.27633 0.0
H3600 H 0.02315 0.69413 0.66984 0.0
H3601 H 0.02306 0.66748 0.64778 0.0
H3602 H 1.00419 0.69456 0.60208 0.0
H3603 H 1.00496 0.72136 0.6239 0.0
H3604 H 0.9982 0.64478 0.62437 0.0
H3605 H 0.04666 0.67967 0.58145 0.0
H3606 H 0.04209 0.68997 0.60361 0.0
H3607 H 0.02718 0.68974 0.58259 0.0
C3608 C 0.01896 0.69438 0.65508 0.0
C3609 C 0.01426 0.70999 0.64863 0.0
C3610 C 0.01891 0.67911 0.64245 0.0
C3611 C 0.01408 0.67903 0.62306 0.0
C3612 C 0.0086 0.69436 0.61678 0.0
H3613 H 0.99309 0.59046 0.53148 0.0
H3614 H 0.99176 0.61714 0.55314 0.0
C3615 C 0.0089 0.70968 0.62934 0.0
C3616 C 0.01484 0.66303 0.60944 0.0
H3617 H 0.03211 0.6501 0.56913 0.0
C3618 C 1.00566 0.64601 0.61233 0.0
C3619 C 0.02472 0.66439 0.59371 0.0
C3620 C 0.03587 0.68189 0.59023 0.0
C3621 C 1.00581 0.63059 0.59988 0.0
C3622 C 0.01531 0.6321 0.58401 0.0
C3623 C 0.02464 0.64899 0.58116 0.0
C3624 C 0.01618 0.61613 0.57062 0.0
C3625 C 0.99595 0.61264 0.60373 0.0
C3626 C 0.03045 0.60685 0.57304 0.0
C3627 C 0.03119 0.59164 0.56074 0.0
C3628 C 0.01768 0.58535 0.54573 0.0
C3629 C 1.00365 0.59494 0.54298 0.0
C3630 C 1.00285 0.61013 0.55537 0.0
H3631 H 0.98938 0.61356 0.61681 0.0
H3632 H 0.9856 0.60697 0.59177 0.0
H3633 H 1.00544 0.60318 0.60496 0.0
H3634 H 0.04101 0.61134 0.58453 0.0
H3635 H 0.04248 0.58492 0.56281 0.0
H3636 H 0.57752 0.79129 0.80964 0.0
H3637 H 0.60463 0.78536 0.79607 0.0
H3638 H 0.63655 0.80731 0.84837 0.0
H3639 H 0.60962 0.81288 0.86199 0.0
H3640 H 0.6355 0.80554 0.7891 0.0
H3641 H 0.65347 0.7607 0.84069 0.0
H3642 H 0.63214 0.76791 0.83902 0.0
H3643 H 0.65163 0.78217 0.85201 0.0
C3644 C 0.59032 0.79485 0.81827 0.0
C3645 C 0.59119 0.80249 0.83704 0.0
C3646 C 0.60591 0.79144 0.81046 0.0
C3647 C 0.62289 0.79543 0.82119 0.0
C3648 C 0.62376 0.80351 0.83977 0.0
H3649 H 0.73489 0.79233 0.80676 0.0
H3650 H 0.70608 0.79642 0.81697 0.0
C3651 C 0.60824 0.80688 0.84757 0.0
C3652 C 0.63965 0.79135 0.8131 0.0
H3653 H 0.67634 0.77156 0.82197 0.0
C3654 C 0.6443 0.79795 0.79625 0.0
C3655 C 0.65134 0.78131 0.82211 0.0
C3656 C 0.64682 0.77245 0.83933 0.0
C3657 C 0.66037 0.79548 0.78875 0.0
C3658 C 0.67232 0.78594 0.79812 0.0
C3659 C 0.66748 0.77903 0.81473 0.0
C3660 C 0.69009 0.78345 0.79135 0.0
C3661 C 0.66472 0.80368 0.77112 0.0
C3662 C 0.69115 0.77462 0.77346 0.0
C3663 C 0.70783 0.77241 0.76744 0.0
C3664 C 0.72406 0.7788 0.77916 0.0
C3665 C 0.7229 0.7874 0.79712 0.0
C3666 C 0.70627 0.78966 0.80309 0.0
H3667 H 0.65647 0.81393 0.76801 0.0
H3668 H 0.67909 0.80998 0.77229 0.0
H3669 H 0.66198 0.79301 0.75907 0.0
H3670 H 0.67903 0.76926 0.76414 0.0
H3671 H 0.70796 0.76573 0.75354 0.0
H3672 H 0.42482 0.53157 0.69786 0.0
H3673 H 0.44023 0.53736 0.67005 0.0
H3674 H 0.48758 0.52244 0.69681 0.0
H3675 H 0.47239 0.51691 0.7248 0.0
H3676 H 0.48058 0.56191 0.67168 0.0
H3677 H 0.46817 0.49029 0.64132 0.0
H3678 H 0.45325 0.49903 0.65628 0.0
H3679 H 0.4747 0.49569 0.66622 0.0
C3680 C 0.4385 0.52948 0.6978 0.0
C3681 C 0.44738 0.52372 0.71349 0.0
C3682 C 0.4473 0.53289 0.68196 0.0
C3683 C 0.46502 0.53034 0.68143 0.0
C3684 C 0.47391 0.52453 0.69701 0.0
H3685 H 0.53768 0.52852 0.59727 0.0
H3686 H 0.52246 0.52702 0.62547 0.0
C3687 C 0.46521 0.52136 0.71296 0.0
C3688 C 0.47415 0.53333 0.66442 0.0
H3689 H 0.48602 0.51106 0.62557 0.0
C3690 C 0.48171 0.55085 0.66151 0.0
C3691 C 0.47562 0.51885 0.65128 0.0
C3692 C 0.46748 0.49985 0.65374 0.0
C3693 C 0.49102 0.5542 0.64587 0.0
C3694 C 0.4925 0.53967 0.63271 0.0
C3695 C 0.48482 0.52218 0.63563 0.0
C3696 C 0.50244 0.54212 0.6161 0.0
C3697 C 0.49965 0.57315 0.6438 0.0
C3698 C 0.49631 0.55123 0.60142 0.0
C3699 C 0.505 0.55209 0.58513 0.0
C3700 C 0.52 0.5439 0.5833 0.0
C3701 C 0.52626 0.53511 0.59823 0.0
C3702 C 0.51755 0.53418 0.61438 0.0
H3703 H 0.50029 0.58228 0.65691 0.0
H3704 H 0.51344 0.57358 0.63987 0.0
H3705 H 0.49175 0.57822 0.63243 0.0
H3706 H 0.48452 0.55724 0.60234 0.0
H3707 H 0.49983 0.5589 0.57387 0.0
H3708 H 0.74425 0.13744 0.98423 0.0
H3709 H 0.74372 0.15504 0.95745 0.0
H3710 H 0.7883 0.19391 0.986 0.0
H3711 H 0.78876 0.17662 0.01293 0.0
H3712 H 0.74517 0.19925 0.97091 0.0
H3713 H 0.7915 0.17572 0.92275 0.0
H3714 H 0.77832 0.16049 0.93605 0.0
H3715 H 0.79673 0.17676 0.94788 0.0
C3716 C 0.75408 0.1496 0.98462 0.0
C3717 C 0.76642 0.15588 1.00057 0.0
C3718 C 0.75385 0.15949 0.96935 0.0
C3719 C 0.76617 0.17547 0.96985 0.0
C3720 C 0.77891 0.18142 0.98545 0.0
H3721 H 0.75831 0.26864 0.91316 0.0
H3722 H 0.76855 0.24817 0.93434 0.0
C3723 C 0.779 0.17169 0.00081 0.0
C3724 C 0.76389 0.18746 0.95559 0.0
H3725 H 0.77778 0.19994 0.91448 0.0
C3726 C 0.75227 0.19947 0.95856 0.0
C3727 C 0.77323 0.18743 0.93965 0.0
C3728 C 0.78567 0.17442 0.93622 0.0
C3729 C 0.74964 0.21167 0.94582 0.0
C3730 C 0.75921 0.21194 0.92997 0.0
C3731 C 0.77075 0.19977 0.92687 0.0
C3732 C 0.75628 0.22415 0.91601 0.0
C3733 C 0.73641 0.22391 0.9492 0.0
C3734 C 0.74659 0.21723 0.89862 0.0
C3735 C 0.74073 0.2288 0.88663 0.0
C3736 C 0.74449 0.24737 0.892 0.0
C3737 C 0.75494 0.25432 0.90903 0.0
C3738 C 0.76093 0.24273 0.92095 0.0
H3739 H 0.7276 0.21947 0.95994 0.0
H3740 H 0.74381 0.23764 0.95426 0.0
H3741 H 0.72785 0.22458 0.93601 0.0
H3742 H 0.74285 0.20289 0.89473 0.0
H3743 H 0.73277 0.22324 0.87346 0.0
H3744 H 0.17565 0.54753 0.18398 0.0
H3745 H 0.15768 0.54304 0.15315 0.0
H3746 H 0.11032 0.52383 0.17888 0.0
H3747 H 0.12794 0.52824 0.20953 0.0
H3748 H 0.12396 0.50342 0.14028 0.0
H3749 H 0.11077 0.57333 0.14552 0.0
H3750 H 0.13191 0.56831 0.15504 0.0
H3751 H 0.11222 0.56216 0.1664 0.0
C3752 C 0.16142 0.54231 0.18298 0.0
C3753 C 0.1531 0.53823 0.199 0.0
C3754 C 0.15129 0.5397 0.16548 0.0
C3755 C 0.1329 0.53302 0.16405 0.0
C3756 C 0.12461 0.52886 0.17995 0.0
H3757 H 0.03655 0.53233 0.10171 0.0
H3758 H 0.06238 0.53213 0.12419 0.0
C3759 C 0.13465 0.53146 0.19737 0.0
C3760 C 0.12178 0.53108 0.14619 0.0
H3761 H 0.09279 0.55229 0.12242 0.0
C3762 C 0.11728 0.51408 0.13597 0.0
C3763 C 0.11322 0.54513 0.14115 0.0
C3764 C 0.11723 0.56333 0.15251 0.0
C3765 C 0.10328 0.51035 0.12134 0.0
C3766 C 0.09417 0.52428 0.11673 0.0
C3767 C 0.09974 0.54163 0.12615 0.0
C3768 C 0.07774 0.52115 0.10361 0.0
C3769 C 0.0977 0.49137 0.11194 0.0
C3770 C 0.07739 0.51388 0.08494 0.0
C3771 C 0.06219 0.51316 0.07235 0.0
C3772 C 0.04795 0.52089 0.07799 0.0
C3773 C 0.04782 0.52702 0.09689 0.0
C3774 C 0.06254 0.52694 0.10968 0.0
H3775 H 0.10297 0.48161 0.12045 0.0
H3776 H 0.08289 0.48746 0.10939 0.0
H3777 H 0.10316 0.49035 0.09822 0.0
H3778 H 0.08893 0.50926 0.07997 0.0
H3779 H 0.06165 0.50677 0.05829 0.0
H3780 H 0.81323 0.84583 0.49274 0.0
H3781 H 0.81367 0.83028 0.46141 0.0
H3782 H 0.77351 0.85836 0.43884 0.0
H3783 H 0.77329 0.87418 0.46993 0.0
H3784 H 0.78718 0.80813 0.43654 0.0
H3785 H 0.81274 0.86996 0.40542 0.0
H3786 H 0.81258 0.86953 0.4304 0.0
H3787 H 0.79244 0.87085 0.41582 0.0
C3788 C 0.80446 0.84864 0.4811 0.0
C3789 C 0.79333 0.86134 0.48378 0.0
C3790 C 0.80473 0.83974 0.46321 0.0
C3791 C 0.7939 0.84341 0.44769 0.0
C3792 C 0.78232 0.85563 0.45049 0.0
H3793 H 0.77427 0.81354 0.3291 0.0
H3794 H 0.77516 0.82504 0.36174 0.0
C3795 C 0.78212 0.86459 0.46831 0.0
C3796 C 0.79479 0.83462 0.42854 0.0
H3797 H 0.80258 0.84357 0.38421 0.0
C3798 C 0.79068 0.81583 0.42509 0.0
C3799 C 0.79941 0.84469 0.41363 0.0
C3800 C 0.80471 0.86486 0.4165 0.0
C3801 C 0.79037 0.80689 0.407 0.0
C3802 C 0.7947 0.81701 0.39202 0.0
C3803 C 0.79922 0.83577 0.39563 0.0
C3804 C 0.79361 0.80873 0.37224 0.0
C3805 C 0.78473 0.78678 0.40399 0.0
C3806 C 0.80355 0.79548 0.36705 0.0
C3807 C 0.80261 0.78839 0.34817 0.0
C3808 C 0.79209 0.79476 0.33408 0.0
C3809 C 0.78236 0.80811 0.33944 0.0
C3810 C 0.78297 0.81486 0.3582 0.0
H3811 H 0.77753 0.7816 0.41562 0.0
H3812 H 0.77592 0.78243 0.39057 0.0
H3813 H 0.79681 0.78057 0.4034 0.0
H3814 H 0.8122 0.79078 0.37752 0.0
H3815 H 0.81017 0.77803 0.34467 0.0
H3816 H 0.47294 0.50951 0.80503 0.0
H3817 H 0.48877 0.50932 0.83624 0.0
H3818 H 0.44762 0.53217 0.86153 0.0
H3819 H 0.43148 0.53188 0.83043 0.0
H3820 H 0.50315 0.53541 0.86429 0.0
H3821 H 0.44852 0.48916 0.88948 0.0
H3822 H 0.4484 0.49314 0.86519 0.0
H3823 H 0.44144 0.50883 0.88198 0.0
C3824 C 0.46726 0.51448 0.81726 0.0
C3825 C 0.45085 0.52053 0.81527 0.0
C3826 C 0.47633 0.51438 0.83509 0.0
C3827 C 0.46922 0.52034 0.85132 0.0
C3828 C 0.45314 0.52699 0.8493 0.0
H3829 H 0.4993 0.53578 0.97025 0.0
H3830 H 0.48666 0.53507 0.93785 0.0
C3831 C 0.44398 0.52695 0.83149 0.0
C3832 C 0.47856 0.51956 0.87031 0.0
H3833 H 0.47241 0.50372 0.91249 0.0
C3834 C 0.49648 0.52833 0.87477 0.0
C3835 C 0.46992 0.51025 0.884 0.0
C3836 C 0.45107 0.49966 0.87989 0.0
C3837 C 0.50575 0.52853 0.89269 0.0
C3838 C 0.49695 0.51957 0.90646 0.0
C3839 C 0.47915 0.51058 0.90192 0.0
C3840 C 0.50547 0.52026 0.92606 0.0
C3841 C 0.52469 0.53883 0.897 0.0
C3842 C 0.52036 0.51214 0.93031 0.0
C3843 C 0.52772 0.51248 0.94903 0.0
C3844 C 0.52023 0.52088 0.96379 0.0
C3845 C 0.50542 0.52909 0.95934 0.0
C3846 C 0.49812 0.52872 0.94076 0.0
H3847 H 0.52849 0.54754 0.88597 0.0
H3848 H 0.52638 0.54728 0.91071 0.0
H3849 H 0.53406 0.52925 0.89797 0.0
H3850 H 0.52612 0.50532 0.91918 0.0
H3851 H 0.53913 0.50607 0.95191 0.0
H3852 H 0.75575 0.144 0.10863 0.0
H3853 H 0.75933 0.1645 0.13746 0.0
H3854 H 0.80688 0.19521 0.12027 0.0
H3855 H 0.80283 0.17519 0.09091 0.0
H3856 H 0.78547 0.17514 0.1664 0.0
H3857 H 0.77499 0.23191 0.12607 0.0
H3858 H 0.77153 0.20912 0.11516 0.0
H3859 H 0.79383 0.22208 0.12049 0.0
C3860 C 0.76705 0.15503 0.11113 0.0
C3861 C 0.77891 0.15829 0.09763 0.0
C3862 C 0.7691 0.16665 0.12755 0.0
C3863 C 0.78316 0.18145 0.13069 0.0
C3864 C 0.79571 0.18406 0.11776 0.0
H3865 H 0.80961 0.25541 0.23126 0.0
H3866 H 0.8083 0.23004 0.20737 0.0
C3867 C 0.79343 0.17266 0.10112 0.0
C3868 C 0.78384 0.19473 0.14691 0.0
H3869 H 0.78112 0.2383 0.15892 0.0
C3870 C 0.78453 0.18896 0.16484 0.0
C3871 C 0.7823 0.21262 0.14459 0.0
C3872 C 0.78045 0.21929 0.12554 0.0
C3873 C 0.78364 0.20072 0.18067 0.0
C3874 C 0.78245 0.21863 0.17833 0.0
C3875 C 0.78195 0.22444 0.16047 0.0
C3876 C 0.78202 0.23185 0.19423 0.0
C3877 C 0.78355 0.19383 0.19963 0.0
C3878 C 0.76772 0.24118 0.19444 0.0
C3879 C 0.76854 0.25566 0.20792 0.0
C3880 C 0.78343 0.26048 0.22148 0.0
C3881 C 0.7976 0.25106 0.22143 0.0
C3882 C 0.79688 0.23671 0.20785 0.0
H3883 H 0.77976 0.17899 0.19832 0.0
H3884 H 0.79717 0.19769 0.2074 0.0
H3885 H 0.77413 0.19973 0.20807 0.0
H3886 H 0.7563 0.23767 0.18377 0.0
H3887 H 0.75779 0.26328 0.20759 0.0
H3888 H 0.17543 0.52974 0.31526 0.0
H3889 H 0.15853 0.52932 0.34273 0.0
H3890 H 0.12219 0.55906 0.31564 0.0
H3891 H 0.13858 0.5592 0.28828 0.0
H3892 H 0.14846 0.55897 0.36569 0.0
H3893 H 0.09006 0.51225 0.32647 0.0
H3894 H 0.11215 0.5151 0.31879 0.0
H3895 H 0.09783 0.531 0.31423 0.0
C3896 C 0.16385 0.53619 0.31532 0.0
C3897 C 0.15789 0.54404 0.29962 0.0
C3898 C 0.15429 0.53594 0.33089 0.0
C3899 C 0.13888 0.54363 0.33073 0.0
C3900 C 0.13373 0.55255 0.3156 0.0
H3901 H 0.0644 0.58329 0.38723 0.0
H3902 H 0.08142 0.56878 0.36518 0.0
C3903 C 0.14308 0.55261 0.30005 0.0
C3904 C 0.12774 0.54238 0.34613 0.0
H3905 H 0.08415 0.53047 0.35377 0.0
C3906 C 0.13454 0.5523 0.36342 0.0
C3907 C 0.10965 0.53361 0.34286 0.0
C3908 C 0.10203 0.52224 0.32462 0.0
C3909 C 0.12319 0.55498 0.37711 0.0
C3910 C 0.1048 0.54726 0.3733 0.0
C3911 C 0.0983 0.53628 0.35653 0.0
C3912 C 0.09191 0.55279 0.38534 0.0
C3913 C 0.13059 0.56717 0.39492 0.0
C3914 C 0.09184 0.54799 0.40358 0.0
C3915 C 0.08238 0.5564 0.41619 0.0
C3916 C 0.07287 0.56961 0.41059 0.0
C3917 C 0.07199 0.57344 0.39192 0.0
C3918 C 0.08146 0.56503 0.37932 0.0
H3919 H 0.14476 0.57367 0.39471 0.0
H3920 H 0.12246 0.57779 0.39713 0.0
H3921 H 0.12986 0.55929 0.40709 0.0
H3922 H 0.09986 0.5385 0.4083 0.0
H3923 H 0.08323 0.55321 0.43055 0.0
H3924 H 0.79118 0.8387 0.569 0.0
H3925 H 0.78601 0.82284 0.59663 0.0
H3926 H 0.78195 0.87242 0.62858 0.0
H3927 H 0.78725 0.8884 0.60113 0.0
H3928 H 0.8078 0.83267 0.63452 0.0
H3929 H 0.73535 0.83498 0.63497 0.0
H3930 H 0.74658 0.83724 0.61412 0.0
H3931 H 0.75002 0.85558 0.63241 0.0
C3932 C 0.78918 0.84622 0.58191 0.0
C3933 C 0.78964 0.8648 0.58289 0.0
C3934 C 0.78621 0.83714 0.59766 0.0
C3935 C 0.7834 0.84644 0.61456 0.0
C3936 C 0.78387 0.86498 0.61559 0.0
H3937 H 0.76221 0.81631 0.72492 0.0
H3938 H 0.76478 0.83118 0.69637 0.0
C3939 C 0.787 0.87409 0.59992 0.0
C3940 C 0.78058 0.83688 0.63133 0.0
H3941 H 0.7494 0.82335 0.66053 0.0
C3942 C 0.79503 0.83053 0.64019 0.0
C3943 C 0.76396 0.83433 0.63876 0.0
C3944 C 0.748 0.84076 0.62957 0.0
C3945 C 0.79339 0.82193 0.6565 0.0
C3946 C 0.77665 0.81905 0.6638 0.0
C3947 C 0.7622 0.82546 0.65491 0.0
C3948 C 0.77398 0.80955 0.68071 0.0
C3949 C 0.80982 0.81652 0.66604 0.0
C3950 C 0.77779 0.79223 0.68128 0.0
C3951 C 0.7766 0.78383 0.69764 0.0
C3952 C 0.77111 0.79236 0.7137 0.0
C3953 C 0.76652 0.80938 0.71284 0.0
C3954 C 0.76795 0.81788 0.69651 0.0
H3955 H 0.82234 0.82445 0.66224 0.0
H3956 H 0.81009 0.81828 0.68155 0.0
H3957 H 0.80974 0.8022 0.66145 0.0
H3958 H 0.78199 0.7853 0.66913 0.0
H3959 H 0.78034 0.77077 0.69777 0.0
H3960 H 0.73584 0.42812 0.5219 0.0
H3961 H 0.71236 0.44556 0.52681 0.0
H3962 H 0.72658 0.47503 0.48051 0.0
H3963 H 0.75044 0.45774 0.47571 0.0
H3964 H 0.72695 0.49507 0.51832 0.0
H3965 H 0.66376 0.44658 0.49422 0.0
H3966 H 0.68129 0.43779 0.50666 0.0
H3967 H 0.6845 0.44554 0.48426 0.0
C3968 C 0.73359 0.43796 0.51245 0.0
C3969 C 0.74469 0.44165 0.49839 0.0
C3970 C 0.72024 0.44785 0.51524 0.0
C3971 C 0.71769 0.46123 0.50376 0.0
C3972 C 0.72838 0.46456 0.4893 0.0
H3973 H 0.6509 0.53836 0.53775 0.0
H3974 H 0.66839 0.52211 0.5177 0.0
C3975 C 0.74191 0.45479 0.48663 0.0
C3976 C 0.70529 0.47303 0.5086 0.0
H3977 H 0.66176 0.47179 0.516 0.0
C3978 C 0.71261 0.49028 0.51735 0.0
C3979 C 0.68674 0.46645 0.50734 0.0
C3980 C 0.67851 0.44812 0.49749 0.0
C3981 C 0.70184 0.50078 0.52614 0.0
C3982 C 0.68346 0.49376 0.52587 0.0
C3983 C 0.67594 0.47696 0.51612 0.0
C3984 C 0.67232 0.503 0.5373 0.0
C3985 C 0.71029 0.51873 0.53678 0.0
C3986 C 0.66899 0.49746 0.55482 0.0
C3987 C 0.65917 0.50672 0.56631 0.0
C3988 C 0.65253 0.5215 0.56027 0.0
C3989 C 0.65589 0.52695 0.54264 0.0
C3990 C 0.66576 0.51773 0.5312 0.0
H3991 H 0.72496 0.52197 0.53611 0.0
H3992 H 0.70401 0.52941 0.53093 0.0
H3993 H 0.70782 0.51885 0.55174 0.0
H3994 H 0.67411 0.48607 0.55961 0.0
H3995 H 0.65649 0.50215 0.57972 0.0
H3996 H 0.21367 0.15648 0.53567 0.0
H3997 H 0.18577 0.13508 0.53546 0.0
H3998 H 0.19008 0.1141 0.4786 0.0
H3999 H 0.21863 0.13473 0.47928 0.0
H4000 H 0.1548 0.13029 0.51605 0.0
H4001 H 0.18254 0.06847 0.50101 0.0
H4002 H 0.19669 0.09025 0.50633 0.0
H4003 H 0.18521 0.08314 0.48308 0.0
C4004 C 0.20862 0.14729 0.52314 0.0
C4005 C 0.2183 0.14712 0.50755 0.0
C4006 C 0.1927 0.13505 0.52302 0.0
C4007 C 0.186 0.12263 0.50718 0.0
C4008 C 0.19528 0.12304 0.49125 0.0
H4009 H 0.07816 0.0611 0.48697 0.0
H4010 H 0.10691 0.08029 0.48486 0.0
C4011 C 0.21148 0.13496 0.49156 0.0
C4012 C 0.16919 0.1095 0.50743 0.0
H4013 H 0.15093 0.0648 0.50079 0.0
C4014 C 0.15403 0.11598 0.51277 0.0
C4015 C 0.16814 0.09076 0.50326 0.0
C4016 C 0.18406 0.08272 0.49828 0.0
C4017 C 0.13794 0.10431 0.51401 0.0
C4018 C 0.13687 0.08571 0.50952 0.0
C4019 C 0.1519 0.07913 0.50418 0.0
C4020 C 0.12007 0.07298 0.51014 0.0
C4021 C 0.12221 0.11185 0.52042 0.0
C4022 C 0.1182 0.06219 0.52482 0.0
C4023 C 0.10178 0.05111 0.52604 0.0
C4024 C 0.08707 0.0508 0.51263 0.0
C4025 C 0.08922 0.06123 0.49764 0.0
C4026 C 0.1056 0.07217 0.49638 0.0
H4027 H 0.12591 0.12634 0.52564 0.0
H4028 H 0.11145 0.11011 0.50852 0.0
H4029 H 0.11667 0.10446 0.53175 0.0
H4030 H 0.12928 0.06272 0.53557 0.0
H4031 H 0.10042 0.04328 0.53778 0.0
H4032 H 0.18067 0.01356 0.76157 0.0
H4033 H 0.19809 0.98954 0.75928 0.0
H4034 H 0.16628 0.96154 0.79746 0.0
H4035 H 0.14828 0.98517 0.79911 0.0
H4036 H 0.21896 0.97738 0.78483 0.0
H4037 H 0.16253 0.92246 0.75556 0.0
H4038 H 0.16023 0.94567 0.75761 0.0
H4039 H 0.15937 0.93345 0.77779 0.0
C4040 C 0.17731 1.0022 0.76935 0.0
C4041 C 0.16301 1.00111 0.78036 0.0
C4042 C 0.18731 0.98852 0.7681 0.0
C4043 C 0.18334 0.97358 0.77797 0.0
C4044 C 0.16929 0.97267 0.78931 0.0
H4045 H 0.23115 0.87693 0.7734 0.0
H4046 H 0.21831 0.90219 0.78655 0.0
C4047 C 0.15907 0.98621 0.79031 0.0
C4048 C 0.19398 0.95906 0.77628 0.0
H4049 H 0.19067 0.91439 0.76251 0.0
C4050 C 0.21275 0.96359 0.78002 0.0
C4051 C 0.18589 0.94104 0.77005 0.0
C4052 C 0.16593 0.93535 0.76485 0.0
C4053 C 0.22362 0.95069 0.77732 0.0
C4054 C 0.21551 0.93283 0.77077 0.0
C4055 C 0.19679 0.92813 0.76768 0.0
C4056 C 0.22605 0.91909 0.76512 0.0
C4057 C 0.24369 0.95626 0.7812 0.0
C4058 C 0.23486 0.92043 0.74895 0.0
C4059 C 0.2419 0.90599 0.74133 0.0
C4060 C 0.2404 0.89012 0.74992 0.0
C4061 C 0.23254 0.88914 0.76669 0.0
C4062 C 0.22523 0.9035 0.77417 0.0
H4063 H 0.2476 0.96908 0.79056 0.0
H4064 H 0.24974 0.94576 0.78771 0.0
H4065 H 0.24934 0.95816 0.76774 0.0
H4066 H 0.23539 0.93225 0.74163 0.0
H4067 H 0.24788 0.90692 0.72833 0.0
H4068 H 0.33416 0.95905 0.97522 0.0
H4069 H 0.36395 0.977 0.97496 0.0
H4070 H 0.38402 0.95162 0.0216 0.0
H4071 H 0.35445 0.9332 0.02147 0.0
H4072 H 0.37906 1.00054 0.00536 0.0
H4073 H 0.42362 0.95257 0.98805 0.0
H4074 H 0.39952 0.94661 0.98356 0.0
H4075 H 0.41068 0.94643 0.0067 0.0
C4076 C 0.34505 0.95715 0.98519 0.0
C4077 C 0.34219 0.94507 0.99856 0.0
C4078 C 0.36197 0.96726 0.98494 0.0
C4079 C 0.37602 0.96545 0.99817 0.0
C4080 C 0.37334 0.95284 0.01103 0.0
H4081 H 0.48201 0.0165 0.03447 0.0
H4082 H 0.45093 1.00303 0.03522 0.0
C4083 C 0.35649 0.9425 0.01107 0.0
C4084 C 0.39276 0.97835 1.00025 0.0
H4085 H 0.43782 0.98159 0.00282 0.0
C4086 C 0.39196 0.99651 0.00464 0.0
C4087 C 0.40936 0.97283 0.99932 0.0
C4088 C 0.41085 0.95356 0.99397 0.0
C4089 C 0.40758 0.00938 0.0088 0.0
C4090 C 0.42417 1.00377 0.00836 0.0
C4091 C 0.42493 0.98568 0.00348 0.0
C4092 C 0.44117 0.01629 0.01213 0.0
C4093 C 0.40622 0.0287 0.01402 0.0
C4094 C 0.44562 0.02899 0.99974 0.0
C4095 C 0.46338 0.03716 0.99988 0.0
C4096 C 0.47678 0.03216 0.01197 0.0
C4097 C 0.472 0.02055 0.02524 0.0
C4098 C 0.45424 0.01288 0.02559 0.0
H4099 H 0.39297 0.02995 0.01865 0.0
H4100 H 0.41689 0.03522 0.02536 0.0
H4101 H 0.40787 0.03606 0.00155 0.0
H4102 H 0.43569 0.03147 0.989 0.0
H4103 H 0.46668 0.04615 0.98945 0.0
H4104 H 0.85368 0.55051 0.76787 0.0
H4105 H 0.83627 0.57412 0.76391 0.0
H4106 H 0.86336 0.60337 0.81605 0.0
H4107 H 0.8816 0.58007 0.81949 0.0
H4108 H 0.81317 0.58581 0.78639 0.0
H4109 H 0.87043 0.64038 0.77969 0.0
H4110 H 0.87277 0.61722 0.77881 0.0
H4111 H 0.8717 0.62985 0.8009 0.0
C4112 C 0.85591 0.56203 0.77842 0.0
C4113 C 0.86882 0.5637 0.79394 0.0
C4114 C 0.84597 0.5754 0.77621 0.0
C4115 C 0.84861 0.59038 0.78971 0.0
C4116 C 0.8614 0.59198 0.80539 0.0
H4117 H 0.80145 0.68272 0.76817 0.0
H4118 H 0.81125 0.66049 0.78695 0.0
C4119 C 0.87172 0.57876 0.80735 0.0
C4120 C 0.83805 0.60434 0.78678 0.0
H4121 H 0.84162 0.64672 0.77477 0.0
C4122 C 0.81932 0.59926 0.78416 0.0
C4123 C 0.84628 0.62178 0.78392 0.0
C4124 C 0.86639 0.62767 0.78582 0.0
C4125 C 0.80857 0.6109 0.77754 0.0
C4126 C 0.81688 0.62796 0.77382 0.0
C4127 C 0.83546 0.63352 0.77777 0.0
C4128 C 0.80711 0.63959 0.76366 0.0
C4129 C 0.78857 0.60465 0.77376 0.0
C4130 C 0.80148 0.63492 0.74444 0.0
C4131 C 0.79602 0.64761 0.73362 0.0
C4132 C 0.79615 0.66499 0.74202 0.0
C4133 C 0.80112 0.66933 0.76143 0.0
C4134 C 0.80659 0.65669 0.77219 0.0
H4135 H 0.78394 0.59324 0.78168 0.0
H4136 H 0.7814 0.61574 0.77753 0.0
H4137 H 0.78492 0.60013 0.75856 0.0
H4138 H 0.80222 0.6218 0.73767 0.0
H4139 H 0.79204 0.644 0.71871 0.0
H4140 H 0.83105 0.67486 0.03541 0.0
H4141 H 0.85538 0.65779 0.03953 0.0
H4142 H 0.82589 0.61525 0.99884 0.0
H4143 H 0.80145 0.63205 0.99479 0.0
H4144 H 0.84258 0.61449 0.04652 0.0
H4145 H 0.88489 0.63294 0.98987 0.0
H4146 H 0.87305 0.64879 0.00114 0.0
H4147 H 0.86078 0.63003 0.98563 0.0
C4148 C 0.82991 0.662 0.02714 0.0
C4149 C 0.81439 0.65471 0.01486 0.0
C4150 C 0.84377 0.65233 0.02948 0.0
C4151 C 0.84237 0.63542 0.01935 0.0
C4152 C 0.82718 0.62837 0.00663 0.0
H4153 H 0.90721 0.55271 0.02225 0.0
H4154 H 0.88743 0.57315 0.01216 0.0
C4155 C 0.81324 0.63793 0.00443 0.0
C4156 C 0.85585 0.6243 0.02352 0.0
H4157 H 0.89391 0.61214 0.00947 0.0
C4158 C 0.85386 0.614 0.03851 0.0
C4159 C 0.87026 0.6236 0.01276 0.0
C4160 C 0.87254 0.6344 0.99641 0.0
C4161 C 0.86608 0.60295 0.04315 0.0
C4162 C 0.88082 0.60256 0.03273 0.0
C4163 C 0.88267 0.61267 0.01751 0.0
C4164 C 0.8943 0.59157 0.03763 0.0
C4165 C 0.86298 0.59156 0.05898 0.0
C4166 C 0.90491 0.59548 0.05505 0.0
C4167 C 0.91586 0.58373 0.0609 0.0
C4168 C 0.91653 0.56812 0.04925 0.0
C4169 C 0.9067 0.56469 0.03141 0.0
C4170 C 0.89555 0.57634 0.02564 0.0
H4171 H 0.84909 0.59045 0.06278 0.0
H4172 H 0.86559 0.57787 0.05513 0.0
H4173 H 0.87234 0.59769 0.07158 0.0
H4174 H 0.90427 0.60735 0.06432 0.0
H4175 H 0.92364 0.58669 0.07458 0.0
H4176 H 0.18811 0.08644 0.81236 0.0
H4177 H 0.20848 0.11527 0.8141 0.0
H4178 H 0.17096 0.1334 0.77491 0.0
H4179 H 0.15014 0.10501 0.77409 0.0
H4180 H 0.22562 0.13022 0.78907 0.0
H4181 H 0.18119 0.17575 0.8129 0.0
H4182 H 0.17529 0.15179 0.81259 0.0
H4183 H 0.17145 0.16222 0.7915 0.0
C4184 C 0.18412 0.09673 0.80438 0.0
C4185 C 0.16749 0.09363 0.79327 0.0
C4186 C 0.19578 0.11317 0.80532 0.0
C4187 C 0.19116 0.12672 0.79492 0.0
C4188 C 0.17461 0.12348 0.7836 0.0
H4189 H 0.26741 0.21349 0.76272 0.0
H4190 H 0.24849 0.18481 0.7655 0.0
C4191 C 0.16275 0.1072 0.78304 0.0
C4192 C 0.20401 0.14386 0.79528 0.0
H4193 H 0.20753 0.18934 0.80045 0.0
C4194 C 0.2217 0.14315 0.79177 0.0
C4195 C 0.19905 0.16078 0.79907 0.0
C4196 C 0.18077 0.16269 0.80443 0.0
C4197 C 0.23442 0.15881 0.79163 0.0
C4198 C 0.22916 0.1757 0.79437 0.0
C4199 C 0.21157 0.17642 0.79819 0.0
C4200 C 0.24151 0.19281 0.79311 0.0
C4201 C 0.25343 0.15701 0.78889 0.0
C4202 C 0.24357 0.20713 0.80744 0.0
C4203 C 0.25395 0.22374 0.8056 0.0
C4204 C 0.26272 0.22623 0.78954 0.0
C4205 C 0.26108 0.21181 0.77543 0.0
C4206 C 0.25033 0.19536 0.77706 0.0
H4207 H 0.25658 0.14428 0.79347 0.0
H4208 H 0.25512 0.15679 0.77374 0.0
H4209 H 0.26325 0.16834 0.79679 0.0
H4210 H 0.23688 0.20553 0.81994 0.0
H4211 H 0.25501 0.23468 0.81664 0.0
H4212 H 0.34573 0.98137 0.31512 0.0
H4213 H 0.32734 0.95142 0.313 0.0
H4214 H 0.36681 0.92927 0.28388 0.0
H4215 H 0.38532 0.95902 0.286 0.0
H4216 H 0.31603 0.93126 0.27504 0.0
H4217 H 0.35319 0.89587 0.32535 0.0
H4218 H 0.35572 0.92001 0.32735 0.0
H4219 H 0.36647 0.90847 0.31013 0.0
C4220 C 0.35055 0.97005 0.30849 0.0
C4221 C 0.36671 0.97237 0.30045 0.0
C4222 C 0.34012 0.95308 0.30736 0.0
C4223 C 0.3459 0.93846 0.29831 0.0
C4224 C 0.3624 0.94058 0.29107 0.0
H4225 H 0.30968 0.82822 0.28097 0.0
H4226 H 0.3238 0.85729 0.27364 0.0
C4227 C 0.37284 0.9575 0.29221 0.0
C4228 C 0.33397 0.92121 0.29461 0.0
H4229 H 0.33009 0.87822 0.30405 0.0
C4230 C 0.31894 0.91955 0.28132 0.0
C4231 C 0.33815 0.90629 0.3029 0.0
C4232 C 0.35418 0.90769 0.31734 0.0
C4233 C 0.30809 0.90287 0.27552 0.0
C4234 C 0.31235 0.88783 0.28368 0.0
C4235 C 0.32714 0.88975 0.29744 0.0
C4236 C 0.30129 0.86998 0.27939 0.0
C4237 C 0.29252 0.90153 0.26055 0.0
C4238 C 0.28343 0.86725 0.28327 0.0
C4239 C 0.27486 0.85017 0.28578 0.0
C4240 C 0.28434 0.836 0.28499 0.0
C4241 C 0.30176 0.83861 0.28016 0.0
C4242 C 0.30992 0.85533 0.27642 0.0
H4243 H 0.29498 0.91233 0.25128 0.0
H4244 H 0.2898 0.88837 0.25177 0.0
H4245 H 0.28036 0.90315 0.26736 0.0
H4246 H 0.27671 0.87843 0.28617 0.0
H4247 H 0.26144 0.84835 0.28994 0.0
H4248 H 0.5468 0.3355 0.56281 0.0
H4249 H 0.54535 0.36539 0.55308 0.0
H4250 H 0.55975 0.38881 0.61048 0.0
H4251 H 0.56146 0.3592 0.62013 0.0
H4252 H 0.52482 0.3905 0.5615 0.0
H4253 H 0.59504 0.42189 0.58639 0.0
H4254 H 0.58728 0.39803 0.58499 0.0
H4255 H 0.58321 0.41266 0.6046 0.0
C4256 C 0.5498 0.34701 0.57337 0.0
C4257 C 0.55442 0.34465 0.59233 0.0
C4258 C 0.54891 0.36425 0.56778 0.0
C4259 C 0.55276 0.37985 0.58086 0.0
C4260 C 0.55717 0.3774 0.5998 0.0
H4261 H 0.5579 0.4967 0.57729 0.0
H4262 H 0.55879 0.46649 0.5858 0.0
C4263 C 0.55804 0.36024 0.60539 0.0
C4264 C 0.55182 0.39847 0.57489 0.0
H4265 H 0.57564 0.4415 0.5773 0.0
C4266 C 0.53603 0.40158 0.56489 0.0
C4267 C 0.56624 0.41334 0.57925 0.0
C4268 C 0.58396 0.41133 0.58924 0.0
C4269 C 0.53408 0.41878 0.55971 0.0
C4270 C 0.54856 0.43366 0.56395 0.0
C4271 C 0.56438 0.43048 0.57388 0.0
C4272 C 0.54764 0.45251 0.55851 0.0
C4273 C 0.5161 0.42084 0.55038 0.0
C4274 C 0.5413 0.45547 0.54017 0.0
C4275 C 0.5406 0.47293 0.5353 0.0
C4276 C 0.54653 0.48831 0.54843 0.0
C4277 C 0.55319 0.48541 0.56665 0.0
C4278 C 0.55371 0.46793 0.57157 0.0
H4279 H 0.50515 0.41052 0.55393 0.0
H4280 H 0.51302 0.43426 0.55456 0.0
H4281 H 0.51615 0.41904 0.53492 0.0
H4282 H 0.53708 0.44427 0.52937 0.0
H4283 H 0.53559 0.47437 0.52105 0.0
H4284 H 0.46541 0.77503 0.37736 0.0
H4285 H 0.4372 0.77886 0.36046 0.0
H4286 H 0.40962 0.76466 0.40792 0.0
H4287 H 0.43807 0.76167 0.4252 0.0
H4288 H 0.40744 0.75897 0.34728 0.0
H4289 H 0.38974 0.80797 0.40051 0.0
H4290 H 0.41119 0.80107 0.40247 0.0
H4291 H 0.39193 0.78744 0.4099 0.0
C4292 C 0.45336 0.77273 0.38427 0.0
C4293 C 0.4542 0.76811 0.40278 0.0
C4294 C 0.43709 0.77495 0.37452 0.0
C4295 C 0.42098 0.77254 0.38285 0.0
C4296 C 0.42172 0.76732 0.40117 0.0
H4297 H 0.30836 0.77213 0.33936 0.0
H4298 H 0.3361 0.76822 0.35741 0.0
C4299 C 0.43807 0.76536 0.41105 0.0
C4300 C 0.40357 0.77516 0.3722 0.0
H4301 H 0.36694 0.79555 0.3755 0.0
C4302 C 0.39872 0.76708 0.35354 0.0
C4303 C 0.39189 0.78582 0.37999 0.0
C4304 C 0.39653 0.79622 0.39923 0.0
C4305 C 0.38276 0.76906 0.3428 0.0
C4306 C 0.371 0.77941 0.35073 0.0
C4307 C 0.37574 0.78747 0.36934 0.0
C4308 C 0.35392 0.78219 0.33982 0.0
C4309 C 0.37845 0.75981 0.32302 0.0
C4310 C 0.35439 0.79166 0.32397 0.0
C4311 C 0.33849 0.7942 0.31375 0.0
C4312 C 0.32146 0.78718 0.31885 0.0
C4313 C 0.32105 0.77781 0.33485 0.0
C4314 C 0.337 0.77551 0.34524 0.0
H4315 H 0.38661 0.74929 0.32032 0.0
H4316 H 0.36404 0.75359 0.32015 0.0
H4317 H 0.38131 0.76985 0.313 0.0
H4318 H 0.36715 0.79726 0.31954 0.0
H4319 H 0.33961 0.80174 0.30179 0.0
H4320 H 0.02872 0.72906 0.10925 0.0
H4321 H 0.02612 0.69689 0.10035 0.0
H4322 H 0.06276 0.70774 0.0592 0.0
H4323 H 0.06561 0.74016 0.06831 0.0
H4324 H 0.0142 0.6747 0.06861 0.0
H4325 H 0.08593 0.67202 0.08577 0.0
H4326 H 0.07671 0.69159 0.09261 0.0
H4327 H 0.0819 0.68721 0.06896 0.0
C4328 C 0.03625 0.72471 0.09824 0.0
C4329 C 0.04744 0.73752 0.0896 0.0
C4330 C 0.03473 0.70612 0.09313 0.0
C4331 C 0.04445 0.69942 0.07925 0.0
C4332 C 0.05538 0.7122 0.07028 0.0
H4333 H 0.05384 0.58936 0.03431 0.0
H4334 H 0.05673 0.62174 0.04177 0.0
C4335 C 0.05689 0.73089 0.07539 0.0
C4336 C 0.04291 0.67923 0.07428 0.0
H4337 H 0.06725 0.64524 0.07134 0.0
C4338 C 0.02586 0.66834 0.06927 0.0
C4339 C 0.05796 0.6705 0.07499 0.0
C4340 C 0.07665 0.68086 0.08103 0.0
C4341 C 0.02349 0.64945 0.06473 0.0
C4342 C 0.03853 0.64067 0.06564 0.0
C4343 C 0.05559 0.65159 0.07056 0.0
C4344 C 0.03694 0.62037 0.06145 0.0
C4345 C 1.00478 0.63923 0.05838 0.0
C4346 C 0.02516 0.60815 0.07014 0.0
C4347 C 0.02353 0.58939 0.06589 0.0
C4348 C 0.03387 0.58198 0.053 0.0
C4349 C 0.04591 0.59422 0.04462 0.0
C4350 C 0.04747 0.61297 0.0488 0.0
H4351 H 0.99597 0.64804 0.05257 0.0
H4352 H 1.00482 0.62789 0.04752 0.0
H4353 H 0.99886 0.63381 0.0706 0.0
H4354 H 0.01718 0.61309 0.08039 0.0
H4355 H 0.01412 0.58065 0.07278 0.0
H4356 H 0.03882 0.25253 0.88178 0.0
H4357 H 0.06649 0.25168 0.86718 0.0
H4358 H 0.09591 0.29014 0.91199 0.0
H4359 H 0.06849 0.29045 0.92693 0.0
H4360 H 0.08813 0.27556 0.85278 0.0
H4361 H 0.12891 0.25547 0.91184 0.0
H4362 H 0.10521 0.25504 0.91188 0.0
H4363 H 0.12102 0.27568 0.91858 0.0
C4364 C 0.0512 0.26075 0.88856 0.0
C4365 C 0.05134 0.27151 0.9056 0.0
C4366 C 0.0671 0.26025 0.8802 0.0
C4367 C 0.08363 0.27052 0.88857 0.0
C4368 C 0.08365 0.28155 0.90542 0.0
H4369 H 0.19021 0.30347 0.85826 0.0
H4370 H 0.16369 0.29513 0.87428 0.0
C4371 C 0.06782 0.28189 0.91389 0.0
C4372 C 0.10056 0.27035 0.87927 0.0
H4373 H 0.1449 0.26704 0.88725 0.0
C4374 C 0.10046 0.27345 0.86031 0.0
C4375 C 0.11685 0.2676 0.88889 0.0
C4376 C 0.11799 0.26308 0.90886 0.0
C4377 C 0.11607 0.27464 0.85105 0.0
C4378 C 0.13246 0.27231 0.86078 0.0
C4379 C 0.13249 0.26882 0.87963 0.0
C4380 C 0.14989 0.2749 0.85214 0.0
C4381 C 0.11495 0.27923 0.8311 0.0
C4382 C 0.15179 0.26558 0.83476 0.0
C4383 C 0.16714 0.27037 0.82551 0.0
C4384 C 0.18107 0.28439 0.83358 0.0
C4385 C 0.17983 0.29249 0.85171 0.0
C4386 C 0.16453 0.28781 0.86085 0.0
H4387 H 0.10284 0.28497 0.82732 0.0
H4388 H 0.12693 0.28898 0.82884 0.0
H4389 H 0.1142 0.26685 0.82139 0.0
H4390 H 0.14105 0.25514 0.82789 0.0
H4391 H 0.16751 0.26399 0.8115 0.0
H4392 H 0.57005 0.77009 0.90838 0.0
H4393 H 0.57004 0.74196 0.92243 0.0
H4394 H 0.51768 0.72057 0.89285 0.0
H4395 H 0.51826 0.74809 0.87794 0.0
H4396 H 0.55184 0.72565 0.94511 0.0
H4397 H 0.53905 0.67866 0.88029 0.0
H4398 H 0.54408 0.70257 0.87976 0.0
H4399 H 0.52148 0.69137 0.88133 0.0
C4400 C 0.55861 0.7593 0.90479 0.0
C4401 C 0.54423 0.76131 0.89189 0.0
C4402 C 0.55859 0.74316 0.91283 0.0
C4403 C 0.54407 0.72866 0.90841 0.0
C4404 C 0.52945 0.73101 0.89599 0.0
H4405 H 0.50113 0.63249 0.95413 0.0
H4406 H 0.50884 0.65706 0.93508 0.0
C4407 C 0.52968 0.74693 0.8876 0.0
C4408 C 0.54376 0.71153 0.91745 0.0
H4409 H 0.53277 0.66568 0.90874 0.0
C4410 C 0.54794 0.71257 0.93704 0.0
C4411 C 0.53888 0.69423 0.90712 0.0
C4412 C 0.53583 0.69164 0.88595 0.0
C4413 C 0.54648 0.69711 0.94656 0.0
C4414 C 0.54068 0.67991 0.93633 0.0
C4415 C 0.53706 0.67879 0.9167 0.0
C4416 C 0.53692 0.66318 0.9459 0.0
C4417 C 0.55047 0.69942 0.96767 0.0
C4418 C 0.55025 0.65762 0.9577 0.0
C4419 C 0.54585 0.64335 0.96851 0.0
C4420 C 0.52804 0.63432 0.96772 0.0
C4421 C 0.51498 0.63913 0.955 0.0
C4422 C 0.51938 0.65326 0.94414 0.0
H4423 H 0.55113 0.71349 0.97375 0.0
H4424 H 0.54015 0.69061 0.9741 0.0
H4425 H 0.56363 0.69564 0.97157 0.0
H4426 H 0.56397 0.66473 0.95907 0.0
H4427 H 0.55617 0.64007 0.97828 0.0
H4428 H 0.0778 0.73691 0.69978 0.0
H4429 H 0.11026 0.74113 0.70832 0.0
H4430 H 0.11159 0.79689 0.72644 0.0
H4431 H 0.07904 0.79254 0.71841 0.0
H4432 H 0.1379 0.75896 0.69634 0.0
H4433 H 0.14149 0.78685 0.77046 0.0
H4434 H 0.12045 0.77749 0.75658 0.0
H4435 H 0.13123 0.80021 0.75504 0.0
C4436 C 0.08491 0.75004 0.70588 0.0
C4437 C 0.07547 0.76429 0.70859 0.0
C4438 C 0.10367 0.7525 0.71071 0.0
C4439 C 0.11384 0.7693 0.71851 0.0
C4440 C 0.1044 0.78359 0.72109 0.0
H4441 H 0.23069 0.81129 0.74478 0.0
H4442 H 0.19802 0.80754 0.73762 0.0
C4443 C 0.0856 0.78112 0.71633 0.0
C4444 C 0.13419 0.77188 0.72321 0.0
H4445 H 0.16929 0.78923 0.75743 0.0
C4446 C 0.14462 0.76549 0.7098 0.0
C4447 C 0.14348 0.78036 0.74076 0.0
C4448 C 0.13358 0.78644 0.7566 0.0
C4449 C 0.16356 0.76755 0.71321 0.0
C4450 C 0.1728 0.77626 0.73059 0.0
C4451 C 0.16247 0.78268 0.74402 0.0
C4452 C 0.19304 0.77858 0.73509 0.0
C4453 C 0.17367 0.76067 0.69793 0.0
C4454 C 0.20159 0.76367 0.73623 0.0
C4455 C 0.22037 0.76582 0.7404 0.0
C4456 C 0.23145 0.78291 0.74362 0.0
C4457 C 0.22286 0.79784 0.74236 0.0
C4458 C 0.20402 0.79572 0.73834 0.0
H4459 H 0.16533 0.7578 0.6841 0.0
H4460 H 0.18594 0.77051 0.69667 0.0
H4461 H 0.17785 0.74806 0.70152 0.0
H4462 H 0.19369 0.75025 0.734 0.0
H4463 H 0.22623 0.754 0.74081 0.0
H4464 H 0.0344 0.37149 0.37037 0.0
H4465 H 0.03103 0.39973 0.38781 0.0
H4466 H 0.05061 0.38168 0.43936 0.0
H4467 H 0.05375 0.35322 0.42198 0.0
H4468 H 0.00981 0.40521 0.41863 0.0
H4469 H 0.08208 0.43246 0.43939 0.0
H4470 H 0.07423 0.41457 0.42058 0.0
H4471 H 0.07437 0.40999 0.44457 0.0
C4472 C 0.03812 0.37352 0.38541 0.0
C4473 C 0.04449 0.35996 0.39466 0.0
C4474 C 0.03611 0.38974 0.39543 0.0
C4475 C 0.0407 0.39314 0.415 0.0
C4476 C 0.04715 0.37965 0.42429 0.0
H4477 H 0.01273 0.4743 0.49603 0.0
H4478 H 0.01702 0.44697 0.47785 0.0
C4479 C 0.04892 0.36329 0.4143 0.0
C4480 C 0.03842 0.41057 0.42561 0.0
H4481 H 0.06153 0.44889 0.45219 0.0
C4482 C 0.02115 0.41471 0.42596 0.0
C4483 C 0.05313 0.42326 0.43511 0.0
C4484 C 0.07204 0.42002 0.43486 0.0
C4485 C 0.01822 0.43079 0.43573 0.0
C4486 C 0.0329 0.44335 0.44547 0.0
C4487 C 0.0502 0.43938 0.44484 0.0
C4488 C 0.03044 0.46041 0.45664 0.0
C4489 C 0.99938 0.43438 0.43542 0.0
C4490 C 0.03665 0.47741 0.45108 0.0
C4491 C 0.03426 0.49329 0.4616 0.0
C4492 C 0.02577 0.49268 0.47816 0.0
C4493 C 0.01955 0.47558 0.48359 0.0
C4494 C 0.02187 0.45978 0.47306 0.0
H4495 H 0.9899 0.42501 0.42476 0.0
H4496 H 0.99474 0.43281 0.4494 0.0
H4497 H 0.99899 0.44835 0.43245 0.0
H4498 H 0.04329 0.47841 0.43849 0.0
H4499 H 0.03925 0.50607 0.45683 0.0
H4500 H 0.45373 0.24257 0.18098 0.0
H4501 H 0.42417 0.24464 0.19056 0.0
H4502 H 0.44907 0.27409 0.24319 0.0
H4503 H 0.47882 0.27228 0.23345 0.0
H4504 H 0.40585 0.23265 0.2178 0.0
H4505 H 0.41533 0.3066 0.22871 0.0
H4506 H 0.43097 0.29509 0.21755 0.0
H4507 H 0.43177 0.29783 0.24274 0.0
C4508 C 0.45303 0.24951 0.19464 0.0
C4509 C 0.46896 0.25727 0.20635 0.0
C4510 C 0.43593 0.25069 0.20016 0.0
C4511 C 0.43394 0.25983 0.21757 0.0
C4512 C 0.44986 0.26734 0.22947 0.0
H4513 H 0.34029 0.28027 0.27477 0.0
H4514 H 0.37007 0.27855 0.26564 0.0
C4515 C 0.46703 0.26614 0.22394 0.0
C4516 C 0.4153 0.26112 0.22317 0.0
H4517 H 0.38887 0.29065 0.23842 0.0
C4518 C 0.40223 0.24541 0.22223 0.0
C4519 C 0.41008 0.27764 0.22901 0.0
C4520 C 0.42269 0.29527 0.22941 0.0
C4521 C 0.38467 0.24566 0.22724 0.0
C4522 C 0.37946 0.26218 0.2331 0.0
C4523 C 0.39252 0.2779 0.23403 0.0
C4524 C 0.36075 0.26343 0.23849 0.0
C4525 C 0.37204 0.22802 0.2267 0.0
C4526 C 0.34502 0.25587 0.22636 0.0
C4527 C 0.32776 0.257 0.23156 0.0
C4528 C 0.32546 0.26583 0.24907 0.0
C4529 C 0.34121 0.2735 0.26111 0.0
C4530 C 0.35845 0.27246 0.25587 0.0
H4531 H 0.37941 0.21672 0.22763 0.0
H4532 H 0.36351 0.2282 0.23834 0.0
H4533 H 0.3632 0.22539 0.2132 0.0
H4534 H 0.34604 0.24922 0.21266 0.0
H4535 H 0.31618 0.251 0.2217 0.0
H4536 H 0.63095 0.56513 0.35068 0.0
H4537 H 0.62102 0.56351 0.3819 0.0
H4538 H 0.57941 0.51862 0.35986 0.0
H4539 H 0.58922 0.52024 0.32838 0.0
H4540 H 0.58234 0.5639 0.3911 0.0
H4541 H 0.60953 0.50335 0.40775 0.0
H4542 H 0.61886 0.51773 0.39122 0.0
H4543 H 0.59764 0.50312 0.38484 0.0
C4544 C 0.6196 0.55496 0.35238 0.0
C4545 C 0.61082 0.54287 0.33691 0.0
C4546 C 0.61398 0.55402 0.37031 0.0
C4547 C 0.59956 0.54086 0.37333 0.0
C4548 C 0.59068 0.5288 0.35793 0.0
H4549 H 0.5554 0.51019 0.47625 0.0
H4550 H 0.56536 0.51098 0.44489 0.0
C4551 C 0.59622 0.52981 0.33991 0.0
C4552 C 0.59362 0.54009 0.39249 0.0
H4553 H 0.59391 0.51626 0.4304 0.0
C4554 C 0.58482 0.55347 0.39971 0.0
C4555 C 0.59675 0.52644 0.40369 0.0
C4556 C 0.60628 0.51182 0.39665 0.0
C4557 C 0.5787 0.55341 0.41759 0.0
C4558 C 0.58222 0.53999 0.42917 0.0
C4559 C 0.59113 0.52661 0.42182 0.0
C4560 C 0.57657 0.5394 0.44867 0.0
C4561 C 0.56793 0.56745 0.42337 0.0
C4562 C 0.57967 0.55491 0.46171 0.0
C4563 C 0.57312 0.55458 0.47926 0.0
C4564 C 0.56446 0.5385 0.4849 0.0
C4565 C 0.56213 0.52278 0.47236 0.0
C4566 C 0.56795 0.52324 0.45442 0.0
H4567 H 0.56119 0.57219 0.41094 0.0
H4568 H 0.55754 0.56227 0.43225 0.0
H4569 H 0.57706 0.57925 0.43131 0.0
H4570 H 0.58689 0.56745 0.45827 0.0
H4571 H 0.5745 0.56706 0.48821 0.0
H4572 H 0.26209 0.87863 0.04072 0.0
H4573 H 0.25754 0.8678 0.0711 0.0
H4574 H 0.30332 0.90672 0.09728 0.0
H4575 H 0.30747 0.91805 0.06712 0.0
H4576 H 0.28107 0.85301 0.09049 0.0
H4577 H 0.26825 0.91169 0.1348 0.0
H4578 H 0.26683 0.91056 0.10952 0.0
H4579 H 0.2882 0.91703 0.12364 0.0
C4580 C 0.27103 0.88496 0.05304 0.0
C4581 C 0.28512 0.8991 0.05173 0.0
C4582 C 0.26834 0.87889 0.07034 0.0
C4583 C 0.27981 0.88679 0.08645 0.0
C4584 C 0.29392 0.90092 0.08512 0.0
H4585 H 0.32602 0.85804 0.18371 0.0
H4586 H 0.31329 0.87418 0.15945 0.0
C4587 C 0.29643 0.90719 0.06789 0.0
C4588 C 0.27858 0.87871 0.1041 0.0
H4589 H 0.27959 0.88882 0.15136 0.0
C4590 C 0.28022 0.86067 0.10375 0.0
C4591 C 0.27756 0.88885 0.12131 0.0
C4592 C 0.27493 0.90806 0.12232 0.0
C4593 C 0.2821 0.85276 0.12032 0.0
C4594 C 0.28204 0.86316 0.13762 0.0
C4595 C 0.27948 0.88094 0.13798 0.0
C4596 C 0.28748 0.85643 0.15526 0.0
C4597 C 0.2854 0.83374 0.11928 0.0
C4598 C 0.27682 0.84164 0.1613 0.0
C4599 C 0.2841 0.83245 0.17507 0.0
C4600 C 0.30205 0.83798 0.1827 0.0
C4601 C 0.31223 0.85351 0.17765 0.0
C4602 C 0.30493 0.86279 0.16405 0.0
H4603 H 0.2875 0.82848 0.1049 0.0
H4604 H 0.29734 0.83289 0.12902 0.0
H4605 H 0.27368 0.82492 0.12356 0.0
H4606 H 0.26333 0.83661 0.15457 0.0
H4607 H 0.27607 0.82052 0.17903 0.0
H4608 H 0.93763 0.50314 0.84258 0.0
H4609 H 0.94954 0.49992 0.87457 0.0
H4610 H 0.92025 0.53939 0.89644 0.0
H4611 H 0.90791 0.54233 0.86457 0.0
H4612 H 0.97014 0.52827 0.89738 0.0
H4613 H 0.91041 0.50005 0.93085 0.0
H4614 H 0.91028 0.49942 0.9057 0.0
H4615 H 0.90833 0.51971 0.91957 0.0
C4616 C 0.93376 0.5111 0.85424 0.0
C4617 C 0.92212 0.52315 0.85126 0.0
C4618 C 0.94035 0.5091 0.87241 0.0
C4619 C 0.93545 0.51921 0.8877 0.0
C4620 C 0.92374 0.53116 0.88476 0.0
H4621 H 0.98721 0.54683 1.00042 0.0
H4622 H 0.96537 0.54348 0.9724 0.0
C4623 C 0.91698 0.53302 0.86661 0.0
C4624 C 0.94442 0.51891 0.90648 0.0
H4625 H 0.93758 0.51061 0.95113 0.0
C4626 C 0.96305 0.52427 0.9091 0.0
C4627 C 0.93494 0.51393 0.92165 0.0
C4628 C 0.91489 0.50781 0.91932 0.0
C4629 C 0.97262 0.52479 0.92663 0.0
C4630 C 0.96321 0.5196 0.94173 0.0
C4631 C 0.94456 0.51445 0.9393 0.0
C4632 C 0.97294 0.5193 0.96005 0.0
C4633 C 0.99271 0.53092 0.9289 0.0
C4634 C 0.98375 0.50642 0.96228 0.0
C4635 C 0.99625 0.50841 0.97797 0.0
C4636 C 0.99777 0.52313 0.9916 0.0
C4637 C 0.98607 0.53535 0.99 0.0
C4638 C 0.97363 0.53341 0.97418 0.0
H4639 H 0.99735 0.53777 0.91683 0.0
H4640 H 0.99718 0.5402 0.94198 0.0
H4641 H 0.99931 0.51912 0.92989 0.0
H4642 H 0.98327 0.49551 0.95134 0.0
H4643 H 1.00514 0.49882 0.97914 0.0
H4644 H 0.29226 0.1854 0.57827 0.0
H4645 H 0.29381 0.19719 0.61134 0.0
H4646 H 0.2646 0.23802 0.59549 0.0
H4647 H 0.2631 0.22635 0.56225 0.0
H4648 H 0.3082 0.23326 0.63007 0.0
H4649 H 0.23556 0.21189 0.63485 0.0
H4650 H 0.24689 0.20241 0.61655 0.0
H4651 H 0.24103 0.22411 0.61537 0.0
C4652 C 0.28626 0.19698 0.58177 0.0
C4653 C 0.27754 0.20493 0.56754 0.0
C4654 C 0.28716 0.2037 0.60074 0.0
C4655 C 0.27915 0.21838 0.60601 0.0
C4656 C 0.2707 0.22655 0.59183 0.0
H4657 H 0.26557 0.27587 0.71328 0.0
H4658 H 0.26511 0.2649 0.68009 0.0
C4659 C 0.26996 0.21995 0.5728 0.0
C4660 C 0.27955 0.22504 0.62632 0.0
H4661 H 0.25266 0.22981 0.66122 0.0
C4662 C 0.29606 0.2325 0.63688 0.0
C4663 C 0.26375 0.22389 0.63533 0.0
C4664 C 0.24578 0.21501 0.62507 0.0
C4665 C 0.29713 0.23927 0.65597 0.0
C4666 C 0.28129 0.23836 0.66492 0.0
C4667 C 0.2648 0.23073 0.65439 0.0
C4668 C 0.28155 0.24503 0.68523 0.0
C4669 C 0.31523 0.24768 0.66629 0.0
C4670 C 0.29071 0.23742 0.69932 0.0
C4671 C 0.29079 0.24351 0.71834 0.0
C4672 C 0.28169 0.25742 0.72385 0.0
C4673 C 0.27257 0.26507 0.7097 0.0
C4674 C 0.27234 0.25882 0.69064 0.0
H4675 H 0.32521 0.25157 0.65646 0.0
H4676 H 0.31433 0.25973 0.67583 0.0
H4677 H 0.32023 0.23787 0.6749 0.0
H4678 H 0.29768 0.22659 0.69564 0.0
H4679 H 0.29802 0.23726 0.72873 0.0
H4680 H 0.61832 0.5126 0.22107 0.0
H4681 H 0.60711 0.51076 0.18771 0.0
H4682 H 0.58723 0.55985 0.19845 0.0
H4683 H 0.59809 0.56158 0.23197 0.0
H4684 H 0.56869 0.51196 0.17106 0.0
H4685 H 0.6217 0.56599 0.15429 0.0
H4686 H 0.62474 0.55335 0.17396 0.0
H4687 H 0.61141 0.57052 0.1753 0.0
C4688 C 0.61144 0.52295 0.21638 0.0
C4689 C 0.60902 0.5372 0.22926 0.0
C4690 C 0.60504 0.52187 0.19727 0.0
C4691 C 0.5964 0.53521 0.19048 0.0
C4692 C 0.59391 0.54943 0.20331 0.0
H4693 H 0.54285 0.55309 0.08326 0.0
H4694 H 0.55449 0.55366 0.1163 0.0
C4695 C 0.60003 0.55035 0.2225 0.0
C4696 C 0.58997 0.53428 0.17004 0.0
H4697 H 0.5978 0.55459 0.13042 0.0
C4698 C 0.57507 0.52126 0.16218 0.0
C4699 C 0.59842 0.54623 0.15832 0.0
C4700 C 0.61505 0.55977 0.16574 0.0
C4701 C 0.56814 0.52026 0.14313 0.0
C4702 C 0.57628 0.53254 0.13157 0.0
C4703 C 0.59139 0.54532 0.13932 0.0
C4704 C 0.56928 0.53224 0.11139 0.0
C4705 C 0.55201 0.50621 0.13542 0.0
C4706 C 0.57372 0.52006 0.09754 0.0
C4707 C 0.56739 0.51997 0.07856 0.0
C4708 C 0.55625 0.53194 0.07291 0.0
C4709 C 0.55154 0.54387 0.08691 0.0
C4710 C 0.55815 0.54417 0.10588 0.0
H4711 H 0.54635 0.49851 0.14649 0.0
H4712 H 0.54146 0.51259 0.12857 0.0
H4713 H 0.55585 0.49673 0.12454 0.0
H4714 H 0.5822 0.51066 0.10141 0.0
H4715 H 0.57117 0.51042 0.06829 0.0
H4716 H 0.31482 0.88107 0.95785 0.0
H4717 H 0.31877 0.86951 0.926 0.0
H4718 H 0.27327 0.89101 0.90409 0.0
H4719 H 0.26953 0.90302 0.93582 0.0
H4720 H 0.29065 0.84474 0.90671 0.0
H4721 H 0.30918 0.90212 0.86589 0.0
H4722 H 0.3122 0.90433 0.89126 0.0
H4723 H 0.29041 0.90346 0.87888 0.0
C4724 C 0.30571 0.88333 0.9462 0.0
C4725 C 0.29162 0.89246 0.94912 0.0
C4726 C 0.30817 0.87705 0.92811 0.0
C4727 C 0.29646 0.87973 0.91288 0.0
C4728 C 0.28268 0.88928 0.91572 0.0
H4729 H 0.2653 0.82731 0.80116 0.0
H4730 H 0.26875 0.84716 0.83061 0.0
C4731 C 0.28035 0.89577 0.9338 0.0
C4732 C 0.29648 0.86964 0.89469 0.0
H4733 H 0.29892 0.87331 0.84829 0.0
C4734 C 0.29271 0.85095 0.89395 0.0
C4735 C 0.2988 0.87798 0.87823 0.0
C4736 C 0.30302 0.89809 0.87857 0.0
C4737 C 0.29091 0.84019 0.87696 0.0
C4738 C 0.29338 0.84847 0.86048 0.0
C4739 C 0.29715 0.86718 0.86114 0.0
C4740 C 0.29208 0.83771 0.84246 0.0
C4741 C 0.28593 0.8201 0.87675 0.0
C4742 C 0.30422 0.82618 0.83966 0.0
C4743 C 0.30206 0.81466 0.82322 0.0
C4744 C 0.28797 0.81489 0.80931 0.0
C4745 C 0.27617 0.82689 0.81186 0.0
C4746 C 0.27819 0.83825 0.82848 0.0
H4747 H 0.28006 0.81636 0.88967 0.0
H4748 H 0.27619 0.81412 0.86438 0.0
H4749 H 0.29815 0.81414 0.87595 0.0
H4750 H 0.31517 0.82593 0.85033 0.0
H4751 H 0.31154 0.80576 0.82127 0.0
H4752 H 0.89349 0.50989 0.73265 0.0
H4753 H 0.90404 0.51232 0.70193 0.0
H4754 H 0.95227 0.54781 0.7278 0.0
H4755 H 0.94188 0.54532 0.75878 0.0
H4756 H 0.91529 0.54379 0.68285 0.0
H4757 H 0.96836 0.50413 0.69941 0.0
H4758 H 0.94961 0.50449 0.71282 0.0
H4759 H 0.96817 0.52297 0.71636 0.0
C4760 C 0.90633 0.51827 0.73181 0.0
C4761 C 0.91699 0.52736 0.74804 0.0
C4762 C 0.91223 0.51973 0.71427 0.0
C4763 C 0.92885 0.53024 0.71276 0.0
C4764 C 0.9394 0.5396 0.72886 0.0
H4765 H 0.99522 0.53366 0.62447 0.0
H4766 H 0.97998 0.54563 0.64991 0.0
C4767 C 0.93352 0.53811 0.74646 0.0
C4768 C 0.93572 0.53035 0.69446 0.0
H4769 H 0.96795 0.5162 0.67062 0.0
C4770 C 0.92688 0.53791 0.6801 0.0
C4771 C 0.95056 0.52229 0.69104 0.0
C4772 C 0.95967 0.51285 0.70563 0.0
C4773 C 0.93284 0.53787 0.66228 0.0
C4774 C 0.94791 0.53012 0.65904 0.0
C4775 C 0.95662 0.52251 0.67341 0.0
C4776 C 0.95447 0.52825 0.64059 0.0
C4777 C 0.92308 0.54601 0.64709 0.0
C4778 C 0.94481 0.5152 0.62655 0.0
C4779 C 0.95352 0.50833 0.61212 0.0
C4780 C 0.97188 0.51447 0.6118 0.0
C4781 C 0.98104 0.52876 0.6247 0.0
C4782 C 0.97234 0.53568 0.63904 0.0
H4783 H 0.91398 0.55452 0.65284 0.0
H4784 H 0.93276 0.5542 0.63933 0.0
H4785 H 0.91493 0.53512 0.63691 0.0
H4786 H 0.93109 0.50915 0.62773 0.0
H4787 H 0.94632 0.49736 0.60208 0.0
H4788 H 0.28147 0.17734 0.44706 0.0
H4789 H 0.28257 0.18773 0.41608 0.0
H4790 H 0.26313 0.23509 0.43608 0.0
H4791 H 0.26259 0.22497 0.46743 0.0
H4792 H 0.25763 0.19417 0.39069 0.0
H4793 H 0.3057 0.25762 0.41285 0.0
H4794 H 0.30113 0.24057 0.42834 0.0
H4795 H 0.28604 0.256 0.42483 0.0
C4796 C 0.27756 0.19007 0.44495 0.0
C4797 C 0.27213 0.20043 0.45985 0.0
C4798 C 0.27813 0.19597 0.42714 0.0
C4799 C 0.27326 0.21239 0.42365 0.0
C4800 C 0.26748 0.22262 0.43843 0.0
H4801 H 0.26384 0.27083 0.3272 0.0
H4802 H 0.26316 0.25875 0.35721 0.0
C4803 C 0.26708 0.2168 0.45637 0.0
C4804 C 0.27413 0.21859 0.40454 0.0
H4805 H 0.29158 0.25368 0.38151 0.0
C4806 C 0.26516 0.20715 0.3887 0.0
C4807 C 0.28403 0.23548 0.40176 0.0
C4808 C 0.29492 0.24805 0.41782 0.0
C4809 C 0.26541 0.2123 0.3704 0.0
C4810 C 0.27507 0.2293 0.36772 0.0
C4811 C 0.28415 0.24066 0.3835 0.0
C4812 C 0.27527 0.23605 0.34887 0.0
C4813 C 0.2549 0.19971 0.35415 0.0
C4814 C 0.28237 0.22739 0.33395 0.0
C4815 C 0.2829 0.23439 0.31656 0.0
C4816 C 0.27643 0.25027 0.3138 0.0
C4817 C 0.26923 0.25875 0.32877 0.0
C4818 C 0.26875 0.2518 0.34603 0.0
H4819 H 0.24502 0.18908 0.35892 0.0
H4820 H 0.24769 0.20712 0.34431 0.0
H4821 H 0.26427 0.19311 0.34631 0.0
H4822 H 0.28775 0.21535 0.33582 0.0
H4823 H 0.28849 0.22749 0.30536 0.0
H4824 H 0.32871 0.63578 0.53547 0.0
H4825 H 0.35845 0.62789 0.5391 0.0
H4826 H 0.33798 0.58322 0.56835 0.0
H4827 H 0.30804 0.5907 0.56423 0.0
H4828 H 0.38155 0.62364 0.57048 0.0
H4829 H 0.35735 0.56029 0.52297 0.0
H4830 H 0.34439 0.57784 0.52533 0.0
H4831 H 0.34541 0.56286 0.54306 0.0
C4832 C 0.33059 0.62428 0.54267 0.0
C4833 C 0.31616 0.61361 0.54931 0.0
C4834 C 0.34755 0.61991 0.54488 0.0
C4835 C 0.35024 0.60494 0.55387 0.0
C4836 C 0.33599 0.59469 0.56116 0.0
H4837 H 0.44032 0.55228 0.54144 0.0
H4838 H 0.41872 0.56401 0.55979 0.0
C4839 C 0.31896 0.5989 0.55872 0.0
C4840 C 0.36763 0.59922 0.55407 0.0
H4841 H 0.38766 0.56657 0.5347 0.0
C4842 C 0.38295 0.61104 0.56292 0.0
C4843 C 0.36923 0.58286 0.54402 0.0
C4844 C 0.35328 0.57027 0.53315 0.0
C4845 C 0.40006 0.60711 0.56144 0.0
C4846 C 0.40164 0.59097 0.55101 0.0
C4847 C 0.38626 0.5788 0.54298 0.0
C4848 C 0.41877 0.58754 0.54525 0.0
C4849 C 0.41631 0.62041 0.57041 0.0
C4850 C 0.42632 0.59732 0.53154 0.0
C4851 C 0.43849 0.59059 0.52092 0.0
C4852 C 0.44326 0.57404 0.52394 0.0
C4853 C 0.43695 0.56514 0.53889 0.0
C4854 C 0.4247 0.57183 0.54945 0.0
H4855 H 0.41289 0.62982 0.58166 0.0
H4856 H 0.42677 0.61341 0.5764 0.0
H4857 H 0.42201 0.62837 0.55957 0.0
H4858 H 0.42158 0.60928 0.52788 0.0
H4859 H 0.44332 0.59775 0.50958 0.0
H4860 H 0.84188 0.92754 0.50518 0.0
H4861 H 0.87213 0.94343 0.5027 0.0
H4862 H 0.88743 0.93866 0.56097 0.0
H4863 H 0.85737 0.92196 0.56322 0.0
H4864 H 0.88946 0.97412 0.51918 0.0
H4865 H 0.9288 0.92291 0.53923 0.0
H4866 H 0.9047 0.91798 0.53453 0.0
H4867 H 0.91538 0.92895 0.55704 0.0
C4868 C 0.85172 0.92982 0.51745 0.0
C4869 C 0.84724 0.9235 0.5344 0.0
C4870 C 0.86904 0.93889 0.51601 0.0
C4871 C 0.88228 0.94203 0.53153 0.0
C4872 C 0.87772 0.93596 0.5486 0.0
H4873 H 0.99202 1.00025 0.55355 0.0
H4874 H 0.96194 0.98317 0.55499 0.0
C4875 C 0.86045 0.92658 0.54994 0.0
C4876 C 0.90046 0.95247 0.52999 0.0
H4877 H 0.94534 0.95213 0.53764 0.0
C4878 C 0.90167 0.96923 0.52311 0.0
C4879 C 0.91648 0.94617 0.53511 0.0
C4880 C 0.9163 0.92794 0.5417 0.0
C4881 C 0.91829 0.98003 0.52165 0.0
C4882 C 0.93431 0.97382 0.52692 0.0
C4883 C 0.93312 0.95698 0.53366 0.0
C4884 C 0.95242 0.98471 0.52599 0.0
C4885 C 0.91841 0.99821 0.51497 0.0
C4886 C 0.95722 0.99136 0.50924 0.0
C4887 C 0.97422 1.00166 0.50862 0.0
C4888 C 0.98692 1.00497 0.52456 0.0
C4889 C 0.98232 0.99805 0.54116 0.0
C4890 C 0.96519 0.98818 0.54193 0.0
H4891 H 0.9057 1.00303 0.51691 0.0
H4892 H 0.9297 0.00832 0.5225 0.0
H4893 H 0.91986 0.99726 0.49974 0.0
H4894 H 0.94794 0.98834 0.49653 0.0
H4895 H 0.9777 0.00639 0.4955 0.0
H4896 H 0.92365 0.07981 0.25709 0.0
H4897 H 0.91028 0.10681 0.25587 0.0
H4898 H 0.85906 0.07629 0.26395 0.0
H4899 H 0.87226 0.04916 0.2649 0.0
H4900 H 0.86738 0.10583 0.23038 0.0
H4901 H 0.88492 0.12708 0.30714 0.0
H4902 H 0.89948 0.11598 0.29373 0.0
H4903 H 0.87858 0.10356 0.29857 0.0
C4904 C 0.90954 0.07886 0.25861 0.0
C4905 C 0.89899 0.06241 0.26118 0.0
C4906 C 0.90193 0.09425 0.2578 0.0
C4907 C 0.88371 0.09346 0.25976 0.0
C4908 C 0.87313 0.07708 0.26225 0.0
H4909 H 0.817 0.17293 0.27886 0.0
H4910 H 0.82787 0.14467 0.2723 0.0
C4911 C 0.88068 0.06164 0.26285 0.0
C4912 C 0.87586 0.10992 0.26009 0.0
H4913 H 0.86839 0.14469 0.28994 0.0
C4914 C 0.8676 0.11437 0.24336 0.0
C4915 C 0.87628 0.12101 0.27704 0.0
C4916 C 0.88529 0.11682 0.29523 0.0
C4917 C 0.8596 0.12968 0.24324 0.0
C4918 C 0.8598 0.1406 0.26027 0.0
C4919 C 0.86815 0.13616 0.27694 0.0
C4920 C 0.85178 0.15696 0.2612 0.0
C4921 C 0.85084 0.13411 0.22506 0.0
C4922 C 0.86149 0.17308 0.25678 0.0
C4923 C 0.85542 0.18918 0.26068 0.0
C4924 C 0.83945 0.18936 0.26887 0.0
C4925 C 0.82922 0.17307 0.27231 0.0
C4926 C 0.83544 0.15699 0.26864 0.0
H4927 H 0.85086 0.12369 0.21318 0.0
H4928 H 0.83681 0.13557 0.22659 0.0
H4929 H 0.85805 0.14714 0.22165 0.0
H4930 H 0.87419 0.17333 0.25116 0.0
H4931 H 0.86355 0.2016 0.25801 0.0
H4932 H 0.70806 0.11822 0.06542 0.0
H4933 H 0.67562 0.10995 0.05669 0.0
H4934 H 0.68455 0.08355 0.0036 0.0
H4935 H 0.71688 0.091 0.01268 0.0
H4936 H 0.65634 0.11999 0.02691 0.0
H4937 H 0.64892 0.0459 0.02206 0.0
H4938 H 0.66904 0.06072 0.03293 0.0
H4939 H 0.66498 0.05593 0.00778 0.0
C4940 C 0.70299 0.11027 0.0521 0.0
C4941 C 0.71472 0.10496 0.03976 0.0
C4942 C 0.68458 0.10572 0.04708 0.0
C4943 C 0.67784 0.09608 0.02958 0.0
C4944 C 0.68958 0.09064 0.01734 0.0
H4945 H 0.57107 0.04607 0.98854 0.0
H4946 H 0.60006 0.06416 0.98517 0.0
C4947 C 0.70796 0.09483 0.02254 0.0
C4948 C 0.65849 0.09204 0.02393 0.0
H4949 H 0.62371 0.05743 0.01113 0.0
C4950 C 0.64913 0.10633 0.02333 0.0
C4951 C 0.6493 0.07422 0.01932 0.0
C4952 C 0.65854 0.05831 0.02072 0.0
C4953 C 0.63059 0.1032 0.01832 0.0
C4954 C 0.6214 0.08536 0.01385 0.0
C4955 C 0.63089 0.07115 0.01409 0.0
C4956 C 0.6018 0.08051 0.0118 0.0
C4957 C 0.62105 0.11895 0.01818 0.0
C4958 C 0.59278 0.08463 0.02725 0.0
C4959 C 0.57602 0.07472 0.0288 0.0
C4960 C 0.5683 0.06062 0.015 0.0
C4961 C 0.57656 0.05744 0.99886 0.0
C4962 C 0.59312 0.06767 0.99704 0.0
H4963 H 0.62995 0.13102 0.01467 0.0
H4964 H 0.60874 0.11599 0.00801 0.0
H4965 H 0.61721 0.12219 0.03241 0.0
H4966 H 0.5994 0.09409 0.03904 0.0
H4967 H 0.56977 0.07707 0.04149 0.0
H4968 H 0.22558 0.50737 0.26662 0.0
H4969 H 0.23453 0.47793 0.26573 0.0
H4970 H 0.19053 0.45619 0.223 0.0
H4971 H 0.1815 0.48543 0.22379 0.0
H4972 H 0.19432 0.44134 0.26191 0.0
H4973 H 0.25259 0.44497 0.22045 0.0
H4974 H 0.25079 0.4645 0.23587 0.0
H4975 H 0.23463 0.45718 0.2157 0.0
C4976 C 0.21816 0.49641 0.25672 0.0
C4977 C 0.20287 0.49847 0.24535 0.0
C4978 C 0.22327 0.47972 0.25619 0.0
C4979 C 0.21321 0.46519 0.24414 0.0
C4980 C 0.19844 0.46743 0.2322 0.0
H4981 H 0.21704 0.35385 0.26077 0.0
H4982 H 0.20954 0.37917 0.24477 0.0
C4983 C 0.1933 0.48404 0.23277 0.0
C4984 C 0.21665 0.4472 0.24596 0.0
H4985 H 0.24688 0.42016 0.23817 0.0
C4986 C 0.20557 0.43646 0.25644 0.0
C4987 C 0.23133 0.44122 0.23872 0.0
C4988 C 0.24305 0.45246 0.22695 0.0
C4989 C 0.20943 0.42002 0.26081 0.0
C4990 C 0.22457 0.41428 0.25422 0.0
C4991 C 0.23522 0.4247 0.24302 0.0
C4992 C 0.2307 0.39872 0.2611 0.0
C4993 C 0.19802 0.40944 0.27342 0.0
C4994 C 0.24525 0.40155 0.27513 0.0
C4995 C 0.24944 0.38728 0.28421 0.0
C4996 C 0.239 0.37016 0.2794 0.0
C4997 C 0.22488 0.36716 0.26487 0.0
C4998 C 0.22078 0.38144 0.25565 0.0
H4999 H 0.18778 0.41672 0.27877 0.0
H5000 H 0.19103 0.39652 0.26554 0.0
H5001 H 0.20658 0.40635 0.2856 0.0
H5002 H 0.2529 0.4149 0.27953 0.0
H5003 H 0.26057 0.38962 0.29524 0.0
H5004 H 0.23337 0.39 0.03621 0.0
H5005 H 0.20635 0.40314 0.03745 0.0
H5006 H 0.23846 0.45606 0.04157 0.0
H5007 H 0.2656 0.44302 0.04028 0.0
H5008 H 0.19716 0.42929 0.06524 0.0
H5009 H 0.2009 0.45252 0.99472 0.0
H5010 H 0.21313 0.43591 0.00277 0.0
H5011 H 0.2212 0.45927 0.01051 0.0
C5012 C 0.2347 0.40445 0.03741 0.0
C5013 C 0.2516 0.41549 0.03797 0.0
C5014 C 0.21925 0.41191 0.03821 0.0
C5015 C 0.22041 0.43054 0.03945 0.0
C5016 C 0.23729 0.44163 0.04042 0.0
H5017 H 0.14564 0.50266 0.03175 0.0
H5018 H 0.17155 0.48928 0.04159 0.0
C5019 C 0.25277 0.43417 0.03969 0.0
C5020 C 0.20392 0.43838 0.03897 0.0
H5021 H 0.1794 0.46247 0.01267 0.0
C5022 C 0.19323 0.43655 0.05377 0.0
C5023 C 0.19869 0.44755 0.02382 0.0
C5024 C 0.20895 0.44883 0.00694 0.0
C5025 C 0.17771 0.44418 0.05404 0.0
C5026 C 0.17287 0.45383 0.03916 0.0
C5027 C 0.18338 0.45535 0.02424 0.0
C5028 C 0.15667 0.4621 0.03821 0.0
C5029 C 0.16672 0.44216 0.07026 0.0
C5030 C 0.13963 0.45131 0.03378 0.0
C5031 C 0.12486 0.45895 0.02817 0.0
C5032 C 0.12695 0.47747 0.02706 0.0
C5033 C 0.14368 0.48841 0.03295 0.0
C5034 C 0.15847 0.48076 0.03842 0.0
H5035 H 0.17374 0.43676 0.08206 0.0
H5036 H 0.16348 0.45527 0.07546 0.0
H5037 H 0.15388 0.43284 0.06544 0.0
H5038 H 0.13801 0.43686 0.03322 0.0
H5039 H 0.11213 0.45026 0.02326 0.0
H5040 H 0.90787 0.95071 0.24241 0.0
H5041 H 0.89092 0.92063 0.24451 0.0
H5042 H 0.85691 0.94366 0.28066 0.0
H5043 H 0.87325 0.97362 0.27796 0.0
H5044 H 0.88559 0.9016 0.27348 0.0
H5045 H 0.81968 0.91312 0.24315 0.0
H5046 H 0.84012 0.9288 0.24232 0.0
H5047 H 0.82889 0.92887 0.26321 0.0
C5048 C 0.89663 0.94933 0.25061 0.0
C5049 C 0.89172 0.96458 0.25976 0.0
C5050 C 0.88698 0.93213 0.25187 0.0
C5051 C 0.87231 0.9298 0.26241 0.0
C5052 C 0.86773 0.94503 0.27191 0.0
H5053 H 0.79751 0.83937 0.29137 0.0
H5054 H 0.81551 0.86877 0.28894 0.0
C5055 C 0.87716 0.9622 0.27043 0.0
C5056 C 0.86198 0.91151 0.26376 0.0
H5057 H 0.81957 0.88665 0.25818 0.0
C5058 C 0.87117 0.8983 0.26999 0.0
C5059 C 0.84312 0.9071 0.25924 0.0
C5060 C 0.8324 0.92017 0.25143 0.0
C5061 C 0.86203 0.88106 0.27226 0.0
C5062 C 0.84315 0.87678 0.26794 0.0
C5063 C 0.834 0.88994 0.26162 0.0
C5064 C 0.83256 0.85874 0.26972 0.0
C5065 C 0.87265 0.86777 0.27971 0.0
C5066 C 0.83593 0.84327 0.25954 0.0
C5067 C 0.82563 0.82643 0.26087 0.0
C5068 C 0.81156 0.82467 0.27228 0.0
C5069 C 0.80809 0.84021 0.28231 0.0
C5070 C 0.81844 0.85704 0.28101 0.0
H5071 H 0.8858 0.87454 0.2873 0.0
H5072 H 0.86517 0.85955 0.28932 0.0
H5073 H 0.87527 0.85863 0.26777 0.0
H5074 H 0.84641 0.84421 0.25036 0.0
H5075 H 0.82869 0.81479 0.25291 0.0
H5076 H 0.73149 0.09391 0.77223 0.0
H5077 H 0.7431 0.12605 0.77982 0.0
H5078 H 0.6943 0.13782 0.75255 0.0
H5079 H 0.68252 0.10581 0.74492 0.0
H5080 H 0.74466 0.15311 0.75134 0.0
H5081 H 0.70205 0.16353 0.8087 0.0
H5082 H 0.70661 0.14168 0.80097 0.0
H5083 H 0.69143 0.15163 0.78659 0.0
C5084 C 0.72334 0.10338 0.76773 0.0
C5085 C 0.70614 0.09755 0.75815 0.0
C5086 C 0.72991 0.12159 0.77212 0.0
C5087 C 0.7193 0.13395 0.76697 0.0
C5088 C 0.7024 0.12824 0.75684 0.0
H5089 H 0.73261 0.24717 0.78029 0.0
H5090 H 0.72098 0.21528 0.77959 0.0
C5091 C 0.69581 0.11006 0.75245 0.0
C5092 C 0.72609 0.15294 0.77199 0.0
H5093 H 0.72153 0.18894 0.80152 0.0
C5094 C 0.73977 0.16102 0.76236 0.0
C5095 C 0.71918 0.16292 0.7861 0.0
C5096 C 0.70404 0.15456 0.79631 0.0
C5097 C 0.74682 0.17922 0.76644 0.0
C5098 C 0.74046 0.18914 0.78114 0.0
C5099 C 0.7266 0.18103 0.79064 0.0
C5100 C 0.74712 0.20832 0.78571 0.0
C5101 C 0.76045 0.18771 0.75449 0.0
C5102 C 0.7655 0.21482 0.79042 0.0
C5103 C 0.77222 0.23291 0.79022 0.0
C5104 C 0.76044 0.24451 0.78605 0.0
C5105 C 0.74188 0.2383 0.78351 0.0
C5106 C 0.73524 0.22017 0.78314 0.0
H5107 H 0.76018 0.1793 0.74095 0.0
H5108 H 0.75806 0.20115 0.7514 0.0
H5109 H 0.77407 0.18927 0.76211 0.0
H5110 H 0.77471 0.20575 0.79296 0.0
H5111 H 0.78657 0.2377 0.79249 0.0
loop_
_geom_bond_atom_site_label_1
_geom_bond_atom_site_label_2
_geom_bond_distance
_geom_bond_site_symmetry_2
_ccdc_geom_bond_type
In0 O1 2.294 . S
In0 O2 2.326 . S
In0 O6 2.266 . S
In0 O7 2.326 . S
In0 O8 2.266 . S
In0 O9 2.326 . S
In0 O11 2.294 . S
In0 O12 2.326 . S
O1 In0 2.294 . S
O1 C10 1.240 . S
O2 In0 2.326 . S
O2 C10 1.252 . S
C3 O6 1.252 . S
C3 O7 1.260 . S
C4 O11 1.240 . S
C4 O12 1.252 . S
C5 O8 1.252 . S
C5 O9 1.260 . S
O6 In0 2.266 . S
O6 C3 1.252 . S
O7 In0 2.326 . S
O7 C3 1.260 . S
O8 In0 2.266 . S
O8 C5 1.252 . S
O9 In0 2.326 . S
O9 C5 1.260 . S
C10 O1 1.240 . S
C10 O2 1.252 . S
O11 In0 2.294 . S
O11 C4 1.240 . S
O12 In0 2.326 . S
O12 C4 1.252 . S
In13 O14 2.294 . S
In13 O15 2.326 . S
In13 O19 2.266 . S
In13 O20 2.326 . S
In13 O21 2.266 1_455 S
In13 O22 2.326 1_455 S
In13 O24 2.294 . S
In13 O25 2.326 . S
O14 In13 2.294 . S
O14 C23 1.240 . S
O15 In13 2.326 . S
O15 C23 1.252 . S
C16 O19 1.252 . S
C16 O20 1.260 . S
C17 O24 1.240 . S
C17 O25 1.252 . S
C18 O21 1.252 . S
C18 O22 1.260 . S
O19 In13 2.266 . S
O19 C16 1.252 . S
O20 In13 2.326 . S
O20 C16 1.260 . S
O21 In13 2.266 1_655 S
O21 C18 1.252 . S
O22 In13 2.326 1_655 S
O22 C18 1.260 . S
C23 O14 1.240 . S
C23 O15 1.252 . S
O24 In13 2.294 . S
O24 C17 1.240 . S
O25 In13 2.326 . S
O25 C17 1.252 . S
In26 O27 2.294 . S
In26 O28 2.326 . S
In26 O32 2.266 . S
In26 O33 2.326 . S
In26 O34 2.266 . S
In26 O35 2.326 . S
In26 O37 2.294 . S
In26 O38 2.326 . S
O27 In26 2.294 . S
O27 C36 1.240 . S
O28 In26 2.326 . S
O28 C36 1.252 . S
C29 O32 1.252 . S
C29 O33 1.260 . S
C30 O37 1.240 . S
C30 O38 1.252 . S
C31 O34 1.252 . S
C31 O35 1.260 . S
O32 In26 2.266 . S
O32 C29 1.252 . S
O33 In26 2.326 . S
O33 C29 1.260 . S
O34 In26 2.266 . S
O34 C31 1.252 . S
O35 In26 2.326 . S
O35 C31 1.260 . S
C36 O27 1.240 . S
C36 O28 1.252 . S
O37 In26 2.294 . S
O37 C30 1.240 . S
O38 In26 2.326 . S
O38 C30 1.252 . S
In39 O40 2.294 . S
In39 O41 2.326 . S
In39 O45 2.266 . S
In39 O46 2.326 . S
In39 O47 2.266 . S
In39 O48 2.326 . S
In39 O50 2.294 . S
In39 O51 2.326 . S
O40 In39 2.294 . S
O40 C49 1.240 . S
O41 In39 2.326 . S
O41 C49 1.252 . S
C42 O45 1.252 . S
C42 O46 1.260 . S
C43 O50 1.240 . S
C43 O51 1.252 . S
C44 O47 1.252 . S
C44 O48 1.260 . S
O45 In39 2.266 . S
O45 C42 1.252 . S
O46 In39 2.326 . S
O46 C42 1.260 . S
O47 In39 2.266 . S
O47 C44 1.252 . S
O48 In39 2.326 . S
O48 C44 1.260 . S
C49 O40 1.240 . S
C49 O41 1.252 . S
O50 In39 2.294 . S
O50 C43 1.240 . S
O51 In39 2.326 . S
O51 C43 1.252 . S
In52 O53 2.294 . S
In52 O54 2.326 . S
In52 O58 2.266 . S
In52 O59 2.326 . S
In52 O60 2.266 . S
In52 O61 2.326 . S
In52 O63 2.294 . S
In52 O64 2.326 . S
O53 In52 2.294 . S
O53 C62 1.240 . S
O54 In52 2.326 . S
O54 C62 1.252 . S
C55 O58 1.252 . S
C55 O59 1.260 . S
C56 O63 1.240 . S
C56 O64 1.252 . S
C57 O60 1.252 . S
C57 O61 1.260 . S
O58 In52 2.266 . S
O58 C55 1.252 . S
O59 In52 2.326 . S
O59 C55 1.260 . S
O60 In52 2.266 . S
O60 C57 1.252 . S
O61 In52 2.326 . S
O61 C57 1.260 . S
C62 O53 1.240 . S
C62 O54 1.252 . S
O63 In52 2.294 . S
O63 C56 1.240 . S
O64 In52 2.326 . S
O64 C56 1.252 . S
In65 O66 2.294 . S
In65 O67 2.326 . S
In65 O71 2.266 . S
In65 O72 2.326 . S
In65 O73 2.266 . S
In65 O74 2.326 . S
In65 O76 2.294 . S
In65 O77 2.326 . S
O66 In65 2.294 . S
O66 C75 1.240 . S
O67 In65 2.326 . S
O67 C75 1.252 . S
C68 O71 1.252 . S
C68 O72 1.260 . S
C69 O76 1.240 . S
C69 O77 1.252 . S
C70 O73 1.252 . S
C70 O74 1.260 . S
O71 In65 2.266 . S
O71 C68 1.252 . S
O72 In65 2.326 . S
O72 C68 1.260 . S
O73 In65 2.266 . S
O73 C70 1.252 . S
O74 In65 2.326 . S
O74 C70 1.260 . S
C75 O66 1.240 . S
C75 O67 1.252 . S
O76 In65 2.294 . S
O76 C69 1.240 . S
O77 In65 2.326 . S
O77 C69 1.252 . S
In78 O79 2.294 . S
In78 O80 2.326 . S
In78 O84 2.266 . S
In78 O85 2.326 . S
In78 O86 2.266 . S
In78 O87 2.326 . S
In78 O89 2.294 . S
In78 O90 2.326 . S
O79 In78 2.294 . S
O79 C88 1.240 . S
O80 In78 2.326 . S
O80 C88 1.252 . S
C81 O84 1.252 . S
C81 O85 1.260 . S
C82 O89 1.240 . S
C82 O90 1.252 . S
C83 O86 1.252 . S
C83 O87 1.260 . S
O84 In78 2.266 . S
O84 C81 1.252 . S
O85 In78 2.326 . S
O85 C81 1.260 . S
O86 In78 2.266 . S
O86 C83 1.252 . S
O87 In78 2.326 . S
O87 C83 1.260 . S
C88 O79 1.240 . S
C88 O80 1.252 . S
O89 In78 2.294 . S
O89 C82 1.240 . S
O90 In78 2.326 . S
O90 C82 1.252 . S
In91 O92 2.294 . S
In91 O93 2.328 1_455 S
In91 O97 2.265 1_455 S
In91 O98 2.332 . S
In91 O99 2.264 1_455 S
In91 O100 2.323 1_455 S
In91 O102 2.296 . S
In91 O103 2.329 . S
O92 In91 2.294 . S
O92 C101 1.240 . S
O93 In91 2.328 1_655 S
O93 C101 1.252 1_655 S
C94 O97 1.254 1_455 S
C94 O98 1.258 . S
C95 O102 1.240 . S
C95 O103 1.252 . S
C96 O99 1.252 . S
C96 O100 1.260 . S
O97 In91 2.265 1_655 S
O97 C94 1.254 1_655 S
O98 In91 2.332 . S
O98 C94 1.258 . S
O99 In91 2.264 1_655 S
O99 C96 1.252 . S
O100 In91 2.323 1_655 S
O100 C96 1.260 . S
C101 O92 1.240 . S
C101 O93 1.252 1_455 S
O102 In91 2.296 . S
O102 C95 1.240 . S
O103 In91 2.329 . S
O103 C95 1.252 . S
In104 O105 2.294 . S
In104 O106 2.326 . S
In104 O110 2.266 . S
In104 O111 2.326 . S
In104 O112 2.266 1_545 S
In104 O113 2.326 1_545 S
In104 O115 2.294 . S
In104 O116 2.326 . S
O105 In104 2.294 . S
O105 C114 1.240 . S
O106 In104 2.326 . S
O106 C114 1.252 . S
C107 O110 1.252 . S
C107 O111 1.260 . S
C108 O115 1.240 . S
C108 O116 1.252 . S
C109 O112 1.252 . S
C109 O113 1.260 . S
O110 In104 2.266 . S
O110 C107 1.252 . S
O111 In104 2.326 . S
O111 C107 1.260 . S
O112 In104 2.266 1_565 S
O112 C109 1.252 . S
O113 In104 2.326 1_565 S
O113 C109 1.260 . S
C114 O105 1.240 . S
C114 O106 1.252 . S
O115 In104 2.294 . S
O115 C108 1.240 . S
O116 In104 2.326 . S
O116 C108 1.252 . S
In117 O118 2.294 . S
In117 O119 2.326 . S
In117 O123 2.266 . S
In117 O124 2.326 . S
In117 O125 2.266 . S
In117 O126 2.326 . S
In117 O128 2.294 . S
In117 O129 2.326 . S
O118 In117 2.294 . S
O118 C127 1.240 . S
O119 In117 2.326 . S
O119 C127 1.252 . S
C120 O123 1.252 . S
C120 O124 1.260 . S
C121 O128 1.240 . S
C121 O129 1.252 . S
C122 O125 1.252 . S
C122 O126 1.260 . S
O123 In117 2.266 . S
O123 C120 1.252 . S
O124 In117 2.326 . S
O124 C120 1.260 . S
O125 In117 2.266 . S
O125 C122 1.252 . S
O126 In117 2.326 . S
O126 C122 1.260 . S
C127 O118 1.240 . S
C127 O119 1.252 . S
O128 In117 2.294 . S
O128 C121 1.240 . S
O129 In117 2.326 . S
O129 C121 1.252 . S
In130 O131 2.294 . S
In130 O132 2.326 . S
In130 O136 2.266 . S
In130 O137 2.326 . S
In130 O138 2.266 . S
In130 O139 2.326 . S
In130 O141 2.294 . S
In130 O142 2.326 . S
O131 In130 2.294 . S
O131 C140 1.240 . S
O132 In130 2.326 . S
O132 C140 1.252 . S
C133 O136 1.252 . S
C133 O137 1.260 . S
C134 O141 1.240 . S
C134 O142 1.252 . S
C135 O138 1.252 . S
C135 O139 1.260 . S
O136 In130 2.266 . S
O136 C133 1.252 . S
O137 In130 2.326 . S
O137 C133 1.260 . S
O138 In130 2.266 . S
O138 C135 1.252 . S
O139 In130 2.326 . S
O139 C135 1.260 . S
C140 O131 1.240 . S
C140 O132 1.252 . S
O141 In130 2.294 . S
O141 C134 1.240 . S
O142 In130 2.326 . S
O142 C134 1.252 . S
In143 O144 2.296 . S
In143 O145 2.329 . S
In143 O149 2.264 1_554 S
In143 O150 2.322 1_554 S
In143 O151 2.266 1_554 S
In143 O152 2.322 1_554 S
In143 O154 2.294 . S
In143 O155 2.327 . S
O144 In143 2.296 . S
O144 C153 1.240 . S
O145 In143 2.329 . S
O145 C153 1.252 . S
C146 O149 1.252 . S
C146 O150 1.260 . S
C147 O154 1.240 . S
C147 O155 1.252 . S
C148 O151 1.252 . S
C148 O152 1.266 . S
O149 In143 2.264 1_556 S
O149 C146 1.252 . S
O150 In143 2.322 1_556 S
O150 C146 1.260 . S
O151 In143 2.266 1_556 S
O151 C148 1.252 . S
O152 In143 2.322 1_556 S
O152 C148 1.266 . S
C153 O144 1.240 . S
C153 O145 1.252 . S
O154 In143 2.294 . S
O154 C147 1.240 . S
O155 In143 2.327 . S
O155 C147 1.252 . S
In156 O157 2.294 . S
In156 O158 2.326 . S
In156 O162 2.266 . S
In156 O163 2.326 . S
In156 O164 2.266 . S
In156 O165 2.326 . S
In156 O167 2.294 . S
In156 O168 2.326 . S
O157 In156 2.294 . S
O157 C166 1.240 . S
O158 In156 2.326 . S
O158 C166 1.252 . S
C159 O162 1.252 . S
C159 O163 1.260 . S
C160 O167 1.240 . S
C160 O168 1.252 . S
C161 O164 1.252 . S
C161 O165 1.260 . S
O162 In156 2.266 . S
O162 C159 1.252 . S
O163 In156 2.326 . S
O163 C159 1.260 . S
O164 In156 2.266 . S
O164 C161 1.252 . S
O165 In156 2.326 . S
O165 C161 1.260 . S
C166 O157 1.240 . S
C166 O158 1.252 . S
O167 In156 2.294 . S
O167 C160 1.240 . S
O168 In156 2.326 . S
O168 C160 1.252 . S
In169 O170 2.294 . S
In169 O171 2.326 . S
In169 O175 2.266 . S
In169 O176 2.326 . S
In169 O177 2.266 . S
In169 O178 2.326 . S
In169 O180 2.294 . S
In169 O181 2.326 . S
O170 In169 2.294 . S
O170 C179 1.240 . S
O171 In169 2.326 . S
O171 C179 1.252 . S
C172 O175 1.252 . S
C172 O176 1.260 . S
C173 O180 1.240 . S
C173 O181 1.252 . S
C174 O177 1.252 . S
C174 O178 1.260 . S
O175 In169 2.266 . S
O175 C172 1.252 . S
O176 In169 2.326 . S
O176 C172 1.260 . S
O177 In169 2.266 . S
O177 C174 1.252 . S
O178 In169 2.326 . S
O178 C174 1.260 . S
C179 O170 1.240 . S
C179 O171 1.252 . S
O180 In169 2.294 . S
O180 C173 1.240 . S
O181 In169 2.326 . S
O181 C173 1.252 . S
In182 O183 2.294 . S
In182 O184 2.326 . S
In182 O188 2.266 . S
In182 O189 2.326 . S
In182 O190 2.266 . S
In182 O191 2.326 . S
In182 O193 2.294 . S
In182 O194 2.326 . S
O183 In182 2.294 . S
O183 C192 1.240 . S
O184 In182 2.326 . S
O184 C192 1.252 . S
C185 O188 1.252 . S
C185 O189 1.260 . S
C186 O193 1.240 . S
C186 O194 1.252 . S
C187 O190 1.252 . S
C187 O191 1.260 . S
O188 In182 2.266 . S
O188 C185 1.252 . S
O189 In182 2.326 . S
O189 C185 1.260 . S
O190 In182 2.266 . S
O190 C187 1.252 . S
O191 In182 2.326 . S
O191 C187 1.260 . S
C192 O183 1.240 . S
C192 O184 1.252 . S
O193 In182 2.294 . S
O193 C186 1.240 . S
O194 In182 2.326 . S
O194 C186 1.252 . S
In195 O196 2.294 . S
In195 O197 2.326 . S
In195 O201 2.266 . S
In195 O202 2.326 . S
In195 O203 2.266 . S
In195 O204 2.326 . S
In195 O206 2.294 . S
In195 O207 2.326 . S
O196 In195 2.294 . S
O196 C205 1.240 . S
O197 In195 2.326 . S
O197 C205 1.252 . S
C198 O201 1.252 . S
C198 O202 1.260 . S
C199 O206 1.240 . S
C199 O207 1.252 . S
C200 O203 1.252 . S
C200 O204 1.260 . S
O201 In195 2.266 . S
O201 C198 1.252 . S
O202 In195 2.326 . S
O202 C198 1.260 . S
O203 In195 2.266 . S
O203 C200 1.252 . S
O204 In195 2.326 . S
O204 C200 1.260 . S
C205 O196 1.240 . S
C205 O197 1.252 . S
O206 In195 2.294 . S
O206 C199 1.240 . S
O207 In195 2.326 . S
O207 C199 1.252 . S
In208 O209 2.294 . S
In208 O210 2.326 . S
In208 O214 2.266 . S
In208 O215 2.326 . S
In208 O216 2.266 1_545 S
In208 O217 2.326 1_545 S
In208 O219 2.294 . S
In208 O220 2.326 . S
O209 In208 2.294 . S
O209 C218 1.240 . S
O210 In208 2.326 . S
O210 C218 1.252 . S
C211 O214 1.252 . S
C211 O215 1.260 . S
C212 O219 1.240 . S
C212 O220 1.252 . S
C213 O216 1.252 . S
C213 O217 1.260 . S
O214 In208 2.266 . S
O214 C211 1.252 . S
O215 In208 2.326 . S
O215 C211 1.260 . S
O216 In208 2.266 1_565 S
O216 C213 1.252 . S
O217 In208 2.326 1_565 S
O217 C213 1.260 . S
C218 O209 1.240 . S
C218 O210 1.252 . S
O219 In208 2.294 . S
O219 C212 1.240 . S
O220 In208 2.326 . S
O220 C212 1.252 . S
In221 O222 2.294 . S
In221 O223 2.326 . S
In221 O227 2.266 . S
In221 O228 2.326 . S
In221 O229 2.266 . S
In221 O230 2.326 . S
In221 O232 2.294 . S
In221 O233 2.326 . S
O222 In221 2.294 . S
O222 C231 1.240 . S
O223 In221 2.326 . S
O223 C231 1.252 . S
C224 O227 1.252 . S
C224 O228 1.260 . S
C225 O232 1.240 . S
C225 O233 1.252 . S
C226 O229 1.252 . S
C226 O230 1.260 . S
O227 In221 2.266 . S
O227 C224 1.252 . S
O228 In221 2.326 . S
O228 C224 1.260 . S
O229 In221 2.266 . S
O229 C226 1.252 . S
O230 In221 2.326 . S
O230 C226 1.260 . S
C231 O222 1.240 . S
C231 O223 1.252 . S
O232 In221 2.294 . S
O232 C225 1.240 . S
O233 In221 2.326 . S
O233 C225 1.252 . S
In234 O235 2.294 . S
In234 O236 2.326 . S
In234 O240 2.266 . S
In234 O241 2.326 . S
In234 O242 2.266 . S
In234 O243 2.326 . S
In234 O245 2.294 . S
In234 O246 2.326 . S
O235 In234 2.294 . S
O235 C244 1.240 . S
O236 In234 2.326 . S
O236 C244 1.252 . S
C237 O240 1.252 . S
C237 O241 1.260 . S
C238 O245 1.240 . S
C238 O246 1.252 . S
C239 O242 1.252 . S
C239 O243 1.260 . S
O240 In234 2.266 . S
O240 C237 1.252 . S
O241 In234 2.326 . S
O241 C237 1.260 . S
O242 In234 2.266 . S
O242 C239 1.252 . S
O243 In234 2.326 . S
O243 C239 1.260 . S
C244 O235 1.240 . S
C244 O236 1.252 . S
O245 In234 2.294 . S
O245 C238 1.240 . S
O246 In234 2.326 . S
O246 C238 1.252 . S
In247 O248 2.294 . S
In247 O249 2.326 . S
In247 O253 2.266 . S
In247 O254 2.326 . S
In247 O255 2.266 . S
In247 O256 2.326 . S
In247 O258 2.294 . S
In247 O259 2.326 . S
O248 In247 2.294 . S
O248 C257 1.240 . S
O249 In247 2.326 . S
O249 C257 1.252 . S
C250 O253 1.252 . S
C250 O254 1.260 . S
C251 O258 1.240 . S
C251 O259 1.252 . S
C252 O255 1.252 . S
C252 O256 1.260 . S
O253 In247 2.266 . S
O253 C250 1.252 . S
O254 In247 2.326 . S
O254 C250 1.260 . S
O255 In247 2.266 . S
O255 C252 1.252 . S
O256 In247 2.326 . S
O256 C252 1.260 . S
C257 O248 1.240 . S
C257 O249 1.252 . S
O258 In247 2.294 . S
O258 C251 1.240 . S
O259 In247 2.326 . S
O259 C251 1.252 . S
In260 O261 2.294 . S
In260 O262 2.326 . S
In260 O266 2.266 . S
In260 O267 2.326 . S
In260 O268 2.266 1_554 S
In260 O269 2.326 1_554 S
In260 O271 2.294 . S
In260 O272 2.326 . S
O261 In260 2.294 . S
O261 C270 1.240 . S
O262 In260 2.326 . S
O262 C270 1.252 . S
C263 O266 1.252 . S
C263 O267 1.260 . S
C264 O271 1.240 . S
C264 O272 1.252 . S
C265 O268 1.252 . S
C265 O269 1.260 . S
O266 In260 2.266 . S
O266 C263 1.252 . S
O267 In260 2.326 . S
O267 C263 1.260 . S
O268 In260 2.266 1_556 S
O268 C265 1.252 . S
O269 In260 2.326 1_556 S
O269 C265 1.260 . S
C270 O261 1.240 . S
C270 O262 1.252 . S
O271 In260 2.294 . S
O271 C264 1.240 . S
O272 In260 2.326 . S
O272 C264 1.252 . S
In273 O274 2.294 . S
In273 O275 2.326 . S
In273 O279 2.266 . S
In273 O280 2.326 . S
In273 O281 2.266 . S
In273 O282 2.326 . S
In273 O284 2.294 . S
In273 O285 2.326 . S
O274 In273 2.294 . S
O274 C283 1.240 . S
O275 In273 2.326 . S
O275 C283 1.252 . S
C276 O279 1.252 . S
C276 O280 1.260 . S
C277 O284 1.240 . S
C277 O285 1.252 . S
C278 O281 1.252 . S
C278 O282 1.260 . S
O279 In273 2.266 . S
O279 C276 1.252 . S
O280 In273 2.326 . S
O280 C276 1.260 . S
O281 In273 2.266 . S
O281 C278 1.252 . S
O282 In273 2.326 . S
O282 C278 1.260 . S
C283 O274 1.240 . S
C283 O275 1.252 . S
O284 In273 2.294 . S
O284 C277 1.240 . S
O285 In273 2.326 . S
O285 C277 1.252 . S
In286 O287 2.294 . S
In286 O288 2.326 . S
In286 O292 2.266 . S
In286 O293 2.326 . S
In286 O294 2.266 . S
In286 O295 2.326 . S
In286 O297 2.294 . S
In286 O298 2.326 . S
O287 In286 2.294 . S
O287 C296 1.240 . S
O288 In286 2.326 . S
O288 C296 1.252 . S
C289 O292 1.252 . S
C289 O293 1.260 . S
C290 O297 1.240 . S
C290 O298 1.252 . S
C291 O294 1.252 . S
C291 O295 1.260 . S
O292 In286 2.266 . S
O292 C289 1.252 . S
O293 In286 2.326 . S
O293 C289 1.260 . S
O294 In286 2.266 . S
O294 C291 1.252 . S
O295 In286 2.326 . S
O295 C291 1.260 . S
C296 O287 1.240 . S
C296 O288 1.252 . S
O297 In286 2.294 . S
O297 C290 1.240 . S
O298 In286 2.326 . S
O298 C290 1.252 . S
In299 O300 2.294 . S
In299 O301 2.326 . S
In299 O305 2.266 . S
In299 O306 2.326 . S
In299 O307 2.266 . S
In299 O308 2.326 . S
In299 O310 2.294 . S
In299 O311 2.326 . S
O300 In299 2.294 . S
O300 C309 1.240 . S
O301 In299 2.326 . S
O301 C309 1.252 . S
C302 O305 1.252 . S
C302 O306 1.260 . S
C303 O310 1.240 . S
C303 O311 1.252 . S
C304 O307 1.252 . S
C304 O308 1.260 . S
O305 In299 2.266 . S
O305 C302 1.252 . S
O306 In299 2.326 . S
O306 C302 1.260 . S
O307 In299 2.266 . S
O307 C304 1.252 . S
O308 In299 2.326 . S
O308 C304 1.260 . S
C309 O300 1.240 . S
C309 O301 1.252 . S
O310 In299 2.294 . S
O310 C303 1.240 . S
O311 In299 2.326 . S
O311 C303 1.252 . S
Eu312 N341 2.600 . S
Eu312 N347 2.562 . S
Eu312 O356 2.462 . S
Eu312 O357 2.373 . S
Eu312 O359 2.432 . S
Eu312 O360 2.291 . S
Eu312 O364 2.335 . S
Eu312 O367 2.372 . S
Eu312 C376 2.787 . S
C313 N314 1.365 1_564 S
C313 C316 1.405 1_554 S
C313 C320 1.448 . S
N314 C313 1.365 1_546 S
N314 C317 1.302 1_655 S
N314 Eu323 2.600 1_656 S
C315 C317 1.395 1_665 S
C315 C318 1.367 . S
C315 H335 0.951 . S
C316 C313 1.405 1_556 S
C316 C318 1.403 . S
C316 C322 1.439 . S
C317 N314 1.302 1_455 S
C317 C315 1.395 1_445 S
C317 H328 0.953 . S
C318 C315 1.367 . S
C318 C316 1.403 . S
C318 H339 0.929 . S
C319 C320 1.430 . S
C319 C321 1.387 . S
C319 C325 1.404 . S
C320 C313 1.448 . S
C320 C319 1.430 . S
C320 N324 1.351 1_565 S
C321 C319 1.387 . S
C321 C322 1.374 1_554 S
C321 H336 0.931 . S
C322 C316 1.439 . S
C322 C321 1.374 1_556 S
C322 H337 0.931 . S
Eu323 N314 2.600 1_454 S
Eu323 N324 2.562 1_455 S
Eu323 O358 2.335 . S
Eu323 O361 2.375 . S
Eu323 O362 2.462 1_455 S
Eu323 O363 2.373 . S
Eu323 O365 2.432 1_455 S
Eu323 O366 2.291 . S
Eu323 C387 2.787 1_455 S
N324 C320 1.351 1_545 S
N324 Eu323 2.562 1_655 S
N324 C326 1.325 . S
C325 C319 1.404 . S
C325 C327 1.366 . S
C325 H333 0.930 . S
C326 N324 1.325 . S
C326 C327 1.416 1_545 S
C326 H332 0.929 . S
C327 C325 1.366 . S
C327 C326 1.416 1_565 S
C327 H329 0.930 . S
H328 C317 0.953 . S
H329 C327 0.930 . S
H330 C345 0.930 . S
H331 C352 0.930 . S
H332 C326 0.929 . S
H333 C325 0.930 . S
H334 C348 0.929 . S
H335 C315 0.951 . S
H336 C321 0.931 . S
H337 C322 0.931 . S
H338 C343 0.931 . S
H339 C318 0.929 . S
H340 C351 0.930 . S
N341 Eu312 2.600 . S
N341 C342 1.365 . S
N341 C345 1.319 . S
C342 N341 1.365 . S
C342 C344 1.405 . S
C342 C350 1.448 . S
C343 H338 0.931 . S
C343 C345 1.397 . S
C343 C346 1.367 . S
C344 C342 1.405 . S
C344 C346 1.403 . S
C344 C377 1.439 . S
C345 H330 0.930 . S
C345 N341 1.319 . S
C345 C343 1.397 . S
C346 C343 1.367 . S
C346 C344 1.403 . S
C346 H353 0.929 . S
N347 Eu312 2.562 . S
N347 C348 1.325 . S
N347 C350 1.351 . S
C348 H334 0.929 . S
C348 N347 1.325 . S
C348 C352 1.416 . S
C349 C350 1.430 . S
C349 C351 1.404 . S
C349 C378 1.387 . S
C350 C342 1.448 . S
C350 N347 1.351 . S
C350 C349 1.430 . S
C351 H340 0.930 . S
C351 C349 1.404 . S
C351 C352 1.366 . S
C352 H331 0.930 . S
C352 C348 1.416 . S
C352 C351 1.366 . S
H353 C346 0.929 . S
H354 C377 0.931 . S
H355 C378 0.931 . S
O356 Eu312 2.462 . S
O356 C376 1.252 . S
O357 Eu312 2.373 . S
O357 C368 1.249 . S
O358 Eu323 2.335 . S
O358 C368 1.264 . S
O359 Eu312 2.432 . S
O359 C376 1.268 . S
O360 Eu312 2.291 . S
O360 C375 1.255 . S
O361 Eu323 2.375 . S
O361 C375 1.257 . S
O362 Eu323 2.462 1_655 S
O362 C387 1.252 . S
O363 Eu323 2.373 . S
O363 C379 1.249 . S
O364 Eu312 2.335 . S
O364 C379 1.264 . S
O365 Eu323 2.432 1_655 S
O365 C387 1.268 . S
O366 Eu323 2.291 . S
O366 C386 1.255 . S
O367 Eu312 2.372 . S
O367 C386 1.257 . S
C368 O357 1.249 . S
C368 O358 1.264 . S
C369 C372 1.382 . S
C369 C374 1.390 . S
C369 C376 1.506 . S
C370 C371 1.398 . S
C370 C374 1.392 . S
C371 C370 1.398 . S
C371 C373 1.372 . S
C371 H388 0.931 . S
C372 C369 1.382 . S
C372 C373 1.390 . S
C372 H389 0.931 . S
C373 C371 1.372 . S
C373 C372 1.390 . S
C373 H390 0.929 . S
C374 C369 1.390 . S
C374 C370 1.392 . S
C374 H391 0.930 . S
C375 O360 1.255 . S
C375 O361 1.257 . S
C376 Eu312 2.787 . S
C376 O356 1.252 . S
C376 O359 1.268 . S
C376 C369 1.506 . S
C377 C344 1.439 . S
C377 H354 0.931 . S
C377 C378 1.374 . S
C378 C349 1.387 . S
C378 H355 0.931 . S
C378 C377 1.374 . S
C379 O363 1.249 . S
C379 O364 1.264 . S
C380 C383 1.382 1_554 S
C380 C384 1.390 . S
C380 C387 1.506 . S
C381 C382 1.398 . S
C381 C384 1.392 . S
C382 C381 1.398 . S
C382 C385 1.372 1_554 S
C382 H392 0.931 . S
C383 C380 1.382 1_556 S
C383 C385 1.390 . S
C383 H393 0.931 . S
C384 C380 1.390 . S
C384 C381 1.392 . S
C384 H394 0.930 . S
C385 C382 1.372 1_556 S
C385 C383 1.390 . S
C385 H395 0.929 . S
C386 O366 1.255 . S
C386 O367 1.257 . S
C387 Eu323 2.787 1_655 S
C387 O362 1.252 . S
C387 O365 1.268 . S
C387 C380 1.506 . S
H388 C371 0.931 . S
H389 C372 0.931 . S
H390 C373 0.929 . S
H391 C374 0.930 . S
H392 C382 0.931 . S
H393 C383 0.931 . S
H394 C384 0.930 . S
H395 C385 0.929 . S
Eu396 N425 2.600 . S
Eu396 N431 2.562 . S
Eu396 O440 2.462 . S
Eu396 O441 2.373 . S
Eu396 O443 2.432 . S
Eu396 O444 2.291 . S
Eu396 O448 2.335 . S
Eu396 O451 2.372 . S
Eu396 C460 2.787 . S
C397 N398 1.365 . S
C397 C400 1.405 . S
C397 C404 1.448 . S
N398 C397 1.365 . S
N398 C401 1.319 . S
N398 Eu407 2.600 . S
C399 C401 1.397 . S
C399 C402 1.367 . S
C399 H419 0.931 . S
C400 C397 1.405 . S
C400 C402 1.403 . S
C400 C406 1.439 . S
C401 N398 1.319 . S
C401 C399 1.397 . S
C401 H412 0.930 . S
C402 C399 1.367 . S
C402 C400 1.403 . S
C402 H423 0.929 . S
C403 C404 1.430 . S
C403 C405 1.387 . S
C403 C409 1.404 . S
C404 C397 1.448 . S
C404 C403 1.430 . S
C404 N408 1.351 . S
C405 C403 1.387 . S
C405 C406 1.374 . S
C405 H420 0.931 . S
C406 C400 1.439 . S
C406 C405 1.374 . S
C406 H421 0.931 . S
Eu407 N398 2.600 . S
Eu407 N408 2.562 . S
Eu407 O442 2.335 . S
Eu407 O445 2.372 . S
Eu407 O446 2.462 . S
Eu407 O447 2.373 . S
Eu407 O449 2.432 . S
Eu407 O450 2.291 . S
Eu407 C471 2.787 . S
N408 C404 1.351 . S
N408 Eu407 2.562 . S
N408 C410 1.325 . S
C409 C403 1.404 . S
C409 C411 1.366 . S
C409 H417 0.930 . S
C410 N408 1.325 . S
C410 C411 1.416 . S
C410 H416 0.929 . S
C411 C409 1.366 . S
C411 C410 1.416 . S
C411 H413 0.930 . S
H412 C401 0.930 . S
H413 C411 0.930 . S
H414 C429 0.930 . S
H415 C436 0.930 . S
H416 C410 0.929 . S
H417 C409 0.930 . S
H418 C432 0.929 . S
H419 C399 0.931 . S
H420 C405 0.931 . S
H421 C406 0.931 . S
H422 C427 0.931 . S
H423 C402 0.929 . S
H424 C435 0.930 . S
N425 Eu396 2.600 . S
N425 C426 1.365 . S
N425 C429 1.319 . S
C426 N425 1.365 . S
C426 C428 1.405 . S
C426 C434 1.448 . S
C427 H422 0.931 . S
C427 C429 1.397 . S
C427 C430 1.367 . S
C428 C426 1.405 . S
C428 C430 1.403 . S
C428 C461 1.439 . S
C429 H414 0.930 . S
C429 N425 1.319 . S
C429 C427 1.397 . S
C430 C427 1.367 . S
C430 C428 1.403 . S
C430 H437 0.929 . S
N431 Eu396 2.562 . S
N431 C432 1.325 . S
N431 C434 1.351 . S
C432 H418 0.929 . S
C432 N431 1.325 . S
C432 C436 1.416 . S
C433 C434 1.430 . S
C433 C435 1.404 . S
C433 C462 1.387 . S
C434 C426 1.448 . S
C434 N431 1.351 . S
C434 C433 1.430 . S
C435 H424 0.930 . S
C435 C433 1.404 . S
C435 C436 1.366 . S
C436 H415 0.930 . S
C436 C432 1.416 . S
C436 C435 1.366 . S
H437 C430 0.929 . S
H438 C461 0.931 . S
H439 C462 0.931 . S
O440 Eu396 2.462 . S
O440 C460 1.252 . S
O441 Eu396 2.373 . S
O441 C452 1.249 . S
O442 Eu407 2.335 . S
O442 C452 1.264 . S
O443 Eu396 2.432 . S
O443 C460 1.268 . S
O444 Eu396 2.291 . S
O444 C459 1.255 . S
O445 Eu407 2.372 . S
O445 C459 1.257 . S
O446 Eu407 2.462 . S
O446 C471 1.252 . S
O447 Eu407 2.373 . S
O447 C463 1.249 . S
O448 Eu396 2.335 . S
O448 C463 1.264 . S
O449 Eu407 2.432 . S
O449 C471 1.268 . S
O450 Eu407 2.291 . S
O450 C470 1.255 . S
O451 Eu396 2.372 . S
O451 C470 1.257 . S
C452 O441 1.249 . S
C452 O442 1.264 . S
C453 C456 1.382 . S
C453 C458 1.390 . S
C453 C460 1.506 . S
C454 C455 1.398 . S
C454 C458 1.392 . S
C455 C454 1.398 . S
C455 C457 1.372 . S
C455 H472 0.931 . S
C456 C453 1.382 . S
C456 C457 1.390 . S
C456 H473 0.931 . S
C457 C455 1.372 . S
C457 C456 1.390 . S
C457 H474 0.929 . S
C458 C453 1.390 . S
C458 C454 1.392 . S
C458 H475 0.930 . S
C459 O444 1.255 . S
C459 O445 1.257 . S
C460 Eu396 2.787 . S
C460 O440 1.252 . S
C460 O443 1.268 . S
C460 C453 1.506 . S
C461 C428 1.439 . S
C461 H438 0.931 . S
C461 C462 1.374 . S
C462 C433 1.387 . S
C462 H439 0.931 . S
C462 C461 1.374 . S
C463 O447 1.249 . S
C463 O448 1.264 . S
C464 C467 1.382 . S
C464 C468 1.390 . S
C464 C471 1.506 . S
C465 C466 1.398 . S
C465 C468 1.392 . S
C466 C465 1.398 . S
C466 C469 1.372 . S
C466 H476 0.931 . S
C467 C464 1.382 . S
C467 C469 1.390 . S
C467 H477 0.931 . S
C468 C464 1.390 . S
C468 C465 1.392 . S
C468 H478 0.930 . S
C469 C466 1.372 . S
C469 C467 1.390 . S
C469 H479 0.929 . S
C470 O450 1.255 . S
C470 O451 1.257 . S
C471 Eu407 2.787 . S
C471 O446 1.252 . S
C471 O449 1.268 . S
C471 C464 1.506 . S
H472 C455 0.931 . S
H473 C456 0.931 . S
H474 C457 0.929 . S
H475 C458 0.930 . S
H476 C466 0.931 . S
H477 C467 0.931 . S
H478 C468 0.930 . S
H479 C469 0.929 . S
Eu480 N509 2.600 1_545 S
Eu480 N515 2.562 1_545 S
Eu480 O524 2.462 . S
Eu480 O525 2.373 1_545 S
Eu480 O527 2.432 . S
Eu480 O528 2.291 . S
Eu480 O532 2.335 . S
Eu480 O535 2.372 . S
Eu480 C544 2.787 . S
C481 N482 1.365 . S
C481 C484 1.405 . S
C481 C488 1.448 . S
N482 C481 1.365 . S
N482 C485 1.319 . S
N482 Eu491 2.600 . S
C483 C485 1.397 . S
C483 C486 1.367 . S
C483 H503 0.931 . S
C484 C481 1.405 . S
C484 C486 1.403 . S
C484 C490 1.439 . S
C485 N482 1.319 . S
C485 C483 1.397 . S
C485 H496 0.930 . S
C486 C483 1.367 . S
C486 C484 1.403 . S
C486 H507 0.929 . S
C487 C488 1.430 . S
C487 C489 1.387 . S
C487 C493 1.404 . S
C488 C481 1.448 . S
C488 C487 1.430 . S
C488 N492 1.351 . S
C489 C487 1.387 . S
C489 C490 1.374 . S
C489 H504 0.931 . S
C490 C484 1.439 . S
C490 C489 1.374 . S
C490 H505 0.931 . S
Eu491 N482 2.600 . S
Eu491 N492 2.562 . S
Eu491 O526 2.335 1_545 S
Eu491 O529 2.372 . S
Eu491 O530 2.462 . S
Eu491 O531 2.373 . S
Eu491 O533 2.432 . S
Eu491 O534 2.291 . S
Eu491 C555 2.787 . S
N492 C488 1.351 . S
N492 Eu491 2.562 . S
N492 C494 1.325 . S
C493 C487 1.404 . S
C493 C495 1.366 . S
C493 H501 0.930 . S
C494 N492 1.325 . S
C494 C495 1.416 . S
C494 H500 0.929 . S
C495 C493 1.366 . S
C495 C494 1.416 . S
C495 H497 0.930 . S
H496 C485 0.930 . S
H497 C495 0.930 . S
H498 C513 0.930 1_545 S
H499 C520 0.930 . S
H500 C494 0.929 . S
H501 C493 0.930 . S
H502 C516 0.929 . S
H503 C483 0.931 . S
H504 C489 0.931 . S
H505 C490 0.931 . S
H506 C511 0.931 . S
H507 C486 0.929 . S
H508 C519 0.930 . S
N509 Eu480 2.600 1_565 S
N509 C510 1.365 . S
N509 C513 1.319 . S
C510 N509 1.365 . S
C510 C512 1.405 . S
C510 C518 1.448 . S
C511 H506 0.931 . S
C511 C513 1.397 . S
C511 C514 1.367 . S
C512 C510 1.405 . S
C512 C514 1.403 . S
C512 C545 1.439 . S
C513 H498 0.930 1_565 S
C513 N509 1.319 . S
C513 C511 1.397 . S
C514 C511 1.367 . S
C514 C512 1.403 . S
C514 H521 0.929 . S
N515 Eu480 2.562 1_565 S
N515 C516 1.325 . S
N515 C518 1.351 . S
C516 H502 0.929 . S
C516 N515 1.325 . S
C516 C520 1.416 . S
C517 C518 1.430 . S
C517 C519 1.404 . S
C517 C546 1.387 . S
C518 C510 1.448 . S
C518 N515 1.351 . S
C518 C517 1.430 . S
C519 H508 0.930 . S
C519 C517 1.404 . S
C519 C520 1.366 . S
C520 H499 0.930 . S
C520 C516 1.416 . S
C520 C519 1.366 . S
H521 C514 0.929 . S
H522 C545 0.931 . S
H523 C546 0.931 . S
O524 Eu480 2.462 . S
O524 C544 1.252 . S
O525 Eu480 2.373 1_565 S
O525 C536 1.249 . S
O526 Eu491 2.335 1_565 S
O526 C536 1.264 . S
O527 Eu480 2.432 . S
O527 C544 1.268 . S
O528 Eu480 2.291 . S
O528 C543 1.255 . S
O529 Eu491 2.372 . S
O529 C543 1.257 . S
O530 Eu491 2.462 . S
O530 C555 1.252 . S
O531 Eu491 2.373 . S
O531 C547 1.249 . S
O532 Eu480 2.335 . S
O532 C547 1.264 . S
O533 Eu491 2.432 . S
O533 C555 1.268 . S
O534 Eu491 2.291 . S
O534 C554 1.255 . S
O535 Eu480 2.372 . S
O535 C554 1.257 . S
C536 O525 1.249 . S
C536 O526 1.264 . S
C537 C540 1.382 . S
C537 C542 1.390 . S
C537 C544 1.506 . S
C538 C539 1.398 . S
C538 C542 1.392 . S
C539 C538 1.398 . S
C539 C541 1.372 . S
C539 H556 0.931 . S
C540 C537 1.382 . S
C540 C541 1.390 . S
C540 H557 0.931 . S
C541 C539 1.372 . S
C541 C540 1.390 . S
C541 H558 0.929 . S
C542 C537 1.390 . S
C542 C538 1.392 . S
C542 H559 0.930 . S
C543 O528 1.255 . S
C543 O529 1.257 . S
C544 Eu480 2.787 . S
C544 O524 1.252 . S
C544 O527 1.268 . S
C544 C537 1.506 . S
C545 C512 1.439 . S
C545 H522 0.931 . S
C545 C546 1.374 . S
C546 C517 1.387 . S
C546 H523 0.931 . S
C546 C545 1.374 . S
C547 O531 1.249 . S
C547 O532 1.264 . S
C548 C551 1.382 . S
C548 C552 1.390 . S
C548 C555 1.506 1_565 S
C549 C550 1.398 . S
C549 C552 1.392 . S
C550 C549 1.398 . S
C550 C553 1.372 . S
C550 H560 0.931 . S
C551 C548 1.382 . S
C551 C553 1.390 . S
C551 H561 0.931 . S
C552 C548 1.390 . S
C552 C549 1.392 . S
C552 H562 0.930 . S
C553 C550 1.372 . S
C553 C551 1.390 . S
C553 H563 0.929 . S
C554 O534 1.255 . S
C554 O535 1.257 . S
C555 Eu491 2.787 . S
C555 O530 1.252 . S
C555 O533 1.268 . S
C555 C548 1.506 1_545 S
H556 C539 0.931 . S
H557 C540 0.931 . S
H558 C541 0.929 . S
H559 C542 0.930 . S
H560 C550 0.931 . S
H561 C551 0.931 . S
H562 C552 0.930 . S
H563 C553 0.929 . S
Eu564 N593 2.600 . S
Eu564 N599 2.562 . S
Eu564 O608 2.462 . S
Eu564 O609 2.373 . S
Eu564 O611 2.432 . S
Eu564 O612 2.291 . S
Eu564 O616 2.335 . S
Eu564 O619 2.372 . S
Eu564 C628 2.787 . S
C565 N566 1.365 . S
C565 C568 1.405 . S
C565 C572 1.448 . S
N566 C565 1.365 . S
N566 C569 1.319 . S
N566 Eu575 2.600 . S
C567 C569 1.397 . S
C567 C570 1.367 . S
C567 H587 0.931 . S
C568 C565 1.405 . S
C568 C570 1.403 . S
C568 C574 1.439 . S
C569 N566 1.319 . S
C569 C567 1.397 . S
C569 H580 0.930 . S
C570 C567 1.367 . S
C570 C568 1.403 . S
C570 H591 0.929 . S
C571 C572 1.430 . S
C571 C573 1.387 . S
C571 C577 1.404 . S
C572 C565 1.448 . S
C572 C571 1.430 . S
C572 N576 1.351 . S
C573 C571 1.387 . S
C573 C574 1.374 . S
C573 H588 0.931 . S
C574 C568 1.439 . S
C574 C573 1.374 . S
C574 H589 0.931 . S
Eu575 N566 2.600 . S
Eu575 N576 2.562 . S
Eu575 O610 2.335 . S
Eu575 O613 2.372 . S
Eu575 O614 2.462 . S
Eu575 O615 2.373 . S
Eu575 O617 2.432 . S
Eu575 O618 2.291 . S
Eu575 C639 2.787 . S
N576 C572 1.351 . S
N576 Eu575 2.562 . S
N576 C578 1.325 . S
C577 C571 1.404 . S
C577 C579 1.366 . S
C577 H585 0.930 . S
C578 N576 1.325 . S
C578 C579 1.416 . S
C578 H584 0.929 . S
C579 C577 1.366 . S
C579 C578 1.416 . S
C579 H581 0.930 . S
H580 C569 0.930 . S
H581 C579 0.930 . S
H582 C597 0.930 . S
H583 C604 0.930 . S
H584 C578 0.929 . S
H585 C577 0.930 . S
H586 C600 0.929 . S
H587 C567 0.931 . S
H588 C573 0.931 . S
H589 C574 0.931 . S
H590 C595 0.931 . S
H591 C570 0.929 . S
H592 C603 0.930 . S
N593 Eu564 2.600 . S
N593 C594 1.365 . S
N593 C597 1.319 . S
C594 N593 1.365 . S
C594 C596 1.405 . S
C594 C602 1.448 . S
C595 H590 0.931 . S
C595 C597 1.397 . S
C595 C598 1.367 . S
C596 C594 1.405 . S
C596 C598 1.403 . S
C596 C629 1.439 . S
C597 H582 0.930 . S
C597 N593 1.319 . S
C597 C595 1.397 . S
C598 C595 1.367 . S
C598 C596 1.403 . S
C598 H605 0.929 . S
N599 Eu564 2.562 . S
N599 C600 1.325 . S
N599 C602 1.351 . S
C600 H586 0.929 . S
C600 N599 1.325 . S
C600 C604 1.416 . S
C601 C602 1.430 . S
C601 C603 1.404 . S
C601 C630 1.387 . S
C602 C594 1.448 . S
C602 N599 1.351 . S
C602 C601 1.430 . S
C603 H592 0.930 . S
C603 C601 1.404 . S
C603 C604 1.366 . S
C604 H583 0.930 . S
C604 C600 1.416 . S
C604 C603 1.366 . S
H605 C598 0.929 . S
H606 C629 0.931 . S
H607 C630 0.931 . S
O608 Eu564 2.462 . S
O608 C628 1.252 . S
O609 Eu564 2.373 . S
O609 C620 1.249 . S
O610 Eu575 2.335 . S
O610 C620 1.264 . S
O611 Eu564 2.432 . S
O611 C628 1.268 . S
O612 Eu564 2.291 . S
O612 C627 1.255 . S
O613 Eu575 2.372 . S
O613 C627 1.257 . S
O614 Eu575 2.462 . S
O614 C639 1.252 . S
O615 Eu575 2.373 . S
O615 C631 1.249 . S
O616 Eu564 2.335 . S
O616 C631 1.264 . S
O617 Eu575 2.432 . S
O617 C639 1.268 . S
O618 Eu575 2.291 . S
O618 C638 1.255 . S
O619 Eu564 2.372 . S
O619 C638 1.257 . S
C620 O609 1.249 . S
C620 O610 1.264 . S
C621 C624 1.382 . S
C621 C626 1.390 . S
C621 C628 1.506 . S
C622 C623 1.398 . S
C622 C626 1.392 . S
C623 C622 1.398 . S
C623 C625 1.372 . S
C623 H640 0.931 . S
C624 C621 1.382 . S
C624 C625 1.390 . S
C624 H641 0.931 . S
C625 C623 1.372 . S
C625 C624 1.390 . S
C625 H642 0.929 . S
C626 C621 1.390 . S
C626 C622 1.392 . S
C626 H643 0.930 . S
C627 O612 1.255 . S
C627 O613 1.257 . S
C628 Eu564 2.787 . S
C628 O608 1.252 . S
C628 O611 1.268 . S
C628 C621 1.506 . S
C629 C596 1.439 . S
C629 H606 0.931 . S
C629 C630 1.374 . S
C630 C601 1.387 . S
C630 H607 0.931 . S
C630 C629 1.374 . S
C631 O615 1.249 . S
C631 O616 1.264 . S
C632 C635 1.382 . S
C632 C636 1.390 . S
C632 C639 1.506 . S
C633 C634 1.398 . S
C633 C636 1.392 . S
C634 C633 1.398 . S
C634 C637 1.372 . S
C634 H644 0.931 . S
C635 C632 1.382 . S
C635 C637 1.390 . S
C635 H645 0.931 . S
C636 C632 1.390 . S
C636 C633 1.392 . S
C636 H646 0.930 . S
C637 C634 1.372 . S
C637 C635 1.390 . S
C637 H647 0.929 . S
C638 O618 1.255 . S
C638 O619 1.257 . S
C639 Eu575 2.787 . S
C639 O614 1.252 . S
C639 O617 1.268 . S
C639 C632 1.506 . S
H640 C623 0.931 . S
H641 C624 0.931 . S
H642 C625 0.929 . S
H643 C626 0.930 . S
H644 C634 0.931 . S
H645 C635 0.931 . S
H646 C636 0.930 . S
H647 C637 0.929 . S
Eu648 N677 2.600 . S
Eu648 N683 2.562 . S
Eu648 O692 2.462 . S
Eu648 O693 2.373 1_565 S
Eu648 O695 2.432 . S
Eu648 O696 2.291 . S
Eu648 O700 2.335 1_565 S
Eu648 O703 2.372 1_565 S
Eu648 C712 2.787 . S
C649 N650 1.365 . S
C649 C652 1.405 . S
C649 C656 1.448 . S
N650 C649 1.365 . S
N650 C653 1.319 1_455 S
N650 Eu659 2.600 . S
C651 C653 1.397 . S
C651 C654 1.367 . S
C651 H671 0.931 . S
C652 C649 1.405 . S
C652 C654 1.403 1_455 S
C652 C658 1.439 . S
C653 N650 1.319 1_655 S
C653 C651 1.397 . S
C653 H664 0.930 . S
C654 C651 1.367 . S
C654 C652 1.403 1_655 S
C654 H675 0.929 . S
C655 C656 1.430 . S
C655 C657 1.387 . S
C655 C661 1.404 . S
C656 C649 1.448 . S
C656 C655 1.430 . S
C656 N660 1.351 . S
C657 C655 1.387 . S
C657 C658 1.374 . S
C657 H672 0.931 . S
C658 C652 1.439 . S
C658 C657 1.374 . S
C658 H673 0.931 . S
Eu659 N650 2.600 . S
Eu659 N660 2.562 . S
Eu659 O694 2.335 . S
Eu659 O697 2.372 1_455 S
Eu659 O698 2.462 . S
Eu659 O699 2.373 . S
Eu659 O701 2.432 . S
Eu659 O702 2.291 . S
Eu659 C723 2.787 . S
N660 C656 1.351 . S
N660 Eu659 2.562 . S
N660 C662 1.325 . S
C661 C655 1.404 . S
C661 C663 1.366 . S
C661 H669 0.930 . S
C662 N660 1.325 . S
C662 C663 1.416 . S
C662 H668 0.929 . S
C663 C661 1.366 . S
C663 C662 1.416 . S
C663 H665 0.930 . S
H664 C653 0.930 . S
H665 C663 0.930 . S
H666 C681 0.930 . S
H667 C688 0.980 . S
H668 C662 0.929 . S
H669 C661 0.930 . S
H670 C684 0.929 . S
H671 C651 0.931 . S
H672 C657 0.931 . S
H673 C658 0.931 . S
H674 C679 0.931 . S
H675 C654 0.929 . S
H676 C687 0.930 . S
N677 Eu648 2.600 . S
N677 C678 1.365 . S
N677 C681 1.319 . S
C678 N677 1.365 . S
C678 C680 1.405 . S
C678 C686 1.448 . S
C679 H674 0.931 . S
C679 C681 1.397 . S
C679 C682 1.367 . S
C680 C678 1.405 . S
C680 C682 1.403 . S
C680 C713 1.439 . S
C681 H666 0.930 . S
C681 N677 1.319 . S
C681 C679 1.397 . S
C682 C679 1.367 . S
C682 C680 1.403 . S
C682 H689 0.929 . S
N683 Eu648 2.562 . S
N683 C684 1.325 . S
N683 C686 1.351 . S
C684 H670 0.929 . S
C684 N683 1.325 . S
C684 C688 1.398 1_455 S
C685 C686 1.430 . S
C685 C687 1.404 . S
C685 C714 1.387 . S
C686 C678 1.448 . S
C686 N683 1.351 . S
C686 C685 1.430 . S
C687 H676 0.930 . S
C687 C685 1.404 . S
C687 C688 1.334 1_455 S
C688 H667 0.980 . S
C688 C684 1.398 1_655 S
C688 C687 1.334 1_655 S
H689 C682 0.929 . S
H690 C713 0.931 . S
H691 C714 0.931 . S
O692 Eu648 2.462 . S
O692 C712 1.252 . S
O693 Eu648 2.373 1_545 S
O693 C704 1.249 . S
O694 Eu659 2.335 . S
O694 C704 1.264 . S
O695 Eu648 2.432 . S
O695 C712 1.268 . S
O696 Eu648 2.291 . S
O696 C711 1.259 1_565 S
O697 Eu659 2.372 1_655 S
O697 C711 1.256 1_655 S
O698 Eu659 2.462 . S
O698 C723 1.252 . S
O699 Eu659 2.373 . S
O699 C715 1.249 . S
O700 Eu648 2.335 1_545 S
O700 C715 1.264 . S
O701 Eu659 2.432 . S
O701 C723 1.268 . S
O702 Eu659 2.291 . S
O702 C722 1.255 . S
O703 Eu648 2.372 1_545 S
O703 C722 1.257 . S
C704 O693 1.249 . S
C704 O694 1.264 . S
C705 C708 1.382 . S
C705 C710 1.390 . S
C705 C712 1.506 . S
C706 C707 1.398 . S
C706 C710 1.392 . S
C707 C706 1.398 . S
C707 C709 1.372 . S
C707 H724 0.931 . S
C708 C705 1.382 . S
C708 C709 1.390 . S
C708 H725 0.931 . S
C709 C707 1.372 . S
C709 C708 1.390 . S
C709 H726 0.929 . S
C710 C705 1.390 . S
C710 C706 1.392 . S
C710 H727 0.930 . S
C711 O696 1.259 1_545 S
C711 O697 1.256 1_455 S
C712 Eu648 2.787 . S
C712 O692 1.252 . S
C712 O695 1.268 . S
C712 C705 1.506 . S
C713 C680 1.439 . S
C713 H690 0.931 . S
C713 C714 1.374 . S
C714 C685 1.387 . S
C714 H691 0.931 . S
C714 C713 1.374 . S
C715 O699 1.249 . S
C715 O700 1.264 . S
C716 C719 1.382 1_455 S
C716 C720 1.390 . S
C716 C723 1.506 . S
C717 C718 1.398 . S
C717 C720 1.392 . S
C718 C717 1.398 . S
C718 C721 1.372 1_455 S
C718 H728 0.931 . S
C719 C716 1.382 1_655 S
C719 C721 1.390 . S
C719 H729 0.931 . S
C720 C716 1.390 . S
C720 C717 1.392 . S
C720 H730 0.930 . S
C721 C718 1.372 1_655 S
C721 C719 1.390 . S
C721 H731 0.929 . S
C722 O702 1.255 . S
C722 O703 1.257 . S
C723 Eu659 2.787 . S
C723 O698 1.252 . S
C723 O701 1.268 . S
C723 C716 1.506 . S
H724 C707 0.931 . S
H725 C708 0.931 . S
H726 C709 0.929 . S
H727 C710 0.930 . S
H728 C718 0.931 . S
H729 C719 0.931 . S
H730 C720 0.930 . S
H731 C721 0.929 . S
Eu732 N761 2.600 . S
Eu732 N767 2.562 . S
Eu732 O776 2.462 . S
Eu732 O777 2.373 . S
Eu732 O779 2.432 . S
Eu732 O780 2.291 . S
Eu732 O784 2.335 . S
Eu732 O787 2.372 . S
Eu732 C796 2.787 . S
C733 N734 1.365 . S
C733 C736 1.405 . S
C733 C740 1.448 . S
N734 C733 1.365 . S
N734 C737 1.319 . S
N734 Eu743 2.600 . S
C735 C737 1.397 . S
C735 C738 1.367 . S
C735 H755 0.931 . S
C736 C733 1.405 . S
C736 C738 1.403 . S
C736 C742 1.439 . S
C737 N734 1.319 . S
C737 C735 1.397 . S
C737 H748 0.930 . S
C738 C735 1.367 . S
C738 C736 1.403 . S
C738 H759 0.929 . S
C739 C740 1.430 . S
C739 C741 1.387 . S
C739 C745 1.404 . S
C740 C733 1.448 . S
C740 C739 1.430 . S
C740 N744 1.351 . S
C741 C739 1.387 . S
C741 C742 1.374 . S
C741 H756 0.931 . S
C742 C736 1.439 . S
C742 C741 1.374 . S
C742 H757 0.931 . S
Eu743 N734 2.600 . S
Eu743 N744 2.562 . S
Eu743 O778 2.335 . S
Eu743 O781 2.372 . S
Eu743 O782 2.462 . S
Eu743 O783 2.373 . S
Eu743 O785 2.432 . S
Eu743 O786 2.291 . S
Eu743 C807 2.787 . S
N744 C740 1.351 . S
N744 Eu743 2.562 . S
N744 C746 1.325 . S
C745 C739 1.404 . S
C745 C747 1.366 . S
C745 H753 0.930 . S
C746 N744 1.325 . S
C746 C747 1.416 . S
C746 H752 0.929 . S
C747 C745 1.366 . S
C747 C746 1.416 . S
C747 H749 0.930 . S
H748 C737 0.930 . S
H749 C747 0.930 . S
H750 C765 0.930 . S
H751 C772 0.930 . S
H752 C746 0.929 . S
H753 C745 0.930 . S
H754 C768 0.929 . S
H755 C735 0.931 . S
H756 C741 0.931 . S
H757 C742 0.931 . S
H758 C763 0.931 . S
H759 C738 0.929 . S
H760 C771 0.930 . S
N761 Eu732 2.600 . S
N761 C762 1.365 . S
N761 C765 1.319 . S
C762 N761 1.365 . S
C762 C764 1.405 . S
C762 C770 1.448 . S
C763 H758 0.931 . S
C763 C765 1.397 . S
C763 C766 1.367 . S
C764 C762 1.405 . S
C764 C766 1.403 . S
C764 C797 1.439 . S
C765 H750 0.930 . S
C765 N761 1.319 . S
C765 C763 1.397 . S
C766 C763 1.367 . S
C766 C764 1.403 . S
C766 H773 0.929 . S
N767 Eu732 2.562 . S
N767 C768 1.325 . S
N767 C770 1.351 . S
C768 H754 0.929 . S
C768 N767 1.325 . S
C768 C772 1.416 . S
C769 C770 1.430 . S
C769 C771 1.404 . S
C769 C798 1.387 . S
C770 C762 1.448 . S
C770 N767 1.351 . S
C770 C769 1.430 . S
C771 H760 0.930 . S
C771 C769 1.404 . S
C771 C772 1.366 . S
C772 H751 0.930 . S
C772 C768 1.416 . S
C772 C771 1.366 . S
H773 C766 0.929 . S
H774 C797 0.931 . S
H775 C798 0.931 . S
O776 Eu732 2.462 . S
O776 C796 1.252 . S
O777 Eu732 2.373 . S
O777 C788 1.249 . S
O778 Eu743 2.335 . S
O778 C788 1.264 . S
O779 Eu732 2.432 . S
O779 C796 1.268 . S
O780 Eu732 2.291 . S
O780 C795 1.255 . S
O781 Eu743 2.372 . S
O781 C795 1.257 . S
O782 Eu743 2.462 . S
O782 C807 1.252 . S
O783 Eu743 2.373 . S
O783 C799 1.249 . S
O784 Eu732 2.335 . S
O784 C799 1.264 . S
O785 Eu743 2.432 . S
O785 C807 1.268 . S
O786 Eu743 2.291 . S
O786 C806 1.255 . S
O787 Eu732 2.372 . S
O787 C806 1.257 . S
C788 O777 1.249 . S
C788 O778 1.264 . S
C789 C792 1.382 . S
C789 C794 1.390 . S
C789 C796 1.506 . S
C790 C791 1.398 . S
C790 C794 1.392 . S
C791 C790 1.398 . S
C791 C793 1.372 . S
C791 H808 0.931 . S
C792 C789 1.382 . S
C792 C793 1.390 . S
C792 H809 0.931 . S
C793 C791 1.372 . S
C793 C792 1.390 . S
C793 H810 0.929 . S
C794 C789 1.390 . S
C794 C790 1.392 . S
C794 H811 0.930 . S
C795 O780 1.255 . S
C795 O781 1.257 . S
C796 Eu732 2.787 . S
C796 O776 1.252 . S
C796 O779 1.268 . S
C796 C789 1.506 . S
C797 C764 1.439 . S
C797 H774 0.931 . S
C797 C798 1.374 . S
C798 C769 1.387 . S
C798 H775 0.931 . S
C798 C797 1.374 . S
C799 O783 1.249 . S
C799 O784 1.264 . S
C800 C803 1.382 . S
C800 C804 1.390 . S
C800 C807 1.506 . S
C801 C802 1.398 . S
C801 C804 1.392 . S
C802 C801 1.398 . S
C802 C805 1.372 . S
C802 H812 0.931 . S
C803 C800 1.382 . S
C803 C805 1.390 . S
C803 H813 0.931 . S
C804 C800 1.390 . S
C804 C801 1.392 . S
C804 H814 0.930 . S
C805 C802 1.372 . S
C805 C803 1.390 . S
C805 H815 0.929 . S
C806 O786 1.255 . S
C806 O787 1.257 . S
C807 Eu743 2.787 . S
C807 O782 1.252 . S
C807 O785 1.268 . S
C807 C800 1.506 . S
H808 C791 0.931 . S
H809 C792 0.931 . S
H810 C793 0.929 . S
H811 C794 0.930 . S
H812 C802 0.931 . S
H813 C803 0.931 . S
H814 C804 0.930 . S
H815 C805 0.929 . S
Eu816 N845 2.600 . S
Eu816 N851 2.562 . S
Eu816 O860 2.462 . S
Eu816 O861 2.373 . S
Eu816 O863 2.432 . S
Eu816 O864 2.291 . S
Eu816 O868 2.329 1_556 S
Eu816 O871 2.372 1_556 S
Eu816 C880 2.787 . S
C817 N818 1.365 . S
C817 C820 1.405 . S
C817 C824 1.448 . S
N818 C817 1.365 . S
N818 C821 1.319 1_545 S
N818 Eu827 2.600 . S
C819 C821 1.397 . S
C819 C822 1.367 . S
C819 H839 0.931 . S
C820 C817 1.405 . S
C820 C822 1.403 1_545 S
C820 C826 1.439 . S
C821 N818 1.319 1_565 S
C821 C819 1.397 . S
C821 H832 0.930 . S
C822 C819 1.367 . S
C822 C820 1.403 1_565 S
C822 H843 0.929 . S
C823 C824 1.430 . S
C823 C825 1.387 . S
C823 C829 1.404 . S
C824 C817 1.448 . S
C824 C823 1.430 . S
C824 N828 1.351 . S
C825 C823 1.387 . S
C825 C826 1.374 . S
C825 H840 0.931 . S
C826 C820 1.439 . S
C826 C825 1.374 . S
C826 H841 0.931 . S
Eu827 N818 2.600 . S
Eu827 N828 2.562 . S
Eu827 O862 2.335 . S
Eu827 O865 2.372 . S
Eu827 O866 2.462 . S
Eu827 O867 2.373 . S
Eu827 O869 2.432 . S
Eu827 O870 2.291 . S
Eu827 C891 2.787 . S
N828 C824 1.351 . S
N828 Eu827 2.562 . S
N828 C830 1.325 . S
C829 C823 1.404 . S
C829 C831 1.366 . S
C829 H837 0.930 . S
C830 N828 1.325 . S
C830 C831 1.416 . S
C830 H836 0.929 . S
C831 C829 1.366 . S
C831 C830 1.416 . S
C831 H833 0.930 . S
H832 C821 0.930 . S
H833 C831 0.930 . S
H834 C849 0.930 . S
H835 C856 0.930 1_565 S
H836 C830 0.929 . S
H837 C829 0.930 . S
H838 C852 0.929 . S
H839 C819 0.931 . S
H840 C825 0.931 . S
H841 C826 0.931 . S
H842 C847 0.931 . S
H843 C822 0.929 . S
H844 C855 0.930 . S
N845 Eu816 2.600 . S
N845 C846 1.365 . S
N845 C849 1.319 . S
C846 N845 1.365 . S
C846 C848 1.405 . S
C846 C854 1.448 . S
C847 H842 0.931 . S
C847 C849 1.397 . S
C847 C850 1.367 . S
C848 C846 1.405 . S
C848 C850 1.403 . S
C848 C881 1.439 . S
C849 H834 0.930 . S
C849 N845 1.319 . S
C849 C847 1.397 . S
C850 C847 1.367 . S
C850 C848 1.403 . S
C850 H857 0.929 . S
N851 Eu816 2.562 . S
N851 C852 1.325 . S
N851 C854 1.351 . S
C852 H838 0.929 . S
C852 N851 1.325 . S
C852 C856 1.416 . S
C853 C854 1.430 . S
C853 C855 1.404 . S
C853 C882 1.387 . S
C854 C846 1.448 . S
C854 N851 1.351 . S
C854 C853 1.430 . S
C855 H844 0.930 . S
C855 C853 1.404 . S
C855 C856 1.366 . S
C856 H835 0.930 1_545 S
C856 C852 1.416 . S
C856 C855 1.366 . S
H857 C850 0.929 . S
H858 C881 0.931 . S
H859 C882 0.931 . S
O860 Eu816 2.462 . S
O860 C880 1.252 . S
O861 Eu816 2.373 . S
O861 C872 1.249 1_556 S
O862 Eu827 2.335 . S
O862 C872 1.264 . S
O863 Eu816 2.432 . S
O863 C880 1.268 . S
O864 Eu816 2.291 . S
O864 C879 1.255 . S
O865 Eu827 2.372 . S
O865 C879 1.257 1_554 S
O866 Eu827 2.462 . S
O866 C891 1.252 . S
O867 Eu827 2.373 . S
O867 C883 1.249 . S
O868 Eu816 2.329 1_554 S
O868 C883 1.277 . S
O869 Eu827 2.432 . S
O869 C891 1.268 . S
O870 Eu827 2.291 . S
O870 C890 1.255 . S
O871 Eu816 2.372 1_554 S
O871 C890 1.257 . S
C872 O861 1.249 1_554 S
C872 O862 1.264 . S
C873 C876 1.382 . S
C873 C878 1.390 . S
C873 C880 1.506 . S
C874 C875 1.398 . S
C874 C878 1.392 . S
C875 C874 1.398 . S
C875 C877 1.372 . S
C875 H892 0.931 . S
C876 C873 1.382 . S
C876 C877 1.390 . S
C876 H893 0.931 . S
C877 C875 1.372 . S
C877 C876 1.390 . S
C877 H894 0.929 . S
C878 C873 1.390 . S
C878 C874 1.392 . S
C878 H895 0.930 . S
C879 O864 1.255 . S
C879 O865 1.257 1_556 S
C880 Eu816 2.787 . S
C880 O860 1.252 . S
C880 O863 1.268 . S
C880 C873 1.506 . S
C881 C848 1.439 . S
C881 H858 0.931 . S
C881 C882 1.374 . S
C882 C853 1.387 . S
C882 H859 0.931 . S
C882 C881 1.374 . S
C883 O867 1.249 . S
C883 O868 1.277 . S
C884 C887 1.382 1_545 S
C884 C888 1.390 . S
C884 C891 1.506 . S
C885 C886 1.366 1_545 S
C885 C888 1.392 . S
C886 C885 1.366 1_565 S
C886 C889 1.395 . S
C886 H896 0.940 . S
C887 C884 1.382 1_565 S
C887 C889 1.390 . S
C887 H897 0.931 . S
C888 C884 1.390 . S
C888 C885 1.392 . S
C888 H898 0.930 . S
C889 C886 1.395 . S
C889 C887 1.390 . S
C889 H899 0.929 . S
C890 O870 1.255 . S
C890 O871 1.257 . S
C891 Eu827 2.787 . S
C891 O866 1.252 . S
C891 O869 1.268 . S
C891 C884 1.506 . S
H892 C875 0.931 . S
H893 C876 0.931 . S
H894 C877 0.929 . S
H895 C878 0.930 . S
H896 C886 0.940 . S
H897 C887 0.931 . S
H898 C888 0.930 . S
H899 C889 0.929 . S
Eu900 N929 2.600 . S
Eu900 N935 2.562 . S
Eu900 O944 2.462 . S
Eu900 O945 2.373 . S
Eu900 O947 2.432 . S
Eu900 O948 2.291 . S
Eu900 O952 2.335 . S
Eu900 O955 2.372 . S
Eu900 C964 2.787 . S
C901 N902 1.365 . S
C901 C904 1.405 . S
C901 C908 1.448 . S
N902 C901 1.365 . S
N902 C905 1.319 . S
N902 Eu911 2.600 . S
C903 C905 1.397 . S
C903 C906 1.367 . S
C903 H923 0.931 . S
C904 C901 1.405 . S
C904 C906 1.403 . S
C904 C910 1.439 . S
C905 N902 1.319 . S
C905 C903 1.397 . S
C905 H916 0.930 . S
C906 C903 1.367 . S
C906 C904 1.403 . S
C906 H927 0.929 . S
C907 C908 1.430 . S
C907 C909 1.387 . S
C907 C913 1.404 . S
C908 C901 1.448 . S
C908 C907 1.430 . S
C908 N912 1.351 . S
C909 C907 1.387 . S
C909 C910 1.374 . S
C909 H924 0.931 . S
C910 C904 1.439 . S
C910 C909 1.374 . S
C910 H925 0.931 . S
Eu911 N902 2.600 . S
Eu911 N912 2.562 . S
Eu911 O946 2.335 . S
Eu911 O949 2.372 . S
Eu911 O950 2.462 . S
Eu911 O951 2.373 . S
Eu911 O953 2.432 . S
Eu911 O954 2.291 . S
Eu911 C975 2.787 . S
N912 C908 1.351 . S
N912 Eu911 2.562 . S
N912 C914 1.325 . S
C913 C907 1.404 . S
C913 C915 1.366 . S
C913 H921 0.930 . S
C914 N912 1.325 . S
C914 C915 1.416 . S
C914 H920 0.929 . S
C915 C913 1.366 . S
C915 C914 1.416 . S
C915 H917 0.930 . S
H916 C905 0.930 . S
H917 C915 0.930 . S
H918 C933 0.930 . S
H919 C940 0.930 . S
H920 C914 0.929 . S
H921 C913 0.930 . S
H922 C936 0.929 . S
H923 C903 0.931 . S
H924 C909 0.931 . S
H925 C910 0.931 . S
H926 C931 0.931 . S
H927 C906 0.929 . S
H928 C939 0.930 . S
N929 Eu900 2.600 . S
N929 C930 1.365 . S
N929 C933 1.319 . S
C930 N929 1.365 . S
C930 C932 1.405 . S
C930 C938 1.448 . S
C931 H926 0.931 . S
C931 C933 1.397 . S
C931 C934 1.367 . S
C932 C930 1.405 . S
C932 C934 1.403 . S
C932 C965 1.439 . S
C933 H918 0.930 . S
C933 N929 1.319 . S
C933 C931 1.397 . S
C934 C931 1.367 . S
C934 C932 1.403 . S
C934 H941 0.929 . S
N935 Eu900 2.562 . S
N935 C936 1.325 . S
N935 C938 1.351 . S
C936 H922 0.929 . S
C936 N935 1.325 . S
C936 C940 1.416 . S
C937 C938 1.430 . S
C937 C939 1.404 . S
C937 C966 1.387 . S
C938 C930 1.448 . S
C938 N935 1.351 . S
C938 C937 1.430 . S
C939 H928 0.930 . S
C939 C937 1.404 . S
C939 C940 1.366 . S
C940 H919 0.930 . S
C940 C936 1.416 . S
C940 C939 1.366 . S
H941 C934 0.929 . S
H942 C965 0.931 . S
H943 C966 0.931 . S
O944 Eu900 2.462 . S
O944 C964 1.252 . S
O945 Eu900 2.373 . S
O945 C956 1.249 . S
O946 Eu911 2.335 . S
O946 C956 1.264 . S
O947 Eu900 2.432 . S
O947 C964 1.268 . S
O948 Eu900 2.291 . S
O948 C963 1.255 . S
O949 Eu911 2.372 . S
O949 C963 1.257 . S
O950 Eu911 2.462 . S
O950 C975 1.252 . S
O951 Eu911 2.373 . S
O951 C967 1.249 . S
O952 Eu900 2.335 . S
O952 C967 1.264 . S
O953 Eu911 2.432 . S
O953 C975 1.268 . S
O954 Eu911 2.291 . S
O954 C974 1.255 . S
O955 Eu900 2.372 . S
O955 C974 1.257 . S
C956 O945 1.249 . S
C956 O946 1.264 . S
C957 C960 1.382 . S
C957 C962 1.390 . S
C957 C964 1.506 . S
C958 C959 1.398 . S
C958 C962 1.392 . S
C959 C958 1.398 . S
C959 C961 1.372 . S
C959 H976 0.931 . S
C960 C957 1.382 . S
C960 C961 1.390 . S
C960 H977 0.931 . S
C961 C959 1.372 . S
C961 C960 1.390 . S
C961 H978 0.929 . S
C962 C957 1.390 . S
C962 C958 1.392 . S
C962 H979 0.930 . S
C963 O948 1.255 . S
C963 O949 1.257 . S
C964 Eu900 2.787 . S
C964 O944 1.252 . S
C964 O947 1.268 . S
C964 C957 1.506 . S
C965 C932 1.439 . S
C965 H942 0.931 . S
C965 C966 1.374 . S
C966 C937 1.387 . S
C966 H943 0.931 . S
C966 C965 1.374 . S
C967 O951 1.249 . S
C967 O952 1.264 . S
C968 C971 1.382 . S
C968 C972 1.390 . S
C968 C975 1.506 . S
C969 C970 1.398 . S
C969 C972 1.392 . S
C970 C969 1.398 . S
C970 C973 1.372 . S
C970 H980 0.931 . S
C971 C968 1.382 . S
C971 C973 1.390 . S
C971 H981 0.931 . S
C972 C968 1.390 . S
C972 C969 1.392 . S
C972 H982 0.930 . S
C973 C970 1.372 . S
C973 C971 1.390 . S
C973 H983 0.929 . S
C974 O954 1.255 . S
C974 O955 1.257 . S
C975 Eu911 2.787 . S
C975 O950 1.252 . S
C975 O953 1.268 . S
C975 C968 1.506 . S
H976 C959 0.931 . S
H977 C960 0.931 . S
H978 C961 0.929 . S
H979 C962 0.930 . S
H980 C970 0.931 . S
H981 C971 0.931 . S
H982 C972 0.930 . S
H983 C973 0.929 . S
Eu984 N1013 2.600 1_554 S
Eu984 N1019 2.562 1_554 S
Eu984 O1028 2.462 . S
Eu984 O1029 2.373 1_554 S
Eu984 O1031 2.432 . S
Eu984 O1032 2.291 . S
Eu984 O1036 2.335 . S
Eu984 O1039 2.372 . S
Eu984 C1048 2.787 . S
C985 N986 1.365 . S
C985 C988 1.405 . S
C985 C992 1.448 . S
N986 C985 1.365 . S
N986 C989 1.319 . S
N986 Eu995 2.600 . S
C987 C989 1.397 . S
C987 C990 1.367 . S
C987 H1007 0.931 . S
C988 C985 1.405 . S
C988 C990 1.403 . S
C988 C994 1.439 . S
C989 N986 1.319 . S
C989 C987 1.397 . S
C989 H1000 0.930 . S
C990 C987 1.367 . S
C990 C988 1.403 . S
C990 H1011 0.929 . S
C991 C992 1.430 . S
C991 C993 1.387 . S
C991 C997 1.404 . S
C992 C985 1.448 . S
C992 C991 1.430 . S
C992 N996 1.351 . S
C993 C991 1.387 . S
C993 C994 1.374 . S
C993 H1008 0.931 . S
C994 C988 1.439 . S
C994 C993 1.374 . S
C994 H1009 0.931 . S
Eu995 N986 2.600 . S
Eu995 N996 2.562 . S
Eu995 O1030 2.335 1_554 S
Eu995 O1033 2.372 . S
Eu995 O1034 2.462 . S
Eu995 O1035 2.373 . S
Eu995 O1037 2.432 . S
Eu995 O1038 2.291 . S
Eu995 C1059 2.751 1_554 S
N996 C992 1.351 . S
N996 Eu995 2.562 . S
N996 C998 1.325 . S
C997 C991 1.404 . S
C997 C999 1.366 . S
C997 H1005 0.930 . S
C998 N996 1.325 . S
C998 C999 1.416 . S
C998 H1004 0.929 . S
C999 C997 1.366 . S
C999 C998 1.416 . S
C999 H1001 0.930 . S
H1000 C989 0.930 . S
H1001 C999 0.930 . S
H1002 C1017 0.930 . S
H1003 C1024 0.930 . S
H1004 C998 0.929 . S
H1005 C997 0.930 . S
H1006 C1020 0.929 . S
H1007 C987 0.931 . S
H1008 C993 0.931 . S
H1009 C994 0.931 . S
H1010 C1015 0.931 . S
H1011 C990 0.929 . S
H1012 C1023 0.930 . S
N1013 Eu984 2.600 1_556 S
N1013 C1014 1.365 . S
N1013 C1017 1.319 . S
C1014 N1013 1.365 . S
C1014 C1016 1.405 . S
C1014 C1022 1.448 . S
C1015 H1010 0.931 . S
C1015 C1017 1.397 . S
C1015 C1018 1.367 . S
C1016 C1014 1.405 . S
C1016 C1018 1.403 . S
C1016 C1049 1.439 . S
C1017 H1002 0.930 . S
C1017 N1013 1.319 . S
C1017 C1015 1.397 . S
C1018 C1015 1.367 . S
C1018 C1016 1.403 . S
C1018 H1025 0.929 . S
N1019 Eu984 2.562 1_556 S
N1019 C1020 1.325 . S
N1019 C1022 1.351 . S
C1020 H1006 0.929 . S
C1020 N1019 1.325 . S
C1020 C1024 1.416 . S
C1021 C1022 1.430 . S
C1021 C1023 1.404 . S
C1021 C1050 1.387 . S
C1022 C1014 1.448 . S
C1022 N1019 1.351 . S
C1022 C1021 1.430 . S
C1023 H1012 0.930 . S
C1023 C1021 1.404 . S
C1023 C1024 1.366 . S
C1024 H1003 0.930 . S
C1024 C1020 1.416 . S
C1024 C1023 1.366 . S
H1025 C1018 0.929 . S
H1026 C1049 0.931 . S
H1027 C1050 0.931 . S
O1028 Eu984 2.462 . S
O1028 C1048 1.252 . S
O1029 Eu984 2.373 1_556 S
O1029 C1040 1.249 . S
O1030 Eu995 2.335 1_556 S
O1030 C1040 1.264 . S
O1031 Eu984 2.432 . S
O1031 C1048 1.268 . S
O1032 Eu984 2.291 . S
O1032 C1047 1.255 . S
O1033 Eu995 2.372 . S
O1033 C1047 1.257 . S
O1034 Eu995 2.462 . S
O1034 C1059 1.248 1_554 S
O1035 Eu995 2.373 . S
O1035 C1051 1.249 . S
O1036 Eu984 2.335 . S
O1036 C1051 1.264 . S
O1037 Eu995 2.432 . S
O1037 C1059 1.242 1_554 S
O1038 Eu995 2.291 . S
O1038 C1058 1.255 . S
O1039 Eu984 2.372 . S
O1039 C1058 1.257 . S
C1040 O1029 1.249 . S
C1040 O1030 1.264 . S
C1041 C1044 1.382 . S
C1041 C1046 1.390 . S
C1041 C1048 1.506 . S
C1042 C1043 1.398 . S
C1042 C1046 1.392 . S
C1043 C1042 1.398 . S
C1043 C1045 1.372 . S
C1043 H1060 0.931 . S
C1044 C1041 1.382 . S
C1044 C1045 1.390 . S
C1044 H1061 0.931 . S
C1045 C1043 1.372 . S
C1045 C1044 1.390 . S
C1045 H1062 0.929 . S
C1046 C1041 1.390 . S
C1046 C1042 1.392 . S
C1046 H1063 0.930 . S
C1047 O1032 1.255 . S
C1047 O1033 1.257 . S
C1048 Eu984 2.787 . S
C1048 O1028 1.252 . S
C1048 O1031 1.268 . S
C1048 C1041 1.506 . S
C1049 C1016 1.439 . S
C1049 H1026 0.931 . S
C1049 C1050 1.374 . S
C1050 C1021 1.387 . S
C1050 H1027 0.931 . S
C1050 C1049 1.374 . S
C1051 O1035 1.249 . S
C1051 O1036 1.264 . S
C1052 C1055 1.382 . S
C1052 C1056 1.390 . S
C1052 C1059 1.542 . S
C1053 C1054 1.398 . S
C1053 C1056 1.392 . S
C1054 C1053 1.398 . S
C1054 C1057 1.372 . S
C1054 H1064 0.931 . S
C1055 C1052 1.382 . S
C1055 C1057 1.390 . S
C1055 H1065 0.931 . S
C1056 C1052 1.390 . S
C1056 C1053 1.392 . S
C1056 H1066 0.930 . S
C1057 C1054 1.372 . S
C1057 C1055 1.390 . S
C1057 H1067 0.929 . S
C1058 O1038 1.255 . S
C1058 O1039 1.257 . S
C1059 Eu995 2.751 1_556 S
C1059 O1034 1.248 1_556 S
C1059 O1037 1.242 1_556 S
C1059 C1052 1.542 . S
H1060 C1043 0.931 . S
H1061 C1044 0.931 . S
H1062 C1045 0.929 . S
H1063 C1046 0.930 . S
H1064 C1054 0.931 . S
H1065 C1055 0.931 . S
H1066 C1056 0.930 . S
H1067 C1057 0.929 . S
Eu1068 N1097 2.600 . S
Eu1068 N1103 2.562 . S
Eu1068 O1112 2.462 . S
Eu1068 O1113 2.373 . S
Eu1068 O1115 2.432 . S
Eu1068 O1116 2.291 . S
Eu1068 O1120 2.335 . S
Eu1068 O1123 2.372 . S
Eu1068 C1132 2.787 . S
C1069 N1070 1.365 . S
C1069 C1072 1.405 . S
C1069 C1076 1.448 . S
N1070 C1069 1.365 . S
N1070 C1073 1.319 . S
N1070 Eu1079 2.600 . S
C1071 C1073 1.397 . S
C1071 C1074 1.367 . S
C1071 H1091 0.931 . S
C1072 C1069 1.405 . S
C1072 C1074 1.403 . S
C1072 C1078 1.439 . S
C1073 N1070 1.319 . S
C1073 C1071 1.397 . S
C1073 H1084 0.930 . S
C1074 C1071 1.367 . S
C1074 C1072 1.403 . S
C1074 H1095 0.929 . S
C1075 C1076 1.430 . S
C1075 C1077 1.387 . S
C1075 C1081 1.404 . S
C1076 C1069 1.448 . S
C1076 C1075 1.430 . S
C1076 N1080 1.351 . S
C1077 C1075 1.387 . S
C1077 C1078 1.374 . S
C1077 H1092 0.931 . S
C1078 C1072 1.439 . S
C1078 C1077 1.374 . S
C1078 H1093 0.931 . S
Eu1079 N1070 2.600 . S
Eu1079 N1080 2.562 . S
Eu1079 O1114 2.335 . S
Eu1079 O1117 2.372 . S
Eu1079 O1118 2.462 . S
Eu1079 O1119 2.373 . S
Eu1079 O1121 2.432 . S
Eu1079 O1122 2.291 . S
Eu1079 C1143 2.787 . S
N1080 C1076 1.351 . S
N1080 Eu1079 2.562 . S
N1080 C1082 1.325 . S
C1081 C1075 1.404 . S
C1081 C1083 1.366 . S
C1081 H1089 0.930 . S
C1082 N1080 1.325 . S
C1082 C1083 1.416 . S
C1082 H1088 0.929 . S
C1083 C1081 1.366 . S
C1083 C1082 1.416 . S
C1083 H1085 0.930 . S
H1084 C1073 0.930 . S
H1085 C1083 0.930 . S
H1086 C1101 0.930 . S
H1087 C1108 0.930 . S
H1088 C1082 0.929 . S
H1089 C1081 0.930 . S
H1090 C1104 0.929 . S
H1091 C1071 0.931 . S
H1092 C1077 0.931 . S
H1093 C1078 0.931 . S
H1094 C1099 0.931 . S
H1095 C1074 0.929 . S
H1096 C1107 0.930 . S
N1097 Eu1068 2.600 . S
N1097 C1098 1.365 . S
N1097 C1101 1.319 . S
C1098 N1097 1.365 . S
C1098 C1100 1.405 . S
C1098 C1106 1.448 . S
C1099 H1094 0.931 . S
C1099 C1101 1.397 . S
C1099 C1102 1.367 . S
C1100 C1098 1.405 . S
C1100 C1102 1.403 . S
C1100 C1133 1.439 . S
C1101 H1086 0.930 . S
C1101 N1097 1.319 . S
C1101 C1099 1.397 . S
C1102 C1099 1.367 . S
C1102 C1100 1.403 . S
C1102 H1109 0.929 . S
N1103 Eu1068 2.562 . S
N1103 C1104 1.325 . S
N1103 C1106 1.351 . S
C1104 H1090 0.929 . S
C1104 N1103 1.325 . S
C1104 C1108 1.416 . S
C1105 C1106 1.430 . S
C1105 C1107 1.404 . S
C1105 C1134 1.387 . S
C1106 C1098 1.448 . S
C1106 N1103 1.351 . S
C1106 C1105 1.430 . S
C1107 H1096 0.930 . S
C1107 C1105 1.404 . S
C1107 C1108 1.366 . S
C1108 H1087 0.930 . S
C1108 C1104 1.416 . S
C1108 C1107 1.366 . S
H1109 C1102 0.929 . S
H1110 C1133 0.931 . S
H1111 C1134 0.931 . S
O1112 Eu1068 2.462 . S
O1112 C1132 1.252 . S
O1113 Eu1068 2.373 . S
O1113 C1124 1.249 . S
O1114 Eu1079 2.335 . S
O1114 C1124 1.264 . S
O1115 Eu1068 2.432 . S
O1115 C1132 1.268 . S
O1116 Eu1068 2.291 . S
O1116 C1131 1.255 . S
O1117 Eu1079 2.372 . S
O1117 C1131 1.257 . S
O1118 Eu1079 2.462 . S
O1118 C1143 1.252 . S
O1119 Eu1079 2.373 . S
O1119 C1135 1.249 . S
O1120 Eu1068 2.335 . S
O1120 C1135 1.264 . S
O1121 Eu1079 2.432 . S
O1121 C1143 1.268 . S
O1122 Eu1079 2.291 . S
O1122 C1142 1.255 . S
O1123 Eu1068 2.372 . S
O1123 C1142 1.257 . S
C1124 O1113 1.249 . S
C1124 O1114 1.264 . S
C1125 C1128 1.382 . S
C1125 C1130 1.390 . S
C1125 C1132 1.506 . S
C1126 C1127 1.398 . S
C1126 C1130 1.392 . S
C1127 C1126 1.398 . S
C1127 C1129 1.372 . S
C1127 H1144 0.931 . S
C1128 C1125 1.382 . S
C1128 C1129 1.390 . S
C1128 H1145 0.931 . S
C1129 C1127 1.372 . S
C1129 C1128 1.390 . S
C1129 H1146 0.929 . S
C1130 C1125 1.390 . S
C1130 C1126 1.392 . S
C1130 H1147 0.930 . S
C1131 O1116 1.255 . S
C1131 O1117 1.257 . S
C1132 Eu1068 2.787 . S
C1132 O1112 1.252 . S
C1132 O1115 1.268 . S
C1132 C1125 1.506 . S
C1133 C1100 1.439 . S
C1133 H1110 0.931 . S
C1133 C1134 1.374 . S
C1134 C1105 1.387 . S
C1134 H1111 0.931 . S
C1134 C1133 1.374 . S
C1135 O1119 1.249 . S
C1135 O1120 1.264 . S
C1136 C1139 1.382 . S
C1136 C1140 1.390 . S
C1136 C1143 1.506 . S
C1137 C1138 1.398 . S
C1137 C1140 1.392 . S
C1138 C1137 1.398 . S
C1138 C1141 1.372 . S
C1138 H1148 0.931 . S
C1139 C1136 1.382 . S
C1139 C1141 1.390 . S
C1139 H1149 0.931 . S
C1140 C1136 1.390 . S
C1140 C1137 1.392 . S
C1140 H1150 0.930 . S
C1141 C1138 1.372 . S
C1141 C1139 1.390 . S
C1141 H1151 0.929 . S
C1142 O1122 1.255 . S
C1142 O1123 1.257 . S
C1143 Eu1079 2.787 . S
C1143 O1118 1.252 . S
C1143 O1121 1.268 . S
C1143 C1136 1.506 . S
H1144 C1127 0.931 . S
H1145 C1128 0.931 . S
H1146 C1129 0.929 . S
H1147 C1130 0.930 . S
H1148 C1138 0.931 . S
H1149 C1139 0.931 . S
H1150 C1140 0.930 . S
H1151 C1141 0.929 . S
Eu1152 N1181 2.600 1_455 S
Eu1152 N1187 2.562 1_455 S
Eu1152 O1196 2.462 . S
Eu1152 O1197 2.373 1_455 S
Eu1152 O1199 2.432 . S
Eu1152 O1200 2.291 . S
Eu1152 O1204 2.335 . S
Eu1152 O1207 2.372 . S
Eu1152 C1216 2.787 . S
C1153 N1154 1.365 . S
C1153 C1156 1.405 . S
C1153 C1160 1.448 . S
N1154 C1153 1.365 . S
N1154 C1157 1.319 . S
N1154 Eu1163 2.600 . S
C1155 C1157 1.397 . S
C1155 C1158 1.367 . S
C1155 H1175 0.931 . S
C1156 C1153 1.405 . S
C1156 C1158 1.403 . S
C1156 C1162 1.439 . S
C1157 N1154 1.319 . S
C1157 C1155 1.397 . S
C1157 H1168 0.930 . S
C1158 C1155 1.367 . S
C1158 C1156 1.403 . S
C1158 H1179 0.929 . S
C1159 C1160 1.430 . S
C1159 C1161 1.387 . S
C1159 C1165 1.404 . S
C1160 C1153 1.448 . S
C1160 C1159 1.430 . S
C1160 N1164 1.351 . S
C1161 C1159 1.387 . S
C1161 C1162 1.374 . S
C1161 H1176 0.931 . S
C1162 C1156 1.439 . S
C1162 C1161 1.374 . S
C1162 H1177 0.931 . S
Eu1163 N1154 2.600 . S
Eu1163 N1164 2.562 . S
Eu1163 O1198 2.335 1_455 S
Eu1163 O1201 2.372 . S
Eu1163 O1202 2.462 . S
Eu1163 O1203 2.373 . S
Eu1163 O1205 2.432 . S
Eu1163 O1206 2.291 . S
Eu1163 C1227 2.787 1_455 S
N1164 C1160 1.351 . S
N1164 Eu1163 2.562 . S
N1164 C1166 1.325 . S
C1165 C1159 1.404 . S
C1165 C1167 1.366 . S
C1165 H1173 0.930 . S
C1166 N1164 1.325 . S
C1166 C1167 1.416 . S
C1166 H1172 0.929 . S
C1167 C1165 1.366 . S
C1167 C1166 1.416 . S
C1167 H1169 0.930 . S
H1168 C1157 0.930 . S
H1169 C1167 0.930 . S
H1170 C1185 0.927 1_455 S
H1171 C1192 0.930 . S
H1172 C1166 0.929 . S
H1173 C1165 0.930 . S
H1174 C1188 0.929 . S
H1175 C1155 0.931 . S
H1176 C1161 0.931 . S
H1177 C1162 0.931 . S
H1178 C1183 0.931 . S
H1179 C1158 0.929 . S
H1180 C1191 0.930 . S
N1181 Eu1152 2.600 1_655 S
N1181 C1182 1.365 . S
N1181 C1185 1.319 . S
C1182 N1181 1.365 . S
C1182 C1184 1.405 . S
C1182 C1190 1.448 . S
C1183 H1178 0.931 . S
C1183 C1185 1.397 . S
C1183 C1186 1.367 . S
C1184 C1182 1.405 . S
C1184 C1186 1.403 . S
C1184 C1217 1.439 . S
C1185 H1170 0.927 1_655 S
C1185 N1181 1.319 . S
C1185 C1183 1.397 . S
C1186 C1183 1.367 . S
C1186 C1184 1.403 . S
C1186 H1193 0.929 . S
N1187 Eu1152 2.562 1_655 S
N1187 C1188 1.325 . S
N1187 C1190 1.351 . S
C1188 H1174 0.929 . S
C1188 N1187 1.325 . S
C1188 C1192 1.416 . S
C1189 C1190 1.430 . S
C1189 C1191 1.404 . S
C1189 C1218 1.387 . S
C1190 C1182 1.448 . S
C1190 N1187 1.351 . S
C1190 C1189 1.430 . S
C1191 H1180 0.930 . S
C1191 C1189 1.404 . S
C1191 C1192 1.366 . S
C1192 H1171 0.930 . S
C1192 C1188 1.416 . S
C1192 C1191 1.366 . S
H1193 C1186 0.929 . S
H1194 C1217 0.931 . S
H1195 C1218 0.931 . S
O1196 Eu1152 2.462 . S
O1196 C1216 1.252 . S
O1197 Eu1152 2.373 1_655 S
O1197 C1208 1.249 . S
O1198 Eu1163 2.335 1_655 S
O1198 C1208 1.264 . S
O1199 Eu1152 2.432 . S
O1199 C1216 1.268 . S
O1200 Eu1152 2.291 . S
O1200 C1215 1.255 . S
O1201 Eu1163 2.372 . S
O1201 C1215 1.257 . S
O1202 Eu1163 2.462 . S
O1202 C1227 1.252 1_455 S
O1203 Eu1163 2.373 . S
O1203 C1219 1.249 . S
O1204 Eu1152 2.335 . S
O1204 C1219 1.264 . S
O1205 Eu1163 2.432 . S
O1205 C1227 1.268 1_455 S
O1206 Eu1163 2.291 . S
O1206 C1226 1.255 . S
O1207 Eu1152 2.372 . S
O1207 C1226 1.257 . S
C1208 O1197 1.249 . S
C1208 O1198 1.264 . S
C1209 C1212 1.382 . S
C1209 C1214 1.390 . S
C1209 C1216 1.506 . S
C1210 C1211 1.398 . S
C1210 C1214 1.392 . S
C1211 C1210 1.398 . S
C1211 C1213 1.372 . S
C1211 H1228 0.931 . S
C1212 C1209 1.382 . S
C1212 C1213 1.390 . S
C1212 H1229 0.931 . S
C1213 C1211 1.372 . S
C1213 C1212 1.390 . S
C1213 H1230 0.929 . S
C1214 C1209 1.390 . S
C1214 C1210 1.392 . S
C1214 H1231 0.930 . S
C1215 O1200 1.255 . S
C1215 O1201 1.257 . S
C1216 Eu1152 2.787 . S
C1216 O1196 1.252 . S
C1216 O1199 1.268 . S
C1216 C1209 1.506 . S
C1217 C1184 1.439 . S
C1217 H1194 0.931 . S
C1217 C1218 1.374 . S
C1218 C1189 1.387 . S
C1218 H1195 0.931 . S
C1218 C1217 1.374 . S
C1219 O1203 1.249 . S
C1219 O1204 1.264 . S
C1220 C1223 1.382 . S
C1220 C1224 1.390 . S
C1220 C1227 1.506 . S
C1221 C1222 1.398 . S
C1221 C1224 1.392 . S
C1222 C1221 1.398 . S
C1222 C1225 1.372 . S
C1222 H1232 0.931 . S
C1223 C1220 1.382 . S
C1223 C1225 1.390 . S
C1223 H1233 0.931 . S
C1224 C1220 1.390 . S
C1224 C1221 1.392 . S
C1224 H1234 0.930 . S
C1225 C1222 1.372 . S
C1225 C1223 1.390 . S
C1225 H1235 0.929 . S
C1226 O1206 1.255 . S
C1226 O1207 1.257 . S
C1227 Eu1163 2.787 1_655 S
C1227 O1202 1.252 1_655 S
C1227 O1205 1.268 1_655 S
C1227 C1220 1.506 . S
H1228 C1211 0.931 . S
H1229 C1212 0.931 . S
H1230 C1213 0.929 . S
H1231 C1214 0.930 . S
H1232 C1222 0.931 . S
H1233 C1223 0.931 . S
H1234 C1224 0.930 . S
H1235 C1225 0.929 . S
Eu1236 N1265 2.600 . S
Eu1236 N1271 2.562 . S
Eu1236 O1280 2.462 . S
Eu1236 O1281 2.373 . S
Eu1236 O1283 2.432 . S
Eu1236 O1284 2.291 . S
Eu1236 O1288 2.335 . S
Eu1236 O1291 2.372 . S
Eu1236 C1300 2.787 . S
C1237 N1238 1.365 . S
C1237 C1240 1.405 . S
C1237 C1244 1.448 . S
N1238 C1237 1.365 . S
N1238 C1241 1.319 . S
N1238 Eu1247 2.600 . S
C1239 C1241 1.397 . S
C1239 C1242 1.367 . S
C1239 H1259 0.931 . S
C1240 C1237 1.405 . S
C1240 C1242 1.403 . S
C1240 C1246 1.439 . S
C1241 N1238 1.319 . S
C1241 C1239 1.397 . S
C1241 H1252 0.930 . S
C1242 C1239 1.367 . S
C1242 C1240 1.403 . S
C1242 H1263 0.929 . S
C1243 C1244 1.430 . S
C1243 C1245 1.387 . S
C1243 C1249 1.404 . S
C1244 C1237 1.448 . S
C1244 C1243 1.430 . S
C1244 N1248 1.351 . S
C1245 C1243 1.387 . S
C1245 C1246 1.374 . S
C1245 H1260 0.931 . S
C1246 C1240 1.439 . S
C1246 C1245 1.374 . S
C1246 H1261 0.931 . S
Eu1247 N1238 2.600 . S
Eu1247 N1248 2.562 . S
Eu1247 O1282 2.335 . S
Eu1247 O1285 2.372 . S
Eu1247 O1286 2.462 . S
Eu1247 O1287 2.373 . S
Eu1247 O1289 2.432 . S
Eu1247 O1290 2.291 . S
Eu1247 C1311 2.787 . S
N1248 C1244 1.351 . S
N1248 Eu1247 2.562 . S
N1248 C1250 1.325 . S
C1249 C1243 1.404 . S
C1249 C1251 1.366 . S
C1249 H1257 0.930 . S
C1250 N1248 1.325 . S
C1250 C1251 1.416 . S
C1250 H1256 0.929 . S
C1251 C1249 1.366 . S
C1251 C1250 1.416 . S
C1251 H1253 0.930 . S
H1252 C1241 0.930 . S
H1253 C1251 0.930 . S
H1254 C1269 0.930 . S
H1255 C1276 0.930 . S
H1256 C1250 0.929 . S
H1257 C1249 0.930 . S
H1258 C1272 0.929 . S
H1259 C1239 0.931 . S
H1260 C1245 0.931 . S
H1261 C1246 0.931 . S
H1262 C1267 0.931 . S
H1263 C1242 0.929 . S
H1264 C1275 0.930 . S
N1265 Eu1236 2.600 . S
N1265 C1266 1.365 . S
N1265 C1269 1.319 . S
C1266 N1265 1.365 . S
C1266 C1268 1.405 . S
C1266 C1274 1.448 . S
C1267 H1262 0.931 . S
C1267 C1269 1.397 . S
C1267 C1270 1.367 . S
C1268 C1266 1.405 . S
C1268 C1270 1.403 . S
C1268 C1301 1.439 . S
C1269 H1254 0.930 . S
C1269 N1265 1.319 . S
C1269 C1267 1.397 . S
C1270 C1267 1.367 . S
C1270 C1268 1.403 . S
C1270 H1277 0.929 . S
N1271 Eu1236 2.562 . S
N1271 C1272 1.325 . S
N1271 C1274 1.351 . S
C1272 H1258 0.929 . S
C1272 N1271 1.325 . S
C1272 C1276 1.416 . S
C1273 C1274 1.430 . S
C1273 C1275 1.404 . S
C1273 C1302 1.387 . S
C1274 C1266 1.448 . S
C1274 N1271 1.351 . S
C1274 C1273 1.430 . S
C1275 H1264 0.930 . S
C1275 C1273 1.404 . S
C1275 C1276 1.366 . S
C1276 H1255 0.930 . S
C1276 C1272 1.416 . S
C1276 C1275 1.366 . S
H1277 C1270 0.929 . S
H1278 C1301 0.931 . S
H1279 C1302 0.931 . S
O1280 Eu1236 2.462 . S
O1280 C1300 1.252 . S
O1281 Eu1236 2.373 . S
O1281 C1292 1.249 . S
O1282 Eu1247 2.335 . S
O1282 C1292 1.264 . S
O1283 Eu1236 2.432 . S
O1283 C1300 1.268 . S
O1284 Eu1236 2.291 . S
O1284 C1299 1.255 . S
O1285 Eu1247 2.372 . S
O1285 C1299 1.257 . S
O1286 Eu1247 2.462 . S
O1286 C1311 1.252 . S
O1287 Eu1247 2.373 . S
O1287 C1303 1.249 . S
O1288 Eu1236 2.335 . S
O1288 C1303 1.264 . S
O1289 Eu1247 2.432 . S
O1289 C1311 1.268 . S
O1290 Eu1247 2.291 . S
O1290 C1310 1.255 . S
O1291 Eu1236 2.372 . S
O1291 C1310 1.257 . S
C1292 O1281 1.249 . S
C1292 O1282 1.264 . S
C1293 C1296 1.382 . S
C1293 C1298 1.390 . S
C1293 C1300 1.506 . S
C1294 C1295 1.398 . S
C1294 C1298 1.392 . S
C1295 C1294 1.398 . S
C1295 C1297 1.372 . S
C1295 H1312 0.931 . S
C1296 C1293 1.382 . S
C1296 C1297 1.390 . S
C1296 H1313 0.931 . S
C1297 C1295 1.372 . S
C1297 C1296 1.390 . S
C1297 H1314 0.929 . S
C1298 C1293 1.390 . S
C1298 C1294 1.392 . S
C1298 H1315 0.930 . S
C1299 O1284 1.255 . S
C1299 O1285 1.257 . S
C1300 Eu1236 2.787 . S
C1300 O1280 1.252 . S
C1300 O1283 1.268 . S
C1300 C1293 1.506 . S
C1301 C1268 1.439 . S
C1301 H1278 0.931 . S
C1301 C1302 1.374 . S
C1302 C1273 1.387 . S
C1302 H1279 0.931 . S
C1302 C1301 1.374 . S
C1303 O1287 1.249 . S
C1303 O1288 1.264 . S
C1304 C1307 1.382 . S
C1304 C1308 1.390 . S
C1304 C1311 1.506 . S
C1305 C1306 1.398 . S
C1305 C1308 1.392 . S
C1306 C1305 1.398 . S
C1306 C1309 1.372 . S
C1306 H1316 0.931 . S
C1307 C1304 1.382 . S
C1307 C1309 1.390 . S
C1307 H1317 0.931 . S
C1308 C1304 1.390 . S
C1308 C1305 1.392 . S
C1308 H1318 0.930 . S
C1309 C1306 1.372 . S
C1309 C1307 1.390 . S
C1309 H1319 0.929 . S
C1310 O1290 1.255 . S
C1310 O1291 1.257 . S
C1311 Eu1247 2.787 . S
C1311 O1286 1.252 . S
C1311 O1289 1.268 . S
C1311 C1304 1.506 . S
H1312 C1295 0.931 . S
H1313 C1296 0.931 . S
H1314 C1297 0.929 . S
H1315 C1298 0.930 . S
H1316 C1306 0.931 . S
H1317 C1307 0.931 . S
H1318 C1308 0.930 . S
H1319 C1309 0.929 . S
Eu1320 N1349 2.600 . S
Eu1320 N1355 2.562 . S
Eu1320 O1364 2.462 . S
Eu1320 O1365 2.373 . S
Eu1320 O1367 2.432 . S
Eu1320 O1368 2.291 . S
Eu1320 O1372 2.335 . S
Eu1320 O1375 2.372 . S
Eu1320 C1384 2.787 . S
C1321 N1322 1.365 . S
C1321 C1324 1.405 . S
C1321 C1328 1.448 . S
N1322 C1321 1.365 . S
N1322 C1325 1.319 . S
N1322 Eu1331 2.600 . S
C1323 C1325 1.397 . S
C1323 C1326 1.367 . S
C1323 H1343 0.931 . S
C1324 C1321 1.405 . S
C1324 C1326 1.403 . S
C1324 C1330 1.439 . S
C1325 N1322 1.319 . S
C1325 C1323 1.397 . S
C1325 H1336 0.930 . S
C1326 C1323 1.367 . S
C1326 C1324 1.403 . S
C1326 H1347 0.929 . S
C1327 C1328 1.430 . S
C1327 C1329 1.387 . S
C1327 C1333 1.404 . S
C1328 C1321 1.448 . S
C1328 C1327 1.430 . S
C1328 N1332 1.351 . S
C1329 C1327 1.387 . S
C1329 C1330 1.374 . S
C1329 H1344 0.931 . S
C1330 C1324 1.439 . S
C1330 C1329 1.374 . S
C1330 H1345 0.931 . S
Eu1331 N1322 2.600 . S
Eu1331 N1332 2.562 . S
Eu1331 O1366 2.335 . S
Eu1331 O1369 2.372 . S
Eu1331 O1370 2.462 . S
Eu1331 O1371 2.373 . S
Eu1331 O1373 2.432 . S
Eu1331 O1374 2.291 . S
Eu1331 C1395 2.787 . S
N1332 C1328 1.351 . S
N1332 Eu1331 2.562 . S
N1332 C1334 1.325 . S
C1333 C1327 1.404 . S
C1333 C1335 1.366 . S
C1333 H1341 0.930 . S
C1334 N1332 1.325 . S
C1334 C1335 1.416 . S
C1334 H1340 0.929 . S
C1335 C1333 1.366 . S
C1335 C1334 1.416 . S
C1335 H1337 0.930 . S
H1336 C1325 0.930 . S
H1337 C1335 0.930 . S
H1338 C1353 0.930 . S
H1339 C1360 0.930 . S
H1340 C1334 0.929 . S
H1341 C1333 0.930 . S
H1342 C1356 0.929 . S
H1343 C1323 0.931 . S
H1344 C1329 0.931 . S
H1345 C1330 0.931 . S
H1346 C1351 0.931 . S
H1347 C1326 0.929 . S
H1348 C1359 0.930 . S
N1349 Eu1320 2.600 . S
N1349 C1350 1.365 . S
N1349 C1353 1.319 . S
C1350 N1349 1.365 . S
C1350 C1352 1.405 . S
C1350 C1358 1.448 . S
C1351 H1346 0.931 . S
C1351 C1353 1.397 . S
C1351 C1354 1.367 . S
C1352 C1350 1.405 . S
C1352 C1354 1.403 . S
C1352 C1385 1.439 . S
C1353 H1338 0.930 . S
C1353 N1349 1.319 . S
C1353 C1351 1.397 . S
C1354 C1351 1.367 . S
C1354 C1352 1.403 . S
C1354 H1361 0.929 . S
N1355 Eu1320 2.562 . S
N1355 C1356 1.325 . S
N1355 C1358 1.351 . S
C1356 H1342 0.929 . S
C1356 N1355 1.325 . S
C1356 C1360 1.416 . S
C1357 C1358 1.430 . S
C1357 C1359 1.404 . S
C1357 C1386 1.387 . S
C1358 C1350 1.448 . S
C1358 N1355 1.351 . S
C1358 C1357 1.430 . S
C1359 H1348 0.930 . S
C1359 C1357 1.404 . S
C1359 C1360 1.366 . S
C1360 H1339 0.930 . S
C1360 C1356 1.416 . S
C1360 C1359 1.366 . S
H1361 C1354 0.929 . S
H1362 C1385 0.931 . S
H1363 C1386 0.931 . S
O1364 Eu1320 2.462 . S
O1364 C1384 1.252 . S
O1365 Eu1320 2.373 . S
O1365 C1376 1.249 . S
O1366 Eu1331 2.335 . S
O1366 C1376 1.264 . S
O1367 Eu1320 2.432 . S
O1367 C1384 1.268 . S
O1368 Eu1320 2.291 . S
O1368 C1383 1.255 . S
O1369 Eu1331 2.372 . S
O1369 C1383 1.257 . S
O1370 Eu1331 2.462 . S
O1370 C1395 1.252 . S
O1371 Eu1331 2.373 . S
O1371 C1387 1.249 . S
O1372 Eu1320 2.335 . S
O1372 C1387 1.264 . S
O1373 Eu1331 2.432 . S
O1373 C1395 1.268 . S
O1374 Eu1331 2.291 . S
O1374 C1394 1.255 . S
O1375 Eu1320 2.372 . S
O1375 C1394 1.257 . S
C1376 O1365 1.249 . S
C1376 O1366 1.264 . S
C1377 C1380 1.382 . S
C1377 C1382 1.390 . S
C1377 C1384 1.506 . S
C1378 C1379 1.398 . S
C1378 C1382 1.392 . S
C1379 C1378 1.398 . S
C1379 C1381 1.372 . S
C1379 H1396 0.931 . S
C1380 C1377 1.382 . S
C1380 C1381 1.390 . S
C1380 H1397 0.931 . S
C1381 C1379 1.372 . S
C1381 C1380 1.390 . S
C1381 H1398 0.929 . S
C1382 C1377 1.390 . S
C1382 C1378 1.392 . S
C1382 H1399 0.930 . S
C1383 O1368 1.255 . S
C1383 O1369 1.257 . S
C1384 Eu1320 2.787 . S
C1384 O1364 1.252 . S
C1384 O1367 1.268 . S
C1384 C1377 1.506 . S
C1385 C1352 1.439 . S
C1385 H1362 0.931 . S
C1385 C1386 1.374 . S
C1386 C1357 1.387 . S
C1386 H1363 0.931 . S
C1386 C1385 1.374 . S
C1387 O1371 1.249 . S
C1387 O1372 1.264 . S
C1388 C1391 1.382 . S
C1388 C1392 1.390 . S
C1388 C1395 1.506 . S
C1389 C1390 1.398 . S
C1389 C1392 1.392 . S
C1390 C1389 1.398 . S
C1390 C1393 1.372 . S
C1390 H1400 0.931 . S
C1391 C1388 1.382 . S
C1391 C1393 1.390 . S
C1391 H1401 0.931 . S
C1392 C1388 1.390 . S
C1392 C1389 1.392 . S
C1392 H1402 0.930 . S
C1393 C1390 1.372 . S
C1393 C1391 1.390 . S
C1393 H1403 0.929 . S
C1394 O1374 1.255 . S
C1394 O1375 1.257 . S
C1395 Eu1331 2.787 . S
C1395 O1370 1.252 . S
C1395 O1373 1.268 . S
C1395 C1388 1.506 . S
H1396 C1379 0.931 . S
H1397 C1380 0.931 . S
H1398 C1381 0.929 . S
H1399 C1382 0.930 . S
H1400 C1390 0.931 . S
H1401 C1391 0.931 . S
H1402 C1392 0.930 . S
H1403 C1393 0.929 . S
Eu1404 N1433 2.600 . S
Eu1404 N1439 2.562 . S
Eu1404 O1448 2.462 . S
Eu1404 O1449 2.373 . S
Eu1404 O1451 2.432 . S
Eu1404 O1452 2.291 . S
Eu1404 O1456 2.335 . S
Eu1404 O1459 2.372 . S
Eu1404 C1468 2.787 . S
C1405 N1406 1.365 . S
C1405 C1408 1.405 . S
C1405 C1412 1.448 . S
N1406 C1405 1.365 . S
N1406 C1409 1.319 . S
N1406 Eu1415 2.600 . S
C1407 C1409 1.397 . S
C1407 C1410 1.367 . S
C1407 H1427 0.931 . S
C1408 C1405 1.405 . S
C1408 C1410 1.403 . S
C1408 C1414 1.439 . S
C1409 N1406 1.319 . S
C1409 C1407 1.397 . S
C1409 H1420 0.930 . S
C1410 C1407 1.367 . S
C1410 C1408 1.403 . S
C1410 H1431 0.929 . S
C1411 C1412 1.430 . S
C1411 C1413 1.387 . S
C1411 C1417 1.404 . S
C1412 C1405 1.448 . S
C1412 C1411 1.430 . S
C1412 N1416 1.351 . S
C1413 C1411 1.387 . S
C1413 C1414 1.374 . S
C1413 H1428 0.931 . S
C1414 C1408 1.439 . S
C1414 C1413 1.374 . S
C1414 H1429 0.931 . S
Eu1415 N1406 2.600 . S
Eu1415 N1416 2.562 . S
Eu1415 O1450 2.335 . S
Eu1415 O1453 2.372 . S
Eu1415 O1454 2.462 . S
Eu1415 O1455 2.373 . S
Eu1415 O1457 2.432 . S
Eu1415 O1458 2.291 . S
Eu1415 C1479 2.787 . S
N1416 C1412 1.351 . S
N1416 Eu1415 2.562 . S
N1416 C1418 1.325 . S
C1417 C1411 1.404 . S
C1417 C1419 1.366 . S
C1417 H1425 0.930 . S
C1418 N1416 1.325 . S
C1418 C1419 1.416 . S
C1418 H1424 0.929 . S
C1419 C1417 1.366 . S
C1419 C1418 1.416 . S
C1419 H1421 0.930 . S
H1420 C1409 0.930 . S
H1421 C1419 0.930 . S
H1422 C1437 0.930 . S
H1423 C1444 0.930 . S
H1424 C1418 0.929 . S
H1425 C1417 0.930 . S
H1426 C1440 0.929 . S
H1427 C1407 0.931 . S
H1428 C1413 0.931 . S
H1429 C1414 0.931 . S
H1430 C1435 0.931 . S
H1431 C1410 0.929 . S
H1432 C1443 0.930 . S
N1433 Eu1404 2.600 . S
N1433 C1434 1.365 . S
N1433 C1437 1.319 . S
C1434 N1433 1.365 . S
C1434 C1436 1.405 . S
C1434 C1442 1.448 . S
C1435 H1430 0.931 . S
C1435 C1437 1.397 . S
C1435 C1438 1.367 . S
C1436 C1434 1.405 . S
C1436 C1438 1.403 . S
C1436 C1469 1.439 . S
C1437 H1422 0.930 . S
C1437 N1433 1.319 . S
C1437 C1435 1.397 . S
C1438 C1435 1.367 . S
C1438 C1436 1.403 . S
C1438 H1445 0.929 . S
N1439 Eu1404 2.562 . S
N1439 C1440 1.325 . S
N1439 C1442 1.351 . S
C1440 H1426 0.929 . S
C1440 N1439 1.325 . S
C1440 C1444 1.416 . S
C1441 C1442 1.430 . S
C1441 C1443 1.404 . S
C1441 C1470 1.387 . S
C1442 C1434 1.448 . S
C1442 N1439 1.351 . S
C1442 C1441 1.430 . S
C1443 H1432 0.930 . S
C1443 C1441 1.404 . S
C1443 C1444 1.366 . S
C1444 H1423 0.930 . S
C1444 C1440 1.416 . S
C1444 C1443 1.366 . S
H1445 C1438 0.929 . S
H1446 C1469 0.931 . S
H1447 C1470 0.931 . S
O1448 Eu1404 2.462 . S
O1448 C1468 1.252 . S
O1449 Eu1404 2.373 . S
O1449 C1460 1.249 . S
O1450 Eu1415 2.335 . S
O1450 C1460 1.264 . S
O1451 Eu1404 2.432 . S
O1451 C1468 1.268 . S
O1452 Eu1404 2.291 . S
O1452 C1467 1.255 . S
O1453 Eu1415 2.372 . S
O1453 C1467 1.257 . S
O1454 Eu1415 2.462 . S
O1454 C1479 1.252 . S
O1455 Eu1415 2.373 . S
O1455 C1471 1.249 . S
O1456 Eu1404 2.335 . S
O1456 C1471 1.264 . S
O1457 Eu1415 2.432 . S
O1457 C1479 1.268 . S
O1458 Eu1415 2.291 . S
O1458 C1478 1.255 . S
O1459 Eu1404 2.372 . S
O1459 C1478 1.257 . S
C1460 O1449 1.249 . S
C1460 O1450 1.264 . S
C1461 C1464 1.382 . S
C1461 C1466 1.390 . S
C1461 C1468 1.506 . S
C1462 C1463 1.398 . S
C1462 C1466 1.392 . S
C1463 C1462 1.398 . S
C1463 C1465 1.372 . S
C1463 H1480 0.931 . S
C1464 C1461 1.382 . S
C1464 C1465 1.390 . S
C1464 H1481 0.931 . S
C1465 C1463 1.372 . S
C1465 C1464 1.390 . S
C1465 H1482 0.929 . S
C1466 C1461 1.390 . S
C1466 C1462 1.392 . S
C1466 H1483 0.930 . S
C1467 O1452 1.255 . S
C1467 O1453 1.257 . S
C1468 Eu1404 2.787 . S
C1468 O1448 1.252 . S
C1468 O1451 1.268 . S
C1468 C1461 1.506 . S
C1469 C1436 1.439 . S
C1469 H1446 0.931 . S
C1469 C1470 1.374 . S
C1470 C1441 1.387 . S
C1470 H1447 0.931 . S
C1470 C1469 1.374 . S
C1471 O1455 1.249 . S
C1471 O1456 1.264 . S
C1472 C1475 1.382 . S
C1472 C1476 1.390 . S
C1472 C1479 1.506 . S
C1473 C1474 1.398 . S
C1473 C1476 1.392 . S
C1474 C1473 1.398 . S
C1474 C1477 1.372 . S
C1474 H1484 0.931 . S
C1475 C1472 1.382 . S
C1475 C1477 1.390 . S
C1475 H1485 0.931 . S
C1476 C1472 1.390 . S
C1476 C1473 1.392 . S
C1476 H1486 0.930 . S
C1477 C1474 1.372 . S
C1477 C1475 1.390 . S
C1477 H1487 0.929 . S
C1478 O1458 1.255 . S
C1478 O1459 1.257 . S
C1479 Eu1415 2.787 . S
C1479 O1454 1.252 . S
C1479 O1457 1.268 . S
C1479 C1472 1.506 . S
H1480 C1463 0.931 . S
H1481 C1464 0.931 . S
H1482 C1465 0.929 . S
H1483 C1466 0.930 . S
H1484 C1474 0.931 . S
H1485 C1475 0.931 . S
H1486 C1476 0.930 . S
H1487 C1477 0.929 . S
Eu1488 N1517 2.600 . S
Eu1488 N1523 2.562 . S
Eu1488 O1532 2.462 . S
Eu1488 O1533 2.373 . S
Eu1488 O1535 2.432 . S
Eu1488 O1536 2.291 . S
Eu1488 O1540 2.335 . S
Eu1488 O1543 2.372 . S
Eu1488 C1552 2.787 . S
C1489 N1490 1.365 . S
C1489 C1492 1.405 . S
C1489 C1496 1.448 . S
N1490 C1489 1.365 . S
N1490 C1493 1.319 . S
N1490 Eu1499 2.600 . S
C1491 C1493 1.397 . S
C1491 C1494 1.367 . S
C1491 H1511 0.931 . S
C1492 C1489 1.405 . S
C1492 C1494 1.403 . S
C1492 C1498 1.439 . S
C1493 N1490 1.319 . S
C1493 C1491 1.397 . S
C1493 H1504 0.930 . S
C1494 C1491 1.367 . S
C1494 C1492 1.403 . S
C1494 H1515 0.929 . S
C1495 C1496 1.430 . S
C1495 C1497 1.387 . S
C1495 C1501 1.404 . S
C1496 C1489 1.448 . S
C1496 C1495 1.430 . S
C1496 N1500 1.351 . S
C1497 C1495 1.387 . S
C1497 C1498 1.374 . S
C1497 H1512 0.931 . S
C1498 C1492 1.439 . S
C1498 C1497 1.374 . S
C1498 H1513 0.931 . S
Eu1499 N1490 2.600 . S
Eu1499 N1500 2.562 . S
Eu1499 O1534 2.335 . S
Eu1499 O1537 2.372 . S
Eu1499 O1538 2.462 . S
Eu1499 O1539 2.373 . S
Eu1499 O1541 2.432 . S
Eu1499 O1542 2.291 . S
Eu1499 C1563 2.787 . S
N1500 C1496 1.351 . S
N1500 Eu1499 2.562 . S
N1500 C1502 1.325 . S
C1501 C1495 1.404 . S
C1501 C1503 1.366 . S
C1501 H1509 0.930 . S
C1502 N1500 1.325 . S
C1502 C1503 1.416 . S
C1502 H1508 0.929 . S
C1503 C1501 1.366 . S
C1503 C1502 1.416 . S
C1503 H1505 0.930 . S
H1504 C1493 0.930 . S
H1505 C1503 0.930 . S
H1506 C1521 0.930 . S
H1507 C1528 0.930 . S
H1508 C1502 0.929 . S
H1509 C1501 0.930 . S
H1510 C1524 0.929 . S
H1511 C1491 0.931 . S
H1512 C1497 0.931 . S
H1513 C1498 0.931 . S
H1514 C1519 0.931 . S
H1515 C1494 0.929 . S
H1516 C1527 0.930 . S
N1517 Eu1488 2.600 . S
N1517 C1518 1.365 . S
N1517 C1521 1.319 . S
C1518 N1517 1.365 . S
C1518 C1520 1.405 . S
C1518 C1526 1.448 . S
C1519 H1514 0.931 . S
C1519 C1521 1.397 . S
C1519 C1522 1.367 . S
C1520 C1518 1.405 . S
C1520 C1522 1.403 . S
C1520 C1553 1.439 . S
C1521 H1506 0.930 . S
C1521 N1517 1.319 . S
C1521 C1519 1.397 . S
C1522 C1519 1.367 . S
C1522 C1520 1.403 . S
C1522 H1529 0.929 . S
N1523 Eu1488 2.562 . S
N1523 C1524 1.325 . S
N1523 C1526 1.351 . S
C1524 H1510 0.929 . S
C1524 N1523 1.325 . S
C1524 C1528 1.416 . S
C1525 C1526 1.430 . S
C1525 C1527 1.404 . S
C1525 C1554 1.387 . S
C1526 C1518 1.448 . S
C1526 N1523 1.351 . S
C1526 C1525 1.430 . S
C1527 H1516 0.930 . S
C1527 C1525 1.404 . S
C1527 C1528 1.366 . S
C1528 H1507 0.930 . S
C1528 C1524 1.416 . S
C1528 C1527 1.366 . S
H1529 C1522 0.929 . S
H1530 C1553 0.931 . S
H1531 C1554 0.931 . S
O1532 Eu1488 2.462 . S
O1532 C1552 1.252 . S
O1533 Eu1488 2.373 . S
O1533 C1544 1.249 . S
O1534 Eu1499 2.335 . S
O1534 C1544 1.264 . S
O1535 Eu1488 2.432 . S
O1535 C1552 1.268 . S
O1536 Eu1488 2.291 . S
O1536 C1551 1.255 . S
O1537 Eu1499 2.372 . S
O1537 C1551 1.257 . S
O1538 Eu1499 2.462 . S
O1538 C1563 1.252 . S
O1539 Eu1499 2.373 . S
O1539 C1555 1.249 . S
O1540 Eu1488 2.335 . S
O1540 C1555 1.264 . S
O1541 Eu1499 2.432 . S
O1541 C1563 1.268 . S
O1542 Eu1499 2.291 . S
O1542 C1562 1.255 . S
O1543 Eu1488 2.372 . S
O1543 C1562 1.257 . S
C1544 O1533 1.249 . S
C1544 O1534 1.264 . S
C1545 C1548 1.382 . S
C1545 C1550 1.390 . S
C1545 C1552 1.506 . S
C1546 C1547 1.398 . S
C1546 C1550 1.392 . S
C1547 C1546 1.398 . S
C1547 C1549 1.372 . S
C1547 H1564 0.931 . S
C1548 C1545 1.382 . S
C1548 C1549 1.390 . S
C1548 H1565 0.931 . S
C1549 C1547 1.372 . S
C1549 C1548 1.390 . S
C1549 H1566 0.929 . S
C1550 C1545 1.390 . S
C1550 C1546 1.392 . S
C1550 H1567 0.930 . S
C1551 O1536 1.255 . S
C1551 O1537 1.257 . S
C1552 Eu1488 2.787 . S
C1552 O1532 1.252 . S
C1552 O1535 1.268 . S
C1552 C1545 1.506 . S
C1553 C1520 1.439 . S
C1553 H1530 0.931 . S
C1553 C1554 1.374 . S
C1554 C1525 1.387 . S
C1554 H1531 0.931 . S
C1554 C1553 1.374 . S
C1555 O1539 1.249 . S
C1555 O1540 1.264 . S
C1556 C1559 1.382 . S
C1556 C1560 1.390 . S
C1556 C1563 1.506 . S
C1557 C1558 1.398 . S
C1557 C1560 1.392 . S
C1558 C1557 1.398 . S
C1558 C1561 1.372 . S
C1558 H1568 0.931 . S
C1559 C1556 1.382 . S
C1559 C1561 1.390 . S
C1559 H1569 0.931 . S
C1560 C1556 1.390 . S
C1560 C1557 1.392 . S
C1560 H1570 0.930 . S
C1561 C1558 1.372 . S
C1561 C1559 1.390 . S
C1561 H1571 0.929 . S
C1562 O1542 1.255 . S
C1562 O1543 1.257 . S
C1563 Eu1499 2.787 . S
C1563 O1538 1.252 . S
C1563 O1541 1.268 . S
C1563 C1556 1.506 . S
H1564 C1547 0.931 . S
H1565 C1548 0.931 . S
H1566 C1549 0.929 . S
H1567 C1550 0.930 . S
H1568 C1558 0.931 . S
H1569 C1559 0.931 . S
H1570 C1560 0.930 . S
H1571 C1561 0.929 . S
Eu1572 N1601 2.600 . S
Eu1572 N1607 2.562 . S
Eu1572 O1616 2.462 . S
Eu1572 O1617 2.373 1_655 S
Eu1572 O1619 2.432 . S
Eu1572 O1620 2.291 . S
Eu1572 O1624 2.335 1_655 S
Eu1572 O1627 2.372 1_655 S
Eu1572 C1636 2.787 . S
C1573 N1574 1.365 1_554 S
C1573 C1576 1.405 1_554 S
C1573 C1580 1.448 . S
N1574 C1573 1.365 1_556 S
N1574 C1577 1.319 . S
N1574 Eu1583 2.600 1_556 S
C1575 C1577 1.397 . S
C1575 C1578 1.367 . S
C1575 H1595 0.931 . S
C1576 C1573 1.405 1_556 S
C1576 C1578 1.403 . S
C1576 C1582 1.439 . S
C1577 N1574 1.319 . S
C1577 C1575 1.397 . S
C1577 H1588 0.930 . S
C1578 C1575 1.367 . S
C1578 C1576 1.403 . S
C1578 H1599 0.929 . S
C1579 C1580 1.430 . S
C1579 C1581 1.387 . S
C1579 C1585 1.404 . S
C1580 C1573 1.448 . S
C1580 C1579 1.430 . S
C1580 N1584 1.351 . S
C1581 C1579 1.387 . S
C1581 C1582 1.374 1_554 S
C1581 H1596 0.931 . S
C1582 C1576 1.439 . S
C1582 C1581 1.374 1_556 S
C1582 H1597 0.931 . S
Eu1583 N1574 2.600 1_554 S
Eu1583 N1584 2.562 . S
Eu1583 O1618 2.335 . S
Eu1583 O1621 2.372 1_554 S
Eu1583 O1622 2.462 . S
Eu1583 O1623 2.373 . S
Eu1583 O1625 2.432 . S
Eu1583 O1626 2.291 . S
Eu1583 C1647 2.787 . S
N1584 C1580 1.351 . S
N1584 Eu1583 2.562 . S
N1584 C1586 1.325 . S
C1585 C1579 1.404 . S
C1585 C1587 1.366 . S
C1585 H1593 0.930 . S
C1586 N1584 1.325 . S
C1586 C1587 1.416 . S
C1586 H1592 0.929 . S
C1587 C1585 1.366 . S
C1587 C1586 1.416 . S
C1587 H1589 0.930 . S
H1588 C1577 0.930 . S
H1589 C1587 0.930 . S
H1590 C1605 0.930 . S
H1591 C1612 0.875 1_556 S
H1592 C1586 0.929 . S
H1593 C1585 0.930 . S
H1594 C1608 0.929 . S
H1595 C1575 0.931 . S
H1596 C1581 0.931 . S
H1597 C1582 0.931 . S
H1598 C1603 0.931 . S
H1599 C1578 0.929 . S
H1600 C1611 0.930 . S
N1601 Eu1572 2.600 . S
N1601 C1602 1.365 . S
N1601 C1605 1.319 . S
C1602 N1601 1.365 . S
C1602 C1604 1.405 . S
C1602 C1610 1.448 . S
C1603 H1598 0.931 . S
C1603 C1605 1.397 . S
C1603 C1606 1.367 . S
C1604 C1602 1.405 . S
C1604 C1606 1.403 . S
C1604 C1637 1.439 . S
C1605 H1590 0.930 . S
C1605 N1601 1.319 . S
C1605 C1603 1.397 . S
C1606 C1603 1.367 . S
C1606 C1604 1.403 . S
C1606 H1613 0.929 . S
N1607 Eu1572 2.562 . S
N1607 C1608 1.325 . S
N1607 C1610 1.351 . S
C1608 H1594 0.929 . S
C1608 N1607 1.325 . S
C1608 C1612 1.416 . S
C1609 C1610 1.430 . S
C1609 C1611 1.404 . S
C1609 C1638 1.387 . S
C1610 C1602 1.448 . S
C1610 N1607 1.351 . S
C1610 C1609 1.430 . S
C1611 H1600 0.930 . S
C1611 C1609 1.404 . S
C1611 C1612 1.366 . S
C1612 H1591 0.875 1_554 S
C1612 C1608 1.416 . S
C1612 C1611 1.366 . S
H1613 C1606 0.929 . S
H1614 C1637 0.931 . S
H1615 C1638 0.931 . S
O1616 Eu1572 2.462 . S
O1616 C1636 1.252 . S
O1617 Eu1572 2.373 1_455 S
O1617 C1628 1.249 . S
O1618 Eu1583 2.335 . S
O1618 C1628 1.264 . S
O1619 Eu1572 2.432 . S
O1619 C1636 1.268 . S
O1620 Eu1572 2.291 . S
O1620 C1635 1.255 . S
O1621 Eu1583 2.372 1_556 S
O1621 C1635 1.258 1_456 S
O1622 Eu1583 2.462 . S
O1622 C1647 1.252 . S
O1623 Eu1583 2.373 . S
O1623 C1639 1.249 . S
O1624 Eu1572 2.335 1_455 S
O1624 C1639 1.264 . S
O1625 Eu1583 2.432 . S
O1625 C1647 1.268 . S
O1626 Eu1583 2.291 . S
O1626 C1646 1.255 . S
O1627 Eu1572 2.372 1_455 S
O1627 C1646 1.257 . S
C1628 O1617 1.249 . S
C1628 O1618 1.264 . S
C1629 C1632 1.382 . S
C1629 C1634 1.390 . S
C1629 C1636 1.506 . S
C1630 C1631 1.398 . S
C1630 C1634 1.392 . S
C1631 C1630 1.398 . S
C1631 C1633 1.372 . S
C1631 H1648 0.931 . S
C1632 C1629 1.382 . S
C1632 C1633 1.390 . S
C1632 H1649 0.931 . S
C1633 C1631 1.372 . S
C1633 C1632 1.390 . S
C1633 H1650 0.929 . S
C1634 C1629 1.390 . S
C1634 C1630 1.392 . S
C1634 H1651 0.930 . S
C1635 O1620 1.255 . S
C1635 O1621 1.258 1_654 S
C1636 Eu1572 2.787 . S
C1636 O1616 1.252 . S
C1636 O1619 1.268 . S
C1636 C1629 1.506 . S
C1637 C1604 1.439 . S
C1637 H1614 0.931 . S
C1637 C1638 1.374 . S
C1638 C1609 1.387 . S
C1638 H1615 0.931 . S
C1638 C1637 1.374 . S
C1639 O1623 1.249 . S
C1639 O1624 1.264 . S
C1640 C1643 1.382 1_554 S
C1640 C1644 1.390 . S
C1640 C1647 1.506 . S
C1641 C1642 1.398 . S
C1641 C1644 1.392 . S
C1642 C1641 1.398 . S
C1642 C1645 1.372 1_554 S
C1642 H1652 0.931 . S
C1643 C1640 1.382 1_556 S
C1643 C1645 1.390 . S
C1643 H1653 0.931 . S
C1644 C1640 1.390 . S
C1644 C1641 1.392 . S
C1644 H1654 0.930 . S
C1645 C1642 1.372 1_556 S
C1645 C1643 1.390 . S
C1645 H1655 0.929 . S
C1646 O1626 1.255 . S
C1646 O1627 1.257 . S
C1647 Eu1583 2.787 . S
C1647 O1622 1.252 . S
C1647 O1625 1.268 . S
C1647 C1640 1.506 . S
H1648 C1631 0.931 . S
H1649 C1632 0.931 . S
H1650 C1633 0.929 . S
H1651 C1634 0.930 . S
H1652 C1642 0.931 . S
H1653 C1643 0.931 . S
H1654 C1644 0.930 . S
H1655 C1645 0.929 . S
H1656 C1664 0.929 . S
H1657 C1666 0.930 . S
H1658 C1668 0.930 . S
H1659 C1671 0.929 . S
H1660 C1674 0.930 1_655 S
H1661 C1676 0.960 . S
H1662 C1676 0.960 . S
H1663 C1676 0.960 . S
C1664 H1656 0.929 . S
C1664 C1665 1.377 1_655 S
C1664 C1666 1.384 . S
C1665 C1664 1.377 1_455 S
C1665 C1671 1.390 . S
C1666 H1657 0.930 . S
C1666 C1664 1.384 . S
C1666 C1667 1.372 1_655 S
C1667 C1666 1.372 1_455 S
C1667 C1668 1.400 . S
C1667 C1672 1.490 . S
C1668 H1658 0.930 . S
C1668 C1667 1.400 . S
C1668 C1671 1.386 . S
H1669 C1685 0.930 . S
H1670 C1686 0.894 1_556 S
C1671 H1659 0.929 . S
C1671 C1665 1.390 . S
C1671 C1668 1.386 . S
C1672 C1667 1.490 . S
C1672 C1674 1.395 . S
C1672 C1675 1.405 . S
H1673 C1679 0.930 . S
C1674 H1660 0.930 1_455 S
C1674 C1672 1.395 . S
C1674 C1677 1.403 . S
C1675 C1672 1.405 . S
C1675 C1676 1.522 1_556 S
C1675 C1679 1.398 1_556 S
C1676 H1661 0.960 . S
C1676 H1662 0.960 . S
C1676 H1663 0.960 . S
C1676 C1675 1.522 1_554 S
C1677 C1674 1.403 . S
C1677 C1678 1.392 . S
C1677 C1681 1.495 1_455 S
C1678 C1677 1.392 . S
C1678 C1679 1.385 1_556 S
C1678 C1680 1.478 1_556 S
C1679 H1673 0.930 . S
C1679 C1675 1.398 1_554 S
C1679 C1678 1.385 1_554 S
C1680 C1678 1.478 1_554 S
C1680 C1682 1.381 . S
C1680 C1686 1.383 . S
C1681 C1677 1.495 1_655 S
C1681 H1687 0.959 . S
C1681 H1688 0.961 1_655 S
C1681 H1689 0.960 . S
C1682 C1680 1.381 . S
C1682 C1683 1.394 . S
C1682 H1690 0.930 1_455 S
C1683 C1682 1.394 . S
C1683 C1684 1.383 . S
C1683 H1691 0.929 . S
C1684 C1683 1.383 . S
C1684 C1685 1.377 . S
C1685 H1669 0.930 . S
C1685 C1684 1.377 . S
C1685 C1686 1.379 . S
C1686 H1670 0.894 1_554 S
C1686 C1680 1.383 . S
C1686 C1685 1.379 . S
H1687 C1681 0.959 . S
H1688 C1681 0.961 1_455 S
H1689 C1681 0.960 . S
H1690 C1682 0.930 1_655 S
H1691 C1683 0.929 . S
H1692 C1700 0.929 . S
H1693 C1702 0.930 . S
H1694 C1704 0.930 . S
H1695 C1707 0.929 . S
H1696 C1710 0.930 . S
H1697 C1712 0.960 . S
H1698 C1712 0.960 . S
H1699 C1712 0.960 . S
C1700 H1692 0.929 . S
C1700 C1701 1.377 . S
C1700 C1702 1.384 . S
C1701 C1700 1.377 . S
C1701 C1707 1.390 . S
C1702 H1693 0.930 . S
C1702 C1700 1.384 . S
C1702 C1703 1.372 . S
C1703 C1702 1.372 . S
C1703 C1704 1.400 . S
C1703 C1708 1.490 . S
C1704 H1694 0.930 . S
C1704 C1703 1.400 . S
C1704 C1707 1.386 . S
H1705 C1721 0.930 . S
H1706 C1722 0.931 . S
C1707 H1695 0.929 . S
C1707 C1701 1.390 . S
C1707 C1704 1.386 . S
C1708 C1703 1.490 . S
C1708 C1710 1.395 . S
C1708 C1711 1.403 . S
H1709 C1715 0.930 . S
C1710 H1696 0.930 . S
C1710 C1708 1.395 . S
C1710 C1713 1.403 . S
C1711 C1708 1.403 . S
C1711 C1712 1.524 . S
C1711 C1715 1.400 . S
C1712 H1697 0.960 . S
C1712 H1698 0.960 . S
C1712 H1699 0.960 . S
C1712 C1711 1.524 . S
C1713 C1710 1.403 . S
C1713 C1714 1.392 . S
C1713 C1717 1.495 . S
C1714 C1713 1.392 . S
C1714 C1715 1.385 . S
C1714 C1716 1.478 . S
C1715 H1709 0.930 . S
C1715 C1711 1.400 . S
C1715 C1714 1.385 . S
C1716 C1714 1.478 . S
C1716 C1718 1.381 . S
C1716 C1722 1.383 . S
C1717 C1713 1.495 . S
C1717 H1723 0.959 . S
C1717 H1724 0.961 . S
C1717 H1725 0.960 . S
C1718 C1716 1.381 . S
C1718 C1719 1.394 . S
C1718 H1726 0.930 . S
C1719 C1718 1.394 . S
C1719 C1720 1.383 . S
C1719 H1727 0.929 . S
C1720 C1719 1.383 . S
C1720 C1721 1.377 . S
C1721 H1705 0.930 . S
C1721 C1720 1.377 . S
C1721 C1722 1.379 . S
C1722 H1706 0.931 . S
C1722 C1716 1.383 . S
C1722 C1721 1.379 . S
H1723 C1717 0.959 . S
H1724 C1717 0.961 . S
H1725 C1717 0.960 . S
H1726 C1718 0.930 . S
H1727 C1719 0.929 . S
H1728 C1736 0.929 . S
H1729 C1738 0.930 . S
H1730 C1740 0.930 . S
H1731 C1743 0.929 . S
H1732 C1746 0.930 . S
H1733 C1748 0.960 . S
H1734 C1748 0.960 . S
H1735 C1748 0.960 . S
C1736 H1728 0.929 . S
C1736 C1737 1.377 . S
C1736 C1738 1.384 . S
C1737 C1736 1.377 . S
C1737 C1743 1.390 . S
C1738 H1729 0.930 . S
C1738 C1736 1.384 . S
C1738 C1739 1.372 . S
C1739 C1738 1.372 . S
C1739 C1740 1.400 . S
C1739 C1744 1.490 . S
C1740 H1730 0.930 . S
C1740 C1739 1.400 . S
C1740 C1743 1.386 . S
H1741 C1757 0.930 . S
H1742 C1758 0.931 . S
C1743 H1731 0.929 . S
C1743 C1737 1.390 . S
C1743 C1740 1.386 . S
C1744 C1739 1.490 . S
C1744 C1746 1.395 . S
C1744 C1747 1.403 . S
H1745 C1751 0.930 . S
C1746 H1732 0.930 . S
C1746 C1744 1.395 . S
C1746 C1749 1.403 . S
C1747 C1744 1.403 . S
C1747 C1748 1.524 . S
C1747 C1751 1.400 . S
C1748 H1733 0.960 . S
C1748 H1734 0.960 . S
C1748 H1735 0.960 . S
C1748 C1747 1.524 . S
C1749 C1746 1.403 . S
C1749 C1750 1.392 . S
C1749 C1753 1.495 . S
C1750 C1749 1.392 . S
C1750 C1751 1.385 . S
C1750 C1752 1.478 . S
C1751 H1745 0.930 . S
C1751 C1747 1.400 . S
C1751 C1750 1.385 . S
C1752 C1750 1.478 . S
C1752 C1754 1.381 . S
C1752 C1758 1.383 . S
C1753 C1749 1.495 . S
C1753 H1759 0.959 . S
C1753 H1760 0.961 . S
C1753 H1761 0.960 . S
C1754 C1752 1.381 . S
C1754 C1755 1.394 . S
C1754 H1762 0.930 . S
C1755 C1754 1.394 . S
C1755 C1756 1.383 . S
C1755 H1763 0.929 . S
C1756 C1755 1.383 . S
C1756 C1757 1.377 . S
C1757 H1741 0.930 . S
C1757 C1756 1.377 . S
C1757 C1758 1.379 . S
C1758 H1742 0.931 . S
C1758 C1752 1.383 . S
C1758 C1757 1.379 . S
H1759 C1753 0.959 . S
H1760 C1753 0.961 . S
H1761 C1753 0.960 . S
H1762 C1754 0.930 . S
H1763 C1755 0.929 . S
H1764 C1772 0.929 . S
H1765 C1774 0.930 . S
H1766 C1776 0.930 . S
H1767 C1779 0.929 . S
H1768 C1782 0.930 . S
H1769 C1784 0.960 . S
H1770 C1784 0.960 . S
H1771 C1784 0.960 . S
C1772 H1764 0.929 . S
C1772 C1773 1.377 . S
C1772 C1774 1.384 . S
C1773 C1772 1.377 . S
C1773 C1779 1.390 . S
C1774 H1765 0.930 . S
C1774 C1772 1.384 . S
C1774 C1775 1.372 . S
C1775 C1774 1.372 . S
C1775 C1776 1.400 . S
C1775 C1780 1.490 . S
C1776 H1766 0.930 . S
C1776 C1775 1.400 . S
C1776 C1779 1.386 . S
H1777 C1793 0.930 . S
H1778 C1794 0.931 . S
C1779 H1767 0.929 . S
C1779 C1773 1.390 . S
C1779 C1776 1.386 . S
C1780 C1775 1.490 . S
C1780 C1782 1.395 . S
C1780 C1783 1.403 . S
H1781 C1787 0.930 . S
C1782 H1768 0.930 . S
C1782 C1780 1.395 . S
C1782 C1785 1.403 . S
C1783 C1780 1.403 . S
C1783 C1784 1.524 . S
C1783 C1787 1.400 . S
C1784 H1769 0.960 . S
C1784 H1770 0.960 . S
C1784 H1771 0.960 . S
C1784 C1783 1.524 . S
C1785 C1782 1.403 . S
C1785 C1786 1.392 . S
C1785 C1789 1.495 . S
C1786 C1785 1.392 . S
C1786 C1787 1.385 . S
C1786 C1788 1.478 . S
C1787 H1781 0.930 . S
C1787 C1783 1.400 . S
C1787 C1786 1.385 . S
C1788 C1786 1.478 . S
C1788 C1790 1.381 . S
C1788 C1794 1.383 . S
C1789 C1785 1.495 . S
C1789 H1795 0.959 . S
C1789 H1796 0.961 . S
C1789 H1797 0.960 . S
C1790 C1788 1.381 . S
C1790 C1791 1.394 . S
C1790 H1798 0.930 . S
C1791 C1790 1.394 . S
C1791 C1792 1.383 . S
C1791 H1799 0.929 . S
C1792 C1791 1.383 . S
C1792 C1793 1.377 . S
C1793 H1777 0.930 . S
C1793 C1792 1.377 . S
C1793 C1794 1.379 . S
C1794 H1778 0.931 . S
C1794 C1788 1.383 . S
C1794 C1793 1.379 . S
H1795 C1789 0.959 . S
H1796 C1789 0.961 . S
H1797 C1789 0.960 . S
H1798 C1790 0.930 . S
H1799 C1791 0.929 . S
H1800 C1808 0.929 . S
H1801 C1810 0.930 . S
H1802 C1812 0.930 . S
H1803 C1815 0.929 . S
H1804 C1818 0.930 . S
H1805 C1820 0.960 . S
H1806 C1820 0.960 . S
H1807 C1820 0.960 . S
C1808 H1800 0.929 . S
C1808 C1809 1.377 . S
C1808 C1810 1.384 . S
C1809 C1808 1.377 . S
C1809 C1815 1.390 . S
C1810 H1801 0.930 . S
C1810 C1808 1.384 . S
C1810 C1811 1.372 . S
C1811 C1810 1.372 . S
C1811 C1812 1.400 . S
C1811 C1816 1.490 . S
C1812 H1802 0.930 . S
C1812 C1811 1.400 . S
C1812 C1815 1.386 . S
H1813 C1829 0.930 . S
H1814 C1830 0.931 . S
C1815 H1803 0.929 . S
C1815 C1809 1.390 . S
C1815 C1812 1.386 . S
C1816 C1811 1.490 . S
C1816 C1818 1.395 . S
C1816 C1819 1.403 . S
H1817 C1823 0.930 . S
C1818 H1804 0.930 . S
C1818 C1816 1.395 . S
C1818 C1821 1.403 . S
C1819 C1816 1.403 . S
C1819 C1820 1.524 . S
C1819 C1823 1.400 . S
C1820 H1805 0.960 . S
C1820 H1806 0.960 . S
C1820 H1807 0.960 . S
C1820 C1819 1.524 . S
C1821 C1818 1.403 . S
C1821 C1822 1.392 . S
C1821 C1825 1.495 1_455 S
C1822 C1821 1.392 . S
C1822 C1823 1.385 . S
C1822 C1824 1.478 . S
C1823 H1817 0.930 . S
C1823 C1819 1.400 . S
C1823 C1822 1.385 . S
C1824 C1822 1.478 . S
C1824 C1826 1.381 . S
C1824 C1830 1.383 . S
C1825 C1821 1.495 1_655 S
C1825 H1831 0.959 . S
C1825 H1832 0.961 . S
C1825 H1833 0.933 1_655 S
C1826 C1824 1.381 . S
C1826 C1827 1.394 . S
C1826 H1834 0.930 . S
C1827 C1826 1.394 . S
C1827 C1828 1.383 . S
C1827 H1835 0.929 . S
C1828 C1827 1.383 . S
C1828 C1829 1.377 . S
C1829 H1813 0.930 . S
C1829 C1828 1.377 . S
C1829 C1830 1.379 . S
C1830 H1814 0.931 . S
C1830 C1824 1.383 . S
C1830 C1829 1.379 . S
H1831 C1825 0.959 . S
H1832 C1825 0.961 . S
H1833 C1825 0.933 1_455 S
H1834 C1826 0.930 . S
H1835 C1827 0.929 . S
H1836 C1844 0.929 . S
H1837 C1846 0.930 . S
H1838 C1848 0.930 . S
H1839 C1851 0.929 . S
H1840 C1854 0.930 . S
H1841 C1856 0.960 . S
H1842 C1856 0.960 . S
H1843 C1856 0.960 . S
C1844 H1836 0.929 . S
C1844 C1845 1.377 . S
C1844 C1846 1.384 . S
C1845 C1844 1.377 . S
C1845 C1851 1.390 . S
C1846 H1837 0.930 . S
C1846 C1844 1.384 . S
C1846 C1847 1.372 . S
C1847 C1846 1.372 . S
C1847 C1848 1.400 . S
C1847 C1852 1.490 . S
C1848 H1838 0.930 . S
C1848 C1847 1.400 . S
C1848 C1851 1.386 . S
H1849 C1865 0.930 . S
H1850 C1866 0.931 . S
C1851 H1839 0.929 . S
C1851 C1845 1.390 . S
C1851 C1848 1.386 . S
C1852 C1847 1.490 . S
C1852 C1854 1.395 . S
C1852 C1855 1.403 . S
H1853 C1859 0.930 . S
C1854 H1840 0.930 . S
C1854 C1852 1.395 . S
C1854 C1857 1.403 . S
C1855 C1852 1.403 . S
C1855 C1856 1.524 . S
C1855 C1859 1.400 . S
C1856 H1841 0.960 . S
C1856 H1842 0.960 . S
C1856 H1843 0.960 . S
C1856 C1855 1.524 . S
C1857 C1854 1.403 . S
C1857 C1858 1.392 . S
C1857 C1861 1.495 . S
C1858 C1857 1.392 . S
C1858 C1859 1.385 . S
C1858 C1860 1.478 . S
C1859 H1853 0.930 . S
C1859 C1855 1.400 . S
C1859 C1858 1.385 . S
C1860 C1858 1.478 . S
C1860 C1862 1.381 . S
C1860 C1866 1.383 . S
C1861 C1857 1.495 . S
C1861 H1867 0.959 . S
C1861 H1868 0.961 . S
C1861 H1869 0.960 . S
C1862 C1860 1.381 . S
C1862 C1863 1.394 . S
C1862 H1870 0.930 . S
C1863 C1862 1.394 . S
C1863 C1864 1.383 . S
C1863 H1871 0.929 . S
C1864 C1863 1.383 . S
C1864 C1865 1.377 . S
C1865 H1849 0.930 . S
C1865 C1864 1.377 . S
C1865 C1866 1.379 . S
C1866 H1850 0.931 . S
C1866 C1860 1.383 . S
C1866 C1865 1.379 . S
H1867 C1861 0.959 . S
H1868 C1861 0.961 . S
H1869 C1861 0.960 . S
H1870 C1862 0.930 . S
H1871 C1863 0.929 . S
H1872 C1880 0.929 . S
H1873 C1882 0.930 . S
H1874 C1884 0.930 . S
H1875 C1887 0.929 . S
H1876 C1890 0.930 . S
H1877 C1892 0.960 . S
H1878 C1892 0.960 . S
H1879 C1892 0.960 . S
C1880 H1872 0.929 . S
C1880 C1881 1.377 . S
C1880 C1882 1.384 . S
C1881 C1880 1.377 . S
C1881 C1887 1.390 . S
C1882 H1873 0.930 . S
C1882 C1880 1.384 . S
C1882 C1883 1.372 . S
C1883 C1882 1.372 . S
C1883 C1884 1.400 . S
C1883 C1888 1.490 . S
C1884 H1874 0.930 . S
C1884 C1883 1.400 . S
C1884 C1887 1.386 . S
H1885 C1901 0.930 . S
H1886 C1902 0.931 . S
C1887 H1875 0.929 . S
C1887 C1881 1.390 . S
C1887 C1884 1.386 . S
C1888 C1883 1.490 . S
C1888 C1890 1.395 . S
C1888 C1891 1.403 . S
H1889 C1895 0.930 . S
C1890 H1876 0.930 . S
C1890 C1888 1.395 . S
C1890 C1893 1.403 . S
C1891 C1888 1.403 . S
C1891 C1892 1.524 . S
C1891 C1895 1.400 . S
C1892 H1877 0.960 . S
C1892 H1878 0.960 . S
C1892 H1879 0.960 . S
C1892 C1891 1.524 . S
C1893 C1890 1.403 . S
C1893 C1894 1.392 . S
C1893 C1897 1.495 . S
C1894 C1893 1.392 . S
C1894 C1895 1.385 . S
C1894 C1896 1.478 . S
C1895 H1889 0.930 . S
C1895 C1891 1.400 . S
C1895 C1894 1.385 . S
C1896 C1894 1.478 . S
C1896 C1898 1.381 . S
C1896 C1902 1.383 . S
C1897 C1893 1.495 . S
C1897 H1903 0.959 . S
C1897 H1904 0.961 . S
C1897 H1905 0.960 . S
C1898 C1896 1.381 . S
C1898 C1899 1.394 . S
C1898 H1906 0.930 . S
C1899 C1898 1.394 . S
C1899 C1900 1.383 . S
C1899 H1907 0.929 . S
C1900 C1899 1.383 . S
C1900 C1901 1.377 . S
C1901 H1885 0.930 . S
C1901 C1900 1.377 . S
C1901 C1902 1.379 . S
C1902 H1886 0.931 . S
C1902 C1896 1.383 . S
C1902 C1901 1.379 . S
H1903 C1897 0.959 . S
H1904 C1897 0.961 . S
H1905 C1897 0.960 . S
H1906 C1898 0.930 . S
H1907 C1899 0.929 . S
H1908 C1916 0.929 . S
H1909 C1918 0.930 . S
H1910 C1920 0.930 . S
H1911 C1923 0.929 . S
H1912 C1926 0.930 . S
H1913 C1928 0.960 . S
H1914 C1928 0.960 . S
H1915 C1928 0.960 . S
C1916 H1908 0.929 . S
C1916 C1917 1.377 . S
C1916 C1918 1.384 . S
C1917 C1916 1.377 . S
C1917 C1923 1.390 . S
C1918 H1909 0.930 . S
C1918 C1916 1.384 . S
C1918 C1919 1.372 . S
C1919 C1918 1.372 . S
C1919 C1920 1.400 . S
C1919 C1924 1.490 . S
C1920 H1910 0.930 . S
C1920 C1919 1.400 . S
C1920 C1923 1.386 . S
H1921 C1937 0.930 . S
H1922 C1938 0.931 . S
C1923 H1911 0.929 . S
C1923 C1917 1.390 . S
C1923 C1920 1.386 . S
C1924 C1919 1.490 . S
C1924 C1926 1.395 . S
C1924 C1927 1.403 . S
H1925 C1931 0.930 . S
C1926 H1912 0.930 . S
C1926 C1924 1.395 . S
C1926 C1929 1.403 . S
C1927 C1924 1.403 . S
C1927 C1928 1.524 . S
C1927 C1931 1.400 . S
C1928 H1913 0.960 . S
C1928 H1914 0.960 . S
C1928 H1915 0.960 . S
C1928 C1927 1.524 . S
C1929 C1926 1.403 . S
C1929 C1930 1.392 . S
C1929 C1933 1.495 . S
C1930 C1929 1.392 . S
C1930 C1931 1.385 . S
C1930 C1932 1.478 . S
C1931 H1925 0.930 . S
C1931 C1927 1.400 . S
C1931 C1930 1.385 . S
C1932 C1930 1.478 . S
C1932 C1934 1.381 . S
C1932 C1938 1.383 . S
C1933 C1929 1.495 . S
C1933 H1939 0.959 . S
C1933 H1940 0.961 . S
C1933 H1941 0.960 . S
C1934 C1932 1.381 . S
C1934 C1935 1.394 . S
C1934 H1942 0.930 . S
C1935 C1934 1.394 . S
C1935 C1936 1.383 . S
C1935 H1943 0.929 . S
C1936 C1935 1.383 . S
C1936 C1937 1.377 . S
C1937 H1921 0.930 . S
C1937 C1936 1.377 . S
C1937 C1938 1.379 . S
C1938 H1922 0.931 . S
C1938 C1932 1.383 . S
C1938 C1937 1.379 . S
H1939 C1933 0.959 . S
H1940 C1933 0.961 . S
H1941 C1933 0.960 . S
H1942 C1934 0.930 . S
H1943 C1935 0.929 . S
H1944 C1952 0.929 . S
H1945 C1954 0.930 . S
H1946 C1956 0.930 . S
H1947 C1959 0.929 . S
H1948 C1962 0.930 . S
H1949 C1964 0.960 . S
H1950 C1964 0.955 1_545 S
H1951 C1964 0.960 . S
C1952 H1944 0.929 . S
C1952 C1953 1.377 . S
C1952 C1954 1.384 . S
C1953 C1952 1.377 . S
C1953 C1959 1.390 . S
C1954 H1945 0.930 . S
C1954 C1952 1.384 . S
C1954 C1955 1.372 . S
C1955 C1954 1.372 . S
C1955 C1956 1.400 . S
C1955 C1960 1.490 . S
C1956 H1946 0.930 . S
C1956 C1955 1.400 . S
C1956 C1959 1.386 . S
H1957 C1973 0.930 . S
H1958 C1974 0.931 . S
C1959 H1947 0.929 . S
C1959 C1953 1.390 . S
C1959 C1956 1.386 . S
C1960 C1955 1.490 . S
C1960 C1962 1.395 . S
C1960 C1963 1.403 . S
H1961 C1967 0.930 . S
C1962 H1948 0.930 . S
C1962 C1960 1.395 . S
C1962 C1965 1.403 . S
C1963 C1960 1.403 . S
C1963 C1964 1.524 1_545 S
C1963 C1967 1.400 . S
C1964 H1949 0.960 . S
C1964 H1950 0.955 1_565 S
C1964 H1951 0.960 . S
C1964 C1963 1.524 1_565 S
C1965 C1962 1.403 . S
C1965 C1966 1.392 . S
C1965 C1969 1.495 1_655 S
C1966 C1965 1.392 . S
C1966 C1967 1.385 . S
C1966 C1968 1.478 . S
C1967 H1961 0.930 . S
C1967 C1963 1.400 . S
C1967 C1966 1.385 . S
C1968 C1966 1.478 . S
C1968 C1970 1.381 . S
C1968 C1974 1.383 1_655 S
C1969 C1965 1.495 1_455 S
C1969 H1975 0.959 1_455 S
C1969 H1976 0.961 . S
C1969 H1977 0.960 1_455 S
C1970 C1968 1.381 . S
C1970 C1971 1.394 1_655 S
C1970 H1978 0.930 . S
C1971 C1970 1.394 1_455 S
C1971 C1972 1.383 . S
C1971 H1979 0.929 . S
C1972 C1971 1.383 . S
C1972 C1973 1.377 . S
C1973 H1957 0.930 . S
C1973 C1972 1.377 . S
C1973 C1974 1.379 . S
C1974 H1958 0.931 . S
C1974 C1968 1.383 1_455 S
C1974 C1973 1.379 . S
H1975 C1969 0.959 1_655 S
H1976 C1969 0.961 . S
H1977 C1969 0.960 1_655 S
H1978 C1970 0.930 . S
H1979 C1971 0.929 . S
H1980 C1988 0.929 . S
H1981 C1990 0.930 . S
H1982 C1992 0.930 . S
H1983 C1995 0.929 . S
H1984 C1998 0.930 . S
H1985 C2000 0.960 . S
H1986 C2000 0.960 . S
H1987 C2000 0.960 . S
C1988 H1980 0.929 . S
C1988 C1989 1.377 . S
C1988 C1990 1.384 . S
C1989 C1988 1.377 . S
C1989 C1995 1.390 . S
C1990 H1981 0.930 . S
C1990 C1988 1.384 . S
C1990 C1991 1.372 . S
C1991 C1990 1.372 . S
C1991 C1992 1.400 . S
C1991 C1996 1.490 . S
C1992 H1982 0.930 . S
C1992 C1991 1.400 . S
C1992 C1995 1.386 . S
H1993 C2009 0.930 . S
H1994 C2010 0.931 . S
C1995 H1983 0.929 . S
C1995 C1989 1.390 . S
C1995 C1992 1.386 . S
C1996 C1991 1.490 . S
C1996 C1998 1.395 . S
C1996 C1999 1.403 . S
H1997 C2003 0.930 . S
C1998 H1984 0.930 . S
C1998 C1996 1.395 . S
C1998 C2001 1.403 . S
C1999 C1996 1.403 . S
C1999 C2000 1.524 . S
C1999 C2003 1.400 . S
C2000 H1985 0.960 . S
C2000 H1986 0.960 . S
C2000 H1987 0.960 . S
C2000 C1999 1.524 . S
C2001 C1998 1.403 . S
C2001 C2002 1.392 . S
C2001 C2005 1.495 . S
C2002 C2001 1.392 . S
C2002 C2003 1.385 . S
C2002 C2004 1.478 . S
C2003 H1997 0.930 . S
C2003 C1999 1.400 . S
C2003 C2002 1.385 . S
C2004 C2002 1.478 . S
C2004 C2006 1.381 . S
C2004 C2010 1.383 . S
C2005 C2001 1.495 . S
C2005 H2011 0.959 . S
C2005 H2012 0.961 . S
C2005 H2013 0.960 . S
C2006 C2004 1.381 . S
C2006 C2007 1.394 . S
C2006 H2014 0.930 . S
C2007 C2006 1.394 . S
C2007 C2008 1.383 . S
C2007 H2015 0.929 . S
C2008 C2007 1.383 . S
C2008 C2009 1.377 . S
C2009 H1993 0.930 . S
C2009 C2008 1.377 . S
C2009 C2010 1.379 . S
C2010 H1994 0.931 . S
C2010 C2004 1.383 . S
C2010 C2009 1.379 . S
H2011 C2005 0.959 . S
H2012 C2005 0.961 . S
H2013 C2005 0.960 . S
H2014 C2006 0.930 . S
H2015 C2007 0.929 . S
H2016 C2024 0.929 . S
H2017 C2026 0.930 . S
H2018 C2028 0.930 . S
H2019 C2031 0.929 . S
H2020 C2034 0.930 . S
H2021 C2036 0.960 1_565 S
H2022 C2036 0.960 . S
H2023 C2036 0.960 1_565 S
C2024 H2016 0.929 . S
C2024 C2025 1.377 . S
C2024 C2026 1.384 . S
C2025 C2024 1.377 . S
C2025 C2031 1.390 . S
C2026 H2017 0.930 . S
C2026 C2024 1.384 . S
C2026 C2027 1.372 . S
C2027 C2026 1.372 . S
C2027 C2028 1.400 . S
C2027 C2032 1.490 . S
C2028 H2018 0.930 . S
C2028 C2027 1.400 . S
C2028 C2031 1.386 . S
H2029 C2045 0.930 1_565 S
H2030 C2046 0.931 1_565 S
C2031 H2019 0.929 . S
C2031 C2025 1.390 . S
C2031 C2028 1.386 . S
C2032 C2027 1.490 . S
C2032 C2034 1.395 . S
C2032 C2035 1.403 . S
H2033 C2039 0.930 . S
C2034 H2020 0.930 . S
C2034 C2032 1.395 . S
C2034 C2037 1.403 . S
C2035 C2032 1.403 . S
C2035 C2036 1.524 . S
C2035 C2039 1.400 . S
C2036 H2021 0.960 1_545 S
C2036 H2022 0.960 . S
C2036 H2023 0.960 1_545 S
C2036 C2035 1.524 . S
C2037 C2034 1.403 . S
C2037 C2038 1.392 . S
C2037 C2041 1.495 . S
C2038 C2037 1.392 . S
C2038 C2039 1.385 . S
C2038 C2040 1.478 . S
C2039 H2033 0.930 . S
C2039 C2035 1.400 . S
C2039 C2038 1.385 . S
C2040 C2038 1.478 . S
C2040 C2042 1.381 . S
C2040 C2046 1.383 . S
C2041 C2037 1.495 . S
C2041 H2047 0.959 . S
C2041 H2048 0.961 . S
C2041 H2049 0.960 . S
C2042 C2040 1.381 . S
C2042 C2043 1.394 . S
C2042 H2050 0.930 . S
C2043 C2042 1.394 . S
C2043 C2044 1.383 . S
C2043 H2051 0.929 . S
C2044 C2043 1.383 . S
C2044 C2045 1.377 . S
C2045 H2029 0.930 1_545 S
C2045 C2044 1.377 . S
C2045 C2046 1.379 . S
C2046 H2030 0.931 1_545 S
C2046 C2040 1.383 . S
C2046 C2045 1.379 . S
H2047 C2041 0.959 . S
H2048 C2041 0.961 . S
H2049 C2041 0.960 . S
H2050 C2042 0.930 . S
H2051 C2043 0.929 . S
H2052 C2060 0.929 . S
H2053 C2062 0.930 . S
H2054 C2064 0.930 . S
H2055 C2067 0.929 . S
H2056 C2070 0.930 . S
H2057 C2072 0.960 . S
H2058 C2072 0.960 . S
H2059 C2072 0.960 . S
C2060 H2052 0.929 . S
C2060 C2061 1.377 . S
C2060 C2062 1.384 . S
C2061 C2060 1.377 . S
C2061 C2067 1.390 . S
C2062 H2053 0.930 . S
C2062 C2060 1.384 . S
C2062 C2063 1.372 . S
C2063 C2062 1.372 . S
C2063 C2064 1.400 . S
C2063 C2068 1.490 . S
C2064 H2054 0.930 . S
C2064 C2063 1.400 . S
C2064 C2067 1.386 . S
H2065 C2081 0.930 . S
H2066 C2082 0.931 . S
C2067 H2055 0.929 . S
C2067 C2061 1.390 . S
C2067 C2064 1.386 . S
C2068 C2063 1.490 . S
C2068 C2070 1.395 . S
C2068 C2071 1.403 . S
H2069 C2075 0.930 . S
C2070 H2056 0.930 . S
C2070 C2068 1.395 . S
C2070 C2073 1.403 . S
C2071 C2068 1.403 . S
C2071 C2072 1.524 . S
C2071 C2075 1.400 . S
C2072 H2057 0.960 . S
C2072 H2058 0.960 . S
C2072 H2059 0.960 . S
C2072 C2071 1.524 . S
C2073 C2070 1.403 . S
C2073 C2074 1.392 . S
C2073 C2077 1.495 . S
C2074 C2073 1.392 . S
C2074 C2075 1.385 . S
C2074 C2076 1.478 . S
C2075 H2069 0.930 . S
C2075 C2071 1.400 . S
C2075 C2074 1.385 . S
C2076 C2074 1.478 . S
C2076 C2078 1.381 . S
C2076 C2082 1.383 . S
C2077 C2073 1.495 . S
C2077 H2083 0.959 . S
C2077 H2084 0.961 . S
C2077 H2085 0.960 . S
C2078 C2076 1.381 . S
C2078 C2079 1.394 . S
C2078 H2086 0.930 . S
C2079 C2078 1.394 . S
C2079 C2080 1.383 . S
C2079 H2087 0.929 . S
C2080 C2079 1.383 . S
C2080 C2081 1.377 . S
C2081 H2065 0.930 . S
C2081 C2080 1.377 . S
C2081 C2082 1.379 . S
C2082 H2066 0.931 . S
C2082 C2076 1.383 . S
C2082 C2081 1.379 . S
H2083 C2077 0.959 . S
H2084 C2077 0.961 . S
H2085 C2077 0.960 . S
H2086 C2078 0.930 . S
H2087 C2079 0.929 . S
H2088 C2096 0.929 . S
H2089 C2098 0.930 . S
H2090 C2100 0.930 1_565 S
H2091 C2103 0.906 1_565 S
H2092 C2106 0.930 . S
H2093 C2108 0.960 . S
H2094 C2108 0.960 . S
H2095 C2108 0.960 . S
C2096 H2088 0.929 . S
C2096 C2097 1.377 . S
C2096 C2098 1.384 . S
C2097 C2096 1.377 . S
C2097 C2103 1.419 . S
C2098 H2089 0.930 . S
C2098 C2096 1.384 . S
C2098 C2099 1.372 . S
C2099 C2098 1.372 . S
C2099 C2100 1.400 . S
C2099 C2104 1.490 . S
C2100 H2090 0.930 1_545 S
C2100 C2099 1.400 . S
C2100 C2103 1.381 . S
H2101 C2117 0.934 1_565 S
H2102 C2118 0.931 1_565 S
C2103 H2091 0.906 1_545 S
C2103 C2097 1.419 . S
C2103 C2100 1.381 . S
C2104 C2099 1.490 . S
C2104 C2106 1.395 . S
C2104 C2107 1.403 . S
H2105 C2111 0.930 1_565 S
C2106 H2092 0.930 . S
C2106 C2104 1.395 . S
C2106 C2109 1.403 . S
C2107 C2104 1.403 . S
C2107 C2108 1.524 1_545 S
C2107 C2111 1.400 . S
C2108 H2093 0.960 . S
C2108 H2094 0.960 . S
C2108 H2095 0.960 . S
C2108 C2107 1.524 1_565 S
C2109 C2106 1.403 . S
C2109 C2110 1.392 . S
C2109 C2113 1.495 . S
C2110 C2109 1.392 . S
C2110 C2111 1.385 . S
C2110 C2112 1.478 . S
C2111 H2105 0.930 1_545 S
C2111 C2107 1.400 . S
C2111 C2110 1.385 . S
C2112 C2110 1.478 . S
C2112 C2114 1.381 1_655 S
C2112 C2118 1.383 . S
C2113 C2109 1.495 . S
C2113 H2119 0.959 . S
C2113 H2120 0.961 . S
C2113 H2121 0.960 . S
C2114 C2112 1.381 1_455 S
C2114 C2115 1.394 . S
C2114 H2122 0.930 . S
C2115 C2114 1.394 . S
C2115 C2116 1.383 . S
C2115 H2123 0.929 . S
C2116 C2115 1.383 . S
C2116 C2117 1.362 1_455 S
C2117 H2101 0.934 1_545 S
C2117 C2116 1.362 1_655 S
C2117 C2118 1.391 . S
C2118 H2102 0.931 1_545 S
C2118 C2112 1.383 . S
C2118 C2117 1.391 . S
H2119 C2113 0.959 . S
H2120 C2113 0.961 . S
H2121 C2113 0.960 . S
H2122 C2114 0.930 . S
H2123 C2115 0.929 . S
H2124 C2132 0.929 . S
H2125 C2134 0.930 . S
H2126 C2136 0.930 . S
H2127 C2139 0.929 . S
H2128 C2142 0.930 . S
H2129 C2144 0.960 . S
H2130 C2144 0.960 . S
H2131 C2144 0.960 . S
C2132 H2124 0.929 . S
C2132 C2133 1.377 . S
C2132 C2134 1.384 . S
C2133 C2132 1.377 . S
C2133 C2139 1.390 . S
C2134 H2125 0.930 . S
C2134 C2132 1.384 . S
C2134 C2135 1.372 . S
C2135 C2134 1.372 . S
C2135 C2136 1.400 . S
C2135 C2140 1.490 . S
C2136 H2126 0.930 . S
C2136 C2135 1.400 . S
C2136 C2139 1.386 . S
H2137 C2153 0.930 . S
H2138 C2154 0.931 . S
C2139 H2127 0.929 . S
C2139 C2133 1.390 . S
C2139 C2136 1.386 . S
C2140 C2135 1.490 . S
C2140 C2142 1.395 . S
C2140 C2143 1.403 . S
H2141 C2147 0.930 . S
C2142 H2128 0.930 . S
C2142 C2140 1.395 . S
C2142 C2145 1.403 . S
C2143 C2140 1.403 . S
C2143 C2144 1.524 . S
C2143 C2147 1.400 . S
C2144 H2129 0.960 . S
C2144 H2130 0.960 . S
C2144 H2131 0.960 . S
C2144 C2143 1.524 . S
C2145 C2142 1.403 . S
C2145 C2146 1.392 . S
C2145 C2149 1.495 . S
C2146 C2145 1.392 . S
C2146 C2147 1.385 . S
C2146 C2148 1.478 . S
C2147 H2141 0.930 . S
C2147 C2143 1.400 . S
C2147 C2146 1.385 . S
C2148 C2146 1.478 . S
C2148 C2150 1.381 . S
C2148 C2154 1.383 . S
C2149 C2145 1.495 . S
C2149 H2155 0.959 . S
C2149 H2156 0.961 . S
C2149 H2157 0.960 . S
C2150 C2148 1.381 . S
C2150 C2151 1.394 . S
C2150 H2158 0.930 . S
C2151 C2150 1.394 . S
C2151 C2152 1.383 . S
C2151 H2159 0.929 . S
C2152 C2151 1.383 . S
C2152 C2153 1.377 . S
C2153 H2137 0.930 . S
C2153 C2152 1.377 . S
C2153 C2154 1.379 . S
C2154 H2138 0.931 . S
C2154 C2148 1.383 . S
C2154 C2153 1.379 . S
H2155 C2149 0.959 . S
H2156 C2149 0.961 . S
H2157 C2149 0.960 . S
H2158 C2150 0.930 . S
H2159 C2151 0.929 . S
H2160 C2168 0.929 . S
H2161 C2170 0.930 . S
H2162 C2172 0.930 . S
H2163 C2175 0.929 . S
H2164 C2178 0.930 . S
H2165 C2180 0.960 . S
H2166 C2180 0.960 . S
H2167 C2180 0.960 . S
C2168 H2160 0.929 . S
C2168 C2169 1.377 . S
C2168 C2170 1.384 . S
C2169 C2168 1.377 . S
C2169 C2175 1.390 . S
C2170 H2161 0.930 . S
C2170 C2168 1.384 . S
C2170 C2171 1.372 . S
C2171 C2170 1.372 . S
C2171 C2172 1.400 . S
C2171 C2176 1.490 . S
C2172 H2162 0.930 . S
C2172 C2171 1.400 . S
C2172 C2175 1.386 . S
H2173 C2189 0.930 . S
H2174 C2190 0.931 . S
C2175 H2163 0.929 . S
C2175 C2169 1.390 . S
C2175 C2172 1.386 . S
C2176 C2171 1.490 . S
C2176 C2178 1.395 . S
C2176 C2179 1.403 . S
H2177 C2183 0.930 . S
C2178 H2164 0.930 . S
C2178 C2176 1.395 . S
C2178 C2181 1.403 . S
C2179 C2176 1.403 . S
C2179 C2180 1.524 . S
C2179 C2183 1.400 . S
C2180 H2165 0.960 . S
C2180 H2166 0.960 . S
C2180 H2167 0.960 . S
C2180 C2179 1.524 . S
C2181 C2178 1.403 . S
C2181 C2182 1.392 . S
C2181 C2185 1.495 . S
C2182 C2181 1.392 . S
C2182 C2183 1.385 . S
C2182 C2184 1.478 . S
C2183 H2177 0.930 . S
C2183 C2179 1.400 . S
C2183 C2182 1.385 . S
C2184 C2182 1.478 . S
C2184 C2186 1.381 . S
C2184 C2190 1.383 . S
C2185 C2181 1.495 . S
C2185 H2191 0.959 . S
C2185 H2192 0.961 . S
C2185 H2193 0.960 . S
C2186 C2184 1.381 . S
C2186 C2187 1.394 . S
C2186 H2194 0.930 . S
C2187 C2186 1.394 . S
C2187 C2188 1.383 . S
C2187 H2195 0.929 . S
C2188 C2187 1.383 . S
C2188 C2189 1.377 . S
C2189 H2173 0.930 . S
C2189 C2188 1.377 . S
C2189 C2190 1.379 . S
C2190 H2174 0.931 . S
C2190 C2184 1.383 . S
C2190 C2189 1.379 . S
H2191 C2185 0.959 . S
H2192 C2185 0.961 . S
H2193 C2185 0.960 . S
H2194 C2186 0.930 . S
H2195 C2187 0.929 . S
H2196 C2204 0.929 . S
H2197 C2206 0.930 . S
H2198 C2208 0.930 . S
H2199 C2211 0.929 . S
H2200 C2214 0.930 . S
H2201 C2216 0.960 . S
H2202 C2216 0.960 . S
H2203 C2216 0.960 . S
C2204 H2196 0.929 . S
C2204 C2205 1.377 . S
C2204 C2206 1.384 . S
C2205 C2204 1.377 . S
C2205 C2211 1.390 . S
C2206 H2197 0.930 . S
C2206 C2204 1.384 . S
C2206 C2207 1.372 . S
C2207 C2206 1.372 . S
C2207 C2208 1.400 . S
C2207 C2212 1.490 . S
C2208 H2198 0.930 . S
C2208 C2207 1.400 . S
C2208 C2211 1.386 . S
H2209 C2225 0.930 . S
H2210 C2226 0.931 . S
C2211 H2199 0.929 . S
C2211 C2205 1.390 . S
C2211 C2208 1.386 . S
C2212 C2207 1.490 . S
C2212 C2214 1.395 . S
C2212 C2215 1.403 . S
H2213 C2219 0.930 . S
C2214 H2200 0.930 . S
C2214 C2212 1.395 . S
C2214 C2217 1.403 . S
C2215 C2212 1.403 . S
C2215 C2216 1.524 . S
C2215 C2219 1.400 . S
C2216 H2201 0.960 . S
C2216 H2202 0.960 . S
C2216 H2203 0.960 . S
C2216 C2215 1.524 . S
C2217 C2214 1.403 . S
C2217 C2218 1.392 . S
C2217 C2221 1.495 . S
C2218 C2217 1.392 . S
C2218 C2219 1.385 . S
C2218 C2220 1.478 . S
C2219 H2213 0.930 . S
C2219 C2215 1.400 . S
C2219 C2218 1.385 . S
C2220 C2218 1.478 . S
C2220 C2222 1.381 . S
C2220 C2226 1.383 . S
C2221 C2217 1.495 . S
C2221 H2227 0.959 . S
C2221 H2228 0.961 . S
C2221 H2229 0.960 . S
C2222 C2220 1.381 . S
C2222 C2223 1.394 . S
C2222 H2230 0.930 . S
C2223 C2222 1.394 . S
C2223 C2224 1.383 . S
C2223 H2231 0.929 . S
C2224 C2223 1.383 . S
C2224 C2225 1.377 . S
C2225 H2209 0.930 . S
C2225 C2224 1.377 . S
C2225 C2226 1.379 . S
C2226 H2210 0.931 . S
C2226 C2220 1.383 . S
C2226 C2225 1.379 . S
H2227 C2221 0.959 . S
H2228 C2221 0.961 . S
H2229 C2221 0.960 . S
H2230 C2222 0.930 . S
H2231 C2223 0.929 . S
H2232 C2240 0.929 . S
H2233 C2242 0.930 1_556 S
H2234 C2244 0.930 . S
H2235 C2247 0.929 . S
H2236 C2250 0.930 1_556 S
H2237 C2252 0.960 . S
H2238 C2252 0.960 . S
H2239 C2252 0.960 . S
C2240 H2232 0.929 . S
C2240 C2241 1.377 1_556 S
C2240 C2242 1.384 1_556 S
C2241 C2240 1.377 1_554 S
C2241 C2247 1.390 . S
C2242 H2233 0.930 1_554 S
C2242 C2240 1.384 1_554 S
C2242 C2243 1.372 . S
C2243 C2242 1.372 . S
C2243 C2244 1.400 . S
C2243 C2248 1.490 . S
C2244 H2234 0.930 . S
C2244 C2243 1.400 . S
C2244 C2247 1.386 . S
H2245 C2261 0.930 . S
H2246 C2262 0.931 . S
C2247 H2235 0.929 . S
C2247 C2241 1.390 . S
C2247 C2244 1.386 . S
C2248 C2243 1.490 . S
C2248 C2250 1.395 . S
C2248 C2251 1.403 . S
H2249 C2255 0.930 . S
C2250 H2236 0.930 1_554 S
C2250 C2248 1.395 . S
C2250 C2253 1.403 . S
C2251 C2248 1.403 . S
C2251 C2252 1.524 . S
C2251 C2255 1.400 . S
C2252 H2237 0.960 . S
C2252 H2238 0.960 . S
C2252 H2239 0.960 . S
C2252 C2251 1.524 . S
C2253 C2250 1.403 . S
C2253 C2254 1.392 . S
C2253 C2257 1.495 1_554 S
C2254 C2253 1.392 . S
C2254 C2255 1.385 . S
C2254 C2256 1.478 . S
C2255 H2249 0.930 . S
C2255 C2251 1.400 . S
C2255 C2254 1.385 . S
C2256 C2254 1.478 . S
C2256 C2258 1.381 1_565 S
C2256 C2262 1.383 . S
C2257 C2253 1.495 1_556 S
C2257 H2263 0.959 . S
C2257 H2264 0.961 . S
C2257 H2265 0.960 . S
C2258 C2256 1.381 1_545 S
C2258 C2259 1.394 . S
C2258 H2266 0.930 . S
C2259 C2258 1.394 . S
C2259 C2260 1.383 . S
C2259 H2267 0.929 . S
C2260 C2259 1.383 . S
C2260 C2261 1.377 1_545 S
C2261 H2245 0.930 . S
C2261 C2260 1.377 1_565 S
C2261 C2262 1.379 . S
C2262 H2246 0.931 . S
C2262 C2256 1.383 . S
C2262 C2261 1.379 . S
H2263 C2257 0.959 . S
H2264 C2257 0.961 . S
H2265 C2257 0.960 . S
H2266 C2258 0.930 . S
H2267 C2259 0.929 . S
H2268 C2276 0.929 . S
H2269 C2278 0.930 . S
H2270 C2280 0.930 . S
H2271 C2283 0.929 . S
H2272 C2286 0.930 . S
H2273 C2288 0.960 . S
H2274 C2288 0.960 . S
H2275 C2288 0.960 . S
C2276 H2268 0.929 . S
C2276 C2277 1.397 . S
C2276 C2278 1.384 . S
C2277 C2276 1.397 . S
C2277 C2283 1.382 1_554 S
C2278 H2269 0.930 . S
C2278 C2276 1.384 . S
C2278 C2279 1.372 . S
C2279 C2278 1.372 . S
C2279 C2280 1.400 1_554 S
C2279 C2284 1.490 . S
C2280 H2270 0.930 . S
C2280 C2279 1.400 1_556 S
C2280 C2283 1.386 . S
H2281 C2297 0.930 . S
H2282 C2298 0.931 . S
C2283 H2271 0.929 . S
C2283 C2277 1.382 1_556 S
C2283 C2280 1.386 . S
C2284 C2279 1.490 . S
C2284 C2286 1.395 1_554 S
C2284 C2287 1.403 . S
H2285 C2291 0.930 . S
C2286 H2272 0.930 . S
C2286 C2284 1.395 1_556 S
C2286 C2289 1.403 . S
C2287 C2284 1.403 . S
C2287 C2288 1.524 . S
C2287 C2291 1.400 . S
C2288 H2273 0.960 . S
C2288 H2274 0.960 . S
C2288 H2275 0.960 . S
C2288 C2287 1.524 . S
C2289 C2286 1.403 . S
C2289 C2290 1.392 1_556 S
C2289 C2293 1.495 . S
C2290 C2289 1.392 1_554 S
C2290 C2291 1.385 . S
C2290 C2292 1.478 . S
C2291 H2285 0.930 . S
C2291 C2287 1.400 . S
C2291 C2290 1.385 . S
C2292 C2290 1.478 . S
C2292 C2294 1.381 . S
C2292 C2298 1.383 1_554 S
C2293 C2289 1.495 . S
C2293 H2299 0.959 . S
C2293 H2300 0.961 . S
C2293 H2301 0.960 . S
C2294 C2292 1.381 . S
C2294 C2295 1.394 . S
C2294 H2302 0.930 . S
C2295 C2294 1.394 . S
C2295 C2296 1.383 . S
C2295 H2303 0.929 . S
C2296 C2295 1.383 . S
C2296 C2297 1.377 1_554 S
C2297 H2281 0.930 . S
C2297 C2296 1.377 1_556 S
C2297 C2298 1.379 . S
C2298 H2282 0.931 . S
C2298 C2292 1.383 1_556 S
C2298 C2297 1.379 . S
H2299 C2293 0.959 . S
H2300 C2293 0.961 . S
H2301 C2293 0.960 . S
H2302 C2294 0.930 . S
H2303 C2295 0.929 . S
H2304 C2312 0.929 . S
H2305 C2314 0.930 . S
H2306 C2316 0.930 . S
H2307 C2319 0.929 . S
H2308 C2322 0.930 . S
H2309 C2324 0.960 . S
H2310 C2324 0.960 . S
H2311 C2324 0.960 . S
C2312 H2304 0.929 . S
C2312 C2313 1.377 . S
C2312 C2314 1.384 . S
C2313 C2312 1.377 . S
C2313 C2319 1.390 . S
C2314 H2305 0.930 . S
C2314 C2312 1.384 . S
C2314 C2315 1.372 . S
C2315 C2314 1.372 . S
C2315 C2316 1.400 . S
C2315 C2320 1.490 . S
C2316 H2306 0.930 . S
C2316 C2315 1.400 . S
C2316 C2319 1.386 . S
H2317 C2333 0.930 . S
H2318 C2334 0.931 . S
C2319 H2307 0.929 . S
C2319 C2313 1.390 . S
C2319 C2316 1.386 . S
C2320 C2315 1.490 . S
C2320 C2322 1.395 . S
C2320 C2323 1.403 . S
H2321 C2327 0.930 . S
C2322 H2308 0.930 . S
C2322 C2320 1.395 . S
C2322 C2325 1.403 . S
C2323 C2320 1.403 . S
C2323 C2324 1.524 . S
C2323 C2327 1.400 . S
C2324 H2309 0.960 . S
C2324 H2310 0.960 . S
C2324 H2311 0.960 . S
C2324 C2323 1.524 . S
C2325 C2322 1.403 . S
C2325 C2326 1.392 . S
C2325 C2329 1.495 . S
C2326 C2325 1.392 . S
C2326 C2327 1.385 . S
C2326 C2328 1.478 . S
C2327 H2321 0.930 . S
C2327 C2323 1.400 . S
C2327 C2326 1.385 . S
C2328 C2326 1.478 . S
C2328 C2330 1.381 . S
C2328 C2334 1.383 . S
C2329 C2325 1.495 . S
C2329 H2335 0.959 . S
C2329 H2336 0.961 . S
C2329 H2337 0.960 . S
C2330 C2328 1.381 . S
C2330 C2331 1.394 . S
C2330 H2338 0.930 . S
C2331 C2330 1.394 . S
C2331 C2332 1.383 . S
C2331 H2339 0.929 . S
C2332 C2331 1.383 . S
C2332 C2333 1.377 . S
C2333 H2317 0.930 . S
C2333 C2332 1.377 . S
C2333 C2334 1.379 . S
C2334 H2318 0.931 . S
C2334 C2328 1.383 . S
C2334 C2333 1.379 . S
H2335 C2329 0.959 . S
H2336 C2329 0.961 . S
H2337 C2329 0.960 . S
H2338 C2330 0.930 . S
H2339 C2331 0.929 . S
H2340 C2348 0.929 . S
H2341 C2350 0.930 . S
H2342 C2352 0.930 . S
H2343 C2355 0.929 . S
H2344 C2358 0.930 . S
H2345 C2360 0.960 . S
H2346 C2360 0.960 . S
H2347 C2360 0.960 . S
C2348 H2340 0.929 . S
C2348 C2349 1.377 . S
C2348 C2350 1.384 . S
C2349 C2348 1.377 . S
C2349 C2355 1.390 . S
C2350 H2341 0.930 . S
C2350 C2348 1.384 . S
C2350 C2351 1.372 . S
C2351 C2350 1.372 . S
C2351 C2352 1.400 . S
C2351 C2356 1.490 . S
C2352 H2342 0.930 . S
C2352 C2351 1.400 . S
C2352 C2355 1.386 . S
H2353 C2369 0.930 . S
H2354 C2370 0.931 . S
C2355 H2343 0.929 . S
C2355 C2349 1.390 . S
C2355 C2352 1.386 . S
C2356 C2351 1.490 . S
C2356 C2358 1.395 . S
C2356 C2359 1.403 . S
H2357 C2363 0.930 . S
C2358 H2344 0.930 . S
C2358 C2356 1.395 . S
C2358 C2361 1.403 . S
C2359 C2356 1.403 . S
C2359 C2360 1.524 . S
C2359 C2363 1.400 . S
C2360 H2345 0.960 . S
C2360 H2346 0.960 . S
C2360 H2347 0.960 . S
C2360 C2359 1.524 . S
C2361 C2358 1.403 . S
C2361 C2362 1.392 . S
C2361 C2365 1.495 . S
C2362 C2361 1.392 . S
C2362 C2363 1.385 . S
C2362 C2364 1.478 . S
C2363 H2357 0.930 . S
C2363 C2359 1.400 . S
C2363 C2362 1.385 . S
C2364 C2362 1.478 . S
C2364 C2366 1.381 . S
C2364 C2370 1.383 . S
C2365 C2361 1.495 . S
C2365 H2371 0.959 . S
C2365 H2372 0.961 . S
C2365 H2373 0.960 . S
C2366 C2364 1.381 . S
C2366 C2367 1.394 . S
C2366 H2374 0.930 . S
C2367 C2366 1.394 . S
C2367 C2368 1.383 . S
C2367 H2375 0.929 . S
C2368 C2367 1.383 . S
C2368 C2369 1.377 . S
C2369 H2353 0.930 . S
C2369 C2368 1.377 . S
C2369 C2370 1.379 . S
C2370 H2354 0.931 . S
C2370 C2364 1.383 . S
C2370 C2369 1.379 . S
H2371 C2365 0.959 . S
H2372 C2365 0.961 . S
H2373 C2365 0.960 . S
H2374 C2366 0.930 . S
H2375 C2367 0.929 . S
H2376 C2384 0.929 . S
H2377 C2386 0.930 . S
H2378 C2388 0.930 . S
H2379 C2391 0.929 . S
H2380 C2394 0.930 . S
H2381 C2396 0.960 . S
H2382 C2396 0.960 . S
H2383 C2396 0.960 . S
C2384 H2376 0.929 . S
C2384 C2385 1.377 . S
C2384 C2386 1.384 . S
C2385 C2384 1.377 . S
C2385 C2391 1.390 . S
C2386 H2377 0.930 . S
C2386 C2384 1.384 . S
C2386 C2387 1.372 . S
C2387 C2386 1.372 . S
C2387 C2388 1.400 . S
C2387 C2392 1.490 . S
C2388 H2378 0.930 . S
C2388 C2387 1.400 . S
C2388 C2391 1.386 . S
H2389 C2405 0.930 . S
H2390 C2406 0.931 . S
C2391 H2379 0.929 . S
C2391 C2385 1.390 . S
C2391 C2388 1.386 . S
C2392 C2387 1.490 . S
C2392 C2394 1.395 . S
C2392 C2395 1.403 . S
H2393 C2399 0.930 . S
C2394 H2380 0.930 . S
C2394 C2392 1.395 . S
C2394 C2397 1.403 . S
C2395 C2392 1.403 . S
C2395 C2396 1.524 . S
C2395 C2399 1.400 . S
C2396 H2381 0.960 . S
C2396 H2382 0.960 . S
C2396 H2383 0.960 . S
C2396 C2395 1.524 . S
C2397 C2394 1.403 . S
C2397 C2398 1.392 . S
C2397 C2401 1.495 . S
C2398 C2397 1.392 . S
C2398 C2399 1.385 . S
C2398 C2400 1.478 . S
C2399 H2393 0.930 . S
C2399 C2395 1.400 . S
C2399 C2398 1.385 . S
C2400 C2398 1.478 . S
C2400 C2402 1.381 . S
C2400 C2406 1.383 . S
C2401 C2397 1.495 . S
C2401 H2407 0.959 . S
C2401 H2408 0.961 . S
C2401 H2409 0.960 . S
C2402 C2400 1.381 . S
C2402 C2403 1.394 . S
C2402 H2410 0.930 . S
C2403 C2402 1.394 . S
C2403 C2404 1.383 . S
C2403 H2411 0.929 . S
C2404 C2403 1.383 . S
C2404 C2405 1.377 . S
C2405 H2389 0.930 . S
C2405 C2404 1.377 . S
C2405 C2406 1.379 . S
C2406 H2390 0.931 . S
C2406 C2400 1.383 . S
C2406 C2405 1.379 . S
H2407 C2401 0.959 . S
H2408 C2401 0.961 . S
H2409 C2401 0.960 . S
H2410 C2402 0.930 . S
H2411 C2403 0.929 . S
H2412 C2420 0.929 . S
H2413 C2422 0.930 . S
H2414 C2424 0.930 . S
H2415 C2427 0.929 . S
H2416 C2430 0.930 . S
H2417 C2432 0.960 . S
H2418 C2432 0.960 . S
H2419 C2432 0.960 . S
C2420 H2412 0.929 . S
C2420 C2421 1.377 . S
C2420 C2422 1.384 . S
C2421 C2420 1.377 . S
C2421 C2427 1.390 . S
C2422 H2413 0.930 . S
C2422 C2420 1.384 . S
C2422 C2423 1.372 . S
C2423 C2422 1.372 . S
C2423 C2424 1.400 . S
C2423 C2428 1.490 . S
C2424 H2414 0.930 . S
C2424 C2423 1.400 . S
C2424 C2427 1.386 . S
H2425 C2441 0.930 . S
H2426 C2442 0.931 . S
C2427 H2415 0.929 . S
C2427 C2421 1.390 . S
C2427 C2424 1.386 . S
C2428 C2423 1.490 . S
C2428 C2430 1.395 . S
C2428 C2431 1.403 . S
H2429 C2435 0.930 . S
C2430 H2416 0.930 . S
C2430 C2428 1.395 . S
C2430 C2433 1.403 . S
C2431 C2428 1.403 . S
C2431 C2432 1.524 . S
C2431 C2435 1.400 . S
C2432 H2417 0.960 . S
C2432 H2418 0.960 . S
C2432 H2419 0.960 . S
C2432 C2431 1.524 . S
C2433 C2430 1.403 . S
C2433 C2434 1.392 . S
C2433 C2437 1.495 . S
C2434 C2433 1.392 . S
C2434 C2435 1.385 . S
C2434 C2436 1.478 . S
C2435 H2429 0.930 . S
C2435 C2431 1.400 . S
C2435 C2434 1.385 . S
C2436 C2434 1.478 . S
C2436 C2438 1.381 . S
C2436 C2442 1.383 . S
C2437 C2433 1.495 . S
C2437 H2443 0.959 . S
C2437 H2444 0.961 . S
C2437 H2445 0.960 . S
C2438 C2436 1.381 . S
C2438 C2439 1.394 . S
C2438 H2446 0.930 . S
C2439 C2438 1.394 . S
C2439 C2440 1.383 . S
C2439 H2447 0.929 . S
C2440 C2439 1.383 . S
C2440 C2441 1.377 . S
C2441 H2425 0.930 . S
C2441 C2440 1.377 . S
C2441 C2442 1.379 . S
C2442 H2426 0.931 . S
C2442 C2436 1.383 . S
C2442 C2441 1.379 . S
H2443 C2437 0.959 . S
H2444 C2437 0.961 . S
H2445 C2437 0.960 . S
H2446 C2438 0.930 . S
H2447 C2439 0.929 . S
H2448 C2456 0.929 . S
H2449 C2458 0.930 . S
H2450 C2460 0.930 . S
H2451 C2463 0.929 . S
H2452 C2466 0.930 . S
H2453 C2468 0.960 . S
H2454 C2468 0.960 . S
H2455 C2468 0.960 . S
C2456 H2448 0.929 . S
C2456 C2457 1.377 . S
C2456 C2458 1.384 . S
C2457 C2456 1.377 . S
C2457 C2463 1.390 . S
C2458 H2449 0.930 . S
C2458 C2456 1.384 . S
C2458 C2459 1.372 . S
C2459 C2458 1.372 . S
C2459 C2460 1.400 . S
C2459 C2464 1.490 . S
C2460 H2450 0.930 . S
C2460 C2459 1.400 . S
C2460 C2463 1.386 . S
H2461 C2477 0.930 . S
H2462 C2478 0.931 . S
C2463 H2451 0.929 . S
C2463 C2457 1.390 . S
C2463 C2460 1.386 . S
C2464 C2459 1.490 . S
C2464 C2466 1.395 . S
C2464 C2467 1.403 . S
H2465 C2471 0.930 . S
C2466 H2452 0.930 . S
C2466 C2464 1.395 . S
C2466 C2469 1.403 . S
C2467 C2464 1.403 . S
C2467 C2468 1.524 . S
C2467 C2471 1.400 . S
C2468 H2453 0.960 . S
C2468 H2454 0.960 . S
C2468 H2455 0.960 . S
C2468 C2467 1.524 . S
C2469 C2466 1.403 . S
C2469 C2470 1.392 . S
C2469 C2473 1.495 . S
C2470 C2469 1.392 . S
C2470 C2471 1.385 . S
C2470 C2472 1.478 . S
C2471 H2465 0.930 . S
C2471 C2467 1.400 . S
C2471 C2470 1.385 . S
C2472 C2470 1.478 . S
C2472 C2474 1.381 . S
C2472 C2478 1.383 . S
C2473 C2469 1.495 . S
C2473 H2479 0.959 . S
C2473 H2480 0.961 . S
C2473 H2481 0.960 . S
C2474 C2472 1.381 . S
C2474 C2475 1.394 . S
C2474 H2482 0.930 . S
C2475 C2474 1.394 . S
C2475 C2476 1.383 . S
C2475 H2483 0.929 . S
C2476 C2475 1.383 . S
C2476 C2477 1.377 . S
C2477 H2461 0.930 . S
C2477 C2476 1.377 . S
C2477 C2478 1.379 . S
C2478 H2462 0.931 . S
C2478 C2472 1.383 . S
C2478 C2477 1.379 . S
H2479 C2473 0.959 . S
H2480 C2473 0.961 . S
H2481 C2473 0.960 . S
H2482 C2474 0.930 . S
H2483 C2475 0.929 . S
H2484 C2492 0.929 . S
H2485 C2494 0.930 . S
H2486 C2496 0.930 . S
H2487 C2499 0.929 . S
H2488 C2502 0.930 . S
H2489 C2504 0.960 . S
H2490 C2504 0.960 . S
H2491 C2504 0.960 . S
C2492 H2484 0.929 . S
C2492 C2493 1.377 . S
C2492 C2494 1.384 . S
C2493 C2492 1.377 . S
C2493 C2499 1.390 . S
C2494 H2485 0.930 . S
C2494 C2492 1.384 . S
C2494 C2495 1.372 . S
C2495 C2494 1.372 . S
C2495 C2496 1.400 . S
C2495 C2500 1.490 . S
C2496 H2486 0.930 . S
C2496 C2495 1.400 . S
C2496 C2499 1.386 . S
H2497 C2513 0.930 . S
H2498 C2514 0.931 . S
C2499 H2487 0.929 . S
C2499 C2493 1.390 . S
C2499 C2496 1.386 . S
C2500 C2495 1.490 . S
C2500 C2502 1.395 . S
C2500 C2503 1.403 . S
H2501 C2507 0.930 . S
C2502 H2488 0.930 . S
C2502 C2500 1.395 . S
C2502 C2505 1.403 . S
C2503 C2500 1.403 . S
C2503 C2504 1.524 . S
C2503 C2507 1.400 . S
C2504 H2489 0.960 . S
C2504 H2490 0.960 . S
C2504 H2491 0.960 . S
C2504 C2503 1.524 . S
C2505 C2502 1.403 . S
C2505 C2506 1.392 . S
C2505 C2509 1.495 . S
C2506 C2505 1.392 . S
C2506 C2507 1.385 . S
C2506 C2508 1.478 . S
C2507 H2501 0.930 . S
C2507 C2503 1.400 . S
C2507 C2506 1.385 . S
C2508 C2506 1.478 . S
C2508 C2510 1.381 . S
C2508 C2514 1.383 . S
C2509 C2505 1.495 . S
C2509 H2515 0.959 . S
C2509 H2516 0.961 . S
C2509 H2517 0.960 . S
C2510 C2508 1.381 . S
C2510 C2511 1.394 . S
C2510 H2518 0.930 . S
C2511 C2510 1.394 . S
C2511 C2512 1.383 . S
C2511 H2519 0.929 . S
C2512 C2511 1.383 . S
C2512 C2513 1.377 . S
C2513 H2497 0.930 . S
C2513 C2512 1.377 . S
C2513 C2514 1.379 . S
C2514 H2498 0.931 . S
C2514 C2508 1.383 . S
C2514 C2513 1.379 . S
H2515 C2509 0.959 . S
H2516 C2509 0.961 . S
H2517 C2509 0.960 . S
H2518 C2510 0.930 . S
H2519 C2511 0.929 . S
H2520 C2528 0.929 . S
H2521 C2530 0.930 . S
H2522 C2532 0.930 . S
H2523 C2535 0.929 . S
H2524 C2538 0.930 . S
H2525 C2540 0.960 . S
H2526 C2540 0.960 . S
H2527 C2540 0.960 . S
C2528 H2520 0.929 . S
C2528 C2529 1.377 . S
C2528 C2530 1.384 . S
C2529 C2528 1.377 . S
C2529 C2535 1.390 . S
C2530 H2521 0.930 . S
C2530 C2528 1.384 . S
C2530 C2531 1.372 . S
C2531 C2530 1.372 . S
C2531 C2532 1.400 . S
C2531 C2536 1.490 . S
C2532 H2522 0.930 . S
C2532 C2531 1.400 . S
C2532 C2535 1.386 . S
H2533 C2549 0.930 . S
H2534 C2550 0.931 . S
C2535 H2523 0.929 . S
C2535 C2529 1.390 . S
C2535 C2532 1.386 . S
C2536 C2531 1.490 . S
C2536 C2538 1.395 . S
C2536 C2539 1.403 . S
H2537 C2543 0.930 . S
C2538 H2524 0.930 . S
C2538 C2536 1.395 . S
C2538 C2541 1.403 . S
C2539 C2536 1.403 . S
C2539 C2540 1.524 . S
C2539 C2543 1.400 . S
C2540 H2525 0.960 . S
C2540 H2526 0.960 . S
C2540 H2527 0.960 . S
C2540 C2539 1.524 . S
C2541 C2538 1.403 . S
C2541 C2542 1.392 . S
C2541 C2545 1.495 . S
C2542 C2541 1.392 . S
C2542 C2543 1.385 . S
C2542 C2544 1.478 . S
C2543 H2537 0.930 . S
C2543 C2539 1.400 . S
C2543 C2542 1.385 . S
C2544 C2542 1.478 . S
C2544 C2546 1.381 . S
C2544 C2550 1.383 . S
C2545 C2541 1.495 . S
C2545 H2551 0.959 . S
C2545 H2552 0.961 . S
C2545 H2553 0.960 . S
C2546 C2544 1.381 . S
C2546 C2547 1.394 . S
C2546 H2554 0.930 . S
C2547 C2546 1.394 . S
C2547 C2548 1.383 . S
C2547 H2555 0.929 . S
C2548 C2547 1.383 . S
C2548 C2549 1.377 . S
C2549 H2533 0.930 . S
C2549 C2548 1.377 . S
C2549 C2550 1.379 . S
C2550 H2534 0.931 . S
C2550 C2544 1.383 . S
C2550 C2549 1.379 . S
H2551 C2545 0.959 . S
H2552 C2545 0.961 . S
H2553 C2545 0.960 . S
H2554 C2546 0.930 . S
H2555 C2547 0.929 . S
H2556 C2564 0.929 . S
H2557 C2566 0.930 . S
H2558 C2568 0.930 . S
H2559 C2571 0.929 . S
H2560 C2574 0.930 . S
H2561 C2576 0.960 . S
H2562 C2576 0.960 . S
H2563 C2576 0.960 . S
C2564 H2556 0.929 . S
C2564 C2565 1.377 . S
C2564 C2566 1.384 . S
C2565 C2564 1.377 . S
C2565 C2571 1.390 . S
C2566 H2557 0.930 . S
C2566 C2564 1.384 . S
C2566 C2567 1.372 . S
C2567 C2566 1.372 . S
C2567 C2568 1.400 . S
C2567 C2572 1.490 . S
C2568 H2558 0.930 . S
C2568 C2567 1.400 . S
C2568 C2571 1.386 . S
H2569 C2585 0.930 . S
H2570 C2586 0.931 . S
C2571 H2559 0.929 . S
C2571 C2565 1.390 . S
C2571 C2568 1.386 . S
C2572 C2567 1.490 . S
C2572 C2574 1.395 . S
C2572 C2575 1.403 . S
H2573 C2579 0.930 . S
C2574 H2560 0.930 . S
C2574 C2572 1.395 . S
C2574 C2577 1.403 . S
C2575 C2572 1.403 . S
C2575 C2576 1.524 . S
C2575 C2579 1.400 . S
C2576 H2561 0.960 . S
C2576 H2562 0.960 . S
C2576 H2563 0.960 . S
C2576 C2575 1.524 . S
C2577 C2574 1.403 . S
C2577 C2578 1.392 . S
C2577 C2581 1.495 . S
C2578 C2577 1.392 . S
C2578 C2579 1.385 . S
C2578 C2580 1.478 . S
C2579 H2573 0.930 . S
C2579 C2575 1.400 . S
C2579 C2578 1.385 . S
C2580 C2578 1.478 . S
C2580 C2582 1.381 . S
C2580 C2586 1.383 . S
C2581 C2577 1.495 . S
C2581 H2587 0.959 . S
C2581 H2588 0.961 . S
C2581 H2589 0.960 . S
C2582 C2580 1.381 . S
C2582 C2583 1.394 . S
C2582 H2590 0.930 . S
C2583 C2582 1.394 . S
C2583 C2584 1.383 . S
C2583 H2591 0.929 . S
C2584 C2583 1.383 . S
C2584 C2585 1.377 . S
C2585 H2569 0.930 . S
C2585 C2584 1.377 . S
C2585 C2586 1.379 . S
C2586 H2570 0.931 . S
C2586 C2580 1.383 . S
C2586 C2585 1.379 . S
H2587 C2581 0.959 . S
H2588 C2581 0.961 . S
H2589 C2581 0.960 . S
H2590 C2582 0.930 . S
H2591 C2583 0.929 . S
H2592 C2600 0.929 . S
H2593 C2602 0.930 . S
H2594 C2604 0.930 . S
H2595 C2607 0.929 . S
H2596 C2610 0.930 . S
H2597 C2612 0.960 . S
H2598 C2612 0.960 . S
H2599 C2612 0.960 . S
C2600 H2592 0.929 . S
C2600 C2601 1.377 . S
C2600 C2602 1.384 . S
C2601 C2600 1.377 . S
C2601 C2607 1.390 . S
C2602 H2593 0.930 . S
C2602 C2600 1.384 . S
C2602 C2603 1.372 . S
C2603 C2602 1.372 . S
C2603 C2604 1.400 . S
C2603 C2608 1.490 . S
C2604 H2594 0.930 . S
C2604 C2603 1.400 . S
C2604 C2607 1.386 . S
H2605 C2621 0.930 . S
H2606 C2622 0.931 . S
C2607 H2595 0.929 . S
C2607 C2601 1.390 . S
C2607 C2604 1.386 . S
C2608 C2603 1.490 . S
C2608 C2610 1.395 . S
C2608 C2611 1.403 . S
H2609 C2615 0.930 . S
C2610 H2596 0.930 . S
C2610 C2608 1.395 . S
C2610 C2613 1.403 . S
C2611 C2608 1.403 . S
C2611 C2612 1.524 . S
C2611 C2615 1.400 . S
C2612 H2597 0.960 . S
C2612 H2598 0.960 . S
C2612 H2599 0.960 . S
C2612 C2611 1.524 . S
C2613 C2610 1.403 . S
C2613 C2614 1.392 . S
C2613 C2617 1.495 . S
C2614 C2613 1.392 . S
C2614 C2615 1.385 . S
C2614 C2616 1.478 . S
C2615 H2609 0.930 . S
C2615 C2611 1.400 . S
C2615 C2614 1.385 . S
C2616 C2614 1.478 . S
C2616 C2618 1.381 . S
C2616 C2622 1.383 . S
C2617 C2613 1.495 . S
C2617 H2623 0.959 . S
C2617 H2624 0.961 . S
C2617 H2625 0.960 . S
C2618 C2616 1.381 . S
C2618 C2619 1.394 . S
C2618 H2626 0.930 . S
C2619 C2618 1.394 . S
C2619 C2620 1.383 . S
C2619 H2627 0.929 . S
C2620 C2619 1.383 . S
C2620 C2621 1.377 . S
C2621 H2605 0.930 . S
C2621 C2620 1.377 . S
C2621 C2622 1.379 . S
C2622 H2606 0.931 . S
C2622 C2616 1.383 . S
C2622 C2621 1.379 . S
H2623 C2617 0.959 . S
H2624 C2617 0.961 . S
H2625 C2617 0.960 . S
H2626 C2618 0.930 . S
H2627 C2619 0.929 . S
H2628 C2636 0.929 . S
H2629 C2638 0.930 . S
H2630 C2640 0.930 . S
H2631 C2643 0.929 . S
H2632 C2646 0.930 . S
H2633 C2648 0.960 . S
H2634 C2648 0.960 . S
H2635 C2648 0.960 . S
C2636 H2628 0.929 . S
C2636 C2637 1.377 . S
C2636 C2638 1.384 . S
C2637 C2636 1.377 . S
C2637 C2643 1.390 . S
C2638 H2629 0.930 . S
C2638 C2636 1.384 . S
C2638 C2639 1.372 . S
C2639 C2638 1.372 . S
C2639 C2640 1.400 . S
C2639 C2644 1.490 . S
C2640 H2630 0.930 . S
C2640 C2639 1.400 . S
C2640 C2643 1.386 . S
H2641 C2657 0.930 . S
H2642 C2658 0.931 . S
C2643 H2631 0.929 . S
C2643 C2637 1.390 . S
C2643 C2640 1.386 . S
C2644 C2639 1.490 . S
C2644 C2646 1.395 . S
C2644 C2647 1.403 . S
H2645 C2651 0.930 . S
C2646 H2632 0.930 . S
C2646 C2644 1.395 . S
C2646 C2649 1.403 . S
C2647 C2644 1.403 . S
C2647 C2648 1.524 . S
C2647 C2651 1.400 . S
C2648 H2633 0.960 . S
C2648 H2634 0.960 . S
C2648 H2635 0.960 . S
C2648 C2647 1.524 . S
C2649 C2646 1.403 . S
C2649 C2650 1.392 . S
C2649 C2653 1.495 . S
C2650 C2649 1.392 . S
C2650 C2651 1.385 . S
C2650 C2652 1.478 . S
C2651 H2645 0.930 . S
C2651 C2647 1.400 . S
C2651 C2650 1.385 . S
C2652 C2650 1.478 . S
C2652 C2654 1.381 . S
C2652 C2658 1.383 . S
C2653 C2649 1.495 . S
C2653 H2659 0.959 . S
C2653 H2660 0.961 . S
C2653 H2661 0.960 . S
C2654 C2652 1.381 . S
C2654 C2655 1.394 . S
C2654 H2662 0.930 . S
C2655 C2654 1.394 . S
C2655 C2656 1.383 . S
C2655 H2663 0.929 . S
C2656 C2655 1.383 . S
C2656 C2657 1.377 . S
C2657 H2641 0.930 . S
C2657 C2656 1.377 . S
C2657 C2658 1.379 . S
C2658 H2642 0.931 . S
C2658 C2652 1.383 . S
C2658 C2657 1.379 . S
H2659 C2653 0.959 . S
H2660 C2653 0.961 . S
H2661 C2653 0.960 . S
H2662 C2654 0.930 . S
H2663 C2655 0.929 . S
H2664 C2672 0.929 . S
H2665 C2674 0.930 . S
H2666 C2676 0.930 . S
H2667 C2679 0.929 . S
H2668 C2682 0.930 . S
H2669 C2684 0.960 1_655 S
H2670 C2684 0.960 . S
H2671 C2684 0.961 1_655 S
C2672 H2664 0.929 . S
C2672 C2673 1.377 . S
C2672 C2674 1.384 . S
C2673 C2672 1.377 . S
C2673 C2679 1.390 . S
C2674 H2665 0.930 . S
C2674 C2672 1.384 . S
C2674 C2675 1.372 . S
C2675 C2674 1.372 . S
C2675 C2676 1.400 . S
C2675 C2680 1.490 . S
C2676 H2666 0.930 . S
C2676 C2675 1.400 . S
C2676 C2679 1.386 . S
H2677 C2693 0.930 . S
H2678 C2694 0.931 . S
C2679 H2667 0.929 . S
C2679 C2673 1.390 . S
C2679 C2676 1.386 . S
C2680 C2675 1.490 . S
C2680 C2682 1.395 . S
C2680 C2683 1.403 . S
H2681 C2687 0.930 . S
C2682 H2668 0.930 . S
C2682 C2680 1.395 . S
C2682 C2685 1.403 . S
C2683 C2680 1.403 . S
C2683 C2684 1.524 . S
C2683 C2687 1.400 . S
C2684 H2669 0.960 1_455 S
C2684 H2670 0.960 . S
C2684 H2671 0.961 1_455 S
C2684 C2683 1.524 . S
C2685 C2682 1.403 . S
C2685 C2686 1.392 . S
C2685 C2689 1.495 . S
C2686 C2685 1.392 . S
C2686 C2687 1.385 . S
C2686 C2688 1.478 . S
C2687 H2681 0.930 . S
C2687 C2683 1.400 . S
C2687 C2686 1.385 . S
C2688 C2686 1.478 . S
C2688 C2690 1.381 . S
C2688 C2694 1.383 . S
C2689 C2685 1.495 . S
C2689 H2695 0.959 . S
C2689 H2696 0.961 . S
C2689 H2697 0.960 . S
C2690 C2688 1.381 . S
C2690 C2691 1.394 . S
C2690 H2698 0.930 . S
C2691 C2690 1.394 . S
C2691 C2692 1.383 . S
C2691 H2699 0.929 . S
C2692 C2691 1.383 . S
C2692 C2693 1.377 . S
C2693 H2677 0.930 . S
C2693 C2692 1.377 . S
C2693 C2694 1.379 . S
C2694 H2678 0.931 . S
C2694 C2688 1.383 . S
C2694 C2693 1.379 . S
H2695 C2689 0.959 . S
H2696 C2689 0.961 . S
H2697 C2689 0.960 . S
H2698 C2690 0.930 . S
H2699 C2691 0.929 . S
H2700 C2708 0.929 . S
H2701 C2710 0.930 . S
H2702 C2712 0.930 . S
H2703 C2715 0.929 . S
H2704 C2718 0.930 . S
H2705 C2720 0.960 . S
H2706 C2720 0.960 . S
H2707 C2720 0.960 . S
C2708 H2700 0.929 . S
C2708 C2709 1.377 . S
C2708 C2710 1.384 . S
C2709 C2708 1.377 . S
C2709 C2715 1.390 . S
C2710 H2701 0.930 . S
C2710 C2708 1.384 . S
C2710 C2711 1.372 . S
C2711 C2710 1.372 . S
C2711 C2712 1.400 . S
C2711 C2716 1.490 . S
C2712 H2702 0.930 . S
C2712 C2711 1.400 . S
C2712 C2715 1.386 . S
H2713 C2729 0.930 . S
H2714 C2730 0.931 . S
C2715 H2703 0.929 . S
C2715 C2709 1.390 . S
C2715 C2712 1.386 . S
C2716 C2711 1.490 . S
C2716 C2718 1.395 . S
C2716 C2719 1.403 . S
H2717 C2723 0.930 . S
C2718 H2704 0.930 . S
C2718 C2716 1.395 . S
C2718 C2721 1.403 . S
C2719 C2716 1.403 . S
C2719 C2720 1.524 . S
C2719 C2723 1.400 . S
C2720 H2705 0.960 . S
C2720 H2706 0.960 . S
C2720 H2707 0.960 . S
C2720 C2719 1.524 . S
C2721 C2718 1.403 . S
C2721 C2722 1.392 . S
C2721 C2725 1.495 . S
C2722 C2721 1.392 . S
C2722 C2723 1.385 . S
C2722 C2724 1.478 . S
C2723 H2717 0.930 . S
C2723 C2719 1.400 . S
C2723 C2722 1.385 . S
C2724 C2722 1.478 . S
C2724 C2726 1.381 . S
C2724 C2730 1.383 . S
C2725 C2721 1.495 . S
C2725 H2731 0.959 . S
C2725 H2732 0.961 . S
C2725 H2733 0.960 . S
C2726 C2724 1.381 . S
C2726 C2727 1.394 . S
C2726 H2734 0.930 . S
C2727 C2726 1.394 . S
C2727 C2728 1.383 . S
C2727 H2735 0.929 . S
C2728 C2727 1.383 . S
C2728 C2729 1.377 . S
C2729 H2713 0.930 . S
C2729 C2728 1.377 . S
C2729 C2730 1.379 . S
C2730 H2714 0.931 . S
C2730 C2724 1.383 . S
C2730 C2729 1.379 . S
H2731 C2725 0.959 . S
H2732 C2725 0.961 . S
H2733 C2725 0.960 . S
H2734 C2726 0.930 . S
H2735 C2727 0.929 . S
H2736 C2744 0.929 . S
H2737 C2746 0.930 . S
H2738 C2748 0.930 . S
H2739 C2751 0.929 . S
H2740 C2754 0.930 . S
H2741 C2756 0.960 . S
H2742 C2756 0.960 . S
H2743 C2756 0.960 . S
C2744 H2736 0.929 . S
C2744 C2745 1.377 . S
C2744 C2746 1.384 . S
C2745 C2744 1.377 . S
C2745 C2751 1.390 . S
C2746 H2737 0.930 . S
C2746 C2744 1.384 . S
C2746 C2747 1.372 . S
C2747 C2746 1.372 . S
C2747 C2748 1.400 . S
C2747 C2752 1.490 . S
C2748 H2738 0.930 . S
C2748 C2747 1.400 . S
C2748 C2751 1.386 . S
H2749 C2765 0.930 . S
H2750 C2766 0.931 . S
C2751 H2739 0.929 . S
C2751 C2745 1.390 . S
C2751 C2748 1.386 . S
C2752 C2747 1.490 . S
C2752 C2754 1.395 . S
C2752 C2755 1.403 . S
H2753 C2759 0.930 . S
C2754 H2740 0.930 . S
C2754 C2752 1.395 . S
C2754 C2757 1.403 . S
C2755 C2752 1.403 . S
C2755 C2756 1.524 . S
C2755 C2759 1.400 . S
C2756 H2741 0.960 . S
C2756 H2742 0.960 . S
C2756 H2743 0.960 . S
C2756 C2755 1.524 . S
C2757 C2754 1.403 . S
C2757 C2758 1.392 . S
C2757 C2761 1.495 . S
C2758 C2757 1.392 . S
C2758 C2759 1.385 . S
C2758 C2760 1.478 . S
C2759 H2753 0.930 . S
C2759 C2755 1.400 . S
C2759 C2758 1.385 . S
C2760 C2758 1.478 . S
C2760 C2762 1.381 . S
C2760 C2766 1.383 . S
C2761 C2757 1.495 . S
C2761 H2767 0.959 . S
C2761 H2768 0.961 . S
C2761 H2769 0.960 . S
C2762 C2760 1.381 . S
C2762 C2763 1.394 . S
C2762 H2770 0.930 . S
C2763 C2762 1.394 . S
C2763 C2764 1.383 . S
C2763 H2771 0.929 . S
C2764 C2763 1.383 . S
C2764 C2765 1.377 . S
C2765 H2749 0.930 . S
C2765 C2764 1.377 . S
C2765 C2766 1.379 . S
C2766 H2750 0.931 . S
C2766 C2760 1.383 . S
C2766 C2765 1.379 . S
H2767 C2761 0.959 . S
H2768 C2761 0.961 . S
H2769 C2761 0.960 . S
H2770 C2762 0.930 . S
H2771 C2763 0.929 . S
H2772 C2780 0.929 . S
H2773 C2782 0.930 . S
H2774 C2784 0.930 . S
H2775 C2787 0.929 . S
H2776 C2790 0.930 . S
H2777 C2792 0.960 . S
H2778 C2792 0.960 . S
H2779 C2792 0.960 . S
C2780 H2772 0.929 . S
C2780 C2781 1.377 . S
C2780 C2782 1.384 . S
C2781 C2780 1.377 . S
C2781 C2787 1.390 . S
C2782 H2773 0.930 . S
C2782 C2780 1.384 . S
C2782 C2783 1.372 . S
C2783 C2782 1.372 . S
C2783 C2784 1.400 . S
C2783 C2788 1.490 . S
C2784 H2774 0.930 . S
C2784 C2783 1.400 . S
C2784 C2787 1.386 . S
H2785 C2801 0.930 . S
H2786 C2802 0.931 . S
C2787 H2775 0.929 . S
C2787 C2781 1.390 . S
C2787 C2784 1.386 . S
C2788 C2783 1.490 . S
C2788 C2790 1.395 . S
C2788 C2791 1.403 . S
H2789 C2795 0.930 . S
C2790 H2776 0.930 . S
C2790 C2788 1.395 . S
C2790 C2793 1.403 . S
C2791 C2788 1.403 . S
C2791 C2792 1.524 . S
C2791 C2795 1.400 . S
C2792 H2777 0.960 . S
C2792 H2778 0.960 . S
C2792 H2779 0.960 . S
C2792 C2791 1.524 . S
C2793 C2790 1.403 . S
C2793 C2794 1.392 . S
C2793 C2797 1.495 . S
C2794 C2793 1.392 . S
C2794 C2795 1.385 . S
C2794 C2796 1.478 . S
C2795 H2789 0.930 . S
C2795 C2791 1.400 . S
C2795 C2794 1.385 . S
C2796 C2794 1.478 . S
C2796 C2798 1.381 . S
C2796 C2802 1.383 . S
C2797 C2793 1.495 . S
C2797 H2803 0.959 . S
C2797 H2804 0.961 . S
C2797 H2805 0.960 . S
C2798 C2796 1.381 . S
C2798 C2799 1.394 . S
C2798 H2806 0.930 . S
C2799 C2798 1.394 . S
C2799 C2800 1.383 . S
C2799 H2807 0.929 . S
C2800 C2799 1.383 . S
C2800 C2801 1.377 . S
C2801 H2785 0.930 . S
C2801 C2800 1.377 . S
C2801 C2802 1.379 . S
C2802 H2786 0.931 . S
C2802 C2796 1.383 . S
C2802 C2801 1.379 . S
H2803 C2797 0.959 . S
H2804 C2797 0.961 . S
H2805 C2797 0.960 . S
H2806 C2798 0.930 . S
H2807 C2799 0.929 . S
H2808 C2816 0.929 . S
H2809 C2818 0.930 . S
H2810 C2820 0.930 . S
H2811 C2823 0.929 . S
H2812 C2826 0.930 . S
H2813 C2828 0.960 1_565 S
H2814 C2828 0.972 . S
H2815 C2828 0.960 . S
C2816 H2808 0.929 . S
C2816 C2817 1.377 . S
C2816 C2818 1.384 . S
C2817 C2816 1.377 . S
C2817 C2823 1.390 . S
C2818 H2809 0.930 . S
C2818 C2816 1.384 . S
C2818 C2819 1.372 . S
C2819 C2818 1.372 . S
C2819 C2820 1.400 . S
C2819 C2824 1.490 . S
C2820 H2810 0.930 . S
C2820 C2819 1.400 . S
C2820 C2823 1.386 . S
H2821 C2837 0.930 . S
H2822 C2838 0.931 . S
C2823 H2811 0.929 . S
C2823 C2817 1.390 . S
C2823 C2820 1.386 . S
C2824 C2819 1.490 . S
C2824 C2826 1.395 . S
C2824 C2827 1.403 . S
H2825 C2831 0.930 . S
C2826 H2812 0.930 . S
C2826 C2824 1.395 . S
C2826 C2829 1.403 . S
C2827 C2824 1.403 . S
C2827 C2828 1.524 . S
C2827 C2831 1.400 . S
C2828 H2813 0.960 1_545 S
C2828 H2814 0.972 . S
C2828 H2815 0.960 . S
C2828 C2827 1.524 . S
C2829 C2826 1.403 . S
C2829 C2830 1.392 . S
C2829 C2833 1.495 . S
C2830 C2829 1.392 . S
C2830 C2831 1.385 . S
C2830 C2832 1.478 . S
C2831 H2825 0.930 . S
C2831 C2827 1.400 . S
C2831 C2830 1.385 . S
C2832 C2830 1.478 . S
C2832 C2834 1.381 . S
C2832 C2838 1.383 . S
C2833 C2829 1.495 . S
C2833 H2839 0.959 . S
C2833 H2840 0.961 . S
C2833 H2841 0.960 . S
C2834 C2832 1.381 . S
C2834 C2835 1.394 . S
C2834 H2842 0.930 . S
C2835 C2834 1.394 . S
C2835 C2836 1.383 . S
C2835 H2843 0.929 . S
C2836 C2835 1.383 . S
C2836 C2837 1.377 . S
C2837 H2821 0.930 . S
C2837 C2836 1.377 . S
C2837 C2838 1.379 . S
C2838 H2822 0.931 . S
C2838 C2832 1.383 . S
C2838 C2837 1.379 . S
H2839 C2833 0.959 . S
H2840 C2833 0.961 . S
H2841 C2833 0.960 . S
H2842 C2834 0.930 . S
H2843 C2835 0.929 . S
H2844 C2852 0.929 . S
H2845 C2854 0.930 . S
H2846 C2856 0.930 . S
H2847 C2859 0.929 . S
H2848 C2862 0.930 . S
H2849 C2864 0.960 . S
H2850 C2864 0.960 . S
H2851 C2864 0.960 . S
C2852 H2844 0.929 . S
C2852 C2853 1.377 . S
C2852 C2854 1.384 . S
C2853 C2852 1.377 . S
C2853 C2859 1.390 . S
C2854 H2845 0.930 . S
C2854 C2852 1.384 . S
C2854 C2855 1.372 . S
C2855 C2854 1.372 . S
C2855 C2856 1.400 . S
C2855 C2860 1.490 . S
C2856 H2846 0.930 . S
C2856 C2855 1.400 . S
C2856 C2859 1.386 . S
H2857 C2873 0.930 . S
H2858 C2874 0.931 . S
C2859 H2847 0.929 . S
C2859 C2853 1.390 . S
C2859 C2856 1.386 . S
C2860 C2855 1.490 . S
C2860 C2862 1.395 . S
C2860 C2863 1.403 . S
H2861 C2867 0.930 . S
C2862 H2848 0.930 . S
C2862 C2860 1.395 . S
C2862 C2865 1.403 . S
C2863 C2860 1.403 . S
C2863 C2864 1.524 . S
C2863 C2867 1.400 . S
C2864 H2849 0.960 . S
C2864 H2850 0.960 . S
C2864 H2851 0.960 . S
C2864 C2863 1.524 . S
C2865 C2862 1.403 . S
C2865 C2866 1.392 . S
C2865 C2869 1.495 . S
C2866 C2865 1.392 . S
C2866 C2867 1.385 . S
C2866 C2868 1.478 . S
C2867 H2861 0.930 . S
C2867 C2863 1.400 . S
C2867 C2866 1.385 . S
C2868 C2866 1.478 . S
C2868 C2870 1.381 . S
C2868 C2874 1.383 . S
C2869 C2865 1.495 . S
C2869 H2875 0.959 . S
C2869 H2876 0.961 . S
C2869 H2877 0.960 . S
C2870 C2868 1.381 . S
C2870 C2871 1.394 . S
C2870 H2878 0.930 . S
C2871 C2870 1.394 . S
C2871 C2872 1.383 . S
C2871 H2879 0.929 . S
C2872 C2871 1.383 . S
C2872 C2873 1.377 . S
C2873 H2857 0.930 . S
C2873 C2872 1.377 . S
C2873 C2874 1.379 . S
C2874 H2858 0.931 . S
C2874 C2868 1.383 . S
C2874 C2873 1.379 . S
H2875 C2869 0.959 . S
H2876 C2869 0.961 . S
H2877 C2869 0.960 . S
H2878 C2870 0.930 . S
H2879 C2871 0.929 . S
H2880 C2888 0.929 . S
H2881 C2890 0.930 . S
H2882 C2892 0.959 . S
H2883 C2895 0.929 . S
H2884 C2898 0.930 . S
H2885 C2900 0.960 . S
H2886 C2900 0.960 . S
H2887 C2900 0.960 . S
C2888 H2880 0.929 . S
C2888 C2889 1.377 . S
C2888 C2890 1.384 . S
C2889 C2888 1.377 . S
C2889 C2895 1.390 1_545 S
C2890 H2881 0.930 . S
C2890 C2888 1.384 . S
C2890 C2891 1.372 . S
C2891 C2890 1.372 . S
C2891 C2892 1.376 1_545 S
C2891 C2896 1.490 . S
C2892 H2882 0.959 . S
C2892 C2891 1.376 1_565 S
C2892 C2895 1.382 . S
H2893 C2909 0.930 1_565 S
H2894 C2910 0.931 1_565 S
C2895 H2883 0.929 . S
C2895 C2889 1.390 1_565 S
C2895 C2892 1.382 . S
C2896 C2891 1.490 . S
C2896 C2898 1.395 . S
C2896 C2899 1.403 . S
H2897 C2903 0.930 . S
C2898 H2884 0.930 . S
C2898 C2896 1.395 . S
C2898 C2901 1.403 . S
C2899 C2896 1.403 . S
C2899 C2900 1.524 . S
C2899 C2903 1.400 . S
C2900 H2885 0.960 . S
C2900 H2886 0.960 . S
C2900 H2887 0.960 . S
C2900 C2899 1.524 . S
C2901 C2898 1.403 . S
C2901 C2902 1.392 . S
C2901 C2905 1.495 . S
C2902 C2901 1.392 . S
C2902 C2903 1.385 . S
C2902 C2904 1.478 . S
C2903 H2897 0.930 . S
C2903 C2899 1.400 . S
C2903 C2902 1.385 . S
C2904 C2902 1.478 . S
C2904 C2906 1.381 . S
C2904 C2910 1.383 . S
C2905 C2901 1.495 . S
C2905 H2911 0.959 . S
C2905 H2912 0.961 . S
C2905 H2913 0.960 . S
C2906 C2904 1.381 . S
C2906 C2907 1.394 . S
C2906 H2914 0.930 . S
C2907 C2906 1.394 . S
C2907 C2908 1.383 . S
C2907 H2915 0.929 . S
C2908 C2907 1.383 . S
C2908 C2909 1.377 . S
C2909 H2893 0.930 1_545 S
C2909 C2908 1.377 . S
C2909 C2910 1.379 . S
C2910 H2894 0.931 1_545 S
C2910 C2904 1.383 . S
C2910 C2909 1.379 . S
H2911 C2905 0.959 . S
H2912 C2905 0.961 . S
H2913 C2905 0.960 . S
H2914 C2906 0.930 . S
H2915 C2907 0.929 . S
H2916 C2924 0.929 . S
H2917 C2926 0.930 . S
H2918 C2928 0.930 . S
H2919 C2931 0.929 . S
H2920 C2934 0.930 . S
H2921 C2936 0.960 . S
H2922 C2936 0.960 . S
H2923 C2936 0.960 . S
C2924 H2916 0.929 . S
C2924 C2925 1.377 . S
C2924 C2926 1.384 . S
C2925 C2924 1.377 . S
C2925 C2931 1.390 . S
C2926 H2917 0.930 . S
C2926 C2924 1.384 . S
C2926 C2927 1.372 . S
C2927 C2926 1.372 . S
C2927 C2928 1.400 . S
C2927 C2932 1.490 . S
C2928 H2918 0.930 . S
C2928 C2927 1.400 . S
C2928 C2931 1.386 . S
H2929 C2945 0.930 . S
H2930 C2946 0.931 . S
C2931 H2919 0.929 . S
C2931 C2925 1.390 . S
C2931 C2928 1.386 . S
C2932 C2927 1.490 . S
C2932 C2934 1.395 . S
C2932 C2935 1.403 . S
H2933 C2939 0.930 . S
C2934 H2920 0.930 . S
C2934 C2932 1.395 . S
C2934 C2937 1.403 . S
C2935 C2932 1.403 . S
C2935 C2936 1.524 . S
C2935 C2939 1.400 . S
C2936 H2921 0.960 . S
C2936 H2922 0.960 . S
C2936 H2923 0.960 . S
C2936 C2935 1.524 . S
C2937 C2934 1.403 . S
C2937 C2938 1.392 . S
C2937 C2941 1.495 . S
C2938 C2937 1.392 . S
C2938 C2939 1.385 . S
C2938 C2940 1.478 . S
C2939 H2933 0.930 . S
C2939 C2935 1.400 . S
C2939 C2938 1.385 . S
C2940 C2938 1.478 . S
C2940 C2942 1.381 . S
C2940 C2946 1.383 . S
C2941 C2937 1.495 . S
C2941 H2947 0.959 . S
C2941 H2948 0.961 . S
C2941 H2949 0.960 . S
C2942 C2940 1.381 . S
C2942 C2943 1.394 . S
C2942 H2950 0.930 . S
C2943 C2942 1.394 . S
C2943 C2944 1.383 . S
C2943 H2951 0.929 . S
C2944 C2943 1.383 . S
C2944 C2945 1.377 . S
C2945 H2929 0.930 . S
C2945 C2944 1.377 . S
C2945 C2946 1.379 . S
C2946 H2930 0.931 . S
C2946 C2940 1.383 . S
C2946 C2945 1.379 . S
H2947 C2941 0.959 . S
H2948 C2941 0.961 . S
H2949 C2941 0.960 . S
H2950 C2942 0.930 . S
H2951 C2943 0.929 . S
H2952 C2960 0.929 . S
H2953 C2962 0.923 1_565 S
H2954 C2964 0.930 . S
H2955 C2967 0.929 . S
H2956 C2970 0.930 . S
H2957 C2972 0.960 . S
H2958 C2972 0.960 . S
H2959 C2972 0.960 . S
C2960 H2952 0.929 . S
C2960 C2961 1.377 . S
C2960 C2962 1.384 . S
C2961 C2960 1.377 . S
C2961 C2967 1.390 . S
C2962 H2953 0.923 1_545 S
C2962 C2960 1.384 . S
C2962 C2963 1.372 . S
C2963 C2962 1.372 . S
C2963 C2964 1.400 . S
C2963 C2968 1.490 . S
C2964 H2954 0.930 . S
C2964 C2963 1.400 . S
C2964 C2967 1.386 . S
H2965 C2981 0.930 . S
H2966 C2982 0.931 . S
C2967 H2955 0.929 . S
C2967 C2961 1.390 . S
C2967 C2964 1.386 . S
C2968 C2963 1.490 . S
C2968 C2970 1.395 . S
C2968 C2971 1.403 . S
H2969 C2975 0.930 . S
C2970 H2956 0.930 . S
C2970 C2968 1.395 . S
C2970 C2973 1.403 . S
C2971 C2968 1.403 . S
C2971 C2972 1.524 . S
C2971 C2975 1.400 . S
C2972 H2957 0.960 . S
C2972 H2958 0.960 . S
C2972 H2959 0.960 . S
C2972 C2971 1.524 . S
C2973 C2970 1.403 . S
C2973 C2974 1.392 . S
C2973 C2977 1.495 . S
C2974 C2973 1.392 . S
C2974 C2975 1.385 . S
C2974 C2976 1.478 . S
C2975 H2969 0.930 . S
C2975 C2971 1.400 . S
C2975 C2974 1.385 . S
C2976 C2974 1.478 . S
C2976 C2978 1.381 . S
C2976 C2982 1.383 . S
C2977 C2973 1.495 . S
C2977 H2983 0.959 . S
C2977 H2984 0.961 . S
C2977 H2985 0.960 . S
C2978 C2976 1.381 . S
C2978 C2979 1.394 . S
C2978 H2986 0.930 1_545 S
C2979 C2978 1.394 . S
C2979 C2980 1.383 . S
C2979 H2987 0.929 1_545 S
C2980 C2979 1.383 . S
C2980 C2981 1.377 . S
C2981 H2965 0.930 . S
C2981 C2980 1.377 . S
C2981 C2982 1.379 . S
C2982 H2966 0.931 . S
C2982 C2976 1.383 . S
C2982 C2981 1.379 . S
H2983 C2977 0.959 . S
H2984 C2977 0.961 . S
H2985 C2977 0.960 . S
H2986 C2978 0.930 1_565 S
H2987 C2979 0.929 1_565 S
H2988 C2996 0.929 . S
H2989 C2998 0.930 . S
H2990 C3000 0.930 . S
H2991 C3003 0.929 . S
H2992 C3006 0.930 . S
H2993 C3008 0.960 . S
H2994 C3008 0.960 . S
H2995 C3008 0.960 . S
C2996 H2988 0.929 . S
C2996 C2997 1.377 . S
C2996 C2998 1.384 . S
C2997 C2996 1.377 . S
C2997 C3003 1.390 . S
C2998 H2989 0.930 . S
C2998 C2996 1.384 . S
C2998 C2999 1.372 . S
C2999 C2998 1.372 . S
C2999 C3000 1.400 . S
C2999 C3004 1.490 . S
C3000 H2990 0.930 . S
C3000 C2999 1.400 . S
C3000 C3003 1.386 . S
H3001 C3017 0.930 . S
H3002 C3018 0.931 . S
C3003 H2991 0.929 . S
C3003 C2997 1.390 . S
C3003 C3000 1.386 . S
C3004 C2999 1.490 . S
C3004 C3006 1.395 . S
C3004 C3007 1.403 . S
H3005 C3011 0.930 . S
C3006 H2992 0.930 . S
C3006 C3004 1.395 . S
C3006 C3009 1.403 . S
C3007 C3004 1.403 . S
C3007 C3008 1.524 . S
C3007 C3011 1.400 . S
C3008 H2993 0.960 . S
C3008 H2994 0.960 . S
C3008 H2995 0.960 . S
C3008 C3007 1.524 . S
C3009 C3006 1.403 . S
C3009 C3010 1.392 . S
C3009 C3013 1.495 . S
C3010 C3009 1.392 . S
C3010 C3011 1.385 . S
C3010 C3012 1.478 . S
C3011 H3005 0.930 . S
C3011 C3007 1.400 . S
C3011 C3010 1.385 . S
C3012 C3010 1.478 . S
C3012 C3014 1.381 . S
C3012 C3018 1.383 . S
C3013 C3009 1.495 . S
C3013 H3019 0.959 . S
C3013 H3020 0.961 . S
C3013 H3021 0.960 . S
C3014 C3012 1.381 . S
C3014 C3015 1.394 . S
C3014 H3022 0.930 . S
C3015 C3014 1.394 . S
C3015 C3016 1.383 . S
C3015 H3023 0.929 . S
C3016 C3015 1.383 . S
C3016 C3017 1.377 . S
C3017 H3001 0.930 . S
C3017 C3016 1.377 . S
C3017 C3018 1.379 . S
C3018 H3002 0.931 . S
C3018 C3012 1.383 . S
C3018 C3017 1.379 . S
H3019 C3013 0.959 . S
H3020 C3013 0.961 . S
H3021 C3013 0.960 . S
H3022 C3014 0.930 . S
H3023 C3015 0.929 . S
H3024 C3032 0.929 1_565 S
H3025 C3034 0.909 1_565 S
H3026 C3036 0.930 . S
H3027 C3039 0.929 . S
H3028 C3042 0.892 1_565 S
H3029 C3044 0.960 . S
H3030 C3044 0.960 . S
H3031 C3044 0.960 . S
C3032 H3024 0.929 1_545 S
C3032 C3033 1.377 . S
C3032 C3034 1.384 . S
C3033 C3032 1.377 . S
C3033 C3039 1.390 . S
C3034 H3025 0.909 1_545 S
C3034 C3032 1.384 . S
C3034 C3035 1.372 . S
C3035 C3034 1.372 . S
C3035 C3036 1.400 . S
C3035 C3040 1.490 . S
C3036 H3026 0.930 . S
C3036 C3035 1.400 . S
C3036 C3039 1.386 . S
H3037 C3053 0.930 . S
H3038 C3054 0.931 . S
C3039 H3027 0.929 . S
C3039 C3033 1.390 . S
C3039 C3036 1.386 . S
C3040 C3035 1.490 . S
C3040 C3042 1.433 . S
C3040 C3043 1.403 . S
H3041 C3047 0.930 . S
C3042 H3028 0.892 1_545 S
C3042 C3040 1.433 . S
C3042 C3045 1.403 . S
C3043 C3040 1.403 . S
C3043 C3044 1.524 . S
C3043 C3047 1.400 . S
C3044 H3029 0.960 . S
C3044 H3030 0.960 . S
C3044 H3031 0.960 . S
C3044 C3043 1.524 . S
C3045 C3042 1.403 . S
C3045 C3046 1.407 . S
C3045 C3049 1.480 1_545 S
C3046 C3045 1.407 . S
C3046 C3047 1.385 . S
C3046 C3048 1.478 . S
C3047 H3041 0.930 . S
C3047 C3043 1.400 . S
C3047 C3046 1.385 . S
C3048 C3046 1.478 . S
C3048 C3050 1.381 . S
C3048 C3054 1.383 . S
C3049 C3045 1.480 1_565 S
C3049 H3055 0.959 . S
C3049 H3056 0.961 . S
C3049 H3057 0.960 . S
C3050 C3048 1.381 . S
C3050 C3051 1.394 . S
C3050 H3058 0.930 . S
C3051 C3050 1.394 . S
C3051 C3052 1.383 . S
C3051 H3059 0.929 . S
C3052 C3051 1.383 . S
C3052 C3053 1.377 . S
C3053 H3037 0.930 . S
C3053 C3052 1.377 . S
C3053 C3054 1.379 . S
C3054 H3038 0.931 . S
C3054 C3048 1.383 . S
C3054 C3053 1.379 . S
H3055 C3049 0.959 . S
H3056 C3049 0.961 . S
H3057 C3049 0.960 . S
H3058 C3050 0.930 . S
H3059 C3051 0.929 . S
H3060 C3068 0.929 . S
H3061 C3070 0.930 . S
H3062 C3072 0.930 . S
H3063 C3075 0.929 . S
H3064 C3078 0.930 . S
H3065 C3080 0.960 . S
H3066 C3080 0.960 . S
H3067 C3080 0.960 . S
C3068 H3060 0.929 . S
C3068 C3069 1.377 . S
C3068 C3070 1.384 . S
C3069 C3068 1.377 . S
C3069 C3075 1.390 . S
C3070 H3061 0.930 . S
C3070 C3068 1.384 . S
C3070 C3071 1.372 . S
C3071 C3070 1.372 . S
C3071 C3072 1.400 . S
C3071 C3076 1.490 . S
C3072 H3062 0.930 . S
C3072 C3071 1.400 . S
C3072 C3075 1.386 . S
H3073 C3089 0.930 . S
H3074 C3090 0.931 . S
C3075 H3063 0.929 . S
C3075 C3069 1.390 . S
C3075 C3072 1.386 . S
C3076 C3071 1.490 . S
C3076 C3078 1.395 . S
C3076 C3079 1.403 . S
H3077 C3083 0.930 . S
C3078 H3064 0.930 . S
C3078 C3076 1.395 . S
C3078 C3081 1.403 . S
C3079 C3076 1.403 . S
C3079 C3080 1.524 . S
C3079 C3083 1.400 . S
C3080 H3065 0.960 . S
C3080 H3066 0.960 . S
C3080 H3067 0.960 . S
C3080 C3079 1.524 . S
C3081 C3078 1.403 . S
C3081 C3082 1.392 . S
C3081 C3085 1.495 . S
C3082 C3081 1.392 . S
C3082 C3083 1.385 . S
C3082 C3084 1.478 . S
C3083 H3077 0.930 . S
C3083 C3079 1.400 . S
C3083 C3082 1.385 . S
C3084 C3082 1.478 . S
C3084 C3086 1.381 . S
C3084 C3090 1.383 . S
C3085 C3081 1.495 . S
C3085 H3091 0.959 . S
C3085 H3092 0.961 . S
C3085 H3093 0.960 . S
C3086 C3084 1.381 . S
C3086 C3087 1.394 . S
C3086 H3094 0.930 . S
C3087 C3086 1.394 . S
C3087 C3088 1.383 . S
C3087 H3095 0.929 . S
C3088 C3087 1.383 . S
C3088 C3089 1.377 . S
C3089 H3073 0.930 . S
C3089 C3088 1.377 . S
C3089 C3090 1.379 . S
C3090 H3074 0.931 . S
C3090 C3084 1.383 . S
C3090 C3089 1.379 . S
H3091 C3085 0.959 . S
H3092 C3085 0.961 . S
H3093 C3085 0.960 . S
H3094 C3086 0.930 . S
H3095 C3087 0.929 . S
H3096 C3104 0.929 . S
H3097 C3106 0.930 . S
H3098 C3108 0.930 . S
H3099 C3111 0.929 . S
H3100 C3114 0.930 . S
H3101 C3116 0.960 . S
H3102 C3116 0.960 . S
H3103 C3116 0.960 . S
C3104 H3096 0.929 . S
C3104 C3105 1.377 . S
C3104 C3106 1.384 . S
C3105 C3104 1.377 . S
C3105 C3111 1.390 . S
C3106 H3097 0.930 . S
C3106 C3104 1.384 . S
C3106 C3107 1.372 . S
C3107 C3106 1.372 . S
C3107 C3108 1.400 . S
C3107 C3112 1.490 . S
C3108 H3098 0.930 . S
C3108 C3107 1.400 . S
C3108 C3111 1.386 . S
H3109 C3125 0.930 . S
H3110 C3126 0.931 . S
C3111 H3099 0.929 . S
C3111 C3105 1.390 . S
C3111 C3108 1.386 . S
C3112 C3107 1.490 . S
C3112 C3114 1.395 . S
C3112 C3115 1.403 . S
H3113 C3119 0.930 . S
C3114 H3100 0.930 . S
C3114 C3112 1.395 . S
C3114 C3117 1.403 . S
C3115 C3112 1.403 . S
C3115 C3116 1.524 . S
C3115 C3119 1.400 . S
C3116 H3101 0.960 . S
C3116 H3102 0.960 . S
C3116 H3103 0.960 . S
C3116 C3115 1.524 . S
C3117 C3114 1.403 . S
C3117 C3118 1.392 . S
C3117 C3121 1.495 . S
C3118 C3117 1.392 . S
C3118 C3119 1.385 . S
C3118 C3120 1.478 . S
C3119 H3113 0.930 . S
C3119 C3115 1.400 . S
C3119 C3118 1.385 . S
C3120 C3118 1.478 . S
C3120 C3122 1.381 . S
C3120 C3126 1.383 . S
C3121 C3117 1.495 . S
C3121 H3127 0.959 . S
C3121 H3128 0.961 . S
C3121 H3129 0.960 . S
C3122 C3120 1.381 . S
C3122 C3123 1.394 . S
C3122 H3130 0.930 . S
C3123 C3122 1.394 . S
C3123 C3124 1.383 . S
C3123 H3131 0.929 . S
C3124 C3123 1.383 . S
C3124 C3125 1.377 . S
C3125 H3109 0.930 . S
C3125 C3124 1.377 . S
C3125 C3126 1.379 . S
C3126 H3110 0.931 . S
C3126 C3120 1.383 . S
C3126 C3125 1.379 . S
H3127 C3121 0.959 . S
H3128 C3121 0.961 . S
H3129 C3121 0.960 . S
H3130 C3122 0.930 . S
H3131 C3123 0.929 . S
H3132 C3140 0.929 . S
H3133 C3142 0.930 . S
H3134 C3144 0.930 . S
H3135 C3147 0.929 . S
H3136 C3150 0.930 . S
H3137 C3152 0.960 . S
H3138 C3152 0.960 . S
H3139 C3152 0.960 . S
C3140 H3132 0.929 . S
C3140 C3141 1.377 . S
C3140 C3142 1.384 . S
C3141 C3140 1.377 . S
C3141 C3147 1.390 . S
C3142 H3133 0.930 . S
C3142 C3140 1.384 . S
C3142 C3143 1.372 . S
C3143 C3142 1.372 . S
C3143 C3144 1.400 . S
C3143 C3148 1.490 . S
C3144 H3134 0.930 . S
C3144 C3143 1.400 . S
C3144 C3147 1.386 . S
H3145 C3161 0.930 . S
H3146 C3162 0.931 . S
C3147 H3135 0.929 . S
C3147 C3141 1.390 . S
C3147 C3144 1.386 . S
C3148 C3143 1.490 . S
C3148 C3150 1.395 . S
C3148 C3151 1.403 . S
H3149 C3155 0.930 . S
C3150 H3136 0.930 . S
C3150 C3148 1.395 . S
C3150 C3153 1.403 . S
C3151 C3148 1.403 . S
C3151 C3152 1.524 . S
C3151 C3155 1.400 . S
C3152 H3137 0.960 . S
C3152 H3138 0.960 . S
C3152 H3139 0.960 . S
C3152 C3151 1.524 . S
C3153 C3150 1.403 . S
C3153 C3154 1.392 . S
C3153 C3157 1.495 . S
C3154 C3153 1.392 . S
C3154 C3155 1.385 . S
C3154 C3156 1.478 . S
C3155 H3149 0.930 . S
C3155 C3151 1.400 . S
C3155 C3154 1.385 . S
C3156 C3154 1.478 . S
C3156 C3158 1.381 . S
C3156 C3162 1.383 . S
C3157 C3153 1.495 . S
C3157 H3163 0.959 . S
C3157 H3164 0.961 . S
C3157 H3165 0.960 . S
C3158 C3156 1.381 . S
C3158 C3159 1.394 . S
C3158 H3166 0.890 1_554 S
C3159 C3158 1.394 . S
C3159 C3160 1.383 . S
C3159 H3167 0.929 1_554 S
C3160 C3159 1.383 . S
C3160 C3161 1.377 . S
C3161 H3145 0.930 . S
C3161 C3160 1.377 . S
C3161 C3162 1.379 . S
C3162 H3146 0.931 . S
C3162 C3156 1.383 . S
C3162 C3161 1.379 . S
H3163 C3157 0.959 . S
H3164 C3157 0.961 . S
H3165 C3157 0.960 . S
H3166 C3158 0.890 1_556 S
H3167 C3159 0.929 1_556 S
H3168 C3176 0.929 . S
H3169 C3178 0.930 . S
H3170 C3180 0.930 . S
H3171 C3183 0.929 . S
H3172 C3186 0.930 . S
H3173 C3188 0.960 . S
H3174 C3188 0.960 . S
H3175 C3188 0.960 . S
C3176 H3168 0.929 . S
C3176 C3177 1.377 . S
C3176 C3178 1.384 . S
C3177 C3176 1.377 . S
C3177 C3183 1.390 . S
C3178 H3169 0.930 . S
C3178 C3176 1.384 . S
C3178 C3179 1.372 . S
C3179 C3178 1.372 . S
C3179 C3180 1.400 . S
C3179 C3184 1.490 . S
C3180 H3170 0.930 . S
C3180 C3179 1.400 . S
C3180 C3183 1.386 . S
H3181 C3197 0.930 . S
H3182 C3198 0.931 . S
C3183 H3171 0.929 . S
C3183 C3177 1.390 . S
C3183 C3180 1.386 . S
C3184 C3179 1.490 . S
C3184 C3186 1.395 . S
C3184 C3187 1.403 . S
H3185 C3191 0.930 . S
C3186 H3172 0.930 . S
C3186 C3184 1.395 . S
C3186 C3189 1.403 . S
C3187 C3184 1.403 . S
C3187 C3188 1.524 . S
C3187 C3191 1.400 . S
C3188 H3173 0.960 . S
C3188 H3174 0.960 . S
C3188 H3175 0.960 . S
C3188 C3187 1.524 . S
C3189 C3186 1.403 . S
C3189 C3190 1.392 . S
C3189 C3193 1.495 . S
C3190 C3189 1.392 . S
C3190 C3191 1.385 . S
C3190 C3192 1.478 . S
C3191 H3185 0.930 . S
C3191 C3187 1.400 . S
C3191 C3190 1.385 . S
C3192 C3190 1.478 . S
C3192 C3194 1.381 . S
C3192 C3198 1.383 . S
C3193 C3189 1.495 . S
C3193 H3199 0.959 . S
C3193 H3200 0.961 . S
C3193 H3201 0.960 . S
C3194 C3192 1.381 . S
C3194 C3195 1.394 . S
C3194 H3202 0.930 . S
C3195 C3194 1.394 . S
C3195 C3196 1.383 . S
C3195 H3203 0.929 . S
C3196 C3195 1.383 . S
C3196 C3197 1.377 . S
C3197 H3181 0.930 . S
C3197 C3196 1.377 . S
C3197 C3198 1.379 . S
C3198 H3182 0.931 . S
C3198 C3192 1.383 . S
C3198 C3197 1.379 . S
H3199 C3193 0.959 . S
H3200 C3193 0.961 . S
H3201 C3193 0.960 . S
H3202 C3194 0.930 . S
H3203 C3195 0.929 . S
H3204 C3212 0.929 . S
H3205 C3214 0.930 . S
H3206 C3216 0.930 . S
H3207 C3219 0.929 . S
H3208 C3222 0.930 . S
H3209 C3224 0.960 . S
H3210 C3224 0.960 . S
H3211 C3224 0.960 . S
C3212 H3204 0.929 . S
C3212 C3213 1.377 . S
C3212 C3214 1.384 . S
C3213 C3212 1.377 . S
C3213 C3219 1.390 . S
C3214 H3205 0.930 . S
C3214 C3212 1.384 . S
C3214 C3215 1.372 . S
C3215 C3214 1.372 . S
C3215 C3216 1.400 . S
C3215 C3220 1.490 . S
C3216 H3206 0.930 . S
C3216 C3215 1.400 . S
C3216 C3219 1.386 . S
H3217 C3233 0.930 . S
H3218 C3234 0.931 . S
C3219 H3207 0.929 . S
C3219 C3213 1.390 . S
C3219 C3216 1.386 . S
C3220 C3215 1.490 . S
C3220 C3222 1.395 . S
C3220 C3223 1.403 . S
H3221 C3227 0.930 . S
C3222 H3208 0.930 . S
C3222 C3220 1.395 . S
C3222 C3225 1.403 . S
C3223 C3220 1.403 . S
C3223 C3224 1.524 . S
C3223 C3227 1.400 . S
C3224 H3209 0.960 . S
C3224 H3210 0.960 . S
C3224 H3211 0.960 . S
C3224 C3223 1.524 . S
C3225 C3222 1.403 . S
C3225 C3226 1.392 . S
C3225 C3229 1.495 . S
C3226 C3225 1.392 . S
C3226 C3227 1.385 . S
C3226 C3228 1.478 . S
C3227 H3221 0.930 . S
C3227 C3223 1.400 . S
C3227 C3226 1.385 . S
C3228 C3226 1.478 . S
C3228 C3230 1.381 . S
C3228 C3234 1.383 . S
C3229 C3225 1.495 . S
C3229 H3235 0.959 . S
C3229 H3236 0.961 . S
C3229 H3237 0.960 . S
C3230 C3228 1.381 . S
C3230 C3231 1.394 . S
C3230 H3238 0.930 . S
C3231 C3230 1.394 . S
C3231 C3232 1.383 . S
C3231 H3239 0.929 . S
C3232 C3231 1.383 . S
C3232 C3233 1.377 . S
C3233 H3217 0.930 . S
C3233 C3232 1.377 . S
C3233 C3234 1.379 . S
C3234 H3218 0.931 . S
C3234 C3228 1.383 . S
C3234 C3233 1.379 . S
H3235 C3229 0.959 . S
H3236 C3229 0.961 . S
H3237 C3229 0.960 . S
H3238 C3230 0.930 . S
H3239 C3231 0.929 . S
H3240 C3248 0.929 1_545 S
H3241 C3250 0.930 . S
H3242 C3252 0.930 . S
H3243 C3255 0.929 . S
H3244 C3258 0.930 . S
H3245 C3260 0.960 . S
H3246 C3260 0.960 . S
H3247 C3260 0.960 . S
C3248 H3240 0.929 1_565 S
C3248 C3249 1.392 . S
C3248 C3250 1.384 . S
C3249 C3248 1.392 . S
C3249 C3255 1.436 . S
C3250 H3241 0.930 . S
C3250 C3248 1.384 . S
C3250 C3251 1.372 . S
C3251 C3250 1.372 . S
C3251 C3252 1.400 . S
C3251 C3256 1.490 . S
C3252 H3242 0.930 . S
C3252 C3251 1.400 . S
C3252 C3255 1.386 . S
H3253 C3269 0.930 . S
H3254 C3270 0.931 . S
C3255 H3243 0.929 . S
C3255 C3249 1.436 . S
C3255 C3252 1.386 . S
C3256 C3251 1.490 . S
C3256 C3258 1.395 . S
C3256 C3259 1.403 . S
H3257 C3263 0.930 . S
C3258 H3244 0.930 . S
C3258 C3256 1.395 . S
C3258 C3261 1.403 . S
C3259 C3256 1.403 . S
C3259 C3260 1.524 . S
C3259 C3263 1.400 . S
C3260 H3245 0.960 . S
C3260 H3246 0.960 . S
C3260 H3247 0.960 . S
C3260 C3259 1.524 . S
C3261 C3258 1.403 . S
C3261 C3262 1.392 . S
C3261 C3265 1.495 . S
C3262 C3261 1.392 . S
C3262 C3263 1.385 . S
C3262 C3264 1.478 . S
C3263 H3257 0.930 . S
C3263 C3259 1.400 . S
C3263 C3262 1.385 . S
C3264 C3262 1.478 . S
C3264 C3266 1.381 . S
C3264 C3270 1.383 . S
C3265 C3261 1.495 . S
C3265 H3271 0.959 . S
C3265 H3272 0.961 . S
C3265 H3273 0.960 . S
C3266 C3264 1.381 . S
C3266 C3267 1.394 . S
C3266 H3274 0.930 . S
C3267 C3266 1.394 . S
C3267 C3268 1.383 . S
C3267 H3275 0.929 . S
C3268 C3267 1.383 . S
C3268 C3269 1.377 . S
C3269 H3253 0.930 . S
C3269 C3268 1.377 . S
C3269 C3270 1.379 . S
C3270 H3254 0.931 . S
C3270 C3264 1.383 . S
C3270 C3269 1.379 . S
H3271 C3265 0.959 . S
H3272 C3265 0.961 . S
H3273 C3265 0.960 . S
H3274 C3266 0.930 . S
H3275 C3267 0.929 . S
H3276 C3284 0.929 . S
H3277 C3286 0.930 . S
H3278 C3288 0.930 . S
H3279 C3291 0.929 . S
H3280 C3294 0.930 . S
H3281 C3296 0.960 . S
H3282 C3296 0.960 . S
H3283 C3296 0.960 . S
C3284 H3276 0.929 . S
C3284 C3285 1.377 . S
C3284 C3286 1.384 . S
C3285 C3284 1.377 . S
C3285 C3291 1.390 . S
C3286 H3277 0.930 . S
C3286 C3284 1.384 . S
C3286 C3287 1.372 . S
C3287 C3286 1.372 . S
C3287 C3288 1.400 . S
C3287 C3292 1.490 . S
C3288 H3278 0.930 . S
C3288 C3287 1.400 . S
C3288 C3291 1.386 . S
H3289 C3305 0.930 . S
H3290 C3306 0.931 . S
C3291 H3279 0.929 . S
C3291 C3285 1.390 . S
C3291 C3288 1.386 . S
C3292 C3287 1.490 . S
C3292 C3294 1.395 . S
C3292 C3295 1.403 . S
H3293 C3299 0.930 . S
C3294 H3280 0.930 . S
C3294 C3292 1.395 . S
C3294 C3297 1.403 . S
C3295 C3292 1.403 . S
C3295 C3296 1.524 . S
C3295 C3299 1.400 . S
C3296 H3281 0.960 . S
C3296 H3282 0.960 . S
C3296 H3283 0.960 . S
C3296 C3295 1.524 . S
C3297 C3294 1.403 . S
C3297 C3298 1.392 . S
C3297 C3301 1.495 . S
C3298 C3297 1.392 . S
C3298 C3299 1.385 . S
C3298 C3300 1.478 . S
C3299 H3293 0.930 . S
C3299 C3295 1.400 . S
C3299 C3298 1.385 . S
C3300 C3298 1.478 . S
C3300 C3302 1.381 . S
C3300 C3306 1.383 . S
C3301 C3297 1.495 . S
C3301 H3307 0.959 . S
C3301 H3308 0.961 . S
C3301 H3309 0.960 . S
C3302 C3300 1.381 . S
C3302 C3303 1.394 . S
C3302 H3310 0.930 . S
C3303 C3302 1.394 . S
C3303 C3304 1.383 . S
C3303 H3311 0.929 . S
C3304 C3303 1.383 . S
C3304 C3305 1.377 . S
C3305 H3289 0.930 . S
C3305 C3304 1.377 . S
C3305 C3306 1.379 . S
C3306 H3290 0.931 . S
C3306 C3300 1.383 . S
C3306 C3305 1.379 . S
H3307 C3301 0.959 . S
H3308 C3301 0.961 . S
H3309 C3301 0.960 . S
H3310 C3302 0.930 . S
H3311 C3303 0.929 . S
H3312 C3320 0.929 . S
H3313 C3322 0.930 . S
H3314 C3324 0.930 . S
H3315 C3327 0.929 . S
H3316 C3330 0.930 . S
H3317 C3332 0.960 . S
H3318 C3332 0.960 . S
H3319 C3332 0.960 . S
C3320 H3312 0.929 . S
C3320 C3321 1.377 . S
C3320 C3322 1.384 . S
C3321 C3320 1.377 . S
C3321 C3327 1.390 . S
C3322 H3313 0.930 . S
C3322 C3320 1.384 . S
C3322 C3323 1.372 . S
C3323 C3322 1.372 . S
C3323 C3324 1.400 . S
C3323 C3328 1.490 . S
C3324 H3314 0.930 . S
C3324 C3323 1.400 . S
C3324 C3327 1.386 . S
H3325 C3341 0.930 . S
H3326 C3342 0.931 . S
C3327 H3315 0.929 . S
C3327 C3321 1.390 . S
C3327 C3324 1.386 . S
C3328 C3323 1.490 . S
C3328 C3330 1.395 . S
C3328 C3331 1.403 . S
H3329 C3335 0.930 . S
C3330 H3316 0.930 . S
C3330 C3328 1.395 . S
C3330 C3333 1.403 . S
C3331 C3328 1.403 . S
C3331 C3332 1.524 . S
C3331 C3335 1.400 . S
C3332 H3317 0.960 . S
C3332 H3318 0.960 . S
C3332 H3319 0.960 . S
C3332 C3331 1.524 . S
C3333 C3330 1.403 . S
C3333 C3334 1.392 . S
C3333 C3337 1.495 . S
C3334 C3333 1.392 . S
C3334 C3335 1.385 . S
C3334 C3336 1.478 . S
C3335 H3329 0.930 . S
C3335 C3331 1.400 . S
C3335 C3334 1.385 . S
C3336 C3334 1.478 . S
C3336 C3338 1.381 . S
C3336 C3342 1.383 . S
C3337 C3333 1.495 . S
C3337 H3343 0.959 . S
C3337 H3344 0.961 . S
C3337 H3345 0.960 . S
C3338 C3336 1.381 . S
C3338 C3339 1.394 . S
C3338 H3346 0.930 . S
C3339 C3338 1.394 . S
C3339 C3340 1.383 . S
C3339 H3347 0.929 . S
C3340 C3339 1.383 . S
C3340 C3341 1.377 . S
C3341 H3325 0.930 . S
C3341 C3340 1.377 . S
C3341 C3342 1.379 . S
C3342 H3326 0.931 . S
C3342 C3336 1.383 . S
C3342 C3341 1.379 . S
H3343 C3337 0.959 . S
H3344 C3337 0.961 . S
H3345 C3337 0.960 . S
H3346 C3338 0.930 . S
H3347 C3339 0.929 . S
H3348 C3356 0.929 . S
H3349 C3358 0.930 . S
H3350 C3360 0.930 . S
H3351 C3363 0.929 . S
H3352 C3366 0.930 . S
H3353 C3368 0.960 . S
H3354 C3368 0.960 . S
H3355 C3368 0.960 . S
C3356 H3348 0.929 . S
C3356 C3357 1.377 . S
C3356 C3358 1.384 . S
C3357 C3356 1.377 . S
C3357 C3363 1.390 . S
C3358 H3349 0.930 . S
C3358 C3356 1.384 . S
C3358 C3359 1.372 . S
C3359 C3358 1.372 . S
C3359 C3360 1.400 . S
C3359 C3364 1.490 . S
C3360 H3350 0.930 . S
C3360 C3359 1.400 . S
C3360 C3363 1.386 . S
H3361 C3377 0.930 . S
H3362 C3378 0.931 . S
C3363 H3351 0.929 . S
C3363 C3357 1.390 . S
C3363 C3360 1.386 . S
C3364 C3359 1.490 . S
C3364 C3366 1.395 . S
C3364 C3367 1.403 . S
H3365 C3371 0.930 . S
C3366 H3352 0.930 . S
C3366 C3364 1.395 . S
C3366 C3369 1.403 . S
C3367 C3364 1.403 . S
C3367 C3368 1.524 . S
C3367 C3371 1.400 . S
C3368 H3353 0.960 . S
C3368 H3354 0.960 . S
C3368 H3355 0.960 . S
C3368 C3367 1.524 . S
C3369 C3366 1.403 . S
C3369 C3370 1.392 . S
C3369 C3373 1.495 . S
C3370 C3369 1.392 . S
C3370 C3371 1.385 . S
C3370 C3372 1.478 . S
C3371 H3365 0.930 . S
C3371 C3367 1.400 . S
C3371 C3370 1.385 . S
C3372 C3370 1.478 . S
C3372 C3374 1.381 . S
C3372 C3378 1.383 . S
C3373 C3369 1.495 . S
C3373 H3379 0.959 . S
C3373 H3380 0.961 . S
C3373 H3381 0.960 . S
C3374 C3372 1.381 . S
C3374 C3375 1.394 . S
C3374 H3382 0.930 . S
C3375 C3374 1.394 . S
C3375 C3376 1.383 . S
C3375 H3383 0.929 . S
C3376 C3375 1.383 . S
C3376 C3377 1.377 . S
C3377 H3361 0.930 . S
C3377 C3376 1.377 . S
C3377 C3378 1.379 . S
C3378 H3362 0.931 . S
C3378 C3372 1.383 . S
C3378 C3377 1.379 . S
H3379 C3373 0.959 . S
H3380 C3373 0.961 . S
H3381 C3373 0.960 . S
H3382 C3374 0.930 . S
H3383 C3375 0.929 . S
H3384 C3392 0.929 . S
H3385 C3394 0.930 . S
H3386 C3396 0.930 . S
H3387 C3399 0.929 . S
H3388 C3402 0.930 . S
H3389 C3404 0.960 . S
H3390 C3404 0.960 . S
H3391 C3404 0.960 . S
C3392 H3384 0.929 . S
C3392 C3393 1.377 . S
C3392 C3394 1.384 . S
C3393 C3392 1.377 . S
C3393 C3399 1.390 . S
C3394 H3385 0.930 . S
C3394 C3392 1.384 . S
C3394 C3395 1.372 . S
C3395 C3394 1.372 . S
C3395 C3396 1.400 . S
C3395 C3400 1.490 . S
C3396 H3386 0.930 . S
C3396 C3395 1.400 . S
C3396 C3399 1.386 . S
H3397 C3413 0.930 . S
H3398 C3414 0.931 . S
C3399 H3387 0.929 . S
C3399 C3393 1.390 . S
C3399 C3396 1.386 . S
C3400 C3395 1.490 . S
C3400 C3402 1.395 . S
C3400 C3403 1.403 . S
H3401 C3407 0.930 . S
C3402 H3388 0.930 . S
C3402 C3400 1.395 . S
C3402 C3405 1.403 . S
C3403 C3400 1.403 . S
C3403 C3404 1.524 . S
C3403 C3407 1.400 . S
C3404 H3389 0.960 . S
C3404 H3390 0.960 . S
C3404 H3391 0.960 . S
C3404 C3403 1.524 . S
C3405 C3402 1.403 . S
C3405 C3406 1.392 . S
C3405 C3409 1.495 . S
C3406 C3405 1.392 . S
C3406 C3407 1.385 . S
C3406 C3408 1.478 . S
C3407 H3401 0.930 . S
C3407 C3403 1.400 . S
C3407 C3406 1.385 . S
C3408 C3406 1.478 . S
C3408 C3410 1.381 . S
C3408 C3414 1.383 . S
C3409 C3405 1.495 . S
C3409 H3415 0.959 . S
C3409 H3416 0.961 . S
C3409 H3417 0.960 . S
C3410 C3408 1.381 . S
C3410 C3411 1.394 . S
C3410 H3418 0.930 . S
C3411 C3410 1.394 . S
C3411 C3412 1.383 . S
C3411 H3419 0.929 . S
C3412 C3411 1.383 . S
C3412 C3413 1.377 . S
C3413 H3397 0.930 . S
C3413 C3412 1.377 . S
C3413 C3414 1.379 . S
C3414 H3398 0.931 . S
C3414 C3408 1.383 . S
C3414 C3413 1.379 . S
H3415 C3409 0.959 . S
H3416 C3409 0.961 . S
H3417 C3409 0.960 . S
H3418 C3410 0.930 . S
H3419 C3411 0.929 . S
H3420 C3428 0.929 . S
H3421 C3430 0.930 . S
H3422 C3432 0.930 . S
H3423 C3435 0.929 . S
H3424 C3438 0.930 . S
H3425 C3440 0.960 . S
H3426 C3440 0.960 . S
H3427 C3440 0.960 . S
C3428 H3420 0.929 . S
C3428 C3429 1.377 . S
C3428 C3430 1.384 . S
C3429 C3428 1.377 . S
C3429 C3435 1.390 . S
C3430 H3421 0.930 . S
C3430 C3428 1.384 . S
C3430 C3431 1.372 . S
C3431 C3430 1.372 . S
C3431 C3432 1.400 . S
C3431 C3436 1.490 . S
C3432 H3422 0.930 . S
C3432 C3431 1.400 . S
C3432 C3435 1.386 . S
H3433 C3449 0.930 . S
H3434 C3450 0.931 . S
C3435 H3423 0.929 . S
C3435 C3429 1.390 . S
C3435 C3432 1.386 . S
C3436 C3431 1.490 . S
C3436 C3438 1.395 . S
C3436 C3439 1.403 . S
H3437 C3443 0.930 . S
C3438 H3424 0.930 . S
C3438 C3436 1.395 . S
C3438 C3441 1.403 . S
C3439 C3436 1.403 . S
C3439 C3440 1.524 . S
C3439 C3443 1.400 . S
C3440 H3425 0.960 . S
C3440 H3426 0.960 . S
C3440 H3427 0.960 . S
C3440 C3439 1.524 . S
C3441 C3438 1.403 . S
C3441 C3442 1.392 . S
C3441 C3445 1.495 . S
C3442 C3441 1.392 . S
C3442 C3443 1.385 . S
C3442 C3444 1.478 . S
C3443 H3437 0.930 . S
C3443 C3439 1.400 . S
C3443 C3442 1.385 . S
C3444 C3442 1.478 . S
C3444 C3446 1.381 . S
C3444 C3450 1.383 . S
C3445 C3441 1.495 . S
C3445 H3451 0.959 . S
C3445 H3452 0.961 . S
C3445 H3453 0.960 . S
C3446 C3444 1.381 . S
C3446 C3447 1.394 . S
C3446 H3454 0.930 . S
C3447 C3446 1.394 . S
C3447 C3448 1.383 . S
C3447 H3455 0.929 . S
C3448 C3447 1.383 . S
C3448 C3449 1.377 . S
C3449 H3433 0.930 . S
C3449 C3448 1.377 . S
C3449 C3450 1.379 . S
C3450 H3434 0.931 . S
C3450 C3444 1.383 . S
C3450 C3449 1.379 . S
H3451 C3445 0.959 . S
H3452 C3445 0.961 . S
H3453 C3445 0.960 . S
H3454 C3446 0.930 . S
H3455 C3447 0.929 . S
H3456 C3464 0.929 . S
H3457 C3466 0.930 . S
H3458 C3468 0.930 . S
H3459 C3471 0.929 . S
H3460 C3474 0.906 1_554 S
H3461 C3476 0.960 . S
H3462 C3476 0.960 . S
H3463 C3476 0.960 . S
C3464 H3456 0.929 . S
C3464 C3465 1.377 1_655 S
C3464 C3466 1.384 . S
C3465 C3464 1.377 1_455 S
C3465 C3471 1.390 . S
C3466 H3457 0.930 . S
C3466 C3464 1.384 . S
C3466 C3467 1.372 1_655 S
C3467 C3466 1.372 1_455 S
C3467 C3468 1.400 . S
C3467 C3472 1.490 . S
C3468 H3458 0.930 . S
C3468 C3467 1.400 . S
C3468 C3471 1.386 . S
H3469 C3485 0.930 . S
H3470 C3486 0.931 . S
C3471 H3459 0.929 . S
C3471 C3465 1.390 . S
C3471 C3468 1.386 . S
C3472 C3467 1.490 . S
C3472 C3474 1.437 1_455 S
C3472 C3475 1.403 . S
H3473 C3479 0.930 . S
C3474 H3460 0.906 1_556 S
C3474 C3472 1.437 1_655 S
C3474 C3477 1.386 1_556 S
C3475 C3472 1.403 . S
C3475 C3476 1.524 . S
C3475 C3479 1.400 . S
C3476 H3461 0.960 . S
C3476 H3462 0.960 . S
C3476 H3463 0.960 . S
C3476 C3475 1.524 . S
C3477 C3474 1.386 1_554 S
C3477 C3478 1.424 1_655 S
C3477 C3481 1.495 . S
C3478 C3477 1.424 1_455 S
C3478 C3479 1.334 1_554 S
C3478 C3480 1.497 . S
C3479 H3473 0.930 . S
C3479 C3475 1.400 . S
C3479 C3478 1.334 1_556 S
C3480 C3478 1.497 . S
C3480 C3482 1.381 1_455 S
C3480 C3486 1.383 . S
C3481 C3477 1.495 . S
C3481 H3487 0.959 . S
C3481 H3488 0.961 . S
C3481 H3489 0.960 . S
C3482 C3480 1.381 1_655 S
C3482 C3483 1.394 . S
C3482 H3490 0.930 . S
C3483 C3482 1.394 . S
C3483 C3484 1.383 1_655 S
C3483 H3491 0.929 . S
C3484 C3483 1.383 1_455 S
C3484 C3485 1.377 . S
C3485 H3469 0.930 . S
C3485 C3484 1.377 . S
C3485 C3486 1.379 . S
C3486 H3470 0.931 . S
C3486 C3480 1.383 . S
C3486 C3485 1.379 . S
H3487 C3481 0.959 . S
H3488 C3481 0.961 . S
H3489 C3481 0.960 . S
H3490 C3482 0.930 . S
H3491 C3483 0.929 . S
H3492 C3500 0.929 . S
H3493 C3502 0.930 . S
H3494 C3504 0.930 . S
H3495 C3507 0.929 . S
H3496 C3510 0.930 . S
H3497 C3512 0.960 . S
H3498 C3512 0.960 . S
H3499 C3512 0.960 . S
C3500 H3492 0.929 . S
C3500 C3501 1.389 . S
C3500 C3502 1.384 . S
C3501 C3500 1.389 . S
C3501 C3507 1.418 . S
C3502 H3493 0.930 . S
C3502 C3500 1.384 . S
C3502 C3503 1.372 . S
C3503 C3502 1.372 . S
C3503 C3504 1.400 . S
C3503 C3508 1.490 . S
C3504 H3494 0.930 . S
C3504 C3503 1.400 . S
C3504 C3507 1.386 . S
H3505 C3521 0.930 . S
H3506 C3522 0.931 . S
C3507 H3495 0.929 . S
C3507 C3501 1.418 . S
C3507 C3504 1.386 . S
C3508 C3503 1.490 . S
C3508 C3510 1.395 . S
C3508 C3511 1.403 . S
H3509 C3515 0.930 . S
C3510 H3496 0.930 . S
C3510 C3508 1.395 . S
C3510 C3513 1.403 . S
C3511 C3508 1.403 . S
C3511 C3512 1.524 . S
C3511 C3515 1.400 . S
C3512 H3497 0.960 . S
C3512 H3498 0.960 . S
C3512 H3499 0.960 . S
C3512 C3511 1.524 . S
C3513 C3510 1.403 . S
C3513 C3514 1.392 . S
C3513 C3517 1.495 . S
C3514 C3513 1.392 . S
C3514 C3515 1.385 . S
C3514 C3516 1.478 . S
C3515 H3509 0.930 . S
C3515 C3511 1.400 . S
C3515 C3514 1.385 . S
C3516 C3514 1.478 . S
C3516 C3518 1.381 . S
C3516 C3522 1.383 . S
C3517 C3513 1.495 . S
C3517 H3523 0.959 . S
C3517 H3524 0.961 . S
C3517 H3525 0.960 . S
C3518 C3516 1.381 . S
C3518 C3519 1.394 . S
C3518 H3526 0.930 . S
C3519 C3518 1.394 . S
C3519 C3520 1.383 . S
C3519 H3527 0.929 . S
C3520 C3519 1.383 . S
C3520 C3521 1.377 . S
C3521 H3505 0.930 . S
C3521 C3520 1.377 . S
C3521 C3522 1.379 . S
C3522 H3506 0.931 . S
C3522 C3516 1.383 . S
C3522 C3521 1.379 . S
H3523 C3517 0.959 . S
H3524 C3517 0.961 . S
H3525 C3517 0.960 . S
H3526 C3518 0.930 . S
H3527 C3519 0.929 . S
H3528 C3536 0.929 . S
H3529 C3538 0.930 . S
H3530 C3540 0.930 . S
H3531 C3543 0.929 . S
H3532 C3546 0.930 . S
H3533 C3548 0.960 . S
H3534 C3548 0.960 . S
H3535 C3548 0.960 . S
C3536 H3528 0.929 . S
C3536 C3537 1.377 . S
C3536 C3538 1.384 . S
C3537 C3536 1.377 . S
C3537 C3543 1.390 . S
C3538 H3529 0.930 . S
C3538 C3536 1.384 . S
C3538 C3539 1.372 . S
C3539 C3538 1.372 . S
C3539 C3540 1.400 . S
C3539 C3544 1.490 . S
C3540 H3530 0.930 . S
C3540 C3539 1.400 . S
C3540 C3543 1.386 . S
H3541 C3557 0.930 . S
H3542 C3558 0.931 . S
C3543 H3531 0.929 . S
C3543 C3537 1.390 . S
C3543 C3540 1.386 . S
C3544 C3539 1.490 . S
C3544 C3546 1.395 . S
C3544 C3547 1.403 . S
H3545 C3551 0.930 . S
C3546 H3532 0.930 . S
C3546 C3544 1.395 . S
C3546 C3549 1.403 . S
C3547 C3544 1.403 . S
C3547 C3548 1.524 . S
C3547 C3551 1.400 . S
C3548 H3533 0.960 . S
C3548 H3534 0.960 . S
C3548 H3535 0.960 . S
C3548 C3547 1.524 . S
C3549 C3546 1.403 . S
C3549 C3550 1.392 . S
C3549 C3553 1.495 . S
C3550 C3549 1.392 . S
C3550 C3551 1.385 . S
C3550 C3552 1.478 . S
C3551 H3545 0.930 . S
C3551 C3547 1.400 . S
C3551 C3550 1.385 . S
C3552 C3550 1.478 . S
C3552 C3554 1.381 . S
C3552 C3558 1.383 . S
C3553 C3549 1.495 . S
C3553 H3559 0.959 . S
C3553 H3560 0.961 . S
C3553 H3561 0.960 . S
C3554 C3552 1.381 . S
C3554 C3555 1.394 . S
C3554 H3562 0.930 . S
C3555 C3554 1.394 . S
C3555 C3556 1.383 . S
C3555 H3563 0.929 . S
C3556 C3555 1.383 . S
C3556 C3557 1.377 . S
C3557 H3541 0.930 . S
C3557 C3556 1.377 . S
C3557 C3558 1.379 . S
C3558 H3542 0.931 . S
C3558 C3552 1.383 . S
C3558 C3557 1.379 . S
H3559 C3553 0.959 . S
H3560 C3553 0.961 . S
H3561 C3553 0.960 . S
H3562 C3554 0.930 . S
H3563 C3555 0.929 . S
H3564 C3572 0.929 . S
H3565 C3574 0.930 . S
H3566 C3576 0.930 . S
H3567 C3579 0.929 . S
H3568 C3582 0.930 . S
H3569 C3584 0.960 . S
H3570 C3584 0.960 . S
H3571 C3584 0.960 . S
C3572 H3564 0.929 . S
C3572 C3573 1.377 . S
C3572 C3574 1.384 . S
C3573 C3572 1.377 . S
C3573 C3579 1.390 . S
C3574 H3565 0.930 . S
C3574 C3572 1.384 . S
C3574 C3575 1.372 . S
C3575 C3574 1.372 . S
C3575 C3576 1.400 . S
C3575 C3580 1.490 . S
C3576 H3566 0.930 . S
C3576 C3575 1.400 . S
C3576 C3579 1.386 . S
H3577 C3593 0.930 . S
H3578 C3594 0.931 . S
C3579 H3567 0.929 . S
C3579 C3573 1.390 . S
C3579 C3576 1.386 . S
C3580 C3575 1.490 . S
C3580 C3582 1.395 . S
C3580 C3583 1.403 . S
H3581 C3587 0.930 . S
C3582 H3568 0.930 . S
C3582 C3580 1.395 . S
C3582 C3585 1.403 . S
C3583 C3580 1.403 . S
C3583 C3584 1.524 . S
C3583 C3587 1.400 . S
C3584 H3569 0.960 . S
C3584 H3570 0.960 . S
C3584 H3571 0.960 . S
C3584 C3583 1.524 . S
C3585 C3582 1.403 . S
C3585 C3586 1.392 . S
C3585 C3589 1.495 . S
C3586 C3585 1.392 . S
C3586 C3587 1.385 . S
C3586 C3588 1.478 . S
C3587 H3581 0.930 . S
C3587 C3583 1.400 . S
C3587 C3586 1.385 . S
C3588 C3586 1.478 . S
C3588 C3590 1.381 . S
C3588 C3594 1.383 . S
C3589 C3585 1.495 . S
C3589 H3595 0.959 . S
C3589 H3596 0.961 . S
C3589 H3597 0.960 . S
C3590 C3588 1.381 . S
C3590 C3591 1.394 . S
C3590 H3598 0.930 . S
C3591 C3590 1.394 . S
C3591 C3592 1.383 . S
C3591 H3599 0.929 . S
C3592 C3591 1.383 . S
C3592 C3593 1.377 . S
C3593 H3577 0.930 . S
C3593 C3592 1.377 . S
C3593 C3594 1.379 . S
C3594 H3578 0.931 . S
C3594 C3588 1.383 . S
C3594 C3593 1.379 . S
H3595 C3589 0.959 . S
H3596 C3589 0.961 . S
H3597 C3589 0.960 . S
H3598 C3590 0.930 . S
H3599 C3591 0.929 . S
H3600 C3608 0.929 . S
H3601 C3610 0.930 . S
H3602 C3612 0.930 . S
H3603 C3615 0.929 . S
H3604 C3618 0.930 . S
H3605 C3620 0.960 . S
H3606 C3620 0.960 . S
H3607 C3620 0.960 . S
C3608 H3600 0.929 . S
C3608 C3609 1.377 . S
C3608 C3610 1.384 . S
C3609 C3608 1.377 . S
C3609 C3615 1.390 1_455 S
C3610 H3601 0.930 . S
C3610 C3608 1.384 . S
C3610 C3611 1.372 . S
C3611 C3610 1.372 . S
C3611 C3612 1.400 1_455 S
C3611 C3616 1.490 . S
C3612 H3602 0.930 . S
C3612 C3611 1.400 1_655 S
C3612 C3615 1.386 . S
H3613 C3629 0.930 . S
H3614 C3630 0.931 . S
C3615 H3603 0.929 . S
C3615 C3609 1.390 1_655 S
C3615 C3612 1.386 . S
C3616 C3611 1.490 . S
C3616 C3618 1.395 1_455 S
C3616 C3619 1.403 . S
H3617 C3623 0.930 . S
C3618 H3604 0.930 . S
C3618 C3616 1.395 1_655 S
C3618 C3621 1.403 . S
C3619 C3616 1.403 . S
C3619 C3620 1.524 . S
C3619 C3623 1.400 . S
C3620 H3605 0.960 . S
C3620 H3606 0.960 . S
C3620 H3607 0.960 . S
C3620 C3619 1.524 . S
C3621 C3618 1.403 . S
C3621 C3622 1.392 1_655 S
C3621 C3625 1.495 . S
C3622 C3621 1.392 1_455 S
C3622 C3623 1.385 . S
C3622 C3624 1.478 . S
C3623 H3617 0.930 . S
C3623 C3619 1.400 . S
C3623 C3622 1.385 . S
C3624 C3622 1.478 . S
C3624 C3626 1.381 . S
C3624 C3630 1.383 1_455 S
C3625 C3621 1.495 . S
C3625 H3631 0.959 . S
C3625 H3632 0.961 . S
C3625 H3633 0.960 . S
C3626 C3624 1.381 . S
C3626 C3627 1.394 . S
C3626 H3634 0.930 . S
C3627 C3626 1.394 . S
C3627 C3628 1.383 . S
C3627 H3635 0.929 . S
C3628 C3627 1.383 . S
C3628 C3629 1.377 1_455 S
C3629 H3613 0.930 . S
C3629 C3628 1.377 1_655 S
C3629 C3630 1.379 . S
C3630 H3614 0.931 . S
C3630 C3624 1.383 1_655 S
C3630 C3629 1.379 . S
H3631 C3625 0.959 . S
H3632 C3625 0.961 . S
H3633 C3625 0.960 . S
H3634 C3626 0.930 . S
H3635 C3627 0.929 . S
H3636 C3644 0.929 . S
H3637 C3646 0.930 . S
H3638 C3648 0.930 . S
H3639 C3651 0.929 . S
H3640 C3654 0.930 . S
H3641 C3656 0.960 . S
H3642 C3656 0.960 . S
H3643 C3656 0.960 . S
C3644 H3636 0.929 . S
C3644 C3645 1.377 . S
C3644 C3646 1.384 . S
C3645 C3644 1.377 . S
C3645 C3651 1.390 . S
C3646 H3637 0.930 . S
C3646 C3644 1.384 . S
C3646 C3647 1.372 . S
C3647 C3646 1.372 . S
C3647 C3648 1.400 . S
C3647 C3652 1.490 . S
C3648 H3638 0.930 . S
C3648 C3647 1.400 . S
C3648 C3651 1.386 . S
H3649 C3665 0.930 . S
H3650 C3666 0.931 . S
C3651 H3639 0.929 . S
C3651 C3645 1.390 . S
C3651 C3648 1.386 . S
C3652 C3647 1.490 . S
C3652 C3654 1.395 . S
C3652 C3655 1.403 . S
H3653 C3659 0.930 . S
C3654 H3640 0.930 . S
C3654 C3652 1.395 . S
C3654 C3657 1.403 . S
C3655 C3652 1.403 . S
C3655 C3656 1.524 . S
C3655 C3659 1.400 . S
C3656 H3641 0.960 . S
C3656 H3642 0.960 . S
C3656 H3643 0.960 . S
C3656 C3655 1.524 . S
C3657 C3654 1.403 . S
C3657 C3658 1.392 . S
C3657 C3661 1.495 . S
C3658 C3657 1.392 . S
C3658 C3659 1.385 . S
C3658 C3660 1.478 . S
C3659 H3653 0.930 . S
C3659 C3655 1.400 . S
C3659 C3658 1.385 . S
C3660 C3658 1.478 . S
C3660 C3662 1.381 . S
C3660 C3666 1.383 . S
C3661 C3657 1.495 . S
C3661 H3667 0.959 . S
C3661 H3668 0.961 . S
C3661 H3669 0.960 . S
C3662 C3660 1.381 . S
C3662 C3663 1.394 . S
C3662 H3670 0.930 . S
C3663 C3662 1.394 . S
C3663 C3664 1.383 . S
C3663 H3671 0.929 . S
C3664 C3663 1.383 . S
C3664 C3665 1.377 . S
C3665 H3649 0.930 . S
C3665 C3664 1.377 . S
C3665 C3666 1.379 . S
C3666 H3650 0.931 . S
C3666 C3660 1.383 . S
C3666 C3665 1.379 . S
H3667 C3661 0.959 . S
H3668 C3661 0.961 . S
H3669 C3661 0.960 . S
H3670 C3662 0.930 . S
H3671 C3663 0.929 . S
H3672 C3680 0.929 . S
H3673 C3682 0.930 . S
H3674 C3684 0.930 . S
H3675 C3687 0.929 . S
H3676 C3690 0.930 . S
H3677 C3692 0.960 . S
H3678 C3692 0.960 . S
H3679 C3692 0.960 . S
C3680 H3672 0.929 . S
C3680 C3681 1.377 . S
C3680 C3682 1.384 . S
C3681 C3680 1.377 . S
C3681 C3687 1.390 . S
C3682 H3673 0.930 . S
C3682 C3680 1.384 . S
C3682 C3683 1.372 . S
C3683 C3682 1.372 . S
C3683 C3684 1.400 . S
C3683 C3688 1.490 . S
C3684 H3674 0.930 . S
C3684 C3683 1.400 . S
C3684 C3687 1.386 . S
H3685 C3701 0.930 . S
H3686 C3702 0.931 . S
C3687 H3675 0.929 . S
C3687 C3681 1.390 . S
C3687 C3684 1.386 . S
C3688 C3683 1.490 . S
C3688 C3690 1.395 . S
C3688 C3691 1.403 . S
H3689 C3695 0.930 . S
C3690 H3676 0.930 . S
C3690 C3688 1.395 . S
C3690 C3693 1.403 . S
C3691 C3688 1.403 . S
C3691 C3692 1.524 . S
C3691 C3695 1.400 . S
C3692 H3677 0.960 . S
C3692 H3678 0.960 . S
C3692 H3679 0.960 . S
C3692 C3691 1.524 . S
C3693 C3690 1.403 . S
C3693 C3694 1.392 . S
C3693 C3697 1.495 . S
C3694 C3693 1.392 . S
C3694 C3695 1.385 . S
C3694 C3696 1.478 . S
C3695 H3689 0.930 . S
C3695 C3691 1.400 . S
C3695 C3694 1.385 . S
C3696 C3694 1.478 . S
C3696 C3698 1.381 . S
C3696 C3702 1.383 . S
C3697 C3693 1.495 . S
C3697 H3703 0.959 . S
C3697 H3704 0.961 . S
C3697 H3705 0.960 . S
C3698 C3696 1.381 . S
C3698 C3699 1.394 . S
C3698 H3706 0.930 . S
C3699 C3698 1.394 . S
C3699 C3700 1.383 . S
C3699 H3707 0.929 . S
C3700 C3699 1.383 . S
C3700 C3701 1.377 . S
C3701 H3685 0.930 . S
C3701 C3700 1.377 . S
C3701 C3702 1.379 . S
C3702 H3686 0.931 . S
C3702 C3696 1.383 . S
C3702 C3701 1.379 . S
H3703 C3697 0.959 . S
H3704 C3697 0.961 . S
H3705 C3697 0.960 . S
H3706 C3698 0.930 . S
H3707 C3699 0.929 . S
H3708 C3716 0.929 . S
H3709 C3718 0.930 . S
H3710 C3720 0.930 . S
H3711 C3723 0.929 1_554 S
H3712 C3726 0.930 . S
H3713 C3728 0.960 . S
H3714 C3728 0.960 . S
H3715 C3728 0.960 . S
C3716 H3708 0.929 . S
C3716 C3717 1.377 1_556 S
C3716 C3718 1.384 . S
C3717 C3716 1.377 1_554 S
C3717 C3723 1.390 1_554 S
C3718 H3709 0.930 . S
C3718 C3716 1.384 . S
C3718 C3719 1.372 . S
C3719 C3718 1.372 . S
C3719 C3720 1.400 . S
C3719 C3724 1.490 . S
C3720 H3710 0.930 . S
C3720 C3719 1.400 . S
C3720 C3723 1.386 . S
H3721 C3737 0.930 . S
H3722 C3738 0.931 . S
C3723 H3711 0.929 1_556 S
C3723 C3717 1.390 1_556 S
C3723 C3720 1.386 . S
C3724 C3719 1.490 . S
C3724 C3726 1.395 . S
C3724 C3727 1.403 . S
H3725 C3731 0.930 . S
C3726 H3712 0.930 . S
C3726 C3724 1.395 . S
C3726 C3729 1.403 . S
C3727 C3724 1.403 . S
C3727 C3728 1.524 . S
C3727 C3731 1.400 . S
C3728 H3713 0.960 . S
C3728 H3714 0.960 . S
C3728 H3715 0.960 . S
C3728 C3727 1.524 . S
C3729 C3726 1.403 . S
C3729 C3730 1.392 . S
C3729 C3733 1.495 . S
C3730 C3729 1.392 . S
C3730 C3731 1.385 . S
C3730 C3732 1.478 . S
C3731 H3725 0.930 . S
C3731 C3727 1.400 . S
C3731 C3730 1.385 . S
C3732 C3730 1.478 . S
C3732 C3734 1.381 . S
C3732 C3738 1.383 . S
C3733 C3729 1.495 . S
C3733 H3739 0.959 . S
C3733 H3740 0.961 . S
C3733 H3741 0.960 . S
C3734 C3732 1.381 . S
C3734 C3735 1.394 . S
C3734 H3742 0.930 . S
C3735 C3734 1.394 . S
C3735 C3736 1.383 . S
C3735 H3743 0.929 . S
C3736 C3735 1.383 . S
C3736 C3737 1.377 . S
C3737 H3721 0.930 . S
C3737 C3736 1.377 . S
C3737 C3738 1.379 . S
C3738 H3722 0.931 . S
C3738 C3732 1.383 . S
C3738 C3737 1.379 . S
H3739 C3733 0.959 . S
H3740 C3733 0.961 . S
H3741 C3733 0.960 . S
H3742 C3734 0.930 . S
H3743 C3735 0.929 . S
H3744 C3752 0.929 . S
H3745 C3754 0.930 . S
H3746 C3756 0.930 . S
H3747 C3759 0.929 . S
H3748 C3762 0.930 . S
H3749 C3764 0.960 . S
H3750 C3764 0.960 . S
H3751 C3764 0.960 . S
C3752 H3744 0.929 . S
C3752 C3753 1.377 . S
C3752 C3754 1.384 . S
C3753 C3752 1.377 . S
C3753 C3759 1.390 . S
C3754 H3745 0.930 . S
C3754 C3752 1.384 . S
C3754 C3755 1.372 . S
C3755 C3754 1.372 . S
C3755 C3756 1.400 . S
C3755 C3760 1.490 . S
C3756 H3746 0.930 . S
C3756 C3755 1.400 . S
C3756 C3759 1.386 . S
H3757 C3773 0.930 . S
H3758 C3774 0.931 . S
C3759 H3747 0.929 . S
C3759 C3753 1.390 . S
C3759 C3756 1.386 . S
C3760 C3755 1.490 . S
C3760 C3762 1.395 . S
C3760 C3763 1.403 . S
H3761 C3767 0.930 . S
C3762 H3748 0.930 . S
C3762 C3760 1.395 . S
C3762 C3765 1.403 . S
C3763 C3760 1.403 . S
C3763 C3764 1.524 . S
C3763 C3767 1.400 . S
C3764 H3749 0.960 . S
C3764 H3750 0.960 . S
C3764 H3751 0.960 . S
C3764 C3763 1.524 . S
C3765 C3762 1.403 . S
C3765 C3766 1.392 . S
C3765 C3769 1.495 . S
C3766 C3765 1.392 . S
C3766 C3767 1.385 . S
C3766 C3768 1.478 . S
C3767 H3761 0.930 . S
C3767 C3763 1.400 . S
C3767 C3766 1.385 . S
C3768 C3766 1.478 . S
C3768 C3770 1.381 . S
C3768 C3774 1.383 . S
C3769 C3765 1.495 . S
C3769 H3775 0.959 . S
C3769 H3776 0.961 . S
C3769 H3777 0.960 . S
C3770 C3768 1.381 . S
C3770 C3771 1.394 . S
C3770 H3778 0.930 . S
C3771 C3770 1.394 . S
C3771 C3772 1.383 . S
C3771 H3779 0.929 . S
C3772 C3771 1.383 . S
C3772 C3773 1.377 . S
C3773 H3757 0.930 . S
C3773 C3772 1.377 . S
C3773 C3774 1.379 . S
C3774 H3758 0.931 . S
C3774 C3768 1.383 . S
C3774 C3773 1.379 . S
H3775 C3769 0.959 . S
H3776 C3769 0.961 . S
H3777 C3769 0.960 . S
H3778 C3770 0.930 . S
H3779 C3771 0.929 . S
H3780 C3788 0.929 . S
H3781 C3790 0.930 . S
H3782 C3792 0.930 . S
H3783 C3795 0.929 . S
H3784 C3798 0.930 . S
H3785 C3800 0.960 . S
H3786 C3800 0.960 . S
H3787 C3800 0.960 . S
C3788 H3780 0.929 . S
C3788 C3789 1.377 . S
C3788 C3790 1.384 . S
C3789 C3788 1.377 . S
C3789 C3795 1.390 . S
C3790 H3781 0.930 . S
C3790 C3788 1.384 . S
C3790 C3791 1.372 . S
C3791 C3790 1.372 . S
C3791 C3792 1.400 . S
C3791 C3796 1.490 . S
C3792 H3782 0.930 . S
C3792 C3791 1.400 . S
C3792 C3795 1.386 . S
H3793 C3809 0.930 . S
H3794 C3810 0.931 . S
C3795 H3783 0.929 . S
C3795 C3789 1.390 . S
C3795 C3792 1.386 . S
C3796 C3791 1.490 . S
C3796 C3798 1.395 . S
C3796 C3799 1.403 . S
H3797 C3803 0.930 . S
C3798 H3784 0.930 . S
C3798 C3796 1.395 . S
C3798 C3801 1.403 . S
C3799 C3796 1.403 . S
C3799 C3800 1.524 . S
C3799 C3803 1.400 . S
C3800 H3785 0.960 . S
C3800 H3786 0.960 . S
C3800 H3787 0.960 . S
C3800 C3799 1.524 . S
C3801 C3798 1.403 . S
C3801 C3802 1.392 . S
C3801 C3805 1.495 . S
C3802 C3801 1.392 . S
C3802 C3803 1.385 . S
C3802 C3804 1.478 . S
C3803 H3797 0.930 . S
C3803 C3799 1.400 . S
C3803 C3802 1.385 . S
C3804 C3802 1.478 . S
C3804 C3806 1.381 . S
C3804 C3810 1.383 . S
C3805 C3801 1.495 . S
C3805 H3811 0.959 . S
C3805 H3812 0.961 . S
C3805 H3813 0.960 . S
C3806 C3804 1.381 . S
C3806 C3807 1.394 . S
C3806 H3814 0.930 . S
C3807 C3806 1.394 . S
C3807 C3808 1.383 . S
C3807 H3815 0.929 . S
C3808 C3807 1.383 . S
C3808 C3809 1.377 . S
C3809 H3793 0.930 . S
C3809 C3808 1.377 . S
C3809 C3810 1.379 . S
C3810 H3794 0.931 . S
C3810 C3804 1.383 . S
C3810 C3809 1.379 . S
H3811 C3805 0.959 . S
H3812 C3805 0.961 . S
H3813 C3805 0.960 . S
H3814 C3806 0.930 . S
H3815 C3807 0.929 . S
H3816 C3824 0.929 . S
H3817 C3826 0.930 . S
H3818 C3828 0.930 . S
H3819 C3831 0.929 . S
H3820 C3834 0.930 . S
H3821 C3836 0.960 . S
H3822 C3836 0.960 . S
H3823 C3836 0.960 . S
C3824 H3816 0.929 . S
C3824 C3825 1.377 . S
C3824 C3826 1.384 . S
C3825 C3824 1.377 . S
C3825 C3831 1.390 . S
C3826 H3817 0.930 . S
C3826 C3824 1.384 . S
C3826 C3827 1.372 . S
C3827 C3826 1.372 . S
C3827 C3828 1.400 . S
C3827 C3832 1.490 . S
C3828 H3818 0.930 . S
C3828 C3827 1.400 . S
C3828 C3831 1.386 . S
H3829 C3845 0.930 . S
H3830 C3846 0.931 . S
C3831 H3819 0.929 . S
C3831 C3825 1.390 . S
C3831 C3828 1.386 . S
C3832 C3827 1.490 . S
C3832 C3834 1.395 . S
C3832 C3835 1.403 . S
H3833 C3839 0.930 . S
C3834 H3820 0.930 . S
C3834 C3832 1.395 . S
C3834 C3837 1.403 . S
C3835 C3832 1.403 . S
C3835 C3836 1.524 . S
C3835 C3839 1.400 . S
C3836 H3821 0.960 . S
C3836 H3822 0.960 . S
C3836 H3823 0.960 . S
C3836 C3835 1.524 . S
C3837 C3834 1.403 . S
C3837 C3838 1.392 . S
C3837 C3841 1.495 . S
C3838 C3837 1.392 . S
C3838 C3839 1.385 . S
C3838 C3840 1.478 . S
C3839 H3833 0.930 . S
C3839 C3835 1.400 . S
C3839 C3838 1.385 . S
C3840 C3838 1.478 . S
C3840 C3842 1.381 . S
C3840 C3846 1.383 . S
C3841 C3837 1.495 . S
C3841 H3847 0.959 . S
C3841 H3848 0.961 . S
C3841 H3849 0.960 . S
C3842 C3840 1.381 . S
C3842 C3843 1.394 . S
C3842 H3850 0.930 . S
C3843 C3842 1.394 . S
C3843 C3844 1.383 . S
C3843 H3851 0.929 . S
C3844 C3843 1.383 . S
C3844 C3845 1.377 . S
C3845 H3829 0.930 . S
C3845 C3844 1.377 . S
C3845 C3846 1.379 . S
C3846 H3830 0.931 . S
C3846 C3840 1.383 . S
C3846 C3845 1.379 . S
H3847 C3841 0.959 . S
H3848 C3841 0.961 . S
H3849 C3841 0.960 . S
H3850 C3842 0.930 . S
H3851 C3843 0.929 . S
H3852 C3860 0.929 . S
H3853 C3862 0.930 . S
H3854 C3864 0.930 . S
H3855 C3867 0.929 . S
H3856 C3870 0.930 . S
H3857 C3872 0.960 . S
H3858 C3872 0.960 . S
H3859 C3872 0.960 . S
C3860 H3852 0.929 . S
C3860 C3861 1.377 . S
C3860 C3862 1.384 . S
C3861 C3860 1.377 . S
C3861 C3867 1.390 . S
C3862 H3853 0.930 . S
C3862 C3860 1.384 . S
C3862 C3863 1.372 . S
C3863 C3862 1.372 . S
C3863 C3864 1.400 . S
C3863 C3868 1.490 . S
C3864 H3854 0.930 . S
C3864 C3863 1.400 . S
C3864 C3867 1.386 . S
H3865 C3881 0.930 . S
H3866 C3882 0.931 . S
C3867 H3855 0.929 . S
C3867 C3861 1.390 . S
C3867 C3864 1.386 . S
C3868 C3863 1.490 . S
C3868 C3870 1.395 . S
C3868 C3871 1.403 . S
H3869 C3875 0.930 . S
C3870 H3856 0.930 . S
C3870 C3868 1.395 . S
C3870 C3873 1.403 . S
C3871 C3868 1.403 . S
C3871 C3872 1.524 . S
C3871 C3875 1.400 . S
C3872 H3857 0.960 . S
C3872 H3858 0.960 . S
C3872 H3859 0.960 . S
C3872 C3871 1.524 . S
C3873 C3870 1.403 . S
C3873 C3874 1.392 . S
C3873 C3877 1.495 . S
C3874 C3873 1.392 . S
C3874 C3875 1.385 . S
C3874 C3876 1.478 . S
C3875 H3869 0.930 . S
C3875 C3871 1.400 . S
C3875 C3874 1.385 . S
C3876 C3874 1.478 . S
C3876 C3878 1.381 . S
C3876 C3882 1.383 . S
C3877 C3873 1.495 . S
C3877 H3883 0.959 . S
C3877 H3884 0.961 . S
C3877 H3885 0.960 . S
C3878 C3876 1.381 . S
C3878 C3879 1.394 . S
C3878 H3886 0.930 . S
C3879 C3878 1.394 . S
C3879 C3880 1.383 . S
C3879 H3887 0.929 . S
C3880 C3879 1.383 . S
C3880 C3881 1.377 . S
C3881 H3865 0.930 . S
C3881 C3880 1.377 . S
C3881 C3882 1.379 . S
C3882 H3866 0.931 . S
C3882 C3876 1.383 . S
C3882 C3881 1.379 . S
H3883 C3877 0.959 . S
H3884 C3877 0.961 . S
H3885 C3877 0.960 . S
H3886 C3878 0.930 . S
H3887 C3879 0.929 . S
H3888 C3896 0.929 . S
H3889 C3898 0.930 . S
H3890 C3900 0.930 . S
H3891 C3903 0.929 . S
H3892 C3906 0.930 . S
H3893 C3908 0.960 . S
H3894 C3908 0.960 . S
H3895 C3908 0.960 . S
C3896 H3888 0.929 . S
C3896 C3897 1.377 . S
C3896 C3898 1.384 . S
C3897 C3896 1.377 . S
C3897 C3903 1.390 . S
C3898 H3889 0.930 . S
C3898 C3896 1.384 . S
C3898 C3899 1.372 . S
C3899 C3898 1.372 . S
C3899 C3900 1.400 . S
C3899 C3904 1.490 . S
C3900 H3890 0.930 . S
C3900 C3899 1.400 . S
C3900 C3903 1.386 . S
H3901 C3917 0.930 . S
H3902 C3918 0.931 . S
C3903 H3891 0.929 . S
C3903 C3897 1.390 . S
C3903 C3900 1.386 . S
C3904 C3899 1.490 . S
C3904 C3906 1.395 . S
C3904 C3907 1.403 . S
H3905 C3911 0.930 . S
C3906 H3892 0.930 . S
C3906 C3904 1.395 . S
C3906 C3909 1.403 . S
C3907 C3904 1.403 . S
C3907 C3908 1.524 . S
C3907 C3911 1.400 . S
C3908 H3893 0.960 . S
C3908 H3894 0.960 . S
C3908 H3895 0.960 . S
C3908 C3907 1.524 . S
C3909 C3906 1.403 . S
C3909 C3910 1.392 . S
C3909 C3913 1.495 . S
C3910 C3909 1.392 . S
C3910 C3911 1.385 . S
C3910 C3912 1.478 . S
C3911 H3905 0.930 . S
C3911 C3907 1.400 . S
C3911 C3910 1.385 . S
C3912 C3910 1.478 . S
C3912 C3914 1.381 . S
C3912 C3918 1.383 . S
C3913 C3909 1.495 . S
C3913 H3919 0.959 . S
C3913 H3920 0.961 . S
C3913 H3921 0.960 . S
C3914 C3912 1.381 . S
C3914 C3915 1.394 . S
C3914 H3922 0.930 . S
C3915 C3914 1.394 . S
C3915 C3916 1.383 . S
C3915 H3923 0.929 . S
C3916 C3915 1.383 . S
C3916 C3917 1.377 . S
C3917 H3901 0.930 . S
C3917 C3916 1.377 . S
C3917 C3918 1.379 . S
C3918 H3902 0.931 . S
C3918 C3912 1.383 . S
C3918 C3917 1.379 . S
H3919 C3913 0.959 . S
H3920 C3913 0.961 . S
H3921 C3913 0.960 . S
H3922 C3914 0.930 . S
H3923 C3915 0.929 . S
H3924 C3932 0.929 . S
H3925 C3934 0.930 . S
H3926 C3936 0.930 . S
H3927 C3939 0.929 . S
H3928 C3942 0.930 . S
H3929 C3944 0.960 . S
H3930 C3944 0.960 . S
H3931 C3944 0.960 . S
C3932 H3924 0.929 . S
C3932 C3933 1.377 . S
C3932 C3934 1.384 . S
C3933 C3932 1.377 . S
C3933 C3939 1.390 . S
C3934 H3925 0.930 . S
C3934 C3932 1.384 . S
C3934 C3935 1.372 . S
C3935 C3934 1.372 . S
C3935 C3936 1.400 . S
C3935 C3940 1.490 . S
C3936 H3926 0.930 . S
C3936 C3935 1.400 . S
C3936 C3939 1.386 . S
H3937 C3953 0.930 . S
H3938 C3954 0.931 . S
C3939 H3927 0.929 . S
C3939 C3933 1.390 . S
C3939 C3936 1.386 . S
C3940 C3935 1.490 . S
C3940 C3942 1.395 . S
C3940 C3943 1.403 . S
H3941 C3947 0.930 . S
C3942 H3928 0.930 . S
C3942 C3940 1.395 . S
C3942 C3945 1.403 . S
C3943 C3940 1.403 . S
C3943 C3944 1.524 . S
C3943 C3947 1.400 . S
C3944 H3929 0.960 . S
C3944 H3930 0.960 . S
C3944 H3931 0.960 . S
C3944 C3943 1.524 . S
C3945 C3942 1.403 . S
C3945 C3946 1.392 . S
C3945 C3949 1.495 . S
C3946 C3945 1.392 . S
C3946 C3947 1.385 . S
C3946 C3948 1.478 . S
C3947 H3941 0.930 . S
C3947 C3943 1.400 . S
C3947 C3946 1.385 . S
C3948 C3946 1.478 . S
C3948 C3950 1.381 . S
C3948 C3954 1.383 . S
C3949 C3945 1.495 . S
C3949 H3955 0.959 . S
C3949 H3956 0.961 . S
C3949 H3957 0.960 . S
C3950 C3948 1.381 . S
C3950 C3951 1.394 . S
C3950 H3958 0.930 . S
C3951 C3950 1.394 . S
C3951 C3952 1.383 . S
C3951 H3959 0.929 . S
C3952 C3951 1.383 . S
C3952 C3953 1.377 . S
C3953 H3937 0.930 . S
C3953 C3952 1.377 . S
C3953 C3954 1.379 . S
C3954 H3938 0.931 . S
C3954 C3948 1.383 . S
C3954 C3953 1.379 . S
H3955 C3949 0.959 . S
H3956 C3949 0.961 . S
H3957 C3949 0.960 . S
H3958 C3950 0.930 . S
H3959 C3951 0.929 . S
H3960 C3968 0.929 . S
H3961 C3970 0.930 . S
H3962 C3972 0.930 . S
H3963 C3975 0.929 . S
H3964 C3978 0.930 . S
H3965 C3980 0.960 . S
H3966 C3980 0.960 . S
H3967 C3980 0.960 . S
C3968 H3960 0.929 . S
C3968 C3969 1.377 . S
C3968 C3970 1.384 . S
C3969 C3968 1.377 . S
C3969 C3975 1.390 . S
C3970 H3961 0.930 . S
C3970 C3968 1.384 . S
C3970 C3971 1.372 . S
C3971 C3970 1.372 . S
C3971 C3972 1.400 . S
C3971 C3976 1.490 . S
C3972 H3962 0.930 . S
C3972 C3971 1.400 . S
C3972 C3975 1.386 . S
H3973 C3989 0.930 . S
H3974 C3990 0.931 . S
C3975 H3963 0.929 . S
C3975 C3969 1.390 . S
C3975 C3972 1.386 . S
C3976 C3971 1.490 . S
C3976 C3978 1.395 . S
C3976 C3979 1.403 . S
H3977 C3983 0.930 . S
C3978 H3964 0.930 . S
C3978 C3976 1.395 . S
C3978 C3981 1.403 . S
C3979 C3976 1.403 . S
C3979 C3980 1.524 . S
C3979 C3983 1.400 . S
C3980 H3965 0.960 . S
C3980 H3966 0.960 . S
C3980 H3967 0.960 . S
C3980 C3979 1.524 . S
C3981 C3978 1.403 . S
C3981 C3982 1.392 . S
C3981 C3985 1.495 . S
C3982 C3981 1.392 . S
C3982 C3983 1.385 . S
C3982 C3984 1.478 . S
C3983 H3977 0.930 . S
C3983 C3979 1.400 . S
C3983 C3982 1.385 . S
C3984 C3982 1.478 . S
C3984 C3986 1.381 . S
C3984 C3990 1.383 . S
C3985 C3981 1.495 . S
C3985 H3991 0.959 . S
C3985 H3992 0.961 . S
C3985 H3993 0.960 . S
C3986 C3984 1.381 . S
C3986 C3987 1.394 . S
C3986 H3994 0.930 . S
C3987 C3986 1.394 . S
C3987 C3988 1.383 . S
C3987 H3995 0.929 . S
C3988 C3987 1.383 . S
C3988 C3989 1.377 . S
C3989 H3973 0.930 . S
C3989 C3988 1.377 . S
C3989 C3990 1.379 . S
C3990 H3974 0.931 . S
C3990 C3984 1.383 . S
C3990 C3989 1.379 . S
H3991 C3985 0.959 . S
H3992 C3985 0.961 . S
H3993 C3985 0.960 . S
H3994 C3986 0.930 . S
H3995 C3987 0.929 . S
H3996 C4004 0.929 . S
H3997 C4006 0.930 . S
H3998 C4008 0.930 . S
H3999 C4011 0.929 . S
H4000 C4014 0.930 . S
H4001 C4016 0.960 . S
H4002 C4016 0.960 . S
H4003 C4016 0.960 . S
C4004 H3996 0.929 . S
C4004 C4005 1.377 . S
C4004 C4006 1.384 . S
C4005 C4004 1.377 . S
C4005 C4011 1.390 . S
C4006 H3997 0.930 . S
C4006 C4004 1.384 . S
C4006 C4007 1.372 . S
C4007 C4006 1.372 . S
C4007 C4008 1.400 . S
C4007 C4012 1.490 . S
C4008 H3998 0.930 . S
C4008 C4007 1.400 . S
C4008 C4011 1.386 . S
H4009 C4025 0.930 . S
H4010 C4026 0.931 . S
C4011 H3999 0.929 . S
C4011 C4005 1.390 . S
C4011 C4008 1.386 . S
C4012 C4007 1.490 . S
C4012 C4014 1.395 . S
C4012 C4015 1.403 . S
H4013 C4019 0.930 . S
C4014 H4000 0.930 . S
C4014 C4012 1.395 . S
C4014 C4017 1.403 . S
C4015 C4012 1.403 . S
C4015 C4016 1.524 . S
C4015 C4019 1.400 . S
C4016 H4001 0.960 . S
C4016 H4002 0.960 . S
C4016 H4003 0.960 . S
C4016 C4015 1.524 . S
C4017 C4014 1.403 . S
C4017 C4018 1.392 . S
C4017 C4021 1.495 . S
C4018 C4017 1.392 . S
C4018 C4019 1.385 . S
C4018 C4020 1.478 . S
C4019 H4013 0.930 . S
C4019 C4015 1.400 . S
C4019 C4018 1.385 . S
C4020 C4018 1.478 . S
C4020 C4022 1.381 . S
C4020 C4026 1.383 . S
C4021 C4017 1.495 . S
C4021 H4027 0.959 . S
C4021 H4028 0.961 . S
C4021 H4029 0.960 . S
C4022 C4020 1.381 . S
C4022 C4023 1.394 . S
C4022 H4030 0.930 . S
C4023 C4022 1.394 . S
C4023 C4024 1.383 . S
C4023 H4031 0.929 . S
C4024 C4023 1.383 . S
C4024 C4025 1.377 . S
C4025 H4009 0.930 . S
C4025 C4024 1.377 . S
C4025 C4026 1.379 . S
C4026 H4010 0.931 . S
C4026 C4020 1.383 . S
C4026 C4025 1.379 . S
H4027 C4021 0.959 . S
H4028 C4021 0.961 . S
H4029 C4021 0.960 . S
H4030 C4022 0.930 . S
H4031 C4023 0.929 . S
H4032 C4040 0.915 1_545 S
H4033 C4042 0.930 . S
H4034 C4044 0.930 . S
H4035 C4047 0.929 . S
H4036 C4050 0.930 . S
H4037 C4052 0.960 . S
H4038 C4052 0.960 . S
H4039 C4052 0.960 . S
C4040 H4032 0.915 1_565 S
C4040 C4041 1.377 . S
C4040 C4042 1.384 . S
C4041 C4040 1.377 . S
C4041 C4047 1.390 . S
C4042 H4033 0.930 . S
C4042 C4040 1.384 . S
C4042 C4043 1.372 . S
C4043 C4042 1.372 . S
C4043 C4044 1.400 . S
C4043 C4048 1.490 . S
C4044 H4034 0.930 . S
C4044 C4043 1.400 . S
C4044 C4047 1.386 . S
H4045 C4061 0.930 . S
H4046 C4062 0.931 . S
C4047 H4035 0.929 . S
C4047 C4041 1.390 . S
C4047 C4044 1.386 . S
C4048 C4043 1.490 . S
C4048 C4050 1.395 . S
C4048 C4051 1.403 . S
H4049 C4055 0.930 . S
C4050 H4036 0.930 . S
C4050 C4048 1.395 . S
C4050 C4053 1.403 . S
C4051 C4048 1.403 . S
C4051 C4052 1.524 . S
C4051 C4055 1.400 . S
C4052 H4037 0.960 . S
C4052 H4038 0.960 . S
C4052 H4039 0.960 . S
C4052 C4051 1.524 . S
C4053 C4050 1.403 . S
C4053 C4054 1.392 . S
C4053 C4057 1.495 . S
C4054 C4053 1.392 . S
C4054 C4055 1.385 . S
C4054 C4056 1.478 . S
C4055 H4049 0.930 . S
C4055 C4051 1.400 . S
C4055 C4054 1.385 . S
C4056 C4054 1.478 . S
C4056 C4058 1.381 . S
C4056 C4062 1.383 . S
C4057 C4053 1.495 . S
C4057 H4063 0.959 . S
C4057 H4064 0.961 . S
C4057 H4065 0.960 . S
C4058 C4056 1.381 . S
C4058 C4059 1.394 . S
C4058 H4066 0.930 . S
C4059 C4058 1.394 . S
C4059 C4060 1.383 . S
C4059 H4067 0.929 . S
C4060 C4059 1.383 . S
C4060 C4061 1.377 . S
C4061 H4045 0.930 . S
C4061 C4060 1.377 . S
C4061 C4062 1.379 . S
C4062 H4046 0.931 . S
C4062 C4056 1.383 . S
C4062 C4061 1.379 . S
H4063 C4057 0.959 . S
H4064 C4057 0.961 . S
H4065 C4057 0.960 . S
H4066 C4058 0.930 . S
H4067 C4059 0.929 . S
H4068 C4076 0.929 . S
H4069 C4078 0.930 . S
H4070 C4080 0.930 . S
H4071 C4083 0.929 . S
H4072 C4086 0.930 . S
H4073 C4088 0.959 . S
H4074 C4088 0.960 . S
H4075 C4088 0.960 1_554 S
C4076 H4068 0.929 . S
C4076 C4077 1.377 . S
C4076 C4078 1.384 . S
C4077 C4076 1.377 . S
C4077 C4083 1.390 1_556 S
C4078 H4069 0.930 . S
C4078 C4076 1.384 . S
C4078 C4079 1.380 . S
C4079 C4078 1.380 . S
C4079 C4080 1.390 1_556 S
C4079 C4084 1.498 1_556 S
C4080 H4070 0.930 . S
C4080 C4079 1.390 1_554 S
C4080 C4083 1.386 . S
H4081 C4097 0.930 . S
H4082 C4098 0.900 1_565 S
C4083 H4071 0.929 . S
C4083 C4077 1.390 1_554 S
C4083 C4080 1.386 . S
C4084 C4079 1.498 1_554 S
C4084 C4086 1.393 . S
C4084 C4087 1.402 . S
H4085 C4091 0.930 . S
C4086 H4072 0.930 . S
C4086 C4084 1.393 . S
C4086 C4089 1.403 1_565 S
C4087 C4084 1.402 . S
C4087 C4088 1.524 1_554 S
C4087 C4091 1.397 . S
C4088 H4073 0.959 . S
C4088 H4074 0.960 . S
C4088 H4075 0.960 1_556 S
C4088 C4087 1.524 1_556 S
C4089 C4086 1.403 1_545 S
C4089 C4090 1.392 1_545 S
C4089 C4093 1.495 . S
C4090 C4089 1.392 1_565 S
C4090 C4091 1.385 . S
C4090 C4092 1.478 1_565 S
C4091 H4085 0.930 . S
C4091 C4087 1.397 . S
C4091 C4090 1.385 . S
C4092 C4090 1.478 1_545 S
C4092 C4094 1.381 1_554 S
C4092 C4098 1.383 . S
C4093 C4089 1.495 . S
C4093 H4099 0.959 . S
C4093 H4100 0.961 . S
C4093 H4101 0.960 1_554 S
C4094 C4092 1.381 1_556 S
C4094 C4095 1.394 . S
C4094 H4102 0.930 . S
C4095 C4094 1.394 . S
C4095 C4096 1.383 1_556 S
C4095 H4103 0.929 . S
C4096 C4095 1.383 1_554 S
C4096 C4097 1.377 . S
C4097 H4081 0.930 . S
C4097 C4096 1.377 . S
C4097 C4098 1.379 . S
C4098 H4082 0.900 1_545 S
C4098 C4092 1.383 . S
C4098 C4097 1.379 . S
H4099 C4093 0.959 . S
H4100 C4093 0.961 . S
H4101 C4093 0.960 1_556 S
H4102 C4094 0.930 . S
H4103 C4095 0.929 . S
H4104 C4112 0.929 . S
H4105 C4114 0.930 . S
H4106 C4116 0.930 . S
H4107 C4119 0.929 . S
H4108 C4122 0.930 . S
H4109 C4124 0.960 . S
H4110 C4124 0.960 . S
H4111 C4124 0.960 . S
C4112 H4104 0.929 . S
C4112 C4113 1.377 . S
C4112 C4114 1.384 . S
C4113 C4112 1.377 . S
C4113 C4119 1.390 . S
C4114 H4105 0.930 . S
C4114 C4112 1.384 . S
C4114 C4115 1.372 . S
C4115 C4114 1.372 . S
C4115 C4116 1.400 . S
C4115 C4120 1.490 . S
C4116 H4106 0.930 . S
C4116 C4115 1.400 . S
C4116 C4119 1.386 . S
H4117 C4133 0.930 . S
H4118 C4134 0.931 . S
C4119 H4107 0.929 . S
C4119 C4113 1.390 . S
C4119 C4116 1.386 . S
C4120 C4115 1.490 . S
C4120 C4122 1.395 . S
C4120 C4123 1.403 . S
H4121 C4127 0.930 . S
C4122 H4108 0.930 . S
C4122 C4120 1.395 . S
C4122 C4125 1.403 . S
C4123 C4120 1.403 . S
C4123 C4124 1.524 . S
C4123 C4127 1.400 . S
C4124 H4109 0.960 . S
C4124 H4110 0.960 . S
C4124 H4111 0.960 . S
C4124 C4123 1.524 . S
C4125 C4122 1.403 . S
C4125 C4126 1.392 . S
C4125 C4129 1.495 . S
C4126 C4125 1.392 . S
C4126 C4127 1.385 . S
C4126 C4128 1.478 . S
C4127 H4121 0.930 . S
C4127 C4123 1.400 . S
C4127 C4126 1.385 . S
C4128 C4126 1.478 . S
C4128 C4130 1.381 . S
C4128 C4134 1.383 . S
C4129 C4125 1.495 . S
C4129 H4135 0.959 . S
C4129 H4136 0.961 . S
C4129 H4137 0.960 . S
C4130 C4128 1.381 . S
C4130 C4131 1.394 . S
C4130 H4138 0.930 . S
C4131 C4130 1.394 . S
C4131 C4132 1.383 . S
C4131 H4139 0.929 . S
C4132 C4131 1.383 . S
C4132 C4133 1.377 . S
C4133 H4117 0.930 . S
C4133 C4132 1.377 . S
C4133 C4134 1.379 . S
C4134 H4118 0.931 . S
C4134 C4128 1.383 . S
C4134 C4133 1.379 . S
H4135 C4129 0.959 . S
H4136 C4129 0.961 . S
H4137 C4129 0.960 . S
H4138 C4130 0.930 . S
H4139 C4131 0.929 . S
H4140 C4148 0.929 . S
H4141 C4150 0.930 . S
H4142 C4152 0.930 1_556 S
H4143 C4155 0.929 1_556 S
H4144 C4158 0.930 . S
H4145 C4160 0.972 . S
H4146 C4160 0.953 1_554 S
H4147 C4160 0.975 . S
C4148 H4140 0.929 . S
C4148 C4149 1.377 . S
C4148 C4150 1.384 . S
C4149 C4148 1.377 . S
C4149 C4155 1.390 . S
C4150 H4141 0.930 . S
C4150 C4148 1.384 . S
C4150 C4151 1.372 . S
C4151 C4150 1.372 . S
C4151 C4152 1.400 . S
C4151 C4156 1.490 . S
C4152 H4142 0.930 1_554 S
C4152 C4151 1.400 . S
C4152 C4155 1.386 . S
H4153 C4169 0.930 . S
H4154 C4170 0.931 . S
C4155 H4143 0.929 1_554 S
C4155 C4149 1.390 . S
C4155 C4152 1.386 . S
C4156 C4151 1.490 . S
C4156 C4158 1.395 . S
C4156 C4159 1.403 . S
H4157 C4163 0.930 . S
C4158 H4144 0.930 . S
C4158 C4156 1.395 . S
C4158 C4161 1.403 . S
C4159 C4156 1.403 . S
C4159 C4160 1.505 1_554 S
C4159 C4163 1.400 . S
C4160 H4145 0.972 . S
C4160 H4146 0.953 1_556 S
C4160 H4147 0.975 . S
C4160 C4159 1.505 1_556 S
C4161 C4158 1.403 . S
C4161 C4162 1.392 . S
C4161 C4165 1.495 . S
C4162 C4161 1.392 . S
C4162 C4163 1.385 . S
C4162 C4164 1.478 . S
C4163 H4157 0.930 . S
C4163 C4159 1.400 . S
C4163 C4162 1.385 . S
C4164 C4162 1.478 . S
C4164 C4166 1.381 . S
C4164 C4170 1.383 . S
C4165 C4161 1.495 . S
C4165 H4171 0.959 . S
C4165 H4172 0.961 . S
C4165 H4173 0.960 . S
C4166 C4164 1.381 . S
C4166 C4167 1.394 . S
C4166 H4174 0.930 . S
C4167 C4166 1.394 . S
C4167 C4168 1.383 . S
C4167 H4175 0.929 . S
C4168 C4167 1.383 . S
C4168 C4169 1.377 . S
C4169 H4153 0.930 . S
C4169 C4168 1.377 . S
C4169 C4170 1.379 . S
C4170 H4154 0.931 . S
C4170 C4164 1.383 . S
C4170 C4169 1.379 . S
H4171 C4165 0.959 . S
H4172 C4165 0.961 . S
H4173 C4165 0.960 . S
H4174 C4166 0.930 . S
H4175 C4167 0.929 . S
H4176 C4184 0.929 . S
H4177 C4186 0.930 . S
H4178 C4188 0.930 . S
H4179 C4191 0.929 . S
H4180 C4194 0.930 . S
H4181 C4196 0.960 . S
H4182 C4196 0.960 . S
H4183 C4196 0.960 . S
C4184 H4176 0.929 . S
C4184 C4185 1.377 . S
C4184 C4186 1.384 . S
C4185 C4184 1.377 . S
C4185 C4191 1.390 . S
C4186 H4177 0.930 . S
C4186 C4184 1.384 . S
C4186 C4187 1.372 . S
C4187 C4186 1.372 . S
C4187 C4188 1.400 . S
C4187 C4192 1.490 . S
C4188 H4178 0.930 . S
C4188 C4187 1.400 . S
C4188 C4191 1.386 . S
H4189 C4205 0.930 . S
H4190 C4206 0.931 . S
C4191 H4179 0.929 . S
C4191 C4185 1.390 . S
C4191 C4188 1.386 . S
C4192 C4187 1.490 . S
C4192 C4194 1.395 . S
C4192 C4195 1.403 . S
H4193 C4199 0.930 . S
C4194 H4180 0.930 . S
C4194 C4192 1.395 . S
C4194 C4197 1.403 . S
C4195 C4192 1.403 . S
C4195 C4196 1.524 . S
C4195 C4199 1.400 . S
C4196 H4181 0.960 . S
C4196 H4182 0.960 . S
C4196 H4183 0.960 . S
C4196 C4195 1.524 . S
C4197 C4194 1.403 . S
C4197 C4198 1.392 . S
C4197 C4201 1.495 . S
C4198 C4197 1.392 . S
C4198 C4199 1.385 . S
C4198 C4200 1.478 . S
C4199 H4193 0.930 . S
C4199 C4195 1.400 . S
C4199 C4198 1.385 . S
C4200 C4198 1.478 . S
C4200 C4202 1.381 . S
C4200 C4206 1.383 . S
C4201 C4197 1.495 . S
C4201 H4207 0.959 . S
C4201 H4208 0.961 . S
C4201 H4209 0.960 . S
C4202 C4200 1.381 . S
C4202 C4203 1.394 . S
C4202 H4210 0.930 . S
C4203 C4202 1.394 . S
C4203 C4204 1.383 . S
C4203 H4211 0.929 . S
C4204 C4203 1.383 . S
C4204 C4205 1.377 . S
C4205 H4189 0.930 . S
C4205 C4204 1.377 . S
C4205 C4206 1.379 . S
C4206 H4190 0.931 . S
C4206 C4200 1.383 . S
C4206 C4205 1.379 . S
H4207 C4201 0.959 . S
H4208 C4201 0.961 . S
H4209 C4201 0.960 . S
H4210 C4202 0.930 . S
H4211 C4203 0.929 . S
H4212 C4220 0.929 . S
H4213 C4222 0.930 . S
H4214 C4224 0.930 . S
H4215 C4227 0.929 . S
H4216 C4230 0.930 . S
H4217 C4232 0.960 . S
H4218 C4232 0.960 . S
H4219 C4232 0.960 . S
C4220 H4212 0.929 . S
C4220 C4221 1.377 . S
C4220 C4222 1.384 . S
C4221 C4220 1.377 . S
C4221 C4227 1.390 . S
C4222 H4213 0.930 . S
C4222 C4220 1.384 . S
C4222 C4223 1.372 . S
C4223 C4222 1.372 . S
C4223 C4224 1.400 . S
C4223 C4228 1.490 . S
C4224 H4214 0.930 . S
C4224 C4223 1.400 . S
C4224 C4227 1.386 . S
H4225 C4241 0.930 . S
H4226 C4242 0.931 . S
C4227 H4215 0.929 . S
C4227 C4221 1.390 . S
C4227 C4224 1.386 . S
C4228 C4223 1.490 . S
C4228 C4230 1.395 . S
C4228 C4231 1.403 . S
H4229 C4235 0.930 . S
C4230 H4216 0.930 . S
C4230 C4228 1.395 . S
C4230 C4233 1.403 . S
C4231 C4228 1.403 . S
C4231 C4232 1.524 . S
C4231 C4235 1.400 . S
C4232 H4217 0.960 . S
C4232 H4218 0.960 . S
C4232 H4219 0.960 . S
C4232 C4231 1.524 . S
C4233 C4230 1.403 . S
C4233 C4234 1.392 . S
C4233 C4237 1.495 . S
C4234 C4233 1.392 . S
C4234 C4235 1.385 . S
C4234 C4236 1.478 . S
C4235 H4229 0.930 . S
C4235 C4231 1.400 . S
C4235 C4234 1.385 . S
C4236 C4234 1.478 . S
C4236 C4238 1.381 . S
C4236 C4242 1.383 . S
C4237 C4233 1.495 . S
C4237 H4243 0.959 . S
C4237 H4244 0.961 . S
C4237 H4245 0.960 . S
C4238 C4236 1.381 . S
C4238 C4239 1.394 . S
C4238 H4246 0.930 . S
C4239 C4238 1.394 . S
C4239 C4240 1.383 . S
C4239 H4247 0.929 . S
C4240 C4239 1.383 . S
C4240 C4241 1.377 . S
C4241 H4225 0.930 . S
C4241 C4240 1.377 . S
C4241 C4242 1.379 . S
C4242 H4226 0.931 . S
C4242 C4236 1.383 . S
C4242 C4241 1.379 . S
H4243 C4237 0.959 . S
H4244 C4237 0.961 . S
H4245 C4237 0.960 . S
H4246 C4238 0.930 . S
H4247 C4239 0.929 . S
H4248 C4256 0.929 . S
H4249 C4258 0.930 . S
H4250 C4260 0.930 . S
H4251 C4263 0.929 . S
H4252 C4266 0.930 . S
H4253 C4268 0.960 . S
H4254 C4268 0.960 . S
H4255 C4268 0.960 . S
C4256 H4248 0.929 . S
C4256 C4257 1.377 . S
C4256 C4258 1.384 . S
C4257 C4256 1.377 . S
C4257 C4263 1.390 . S
C4258 H4249 0.930 . S
C4258 C4256 1.384 . S
C4258 C4259 1.372 . S
C4259 C4258 1.372 . S
C4259 C4260 1.400 . S
C4259 C4264 1.490 . S
C4260 H4250 0.930 . S
C4260 C4259 1.400 . S
C4260 C4263 1.386 . S
H4261 C4277 0.930 . S
H4262 C4278 0.931 . S
C4263 H4251 0.929 . S
C4263 C4257 1.390 . S
C4263 C4260 1.386 . S
C4264 C4259 1.490 . S
C4264 C4266 1.395 . S
C4264 C4267 1.403 . S
H4265 C4271 0.930 . S
C4266 H4252 0.930 . S
C4266 C4264 1.395 . S
C4266 C4269 1.403 . S
C4267 C4264 1.403 . S
C4267 C4268 1.524 . S
C4267 C4271 1.400 . S
C4268 H4253 0.960 . S
C4268 H4254 0.960 . S
C4268 H4255 0.960 . S
C4268 C4267 1.524 . S
C4269 C4266 1.403 . S
C4269 C4270 1.392 . S
C4269 C4273 1.495 . S
C4270 C4269 1.392 . S
C4270 C4271 1.385 . S
C4270 C4272 1.478 . S
C4271 H4265 0.930 . S
C4271 C4267 1.400 . S
C4271 C4270 1.385 . S
C4272 C4270 1.478 . S
C4272 C4274 1.381 . S
C4272 C4278 1.383 . S
C4273 C4269 1.495 . S
C4273 H4279 0.959 . S
C4273 H4280 0.961 . S
C4273 H4281 0.960 . S
C4274 C4272 1.381 . S
C4274 C4275 1.394 . S
C4274 H4282 0.930 . S
C4275 C4274 1.394 . S
C4275 C4276 1.383 . S
C4275 H4283 0.929 . S
C4276 C4275 1.383 . S
C4276 C4277 1.377 . S
C4277 H4261 0.930 . S
C4277 C4276 1.377 . S
C4277 C4278 1.379 . S
C4278 H4262 0.931 . S
C4278 C4272 1.383 . S
C4278 C4277 1.379 . S
H4279 C4273 0.959 . S
H4280 C4273 0.961 . S
H4281 C4273 0.960 . S
H4282 C4274 0.930 . S
H4283 C4275 0.929 . S
H4284 C4292 0.929 . S
H4285 C4294 0.930 . S
H4286 C4296 0.930 . S
H4287 C4299 0.929 . S
H4288 C4302 0.930 . S
H4289 C4304 0.960 . S
H4290 C4304 0.960 . S
H4291 C4304 0.960 . S
C4292 H4284 0.929 . S
C4292 C4293 1.377 . S
C4292 C4294 1.384 . S
C4293 C4292 1.377 . S
C4293 C4299 1.390 . S
C4294 H4285 0.930 . S
C4294 C4292 1.384 . S
C4294 C4295 1.372 . S
C4295 C4294 1.372 . S
C4295 C4296 1.400 . S
C4295 C4300 1.490 . S
C4296 H4286 0.930 . S
C4296 C4295 1.400 . S
C4296 C4299 1.386 . S
H4297 C4313 0.930 . S
H4298 C4314 0.931 . S
C4299 H4287 0.929 . S
C4299 C4293 1.390 . S
C4299 C4296 1.386 . S
C4300 C4295 1.490 . S
C4300 C4302 1.395 . S
C4300 C4303 1.403 . S
H4301 C4307 0.930 . S
C4302 H4288 0.930 . S
C4302 C4300 1.395 . S
C4302 C4305 1.403 . S
C4303 C4300 1.403 . S
C4303 C4304 1.524 . S
C4303 C4307 1.400 . S
C4304 H4289 0.960 . S
C4304 H4290 0.960 . S
C4304 H4291 0.960 . S
C4304 C4303 1.524 . S
C4305 C4302 1.403 . S
C4305 C4306 1.392 . S
C4305 C4309 1.495 . S
C4306 C4305 1.392 . S
C4306 C4307 1.385 . S
C4306 C4308 1.478 . S
C4307 H4301 0.930 . S
C4307 C4303 1.400 . S
C4307 C4306 1.385 . S
C4308 C4306 1.478 . S
C4308 C4310 1.381 . S
C4308 C4314 1.383 . S
C4309 C4305 1.495 . S
C4309 H4315 0.959 . S
C4309 H4316 0.961 . S
C4309 H4317 0.960 . S
C4310 C4308 1.381 . S
C4310 C4311 1.394 . S
C4310 H4318 0.930 . S
C4311 C4310 1.394 . S
C4311 C4312 1.383 . S
C4311 H4319 0.929 . S
C4312 C4311 1.383 . S
C4312 C4313 1.377 . S
C4313 H4297 0.930 . S
C4313 C4312 1.377 . S
C4313 C4314 1.379 . S
C4314 H4298 0.931 . S
C4314 C4308 1.383 . S
C4314 C4313 1.379 . S
H4315 C4309 0.959 . S
H4316 C4309 0.961 . S
H4317 C4309 0.960 . S
H4318 C4310 0.930 . S
H4319 C4311 0.929 . S
H4320 C4328 0.929 . S
H4321 C4330 0.930 . S
H4322 C4332 0.930 . S
H4323 C4335 0.929 . S
H4324 C4338 0.930 . S
H4325 C4340 0.960 . S
H4326 C4340 0.960 . S
H4327 C4340 0.960 . S
C4328 H4320 0.929 . S
C4328 C4329 1.377 . S
C4328 C4330 1.384 . S
C4329 C4328 1.377 . S
C4329 C4335 1.390 . S
C4330 H4321 0.930 . S
C4330 C4328 1.384 . S
C4330 C4331 1.372 . S
C4331 C4330 1.372 . S
C4331 C4332 1.400 . S
C4331 C4336 1.490 . S
C4332 H4322 0.930 . S
C4332 C4331 1.400 . S
C4332 C4335 1.386 . S
H4333 C4349 0.930 . S
H4334 C4350 0.931 . S
C4335 H4323 0.929 . S
C4335 C4329 1.390 . S
C4335 C4332 1.386 . S
C4336 C4331 1.490 . S
C4336 C4338 1.395 . S
C4336 C4339 1.403 . S
H4337 C4343 0.930 . S
C4338 H4324 0.930 . S
C4338 C4336 1.395 . S
C4338 C4341 1.403 . S
C4339 C4336 1.403 . S
C4339 C4340 1.524 . S
C4339 C4343 1.400 . S
C4340 H4325 0.960 . S
C4340 H4326 0.960 . S
C4340 H4327 0.960 . S
C4340 C4339 1.524 . S
C4341 C4338 1.403 . S
C4341 C4342 1.392 . S
C4341 C4345 1.495 1_455 S
C4342 C4341 1.392 . S
C4342 C4343 1.385 . S
C4342 C4344 1.478 . S
C4343 H4337 0.930 . S
C4343 C4339 1.400 . S
C4343 C4342 1.385 . S
C4344 C4342 1.478 . S
C4344 C4346 1.381 . S
C4344 C4350 1.383 . S
C4345 C4341 1.495 1_655 S
C4345 H4351 0.959 . S
C4345 H4352 0.961 . S
C4345 H4353 0.960 . S
C4346 C4344 1.381 . S
C4346 C4347 1.394 . S
C4346 H4354 0.930 . S
C4347 C4346 1.394 . S
C4347 C4348 1.383 . S
C4347 H4355 0.929 . S
C4348 C4347 1.383 . S
C4348 C4349 1.377 . S
C4349 H4333 0.930 . S
C4349 C4348 1.377 . S
C4349 C4350 1.379 . S
C4350 H4334 0.931 . S
C4350 C4344 1.383 . S
C4350 C4349 1.379 . S
H4351 C4345 0.959 . S
H4352 C4345 0.961 . S
H4353 C4345 0.960 . S
H4354 C4346 0.930 . S
H4355 C4347 0.929 . S
H4356 C4364 0.929 . S
H4357 C4366 0.930 . S
H4358 C4368 0.930 . S
H4359 C4371 0.929 . S
H4360 C4374 0.930 . S
H4361 C4376 0.960 . S
H4362 C4376 0.960 . S
H4363 C4376 0.960 . S
C4364 H4356 0.929 . S
C4364 C4365 1.377 . S
C4364 C4366 1.384 . S
C4365 C4364 1.377 . S
C4365 C4371 1.390 . S
C4366 H4357 0.930 . S
C4366 C4364 1.384 . S
C4366 C4367 1.372 . S
C4367 C4366 1.372 . S
C4367 C4368 1.400 . S
C4367 C4372 1.490 . S
C4368 H4358 0.930 . S
C4368 C4367 1.400 . S
C4368 C4371 1.386 . S
H4369 C4385 0.930 . S
H4370 C4386 0.931 . S
C4371 H4359 0.929 . S
C4371 C4365 1.390 . S
C4371 C4368 1.386 . S
C4372 C4367 1.490 . S
C4372 C4374 1.395 . S
C4372 C4375 1.403 . S
H4373 C4379 0.930 . S
C4374 H4360 0.930 . S
C4374 C4372 1.395 . S
C4374 C4377 1.403 . S
C4375 C4372 1.403 . S
C4375 C4376 1.524 . S
C4375 C4379 1.400 . S
C4376 H4361 0.960 . S
C4376 H4362 0.960 . S
C4376 H4363 0.960 . S
C4376 C4375 1.524 . S
C4377 C4374 1.403 . S
C4377 C4378 1.392 . S
C4377 C4381 1.495 . S
C4378 C4377 1.392 . S
C4378 C4379 1.385 . S
C4378 C4380 1.478 . S
C4379 H4373 0.930 . S
C4379 C4375 1.400 . S
C4379 C4378 1.385 . S
C4380 C4378 1.478 . S
C4380 C4382 1.381 . S
C4380 C4386 1.383 . S
C4381 C4377 1.495 . S
C4381 H4387 0.959 . S
C4381 H4388 0.961 . S
C4381 H4389 0.960 . S
C4382 C4380 1.381 . S
C4382 C4383 1.394 . S
C4382 H4390 0.930 . S
C4383 C4382 1.394 . S
C4383 C4384 1.383 . S
C4383 H4391 0.929 . S
C4384 C4383 1.383 . S
C4384 C4385 1.377 . S
C4385 H4369 0.930 . S
C4385 C4384 1.377 . S
C4385 C4386 1.379 . S
C4386 H4370 0.931 . S
C4386 C4380 1.383 . S
C4386 C4385 1.379 . S
H4387 C4381 0.959 . S
H4388 C4381 0.961 . S
H4389 C4381 0.960 . S
H4390 C4382 0.930 . S
H4391 C4383 0.929 . S
H4392 C4400 0.929 . S
H4393 C4402 0.930 . S
H4394 C4404 0.930 . S
H4395 C4407 0.929 . S
H4396 C4410 0.930 . S
H4397 C4412 0.960 . S
H4398 C4412 0.960 . S
H4399 C4412 0.960 . S
C4400 H4392 0.929 . S
C4400 C4401 1.377 . S
C4400 C4402 1.384 . S
C4401 C4400 1.377 . S
C4401 C4407 1.390 . S
C4402 H4393 0.930 . S
C4402 C4400 1.384 . S
C4402 C4403 1.372 . S
C4403 C4402 1.372 . S
C4403 C4404 1.400 . S
C4403 C4408 1.490 . S
C4404 H4394 0.930 . S
C4404 C4403 1.400 . S
C4404 C4407 1.386 . S
H4405 C4421 0.930 . S
H4406 C4422 0.931 . S
C4407 H4395 0.929 . S
C4407 C4401 1.390 . S
C4407 C4404 1.386 . S
C4408 C4403 1.490 . S
C4408 C4410 1.395 . S
C4408 C4411 1.403 . S
H4409 C4415 0.930 . S
C4410 H4396 0.930 . S
C4410 C4408 1.395 . S
C4410 C4413 1.403 . S
C4411 C4408 1.403 . S
C4411 C4412 1.524 . S
C4411 C4415 1.400 . S
C4412 H4397 0.960 . S
C4412 H4398 0.960 . S
C4412 H4399 0.960 . S
C4412 C4411 1.524 . S
C4413 C4410 1.403 . S
C4413 C4414 1.392 . S
C4413 C4417 1.495 . S
C4414 C4413 1.392 . S
C4414 C4415 1.385 . S
C4414 C4416 1.478 . S
C4415 H4409 0.930 . S
C4415 C4411 1.400 . S
C4415 C4414 1.385 . S
C4416 C4414 1.478 . S
C4416 C4418 1.381 . S
C4416 C4422 1.383 . S
C4417 C4413 1.495 . S
C4417 H4423 0.959 . S
C4417 H4424 0.961 . S
C4417 H4425 0.960 . S
C4418 C4416 1.381 . S
C4418 C4419 1.394 . S
C4418 H4426 0.930 . S
C4419 C4418 1.394 . S
C4419 C4420 1.383 . S
C4419 H4427 0.929 . S
C4420 C4419 1.383 . S
C4420 C4421 1.377 . S
C4421 H4405 0.930 . S
C4421 C4420 1.377 . S
C4421 C4422 1.379 . S
C4422 H4406 0.931 . S
C4422 C4416 1.383 . S
C4422 C4421 1.379 . S
H4423 C4417 0.959 . S
H4424 C4417 0.961 . S
H4425 C4417 0.960 . S
H4426 C4418 0.930 . S
H4427 C4419 0.929 . S
H4428 C4436 0.929 . S
H4429 C4438 0.930 . S
H4430 C4440 0.930 . S
H4431 C4443 0.929 . S
H4432 C4446 0.930 . S
H4433 C4448 0.960 . S
H4434 C4448 0.960 . S
H4435 C4448 0.960 . S
C4436 H4428 0.929 . S
C4436 C4437 1.377 . S
C4436 C4438 1.384 . S
C4437 C4436 1.377 . S
C4437 C4443 1.390 . S
C4438 H4429 0.930 . S
C4438 C4436 1.384 . S
C4438 C4439 1.372 . S
C4439 C4438 1.372 . S
C4439 C4440 1.400 . S
C4439 C4444 1.490 . S
C4440 H4430 0.930 . S
C4440 C4439 1.400 . S
C4440 C4443 1.386 . S
H4441 C4457 0.930 . S
H4442 C4458 0.931 . S
C4443 H4431 0.929 . S
C4443 C4437 1.390 . S
C4443 C4440 1.386 . S
C4444 C4439 1.490 . S
C4444 C4446 1.395 . S
C4444 C4447 1.403 . S
H4445 C4451 0.930 . S
C4446 H4432 0.930 . S
C4446 C4444 1.395 . S
C4446 C4449 1.403 . S
C4447 C4444 1.403 . S
C4447 C4448 1.524 . S
C4447 C4451 1.400 . S
C4448 H4433 0.960 . S
C4448 H4434 0.960 . S
C4448 H4435 0.960 . S
C4448 C4447 1.524 . S
C4449 C4446 1.403 . S
C4449 C4450 1.392 . S
C4449 C4453 1.495 . S
C4450 C4449 1.392 . S
C4450 C4451 1.385 . S
C4450 C4452 1.478 . S
C4451 H4445 0.930 . S
C4451 C4447 1.400 . S
C4451 C4450 1.385 . S
C4452 C4450 1.478 . S
C4452 C4454 1.381 . S
C4452 C4458 1.383 . S
C4453 C4449 1.495 . S
C4453 H4459 0.959 . S
C4453 H4460 0.961 . S
C4453 H4461 0.960 . S
C4454 C4452 1.381 . S
C4454 C4455 1.394 . S
C4454 H4462 0.930 . S
C4455 C4454 1.394 . S
C4455 C4456 1.383 . S
C4455 H4463 0.929 . S
C4456 C4455 1.383 . S
C4456 C4457 1.377 . S
C4457 H4441 0.930 . S
C4457 C4456 1.377 . S
C4457 C4458 1.379 . S
C4458 H4442 0.931 . S
C4458 C4452 1.383 . S
C4458 C4457 1.379 . S
H4459 C4453 0.959 . S
H4460 C4453 0.961 . S
H4461 C4453 0.960 . S
H4462 C4454 0.930 . S
H4463 C4455 0.929 . S
H4464 C4472 0.929 . S
H4465 C4474 0.930 . S
H4466 C4476 0.930 . S
H4467 C4479 0.929 . S
H4468 C4482 0.930 . S
H4469 C4484 0.960 . S
H4470 C4484 0.960 . S
H4471 C4484 0.960 . S
C4472 H4464 0.929 . S
C4472 C4473 1.377 . S
C4472 C4474 1.384 . S
C4473 C4472 1.377 . S
C4473 C4479 1.390 . S
C4474 H4465 0.930 . S
C4474 C4472 1.384 . S
C4474 C4475 1.372 . S
C4475 C4474 1.372 . S
C4475 C4476 1.400 . S
C4475 C4480 1.490 . S
C4476 H4466 0.930 . S
C4476 C4475 1.400 . S
C4476 C4479 1.386 . S
H4477 C4493 0.930 . S
H4478 C4494 0.931 . S
C4479 H4467 0.929 . S
C4479 C4473 1.390 . S
C4479 C4476 1.386 . S
C4480 C4475 1.490 . S
C4480 C4482 1.395 . S
C4480 C4483 1.403 . S
H4481 C4487 0.930 . S
C4482 H4468 0.930 . S
C4482 C4480 1.395 . S
C4482 C4485 1.403 . S
C4483 C4480 1.403 . S
C4483 C4484 1.524 . S
C4483 C4487 1.400 . S
C4484 H4469 0.960 . S
C4484 H4470 0.960 . S
C4484 H4471 0.960 . S
C4484 C4483 1.524 . S
C4485 C4482 1.403 . S
C4485 C4486 1.392 . S
C4485 C4489 1.495 1_455 S
C4486 C4485 1.392 . S
C4486 C4487 1.385 . S
C4486 C4488 1.478 . S
C4487 H4481 0.930 . S
C4487 C4483 1.400 . S
C4487 C4486 1.385 . S
C4488 C4486 1.478 . S
C4488 C4490 1.381 . S
C4488 C4494 1.383 . S
C4489 C4485 1.495 1_655 S
C4489 H4495 0.959 . S
C4489 H4496 0.961 . S
C4489 H4497 0.960 . S
C4490 C4488 1.381 . S
C4490 C4491 1.394 . S
C4490 H4498 0.930 . S
C4491 C4490 1.394 . S
C4491 C4492 1.383 . S
C4491 H4499 0.929 . S
C4492 C4491 1.383 . S
C4492 C4493 1.377 . S
C4493 H4477 0.930 . S
C4493 C4492 1.377 . S
C4493 C4494 1.379 . S
C4494 H4478 0.931 . S
C4494 C4488 1.383 . S
C4494 C4493 1.379 . S
H4495 C4489 0.959 . S
H4496 C4489 0.961 . S
H4497 C4489 0.960 . S
H4498 C4490 0.930 . S
H4499 C4491 0.929 . S
H4500 C4508 0.929 . S
H4501 C4510 0.930 . S
H4502 C4512 0.930 . S
H4503 C4515 0.929 . S
H4504 C4518 0.930 . S
H4505 C4520 0.960 . S
H4506 C4520 0.960 . S
H4507 C4520 0.960 . S
C4508 H4500 0.929 . S
C4508 C4509 1.377 . S
C4508 C4510 1.384 . S
C4509 C4508 1.377 . S
C4509 C4515 1.390 . S
C4510 H4501 0.930 . S
C4510 C4508 1.384 . S
C4510 C4511 1.372 . S
C4511 C4510 1.372 . S
C4511 C4512 1.400 . S
C4511 C4516 1.490 . S
C4512 H4502 0.930 . S
C4512 C4511 1.400 . S
C4512 C4515 1.386 . S
H4513 C4529 0.930 . S
H4514 C4530 0.931 . S
C4515 H4503 0.929 . S
C4515 C4509 1.390 . S
C4515 C4512 1.386 . S
C4516 C4511 1.490 . S
C4516 C4518 1.395 . S
C4516 C4519 1.403 . S
H4517 C4523 0.930 . S
C4518 H4504 0.930 . S
C4518 C4516 1.395 . S
C4518 C4521 1.403 . S
C4519 C4516 1.403 . S
C4519 C4520 1.524 . S
C4519 C4523 1.400 . S
C4520 H4505 0.960 . S
C4520 H4506 0.960 . S
C4520 H4507 0.960 . S
C4520 C4519 1.524 . S
C4521 C4518 1.403 . S
C4521 C4522 1.392 . S
C4521 C4525 1.495 . S
C4522 C4521 1.392 . S
C4522 C4523 1.385 . S
C4522 C4524 1.478 . S
C4523 H4517 0.930 . S
C4523 C4519 1.400 . S
C4523 C4522 1.385 . S
C4524 C4522 1.478 . S
C4524 C4526 1.381 . S
C4524 C4530 1.383 . S
C4525 C4521 1.495 . S
C4525 H4531 0.959 . S
C4525 H4532 0.961 . S
C4525 H4533 0.960 . S
C4526 C4524 1.381 . S
C4526 C4527 1.394 . S
C4526 H4534 0.930 . S
C4527 C4526 1.394 . S
C4527 C4528 1.383 . S
C4527 H4535 0.929 . S
C4528 C4527 1.383 . S
C4528 C4529 1.377 . S
C4529 H4513 0.930 . S
C4529 C4528 1.377 . S
C4529 C4530 1.379 . S
C4530 H4514 0.931 . S
C4530 C4524 1.383 . S
C4530 C4529 1.379 . S
H4531 C4525 0.959 . S
H4532 C4525 0.961 . S
H4533 C4525 0.960 . S
H4534 C4526 0.930 . S
H4535 C4527 0.929 . S
H4536 C4544 0.929 . S
H4537 C4546 0.930 . S
H4538 C4548 0.930 . S
H4539 C4551 0.929 . S
H4540 C4554 0.930 . S
H4541 C4556 0.960 . S
H4542 C4556 0.960 . S
H4543 C4556 0.960 . S
C4544 H4536 0.929 . S
C4544 C4545 1.377 . S
C4544 C4546 1.384 . S
C4545 C4544 1.377 . S
C4545 C4551 1.390 . S
C4546 H4537 0.930 . S
C4546 C4544 1.384 . S
C4546 C4547 1.372 . S
C4547 C4546 1.372 . S
C4547 C4548 1.400 . S
C4547 C4552 1.490 . S
C4548 H4538 0.930 . S
C4548 C4547 1.400 . S
C4548 C4551 1.386 . S
H4549 C4565 0.930 . S
H4550 C4566 0.931 . S
C4551 H4539 0.929 . S
C4551 C4545 1.390 . S
C4551 C4548 1.386 . S
C4552 C4547 1.490 . S
C4552 C4554 1.395 . S
C4552 C4555 1.403 . S
H4553 C4559 0.930 . S
C4554 H4540 0.930 . S
C4554 C4552 1.395 . S
C4554 C4557 1.403 . S
C4555 C4552 1.403 . S
C4555 C4556 1.524 . S
C4555 C4559 1.400 . S
C4556 H4541 0.960 . S
C4556 H4542 0.960 . S
C4556 H4543 0.960 . S
C4556 C4555 1.524 . S
C4557 C4554 1.403 . S
C4557 C4558 1.392 . S
C4557 C4561 1.495 . S
C4558 C4557 1.392 . S
C4558 C4559 1.385 . S
C4558 C4560 1.478 . S
C4559 H4553 0.930 . S
C4559 C4555 1.400 . S
C4559 C4558 1.385 . S
C4560 C4558 1.478 . S
C4560 C4562 1.381 . S
C4560 C4566 1.383 . S
C4561 C4557 1.495 . S
C4561 H4567 0.959 . S
C4561 H4568 0.961 . S
C4561 H4569 0.960 . S
C4562 C4560 1.381 . S
C4562 C4563 1.394 . S
C4562 H4570 0.930 . S
C4563 C4562 1.394 . S
C4563 C4564 1.383 . S
C4563 H4571 0.929 . S
C4564 C4563 1.383 . S
C4564 C4565 1.377 . S
C4565 H4549 0.930 . S
C4565 C4564 1.377 . S
C4565 C4566 1.379 . S
C4566 H4550 0.931 . S
C4566 C4560 1.383 . S
C4566 C4565 1.379 . S
H4567 C4561 0.959 . S
H4568 C4561 0.961 . S
H4569 C4561 0.960 . S
H4570 C4562 0.930 . S
H4571 C4563 0.929 . S
H4572 C4580 0.929 . S
H4573 C4582 0.930 . S
H4574 C4584 0.930 . S
H4575 C4587 0.929 . S
H4576 C4590 0.930 . S
H4577 C4592 0.960 . S
H4578 C4592 0.960 . S
H4579 C4592 0.960 . S
C4580 H4572 0.929 . S
C4580 C4581 1.377 . S
C4580 C4582 1.384 . S
C4581 C4580 1.377 . S
C4581 C4587 1.390 . S
C4582 H4573 0.930 . S
C4582 C4580 1.384 . S
C4582 C4583 1.372 . S
C4583 C4582 1.372 . S
C4583 C4584 1.400 . S
C4583 C4588 1.490 . S
C4584 H4574 0.930 . S
C4584 C4583 1.400 . S
C4584 C4587 1.386 . S
H4585 C4601 0.930 . S
H4586 C4602 0.931 . S
C4587 H4575 0.929 . S
C4587 C4581 1.390 . S
C4587 C4584 1.386 . S
C4588 C4583 1.490 . S
C4588 C4590 1.395 . S
C4588 C4591 1.403 . S
H4589 C4595 0.930 . S
C4590 H4576 0.930 . S
C4590 C4588 1.395 . S
C4590 C4593 1.403 . S
C4591 C4588 1.403 . S
C4591 C4592 1.524 . S
C4591 C4595 1.400 . S
C4592 H4577 0.960 . S
C4592 H4578 0.960 . S
C4592 H4579 0.960 . S
C4592 C4591 1.524 . S
C4593 C4590 1.403 . S
C4593 C4594 1.392 . S
C4593 C4597 1.495 . S
C4594 C4593 1.392 . S
C4594 C4595 1.385 . S
C4594 C4596 1.478 . S
C4595 H4589 0.930 . S
C4595 C4591 1.400 . S
C4595 C4594 1.385 . S
C4596 C4594 1.478 . S
C4596 C4598 1.381 . S
C4596 C4602 1.383 . S
C4597 C4593 1.495 . S
C4597 H4603 0.959 . S
C4597 H4604 0.961 . S
C4597 H4605 0.960 . S
C4598 C4596 1.381 . S
C4598 C4599 1.394 . S
C4598 H4606 0.930 . S
C4599 C4598 1.394 . S
C4599 C4600 1.383 . S
C4599 H4607 0.929 . S
C4600 C4599 1.383 . S
C4600 C4601 1.377 . S
C4601 H4585 0.930 . S
C4601 C4600 1.377 . S
C4601 C4602 1.379 . S
C4602 H4586 0.931 . S
C4602 C4596 1.383 . S
C4602 C4601 1.379 . S
H4603 C4597 0.959 . S
H4604 C4597 0.961 . S
H4605 C4597 0.960 . S
H4606 C4598 0.930 . S
H4607 C4599 0.929 . S
H4608 C4616 0.929 . S
H4609 C4618 0.930 . S
H4610 C4620 0.930 . S
H4611 C4623 0.929 . S
H4612 C4626 0.930 . S
H4613 C4628 0.960 . S
H4614 C4628 0.960 . S
H4615 C4628 0.960 . S
C4616 H4608 0.929 . S
C4616 C4617 1.377 . S
C4616 C4618 1.384 . S
C4617 C4616 1.377 . S
C4617 C4623 1.390 . S
C4618 H4609 0.930 . S
C4618 C4616 1.384 . S
C4618 C4619 1.372 . S
C4619 C4618 1.372 . S
C4619 C4620 1.400 . S
C4619 C4624 1.490 . S
C4620 H4610 0.930 . S
C4620 C4619 1.400 . S
C4620 C4623 1.386 . S
H4621 C4637 0.930 . S
H4622 C4638 0.931 . S
C4623 H4611 0.929 . S
C4623 C4617 1.390 . S
C4623 C4620 1.386 . S
C4624 C4619 1.490 . S
C4624 C4626 1.395 . S
C4624 C4627 1.403 . S
H4625 C4631 0.930 . S
C4626 H4612 0.930 . S
C4626 C4624 1.395 . S
C4626 C4629 1.403 . S
C4627 C4624 1.403 . S
C4627 C4628 1.524 . S
C4627 C4631 1.400 . S
C4628 H4613 0.960 . S
C4628 H4614 0.960 . S
C4628 H4615 0.960 . S
C4628 C4627 1.524 . S
C4629 C4626 1.403 . S
C4629 C4630 1.392 . S
C4629 C4633 1.495 . S
C4630 C4629 1.392 . S
C4630 C4631 1.385 . S
C4630 C4632 1.478 . S
C4631 H4625 0.930 . S
C4631 C4627 1.400 . S
C4631 C4630 1.385 . S
C4632 C4630 1.478 . S
C4632 C4634 1.381 . S
C4632 C4638 1.383 . S
C4633 C4629 1.495 . S
C4633 H4639 0.959 . S
C4633 H4640 0.961 . S
C4633 H4641 0.960 . S
C4634 C4632 1.381 . S
C4634 C4635 1.394 . S
C4634 H4642 0.930 . S
C4635 C4634 1.394 . S
C4635 C4636 1.383 . S
C4635 H4643 0.929 . S
C4636 C4635 1.383 . S
C4636 C4637 1.377 . S
C4637 H4621 0.930 . S
C4637 C4636 1.377 . S
C4637 C4638 1.379 . S
C4638 H4622 0.931 . S
C4638 C4632 1.383 . S
C4638 C4637 1.379 . S
H4639 C4633 0.959 . S
H4640 C4633 0.961 . S
H4641 C4633 0.960 . S
H4642 C4634 0.930 . S
H4643 C4635 0.929 . S
H4644 C4652 0.929 . S
H4645 C4654 0.930 . S
H4646 C4656 0.930 . S
H4647 C4659 0.929 . S
H4648 C4662 0.930 . S
H4649 C4664 0.960 . S
H4650 C4664 0.960 . S
H4651 C4664 0.960 . S
C4652 H4644 0.929 . S
C4652 C4653 1.377 . S
C4652 C4654 1.384 . S
C4653 C4652 1.377 . S
C4653 C4659 1.390 . S
C4654 H4645 0.930 . S
C4654 C4652 1.384 . S
C4654 C4655 1.372 . S
C4655 C4654 1.372 . S
C4655 C4656 1.400 . S
C4655 C4660 1.490 . S
C4656 H4646 0.930 . S
C4656 C4655 1.400 . S
C4656 C4659 1.386 . S
H4657 C4673 0.930 . S
H4658 C4674 0.931 . S
C4659 H4647 0.929 . S
C4659 C4653 1.390 . S
C4659 C4656 1.386 . S
C4660 C4655 1.490 . S
C4660 C4662 1.395 . S
C4660 C4663 1.403 . S
H4661 C4667 0.930 . S
C4662 H4648 0.930 . S
C4662 C4660 1.395 . S
C4662 C4665 1.403 . S
C4663 C4660 1.403 . S
C4663 C4664 1.524 . S
C4663 C4667 1.400 . S
C4664 H4649 0.960 . S
C4664 H4650 0.960 . S
C4664 H4651 0.960 . S
C4664 C4663 1.524 . S
C4665 C4662 1.403 . S
C4665 C4666 1.392 . S
C4665 C4669 1.495 . S
C4666 C4665 1.392 . S
C4666 C4667 1.385 . S
C4666 C4668 1.478 . S
C4667 H4661 0.930 . S
C4667 C4663 1.400 . S
C4667 C4666 1.385 . S
C4668 C4666 1.478 . S
C4668 C4670 1.381 . S
C4668 C4674 1.383 . S
C4669 C4665 1.495 . S
C4669 H4675 0.959 . S
C4669 H4676 0.961 . S
C4669 H4677 0.960 . S
C4670 C4668 1.381 . S
C4670 C4671 1.394 . S
C4670 H4678 0.930 . S
C4671 C4670 1.394 . S
C4671 C4672 1.383 . S
C4671 H4679 0.929 . S
C4672 C4671 1.383 . S
C4672 C4673 1.377 . S
C4673 H4657 0.930 . S
C4673 C4672 1.377 . S
C4673 C4674 1.379 . S
C4674 H4658 0.931 . S
C4674 C4668 1.383 . S
C4674 C4673 1.379 . S
H4675 C4669 0.959 . S
H4676 C4669 0.961 . S
H4677 C4669 0.960 . S
H4678 C4670 0.930 . S
H4679 C4671 0.929 . S
H4680 C4688 0.929 . S
H4681 C4690 0.930 . S
H4682 C4692 0.930 . S
H4683 C4695 0.929 . S
H4684 C4698 0.930 . S
H4685 C4700 0.960 . S
H4686 C4700 0.960 . S
H4687 C4700 0.960 . S
C4688 H4680 0.929 . S
C4688 C4689 1.377 . S
C4688 C4690 1.384 . S
C4689 C4688 1.377 . S
C4689 C4695 1.390 . S
C4690 H4681 0.930 . S
C4690 C4688 1.384 . S
C4690 C4691 1.372 . S
C4691 C4690 1.372 . S
C4691 C4692 1.400 . S
C4691 C4696 1.490 . S
C4692 H4682 0.930 . S
C4692 C4691 1.400 . S
C4692 C4695 1.386 . S
H4693 C4709 0.930 . S
H4694 C4710 0.931 . S
C4695 H4683 0.929 . S
C4695 C4689 1.390 . S
C4695 C4692 1.386 . S
C4696 C4691 1.490 . S
C4696 C4698 1.395 . S
C4696 C4699 1.403 . S
H4697 C4703 0.930 . S
C4698 H4684 0.930 . S
C4698 C4696 1.395 . S
C4698 C4701 1.403 . S
C4699 C4696 1.403 . S
C4699 C4700 1.524 . S
C4699 C4703 1.400 . S
C4700 H4685 0.960 . S
C4700 H4686 0.960 . S
C4700 H4687 0.960 . S
C4700 C4699 1.524 . S
C4701 C4698 1.403 . S
C4701 C4702 1.392 . S
C4701 C4705 1.495 . S
C4702 C4701 1.392 . S
C4702 C4703 1.385 . S
C4702 C4704 1.478 . S
C4703 H4697 0.930 . S
C4703 C4699 1.400 . S
C4703 C4702 1.385 . S
C4704 C4702 1.478 . S
C4704 C4706 1.381 . S
C4704 C4710 1.383 . S
C4705 C4701 1.495 . S
C4705 H4711 0.959 . S
C4705 H4712 0.961 . S
C4705 H4713 0.960 . S
C4706 C4704 1.381 . S
C4706 C4707 1.394 . S
C4706 H4714 0.930 . S
C4707 C4706 1.394 . S
C4707 C4708 1.383 . S
C4707 H4715 0.929 . S
C4708 C4707 1.383 . S
C4708 C4709 1.377 . S
C4709 H4693 0.930 . S
C4709 C4708 1.377 . S
C4709 C4710 1.379 . S
C4710 H4694 0.931 . S
C4710 C4704 1.383 . S
C4710 C4709 1.379 . S
H4711 C4705 0.959 . S
H4712 C4705 0.961 . S
H4713 C4705 0.960 . S
H4714 C4706 0.930 . S
H4715 C4707 0.929 . S
H4716 C4724 0.929 . S
H4717 C4726 0.930 . S
H4718 C4728 0.930 . S
H4719 C4731 0.929 . S
H4720 C4734 0.930 . S
H4721 C4736 0.960 . S
H4722 C4736 0.960 . S
H4723 C4736 0.960 . S
C4724 H4716 0.929 . S
C4724 C4725 1.377 . S
C4724 C4726 1.384 . S
C4725 C4724 1.377 . S
C4725 C4731 1.390 . S
C4726 H4717 0.930 . S
C4726 C4724 1.384 . S
C4726 C4727 1.372 . S
C4727 C4726 1.372 . S
C4727 C4728 1.400 . S
C4727 C4732 1.490 . S
C4728 H4718 0.930 . S
C4728 C4727 1.400 . S
C4728 C4731 1.386 . S
H4729 C4745 0.930 . S
H4730 C4746 0.931 . S
C4731 H4719 0.929 . S
C4731 C4725 1.390 . S
C4731 C4728 1.386 . S
C4732 C4727 1.490 . S
C4732 C4734 1.395 . S
C4732 C4735 1.403 . S
H4733 C4739 0.930 . S
C4734 H4720 0.930 . S
C4734 C4732 1.395 . S
C4734 C4737 1.403 . S
C4735 C4732 1.403 . S
C4735 C4736 1.524 . S
C4735 C4739 1.400 . S
C4736 H4721 0.960 . S
C4736 H4722 0.960 . S
C4736 H4723 0.960 . S
C4736 C4735 1.524 . S
C4737 C4734 1.403 . S
C4737 C4738 1.392 . S
C4737 C4741 1.495 . S
C4738 C4737 1.392 . S
C4738 C4739 1.385 . S
C4738 C4740 1.478 . S
C4739 H4733 0.930 . S
C4739 C4735 1.400 . S
C4739 C4738 1.385 . S
C4740 C4738 1.478 . S
C4740 C4742 1.381 . S
C4740 C4746 1.383 . S
C4741 C4737 1.495 . S
C4741 H4747 0.959 . S
C4741 H4748 0.961 . S
C4741 H4749 0.960 . S
C4742 C4740 1.381 . S
C4742 C4743 1.394 . S
C4742 H4750 0.930 . S
C4743 C4742 1.394 . S
C4743 C4744 1.383 . S
C4743 H4751 0.929 . S
C4744 C4743 1.383 . S
C4744 C4745 1.377 . S
C4745 H4729 0.930 . S
C4745 C4744 1.377 . S
C4745 C4746 1.379 . S
C4746 H4730 0.931 . S
C4746 C4740 1.383 . S
C4746 C4745 1.379 . S
H4747 C4741 0.959 . S
H4748 C4741 0.961 . S
H4749 C4741 0.960 . S
H4750 C4742 0.930 . S
H4751 C4743 0.929 . S
H4752 C4760 0.929 . S
H4753 C4762 0.930 . S
H4754 C4764 0.930 . S
H4755 C4767 0.929 . S
H4756 C4770 0.930 . S
H4757 C4772 0.960 . S
H4758 C4772 0.960 . S
H4759 C4772 0.960 . S
C4760 H4752 0.929 . S
C4760 C4761 1.377 . S
C4760 C4762 1.384 . S
C4761 C4760 1.377 . S
C4761 C4767 1.390 . S
C4762 H4753 0.930 . S
C4762 C4760 1.384 . S
C4762 C4763 1.372 . S
C4763 C4762 1.372 . S
C4763 C4764 1.400 . S
C4763 C4768 1.490 . S
C4764 H4754 0.930 . S
C4764 C4763 1.400 . S
C4764 C4767 1.386 . S
H4765 C4781 0.930 . S
H4766 C4782 0.931 . S
C4767 H4755 0.929 . S
C4767 C4761 1.390 . S
C4767 C4764 1.386 . S
C4768 C4763 1.490 . S
C4768 C4770 1.395 . S
C4768 C4771 1.403 . S
H4769 C4775 0.930 . S
C4770 H4756 0.930 . S
C4770 C4768 1.395 . S
C4770 C4773 1.403 . S
C4771 C4768 1.403 . S
C4771 C4772 1.524 . S
C4771 C4775 1.400 . S
C4772 H4757 0.960 . S
C4772 H4758 0.960 . S
C4772 H4759 0.960 . S
C4772 C4771 1.524 . S
C4773 C4770 1.403 . S
C4773 C4774 1.392 . S
C4773 C4777 1.495 . S
C4774 C4773 1.392 . S
C4774 C4775 1.385 . S
C4774 C4776 1.478 . S
C4775 H4769 0.930 . S
C4775 C4771 1.400 . S
C4775 C4774 1.385 . S
C4776 C4774 1.478 . S
C4776 C4778 1.381 . S
C4776 C4782 1.383 . S
C4777 C4773 1.495 . S
C4777 H4783 0.959 . S
C4777 H4784 0.961 . S
C4777 H4785 0.960 . S
C4778 C4776 1.381 . S
C4778 C4779 1.394 . S
C4778 H4786 0.930 . S
C4779 C4778 1.394 . S
C4779 C4780 1.383 . S
C4779 H4787 0.929 . S
C4780 C4779 1.383 . S
C4780 C4781 1.377 . S
C4781 H4765 0.930 . S
C4781 C4780 1.377 . S
C4781 C4782 1.379 . S
C4782 H4766 0.931 . S
C4782 C4776 1.383 . S
C4782 C4781 1.379 . S
H4783 C4777 0.959 . S
H4784 C4777 0.961 . S
H4785 C4777 0.960 . S
H4786 C4778 0.930 . S
H4787 C4779 0.929 . S
H4788 C4796 0.929 . S
H4789 C4798 0.930 . S
H4790 C4800 0.930 . S
H4791 C4803 0.929 . S
H4792 C4806 0.930 . S
H4793 C4808 0.960 . S
H4794 C4808 0.960 . S
H4795 C4808 0.960 . S
C4796 H4788 0.929 . S
C4796 C4797 1.377 . S
C4796 C4798 1.384 . S
C4797 C4796 1.377 . S
C4797 C4803 1.390 . S
C4798 H4789 0.930 . S
C4798 C4796 1.384 . S
C4798 C4799 1.372 . S
C4799 C4798 1.372 . S
C4799 C4800 1.400 . S
C4799 C4804 1.490 . S
C4800 H4790 0.930 . S
C4800 C4799 1.400 . S
C4800 C4803 1.386 . S
H4801 C4817 0.930 . S
H4802 C4818 0.931 . S
C4803 H4791 0.929 . S
C4803 C4797 1.390 . S
C4803 C4800 1.386 . S
C4804 C4799 1.490 . S
C4804 C4806 1.395 . S
C4804 C4807 1.403 . S
H4805 C4811 0.930 . S
C4806 H4792 0.930 . S
C4806 C4804 1.395 . S
C4806 C4809 1.403 . S
C4807 C4804 1.403 . S
C4807 C4808 1.524 . S
C4807 C4811 1.400 . S
C4808 H4793 0.960 . S
C4808 H4794 0.960 . S
C4808 H4795 0.960 . S
C4808 C4807 1.524 . S
C4809 C4806 1.403 . S
C4809 C4810 1.392 . S
C4809 C4813 1.495 . S
C4810 C4809 1.392 . S
C4810 C4811 1.385 . S
C4810 C4812 1.478 . S
C4811 H4805 0.930 . S
C4811 C4807 1.400 . S
C4811 C4810 1.385 . S
C4812 C4810 1.478 . S
C4812 C4814 1.381 . S
C4812 C4818 1.383 . S
C4813 C4809 1.495 . S
C4813 H4819 0.959 . S
C4813 H4820 0.961 . S
C4813 H4821 0.960 . S
C4814 C4812 1.381 . S
C4814 C4815 1.394 . S
C4814 H4822 0.930 . S
C4815 C4814 1.394 . S
C4815 C4816 1.383 . S
C4815 H4823 0.929 . S
C4816 C4815 1.383 . S
C4816 C4817 1.377 . S
C4817 H4801 0.930 . S
C4817 C4816 1.377 . S
C4817 C4818 1.379 . S
C4818 H4802 0.931 . S
C4818 C4812 1.383 . S
C4818 C4817 1.379 . S
H4819 C4813 0.959 . S
H4820 C4813 0.961 . S
H4821 C4813 0.960 . S
H4822 C4814 0.930 . S
H4823 C4815 0.929 . S
H4824 C4832 0.929 . S
H4825 C4834 0.930 . S
H4826 C4836 0.930 . S
H4827 C4839 0.929 . S
H4828 C4842 0.930 . S
H4829 C4844 0.960 . S
H4830 C4844 0.960 . S
H4831 C4844 0.960 . S
C4832 H4824 0.929 . S
C4832 C4833 1.377 . S
C4832 C4834 1.384 . S
C4833 C4832 1.377 . S
C4833 C4839 1.390 . S
C4834 H4825 0.930 . S
C4834 C4832 1.384 . S
C4834 C4835 1.372 . S
C4835 C4834 1.372 . S
C4835 C4836 1.400 . S
C4835 C4840 1.490 . S
C4836 H4826 0.930 . S
C4836 C4835 1.400 . S
C4836 C4839 1.386 . S
H4837 C4853 0.930 . S
H4838 C4854 0.931 . S
C4839 H4827 0.929 . S
C4839 C4833 1.390 . S
C4839 C4836 1.386 . S
C4840 C4835 1.490 . S
C4840 C4842 1.395 . S
C4840 C4843 1.403 . S
H4841 C4847 0.930 . S
C4842 H4828 0.930 . S
C4842 C4840 1.395 . S
C4842 C4845 1.403 . S
C4843 C4840 1.403 . S
C4843 C4844 1.524 . S
C4843 C4847 1.400 . S
C4844 H4829 0.960 . S
C4844 H4830 0.960 . S
C4844 H4831 0.960 . S
C4844 C4843 1.524 . S
C4845 C4842 1.403 . S
C4845 C4846 1.392 . S
C4845 C4849 1.495 . S
C4846 C4845 1.392 . S
C4846 C4847 1.385 . S
C4846 C4848 1.478 . S
C4847 H4841 0.930 . S
C4847 C4843 1.400 . S
C4847 C4846 1.385 . S
C4848 C4846 1.478 . S
C4848 C4850 1.381 . S
C4848 C4854 1.383 . S
C4849 C4845 1.495 . S
C4849 H4855 0.959 . S
C4849 H4856 0.961 . S
C4849 H4857 0.960 . S
C4850 C4848 1.381 . S
C4850 C4851 1.394 . S
C4850 H4858 0.930 . S
C4851 C4850 1.394 . S
C4851 C4852 1.383 . S
C4851 H4859 0.929 . S
C4852 C4851 1.383 . S
C4852 C4853 1.377 . S
C4853 H4837 0.930 . S
C4853 C4852 1.377 . S
C4853 C4854 1.379 . S
C4854 H4838 0.931 . S
C4854 C4848 1.383 . S
C4854 C4853 1.379 . S
H4855 C4849 0.959 . S
H4856 C4849 0.961 . S
H4857 C4849 0.960 . S
H4858 C4850 0.930 . S
H4859 C4851 0.929 . S
H4860 C4868 0.929 . S
H4861 C4870 0.930 . S
H4862 C4872 0.930 . S
H4863 C4875 0.929 . S
H4864 C4878 0.930 . S
H4865 C4880 0.960 . S
H4866 C4880 0.960 . S
H4867 C4880 0.960 . S
C4868 H4860 0.929 . S
C4868 C4869 1.377 . S
C4868 C4870 1.384 . S
C4869 C4868 1.377 . S
C4869 C4875 1.390 . S
C4870 H4861 0.930 . S
C4870 C4868 1.384 . S
C4870 C4871 1.372 . S
C4871 C4870 1.372 . S
C4871 C4872 1.400 . S
C4871 C4876 1.490 . S
C4872 H4862 0.930 . S
C4872 C4871 1.400 . S
C4872 C4875 1.386 . S
H4873 C4889 0.930 . S
H4874 C4890 0.931 . S
C4875 H4863 0.929 . S
C4875 C4869 1.390 . S
C4875 C4872 1.386 . S
C4876 C4871 1.490 . S
C4876 C4878 1.395 . S
C4876 C4879 1.403 . S
H4877 C4883 0.930 . S
C4878 H4864 0.930 . S
C4878 C4876 1.395 . S
C4878 C4881 1.403 . S
C4879 C4876 1.403 . S
C4879 C4880 1.524 . S
C4879 C4883 1.400 . S
C4880 H4865 0.960 . S
C4880 H4866 0.960 . S
C4880 H4867 0.960 . S
C4880 C4879 1.524 . S
C4881 C4878 1.403 . S
C4881 C4882 1.392 . S
C4881 C4885 1.495 . S
C4882 C4881 1.392 . S
C4882 C4883 1.385 . S
C4882 C4884 1.478 . S
C4883 H4877 0.930 . S
C4883 C4879 1.400 . S
C4883 C4882 1.385 . S
C4884 C4882 1.478 . S
C4884 C4886 1.381 . S
C4884 C4890 1.383 . S
C4885 C4881 1.495 . S
C4885 H4891 0.959 . S
C4885 H4892 0.961 . S
C4885 H4893 0.960 . S
C4886 C4884 1.381 . S
C4886 C4887 1.394 . S
C4886 H4894 0.930 . S
C4887 C4886 1.394 . S
C4887 C4888 1.383 . S
C4887 H4895 0.929 . S
C4888 C4887 1.383 . S
C4888 C4889 1.377 . S
C4889 H4873 0.930 . S
C4889 C4888 1.377 . S
C4889 C4890 1.379 . S
C4890 H4874 0.931 . S
C4890 C4884 1.383 . S
C4890 C4889 1.379 . S
H4891 C4885 0.959 . S
H4892 C4885 0.961 . S
H4893 C4885 0.960 . S
H4894 C4886 0.930 . S
H4895 C4887 0.929 . S
H4896 C4904 0.929 . S
H4897 C4906 0.930 . S
H4898 C4908 0.930 . S
H4899 C4911 0.929 . S
H4900 C4914 0.930 . S
H4901 C4916 0.960 . S
H4902 C4916 0.960 . S
H4903 C4916 0.960 . S
C4904 H4896 0.929 . S
C4904 C4905 1.377 . S
C4904 C4906 1.384 . S
C4905 C4904 1.377 . S
C4905 C4911 1.390 . S
C4906 H4897 0.930 . S
C4906 C4904 1.384 . S
C4906 C4907 1.372 . S
C4907 C4906 1.372 . S
C4907 C4908 1.400 . S
C4907 C4912 1.490 . S
C4908 H4898 0.930 . S
C4908 C4907 1.400 . S
C4908 C4911 1.386 . S
H4909 C4925 0.930 . S
H4910 C4926 0.931 . S
C4911 H4899 0.929 . S
C4911 C4905 1.390 . S
C4911 C4908 1.386 . S
C4912 C4907 1.490 . S
C4912 C4914 1.395 . S
C4912 C4915 1.403 . S
H4913 C4919 0.930 . S
C4914 H4900 0.930 . S
C4914 C4912 1.395 . S
C4914 C4917 1.403 . S
C4915 C4912 1.403 . S
C4915 C4916 1.524 . S
C4915 C4919 1.400 . S
C4916 H4901 0.960 . S
C4916 H4902 0.960 . S
C4916 H4903 0.960 . S
C4916 C4915 1.524 . S
C4917 C4914 1.403 . S
C4917 C4918 1.392 . S
C4917 C4921 1.495 . S
C4918 C4917 1.392 . S
C4918 C4919 1.385 . S
C4918 C4920 1.478 . S
C4919 H4913 0.930 . S
C4919 C4915 1.400 . S
C4919 C4918 1.385 . S
C4920 C4918 1.478 . S
C4920 C4922 1.381 . S
C4920 C4926 1.383 . S
C4921 C4917 1.495 . S
C4921 H4927 0.959 . S
C4921 H4928 0.961 . S
C4921 H4929 0.960 . S
C4922 C4920 1.381 . S
C4922 C4923 1.394 . S
C4922 H4930 0.930 . S
C4923 C4922 1.394 . S
C4923 C4924 1.383 . S
C4923 H4931 0.929 . S
C4924 C4923 1.383 . S
C4924 C4925 1.377 . S
C4925 H4909 0.930 . S
C4925 C4924 1.377 . S
C4925 C4926 1.379 . S
C4926 H4910 0.931 . S
C4926 C4920 1.383 . S
C4926 C4925 1.379 . S
H4927 C4921 0.959 . S
H4928 C4921 0.961 . S
H4929 C4921 0.960 . S
H4930 C4922 0.930 . S
H4931 C4923 0.929 . S
H4932 C4940 0.929 . S
H4933 C4942 0.930 . S
H4934 C4944 0.930 . S
H4935 C4947 0.929 . S
H4936 C4950 0.930 . S
H4937 C4952 0.960 . S
H4938 C4952 0.960 . S
H4939 C4952 0.960 . S
C4940 H4932 0.929 . S
C4940 C4941 1.377 . S
C4940 C4942 1.384 . S
C4941 C4940 1.377 . S
C4941 C4947 1.390 . S
C4942 H4933 0.930 . S
C4942 C4940 1.384 . S
C4942 C4943 1.372 . S
C4943 C4942 1.372 . S
C4943 C4944 1.400 . S
C4943 C4948 1.490 . S
C4944 H4934 0.930 . S
C4944 C4943 1.400 . S
C4944 C4947 1.386 . S
H4945 C4961 0.930 1_556 S
H4946 C4962 0.931 1_556 S
C4947 H4935 0.929 . S
C4947 C4941 1.390 . S
C4947 C4944 1.386 . S
C4948 C4943 1.490 . S
C4948 C4950 1.395 . S
C4948 C4951 1.403 . S
H4949 C4955 0.930 . S
C4950 H4936 0.930 . S
C4950 C4948 1.395 . S
C4950 C4953 1.403 . S
C4951 C4948 1.403 . S
C4951 C4952 1.524 . S
C4951 C4955 1.400 . S
C4952 H4937 0.960 . S
C4952 H4938 0.960 . S
C4952 H4939 0.960 . S
C4952 C4951 1.524 . S
C4953 C4950 1.403 . S
C4953 C4954 1.392 . S
C4953 C4957 1.495 . S
C4954 C4953 1.392 . S
C4954 C4955 1.385 . S
C4954 C4956 1.478 . S
C4955 H4949 0.930 . S
C4955 C4951 1.400 . S
C4955 C4954 1.385 . S
C4956 C4954 1.478 . S
C4956 C4958 1.381 . S
C4956 C4962 1.383 . S
C4957 C4953 1.495 . S
C4957 H4963 0.959 . S
C4957 H4964 0.961 . S
C4957 H4965 0.960 . S
C4958 C4956 1.381 . S
C4958 C4959 1.394 . S
C4958 H4966 0.930 . S
C4959 C4958 1.394 . S
C4959 C4960 1.383 . S
C4959 H4967 0.929 . S
C4960 C4959 1.383 . S
C4960 C4961 1.377 . S
C4961 H4945 0.930 1_554 S
C4961 C4960 1.377 . S
C4961 C4962 1.379 . S
C4962 H4946 0.931 1_554 S
C4962 C4956 1.383 . S
C4962 C4961 1.379 . S
H4963 C4957 0.959 . S
H4964 C4957 0.961 . S
H4965 C4957 0.960 . S
H4966 C4958 0.930 . S
H4967 C4959 0.929 . S
H4968 C4976 0.929 . S
H4969 C4978 0.930 . S
H4970 C4980 0.930 . S
H4971 C4983 0.929 . S
H4972 C4986 0.930 . S
H4973 C4988 0.960 . S
H4974 C4988 0.960 . S
H4975 C4988 0.960 . S
C4976 H4968 0.929 . S
C4976 C4977 1.377 . S
C4976 C4978 1.384 . S
C4977 C4976 1.377 . S
C4977 C4983 1.390 . S
C4978 H4969 0.930 . S
C4978 C4976 1.384 . S
C4978 C4979 1.372 . S
C4979 C4978 1.372 . S
C4979 C4980 1.400 . S
C4979 C4984 1.490 . S
C4980 H4970 0.930 . S
C4980 C4979 1.400 . S
C4980 C4983 1.386 . S
H4981 C4997 0.930 . S
H4982 C4998 0.931 . S
C4983 H4971 0.929 . S
C4983 C4977 1.390 . S
C4983 C4980 1.386 . S
C4984 C4979 1.490 . S
C4984 C4986 1.395 . S
C4984 C4987 1.403 . S
H4985 C4991 0.930 . S
C4986 H4972 0.930 . S
C4986 C4984 1.395 . S
C4986 C4989 1.403 . S
C4987 C4984 1.403 . S
C4987 C4988 1.524 . S
C4987 C4991 1.400 . S
C4988 H4973 0.960 . S
C4988 H4974 0.960 . S
C4988 H4975 0.960 . S
C4988 C4987 1.524 . S
C4989 C4986 1.403 . S
C4989 C4990 1.392 . S
C4989 C4993 1.495 . S
C4990 C4989 1.392 . S
C4990 C4991 1.385 . S
C4990 C4992 1.478 . S
C4991 H4985 0.930 . S
C4991 C4987 1.400 . S
C4991 C4990 1.385 . S
C4992 C4990 1.478 . S
C4992 C4994 1.381 . S
C4992 C4998 1.383 . S
C4993 C4989 1.495 . S
C4993 H4999 0.959 . S
C4993 H5000 0.961 . S
C4993 H5001 0.960 . S
C4994 C4992 1.381 . S
C4994 C4995 1.394 . S
C4994 H5002 0.930 . S
C4995 C4994 1.394 . S
C4995 C4996 1.383 . S
C4995 H5003 0.929 . S
C4996 C4995 1.383 . S
C4996 C4997 1.377 . S
C4997 H4981 0.930 . S
C4997 C4996 1.377 . S
C4997 C4998 1.379 . S
C4998 H4982 0.931 . S
C4998 C4992 1.383 . S
C4998 C4997 1.379 . S
H4999 C4993 0.959 . S
H5000 C4993 0.961 . S
H5001 C4993 0.960 . S
H5002 C4994 0.930 . S
H5003 C4995 0.929 . S
H5004 C5012 0.929 . S
H5005 C5014 0.930 . S
H5006 C5016 0.930 . S
H5007 C5019 0.929 . S
H5008 C5022 0.930 . S
H5009 C5024 0.960 1_556 S
H5010 C5024 0.960 1_556 S
H5011 C5024 0.960 . S
C5012 H5004 0.929 . S
C5012 C5013 1.377 . S
C5012 C5014 1.384 . S
C5013 C5012 1.377 . S
C5013 C5019 1.390 . S
C5014 H5005 0.930 . S
C5014 C5012 1.384 . S
C5014 C5015 1.372 . S
C5015 C5014 1.372 . S
C5015 C5016 1.400 . S
C5015 C5020 1.490 . S
C5016 H5006 0.930 . S
C5016 C5015 1.400 . S
C5016 C5019 1.386 . S
H5017 C5033 0.930 . S
H5018 C5034 0.931 . S
C5019 H5007 0.929 . S
C5019 C5013 1.390 . S
C5019 C5016 1.386 . S
C5020 C5015 1.490 . S
C5020 C5022 1.395 . S
C5020 C5023 1.403 . S
H5021 C5027 0.930 . S
C5022 H5008 0.930 . S
C5022 C5020 1.395 . S
C5022 C5025 1.403 . S
C5023 C5020 1.403 . S
C5023 C5024 1.524 . S
C5023 C5027 1.400 . S
C5024 H5009 0.960 1_554 S
C5024 H5010 0.960 1_554 S
C5024 H5011 0.960 . S
C5024 C5023 1.524 . S
C5025 C5022 1.403 . S
C5025 C5026 1.392 . S
C5025 C5029 1.495 . S
C5026 C5025 1.392 . S
C5026 C5027 1.385 . S
C5026 C5028 1.478 . S
C5027 H5021 0.930 . S
C5027 C5023 1.400 . S
C5027 C5026 1.385 . S
C5028 C5026 1.478 . S
C5028 C5030 1.381 . S
C5028 C5034 1.383 . S
C5029 C5025 1.495 . S
C5029 H5035 0.959 . S
C5029 H5036 0.961 . S
C5029 H5037 0.960 . S
C5030 C5028 1.381 . S
C5030 C5031 1.394 . S
C5030 H5038 0.930 . S
C5031 C5030 1.394 . S
C5031 C5032 1.383 . S
C5031 H5039 0.929 . S
C5032 C5031 1.383 . S
C5032 C5033 1.377 . S
C5033 H5017 0.930 . S
C5033 C5032 1.377 . S
C5033 C5034 1.379 . S
C5034 H5018 0.931 . S
C5034 C5028 1.383 . S
C5034 C5033 1.379 . S
H5035 C5029 0.959 . S
H5036 C5029 0.961 . S
H5037 C5029 0.960 . S
H5038 C5030 0.930 . S
H5039 C5031 0.929 . S
H5040 C5048 0.929 . S
H5041 C5050 0.930 . S
H5042 C5052 0.930 . S
H5043 C5055 0.929 . S
H5044 C5058 0.930 . S
H5045 C5060 0.960 . S
H5046 C5060 0.960 . S
H5047 C5060 0.960 . S
C5048 H5040 0.929 . S
C5048 C5049 1.377 . S
C5048 C5050 1.384 . S
C5049 C5048 1.377 . S
C5049 C5055 1.390 . S
C5050 H5041 0.930 . S
C5050 C5048 1.384 . S
C5050 C5051 1.372 . S
C5051 C5050 1.372 . S
C5051 C5052 1.400 . S
C5051 C5056 1.490 . S
C5052 H5042 0.930 . S
C5052 C5051 1.400 . S
C5052 C5055 1.386 . S
H5053 C5069 0.930 . S
H5054 C5070 0.931 . S
C5055 H5043 0.929 . S
C5055 C5049 1.390 . S
C5055 C5052 1.386 . S
C5056 C5051 1.490 . S
C5056 C5058 1.395 . S
C5056 C5059 1.403 . S
H5057 C5063 0.930 . S
C5058 H5044 0.930 . S
C5058 C5056 1.395 . S
C5058 C5061 1.403 . S
C5059 C5056 1.403 . S
C5059 C5060 1.524 . S
C5059 C5063 1.400 . S
C5060 H5045 0.960 . S
C5060 H5046 0.960 . S
C5060 H5047 0.960 . S
C5060 C5059 1.524 . S
C5061 C5058 1.403 . S
C5061 C5062 1.392 . S
C5061 C5065 1.495 . S
C5062 C5061 1.392 . S
C5062 C5063 1.385 . S
C5062 C5064 1.478 . S
C5063 H5057 0.930 . S
C5063 C5059 1.400 . S
C5063 C5062 1.385 . S
C5064 C5062 1.478 . S
C5064 C5066 1.381 . S
C5064 C5070 1.383 . S
C5065 C5061 1.495 . S
C5065 H5071 0.959 . S
C5065 H5072 0.961 . S
C5065 H5073 0.960 . S
C5066 C5064 1.381 . S
C5066 C5067 1.394 . S
C5066 H5074 0.930 . S
C5067 C5066 1.394 . S
C5067 C5068 1.383 . S
C5067 H5075 0.929 . S
C5068 C5067 1.383 . S
C5068 C5069 1.377 . S
C5069 H5053 0.930 . S
C5069 C5068 1.377 . S
C5069 C5070 1.379 . S
C5070 H5054 0.931 . S
C5070 C5064 1.383 . S
C5070 C5069 1.379 . S
H5071 C5065 0.959 . S
H5072 C5065 0.961 . S
H5073 C5065 0.960 . S
H5074 C5066 0.930 . S
H5075 C5067 0.929 . S
H5076 C5084 0.929 . S
H5077 C5086 0.930 . S
H5078 C5088 0.930 . S
H5079 C5091 0.929 . S
H5080 C5094 0.930 . S
H5081 C5096 0.960 . S
H5082 C5096 0.960 . S
H5083 C5096 0.960 . S
C5084 H5076 0.929 . S
C5084 C5085 1.377 . S
C5084 C5086 1.384 . S
C5085 C5084 1.377 . S
C5085 C5091 1.390 . S
C5086 H5077 0.930 . S
C5086 C5084 1.384 . S
C5086 C5087 1.372 . S
C5087 C5086 1.372 . S
C5087 C5088 1.400 . S
C5087 C5092 1.490 . S
C5088 H5078 0.930 . S
C5088 C5087 1.400 . S
C5088 C5091 1.386 . S
H5089 C5105 0.930 . S
H5090 C5106 0.931 . S
C5091 H5079 0.929 . S
C5091 C5085 1.390 . S
C5091 C5088 1.386 . S
C5092 C5087 1.490 . S
C5092 C5094 1.395 . S
C5092 C5095 1.403 . S
H5093 C5099 0.930 . S
C5094 H5080 0.930 . S
C5094 C5092 1.395 . S
C5094 C5097 1.403 . S
C5095 C5092 1.403 . S
C5095 C5096 1.524 . S
C5095 C5099 1.400 . S
C5096 H5081 0.960 . S
C5096 H5082 0.960 . S
C5096 H5083 0.960 . S
C5096 C5095 1.524 . S
C5097 C5094 1.403 . S
C5097 C5098 1.392 . S
C5097 C5101 1.495 . S
C5098 C5097 1.392 . S
C5098 C5099 1.385 . S
C5098 C5100 1.478 . S
C5099 H5093 0.930 . S
C5099 C5095 1.400 . S
C5099 C5098 1.385 . S
C5100 C5098 1.478 . S
C5100 C5102 1.381 . S
C5100 C5106 1.383 . S
C5101 C5097 1.495 . S
C5101 H5107 0.959 . S
C5101 H5108 0.961 . S
C5101 H5109 0.960 . S
C5102 C5100 1.381 . S
C5102 C5103 1.394 . S
C5102 H5110 0.930 . S
C5103 C5102 1.394 . S
C5103 C5104 1.383 . S
C5103 H5111 0.929 . S
C5104 C5103 1.383 . S
C5104 C5105 1.377 . S
C5105 H5089 0.930 . S
C5105 C5104 1.377 . S
C5105 C5106 1.379 . S
C5106 H5090 0.931 . S
C5106 C5100 1.383 . S
C5106 C5105 1.379 . S
H5107 C5101 0.959 . S
H5108 C5101 0.961 . S
H5109 C5101 0.960 . S
H5110 C5102 0.930 . S
H5111 C5103 0.929 . S
C1665 C101 1.856 . S
C1684 C368 1.839 . S
C1701 C57 1.714 . S
C1720 C470 1.710 . S
C1737 C70 1.600 . S
C1756 C536 1.600 . S
C1792 C622 1.433 . S
C1773 C82 1.539 . S
C1809 C23 1.536 . S
C1828 C706 1.469 . S
C1864 C788 1.597 . S
C1845 C29 1.602 . S
C1900 C890 1.709 . S
C1881 C49 1.707 . S
C1917 C10 1.855 . S
C1936 C956 1.842 . S
C1972 C386 1.446 . S
C1953 C218 1.465 . S
C1989 C226 0.842 . S
C2008 C454 0.838 . S
C2044 C554 1.014 . S
C2025 C251 1.026 . S
C2080 C620 1.489 . S
C2061 C159 1.489 1_556 S
C2097 C211 1.488 . S
C2116 C704 1.474 . S
C2152 C806 1.049 . S
C2133 C225 1.037 . S
C2188 C874 0.862 . S
C2169 C252 0.838 . S
C2224 C974 1.407 . S
C2205 C166 1.462 . S
C2260 C370 0.929 . S
C2241 C147 0.899 . S
C2277 C263 1.572 . S
C2296 C1058 1.581 . S
C2332 C1126 1.268 . S
C2313 C309 1.372 . S
C2368 C1208 0.638 . S
C2349 C291 0.651 . S
C2385 C108 0.908 . S
C2404 C958 0.833 . S
C2421 C121 1.371 . S
C2440 C538 1.322 . S
C2457 C302 1.583 . S
C2476 C1310 1.570 . S
C2512 C1376 0.639 . S
C2493 C276 0.651 . S
C2548 C379 2.175 1_565 S
C2529 C55 2.167 . S
C2584 C1383 2.089 . S
C2565 C96 2.108 . S
C2601 C88 2.023 . S
C2620 C547 2.024 . S
C2637 C75 1.801 . S
C2656 C1305 1.679 . S
C2692 C717 1.688 . S
C2673 C4 1.801 . S
C2709 C44 2.031 . S
C2728 C1135 2.035 . S
C2764 C879 2.091 1_565 S
C2745 C31 2.100 . S
C2800 C1471 2.175 . S
C2781 C18 2.165 . S
C2836 C375 1.790 1_556 S
C2817 C133 1.843 . S
C2872 C1389 1.075 . S
C2853 C296 1.135 . S
C2889 C107 1.354 . S
C2908 C543 1.342 . S
C2925 C264 1.872 . S
C2944 C1303 1.868 . S
C2961 C140 1.873 . S
C2980 C715 1.866 . S
C3016 C1131 1.317 . S
C2997 C289 1.358 . S
C3033 C114 1.136 . S
C3052 C885 1.008 . S
C3069 C265 1.846 . S
C3088 C1467 1.798 . S
C3105 C179 1.062 . S
C3124 C381 1.002 . S
C3141 C161 1.905 . S
C3160 C1047 1.865 . S
C3177 C244 1.555 . S
C3196 C801 1.420 . S
C3213 C224 1.075 . S
C3232 C1219 1.067 . S
C3268 C1473 0.955 . S
C3249 C257 1.003 1_565 S
C3285 C199 1.554 . S
C3304 C549 1.425 . S
C3340 C627 1.877 . S
C3321 C237 1.903 . S
C3376 C463 1.078 . S
C3357 C185 1.076 . S
C3393 C69 1.855 . S
C3412 C1544 1.851 . S
C3448 C1394 1.724 . S
C3429 C83 1.715 . S
C3465 C94 1.597 . S
C3484 C1628 1.601 . S
C3501 C56 1.499 1_655 S
C3520 C1294 1.429 . S
C3537 C42 1.550 . S
C3556 C1042 1.421 . S
C3592 C1124 1.590 . S
C3573 C3 1.602 1_655 S
C3628 C1226 1.726 . S
C3609 C16 1.711 . S
C3664 C1460 1.848 . S
C3645 C36 1.854 . S
C3700 C1562 1.449 . S
C3681 C238 1.465 . S
C3717 C174 0.843 . S
C3736 C1378 0.784 . S
C3772 C1646 1.052 . S
C3753 C186 1.034 . S
C3808 C1292 1.483 . S
C3789 C198 1.488 . S
C3844 C1040 1.481 . S
C3825 C239 1.489 . S
C3861 C173 1.029 . S
C3880 C1142 1.030 . S
C3916 C1210 0.789 . S
C3897 C187 0.839 . S
C3933 C205 1.461 . S
C3952 C1478 1.404 . S
C3988 C1546 0.869 . S
C3969 C290 0.901 . S
C4005 C122 1.576 . S
C4024 C722 1.568 . S
C4060 C790 1.321 . S
C4041 C134 1.372 1_565 S
C4096 C872 0.665 . S
C4077 C148 0.657 . S
C4132 C1462 0.883 . S
C4113 C283 0.899 . S
C4149 C270 1.373 . S
C4168 C1630 1.282 . S
C4204 C638 1.560 . S
C4185 C135 1.581 . S
C4240 C452 0.659 . S
C4221 C109 0.654 . S
C4257 C81 2.168 . S
C4276 C1555 2.180 . S
C4312 C459 2.083 . S
C4293 C68 2.100 . S
C4329 C62 2.020 . S
C4348 C1639 2.018 . S
C4365 C95 1.799 . S
C4384 C633 1.638 . S
C4401 C30 1.801 . S
C4420 C1053 1.664 . S
C4456 C799 2.025 . S
C4437 C17 2.022 . S
C4473 C5 2.103 . S
C4492 C1215 2.072 . S
C4509 C43 2.161 . S
C4528 C967 2.164 . S
C4564 C1551 1.782 . S
C4545 C304 1.843 . S
C4581 C153 1.134 . S
C4600 C465 1.031 . S
C4636 C1635 1.330 1_556 S
C4617 C278 1.356 . S
C4653 C127 1.872 . S
C4672 C631 1.863 . S
C4689 C303 1.869 . S
C4708 C1051 1.860 . S
C4744 C795 1.328 . S
C4725 C146 1.361 . S
C4761 C277 1.135 . S
C4780 C1221 1.086 . S
C4816 C963 1.799 . S
C4797 C120 1.841 . S
C4852 C1557 1.032 . S
C4833 C231 1.058 . S
C4888 C711 1.857 1_665 S
C4869 C200 1.905 . S
C4905 C212 1.558 . S
C4924 C1137 1.478 . S
C4960 C883 1.080 . S
C4941 C172 1.075 . S
C4977 C192 1.057 . S
C4996 C969 0.973 . S
C5013 C160 1.554 . S
C5032 C1641 1.476 . S
C5068 C1299 1.879 . S
C5049 C213 1.907 . S
C5104 C1387 1.071 . S
C5085 C250 1.077 . S
