# Generated by pormake.
# Topology nia, (6,6)-cn, num edge types: 1
# Building blocks:
#     Node 0, Type 0, BuildingBlock: KUMJIN_clean_sbu_0, # of connection points: 6
#     Node 1, Type 0, BuildingBlock: KUMJIN_clean_sbu_0, # of connection points: 6
#     Node 2, Type 1, BuildingBlock: MIDCAF_clean_sbu_0, # of connection points: 6
#     Node 3, Type 1, BuildingBlock: MIDCAF_clean_sbu_0, # of connection points: 6
#     Edge 4, Type (0, 1), BuildingBlock: OJICUG_clean_linker_0, # of connection points: 2
#     Edge 5, Type (0, 1), BuildingBlock: OJICUG_clean_linker_0, # of connection points: 2
#     Edge 6, Type (0, 1), BuildingBlock: OJICUG_clean_linker_0, # of connection points: 2
#     Edge 7, Type (0, 1), BuildingBlock: OJICUG_clean_linker_0, # of connection points: 2
#     Edge 8, Type (0, 1), BuildingBlock: OJICUG_clean_linker_0, # of connection points: 2
#     Edge 9, Type (0, 1), BuildingBlock: OJICUG_clean_linker_0, # of connection points: 2
#     Edge 10, Type (0, 1), BuildingBlock: OJICUG_clean_linker_0, # of connection points: 2
#     Edge 11, Type (0, 1), BuildingBlock: OJICUG_clean_linker_0, # of connection points: 2
#     Edge 12, Type (0, 1), BuildingBlock: OJICUG_clean_linker_0, # of connection points: 2
#     Edge 13, Type (0, 1), BuildingBlock: OJICUG_clean_linker_0, # of connection points: 2
#     Edge 14, Type (0, 1), BuildingBlock: OJICUG_clean_linker_0, # of connection points: 2
#     Edge 15, Type (0, 1), BuildingBlock: OJICUG_clean_linker_0, # of connection points: 2
# Relax obj value: 0.176
# Max RMSD: 0.299
# Mean RMSD: 0.210
data_MOF--net-nia--node1-KUMJIN_clean_sbu_0--node2-MIDCAF_clean_sbu_0--edge1-OJICUG_clean_linker_0
_symmetry_space_group_name_H-M    P1
_symmetry_Int_Tables_number       1
_symmetry_cell_setting            triclinic
loop_
_symmetry_equiv_pos_as_xyz
'x, y, z'
_cell_length_a     21.762181
_cell_length_b     21.687863
_cell_length_c     24.891998
_cell_angle_alpha  89.975534
_cell_angle_beta   90.099323
_cell_angle_gamma 141.07518
loop_
_atom_site_label
_atom_site_type_symbol
_atom_site_fract_x
_atom_site_fract_y
_atom_site_fract_z
_atom_type_partial_charge
Eu0 Eu 0.03971 0.97399 0.06044 0.0
C1 C 0.05855 0.1438 0.84938 0.0
C2 C 0.21364 0.31809 0.86111 0.0
C3 C 0.13183 0.2564 0.7746 0.0
C4 C 0.13509 0.22245 0.88268 0.0
C5 C 0.05584 0.16079 0.7952 0.0
C6 C 0.21195 0.33426 0.80688 0.0
C7 C 0.89784 0.9888 0.78672 0.0
N8 N 0.98111 0.05302 0.8713 0.0
C9 C 0.9 0.97684 0.84126 0.0
C10 C 0.97444 0.08178 0.76385 0.0
Eu11 Eu 0.97679 0.04745 0.96557 0.0
N12 N 0.12946 0.20687 0.93647 0.0
C13 C 0.20182 0.28372 0.97015 0.0
C14 C 0.28892 0.39601 0.89532 0.0
C15 C 0.28304 0.37864 0.95003 0.0
H16 H 0.83559 0.90717 0.85988 0.0
H17 H 0.34068 0.43857 0.97692 0.0
H18 H 0.27055 0.40746 0.79 0.0
H19 H 0.83551 0.92651 0.76312 0.0
H20 H 0.20034 0.27303 0.01241 0.0
H21 H 0.85726 0.60847 0.02822 0.0
H22 H 0.35075 0.47015 0.8801 0.0
H23 H 0.01733 0.0394 0.17853 0.0
H24 H 0.99409 0.78948 0.02488 0.0
H25 H 0.89299 0.96397 0.24539 0.0
H26 H 0.12906 0.27097 0.73363 0.0
H27 H 0.70849 0.51726 0.0803 0.0
H28 H 0.62491 0.52239 0.14582 0.0
H29 H 0.96969 0.09194 0.72211 0.0
H30 H 0.63509 0.62028 0.20574 0.0
N31 N 0.92023 0.80055 0.07042 0.0
C32 C 0.92867 0.75028 0.04686 0.0
C33 C 0.76779 0.59662 0.07825 0.0
C34 C 0.76442 0.64897 0.1075 0.0
C35 C 0.85164 0.64779 0.04896 0.0
C36 C 0.84364 0.75234 0.10333 0.0
H37 H 0.73621 0.7844 0.2445 0.0
N38 N 0.93138 0.90652 0.13492 0.0
C39 C 0.87856 0.91888 0.21449 0.0
C40 C 0.84979 0.80718 0.13713 0.0
C41 C 0.9489 0.96194 0.17512 0.0
C42 C 0.79053 0.81779 0.21396 0.0
C43 C 0.77612 0.76023 0.17582 0.0
O44 O 0.17698 0.08696 0.1062 0.0
O45 O 0.09722 0.08044 0.99445 0.0
O46 O 0.94191 0.931 0.92092 0.0
O47 O 0.97404 0.87919 0.98485 0.0
O48 O 0.13236 0.0141 0.99083 0.0
O49 O 0.10307 0.94079 0.09762 0.0
O50 O 0.86466 0.02295 0.99649 0.0
O51 O 0.93362 0.96469 0.04005 0.0
O52 O 0.09193 0.10505 0.09654 0.0
O53 O 0.03299 0.13706 0.04038 0.0
O54 O 0.831 0.88676 0.97854 0.0
O55 O 0.9456 0.11244 0.92735 0.0
C56 C 0.14247 0.07486 0.96768 0.0
C57 C 0.25576 0.05961 0.14835 0.0
C58 C 0.33408 0.02675 0.18277 0.0
C59 C 0.26159 -0.00056 0.15122 0.0
C60 C 0.40104 0.11639 0.21097 0.0
C61 C 0.32416 0.1488 0.17648 0.0
C62 C 0.39612 0.17671 0.20766 0.0
C63 C 0.94452 0.87466 0.93663 0.0
C64 C 0.1778 0.0289 0.11663 0.0
C65 C 0.693 0.65738 0.17694 0.0
C66 C 0.68718 0.60171 0.14281 0.0
C67 C 0.84499 0.88486 0.02897 0.0
C68 C 0.78085 0.01346 0.92956 0.0
C69 C 0.76749 0.06398 0.9123 0.0
C70 C 0.68021 0.01353 0.88662 0.0
C71 C 0.60664 0.9119 0.87809 0.0
C72 C 0.70753 0.91231 0.91953 0.0
C73 C 0.62094 0.86198 0.89389 0.0
C74 C 0.07347 0.1491 0.08545 0.0
C75 C 0.87177 0.06746 0.95749 0.0
H76 H 0.21047 0.93227 0.12797 0.0
H77 H 0.45715 0.14017 0.23611 0.0
H78 H 0.32146 0.19659 0.17485 0.0
H79 H 0.44813 0.24528 0.22965 0.0
H80 H 0.82408 0.14209 0.92 0.0
H81 H 0.5388 0.87147 0.85835 0.0
H82 H 0.71667 0.87196 0.93167 0.0
H83 H 0.56453 0.78397 0.88646 0.0
Eu84 Eu 0.96803 0.0373 0.55397 0.0
C85 C 0.98901 0.90764 0.33966 0.0
C86 C 0.8338 0.7316 0.34191 0.0
C87 C 0.92534 0.80905 0.25883 0.0
C88 C 0.90865 0.82314 0.36854 0.0
C89 C 0.99809 0.90052 0.28458 0.0
C90 C 0.84227 0.72538 0.28696 0.0
C91 C 0.15787 0.07256 0.28533 0.0
N92 N 0.06288 0.99446 0.36623 0.0
C93 C 0.14798 0.07522 0.3403 0.0
C94 C 0.08279 0.98465 0.25743 0.0
Eu95 Eu 0.05217 0.98364 0.46067 0.0
N96 N 0.90708 0.82884 0.42293 0.0
C97 C 0.8322 0.74593 0.45241 0.0
C98 C 0.75532 0.64756 0.37184 0.0
C99 C 0.75466 0.6548 0.42733 0.0
H100 H 0.20915 0.14162 0.36245 0.0
H101 H 0.69486 0.58998 0.45098 0.0
H102 H 0.7867 0.65538 0.26627 0.0
H103 H 0.22476 0.13743 0.265 0.0
H104 H 0.82922 0.74864 0.49515 0.0
H105 H 0.18285 0.41944 0.54302 0.0
H106 H 0.69623 0.57635 0.35268 0.0
H107 H 0.947 0.93677 0.67146 0.0
H108 H 0.03924 0.24093 0.5272 0.0
H109 H 0.05298 0.9868 0.7453 0.0
H110 H 0.93344 0.802 0.2172 0.0
H111 H 0.31383 0.48748 0.60504 0.0
H112 H 0.37223 0.45585 0.67347 0.0
H113 H 0.09176 0.98165 0.21522 0.0
H114 H 0.3365 0.3366 0.72882 0.0
N115 N 0.09141 0.20823 0.57634 0.0
C116 C 0.09654 0.26973 0.55369 0.0
C117 C 0.25121 0.40909 0.59784 0.0
C118 C 0.24004 0.3448 0.62562 0.0
C119 C 0.17749 0.37099 0.56288 0.0
C120 C 0.15687 0.24332 0.61477 0.0
H121 H 0.21526 0.16203 0.75748 0.0
N122 N 0.0515 0.07981 0.63676 0.0
C123 C 0.07852 0.04091 0.7169 0.0
C124 C 0.13577 0.17672 0.6464 0.0
C125 C 0.01927 0.01247 0.67367 0.0
C126 C 0.16971 0.13968 0.72391 0.0
C127 C 0.19863 0.20933 0.68915 0.0
O128 O 0.82638 0.92596 0.59493 0.0
O129 O 0.92428 0.94152 0.48451 0.0
O130 O 0.08619 0.10079 0.41854 0.0
O131 O 0.04894 0.14578 0.48402 0.0
O132 O 0.88939 0.00788 0.47926 0.0
O133 O 0.89461 0.06591 0.57616 0.0
O134 O 0.17725 0.02529 0.48594 0.0
O135 O 0.07928 0.05171 0.53871 0.0
O136 O 0.90437 0.8962 0.5817 0.0
O137 O 0.99075 0.88876 0.53403 0.0
O138 O 0.19303 0.1415 0.48354 0.0
O139 O 0.0773 0.90961 0.42901 0.0
C140 C 0.88362 0.95073 0.45555 0.0
C141 C 0.77741 0.97585 0.64675 0.0
C142 C 0.72139 0.02485 0.69441 0.0
C143 C 0.76896 0.03395 0.65038 0.0
C144 C 0.68424 0.95776 0.73525 0.0
C145 C 0.73536 0.90638 0.68695 0.0
C146 C 0.69062 0.89872 0.73132 0.0
C147 C 0.08297 0.15584 0.43622 0.0
C148 C 0.81987 0.98064 0.59797 0.0
C149 C 0.28645 0.31034 0.69689 0.0
C150 C 0.30683 0.37815 0.66535 0.0
C151 C 0.16922 0.13389 0.53316 0.0
C152 C 0.24495 0.01858 0.41665 0.0
C153 C 0.25563 0.96645 0.39756 0.0
C154 C 0.33794 0.01435 0.36686 0.0
C155 C 0.40773 0.11397 0.35406 0.0
C156 C 0.31581 0.11839 0.40343 0.0
C157 C 0.39585 0.1652 0.37166 0.0
C158 C 0.93462 0.86247 0.57441 0.0
C159 C 0.16196 0.96976 0.4517 0.0
H160 H 0.79606 0.0833 0.61771 0.0
H161 H 0.64928 0.9501 0.7701 0.0
H162 H 0.73702 0.85784 0.6842 0.0
H163 H 0.66008 0.84621 0.7627 0.0
H164 H 0.2023 0.89004 0.40854 0.0
H165 H 0.47229 0.15254 0.33118 0.0
H166 H 0.31024 0.16078 0.41827 0.0
H167 H 0.45007 0.24203 0.36172 0.0
Zn168 Zn 0.34932 0.65689 0.15727 0.0
Zn169 Zn 0.40475 0.69157 0.35198 0.0
Zn170 Zn 0.4097 0.68747 0.25278 0.0
C171 C 0.5794 0.76477 0.3191 0.0
C172 C 0.26062 0.49999 0.33356 0.0
O173 O 0.3819 0.76522 0.22861 0.0
O174 O 0.34185 0.7398 0.14252 0.0
C175 C 0.53792 0.74182 0.16098 0.0
O176 O 0.55766 0.7663 0.27137 0.0
O177 O 0.52212 0.731 0.35765 0.0
O178 O 0.28061 0.55348 0.37038 0.0
O179 O 0.3045 0.53816 0.28794 0.0
O180 O 0.46537 0.69967 0.13202 0.0
O181 O 0.53891 0.7552 0.21147 0.0
O182 O 0.29321 0.5296 0.22967 0.0
O183 O 0.22565 0.51512 0.15631 0.0
C184 C 0.22853 0.47621 0.192 0.0
O185 O 0.38935 0.76795 0.2841 0.0
O186 O 0.41943 0.79012 0.37145 0.0
C187 C 0.3598 0.78017 0.18647 0.0
C188 C 0.39953 0.8043 0.32941 0.0
Zn189 Zn 0.6278 0.34742 0.85431 0.0
Zn190 Zn 0.65284 0.34948 0.66117 0.0
Zn191 Zn 0.61006 0.33628 0.75783 0.0
C192 C 0.77771 0.53631 0.68744 0.0
C193 C 0.46542 0.26436 0.66982 0.0
O194 O 0.63432 0.25991 0.7917 0.0
O195 O 0.60854 0.24753 0.87909 0.0
C196 C 0.77066 0.53503 0.83094 0.0
O197 O 0.72137 0.49027 0.72884 0.0
O198 O 0.77297 0.49091 0.65235 0.0
O199 O 0.53227 0.29937 0.63822 0.0
O200 O 0.47353 0.26174 0.72076 0.0
O201 O 0.75659 0.4855 0.86802 0.0
O202 O 0.71953 0.49153 0.78743 0.0
O203 O 0.46349 0.25723 0.78115 0.0
O204 O 0.51554 0.31545 0.86365 0.0
C205 C 0.45013 0.2702 0.82815 0.0
O206 O 0.64139 0.25998 0.73646 0.0
O207 O 0.66504 0.27039 0.64881 0.0
C208 C 0.62565 0.228 0.83858 0.0
C209 C 0.65878 0.24035 0.69422 0.0
C210 C 0.43072 0.00334 0.19476 0.0
C211 C 0.34029 0.96265 0.186 0.0
H212 H 0.50697 0.97674 0.2033 0.0
C213 C 0.25601 0.86 0.17987 0.0
H214 H 0.49797 0.08174 0.19851 0.0
C215 C 0.2626 0.80082 0.18046 0.0
C216 C 0.35273 0.84217 0.18922 0.0
H217 H 0.18448 0.82465 0.17472 0.0
H218 H 0.19699 0.72241 0.17449 0.0
C219 C 0.43651 0.9435 0.1971 0.0
C220 C 0.33419 0.26879 0.5758 0.0
C221 C 0.24024 0.16997 0.57479 0.0
H222 H 0.47841 0.37653 0.60919 0.0
C223 C 0.21789 0.10364 0.61017 0.0
H224 H 0.35356 0.32083 0.54849 0.0
C225 C 0.28872 0.13562 0.64553 0.0
C226 C 0.38333 0.23403 0.64534 0.0
H227 H 0.14661 0.02632 0.60928 0.0
H228 H 0.27129 0.08259 0.67048 0.0
C229 C 0.40495 0.30051 0.61083 0.0
C230 C 0.04897 0.23373 0.12471 0.0
C231 C 0.10071 0.2182 0.12466 0.0
H232 H 0.04749 0.32698 0.14894 0.0
C233 C 0.18177 0.2745 0.15885 0.0
H234 H 0.98429 0.18923 0.1 0.0
C235 C 0.21747 0.35324 0.1875 0.0
C236 C 0.17192 0.37553 0.18226 0.0
H237 H 0.22201 0.26291 0.16004 0.0
H238 H 0.28609 0.40234 0.20897 0.0
C239 C 0.08415 0.31157 0.15335 0.0
C240 C 0.7778 0.17768 0.67587 0.0
C241 C 0.70702 0.08198 0.69684 0.0
H242 H 0.81725 0.30214 0.65874 0.0
C243 C 0.62112 0.04044 0.7191 0.0
H244 H 0.8455 0.2131 0.65928 0.0
C245 C 0.60632 0.0928 0.71988 0.0
C246 C 0.67659 0.18736 0.69808 0.0
H247 H 0.56393 0.96645 0.73485 0.0
H248 H 0.53907 0.0586 0.73638 0.0
C249 C 0.76219 0.2292 0.67598 0.0
C250 C 0.78788 0.9072 0.10439 0.0
C251 C 0.76826 0.84467 0.06691 0.0
H252 H 0.73087 0.92228 0.16569 0.0
C253 C 0.67346 0.7468 0.0632 0.0
H254 H 0.85969 0.98404 0.10692 0.0
C255 C 0.5997 0.71211 0.0965 0.0
C256 C 0.61969 0.77468 0.13403 0.0
H257 H 0.65623 0.69785 0.03408 0.0
H258 H 0.52612 0.63681 0.09199 0.0
C259 C 0.71454 0.87216 0.13821 0.0
C260 C 0.95351 0.77195 0.61281 0.0
C261 C 0.90361 0.78966 0.61238 0.0
H262 H 0.95408 0.67868 0.63928 0.0
C263 C 0.82379 0.73564 0.64717 0.0
H264 H 0.01719 0.81423 0.58781 0.0
C265 C 0.7891 0.65905 0.67789 0.0
C266 C 0.83357 0.63554 0.67379 0.0
H267 H 0.78483 0.74868 0.64835 0.0
H268 H 0.72242 0.6128 0.70077 0.0
C269 C 0.91865 0.69551 0.64305 0.0
C270 C 0.28262 0.8704 0.32771 0.0
C271 C 0.35574 0.96317 0.35239 0.0
H272 H 0.24052 0.74752 0.29998 0.0
C273 C 0.44532 0.00549 0.36604 0.0
H274 H 0.21313 0.8366 0.31668 0.0
C275 C 0.46037 0.95455 0.35699 0.0
C276 C 0.38697 0.86147 0.33309 0.0
H277 H 0.50238 0.07648 0.38562 0.0
H278 H 0.52878 0.98712 0.36947 0.0
C279 C 0.29846 0.82005 0.31781 0.0
C280 C 0.29222 0.23075 0.92364 0.0
C281 C 0.20377 0.12979 0.91924 0.0
H282 H 0.4361 0.35673 0.89339 0.0
C283 C 0.19074 0.07906 0.87552 0.0
H284 H 0.30916 0.27 0.95945 0.0
C285 C 0.26778 0.12737 0.83959 0.0
C286 C 0.35817 0.22758 0.84642 0.0
H287 H 0.12465 0.00025 0.87231 0.0
H288 H 0.25974 0.08462 0.81018 0.0
C289 C 0.36654 0.27983 0.88627 0.0
C290 C 0.19029 0.28109 0.36248 0.0
C291 C 0.11597 0.23204 0.40059 0.0
H292 H 0.29395 0.40528 0.30994 0.0
C293 C 0.07734 0.26139 0.40752 0.0
H294 H 0.22128 0.26006 0.356 0.0
C295 C 0.11929 0.34459 0.38169 0.0
C296 C 0.19896 0.39855 0.34715 0.0
H297 H 0.01697 0.22233 0.43465 0.0
H298 H 0.09281 0.3698 0.39092 0.0
C299 C 0.23136 0.36378 0.33575 0.0
C300 C 0.57732 0.02824 0.8852 0.0
C301 C 0.66434 0.06613 0.87077 0.0
H302 H 0.49751 0.05096 0.88623 0.0
C303 C 0.73691 0.15582 0.84301 0.0
H304 H 0.52078 0.95988 0.90714 0.0
C305 C 0.72299 0.20725 0.83057 0.0
C306 C 0.63669 0.1699 0.84606 0.0
H307 H 0.80435 0.18614 0.83111 0.0
H308 H 0.78033 0.27708 0.81 0.0
C309 C 0.56409 0.08024 0.87342 0.0
C310 C 0.73682 0.79637 0.4088 0.0
C311 C 0.82499 0.89771 0.40603 0.0
H312 H 0.59218 0.67243 0.37824 0.0
C313 C 0.83855 0.95033 0.36345 0.0
H314 H 0.71992 0.75535 0.44356 0.0
C315 C 0.76157 0.90384 0.32777 0.0
C316 C 0.67072 0.80375 0.33384 0.0
H317 H 0.90469 0.02934 0.36146 0.0
H318 H 0.76966 0.94811 0.29983 0.0
C319 C 0.66222 0.74932 0.37178 0.0
C320 C 0.95509 0.77465 0.90395 0.0
C321 C 0.91456 0.80223 0.89859 0.0
H322 H 0.94195 0.66849 0.88543 0.0
C323 C 0.83993 0.75335 0.86049 0.0
H324 H 0.01552 0.81358 0.93116 0.0
C325 C 0.79957 0.67146 0.83274 0.0
C326 C 0.83316 0.63753 0.84312 0.0
H327 H 0.8078 0.77345 0.85512 0.0
H328 H 0.73635 0.62954 0.80726 0.0
C329 C 0.91426 0.69269 0.87697 0.0
loop_
_geom_bond_atom_site_label_1
_geom_bond_atom_site_label_2
_geom_bond_distance
_geom_bond_site_symmetry_2
_ccdc_geom_bond_type
Eu0 N31 2.657 1_455 S
Eu0 N38 2.609 . S
Eu0 O44 2.558 1_565 S
Eu0 O45 2.612 1_564 S
Eu0 O47 2.339 1_454 S
Eu0 O48 2.563 1_565 S
Eu0 O49 2.419 . S
Eu0 O51 2.380 1_455 S
Eu0 O52 2.432 1_565 S
Eu0 C64 2.848 . S
C1 C4 1.429 . S
C1 C5 1.411 . S
C1 N8 1.377 1_455 S
C2 C4 1.420 . S
C2 C6 1.423 . S
C2 C14 1.392 . S
C3 C5 1.420 . S
C3 C6 1.351 . S
C3 H26 0.931 . S
C4 C1 1.429 . S
C4 C2 1.420 . S
C4 N12 1.362 . S
C5 C1 1.411 . S
C5 C3 1.420 . S
C5 C10 1.395 1_455 S
C6 C2 1.423 . S
C6 C3 1.351 . S
C6 H18 0.930 . S
C7 C9 1.400 . S
C7 C10 1.386 1_565 S
C7 H19 0.930 . S
N8 C1 1.377 1_655 S
N8 C9 1.321 1_545 S
N8 Eu11 2.609 . S
C9 C7 1.400 . S
C9 N8 1.321 1_565 S
C9 H16 0.930 . S
C10 C5 1.395 1_655 S
C10 C7 1.386 1_545 S
C10 H29 0.930 . S
Eu11 N8 2.609 . S
Eu11 N12 2.657 1_655 S
Eu11 O45 2.380 1_655 S
Eu11 O46 2.432 1_545 S
Eu11 O50 2.558 1_545 S
Eu11 O51 2.612 1_546 S
Eu11 O53 2.339 1_656 S
Eu11 O54 2.563 1_546 S
Eu11 O55 2.419 . S
Eu11 C75 2.848 . S
N12 C4 1.362 . S
N12 Eu11 2.657 1_455 S
N12 C13 1.334 . S
C13 N12 1.334 . S
C13 C15 1.413 . S
C13 H20 0.929 . S
C14 C2 1.392 . S
C14 C15 1.367 . S
C14 H22 0.930 . S
C15 C13 1.413 . S
C15 C14 1.367 . S
C15 H17 0.930 . S
H16 C9 0.930 . S
H17 C15 0.930 . S
H18 C6 0.930 . S
H19 C7 0.930 . S
H20 C13 0.929 . S
H21 C35 0.930 . S
H22 C14 0.930 . S
H23 C41 0.930 . S
H24 C32 0.929 . S
H25 C39 0.930 . S
H26 C3 0.931 . S
H27 C33 0.930 . S
H28 C66 0.930 . S
H29 C10 0.930 . S
H30 C65 0.931 . S
N31 Eu0 2.657 1_655 S
N31 C32 1.334 . S
N31 C36 1.362 . S
C32 H24 0.929 . S
C32 N31 1.334 . S
C32 C35 1.413 . S
C33 H27 0.930 . S
C33 C34 1.392 . S
C33 C35 1.367 . S
C34 C33 1.392 . S
C34 C36 1.420 . S
C34 C66 1.423 . S
C35 H21 0.930 . S
C35 C32 1.413 . S
C35 C33 1.367 . S
C36 N31 1.362 . S
C36 C34 1.420 . S
C36 C40 1.429 . S
H37 C42 0.930 . S
N38 Eu0 2.609 . S
N38 C40 1.377 1_455 S
N38 C41 1.321 1_565 S
C39 H25 0.930 . S
C39 C41 1.400 . S
C39 C42 1.386 1_545 S
C40 C36 1.429 . S
C40 N38 1.377 1_655 S
C40 C43 1.411 . S
C41 H23 0.930 . S
C41 N38 1.321 1_545 S
C41 C39 1.400 . S
C42 H37 0.930 . S
C42 C39 1.386 1_565 S
C42 C43 1.395 1_455 S
C43 C40 1.411 . S
C43 C42 1.395 1_655 S
C43 C65 1.420 . S
O44 Eu0 2.558 1_545 S
O44 C64 1.257 1_545 S
O45 Eu0 2.612 1_546 S
O45 Eu11 2.380 1_455 S
O45 C56 1.276 . S
O46 Eu11 2.432 1_565 S
O46 C63 1.264 . S
O47 Eu0 2.339 1_656 S
O47 C63 1.254 . S
O48 Eu0 2.563 1_545 S
O48 C56 1.235 1_554 S
O49 Eu0 2.419 . S
O49 C64 1.249 . S
O50 Eu11 2.558 1_565 S
O50 C75 1.257 1_565 S
O51 Eu0 2.380 1_655 S
O51 Eu11 2.612 1_564 S
O51 C67 1.276 . S
O52 Eu0 2.432 1_545 S
O52 C74 1.264 . S
O53 Eu11 2.339 1_454 S
O53 C74 1.254 . S
O54 Eu11 2.563 1_564 S
O54 C67 1.235 . S
O55 Eu11 2.419 . S
O55 C75 1.249 . S
C56 O45 1.276 . S
C56 O48 1.235 1_556 S
C57 C59 1.393 . S
C57 C61 1.395 . S
C57 C64 1.492 . S
C58 C59 1.392 . S
C58 C60 1.386 . S
C59 C57 1.393 . S
C59 C58 1.392 . S
C59 H76 0.930 . S
C60 C58 1.386 . S
C60 C62 1.395 . S
C60 H77 0.930 . S
C61 C57 1.395 . S
C61 C62 1.379 . S
C61 H78 0.930 1_565 S
C62 C60 1.395 . S
C62 C61 1.379 . S
C62 H79 0.930 . S
C63 O46 1.264 . S
C63 O47 1.254 . S
C64 Eu0 2.848 . S
C64 O44 1.257 1_565 S
C64 O49 1.249 . S
C64 C57 1.492 . S
C65 H30 0.931 . S
C65 C43 1.420 . S
C65 C66 1.351 . S
C66 H28 0.930 . S
C66 C34 1.423 . S
C66 C65 1.351 . S
C67 O51 1.276 . S
C67 O54 1.235 . S
C68 C69 1.393 . S
C68 C72 1.395 . S
C68 C75 1.492 . S
C69 C68 1.393 . S
C69 C70 1.392 . S
C69 H80 0.930 . S
C70 C69 1.392 . S
C70 C71 1.386 . S
C71 C70 1.386 . S
C71 C73 1.395 . S
C71 H81 0.930 . S
C72 C68 1.395 . S
C72 C73 1.379 . S
C72 H82 0.930 . S
C73 C71 1.395 . S
C73 C72 1.379 . S
C73 H83 0.930 . S
C74 O52 1.264 . S
C74 O53 1.254 . S
C75 Eu11 2.848 . S
C75 O50 1.257 1_545 S
C75 O55 1.249 . S
C75 C68 1.492 . S
H76 C59 0.930 . S
H77 C60 0.930 . S
H78 C61 0.930 1_545 S
H79 C62 0.930 . S
H80 C69 0.930 . S
H81 C71 0.930 . S
H82 C72 0.930 . S
H83 C73 0.930 . S
Eu84 N115 2.657 1_655 S
Eu84 N122 2.609 1_655 S
Eu84 O128 2.558 . S
Eu84 O129 2.612 1_545 S
Eu84 O131 2.339 1_655 S
Eu84 O132 2.563 1_545 S
Eu84 O133 2.419 . S
Eu84 O135 2.380 1_655 S
Eu84 O136 2.432 1_545 S
Eu84 C148 2.848 . S
C85 C88 1.429 . S
C85 C89 1.411 . S
C85 N92 1.377 1_665 S
C86 C88 1.420 . S
C86 C90 1.423 . S
C86 C98 1.392 . S
C87 C89 1.420 . S
C87 C90 1.351 . S
C87 H110 0.931 . S
C88 C85 1.429 . S
C88 C86 1.420 . S
C88 N96 1.362 . S
C89 C85 1.411 . S
C89 C87 1.420 . S
C89 C94 1.395 1_665 S
C90 C86 1.423 . S
C90 C87 1.351 . S
C90 H102 0.930 . S
C91 C93 1.400 . S
C91 C94 1.386 . S
C91 H103 0.930 . S
N92 C85 1.377 1_445 S
N92 C93 1.321 . S
N92 Eu95 2.609 1_545 S
C93 C91 1.400 . S
C93 N92 1.321 . S
C93 H100 0.930 . S
C94 C89 1.395 1_445 S
C94 C91 1.386 . S
C94 H113 0.930 . S
Eu95 N92 2.609 1_565 S
Eu95 N96 2.657 1_455 S
Eu95 O129 2.380 1_455 S
Eu95 O130 2.432 1_565 S
Eu95 O134 2.558 1_565 S
Eu95 O135 2.612 1_565 S
Eu95 O137 2.339 1_455 S
Eu95 O138 2.563 1_565 S
Eu95 O139 2.419 . S
Eu95 C159 2.848 . S
N96 C88 1.362 . S
N96 Eu95 2.657 1_655 S
N96 C97 1.334 . S
C97 N96 1.334 . S
C97 C99 1.413 . S
C97 H104 0.929 . S
C98 C86 1.392 . S
C98 C99 1.367 . S
C98 H106 0.930 . S
C99 C97 1.413 . S
C99 C98 1.367 . S
C99 H101 0.930 . S
H100 C93 0.930 . S
H101 C99 0.930 . S
H102 C90 0.930 . S
H103 C91 0.930 . S
H104 C97 0.929 . S
H105 C119 0.930 . S
H106 C98 0.930 . S
H107 C125 0.930 . S
H108 C116 0.929 . S
H109 C123 0.930 . S
H110 C87 0.931 . S
H111 C117 0.930 . S
H112 C150 0.930 . S
H113 C94 0.930 . S
H114 C149 0.931 . S
N115 Eu84 2.657 1_455 S
N115 C116 1.334 . S
N115 C120 1.362 . S
C116 H108 0.929 . S
C116 N115 1.334 . S
C116 C119 1.413 . S
C117 H111 0.930 . S
C117 C118 1.392 . S
C117 C119 1.367 . S
C118 C117 1.392 . S
C118 C120 1.420 . S
C118 C150 1.423 . S
C119 H105 0.930 . S
C119 C116 1.413 . S
C119 C117 1.367 . S
C120 N115 1.362 . S
C120 C118 1.420 . S
C120 C124 1.429 . S
H121 C126 0.930 . S
N122 Eu84 2.609 1_455 S
N122 C124 1.377 . S
N122 C125 1.321 1_445 S
C123 H109 0.930 . S
C123 C125 1.400 . S
C123 C126 1.386 1_665 S
C124 C120 1.429 . S
C124 N122 1.377 . S
C124 C127 1.411 . S
C125 H107 0.930 . S
C125 N122 1.321 1_665 S
C125 C123 1.400 . S
C126 H121 0.930 . S
C126 C123 1.386 1_445 S
C126 C127 1.395 . S
C127 C124 1.411 . S
C127 C126 1.395 . S
C127 C149 1.420 . S
O128 Eu84 2.558 . S
O128 C148 1.257 . S
O129 Eu84 2.612 1_565 S
O129 Eu95 2.380 1_655 S
O129 C140 1.276 . S
O130 Eu95 2.432 1_545 S
O130 C147 1.264 . S
O131 Eu84 2.339 1_455 S
O131 C147 1.254 . S
O132 Eu84 2.563 1_565 S
O132 C140 1.235 . S
O133 Eu84 2.419 . S
O133 C148 1.249 . S
O134 Eu95 2.558 1_545 S
O134 C159 1.257 1_545 S
O135 Eu84 2.380 1_455 S
O135 Eu95 2.612 1_545 S
O135 C151 1.276 . S
O136 Eu84 2.432 1_565 S
O136 C158 1.264 . S
O137 Eu95 2.339 1_655 S
O137 C158 1.254 . S
O138 Eu95 2.563 1_545 S
O138 C151 1.235 . S
O139 Eu95 2.419 . S
O139 C159 1.249 . S
C140 O129 1.276 . S
C140 O132 1.235 . S
C141 C143 1.393 . S
C141 C145 1.395 . S
C141 C148 1.492 . S
C142 C143 1.392 . S
C142 C144 1.386 . S
C143 C141 1.393 . S
C143 C142 1.392 . S
C143 H160 0.930 . S
C144 C142 1.386 . S
C144 C146 1.395 . S
C144 H161 0.930 . S
C145 C141 1.395 . S
C145 C146 1.379 . S
C145 H162 0.930 . S
C146 C144 1.395 . S
C146 C145 1.379 . S
C146 H163 0.930 . S
C147 O130 1.264 . S
C147 O131 1.254 . S
C148 Eu84 2.848 . S
C148 O128 1.257 . S
C148 O133 1.249 . S
C148 C141 1.492 . S
C149 H114 0.931 . S
C149 C127 1.420 . S
C149 C150 1.351 . S
C150 H112 0.930 . S
C150 C118 1.423 . S
C150 C149 1.351 . S
C151 O135 1.276 . S
C151 O138 1.235 . S
C152 C153 1.393 . S
C152 C156 1.395 . S
C152 C159 1.492 . S
C153 C152 1.393 . S
C153 C154 1.392 . S
C153 H164 0.930 . S
C154 C153 1.392 . S
C154 C155 1.386 . S
C155 C154 1.386 . S
C155 C157 1.395 . S
C155 H165 0.930 . S
C156 C152 1.395 . S
C156 C157 1.379 . S
C156 H166 0.930 1_565 S
C157 C155 1.395 . S
C157 C156 1.379 . S
C157 H167 0.930 . S
C158 O136 1.264 . S
C158 O137 1.254 . S
C159 Eu95 2.848 . S
C159 O134 1.257 1_565 S
C159 O139 1.249 . S
C159 C152 1.492 . S
H160 C143 0.930 . S
H161 C144 0.930 . S
H162 C145 0.930 . S
H163 C146 0.930 . S
H164 C153 0.930 . S
H165 C155 0.930 . S
H166 C156 0.930 1_545 S
H167 C157 0.930 . S
Zn168 O174 1.920 . S
Zn168 O180 1.898 . S
Zn168 O183 1.905 . S
Zn169 O177 1.905 . S
Zn169 O178 1.898 . S
Zn169 O186 1.920 . S
Zn170 O173 2.080 . S
Zn170 O176 2.114 . S
Zn170 O179 2.120 . S
Zn170 O181 2.120 . S
Zn170 O182 2.114 . S
Zn170 O185 2.080 . S
C171 O176 1.166 . S
C171 O177 1.182 . S
C172 O178 1.167 . S
C172 O179 1.299 . S
O173 Zn170 2.080 . S
O173 C187 1.305 . S
O174 Zn168 1.920 . S
O174 C187 1.234 . S
C175 O180 1.167 . S
C175 O181 1.299 . S
O176 Zn170 2.114 . S
O176 C171 1.166 . S
O177 Zn169 1.905 . S
O177 C171 1.182 . S
O178 Zn169 1.898 . S
O178 C172 1.167 . S
O179 Zn170 2.120 . S
O179 C172 1.299 . S
O180 Zn168 1.898 . S
O180 C175 1.167 . S
O181 Zn170 2.120 . S
O181 C175 1.299 . S
O182 Zn170 2.114 . S
O182 C184 1.166 . S
O183 Zn168 1.905 . S
O183 C184 1.182 . S
C184 O182 1.166 . S
C184 O183 1.182 . S
O185 Zn170 2.080 . S
O185 C188 1.305 . S
O186 Zn169 1.920 . S
O186 C188 1.234 . S
C187 O173 1.305 . S
C187 O174 1.234 . S
C188 O185 1.305 . S
C188 O186 1.234 . S
Zn189 O195 1.920 . S
Zn189 O201 1.898 . S
Zn189 O204 1.905 . S
Zn190 O198 1.905 . S
Zn190 O199 1.898 . S
Zn190 O207 1.920 . S
Zn191 O194 2.080 . S
Zn191 O197 2.114 . S
Zn191 O200 2.120 . S
Zn191 O202 2.120 . S
Zn191 O203 2.114 . S
Zn191 O206 2.080 . S
C192 O197 1.166 . S
C192 O198 1.182 . S
C193 O199 1.167 . S
C193 O200 1.299 . S
O194 Zn191 2.080 . S
O194 C208 1.305 . S
O195 Zn189 1.920 . S
O195 C208 1.234 . S
C196 O201 1.167 . S
C196 O202 1.299 . S
O197 Zn191 2.114 . S
O197 C192 1.166 . S
O198 Zn190 1.905 . S
O198 C192 1.182 . S
O199 Zn190 1.898 . S
O199 C193 1.167 . S
O200 Zn191 2.120 . S
O200 C193 1.299 . S
O201 Zn189 1.898 . S
O201 C196 1.167 . S
O202 Zn191 2.120 . S
O202 C196 1.299 . S
O203 Zn191 2.114 . S
O203 C205 1.166 . S
O204 Zn189 1.905 . S
O204 C205 1.182 . S
C205 O203 1.166 . S
C205 O204 1.182 . S
O206 Zn191 2.080 . S
O206 C209 1.305 . S
O207 Zn190 1.920 . S
O207 C209 1.234 . S
C208 O194 1.305 . S
C208 O195 1.234 . S
C209 O206 1.305 . S
C209 O207 1.234 . S
C210 C211 1.387 . S
C210 H214 0.950 . S
C210 C219 1.390 . S
C211 C210 1.387 . S
C211 C213 1.387 . S
H212 C219 0.950 . S
C213 C211 1.387 . S
C213 C215 1.390 . S
C213 H217 0.950 . S
H214 C210 0.950 . S
C215 C213 1.390 . S
C215 C216 1.387 . S
C215 H218 0.950 . S
C216 C215 1.387 . S
C216 C219 1.387 . S
H217 C213 0.950 . S
H218 C215 0.950 . S
C219 C210 1.390 . S
C219 H212 0.950 . S
C219 C216 1.387 . S
C220 C221 1.387 . S
C220 H224 0.950 . S
C220 C229 1.390 . S
C221 C220 1.387 . S
C221 C223 1.387 . S
H222 C229 0.950 . S
C223 C221 1.387 . S
C223 C225 1.390 . S
C223 H227 0.950 1_545 S
H224 C220 0.950 . S
C225 C223 1.390 . S
C225 C226 1.387 . S
C225 H228 0.950 . S
C226 C225 1.387 . S
C226 C229 1.387 . S
H227 C223 0.950 1_565 S
H228 C225 0.950 . S
C229 C220 1.390 . S
C229 H222 0.950 . S
C229 C226 1.387 . S
C230 C231 1.387 . S
C230 H234 0.950 . S
C230 C239 1.390 . S
C231 C230 1.387 . S
C231 C233 1.387 . S
H232 C239 0.950 . S
C233 C231 1.387 . S
C233 C235 1.390 . S
C233 H237 0.950 . S
H234 C230 0.950 . S
C235 C233 1.390 . S
C235 C236 1.387 . S
C235 H238 0.950 . S
C236 C235 1.387 . S
C236 C239 1.387 . S
H237 C233 0.950 . S
H238 C235 0.950 . S
C239 C230 1.390 . S
C239 H232 0.950 . S
C239 C236 1.387 . S
C240 C241 1.387 . S
C240 H244 0.950 . S
C240 C249 1.390 . S
C241 C240 1.387 . S
C241 C243 1.387 . S
H242 C249 0.950 . S
C243 C241 1.387 . S
C243 C245 1.390 . S
C243 H247 0.950 . S
H244 C240 0.950 . S
C245 C243 1.390 . S
C245 C246 1.387 . S
C245 H248 0.950 . S
C246 C245 1.387 . S
C246 C249 1.387 . S
H247 C243 0.950 . S
H248 C245 0.950 . S
C249 C240 1.390 . S
C249 H242 0.950 . S
C249 C246 1.387 . S
C250 C251 1.387 . S
C250 H254 0.950 1_565 S
C250 C259 1.390 . S
C251 C250 1.387 . S
C251 C253 1.387 . S
H252 C259 0.950 1_545 S
C253 C251 1.387 . S
C253 C255 1.390 . S
C253 H257 0.950 . S
H254 C250 0.950 1_545 S
C255 C253 1.390 . S
C255 C256 1.387 . S
C255 H258 0.950 . S
C256 C255 1.387 . S
C256 C259 1.387 . S
H257 C253 0.950 . S
H258 C255 0.950 . S
C259 C250 1.390 . S
C259 H252 0.950 1_565 S
C259 C256 1.387 . S
C260 C261 1.387 . S
C260 H264 0.950 . S
C260 C269 1.390 . S
C261 C260 1.387 . S
C261 C263 1.387 . S
H262 C269 0.950 . S
C263 C261 1.387 . S
C263 C265 1.390 . S
C263 H267 0.950 . S
H264 C260 0.950 . S
C265 C263 1.390 . S
C265 C266 1.387 . S
C265 H268 0.950 . S
C266 C265 1.387 . S
C266 C269 1.387 . S
H267 C263 0.950 . S
H268 C265 0.950 . S
C269 C260 1.390 . S
C269 H262 0.950 . S
C269 C266 1.387 . S
C270 C271 1.387 . S
C270 H274 0.950 . S
C270 C279 1.390 . S
C271 C270 1.387 . S
C271 C273 1.387 . S
H272 C279 0.950 . S
C273 C271 1.387 . S
C273 C275 1.390 . S
C273 H277 0.950 . S
H274 C270 0.950 . S
C275 C273 1.390 . S
C275 C276 1.387 . S
C275 H278 0.950 . S
C276 C275 1.387 . S
C276 C279 1.387 . S
H277 C273 0.950 . S
H278 C275 0.950 . S
C279 C270 1.390 . S
C279 H272 0.950 . S
C279 C276 1.387 . S
C280 C281 1.387 . S
C280 H284 0.950 . S
C280 C289 1.390 . S
C281 C280 1.387 . S
C281 C283 1.387 . S
H282 C289 0.950 . S
C283 C281 1.387 . S
C283 C285 1.390 . S
C283 H287 0.950 . S
H284 C280 0.950 . S
C285 C283 1.390 . S
C285 C286 1.387 . S
C285 H288 0.950 . S
C286 C285 1.387 . S
C286 C289 1.387 . S
H287 C283 0.950 . S
H288 C285 0.950 . S
C289 C280 1.390 . S
C289 H282 0.950 . S
C289 C286 1.387 . S
C290 C291 1.387 . S
C290 H294 0.950 . S
C290 C299 1.390 . S
C291 C290 1.387 . S
C291 C293 1.387 . S
H292 C299 0.950 . S
C293 C291 1.387 . S
C293 C295 1.390 . S
C293 H297 0.950 1_455 S
H294 C290 0.950 . S
C295 C293 1.390 . S
C295 C296 1.387 . S
C295 H298 0.950 . S
C296 C295 1.387 . S
C296 C299 1.387 . S
H297 C293 0.950 1_655 S
H298 C295 0.950 . S
C299 C290 1.390 . S
C299 H292 0.950 . S
C299 C296 1.387 . S
C300 C301 1.387 . S
C300 H304 0.950 . S
C300 C309 1.390 . S
C301 C300 1.387 . S
C301 C303 1.387 . S
H302 C309 0.950 . S
C303 C301 1.387 . S
C303 C305 1.390 . S
C303 H307 0.950 . S
H304 C300 0.950 . S
C305 C303 1.390 . S
C305 C306 1.387 . S
C305 H308 0.950 . S
C306 C305 1.387 . S
C306 C309 1.387 . S
H307 C303 0.950 . S
H308 C305 0.950 . S
C309 C300 1.390 . S
C309 H302 0.950 . S
C309 C306 1.387 . S
C310 C311 1.387 . S
C310 H314 0.950 . S
C310 C319 1.390 . S
C311 C310 1.387 . S
C311 C313 1.387 . S
H312 C319 0.950 . S
C313 C311 1.387 . S
C313 C315 1.390 . S
C313 H317 0.950 1_565 S
H314 C310 0.950 . S
C315 C313 1.390 . S
C315 C316 1.387 . S
C315 H318 0.950 . S
C316 C315 1.387 . S
C316 C319 1.387 . S
H317 C313 0.950 1_545 S
H318 C315 0.950 . S
C319 C310 1.390 . S
C319 H312 0.950 . S
C319 C316 1.387 . S
C320 C321 1.387 . S
C320 H324 0.950 . S
C320 C329 1.390 . S
C321 C320 1.387 . S
C321 C323 1.387 . S
H322 C329 0.950 . S
C323 C321 1.387 . S
C323 C325 1.390 . S
C323 H327 0.950 . S
H324 C320 0.950 . S
C325 C323 1.390 . S
C325 C326 1.387 . S
C325 H328 0.950 . S
C326 C325 1.387 . S
C326 C329 1.387 . S
H327 C323 0.950 . S
H328 C325 0.950 . S
C329 C320 1.390 . S
C329 H322 0.950 . S
C329 C326 1.387 . S
C211 C58 1.191 . S
C216 C187 1.294 . S
C221 C151 1.617 . S
C226 C193 1.462 . S
C231 C74 1.579 . S
C236 C184 1.492 . S
C241 C142 1.186 . S
C246 C209 1.289 . S
C251 C67 1.620 . S
C256 C175 1.459 . S
C266 C192 1.491 . S
C261 C158 1.578 . S
C271 C154 1.151 . S
C276 C188 1.299 . S
C286 C205 1.499 . S
C281 C56 1.636 . S
C296 C172 1.434 . S
C291 C147 1.627 . S
C306 C208 1.294 . S
C301 C70 1.145 . S
C316 C171 1.498 . S
C311 C140 1.637 . S
C326 C196 1.431 . S
C321 C63 1.628 . S
