# Generated by pormake.
# Topology bcu-b, (8,8)-cn, num edge types: 1
# Building blocks:
#     Node 0, Type 0, BuildingBlock: TAGTUT_clean_sbu_3, # of connection points: 8
#     Node 1, Type 1, BuildingBlock: TAGTUT_clean_sbu_1, # of connection points: 8
#     Edge 2, Type (0, 1), BuildingBlock: XUDNAN_clean_linker_2, # of connection points: 2
#     Edge 3, Type (0, 1), BuildingBlock: XUDNAN_clean_linker_2, # of connection points: 2
#     Edge 4, Type (0, 1), BuildingBlock: XUDNAN_clean_linker_2, # of connection points: 2
#     Edge 5, Type (0, 1), BuildingBlock: XUDNAN_clean_linker_2, # of connection points: 2
#     Edge 6, Type (0, 1), BuildingBlock: XUDNAN_clean_linker_2, # of connection points: 2
#     Edge 7, Type (0, 1), BuildingBlock: XUDNAN_clean_linker_2, # of connection points: 2
#     Edge 8, Type (0, 1), BuildingBlock: XUDNAN_clean_linker_2, # of connection points: 2
#     Edge 9, Type (0, 1), BuildingBlock: XUDNAN_clean_linker_2, # of connection points: 2
# Relax obj value: 0.017
# Max RMSD: 0.085
# Mean RMSD: 0.074
data_MOF--net-bcu-b--node1-TAGTUT_clean_sbu_3--node2-TAGTUT_clean_sbu_1--edge1-XUDNAN_clean_linker_2
_symmetry_space_group_name_H-M    P1
_symmetry_Int_Tables_number       1
_symmetry_cell_setting            triclinic
loop_
_symmetry_equiv_pos_as_xyz
'x, y, z'
_cell_length_a     19.951775
_cell_length_b     19.150259
_cell_length_c     20.738921
_cell_angle_alpha  91.350798
_cell_angle_beta   91.258672
_cell_angle_gamma 110.16175
loop_
_atom_site_label
_atom_site_type_symbol
_atom_site_fract_x
_atom_site_fract_y
_atom_site_fract_z
_atom_type_partial_charge
C0 C 0.10168 0.09658 0.12399 0.0
C1 C 0.17227 0.85095 0.07114 0.0
C2 C 0.12756 0.89765 0.879 0.0
Mg3 Mg 0.99649 0.16044 0.03479 0.0
Mg4 Mg 0.85786 0.03328 0.96203 0.0
O5 O 0.95774 0.07533 0.97019 0.0
Mg6 Mg 0.00796 0.00734 0.00103 0.0
O7 O 0.06274 0.94433 0.03291 0.0
Mg8 Mg 0.16208 0.01059 0.01336 0.0
Mg9 Mg 0.03492 0.84831 0.99445 0.0
C10 C 0.90774 0.91875 0.8787 0.0
O11 O 0.90784 0.92128 0.04515 0.0
O12 O 0.93594 0.22297 0.97069 0.0
O13 O 0.92361 0.81245 0.02107 0.0
O14 O 0.89981 0.12259 0.09666 0.0
O15 O 0.84406 0.12936 0.92384 0.0
O16 O 0.80998 0.02589 0.05603 0.0
O17 O 0.11048 0.08559 0.95983 0.0
O18 O 0.09628 0.19532 0.97431 0.0
C19 C 0.13306 0.15642 0.95424 0.0
C20 C 0.87896 0.1988 0.93384 0.0
O21 O 0.96861 0.93821 0.90857 0.0
O22 O 0.2008 0.92208 0.06572 0.0
O23 O 0.85742 0.94291 0.89477 0.0
O24 O 0.16556 0.9512 0.91646 0.0
O25 O 0.10969 0.81366 0.04803 0.0
O26 O 0.06772 0.85225 0.89609 0.0
O27 O 0.04422 0.08203 0.08964 0.0
O28 O 0.15119 0.07132 0.10811 0.0
C29 C 0.83782 0.07422 0.10139 0.0
C30 C 0.88603 0.84947 0.04388 0.0
C31 C 0.38291 0.6942 0.57765 0.0
C32 C 0.40799 0.63544 0.38261 0.0
C33 C 0.36715 0.36066 0.47414 0.0
Mg34 Mg 0.50952 0.67933 0.5016 0.0
O35 O 0.47288 0.58153 0.52951 0.0
Mg36 Mg 0.36872 0.52542 0.51232 0.0
Mg37 Mg 0.51145 0.50391 0.49753 0.0
O38 O 0.54893 0.42501 0.46799 0.0
Mg39 Mg 0.51387 0.33473 0.51138 0.0
Mg40 Mg 0.65402 0.48073 0.47858 0.0
C41 C 0.65656 0.64886 0.52771 0.0
C42 C 0.59251 0.55437 0.36205 0.0
O43 O 0.34746 0.6255 0.56289 0.0
O44 O 0.44805 0.7259 0.56203 0.0
O45 O 0.36836 0.5801 0.41367 0.0
O46 O 0.46721 0.6799 0.40631 0.0
O47 O 0.62242 0.69424 0.51896 0.0
O48 O 0.62432 0.57793 0.52666 0.0
C49 C 0.42481 0.44703 0.62906 0.0
O50 O 0.48092 0.45223 0.59733 0.0
O51 O 0.37688 0.47205 0.60777 0.0
O52 O 0.66568 0.37273 0.4297 0.0
O53 O 0.56476 0.27786 0.45041 0.0
O54 O 0.66547 0.43702 0.57786 0.0
C55 C 0.62538 0.30353 0.42376 0.0
O56 O 0.56665 0.34787 0.60636 0.0
O57 O 0.39989 0.31702 0.49333 0.0
C58 C 0.63037 0.39167 0.61913 0.0
O59 O 0.40036 0.43034 0.46657 0.0
O60 O 0.53986 0.55416 0.39676 0.0
O61 O 0.63961 0.52763 0.38194 0.0
H62 H 0.14497 0.05897 0.23735 0.0
H63 H 0.07668 0.22639 0.14847 0.0
H64 H 0.10964 0.3042 0.24941 0.0
H65 H 0.09361 0.09648 0.4112 0.0
H66 H 0.16989 0.07737 0.44347 0.0
H67 H 0.12284 0.02757 0.37181 0.0
H68 H 0.2412 0.06901 0.31024 0.0
H69 H 0.28814 0.118 0.38127 0.0
H70 H 0.29283 0.16687 0.3073 0.0
H71 H 0.18053 0.37537 0.34494 0.0
H72 H 0.27943 0.43125 0.42408 0.0
H73 H 0.29162 0.21314 0.45691 0.0
C74 C 0.13486 0.111 0.24025 0.0
C75 C 0.10924 0.1376 0.18582 0.0
C76 C 0.0963 0.20551 0.19026 0.0
C77 C 0.11437 0.24958 0.24745 0.0
C78 C 0.14266 0.22323 0.29995 0.0
C79 C 0.15098 0.15438 0.29724 0.0
C80 C 0.191 0.14252 0.35624 0.0
C81 C 0.14135 0.08243 0.39817 0.0
C82 C 0.25718 0.12311 0.33759 0.0
C83 C 0.21125 0.21857 0.3891 0.0
C84 C 0.181 0.26373 0.35722 0.0
C85 C 0.20246 0.33994 0.3717 0.0
C86 C 0.25898 0.37136 0.41682 0.0
C87 C 0.29369 0.32659 0.44643 0.0
C88 C 0.26572 0.24874 0.43574 0.0
H89 H 0.88251 0.17981 0.19793 0.0
H90 H 0.69872 0.99081 0.1309 0.0
H91 H 0.62663 0.02211 0.21541 0.0
H92 H 0.84266 0.17605 0.37128 0.0
H93 H 0.87386 0.27625 0.37811 0.0
H94 H 0.9129 0.23041 0.32088 0.0
H95 H 0.88334 0.30573 0.22919 0.0
H96 H 0.84329 0.351 0.28563 0.0
H97 H 0.79235 0.30126 0.21565 0.0
H98 H 0.57253 0.08329 0.29957 0.0
H99 H 0.53982 0.16783 0.37372 0.0
H100 H 0.75893 0.32101 0.3789 0.0
C101 C 0.82757 0.14341 0.20167 0.0
C102 C 0.79633 0.0825 0.15769 0.0
C103 C 0.72396 0.03737 0.16424 0.0
C104 C 0.6827 0.05485 0.21207 0.0
C105 C 0.71481 0.11747 0.25267 0.0
C106 C 0.7858 0.16073 0.24795 0.0
C107 C 0.80633 0.2295 0.29201 0.0
C108 C 0.86224 0.22792 0.34364 0.0
C109 C 0.83285 0.30105 0.25329 0.0
C110 C 0.73519 0.21964 0.32134 0.0
C111 C 0.68337 0.15403 0.29904 0.0
C112 C 0.6129 0.13429 0.31775 0.0
C113 C 0.59492 0.18291 0.35993 0.0
C114 C 0.64692 0.25128 0.38226 0.0
C115 C 0.71803 0.26931 0.36283 0.0
H116 H 0.83708 0.70147 0.071 0.0
H117 H 0.78473 0.90198 0.09251 0.0
H118 H 0.68294 0.83581 0.15844 0.0
H119 H 0.64814 0.56212 0.07934 0.0
H120 H 0.67964 0.50104 0.12639 0.0
H121 H 0.73571 0.55774 0.06664 0.0
H122 H 0.83643 0.61358 0.15385 0.0
H123 H 0.78092 0.55741 0.21351 0.0
H124 H 0.81774 0.65706 0.22603 0.0
H125 H 0.60118 0.7555 0.23708 0.0
H126 H 0.55538 0.67353 0.32766 0.0
H127 H 0.66328 0.52619 0.25948 0.0
C128 C 0.80269 0.7309 0.08742 0.0
C129 C 0.81849 0.80719 0.0753 0.0
C130 C 0.77324 0.84372 0.09976 0.0
C131 C 0.71492 0.80619 0.13727 0.0
C132 C 0.70234 0.73173 0.15006 0.0
C133 C 0.74506 0.69441 0.12578 0.0
C134 C 0.72818 0.61884 0.15512 0.0
C135 C 0.69599 0.55623 0.10381 0.0
C136 C 0.79475 0.61139 0.18916 0.0
C137 C 0.6728 0.62162 0.20286 0.0
C138 C 0.6566 0.68591 0.19751 0.0
C139 C 0.61208 0.70411 0.24064 0.0
C140 C 0.58575 0.6569 0.29192 0.0
C141 C 0.60495 0.59313 0.30029 0.0
C142 C 0.64698 0.57416 0.25378 0.0
H143 H 0.29104 0.90248 0.15468 0.0
H144 H 0.14184 0.70137 0.06197 0.0
H145 H 0.19789 0.62591 0.12143 0.0
H146 H 0.44709 0.83492 0.1629 0.0
H147 H 0.47678 0.8792 0.24112 0.0
H148 H 0.43178 0.91974 0.18479 0.0
H149 H 0.33822 0.91734 0.27026 0.0
H150 H 0.38299 0.87706 0.32665 0.0
H151 H 0.28945 0.83066 0.30671 0.0
H152 H 0.25631 0.57012 0.20054 0.0
H153 H 0.31697 0.53844 0.29464 0.0
H154 H 0.43318 0.77323 0.33432 0.0
C155 C 0.27137 0.84278 0.14588 0.0
C156 C 0.21179 0.80812 0.10376 0.0
C157 C 0.18698 0.72955 0.0943 0.0
C158 C 0.21881 0.68593 0.1275 0.0
C159 C 0.27612 0.72135 0.16972 0.0
C160 C 0.30281 0.79796 0.1788 0.0
C161 C 0.36131 0.82089 0.23114 0.0
C162 C 0.43352 0.86638 0.2033 0.0
C163 C 0.34178 0.86399 0.28698 0.0
C164 C 0.36079 0.74509 0.25159 0.0
C165 C 0.31176 0.68854 0.21492 0.0
C166 C 0.2962 0.61376 0.2287 0.0
C167 C 0.33068 0.59624 0.28224 0.0
C168 C 0.38042 0.65326 0.32095 0.0
C169 C 0.39687 0.72845 0.30437 0.0
H170 H 0.10138 0.76438 0.81371 0.0
H171 H 0.22799 0.99938 0.81013 0.0
H172 H 0.2997 0.97337 0.72374 0.0
H173 H 0.24062 0.701 0.80157 0.0
H174 H 0.19603 0.62005 0.75045 0.0
H175 H 0.14484 0.65736 0.80247 0.0
H176 H 0.06766 0.6708 0.7047 0.0
H177 H 0.11772 0.63203 0.65229 0.0
H178 H 0.1106 0.72129 0.63595 0.0
H179 H 0.36949 0.92084 0.65208 0.0
H180 H 0.42789 0.8458 0.59282 0.0
H181 H 0.25697 0.64398 0.64222 0.0
C182 C 0.14229 0.81062 0.79286 0.0
C183 C 0.15888 0.88395 0.81825 0.0
C184 C 0.21426 0.94283 0.79118 0.0
C185 C 0.25526 0.92862 0.74205 0.0
C186 C 0.23999 0.85527 0.7203 0.0
C187 C 0.18421 0.79725 0.74404 0.0
C188 C 0.18376 0.72286 0.71692 0.0
C189 C 0.19182 0.6724 0.77109 0.0
C190 C 0.1159 0.68449 0.67496 0.0
C191 C 0.24957 0.74805 0.67633 0.0
C192 C 0.28071 0.82468 0.6785 0.0
C193 C 0.34487 0.86086 0.64889 0.0
C194 C 0.37796 0.81764 0.61578 0.0
C195 C 0.34694 0.73896 0.61259 0.0
C196 C 0.28158 0.70401 0.64301 0.0
H197 H 0.18751 0.30335 0.9262 0.0
H198 H 0.22542 0.09489 0.89941 0.0
H199 H 0.32294 0.15567 0.82607 0.0
H200 H 0.20025 0.35004 0.77042 0.0
H201 H 0.2433 0.44892 0.78445 0.0
H202 H 0.18833 0.39392 0.84507 0.0
H203 H 0.29391 0.44147 0.92877 0.0
H204 H 0.34941 0.49702 0.86813 0.0
H205 H 0.37812 0.43107 0.91117 0.0
H206 H 0.40062 0.23301 0.74171 0.0
H207 H 0.44756 0.31734 0.6526 0.0
H208 H 0.36 0.47561 0.73528 0.0
C209 C 0.21761 0.27077 0.9066 0.0
C210 C 0.19867 0.19413 0.9186 0.0
C211 C 0.2389 0.15356 0.89102 0.0
C212 C 0.29471 0.18785 0.84958 0.0
C213 C 0.31015 0.26296 0.83692 0.0
C214 C 0.27298 0.30402 0.86514 0.0
C215 C 0.29309 0.38084 0.83776 0.0
C216 C 0.22736 0.39411 0.80763 0.0
C217 C 0.3309 0.44116 0.88955 0.0
C218 C 0.34438 0.37529 0.787 0.0
C219 C 0.35514 0.3077 0.78834 0.0
C220 C 0.3946 0.28705 0.74164 0.0
C221 C 0.42207 0.3358 0.69154 0.0
C222 C 0.4098 0.40414 0.68843 0.0
C223 C 0.37174 0.42453 0.73757 0.0
H224 H 0.74337 0.1663 0.88681 0.0
H225 H 0.94709 0.34715 0.90622 0.0
H226 H 0.89724 0.42512 0.83991 0.0
H227 H 0.7121 0.18536 0.72735 0.0
H228 H 0.61676 0.16173 0.73209 0.0
H229 H 0.66425 0.12636 0.7899 0.0
H230 H 0.61383 0.1838 0.8833 0.0
H231 H 0.56598 0.2195 0.82556 0.0
H232 H 0.62666 0.28173 0.88444 0.0
H233 H 0.82983 0.47533 0.75909 0.0
H234 H 0.75409 0.493 0.67019 0.0
H235 H 0.59483 0.27751 0.70411 0.0
C236 C 0.77751 0.22282 0.8783 0.0
C237 C 0.84942 0.25062 0.90151 0.0
C238 C 0.89184 0.32488 0.88925 0.0
C239 C 0.86383 0.36944 0.85176 0.0
C240 C 0.79317 0.33908 0.828 0.0
C241 C 0.75052 0.26753 0.84139 0.0
C242 C 0.67897 0.24464 0.80538 0.0
C243 C 0.66742 0.17549 0.76106 0.0
C244 C 0.61775 0.23167 0.85249 0.0
C245 C 0.68885 0.31329 0.76694 0.0
C246 C 0.75448 0.36773 0.78155 0.0
C247 C 0.77798 0.43357 0.7482 0.0
C248 C 0.73447 0.44297 0.69757 0.0
C249 C 0.66829 0.38663 0.68017 0.0
C250 C 0.64441 0.32208 0.71686 0.0
H251 H 0.8708 0.9524 0.76142 0.0
H252 H 0.9224 0.78257 0.86404 0.0
H253 H 0.89532 0.70198 0.76459 0.0
H254 H 0.72624 0.84632 0.68252 0.0
H255 H 0.74054 0.89447 0.60757 0.0
H256 H 0.78149 0.9432 0.68076 0.0
H257 H 0.90554 0.97923 0.62883 0.0
H258 H 0.86439 0.92884 0.5554 0.0
H259 H 0.93547 0.90749 0.59594 0.0
H260 H 0.83398 0.63093 0.66551 0.0
H261 H 0.73966 0.57565 0.58205 0.0
H262 H 0.73847 0.79507 0.53808 0.0
C263 C 0.87798 0.89886 0.76206 0.0
C264 C 0.89775 0.87271 0.81956 0.0
C265 C 0.90723 0.80299 0.81979 0.0
C266 C 0.8927 0.75745 0.76349 0.0
C267 C 0.87127 0.78398 0.70733 0.0
C268 C 0.86534 0.85388 0.70608 0.0
C269 C 0.83233 0.86596 0.64302 0.0
C270 C 0.76625 0.88867 0.6542 0.0
C271 C 0.88776 0.9238 0.60346 0.0
C272 C 0.81267 0.78902 0.61198 0.0
C273 C 0.83801 0.7432 0.64848 0.0
C274 C 0.81554 0.66661 0.63557 0.0
C275 C 0.76175 0.63547 0.58792 0.0
C276 C 0.73053 0.68087 0.55469 0.0
C277 C 0.76119 0.75891 0.56287 0.0
loop_
_geom_bond_atom_site_label_1
_geom_bond_atom_site_label_2
_geom_bond_distance
_geom_bond_site_symmetry_2
_ccdc_geom_bond_type
C0 O27 1.312 . S
C0 O28 1.208 . S
C1 O22 1.331 . S
C1 O25 1.244 . S
C2 O24 1.264 . S
C2 O26 1.273 . S
Mg3 O5 1.932 1_454 S
Mg3 O12 2.070 1_454 S
Mg3 O14 2.012 1_455 S
Mg3 O18 2.043 1_554 S
Mg3 O27 2.301 . S
Mg4 O5 1.963 . S
Mg4 O15 1.942 . S
Mg4 O16 1.955 1_556 S
Mg4 O23 1.986 1_545 S
O5 Mg3 1.932 1_656 S
O5 Mg4 1.963 . S
O5 Mg6 1.915 1_546 S
Mg6 O5 1.915 1_564 S
Mg6 O7 1.915 1_655 S
Mg6 O11 2.013 . S
Mg6 O17 2.114 1_664 S
Mg6 O21 2.013 1_554 S
Mg6 O27 2.114 1_665 S
O7 Mg6 1.915 1_455 S
O7 Mg8 1.938 . S
O7 Mg9 1.963 . S
Mg8 O7 1.938 . S
Mg8 O17 2.283 1_564 S
Mg8 O22 2.089 . S
Mg8 O24 2.031 1_554 S
Mg8 O28 2.022 1_565 S
Mg9 O7 1.963 . S
Mg9 O13 1.986 1_455 S
Mg9 O25 1.942 . S
Mg9 O26 1.955 1_554 S
C10 O21 1.191 . S
C10 O23 1.307 . S
O11 Mg6 2.013 . S
O11 C30 1.191 . S
O12 Mg3 2.070 1_656 S
O12 C20 1.331 . S
O13 Mg9 1.986 1_655 S
O13 C30 1.307 . S
O14 Mg3 2.012 1_655 S
O14 C29 1.264 . S
O15 Mg4 1.942 . S
O15 C20 1.244 . S
O16 Mg4 1.955 1_554 S
O16 C29 1.273 . S
O17 Mg6 2.114 1_446 S
O17 Mg8 2.283 1_546 S
O17 C19 1.312 . S
O18 Mg3 2.043 1_556 S
O18 C19 1.208 . S
C19 O17 1.312 . S
C19 O18 1.208 . S
C20 O12 1.331 . S
C20 O15 1.244 . S
O21 Mg6 2.013 1_556 S
O21 C10 1.191 . S
O22 C1 1.331 . S
O22 Mg8 2.089 . S
O23 Mg4 1.986 1_565 S
O23 C10 1.307 . S
O24 C2 1.264 . S
O24 Mg8 2.031 1_556 S
O25 C1 1.244 . S
O25 Mg9 1.942 . S
O26 C2 1.273 . S
O26 Mg9 1.955 1_556 S
O27 C0 1.312 . S
O27 Mg3 2.301 . S
O27 Mg6 2.114 1_445 S
O28 C0 1.208 . S
O28 Mg8 2.022 1_545 S
C29 O14 1.264 . S
C29 O16 1.273 . S
C30 O11 1.191 . S
C30 O13 1.307 . S
C31 O43 1.241 . S
C31 O44 1.280 . S
C32 O45 1.277 . S
C32 O46 1.245 . S
C33 O57 1.247 . S
C33 O59 1.289 . S
Mg34 O35 1.926 . S
Mg34 O44 1.984 . S
Mg34 O46 1.988 . S
Mg34 O47 2.061 . S
O35 Mg34 1.926 . S
O35 Mg36 1.986 . S
O35 Mg37 1.917 . S
Mg36 O35 1.986 . S
Mg36 O43 2.042 . S
Mg36 O45 2.041 . S
Mg36 O51 2.038 . S
Mg36 O59 2.238 . S
Mg37 O35 1.917 . S
Mg37 O38 1.917 . S
Mg37 O48 2.106 . S
Mg37 O50 2.079 . S
Mg37 O59 2.106 . S
Mg37 O60 2.079 . S
O38 Mg37 1.917 . S
O38 Mg39 1.926 . S
O38 Mg40 1.986 . S
Mg39 O38 1.926 . S
Mg39 O53 1.984 . S
Mg39 O56 1.988 . S
Mg39 O57 2.061 . S
Mg40 O38 1.986 . S
Mg40 O48 2.238 . S
Mg40 O52 2.042 . S
Mg40 O54 2.041 . S
Mg40 O61 2.038 . S
C41 O47 1.247 . S
C41 O48 1.289 . S
C42 O60 1.245 . S
C42 O61 1.274 . S
O43 C31 1.241 . S
O43 Mg36 2.042 . S
O44 C31 1.280 . S
O44 Mg34 1.984 . S
O45 C32 1.277 . S
O45 Mg36 2.041 . S
O46 C32 1.245 . S
O46 Mg34 1.988 . S
O47 Mg34 2.061 . S
O47 C41 1.247 . S
O48 Mg37 2.106 . S
O48 Mg40 2.238 . S
O48 C41 1.289 . S
C49 O50 1.245 . S
C49 O51 1.274 . S
O50 Mg37 2.079 . S
O50 C49 1.245 . S
O51 Mg36 2.038 . S
O51 C49 1.274 . S
O52 Mg40 2.042 . S
O52 C55 1.241 . S
O53 Mg39 1.984 . S
O53 C55 1.280 . S
O54 Mg40 2.041 . S
O54 C58 1.277 . S
C55 O52 1.241 . S
C55 O53 1.280 . S
O56 Mg39 1.988 . S
O56 C58 1.245 . S
O57 C33 1.247 . S
O57 Mg39 2.061 . S
C58 O54 1.277 . S
C58 O56 1.245 . S
O59 C33 1.289 . S
O59 Mg36 2.238 . S
O59 Mg37 2.106 . S
O60 Mg37 2.079 . S
O60 C42 1.245 . S
O61 Mg40 2.038 . S
O61 C42 1.274 . S
H62 C74 0.930 . S
H63 C76 0.930 . S
H64 C77 0.930 . S
H65 C81 0.959 . S
H66 C81 0.959 . S
H67 C81 0.961 . S
H68 C82 0.960 . S
H69 C82 0.961 . S
H70 C82 0.959 . S
H71 C85 0.929 . S
H72 C86 0.931 . S
H73 C88 0.930 . S
C74 H62 0.930 . S
C74 C75 1.399 . S
C74 C79 1.399 . S
C75 C74 1.399 . S
C75 C76 1.376 . S
C76 H63 0.930 . S
C76 C75 1.376 . S
C76 C77 1.388 . S
C77 H64 0.930 . S
C77 C76 1.388 . S
C77 C78 1.390 . S
C78 C77 1.390 . S
C78 C79 1.394 . S
C78 C84 1.465 . S
C79 C74 1.399 . S
C79 C78 1.394 . S
C79 C80 1.516 . S
C80 C79 1.516 . S
C80 C81 1.502 . S
C80 C82 1.561 . S
C80 C83 1.526 . S
C81 H65 0.959 . S
C81 H66 0.959 . S
C81 H67 0.961 . S
C81 C80 1.502 . S
C82 H68 0.960 . S
C82 H69 0.961 . S
C82 H70 0.959 . S
C82 C80 1.561 . S
C83 C80 1.526 . S
C83 C84 1.396 . S
C83 C88 1.390 . S
C84 C78 1.465 . S
C84 C83 1.396 . S
C84 C85 1.399 . S
C85 H71 0.929 . S
C85 C84 1.399 . S
C85 C86 1.385 . S
C86 H72 0.931 . S
C86 C85 1.385 . S
C86 C87 1.389 . S
C87 C86 1.389 . S
C87 C88 1.387 . S
C88 H73 0.930 . S
C88 C83 1.390 . S
C88 C87 1.387 . S
H89 C101 0.930 . S
H90 C103 0.930 . S
H91 C104 0.930 . S
H92 C108 0.959 . S
H93 C108 0.959 . S
H94 C108 0.961 . S
H95 C109 0.960 . S
H96 C109 0.961 . S
H97 C109 0.959 . S
H98 C112 0.929 . S
H99 C113 0.931 . S
H100 C115 0.930 . S
C101 H89 0.930 . S
C101 C102 1.399 . S
C101 C106 1.399 . S
C102 C101 1.399 . S
C102 C103 1.376 . S
C103 H90 0.930 . S
C103 C102 1.376 . S
C103 C104 1.388 . S
C104 H91 0.930 . S
C104 C103 1.388 . S
C104 C105 1.390 . S
C105 C104 1.390 . S
C105 C106 1.394 . S
C105 C111 1.465 . S
C106 C101 1.399 . S
C106 C105 1.394 . S
C106 C107 1.516 . S
C107 C106 1.516 . S
C107 C108 1.502 . S
C107 C109 1.561 . S
C107 C110 1.526 . S
C108 H92 0.959 . S
C108 H93 0.959 . S
C108 H94 0.961 . S
C108 C107 1.502 . S
C109 H95 0.960 . S
C109 H96 0.961 . S
C109 H97 0.959 . S
C109 C107 1.561 . S
C110 C107 1.526 . S
C110 C111 1.396 . S
C110 C115 1.390 . S
C111 C105 1.465 . S
C111 C110 1.396 . S
C111 C112 1.399 . S
C112 H98 0.929 . S
C112 C111 1.399 . S
C112 C113 1.385 . S
C113 H99 0.931 . S
C113 C112 1.385 . S
C113 C114 1.389 . S
C114 C113 1.389 . S
C114 C115 1.387 . S
C115 H100 0.930 . S
C115 C110 1.390 . S
C115 C114 1.387 . S
H116 C128 0.930 . S
H117 C130 0.930 . S
H118 C131 0.930 . S
H119 C135 0.959 . S
H120 C135 0.959 . S
H121 C135 0.961 . S
H122 C136 0.960 . S
H123 C136 0.961 . S
H124 C136 0.959 . S
H125 C139 0.929 . S
H126 C140 0.931 . S
H127 C142 0.930 . S
C128 H116 0.930 . S
C128 C129 1.399 . S
C128 C133 1.399 . S
C129 C128 1.399 . S
C129 C130 1.376 . S
C130 H117 0.930 . S
C130 C129 1.376 . S
C130 C131 1.388 . S
C131 H118 0.930 . S
C131 C130 1.388 . S
C131 C132 1.390 . S
C132 C131 1.390 . S
C132 C133 1.394 . S
C132 C138 1.465 . S
C133 C128 1.399 . S
C133 C132 1.394 . S
C133 C134 1.516 . S
C134 C133 1.516 . S
C134 C135 1.502 . S
C134 C136 1.561 . S
C134 C137 1.526 . S
C135 H119 0.959 . S
C135 H120 0.959 . S
C135 H121 0.961 . S
C135 C134 1.502 . S
C136 H122 0.960 . S
C136 H123 0.961 . S
C136 H124 0.959 . S
C136 C134 1.561 . S
C137 C134 1.526 . S
C137 C138 1.396 . S
C137 C142 1.390 . S
C138 C132 1.465 . S
C138 C137 1.396 . S
C138 C139 1.399 . S
C139 H125 0.929 . S
C139 C138 1.399 . S
C139 C140 1.385 . S
C140 H126 0.931 . S
C140 C139 1.385 . S
C140 C141 1.389 . S
C141 C140 1.389 . S
C141 C142 1.387 . S
C142 H127 0.930 . S
C142 C137 1.390 . S
C142 C141 1.387 . S
H143 C155 0.930 . S
H144 C157 0.930 . S
H145 C158 0.930 . S
H146 C162 0.959 . S
H147 C162 0.959 . S
H148 C162 0.961 . S
H149 C163 0.960 . S
H150 C163 0.961 . S
H151 C163 0.959 . S
H152 C166 0.929 . S
H153 C167 0.931 . S
H154 C169 0.930 . S
C155 H143 0.930 . S
C155 C156 1.399 . S
C155 C160 1.399 . S
C156 C155 1.399 . S
C156 C157 1.376 . S
C157 H144 0.930 . S
C157 C156 1.376 . S
C157 C158 1.388 . S
C158 H145 0.930 . S
C158 C157 1.388 . S
C158 C159 1.390 . S
C159 C158 1.390 . S
C159 C160 1.394 . S
C159 C165 1.465 . S
C160 C155 1.399 . S
C160 C159 1.394 . S
C160 C161 1.516 . S
C161 C160 1.516 . S
C161 C162 1.502 . S
C161 C163 1.561 . S
C161 C164 1.526 . S
C162 H146 0.959 . S
C162 H147 0.959 . S
C162 H148 0.961 . S
C162 C161 1.502 . S
C163 H149 0.960 . S
C163 H150 0.961 . S
C163 H151 0.959 . S
C163 C161 1.561 . S
C164 C161 1.526 . S
C164 C165 1.396 . S
C164 C169 1.390 . S
C165 C159 1.465 . S
C165 C164 1.396 . S
C165 C166 1.399 . S
C166 H152 0.929 . S
C166 C165 1.399 . S
C166 C167 1.385 . S
C167 H153 0.931 . S
C167 C166 1.385 . S
C167 C168 1.389 . S
C168 C167 1.389 . S
C168 C169 1.387 . S
C169 H154 0.930 . S
C169 C164 1.390 . S
C169 C168 1.387 . S
H170 C182 0.930 . S
H171 C184 0.930 . S
H172 C185 0.930 . S
H173 C189 0.959 . S
H174 C189 0.959 . S
H175 C189 0.961 . S
H176 C190 0.960 . S
H177 C190 0.961 . S
H178 C190 0.959 . S
H179 C193 0.929 . S
H180 C194 0.931 . S
H181 C196 0.930 . S
C182 H170 0.930 . S
C182 C183 1.399 . S
C182 C187 1.399 . S
C183 C182 1.399 . S
C183 C184 1.376 . S
C184 H171 0.930 . S
C184 C183 1.376 . S
C184 C185 1.388 . S
C185 H172 0.930 . S
C185 C184 1.388 . S
C185 C186 1.390 . S
C186 C185 1.390 . S
C186 C187 1.394 . S
C186 C192 1.465 . S
C187 C182 1.399 . S
C187 C186 1.394 . S
C187 C188 1.516 . S
C188 C187 1.516 . S
C188 C189 1.502 . S
C188 C190 1.561 . S
C188 C191 1.526 . S
C189 H173 0.959 . S
C189 H174 0.959 . S
C189 H175 0.961 . S
C189 C188 1.502 . S
C190 H176 0.960 . S
C190 H177 0.961 . S
C190 H178 0.959 . S
C190 C188 1.561 . S
C191 C188 1.526 . S
C191 C192 1.396 . S
C191 C196 1.390 . S
C192 C186 1.465 . S
C192 C191 1.396 . S
C192 C193 1.399 . S
C193 H179 0.929 . S
C193 C192 1.399 . S
C193 C194 1.385 . S
C194 H180 0.931 . S
C194 C193 1.385 . S
C194 C195 1.389 . S
C195 C194 1.389 . S
C195 C196 1.387 . S
C196 H181 0.930 . S
C196 C191 1.390 . S
C196 C195 1.387 . S
H197 C209 0.930 . S
H198 C211 0.930 . S
H199 C212 0.930 . S
H200 C216 0.959 . S
H201 C216 0.959 . S
H202 C216 0.961 . S
H203 C217 0.960 . S
H204 C217 0.961 . S
H205 C217 0.959 . S
H206 C220 0.929 . S
H207 C221 0.931 . S
H208 C223 0.930 . S
C209 H197 0.930 . S
C209 C210 1.399 . S
C209 C214 1.399 . S
C210 C209 1.399 . S
C210 C211 1.376 . S
C211 H198 0.930 . S
C211 C210 1.376 . S
C211 C212 1.388 . S
C212 H199 0.930 . S
C212 C211 1.388 . S
C212 C213 1.390 . S
C213 C212 1.390 . S
C213 C214 1.394 . S
C213 C219 1.465 . S
C214 C209 1.399 . S
C214 C213 1.394 . S
C214 C215 1.516 . S
C215 C214 1.516 . S
C215 C216 1.502 . S
C215 C217 1.561 . S
C215 C218 1.526 . S
C216 H200 0.959 . S
C216 H201 0.959 . S
C216 H202 0.961 . S
C216 C215 1.502 . S
C217 H203 0.960 . S
C217 H204 0.961 . S
C217 H205 0.959 . S
C217 C215 1.561 . S
C218 C215 1.526 . S
C218 C219 1.396 . S
C218 C223 1.390 . S
C219 C213 1.465 . S
C219 C218 1.396 . S
C219 C220 1.399 . S
C220 H206 0.929 . S
C220 C219 1.399 . S
C220 C221 1.385 . S
C221 H207 0.931 . S
C221 C220 1.385 . S
C221 C222 1.389 . S
C222 C221 1.389 . S
C222 C223 1.387 . S
C223 H208 0.930 . S
C223 C218 1.390 . S
C223 C222 1.387 . S
H224 C236 0.930 . S
H225 C238 0.930 . S
H226 C239 0.930 . S
H227 C243 0.959 . S
H228 C243 0.959 . S
H229 C243 0.961 . S
H230 C244 0.960 . S
H231 C244 0.961 . S
H232 C244 0.959 . S
H233 C247 0.929 . S
H234 C248 0.931 . S
H235 C250 0.930 . S
C236 H224 0.930 . S
C236 C237 1.399 . S
C236 C241 1.399 . S
C237 C236 1.399 . S
C237 C238 1.376 . S
C238 H225 0.930 . S
C238 C237 1.376 . S
C238 C239 1.388 . S
C239 H226 0.930 . S
C239 C238 1.388 . S
C239 C240 1.390 . S
C240 C239 1.390 . S
C240 C241 1.394 . S
C240 C246 1.465 . S
C241 C236 1.399 . S
C241 C240 1.394 . S
C241 C242 1.516 . S
C242 C241 1.516 . S
C242 C243 1.502 . S
C242 C244 1.561 . S
C242 C245 1.526 . S
C243 H227 0.959 . S
C243 H228 0.959 . S
C243 H229 0.961 . S
C243 C242 1.502 . S
C244 H230 0.960 . S
C244 H231 0.961 . S
C244 H232 0.959 . S
C244 C242 1.561 . S
C245 C242 1.526 . S
C245 C246 1.396 . S
C245 C250 1.390 . S
C246 C240 1.465 . S
C246 C245 1.396 . S
C246 C247 1.399 . S
C247 H233 0.929 . S
C247 C246 1.399 . S
C247 C248 1.385 . S
C248 H234 0.931 . S
C248 C247 1.385 . S
C248 C249 1.389 . S
C249 C248 1.389 . S
C249 C250 1.387 . S
C250 H235 0.930 . S
C250 C245 1.390 . S
C250 C249 1.387 . S
H251 C263 0.930 . S
H252 C265 0.930 . S
H253 C266 0.930 . S
H254 C270 0.959 . S
H255 C270 0.959 . S
H256 C270 0.961 . S
H257 C271 0.960 . S
H258 C271 0.961 . S
H259 C271 0.959 . S
H260 C274 0.929 . S
H261 C275 0.931 . S
H262 C277 0.930 . S
C263 H251 0.930 . S
C263 C264 1.399 . S
C263 C268 1.399 . S
C264 C263 1.399 . S
C264 C265 1.376 . S
C265 H252 0.930 . S
C265 C264 1.376 . S
C265 C266 1.388 . S
C266 H253 0.930 . S
C266 C265 1.388 . S
C266 C267 1.390 . S
C267 C266 1.390 . S
C267 C268 1.394 . S
C267 C273 1.465 . S
C268 C263 1.399 . S
C268 C267 1.394 . S
C268 C269 1.516 . S
C269 C268 1.516 . S
C269 C270 1.502 . S
C269 C271 1.561 . S
C269 C272 1.526 . S
C270 H254 0.959 . S
C270 H255 0.959 . S
C270 H256 0.961 . S
C270 C269 1.502 . S
C271 H257 0.960 . S
C271 H258 0.961 . S
C271 H259 0.959 . S
C271 C269 1.561 . S
C272 C269 1.526 . S
C272 C273 1.396 . S
C272 C277 1.390 . S
C273 C267 1.465 . S
C273 C272 1.396 . S
C273 C274 1.399 . S
C274 H260 0.929 . S
C274 C273 1.399 . S
C274 C275 1.385 . S
C275 H261 0.931 . S
C275 C274 1.385 . S
C275 C276 1.389 . S
C276 C275 1.389 . S
C276 C277 1.387 . S
C277 H262 0.930 . S
C277 C272 1.390 . S
C277 C276 1.387 . S
C75 C0 1.095 . S
C87 C33 1.138 . S
C102 C29 1.651 . S
C114 C55 1.594 . S
C129 C30 1.402 . S
C141 C42 1.332 . S
C156 C1 1.620 . S
C168 C32 1.636 . S
C183 C2 1.661 . S
C195 C31 1.587 . S
C222 C49 1.414 . S
C210 C19 1.442 . S
C237 C20 1.673 . S
C249 C58 1.612 . S
C276 C41 1.068 . S
C264 C10 1.024 . S
