# Generated by pormake.
# Topology anh, (6,3)-cn, num edge types: 1
# Building blocks:
#     Node 0, Type 0, BuildingBlock: NUHQIS_clean_sbu_0, # of connection points: 6
#     Node 1, Type 0, BuildingBlock: NUHQIS_clean_sbu_0, # of connection points: 6
#     Node 2, Type 0, BuildingBlock: NUHQIS_clean_sbu_0, # of connection points: 6
#     Node 3, Type 1, BuildingBlock: OLANEW_clean_sbu_2, # of connection points: 3
#     Node 4, Type 1, BuildingBlock: OLANEW_clean_sbu_2, # of connection points: 3
#     Node 5, Type 1, BuildingBlock: OLANEW_clean_sbu_2, # of connection points: 3
#     Node 6, Type 1, BuildingBlock: OLANEW_clean_sbu_2, # of connection points: 3
#     Node 7, Type 1, BuildingBlock: OLANEW_clean_sbu_2, # of connection points: 3
#     Node 8, Type 1, BuildingBlock: OLANEW_clean_sbu_2, # of connection points: 3
#     Edge 9, Type (0, 1), BuildingBlock: MIFKUJ_clean_linker_0, # of connection points: 2
#     Edge 10, Type (0, 1), BuildingBlock: MIFKUJ_clean_linker_0, # of connection points: 2
#     Edge 11, Type (0, 1), BuildingBlock: MIFKUJ_clean_linker_0, # of connection points: 2
#     Edge 12, Type (0, 1), BuildingBlock: MIFKUJ_clean_linker_0, # of connection points: 2
#     Edge 13, Type (0, 1), BuildingBlock: MIFKUJ_clean_linker_0, # of connection points: 2
#     Edge 14, Type (0, 1), BuildingBlock: MIFKUJ_clean_linker_0, # of connection points: 2
#     Edge 15, Type (0, 1), BuildingBlock: MIFKUJ_clean_linker_0, # of connection points: 2
#     Edge 16, Type (0, 1), BuildingBlock: MIFKUJ_clean_linker_0, # of connection points: 2
#     Edge 17, Type (0, 1), BuildingBlock: MIFKUJ_clean_linker_0, # of connection points: 2
#     Edge 18, Type (0, 1), BuildingBlock: MIFKUJ_clean_linker_0, # of connection points: 2
#     Edge 19, Type (0, 1), BuildingBlock: MIFKUJ_clean_linker_0, # of connection points: 2
#     Edge 20, Type (0, 1), BuildingBlock: MIFKUJ_clean_linker_0, # of connection points: 2
#     Edge 21, Type (0, 1), BuildingBlock: MIFKUJ_clean_linker_0, # of connection points: 2
#     Edge 22, Type (0, 1), BuildingBlock: MIFKUJ_clean_linker_0, # of connection points: 2
#     Edge 23, Type (0, 1), BuildingBlock: MIFKUJ_clean_linker_0, # of connection points: 2
#     Edge 24, Type (0, 1), BuildingBlock: MIFKUJ_clean_linker_0, # of connection points: 2
#     Edge 25, Type (0, 1), BuildingBlock: MIFKUJ_clean_linker_0, # of connection points: 2
#     Edge 26, Type (0, 1), BuildingBlock: MIFKUJ_clean_linker_0, # of connection points: 2
# Relax obj value: 0.165
# Max RMSD: 0.125
# Mean RMSD: 0.108
data_MOF--net-anh--node1-NUHQIS_clean_sbu_0--node2-OLANEW_clean_sbu_2--edge1-MIFKUJ_clean_linker_0
_symmetry_space_group_name_H-M    P1
_symmetry_Int_Tables_number       1
_symmetry_cell_setting            triclinic
loop_
_symmetry_equiv_pos_as_xyz
'x, y, z'
_cell_length_a     45.715766
_cell_length_b     45.582443
_cell_length_c     65.125921
_cell_angle_alpha  90.087294
_cell_angle_beta   92.840111
_cell_angle_gamma 119.9313
loop_
_atom_site_label
_atom_site_type_symbol
_atom_site_fract_x
_atom_site_fract_y
_atom_site_fract_z
_atom_type_partial_charge
Tb0 Tb 0.07235 0.54764 0.1688 0.0
Eu1 Eu 0.03121 0.58877 0.1723 0.0
C2 C 0.05651 0.56426 0.2116 0.0
C3 C 0.99238 0.50691 0.17247 0.0
C4 C 0.13877 0.52222 0.16585 0.0
C5 C 0.17623 0.49906 0.16464 0.0
C6 C 0.14369 0.49432 0.16517 0.0
C7 C 0.16688 0.55509 0.1668 0.0
C8 C 0.19956 0.5599 0.16625 0.0
C9 C 0.20453 0.53189 0.16479 0.0
C10 C 0.10414 0.51631 0.16361 0.0
O11 O 0.04508 0.54314 0.13955 0.0
O12 O 0.04973 0.59494 0.14028 0.0
O13 O 0.08556 0.62836 0.17992 0.0
O14 O 0.11218 0.6011 0.16728 0.0
C15 C 0.04697 0.56908 0.1298 0.0
O16 O 0.99742 0.60458 0.15801 0.0
O17 O 1.01606 0.61949 0.18969 0.0
O18 O 0.03068 0.56552 0.20288 0.0
O19 O 0.08042 0.56566 0.20058 0.0
O20 O 0.0216 0.50828 0.17662 0.0
O21 O 0.99095 0.53385 0.16675 0.0
C22 C 0.11314 0.62851 0.17486 0.0
O23 O 0.08939 0.51532 0.18043 0.0
O24 O 0.09862 0.53343 0.14946 0.0
C25 C 0.9593 0.60292 0.18107 0.0
C26 C 0.88961 0.57063 0.18711 0.0
C27 C 0.90663 0.60375 0.17971 0.0
C28 C 0.94126 0.61974 0.17665 0.0
C29 C 0.94276 0.57049 0.18925 0.0
C30 C 0.90824 0.55449 0.19226 0.0
C31 C 0.99424 0.61723 0.17517 0.0
H32 H 0.17903 0.47693 0.16315 0.0
H33 H 0.12223 0.46879 0.16428 0.0
H34 H 0.16347 0.57695 0.16733 0.0
H35 H 0.22085 0.58548 0.16655 0.0
H36 H 0.893 0.61693 0.17578 0.0
H37 H 0.95368 0.64472 0.17022 0.0
H38 H 0.95629 0.55699 0.19254 0.0
H39 H 0.89588 0.5288 0.19764 0.0
Tb40 Tb 0.55948 0.06161 0.50604 0.0
Eu41 Eu 0.47763 0.0185 0.49918 0.0
C42 C 0.51429 0.031 0.5429 0.0
C43 C 0.52223 0.98099 0.50448 0.0
C44 C 0.64739 0.13375 0.51346 0.0
C45 C 0.70558 0.17938 0.51535 0.0
C46 C 0.682 0.14482 0.51511 0.0
C47 C 0.63648 0.15758 0.51304 0.0
C48 C 0.66006 0.19222 0.5132 0.0
C49 C 0.69487 0.20342 0.51379 0.0
C50 C 0.62317 0.0975 0.5104 0.0
O51 O 0.54635 0.04185 0.47418 0.0
O52 O 0.49783 0.04383 0.46958 0.0
O53 O 0.49009 0.07116 0.50971 0.0
O54 O 0.545 0.10014 0.50044 0.0
C55 C 0.52381 0.044 0.46192 0.0
O56 O 0.43205 0.98428 0.48055 0.0
O57 O 0.42791 1.00235 0.51052 0.0
O58 O 0.4917 1.00754 0.53026 0.0
O59 O 0.53854 0.05932 0.53596 0.0
O60 O 0.54854 1.00978 0.51134 0.0
O61 O 0.49488 0.97984 0.49597 0.0
C62 C 0.51764 0.09984 0.50619 0.0
O63 O 0.60385 0.08249 0.52544 0.0
O64 O 0.60612 0.08889 0.49272 0.0
C65 C 0.39161 0.94511 0.50158 0.0
C66 C 0.3541 0.87604 0.51052 0.0
C67 C 0.33842 0.89218 0.50022 0.0
C68 C 0.35711 0.92651 0.49574 0.0
C69 C 0.40712 0.92941 0.51241 0.0
C70 C 0.38855 0.89517 0.51684 0.0
C71 C 0.41228 0.9802 0.49541 0.0
H72 H 0.73223 0.18726 0.51619 0.0
H73 H 0.6908 0.12671 0.51553 0.0
H74 H 0.60977 0.14936 0.51181 0.0
H75 H 0.65101 0.21007 0.51186 0.0
H76 H 0.31202 0.87799 0.49493 0.0
H77 H 0.34487 0.93827 0.48728 0.0
H78 H 0.4338 0.9435 0.51708 0.0
H79 H 0.40124 0.88363 0.52503 0.0
Tb80 Tb 0.57531 0.59111 0.84739 0.0
Eu81 Eu 0.53207 0.5096 0.83777 0.0
C82 C 0.54682 0.54051 0.88283 0.0
C83 C 0.61347 0.54868 0.84777 0.0
C84 C 0.59354 0.67846 0.84778 0.0
C85 C 0.58263 0.7231 0.85829 0.0
C86 C 0.59795 0.70352 0.86213 0.0
C87 C 0.57445 0.67391 0.82926 0.0
C88 C 0.55944 0.69363 0.82535 0.0
C89 C 0.56286 0.71798 0.83998 0.0
C90 C 0.60483 0.6543 0.85336 0.0
O91 O 0.55764 0.58285 0.81485 0.0
O92 O 0.55929 0.53447 0.8096 0.0
O93 O 0.49372 0.52715 0.83302 0.0
O94 O 0.52295 0.57843 0.85059 0.0
C95 C 0.55964 0.56137 0.80232 0.0
O96 O 0.50229 0.46607 0.81674 0.0
O97 O 0.51075 0.45841 0.84886 0.0
O98 O 0.52269 0.51994 0.86961 0.0
O99 O 0.57414 0.56676 0.87647 0.0
O100 O 0.61472 0.57775 0.84422 0.0
O101 O 0.58447 0.52017 0.84852 0.0
C102 C 0.49471 0.55365 0.84192 0.0
O103 O 0.58703 0.63261 0.86697 0.0
O104 O 0.61084 0.6397 0.83817 0.0
C105 C 0.50529 0.41715 0.82509 0.0
C106 C 0.51788 0.36364 0.81803 0.0
C107 C 0.48468 0.35721 0.81992 0.0
C108 C 0.47848 0.38375 0.82343 0.0
C109 C 0.53843 0.42395 0.82272 0.0
C110 C 0.54469 0.39733 0.81912 0.0
C111 C 0.49841 0.44414 0.83075 0.0
H112 H 0.58574 0.74181 0.86977 0.0
H113 H 0.6122 0.70708 0.87661 0.0
H114 H 0.57004 0.65424 0.81812 0.0
H115 H 0.54389 0.68877 0.81126 0.0
H116 H 0.46347 0.33156 0.81879 0.0
H117 H 0.45277 0.37814 0.82526 0.0
H118 H 0.55945 0.4497 0.8241 0.0
H119 H 0.57051 0.40301 0.81781 0.0
O120 O 0.59161 0.1038 0.23873 0.0
Cd121 Cd 0.62052 0.12767 0.20605 0.0
O122 O 0.54752 0.05416 0.22865 0.0
Cd123 Cd 0.49917 1.00389 0.22941 0.0
O124 O 0.45292 0.95279 0.22233 0.0
C125 C 0.42292 0.94615 0.2256 0.0
O126 O 0.41877 0.97002 0.2339 0.0
C127 C 0.5652 0.07604 0.24301 0.0
C128 C 0.68071 0.19239 0.20546 0.0
O129 O 0.65133 0.1892 0.20234 0.0
O130 O 0.68186 0.16551 0.20975 0.0
O131 O 0.52972 0.51276 0.57608 0.0
Cd132 Cd 0.51955 0.47953 0.54302 0.0
O133 O 0.5252 0.55766 0.56809 0.0
Cd134 Cd 0.52322 0.60636 0.56791 0.0
O135 O 0.5162 0.65085 0.55981 0.0
C136 C 0.53929 0.68172 0.56304 0.0
O137 O 0.56842 0.68801 0.57183 0.0
C138 C 0.53035 0.54011 0.58168 0.0
C139 C 0.52368 0.41884 0.54158 0.0
O140 O 0.54922 0.44781 0.53816 0.0
O141 O 0.4967 0.41845 0.54655 0.0
O142 O 0.09528 0.55863 0.90638 0.0
Cd143 Cd 0.1237 0.56313 0.87356 0.0
O144 O 0.04993 0.56153 0.89574 0.0
Cd145 Cd 1.00042 0.56083 0.89677 0.0
O146 O 0.95117 0.55937 0.88887 0.0
C147 C 0.92922 0.55438 0.90185 0.0
O148 O 0.93552 0.54996 0.92115 0.0
C149 C 0.06831 0.5591 0.91035 0.0
C150 C 0.1845 0.55987 0.87274 0.0
O151 O 0.18518 0.58769 0.87703 0.0
O152 O 0.15531 0.53332 0.86974 0.0
O153 O 0.09156 0.47457 0.42836 0.0
Cd154 Cd 0.0975 0.46093 0.46404 0.0
O155 O 0.06006 0.49435 0.43908 0.0
Cd156 Cd 0.02747 0.5168 0.43926 0.0
O157 O 0.98174 0.51037 0.45241 0.0
C158 C 0.95384 0.49685 0.44178 0.0
O159 O 0.95376 0.49047 0.42208 0.0
C160 C 0.07393 0.48854 0.42436 0.0
C161 C 0.14137 0.52118 0.4855 0.0
O162 O 0.10942 0.50988 0.48429 0.0
O163 O 0.15236 0.50338 0.47709 0.0
O164 O 0.32654 0.88627 0.72981 0.0
Cd165 Cd 0.30073 0.86528 0.76248 0.0
O166 O 0.36731 0.92773 0.74859 0.0
Cd167 Cd 0.41641 0.97387 0.75333 0.0
O168 O 0.45499 0.02607 0.76102 0.0
C169 C 0.45482 0.03687 0.77897 0.0
O170 O 0.4331 0.01577 0.79169 0.0
C171 C 0.35483 0.91361 0.73102 0.0
C172 C 0.33928 0.8429 0.78437 0.0
O173 O 0.3125 0.82208 0.77363 0.0
O174 O 0.34723 0.87412 0.78524 0.0
O175 O 0.49687 0.35655 0.0724 0.0
Cd176 Cd 0.49085 0.31977 0.10105 0.0
O177 O 0.5038 0.39617 0.09446 0.0
Cd178 Cd 0.50549 0.44347 0.10278 0.0
O179 O 0.48505 0.47552 0.11166 0.0
C180 C 0.46611 0.47969 0.09848 0.0
O181 O 0.46156 0.46643 0.07985 0.0
C182 C 0.50219 0.38629 0.07596 0.0
C183 C 0.54926 0.35088 0.12689 0.0
O184 O 0.54661 0.33182 0.11159 0.0
O185 O 0.52392 0.35466 0.13024 0.0
H186 H 0.2529 0.57732 0.14033 0.0
H187 H 0.30406 0.57773 0.13049 0.0
H188 H 0.28359 0.49641 0.17156 0.0
H189 H 0.2328 0.49625 0.18182 0.0
H190 H 0.36371 0.58217 0.15093 0.0
H191 H 0.28925 0.43676 0.14275 0.0
H192 H 0.23012 0.39043 0.13754 0.0
H193 H 0.20387 0.45727 0.10572 0.0
H194 H 0.26292 0.50379 0.11043 0.0
H195 H 0.46739 0.5073 0.13615 0.0
H196 H 0.42876 0.52578 0.14747 0.0
H197 H 0.38058 0.50532 0.08642 0.0
H198 H 0.41891 0.48667 0.07499 0.0
H199 H 0.33552 0.47424 0.11511 0.0
H200 H 0.42725 0.58567 0.10481 0.0
H201 H 0.48589 0.63317 0.10873 0.0
H202 H 0.47779 0.63686 0.17398 0.0
H203 H 0.41923 0.58904 0.17049 0.0
C204 C 0.25983 0.56025 0.14777 0.0
C205 C 0.2385 0.5364 0.16165 0.0
C206 C 0.28906 0.56051 0.14209 0.0
C207 C 0.29727 0.53681 0.1501 0.0
C208 C 0.27742 0.51466 0.16505 0.0
C209 C 0.24831 0.51447 0.17079 0.0
C210 C 0.32393 0.53236 0.14108 0.0
C211 C 0.35769 0.55861 0.14313 0.0
C212 C 0.31582 0.50185 0.13053 0.0
C213 C 0.28042 0.47381 0.12714 0.0
C214 C 0.27088 0.4415 0.13455 0.0
C215 C 0.23738 0.41521 0.1317 0.0
C216 C 0.21323 0.42093 0.12137 0.0
C217 C 0.22257 0.4529 0.11378 0.0
C218 C 0.25604 0.47923 0.11655 0.0
C219 C 0.44894 0.50725 0.12504 0.0
C220 C 0.44602 0.49521 0.10471 0.0
C221 C 0.42697 0.51796 0.13152 0.0
C222 C 0.4018 0.51691 0.11778 0.0
C223 C 0.39978 0.50625 0.09728 0.0
C224 C 0.42176 0.49565 0.09077 0.0
C225 C 0.37564 0.52385 0.1252 0.0
C226 C 0.34177 0.49791 0.12287 0.0
C227 C 0.38373 0.55478 0.13525 0.0
C228 C 0.41894 0.58355 0.1374 0.0
C229 C 0.43806 0.59641 0.12002 0.0
C230 C 0.47127 0.62344 0.12216 0.0
C231 C 0.48559 0.63797 0.1416 0.0
C232 C 0.46668 0.62556 0.15893 0.0
C233 C 0.43346 0.59851 0.15688 0.0
H234 H 0.5113 0.6589 0.14322 0.0
H235 H 0.1873 0.40057 0.11921 0.0
H236 H 0.69755 0.25995 0.53114 0.0
H237 H 0.73833 0.31953 0.52487 0.0
H238 H 0.78835 0.28755 0.48327 0.0
H239 H 0.74813 0.22861 0.4894 0.0
H240 H 0.8332 0.33734 0.50865 0.0
H241 H 0.73108 0.31279 0.4663 0.0
H242 H 0.6707 0.29602 0.46243 0.0
H243 H 0.68908 0.37957 0.50208 0.0
H244 H 0.74952 0.39659 0.50635 0.0
H245 H 0.8898 0.45594 0.42488 0.0
H246 H 0.84057 0.41723 0.44343 0.0
H247 H 0.89562 0.46274 0.50113 0.0
H248 H 0.94519 0.50137 0.48274 0.0
H249 H 0.79774 0.41319 0.47501 0.0
H250 H 0.89044 0.39792 0.52894 0.0
H251 H 0.95019 0.41204 0.53136 0.0
H252 H 0.94901 0.40386 0.46558 0.0
H253 H 0.88918 0.38924 0.46284 0.0
C254 C 0.71732 0.26576 0.52069 0.0
C255 C 0.71984 0.2396 0.51091 0.0
C256 C 0.74055 0.29973 0.51713 0.0
C257 C 0.76636 0.30794 0.5036 0.0
C258 C 0.76887 0.28182 0.49394 0.0
C259 C 0.74591 0.24809 0.49753 0.0
C260 C 0.79088 0.34348 0.49892 0.0
C261 C 0.8254 0.35413 0.50164 0.0
C262 C 0.78077 0.36547 0.48985 0.0
C263 C 0.74469 0.35576 0.48679 0.0
C264 C 0.72219 0.32749 0.47424 0.0
C265 C 0.68798 0.31794 0.47198 0.0
C266 C 0.67604 0.33665 0.48207 0.0
C267 C 0.69834 0.36506 0.49432 0.0
C268 C 0.73258 0.37469 0.49665 0.0
C269 C 0.89114 0.45855 0.44149 0.0
C270 C 0.92174 0.48103 0.45236 0.0
C271 C 0.86282 0.43652 0.45207 0.0
C272 C 0.86471 0.43671 0.47364 0.0
C273 C 0.89381 0.462 0.48447 0.0
C274 C 0.92218 0.48396 0.47391 0.0
C275 C 0.83985 0.40644 0.4843 0.0
C276 C 0.80545 0.39683 0.48268 0.0
C277 C 0.8499 0.38501 0.49422 0.0
C278 C 0.88557 0.39294 0.4957 0.0
C279 C 0.90296 0.39904 0.51503 0.0
C280 C 0.93681 0.40712 0.51644 0.0
C281 C 0.95342 0.40897 0.49863 0.0
C282 C 0.93615 0.40253 0.47936 0.0
C283 C 0.90229 0.39435 0.47787 0.0
H284 H 0.97964 0.41531 0.49975 0.0
H285 H 0.64953 0.32917 0.48035 0.0
H286 H 0.55806 0.74877 0.80512 0.0
H287 H 0.5224 0.77401 0.79836 0.0
H288 H 0.48829 0.75231 0.86003 0.0
H289 H 0.52432 0.72751 0.86693 0.0
H290 H 0.45742 0.74452 0.79698 0.0
H291 H 0.46344 0.80738 0.87573 0.0
H292 H 0.50412 0.83625 0.90528 0.0
H293 H 0.58679 0.86564 0.86628 0.0
H294 H 0.54663 0.83735 0.83646 0.0
H295 H 0.32354 0.77832 0.79338 0.0
H296 H 0.3622 0.75929 0.80642 0.0
H297 H 0.4443 0.86278 0.80972 0.0
H298 H 0.40545 0.88202 0.7976 0.0
H299 H 0.4523 0.83108 0.84046 0.0
H300 H 0.42813 0.8073 0.76756 0.0
H301 H 0.39191 0.78256 0.73579 0.0
H302 H 0.35406 0.68271 0.75913 0.0
H303 H 0.38975 0.7069 0.79116 0.0
C304 C 0.54322 0.74976 0.81729 0.0
C305 C 0.54398 0.73628 0.83655 0.0
C306 C 0.52288 0.76416 0.81342 0.0
C307 C 0.50278 0.76522 0.82871 0.0
C308 C 0.50407 0.75242 0.84812 0.0
C309 C 0.52463 0.73822 0.85205 0.0
C310 C 0.47888 0.77765 0.82381 0.0
C311 C 0.45635 0.76345 0.80651 0.0
C312 C 0.47761 0.80255 0.83613 0.0
C313 C 0.502 0.81993 0.85392 0.0
C314 C 0.4903 0.82011 0.87345 0.0
C315 C 0.51327 0.83635 0.89025 0.0
C316 C 0.54802 0.85267 0.88767 0.0
C317 C 0.55987 0.85287 0.86827 0.0
C318 C 0.53701 0.83669 0.85143 0.0
C319 C 0.34974 0.79702 0.79716 0.0
C320 C 0.36157 0.83161 0.79429 0.0
C321 C 0.37184 0.78613 0.80453 0.0
C322 C 0.40634 0.80953 0.80858 0.0
C323 C 0.41783 0.84422 0.80664 0.0
C324 C 0.39561 0.85519 0.79966 0.0
C325 C 0.43085 0.79787 0.81364 0.0
C326 C 0.45335 0.81206 0.831 0.0
C327 C 0.43272 0.77351 0.8011 0.0
C328 C 0.41129 0.75894 0.78184 0.0
C329 C 0.41189 0.78008 0.76597 0.0
C330 C 0.39148 0.76616 0.74791 0.0
C331 C 0.37061 0.73109 0.74547 0.0
C332 C 0.37018 0.70987 0.76106 0.0
C333 C 0.39049 0.72367 0.77916 0.0
H334 H 0.35484 0.72036 0.73147 0.0
H335 H 0.56576 0.86521 0.90069 0.0
H336 H 0.84367 0.56964 0.15835 0.0
H337 H 0.78256 0.53269 0.15659 0.0
H338 H 0.7895 0.4904 0.21462 0.0
H339 H 0.85097 0.52765 0.21657 0.0
H340 H 0.75375 0.44189 0.18675 0.0
H341 H 0.75141 0.53865 0.21084 0.0
H342 H 0.76607 0.59853 0.21254 0.0
H343 H 0.72278 0.5891 0.15118 0.0
H344 H 0.70828 0.52929 0.14898 0.0
H345 H 0.56158 0.38943 0.16195 0.0
H346 H 0.616 0.42432 0.18092 0.0
H347 H 0.66383 0.39039 0.13887 0.0
H348 H 0.60956 0.35481 0.12031 0.0
H349 H 0.66868 0.47608 0.16821 0.0
H350 H 0.73266 0.39414 0.15885 0.0
H351 H 0.71789 0.3343 0.16034 0.0
H352 H 0.63639 0.31359 0.19871 0.0
H353 H 0.65073 0.37337 0.19749 0.0
C354 C 0.83218 0.55323 0.17105 0.0
C355 C 0.8522 0.55159 0.1876 0.0
C356 C 0.79718 0.53204 0.17001 0.0
C357 C 0.78143 0.50896 0.18555 0.0
C358 C 0.80117 0.50805 0.20247 0.0
C359 C 0.83625 0.52926 0.20353 0.0
C360 C 0.74487 0.48379 0.18302 0.0
C361 C 0.735 0.4493 0.18297 0.0
C362 C 0.72036 0.49349 0.17849 0.0
C363 C 0.7289 0.52947 0.17973 0.0
C364 C 0.74521 0.54939 0.19766 0.0
C365 C 0.75346 0.58332 0.19872 0.0
C366 C 0.7454 0.59762 0.18197 0.0
C367 C 0.729 0.57799 0.16414 0.0
C368 C 0.72071 0.54404 0.16299 0.0
C369 C 0.58362 0.38897 0.15698 0.0
C370 C 0.5813 0.36943 0.1396 0.0
C371 C 0.6147 0.40894 0.16783 0.0
C372 C 0.64401 0.40979 0.16148 0.0
C373 C 0.64151 0.38961 0.14442 0.0
C374 C 0.61044 0.36944 0.13369 0.0
C375 C 0.67771 0.43412 0.17126 0.0
C376 C 0.68713 0.46852 0.17252 0.0
C377 C 0.70166 0.42428 0.17734 0.0
C378 C 0.69262 0.38819 0.17794 0.0
C379 C 0.7116 0.37683 0.16762 0.0
C380 C 0.70329 0.34291 0.16841 0.0
C381 C 0.67619 0.32014 0.17959 0.0
C382 C 0.65731 0.33124 0.19 0.0
C383 C 0.66543 0.36511 0.1892 0.0
H384 H 0.66979 0.29391 0.18019 0.0
H385 H 0.75182 0.6239 0.18282 0.0
H386 H 0.28929 0.83729 0.52243 0.0
H387 H 0.25658 0.77551 0.52377 0.0
H388 H 0.34353 0.76944 0.50688 0.0
H389 H 0.37601 0.83097 0.50491 0.0
H390 H 0.28922 0.72851 0.48311 0.0
H391 H 0.31537 0.75117 0.5551 0.0
H392 H 0.31964 0.77869 0.58859 0.0
H393 H 0.21175 0.73491 0.58649 0.0
H394 H 0.20685 0.70758 0.55278 0.0
H395 H 0.21026 0.55233 0.48964 0.0
H396 H 0.2496 0.61128 0.50007 0.0
H397 H 0.16579 0.62581 0.51244 0.0
H398 H 0.12619 0.56672 0.50222 0.0
H399 H 0.22158 0.6616 0.54056 0.0
H400 H 0.19702 0.64503 0.46699 0.0
H401 H 0.1928 0.61853 0.4331 0.0
H402 H 0.29899 0.65217 0.43848 0.0
H403 H 0.30371 0.67846 0.47255 0.0
C404 C 0.30145 0.82277 0.51909 0.0
C405 C 0.33516 0.83898 0.51346 0.0
C406 C 0.28286 0.78752 0.52008 0.0
C407 C 0.29771 0.76791 0.51556 0.0
C408 C 0.33161 0.78411 0.51047 0.0
C409 C 0.3502 0.8193 0.50949 0.0
C410 C 0.27715 0.73047 0.51447 0.0
C411 C 0.275 0.71386 0.49584 0.0
C412 C 0.25798 0.71146 0.53092 0.0
C413 C 0.26076 0.72752 0.55132 0.0
C414 C 0.29255 0.74759 0.5617 0.0
C415 C 0.29509 0.76314 0.58073 0.0
C416 C 0.26599 0.7586 0.58965 0.0
C417 C 0.23427 0.73842 0.57956 0.0
C418 C 0.2316 0.72286 0.56049 0.0
C419 C 0.20017 0.56785 0.49495 0.0
C420 C 0.16509 0.55501 0.49482 0.0
C421 C 0.2227 0.60152 0.50091 0.0
C422 C 0.21054 0.62296 0.50672 0.0
C423 C 0.17564 0.60964 0.50797 0.0
C424 C 0.15306 0.57592 0.50203 0.0
C425 C 0.23384 0.65991 0.50924 0.0
C426 C 0.23628 0.67636 0.52802 0.0
C427 C 0.2534 0.67894 0.49294 0.0
C428 C 0.25064 0.66336 0.4724 0.0
C429 C 0.21941 0.64654 0.46101 0.0
C430 C 0.21693 0.6316 0.44176 0.0
C431 C 0.24559 0.63358 0.43367 0.0
C432 C 0.2768 0.6506 0.44478 0.0
C433 C 0.2794 0.66553 0.46406 0.0
H434 H 0.24362 0.622 0.41876 0.0
H435 H 0.268 0.77066 0.60439 0.0
H436 H 0.55939 0.35761 0.79139 0.0
H437 H 0.56572 0.30792 0.78549 0.0
H438 H 0.4966 0.25547 0.83273 0.0
H439 H 0.4908 0.30505 0.83898 0.0
H440 H 0.54914 0.24264 0.83387 0.0
H441 H 0.46882 0.24555 0.78242 0.0
H442 H 0.45301 0.27168 0.75406 0.0
H443 H 0.53051 0.27401 0.71825 0.0
H444 H 0.54702 0.24824 0.74654 0.0
H445 H 0.45167 0.06905 0.81333 0.0
H446 H 0.4792 0.12967 0.8204 0.0
H447 H 0.53261 0.14835 0.76475 0.0
H448 H 0.50403 0.0873 0.75717 0.0
H449 H 0.50436 0.18487 0.76555 0.0
H450 H 0.57488 0.16858 0.81417 0.0
H451 H 0.59 0.14176 0.8424 0.0
H452 H 0.53284 0.16432 0.88353 0.0
H453 H 0.51695 0.19085 0.85551 0.0
C454 C 0.54604 0.33567 0.80073 0.0
C455 C 0.5242 0.33498 0.81543 0.0
C456 C 0.54959 0.30731 0.79731 0.0
C457 C 0.53136 0.27791 0.80854 0.0
C458 C 0.51089 0.27787 0.82389 0.0
C459 C 0.50729 0.30607 0.82728 0.0
C460 C 0.53097 0.24605 0.80336 0.0
C461 C 0.53945 0.22992 0.81894 0.0
C462 C 0.51949 0.23011 0.78366 0.0
C463 C 0.50941 0.2454 0.76666 0.0
C464 C 0.48263 0.25186 0.76855 0.0
C465 C 0.47352 0.26657 0.75249 0.0
C466 C 0.49082 0.27461 0.73439 0.0
C467 C 0.51719 0.26785 0.7323 0.0
C468 C 0.52643 0.2532 0.74833 0.0
C469 C 0.46972 0.08595 0.80275 0.0
C470 C 0.47544 0.07335 0.7846 0.0
C471 C 0.48574 0.12073 0.80692 0.0
C472 C 0.50837 0.14372 0.79325 0.0
C473 C 0.51532 0.13113 0.77555 0.0
C474 C 0.49898 0.09625 0.77125 0.0
C475 C 0.5213 0.18057 0.79633 0.0
C476 C 0.51512 0.19775 0.78034 0.0
C477 C 0.53502 0.19745 0.81567 0.0
C478 C 0.54463 0.18164 0.83267 0.0
C479 C 0.56536 0.16766 0.8292 0.0
C480 C 0.5741 0.15252 0.84518 0.0
C481 C 0.56237 0.15131 0.86474 0.0
C482 C 0.54193 0.1653 0.86838 0.0
C483 C 0.53311 0.18046 0.85245 0.0
H484 H 0.56915 0.13957 0.87709 0.0
H485 H 0.48374 0.28599 0.72197 0.0
H486 H 0.47072 0.91526 0.49632 0.0
H487 H 0.47019 0.86261 0.50465 0.0
H488 H 0.57278 0.92033 0.53025 0.0
H489 H 0.57374 0.97286 0.52162 0.0
H490 H 0.56614 0.86865 0.50864 0.0
H491 H 0.50068 0.88298 0.55926 0.0
H492 H 0.45396 0.88984 0.57108 0.0
H493 H 0.38173 0.79272 0.544 0.0
H494 H 0.42794 0.78581 0.5313 0.0
H495 H 0.58409 0.74962 0.56829 0.0
H496 H 0.57753 0.79717 0.55724 0.0
H497 H 0.47689 0.72796 0.53199 0.0
H498 H 0.48316 0.67982 0.54332 0.0
H499 H 0.47859 0.78216 0.55113 0.0
H500 H 0.54268 0.76757 0.5005 0.0
H501 H 0.58863 0.7606 0.48745 0.0
H502 H 0.66226 0.85747 0.51425 0.0
H503 H 0.61674 0.86482 0.52771 0.0
C504 C 0.49333 0.91682 0.50354 0.0
C505 C 0.52233 0.94858 0.50821 0.0
C506 C 0.49288 0.88655 0.50848 0.0
C507 C 0.5213 0.88719 0.5184 0.0
C508 C 0.55045 0.91887 0.52265 0.0
C509 C 0.55095 0.94906 0.51769 0.0
C510 C 0.52104 0.8552 0.52441 0.0
C511 C 0.54714 0.85001 0.51813 0.0
C512 C 0.4957 0.83002 0.53628 0.0
C513 C 0.46785 0.83407 0.54408 0.0
C514 C 0.47484 0.86324 0.5556 0.0
C515 C 0.44842 0.86717 0.56243 0.0
C516 C 0.41488 0.84182 0.55817 0.0
C517 C 0.4077 0.81246 0.54712 0.0
C518 C 0.434 0.80856 0.54007 0.0
C519 C 0.56044 0.74428 0.56043 0.0
C520 C 0.53425 0.71061 0.55662 0.0
C521 C 0.55677 0.77169 0.55402 0.0
C522 C 0.52689 0.76645 0.54343 0.0
C523 C 0.50028 0.73288 0.54004 0.0
C524 C 0.50395 0.7053 0.54648 0.0
C525 C 0.52409 0.7961 0.53566 0.0
C526 C 0.49745 0.8008 0.54157 0.0
C527 C 0.54883 0.82088 0.52338 0.0
C528 C 0.57629 0.81661 0.51526 0.0
C529 C 0.56868 0.78728 0.50374 0.0
C530 C 0.59465 0.78327 0.49625 0.0
C531 C 0.62835 0.80854 0.50006 0.0
C532 C 0.63614 0.8379 0.51133 0.0
C533 C 0.61027 0.84202 0.51888 0.0
H534 H 0.64842 0.80539 0.49424 0.0
H535 H 0.39446 0.84487 0.56348 0.0
H536 H 0.62245 0.49414 0.8555 0.0
H537 H 0.67545 0.49447 0.86386 0.0
H538 H 0.73124 0.60268 0.85724 0.0
H539 H 0.67847 0.60266 0.84915 0.0
H540 H 0.73162 0.5115 0.84449 0.0
H541 H 0.79914 0.63814 0.89166 0.0
H542 H 0.78457 0.67311 0.91315 0.0
H543 H 0.6917 0.58466 0.92726 0.0
H544 H 0.70594 0.54912 0.9061 0.0
H545 H 0.90659 0.56204 0.86319 0.0
H546 H 0.85332 0.56037 0.85328 0.0
H547 H 0.82475 0.54243 0.9161 0.0
H548 H 0.87796 0.54455 0.92614 0.0
H549 H 0.80948 0.58657 0.90138 0.0
H550 H 0.78977 0.47835 0.87782 0.0
H551 H 0.80103 0.43855 0.85877 0.0
H552 H 0.79303 0.48196 0.80177 0.0
H553 H 0.78216 0.52233 0.82052 0.0
C554 C 0.64597 0.51805 0.85575 0.0
C555 C 0.64592 0.54841 0.85174 0.0
C556 C 0.67638 0.51817 0.86048 0.0
C557 C 0.70757 0.54864 0.86148 0.0
C558 C 0.70763 0.57884 0.85695 0.0
C559 C 0.67728 0.57876 0.85221 0.0
C560 C 0.73985 0.54898 0.86767 0.0
C561 C 0.74867 0.52804 0.85688 0.0
C562 C 0.76206 0.56998 0.88411 0.0
C563 C 0.75348 0.59106 0.89711 0.0
C564 C 0.77568 0.62615 0.89941 0.0
C565 C 0.76747 0.64607 0.91153 0.0
C566 C 0.73718 0.63113 0.92151 0.0
C567 C 0.7151 0.59622 0.91946 0.0
C568 C 0.72321 0.57619 0.90739 0.0
C569 C 0.88898 0.55772 0.87491 0.0
C570 C 0.89676 0.55338 0.89549 0.0
C571 C 0.85834 0.55661 0.86919 0.0
C572 C 0.83456 0.55095 0.88386 0.0
C573 C 0.84247 0.54688 0.90442 0.0
C574 C 0.87302 0.548 0.91014 0.0
C575 C 0.80162 0.54951 0.87797 0.0
C576 C 0.79261 0.57022 0.88886 0.0
C577 C 0.77895 0.52778 0.8619 0.0
C578 C 0.78551 0.50358 0.85059 0.0
C579 C 0.79069 0.47958 0.86124 0.0
C580 C 0.79694 0.45689 0.85049 0.0
C581 C 0.79784 0.45779 0.82908 0.0
C582 C 0.79239 0.48133 0.81836 0.0
C583 C 0.78615 0.5041 0.82903 0.0
H584 H 0.80267 0.44019 0.82079 0.0
H585 H 0.73085 0.6466 0.93086 0.0
H586 H 0.12483 0.6892 0.19115 0.0
H587 H 0.1786 0.74113 0.19807 0.0
H588 H 0.23132 0.69369 0.17367 0.0
H589 H 0.17728 0.64102 0.16699 0.0
H590 H 0.26486 0.72977 0.20773 0.0
H591 H 0.22025 0.75344 0.1463 0.0
H592 H 0.1776 0.75719 0.12352 0.0
H593 H 0.1753 0.82795 0.16608 0.0
H594 H 0.21761 0.82427 0.18927 0.0
H595 H 0.42054 0.88999 0.20743 0.0
H596 H 0.37031 0.8355 0.19735 0.0
H597 H 0.30648 0.87115 0.22049 0.0
H598 H 0.35627 0.92549 0.23033 0.0
H599 H 0.28082 0.84005 0.18436 0.0
H600 H 0.32341 0.81351 0.24658 0.0
H601 H 0.36609 0.8094 0.26915 0.0
H602 H 0.37275 0.74408 0.22435 0.0
H603 H 0.3304 0.74816 0.20139 0.0
C604 C 0.14774 0.68964 0.1871 0.0
C605 C 0.14639 0.66067 0.17834 0.0
C606 C 0.17866 0.71962 0.19103 0.0
C607 C 0.20932 0.72184 0.18615 0.0
C608 C 0.20818 0.69289 0.17755 0.0
C609 C 0.17713 0.66273 0.17364 0.0
C610 C 0.2423 0.75426 0.19029 0.0
C611 C 0.26851 0.75378 0.2023 0.0
C612 C 0.24725 0.78594 0.18356 0.0
C613 C 0.22191 0.78836 0.16961 0.0
C614 C 0.21048 0.76962 0.15088 0.0
C615 C 0.18639 0.77176 0.13788 0.0
C616 C 0.1737 0.79274 0.14337 0.0
C617 C 0.18514 0.81169 0.16185 0.0
C618 C 0.2092 0.80961 0.17492 0.0
C619 C 0.39583 0.88621 0.21044 0.0
C620 C 0.39267 0.91235 0.21975 0.0
C621 C 0.36702 0.85489 0.20472 0.0
C622 C 0.33431 0.84882 0.20824 0.0
C623 C 0.33123 0.87495 0.21751 0.0
C624 C 0.3599 0.90614 0.22322 0.0
C625 C 0.30316 0.81567 0.20211 0.0
C626 C 0.27728 0.81602 0.18968 0.0
C627 C 0.29862 0.78393 0.20839 0.0
C628 C 0.32404 0.78145 0.22218 0.0
C629 C 0.33418 0.7985 0.24147 0.0
C630 C 0.35827 0.79613 0.25435 0.0
C631 C 0.3722 0.77658 0.24816 0.0
C632 C 0.36199 0.75927 0.2291 0.0
C633 C 0.33793 0.76158 0.21616 0.0
H634 H 0.39084 0.77477 0.25815 0.0
H635 H 0.15504 0.79436 0.13328 0.0
H636 H 0.47026 0.11119 0.52343 0.0
H637 H 0.47233 0.1652 0.52928 0.0
H638 H 0.56821 0.21748 0.50128 0.0
H639 H 0.56666 0.16362 0.49583 0.0
H640 H 0.57173 0.25272 0.53336 0.0
H641 H 0.49084 0.20317 0.47653 0.0
H642 H 0.43987 0.1591 0.4572 0.0
H643 H 0.37753 0.16233 0.50333 0.0
H644 H 0.42819 0.20613 0.52309 0.0
H645 H 0.57307 0.41013 0.52492 0.0
H646 H 0.57305 0.35721 0.51857 0.0
H647 H 0.47699 0.30161 0.54607 0.0
H648 H 0.47637 0.35437 0.55177 0.0
H649 H 0.47463 0.26863 0.51333 0.0
H650 H 0.55815 0.31939 0.57013 0.0
H651 H 0.61034 0.36396 0.58822 0.0
H652 H 0.6692 0.35938 0.54023 0.0
H653 H 0.61731 0.31515 0.52169 0.0
C654 C 0.49174 0.13412 0.51838 0.0
C655 C 0.51823 0.13278 0.50908 0.0
C656 C 0.49284 0.16515 0.52168 0.0
C657 C 0.52022 0.19577 0.51549 0.0
C658 C 0.54674 0.19446 0.50624 0.0
C659 C 0.54577 0.16346 0.50307 0.0
C660 C 0.52146 0.22908 0.51895 0.0
C661 C 0.5506 0.25625 0.52871 0.0
C662 C 0.49388 0.23399 0.51323 0.0
C663 C 0.46335 0.20769 0.50139 0.0
C664 C 0.46628 0.1943 0.48263 0.0
C665 C 0.43744 0.1694 0.47158 0.0
C666 C 0.40549 0.15786 0.47906 0.0
C667 C 0.4023 0.17126 0.49758 0.0
C668 C 0.43107 0.19615 0.5087 0.0
C669 C 0.55204 0.38668 0.52979 0.0
C670 C 0.52479 0.38672 0.53897 0.0
C671 C 0.55212 0.35628 0.52622 0.0
C672 C 0.52524 0.32503 0.53207 0.0
C673 C 0.49812 0.32513 0.54137 0.0
C674 C 0.49785 0.35546 0.54472 0.0
C675 C 0.52473 0.29219 0.52801 0.0
C676 C 0.49573 0.2651 0.51804 0.0
C677 C 0.55261 0.2875 0.53334 0.0
C678 C 0.58379 0.3142 0.54444 0.0
C679 C 0.58219 0.32809 0.56336 0.0
C680 C 0.61173 0.35327 0.57369 0.0
C681 C 0.64305 0.36457 0.56534 0.0
C682 C 0.64491 0.35067 0.54665 0.0
C683 C 0.61545 0.32553 0.53623 0.0
H684 H 0.66588 0.38405 0.57338 0.0
H685 H 0.38319 0.13858 0.47048 0.0
H686 H 0.42939 0.5055 0.82929 0.0
H687 H 0.37731 0.50723 0.83361 0.0
H688 H 0.43537 0.60619 0.86303 0.0
H689 H 0.48739 0.60494 0.85847 0.0
H690 H 0.34835 0.51016 0.86738 0.0
H691 H 0.3928 0.65187 0.85504 0.0
H692 H 0.43472 0.69995 0.83601 0.0
H693 H 0.43682 0.63123 0.79175 0.0
H694 H 0.39395 0.58267 0.81009 0.0
H695 H 0.25016 0.61012 0.88187 0.0
H696 H 0.30223 0.60889 0.87668 0.0
H697 H 0.24331 0.50665 0.85186 0.0
H698 H 0.19128 0.50738 0.8577 0.0
H699 H 0.33092 0.60444 0.84487 0.0
H700 H 0.28394 0.46244 0.85849 0.0
H701 H 0.24342 0.4162 0.87939 0.0
H702 H 0.24986 0.48886 0.92407 0.0
H703 H 0.29071 0.5355 0.90358 0.0
C704 C 0.43117 0.52781 0.83649 0.0
C705 C 0.46283 0.55509 0.84345 0.0
C706 C 0.40125 0.52871 0.83905 0.0
C707 C 0.40214 0.55697 0.8485 0.0
C708 C 0.43376 0.58428 0.85537 0.0
C709 C 0.46364 0.58343 0.85281 0.0
C710 C 0.37003 0.5574 0.85175 0.0
C711 C 0.3444 0.53056 0.86215 0.0
C712 C 0.36505 0.58456 0.84562 0.0
C713 C 0.39047 0.61355 0.83417 0.0
C714 C 0.40207 0.64698 0.8412 0.0
C715 C 0.42602 0.67435 0.83052 0.0
C716 C 0.43873 0.66867 0.8128 0.0
C717 C 0.42714 0.63559 0.80557 0.0
C718 C 0.40295 0.60812 0.81609 0.0
C719 C 0.24825 0.58722 0.87551 0.0
C720 C 0.21635 0.55875 0.87038 0.0
C721 C 0.27816 0.58659 0.87243 0.0
C722 C 0.27709 0.55754 0.86406 0.0
C723 C 0.24518 0.52918 0.85879 0.0
C724 C 0.21528 0.52966 0.86207 0.0
C725 C 0.30923 0.55719 0.86051 0.0
C726 C 0.33486 0.58402 0.85008 0.0
C727 C 0.31449 0.53032 0.86686 0.0
C728 C 0.29009 0.50245 0.87937 0.0
C729 C 0.27677 0.46853 0.87281 0.0
C730 C 0.25374 0.44226 0.88458 0.0
C731 C 0.24398 0.4496 0.90301 0.0
C732 C 0.25732 0.48322 0.90975 0.0
C733 C 0.28038 0.50958 0.89805 0.0
H734 H 0.22614 0.42922 0.9121 0.0
H735 H 0.45746 0.68988 0.80464 0.0
H736 H 0.9839 0.44661 0.18705 0.0
H737 H 0.93109 0.39457 0.19276 0.0
H738 H 0.8743 0.44115 0.16988 0.0
H739 H 0.92707 0.49362 0.16467 0.0
H740 H 0.84539 0.40679 0.20172 0.0
H741 H 0.88292 0.37987 0.14108 0.0
H742 H 0.92271 0.37433 0.11939 0.0
H743 H 0.9282 0.30468 0.16155 0.0
H744 H 0.88876 0.31014 0.18365 0.0
H745 H 0.68664 0.25184 0.19147 0.0
H746 H 0.73833 0.30516 0.18577 0.0
H747 H 0.7983 0.26205 0.20869 0.0
H748 H 0.74666 0.20837 0.21386 0.0
H749 H 0.82474 0.29521 0.17604 0.0
H750 H 0.78529 0.32241 0.23644 0.0
H751 H 0.74412 0.32782 0.25685 0.0
H752 H 0.74103 0.3975 0.21378 0.0
H753 H 0.78158 0.39193 0.19278 0.0
C754 C 0.96023 0.44582 0.1831 0.0
C755 C 0.96002 0.47448 0.1752 0.0
C756 C 0.92986 0.41584 0.18631 0.0
C757 C 0.89831 0.41338 0.18148 0.0
C758 C 0.89807 0.44207 0.17372 0.0
C759 C 0.92843 0.47214 0.17063 0.0
C760 C 0.86572 0.38116 0.1847 0.0
C761 C 0.84076 0.38247 0.19584 0.0
C762 C 0.85947 0.34908 0.17738 0.0
C763 C 0.88314 0.34568 0.16412 0.0
C764 C 0.89281 0.36357 0.1458 0.0
C765 C 0.91527 0.36041 0.13342 0.0
C766 C 0.92804 0.33924 0.13912 0.0
C767 C 0.91832 0.3211 0.15718 0.0
C768 C 0.89589 0.3242 0.16963 0.0
C769 C 0.71081 0.25377 0.19547 0.0
C770 C 0.71231 0.22569 0.20323 0.0
C771 C 0.7405 0.28444 0.19225 0.0
C772 C 0.77259 0.28816 0.197 0.0
C773 C 0.77407 0.26014 0.20486 0.0
C774 C 0.7444 0.22937 0.20792 0.0
C775 C 0.80456 0.32073 0.19329 0.0
C776 C 0.82937 0.3195 0.18197 0.0
C777 C 0.81048 0.35289 0.20028 0.0
C778 C 0.78621 0.35643 0.21292 0.0
C779 C 0.7756 0.33865 0.2312 0.0
C780 C 0.75236 0.34174 0.24286 0.0
C781 C 0.73982 0.36284 0.23653 0.0
C782 C 0.75063 0.38103 0.21857 0.0
C783 C 0.77374 0.37791 0.20678 0.0
H784 H 0.72184 0.36521 0.24558 0.0
H785 H 0.94543 0.33682 0.12951 0.0
H786 H 0.05223 0.52473 0.10421 0.0
H787 H 0.05204 0.52439 0.06673 0.0
H788 H 0.03822 0.61126 0.06578 0.0
H789 H 0.03868 0.61204 0.10354 0.0
H790 H 0.99608 0.5573 0.03499 0.0
H791 H 0.11251 0.62652 0.05921 0.0
H792 H 0.16377 0.63933 0.0806 0.0
H793 H 0.1637 0.55328 0.05361 0.0
H794 H 0.11211 0.53965 0.03227 0.0
H795 H 0.03816 0.59036 0.92916 0.0
H796 H 0.0308 0.59296 0.96601 0.0
H797 H 0.07126 0.52642 0.97741 0.0
H798 H 0.07994 0.52506 0.94085 0.0
H799 H 0.09996 0.57491 1.0034 0.0
H800 H 0.98331 0.50294 0.98046 0.0
H801 H 0.9306 0.48695 0.95972 0.0
H802 H 0.92901 0.57359 0.98426 0.0
H803 H 0.98198 0.59036 0.00495 0.0
C804 C 0.04895 0.54371 0.0961 0.0
C805 C 0.04561 0.56852 0.10693 0.0
C806 C 0.04887 0.54347 0.07464 0.0
C807 C 0.04524 0.56786 0.06345 0.0
C808 C 0.04099 0.59217 0.07412 0.0
C809 C 0.04145 0.59268 0.09569 0.0
C810 C 0.04745 0.56857 0.04072 0.0
C811 C 1.0189 0.56164 0.028 0.0
C812 C 0.077 0.57351 0.03166 0.0
C813 C 0.10828 0.58191 0.04427 0.0
C814 C 0.12328 0.61019 0.05795 0.0
C815 C 0.15242 0.61762 0.07004 0.0
C816 C 0.16694 0.59709 0.0685 0.0
C817 C 0.15241 0.56915 0.0548 0.0
C818 C 0.12324 0.56158 0.04269 0.0
C819 C 0.04482 0.57577 0.93951 0.0
C820 C 0.05947 0.55737 0.9321 0.0
C821 C 0.04062 0.57726 0.96062 0.0
C822 C 0.05025 0.55971 0.97467 0.0
C823 C 0.0638 0.54041 0.96705 0.0
C824 C 0.06862 0.5395 0.94609 0.0
C825 C 0.04822 0.56274 0.99737 0.0
C826 C 0.077 0.57059 0.0102 0.0
C827 C 1.01871 0.5582 0.00646 0.0
C828 C 0.9868 0.54809 0.99409 0.0
C829 C 0.97185 0.51872 0.98132 0.0
C830 C 0.9419 0.50949 0.9696 0.0
C831 C 0.9265 0.52927 0.97065 0.0
C832 C 0.94099 0.5583 0.98345 0.0
C833 C 0.97096 0.56767 0.99519 0.0
H834 H 0.90331 0.52209 0.96156 0.0
H835 H 0.18949 0.60287 0.07788 0.0
H836 H 0.56963 0.03695 0.43971 0.0
H837 H 0.57408 0.03891 0.40238 0.0
H838 H 0.48951 0.05606 0.39544 0.0
H839 H 0.48438 0.05328 0.43262 0.0
H840 H 0.48396 0.01379 0.36613 0.0
H841 H 0.57276 0.12139 0.39332 0.0
H842 H 0.62306 0.15982 0.41548 0.0
H843 H 0.67982 0.1196 0.38822 0.0
H844 H 0.62969 0.0806 0.36607 0.0
H845 H 0.57829 0.12346 0.27277 0.0
H846 H 0.56832 0.11525 0.30929 0.0
H847 H 0.52397 1.00731 0.29962 0.0
H848 H 0.53314 0.01545 0.2628 0.0
H849 H 0.59334 0.09385 0.33728 0.0
H850 H 0.46921 0.96525 0.33686 0.0
H851 H 0.41777 0.93139 0.31434 0.0
H852 H 0.42889 0.02224 0.28764 0.0
H853 H 0.4801 0.05663 0.31018 0.0
C854 C 0.55194 0.0411 0.43025 0.0
C855 C 0.52675 0.04512 0.43924 0.0
C856 C 0.55455 0.04228 0.40887 0.0
C857 C 0.53236 0.04801 0.39601 0.0
C858 C 0.50691 0.05154 0.40495 0.0
C859 C 0.50412 0.05011 0.42628 0.0
C860 C 0.53612 0.05125 0.37333 0.0
C861 C 0.50792 0.03124 0.35983 0.0
C862 C 0.56717 0.07433 0.36497 0.0
C863 C 0.59739 0.09785 0.3782 0.0
C864 C 0.59591 0.12058 0.39216 0.0
C865 C 0.62439 0.14248 0.4047 0.0
C866 C 0.65459 0.14208 0.4033 0.0
C867 C 0.65639 0.11984 0.38931 0.0
C868 C 0.62796 0.09785 0.37675 0.0
C869 C 0.56601 0.0979 0.27836 0.0
C870 C 0.55617 0.07007 0.26481 0.0
C871 C 0.56046 0.09324 0.29931 0.0
C872 C 0.54526 0.06065 0.30736 0.0
C873 C 0.53515 0.03269 0.29382 0.0
C874 C 0.54029 0.03734 0.27272 0.0
C875 C 0.54117 0.05647 0.32999 0.0
C876 C 0.56938 0.07624 0.34352 0.0
C877 C 0.50991 0.03381 0.33833 0.0
C878 C 0.47868 1.01345 0.32506 0.0
C879 C 0.46057 0.97799 0.32625 0.0
C880 C 0.43148 0.95871 0.31347 0.0
C881 C 0.42015 0.97465 0.29951 0.0
C882 C 0.43776 1.00991 0.2984 0.0
C883 C 0.46684 0.02931 0.31116 0.0
H884 H 0.39768 0.95967 0.28959 0.0
H885 H 0.67662 0.15906 0.41303 0.0
H886 H 0.5658 0.52257 0.77274 0.0
H887 H 0.56463 0.52835 0.73559 0.0
H888 H 0.55318 0.61605 0.74295 0.0
H889 H 0.55403 0.61025 0.78045 0.0
H890 H 0.51001 0.573 0.71209 0.0
H891 H 0.62817 0.62612 0.72981 0.0
H892 H 0.68029 0.63175 0.74666 0.0
H893 H 0.66478 0.5435 0.71309 0.0
H894 H 0.61228 0.53705 0.69625 0.0
H895 H 0.5268 0.5917 0.60248 0.0
H896 H 0.53597 0.60484 0.63955 0.0
H897 H 0.5562 0.52283 0.64878 0.0
H898 H 0.5482 0.51029 0.61209 0.0
H899 H 0.59991 0.57503 0.67146 0.0
H900 H 0.47797 0.51725 0.658 0.0
H901 H 0.42491 0.51018 0.64163 0.0
H902 H 0.44741 0.60653 0.6673 0.0
H903 H 0.50081 0.61432 0.68363 0.0
C904 C 0.56319 0.54325 0.76657 0.0
C905 C 0.56013 0.56602 0.77968 0.0
C906 C 0.56265 0.54659 0.74524 0.0
C907 C 0.55923 0.57288 0.7364 0.0
C908 C 0.55596 0.59562 0.74939 0.0
C909 C 0.55659 0.59235 0.77084 0.0
C910 C 0.55855 0.57589 0.71357 0.0
C911 C 0.53 0.57416 0.7032 0.0
C912 C 0.58441 0.57705 0.70189 0.0
C913 C 0.61616 0.581 0.71185 0.0
C914 C 0.63575 0.60779 0.72611 0.0
C915 C 0.66538 0.61114 0.73565 0.0
C916 C 0.67582 0.58797 0.73097 0.0
C917 C 0.65667 0.56144 0.7167 0.0
C918 C 0.62699 0.55795 0.70713 0.0
C919 C 0.53357 0.57671 0.61231 0.0
C920 C 0.53675 0.54993 0.60406 0.0
C921 C 0.53855 0.58409 0.63362 0.0
C922 C 0.54654 0.56466 0.64712 0.0
C923 C 0.55018 0.53833 0.63882 0.0
C924 C 0.54539 0.53109 0.61769 0.0
C925 C 0.55081 0.57087 0.66991 0.0
C926 C 0.58015 0.57444 0.68031 0.0
C927 C 0.52563 0.57127 0.68158 0.0
C928 C 0.49354 0.56655 0.67181 0.0
C929 C 0.47171 0.53703 0.66002 0.0
C930 C 0.44156 0.53287 0.65078 0.0
C931 C 0.43285 0.55794 0.65337 0.0
C932 C 0.45422 0.58717 0.66527 0.0
C933 C 0.48442 0.59146 0.67452 0.0
H934 H 0.4095 0.55468 0.6462 0.0
H935 H 0.69876 0.5906 0.73838 0.0
H936 H 0.49679 0.9723 0.56141 0.0
H937 H 0.4763 0.957 0.59582 0.0
H938 H 0.49965 0.05968 0.60831 0.0
H939 H 0.52125 0.0754 0.57376 0.0
H940 H 0.50868 0.02811 0.64345 0.0
H941 H 0.42288 1.00513 0.5901 0.0
H942 H 0.39163 0.98213 0.55662 0.0
H943 H 0.3655 0.8816 0.57422 0.0
H944 H 0.39706 0.90406 0.60772 0.0
H945 H 0.38977 0.98018 0.7212 0.0
H946 H 0.42182 1.00422 0.69069 0.0
H947 H 0.39337 0.9037 0.66837 0.0
H948 H 0.36062 0.87964 0.69865 0.0
H949 H 0.38782 0.93817 0.63838 0.0
H950 H 0.47447 0.96115 0.69169 0.0
H951 H 0.50427 0.98402 0.72555 0.0
H952 H 0.52832 0.08419 0.70837 0.0
H953 H 0.4983 0.06184 0.67447 0.0
C954 C 0.49849 0.99185 0.57173 0.0
C955 C 0.51023 0.02492 0.56499 0.0
C956 C 0.4867 0.98307 0.59133 0.0
C957 C 0.48568 1.007 0.60438 0.0
C958 C 0.50009 0.04082 0.59838 0.0
C959 C 0.51246 0.0498 0.57873 0.0
C960 C 0.466 0.99549 0.623 0.0
C961 C 0.48216 1.00876 0.64239 0.0
C962 C 0.43147 0.96996 0.62155 0.0
C963 C 0.41245 0.95632 0.6014 0.0
C964 C 0.41066 0.97815 0.58679 0.0
C965 C 0.39288 0.96521 0.56782 0.0
C966 C 0.37651 0.93043 0.56335 0.0
C967 C 0.37812 0.90852 0.57776 0.0
C968 C 0.39592 0.92134 0.59674 0.0
C969 C 0.39075 0.96332 0.70987 0.0
C970 C 0.37334 0.92815 0.7124 0.0
C971 C 0.40903 0.97705 0.69245 0.0
C972 C 0.41067 0.95584 0.67742 0.0
C973 C 0.39264 0.9206 0.67979 0.0
C974 C 0.37395 0.90687 0.69706 0.0
C975 C 0.43058 0.97014 0.65902 0.0
C976 C 0.41435 0.9575 0.63956 0.0
C977 C 0.46497 0.99617 0.66048 0.0
C978 C 0.48389 1.00978 0.68061 0.0
C979 C 0.48601 0.98804 0.69516 0.0
C980 C 0.50293 1.00091 0.71436 0.0
C981 C 0.51809 0.03552 0.71913 0.0
C982 C 0.51653 0.05738 0.70466 0.0
C983 C 0.49961 0.04463 0.68544 0.0
H984 H 0.53109 0.04542 0.73403 0.0
H985 H 0.36243 0.92044 0.54876 0.0
H986 H 0.49639 0.48467 0.89958 0.0
H987 H 0.49097 0.46907 0.93531 0.0
H988 H 0.58304 0.562 0.95234 0.0
H989 H 0.58928 0.57756 0.91605 0.0
H990 H 0.58314 0.51108 0.97107 0.0
H991 H 0.50468 0.54969 0.96501 0.0
H992 H 0.45809 0.5563 0.9495 0.0
H993 H 0.3892 0.45004 0.95545 0.0
H994 H 0.43547 0.44265 0.97071 0.0
H995 H 0.54397 0.45478 0.0746 0.0
H996 H 0.55283 0.49078 0.0449 0.0
H997 H 0.47852 0.40381 0.00854 0.0
H998 H 0.46964 0.36775 0.03812 0.0
H999 H 0.47346 0.46423 1.0038 0.0
H1000 H 0.55675 0.42682 0.00422 0.0
H1001 H 0.60417 0.42179 0.02 0.0
H1002 H 0.66482 0.53012 0.02579 0.0
H1003 H 0.61753 0.53575 0.01029 0.0
C1004 C 0.51546 0.50209 0.91085 0.0
C1005 C 0.54326 0.53249 0.90492 0.0
C1006 C 0.51214 0.49318 0.93139 0.0
C1007 C 0.53617 0.51466 0.94664 0.0
C1008 C 0.56402 0.54515 0.94085 0.0
C1009 C 0.56753 0.55403 0.92014 0.0
C1010 C 0.53273 0.50379 0.96832 0.0
C1011 C 0.55943 0.50169 0.97844 0.0
C1012 C 0.50174 0.49132 0.97797 0.0
C1013 C 0.47365 0.49561 0.96894 0.0
C1014 C 0.47965 0.52768 0.9629 0.0
C1015 C 0.45328 0.53157 0.95417 0.0
C1016 C 0.42071 0.5036 0.95148 0.0
C1017 C 0.41444 0.47169 0.95756 0.0
C1018 C 0.44073 0.46764 0.96629 0.0
C1019 C 0.52899 0.44353 0.06041 0.0
C1020 C 0.50583 0.40857 0.05869 0.0
C1021 C 0.53427 0.46405 0.04344 0.0
C1022 C 0.5163 0.44991 0.02457 0.0
C1023 C 0.4925 0.41519 0.02301 0.0
C1024 C 0.48757 0.39463 0.03986 0.0
C1025 C 0.52341 0.4706 0.00602 0.0
C1026 C 0.49738 0.47449 0.99658 0.0
C1027 C 0.5551 0.48511 0.99713 0.0
C1028 C 0.58349 0.48169 0.00636 0.0
C1029 C 0.58009 0.44955 0.00904 0.0
C1030 C 0.60696 0.44659 0.01789 0.0
C1031 C 0.63745 0.47561 0.02396 0.0
C1032 C 0.64116 0.50766 0.02113 0.0
C1033 C 0.61434 0.51075 0.01231 0.0
H1034 H 0.65822 0.47327 0.0308 0.0
H1035 H 0.40033 0.50666 0.9447 0.0
H1036 H 1.01014 0.55678 0.23926 0.0
H1037 H 1.01114 0.54531 0.27588 0.0
H1038 H 0.10686 0.54929 0.27131 0.0
H1039 H 0.10593 0.56034 0.23471 0.0
H1040 H 0.06324 0.49428 0.29111 0.0
H1041 H 0.10167 0.61379 0.29438 0.0
H1042 H 0.09815 0.66507 0.28719 0.0
H1043 H 1.00533 0.6238 0.31792 0.0
H1044 H 1.00806 0.57204 0.32506 0.0
H1045 H 0.11808 0.50319 0.39453 0.0
H1046 H 0.11251 0.51698 0.35889 0.0
H1047 H 1.01621 0.50815 0.36992 0.0
H1048 H 0.02147 0.49392 0.40565 0.0
H1049 H 0.05542 0.56368 0.34704 0.0
H1050 H 1.01792 0.44529 0.34496 0.0
H1051 H 0.02106 0.39381 0.35216 0.0
H1052 H 0.11128 0.43246 0.31896 0.0
H1053 H 0.10896 0.48441 0.31179 0.0
C1054 C 0.03155 0.55549 0.24607 0.0
C1055 C 0.05794 0.55945 0.23403 0.0
C1056 C 0.03211 0.54903 0.26703 0.0
C1057 C 0.05916 0.54662 0.27635 0.0
C1058 C 0.08571 0.55099 0.26442 0.0
C1059 C 0.08517 0.55741 0.2435 0.0
C1060 C 0.05937 0.53829 0.29836 0.0
C1061 C 0.06194 0.5097 0.30335 0.0
C1062 C 0.0565 0.55775 0.31427 0.0
C1063 C 0.05489 0.5889 0.31006 0.0
C1064 C 0.08036 0.61553 0.29946 0.0
C1065 C 0.07854 0.64471 0.29542 0.0
C1066 C 0.05148 0.64765 0.30204 0.0
C1067 C 0.02624 0.62146 0.31277 0.0
C1068 C 0.02793 0.59221 0.31683 0.0
C1069 C 0.09571 0.50422 0.3894 0.0
C1070 C 0.0704 0.49786 0.40301 0.0
C1071 C 0.09256 0.51209 0.36902 0.0
C1072 C 0.06382 0.51333 0.36171 0.0
C1073 C 0.03868 0.5075 0.3753 0.0
C1074 C 0.04186 0.49965 0.39577 0.0
C1075 C 0.05999 0.52008 0.33976 0.0
C1076 C 0.05658 0.54822 0.33478 0.0
C1077 C 0.062 0.50017 0.32379 0.0
C1078 C 0.06341 0.46888 0.32799 0.0
C1079 C 0.03857 0.44293 0.33932 0.0
C1080 C 0.04018 0.41364 0.34338 0.0
C1081 C 0.06639 0.4099 0.33606 0.0
C1082 C 0.091 0.43541 0.32463 0.0
C1083 C 0.08953 0.46476 0.32055 0.0
H1084 H 0.06759 0.38721 0.33922 0.0
H1085 H 0.05011 0.67026 0.2989 0.0
loop_
_geom_bond_atom_site_label_1
_geom_bond_atom_site_label_2
_geom_bond_distance
_geom_bond_site_symmetry_2
_ccdc_geom_bond_type
Tb0 C10 2.825 . S
Tb0 O11 2.347 . S
Tb0 O14 2.366 . S
Tb0 O19 2.418 . S
Tb0 O20 2.384 1_455 S
Tb0 O23 2.479 . S
Tb0 O24 2.471 . S
Eu1 O12 2.420 . S
Eu1 O13 2.384 1_655 S
Eu1 O16 2.479 . S
Eu1 O17 2.471 . S
Eu1 O18 2.347 1_655 S
Eu1 O21 2.366 . S
Eu1 C31 2.825 . S
C2 O18 1.259 . S
C2 O19 1.265 . S
C3 O20 1.255 . S
C3 O21 1.265 . S
C4 C6 1.380 . S
C4 C7 1.374 . S
C4 C10 1.507 . S
C5 C6 1.384 . S
C5 C9 1.387 . S
C5 H32 0.930 . S
C6 C4 1.380 . S
C6 C5 1.384 . S
C6 H33 0.931 . S
C7 C4 1.374 . S
C7 C8 1.390 . S
C7 H34 0.930 . S
C8 C7 1.390 . S
C8 C9 1.391 . S
C8 H35 0.930 . S
C9 C5 1.387 . S
C9 C8 1.391 . S
C10 Tb0 2.825 . S
C10 C4 1.507 . S
C10 O23 1.238 . S
C10 O24 1.247 . S
O11 Tb0 2.347 . S
O11 C15 1.259 . S
O12 Eu1 2.420 . S
O12 C15 1.257 1_655 S
O13 Eu1 2.384 1_455 S
O13 C22 1.255 . S
O14 Tb0 2.366 . S
O14 C22 1.265 . S
C15 O11 1.259 . S
C15 O12 1.257 1_455 S
O16 Eu1 2.479 . S
O16 C31 1.238 . S
O17 Eu1 2.471 . S
O17 C31 1.247 . S
O18 Eu1 2.347 1_455 S
O18 C2 1.259 . S
O19 Tb0 2.418 . S
O19 C2 1.265 . S
O20 Tb0 2.384 1_655 S
O20 C3 1.255 . S
O21 Eu1 2.366 . S
O21 C3 1.265 . S
C22 O13 1.255 . S
C22 O14 1.265 . S
O23 Tb0 2.479 . S
O23 C10 1.238 . S
O24 Tb0 2.471 . S
O24 C10 1.247 . S
C25 C28 1.380 . S
C25 C29 1.374 . S
C25 C31 1.507 . S
C26 C27 1.387 . S
C26 C30 1.391 . S
C27 C26 1.387 . S
C27 C28 1.384 . S
C27 H36 0.930 . S
C28 C25 1.380 . S
C28 C27 1.384 . S
C28 H37 0.931 . S
C29 C25 1.374 . S
C29 C30 1.390 . S
C29 H38 0.930 . S
C30 C26 1.391 . S
C30 C29 1.390 . S
C30 H39 0.930 . S
C31 Eu1 2.825 . S
C31 O16 1.238 . S
C31 O17 1.247 . S
C31 C25 1.507 . S
H32 C5 0.930 . S
H33 C6 0.931 . S
H34 C7 0.930 . S
H35 C8 0.930 . S
H36 C27 0.930 . S
H37 C28 0.931 . S
H38 C29 0.930 . S
H39 C30 0.930 . S
Tb40 C50 2.825 . S
Tb40 O51 2.347 . S
Tb40 O54 2.366 . S
Tb40 O59 2.418 . S
Tb40 O60 2.384 . S
Tb40 O63 2.479 . S
Tb40 O64 2.471 . S
Eu41 O52 2.418 . S
Eu41 O53 2.384 . S
Eu41 O56 2.479 1_545 S
Eu41 O57 2.471 1_545 S
Eu41 O58 2.347 . S
Eu41 O61 2.366 1_545 S
Eu41 C71 2.825 1_545 S
C42 O58 1.259 . S
C42 O59 1.265 . S
C43 O60 1.255 1_565 S
C43 O61 1.265 . S
C44 C46 1.380 . S
C44 C47 1.374 . S
C44 C50 1.507 . S
C45 C46 1.384 . S
C45 C49 1.387 . S
C45 H72 0.930 . S
C46 C44 1.380 . S
C46 C45 1.384 . S
C46 H73 0.931 . S
C47 C44 1.374 . S
C47 C48 1.390 . S
C47 H74 0.930 . S
C48 C47 1.390 . S
C48 C49 1.391 . S
C48 H75 0.930 . S
C49 C45 1.387 . S
C49 C48 1.391 . S
C50 Tb40 2.825 . S
C50 C44 1.507 . S
C50 O63 1.238 . S
C50 O64 1.247 . S
O51 Tb40 2.347 . S
O51 C55 1.259 . S
O52 Eu41 2.418 . S
O52 C55 1.265 . S
O53 Eu41 2.384 . S
O53 C62 1.255 . S
O54 Tb40 2.366 . S
O54 C62 1.265 . S
C55 O51 1.259 . S
C55 O52 1.265 . S
O56 Eu41 2.479 1_565 S
O56 C71 1.238 . S
O57 Eu41 2.471 1_565 S
O57 C71 1.247 . S
O58 Eu41 2.347 . S
O58 C42 1.259 . S
O59 Tb40 2.418 . S
O59 C42 1.265 . S
O60 Tb40 2.384 . S
O60 C43 1.255 1_545 S
O61 Eu41 2.366 1_565 S
O61 C43 1.265 . S
C62 O53 1.255 . S
C62 O54 1.265 . S
O63 Tb40 2.479 . S
O63 C50 1.238 . S
O64 Tb40 2.471 . S
O64 C50 1.247 . S
C65 C68 1.380 . S
C65 C69 1.374 . S
C65 C71 1.507 . S
C66 C67 1.387 . S
C66 C70 1.391 . S
C67 C66 1.387 . S
C67 C68 1.384 . S
C67 H76 0.930 . S
C68 C65 1.380 . S
C68 C67 1.384 . S
C68 H77 0.931 . S
C69 C65 1.374 . S
C69 C70 1.390 . S
C69 H78 0.930 . S
C70 C66 1.391 . S
C70 C69 1.390 . S
C70 H79 0.930 . S
C71 Eu41 2.825 1_565 S
C71 O56 1.238 . S
C71 O57 1.247 . S
C71 C65 1.507 . S
H72 C45 0.930 . S
H73 C46 0.931 . S
H74 C47 0.930 . S
H75 C48 0.930 . S
H76 C67 0.930 . S
H77 C68 0.931 . S
H78 C69 0.930 . S
H79 C70 0.930 . S
Tb80 C90 2.825 . S
Tb80 O91 2.347 . S
Tb80 O94 2.366 . S
Tb80 O99 2.418 . S
Tb80 O100 2.384 . S
Tb80 O103 2.479 . S
Tb80 O104 2.471 . S
Eu81 O92 2.418 . S
Eu81 O93 2.384 . S
Eu81 O96 2.479 . S
Eu81 O97 2.471 . S
Eu81 O98 2.347 . S
Eu81 O101 2.366 . S
Eu81 C111 2.825 . S
C82 O98 1.259 . S
C82 O99 1.265 . S
C83 O100 1.255 . S
C83 O101 1.265 . S
C84 C86 1.380 . S
C84 C87 1.374 . S
C84 C90 1.507 . S
C85 C86 1.384 . S
C85 C89 1.387 . S
C85 H112 0.930 . S
C86 C84 1.380 . S
C86 C85 1.384 . S
C86 H113 0.931 . S
C87 C84 1.374 . S
C87 C88 1.390 . S
C87 H114 0.930 . S
C88 C87 1.390 . S
C88 C89 1.391 . S
C88 H115 0.930 . S
C89 C85 1.387 . S
C89 C88 1.391 . S
C90 Tb80 2.825 . S
C90 C84 1.507 . S
C90 O103 1.238 . S
C90 O104 1.247 . S
O91 Tb80 2.347 . S
O91 C95 1.259 . S
O92 Eu81 2.418 . S
O92 C95 1.265 . S
O93 Eu81 2.384 . S
O93 C102 1.255 . S
O94 Tb80 2.366 . S
O94 C102 1.265 . S
C95 O91 1.259 . S
C95 O92 1.265 . S
O96 Eu81 2.479 . S
O96 C111 1.238 . S
O97 Eu81 2.471 . S
O97 C111 1.247 . S
O98 Eu81 2.347 . S
O98 C82 1.259 . S
O99 Tb80 2.418 . S
O99 C82 1.265 . S
O100 Tb80 2.384 . S
O100 C83 1.255 . S
O101 Eu81 2.366 . S
O101 C83 1.265 . S
C102 O93 1.255 . S
C102 O94 1.265 . S
O103 Tb80 2.479 . S
O103 C90 1.238 . S
O104 Tb80 2.471 . S
O104 C90 1.247 . S
C105 C108 1.380 . S
C105 C109 1.374 . S
C105 C111 1.507 . S
C106 C107 1.387 . S
C106 C110 1.391 . S
C107 C106 1.387 . S
C107 C108 1.384 . S
C107 H116 0.930 . S
C108 C105 1.380 . S
C108 C107 1.384 . S
C108 H117 0.931 . S
C109 C105 1.374 . S
C109 C110 1.390 . S
C109 H118 0.930 . S
C110 C106 1.391 . S
C110 C109 1.390 . S
C110 H119 0.930 . S
C111 Eu81 2.825 . S
C111 O96 1.238 . S
C111 O97 1.247 . S
C111 C105 1.507 . S
H112 C85 0.930 . S
H113 C86 0.931 . S
H114 C87 0.930 . S
H115 C88 0.930 . S
H116 C107 0.930 . S
H117 C108 0.931 . S
H118 C109 0.930 . S
H119 C110 0.930 . S
O120 Cd121 2.300 . S
O120 C127 1.275 . S
Cd121 O120 2.300 . S
Cd121 O129 2.381 . S
Cd121 O130 2.378 . S
O122 Cd123 2.398 . S
O122 C127 1.242 1_565 S
Cd123 O122 2.398 . S
Cd123 O124 2.317 . S
O124 Cd123 2.317 . S
O124 C125 1.232 . S
C125 O124 1.232 . S
C125 O126 1.218 . S
O126 C125 1.218 . S
C127 O120 1.275 . S
C127 O122 1.242 1_545 S
C128 O129 1.258 . S
C128 O130 1.256 . S
O129 Cd121 2.381 . S
O129 C128 1.258 . S
O130 Cd121 2.378 . S
O130 C128 1.256 . S
O131 Cd132 2.300 . S
O131 C138 1.275 . S
Cd132 O131 2.300 . S
Cd132 O140 2.381 . S
Cd132 O141 2.378 . S
O133 Cd134 2.385 . S
O133 C138 1.255 . S
Cd134 O133 2.385 . S
Cd134 O135 2.317 . S
O135 Cd134 2.317 . S
O135 C136 1.232 . S
C136 O135 1.232 . S
C136 O137 1.218 . S
O137 C136 1.218 . S
C138 O131 1.275 . S
C138 O133 1.255 . S
C139 O140 1.258 . S
C139 O141 1.256 . S
O140 Cd132 2.381 . S
O140 C139 1.258 . S
O141 Cd132 2.378 . S
O141 C139 1.256 . S
O142 Cd143 2.300 . S
O142 C149 1.275 . S
Cd143 O142 2.300 . S
Cd143 O151 2.381 . S
Cd143 O152 2.378 . S
O144 Cd145 2.385 . S
O144 C149 1.255 1_655 S
Cd145 O144 2.385 . S
Cd145 O146 2.317 . S
O146 Cd145 2.317 . S
O146 C147 1.232 . S
C147 O146 1.232 . S
C147 O148 1.218 . S
O148 C147 1.218 . S
C149 O142 1.275 . S
C149 O144 1.255 1_455 S
C150 O151 1.258 . S
C150 O152 1.256 . S
O151 Cd143 2.381 . S
O151 C150 1.258 . S
O152 Cd143 2.378 . S
O152 C150 1.256 . S
O153 Cd154 2.300 . S
O153 C160 1.275 . S
Cd154 O153 2.300 . S
Cd154 O162 2.381 . S
Cd154 O163 2.378 . S
O155 Cd156 2.385 . S
O155 C160 1.255 1_655 S
Cd156 O155 2.385 . S
Cd156 O157 2.317 . S
O157 Cd156 2.317 . S
O157 C158 1.232 . S
C158 O157 1.232 . S
C158 O159 1.218 . S
O159 C158 1.218 . S
C160 O153 1.275 . S
C160 O155 1.255 1_455 S
C161 O162 1.258 . S
C161 O163 1.256 . S
O162 Cd154 2.381 . S
O162 C161 1.258 . S
O163 Cd154 2.378 . S
O163 C161 1.256 . S
O164 Cd165 2.300 . S
O164 C171 1.275 1_565 S
Cd165 O164 2.300 . S
Cd165 O173 2.381 . S
Cd165 O174 2.378 . S
O166 Cd167 2.385 . S
O166 C171 1.255 . S
Cd167 O166 2.385 . S
Cd167 O168 2.317 . S
O168 Cd167 2.317 . S
O168 C169 1.232 . S
C169 O168 1.232 . S
C169 O170 1.218 . S
O170 C169 1.218 . S
C171 O164 1.275 1_545 S
C171 O166 1.255 . S
C172 O173 1.258 . S
C172 O174 1.256 . S
O173 Cd165 2.381 . S
O173 C172 1.258 . S
O174 Cd165 2.378 . S
O174 C172 1.256 . S
O175 Cd176 2.300 . S
O175 C182 1.275 . S
Cd176 O175 2.300 . S
Cd176 O184 2.381 . S
Cd176 O185 2.378 . S
O177 Cd178 2.385 . S
O177 C182 1.255 . S
Cd178 O177 2.385 . S
Cd178 O179 2.317 . S
O179 Cd178 2.317 . S
O179 C180 1.232 . S
C180 O179 1.232 . S
C180 O181 1.218 . S
O181 C180 1.218 . S
C182 O175 1.275 . S
C182 O177 1.255 . S
C183 O184 1.258 . S
C183 O185 1.256 . S
O184 Cd176 2.381 . S
O184 C183 1.258 . S
O185 Cd176 2.378 . S
O185 C183 1.256 . S
H186 C204 0.951 . S
H187 C206 0.951 . S
H188 C208 0.950 . S
H189 C209 0.950 . S
H190 C211 0.950 . S
H191 C214 0.950 . S
H192 C215 0.950 . S
H193 C217 0.950 . S
H194 C218 0.950 . S
H195 C219 0.951 . S
H196 C221 0.951 . S
H197 C223 0.950 . S
H198 C224 0.950 . S
H199 C226 0.950 . S
H200 C229 0.950 . S
H201 C230 0.950 . S
H202 C232 0.950 . S
H203 C233 0.950 . S
C204 H186 0.951 . S
C204 C205 1.366 . S
C204 C206 1.388 . S
C205 C204 1.366 . S
C205 C209 1.385 . S
C206 H187 0.951 . S
C206 C204 1.388 . S
C206 C207 1.366 . S
C207 C206 1.366 . S
C207 C208 1.414 . S
C207 C210 1.499 . S
C208 H188 0.950 . S
C208 C207 1.414 . S
C208 C209 1.374 . S
C209 H189 0.950 . S
C209 C205 1.385 . S
C209 C208 1.374 . S
C210 C207 1.499 . S
C210 C211 1.373 . S
C210 C212 1.389 . S
C211 H190 0.950 . S
C211 C210 1.373 . S
C211 C227 1.377 . S
C212 C210 1.389 . S
C212 C213 1.524 . S
C212 C226 1.377 . S
C213 C212 1.524 . S
C213 C214 1.397 . S
C213 C218 1.363 . S
C214 H191 0.950 . S
C214 C213 1.397 . S
C214 C215 1.334 . S
C215 H192 0.950 . S
C215 C214 1.334 . S
C215 C216 1.287 . S
C216 C215 1.287 . S
C216 C217 1.524 . S
C216 H235 0.913 . S
C217 H193 0.950 . S
C217 C216 1.524 . S
C217 C218 1.415 . S
C218 H194 0.950 . S
C218 C213 1.363 . S
C218 C217 1.415 . S
C219 H195 0.951 . S
C219 C220 1.366 . S
C219 C221 1.388 . S
C220 C219 1.366 . S
C220 C224 1.385 . S
C221 H196 0.951 . S
C221 C219 1.388 . S
C221 C222 1.366 . S
C222 C221 1.366 . S
C222 C223 1.414 . S
C222 C225 1.499 . S
C223 H197 0.950 . S
C223 C222 1.414 . S
C223 C224 1.374 . S
C224 H198 0.950 . S
C224 C220 1.385 . S
C224 C223 1.374 . S
C225 C222 1.499 . S
C225 C226 1.373 . S
C225 C227 1.389 . S
C226 H199 0.950 . S
C226 C212 1.377 . S
C226 C225 1.373 . S
C227 C211 1.377 . S
C227 C225 1.389 . S
C227 C228 1.524 . S
C228 C227 1.524 . S
C228 C229 1.397 . S
C228 C233 1.363 . S
C229 H200 0.950 . S
C229 C228 1.397 . S
C229 C230 1.334 . S
C230 H201 0.950 . S
C230 C229 1.334 . S
C230 C231 1.287 . S
C231 C230 1.287 . S
C231 C232 1.524 . S
C231 H234 0.999 . S
C232 H202 0.950 . S
C232 C231 1.524 . S
C232 C233 1.415 . S
C233 H203 0.950 . S
C233 C228 1.363 . S
C233 C232 1.415 . S
H234 C231 0.999 . S
H235 C216 0.913 . S
H236 C254 0.951 . S
H237 C256 0.951 . S
H238 C258 0.950 . S
H239 C259 0.950 . S
H240 C261 0.950 . S
H241 C264 0.950 . S
H242 C265 0.950 . S
H243 C267 0.950 . S
H244 C268 0.950 . S
H245 C269 0.951 . S
H246 C271 0.951 . S
H247 C273 0.950 . S
H248 C274 0.950 . S
H249 C276 0.950 . S
H250 C279 0.950 . S
H251 C280 0.950 . S
H252 C282 0.950 . S
H253 C283 0.950 . S
C254 H236 0.951 . S
C254 C255 1.366 . S
C254 C256 1.388 . S
C255 C254 1.366 . S
C255 C259 1.385 . S
C256 H237 0.951 . S
C256 C254 1.388 . S
C256 C257 1.366 . S
C257 C256 1.366 . S
C257 C258 1.414 . S
C257 C260 1.499 . S
C258 H238 0.950 . S
C258 C257 1.414 . S
C258 C259 1.374 . S
C259 H239 0.950 . S
C259 C255 1.385 . S
C259 C258 1.374 . S
C260 C257 1.499 . S
C260 C261 1.373 . S
C260 C262 1.389 . S
C261 H240 0.950 . S
C261 C260 1.373 . S
C261 C277 1.377 . S
C262 C260 1.389 . S
C262 C263 1.524 . S
C262 C276 1.377 . S
C263 C262 1.524 . S
C263 C264 1.397 . S
C263 C268 1.363 . S
C264 H241 0.950 . S
C264 C263 1.397 . S
C264 C265 1.334 . S
C265 H242 0.950 . S
C265 C264 1.334 . S
C265 C266 1.287 . S
C266 C265 1.287 . S
C266 C267 1.524 . S
C266 H285 0.913 . S
C267 H243 0.950 . S
C267 C266 1.524 . S
C267 C268 1.415 . S
C268 H244 0.950 . S
C268 C263 1.363 . S
C268 C267 1.415 . S
C269 H245 0.951 . S
C269 C270 1.366 . S
C269 C271 1.388 . S
C270 C269 1.366 . S
C270 C274 1.385 . S
C271 H246 0.951 . S
C271 C269 1.388 . S
C271 C272 1.366 . S
C272 C271 1.366 . S
C272 C273 1.414 . S
C272 C275 1.499 . S
C273 H247 0.950 . S
C273 C272 1.414 . S
C273 C274 1.374 . S
C274 H248 0.950 . S
C274 C270 1.385 . S
C274 C273 1.374 . S
C275 C272 1.499 . S
C275 C276 1.373 . S
C275 C277 1.389 . S
C276 H249 0.950 . S
C276 C262 1.377 . S
C276 C275 1.373 . S
C277 C261 1.377 . S
C277 C275 1.389 . S
C277 C278 1.524 . S
C278 C277 1.524 . S
C278 C279 1.397 . S
C278 C283 1.363 . S
C279 H250 0.950 . S
C279 C278 1.397 . S
C279 C280 1.334 . S
C280 H251 0.950 . S
C280 C279 1.334 . S
C280 C281 1.287 . S
C281 C280 1.287 . S
C281 C282 1.524 . S
C281 H284 0.999 . S
C282 H252 0.950 . S
C282 C281 1.524 . S
C282 C283 1.415 . S
C283 H253 0.950 . S
C283 C278 1.363 . S
C283 C282 1.415 . S
H284 C281 0.999 . S
H285 C266 0.913 . S
H286 C304 0.951 . S
H287 C306 0.951 . S
H288 C308 0.950 . S
H289 C309 0.950 . S
H290 C311 0.950 . S
H291 C314 0.950 . S
H292 C315 0.950 . S
H293 C317 0.950 . S
H294 C318 0.950 . S
H295 C319 0.951 . S
H296 C321 0.951 . S
H297 C323 0.950 . S
H298 C324 0.950 . S
H299 C326 0.950 . S
H300 C329 0.950 . S
H301 C330 0.950 . S
H302 C332 0.950 . S
H303 C333 0.950 . S
C304 H286 0.951 . S
C304 C305 1.366 . S
C304 C306 1.388 . S
C305 C304 1.366 . S
C305 C309 1.385 . S
C306 H287 0.951 . S
C306 C304 1.388 . S
C306 C307 1.366 . S
C307 C306 1.366 . S
C307 C308 1.414 . S
C307 C310 1.499 . S
C308 H288 0.950 . S
C308 C307 1.414 . S
C308 C309 1.374 . S
C309 H289 0.950 . S
C309 C305 1.385 . S
C309 C308 1.374 . S
C310 C307 1.499 . S
C310 C311 1.373 . S
C310 C312 1.389 . S
C311 H290 0.950 . S
C311 C310 1.373 . S
C311 C327 1.377 . S
C312 C310 1.389 . S
C312 C313 1.524 . S
C312 C326 1.377 . S
C313 C312 1.524 . S
C313 C314 1.397 . S
C313 C318 1.363 . S
C314 H291 0.950 . S
C314 C313 1.397 . S
C314 C315 1.334 . S
C315 H292 0.950 . S
C315 C314 1.334 . S
C315 C316 1.287 . S
C316 C315 1.287 . S
C316 C317 1.524 . S
C316 H335 0.913 . S
C317 H293 0.950 . S
C317 C316 1.524 . S
C317 C318 1.415 . S
C318 H294 0.950 . S
C318 C313 1.363 . S
C318 C317 1.415 . S
C319 H295 0.951 . S
C319 C320 1.366 . S
C319 C321 1.388 . S
C320 C319 1.366 . S
C320 C324 1.385 . S
C321 H296 0.951 . S
C321 C319 1.388 . S
C321 C322 1.366 . S
C322 C321 1.366 . S
C322 C323 1.414 . S
C322 C325 1.499 . S
C323 H297 0.950 . S
C323 C322 1.414 . S
C323 C324 1.374 . S
C324 H298 0.950 . S
C324 C320 1.385 . S
C324 C323 1.374 . S
C325 C322 1.499 . S
C325 C326 1.373 . S
C325 C327 1.389 . S
C326 H299 0.950 . S
C326 C312 1.377 . S
C326 C325 1.373 . S
C327 C311 1.377 . S
C327 C325 1.389 . S
C327 C328 1.524 . S
C328 C327 1.524 . S
C328 C329 1.397 . S
C328 C333 1.363 . S
C329 H300 0.950 . S
C329 C328 1.397 . S
C329 C330 1.334 . S
C330 H301 0.950 . S
C330 C329 1.334 . S
C330 C331 1.287 . S
C331 C330 1.287 . S
C331 C332 1.524 . S
C331 H334 0.999 . S
C332 H302 0.950 . S
C332 C331 1.524 . S
C332 C333 1.415 . S
C333 H303 0.950 . S
C333 C328 1.363 . S
C333 C332 1.415 . S
H334 C331 0.999 . S
H335 C316 0.913 . S
H336 C354 0.951 . S
H337 C356 0.951 . S
H338 C358 0.950 . S
H339 C359 0.950 . S
H340 C361 0.950 . S
H341 C364 0.950 . S
H342 C365 0.950 . S
H343 C367 0.950 . S
H344 C368 0.950 . S
H345 C369 0.951 . S
H346 C371 0.951 . S
H347 C373 0.950 . S
H348 C374 0.950 . S
H349 C376 0.950 . S
H350 C379 0.950 . S
H351 C380 0.950 . S
H352 C382 0.950 . S
H353 C383 0.950 . S
C354 H336 0.951 . S
C354 C355 1.366 . S
C354 C356 1.388 . S
C355 C354 1.366 . S
C355 C359 1.385 . S
C356 H337 0.951 . S
C356 C354 1.388 . S
C356 C357 1.366 . S
C357 C356 1.366 . S
C357 C358 1.414 . S
C357 C360 1.499 . S
C358 H338 0.950 . S
C358 C357 1.414 . S
C358 C359 1.374 . S
C359 H339 0.950 . S
C359 C355 1.385 . S
C359 C358 1.374 . S
C360 C357 1.499 . S
C360 C361 1.373 . S
C360 C362 1.389 . S
C361 H340 0.950 . S
C361 C360 1.373 . S
C361 C377 1.377 . S
C362 C360 1.389 . S
C362 C363 1.524 . S
C362 C376 1.377 . S
C363 C362 1.524 . S
C363 C364 1.397 . S
C363 C368 1.363 . S
C364 H341 0.950 . S
C364 C363 1.397 . S
C364 C365 1.334 . S
C365 H342 0.950 . S
C365 C364 1.334 . S
C365 C366 1.287 . S
C366 C365 1.287 . S
C366 C367 1.524 . S
C366 H385 0.913 . S
C367 H343 0.950 . S
C367 C366 1.524 . S
C367 C368 1.415 . S
C368 H344 0.950 . S
C368 C363 1.363 . S
C368 C367 1.415 . S
C369 H345 0.951 . S
C369 C370 1.366 . S
C369 C371 1.388 . S
C370 C369 1.366 . S
C370 C374 1.385 . S
C371 H346 0.951 . S
C371 C369 1.388 . S
C371 C372 1.366 . S
C372 C371 1.366 . S
C372 C373 1.414 . S
C372 C375 1.499 . S
C373 H347 0.950 . S
C373 C372 1.414 . S
C373 C374 1.374 . S
C374 H348 0.950 . S
C374 C370 1.385 . S
C374 C373 1.374 . S
C375 C372 1.499 . S
C375 C376 1.373 . S
C375 C377 1.389 . S
C376 H349 0.950 . S
C376 C362 1.377 . S
C376 C375 1.373 . S
C377 C361 1.377 . S
C377 C375 1.389 . S
C377 C378 1.524 . S
C378 C377 1.524 . S
C378 C379 1.397 . S
C378 C383 1.363 . S
C379 H350 0.950 . S
C379 C378 1.397 . S
C379 C380 1.334 . S
C380 H351 0.950 . S
C380 C379 1.334 . S
C380 C381 1.287 . S
C381 C380 1.287 . S
C381 C382 1.524 . S
C381 H384 0.999 . S
C382 H352 0.950 . S
C382 C381 1.524 . S
C382 C383 1.415 . S
C383 H353 0.950 . S
C383 C378 1.363 . S
C383 C382 1.415 . S
H384 C381 0.999 . S
H385 C366 0.913 . S
H386 C404 0.951 . S
H387 C406 0.951 . S
H388 C408 0.950 . S
H389 C409 0.950 . S
H390 C411 0.950 . S
H391 C414 0.950 . S
H392 C415 0.950 . S
H393 C417 0.950 . S
H394 C418 0.950 . S
H395 C419 0.951 . S
H396 C421 0.951 . S
H397 C423 0.950 . S
H398 C424 0.950 . S
H399 C426 0.950 . S
H400 C429 0.950 . S
H401 C430 0.950 . S
H402 C432 0.950 . S
H403 C433 0.950 . S
C404 H386 0.951 . S
C404 C405 1.366 . S
C404 C406 1.388 . S
C405 C404 1.366 . S
C405 C409 1.385 . S
C406 H387 0.951 . S
C406 C404 1.388 . S
C406 C407 1.366 . S
C407 C406 1.366 . S
C407 C408 1.414 . S
C407 C410 1.499 . S
C408 H388 0.950 . S
C408 C407 1.414 . S
C408 C409 1.374 . S
C409 H389 0.950 . S
C409 C405 1.385 . S
C409 C408 1.374 . S
C410 C407 1.499 . S
C410 C411 1.373 . S
C410 C412 1.389 . S
C411 H390 0.950 . S
C411 C410 1.373 . S
C411 C427 1.377 . S
C412 C410 1.389 . S
C412 C413 1.524 . S
C412 C426 1.377 . S
C413 C412 1.524 . S
C413 C414 1.397 . S
C413 C418 1.363 . S
C414 H391 0.950 . S
C414 C413 1.397 . S
C414 C415 1.334 . S
C415 H392 0.950 . S
C415 C414 1.334 . S
C415 C416 1.287 . S
C416 C415 1.287 . S
C416 C417 1.524 . S
C416 H435 0.913 . S
C417 H393 0.950 . S
C417 C416 1.524 . S
C417 C418 1.415 . S
C418 H394 0.950 . S
C418 C413 1.363 . S
C418 C417 1.415 . S
C419 H395 0.951 . S
C419 C420 1.366 . S
C419 C421 1.388 . S
C420 C419 1.366 . S
C420 C424 1.385 . S
C421 H396 0.951 . S
C421 C419 1.388 . S
C421 C422 1.366 . S
C422 C421 1.366 . S
C422 C423 1.414 . S
C422 C425 1.499 . S
C423 H397 0.950 . S
C423 C422 1.414 . S
C423 C424 1.374 . S
C424 H398 0.950 . S
C424 C420 1.385 . S
C424 C423 1.374 . S
C425 C422 1.499 . S
C425 C426 1.373 . S
C425 C427 1.389 . S
C426 H399 0.950 . S
C426 C412 1.377 . S
C426 C425 1.373 . S
C427 C411 1.377 . S
C427 C425 1.389 . S
C427 C428 1.524 . S
C428 C427 1.524 . S
C428 C429 1.397 . S
C428 C433 1.363 . S
C429 H400 0.950 . S
C429 C428 1.397 . S
C429 C430 1.334 . S
C430 H401 0.950 . S
C430 C429 1.334 . S
C430 C431 1.287 . S
C431 C430 1.287 . S
C431 C432 1.524 . S
C431 H434 0.999 . S
C432 H402 0.950 . S
C432 C431 1.524 . S
C432 C433 1.415 . S
C433 H403 0.950 . S
C433 C428 1.363 . S
C433 C432 1.415 . S
H434 C431 0.999 . S
H435 C416 0.913 . S
H436 C454 0.951 . S
H437 C456 0.951 . S
H438 C458 0.950 . S
H439 C459 0.950 . S
H440 C461 0.950 . S
H441 C464 0.950 . S
H442 C465 0.950 . S
H443 C467 0.950 . S
H444 C468 0.950 . S
H445 C469 0.951 . S
H446 C471 0.951 . S
H447 C473 0.950 . S
H448 C474 0.950 . S
H449 C476 0.950 . S
H450 C479 0.950 . S
H451 C480 0.950 . S
H452 C482 0.950 . S
H453 C483 0.950 . S
C454 H436 0.951 . S
C454 C455 1.366 . S
C454 C456 1.388 . S
C455 C454 1.366 . S
C455 C459 1.385 . S
C456 H437 0.951 . S
C456 C454 1.388 . S
C456 C457 1.366 . S
C457 C456 1.366 . S
C457 C458 1.414 . S
C457 C460 1.499 . S
C458 H438 0.950 . S
C458 C457 1.414 . S
C458 C459 1.374 . S
C459 H439 0.950 . S
C459 C455 1.385 . S
C459 C458 1.374 . S
C460 C457 1.499 . S
C460 C461 1.373 . S
C460 C462 1.389 . S
C461 H440 0.950 . S
C461 C460 1.373 . S
C461 C477 1.377 . S
C462 C460 1.389 . S
C462 C463 1.524 . S
C462 C476 1.377 . S
C463 C462 1.524 . S
C463 C464 1.397 . S
C463 C468 1.363 . S
C464 H441 0.950 . S
C464 C463 1.397 . S
C464 C465 1.334 . S
C465 H442 0.950 . S
C465 C464 1.334 . S
C465 C466 1.287 . S
C466 C465 1.287 . S
C466 C467 1.524 . S
C466 H485 0.913 . S
C467 H443 0.950 . S
C467 C466 1.524 . S
C467 C468 1.415 . S
C468 H444 0.950 . S
C468 C463 1.363 . S
C468 C467 1.415 . S
C469 H445 0.951 . S
C469 C470 1.366 . S
C469 C471 1.388 . S
C470 C469 1.366 . S
C470 C474 1.385 . S
C471 H446 0.951 . S
C471 C469 1.388 . S
C471 C472 1.366 . S
C472 C471 1.366 . S
C472 C473 1.414 . S
C472 C475 1.499 . S
C473 H447 0.950 . S
C473 C472 1.414 . S
C473 C474 1.374 . S
C474 H448 0.950 . S
C474 C470 1.385 . S
C474 C473 1.374 . S
C475 C472 1.499 . S
C475 C476 1.373 . S
C475 C477 1.389 . S
C476 H449 0.950 . S
C476 C462 1.377 . S
C476 C475 1.373 . S
C477 C461 1.377 . S
C477 C475 1.389 . S
C477 C478 1.524 . S
C478 C477 1.524 . S
C478 C479 1.397 . S
C478 C483 1.363 . S
C479 H450 0.950 . S
C479 C478 1.397 . S
C479 C480 1.334 . S
C480 H451 0.950 . S
C480 C479 1.334 . S
C480 C481 1.287 . S
C481 C480 1.287 . S
C481 C482 1.524 . S
C481 H484 0.999 . S
C482 H452 0.950 . S
C482 C481 1.524 . S
C482 C483 1.415 . S
C483 H453 0.950 . S
C483 C478 1.363 . S
C483 C482 1.415 . S
H484 C481 0.999 . S
H485 C466 0.913 . S
H486 C504 0.951 . S
H487 C506 0.951 . S
H488 C508 0.950 . S
H489 C509 0.950 . S
H490 C511 0.950 . S
H491 C514 0.950 . S
H492 C515 0.950 . S
H493 C517 0.950 . S
H494 C518 0.950 . S
H495 C519 0.951 . S
H496 C521 0.951 . S
H497 C523 0.950 . S
H498 C524 0.950 . S
H499 C526 0.950 . S
H500 C529 0.950 . S
H501 C530 0.950 . S
H502 C532 0.950 . S
H503 C533 0.950 . S
C504 H486 0.951 . S
C504 C505 1.366 . S
C504 C506 1.388 . S
C505 C504 1.366 . S
C505 C509 1.385 . S
C506 H487 0.951 . S
C506 C504 1.388 . S
C506 C507 1.366 . S
C507 C506 1.366 . S
C507 C508 1.414 . S
C507 C510 1.499 . S
C508 H488 0.950 . S
C508 C507 1.414 . S
C508 C509 1.374 . S
C509 H489 0.950 . S
C509 C505 1.385 . S
C509 C508 1.374 . S
C510 C507 1.499 . S
C510 C511 1.373 . S
C510 C512 1.389 . S
C511 H490 0.950 . S
C511 C510 1.373 . S
C511 C527 1.377 . S
C512 C510 1.389 . S
C512 C513 1.524 . S
C512 C526 1.377 . S
C513 C512 1.524 . S
C513 C514 1.397 . S
C513 C518 1.363 . S
C514 H491 0.950 . S
C514 C513 1.397 . S
C514 C515 1.334 . S
C515 H492 0.950 . S
C515 C514 1.334 . S
C515 C516 1.287 . S
C516 C515 1.287 . S
C516 C517 1.524 . S
C516 H535 0.913 . S
C517 H493 0.950 . S
C517 C516 1.524 . S
C517 C518 1.415 . S
C518 H494 0.950 . S
C518 C513 1.363 . S
C518 C517 1.415 . S
C519 H495 0.951 . S
C519 C520 1.366 . S
C519 C521 1.388 . S
C520 C519 1.366 . S
C520 C524 1.385 . S
C521 H496 0.951 . S
C521 C519 1.388 . S
C521 C522 1.366 . S
C522 C521 1.366 . S
C522 C523 1.414 . S
C522 C525 1.499 . S
C523 H497 0.950 . S
C523 C522 1.414 . S
C523 C524 1.374 . S
C524 H498 0.950 . S
C524 C520 1.385 . S
C524 C523 1.374 . S
C525 C522 1.499 . S
C525 C526 1.373 . S
C525 C527 1.389 . S
C526 H499 0.950 . S
C526 C512 1.377 . S
C526 C525 1.373 . S
C527 C511 1.377 . S
C527 C525 1.389 . S
C527 C528 1.524 . S
C528 C527 1.524 . S
C528 C529 1.397 . S
C528 C533 1.363 . S
C529 H500 0.950 . S
C529 C528 1.397 . S
C529 C530 1.334 . S
C530 H501 0.950 . S
C530 C529 1.334 . S
C530 C531 1.287 . S
C531 C530 1.287 . S
C531 C532 1.524 . S
C531 H534 0.999 . S
C532 H502 0.950 . S
C532 C531 1.524 . S
C532 C533 1.415 . S
C533 H503 0.950 . S
C533 C528 1.363 . S
C533 C532 1.415 . S
H534 C531 0.999 . S
H535 C516 0.913 . S
H536 C554 0.951 . S
H537 C556 0.951 . S
H538 C558 0.950 . S
H539 C559 0.950 . S
H540 C561 0.950 . S
H541 C564 0.950 . S
H542 C565 0.950 . S
H543 C567 0.950 . S
H544 C568 0.950 . S
H545 C569 0.951 . S
H546 C571 0.951 . S
H547 C573 0.950 . S
H548 C574 0.950 . S
H549 C576 0.950 . S
H550 C579 0.950 . S
H551 C580 0.950 . S
H552 C582 0.950 . S
H553 C583 0.950 . S
C554 H536 0.951 . S
C554 C555 1.366 . S
C554 C556 1.388 . S
C555 C554 1.366 . S
C555 C559 1.385 . S
C556 H537 0.951 . S
C556 C554 1.388 . S
C556 C557 1.366 . S
C557 C556 1.366 . S
C557 C558 1.414 . S
C557 C560 1.499 . S
C558 H538 0.950 . S
C558 C557 1.414 . S
C558 C559 1.374 . S
C559 H539 0.950 . S
C559 C555 1.385 . S
C559 C558 1.374 . S
C560 C557 1.499 . S
C560 C561 1.373 . S
C560 C562 1.389 . S
C561 H540 0.950 . S
C561 C560 1.373 . S
C561 C577 1.377 . S
C562 C560 1.389 . S
C562 C563 1.524 . S
C562 C576 1.377 . S
C563 C562 1.524 . S
C563 C564 1.397 . S
C563 C568 1.363 . S
C564 H541 0.950 . S
C564 C563 1.397 . S
C564 C565 1.334 . S
C565 H542 0.950 . S
C565 C564 1.334 . S
C565 C566 1.287 . S
C566 C565 1.287 . S
C566 C567 1.524 . S
C566 H585 0.913 . S
C567 H543 0.950 . S
C567 C566 1.524 . S
C567 C568 1.415 . S
C568 H544 0.950 . S
C568 C563 1.363 . S
C568 C567 1.415 . S
C569 H545 0.951 . S
C569 C570 1.366 . S
C569 C571 1.388 . S
C570 C569 1.366 . S
C570 C574 1.385 . S
C571 H546 0.951 . S
C571 C569 1.388 . S
C571 C572 1.366 . S
C572 C571 1.366 . S
C572 C573 1.414 . S
C572 C575 1.499 . S
C573 H547 0.950 . S
C573 C572 1.414 . S
C573 C574 1.374 . S
C574 H548 0.950 . S
C574 C570 1.385 . S
C574 C573 1.374 . S
C575 C572 1.499 . S
C575 C576 1.373 . S
C575 C577 1.389 . S
C576 H549 0.950 . S
C576 C562 1.377 . S
C576 C575 1.373 . S
C577 C561 1.377 . S
C577 C575 1.389 . S
C577 C578 1.524 . S
C578 C577 1.524 . S
C578 C579 1.397 . S
C578 C583 1.363 . S
C579 H550 0.950 . S
C579 C578 1.397 . S
C579 C580 1.334 . S
C580 H551 0.950 . S
C580 C579 1.334 . S
C580 C581 1.287 . S
C581 C580 1.287 . S
C581 C582 1.524 . S
C581 H584 0.999 . S
C582 H552 0.950 . S
C582 C581 1.524 . S
C582 C583 1.415 . S
C583 H553 0.950 . S
C583 C578 1.363 . S
C583 C582 1.415 . S
H584 C581 0.999 . S
H585 C566 0.913 . S
H586 C604 0.951 . S
H587 C606 0.951 . S
H588 C608 0.950 . S
H589 C609 0.950 . S
H590 C611 0.950 . S
H591 C614 0.950 . S
H592 C615 0.950 . S
H593 C617 0.950 . S
H594 C618 0.950 . S
H595 C619 0.951 . S
H596 C621 0.951 . S
H597 C623 0.950 . S
H598 C624 0.950 . S
H599 C626 0.950 . S
H600 C629 0.950 . S
H601 C630 0.950 . S
H602 C632 0.950 . S
H603 C633 0.950 . S
C604 H586 0.951 . S
C604 C605 1.366 . S
C604 C606 1.388 . S
C605 C604 1.366 . S
C605 C609 1.385 . S
C606 H587 0.951 . S
C606 C604 1.388 . S
C606 C607 1.366 . S
C607 C606 1.366 . S
C607 C608 1.414 . S
C607 C610 1.499 . S
C608 H588 0.950 . S
C608 C607 1.414 . S
C608 C609 1.374 . S
C609 H589 0.950 . S
C609 C605 1.385 . S
C609 C608 1.374 . S
C610 C607 1.499 . S
C610 C611 1.373 . S
C610 C612 1.389 . S
C611 H590 0.950 . S
C611 C610 1.373 . S
C611 C627 1.377 . S
C612 C610 1.389 . S
C612 C613 1.524 . S
C612 C626 1.377 . S
C613 C612 1.524 . S
C613 C614 1.397 . S
C613 C618 1.363 . S
C614 H591 0.950 . S
C614 C613 1.397 . S
C614 C615 1.334 . S
C615 H592 0.950 . S
C615 C614 1.334 . S
C615 C616 1.287 . S
C616 C615 1.287 . S
C616 C617 1.524 . S
C616 H635 0.913 . S
C617 H593 0.950 . S
C617 C616 1.524 . S
C617 C618 1.415 . S
C618 H594 0.950 . S
C618 C613 1.363 . S
C618 C617 1.415 . S
C619 H595 0.951 . S
C619 C620 1.366 . S
C619 C621 1.388 . S
C620 C619 1.366 . S
C620 C624 1.385 . S
C621 H596 0.951 . S
C621 C619 1.388 . S
C621 C622 1.366 . S
C622 C621 1.366 . S
C622 C623 1.414 . S
C622 C625 1.499 . S
C623 H597 0.950 . S
C623 C622 1.414 . S
C623 C624 1.374 . S
C624 H598 0.950 . S
C624 C620 1.385 . S
C624 C623 1.374 . S
C625 C622 1.499 . S
C625 C626 1.373 . S
C625 C627 1.389 . S
C626 H599 0.950 . S
C626 C612 1.377 . S
C626 C625 1.373 . S
C627 C611 1.377 . S
C627 C625 1.389 . S
C627 C628 1.524 . S
C628 C627 1.524 . S
C628 C629 1.397 . S
C628 C633 1.363 . S
C629 H600 0.950 . S
C629 C628 1.397 . S
C629 C630 1.334 . S
C630 H601 0.950 . S
C630 C629 1.334 . S
C630 C631 1.287 . S
C631 C630 1.287 . S
C631 C632 1.524 . S
C631 H634 0.999 . S
C632 H602 0.950 . S
C632 C631 1.524 . S
C632 C633 1.415 . S
C633 H603 0.950 . S
C633 C628 1.363 . S
C633 C632 1.415 . S
H634 C631 0.999 . S
H635 C616 0.913 . S
H636 C654 0.951 . S
H637 C656 0.951 . S
H638 C658 0.950 . S
H639 C659 0.950 . S
H640 C661 0.950 . S
H641 C664 0.950 . S
H642 C665 0.950 . S
H643 C667 0.950 . S
H644 C668 0.950 . S
H645 C669 0.951 . S
H646 C671 0.951 . S
H647 C673 0.950 . S
H648 C674 0.950 . S
H649 C676 0.950 . S
H650 C679 0.950 . S
H651 C680 0.950 . S
H652 C682 0.950 . S
H653 C683 0.950 . S
C654 H636 0.951 . S
C654 C655 1.366 . S
C654 C656 1.388 . S
C655 C654 1.366 . S
C655 C659 1.385 . S
C656 H637 0.951 . S
C656 C654 1.388 . S
C656 C657 1.366 . S
C657 C656 1.366 . S
C657 C658 1.414 . S
C657 C660 1.499 . S
C658 H638 0.950 . S
C658 C657 1.414 . S
C658 C659 1.374 . S
C659 H639 0.950 . S
C659 C655 1.385 . S
C659 C658 1.374 . S
C660 C657 1.499 . S
C660 C661 1.373 . S
C660 C662 1.389 . S
C661 H640 0.950 . S
C661 C660 1.373 . S
C661 C677 1.377 . S
C662 C660 1.389 . S
C662 C663 1.524 . S
C662 C676 1.377 . S
C663 C662 1.524 . S
C663 C664 1.397 . S
C663 C668 1.363 . S
C664 H641 0.950 . S
C664 C663 1.397 . S
C664 C665 1.334 . S
C665 H642 0.950 . S
C665 C664 1.334 . S
C665 C666 1.287 . S
C666 C665 1.287 . S
C666 C667 1.524 . S
C666 H685 0.913 . S
C667 H643 0.950 . S
C667 C666 1.524 . S
C667 C668 1.415 . S
C668 H644 0.950 . S
C668 C663 1.363 . S
C668 C667 1.415 . S
C669 H645 0.951 . S
C669 C670 1.366 . S
C669 C671 1.388 . S
C670 C669 1.366 . S
C670 C674 1.385 . S
C671 H646 0.951 . S
C671 C669 1.388 . S
C671 C672 1.366 . S
C672 C671 1.366 . S
C672 C673 1.414 . S
C672 C675 1.499 . S
C673 H647 0.950 . S
C673 C672 1.414 . S
C673 C674 1.374 . S
C674 H648 0.950 . S
C674 C670 1.385 . S
C674 C673 1.374 . S
C675 C672 1.499 . S
C675 C676 1.373 . S
C675 C677 1.389 . S
C676 H649 0.950 . S
C676 C662 1.377 . S
C676 C675 1.373 . S
C677 C661 1.377 . S
C677 C675 1.389 . S
C677 C678 1.524 . S
C678 C677 1.524 . S
C678 C679 1.397 . S
C678 C683 1.363 . S
C679 H650 0.950 . S
C679 C678 1.397 . S
C679 C680 1.334 . S
C680 H651 0.950 . S
C680 C679 1.334 . S
C680 C681 1.287 . S
C681 C680 1.287 . S
C681 C682 1.524 . S
C681 H684 0.999 . S
C682 H652 0.950 . S
C682 C681 1.524 . S
C682 C683 1.415 . S
C683 H653 0.950 . S
C683 C678 1.363 . S
C683 C682 1.415 . S
H684 C681 0.999 . S
H685 C666 0.913 . S
H686 C704 0.951 . S
H687 C706 0.951 . S
H688 C708 0.950 . S
H689 C709 0.950 . S
H690 C711 0.950 . S
H691 C714 0.950 . S
H692 C715 0.950 . S
H693 C717 0.950 . S
H694 C718 0.950 . S
H695 C719 0.951 . S
H696 C721 0.951 . S
H697 C723 0.950 . S
H698 C724 0.950 . S
H699 C726 0.950 . S
H700 C729 0.950 . S
H701 C730 0.950 . S
H702 C732 0.950 . S
H703 C733 0.950 . S
C704 H686 0.951 . S
C704 C705 1.366 . S
C704 C706 1.388 . S
C705 C704 1.366 . S
C705 C709 1.385 . S
C706 H687 0.951 . S
C706 C704 1.388 . S
C706 C707 1.366 . S
C707 C706 1.366 . S
C707 C708 1.414 . S
C707 C710 1.499 . S
C708 H688 0.950 . S
C708 C707 1.414 . S
C708 C709 1.374 . S
C709 H689 0.950 . S
C709 C705 1.385 . S
C709 C708 1.374 . S
C710 C707 1.499 . S
C710 C711 1.373 . S
C710 C712 1.389 . S
C711 H690 0.950 . S
C711 C710 1.373 . S
C711 C727 1.377 . S
C712 C710 1.389 . S
C712 C713 1.524 . S
C712 C726 1.377 . S
C713 C712 1.524 . S
C713 C714 1.397 . S
C713 C718 1.363 . S
C714 H691 0.950 . S
C714 C713 1.397 . S
C714 C715 1.334 . S
C715 H692 0.950 . S
C715 C714 1.334 . S
C715 C716 1.287 . S
C716 C715 1.287 . S
C716 C717 1.524 . S
C716 H735 0.913 . S
C717 H693 0.950 . S
C717 C716 1.524 . S
C717 C718 1.415 . S
C718 H694 0.950 . S
C718 C713 1.363 . S
C718 C717 1.415 . S
C719 H695 0.951 . S
C719 C720 1.366 . S
C719 C721 1.388 . S
C720 C719 1.366 . S
C720 C724 1.385 . S
C721 H696 0.951 . S
C721 C719 1.388 . S
C721 C722 1.366 . S
C722 C721 1.366 . S
C722 C723 1.414 . S
C722 C725 1.499 . S
C723 H697 0.950 . S
C723 C722 1.414 . S
C723 C724 1.374 . S
C724 H698 0.950 . S
C724 C720 1.385 . S
C724 C723 1.374 . S
C725 C722 1.499 . S
C725 C726 1.373 . S
C725 C727 1.389 . S
C726 H699 0.950 . S
C726 C712 1.377 . S
C726 C725 1.373 . S
C727 C711 1.377 . S
C727 C725 1.389 . S
C727 C728 1.524 . S
C728 C727 1.524 . S
C728 C729 1.397 . S
C728 C733 1.363 . S
C729 H700 0.950 . S
C729 C728 1.397 . S
C729 C730 1.334 . S
C730 H701 0.950 . S
C730 C729 1.334 . S
C730 C731 1.287 . S
C731 C730 1.287 . S
C731 C732 1.524 . S
C731 H734 0.999 . S
C732 H702 0.950 . S
C732 C731 1.524 . S
C732 C733 1.415 . S
C733 H703 0.950 . S
C733 C728 1.363 . S
C733 C732 1.415 . S
H734 C731 0.999 . S
H735 C716 0.913 . S
H736 C754 0.951 . S
H737 C756 0.951 . S
H738 C758 0.950 . S
H739 C759 0.950 . S
H740 C761 0.950 . S
H741 C764 0.950 . S
H742 C765 0.950 . S
H743 C767 0.950 . S
H744 C768 0.950 . S
H745 C769 0.951 . S
H746 C771 0.951 . S
H747 C773 0.950 . S
H748 C774 0.950 . S
H749 C776 0.950 . S
H750 C779 0.950 . S
H751 C780 0.950 . S
H752 C782 0.950 . S
H753 C783 0.950 . S
C754 H736 0.951 . S
C754 C755 1.366 . S
C754 C756 1.388 . S
C755 C754 1.366 . S
C755 C759 1.385 . S
C756 H737 0.951 . S
C756 C754 1.388 . S
C756 C757 1.366 . S
C757 C756 1.366 . S
C757 C758 1.414 . S
C757 C760 1.499 . S
C758 H738 0.950 . S
C758 C757 1.414 . S
C758 C759 1.374 . S
C759 H739 0.950 . S
C759 C755 1.385 . S
C759 C758 1.374 . S
C760 C757 1.499 . S
C760 C761 1.373 . S
C760 C762 1.389 . S
C761 H740 0.950 . S
C761 C760 1.373 . S
C761 C777 1.377 . S
C762 C760 1.389 . S
C762 C763 1.524 . S
C762 C776 1.377 . S
C763 C762 1.524 . S
C763 C764 1.397 . S
C763 C768 1.363 . S
C764 H741 0.950 . S
C764 C763 1.397 . S
C764 C765 1.334 . S
C765 H742 0.950 . S
C765 C764 1.334 . S
C765 C766 1.287 . S
C766 C765 1.287 . S
C766 C767 1.524 . S
C766 H785 0.913 . S
C767 H743 0.950 . S
C767 C766 1.524 . S
C767 C768 1.415 . S
C768 H744 0.950 . S
C768 C763 1.363 . S
C768 C767 1.415 . S
C769 H745 0.951 . S
C769 C770 1.366 . S
C769 C771 1.388 . S
C770 C769 1.366 . S
C770 C774 1.385 . S
C771 H746 0.951 . S
C771 C769 1.388 . S
C771 C772 1.366 . S
C772 C771 1.366 . S
C772 C773 1.414 . S
C772 C775 1.499 . S
C773 H747 0.950 . S
C773 C772 1.414 . S
C773 C774 1.374 . S
C774 H748 0.950 . S
C774 C770 1.385 . S
C774 C773 1.374 . S
C775 C772 1.499 . S
C775 C776 1.373 . S
C775 C777 1.389 . S
C776 H749 0.950 . S
C776 C762 1.377 . S
C776 C775 1.373 . S
C777 C761 1.377 . S
C777 C775 1.389 . S
C777 C778 1.524 . S
C778 C777 1.524 . S
C778 C779 1.397 . S
C778 C783 1.363 . S
C779 H750 0.950 . S
C779 C778 1.397 . S
C779 C780 1.334 . S
C780 H751 0.950 . S
C780 C779 1.334 . S
C780 C781 1.287 . S
C781 C780 1.287 . S
C781 C782 1.524 . S
C781 H784 0.999 . S
C782 H752 0.950 . S
C782 C781 1.524 . S
C782 C783 1.415 . S
C783 H753 0.950 . S
C783 C778 1.363 . S
C783 C782 1.415 . S
H784 C781 0.999 . S
H785 C766 0.913 . S
H786 C804 0.951 . S
H787 C806 0.951 . S
H788 C808 0.950 1_655 S
H789 C809 0.950 . S
H790 C811 0.950 . S
H791 C814 0.950 . S
H792 C815 0.950 . S
H793 C817 0.950 . S
H794 C818 0.950 . S
H795 C819 0.951 . S
H796 C821 0.951 . S
H797 C823 0.950 . S
H798 C824 0.950 . S
H799 C826 0.950 . S
H800 C829 0.950 . S
H801 C830 0.950 . S
H802 C832 0.950 1_554 S
H803 C833 0.950 . S
C804 H786 0.951 . S
C804 C805 1.366 . S
C804 C806 1.388 . S
C805 C804 1.366 . S
C805 C809 1.385 . S
C806 H787 0.951 . S
C806 C804 1.388 . S
C806 C807 1.366 . S
C807 C806 1.366 . S
C807 C808 1.414 . S
C807 C810 1.499 . S
C808 H788 0.950 1_455 S
C808 C807 1.414 . S
C808 C809 1.374 . S
C809 H789 0.950 . S
C809 C805 1.385 . S
C809 C808 1.374 . S
C810 C807 1.499 . S
C810 C811 1.373 1_455 S
C810 C812 1.389 . S
C811 H790 0.950 . S
C811 C810 1.373 1_655 S
C811 C827 1.377 . S
C812 C810 1.389 . S
C812 C813 1.524 . S
C812 C826 1.377 . S
C813 C812 1.524 . S
C813 C814 1.397 . S
C813 C818 1.363 . S
C814 H791 0.950 . S
C814 C813 1.397 . S
C814 C815 1.334 . S
C815 H792 0.950 . S
C815 C814 1.334 . S
C815 C816 1.287 . S
C816 C815 1.287 . S
C816 C817 1.524 . S
C816 H835 0.913 . S
C817 H793 0.950 . S
C817 C816 1.524 . S
C817 C818 1.415 . S
C818 H794 0.950 . S
C818 C813 1.363 . S
C818 C817 1.415 . S
C819 H795 0.951 . S
C819 C820 1.366 1_655 S
C819 C821 1.388 . S
C820 C819 1.366 1_455 S
C820 C824 1.385 . S
C821 H796 0.951 . S
C821 C819 1.388 . S
C821 C822 1.366 1_655 S
C822 C821 1.366 1_455 S
C822 C823 1.414 . S
C822 C825 1.529 . S
C823 H797 0.950 . S
C823 C822 1.414 . S
C823 C824 1.374 . S
C824 H798 0.950 . S
C824 C820 1.385 . S
C824 C823 1.374 . S
C825 C822 1.529 . S
C825 C826 1.360 1_556 S
C825 C827 1.372 1_456 S
C826 H799 0.950 . S
C826 C812 1.377 . S
C826 C825 1.360 1_554 S
C827 C811 1.377 . S
C827 C825 1.372 1_654 S
C827 C828 1.524 . S
C828 C827 1.524 . S
C828 C829 1.397 1_554 S
C828 C833 1.363 . S
C829 H800 0.950 . S
C829 C828 1.397 1_556 S
C829 C830 1.334 . S
C830 H801 0.950 . S
C830 C829 1.334 . S
C830 C831 1.287 . S
C831 C830 1.287 . S
C831 C832 1.524 . S
C831 H834 0.999 . S
C832 H802 0.950 1_556 S
C832 C831 1.524 . S
C832 C833 1.415 1_556 S
C833 H803 0.950 . S
C833 C828 1.363 . S
C833 C832 1.415 1_554 S
H834 C831 0.999 . S
H835 C816 0.913 . S
H836 C854 0.951 1_565 S
H837 C856 0.951 1_565 S
H838 C858 0.950 . S
H839 C859 0.950 . S
H840 C861 0.950 . S
H841 C864 0.950 . S
H842 C865 0.950 . S
H843 C867 0.950 . S
H844 C868 0.950 . S
H845 C869 0.951 . S
H846 C871 0.951 . S
H847 C873 0.950 . S
H848 C874 0.950 . S
H849 C876 0.950 . S
H850 C879 0.950 . S
H851 C880 0.950 . S
H852 C882 0.950 . S
H853 C883 0.950 . S
C854 H836 0.951 1_545 S
C854 C855 1.366 . S
C854 C856 1.388 . S
C855 C854 1.366 . S
C855 C859 1.385 . S
C856 H837 0.951 1_545 S
C856 C854 1.388 . S
C856 C857 1.366 . S
C857 C856 1.366 . S
C857 C858 1.414 . S
C857 C860 1.499 . S
C858 H838 0.950 . S
C858 C857 1.414 . S
C858 C859 1.374 . S
C859 H839 0.950 . S
C859 C855 1.385 . S
C859 C858 1.374 . S
C860 C857 1.499 . S
C860 C861 1.373 . S
C860 C862 1.389 . S
C861 H840 0.950 . S
C861 C860 1.373 . S
C861 C877 1.377 . S
C862 C860 1.389 . S
C862 C863 1.524 . S
C862 C876 1.377 . S
C863 C862 1.524 . S
C863 C864 1.397 . S
C863 C868 1.363 1_545 S
C864 H841 0.950 . S
C864 C863 1.397 . S
C864 C865 1.334 . S
C865 H842 0.950 . S
C865 C864 1.334 . S
C865 C866 1.287 1_545 S
C866 C865 1.287 1_565 S
C866 C867 1.524 . S
C866 H885 0.913 . S
C867 H843 0.950 . S
C867 C866 1.524 . S
C867 C868 1.415 . S
C868 H844 0.950 . S
C868 C863 1.363 1_565 S
C868 C867 1.415 . S
C869 H845 0.951 . S
C869 C870 1.366 . S
C869 C871 1.388 . S
C870 C869 1.366 . S
C870 C874 1.385 1_545 S
C871 H846 0.951 . S
C871 C869 1.388 . S
C871 C872 1.366 . S
C872 C871 1.366 . S
C872 C873 1.414 1_545 S
C872 C875 1.499 . S
C873 H847 0.950 . S
C873 C872 1.414 1_565 S
C873 C874 1.374 . S
C874 H848 0.950 . S
C874 C870 1.385 1_565 S
C874 C873 1.374 . S
C875 C872 1.499 . S
C875 C876 1.373 . S
C875 C877 1.389 . S
C876 H849 0.950 . S
C876 C862 1.377 . S
C876 C875 1.373 . S
C877 C861 1.377 . S
C877 C875 1.389 . S
C877 C878 1.524 . S
C878 C877 1.524 . S
C878 C879 1.397 . S
C878 C883 1.363 . S
C879 H850 0.950 . S
C879 C878 1.397 . S
C879 C880 1.334 . S
C880 H851 0.950 . S
C880 C879 1.334 . S
C880 C881 1.287 . S
C881 C880 1.287 . S
C881 C882 1.524 . S
C881 H884 0.999 . S
C882 H852 0.950 . S
C882 C881 1.524 . S
C882 C883 1.415 . S
C883 H853 0.950 . S
C883 C878 1.363 . S
C883 C882 1.415 . S
H884 C881 0.999 . S
H885 C866 0.913 . S
H886 C904 0.951 . S
H887 C906 0.951 . S
H888 C908 0.950 . S
H889 C909 0.950 . S
H890 C911 0.950 . S
H891 C914 0.950 . S
H892 C915 0.950 . S
H893 C917 0.950 . S
H894 C918 0.950 . S
H895 C919 0.951 . S
H896 C921 0.951 . S
H897 C923 0.950 . S
H898 C924 0.950 . S
H899 C926 0.950 . S
H900 C929 0.950 . S
H901 C930 0.950 . S
H902 C932 0.950 . S
H903 C933 0.950 . S
C904 H886 0.951 . S
C904 C905 1.366 . S
C904 C906 1.388 . S
C905 C904 1.366 . S
C905 C909 1.385 . S
C906 H887 0.951 . S
C906 C904 1.388 . S
C906 C907 1.366 . S
C907 C906 1.366 . S
C907 C908 1.414 . S
C907 C910 1.499 . S
C908 H888 0.950 . S
C908 C907 1.414 . S
C908 C909 1.374 . S
C909 H889 0.950 . S
C909 C905 1.385 . S
C909 C908 1.374 . S
C910 C907 1.499 . S
C910 C911 1.373 . S
C910 C912 1.389 . S
C911 H890 0.950 . S
C911 C910 1.373 . S
C911 C927 1.377 . S
C912 C910 1.389 . S
C912 C913 1.524 . S
C912 C926 1.377 . S
C913 C912 1.524 . S
C913 C914 1.397 . S
C913 C918 1.363 . S
C914 H891 0.950 . S
C914 C913 1.397 . S
C914 C915 1.334 . S
C915 H892 0.950 . S
C915 C914 1.334 . S
C915 C916 1.287 . S
C916 C915 1.287 . S
C916 C917 1.524 . S
C916 H935 0.913 . S
C917 H893 0.950 . S
C917 C916 1.524 . S
C917 C918 1.415 . S
C918 H894 0.950 . S
C918 C913 1.363 . S
C918 C917 1.415 . S
C919 H895 0.951 . S
C919 C920 1.366 . S
C919 C921 1.388 . S
C920 C919 1.366 . S
C920 C924 1.385 . S
C921 H896 0.951 . S
C921 C919 1.388 . S
C921 C922 1.366 . S
C922 C921 1.366 . S
C922 C923 1.414 . S
C922 C925 1.499 . S
C923 H897 0.950 . S
C923 C922 1.414 . S
C923 C924 1.374 . S
C924 H898 0.950 . S
C924 C920 1.385 . S
C924 C923 1.374 . S
C925 C922 1.499 . S
C925 C926 1.373 . S
C925 C927 1.389 . S
C926 H899 0.950 . S
C926 C912 1.377 . S
C926 C925 1.373 . S
C927 C911 1.377 . S
C927 C925 1.389 . S
C927 C928 1.524 . S
C928 C927 1.524 . S
C928 C929 1.397 . S
C928 C933 1.363 . S
C929 H900 0.950 . S
C929 C928 1.397 . S
C929 C930 1.334 . S
C930 H901 0.950 . S
C930 C929 1.334 . S
C930 C931 1.287 . S
C931 C930 1.287 . S
C931 C932 1.524 . S
C931 H934 0.999 . S
C932 H902 0.950 . S
C932 C931 1.524 . S
C932 C933 1.415 . S
C933 H903 0.950 . S
C933 C928 1.363 . S
C933 C932 1.415 . S
H934 C931 0.999 . S
H935 C916 0.913 . S
H936 C954 0.951 1_565 S
H937 C956 0.951 1_565 S
H938 C958 0.950 . S
H939 C959 0.950 . S
H940 C961 0.950 . S
H941 C964 0.950 1_545 S
H942 C965 0.950 . S
H943 C967 0.950 . S
H944 C968 0.950 . S
H945 C969 0.951 . S
H946 C971 0.951 . S
H947 C973 0.950 . S
H948 C974 0.950 . S
H949 C976 0.950 . S
H950 C979 0.950 . S
H951 C980 0.950 . S
H952 C982 0.950 . S
H953 C983 0.950 . S
C954 H936 0.951 1_545 S
C954 C955 1.366 . S
C954 C956 1.388 . S
C955 C954 1.366 . S
C955 C959 1.385 . S
C956 H937 0.951 1_545 S
C956 C954 1.388 . S
C956 C957 1.366 . S
C957 C956 1.366 . S
C957 C958 1.414 . S
C957 C960 1.499 . S
C958 H938 0.950 . S
C958 C957 1.414 . S
C958 C959 1.374 . S
C959 H939 0.950 . S
C959 C955 1.385 . S
C959 C958 1.374 . S
C960 C957 1.499 . S
C960 C961 1.373 . S
C960 C962 1.389 . S
C961 H940 0.950 . S
C961 C960 1.373 . S
C961 C977 1.377 . S
C962 C960 1.389 . S
C962 C963 1.524 1_545 S
C962 C976 1.377 1_545 S
C963 C962 1.524 1_565 S
C963 C964 1.397 . S
C963 C968 1.363 . S
C964 H941 0.950 1_565 S
C964 C963 1.397 . S
C964 C965 1.334 . S
C965 H942 0.950 . S
C965 C964 1.334 . S
C965 C966 1.287 . S
C966 C965 1.287 . S
C966 C967 1.524 . S
C966 H985 0.913 . S
C967 H943 0.950 . S
C967 C966 1.524 . S
C967 C968 1.415 . S
C968 H944 0.950 . S
C968 C963 1.363 . S
C968 C967 1.415 . S
C969 H945 0.951 . S
C969 C970 1.366 . S
C969 C971 1.388 . S
C970 C969 1.366 . S
C970 C974 1.385 1_545 S
C971 H946 0.951 . S
C971 C969 1.388 . S
C971 C972 1.366 . S
C972 C971 1.366 . S
C972 C973 1.414 1_545 S
C972 C975 1.499 . S
C973 H947 0.950 . S
C973 C972 1.414 1_565 S
C973 C974 1.374 . S
C974 H948 0.950 . S
C974 C970 1.385 1_565 S
C974 C973 1.374 . S
C975 C972 1.499 . S
C975 C976 1.373 1_545 S
C975 C977 1.389 . S
C976 H949 0.950 . S
C976 C962 1.377 1_565 S
C976 C975 1.373 1_565 S
C977 C961 1.377 . S
C977 C975 1.389 . S
C977 C978 1.524 . S
C978 C977 1.524 . S
C978 C979 1.397 . S
C978 C983 1.363 . S
C979 H950 0.950 . S
C979 C978 1.397 . S
C979 C980 1.334 . S
C980 H951 0.950 . S
C980 C979 1.334 . S
C980 C981 1.287 . S
C981 C980 1.287 . S
C981 C982 1.524 . S
C981 H984 0.999 . S
C982 H952 0.950 . S
C982 C981 1.524 . S
C982 C983 1.415 . S
C983 H953 0.950 . S
C983 C978 1.363 . S
C983 C982 1.415 . S
H984 C981 0.999 . S
H985 C966 0.913 . S
H986 C1004 0.951 . S
H987 C1006 0.951 . S
H988 C1008 0.950 . S
H989 C1009 0.950 . S
H990 C1011 0.950 . S
H991 C1014 0.950 . S
H992 C1015 0.950 . S
H993 C1017 0.950 . S
H994 C1018 0.950 . S
H995 C1019 0.951 . S
H996 C1021 0.951 . S
H997 C1023 0.950 . S
H998 C1024 0.950 . S
H999 C1026 0.950 . S
H1000 C1029 0.950 . S
H1001 C1030 0.950 . S
H1002 C1032 0.950 . S
H1003 C1033 0.950 1_556 S
C1004 H986 0.951 . S
C1004 C1005 1.366 . S
C1004 C1006 1.388 . S
C1005 C1004 1.366 . S
C1005 C1009 1.385 . S
C1006 H987 0.951 . S
C1006 C1004 1.388 . S
C1006 C1007 1.366 . S
C1007 C1006 1.366 . S
C1007 C1008 1.414 . S
C1007 C1010 1.499 . S
C1008 H988 0.950 . S
C1008 C1007 1.414 . S
C1008 C1009 1.374 . S
C1009 H989 0.950 . S
C1009 C1005 1.385 . S
C1009 C1008 1.374 . S
C1010 C1007 1.499 . S
C1010 C1011 1.373 . S
C1010 C1012 1.389 . S
C1011 H990 0.950 . S
C1011 C1010 1.373 . S
C1011 C1027 1.377 . S
C1012 C1010 1.389 . S
C1012 C1013 1.524 . S
C1012 C1026 1.377 . S
C1013 C1012 1.524 . S
C1013 C1014 1.397 . S
C1013 C1018 1.363 . S
C1014 H991 0.950 . S
C1014 C1013 1.397 . S
C1014 C1015 1.334 . S
C1015 H992 0.950 . S
C1015 C1014 1.334 . S
C1015 C1016 1.287 . S
C1016 C1015 1.287 . S
C1016 C1017 1.524 . S
C1016 H1035 0.913 . S
C1017 H993 0.950 . S
C1017 C1016 1.524 . S
C1017 C1018 1.415 . S
C1018 H994 0.950 . S
C1018 C1013 1.363 . S
C1018 C1017 1.415 . S
C1019 H995 0.951 . S
C1019 C1020 1.366 . S
C1019 C1021 1.388 . S
C1020 C1019 1.366 . S
C1020 C1024 1.385 . S
C1021 H996 0.951 . S
C1021 C1019 1.388 . S
C1021 C1022 1.366 . S
C1022 C1021 1.366 . S
C1022 C1023 1.414 . S
C1022 C1025 1.499 . S
C1023 H997 0.950 . S
C1023 C1022 1.414 . S
C1023 C1024 1.374 . S
C1024 H998 0.950 . S
C1024 C1020 1.385 . S
C1024 C1023 1.374 . S
C1025 C1022 1.499 . S
C1025 C1026 1.373 1_554 S
C1025 C1027 1.389 1_554 S
C1026 H999 0.950 . S
C1026 C1012 1.377 . S
C1026 C1025 1.373 1_556 S
C1027 C1011 1.377 . S
C1027 C1025 1.389 1_556 S
C1027 C1028 1.524 1_556 S
C1028 C1027 1.524 1_554 S
C1028 C1029 1.397 . S
C1028 C1033 1.363 . S
C1029 H1000 0.950 . S
C1029 C1028 1.397 . S
C1029 C1030 1.334 . S
C1030 H1001 0.950 . S
C1030 C1029 1.334 . S
C1030 C1031 1.287 . S
C1031 C1030 1.287 . S
C1031 C1032 1.524 . S
C1031 H1034 0.999 . S
C1032 H1002 0.950 . S
C1032 C1031 1.524 . S
C1032 C1033 1.415 . S
C1033 H1003 0.950 1_554 S
C1033 C1028 1.363 . S
C1033 C1032 1.415 . S
H1034 C1031 0.999 . S
H1035 C1016 0.913 . S
H1036 C1054 0.951 . S
H1037 C1056 0.951 . S
H1038 C1058 0.950 . S
H1039 C1059 0.950 . S
H1040 C1061 0.950 . S
H1041 C1064 0.950 . S
H1042 C1065 0.950 . S
H1043 C1067 0.950 . S
H1044 C1068 0.950 . S
H1045 C1069 0.951 . S
H1046 C1071 0.951 . S
H1047 C1073 0.950 . S
H1048 C1074 0.950 . S
H1049 C1076 0.950 . S
H1050 C1079 0.950 1_655 S
H1051 C1080 0.950 1_655 S
H1052 C1082 0.950 . S
H1053 C1083 0.950 . S
C1054 H1036 0.951 . S
C1054 C1055 1.366 1_655 S
C1054 C1056 1.388 . S
C1055 C1054 1.366 1_455 S
C1055 C1059 1.385 . S
C1056 H1037 0.951 . S
C1056 C1054 1.388 . S
C1056 C1057 1.366 1_655 S
C1057 C1056 1.366 1_455 S
C1057 C1058 1.414 . S
C1057 C1060 1.499 . S
C1058 H1038 0.950 . S
C1058 C1057 1.414 . S
C1058 C1059 1.374 . S
C1059 H1039 0.950 . S
C1059 C1055 1.385 . S
C1059 C1058 1.374 . S
C1060 C1057 1.499 . S
C1060 C1061 1.373 . S
C1060 C1062 1.389 . S
C1061 H1040 0.950 . S
C1061 C1060 1.373 . S
C1061 C1077 1.377 . S
C1062 C1060 1.389 . S
C1062 C1063 1.524 1_455 S
C1062 C1076 1.377 1_455 S
C1063 C1062 1.524 1_655 S
C1063 C1064 1.397 1_655 S
C1063 C1068 1.363 . S
C1064 H1041 0.950 . S
C1064 C1063 1.397 1_455 S
C1064 C1065 1.334 . S
C1065 H1042 0.950 . S
C1065 C1064 1.334 . S
C1065 C1066 1.287 1_455 S
C1066 C1065 1.287 1_655 S
C1066 C1067 1.524 . S
C1066 H1085 0.913 . S
C1067 H1043 0.950 . S
C1067 C1066 1.524 . S
C1067 C1068 1.415 . S
C1068 H1044 0.950 . S
C1068 C1063 1.363 . S
C1068 C1067 1.415 . S
C1069 H1045 0.951 . S
C1069 C1070 1.366 . S
C1069 C1071 1.388 . S
C1070 C1069 1.366 . S
C1070 C1074 1.385 1_455 S
C1071 H1046 0.951 . S
C1071 C1069 1.388 . S
C1071 C1072 1.366 . S
C1072 C1071 1.366 . S
C1072 C1073 1.414 1_455 S
C1072 C1075 1.499 . S
C1073 H1047 0.950 . S
C1073 C1072 1.414 1_655 S
C1073 C1074 1.374 . S
C1074 H1048 0.950 . S
C1074 C1070 1.385 1_655 S
C1074 C1073 1.374 . S
C1075 C1072 1.499 . S
C1075 C1076 1.373 1_455 S
C1075 C1077 1.389 . S
C1076 H1049 0.950 . S
C1076 C1062 1.377 1_655 S
C1076 C1075 1.373 1_655 S
C1077 C1061 1.377 . S
C1077 C1075 1.389 . S
C1077 C1078 1.524 . S
C1078 C1077 1.524 . S
C1078 C1079 1.397 . S
C1078 C1083 1.363 . S
C1079 H1050 0.950 1_455 S
C1079 C1078 1.397 . S
C1079 C1080 1.334 . S
C1080 H1051 0.950 1_455 S
C1080 C1079 1.334 . S
C1080 C1081 1.287 . S
C1081 C1080 1.287 . S
C1081 C1082 1.524 . S
C1081 H1084 0.999 . S
C1082 H1052 0.950 . S
C1082 C1081 1.524 . S
C1082 C1083 1.415 . S
C1083 H1053 0.950 . S
C1083 C1078 1.363 . S
C1083 C1082 1.415 . S
H1084 C1081 0.999 . S
H1085 C1066 0.913 . S
C205 C9 0.520 . S
C220 C180 0.712 . S
C255 C49 0.401 . S
C270 C158 0.660 . S
C305 C89 0.130 . S
C320 C172 0.314 . S
C355 C26 0.260 . S
C370 C183 0.327 . S
C420 C161 0.261 . S
C405 C66 0.300 . S
C470 C169 0.698 . S
C455 C106 0.476 . S
C505 C43 3.142 . S
C520 C136 2.801 . S
C555 C83 3.258 . S
C570 C147 2.911 . S
C605 C22 3.318 . S
C620 C125 2.952 . S
C670 C139 2.870 . S
C655 C62 2.942 . S
C720 C150 2.746 . S
C705 C102 2.807 . S
C755 C3 2.755 . S
C770 C128 2.695 . S
C820 C149 1.651 . S
C805 C15 1.663 . S
C855 C55 1.672 . S
C870 C127 1.650 . S
C905 C95 1.697 . S
C920 C138 1.653 . S
C970 C171 1.211 . S
C955 C42 1.239 . S
C1020 C182 1.220 . S
C1005 C82 1.259 . S
C1055 C2 1.258 . S
C1070 C160 1.224 . S
