# Generated by pormake.
# Topology zzz, (3,6)-cn, num edge types: 1
# Building blocks:
#     Node 0, Type 0, BuildingBlock: WUSLED_clean_sbu_0, # of connection points: 3
#     Node 1, Type 0, BuildingBlock: WUSLED_clean_sbu_0, # of connection points: 3
#     Node 2, Type 0, BuildingBlock: WUSLED_clean_sbu_0, # of connection points: 3
#     Node 3, Type 0, BuildingBlock: WUSLED_clean_sbu_0, # of connection points: 3
#     Node 4, Type 0, BuildingBlock: WUSLED_clean_sbu_0, # of connection points: 3
#     Node 5, Type 0, BuildingBlock: WUSLED_clean_sbu_0, # of connection points: 3
#     Node 6, Type 0, BuildingBlock: WUSLED_clean_sbu_0, # of connection points: 3
#     Node 7, Type 0, BuildingBlock: WUSLED_clean_sbu_0, # of connection points: 3
#     Node 8, Type 1, BuildingBlock: KUMBOL_clean_sbu_0, # of connection points: 6
#     Node 9, Type 1, BuildingBlock: KUMBOL_clean_sbu_0, # of connection points: 6
#     Node 10, Type 1, BuildingBlock: KUMBOL_clean_sbu_0, # of connection points: 6
#     Node 11, Type 1, BuildingBlock: KUMBOL_clean_sbu_0, # of connection points: 6
#     Edge 12, Type (0, 1), BuildingBlock: MIFKUJ_clean_linker_0, # of connection points: 2
#     Edge 13, Type (0, 1), BuildingBlock: MIFKUJ_clean_linker_0, # of connection points: 2
#     Edge 14, Type (0, 1), BuildingBlock: MIFKUJ_clean_linker_0, # of connection points: 2
#     Edge 15, Type (0, 1), BuildingBlock: MIFKUJ_clean_linker_0, # of connection points: 2
#     Edge 16, Type (0, 1), BuildingBlock: MIFKUJ_clean_linker_0, # of connection points: 2
#     Edge 17, Type (0, 1), BuildingBlock: MIFKUJ_clean_linker_0, # of connection points: 2
#     Edge 18, Type (0, 1), BuildingBlock: MIFKUJ_clean_linker_0, # of connection points: 2
#     Edge 19, Type (0, 1), BuildingBlock: MIFKUJ_clean_linker_0, # of connection points: 2
#     Edge 20, Type (0, 1), BuildingBlock: MIFKUJ_clean_linker_0, # of connection points: 2
#     Edge 21, Type (0, 1), BuildingBlock: MIFKUJ_clean_linker_0, # of connection points: 2
#     Edge 22, Type (0, 1), BuildingBlock: MIFKUJ_clean_linker_0, # of connection points: 2
#     Edge 23, Type (0, 1), BuildingBlock: MIFKUJ_clean_linker_0, # of connection points: 2
#     Edge 24, Type (0, 1), BuildingBlock: MIFKUJ_clean_linker_0, # of connection points: 2
#     Edge 25, Type (0, 1), BuildingBlock: MIFKUJ_clean_linker_0, # of connection points: 2
#     Edge 26, Type (0, 1), BuildingBlock: MIFKUJ_clean_linker_0, # of connection points: 2
#     Edge 27, Type (0, 1), BuildingBlock: MIFKUJ_clean_linker_0, # of connection points: 2
#     Edge 28, Type (0, 1), BuildingBlock: MIFKUJ_clean_linker_0, # of connection points: 2
#     Edge 29, Type (0, 1), BuildingBlock: MIFKUJ_clean_linker_0, # of connection points: 2
#     Edge 30, Type (0, 1), BuildingBlock: MIFKUJ_clean_linker_0, # of connection points: 2
#     Edge 31, Type (0, 1), BuildingBlock: MIFKUJ_clean_linker_0, # of connection points: 2
#     Edge 32, Type (0, 1), BuildingBlock: MIFKUJ_clean_linker_0, # of connection points: 2
#     Edge 33, Type (0, 1), BuildingBlock: MIFKUJ_clean_linker_0, # of connection points: 2
#     Edge 34, Type (0, 1), BuildingBlock: MIFKUJ_clean_linker_0, # of connection points: 2
#     Edge 35, Type (0, 1), BuildingBlock: MIFKUJ_clean_linker_0, # of connection points: 2
# Relax obj value: 0.255
# Max RMSD: 0.219
# Mean RMSD: 0.204
data_MOF--net-zzz--node1-WUSLED_clean_sbu_0--node2-KUMBOL_clean_sbu_0--edge1-MIFKUJ_clean_linker_0
_symmetry_space_group_name_H-M    P1
_symmetry_Int_Tables_number       1
_symmetry_cell_setting            triclinic
loop_
_symmetry_equiv_pos_as_xyz
'x, y, z'
_cell_length_a     74.782031
_cell_length_b     74.739828
_cell_length_c     25.95211
_cell_angle_alpha  90.631329
_cell_angle_beta   90.124817
_cell_angle_gamma 90.136755
loop_
_atom_site_label
_atom_site_type_symbol
_atom_site_fract_x
_atom_site_fract_y
_atom_site_fract_z
_atom_type_partial_charge
C0 C 0.77625 0.58396 0.28236 0.0
C1 C 0.79243 0.58785 0.25733 0.0
C2 C 0.80943 0.58079 0.33551 0.0
C3 C 0.80885 0.5864 0.28378 0.0
C4 C 0.79314 0.57727 0.36051 0.0
C5 C 0.7768 0.57892 0.33434 0.0
U6 U 0.74353 0.5879 0.16387 0.0
O7 O 0.7208 0.56987 0.148 0.0
O8 O 0.71593 0.59846 0.1601 0.0
C9 C 0.70905 0.58289 0.14657 0.0
C10 C 0.75869 0.58397 0.25527 0.0
C11 C 0.69637 0.58246 0.1021 0.0
C12 C 0.6661 0.57649 0.07082 0.0
C13 C 0.67836 0.57851 0.11147 0.0
C14 C 0.68952 0.58287 1.00971 0.0
C15 C 0.67137 0.57851 0.019 0.0
C16 C 0.70187 0.58475 0.05073 0.0
C17 C 0.77676 0.59916 0.04743 0.0
C18 C 0.78615 0.6012 0.95864 0.0
C19 C 0.80827 0.60078 0.02721 0.0
C20 C 0.7946 0.59984 0.06386 0.0
C21 C 0.80407 0.60083 0.97427 0.0
C22 C 0.77261 0.60037 0.99502 0.0
C23 C 0.76197 0.59537 0.08202 0.0
O24 O 0.75254 0.59935 0.23863 0.0
O25 O 0.75578 0.57072 0.22263 0.0
O26 O 0.75954 0.57889 0.09775 0.0
O27 O 0.75575 0.60794 0.1129 0.0
H28 H 0.79239 0.59167 0.21719 0.0
H29 H 0.82114 0.5891 0.26326 0.0
H30 H 0.79305 0.57312 0.40037 0.0
H31 H 0.76452 0.57589 0.3546 0.0
H32 H 0.65254 0.57276 0.0804 0.0
H33 H 0.67378 0.57653 0.15058 0.0
H34 H 0.69424 0.58481 0.97078 0.0
H35 H 0.71573 0.58778 0.04228 0.0
H36 H 0.78262 0.60121 0.91811 0.0
H37 H 0.82206 0.60025 0.04001 0.0
H38 H 0.79794 0.59885 0.10437 0.0
H39 H 0.75883 0.59978 0.98199 0.0
C40 C 0.95833 0.78335 0.27575 0.0
C41 C 0.96483 0.79835 0.24936 0.0
C42 C 0.96246 0.81723 0.32747 0.0
C43 C 0.96686 0.81501 0.27483 0.0
C44 C 0.95532 0.80231 0.35317 0.0
C45 C 0.95337 0.78565 0.32774 0.0
U46 U 0.95486 0.74596 0.16589 0.0
O47 O 0.9725 0.72251 0.1585 0.0
O48 O 0.94385 0.71847 0.16992 0.0
C49 C 0.95924 0.71095 0.15847 0.0
C50 C 0.95842 0.76489 0.25245 0.0
C51 C 0.95926 0.69758 0.11524 0.0
C52 C 0.96154 0.66644 0.08586 0.0
C53 C 0.96003 0.67922 0.12587 0.0
C54 C 0.96108 0.69012 0.02329 0.0
C55 C 0.96237 0.67165 0.03381 0.0
C56 C 0.95955 0.70289 0.0634 0.0
C57 C 0.9447 0.77888 0.05356 0.0
C58 C 0.93453 0.79419 0.97711 0.0
C59 C 0.95253 0.80997 0.04088 0.0
C60 C 0.95296 0.79464 0.07116 0.0
C61 C 0.94374 0.80975 0.99275 0.0
C62 C 0.93511 0.77887 1.00718 0.0
C63 C 0.94768 0.76172 0.07863 0.0
O64 O 0.94313 0.75787 0.23701 0.0
O65 O 0.97175 0.76078 0.22156 0.0
O66 O 0.96402 0.75868 0.09509 0.0
O67 O 0.93516 0.75599 0.10987 0.0
H68 H 0.96877 0.79711 0.20936 0.0
H69 H 0.9721 0.82618 0.25327 0.0
H70 H 0.95188 0.80329 0.39361 0.0
H71 H 0.94849 0.77432 0.34938 0.0
H72 H 0.96266 0.65248 0.09603 0.0
H73 H 0.95987 0.67473 0.16542 0.0
H74 H 0.96131 0.69478 0.98394 0.0
H75 H 0.95889 0.71696 0.05395 0.0
H76 H 0.92737 0.79363 0.94081 0.0
H77 H 0.95994 0.82163 0.05394 0.0
H78 H 0.96047 0.79483 0.10691 0.0
H79 H 0.92869 0.76675 0.99305 0.0
C80 C 0.7549 0.96272 0.29244 0.0
C81 C 0.73889 0.9661 0.26592 0.0
C82 C 0.72173 0.96522 0.34684 0.0
C83 C 0.72254 0.96731 0.29272 0.0
C84 C 0.73786 0.96156 0.37286 0.0
C85 C 0.75414 0.96035 0.34606 0.0
U86 U 0.79032 0.96001 0.17855 0.0
O87 O 0.81424 0.9771 0.17245 0.0
O88 O 0.8174 0.9482 0.18066 0.0
C89 C 0.82531 0.96349 0.17062 0.0
C90 C 0.77275 0.96285 0.26677 0.0
C91 C 0.83817 0.96348 0.12689 0.0
C92 C 0.86896 0.96565 0.09632 0.0
C93 C 0.8566 0.96429 0.13681 0.0
C94 C 0.84468 0.96485 0.0347 0.0
C95 C 0.86323 0.96621 0.04453 0.0
C96 C 0.83232 0.96353 0.07534 0.0
C97 C 0.7587 0.95162 0.05745 0.0
C98 C 0.7477 0.94717 0.97047 0.0
C99 C 0.72702 0.95418 0.03969 0.0
C100 C 0.74124 0.9546 0.0749 0.0
C101 C 0.73025 0.95093 0.98693 0.0
C102 C 0.76179 0.94752 1.00549 0.0
C103 C 0.77439 0.95429 0.09014 0.0
O104 O 0.77902 0.94761 0.24858 0.0
O105 O 0.77649 0.9765 0.23706 0.0
O106 O 0.77706 0.97039 0.10963 0.0
O107 O 0.77942 0.94122 0.12033 0.0
H108 H 0.73906 0.96813 0.22466 0.0
H109 H 0.71059 0.97039 0.271 0.0
H110 H 0.73797 0.95958 0.41411 0.0
H111 H 0.76629 0.95781 0.36759 0.0
H112 H 0.883 0.96685 0.10596 0.0
H113 H 0.86147 0.96429 0.17615 0.0
H114 H 0.83965 0.96487 0.99556 0.0
H115 H 0.81816 0.96282 0.06654 0.0
H116 H 0.75054 0.94455 0.93017 0.0
H117 H 0.71369 0.95734 0.05321 0.0
H118 H 0.73872 0.95788 0.11499 0.0
H119 H 0.77526 0.94529 0.99153 0.0
C120 C 0.57961 0.75923 0.28247 0.0
C121 C 0.57964 0.74279 0.25558 0.0
C122 C 0.57552 0.72668 0.33637 0.0
C123 C 0.5777 0.72661 0.28245 0.0
C124 C 0.57578 0.74309 0.36303 0.0
C125 C 0.5779 0.75916 0.33638 0.0
U126 U 0.58348 0.79449 0.16942 0.0
O127 O 0.56656 0.81842 0.1648 0.0
O128 O 0.5955 0.82148 0.17436 0.0
C129 C 0.58026 0.82943 0.16402 0.0
C130 C 0.5801 0.77679 0.25637 0.0
C131 C 0.58039 0.84205 0.12041 0.0
C132 C 0.57919 0.87266 0.08933 0.0
C133 C 0.58066 0.86054 0.13 0.0
C134 C 0.57767 0.84793 0.02847 0.0
C135 C 0.57733 0.86654 0.03805 0.0
C136 C 0.57922 0.83583 0.06919 0.0
C137 C 0.59204 0.76224 0.0512 0.0
C138 C 0.60275 0.7486 0.972 0.0
C139 C 0.5838 0.73177 0.02983 0.0
C140 C 0.58324 0.74634 0.06383 0.0
C141 C 0.59327 0.73288 0.98302 0.0
C142 C 0.60205 0.76318 1.00576 0.0
C143 C 0.58938 0.77877 0.08055 0.0
O144 O 0.59555 0.78268 0.23917 0.0
O145 O 0.56661 0.78062 0.22591 0.0
O146 O 0.57325 0.78175 0.09883 0.0
O147 O 0.60235 0.78402 0.11146 0.0
H148 H 0.58084 0.74249 0.21399 0.0
H149 H 0.57749 0.71408 0.26109 0.0
H150 H 0.57416 0.7435 0.4045 0.0
H151 H 0.57779 0.77166 0.35795 0.0
H152 H 0.57885 0.88683 0.09832 0.0
H153 H 0.58156 0.86562 0.16917 0.0
H154 H 0.57657 0.84272 0.98949 0.0
H155 H 0.57911 0.82159 0.06079 0.0
H156 H 0.61035 0.74982 0.93675 0.0
H157 H 0.57608 0.71997 0.03921 0.0
H158 H 0.57535 0.74546 0.09868 0.0
H159 H 0.6088 0.77547 0.9954 0.0
C160 C 0.25882 0.44978 0.86668 0.0
C161 C 0.24261 0.44769 0.8935 0.0
C162 C 0.22527 0.45335 0.81471 0.0
C163 C 0.22605 0.44942 0.86784 0.0
C164 C 0.24164 0.45467 0.78797 0.0
C165 C 0.2581 0.453 0.8136 0.0
U166 U 0.28817 0.44416 0.98791 0.0
O167 O 0.31579 0.4341 0.99966 0.0
O168 O 0.30933 0.46206 0.0179 0.0
C169 C 0.32173 0.44963 0.0171 0.0
C170 C 0.27651 0.44996 0.89345 0.0
C171 C 0.33535 0.4499 0.0594 0.0
C172 C 0.36702 0.45202 0.083 0.0
C173 C 0.35353 0.44946 0.04586 0.0
C174 C 0.34452 0.45482 0.14918 0.0
C175 C 0.36281 0.4551 0.13526 0.0
C176 C 0.33096 0.45235 0.1117 0.0
C177 C 0.25457 0.43038 0.10039 0.0
C178 C 0.2497 0.43886 0.18946 0.0
C179 C 0.22596 0.4245 0.14033 0.0
C180 C 0.23735 0.42299 0.09818 0.0
C181 C 0.23173 0.43336 0.18534 0.0
C182 C 0.26107 0.4375 0.14694 0.0
C183 C 0.26303 0.43446 0.05129 0.0
O184 O 0.27869 0.46263 0.92832 0.0
O185 O 0.28296 0.43449 0.90829 0.0
O186 O 0.2733 0.42267 0.02784 0.0
O187 O 0.26731 0.45125 0.043 0.0
H188 H 0.24276 0.44518 0.93454 0.0
H189 H 0.2139 0.44834 0.89019 0.0
H190 H 0.24182 0.45719 0.74699 0.0
H191 H 0.27035 0.45461 0.79193 0.0
H192 H 0.38082 0.45175 0.07048 0.0
H193 H 0.35736 0.44765 1.00589 0.0
H194 H 0.34062 0.4572 0.18881 0.0
H195 H 0.31707 0.45284 0.12338 0.0
H196 H 0.2545 0.44551 0.22414 0.0
H197 H 0.21215 0.42032 0.13574 0.0
H198 H 0.23208 0.41767 0.06218 0.0
H199 H 0.27434 0.44332 0.1491 0.0
C200 C 0.08185 0.25706 0.87623 0.0
C201 C 0.09155 0.24188 0.89137 0.0
C202 C 0.07809 0.22365 0.82111 0.0
C203 C 0.08971 0.22542 0.86418 0.0
C204 C 0.06862 0.23909 0.80626 0.0
C205 C 0.07053 0.2554 0.83315 0.0
U206 U 0.08864 0.29362 0.98902 0.0
O207 O 0.09889 0.32146 0.98463 0.0
O208 O 0.07052 0.31655 0.99864 0.0
C209 C 0.08342 0.32849 0.99779 0.0
C210 C 0.08297 0.27493 0.90297 0.0
C211 C 0.08329 0.34183 0.04123 0.0
C212 C 0.08156 0.37306 0.07029 0.0
C213 C 0.08377 0.36024 0.03067 0.0
C214 C 0.07877 0.34939 0.13245 0.0
C215 C 0.07874 0.3678 0.1215 0.0
C216 C 0.0811 0.33654 0.09282 0.0
C217 C 0.10029 0.26194 0.10417 0.0
C218 C 0.09888 0.24783 0.18742 0.0
C219 C 0.10043 0.22965 0.10954 0.0
C220 C 0.10119 0.24516 0.07986 0.0
C221 C 0.09843 0.23089 0.16349 0.0
C222 C 0.09987 0.26319 0.15794 0.0
C223 C 0.09728 0.27839 0.07588 0.0
O224 O 0.07039 0.2789 0.93644 0.0
O225 O 0.09872 0.28144 0.91631 0.0
O226 O 0.10927 0.28333 0.04186 0.0
O227 O 0.0807 0.28126 0.06148 0.0
H228 H 0.10051 0.2427 0.92417 0.0
H229 H 0.09753 0.21413 0.87687 0.0
H230 H 0.05929 0.23859 0.77435 0.0
H231 H 0.06292 0.26685 0.8203 0.0
H232 H 0.08151 0.38713 0.06066 0.0
H233 H 0.08533 0.36472 0.99138 0.0
H234 H 0.07663 0.34494 0.17154 0.0
H235 H 0.08066 0.32247 0.10227 0.0
H236 H 0.09707 0.24938 0.22862 0.0
H237 H 0.10043 0.21675 0.09012 0.0
H238 H 0.10156 0.24405 0.03822 0.0
H239 H 0.09909 0.27613 0.1771 0.0
C240 C 0.2821 0.08255 0.86634 0.0
C241 C 0.29842 0.08645 0.89098 0.0
C242 C 0.31523 0.07876 0.81192 0.0
C243 C 0.31477 0.08453 0.86419 0.0
C244 C 0.2986 0.07557 0.78751 0.0
C245 C 0.28244 0.07726 0.81436 0.0
U246 U 0.24586 0.08749 0.97866 0.0
O247 O 0.21837 0.09819 0.97284 0.0
O248 O 0.2226 0.06955 0.98391 0.0
C249 C 0.21096 0.08265 0.98298 0.0
C250 C 0.26442 0.08306 0.89281 0.0
C251 C 0.19738 0.08228 0.0247 0.0
C252 C 0.16691 0.07542 0.05154 0.0
C253 C 0.17959 0.07792 1.01251 0.0
C254 C 0.18934 0.08247 0.11597 0.0
C255 C 0.17167 0.07744 0.1037 0.0
C256 C 0.20213 0.08473 0.07683 0.0
C257 C 0.27806 0.09779 0.09431 0.0
C258 C 0.2923 0.10421 0.17633 0.0
C259 C 0.30912 0.09002 0.10736 0.0
C260 C 0.29415 0.09085 0.07521 0.0
C261 C 0.30809 0.09607 0.15887 0.0
C262 C 0.27739 0.10503 0.14423 0.0
C263 C 0.26116 0.09506 0.06711 0.0
O264 O 0.26071 0.07004 0.92472 0.0
O265 O 0.25795 0.09861 0.90795 0.0
O266 O 0.25599 0.10748 0.03486 0.0
O267 O 0.25799 0.07866 0.05071 0.0
H268 H 0.29856 0.09064 0.93107 0.0
H269 H 0.32701 0.08712 0.88523 0.0
H270 H 0.29785 0.07174 0.74728 0.0
H271 H 0.27005 0.07425 0.79427 0.0
H272 H 0.15338 0.07165 0.04099 0.0
H273 H 0.17561 0.07594 0.97269 0.0
H274 H 0.1934 0.08399 0.15588 0.0
H275 H 0.21581 0.08794 0.0873 0.0
H276 H 0.29121 0.1092 0.21554 0.0
H277 H 0.32109 0.08356 0.09295 0.0
H278 H 0.29481 0.08513 0.03671 0.0
H279 H 0.265 0.11038 0.15949 0.0
C280 C 0.44937 0.27955 0.85683 0.0
C281 C 0.44604 0.29553 0.88422 0.0
C282 C 0.45446 0.31332 0.80905 0.0
C283 C 0.4485 0.31221 0.86057 0.0
C284 C 0.45729 0.29717 0.78169 0.0
C285 C 0.45476 0.28056 0.80527 0.0
U286 U 0.44186 0.2506 0.97598 0.0
O287 O 0.43119 0.22319 0.98677 0.0
O288 O 0.45921 0.22926 1.00526 0.0
C289 C 0.44651 0.21707 1.00424 0.0
C290 C 0.44879 0.26185 0.88224 0.0
C291 C 0.44621 0.20415 0.04734 0.0
C292 C 0.44873 0.17302 0.07403 0.0
C293 C 0.44658 0.18579 0.03536 0.0
C294 C 0.4494 0.19668 0.13825 0.0
C295 C 0.45048 0.1782 0.12619 0.0
C296 C 0.4474 0.2095 0.09928 0.0
C297 C 0.42787 0.28389 0.08996 0.0
C298 C 0.43673 0.2884 0.17878 0.0
C299 C 0.42186 0.31221 0.1327 0.0
C300 C 0.42024 0.301 0.08973 0.0
C301 C 0.43112 0.30633 0.17628 0.0
C302 C 0.4352 0.27721 0.13555 0.0
C303 C 0.43216 0.27594 0.03989 0.0
O304 O 0.4611 0.25941 0.91754 0.0
O305 O 0.43299 0.25583 0.89619 0.0
O306 O 0.42039 0.26585 0.01548 0.0
O307 O 0.44892 0.27148 0.03183 0.0
H308 H 0.44188 0.29511 0.92417 0.0
H309 H 0.44583 0.32424 0.88288 0.0
H310 H 0.4621 0.29729 0.7424 0.0
H311 H 0.45754 0.26844 0.78349 0.0
H312 H 0.44975 0.1591 0.06248 0.0
H313 H 0.44586 0.18131 0.99555 0.0
H314 H 0.45031 0.20132 0.17782 0.0
H315 H 0.44718 0.22358 0.10961 0.0
H316 H 0.44384 0.28364 0.21234 0.0
H317 H 0.41767 0.32603 0.12967 0.0
H318 H 0.41475 0.30641 0.05449 0.0
H319 H 0.44123 0.26404 0.13623 0.0
Gd320 Gd 1.00235 0.02925 0.5331 0.0
Gd321 Gd 0.03515 1.01084 0.61488 0.0
C322 C 0.05065 0.03997 0.763 0.0
C323 C 0.08302 0.0377 0.76078 0.0
C324 C 0.06526 0.02738 0.6875 0.0
C325 C 0.04967 0.0317 0.71389 0.0
C326 C 0.08209 0.03044 0.71075 0.0
C327 C 0.06734 0.04253 0.78674 0.0
C328 C 0.03488 0.04601 0.7861 0.0
C329 C 0.01875 0.04435 0.75956 0.0
N330 N 0.03373 0.02941 0.68939 0.0
C331 C 0.0184 0.03602 0.71114 0.0
H332 H 1.00583 0.03542 0.69124 0.0
C333 C 0.07909 0.01591 0.61228 0.0
N334 N 0.06395 0.02074 0.63866 0.0
C335 C 0.09601 0.01878 0.63368 0.0
C336 C 0.09754 0.02608 0.68313 0.0
H337 H 0.07824 1.00895 0.57562 0.0
H338 H 0.06831 0.04859 0.82476 0.0
H339 H 0.03167 1.00749 0.44948 0.0
H340 H 0.03509 0.0525 0.82364 0.0
H341 H 1.00654 0.04951 0.77631 0.0
H342 H 0.09582 0.03995 0.7794 0.0
H343 H 0.95959 0.03247 0.5727 0.0
H344 H 1.00072 0.98319 0.3309 0.0
H345 H 0.03002 0.99132 0.3683 0.0
H346 H 0.94047 0.99161 0.38561 0.0
H347 H 0.10787 0.01489 0.61253 0.0
H348 H 0.11068 0.02811 0.69984 0.0
H349 H 0.96752 0.98349 0.33752 0.0
H350 H 0.92977 0.02363 0.54266 0.0
N351 N 1.0034 1.00973 0.45992 0.0
C352 C 1.00131 0.99047 0.3672 0.0
C353 C 0.01784 0.99515 0.38794 0.0
C354 C 0.98574 0.99499 0.39388 0.0
C355 C 0.9872 1.00443 0.44128 0.0
C356 C 0.01866 1.00481 0.43418 0.0
N357 N 0.97357 0.01771 0.51455 0.0
C358 C 0.97191 1.00855 0.46923 0.0
C359 C 0.94149 0.01897 0.52214 0.0
C360 C 0.93962 1.0091 0.4767 0.0
C361 C 0.95854 0.02352 0.53989 0.0
C362 C 0.95486 1.00397 0.44926 0.0
H363 H 0.92635 1.00596 0.46233 0.0
O364 O 0.98363 0.0512 0.53002 0.0
O365 O 0.02601 0.03711 0.58268 0.0
O366 O 1.00849 1.005 0.65298 0.0
O367 O 0.98682 0.01873 0.60284 0.0
O368 O 1.00327 0.05196 0.59148 0.0
O369 O 1.00004 0.04479 0.4631 0.0
O370 O 0.05307 0.988 0.61684 0.0
O371 O 1.01173 1.00313 0.56475 0.0
O372 O 0.02934 0.03521 0.49531 0.0
O373 O 0.05092 0.02179 0.54718 0.0
O374 O 0.03535 0.98955 0.55252 0.0
O375 O 0.03645 0.99468 0.68321 0.0
C376 C 0.01986 0.05111 0.60472 0.0
C377 C 0.95345 0.99499 0.40169 0.0
C378 C 0.96884 0.99045 0.3742 0.0
C379 C 0.98754 0.05501 0.48255 0.0
C380 C 0.9869 0.07393 0.46856 0.0
C381 C 0.97043 0.08277 0.47327 0.0
C382 C 1.00168 0.08296 0.44786 0.0
C383 C 0.9997 0.10064 0.43134 0.0
C384 C 0.9686 0.1004 0.45723 0.0
C385 C 0.98315 0.1093 0.43607 0.0
C386 C 0.99165 1.0095 0.644 0.0
C387 C 0.01867 0.99007 0.54026 0.0
C388 C 0.04859 0.98405 0.66387 0.0
C389 C 0.04809 0.96517 0.67803 0.0
C390 C 0.06419 0.95555 0.67681 0.0
C391 C 0.03264 0.95725 0.69838 0.0
C392 C 0.0336 0.94007 0.71908 0.0
C393 C 0.065 0.93832 0.69666 0.0
C394 C 0.04981 0.93066 0.71832 0.0
C395 C 0.04615 0.03067 0.5055 0.0
H396 H 0.95887 0.07592 0.48874 0.0
H397 H 0.01445 0.07626 0.44369 0.0
H398 H 0.95583 0.1071 0.46067 0.0
H399 H 0.98153 0.12294 0.42319 0.0
H400 H 0.07627 0.96159 0.66181 0.0
H401 H 0.02016 0.96457 0.69985 0.0
H402 H 0.07749 0.93104 0.69615 0.0
H403 H 0.05066 0.91736 0.73434 0.0
Gd404 Gd 0.50847 1.00352 0.53242 0.0
Gd405 Gd 0.52697 0.03686 0.61398 0.0
C406 C 0.49636 0.0516 0.75986 0.0
C407 C 0.49743 0.08404 0.75782 0.0
C408 C 0.50901 0.0665 0.68566 0.0
C409 C 0.50495 0.0508 0.71146 0.0
C410 C 0.50525 0.08327 0.70874 0.0
C411 C 0.49294 0.06825 0.78321 0.0
C412 C 0.49106 0.03566 0.78301 0.0
C413 C 0.49391 0.01946 0.75742 0.0
N414 N 0.50835 0.03483 0.68781 0.0
C415 C 0.50258 0.01927 0.70983 0.0
H416 H 0.50401 1.00658 0.69065 0.0
C417 C 0.52129 0.08065 0.61277 0.0
N418 N 0.51631 0.06539 0.63777 0.0
C419 C 0.51769 0.09751 0.63394 0.0
C420 C 0.50958 0.09884 0.68209 0.0
H421 H 0.52899 0.07991 0.57765 0.0
H422 H 0.48659 0.06908 0.82065 0.0
H423 H 0.52918 0.03377 0.44978 0.0
H424 H 0.48437 0.03574 0.82 0.0
H425 H 0.48941 1.00706 0.77431 0.0
H426 H 0.49463 0.0968 0.77627 0.0
H427 H 0.5079 0.96065 0.57117 0.0
H428 H 0.54562 1.00392 0.31827 0.0
H429 H 0.54047 0.03291 0.36217 0.0
H430 H 0.54099 0.94318 0.3717 0.0
H431 H 0.52168 0.10946 0.61376 0.0
H432 H 0.50702 0.11194 0.69872 0.0
H433 H 0.54606 0.9706 0.32259 0.0
H434 H 0.51634 0.93115 0.53745 0.0
N435 N 0.5257 1.00546 0.45601 0.0
C436 C 0.54005 1.00418 0.35678 0.0
C437 C 0.53708 0.02056 0.38129 0.0
C438 C 0.53666 0.98833 0.38322 0.0
C439 C 0.52953 0.98937 0.43364 0.0
C440 C 0.53009 0.02097 0.43116 0.0
N441 N 0.52006 0.97518 0.51009 0.0
C442 C 0.52706 0.97388 0.46188 0.0
C443 C 0.51983 0.94306 0.51627 0.0
C444 C 0.52773 0.94158 0.46791 0.0
C445 C 0.51563 0.95995 0.53616 0.0
C446 C 0.53113 0.95703 0.43965 0.0
H447 H 0.53058 0.92843 0.45201 0.0
O448 O 0.48643 0.98456 0.53157 0.0
O449 O 0.50066 0.02716 0.58192 0.0
O450 O 0.53364 1.01043 0.65191 0.0
O451 O 0.52066 0.98832 0.60019 0.0
O452 O 0.4868 1.00382 0.59273 0.0
O453 O 0.49227 1.00051 0.46379 0.0
O454 O 0.54933 0.05544 0.61726 0.0
O455 O 0.53459 1.01352 0.56338 0.0
O456 O 0.50167 0.03031 0.49596 0.0
O457 O 0.51516 0.0525 0.54648 0.0
O458 O 0.54908 0.03632 0.55398 0.0
O459 O 0.54253 0.03924 0.68399 0.0
C460 C 0.48712 0.02061 0.60461 0.0
C461 C 0.53792 0.95601 0.38935 0.0
C462 C 0.54067 0.97161 0.36123 0.0
C463 C 0.48221 0.98814 0.48403 0.0
C464 C 0.46326 0.98783 0.47027 0.0
C465 C 0.45445 0.97125 0.46949 0.0
C466 C 0.45418 1.00328 0.45466 0.0
C467 C 0.43629 1.00202 0.43879 0.0
C468 C 0.43669 0.97001 0.45351 0.0
C469 C 0.42761 0.98532 0.4383 0.0
C470 C 0.52978 0.99343 0.64179 0.0
C471 C 0.54797 0.01981 0.53938 0.0
C472 C 0.55264 0.05188 0.66542 0.0
C473 C 0.57107 0.05318 0.68354 0.0
C474 C 0.57827 0.07032 0.69136 0.0
C475 C 0.58113 0.03802 0.69602 0.0
C476 C 0.59858 0.04009 0.71513 0.0
C477 C 0.59544 0.07241 0.71135 0.0
C478 C 0.60559 0.0574 0.72312 0.0
C479 C 0.50585 0.04735 0.50523 0.0
H480 H 0.46143 0.95918 0.48053 0.0
H481 H 0.46095 0.01613 0.45463 0.0
H482 H 0.43002 0.95715 0.4524 0.0
H483 H 0.41389 0.98411 0.42518 0.0
H484 H 0.57047 0.08213 0.6827 0.0
H485 H 0.57547 0.02476 0.69082 0.0
H486 H 0.60087 0.08568 0.71797 0.0
H487 H 0.61885 0.05931 0.73915 0.0
Gd488 Gd 0.50132 0.53018 0.61119 0.0
Gd489 Gd 0.53386 0.50924 0.53246 0.0
C490 C 0.58847 0.49196 0.59081 0.0
C491 C 0.60825 0.50543 0.52796 0.0
C492 C 0.57621 0.5109 0.52414 0.0
C493 C 0.57365 0.49995 0.56644 0.0
C494 C 0.59355 0.5136 0.50423 0.0
C495 C 0.60573 0.49471 0.57124 0.0
C496 C 0.58554 0.48142 0.6342 0.0
C497 C 0.56818 0.479 0.65228 0.0
N498 N 0.55677 0.49738 0.58435 0.0
C499 C 0.55388 0.48693 0.62655 0.0
H500 H 0.54063 0.48477 0.64145 0.0
C501 C 0.56364 0.52838 0.45777 0.0
N502 N 0.56178 0.51861 0.50178 0.0
C503 C 0.58054 0.53155 0.43698 0.0
C504 C 0.59558 0.52416 0.46039 0.0
H505 H 0.55195 0.53363 0.43851 0.0
H506 H 0.61722 0.48855 0.58923 0.0
H507 H 0.49107 0.55297 0.50065 0.0
H508 H 0.59658 0.47513 0.65404 0.0
H509 H 0.56577 0.4709 0.68589 0.0
H510 H 0.62164 0.50728 0.51305 0.0
H511 H 0.48585 0.50907 0.71431 0.0
H512 H 0.43481 0.56051 0.49612 0.0
H513 H 0.46479 0.56522 0.45898 0.0
H514 H 0.41382 0.53115 0.64717 0.0
H515 H 0.58193 0.53944 0.40248 0.0
H516 H 0.60867 0.52646 0.44385 0.0
H517 H 0.41599 0.5479 0.56645 0.0
H518 H 0.45699 0.50364 0.75747 0.0
N519 N 0.47667 0.54052 0.56205 0.0
C520 C 0.44641 0.55479 0.51478 0.0
C521 C 0.46329 0.55753 0.49382 0.0
C522 C 0.44471 0.5449 0.55988 0.0
C523 C 0.46025 0.53772 0.58272 0.0
C524 C 0.47831 0.5505 0.51826 0.0
N525 N 0.47415 0.5218 0.64951 0.0
C526 C 0.45897 0.52813 0.62784 0.0
C527 C 0.45732 0.51042 0.72083 0.0
C528 C 0.44153 0.51658 0.69857 0.0
C529 C 0.4736 0.51338 0.69607 0.0
C530 C 0.44222 0.52568 0.6518 0.0
H531 H 0.42894 0.51451 0.71821 0.0
O532 O 0.50261 0.53897 0.6903 0.0
O533 O 0.53083 0.52592 0.60312 0.0
O534 O 0.51878 0.48743 0.57644 0.0
O535 O 0.49493 0.50085 0.61981 0.0
O536 O 0.51958 0.51836 0.67111 0.0
O537 O 0.49975 0.55867 0.62908 0.0
O538 O 0.53585 0.50219 0.45138 0.0
O539 O 0.50449 0.51346 0.54027 0.0
O540 O 0.51419 0.55101 0.55893 0.0
O541 O 0.54114 0.53875 0.53276 0.0
O542 O 0.51566 0.52026 0.47091 0.0
O543 O 0.53861 0.48156 0.51152 0.0
C544 C 0.53465 0.5214 0.64874 0.0
C545 C 0.42677 0.53279 0.62916 0.0
C546 C 0.42801 0.54235 0.58325 0.0
C547 C 0.50169 0.55574 0.67822 0.0
C548 C 0.49431 0.56812 0.71587 0.0
C549 C 0.47932 0.56428 0.74615 0.0
C550 C 0.50453 0.58326 0.72608 0.0
C551 C 0.50024 0.59476 0.76682 0.0
C552 C 0.47478 0.57584 0.7869 0.0
C553 C 0.48531 0.59098 0.79766 0.0
C554 C 0.50436 0.48665 0.60618 0.0
C555 C 0.50071 0.51806 0.49468 0.0
C556 C 0.53904 0.48554 0.46261 0.0
C557 C 0.54198 0.47203 0.42289 0.0
C558 C 0.55145 0.47617 0.37804 0.0
C559 C 0.53428 0.45517 0.42858 0.0
C560 C 0.53502 0.44263 0.38827 0.0
C561 C 0.55309 0.46338 0.33881 0.0
C562 C 0.54478 0.44673 0.34354 0.0
C563 C 0.53021 0.55256 0.53765 0.0
H564 H 0.47149 0.55229 0.73911 0.0
H565 H 0.51656 0.58556 0.70368 0.0
H566 H 0.46332 0.57288 0.81076 0.0
H567 H 0.48184 0.59965 0.82979 0.0
H568 H 0.55745 0.48926 0.37331 0.0
H569 H 0.5268 0.4522 0.46326 0.0
H570 H 0.5603 0.46659 0.30397 0.0
H571 H 0.54527 0.43748 0.31118 0.0
Gd572 Gd 1.00868 0.50404 0.61338 0.0
Gd573 Gd 0.02781 0.53603 0.53172 0.0
C574 C 0.04799 0.58938 0.59522 0.0
C575 C 0.03427 0.61036 0.53641 0.0
C576 C 0.02717 0.57859 0.53002 0.0
C577 C 0.03896 0.57511 0.57017 0.0
C578 C 0.02494 0.59627 0.51236 0.0
C579 C 0.04568 0.60694 0.57789 0.0
C580 C 0.05893 0.58565 0.63747 0.0
C581 C 0.06054 0.56809 0.65427 0.0
N582 N 0.04101 0.55795 0.5862 0.0
C583 C 0.05154 0.55435 0.62805 0.0
H584 H 0.05289 0.54099 0.64255 0.0
C585 C 1.008 0.56759 0.46433 0.0
N586 N 0.01826 0.56474 0.50735 0.0
C587 C 1.00531 0.58483 0.44581 0.0
C588 C 0.01373 0.59926 0.47011 0.0
H589 H 1.00208 0.55643 0.44347 0.0
H590 H 0.05266 0.618 0.59638 0.0
H591 H 0.98267 0.49783 0.50455 0.0
H592 H 0.06601 0.59625 0.65779 0.0
H593 H 0.06878 0.5651 0.68741 0.0
H594 H 0.03277 0.62398 0.52317 0.0
H595 H 0.03294 0.48485 0.70595 0.0
H596 H 0.97118 0.44225 0.49167 0.0
H597 H 0.96669 0.47326 0.46284 0.0
H598 H 1.00546 0.41604 0.62631 0.0
H599 H 0.99705 0.58691 0.41211 0.0
H600 H 1.01182 0.61261 0.45523 0.0
H601 H 0.98572 0.42112 0.55228 0.0
H602 H 0.03837 0.45474 0.73962 0.0
N603 N 0.99622 0.48143 0.55928 0.0
C604 C 0.97836 0.45308 0.51063 0.0
C605 C 0.97568 0.47056 0.49453 0.0
C606 C 0.99016 0.44977 0.55118 0.0
C607 C 0.99919 0.46435 0.5748 0.0
C608 C 0.98472 0.4846 0.51924 0.0
N609 N 0.01856 0.47567 0.63965 0.0
C610 C 1.01063 0.46141 0.61607 0.0
C611 C 0.03079 0.45635 0.7044 0.0
C612 C 0.02333 0.44152 0.67951 0.0
C613 C 0.02791 0.47338 0.6846 0.0
C614 C 1.01288 0.44393 0.63538 0.0
H615 H 0.02523 0.42835 0.69563 0.0
O616 O 1.00457 0.50203 0.69567 0.0
O617 O 1.01101 0.53381 0.60305 0.0
O618 O 0.05147 0.52153 0.57032 0.0
O619 O 0.03869 0.49875 0.6185 0.0
O620 O 0.0192 0.52381 0.67211 0.0
O621 O 0.98259 0.4962 0.64233 0.0
O622 O 0.03119 0.5386 0.44932 0.0
O623 O 0.02517 0.50656 0.54244 0.0
O624 O 0.98516 0.51795 0.57275 0.0
O625 O 0.99789 0.54133 0.52714 0.0
O626 O 0.01778 0.5161 0.47195 0.0
O627 O 0.05353 0.54416 0.50149 0.0
C628 C 0.01543 0.53842 0.6486 0.0
C629 C 1.00399 0.42949 0.6117 0.0
C630 C 0.99271 0.43239 0.56964 0.0
C631 C 0.98839 0.49596 0.68985 0.0
C632 C 0.97593 0.49787 0.73249 0.0
C633 C 0.97809 0.48646 0.77459 0.0
C634 C 0.96199 0.51031 0.73194 0.0
C635 C 0.95001 0.51096 0.77329 0.0
C636 C 0.96623 0.48724 0.81583 0.0
C637 C 0.95215 0.49938 0.81512 0.0
C638 C 0.05291 0.50764 0.6019 0.0
C639 C 0.02057 0.50171 0.49747 0.0
C640 C 0.04757 0.54431 0.4541 0.0
C641 C 0.05986 0.54055 0.41197 0.0
C642 C 0.05726 0.54964 0.36553 0.0
C643 C 0.07457 0.52923 0.4179 0.0
C644 C 0.08694 0.52751 0.37777 0.0
C645 C 0.06943 0.54767 0.32536 0.0
C646 C 0.08432 0.53675 0.3315 0.0
C647 C 0.98376 0.53196 0.54177 0.0
H648 H 0.98891 0.47683 0.77532 0.0
H649 H 0.96031 0.51916 0.69944 0.0
H650 H 0.9679 0.47837 0.84816 0.0
H651 H 0.94296 0.49981 0.84734 0.0
H652 H 0.04593 0.55849 0.3607 0.0
H653 H 0.07663 0.52219 0.45377 0.0
H654 H 0.06743 0.55476 0.28968 0.0
H655 H 0.09373 0.53536 0.30002 0.0
H656 H 0.15499 0.04565 0.12058 0.0
H657 H 0.13407 0.03803 0.1892 0.0
H658 H 0.13674 0.09238 0.24689 0.0
H659 H 0.1587 0.0996 0.17995 0.0
H660 H 0.13741 0.07245 0.32324 0.0
H661 H 0.09733 0.07126 0.17602 0.0
H662 H 0.08664 0.06172 0.0899 0.0
H663 H 0.08719 1.00684 0.13714 0.0
H664 H 0.09793 0.01605 0.22339 0.0
H665 H 0.05539 0.06422 0.47589 0.0
H666 H 0.07771 0.0726 0.41182 0.0
H667 H 0.09003 0.01706 0.38453 0.0
H668 H 0.06817 1.00862 0.45082 0.0
H669 H 0.08186 0.03759 0.29381 0.0
H670 H 0.11579 0.04131 0.44899 0.0
H671 H 0.12572 0.05179 0.53441 0.0
H672 H 0.13809 0.1034 0.47287 0.0
H673 H 0.1275 0.09359 0.38747 0.0
C674 C 0.15104 0.05597 0.14788 0.0
C675 C 0.15846 0.07321 0.14489 0.0
C676 C 0.13887 0.05166 0.18693 0.0
C677 C 0.1333 0.06466 0.22313 0.0
C678 C 0.14068 0.08201 0.21975 0.0
C679 C 0.15323 0.08618 0.18143 0.0
C680 C 0.12062 0.06 0.26598 0.0
C681 C 0.125 0.06525 0.31667 0.0
C682 C 0.10475 0.04986 0.25802 0.0
C683 C 0.09857 0.04434 0.20594 0.0
C684 C 0.09528 0.05716 0.16787 0.0
C685 C 0.08918 0.05181 0.11909 0.0
C686 C 0.08628 0.03368 0.10802 0.0
C687 C 0.08945 0.02087 0.14573 0.0
C688 C 0.0955 0.02615 0.19458 0.0
C689 C 0.06305 0.05384 0.45661 0.0
C690 C 0.06017 0.0358 0.46834 0.0
C691 C 0.07588 0.05866 0.41994 0.0
C692 C 0.08574 0.04557 0.39315 0.0
C693 C 0.08273 0.02747 0.4048 0.0
C694 C 0.07029 0.02265 0.44268 0.0
C695 C 0.09838 0.05057 0.35096 0.0
C696 C 0.09406 0.04517 0.30043 0.0
C697 C 0.11419 0.06082 0.35929 0.0
C698 C 0.12022 0.06679 0.41155 0.0
C699 C 0.12009 0.05505 0.45364 0.0
C700 C 0.126 0.06086 0.50219 0.0
C701 C 0.13247 0.07826 0.50911 0.0
C702 C 0.13309 0.0899 0.46749 0.0
C703 C 0.12713 0.0842 0.41895 0.0
H704 H 0.13711 0.0827 0.54668 0.0
H705 H 0.08155 0.02957 0.07026 0.0
H706 H 0.4391 0.14286 0.13119 0.0
H707 H 0.44769 0.12017 0.19334 0.0
H708 H 0.47848 0.15958 0.27787 0.0
H709 H 0.47104 0.18199 0.21408 0.0
H710 H 0.49727 0.13133 0.26945 0.0
H711 H 0.43417 0.14015 0.31214 0.0
H712 H 0.40147 0.13913 0.29954 0.0
H713 H 0.40422 0.0829 0.26486 0.0
H714 H 0.43691 0.08362 0.27646 0.0
H715 H 0.51429 0.08336 0.49986 0.0
H716 H 0.50451 0.10485 0.43544 0.0
H717 H 0.4744 0.06328 0.35764 0.0
H718 H 0.4837 0.04193 0.42245 0.0
H719 H 0.4552 0.09123 0.35988 0.0
H720 H 0.51522 0.08004 0.31283 0.0
H721 H 0.54796 0.07767 0.32118 0.0
H722 H 0.55155 0.134 0.35402 0.0
H723 H 0.51877 0.13665 0.34702 0.0
C724 C 0.4478 0.14677 0.16274 0.0
C725 C 0.45433 0.16449 0.167 0.0
C726 C 0.4525 0.13373 0.19896 0.0
C727 C 0.46358 0.13806 0.24119 0.0
C728 C 0.46985 0.15577 0.24597 0.0
C729 C 0.46537 0.16873 0.2095 0.0
C730 C 0.46956 0.12416 0.27897 0.0
C731 C 0.48798 0.12279 0.28979 0.0
C732 C 0.45767 0.11214 0.30372 0.0
C733 C 0.43807 0.11203 0.29439 0.0
C734 C 0.42784 0.12763 0.30108 0.0
C735 C 0.40928 0.12708 0.29433 0.0
C736 C 0.40077 0.11097 0.28133 0.0
C737 C 0.41081 0.09538 0.27487 0.0
C738 C 0.42935 0.09586 0.28143 0.0
C739 C 0.50548 0.07879 0.46941 0.0
C740 C 0.49976 0.06084 0.46693 0.0
C741 C 0.50003 0.0911 0.43206 0.0
C742 C 0.48883 0.08575 0.39098 0.0
C743 C 0.48302 0.06786 0.38871 0.0
C744 C 0.48842 0.0556 0.426 0.0
C745 C 0.48278 0.09876 0.35102 0.0
C746 C 0.46445 0.09986 0.33961 0.0
C747 C 0.49477 0.11012 0.32455 0.0
C748 C 0.51447 0.1085 0.33009 0.0
C749 C 0.52295 0.09189 0.32253 0.0
C750 C 0.54153 0.0905 0.3269 0.0
C751 C 0.55182 0.10566 0.33829 0.0
C752 C 0.54355 0.12225 0.34536 0.0
C753 C 0.52497 0.1237 0.34125 0.0
H754 H 0.56621 0.10457 0.34147 0.0
H755 H 0.3864 0.11055 0.27638 0.0
H756 H 0.36554 0.4448 0.23734 0.0
H757 H 0.38864 0.4529 0.30054 0.0
H758 H 0.41639 0.48327 0.18521 0.0
H759 H 0.39351 0.4751 0.12189 0.0
H760 H 0.44034 0.46726 0.24376 0.0
H761 H 0.38993 0.50481 0.27819 0.0
H762 H 0.35737 0.5083 0.28912 0.0
H763 H 0.35901 0.47516 0.42319 0.0
H764 H 0.39162 0.47135 0.41266 0.0
H765 H 0.49287 0.526 0.39542 0.0
H766 H 0.46952 0.51373 0.33954 0.0
H767 H 0.44822 0.48396 0.4668 0.0
H768 H 0.47178 0.49649 0.5236 0.0
H769 H 0.42085 0.49696 0.40609 0.0
H770 H 0.47515 0.46444 0.37198 0.0
H771 H 0.50686 0.46101 0.34942 0.0
H772 H 0.49767 0.4858 0.20365 0.0
H773 H 0.46593 0.49013 0.22599 0.0
C774 C 0.37651 0.45325 0.22531 0.0
C775 C 0.37738 0.45936 0.17415 0.0
C776 C 0.38981 0.45789 0.26168 0.0
C777 C 0.40429 0.46906 0.24844 0.0
C778 C 0.40549 0.47468 0.19698 0.0
C779 C 0.39228 0.46994 0.16054 0.0
C780 C 0.41764 0.47565 0.28836 0.0
C781 C 0.43605 0.47389 0.279 0.0
C782 C 0.41229 0.48415 0.33499 0.0
C783 C 0.39316 0.48784 0.34476 0.0
C784 C 0.38335 0.49842 0.31031 0.0
C785 C 0.36489 0.50039 0.31626 0.0
C786 C 0.35613 0.49197 0.35686 0.0
C787 C 0.36584 0.48171 0.39186 0.0
C788 C 0.38432 0.47969 0.38604 0.0
C789 C 0.48312 0.517 0.41196 0.0
C790 C 0.4844 0.51226 0.46426 0.0
C791 C 0.46976 0.50982 0.3796 0.0
C792 C 0.45714 0.49746 0.398 0.0
C793 C 0.45778 0.49331 0.45101 0.0
C794 C 0.47127 0.50056 0.4837 0.0
C795 C 0.44374 0.48881 0.3613 0.0
C796 C 0.42524 0.49022 0.37117 0.0
C797 C 0.44906 0.48032 0.31433 0.0
C798 C 0.46816 0.47776 0.30093 0.0
C799 C 0.47989 0.46933 0.33531 0.0
C800 C 0.49789 0.46718 0.32251 0.0
C801 C 0.50431 0.47306 0.27513 0.0
C802 C 0.4927 0.48123 0.24039 0.0
C803 C 0.47471 0.4836 0.25316 0.0
H804 H 0.51826 0.4713 0.26539 0.0
H805 H 0.34181 0.49337 0.36116 0.0
H806 H 0.04593 0.37773 0.15683 0.0
H807 H 0.03855 0.40048 0.22207 0.0
H808 H 0.09472 0.41155 0.24401 0.0
H809 H 0.10202 0.38865 0.17855 0.0
H810 H 0.08001 0.41298 0.33326 0.0
H811 H 0.0652 0.44177 0.17674 0.0
H812 H 0.05146 0.446 0.0913 0.0
H813 H 0.99922 0.43937 0.15688 0.0
H814 H 1.01267 0.43509 0.24275 0.0
H815 H 0.05522 0.48917 0.49534 0.0
H816 H 0.06814 0.46774 0.43408 0.0
H817 H 0.01536 0.45661 0.37362 0.0
H818 H 1.00324 0.47993 0.42891 0.0
H819 H 0.03282 0.45764 0.29896 0.0
H820 H 0.05097 0.42605 0.4598 0.0
H821 H 0.06776 0.42329 0.54143 0.0
H822 H 0.11645 0.43727 0.46393 0.0
H823 H 0.09994 0.44009 0.38202 0.0
C824 C 0.05668 0.38506 0.1756 0.0
C825 C 0.07454 0.38144 0.16243 0.0
C826 C 0.05247 0.39823 0.21272 0.0
C827 C 0.06598 0.40828 0.23772 0.0
C828 C 0.08392 0.40432 0.22526 0.0
C829 C 0.08813 0.39119 0.18778 0.0
C830 C 0.06129 0.42261 0.27709 0.0
C831 C 0.06968 0.42277 0.32565 0.0
C832 C 0.04807 0.43576 0.26775 0.0
C833 C 0.03995 0.438 0.21607 0.0
C834 C 0.0508 0.44111 0.17288 0.0
C835 C 0.04305 0.44356 0.1244 0.0
C836 C 0.02448 0.44292 0.11864 0.0
C837 C 1.0136 0.43986 0.16139 0.0
C838 C 0.02128 0.43748 0.20999 0.0
C839 C 0.04635 0.48178 0.46979 0.0
C840 C 0.02793 0.48574 0.4691 0.0
C841 C 0.05378 0.46931 0.43447 0.0
C842 C 0.04291 0.45983 0.3987 0.0
C843 C 0.02439 0.46348 0.39986 0.0
C844 C 0.0172 0.47657 0.433 0.0
C845 C 0.05036 0.44719 0.3575 0.0
C846 C 0.0428 0.44761 0.30761 0.0
C847 C 0.06453 0.43478 0.36558 0.0
C848 C 0.0742 0.43349 0.41511 0.0
C849 C 0.06523 0.42865 0.46037 0.0
C850 C 0.07471 0.42703 0.50661 0.0
C851 C 0.09315 0.43015 0.50791 0.0
C852 C 0.10217 0.43488 0.46295 0.0
C853 C 0.09277 0.43648 0.41664 0.0
H854 H 0.10046 0.42886 0.54371 0.0
H855 H 0.01851 0.44482 0.08108 0.0
H856 H 0.85897 0.98538 0.95507 0.0
H857 H 0.88079 0.99094 0.88737 0.0
H858 H 0.91979 0.95944 0.96822 0.0
H859 H 0.89789 0.95346 0.03589 0.0
H860 H 0.93511 0.98991 0.93351 0.0
H861 H 0.90239 0.94218 0.85753 0.0
H862 H 0.87517 0.9253 0.83384 0.0
H863 H 0.85751 0.96896 0.74041 0.0
H864 H 0.88466 0.98614 0.76375 0.0
H865 H 0.99611 0.9866 0.72453 0.0
H866 H 0.97455 0.97786 0.78978 0.0
H867 H 0.93456 1.01098 0.71882 0.0
H868 H 0.95609 0.01966 0.65264 0.0
H869 H 0.92053 0.9784 0.74937 0.0
H870 H 0.95694 0.02528 0.82951 0.0
H871 H 0.98623 0.03839 0.85259 0.0
H872 H 0.99931 0.99148 0.93885 0.0
H873 H 0.97012 0.97806 0.91599 0.0
C874 C 0.87205 0.97933 0.95835 0.0
C875 C 0.87649 0.96893 1.00152 0.0
C876 C 0.88462 0.98263 0.91947 0.0
C877 C 0.90204 0.97561 0.92229 0.0
C878 C 0.90654 0.96516 0.9651 0.0
C879 C 0.89394 0.96178 1.00398 0.0
C880 C 0.91541 0.97932 0.8806 0.0
C881 C 0.93196 0.9872 0.89336 0.0
C882 C 0.91154 0.97581 0.82798 0.0
C883 C 0.89545 0.96547 0.81261 0.0
C884 C 0.89266 0.94819 0.83203 0.0
C885 C 0.87727 0.93857 0.81864 0.0
C886 C 0.86459 0.94607 0.78573 0.0
C887 C 0.86735 0.96317 0.76588 0.0
C888 C 0.88276 0.97284 0.77903 0.0
C889 C 0.98273 0.99203 0.72234 0.0
C890 C 0.97796 1.00387 0.68271 0.0
C891 C 0.97037 0.98704 0.76009 0.0
C892 C 0.9529 0.99391 0.75997 0.0
C893 C 0.94793 1.00546 0.71996 0.0
C894 C 0.96031 1.01042 0.6819 0.0
C895 C 0.94005 0.98934 0.80218 0.0
C896 C 0.92363 0.98121 0.78951 0.0
C897 C 0.94427 0.99221 0.85498 0.0
C898 C 0.96139 1.00066 0.87097 0.0
C899 C 0.96606 0.01779 0.85348 0.0
C900 C 0.98265 0.02526 0.86644 0.0
C901 C 0.99464 0.01576 0.89709 0.0
C902 C 0.99 0.99883 0.91516 0.0
C903 C 0.97342 0.99131 0.90236 0.0
H904 H 1.00751 0.02153 0.90685 0.0
H905 H 0.85264 0.93863 0.77555 0.0
H906 H 0.59331 0.8993 0.02227 0.0
H907 H 0.58698 0.92084 0.95431 0.0
H908 H 0.54745 0.88486 0.88978 0.0
H909 H 0.55398 0.8632 0.95685 0.0
H910 H 0.56533 0.89834 0.81558 0.0
H911 H 0.53862 0.92451 0.96955 0.0
H912 H 0.53822 0.93757 0.05727 0.0
H913 H 0.57555 0.97805 1.01109 0.0
H914 H 0.57643 0.96505 0.92342 0.0
H915 H 0.51747 0.95897 0.65553 0.0
H916 H 0.5271 0.93741 0.71996 0.0
H917 H 0.56581 0.97548 0.77831 0.0
H918 H 0.55603 0.99713 0.7146 0.0
H919 H 0.55002 0.96147 0.8551 0.0
H920 H 0.57581 0.93775 0.70244 0.0
H921 H 0.57804 0.92542 0.61427 0.0
H922 H 0.54471 0.88108 0.65625 0.0
H923 H 0.54198 0.89333 0.74444 0.0
C924 C 0.58323 0.89599 0.99367 0.0
C925 C 0.57413 0.87947 0.9953 0.0
C926 C 0.57955 0.90839 0.95482 0.0
C927 C 0.56644 0.90474 0.91712 0.0
C928 C 0.5576 0.88812 0.91824 0.0
C929 C 0.56141 0.87566 0.95666 0.0
C930 C 0.56197 0.91797 0.87603 0.0
C931 C 0.56171 0.91208 0.82437 0.0
C932 C 0.55799 0.93618 0.88688 0.0
C933 C 0.55775 0.94365 0.94007 0.0
C934 C 0.5469 0.93606 0.97826 0.0
C935 C 0.54656 0.94348 0.02796 0.0
C936 C 0.55689 0.95859 0.03979 0.0
C937 C 0.56759 0.96632 1.00196 0.0
C938 C 0.56803 0.95891 0.95229 0.0
C939 C 0.52822 0.96267 0.6814 0.0
C940 C 0.53606 0.97978 0.67923 0.0
C941 C 0.53373 0.95029 0.71849 0.0
C942 C 0.54737 0.95464 0.75398 0.0
C943 C 0.55525 0.97171 0.75164 0.0
C944 C 0.54965 0.98411 0.71493 0.0
C945 C 0.55304 0.94174 0.79471 0.0
C946 C 0.55359 0.94771 0.84623 0.0
C947 C 0.55747 0.92366 0.78365 0.0
C948 C 0.55859 0.91657 0.73007 0.0
C949 C 0.56879 0.92548 0.69278 0.0
C950 C 0.57016 0.91848 0.64277 0.0
C951 C 0.56151 0.90249 0.62964 0.0
C952 C 0.5514 0.89349 0.66645 0.0
C953 C 0.54992 0.90047 0.71645 0.0
H954 H 0.56266 0.89705 0.59097 0.0
H955 H 0.55656 0.96435 0.07822 0.0
H956 H 0.67719 0.56526 0.91977 0.0
H957 H 0.65509 0.55808 0.85303 0.0
H958 H 0.6129 0.57672 0.9526 0.0
H959 H 0.63482 0.58473 0.01849 0.0
H960 H 0.60468 0.54414 0.91206 0.0
H961 H 0.62044 0.60099 0.84639 0.0
H962 H 0.64201 0.62458 0.82334 0.0
H963 H 0.66573 0.58951 0.71061 0.0
H964 H 0.64422 0.56569 0.73308 0.0
H965 H 0.53212 0.5363 0.74508 0.0
H966 H 0.55503 0.54952 0.79907 0.0
H967 H 0.59462 0.53819 0.68294 0.0
H968 H 0.57072 0.52819 0.62428 0.0
H969 H 0.60558 0.5659 0.73214 0.0
H970 H 0.58311 0.50919 0.8057 0.0
H971 H 0.5583 0.49031 0.8368 0.0
H972 H 0.5434 0.53135 0.94548 0.0
H973 H 0.56806 0.55041 0.91507 0.0
C974 C 0.66329 0.56824 0.92743 0.0
C975 C 0.65803 0.57541 0.97565 0.0
C976 C 0.65057 0.564 0.88899 0.0
C977 C 0.63218 0.56667 0.89754 0.0
C978 C 0.62692 0.57426 0.94491 0.0
C979 C 0.6396 0.57873 0.983 0.0
C980 C 0.61838 0.56093 0.85823 0.0
C981 C 0.60489 0.54894 0.87277 0.0
C982 C 0.61838 0.56718 0.80691 0.0
C983 C 0.63081 0.58158 0.79146 0.0
C984 C 0.63025 0.59833 0.81661 0.0
C985 C 0.64245 0.61174 0.80368 0.0
C986 C 0.65525 0.60854 0.76557 0.0
C987 C 0.65578 0.59197 0.74006 0.0
C988 C 0.64354 0.57853 0.75272 0.0
C989 C 0.54563 0.53656 0.73032 0.0
C990 C 0.54951 0.52984 0.68056 0.0
C991 C 0.55897 0.54395 0.76218 0.0
C992 C 0.57709 0.54365 0.74762 0.0
C993 C 0.58096 0.53801 0.69672 0.0
C994 C 0.56727 0.53173 0.66324 0.0
C995 C 0.59168 0.54893 0.78578 0.0
C996 C 0.60549 0.56076 0.77104 0.0
C997 C 0.59153 0.54312 0.83794 0.0
C998 C 0.57741 0.53119 0.85807 0.0
C999 C 0.57459 0.5141 0.83643 0.0
C1000 C 0.56054 0.5034 0.85388 0.0
C1001 C 0.54929 0.50963 0.89308 0.0
C1002 C 0.55214 0.52652 0.91522 0.0
C1003 C 0.5662 0.53725 0.89805 0.0
H1004 H 0.53835 0.50137 0.90631 0.0
H1005 H 0.66476 0.61889 0.7558 0.0
H1006 H 0.94912 0.63705 0.02514 0.0
H1007 H 0.95496 0.6147 0.9578 0.0
H1008 H 0.98821 0.65257 0.87813 0.0
H1009 H 0.98227 0.67499 0.94489 0.0
H1010 H 0.96942 0.63524 0.81025 0.0
H1011 H 1.0033 0.61496 0.9613 0.0
H1012 H 1.0064 0.60379 0.05003 0.0
H1013 H 0.97108 0.56 0.01414 0.0
H1014 H 0.96755 0.57105 0.92555 0.0
H1015 H 0.01451 0.57577 0.63631 0.0
H1016 H 1.0042 0.59816 0.69771 0.0
H1017 H 0.98171 0.55624 0.79072 0.0
H1018 H 0.99423 0.53403 0.73284 0.0
H1019 H 0.99327 0.57553 0.8532 0.0
H1020 H 0.958 0.5923 0.70831 0.0
H1021 H 0.95024 0.60213 0.62069 0.0
H1022 H 0.98098 0.65019 0.64342 0.0
H1023 H 0.98934 0.64043 0.73061 0.0
C1024 C 0.95778 0.64065 0.99352 0.0
C1025 C 0.96528 0.65799 0.9912 0.0
C1026 C 0.96117 0.62774 0.95479 0.0
C1027 C 0.97241 0.63161 0.91281 0.0
C1028 C 0.97955 0.64903 0.90985 0.0
C1029 C 0.97605 0.66197 0.94827 0.0
C1030 C 0.97683 0.61777 0.87186 0.0
C1031 C 0.97482 0.62222 0.8196 0.0
C1032 C 0.98303 0.60032 0.88338 0.0
C1033 C 0.98502 0.59395 0.93698 0.0
C1034 C 0.99608 0.60305 0.9725 0.0
C1035 C 0.99792 0.59672 0.02275 0.0
C1036 C 0.98891 0.58123 0.03775 0.0
C1037 C 0.97802 0.57202 1.00255 0.0
C1038 C 0.97609 0.57832 0.95235 0.0
C1039 C 1.00775 0.57124 0.66996 0.0
C1040 C 1.00605 0.55283 0.67971 0.0
C1041 C 1.00129 0.58424 0.70514 0.0
C1042 C 0.99186 0.57929 0.74993 0.0
C1043 C 0.98908 0.56085 0.75756 0.0
C1044 C 0.99622 0.54796 0.72372 0.0
C1045 C 0.9859 0.59283 0.79058 0.0
C1046 C 0.9877 0.5884 0.84306 0.0
C1047 C 0.97883 0.61001 0.77912 0.0
C1048 C 0.97447 0.61551 0.72582 0.0
C1049 C 0.96333 0.60483 0.69436 0.0
C1050 C 0.95878 0.61043 0.6448 0.0
C1051 C 0.96511 0.62677 0.6265 0.0
C1052 C 0.9761 0.63752 0.65759 0.0
C1053 C 0.98078 0.63194 0.70703 0.0
H1054 H 0.96147 0.63113 0.58826 0.0
H1055 H 0.99039 0.57633 0.07662 0.0
H1056 H 0.07547 0.20435 0.13404 0.0
H1057 H 0.06171 0.18202 0.18855 0.0
H1058 H 0.09345 0.2004 0.31774 0.0
H1059 H 0.10811 0.22233 0.26255 0.0
H1060 H 0.09019 0.16456 0.31709 0.0
H1061 H 0.05066 0.21375 0.31227 0.0
H1062 H 0.03265 0.23818 0.27596 0.0
H1063 H 1.00197 0.20006 0.18762 0.0
H1064 H 0.01989 0.1754 0.22313 0.0
H1065 H 0.02662 0.11809 0.48045 0.0
H1066 H 0.0466 0.14038 0.44231 0.0
H1067 H 0.02538 0.12761 0.29143 0.0
H1068 H 1.00498 0.10582 0.32994 0.0
H1069 H 0.02378 0.16394 0.31755 0.0
H1070 H 0.07325 0.11757 0.3076 0.0
H1071 H 0.08698 0.093 0.35559 0.0
H1072 H 0.09498 0.12798 0.48637 0.0
H1073 H 0.08236 0.15313 0.43718 0.0
C1074 C 0.08003 0.20332 0.17352 0.0
C1075 C 0.09286 0.21521 0.19395 0.0
C1076 C 0.07188 0.19075 0.20489 0.0
C1077 C 0.07622 0.18998 0.25737 0.0
C1078 C 0.08979 0.201 0.27738 0.0
C1079 C 0.0981 0.21352 0.24583 0.0
C1080 C 0.06624 0.17776 0.29094 0.0
C1081 C 0.07569 0.16466 0.31787 0.0
C1082 C 0.04732 0.17797 0.29247 0.0
C1083 C 0.03672 0.19275 0.27005 0.0
C1084 C 0.04019 0.21059 0.28472 0.0
C1085 C 0.02996 0.22448 0.26441 0.0
C1086 C 0.0162 0.22068 0.22942 0.0
C1087 C 1.01263 0.20298 0.21471 0.0
C1088 C 0.0228 0.18904 0.235 0.0
C1089 C 0.0267 0.11974 0.43901 0.0
C1090 C 0.01452 0.11034 0.40776 0.0
C1091 C 0.03807 0.13241 0.41728 0.0
C1092 C 0.03747 0.13556 0.36406 0.0
C1093 C 0.02597 0.12537 0.33258 0.0
C1094 C 0.0145 0.11286 0.35436 0.0
C1095 C 0.04772 0.15039 0.34139 0.0
C1096 C 0.03829 0.16405 0.31696 0.0
C1097 C 0.06655 0.15104 0.34324 0.0
C1098 C 0.07676 0.13701 0.36922 0.0
C1099 C 0.07828 0.12004 0.34623 0.0
C1100 C 0.08577 0.10602 0.37378 0.0
C1101 C 0.09121 0.10877 0.4249 0.0
C1102 C 0.09048 0.12585 0.44711 0.0
C1103 C 0.08344 0.14005 0.41911 0.0
H1104 H 0.09584 0.09769 0.44762 0.0
H1105 H 1.00828 0.23145 0.21378 0.0
H1106 H 0.34417 0.09898 0.14394 0.0
H1107 H 0.36785 0.08769 0.20019 0.0
H1108 H 0.32844 0.07259 0.31274 0.0
H1109 H 0.30466 0.08331 0.25636 0.0
H1110 H 0.36285 0.08885 0.35291 0.0
H1111 H 0.33817 0.04095 0.25134 0.0
H1112 H 0.32691 0.02663 0.17156 0.0
H1113 H 0.37843 0.0329 0.1012 0.0
H1114 H 0.38993 0.04751 0.18048 0.0
H1115 H 0.40554 0.01556 0.47697 0.0
H1116 H 0.38607 0.03742 0.43568 0.0
H1117 H 0.42551 0.04525 0.3168 0.0
H1118 H 0.44507 0.02325 0.35824 0.0
H1119 H 0.39163 0.03424 0.28095 0.0
H1120 H 0.41602 0.08065 0.3935 0.0
H1121 H 0.42533 0.09183 0.47929 0.0
H1122 H 0.37184 0.08475 0.53563 0.0
H1123 H 0.36225 0.07347 0.45014 0.0
C1124 C 0.34058 0.09345 0.18092 0.0
C1125 C 0.32259 0.09197 0.19566 0.0
C1126 C 0.35408 0.08715 0.21303 0.0
C1127 C 0.34975 0.07938 0.2603 0.0
C1128 C 0.33194 0.07878 0.27656 0.0
C1129 C 0.31842 0.08494 0.24431 0.0
C1130 C 0.36361 0.06999 0.28957 0.0
C1131 C 0.36914 0.07688 0.33743 0.0
C1132 C 0.37162 0.05436 0.26919 0.0
C1133 C 0.36484 0.04554 0.22151 0.0
C1134 C 0.34704 0.03945 0.21865 0.0
C1135 C 0.34063 0.03124 0.1736 0.0
C1136 C 0.35193 0.02892 0.13126 0.0
C1137 C 0.36968 0.03475 0.13399 0.0
C1138 C 0.37616 0.04298 0.17898 0.0
C1139 C 0.41019 0.02233 0.44278 0.0
C1140 C 0.42661 0.01777 0.42036 0.0
C1141 C 0.39915 0.03482 0.4194 0.0
C1142 C 0.40441 0.04288 0.37329 0.0
C1143 C 0.42131 0.03914 0.35248 0.0
C1144 C 0.43245 0.02671 0.37617 0.0
C1145 C 0.39133 0.05334 0.34383 0.0
C1146 C 0.38567 0.04643 0.29606 0.0
C1147 C 0.38294 0.06866 0.36497 0.0
C1148 C 0.38845 0.07621 0.41557 0.0
C1149 C 0.40626 0.08151 0.42421 0.0
C1150 C 0.41158 0.08785 0.47276 0.0
C1151 C 0.39919 0.08898 0.51293 0.0
C1152 C 0.38142 0.0839 0.50448 0.0
C1153 C 0.37601 0.0776 0.45594 0.0
H1154 H 0.40335 0.09379 0.55059 0.0
H1155 H 0.34694 0.02256 0.0964 0.0
H1156 H 0.41379 0.33283 0.2308 0.0
H1157 H 0.42791 0.35637 0.28434 0.0
H1158 H 0.47986 0.33428 0.24906 0.0
H1159 H 0.4659 0.31066 0.19821 0.0
H1160 H 0.4784 0.34072 0.34491 0.0
H1161 H 0.46187 0.37234 0.19098 0.0
H1162 H 0.44219 0.38522 0.12476 0.0
H1163 H 0.41517 0.41628 0.24083 0.0
H1164 H 0.43451 0.40333 0.30792 0.0
H1165 H 0.54266 0.40901 0.35316 0.0
H1166 H 0.5213 0.38503 0.33702 0.0
H1167 H 0.47979 0.41591 0.4112 0.0
H1168 H 0.50079 0.44042 0.42474 0.0
H1169 H 0.47093 0.40567 0.31509 0.0
H1170 H 0.48989 0.36928 0.46877 0.0
H1171 H 0.51433 0.35817 0.52417 0.0
H1172 H 0.54169 0.33772 0.39071 0.0
H1173 H 0.51733 0.3486 0.33488 0.0
C1174 C 0.42818 0.33293 0.23561 0.0
C1175 C 0.43877 0.31969 0.21204 0.0
C1176 C 0.43622 0.34642 0.26552 0.0
C1177 C 0.45491 0.34698 0.27082 0.0
C1178 C 0.46539 0.3339 0.24633 0.0
C1179 C 0.45741 0.32034 0.21759 0.0
C1180 C 0.46397 0.36078 0.30243 0.0
C1181 C 0.47664 0.35493 0.33846 0.0
C1182 C 0.4615 0.37933 0.29472 0.0
C1183 C 0.44937 0.38654 0.25465 0.0
C1184 C 0.45153 0.38166 0.20253 0.0
C1185 C 0.44048 0.38904 0.1648 0.0
C1186 C 0.42735 0.40146 0.17863 0.0
C1187 C 0.42526 0.40656 0.23022 0.0
C1188 C 0.43625 0.39919 0.26811 0.0
C1189 C 0.52907 0.41056 0.36686 0.0
C1190 C 0.5234 0.42666 0.38951 0.0
C1191 C 0.51694 0.39671 0.35849 0.0
C1192 C 0.49905 0.39858 0.37384 0.0
C1193 C 0.49359 0.41418 0.39955 0.0
C1194 C 0.50569 0.42811 0.40755 0.0
C1195 C 0.48568 0.38547 0.35578 0.0
C1196 C 0.47215 0.39147 0.32265 0.0
C1197 C 0.48775 0.36702 0.36435 0.0
C1198 C 0.502 0.35994 0.3979 0.0
C1199 C 0.50116 0.36243 0.45145 0.0
C1200 C 0.51496 0.35614 0.48286 0.0
C1201 C 0.52961 0.34735 0.46095 0.0
C1202 C 0.53037 0.34457 0.40765 0.0
C1203 C 0.51653 0.3507 0.37619 0.0
H1204 H 0.54034 0.34262 0.48527 0.0
H1205 H 0.41885 0.4072 0.14934 0.0
H1206 H 0.22896 0.46695 0.22418 0.0
H1207 H 0.20445 0.47955 0.27374 0.0
H1208 H 0.1789 0.42775 0.27806 0.0
H1209 H 0.20341 0.41504 0.22678 0.0
H1210 H 0.15591 0.45357 0.25093 0.0
H1211 H 0.19962 0.44706 0.38895 0.0
H1212 H 0.2298 0.451 0.42612 0.0
H1213 H 0.22553 0.50795 0.40962 0.0
H1214 H 0.1954 0.50433 0.37204 0.0
H1215 H 0.08737 0.49193 0.39703 0.0
H1216 H 0.11312 0.47191 0.38647 0.0
H1217 H 0.14714 0.51755 0.35891 0.0
H1218 H 0.12152 0.53748 0.36968 0.0
H1219 H 0.16489 0.49079 0.40861 0.0
H1220 H 0.12754 0.49968 0.26055 0.0
H1221 H 0.09851 0.50027 0.21544 0.0
H1222 H 0.09206 0.44395 0.23974 0.0
H1223 H 0.12095 0.44304 0.28597 0.0
C1224 C 0.21844 0.45808 0.23702 0.0
C1225 C 0.21829 0.43992 0.22261 0.0
C1226 C 0.20438 0.46533 0.26522 0.0
C1227 C 0.19007 0.45449 0.28064 0.0
C1228 C 0.18995 0.43627 0.26697 0.0
C1229 C 0.20395 0.42903 0.23803 0.0
C1230 C 0.17485 0.46255 0.30854 0.0
C1231 C 0.15776 0.46124 0.28629 0.0
C1232 C 0.17745 0.4732 0.3534 0.0
C1233 C 0.19527 0.47541 0.3778 0.0
C1234 C 0.20513 0.46042 0.39334 0.0
C1235 C 0.22222 0.4626 0.41442 0.0
C1236 C 0.22957 0.47971 0.42026 0.0
C1237 C 0.21981 0.4947 0.40523 0.0
C1238 C 0.2027 0.4926 0.38421 0.0
C1239 C 0.1005 0.49761 0.39048 0.0
C1240 C 0.10264 0.51605 0.38325 0.0
C1241 C 0.11511 0.48624 0.38441 0.0
C1242 C 0.13185 0.49332 0.37115 0.0
C1243 C 0.13428 0.5119 0.36906 0.0
C1244 C 0.11969 0.52322 0.37478 0.0
C1245 C 0.14607 0.48162 0.3513 0.0
C1246 C 0.16295 0.48247 0.3745 0.0
C1247 C 0.14342 0.47105 0.30637 0.0
C1248 C 0.12631 0.47133 0.27722 0.0
C1249 C 0.11989 0.48742 0.25653 0.0
C1250 C 0.10346 0.48781 0.23078 0.0
C1251 C 0.09342 0.47213 0.22489 0.0
C1252 C 0.09985 0.45604 0.24452 0.0
C1253 C 0.11625 0.45558 0.27049 0.0
H1254 H 0.08069 0.47245 0.20501 0.0
H1255 H 0.24283 0.48136 0.43642 0.0
H1256 H 0.94449 0.84561 0.01637 0.0
H1257 H 0.95336 0.86982 0.95999 0.0
H1258 H 0.95522 0.83289 0.83098 0.0
H1259 H 0.94797 0.80836 0.888 0.0
H1260 H 0.98403 0.8496 0.83335 0.0
H1261 H 0.92357 0.87023 0.84062 0.0
H1262 H 0.89482 0.8795 0.87886 0.0
H1263 H 0.92149 0.92094 0.96563 0.0
H1264 H 0.95041 0.91183 0.92828 0.0
H1265 H 1.00489 0.92522 0.67073 0.0
H1266 H 0.98362 0.90417 0.70935 0.0
H1267 H 1.00518 0.9165 0.85993 0.0
H1268 H 0.02745 0.93632 0.8208 0.0
H1269 H 0.96178 0.91209 0.83349 0.0
H1270 H 0.02278 0.88672 0.83468 0.0
H1271 H 0.05093 0.8778 0.79267 0.0
H1272 H 0.02176 0.84425 0.68649 0.0
H1273 H 0.99333 0.85349 0.7269 0.0
C1274 C 0.9467 0.84264 0.97595 0.0
C1275 C 0.94571 0.82498 0.95699 0.0
C1276 C 0.95143 0.85659 0.94343 0.0
C1277 C 0.95478 0.85326 0.89097 0.0
C1278 C 0.95266 0.83582 0.87128 0.0
C1279 C 0.94832 0.8218 0.90397 0.0
C1280 C 0.96292 0.86732 0.85871 0.0
C1281 C 0.97882 0.86313 0.83247 0.0
C1282 C 0.95644 0.88512 0.85813 0.0
C1283 C 0.93915 0.89027 0.88184 0.0
C1284 C 0.92332 0.88121 0.86822 0.0
C1285 C 0.90699 0.88647 0.88964 0.0
C1286 C 0.90634 0.90079 0.92469 0.0
C1287 C 0.92201 0.90986 0.93847 0.0
C1288 C 0.93836 0.90468 0.91711 0.0
C1289 C 1.00496 0.92343 0.71198 0.0
C1290 C 0.01796 0.9318 0.7429 0.0
C1291 C 0.9928 0.91159 0.73393 0.0
C1292 C 0.9932 0.90869 0.78713 0.0
C1293 C 1.00492 0.91856 0.81867 0.0
C1294 C 0.01751 0.92984 0.7965 0.0
C1295 C 0.98267 0.89419 0.80951 0.0
C1296 C 0.96652 0.89838 0.83373 0.0
C1297 C 0.98882 0.87636 0.80803 0.0
C1298 C 1.00588 0.87121 0.78289 0.0
C1299 C 0.02231 0.87781 0.80157 0.0
C1300 C 0.03834 0.87261 0.77823 0.0
C1301 C 0.03813 0.86056 0.73667 0.0
C1302 C 0.02189 0.85369 0.71842 0.0
C1303 C 1.00581 0.85895 0.74142 0.0
H1304 H 0.05056 0.85647 0.71885 0.0
H1305 H 0.89368 0.90486 0.94112 0.0
H1306 H 0.73256 0.96953 0.89794 0.0
H1307 H 0.70819 0.97789 0.84079 0.0
H1308 H 0.67117 0.94739 0.93216 0.0
H1309 H 0.69574 0.93856 0.98938 0.0
H1310 H 0.66306 0.9477 0.82257 0.0
H1311 H 0.67611 0.98735 0.96446 0.0
H1312 H 0.69571 1.00557 0.02068 0.0
H1313 H 0.70972 0.03863 0.89259 0.0
H1314 H 0.69059 0.02026 0.83519 0.0
H1315 H 0.58924 1.01104 0.77285 0.0
H1316 H 0.60992 0.98889 0.80885 0.0
H1317 H 0.65327 1.01221 0.72293 0.0
H1318 H 0.63279 0.0341 0.6866 0.0
H1319 H 0.65584 1.01362 0.83436 0.0
H1320 H 0.64305 0.97374 0.69254 0.0
H1321 H 0.62443 0.95476 0.63561 0.0
H1322 H 0.60851 0.92318 0.76498 0.0
H1323 H 0.62705 0.94204 0.82281 0.0
C1324 C 0.71936 0.96408 0.90497 0.0
C1325 C 0.71596 0.95354 0.94841 0.0
C1326 C 0.70547 0.96889 0.8723 0.0
C1327 C 0.68793 0.96341 0.88286 0.0
C1328 C 0.68466 0.95174 0.92368 0.0
C1329 C 0.69861 0.9469 0.95656 0.0
C1330 C 0.67295 0.97223 0.85656 0.0
C1331 C 0.66127 0.96207 0.82554 0.0
C1332 C 0.67077 0.99099 0.86069 0.0
C1333 C 0.68207 1.00227 0.89535 0.0
C1334 C 0.68351 0.99838 0.94812 0.0
C1335 C 0.69453 1.00875 0.98022 0.0
C1336 C 0.70399 0.02322 0.96019 0.0
C1337 C 0.70242 0.02738 0.90802 0.0
C1338 C 0.6915 0.01698 0.87567 0.0
C1339 C 0.60307 1.01103 0.7605 0.0
C1340 C 0.60962 0.02446 0.728 0.0
C1341 C 0.61481 0.99841 0.78099 0.0
C1342 C 0.63306 0.99916 0.76878 0.0
C1343 C 0.63921 1.01157 0.73287 0.0
C1344 C 0.62756 0.02409 0.71244 0.0
C1345 C 0.64626 0.98921 0.79903 0.0
C1346 C 0.65753 0.99922 0.83149 0.0
C1347 C 0.64789 0.97041 0.79638 0.0
C1348 C 0.63638 0.95935 0.76201 0.0
C1349 C 0.63547 0.96285 0.70895 0.0
C1350 C 0.62499 0.95208 0.67648 0.0
C1351 C 0.6154 0.93773 0.69664 0.0
C1352 C 0.61607 0.93424 0.7494 0.0
C1353 C 0.62659 0.94495 0.78202 0.0
H1354 H 0.60751 0.92926 0.67129 0.0
H1355 H 0.71251 0.03125 0.98513 0.0
H1356 H 0.59119 0.73554 0.87754 0.0
H1357 H 0.58456 0.71158 0.81598 0.0
H1358 H 0.58392 0.67366 0.94054 0.0
H1359 H 0.59266 0.69699 1.00067 0.0
H1360 H 0.59295 0.65676 0.86502 0.0
H1361 H 0.54533 0.70114 0.89101 0.0
H1362 H 0.53003 0.73024 0.88392 0.0
H1363 H 0.53667 0.72867 0.71958 0.0
H1364 H 0.5522 0.69966 0.72587 0.0
H1365 H 0.51432 0.60493 0.85972 0.0
H1366 H 0.53765 0.62747 0.8748 0.0
H1367 H 0.53807 0.63966 0.7126 0.0
H1368 H 0.51418 0.61791 0.69776 0.0
H1369 H 0.53612 0.66886 0.7733 0.0
H1370 H 0.57155 0.61465 0.76904 0.0
H1371 H 0.57683 0.58395 0.79862 0.0
H1372 H 0.58525 0.60335 0.95308 0.0
H1373 H 0.57911 0.63409 0.92508 0.0
C1374 C 0.59038 0.72196 0.89147 0.0
C1375 C 0.59205 0.71822 0.94437 0.0
C1376 C 0.58632 0.70831 0.85622 0.0
C1377 C 0.58311 0.69091 0.87368 0.0
C1378 C 0.58618 0.68698 0.9258 0.0
C1379 C 0.59085 0.70043 0.96057 0.0
C1380 C 0.57453 0.67714 0.84049 0.0
C1381 C 0.58053 0.65943 0.84484 0.0
C1382 C 0.55861 0.6806 0.81249 0.0
C1383 C 0.55034 0.69852 0.80907 0.0
C1384 C 0.54378 0.70717 0.8535 0.0
C1385 C 0.53501 0.7236 0.8496 0.0
C1386 C 0.53251 0.73137 0.80137 0.0
C1387 C 0.53876 0.72271 0.75694 0.0
C1388 C 0.54759 0.70632 0.76067 0.0
C1389 C 0.51914 0.61271 0.82762 0.0
C1390 C 0.51243 0.60982 0.77773 0.0
C1391 C 0.53271 0.62523 0.83598 0.0
C1392 C 0.53986 0.63476 0.79443 0.0
C1393 C 0.53288 0.63219 0.74488 0.0
C1394 C 0.51921 0.61988 0.73661 0.0
C1395 C 0.55351 0.64862 0.80349 0.0
C1396 C 0.54876 0.66625 0.79247 0.0
C1397 C 0.56978 0.64504 0.82904 0.0
C1398 C 0.57484 0.62671 0.84483 0.0
C1399 C 0.57454 0.61239 0.80929 0.0
C1400 C 0.57765 0.59495 0.82587 0.0
C1401 C 0.58144 0.59171 0.87767 0.0
C1402 C 0.58231 0.6059 0.91297 0.0
C1403 C 0.57897 0.62333 0.89677 0.0
H1404 H 0.58358 0.57824 0.89068 0.0
H1405 H 0.52563 0.74404 0.79841 0.0
H1406 H 0.80341 0.57566 0.89878 0.0
H1407 H 0.82857 0.56541 0.84699 0.0
H1408 H 0.86164 0.60734 0.91184 0.0
H1409 H 0.83631 0.61784 0.9641 0.0
H1410 H 0.86872 0.59687 0.80206 0.0
H1411 H 0.86208 0.57289 0.97423 0.0
H1412 H 0.8457 0.55844 0.04489 0.0
H1413 H 0.83587 0.51238 0.94851 0.0
H1414 H 0.85184 0.52675 0.87685 0.0
H1415 H 0.9513 0.54729 0.77312 0.0
H1416 H 0.92657 0.56748 0.7927 0.0
H1417 H 0.8901 0.52248 0.78983 0.0
H1418 H 0.91512 0.50232 0.77506 0.0
H1419 H 0.88618 0.53793 0.87186 0.0
H1420 H 0.88163 0.5684 0.69294 0.0
H1421 H 0.89456 0.58522 0.6204 0.0
H1422 H 0.92552 0.61712 0.72652 0.0
H1423 H 0.91212 0.60104 0.79962 0.0
C1424 C 0.81583 0.58314 0.90061 0.0
C1425 C 0.81808 0.59742 0.93574 0.0
C1426 C 0.83015 0.57726 0.87104 0.0
C1427 C 0.84685 0.58555 0.87637 0.0
C1428 C 0.84875 0.60085 0.90759 0.0
C1429 C 0.8344 0.6067 0.9376 0.0
C1430 C 0.86275 0.57633 0.85689 0.0
C1431 C 0.87264 0.58396 0.81707 0.0
C1432 C 0.86771 0.55958 0.87692 0.0
C1433 C 0.85795 0.55101 0.91996 0.0
C1434 C 0.85622 0.55979 0.96787 0.0
C1435 C 0.84704 0.55159 1.00815 0.0
C1436 C 0.8397 0.53452 1.00115 0.0
C1437 C 0.84152 0.52562 0.95384 0.0
C1438 C 0.85062 0.53379 0.91338 0.0
C1439 C 0.9379 0.54192 0.77566 0.0
C1440 C 0.93495 0.5234 0.77329 0.0
C1441 C 0.92369 0.55348 0.78604 0.0
C1442 C 0.90633 0.54661 0.79226 0.0
C1443 C 0.90338 0.52813 0.78588 0.0
C1444 C 0.9176 0.51661 0.77722 0.0
C1445 C 0.89176 0.55771 0.81382 0.0
C1446 C 0.88223 0.55062 0.85551 0.0
C1447 C 0.88709 0.57479 0.79502 0.0
C1448 C 0.89628 0.58326 0.75138 0.0
C1449 C 0.89138 0.57884 0.7006 0.0
C1450 C 0.89868 0.58833 0.65948 0.0
C1451 C 0.91109 0.602 0.66878 0.0
C1452 C 0.91605 0.60641 0.7193 0.0
C1453 C 0.9085 0.59723 0.76056 0.0
H1454 H 0.91671 0.6093 0.63687 0.0
H1455 H 0.83265 0.52818 0.03244 0.0
H1456 H 0.06965 0.21748 0.71774 0.0
H1457 H 0.06258 0.18925 0.67419 0.0
H1458 H 0.07364 0.16072 0.81386 0.0
H1459 H 0.08027 0.18894 0.85842 0.0
H1460 H 0.08716 0.14308 0.72758 0.0
H1461 H 0.02994 0.17235 0.77078 0.0
H1462 H 1.00918 0.19779 0.76271 0.0
H1463 H 1.0086 0.19092 0.59821 0.0
H1464 H 0.02959 0.16567 0.60524 0.0
H1465 H 0.05227 0.05777 0.65702 0.0
H1466 H 0.06267 0.08563 0.69343 0.0
H1467 H 0.02544 0.11343 0.595 0.0
H1468 H 1.01179 0.08498 0.57178 0.0
H1469 H 0.02623 0.13377 0.65764 0.0
H1470 H 0.08099 0.10871 0.59873 0.0
H1471 H 0.10642 0.08819 0.58729 0.0
H1472 H 0.11785 0.09135 0.74937 0.0
H1473 H 0.09215 0.11149 0.76207 0.0
C1474 C 0.07042 0.20531 0.73985 0.0
C1475 C 0.07529 0.20592 0.7926 0.0
C1476 C 0.06642 0.18901 0.71443 0.0
C1477 C 0.06714 0.17262 0.74063 0.0
C1478 C 0.07279 0.17305 0.79246 0.0
C1479 C 0.07671 0.18936 0.81804 0.0
C1480 C 0.06161 0.15513 0.7149 0.0
C1481 C 0.07378 0.14087 0.71254 0.0
C1482 C 0.04456 0.15244 0.69214 0.0
C1483 C 0.03141 0.16719 0.68855 0.0
C1484 C 0.02541 0.17629 0.73291 0.0
C1485 C 1.01362 0.1907 0.7285 0.0
C1486 C 1.00759 0.19598 0.67998 0.0
C1487 C 1.01328 0.18683 0.63577 0.0
C1488 C 0.02511 0.17247 0.63995 0.0
C1489 C 0.04545 0.06959 0.64626 0.0
C1490 C 0.03001 0.0685 0.61553 0.0
C1491 C 0.05219 0.08612 0.66483 0.0
C1492 C 0.04524 0.10266 0.64791 0.0
C1493 C 0.031 0.10149 0.61183 0.0
C1494 C 0.02323 0.0849 0.59745 0.0
C1495 C 0.05185 0.12088 0.66907 0.0
C1496 C 0.0398 0.13548 0.67133 0.0
C1497 C 0.06952 0.12422 0.68851 0.0
C1498 C 0.08448 0.11145 0.68139 0.0
C1499 C 0.08879 0.10486 0.63202 0.0
C1500 C 0.10329 0.09331 0.62532 0.0
C1501 C 0.11377 0.08845 0.66755 0.0
C1502 C 0.1097 0.09507 0.71669 0.0
C1503 C 0.09513 0.10651 0.72369 0.0
H1504 H 0.12506 0.07959 0.66217 0.0
H1505 H 0.9985 0.20715 0.67666 0.0
H1506 H 0.34912 0.09373 0.82907 0.0
H1507 H 0.37721 0.08655 0.78636 0.0
H1508 H 0.34946 0.05033 0.68337 0.0
H1509 H 0.32183 0.0559 0.72871 0.0
H1510 H 0.37673 0.03461 0.70937 0.0
H1511 H 0.37072 0.09283 0.63743 0.0
H1512 H 0.36372 0.12505 0.6431 0.0
H1513 H 0.40668 0.13286 0.75116 0.0
H1514 H 0.41401 0.10067 0.74572 0.0
H1515 H 0.45384 1.00983 0.57319 0.0
H1516 H 0.42494 0.02295 0.59135 0.0
H1517 H 0.45051 0.06512 0.67929 0.0
H1518 H 0.47931 0.05436 0.6487 0.0
H1519 H 0.42288 0.07854 0.65782 0.0
H1520 H 0.42551 0.01542 0.72634 0.0
H1521 H 0.4275 0.98261 0.71465 0.0
H1522 H 0.38572 0.98413 0.6009 0.0
H1523 H 0.3835 0.01687 0.6121 0.0
C1524 C 0.34885 0.08405 0.79779 0.0
C1525 C 0.3327 0.07548 0.78327 0.0
C1526 C 0.36509 0.08021 0.77237 0.0
C1527 C 0.36575 0.06798 0.73066 0.0
C1528 C 0.34961 0.05979 0.71527 0.0
C1529 C 0.33352 0.0633 0.74124 0.0
C1530 C 0.38323 0.06257 0.70553 0.0
C1531 C 0.3867 0.04431 0.69771 0.0
C1532 C 0.3965 0.07495 0.68984 0.0
C1533 C 0.39289 0.09441 0.69122 0.0
C1534 C 0.37871 0.10146 0.6622 0.0
C1535 C 0.37469 0.1197 0.66536 0.0
C1536 C 0.38474 0.13099 0.69752 0.0
C1537 C 0.39895 0.1241 0.72615 0.0
C1538 C 0.40312 0.10588 0.72281 0.0
C1539 C 0.45342 0.02197 0.59633 0.0
C1540 C 0.46943 0.0301 0.6135 0.0
C1541 C 0.43658 0.0293 0.60815 0.0
C1542 C 0.43486 0.04421 0.64169 0.0
C1543 C 0.45088 0.05314 0.6555 0.0
C1544 C 0.46774 0.04657 0.63971 0.0
C1545 C 0.41672 0.0503 0.66263 0.0
C1546 C 0.41304 0.06876 0.66971 0.0
C1547 C 0.40288 0.03807 0.67641 0.0
C1548 C 0.40446 0.0185 0.66978 0.0
C1549 C 0.41681 1.00871 0.69882 0.0
C1550 C 0.41795 0.99015 0.69229 0.0
C1551 C 0.40677 0.9813 0.65699 0.0
C1552 C 0.39438 0.99098 0.62822 0.0
C1553 C 0.39314 1.0095 0.63473 0.0
H1554 H 0.40769 0.96694 0.65199 0.0
H1555 H 0.38152 0.14508 0.70025 0.0
H1556 H 0.46837 0.34392 0.85433 0.0
H1557 H 0.47549 0.3724 0.81406 0.0
H1558 H 0.45749 0.35173 0.66724 0.0
H1559 H 0.44985 0.32324 0.70738 0.0
H1560 H 0.48998 0.37154 0.65954 0.0
H1561 H 0.43033 0.38128 0.72143 0.0
H1562 H 0.40707 0.37759 0.78778 0.0
H1563 H 0.43881 0.40802 0.89564 0.0
H1564 H 0.46226 0.41189 0.82973 0.0
H1565 H 0.49525 0.45781 0.54652 0.0
H1566 H 0.48379 0.42887 0.57472 0.0
H1567 H 0.48912 0.44595 0.73345 0.0
H1568 H 0.49871 0.47564 0.70465 0.0
H1569 H 0.46124 0.42667 0.72811 0.0
H1570 H 0.52316 0.41091 0.66852 0.0
H1571 H 0.54624 0.41446 0.60137 0.0
H1572 H 0.50903 0.39653 0.48604 0.0
H1573 H 0.48599 0.39184 0.55279 0.0
C1574 C 0.46564 0.34539 0.81362 0.0
C1575 C 0.45841 0.33107 0.78446 0.0
C1576 C 0.46989 0.36173 0.79046 0.0
C1577 C 0.46705 0.36432 0.73746 0.0
C1578 C 0.45998 0.35008 0.70804 0.0
C1579 C 0.45562 0.33373 0.73124 0.0
C1580 C 0.47084 0.38214 0.71373 0.0
C1581 C 0.48353 0.38355 0.6741 0.0
C1582 C 0.46253 0.39791 0.73232 0.0
C1583 C 0.44797 0.39691 0.77075 0.0
C1584 C 0.43226 0.38729 0.75922 0.0
C1585 C 0.41908 0.38514 0.79673 0.0
C1586 C 0.42146 0.39258 0.8459 0.0
C1587 C 0.43696 0.40233 0.85747 0.0
C1588 C 0.45016 0.40459 0.81998 0.0
C1589 C 0.49397 0.45532 0.58741 0.0
C1590 C 0.49805 0.46886 0.62343 0.0
C1591 C 0.48768 0.43861 0.60371 0.0
C1592 C 0.48627 0.43464 0.65658 0.0
C1593 C 0.49017 0.44839 0.6925 0.0
C1594 C 0.49576 0.46536 0.67609 0.0
C1595 C 0.48083 0.4163 0.67465 0.0
C1596 C 0.46772 0.41472 0.71328 0.0
C1597 C 0.48866 0.40036 0.65469 0.0
C1598 C 0.50295 0.40101 0.61552 0.0
C1599 C 0.52005 0.40736 0.62892 0.0
C1600 C 0.5331 0.4095 0.59096 0.0
C1601 C 0.5291 0.40557 0.53946 0.0
C1602 C 0.51214 0.39922 0.52598 0.0
C1603 C 0.49918 0.39656 0.56392 0.0
H1604 H 0.53909 0.40754 0.50992 0.0
H1605 H 0.41131 0.39077 0.87505 0.0
H1606 H 0.19171 0.43815 0.83096 0.0
H1607 H 0.1633 0.44568 0.78957 0.0
H1608 H 0.19053 0.48379 0.69378 0.0
H1609 H 0.21856 0.47718 0.73678 0.0
H1610 H 0.16298 0.49891 0.72468 0.0
H1611 H 0.17109 0.44195 0.64416 0.0
H1612 H 0.17685 0.40951 0.63805 0.0
H1613 H 0.13074 0.39912 0.73148 0.0
H1614 H 0.12472 0.43154 0.73817 0.0
H1615 H 0.08634 0.51944 0.57046 0.0
H1616 H 0.11579 0.50896 0.59861 0.0
H1617 H 0.0905 0.47119 0.6997 0.0
H1618 H 0.06149 0.48089 0.66992 0.0
H1619 H 0.11761 0.45541 0.66185 0.0
H1620 H 0.11176 0.51522 0.7416 0.0
H1621 H 0.10801 0.54804 0.7407 0.0
H1622 H 0.15249 0.55277 0.63728 0.0
H1623 H 0.15644 0.52001 0.63754 0.0
C1624 C 0.1917 0.44821 0.80127 0.0
C1625 C 0.20772 0.45698 0.7876 0.0
C1626 C 0.17536 0.45234 0.77689 0.0
C1627 C 0.17453 0.46527 0.73777 0.0
C1628 C 0.19056 0.47378 0.72364 0.0
C1629 C 0.20679 0.46978 0.74814 0.0
C1630 C 0.15701 0.47092 0.71385 0.0
C1631 C 0.15324 0.48929 0.7103 0.0
C1632 C 0.14394 0.45862 0.69529 0.0
C1633 C 0.14758 0.43916 0.69212 0.0
C1634 C 0.16227 0.43275 0.66374 0.0
C1635 C 0.16554 0.41437 0.66002 0.0
C1636 C 0.1542 0.40227 0.6845 0.0
C1637 C 0.13952 0.40852 0.71258 0.0
C1638 C 0.13614 0.42689 0.71624 0.0
C1639 C 0.08702 0.50888 0.59863 0.0
C1640 C 0.07119 0.50124 0.61811 0.0
C1641 C 0.10398 0.50294 0.61518 0.0
C1642 C 0.10566 0.48944 0.65257 0.0
C1643 C 0.08987 0.48163 0.67112 0.0
C1644 C 0.07303 0.48736 0.65409 0.0
C1645 C 0.12361 0.48343 0.673 0.0
C1646 C 0.12742 0.46498 0.67611 0.0
C1647 C 0.13696 0.49565 0.69015 0.0
C1648 C 0.13428 0.51523 0.68927 0.0
C1649 C 0.12064 0.52328 0.71845 0.0
C1650 C 0.11851 0.54186 0.71813 0.0
C1651 C 0.12998 0.55248 0.68888 0.0
C1652 C 0.14361 0.54455 0.65989 0.0
C1653 C 0.14582 0.52599 0.66018 0.0
H1654 H 0.12833 0.56686 0.68875 0.0
H1655 H 0.15677 0.38805 0.6816 0.0
H1656 H 0.94175 0.83485 0.40108 0.0
H1657 H 0.94806 0.86336 0.44579 0.0
H1658 H 0.99779 0.86774 0.36325 0.0
H1659 H 0.9917 0.83932 0.31929 0.0
H1660 H 1.00222 0.87635 0.46393 0.0
H1661 H 0.95815 0.89171 0.33121 0.0
H1662 H 0.92821 0.88692 0.29334 0.0
H1663 H 0.90386 0.9022 0.43688 0.0
H1664 H 0.93369 0.90681 0.47583 0.0
H1665 H 0.03358 0.96382 0.48231 0.0
H1666 H 0.02145 0.93498 0.45565 0.0
H1667 H 0.9709 0.94855 0.52524 0.0
H1668 H 0.98313 0.97809 0.55103 0.0
H1669 H 0.96299 0.92935 0.44706 0.0
H1670 H 1.00386 0.91654 0.58018 0.0
H1671 H 0.03119 0.91415 0.63354 0.0
H1672 H 0.059 0.8895 0.5075 0.0
H1673 H 0.03207 0.89183 0.45314 0.0
C1674 C 0.95406 0.84185 0.39248 0.0
C1675 C 0.96607 0.83473 0.35565 0.0
C1676 C 0.95762 0.85831 0.41796 0.0
C1677 C 0.97333 0.86811 0.4076 0.0
C1678 C 0.98548 0.86073 0.37191 0.0
C1679 C 0.98189 0.84443 0.34626 0.0
C1680 C 0.97748 0.88596 0.43329 0.0
C1681 C 0.99378 0.88802 0.45951 0.0
C1682 C 0.96598 0.90103 0.43094 0.0
C1683 C 0.94813 0.89957 0.40642 0.0
C1684 C 0.9464 0.89411 0.35461 0.0
C1685 C 0.92946 0.89137 0.33301 0.0
C1686 C 0.91414 0.89425 0.36269 0.0
C1687 C 0.91574 0.89999 0.41393 0.0
C1688 C 0.93266 0.9027 0.43576 0.0
C1689 C 0.0198 0.96082 0.49176 0.0
C1690 C 1.00946 0.97346 0.51912 0.0
C1691 C 1.01287 0.94404 0.47698 0.0
C1692 C 0.99531 0.93886 0.48968 0.0
C1693 C 0.98457 0.95179 0.51522 0.0
C1694 C 0.99155 0.96883 0.52987 0.0
C1695 C 0.98854 0.92017 0.47522 0.0
C1696 C 0.97162 0.91784 0.45153 0.0
C1697 C 0.99929 0.90457 0.48125 0.0
C1698 C 0.01597 0.9046 0.51239 0.0
C1699 C 0.0159 0.91092 0.56359 0.0
C1700 C 0.03128 0.90951 0.59407 0.0
C1701 C 0.04678 0.90181 0.57391 0.0
C1702 C 0.047 0.89554 0.52306 0.0
C1703 C 0.03169 0.8969 0.49238 0.0
H1704 H 0.0586 0.90065 0.5978 0.0
H1705 H 0.90104 0.89203 0.34598 0.0
H1706 H 0.71578 0.97934 0.44489 0.0
H1707 H 0.6872 0.98435 0.48864 0.0
H1708 H 0.65935 0.96088 0.35902 0.0
H1709 H 0.68774 0.95544 0.3156 0.0
H1710 H 0.6474 0.9937 0.38163 0.0
H1711 H 0.66078 0.94102 0.47823 0.0
H1712 H 0.67805 0.92187 0.53681 0.0
H1713 H 0.67335 0.96133 0.6574 0.0
H1714 H 0.65624 0.98087 0.59935 0.0
H1715 H 0.55988 1.00413 0.44845 0.0
H1716 H 0.58761 0.99012 0.42847 0.0
H1717 H 0.60688 1.00336 0.58088 0.0
H1718 H 0.5769 0.01456 0.60355 0.0
H1719 H 0.62491 0.97634 0.55351 0.0
H1720 H 0.61485 0.03012 0.45721 0.0
H1721 H 0.60098 0.05142 0.39714 0.0
H1722 H 0.6025 1.01181 0.27607 0.0
H1723 H 0.6162 0.99026 0.33549 0.0
C1724 C 0.70364 0.97485 0.42594 0.0
C1725 C 0.7043 0.96716 0.3759 0.0
C1726 C 0.68721 0.97772 0.45132 0.0
C1727 C 0.67093 0.97301 0.42747 0.0
C1728 C 0.67162 0.96473 0.37849 0.0
C1729 C 0.68797 0.9618 0.35327 0.0
C1730 C 0.65316 0.97869 0.44952 0.0
C1731 C 0.64239 0.98961 0.41893 0.0
C1732 C 0.64687 0.97417 0.49939 0.0
C1733 C 0.6574 0.96253 0.53411 0.0
C1734 C 0.6636 0.94574 0.51702 0.0
C1735 C 0.6733 0.93477 0.55022 0.0
C1736 C 0.67681 0.94039 0.60077 0.0
C1737 C 0.67062 0.957 0.61821 0.0
C1738 C 0.66092 0.96802 0.58517 0.0
C1739 C 0.56908 1.00291 0.47923 0.0
C1740 C 0.56513 1.00967 0.52853 0.0
C1741 C 0.58577 0.99558 0.46688 0.0
C1742 C 0.60011 0.99626 0.50194 0.0
C1743 C 0.59635 1.0027 0.5522 0.0
C1744 C 0.5791 1.00918 0.56527 0.0
C1745 C 0.61882 0.99105 0.48464 0.0
C1746 C 0.62985 0.98039 0.51616 0.0
C1747 C 0.62568 0.99599 0.4356 0.0
C1748 C 0.61637 1.00856 0.40094 0.0
C1749 C 0.612 0.0259 0.41797 0.0
C1750 C 0.60422 0.03803 0.38397 0.0
C1751 C 0.60082 0.03296 0.33287 0.0
C1752 C 0.6051 0.01572 0.31567 0.0
C1753 C 0.61286 1.00356 0.34947 0.0
H1754 H 0.59491 0.04241 0.30655 0.0
H1755 H 0.68428 0.93187 0.62644 0.0
H1756 H 0.54381 0.71397 0.3723 0.0
H1757 H 0.53807 0.68567 0.4162 0.0
H1758 H 0.59449 0.67363 0.41156 0.0
H1759 H 0.59998 0.70159 0.36534 0.0
H1760 H 0.57882 0.646 0.38452 0.0
H1761 H 0.56946 0.68289 0.53238 0.0
H1762 H 0.55749 0.70754 0.58603 0.0
H1763 H 0.50399 0.68872 0.55838 0.0
H1764 H 0.51565 0.66395 0.50461 0.0
H1765 H 0.56451 0.5641 0.51831 0.0
H1766 H 0.57439 0.59399 0.49396 0.0
H1767 H 0.51955 0.6119 0.49305 0.0
H1768 H 0.5098 0.58236 0.52064 0.0
H1769 H 0.53728 0.63707 0.53043 0.0
H1770 H 0.54988 0.60062 0.37379 0.0
H1771 H 0.56489 0.57684 0.32325 0.0
H1772 H 0.61612 0.59603 0.37501 0.0
H1773 H 0.6014 0.61985 0.42587 0.0
C1774 C 0.55495 0.70524 0.38085 0.0
C1775 C 0.57229 0.7098 0.36485 0.0
C1776 C 0.55171 0.68913 0.40664 0.0
C1777 C 0.56583 0.67736 0.41807 0.0
C1778 C 0.58328 0.68229 0.40323 0.0
C1779 C 0.58645 0.69826 0.37672 0.0
C1780 C 0.56223 0.65926 0.44077 0.0
C1781 C 0.56996 0.64417 0.41709 0.0
C1782 C 0.55056 0.65653 0.48302 0.0
C1783 C 0.54343 0.67168 0.51406 0.0
C1784 C 0.55514 0.68411 0.53736 0.0
C1785 C 0.54841 0.69806 0.56796 0.0
C1786 C 0.52999 0.69972 0.57549 0.0
C1787 C 0.51826 0.68742 0.55251 0.0
C1788 C 0.52492 0.6734 0.5221 0.0
C1789 C 0.55453 0.57438 0.5127 0.0
C1790 C 0.53631 0.57067 0.52106 0.0
C1791 C 0.56021 0.59155 0.49822 0.0
C1792 C 0.54777 0.60539 0.49001 0.0
C1793 C 0.52956 0.60165 0.49875 0.0
C1794 C 0.52393 0.58462 0.51436 0.0
C1795 C 0.55348 0.62378 0.47307 0.0
C1796 C 0.54618 0.63894 0.49798 0.0
C1797 C 0.56589 0.62665 0.43264 0.0
C1798 C 0.57455 0.61183 0.40397 0.0
C1799 C 0.56433 0.59962 0.37473 0.0
C1800 C 0.57279 0.58619 0.34593 0.0
C1801 C 0.59144 0.58489 0.34605 0.0
C1802 C 0.60168 0.59702 0.37501 0.0
C1803 C 0.59329 0.61048 0.40377 0.0
H1804 H 0.59796 0.57453 0.32358 0.0
H1805 H 0.52482 0.71052 0.59922 0.0
H1806 H 0.83864 0.60322 0.34205 0.0
H1807 H 0.86742 0.59768 0.38425 0.0
H1808 H 0.84876 0.54565 0.43087 0.0
H1809 H 0.81967 0.55167 0.39152 0.0
H1810 H 0.8691 0.55782 0.50296 0.0
H1811 H 0.877 0.55376 0.31697 0.0
H1812 H 0.87254 0.5674 0.23176 0.0
H1813 H 0.90532 0.61212 0.2774 0.0
H1814 H 0.90982 0.5988 0.3631 0.0
H1815 H 0.95204 0.51298 0.54035 0.0
H1816 H 0.9229 0.52243 0.50715 0.0
H1817 H 0.945 0.57398 0.46953 0.0
H1818 H 0.97407 0.56452 0.50183 0.0
H1819 H 0.92332 0.56452 0.39509 0.0
H1820 H 0.91952 0.5637 0.57954 0.0
H1821 H 0.9216 0.54939 0.66442 0.0
H1822 H 0.87897 0.51344 0.62282 0.0
H1823 H 0.87706 0.52701 0.53702 0.0
C1824 C 0.84068 0.59063 0.36147 0.0
C1825 C 0.82689 0.5778 0.36269 0.0
C1826 C 0.85722 0.5874 0.3855 0.0
C1827 C 0.86072 0.57093 0.4096 0.0
C1828 C 0.84667 0.55841 0.4124 0.0
C1829 C 0.82999 0.56183 0.38961 0.0
C1830 C 0.87909 0.56628 0.42954 0.0
C1831 C 0.88091 0.5591 0.4791 0.0
C1832 C 0.89476 0.5683 0.39933 0.0
C1833 C 0.89376 0.57529 0.34626 0.0
C1834 C 0.88343 0.5664 0.30853 0.0
C1835 C 0.88081 0.57412 0.2603 0.0
C1836 C 0.88864 0.59062 0.24917 0.0
C1837 C 0.89929 0.59932 0.28605 0.0
C1838 C 0.90193 0.59167 0.3344 0.0
C1839 C 0.95072 0.52635 0.52514 0.0
C1840 C 0.96562 0.5379 0.52372 0.0
C1841 C 0.93396 0.53179 0.50604 0.0
C1842 C 0.93145 0.5491 0.48607 0.0
C1843 C 0.94637 0.56057 0.48439 0.0
C1844 C 0.96313 0.55508 0.503 0.0
C1845 C 0.91332 0.55546 0.46822 0.0
C1846 C 0.91157 0.56314 0.41912 0.0
C1847 C 0.89767 0.55374 0.49883 0.0
C1848 C 0.89831 0.54624 0.55146 0.0
C1849 C 0.91069 0.55264 0.58826 0.0
C1850 C 0.91188 0.54462 0.6365 0.0
C1851 C 0.9005 0.53045 0.64861 0.0
C1852 C 0.8878 0.52438 0.61307 0.0
C1853 C 0.8867 0.5322 0.56462 0.0
H1854 H 0.9015 0.524 0.68527 0.0
H1855 H 0.88645 0.59666 0.21199 0.0
loop_
_geom_bond_atom_site_label_1
_geom_bond_atom_site_label_2
_geom_bond_distance
_geom_bond_site_symmetry_2
_ccdc_geom_bond_type
C0 C1 1.264 . S
C0 C5 1.479 . S
C0 C10 1.465 . S
C1 C0 1.264 . S
C1 C3 1.339 . S
C1 H28 0.931 . S
C2 C3 1.395 . S
C2 C4 1.320 . S
C3 C1 1.339 . S
C3 C2 1.395 . S
C3 H29 0.929 . S
C4 C2 1.320 . S
C4 C5 1.405 . S
C4 H30 0.930 . S
C5 C0 1.479 . S
C5 C4 1.405 . S
C5 H31 0.931 . S
U6 O7 2.454 . S
U6 O8 2.458 . S
U6 C9 2.984 . S
U6 C10 2.847 . S
U6 C23 2.882 . S
U6 O24 2.441 . S
U6 O25 2.420 . S
U6 O26 2.455 . S
U6 O27 2.449 . S
O7 U6 2.454 . S
O7 C9 1.353 . S
O8 U6 2.458 . S
O8 C9 1.286 . S
C9 U6 2.984 . S
C9 O7 1.353 . S
C9 O8 1.286 . S
C9 C11 1.363 . S
C10 C0 1.465 . S
C10 U6 2.847 . S
C10 O24 1.249 . S
C10 O25 1.202 . S
C11 C9 1.363 . S
C11 C13 1.408 . S
C11 C16 1.342 . S
C12 C13 1.310 . S
C12 C15 1.461 . S
C12 H32 0.932 . S
C13 C11 1.408 . S
C13 C12 1.310 . S
C13 H33 0.930 . S
C14 C15 1.474 . S
C14 C16 1.285 . S
C14 H34 0.929 1_554 S
C15 C12 1.461 . S
C15 C14 1.474 . S
C16 C11 1.342 . S
C16 C14 1.285 . S
C16 H35 0.930 . S
C17 C20 1.424 1_556 S
C17 C22 1.245 . S
C17 C23 1.428 1_556 S
C18 C21 1.260 . S
C18 C22 1.477 . S
C18 H36 0.932 . S
C19 C20 1.384 1_556 S
C19 C21 1.479 . S
C19 H37 0.929 . S
C20 C17 1.424 1_554 S
C20 C19 1.384 1_554 S
C20 H38 0.928 . S
C21 C18 1.260 . S
C21 C19 1.479 . S
C22 C17 1.245 . S
C22 C18 1.477 . S
C22 H39 0.932 . S
C23 U6 2.882 . S
C23 C17 1.428 1_554 S
C23 O26 1.301 . S
C23 O27 1.282 . S
O24 U6 2.441 . S
O24 C10 1.249 . S
O25 U6 2.420 . S
O25 C10 1.202 . S
O26 U6 2.455 . S
O26 C23 1.301 . S
O27 U6 2.449 . S
O27 C23 1.282 . S
H28 C1 0.931 . S
H29 C3 0.929 . S
H30 C4 0.930 . S
H31 C5 0.931 . S
H32 C12 0.932 . S
H33 C13 0.930 . S
H34 C14 0.929 1_556 S
H35 C16 0.930 . S
H36 C18 0.932 . S
H37 C19 0.929 . S
H38 C20 0.928 . S
H39 C22 0.932 . S
C40 C41 1.264 . S
C40 C45 1.479 . S
C40 C50 1.465 . S
C41 C40 1.264 . S
C41 C43 1.339 . S
C41 H68 0.931 . S
C42 C43 1.395 . S
C42 C44 1.320 . S
C43 C41 1.339 . S
C43 C42 1.395 . S
C43 H69 0.929 . S
C44 C42 1.320 . S
C44 C45 1.405 . S
C44 H70 0.930 . S
C45 C40 1.479 . S
C45 C44 1.405 . S
C45 H71 0.931 . S
U46 O47 2.454 . S
U46 O48 2.458 . S
U46 C49 2.984 . S
U46 C50 2.847 . S
U46 C63 2.882 . S
U46 O64 2.441 . S
U46 O65 2.420 . S
U46 O66 2.455 . S
U46 O67 2.449 . S
O47 U46 2.454 . S
O47 C49 1.353 . S
O48 U46 2.458 . S
O48 C49 1.286 . S
C49 U46 2.984 . S
C49 O47 1.353 . S
C49 O48 1.286 . S
C49 C51 1.363 . S
C50 C40 1.465 . S
C50 U46 2.847 . S
C50 O64 1.249 . S
C50 O65 1.202 . S
C51 C49 1.363 . S
C51 C53 1.408 . S
C51 C56 1.342 . S
C52 C53 1.310 . S
C52 C55 1.461 . S
C52 H72 0.932 . S
C53 C51 1.408 . S
C53 C52 1.310 . S
C53 H73 0.930 . S
C54 C55 1.474 . S
C54 C56 1.285 . S
C54 H74 0.929 1_554 S
C55 C52 1.461 . S
C55 C54 1.474 . S
C56 C51 1.342 . S
C56 C54 1.285 . S
C56 H75 0.930 . S
C57 C60 1.424 . S
C57 C62 1.245 1_554 S
C57 C63 1.428 . S
C58 C61 1.260 . S
C58 C62 1.477 . S
C58 H76 0.932 . S
C59 C60 1.384 1_556 S
C59 C61 1.479 . S
C59 H77 0.929 . S
C60 C57 1.424 . S
C60 C59 1.384 1_554 S
C60 H78 0.928 . S
C61 C58 1.260 . S
C61 C59 1.479 . S
C62 C57 1.245 1_556 S
C62 C58 1.477 . S
C62 H79 0.932 . S
C63 U46 2.882 . S
C63 C57 1.428 . S
C63 O66 1.301 . S
C63 O67 1.282 . S
O64 U46 2.441 . S
O64 C50 1.249 . S
O65 U46 2.420 . S
O65 C50 1.202 . S
O66 U46 2.455 . S
O66 C63 1.301 . S
O67 U46 2.449 . S
O67 C63 1.282 . S
H68 C41 0.931 . S
H69 C43 0.929 . S
H70 C44 0.930 . S
H71 C45 0.931 . S
H72 C52 0.932 . S
H73 C53 0.930 . S
H74 C54 0.929 1_556 S
H75 C56 0.930 . S
H76 C58 0.932 . S
H77 C59 0.929 . S
H78 C60 0.928 . S
H79 C62 0.932 . S
C80 C81 1.264 . S
C80 C85 1.479 . S
C80 C90 1.465 . S
C81 C80 1.264 . S
C81 C83 1.339 . S
C81 H108 0.931 . S
C82 C83 1.395 . S
C82 C84 1.320 . S
C83 C81 1.339 . S
C83 C82 1.395 . S
C83 H109 0.929 . S
C84 C82 1.320 . S
C84 C85 1.405 . S
C84 H110 0.930 . S
C85 C80 1.479 . S
C85 C84 1.405 . S
C85 H111 0.931 . S
U86 O87 2.454 . S
U86 O88 2.458 . S
U86 C89 2.984 . S
U86 C90 2.847 . S
U86 C103 2.882 . S
U86 O104 2.441 . S
U86 O105 2.420 . S
U86 O106 2.455 . S
U86 O107 2.449 . S
O87 U86 2.454 . S
O87 C89 1.353 . S
O88 U86 2.458 . S
O88 C89 1.286 . S
C89 U86 2.984 . S
C89 O87 1.353 . S
C89 O88 1.286 . S
C89 C91 1.363 . S
C90 C80 1.465 . S
C90 U86 2.847 . S
C90 O104 1.249 . S
C90 O105 1.202 . S
C91 C89 1.363 . S
C91 C93 1.408 . S
C91 C96 1.342 . S
C92 C93 1.310 . S
C92 C95 1.461 . S
C92 H112 0.932 . S
C93 C91 1.408 . S
C93 C92 1.310 . S
C93 H113 0.930 . S
C94 C95 1.474 . S
C94 C96 1.285 . S
C94 H114 0.929 1_554 S
C95 C92 1.461 . S
C95 C94 1.474 . S
C96 C91 1.342 . S
C96 C94 1.285 . S
C96 H115 0.930 . S
C97 C100 1.424 . S
C97 C102 1.245 1_554 S
C97 C103 1.428 . S
C98 C101 1.260 . S
C98 C102 1.477 . S
C98 H116 0.932 . S
C99 C100 1.384 1_556 S
C99 C101 1.479 . S
C99 H117 0.929 . S
C100 C97 1.424 . S
C100 C99 1.384 1_554 S
C100 H118 0.928 . S
C101 C98 1.260 . S
C101 C99 1.479 . S
C102 C97 1.245 1_556 S
C102 C98 1.477 . S
C102 H119 0.932 . S
C103 U86 2.882 . S
C103 C97 1.428 . S
C103 O106 1.301 . S
C103 O107 1.282 . S
O104 U86 2.441 . S
O104 C90 1.249 . S
O105 U86 2.420 . S
O105 C90 1.202 . S
O106 U86 2.455 . S
O106 C103 1.301 . S
O107 U86 2.449 . S
O107 C103 1.282 . S
H108 C81 0.931 . S
H109 C83 0.929 . S
H110 C84 0.930 . S
H111 C85 0.931 . S
H112 C92 0.932 . S
H113 C93 0.930 . S
H114 C94 0.929 1_556 S
H115 C96 0.930 . S
H116 C98 0.932 . S
H117 C99 0.929 . S
H118 C100 0.928 . S
H119 C102 0.932 . S
C120 C121 1.264 . S
C120 C125 1.479 . S
C120 C130 1.465 . S
C121 C120 1.264 . S
C121 C123 1.339 . S
C121 H148 0.931 . S
C122 C123 1.395 . S
C122 C124 1.320 . S
C123 C121 1.339 . S
C123 C122 1.395 . S
C123 H149 0.929 . S
C124 C122 1.320 . S
C124 C125 1.405 . S
C124 H150 0.930 . S
C125 C120 1.479 . S
C125 C124 1.405 . S
C125 H151 0.931 . S
U126 O127 2.454 . S
U126 O128 2.458 . S
U126 C129 2.984 . S
U126 C130 2.847 . S
U126 C143 2.882 . S
U126 O144 2.441 . S
U126 O145 2.420 . S
U126 O146 2.455 . S
U126 O147 2.449 . S
O127 U126 2.454 . S
O127 C129 1.353 . S
O128 U126 2.458 . S
O128 C129 1.286 . S
C129 U126 2.984 . S
C129 O127 1.353 . S
C129 O128 1.286 . S
C129 C131 1.363 . S
C130 C120 1.465 . S
C130 U126 2.847 . S
C130 O144 1.249 . S
C130 O145 1.202 . S
C131 C129 1.363 . S
C131 C133 1.408 . S
C131 C136 1.342 . S
C132 C133 1.310 . S
C132 C135 1.461 . S
C132 H152 0.932 . S
C133 C131 1.408 . S
C133 C132 1.310 . S
C133 H153 0.930 . S
C134 C135 1.474 . S
C134 C136 1.285 . S
C134 H154 0.929 1_554 S
C135 C132 1.461 . S
C135 C134 1.474 . S
C136 C131 1.342 . S
C136 C134 1.285 . S
C136 H155 0.930 . S
C137 C140 1.424 1_556 S
C137 C142 1.245 . S
C137 C143 1.428 1_556 S
C138 C141 1.260 . S
C138 C142 1.477 . S
C138 H156 0.932 . S
C139 C140 1.384 1_556 S
C139 C141 1.479 . S
C139 H157 0.929 . S
C140 C137 1.424 1_554 S
C140 C139 1.384 1_554 S
C140 H158 0.928 . S
C141 C138 1.260 . S
C141 C139 1.479 . S
C142 C137 1.245 . S
C142 C138 1.477 . S
C142 H159 0.932 . S
C143 U126 2.882 . S
C143 C137 1.428 1_554 S
C143 O146 1.301 . S
C143 O147 1.282 . S
O144 U126 2.441 . S
O144 C130 1.249 . S
O145 U126 2.420 . S
O145 C130 1.202 . S
O146 U126 2.455 . S
O146 C143 1.301 . S
O147 U126 2.449 . S
O147 C143 1.282 . S
H148 C121 0.931 . S
H149 C123 0.929 . S
H150 C124 0.930 . S
H151 C125 0.931 . S
H152 C132 0.932 . S
H153 C133 0.930 . S
H154 C134 0.929 1_556 S
H155 C136 0.930 . S
H156 C138 0.932 . S
H157 C139 0.929 . S
H158 C140 0.928 . S
H159 C142 0.932 . S
C160 C161 1.264 . S
C160 C165 1.479 . S
C160 C170 1.465 . S
C161 C160 1.264 . S
C161 C163 1.339 . S
C161 H188 0.931 . S
C162 C163 1.395 . S
C162 C164 1.320 . S
C163 C161 1.339 . S
C163 C162 1.395 . S
C163 H189 0.929 . S
C164 C162 1.320 . S
C164 C165 1.405 . S
C164 H190 0.930 . S
C165 C160 1.479 . S
C165 C164 1.405 . S
C165 H191 0.931 . S
U166 O167 2.454 1_554 S
U166 O168 2.458 . S
U166 C169 2.984 . S
U166 C170 2.847 1_554 S
U166 C183 2.882 . S
U166 O184 2.441 1_554 S
U166 O185 2.420 1_554 S
U166 O186 2.455 . S
U166 O187 2.449 . S
O167 U166 2.454 1_556 S
O167 C169 1.353 1_556 S
O168 U166 2.458 . S
O168 C169 1.286 . S
C169 U166 2.984 . S
C169 O167 1.353 1_554 S
C169 O168 1.286 . S
C169 C171 1.363 . S
C170 C160 1.465 . S
C170 U166 2.847 1_556 S
C170 O184 1.249 . S
C170 O185 1.202 . S
C171 C169 1.363 . S
C171 C173 1.408 . S
C171 C176 1.342 . S
C172 C173 1.310 . S
C172 C175 1.461 . S
C172 H192 0.932 1_554 S
C173 C171 1.408 . S
C173 C172 1.310 . S
C173 H193 0.930 1_554 S
C174 C175 1.474 . S
C174 C176 1.285 . S
C174 H194 0.929 . S
C175 C172 1.461 . S
C175 C174 1.474 . S
C176 C171 1.342 . S
C176 C174 1.285 . S
C176 H195 0.930 . S
C177 C180 1.424 . S
C177 C182 1.245 . S
C177 C183 1.428 . S
C178 C181 1.260 . S
C178 C182 1.477 . S
C178 H196 0.932 . S
C179 C180 1.384 . S
C179 C181 1.479 . S
C179 H197 0.929 . S
C180 C177 1.424 . S
C180 C179 1.384 . S
C180 H198 0.928 . S
C181 C178 1.260 . S
C181 C179 1.479 . S
C182 C177 1.245 . S
C182 C178 1.477 . S
C182 H199 0.932 . S
C183 U166 2.882 . S
C183 C177 1.428 . S
C183 O186 1.301 . S
C183 O187 1.282 . S
O184 U166 2.441 1_556 S
O184 C170 1.249 . S
O185 U166 2.420 1_556 S
O185 C170 1.202 . S
O186 U166 2.455 . S
O186 C183 1.301 . S
O187 U166 2.449 . S
O187 C183 1.282 . S
H188 C161 0.931 . S
H189 C163 0.929 . S
H190 C164 0.930 . S
H191 C165 0.931 . S
H192 C172 0.932 1_556 S
H193 C173 0.930 1_556 S
H194 C174 0.929 . S
H195 C176 0.930 . S
H196 C178 0.932 . S
H197 C179 0.929 . S
H198 C180 0.928 . S
H199 C182 0.932 . S
C200 C201 1.264 . S
C200 C205 1.479 . S
C200 C210 1.465 . S
C201 C200 1.264 . S
C201 C203 1.339 . S
C201 H228 0.931 . S
C202 C203 1.395 . S
C202 C204 1.320 . S
C203 C201 1.339 . S
C203 C202 1.395 . S
C203 H229 0.929 . S
C204 C202 1.320 . S
C204 C205 1.405 . S
C204 H230 0.930 . S
C205 C200 1.479 . S
C205 C204 1.405 . S
C205 H231 0.931 . S
U206 O207 2.451 1_554 S
U206 O208 2.465 . S
U206 C209 2.987 . S
U206 C210 2.835 1_554 S
U206 C223 2.891 . S
U206 O224 2.429 1_554 S
U206 O225 2.411 1_554 S
U206 O226 2.467 . S
U206 O227 2.453 . S
O207 U206 2.451 1_556 S
O207 C209 1.353 1_556 S
O208 U206 2.465 . S
O208 C209 1.286 . S
C209 U206 2.987 . S
C209 O207 1.353 1_554 S
C209 O208 1.286 . S
C209 C211 1.363 . S
C210 C200 1.465 . S
C210 U206 2.835 1_556 S
C210 O224 1.249 . S
C210 O225 1.202 . S
C211 C209 1.363 . S
C211 C213 1.408 . S
C211 C216 1.342 . S
C212 C213 1.310 . S
C212 C215 1.461 . S
C212 H232 0.932 1_554 S
C213 C211 1.408 . S
C213 C212 1.310 . S
C213 H233 0.930 1_554 S
C214 C215 1.474 . S
C214 C216 1.285 . S
C214 H234 0.929 . S
C215 C212 1.461 . S
C215 C214 1.474 . S
C216 C211 1.342 . S
C216 C214 1.285 . S
C216 H235 0.930 . S
C217 C220 1.424 . S
C217 C222 1.245 . S
C217 C223 1.428 . S
C218 C221 1.260 . S
C218 C222 1.477 . S
C218 H236 0.932 . S
C219 C220 1.384 . S
C219 C221 1.479 . S
C219 H237 0.929 . S
C220 C217 1.424 . S
C220 C219 1.384 . S
C220 H238 0.928 . S
C221 C218 1.260 . S
C221 C219 1.479 . S
C222 C217 1.245 . S
C222 C218 1.477 . S
C222 H239 0.932 . S
C223 U206 2.891 . S
C223 C217 1.428 . S
C223 O226 1.301 . S
C223 O227 1.282 . S
O224 U206 2.429 1_556 S
O224 C210 1.249 . S
O225 U206 2.411 1_556 S
O225 C210 1.202 . S
O226 U206 2.467 . S
O226 C223 1.301 . S
O227 U206 2.453 . S
O227 C223 1.282 . S
H228 C201 0.931 . S
H229 C203 0.929 . S
H230 C204 0.930 . S
H231 C205 0.931 . S
H232 C212 0.932 1_556 S
H233 C213 0.930 1_556 S
H234 C214 0.929 . S
H235 C216 0.930 . S
H236 C218 0.932 . S
H237 C219 0.929 . S
H238 C220 0.928 . S
H239 C222 0.932 . S
C240 C241 1.264 . S
C240 C245 1.479 . S
C240 C250 1.465 . S
C241 C240 1.264 . S
C241 C243 1.339 . S
C241 H268 0.931 . S
C242 C243 1.395 . S
C242 C244 1.320 . S
C243 C241 1.339 . S
C243 C242 1.395 . S
C243 H269 0.929 . S
C244 C242 1.320 . S
C244 C245 1.405 . S
C244 H270 0.930 . S
C245 C240 1.479 . S
C245 C244 1.405 . S
C245 H271 0.931 . S
U246 O247 2.458 . S
U246 O248 2.445 1_556 S
U246 C249 2.979 1_556 S
U246 C250 2.866 . S
U246 C263 2.868 1_556 S
U246 O264 2.461 . S
U246 O265 2.436 . S
U246 O266 2.436 1_556 S
U246 O267 2.442 1_556 S
O247 U246 2.458 . S
O247 C249 1.353 1_556 S
O248 U246 2.445 1_554 S
O248 C249 1.286 . S
C249 U246 2.979 1_554 S
C249 O247 1.353 1_554 S
C249 O248 1.286 . S
C249 C251 1.363 . S
C250 C240 1.465 . S
C250 U246 2.866 . S
C250 O264 1.249 . S
C250 O265 1.202 . S
C251 C249 1.363 . S
C251 C253 1.408 . S
C251 C256 1.342 . S
C252 C253 1.310 . S
C252 C255 1.461 . S
C252 H272 0.932 1_554 S
C253 C251 1.408 . S
C253 C252 1.310 . S
C253 H273 0.930 1_554 S
C254 C255 1.474 . S
C254 C256 1.285 . S
C254 H274 0.929 . S
C255 C252 1.461 . S
C255 C254 1.474 . S
C256 C251 1.342 . S
C256 C254 1.285 . S
C256 H275 0.930 . S
C257 C260 1.424 . S
C257 C262 1.245 . S
C257 C263 1.428 . S
C258 C261 1.260 . S
C258 C262 1.477 . S
C258 H276 0.932 . S
C259 C260 1.384 . S
C259 C261 1.479 . S
C259 H277 0.929 . S
C260 C257 1.424 . S
C260 C259 1.384 . S
C260 H278 0.928 . S
C261 C258 1.260 . S
C261 C259 1.479 . S
C262 C257 1.245 . S
C262 C258 1.477 . S
C262 H279 0.932 . S
C263 U246 2.868 1_554 S
C263 C257 1.428 . S
C263 O266 1.301 . S
C263 O267 1.282 . S
O264 U246 2.461 . S
O264 C250 1.249 . S
O265 U246 2.436 . S
O265 C250 1.202 . S
O266 U246 2.436 1_554 S
O266 C263 1.301 . S
O267 U246 2.442 1_554 S
O267 C263 1.282 . S
H268 C241 0.931 . S
H269 C243 0.929 . S
H270 C244 0.930 . S
H271 C245 0.931 . S
H272 C252 0.932 1_556 S
H273 C253 0.930 1_556 S
H274 C254 0.929 . S
H275 C256 0.930 . S
H276 C258 0.932 . S
H277 C259 0.929 . S
H278 C260 0.928 . S
H279 C262 0.932 . S
C280 C281 1.264 . S
C280 C285 1.479 . S
C280 C290 1.465 . S
C281 C280 1.264 . S
C281 C283 1.339 . S
C281 H308 0.931 . S
C282 C283 1.395 . S
C282 C284 1.320 . S
C283 C281 1.339 . S
C283 C282 1.395 . S
C283 H309 0.929 . S
C284 C282 1.320 . S
C284 C285 1.405 . S
C284 H310 0.930 . S
C285 C280 1.479 . S
C285 C284 1.405 . S
C285 H311 0.931 . S
U286 O287 2.454 1_554 S
U286 O288 2.458 . S
U286 C289 2.984 . S
U286 C290 2.847 1_554 S
U286 C303 2.882 . S
U286 O304 2.441 1_554 S
U286 O305 2.420 1_554 S
U286 O306 2.455 . S
U286 O307 2.449 . S
O287 U286 2.454 1_556 S
O287 C289 1.353 1_556 S
O288 U286 2.458 . S
O288 C289 1.286 . S
C289 U286 2.984 . S
C289 O287 1.353 1_554 S
C289 O288 1.286 . S
C289 C291 1.363 . S
C290 C280 1.465 . S
C290 U286 2.847 1_556 S
C290 O304 1.249 . S
C290 O305 1.202 . S
C291 C289 1.363 . S
C291 C293 1.408 . S
C291 C296 1.342 . S
C292 C293 1.310 . S
C292 C295 1.461 . S
C292 H312 0.932 1_554 S
C293 C291 1.408 . S
C293 C292 1.310 . S
C293 H313 0.930 1_554 S
C294 C295 1.474 . S
C294 C296 1.285 . S
C294 H314 0.929 . S
C295 C292 1.461 . S
C295 C294 1.474 . S
C296 C291 1.342 . S
C296 C294 1.285 . S
C296 H315 0.930 . S
C297 C300 1.424 . S
C297 C302 1.245 . S
C297 C303 1.428 . S
C298 C301 1.260 . S
C298 C302 1.477 . S
C298 H316 0.932 . S
C299 C300 1.384 . S
C299 C301 1.479 . S
C299 H317 0.929 . S
C300 C297 1.424 . S
C300 C299 1.384 . S
C300 H318 0.928 . S
C301 C298 1.260 . S
C301 C299 1.479 . S
C302 C297 1.245 . S
C302 C298 1.477 . S
C302 H319 0.932 . S
C303 U286 2.882 . S
C303 C297 1.428 . S
C303 O306 1.301 . S
C303 O307 1.282 . S
O304 U286 2.441 1_556 S
O304 C290 1.249 . S
O305 U286 2.420 1_556 S
O305 C290 1.202 . S
O306 U286 2.455 . S
O306 C303 1.301 . S
O307 U286 2.449 . S
O307 C303 1.282 . S
H308 C281 0.931 . S
H309 C283 0.929 . S
H310 C284 0.930 . S
H311 C285 0.931 . S
H312 C292 0.932 1_556 S
H313 C293 0.930 1_556 S
H314 C294 0.929 . S
H315 C296 0.930 . S
H316 C298 0.932 . S
H317 C299 0.929 . S
H318 C300 0.928 . S
H319 C302 0.932 . S
Gd320 N351 2.661 . S
Gd320 N357 2.601 . S
Gd320 O364 2.545 . S
Gd320 O365 2.606 1_655 S
Gd320 O367 2.429 . S
Gd320 O368 2.545 1_655 S
Gd320 O369 2.412 . S
Gd320 O371 2.362 1_545 S
Gd320 O372 2.324 1_655 S
Gd320 C379 2.828 . S
Gd321 N330 2.661 1_565 S
Gd321 N334 2.601 . S
Gd321 O365 2.362 1_565 S
Gd321 O366 2.324 1_455 S
Gd321 O370 2.545 . S
Gd321 O371 2.606 1_455 S
Gd321 O373 2.429 . S
Gd321 O374 2.545 . S
Gd321 O375 2.412 . S
Gd321 C388 2.828 . S
C322 C325 1.417 . S
C322 C327 1.431 . S
C322 C328 1.412 . S
C323 C326 1.437 . S
C323 C327 1.317 . S
C323 H342 0.929 . S
C324 C325 1.426 . S
C324 C326 1.413 . S
C324 N334 1.359 1_545 S
C325 C322 1.417 . S
C325 C324 1.426 . S
C325 N330 1.350 . S
C326 C323 1.437 . S
C326 C324 1.413 . S
C326 C336 1.391 1_545 S
C327 C322 1.431 . S
C327 C323 1.317 . S
C327 H338 0.930 . S
C328 C322 1.412 . S
C328 C329 1.355 . S
C328 H340 0.930 . S
C329 C328 1.355 . S
C329 C331 1.402 . S
C329 H341 0.930 1_455 S
N330 Gd321 2.661 1_545 S
N330 C325 1.350 . S
N330 C331 1.307 . S
C331 C329 1.402 . S
C331 N330 1.307 . S
C331 H332 0.930 1_455 S
H332 C331 0.930 1_655 S
C333 N334 1.334 . S
C333 C335 1.394 . S
C333 H337 0.930 . S
N334 Gd321 2.601 . S
N334 C324 1.359 1_565 S
N334 C333 1.334 . S
C335 C333 1.394 . S
C335 C336 1.359 . S
C335 H347 0.930 . S
C336 C326 1.391 1_565 S
C336 C335 1.359 . S
C336 H348 0.935 . S
H337 C333 0.930 . S
H338 C327 0.930 . S
H339 C356 0.930 . S
H340 C328 0.930 . S
H341 C329 0.930 1_655 S
H342 C323 0.929 . S
H343 C361 0.930 . S
H344 C352 0.930 . S
H345 C353 0.930 . S
H346 C377 0.929 . S
H347 C335 0.930 . S
H348 C336 0.935 . S
H349 C378 0.930 . S
H350 C359 0.930 . S
N351 Gd320 2.661 . S
N351 C355 1.350 . S
N351 C356 1.307 1_645 S
C352 H344 0.930 . S
C352 C353 1.355 1_655 S
C352 C354 1.412 . S
C353 H345 0.930 . S
C353 C352 1.355 1_455 S
C353 C356 1.402 . S
C354 C352 1.412 . S
C354 C355 1.417 1_565 S
C354 C378 1.431 . S
C355 N351 1.350 . S
C355 C354 1.417 1_545 S
C355 C358 1.426 . S
C356 H339 0.930 . S
C356 N351 1.307 1_465 S
C356 C353 1.402 . S
N357 Gd320 2.601 . S
N357 C358 1.359 . S
N357 C361 1.334 . S
C358 C355 1.426 . S
C358 N357 1.359 . S
C358 C362 1.413 . S
C359 H350 0.930 . S
C359 C360 1.359 . S
C359 C361 1.394 . S
C360 C359 1.359 . S
C360 C362 1.391 . S
C360 H363 0.929 . S
C361 H343 0.930 . S
C361 N357 1.334 . S
C361 C359 1.394 . S
C362 C358 1.413 . S
C362 C360 1.391 . S
C362 C377 1.437 1_545 S
H363 C360 0.929 . S
O364 Gd320 2.545 . S
O364 C379 1.258 . S
O365 Gd320 2.606 1_455 S
O365 Gd321 2.362 1_545 S
O365 C376 1.284 . S
O366 Gd321 2.324 1_655 S
O366 C386 1.254 1_565 S
O367 Gd320 2.429 . S
O367 C386 1.268 . S
O368 Gd320 2.545 1_455 S
O368 C376 1.250 . S
O369 Gd320 2.412 . S
O369 C379 1.252 . S
O370 Gd321 2.545 . S
O370 C388 1.258 . S
O371 Gd320 2.362 1_565 S
O371 Gd321 2.606 1_655 S
O371 C387 1.284 . S
O372 Gd320 2.324 1_455 S
O372 C395 1.254 . S
O373 Gd321 2.429 . S
O373 C395 1.268 1_565 S
O374 Gd321 2.545 . S
O374 C387 1.250 1_455 S
O375 Gd321 2.412 . S
O375 C388 1.252 . S
C376 O365 1.284 . S
C376 O368 1.250 . S
C377 H346 0.929 . S
C377 C362 1.437 1_565 S
C377 C378 1.317 . S
C378 H349 0.930 . S
C378 C354 1.431 . S
C378 C377 1.317 . S
C379 Gd320 2.828 . S
C379 O364 1.258 . S
C379 O369 1.252 . S
C379 C380 1.497 . S
C380 C379 1.497 . S
C380 C381 1.395 . S
C380 C382 1.372 1_655 S
C381 C380 1.395 . S
C381 C384 1.398 . S
C381 H396 0.930 . S
C382 C380 1.372 1_455 S
C382 C383 1.390 1_455 S
C382 H397 0.938 . S
C383 C382 1.390 1_655 S
C383 C385 1.415 . S
C384 C381 1.398 . S
C384 C385 1.380 . S
C384 H398 0.930 . S
C385 C383 1.415 . S
C385 C384 1.380 . S
C385 H399 0.930 . S
C386 O366 1.254 1_545 S
C386 O367 1.268 . S
C387 O371 1.284 . S
C387 O374 1.250 1_655 S
C388 Gd321 2.828 . S
C388 O370 1.258 . S
C388 O375 1.252 . S
C388 C389 1.497 . S
C389 C388 1.497 . S
C389 C390 1.395 . S
C389 C391 1.380 . S
C390 C389 1.395 . S
C390 C393 1.398 . S
C390 H400 0.930 . S
C391 C389 1.380 . S
C391 C392 1.391 . S
C391 H401 0.930 1_455 S
C392 C391 1.391 . S
C392 C394 1.387 . S
C393 C390 1.398 . S
C393 C394 1.380 . S
C393 H402 0.930 . S
C394 C392 1.387 . S
C394 C393 1.380 . S
C394 H403 0.930 . S
C395 O372 1.254 . S
C395 O373 1.268 1_545 S
H396 C381 0.930 . S
H397 C382 0.938 . S
H398 C384 0.930 . S
H399 C385 0.930 . S
H400 C390 0.930 . S
H401 C391 0.930 1_655 S
H402 C393 0.930 . S
H403 C394 0.930 . S
Gd404 N435 2.661 . S
Gd404 N441 2.601 . S
Gd404 O448 2.545 . S
Gd404 O449 2.606 1_565 S
Gd404 O451 2.429 . S
Gd404 O452 2.545 1_565 S
Gd404 O453 2.402 1_565 S
Gd404 O455 2.362 . S
Gd404 O456 2.324 1_565 S
Gd404 C463 2.828 . S
Gd405 N414 2.661 . S
Gd405 N418 2.601 . S
Gd405 O449 2.362 . S
Gd405 O450 2.324 1_545 S
Gd405 O454 2.545 . S
Gd405 O455 2.606 1_545 S
Gd405 O457 2.429 . S
Gd405 O458 2.545 . S
Gd405 O459 2.412 . S
Gd405 C472 2.828 . S
C406 C409 1.417 . S
C406 C411 1.431 . S
C406 C412 1.412 . S
C407 C410 1.437 . S
C407 C411 1.317 . S
C407 H426 0.929 . S
C408 C409 1.426 . S
C408 C410 1.413 . S
C408 N418 1.359 . S
C409 C406 1.417 . S
C409 C408 1.426 . S
C409 N414 1.350 . S
C410 C407 1.437 . S
C410 C408 1.413 . S
C410 C420 1.391 . S
C411 C406 1.431 . S
C411 C407 1.317 . S
C411 H422 0.930 . S
C412 C406 1.412 . S
C412 C413 1.355 . S
C412 H424 0.930 . S
C413 C412 1.355 . S
C413 C415 1.402 . S
C413 H425 0.930 1_545 S
N414 Gd405 2.661 . S
N414 C409 1.350 . S
N414 C415 1.307 . S
C415 C413 1.402 . S
C415 N414 1.307 . S
C415 H416 0.930 1_545 S
H416 C415 0.930 1_565 S
C417 N418 1.334 . S
C417 C419 1.394 . S
C417 H421 0.930 . S
N418 Gd405 2.601 . S
N418 C408 1.359 . S
N418 C417 1.334 . S
C419 C417 1.394 . S
C419 C420 1.359 . S
C419 H431 0.930 . S
C420 C410 1.391 . S
C420 C419 1.359 . S
C420 H432 0.929 . S
H421 C417 0.930 . S
H422 C411 0.930 . S
H423 C440 0.930 . S
H424 C412 0.930 . S
H425 C413 0.930 1_565 S
H426 C407 0.929 . S
H427 C445 0.930 . S
H428 C436 0.930 . S
H429 C437 0.930 . S
H430 C461 0.929 . S
H431 C419 0.930 . S
H432 C420 0.929 . S
H433 C462 0.930 . S
H434 C443 0.930 . S
N435 Gd404 2.661 . S
N435 C439 1.350 . S
N435 C440 1.307 1_565 S
C436 H428 0.930 . S
C436 C437 1.355 1_565 S
C436 C438 1.412 . S
C437 H429 0.930 . S
C437 C436 1.355 1_545 S
C437 C440 1.402 . S
C438 C436 1.412 . S
C438 C439 1.417 . S
C438 C462 1.431 . S
C439 N435 1.350 . S
C439 C438 1.417 . S
C439 C442 1.426 . S
C440 H423 0.930 . S
C440 N435 1.307 1_545 S
C440 C437 1.402 . S
N441 Gd404 2.601 . S
N441 C442 1.359 . S
N441 C445 1.334 . S
C442 C439 1.426 . S
C442 N441 1.359 . S
C442 C446 1.413 . S
C443 H434 0.930 . S
C443 C444 1.359 . S
C443 C445 1.394 . S
C444 C443 1.359 . S
C444 C446 1.391 . S
C444 H447 0.929 . S
C445 H427 0.930 . S
C445 N441 1.334 . S
C445 C443 1.394 . S
C446 C442 1.413 . S
C446 C444 1.391 . S
C446 C461 1.437 . S
H447 C444 0.929 . S
O448 Gd404 2.545 . S
O448 C463 1.258 . S
O449 Gd404 2.606 1_545 S
O449 Gd405 2.362 . S
O449 C460 1.284 . S
O450 Gd405 2.324 1_565 S
O450 C470 1.254 . S
O451 Gd404 2.429 . S
O451 C470 1.268 . S
O452 Gd404 2.545 1_545 S
O452 C460 1.250 . S
O453 Gd404 2.402 1_545 S
O453 C463 1.211 1_545 S
O454 Gd405 2.545 . S
O454 C472 1.258 . S
O455 Gd404 2.362 . S
O455 Gd405 2.606 1_565 S
O455 C471 1.284 . S
O456 Gd404 2.324 1_545 S
O456 C479 1.254 . S
O457 Gd405 2.429 . S
O457 C479 1.268 . S
O458 Gd405 2.545 . S
O458 C471 1.250 1_545 S
O459 Gd405 2.412 . S
O459 C472 1.252 . S
C460 O449 1.284 . S
C460 O452 1.250 . S
C461 H430 0.929 . S
C461 C446 1.437 . S
C461 C462 1.317 . S
C462 H433 0.930 . S
C462 C438 1.431 . S
C462 C461 1.317 . S
C463 Gd404 2.828 . S
C463 O448 1.258 . S
C463 O453 1.211 1_565 S
C463 C464 1.497 . S
C464 C463 1.497 . S
C464 C465 1.395 . S
C464 C466 1.380 1_565 S
C465 C464 1.395 . S
C465 C468 1.398 . S
C465 H480 0.930 . S
C466 C464 1.380 1_545 S
C466 C467 1.393 . S
C466 H481 0.930 . S
C467 C466 1.393 . S
C467 C469 1.360 1_545 S
C468 C465 1.398 . S
C468 C469 1.380 . S
C468 H482 0.930 . S
C469 C467 1.360 1_565 S
C469 C468 1.380 . S
C469 H483 0.930 . S
C470 O450 1.254 . S
C470 O451 1.268 . S
C471 O455 1.284 . S
C471 O458 1.250 1_565 S
C472 Gd405 2.828 . S
C472 O454 1.258 . S
C472 O459 1.252 . S
C472 C473 1.497 . S
C473 C472 1.497 . S
C473 C474 1.395 . S
C473 C475 1.380 . S
C474 C473 1.395 . S
C474 C477 1.398 . S
C474 H484 0.930 . S
C475 C473 1.380 . S
C475 C476 1.391 . S
C475 H485 0.941 . S
C476 C475 1.391 . S
C476 C478 1.387 . S
C477 C474 1.398 . S
C477 C478 1.380 . S
C477 H486 0.930 . S
C478 C476 1.387 . S
C478 C477 1.380 . S
C478 H487 0.930 . S
C479 O456 1.254 . S
C479 O457 1.268 . S
H480 C465 0.930 . S
H481 C466 0.930 . S
H482 C468 0.930 . S
H483 C469 0.930 . S
H484 C474 0.930 . S
H485 C475 0.941 . S
H486 C477 0.930 . S
H487 C478 0.930 . S
Gd488 N519 2.661 . S
Gd488 N525 2.601 . S
Gd488 O532 2.545 . S
Gd488 O533 2.606 . S
Gd488 O535 2.429 . S
Gd488 O536 2.545 . S
Gd488 O537 2.412 . S
Gd488 O539 2.362 . S
Gd488 O540 2.324 . S
Gd488 C547 2.828 . S
Gd489 N498 2.661 . S
Gd489 N502 2.601 . S
Gd489 O533 2.362 . S
Gd489 O534 2.324 . S
Gd489 O538 2.545 . S
Gd489 O539 2.606 . S
Gd489 O541 2.429 . S
Gd489 O542 2.545 . S
Gd489 O543 2.412 . S
Gd489 C556 2.828 . S
C490 C493 1.417 . S
C490 C495 1.431 . S
C490 C496 1.412 . S
C491 C494 1.437 . S
C491 C495 1.317 . S
C491 H510 0.929 . S
C492 C493 1.426 . S
C492 C494 1.413 . S
C492 N502 1.359 . S
C493 C490 1.417 . S
C493 C492 1.426 . S
C493 N498 1.350 . S
C494 C491 1.437 . S
C494 C492 1.413 . S
C494 C504 1.391 . S
C495 C490 1.431 . S
C495 C491 1.317 . S
C495 H506 0.930 . S
C496 C490 1.412 . S
C496 C497 1.355 . S
C496 H508 0.930 . S
C497 C496 1.355 . S
C497 C499 1.402 . S
C497 H509 0.930 . S
N498 Gd489 2.661 . S
N498 C493 1.350 . S
N498 C499 1.307 . S
C499 C497 1.402 . S
C499 N498 1.307 . S
C499 H500 0.930 . S
H500 C499 0.930 . S
C501 N502 1.334 . S
C501 C503 1.394 . S
C501 H505 0.930 . S
N502 Gd489 2.601 . S
N502 C492 1.359 . S
N502 C501 1.334 . S
C503 C501 1.394 . S
C503 C504 1.359 . S
C503 H515 0.930 . S
C504 C494 1.391 . S
C504 C503 1.359 . S
C504 H516 0.929 . S
H505 C501 0.930 . S
H506 C495 0.930 . S
H507 C524 0.930 . S
H508 C496 0.930 . S
H509 C497 0.930 . S
H510 C491 0.929 . S
H511 C529 0.930 . S
H512 C520 0.930 . S
H513 C521 0.930 . S
H514 C545 0.929 . S
H515 C503 0.930 . S
H516 C504 0.929 . S
H517 C546 0.930 . S
H518 C527 0.930 . S
N519 Gd488 2.661 . S
N519 C523 1.350 . S
N519 C524 1.307 . S
C520 H512 0.930 . S
C520 C521 1.355 . S
C520 C522 1.412 . S
C521 H513 0.930 . S
C521 C520 1.355 . S
C521 C524 1.402 . S
C522 C520 1.412 . S
C522 C523 1.417 . S
C522 C546 1.431 . S
C523 N519 1.350 . S
C523 C522 1.417 . S
C523 C526 1.426 . S
C524 H507 0.930 . S
C524 N519 1.307 . S
C524 C521 1.402 . S
N525 Gd488 2.601 . S
N525 C526 1.359 . S
N525 C529 1.334 . S
C526 C523 1.426 . S
C526 N525 1.359 . S
C526 C530 1.413 . S
C527 H518 0.930 . S
C527 C528 1.359 . S
C527 C529 1.394 . S
C528 C527 1.359 . S
C528 C530 1.391 . S
C528 H531 0.929 . S
C529 H511 0.930 . S
C529 N525 1.334 . S
C529 C527 1.394 . S
C530 C526 1.413 . S
C530 C528 1.391 . S
C530 C545 1.437 . S
H531 C528 0.929 . S
O532 Gd488 2.545 . S
O532 C547 1.258 . S
O533 Gd488 2.606 . S
O533 Gd489 2.362 . S
O533 C544 1.284 . S
O534 Gd489 2.324 . S
O534 C554 1.254 . S
O535 Gd488 2.429 . S
O535 C554 1.268 . S
O536 Gd488 2.545 . S
O536 C544 1.250 . S
O537 Gd488 2.412 . S
O537 C547 1.252 . S
O538 Gd489 2.545 . S
O538 C556 1.258 . S
O539 Gd488 2.362 . S
O539 Gd489 2.606 . S
O539 C555 1.284 . S
O540 Gd488 2.324 . S
O540 C563 1.254 . S
O541 Gd489 2.429 . S
O541 C563 1.268 . S
O542 Gd489 2.545 . S
O542 C555 1.250 . S
O543 Gd489 2.412 . S
O543 C556 1.252 . S
C544 O533 1.284 . S
C544 O536 1.250 . S
C545 H514 0.929 . S
C545 C530 1.437 . S
C545 C546 1.317 . S
C546 H517 0.930 . S
C546 C522 1.431 . S
C546 C545 1.317 . S
C547 Gd488 2.828 . S
C547 O532 1.258 . S
C547 O537 1.252 . S
C547 C548 1.497 . S
C548 C547 1.497 . S
C548 C549 1.395 . S
C548 C550 1.380 . S
C549 C548 1.395 . S
C549 C552 1.398 . S
C549 H564 0.930 . S
C550 C548 1.380 . S
C550 C551 1.391 . S
C550 H565 0.930 . S
C551 C550 1.391 . S
C551 C553 1.387 . S
C552 C549 1.398 . S
C552 C553 1.380 . S
C552 H566 0.930 . S
C553 C551 1.387 . S
C553 C552 1.380 . S
C553 H567 0.930 . S
C554 O534 1.254 . S
C554 O535 1.268 . S
C555 O539 1.284 . S
C555 O542 1.250 . S
C556 Gd489 2.828 . S
C556 O538 1.258 . S
C556 O543 1.252 . S
C556 C557 1.497 . S
C557 C556 1.497 . S
C557 C558 1.395 . S
C557 C559 1.380 . S
C558 C557 1.395 . S
C558 C561 1.398 . S
C558 H568 0.930 . S
C559 C557 1.380 . S
C559 C560 1.391 . S
C559 H569 0.930 . S
C560 C559 1.391 . S
C560 C562 1.387 . S
C561 C558 1.398 . S
C561 C562 1.380 . S
C561 H570 0.930 . S
C562 C560 1.387 . S
C562 C561 1.380 . S
C562 H571 0.930 . S
C563 O540 1.254 . S
C563 O541 1.268 . S
H564 C549 0.930 . S
H565 C550 0.930 . S
H566 C552 0.930 . S
H567 C553 0.930 . S
H568 C558 0.930 . S
H569 C559 0.930 . S
H570 C561 0.930 . S
H571 C562 0.930 . S
Gd572 N603 2.661 . S
Gd572 N609 2.601 . S
Gd572 O616 2.545 . S
Gd572 O617 2.606 1_655 S
Gd572 O619 2.429 1_655 S
Gd572 O620 2.545 . S
Gd572 O621 2.412 . S
Gd572 O623 2.362 1_655 S
Gd572 O624 2.324 . S
Gd572 C631 2.828 . S
Gd573 N582 2.661 . S
Gd573 N586 2.601 . S
Gd573 O617 2.362 . S
Gd573 O618 2.324 . S
Gd573 O622 2.545 . S
Gd573 O623 2.606 . S
Gd573 O625 2.429 1_455 S
Gd573 O626 2.545 . S
Gd573 O627 2.412 . S
Gd573 C640 2.828 . S
C574 C577 1.417 . S
C574 C579 1.431 . S
C574 C580 1.412 . S
C575 C578 1.437 . S
C575 C579 1.317 . S
C575 H594 0.929 . S
C576 C577 1.426 . S
C576 C578 1.413 . S
C576 N586 1.359 . S
C577 C574 1.417 . S
C577 C576 1.426 . S
C577 N582 1.350 . S
C578 C575 1.437 . S
C578 C576 1.413 . S
C578 C588 1.391 . S
C579 C574 1.431 . S
C579 C575 1.317 . S
C579 H590 0.930 . S
C580 C574 1.412 . S
C580 C581 1.355 . S
C580 H592 0.930 . S
C581 C580 1.355 . S
C581 C583 1.402 . S
C581 H593 0.930 . S
N582 Gd573 2.661 . S
N582 C577 1.350 . S
N582 C583 1.307 . S
C583 C581 1.402 . S
C583 N582 1.307 . S
C583 H584 0.930 . S
H584 C583 0.930 . S
C585 N586 1.334 . S
C585 C587 1.394 . S
C585 H589 0.920 1_455 S
N586 Gd573 2.601 . S
N586 C576 1.359 . S
N586 C585 1.334 . S
C587 C585 1.394 . S
C587 C588 1.359 . S
C587 H599 0.902 1_455 S
C588 C578 1.391 . S
C588 C587 1.359 . S
C588 H600 0.929 . S
H589 C585 0.920 1_655 S
H590 C579 0.930 . S
H591 C608 0.930 . S
H592 C580 0.930 . S
H593 C581 0.930 . S
H594 C575 0.929 . S
H595 C613 0.930 . S
H596 C604 0.930 . S
H597 C605 0.930 . S
H598 C629 0.929 . S
H599 C587 0.902 1_655 S
H600 C588 0.929 . S
H601 C630 0.930 . S
H602 C611 0.930 . S
N603 Gd572 2.661 . S
N603 C607 1.350 . S
N603 C608 1.307 . S
C604 H596 0.930 . S
C604 C605 1.355 . S
C604 C606 1.412 . S
C605 H597 0.930 . S
C605 C604 1.355 . S
C605 C608 1.402 . S
C606 C604 1.412 . S
C606 C607 1.417 . S
C606 C630 1.431 . S
C607 N603 1.350 . S
C607 C606 1.417 . S
C607 C610 1.426 . S
C608 H591 0.930 . S
C608 N603 1.307 . S
C608 C605 1.402 . S
N609 Gd572 2.601 . S
N609 C610 1.359 . S
N609 C613 1.334 1_655 S
C610 C607 1.426 . S
C610 N609 1.359 . S
C610 C614 1.413 . S
C611 H602 0.930 . S
C611 C612 1.359 1_455 S
C611 C613 1.394 . S
C612 C611 1.359 1_655 S
C612 C614 1.391 . S
C612 H615 0.929 . S
C613 H595 0.930 . S
C613 N609 1.334 1_455 S
C613 C611 1.394 . S
C614 C610 1.413 . S
C614 C612 1.391 . S
C614 C629 1.437 . S
H615 C612 0.929 . S
O616 Gd572 2.545 . S
O616 C631 1.258 . S
O617 Gd572 2.606 1_455 S
O617 Gd573 2.362 . S
O617 C628 1.284 1_455 S
O618 Gd573 2.324 . S
O618 C638 1.254 . S
O619 Gd572 2.429 1_455 S
O619 C638 1.268 . S
O620 Gd572 2.545 . S
O620 C628 1.250 . S
O621 Gd572 2.412 . S
O621 C631 1.252 . S
O622 Gd573 2.545 . S
O622 C640 1.258 . S
O623 Gd572 2.362 1_455 S
O623 Gd573 2.606 . S
O623 C639 1.284 . S
O624 Gd572 2.324 . S
O624 C647 1.254 . S
O625 Gd573 2.429 1_655 S
O625 C647 1.268 . S
O626 Gd573 2.545 . S
O626 C639 1.250 . S
O627 Gd573 2.412 . S
O627 C640 1.252 . S
C628 O617 1.284 1_655 S
C628 O620 1.250 . S
C629 H598 0.929 . S
C629 C614 1.437 . S
C629 C630 1.317 . S
C630 H601 0.930 . S
C630 C606 1.431 . S
C630 C629 1.317 . S
C631 Gd572 2.828 . S
C631 O616 1.258 . S
C631 O621 1.252 . S
C631 C632 1.497 . S
C632 C631 1.497 . S
C632 C633 1.395 . S
C632 C634 1.380 . S
C633 C632 1.395 . S
C633 C636 1.398 . S
C633 H648 0.930 . S
C634 C632 1.380 . S
C634 C635 1.391 . S
C634 H649 0.930 . S
C635 C634 1.391 . S
C635 C637 1.387 . S
C636 C633 1.398 . S
C636 C637 1.380 . S
C636 H650 0.930 . S
C637 C635 1.387 . S
C637 C636 1.380 . S
C637 H651 0.930 . S
C638 O618 1.254 . S
C638 O619 1.268 . S
C639 O623 1.284 . S
C639 O626 1.250 . S
C640 Gd573 2.828 . S
C640 O622 1.258 . S
C640 O627 1.252 . S
C640 C641 1.497 . S
C641 C640 1.497 . S
C641 C642 1.395 . S
C641 C643 1.380 . S
C642 C641 1.395 . S
C642 C645 1.398 . S
C642 H652 0.930 . S
C643 C641 1.380 . S
C643 C644 1.391 . S
C643 H653 0.930 . S
C644 C643 1.391 . S
C644 C646 1.387 . S
C645 C642 1.398 . S
C645 C646 1.380 . S
C645 H654 0.930 . S
C646 C644 1.387 . S
C646 C645 1.380 . S
C646 H655 0.930 . S
C647 O624 1.254 . S
C647 O625 1.268 . S
H648 C633 0.930 . S
H649 C634 0.930 . S
H650 C636 0.930 . S
H651 C637 0.930 . S
H652 C642 0.930 . S
H653 C643 0.930 . S
H654 C645 0.930 . S
H655 C646 0.930 . S
H656 C674 0.951 . S
H657 C676 0.951 . S
H658 C678 0.950 . S
H659 C679 0.950 . S
H660 C681 0.950 . S
H661 C684 0.950 . S
H662 C685 0.950 . S
H663 C687 0.950 1_565 S
H664 C688 0.950 . S
H665 C689 0.951 . S
H666 C691 0.951 . S
H667 C693 0.950 . S
H668 C694 0.950 1_565 S
H669 C696 0.950 . S
H670 C699 0.950 . S
H671 C700 0.950 . S
H672 C702 0.950 . S
H673 C703 0.950 . S
C674 H656 0.951 . S
C674 C675 1.366 . S
C674 C676 1.388 . S
C675 C674 1.366 . S
C675 C679 1.385 . S
C676 H657 0.951 . S
C676 C674 1.388 . S
C676 C677 1.366 . S
C677 C676 1.366 . S
C677 C678 1.414 . S
C677 C680 1.499 . S
C678 H658 0.950 . S
C678 C677 1.414 . S
C678 C679 1.374 . S
C679 H659 0.950 . S
C679 C675 1.385 . S
C679 C678 1.374 . S
C680 C677 1.499 . S
C680 C681 1.373 . S
C680 C682 1.389 . S
C681 H660 0.950 . S
C681 C680 1.373 . S
C681 C697 1.377 . S
C682 C680 1.389 . S
C682 C683 1.524 . S
C682 C696 1.377 . S
C683 C682 1.524 . S
C683 C684 1.397 . S
C683 C688 1.363 . S
C684 H661 0.950 . S
C684 C683 1.397 . S
C684 C685 1.334 . S
C685 H662 0.950 . S
C685 C684 1.334 . S
C685 C686 1.287 . S
C686 C685 1.287 . S
C686 C687 1.524 . S
C686 H705 0.913 . S
C687 H663 0.950 1_545 S
C687 C686 1.524 . S
C687 C688 1.415 . S
C688 H664 0.950 . S
C688 C683 1.363 . S
C688 C687 1.415 . S
C689 H665 0.951 . S
C689 C690 1.366 . S
C689 C691 1.388 . S
C690 C689 1.366 . S
C690 C694 1.385 . S
C691 H666 0.951 . S
C691 C689 1.388 . S
C691 C692 1.366 . S
C692 C691 1.366 . S
C692 C693 1.414 . S
C692 C695 1.499 . S
C693 H667 0.950 . S
C693 C692 1.414 . S
C693 C694 1.374 . S
C694 H668 0.950 1_545 S
C694 C690 1.385 . S
C694 C693 1.374 . S
C695 C692 1.499 . S
C695 C696 1.373 . S
C695 C697 1.389 . S
C696 H669 0.950 . S
C696 C682 1.377 . S
C696 C695 1.373 . S
C697 C681 1.377 . S
C697 C695 1.389 . S
C697 C698 1.524 . S
C698 C697 1.524 . S
C698 C699 1.397 . S
C698 C703 1.363 . S
C699 H670 0.950 . S
C699 C698 1.397 . S
C699 C700 1.334 . S
C700 H671 0.950 . S
C700 C699 1.334 . S
C700 C701 1.287 . S
C701 C700 1.287 . S
C701 C702 1.524 . S
C701 H704 0.999 . S
C702 H672 0.950 . S
C702 C701 1.524 . S
C702 C703 1.415 . S
C703 H673 0.950 . S
C703 C698 1.363 . S
C703 C702 1.415 . S
H704 C701 0.999 . S
H705 C686 0.913 . S
H706 C724 0.951 . S
H707 C726 0.951 . S
H708 C728 0.950 . S
H709 C729 0.950 . S
H710 C731 0.950 . S
H711 C734 0.950 . S
H712 C735 0.950 . S
H713 C737 0.950 . S
H714 C738 0.950 . S
H715 C739 0.951 . S
H716 C741 0.951 . S
H717 C743 0.950 . S
H718 C744 0.950 . S
H719 C746 0.950 . S
H720 C749 0.950 . S
H721 C750 0.950 . S
H722 C752 0.950 . S
H723 C753 0.950 . S
C724 H706 0.951 . S
C724 C725 1.366 . S
C724 C726 1.388 . S
C725 C724 1.366 . S
C725 C729 1.385 . S
C726 H707 0.951 . S
C726 C724 1.388 . S
C726 C727 1.366 . S
C727 C726 1.366 . S
C727 C728 1.414 . S
C727 C730 1.499 . S
C728 H708 0.950 . S
C728 C727 1.414 . S
C728 C729 1.374 . S
C729 H709 0.950 . S
C729 C725 1.385 . S
C729 C728 1.374 . S
C730 C727 1.499 . S
C730 C731 1.373 . S
C730 C732 1.389 . S
C731 H710 0.950 . S
C731 C730 1.373 . S
C731 C747 1.377 . S
C732 C730 1.389 . S
C732 C733 1.524 . S
C732 C746 1.377 . S
C733 C732 1.524 . S
C733 C734 1.397 . S
C733 C738 1.363 . S
C734 H711 0.950 . S
C734 C733 1.397 . S
C734 C735 1.334 . S
C735 H712 0.950 . S
C735 C734 1.334 . S
C735 C736 1.287 . S
C736 C735 1.287 . S
C736 C737 1.524 . S
C736 H755 0.913 . S
C737 H713 0.950 . S
C737 C736 1.524 . S
C737 C738 1.415 . S
C738 H714 0.950 . S
C738 C733 1.363 . S
C738 C737 1.415 . S
C739 H715 0.951 . S
C739 C740 1.366 . S
C739 C741 1.388 . S
C740 C739 1.366 . S
C740 C744 1.385 . S
C741 H716 0.951 . S
C741 C739 1.388 . S
C741 C742 1.366 . S
C742 C741 1.366 . S
C742 C743 1.414 . S
C742 C745 1.499 . S
C743 H717 0.950 . S
C743 C742 1.414 . S
C743 C744 1.374 . S
C744 H718 0.950 . S
C744 C740 1.385 . S
C744 C743 1.374 . S
C745 C742 1.499 . S
C745 C746 1.373 . S
C745 C747 1.389 . S
C746 H719 0.950 . S
C746 C732 1.377 . S
C746 C745 1.373 . S
C747 C731 1.377 . S
C747 C745 1.389 . S
C747 C748 1.524 . S
C748 C747 1.524 . S
C748 C749 1.397 . S
C748 C753 1.363 . S
C749 H720 0.950 . S
C749 C748 1.397 . S
C749 C750 1.334 . S
C750 H721 0.950 . S
C750 C749 1.334 . S
C750 C751 1.287 . S
C751 C750 1.287 . S
C751 C752 1.524 . S
C751 H754 0.999 . S
C752 H722 0.950 . S
C752 C751 1.524 . S
C752 C753 1.415 . S
C753 H723 0.950 . S
C753 C748 1.363 . S
C753 C752 1.415 . S
H754 C751 0.999 . S
H755 C736 0.913 . S
H756 C774 0.951 . S
H757 C776 0.951 . S
H758 C778 0.950 . S
H759 C779 0.950 . S
H760 C781 0.950 . S
H761 C784 0.950 . S
H762 C785 0.950 . S
H763 C787 0.950 . S
H764 C788 0.950 . S
H765 C789 0.951 . S
H766 C791 0.951 . S
H767 C793 0.950 . S
H768 C794 0.950 . S
H769 C796 0.950 . S
H770 C799 0.950 . S
H771 C800 0.950 . S
H772 C802 0.950 . S
H773 C803 0.950 . S
C774 H756 0.951 . S
C774 C775 1.366 . S
C774 C776 1.388 . S
C775 C774 1.366 . S
C775 C779 1.385 . S
C776 H757 0.951 . S
C776 C774 1.388 . S
C776 C777 1.366 . S
C777 C776 1.366 . S
C777 C778 1.414 . S
C777 C780 1.499 . S
C778 H758 0.950 . S
C778 C777 1.414 . S
C778 C779 1.374 . S
C779 H759 0.950 . S
C779 C775 1.385 . S
C779 C778 1.374 . S
C780 C777 1.499 . S
C780 C781 1.373 . S
C780 C782 1.389 . S
C781 H760 0.950 . S
C781 C780 1.373 . S
C781 C797 1.377 . S
C782 C780 1.389 . S
C782 C783 1.524 . S
C782 C796 1.377 . S
C783 C782 1.524 . S
C783 C784 1.397 . S
C783 C788 1.363 . S
C784 H761 0.950 . S
C784 C783 1.397 . S
C784 C785 1.334 . S
C785 H762 0.950 . S
C785 C784 1.334 . S
C785 C786 1.287 . S
C786 C785 1.287 . S
C786 C787 1.524 . S
C786 H805 0.913 . S
C787 H763 0.950 . S
C787 C786 1.524 . S
C787 C788 1.415 . S
C788 H764 0.950 . S
C788 C783 1.363 . S
C788 C787 1.415 . S
C789 H765 0.951 . S
C789 C790 1.366 . S
C789 C791 1.388 . S
C790 C789 1.366 . S
C790 C794 1.385 . S
C791 H766 0.951 . S
C791 C789 1.388 . S
C791 C792 1.366 . S
C792 C791 1.366 . S
C792 C793 1.414 . S
C792 C795 1.499 . S
C793 H767 0.950 . S
C793 C792 1.414 . S
C793 C794 1.374 . S
C794 H768 0.950 . S
C794 C790 1.385 . S
C794 C793 1.374 . S
C795 C792 1.499 . S
C795 C796 1.373 . S
C795 C797 1.389 . S
C796 H769 0.950 . S
C796 C782 1.377 . S
C796 C795 1.373 . S
C797 C781 1.377 . S
C797 C795 1.389 . S
C797 C798 1.524 . S
C798 C797 1.524 . S
C798 C799 1.397 . S
C798 C803 1.363 . S
C799 H770 0.950 . S
C799 C798 1.397 . S
C799 C800 1.334 . S
C800 H771 0.950 . S
C800 C799 1.334 . S
C800 C801 1.287 . S
C801 C800 1.287 . S
C801 C802 1.524 . S
C801 H804 0.999 . S
C802 H772 0.950 . S
C802 C801 1.524 . S
C802 C803 1.415 . S
C803 H773 0.950 . S
C803 C798 1.363 . S
C803 C802 1.415 . S
H804 C801 0.999 . S
H805 C786 0.913 . S
H806 C824 0.951 . S
H807 C826 0.951 . S
H808 C828 0.950 . S
H809 C829 0.950 . S
H810 C831 0.950 . S
H811 C834 0.950 . S
H812 C835 0.950 . S
H813 C837 0.940 1_655 S
H814 C838 0.950 . S
H815 C839 0.951 . S
H816 C841 0.951 . S
H817 C843 0.950 . S
H818 C844 0.950 1_655 S
H819 C846 0.950 . S
H820 C849 0.950 . S
H821 C850 0.950 . S
H822 C852 0.950 . S
H823 C853 0.950 . S
C824 H806 0.951 . S
C824 C825 1.366 . S
C824 C826 1.388 . S
C825 C824 1.366 . S
C825 C829 1.385 . S
C826 H807 0.951 . S
C826 C824 1.388 . S
C826 C827 1.366 . S
C827 C826 1.366 . S
C827 C828 1.414 . S
C827 C830 1.499 . S
C828 H808 0.950 . S
C828 C827 1.414 . S
C828 C829 1.374 . S
C829 H809 0.950 . S
C829 C825 1.385 . S
C829 C828 1.374 . S
C830 C827 1.499 . S
C830 C831 1.373 . S
C830 C832 1.389 . S
C831 H810 0.950 . S
C831 C830 1.373 . S
C831 C847 1.377 . S
C832 C830 1.389 . S
C832 C833 1.524 . S
C832 C846 1.377 . S
C833 C832 1.524 . S
C833 C834 1.397 . S
C833 C838 1.363 . S
C834 H811 0.950 . S
C834 C833 1.397 . S
C834 C835 1.334 . S
C835 H812 0.950 . S
C835 C834 1.334 . S
C835 C836 1.287 . S
C836 C835 1.287 . S
C836 C837 1.530 . S
C836 H855 0.913 . S
C837 H813 0.940 1_455 S
C837 C836 1.530 . S
C837 C838 1.420 . S
C838 H814 0.950 . S
C838 C833 1.363 . S
C838 C837 1.420 . S
C839 H815 0.951 . S
C839 C840 1.366 . S
C839 C841 1.388 . S
C840 C839 1.366 . S
C840 C844 1.385 . S
C841 H816 0.951 . S
C841 C839 1.388 . S
C841 C842 1.366 . S
C842 C841 1.366 . S
C842 C843 1.414 . S
C842 C845 1.499 . S
C843 H817 0.950 . S
C843 C842 1.414 . S
C843 C844 1.374 . S
C844 H818 0.950 1_455 S
C844 C840 1.385 . S
C844 C843 1.374 . S
C845 C842 1.499 . S
C845 C846 1.373 . S
C845 C847 1.389 . S
C846 H819 0.950 . S
C846 C832 1.377 . S
C846 C845 1.373 . S
C847 C831 1.377 . S
C847 C845 1.389 . S
C847 C848 1.524 . S
C848 C847 1.524 . S
C848 C849 1.397 . S
C848 C853 1.363 . S
C849 H820 0.950 . S
C849 C848 1.397 . S
C849 C850 1.334 . S
C850 H821 0.950 . S
C850 C849 1.334 . S
C850 C851 1.287 . S
C851 C850 1.287 . S
C851 C852 1.524 . S
C851 H854 0.999 . S
C852 H822 0.950 . S
C852 C851 1.524 . S
C852 C853 1.415 . S
C853 H823 0.950 . S
C853 C848 1.363 . S
C853 C852 1.415 . S
H854 C851 0.999 . S
H855 C836 0.913 . S
H856 C874 0.951 . S
H857 C876 0.951 . S
H858 C878 0.950 . S
H859 C879 0.950 1_554 S
H860 C881 0.950 . S
H861 C884 0.950 . S
H862 C885 0.950 . S
H863 C887 0.950 . S
H864 C888 0.950 . S
H865 C889 0.951 . S
H866 C891 0.951 . S
H867 C893 0.950 . S
H868 C894 0.950 1_545 S
H869 C896 0.950 . S
H870 C899 0.972 . S
H871 C900 0.950 . S
H872 C902 0.950 . S
H873 C903 0.950 . S
C874 H856 0.951 . S
C874 C875 1.366 1_556 S
C874 C876 1.388 . S
C875 C874 1.366 1_554 S
C875 C879 1.385 1_554 S
C876 H857 0.951 . S
C876 C874 1.388 . S
C876 C877 1.366 . S
C877 C876 1.366 . S
C877 C878 1.414 . S
C877 C880 1.499 . S
C878 H858 0.950 . S
C878 C877 1.414 . S
C878 C879 1.374 . S
C879 H859 0.950 1_556 S
C879 C875 1.385 1_556 S
C879 C878 1.374 . S
C880 C877 1.499 . S
C880 C881 1.373 . S
C880 C882 1.389 . S
C881 H860 0.950 . S
C881 C880 1.373 . S
C881 C897 1.377 . S
C882 C880 1.389 . S
C882 C883 1.524 . S
C882 C896 1.377 . S
C883 C882 1.524 . S
C883 C884 1.397 . S
C883 C888 1.363 . S
C884 H861 0.950 . S
C884 C883 1.397 . S
C884 C885 1.334 . S
C885 H862 0.950 . S
C885 C884 1.334 . S
C885 C886 1.287 . S
C886 C885 1.287 . S
C886 C887 1.524 . S
C886 H905 0.913 . S
C887 H863 0.950 . S
C887 C886 1.524 . S
C887 C888 1.415 . S
C888 H864 0.950 . S
C888 C883 1.363 . S
C888 C887 1.415 . S
C889 H865 0.951 . S
C889 C890 1.366 . S
C889 C891 1.388 . S
C890 C889 1.366 . S
C890 C894 1.385 . S
C891 H866 0.951 . S
C891 C889 1.388 . S
C891 C892 1.366 . S
C892 C891 1.366 . S
C892 C893 1.414 . S
C892 C895 1.499 . S
C893 H867 0.950 . S
C893 C892 1.414 . S
C893 C894 1.374 . S
C894 H868 0.950 1_565 S
C894 C890 1.385 . S
C894 C893 1.374 . S
C895 C892 1.499 . S
C895 C896 1.373 . S
C895 C897 1.389 . S
C896 H869 0.950 . S
C896 C882 1.377 . S
C896 C895 1.373 . S
C897 C881 1.377 . S
C897 C895 1.389 . S
C897 C898 1.524 . S
C898 C897 1.524 . S
C898 C899 1.351 1_565 S
C898 C903 1.363 . S
C899 H870 0.972 . S
C899 C898 1.351 1_545 S
C899 C900 1.360 . S
C900 H871 0.950 . S
C900 C899 1.360 . S
C900 C901 1.287 . S
C901 C900 1.287 . S
C901 C902 1.524 1_545 S
C901 H904 0.999 . S
C902 H872 0.950 . S
C902 C901 1.524 1_565 S
C902 C903 1.415 . S
C903 H873 0.950 . S
C903 C898 1.363 . S
C903 C902 1.415 . S
H904 C901 0.999 . S
H905 C886 0.913 . S
H906 C924 0.951 1_554 S
H907 C926 0.951 . S
H908 C928 0.950 . S
H909 C929 0.950 . S
H910 C931 0.950 . S
H911 C934 0.950 . S
H912 C935 0.950 . S
H913 C937 0.950 . S
H914 C938 0.950 . S
H915 C939 0.951 . S
H916 C941 0.951 . S
H917 C943 0.950 . S
H918 C944 0.950 . S
H919 C946 0.950 . S
H920 C949 0.950 . S
H921 C950 0.950 . S
H922 C952 0.950 . S
H923 C953 0.950 . S
C924 H906 0.951 1_556 S
C924 C925 1.366 . S
C924 C926 1.388 . S
C925 C924 1.366 . S
C925 C929 1.385 . S
C926 H907 0.951 . S
C926 C924 1.388 . S
C926 C927 1.366 . S
C927 C926 1.366 . S
C927 C928 1.414 . S
C927 C930 1.499 . S
C928 H908 0.950 . S
C928 C927 1.414 . S
C928 C929 1.374 . S
C929 H909 0.950 . S
C929 C925 1.385 . S
C929 C928 1.374 . S
C930 C927 1.499 . S
C930 C931 1.373 . S
C930 C932 1.389 . S
C931 H910 0.950 . S
C931 C930 1.373 . S
C931 C947 1.377 . S
C932 C930 1.389 . S
C932 C933 1.524 . S
C932 C946 1.377 . S
C933 C932 1.524 . S
C933 C934 1.397 . S
C933 C938 1.363 . S
C934 H911 0.950 . S
C934 C933 1.397 . S
C934 C935 1.334 1_556 S
C935 H912 0.950 . S
C935 C934 1.334 1_554 S
C935 C936 1.287 . S
C936 C935 1.287 . S
C936 C937 1.524 1_554 S
C936 H955 0.913 . S
C937 H913 0.950 . S
C937 C936 1.524 1_556 S
C937 C938 1.415 . S
C938 H914 0.950 . S
C938 C933 1.363 . S
C938 C937 1.415 . S
C939 H915 0.951 . S
C939 C940 1.366 . S
C939 C941 1.388 . S
C940 C939 1.366 . S
C940 C944 1.385 . S
C941 H916 0.951 . S
C941 C939 1.388 . S
C941 C942 1.366 . S
C942 C941 1.366 . S
C942 C943 1.414 . S
C942 C945 1.499 . S
C943 H917 0.950 . S
C943 C942 1.414 . S
C943 C944 1.374 . S
C944 H918 0.950 . S
C944 C940 1.385 . S
C944 C943 1.374 . S
C945 C942 1.499 . S
C945 C946 1.373 . S
C945 C947 1.389 . S
C946 H919 0.950 . S
C946 C932 1.377 . S
C946 C945 1.373 . S
C947 C931 1.377 . S
C947 C945 1.389 . S
C947 C948 1.524 . S
C948 C947 1.524 . S
C948 C949 1.397 . S
C948 C953 1.363 . S
C949 H920 0.950 . S
C949 C948 1.397 . S
C949 C950 1.334 . S
C950 H921 0.950 . S
C950 C949 1.334 . S
C950 C951 1.287 . S
C951 C950 1.287 . S
C951 C952 1.524 . S
C951 H954 0.999 . S
C952 H922 0.950 . S
C952 C951 1.524 . S
C952 C953 1.415 . S
C953 H923 0.950 . S
C953 C948 1.363 . S
C953 C952 1.415 . S
H954 C951 0.999 . S
H955 C936 0.913 . S
H956 C974 0.951 . S
H957 C976 0.951 . S
H958 C978 0.950 . S
H959 C979 0.950 1_554 S
H960 C981 0.950 . S
H961 C984 0.950 . S
H962 C985 0.950 . S
H963 C987 0.950 . S
H964 C988 0.950 . S
H965 C989 0.951 . S
H966 C991 0.951 . S
H967 C993 0.950 . S
H968 C994 0.950 . S
H969 C996 0.950 . S
H970 C999 0.950 . S
H971 C1000 0.950 . S
H972 C1002 0.950 . S
H973 C1003 0.950 . S
C974 H956 0.951 . S
C974 C975 1.366 . S
C974 C976 1.388 . S
C975 C974 1.366 . S
C975 C979 1.385 . S
C976 H957 0.951 . S
C976 C974 1.388 . S
C976 C977 1.366 . S
C977 C976 1.366 . S
C977 C978 1.414 . S
C977 C980 1.499 . S
C978 H958 0.950 . S
C978 C977 1.414 . S
C978 C979 1.374 . S
C979 H959 0.950 1_556 S
C979 C975 1.385 . S
C979 C978 1.374 . S
C980 C977 1.499 . S
C980 C981 1.373 . S
C980 C982 1.389 . S
C981 H960 0.950 . S
C981 C980 1.373 . S
C981 C997 1.377 . S
C982 C980 1.389 . S
C982 C983 1.524 . S
C982 C996 1.377 . S
C983 C982 1.524 . S
C983 C984 1.397 . S
C983 C988 1.363 . S
C984 H961 0.950 . S
C984 C983 1.397 . S
C984 C985 1.334 . S
C985 H962 0.950 . S
C985 C984 1.334 . S
C985 C986 1.287 . S
C986 C985 1.287 . S
C986 C987 1.524 . S
C986 H1005 0.913 . S
C987 H963 0.950 . S
C987 C986 1.524 . S
C987 C988 1.415 . S
C988 H964 0.950 . S
C988 C983 1.363 . S
C988 C987 1.415 . S
C989 H965 0.951 . S
C989 C990 1.366 . S
C989 C991 1.388 . S
C990 C989 1.366 . S
C990 C994 1.385 . S
C991 H966 0.951 . S
C991 C989 1.388 . S
C991 C992 1.366 . S
C992 C991 1.366 . S
C992 C993 1.414 . S
C992 C995 1.499 . S
C993 H967 0.950 . S
C993 C992 1.414 . S
C993 C994 1.374 . S
C994 H968 0.950 . S
C994 C990 1.385 . S
C994 C993 1.374 . S
C995 C992 1.499 . S
C995 C996 1.373 . S
C995 C997 1.389 . S
C996 H969 0.950 . S
C996 C982 1.377 . S
C996 C995 1.373 . S
C997 C981 1.377 . S
C997 C995 1.389 . S
C997 C998 1.524 . S
C998 C997 1.524 . S
C998 C999 1.397 . S
C998 C1003 1.363 . S
C999 H970 0.950 . S
C999 C998 1.397 . S
C999 C1000 1.334 . S
C1000 H971 0.950 . S
C1000 C999 1.334 . S
C1000 C1001 1.287 . S
C1001 C1000 1.287 . S
C1001 C1002 1.524 . S
C1001 H1004 0.999 . S
C1002 H972 0.950 . S
C1002 C1001 1.524 . S
C1002 C1003 1.415 . S
C1003 H973 0.950 . S
C1003 C998 1.363 . S
C1003 C1002 1.415 . S
H1004 C1001 0.999 . S
H1005 C986 0.913 . S
H1006 C1024 0.951 1_554 S
H1007 C1026 0.951 . S
H1008 C1028 0.950 . S
H1009 C1029 0.950 . S
H1010 C1031 0.950 . S
H1011 C1034 0.950 . S
H1012 C1035 0.950 . S
H1013 C1037 0.950 . S
H1014 C1038 0.950 . S
H1015 C1039 0.953 1_455 S
H1016 C1041 0.951 . S
H1017 C1043 0.950 . S
H1018 C1044 0.950 . S
H1019 C1046 0.950 . S
H1020 C1049 0.950 . S
H1021 C1050 0.950 . S
H1022 C1052 0.950 . S
H1023 C1053 0.950 . S
C1024 H1006 0.951 1_556 S
C1024 C1025 1.369 . S
C1024 C1026 1.388 . S
C1025 C1024 1.369 . S
C1025 C1029 1.399 . S
C1026 H1007 0.951 . S
C1026 C1024 1.388 . S
C1026 C1027 1.366 . S
C1027 C1026 1.366 . S
C1027 C1028 1.414 . S
C1027 C1030 1.499 . S
C1028 H1008 0.950 . S
C1028 C1027 1.414 . S
C1028 C1029 1.374 . S
C1029 H1009 0.950 . S
C1029 C1025 1.399 . S
C1029 C1028 1.374 . S
C1030 C1027 1.499 . S
C1030 C1031 1.373 . S
C1030 C1032 1.389 . S
C1031 H1010 0.950 . S
C1031 C1030 1.373 . S
C1031 C1047 1.377 . S
C1032 C1030 1.389 . S
C1032 C1033 1.524 . S
C1032 C1046 1.377 . S
C1033 C1032 1.524 . S
C1033 C1034 1.397 . S
C1033 C1038 1.363 . S
C1034 H1011 0.950 . S
C1034 C1033 1.397 . S
C1034 C1035 1.334 1_556 S
C1035 H1012 0.950 . S
C1035 C1034 1.334 1_554 S
C1035 C1036 1.287 . S
C1036 C1035 1.287 . S
C1036 C1037 1.524 1_554 S
C1036 H1055 0.913 . S
C1037 H1013 0.950 . S
C1037 C1036 1.524 1_556 S
C1037 C1038 1.415 . S
C1038 H1014 0.950 . S
C1038 C1033 1.363 . S
C1038 C1037 1.415 . S
C1039 H1015 0.953 1_655 S
C1039 C1040 1.366 . S
C1039 C1041 1.388 . S
C1040 C1039 1.366 . S
C1040 C1044 1.385 . S
C1041 H1016 0.951 . S
C1041 C1039 1.388 . S
C1041 C1042 1.366 . S
C1042 C1041 1.366 . S
C1042 C1043 1.414 . S
C1042 C1045 1.499 . S
C1043 H1017 0.950 . S
C1043 C1042 1.414 . S
C1043 C1044 1.374 . S
C1044 H1018 0.950 . S
C1044 C1040 1.385 . S
C1044 C1043 1.374 . S
C1045 C1042 1.499 . S
C1045 C1046 1.373 . S
C1045 C1047 1.389 . S
C1046 H1019 0.950 . S
C1046 C1032 1.377 . S
C1046 C1045 1.373 . S
C1047 C1031 1.377 . S
C1047 C1045 1.389 . S
C1047 C1048 1.524 . S
C1048 C1047 1.524 . S
C1048 C1049 1.397 . S
C1048 C1053 1.363 . S
C1049 H1020 0.950 . S
C1049 C1048 1.397 . S
C1049 C1050 1.334 . S
C1050 H1021 0.950 . S
C1050 C1049 1.334 . S
C1050 C1051 1.287 . S
C1051 C1050 1.287 . S
C1051 C1052 1.524 . S
C1051 H1054 0.999 . S
C1052 H1022 0.950 . S
C1052 C1051 1.524 . S
C1052 C1053 1.415 . S
C1053 H1023 0.950 . S
C1053 C1048 1.363 . S
C1053 C1052 1.415 . S
H1054 C1051 0.999 . S
H1055 C1036 0.913 . S
H1056 C1074 0.951 . S
H1057 C1076 0.951 . S
H1058 C1078 0.950 . S
H1059 C1079 0.950 . S
H1060 C1081 0.950 . S
H1061 C1084 0.950 . S
H1062 C1085 0.950 . S
H1063 C1087 0.989 . S
H1064 C1088 0.950 . S
H1065 C1089 0.951 . S
H1066 C1091 0.951 . S
H1067 C1093 0.950 . S
H1068 C1094 0.950 1_655 S
H1069 C1096 0.950 . S
H1070 C1099 0.950 . S
H1071 C1100 0.950 . S
H1072 C1102 0.950 . S
H1073 C1103 0.950 . S
C1074 H1056 0.951 . S
C1074 C1075 1.366 . S
C1074 C1076 1.388 . S
C1075 C1074 1.366 . S
C1075 C1079 1.385 . S
C1076 H1057 0.951 . S
C1076 C1074 1.388 . S
C1076 C1077 1.366 . S
C1077 C1076 1.366 . S
C1077 C1078 1.414 . S
C1077 C1080 1.499 . S
C1078 H1058 0.950 . S
C1078 C1077 1.414 . S
C1078 C1079 1.374 . S
C1079 H1059 0.950 . S
C1079 C1075 1.385 . S
C1079 C1078 1.374 . S
C1080 C1077 1.499 . S
C1080 C1081 1.373 . S
C1080 C1082 1.389 . S
C1081 H1060 0.950 . S
C1081 C1080 1.373 . S
C1081 C1097 1.377 . S
C1082 C1080 1.389 . S
C1082 C1083 1.524 . S
C1082 C1096 1.377 . S
C1083 C1082 1.524 . S
C1083 C1084 1.397 . S
C1083 C1088 1.363 . S
C1084 H1061 0.950 . S
C1084 C1083 1.397 . S
C1084 C1085 1.334 . S
C1085 H1062 0.950 . S
C1085 C1084 1.334 . S
C1085 C1086 1.287 . S
C1086 C1085 1.287 . S
C1086 C1087 1.513 1_455 S
C1086 H1105 0.913 1_455 S
C1087 H1063 0.989 . S
C1087 C1086 1.513 1_655 S
C1087 C1088 1.383 1_655 S
C1088 H1064 0.950 . S
C1088 C1083 1.363 . S
C1088 C1087 1.383 1_455 S
C1089 H1065 0.951 . S
C1089 C1090 1.366 . S
C1089 C1091 1.388 . S
C1090 C1089 1.366 . S
C1090 C1094 1.385 . S
C1091 H1066 0.951 . S
C1091 C1089 1.388 . S
C1091 C1092 1.366 . S
C1092 C1091 1.366 . S
C1092 C1093 1.414 . S
C1092 C1095 1.499 . S
C1093 H1067 0.950 . S
C1093 C1092 1.414 . S
C1093 C1094 1.374 . S
C1094 H1068 0.950 1_455 S
C1094 C1090 1.385 . S
C1094 C1093 1.374 . S
C1095 C1092 1.499 . S
C1095 C1096 1.373 . S
C1095 C1097 1.389 . S
C1096 H1069 0.950 . S
C1096 C1082 1.377 . S
C1096 C1095 1.373 . S
C1097 C1081 1.377 . S
C1097 C1095 1.389 . S
C1097 C1098 1.524 . S
C1098 C1097 1.524 . S
C1098 C1099 1.397 . S
C1098 C1103 1.363 . S
C1099 H1070 0.950 . S
C1099 C1098 1.397 . S
C1099 C1100 1.334 . S
C1100 H1071 0.950 . S
C1100 C1099 1.334 . S
C1100 C1101 1.287 . S
C1101 C1100 1.287 . S
C1101 C1102 1.524 . S
C1101 H1104 0.999 . S
C1102 H1072 0.950 . S
C1102 C1101 1.524 . S
C1102 C1103 1.415 . S
C1103 H1073 0.950 . S
C1103 C1098 1.363 . S
C1103 C1102 1.415 . S
H1104 C1101 0.999 . S
H1105 C1086 0.913 1_655 S
H1106 C1124 0.951 . S
H1107 C1126 0.951 . S
H1108 C1128 0.950 . S
H1109 C1129 0.950 . S
H1110 C1131 0.950 . S
H1111 C1134 0.950 . S
H1112 C1135 0.950 . S
H1113 C1137 0.950 . S
H1114 C1138 0.950 . S
H1115 C1139 0.951 . S
H1116 C1141 0.951 . S
H1117 C1143 0.950 . S
H1118 C1144 0.950 . S
H1119 C1146 0.950 . S
H1120 C1149 0.950 . S
H1121 C1150 0.950 . S
H1122 C1152 0.950 . S
H1123 C1153 0.950 . S
C1124 H1106 0.951 . S
C1124 C1125 1.366 . S
C1124 C1126 1.388 . S
C1125 C1124 1.366 . S
C1125 C1129 1.385 . S
C1126 H1107 0.951 . S
C1126 C1124 1.388 . S
C1126 C1127 1.366 . S
C1127 C1126 1.366 . S
C1127 C1128 1.414 . S
C1127 C1130 1.499 . S
C1128 H1108 0.950 . S
C1128 C1127 1.414 . S
C1128 C1129 1.374 . S
C1129 H1109 0.950 . S
C1129 C1125 1.385 . S
C1129 C1128 1.374 . S
C1130 C1127 1.499 . S
C1130 C1131 1.373 . S
C1130 C1132 1.389 . S
C1131 H1110 0.950 . S
C1131 C1130 1.373 . S
C1131 C1147 1.377 . S
C1132 C1130 1.389 . S
C1132 C1133 1.524 . S
C1132 C1146 1.377 . S
C1133 C1132 1.524 . S
C1133 C1134 1.397 . S
C1133 C1138 1.363 . S
C1134 H1111 0.950 . S
C1134 C1133 1.397 . S
C1134 C1135 1.334 . S
C1135 H1112 0.950 . S
C1135 C1134 1.334 . S
C1135 C1136 1.287 . S
C1136 C1135 1.287 . S
C1136 C1137 1.524 . S
C1136 H1155 0.913 . S
C1137 H1113 0.950 . S
C1137 C1136 1.524 . S
C1137 C1138 1.415 . S
C1138 H1114 0.950 . S
C1138 C1133 1.363 . S
C1138 C1137 1.415 . S
C1139 H1115 0.951 . S
C1139 C1140 1.366 . S
C1139 C1141 1.388 . S
C1140 C1139 1.366 . S
C1140 C1144 1.385 . S
C1141 H1116 0.951 . S
C1141 C1139 1.388 . S
C1141 C1142 1.366 . S
C1142 C1141 1.366 . S
C1142 C1143 1.414 . S
C1142 C1145 1.499 . S
C1143 H1117 0.950 . S
C1143 C1142 1.414 . S
C1143 C1144 1.374 . S
C1144 H1118 0.950 . S
C1144 C1140 1.385 . S
C1144 C1143 1.374 . S
C1145 C1142 1.499 . S
C1145 C1146 1.373 . S
C1145 C1147 1.389 . S
C1146 H1119 0.950 . S
C1146 C1132 1.377 . S
C1146 C1145 1.373 . S
C1147 C1131 1.377 . S
C1147 C1145 1.389 . S
C1147 C1148 1.524 . S
C1148 C1147 1.524 . S
C1148 C1149 1.397 . S
C1148 C1153 1.363 . S
C1149 H1120 0.950 . S
C1149 C1148 1.397 . S
C1149 C1150 1.334 . S
C1150 H1121 0.950 . S
C1150 C1149 1.334 . S
C1150 C1151 1.287 . S
C1151 C1150 1.287 . S
C1151 C1152 1.524 . S
C1151 H1154 0.999 . S
C1152 H1122 0.950 . S
C1152 C1151 1.524 . S
C1152 C1153 1.415 . S
C1153 H1123 0.950 . S
C1153 C1148 1.363 . S
C1153 C1152 1.415 . S
H1154 C1151 0.999 . S
H1155 C1136 0.913 . S
H1156 C1174 0.951 . S
H1157 C1176 0.951 . S
H1158 C1178 0.950 . S
H1159 C1179 0.950 . S
H1160 C1181 0.950 . S
H1161 C1184 0.950 . S
H1162 C1185 0.950 . S
H1163 C1187 0.950 . S
H1164 C1188 0.950 . S
H1165 C1189 0.951 . S
H1166 C1191 0.951 . S
H1167 C1193 0.950 . S
H1168 C1194 0.950 . S
H1169 C1196 0.950 . S
H1170 C1199 0.950 . S
H1171 C1200 0.950 . S
H1172 C1202 0.950 . S
H1173 C1203 0.950 . S
C1174 H1156 0.951 . S
C1174 C1175 1.366 . S
C1174 C1176 1.388 . S
C1175 C1174 1.366 . S
C1175 C1179 1.385 . S
C1176 H1157 0.951 . S
C1176 C1174 1.388 . S
C1176 C1177 1.366 . S
C1177 C1176 1.366 . S
C1177 C1178 1.414 . S
C1177 C1180 1.499 . S
C1178 H1158 0.950 . S
C1178 C1177 1.414 . S
C1178 C1179 1.374 . S
C1179 H1159 0.950 . S
C1179 C1175 1.385 . S
C1179 C1178 1.374 . S
C1180 C1177 1.499 . S
C1180 C1181 1.373 . S
C1180 C1182 1.389 . S
C1181 H1160 0.950 . S
C1181 C1180 1.373 . S
C1181 C1197 1.377 . S
C1182 C1180 1.389 . S
C1182 C1183 1.524 . S
C1182 C1196 1.377 . S
C1183 C1182 1.524 . S
C1183 C1184 1.397 . S
C1183 C1188 1.363 . S
C1184 H1161 0.950 . S
C1184 C1183 1.397 . S
C1184 C1185 1.334 . S
C1185 H1162 0.950 . S
C1185 C1184 1.334 . S
C1185 C1186 1.287 . S
C1186 C1185 1.287 . S
C1186 C1187 1.524 . S
C1186 H1205 0.913 . S
C1187 H1163 0.950 . S
C1187 C1186 1.524 . S
C1187 C1188 1.415 . S
C1188 H1164 0.950 . S
C1188 C1183 1.363 . S
C1188 C1187 1.415 . S
C1189 H1165 0.951 . S
C1189 C1190 1.366 . S
C1189 C1191 1.388 . S
C1190 C1189 1.366 . S
C1190 C1194 1.385 . S
C1191 H1166 0.951 . S
C1191 C1189 1.388 . S
C1191 C1192 1.366 . S
C1192 C1191 1.366 . S
C1192 C1193 1.414 . S
C1192 C1195 1.499 . S
C1193 H1167 0.950 . S
C1193 C1192 1.414 . S
C1193 C1194 1.374 . S
C1194 H1168 0.950 . S
C1194 C1190 1.385 . S
C1194 C1193 1.374 . S
C1195 C1192 1.499 . S
C1195 C1196 1.373 . S
C1195 C1197 1.389 . S
C1196 H1169 0.950 . S
C1196 C1182 1.377 . S
C1196 C1195 1.373 . S
C1197 C1181 1.377 . S
C1197 C1195 1.389 . S
C1197 C1198 1.524 . S
C1198 C1197 1.524 . S
C1198 C1199 1.397 . S
C1198 C1203 1.363 . S
C1199 H1170 0.950 . S
C1199 C1198 1.397 . S
C1199 C1200 1.334 . S
C1200 H1171 0.950 . S
C1200 C1199 1.334 . S
C1200 C1201 1.287 . S
C1201 C1200 1.287 . S
C1201 C1202 1.524 . S
C1201 H1204 0.999 . S
C1202 H1172 0.950 . S
C1202 C1201 1.524 . S
C1202 C1203 1.415 . S
C1203 H1173 0.950 . S
C1203 C1198 1.363 . S
C1203 C1202 1.415 . S
H1204 C1201 0.999 . S
H1205 C1186 0.913 . S
H1206 C1224 0.951 . S
H1207 C1226 0.951 . S
H1208 C1228 0.950 . S
H1209 C1229 0.950 . S
H1210 C1231 0.950 . S
H1211 C1234 0.950 . S
H1212 C1235 0.950 . S
H1213 C1237 0.950 . S
H1214 C1238 0.950 . S
H1215 C1239 0.951 . S
H1216 C1241 0.951 . S
H1217 C1243 0.950 . S
H1218 C1244 0.950 . S
H1219 C1246 0.950 . S
H1220 C1249 0.950 . S
H1221 C1250 0.950 . S
H1222 C1252 0.950 . S
H1223 C1253 0.950 . S
C1224 H1206 0.951 . S
C1224 C1225 1.366 . S
C1224 C1226 1.388 . S
C1225 C1224 1.366 . S
C1225 C1229 1.385 . S
C1226 H1207 0.951 . S
C1226 C1224 1.388 . S
C1226 C1227 1.366 . S
C1227 C1226 1.366 . S
C1227 C1228 1.414 . S
C1227 C1230 1.499 . S
C1228 H1208 0.950 . S
C1228 C1227 1.414 . S
C1228 C1229 1.374 . S
C1229 H1209 0.950 . S
C1229 C1225 1.385 . S
C1229 C1228 1.374 . S
C1230 C1227 1.499 . S
C1230 C1231 1.373 . S
C1230 C1232 1.389 . S
C1231 H1210 0.950 . S
C1231 C1230 1.373 . S
C1231 C1247 1.377 . S
C1232 C1230 1.389 . S
C1232 C1233 1.524 . S
C1232 C1246 1.377 . S
C1233 C1232 1.524 . S
C1233 C1234 1.397 . S
C1233 C1238 1.363 . S
C1234 H1211 0.950 . S
C1234 C1233 1.397 . S
C1234 C1235 1.334 . S
C1235 H1212 0.950 . S
C1235 C1234 1.334 . S
C1235 C1236 1.287 . S
C1236 C1235 1.287 . S
C1236 C1237 1.524 . S
C1236 H1255 0.913 . S
C1237 H1213 0.950 . S
C1237 C1236 1.524 . S
C1237 C1238 1.415 . S
C1238 H1214 0.950 . S
C1238 C1233 1.363 . S
C1238 C1237 1.415 . S
C1239 H1215 0.951 . S
C1239 C1240 1.366 . S
C1239 C1241 1.388 . S
C1240 C1239 1.366 . S
C1240 C1244 1.385 . S
C1241 H1216 0.951 . S
C1241 C1239 1.388 . S
C1241 C1242 1.366 . S
C1242 C1241 1.366 . S
C1242 C1243 1.414 . S
C1242 C1245 1.499 . S
C1243 H1217 0.950 . S
C1243 C1242 1.414 . S
C1243 C1244 1.374 . S
C1244 H1218 0.950 . S
C1244 C1240 1.385 . S
C1244 C1243 1.374 . S
C1245 C1242 1.499 . S
C1245 C1246 1.373 . S
C1245 C1247 1.389 . S
C1246 H1219 0.950 . S
C1246 C1232 1.377 . S
C1246 C1245 1.373 . S
C1247 C1231 1.377 . S
C1247 C1245 1.389 . S
C1247 C1248 1.524 . S
C1248 C1247 1.524 . S
C1248 C1249 1.397 . S
C1248 C1253 1.363 . S
C1249 H1220 0.950 . S
C1249 C1248 1.397 . S
C1249 C1250 1.334 . S
C1250 H1221 0.950 . S
C1250 C1249 1.334 . S
C1250 C1251 1.287 . S
C1251 C1250 1.287 . S
C1251 C1252 1.524 . S
C1251 H1254 0.999 . S
C1252 H1222 0.950 . S
C1252 C1251 1.524 . S
C1252 C1253 1.415 . S
C1253 H1223 0.950 . S
C1253 C1248 1.363 . S
C1253 C1252 1.415 . S
H1254 C1251 0.999 . S
H1255 C1236 0.913 . S
H1256 C1274 0.951 . S
H1257 C1276 0.951 . S
H1258 C1278 0.950 . S
H1259 C1279 0.950 . S
H1260 C1281 0.950 . S
H1261 C1284 0.950 . S
H1262 C1285 0.950 . S
H1263 C1287 0.950 . S
H1264 C1288 0.950 . S
H1265 C1289 0.946 1_455 S
H1266 C1291 0.951 . S
H1267 C1293 0.950 . S
H1268 C1294 0.935 1_455 S
H1269 C1296 0.950 . S
H1270 C1299 0.950 . S
H1271 C1300 0.950 . S
H1272 C1302 0.950 . S
H1273 C1303 0.950 . S
C1274 H1256 0.951 . S
C1274 C1275 1.366 . S
C1274 C1276 1.388 . S
C1275 C1274 1.366 . S
C1275 C1279 1.385 . S
C1276 H1257 0.951 . S
C1276 C1274 1.388 . S
C1276 C1277 1.366 . S
C1277 C1276 1.366 . S
C1277 C1278 1.414 . S
C1277 C1280 1.499 . S
C1278 H1258 0.950 . S
C1278 C1277 1.414 . S
C1278 C1279 1.374 . S
C1279 H1259 0.950 . S
C1279 C1275 1.385 . S
C1279 C1278 1.374 . S
C1280 C1277 1.499 . S
C1280 C1281 1.373 . S
C1280 C1282 1.389 . S
C1281 H1260 0.950 . S
C1281 C1280 1.373 . S
C1281 C1297 1.377 . S
C1282 C1280 1.389 . S
C1282 C1283 1.524 . S
C1282 C1296 1.377 . S
C1283 C1282 1.524 . S
C1283 C1284 1.397 . S
C1283 C1288 1.363 . S
C1284 H1261 0.950 . S
C1284 C1283 1.397 . S
C1284 C1285 1.334 . S
C1285 H1262 0.950 . S
C1285 C1284 1.334 . S
C1285 C1286 1.287 . S
C1286 C1285 1.287 . S
C1286 C1287 1.524 . S
C1286 H1305 0.913 . S
C1287 H1263 0.950 . S
C1287 C1286 1.524 . S
C1287 C1288 1.415 . S
C1288 H1264 0.950 . S
C1288 C1283 1.363 . S
C1288 C1287 1.415 . S
C1289 H1265 0.946 1_655 S
C1289 C1290 1.366 1_655 S
C1289 C1291 1.388 . S
C1290 C1289 1.366 1_455 S
C1290 C1294 1.373 1_455 S
C1291 H1266 0.951 . S
C1291 C1289 1.388 . S
C1291 C1292 1.366 . S
C1292 C1291 1.366 . S
C1292 C1293 1.414 . S
C1292 C1295 1.499 . S
C1293 H1267 0.950 . S
C1293 C1292 1.414 . S
C1293 C1294 1.403 . S
C1294 H1268 0.935 1_655 S
C1294 C1290 1.373 1_655 S
C1294 C1293 1.403 . S
C1295 C1292 1.499 . S
C1295 C1296 1.373 . S
C1295 C1297 1.389 . S
C1296 H1269 0.950 . S
C1296 C1282 1.377 . S
C1296 C1295 1.373 . S
C1297 C1281 1.377 . S
C1297 C1295 1.389 . S
C1297 C1298 1.524 . S
C1298 C1297 1.524 . S
C1298 C1299 1.397 1_655 S
C1298 C1303 1.363 . S
C1299 H1270 0.950 . S
C1299 C1298 1.397 1_455 S
C1299 C1300 1.334 . S
C1300 H1271 0.950 . S
C1300 C1299 1.334 . S
C1300 C1301 1.287 . S
C1301 C1300 1.287 . S
C1301 C1302 1.524 . S
C1301 H1304 0.999 . S
C1302 H1272 0.950 . S
C1302 C1301 1.524 . S
C1302 C1303 1.415 1_455 S
C1303 H1273 0.950 . S
C1303 C1298 1.363 . S
C1303 C1302 1.415 1_655 S
H1304 C1301 0.999 . S
H1305 C1286 0.913 . S
H1306 C1324 0.951 . S
H1307 C1326 0.951 . S
H1308 C1328 0.950 . S
H1309 C1329 0.950 . S
H1310 C1331 0.950 . S
H1311 C1334 0.950 . S
H1312 C1335 0.950 1_554 S
H1313 C1337 0.950 . S
H1314 C1338 0.950 . S
H1315 C1339 0.951 . S
H1316 C1341 0.951 . S
H1317 C1343 0.950 . S
H1318 C1344 0.950 . S
H1319 C1346 0.904 1_545 S
H1320 C1349 0.950 . S
H1321 C1350 0.950 . S
H1322 C1352 0.950 . S
H1323 C1353 0.950 . S
C1324 H1306 0.951 . S
C1324 C1325 1.366 . S
C1324 C1326 1.388 . S
C1325 C1324 1.366 . S
C1325 C1329 1.385 . S
C1326 H1307 0.951 . S
C1326 C1324 1.388 . S
C1326 C1327 1.366 . S
C1327 C1326 1.366 . S
C1327 C1328 1.414 . S
C1327 C1330 1.499 . S
C1328 H1308 0.950 . S
C1328 C1327 1.414 . S
C1328 C1329 1.374 . S
C1329 H1309 0.950 . S
C1329 C1325 1.385 . S
C1329 C1328 1.374 . S
C1330 C1327 1.499 . S
C1330 C1331 1.373 . S
C1330 C1332 1.389 . S
C1331 H1310 0.950 . S
C1331 C1330 1.373 . S
C1331 C1347 1.377 . S
C1332 C1330 1.389 . S
C1332 C1333 1.524 . S
C1332 C1346 1.377 . S
C1333 C1332 1.524 . S
C1333 C1334 1.397 . S
C1333 C1338 1.363 1_565 S
C1334 H1311 0.950 . S
C1334 C1333 1.397 . S
C1334 C1335 1.334 . S
C1335 H1312 0.950 1_556 S
C1335 C1334 1.334 . S
C1335 C1336 1.287 1_565 S
C1336 C1335 1.287 1_545 S
C1336 C1337 1.524 . S
C1336 H1355 0.913 . S
C1337 H1313 0.950 . S
C1337 C1336 1.524 . S
C1337 C1338 1.415 . S
C1338 H1314 0.950 . S
C1338 C1333 1.363 1_545 S
C1338 C1337 1.415 . S
C1339 H1315 0.951 . S
C1339 C1340 1.366 1_565 S
C1339 C1341 1.388 . S
C1340 C1339 1.366 1_545 S
C1340 C1344 1.385 . S
C1341 H1316 0.951 . S
C1341 C1339 1.388 . S
C1341 C1342 1.366 . S
C1342 C1341 1.366 . S
C1342 C1343 1.414 1_565 S
C1342 C1345 1.499 . S
C1343 H1317 0.950 . S
C1343 C1342 1.414 1_545 S
C1343 C1344 1.374 . S
C1344 H1318 0.950 . S
C1344 C1340 1.385 . S
C1344 C1343 1.374 . S
C1345 C1342 1.499 . S
C1345 C1346 1.373 . S
C1345 C1347 1.389 . S
C1346 H1319 0.904 1_565 S
C1346 C1332 1.377 . S
C1346 C1345 1.373 . S
C1347 C1331 1.377 . S
C1347 C1345 1.389 . S
C1347 C1348 1.524 . S
C1348 C1347 1.524 . S
C1348 C1349 1.397 . S
C1348 C1353 1.363 . S
C1349 H1320 0.950 . S
C1349 C1348 1.397 . S
C1349 C1350 1.334 . S
C1350 H1321 0.950 . S
C1350 C1349 1.334 . S
C1350 C1351 1.287 . S
C1351 C1350 1.287 . S
C1351 C1352 1.524 . S
C1351 H1354 0.999 . S
C1352 H1322 0.950 . S
C1352 C1351 1.524 . S
C1352 C1353 1.415 . S
C1353 H1323 0.950 . S
C1353 C1348 1.363 . S
C1353 C1352 1.415 . S
H1354 C1351 0.999 . S
H1355 C1336 0.913 . S
H1356 C1374 0.951 . S
H1357 C1376 0.951 . S
H1358 C1378 0.950 . S
H1359 C1379 0.950 . S
H1360 C1381 0.950 . S
H1361 C1384 0.950 . S
H1362 C1385 0.950 . S
H1363 C1387 0.950 . S
H1364 C1388 0.950 . S
H1365 C1389 0.951 . S
H1366 C1391 0.951 . S
H1367 C1393 0.950 . S
H1368 C1394 0.950 . S
H1369 C1396 0.950 . S
H1370 C1399 0.950 . S
H1371 C1400 0.950 . S
H1372 C1402 0.950 . S
H1373 C1403 0.950 . S
C1374 H1356 0.951 . S
C1374 C1375 1.366 . S
C1374 C1376 1.388 . S
C1375 C1374 1.366 . S
C1375 C1379 1.385 . S
C1376 H1357 0.951 . S
C1376 C1374 1.388 . S
C1376 C1377 1.366 . S
C1377 C1376 1.366 . S
C1377 C1378 1.414 . S
C1377 C1380 1.499 . S
C1378 H1358 0.950 . S
C1378 C1377 1.414 . S
C1378 C1379 1.374 . S
C1379 H1359 0.950 . S
C1379 C1375 1.385 . S
C1379 C1378 1.374 . S
C1380 C1377 1.499 . S
C1380 C1381 1.373 . S
C1380 C1382 1.389 . S
C1381 H1360 0.950 . S
C1381 C1380 1.373 . S
C1381 C1397 1.377 . S
C1382 C1380 1.389 . S
C1382 C1383 1.524 . S
C1382 C1396 1.377 . S
C1383 C1382 1.524 . S
C1383 C1384 1.397 . S
C1383 C1388 1.363 . S
C1384 H1361 0.950 . S
C1384 C1383 1.397 . S
C1384 C1385 1.334 . S
C1385 H1362 0.950 . S
C1385 C1384 1.334 . S
C1385 C1386 1.287 . S
C1386 C1385 1.287 . S
C1386 C1387 1.524 . S
C1386 H1405 0.913 . S
C1387 H1363 0.950 . S
C1387 C1386 1.524 . S
C1387 C1388 1.415 . S
C1388 H1364 0.950 . S
C1388 C1383 1.363 . S
C1388 C1387 1.415 . S
C1389 H1365 0.951 . S
C1389 C1390 1.366 . S
C1389 C1391 1.388 . S
C1390 C1389 1.366 . S
C1390 C1394 1.385 . S
C1391 H1366 0.951 . S
C1391 C1389 1.388 . S
C1391 C1392 1.366 . S
C1392 C1391 1.366 . S
C1392 C1393 1.414 . S
C1392 C1395 1.499 . S
C1393 H1367 0.950 . S
C1393 C1392 1.414 . S
C1393 C1394 1.374 . S
C1394 H1368 0.950 . S
C1394 C1390 1.385 . S
C1394 C1393 1.374 . S
C1395 C1392 1.499 . S
C1395 C1396 1.373 . S
C1395 C1397 1.389 . S
C1396 H1369 0.950 . S
C1396 C1382 1.377 . S
C1396 C1395 1.373 . S
C1397 C1381 1.377 . S
C1397 C1395 1.389 . S
C1397 C1398 1.524 . S
C1398 C1397 1.524 . S
C1398 C1399 1.397 . S
C1398 C1403 1.363 . S
C1399 H1370 0.950 . S
C1399 C1398 1.397 . S
C1399 C1400 1.334 . S
C1400 H1371 0.950 . S
C1400 C1399 1.334 . S
C1400 C1401 1.287 . S
C1401 C1400 1.287 . S
C1401 C1402 1.524 . S
C1401 H1404 0.999 . S
C1402 H1372 0.950 . S
C1402 C1401 1.524 . S
C1402 C1403 1.415 . S
C1403 H1373 0.950 . S
C1403 C1398 1.363 . S
C1403 C1402 1.415 . S
H1404 C1401 0.999 . S
H1405 C1386 0.913 . S
H1406 C1424 0.951 . S
H1407 C1426 0.951 . S
H1408 C1428 0.950 . S
H1409 C1429 0.950 . S
H1410 C1431 0.950 . S
H1411 C1434 0.950 . S
H1412 C1435 0.950 1_554 S
H1413 C1437 0.950 . S
H1414 C1438 0.950 . S
H1415 C1439 0.951 . S
H1416 C1441 0.951 . S
H1417 C1443 0.950 . S
H1418 C1444 0.950 . S
H1419 C1446 0.950 . S
H1420 C1449 0.950 . S
H1421 C1450 0.950 . S
H1422 C1452 0.950 . S
H1423 C1453 0.950 . S
C1424 H1406 0.951 . S
C1424 C1425 1.366 . S
C1424 C1426 1.388 . S
C1425 C1424 1.366 . S
C1425 C1429 1.385 . S
C1426 H1407 0.951 . S
C1426 C1424 1.388 . S
C1426 C1427 1.366 . S
C1427 C1426 1.366 . S
C1427 C1428 1.414 . S
C1427 C1430 1.499 . S
C1428 H1408 0.950 . S
C1428 C1427 1.414 . S
C1428 C1429 1.374 . S
C1429 H1409 0.950 . S
C1429 C1425 1.385 . S
C1429 C1428 1.374 . S
C1430 C1427 1.499 . S
C1430 C1431 1.373 . S
C1430 C1432 1.389 . S
C1431 H1410 0.950 . S
C1431 C1430 1.373 . S
C1431 C1447 1.377 . S
C1432 C1430 1.389 . S
C1432 C1433 1.524 . S
C1432 C1446 1.377 . S
C1433 C1432 1.524 . S
C1433 C1434 1.397 . S
C1433 C1438 1.363 . S
C1434 H1411 0.950 . S
C1434 C1433 1.397 . S
C1434 C1435 1.334 . S
C1435 H1412 0.950 1_556 S
C1435 C1434 1.334 . S
C1435 C1436 1.287 . S
C1436 C1435 1.287 . S
C1436 C1437 1.524 . S
C1436 H1455 0.913 1_556 S
C1437 H1413 0.950 . S
C1437 C1436 1.524 . S
C1437 C1438 1.415 . S
C1438 H1414 0.950 . S
C1438 C1433 1.363 . S
C1438 C1437 1.415 . S
C1439 H1415 0.951 . S
C1439 C1440 1.366 . S
C1439 C1441 1.388 . S
C1440 C1439 1.366 . S
C1440 C1444 1.385 . S
C1441 H1416 0.951 . S
C1441 C1439 1.388 . S
C1441 C1442 1.366 . S
C1442 C1441 1.366 . S
C1442 C1443 1.414 . S
C1442 C1445 1.499 . S
C1443 H1417 0.950 . S
C1443 C1442 1.414 . S
C1443 C1444 1.374 . S
C1444 H1418 0.950 . S
C1444 C1440 1.385 . S
C1444 C1443 1.374 . S
C1445 C1442 1.499 . S
C1445 C1446 1.373 . S
C1445 C1447 1.389 . S
C1446 H1419 0.950 . S
C1446 C1432 1.377 . S
C1446 C1445 1.373 . S
C1447 C1431 1.377 . S
C1447 C1445 1.389 . S
C1447 C1448 1.524 . S
C1448 C1447 1.524 . S
C1448 C1449 1.397 . S
C1448 C1453 1.363 . S
C1449 H1420 0.950 . S
C1449 C1448 1.397 . S
C1449 C1450 1.334 . S
C1450 H1421 0.950 . S
C1450 C1449 1.334 . S
C1450 C1451 1.287 . S
C1451 C1450 1.287 . S
C1451 C1452 1.524 . S
C1451 H1454 0.999 . S
C1452 H1422 0.950 . S
C1452 C1451 1.524 . S
C1452 C1453 1.415 . S
C1453 H1423 0.950 . S
C1453 C1448 1.363 . S
C1453 C1452 1.415 . S
H1454 C1451 0.999 . S
H1455 C1436 0.913 1_554 S
H1456 C1474 0.951 . S
H1457 C1476 0.951 . S
H1458 C1478 0.950 . S
H1459 C1479 0.950 . S
H1460 C1481 0.950 . S
H1461 C1484 0.950 . S
H1462 C1485 0.950 . S
H1463 C1487 0.950 . S
H1464 C1488 0.950 . S
H1465 C1489 0.951 . S
H1466 C1491 0.951 . S
H1467 C1493 0.950 . S
H1468 C1494 0.950 . S
H1469 C1496 0.950 . S
H1470 C1499 0.950 . S
H1471 C1500 0.950 . S
H1472 C1502 0.950 . S
H1473 C1503 0.950 . S
C1474 H1456 0.951 . S
C1474 C1475 1.366 . S
C1474 C1476 1.388 . S
C1475 C1474 1.366 . S
C1475 C1479 1.385 . S
C1476 H1457 0.951 . S
C1476 C1474 1.388 . S
C1476 C1477 1.366 . S
C1477 C1476 1.366 . S
C1477 C1478 1.414 . S
C1477 C1480 1.499 . S
C1478 H1458 0.950 . S
C1478 C1477 1.414 . S
C1478 C1479 1.374 . S
C1479 H1459 0.950 . S
C1479 C1475 1.385 . S
C1479 C1478 1.374 . S
C1480 C1477 1.499 . S
C1480 C1481 1.373 . S
C1480 C1482 1.389 . S
C1481 H1460 0.950 . S
C1481 C1480 1.373 . S
C1481 C1497 1.377 . S
C1482 C1480 1.389 . S
C1482 C1483 1.524 . S
C1482 C1496 1.377 . S
C1483 C1482 1.524 . S
C1483 C1484 1.397 . S
C1483 C1488 1.363 . S
C1484 H1461 0.950 . S
C1484 C1483 1.397 . S
C1484 C1485 1.334 . S
C1485 H1462 0.950 . S
C1485 C1484 1.334 . S
C1485 C1486 1.287 1_455 S
C1486 C1485 1.287 1_655 S
C1486 C1487 1.524 . S
C1486 H1505 0.913 . S
C1487 H1463 0.950 . S
C1487 C1486 1.524 . S
C1487 C1488 1.415 1_655 S
C1488 H1464 0.950 . S
C1488 C1483 1.363 . S
C1488 C1487 1.415 1_455 S
C1489 H1465 0.951 . S
C1489 C1490 1.366 . S
C1489 C1491 1.388 . S
C1490 C1489 1.366 . S
C1490 C1494 1.385 . S
C1491 H1466 0.951 . S
C1491 C1489 1.388 . S
C1491 C1492 1.366 . S
C1492 C1491 1.366 . S
C1492 C1493 1.414 . S
C1492 C1495 1.499 . S
C1493 H1467 0.950 . S
C1493 C1492 1.414 . S
C1493 C1494 1.374 . S
C1494 H1468 0.950 . S
C1494 C1490 1.385 . S
C1494 C1493 1.374 . S
C1495 C1492 1.499 . S
C1495 C1496 1.373 . S
C1495 C1497 1.389 . S
C1496 H1469 0.950 . S
C1496 C1482 1.377 . S
C1496 C1495 1.373 . S
C1497 C1481 1.377 . S
C1497 C1495 1.389 . S
C1497 C1498 1.524 . S
C1498 C1497 1.524 . S
C1498 C1499 1.397 . S
C1498 C1503 1.363 . S
C1499 H1470 0.950 . S
C1499 C1498 1.397 . S
C1499 C1500 1.334 . S
C1500 H1471 0.950 . S
C1500 C1499 1.334 . S
C1500 C1501 1.287 . S
C1501 C1500 1.287 . S
C1501 C1502 1.524 . S
C1501 H1504 0.999 . S
C1502 H1472 0.950 . S
C1502 C1501 1.524 . S
C1502 C1503 1.415 . S
C1503 H1473 0.950 . S
C1503 C1498 1.363 . S
C1503 C1502 1.415 . S
H1504 C1501 0.999 . S
H1505 C1486 0.913 . S
H1506 C1524 0.951 . S
H1507 C1526 0.951 . S
H1508 C1528 0.950 . S
H1509 C1529 0.950 . S
H1510 C1531 0.950 . S
H1511 C1534 0.950 . S
H1512 C1535 0.950 . S
H1513 C1537 0.950 . S
H1514 C1538 0.950 . S
H1515 C1539 0.951 . S
H1516 C1541 0.951 . S
H1517 C1543 0.950 . S
H1518 C1544 0.950 . S
H1519 C1546 0.950 . S
H1520 C1549 0.950 . S
H1521 C1550 0.950 . S
H1522 C1552 0.950 . S
H1523 C1553 0.950 . S
C1524 H1506 0.951 . S
C1524 C1525 1.366 . S
C1524 C1526 1.388 . S
C1525 C1524 1.366 . S
C1525 C1529 1.385 . S
C1526 H1507 0.951 . S
C1526 C1524 1.388 . S
C1526 C1527 1.366 . S
C1527 C1526 1.366 . S
C1527 C1528 1.414 . S
C1527 C1530 1.499 . S
C1528 H1508 0.950 . S
C1528 C1527 1.414 . S
C1528 C1529 1.374 . S
C1529 H1509 0.950 . S
C1529 C1525 1.385 . S
C1529 C1528 1.374 . S
C1530 C1527 1.499 . S
C1530 C1531 1.373 . S
C1530 C1532 1.389 . S
C1531 H1510 0.950 . S
C1531 C1530 1.373 . S
C1531 C1547 1.377 . S
C1532 C1530 1.389 . S
C1532 C1533 1.524 . S
C1532 C1546 1.377 . S
C1533 C1532 1.524 . S
C1533 C1534 1.397 . S
C1533 C1538 1.363 . S
C1534 H1511 0.950 . S
C1534 C1533 1.397 . S
C1534 C1535 1.334 . S
C1535 H1512 0.950 . S
C1535 C1534 1.334 . S
C1535 C1536 1.287 . S
C1536 C1535 1.287 . S
C1536 C1537 1.524 . S
C1536 H1555 0.913 . S
C1537 H1513 0.950 . S
C1537 C1536 1.524 . S
C1537 C1538 1.415 . S
C1538 H1514 0.950 . S
C1538 C1533 1.363 . S
C1538 C1537 1.415 . S
C1539 H1515 0.951 . S
C1539 C1540 1.366 . S
C1539 C1541 1.388 . S
C1540 C1539 1.366 . S
C1540 C1544 1.385 . S
C1541 H1516 0.951 . S
C1541 C1539 1.388 . S
C1541 C1542 1.366 . S
C1542 C1541 1.366 . S
C1542 C1543 1.414 . S
C1542 C1545 1.499 . S
C1543 H1517 0.950 . S
C1543 C1542 1.414 . S
C1543 C1544 1.374 . S
C1544 H1518 0.950 . S
C1544 C1540 1.385 . S
C1544 C1543 1.374 . S
C1545 C1542 1.499 . S
C1545 C1546 1.373 . S
C1545 C1547 1.389 . S
C1546 H1519 0.950 . S
C1546 C1532 1.377 . S
C1546 C1545 1.373 . S
C1547 C1531 1.377 . S
C1547 C1545 1.389 . S
C1547 C1548 1.524 . S
C1548 C1547 1.524 . S
C1548 C1549 1.397 . S
C1548 C1553 1.363 . S
C1549 H1520 0.950 . S
C1549 C1548 1.397 . S
C1549 C1550 1.334 1_545 S
C1550 H1521 0.950 . S
C1550 C1549 1.334 1_565 S
C1550 C1551 1.287 . S
C1551 C1550 1.287 . S
C1551 C1552 1.524 . S
C1551 H1554 0.999 . S
C1552 H1522 0.950 . S
C1552 C1551 1.524 . S
C1552 C1553 1.415 1_565 S
C1553 H1523 0.950 . S
C1553 C1548 1.363 . S
C1553 C1552 1.415 1_545 S
H1554 C1551 0.999 . S
H1555 C1536 0.913 . S
H1556 C1574 0.951 . S
H1557 C1576 0.951 . S
H1558 C1578 0.950 . S
H1559 C1579 0.950 . S
H1560 C1581 0.950 . S
H1561 C1584 0.950 . S
H1562 C1585 0.950 . S
H1563 C1587 0.950 . S
H1564 C1588 0.950 . S
H1565 C1589 0.951 . S
H1566 C1591 0.951 . S
H1567 C1593 0.950 . S
H1568 C1594 0.950 . S
H1569 C1596 0.950 . S
H1570 C1599 0.950 . S
H1571 C1600 0.950 . S
H1572 C1602 0.950 . S
H1573 C1603 0.950 . S
C1574 H1556 0.951 . S
C1574 C1575 1.366 . S
C1574 C1576 1.388 . S
C1575 C1574 1.366 . S
C1575 C1579 1.385 . S
C1576 H1557 0.951 . S
C1576 C1574 1.388 . S
C1576 C1577 1.366 . S
C1577 C1576 1.366 . S
C1577 C1578 1.414 . S
C1577 C1580 1.499 . S
C1578 H1558 0.950 . S
C1578 C1577 1.414 . S
C1578 C1579 1.374 . S
C1579 H1559 0.950 . S
C1579 C1575 1.385 . S
C1579 C1578 1.374 . S
C1580 C1577 1.499 . S
C1580 C1581 1.373 . S
C1580 C1582 1.389 . S
C1581 H1560 0.950 . S
C1581 C1580 1.373 . S
C1581 C1597 1.377 . S
C1582 C1580 1.389 . S
C1582 C1583 1.524 . S
C1582 C1596 1.377 . S
C1583 C1582 1.524 . S
C1583 C1584 1.397 . S
C1583 C1588 1.363 . S
C1584 H1561 0.950 . S
C1584 C1583 1.397 . S
C1584 C1585 1.334 . S
C1585 H1562 0.950 . S
C1585 C1584 1.334 . S
C1585 C1586 1.287 . S
C1586 C1585 1.287 . S
C1586 C1587 1.524 . S
C1586 H1605 0.913 . S
C1587 H1563 0.950 . S
C1587 C1586 1.524 . S
C1587 C1588 1.415 . S
C1588 H1564 0.950 . S
C1588 C1583 1.363 . S
C1588 C1587 1.415 . S
C1589 H1565 0.951 . S
C1589 C1590 1.366 . S
C1589 C1591 1.388 . S
C1590 C1589 1.366 . S
C1590 C1594 1.385 . S
C1591 H1566 0.951 . S
C1591 C1589 1.388 . S
C1591 C1592 1.366 . S
C1592 C1591 1.366 . S
C1592 C1593 1.414 . S
C1592 C1595 1.499 . S
C1593 H1567 0.950 . S
C1593 C1592 1.414 . S
C1593 C1594 1.374 . S
C1594 H1568 0.950 . S
C1594 C1590 1.385 . S
C1594 C1593 1.374 . S
C1595 C1592 1.499 . S
C1595 C1596 1.373 . S
C1595 C1597 1.389 . S
C1596 H1569 0.950 . S
C1596 C1582 1.377 . S
C1596 C1595 1.373 . S
C1597 C1581 1.377 . S
C1597 C1595 1.389 . S
C1597 C1598 1.524 . S
C1598 C1597 1.524 . S
C1598 C1599 1.397 . S
C1598 C1603 1.363 . S
C1599 H1570 0.950 . S
C1599 C1598 1.397 . S
C1599 C1600 1.334 . S
C1600 H1571 0.950 . S
C1600 C1599 1.334 . S
C1600 C1601 1.287 . S
C1601 C1600 1.287 . S
C1601 C1602 1.524 . S
C1601 H1604 0.999 . S
C1602 H1572 0.950 . S
C1602 C1601 1.524 . S
C1602 C1603 1.415 . S
C1603 H1573 0.950 . S
C1603 C1598 1.363 . S
C1603 C1602 1.415 . S
H1604 C1601 0.999 . S
H1605 C1586 0.913 . S
H1606 C1624 0.951 . S
H1607 C1626 0.951 . S
H1608 C1628 0.950 . S
H1609 C1629 0.950 . S
H1610 C1631 0.950 . S
H1611 C1634 0.950 . S
H1612 C1635 0.950 . S
H1613 C1637 0.950 . S
H1614 C1638 0.950 . S
H1615 C1639 0.951 . S
H1616 C1641 0.951 . S
H1617 C1643 0.950 . S
H1618 C1644 0.950 . S
H1619 C1646 0.950 . S
H1620 C1649 0.950 . S
H1621 C1650 0.950 . S
H1622 C1652 0.950 . S
H1623 C1653 0.950 . S
C1624 H1606 0.951 . S
C1624 C1625 1.366 . S
C1624 C1626 1.388 . S
C1625 C1624 1.366 . S
C1625 C1629 1.385 . S
C1626 H1607 0.951 . S
C1626 C1624 1.388 . S
C1626 C1627 1.366 . S
C1627 C1626 1.366 . S
C1627 C1628 1.414 . S
C1627 C1630 1.499 . S
C1628 H1608 0.950 . S
C1628 C1627 1.414 . S
C1628 C1629 1.374 . S
C1629 H1609 0.950 . S
C1629 C1625 1.385 . S
C1629 C1628 1.374 . S
C1630 C1627 1.499 . S
C1630 C1631 1.373 . S
C1630 C1632 1.389 . S
C1631 H1610 0.950 . S
C1631 C1630 1.373 . S
C1631 C1647 1.377 . S
C1632 C1630 1.389 . S
C1632 C1633 1.524 . S
C1632 C1646 1.377 . S
C1633 C1632 1.524 . S
C1633 C1634 1.397 . S
C1633 C1638 1.363 . S
C1634 H1611 0.950 . S
C1634 C1633 1.397 . S
C1634 C1635 1.334 . S
C1635 H1612 0.950 . S
C1635 C1634 1.334 . S
C1635 C1636 1.287 . S
C1636 C1635 1.287 . S
C1636 C1637 1.524 . S
C1636 H1655 0.913 . S
C1637 H1613 0.950 . S
C1637 C1636 1.524 . S
C1637 C1638 1.415 . S
C1638 H1614 0.950 . S
C1638 C1633 1.363 . S
C1638 C1637 1.415 . S
C1639 H1615 0.951 . S
C1639 C1640 1.366 . S
C1639 C1641 1.388 . S
C1640 C1639 1.366 . S
C1640 C1644 1.385 . S
C1641 H1616 0.951 . S
C1641 C1639 1.388 . S
C1641 C1642 1.366 . S
C1642 C1641 1.366 . S
C1642 C1643 1.414 . S
C1642 C1645 1.499 . S
C1643 H1617 0.950 . S
C1643 C1642 1.414 . S
C1643 C1644 1.374 . S
C1644 H1618 0.950 . S
C1644 C1640 1.385 . S
C1644 C1643 1.374 . S
C1645 C1642 1.499 . S
C1645 C1646 1.373 . S
C1645 C1647 1.389 . S
C1646 H1619 0.950 . S
C1646 C1632 1.377 . S
C1646 C1645 1.373 . S
C1647 C1631 1.377 . S
C1647 C1645 1.389 . S
C1647 C1648 1.524 . S
C1648 C1647 1.524 . S
C1648 C1649 1.397 . S
C1648 C1653 1.363 . S
C1649 H1620 0.950 . S
C1649 C1648 1.397 . S
C1649 C1650 1.334 . S
C1650 H1621 0.950 . S
C1650 C1649 1.334 . S
C1650 C1651 1.287 . S
C1651 C1650 1.287 . S
C1651 C1652 1.524 . S
C1651 H1654 0.999 . S
C1652 H1622 0.950 . S
C1652 C1651 1.524 . S
C1652 C1653 1.415 . S
C1653 H1623 0.950 . S
C1653 C1648 1.363 . S
C1653 C1652 1.415 . S
H1654 C1651 0.999 . S
H1655 C1636 0.913 . S
H1656 C1674 0.951 . S
H1657 C1676 0.951 . S
H1658 C1678 0.950 . S
H1659 C1679 0.950 . S
H1660 C1681 0.950 . S
H1661 C1684 0.950 . S
H1662 C1685 0.950 . S
H1663 C1687 0.950 . S
H1664 C1688 0.950 . S
H1665 C1689 0.951 1_455 S
H1666 C1691 0.951 . S
H1667 C1693 0.950 . S
H1668 C1694 0.950 . S
H1669 C1696 0.950 . S
H1670 C1699 0.950 . S
H1671 C1700 0.950 . S
H1672 C1702 0.950 . S
H1673 C1703 0.950 . S
C1674 H1656 0.951 . S
C1674 C1675 1.366 . S
C1674 C1676 1.388 . S
C1675 C1674 1.366 . S
C1675 C1679 1.385 . S
C1676 H1657 0.951 . S
C1676 C1674 1.388 . S
C1676 C1677 1.366 . S
C1677 C1676 1.366 . S
C1677 C1678 1.414 . S
C1677 C1680 1.499 . S
C1678 H1658 0.950 . S
C1678 C1677 1.414 . S
C1678 C1679 1.374 . S
C1679 H1659 0.950 . S
C1679 C1675 1.385 . S
C1679 C1678 1.374 . S
C1680 C1677 1.499 . S
C1680 C1681 1.373 . S
C1680 C1682 1.389 . S
C1681 H1660 0.950 . S
C1681 C1680 1.373 . S
C1681 C1697 1.377 . S
C1682 C1680 1.389 . S
C1682 C1683 1.524 . S
C1682 C1696 1.377 . S
C1683 C1682 1.524 . S
C1683 C1684 1.397 . S
C1683 C1688 1.363 . S
C1684 H1661 0.950 . S
C1684 C1683 1.397 . S
C1684 C1685 1.334 . S
C1685 H1662 0.950 . S
C1685 C1684 1.334 . S
C1685 C1686 1.287 . S
C1686 C1685 1.287 . S
C1686 C1687 1.524 . S
C1686 H1705 0.913 . S
C1687 H1663 0.950 . S
C1687 C1686 1.524 . S
C1687 C1688 1.415 . S
C1688 H1664 0.950 . S
C1688 C1683 1.363 . S
C1688 C1687 1.415 . S
C1689 H1665 0.951 1_655 S
C1689 C1690 1.366 . S
C1689 C1691 1.388 . S
C1690 C1689 1.366 . S
C1690 C1694 1.385 . S
C1691 H1666 0.951 . S
C1691 C1689 1.388 . S
C1691 C1692 1.366 . S
C1692 C1691 1.366 . S
C1692 C1693 1.414 . S
C1692 C1695 1.499 . S
C1693 H1667 0.950 . S
C1693 C1692 1.414 . S
C1693 C1694 1.374 . S
C1694 H1668 0.950 . S
C1694 C1690 1.385 . S
C1694 C1693 1.374 . S
C1695 C1692 1.499 . S
C1695 C1696 1.373 . S
C1695 C1697 1.389 . S
C1696 H1669 0.950 . S
C1696 C1682 1.377 . S
C1696 C1695 1.373 . S
C1697 C1681 1.377 . S
C1697 C1695 1.389 . S
C1697 C1698 1.524 . S
C1698 C1697 1.524 . S
C1698 C1699 1.397 . S
C1698 C1703 1.363 1_655 S
C1699 H1670 0.950 . S
C1699 C1698 1.397 . S
C1699 C1700 1.334 1_655 S
C1700 H1671 0.950 . S
C1700 C1699 1.334 1_455 S
C1700 C1701 1.287 . S
C1701 C1700 1.287 . S
C1701 C1702 1.524 . S
C1701 H1704 0.999 . S
C1702 H1672 0.950 . S
C1702 C1701 1.524 . S
C1702 C1703 1.415 . S
C1703 H1673 0.950 . S
C1703 C1698 1.363 1_455 S
C1703 C1702 1.415 . S
H1704 C1701 0.999 . S
H1705 C1686 0.913 . S
H1706 C1724 0.951 . S
H1707 C1726 0.951 . S
H1708 C1728 0.950 . S
H1709 C1729 0.950 . S
H1710 C1731 0.950 . S
H1711 C1734 0.950 . S
H1712 C1735 0.950 . S
H1713 C1737 0.950 . S
H1714 C1738 0.950 . S
H1715 C1739 0.951 . S
H1716 C1741 0.951 . S
H1717 C1743 0.950 . S
H1718 C1744 0.950 . S
H1719 C1746 0.950 . S
H1720 C1749 0.950 . S
H1721 C1750 0.950 . S
H1722 C1752 0.950 . S
H1723 C1753 0.950 . S
C1724 H1706 0.951 . S
C1724 C1725 1.366 . S
C1724 C1726 1.388 . S
C1725 C1724 1.366 . S
C1725 C1729 1.385 . S
C1726 H1707 0.951 . S
C1726 C1724 1.388 . S
C1726 C1727 1.366 . S
C1727 C1726 1.366 . S
C1727 C1728 1.414 . S
C1727 C1730 1.499 . S
C1728 H1708 0.950 . S
C1728 C1727 1.414 . S
C1728 C1729 1.374 . S
C1729 H1709 0.950 . S
C1729 C1725 1.385 . S
C1729 C1728 1.374 . S
C1730 C1727 1.499 . S
C1730 C1731 1.373 . S
C1730 C1732 1.389 . S
C1731 H1710 0.950 . S
C1731 C1730 1.373 . S
C1731 C1747 1.377 . S
C1732 C1730 1.389 . S
C1732 C1733 1.524 . S
C1732 C1746 1.377 . S
C1733 C1732 1.524 . S
C1733 C1734 1.397 . S
C1733 C1738 1.363 . S
C1734 H1711 0.950 . S
C1734 C1733 1.397 . S
C1734 C1735 1.334 . S
C1735 H1712 0.950 . S
C1735 C1734 1.334 . S
C1735 C1736 1.287 . S
C1736 C1735 1.287 . S
C1736 C1737 1.524 . S
C1736 H1755 0.913 . S
C1737 H1713 0.950 . S
C1737 C1736 1.524 . S
C1737 C1738 1.415 . S
C1738 H1714 0.950 . S
C1738 C1733 1.363 . S
C1738 C1737 1.415 . S
C1739 H1715 0.951 . S
C1739 C1740 1.366 . S
C1739 C1741 1.388 . S
C1740 C1739 1.366 . S
C1740 C1744 1.385 . S
C1741 H1716 0.951 . S
C1741 C1739 1.388 . S
C1741 C1742 1.366 . S
C1742 C1741 1.366 . S
C1742 C1743 1.414 . S
C1742 C1745 1.499 . S
C1743 H1717 0.950 . S
C1743 C1742 1.414 . S
C1743 C1744 1.374 . S
C1744 H1718 0.950 . S
C1744 C1740 1.385 . S
C1744 C1743 1.374 . S
C1745 C1742 1.499 . S
C1745 C1746 1.373 . S
C1745 C1747 1.389 . S
C1746 H1719 0.950 . S
C1746 C1732 1.377 . S
C1746 C1745 1.373 . S
C1747 C1731 1.377 . S
C1747 C1745 1.389 . S
C1747 C1748 1.524 . S
C1748 C1747 1.524 . S
C1748 C1749 1.397 1_565 S
C1748 C1753 1.363 . S
C1749 H1720 0.950 . S
C1749 C1748 1.397 1_545 S
C1749 C1750 1.334 . S
C1750 H1721 0.950 . S
C1750 C1749 1.334 . S
C1750 C1751 1.287 . S
C1751 C1750 1.287 . S
C1751 C1752 1.524 1_545 S
C1751 H1754 0.999 . S
C1752 H1722 0.950 . S
C1752 C1751 1.524 1_565 S
C1752 C1753 1.415 . S
C1753 H1723 0.950 . S
C1753 C1748 1.363 . S
C1753 C1752 1.415 . S
H1754 C1751 0.999 . S
H1755 C1736 0.913 . S
H1756 C1774 0.951 . S
H1757 C1776 0.951 . S
H1758 C1778 0.950 . S
H1759 C1779 0.950 . S
H1760 C1781 0.950 . S
H1761 C1784 0.950 . S
H1762 C1785 0.950 . S
H1763 C1787 0.950 . S
H1764 C1788 0.950 . S
H1765 C1789 0.951 . S
H1766 C1791 0.951 . S
H1767 C1793 0.950 . S
H1768 C1794 0.950 . S
H1769 C1796 0.950 . S
H1770 C1799 0.950 . S
H1771 C1800 0.950 . S
H1772 C1802 0.950 . S
H1773 C1803 0.950 . S
C1774 H1756 0.951 . S
C1774 C1775 1.366 . S
C1774 C1776 1.388 . S
C1775 C1774 1.366 . S
C1775 C1779 1.385 . S
C1776 H1757 0.951 . S
C1776 C1774 1.388 . S
C1776 C1777 1.366 . S
C1777 C1776 1.366 . S
C1777 C1778 1.414 . S
C1777 C1780 1.499 . S
C1778 H1758 0.950 . S
C1778 C1777 1.414 . S
C1778 C1779 1.374 . S
C1779 H1759 0.950 . S
C1779 C1775 1.385 . S
C1779 C1778 1.374 . S
C1780 C1777 1.499 . S
C1780 C1781 1.373 . S
C1780 C1782 1.389 . S
C1781 H1760 0.950 . S
C1781 C1780 1.373 . S
C1781 C1797 1.377 . S
C1782 C1780 1.389 . S
C1782 C1783 1.524 . S
C1782 C1796 1.377 . S
C1783 C1782 1.524 . S
C1783 C1784 1.397 . S
C1783 C1788 1.363 . S
C1784 H1761 0.950 . S
C1784 C1783 1.397 . S
C1784 C1785 1.334 . S
C1785 H1762 0.950 . S
C1785 C1784 1.334 . S
C1785 C1786 1.287 . S
C1786 C1785 1.287 . S
C1786 C1787 1.524 . S
C1786 H1805 0.913 . S
C1787 H1763 0.950 . S
C1787 C1786 1.524 . S
C1787 C1788 1.415 . S
C1788 H1764 0.950 . S
C1788 C1783 1.363 . S
C1788 C1787 1.415 . S
C1789 H1765 0.951 . S
C1789 C1790 1.366 . S
C1789 C1791 1.388 . S
C1790 C1789 1.366 . S
C1790 C1794 1.385 . S
C1791 H1766 0.951 . S
C1791 C1789 1.388 . S
C1791 C1792 1.366 . S
C1792 C1791 1.366 . S
C1792 C1793 1.414 . S
C1792 C1795 1.499 . S
C1793 H1767 0.950 . S
C1793 C1792 1.414 . S
C1793 C1794 1.374 . S
C1794 H1768 0.950 . S
C1794 C1790 1.385 . S
C1794 C1793 1.374 . S
C1795 C1792 1.499 . S
C1795 C1796 1.373 . S
C1795 C1797 1.389 . S
C1796 H1769 0.950 . S
C1796 C1782 1.377 . S
C1796 C1795 1.373 . S
C1797 C1781 1.377 . S
C1797 C1795 1.389 . S
C1797 C1798 1.524 . S
C1798 C1797 1.524 . S
C1798 C1799 1.397 . S
C1798 C1803 1.363 . S
C1799 H1770 0.950 . S
C1799 C1798 1.397 . S
C1799 C1800 1.334 . S
C1800 H1771 0.950 . S
C1800 C1799 1.334 . S
C1800 C1801 1.287 . S
C1801 C1800 1.287 . S
C1801 C1802 1.524 . S
C1801 H1804 0.999 . S
C1802 H1772 0.950 . S
C1802 C1801 1.524 . S
C1802 C1803 1.415 . S
C1803 H1773 0.950 . S
C1803 C1798 1.363 . S
C1803 C1802 1.415 . S
H1804 C1801 0.999 . S
H1805 C1786 0.913 . S
H1806 C1824 0.951 . S
H1807 C1826 0.951 . S
H1808 C1828 0.950 . S
H1809 C1829 0.950 . S
H1810 C1831 0.950 . S
H1811 C1834 0.950 . S
H1812 C1835 0.950 . S
H1813 C1837 0.950 . S
H1814 C1838 0.950 . S
H1815 C1839 0.951 . S
H1816 C1841 0.951 . S
H1817 C1843 0.950 . S
H1818 C1844 0.950 . S
H1819 C1846 0.950 . S
H1820 C1849 0.950 . S
H1821 C1850 0.950 . S
H1822 C1852 0.950 . S
H1823 C1853 0.950 . S
C1824 H1806 0.951 . S
C1824 C1825 1.366 . S
C1824 C1826 1.388 . S
C1825 C1824 1.366 . S
C1825 C1829 1.385 . S
C1826 H1807 0.951 . S
C1826 C1824 1.388 . S
C1826 C1827 1.366 . S
C1827 C1826 1.366 . S
C1827 C1828 1.414 . S
C1827 C1830 1.499 . S
C1828 H1808 0.950 . S
C1828 C1827 1.414 . S
C1828 C1829 1.374 . S
C1829 H1809 0.950 . S
C1829 C1825 1.385 . S
C1829 C1828 1.374 . S
C1830 C1827 1.499 . S
C1830 C1831 1.373 . S
C1830 C1832 1.389 . S
C1831 H1810 0.950 . S
C1831 C1830 1.373 . S
C1831 C1847 1.377 . S
C1832 C1830 1.389 . S
C1832 C1833 1.524 . S
C1832 C1846 1.377 . S
C1833 C1832 1.524 . S
C1833 C1834 1.397 . S
C1833 C1838 1.363 . S
C1834 H1811 0.950 . S
C1834 C1833 1.397 . S
C1834 C1835 1.334 . S
C1835 H1812 0.950 . S
C1835 C1834 1.334 . S
C1835 C1836 1.287 . S
C1836 C1835 1.287 . S
C1836 C1837 1.524 . S
C1836 H1855 0.913 . S
C1837 H1813 0.950 . S
C1837 C1836 1.524 . S
C1837 C1838 1.415 . S
C1838 H1814 0.950 . S
C1838 C1833 1.363 . S
C1838 C1837 1.415 . S
C1839 H1815 0.951 . S
C1839 C1840 1.366 . S
C1839 C1841 1.388 . S
C1840 C1839 1.366 . S
C1840 C1844 1.385 . S
C1841 H1816 0.951 . S
C1841 C1839 1.388 . S
C1841 C1842 1.366 . S
C1842 C1841 1.366 . S
C1842 C1843 1.414 . S
C1842 C1845 1.499 . S
C1843 H1817 0.950 . S
C1843 C1842 1.414 . S
C1843 C1844 1.374 . S
C1844 H1818 0.950 . S
C1844 C1840 1.385 . S
C1844 C1843 1.374 . S
C1845 C1842 1.499 . S
C1845 C1846 1.373 . S
C1845 C1847 1.389 . S
C1846 H1819 0.950 . S
C1846 C1832 1.377 . S
C1846 C1845 1.373 . S
C1847 C1831 1.377 . S
C1847 C1845 1.389 . S
C1847 C1848 1.524 . S
C1848 C1847 1.524 . S
C1848 C1849 1.397 . S
C1848 C1853 1.363 . S
C1849 H1820 0.950 . S
C1849 C1848 1.397 . S
C1849 C1850 1.334 . S
C1850 H1821 0.950 . S
C1850 C1849 1.334 . S
C1850 C1851 1.287 . S
C1851 C1850 1.287 . S
C1851 C1852 1.524 . S
C1851 H1854 0.999 . S
C1852 H1822 0.950 . S
C1852 C1851 1.524 . S
C1852 C1853 1.415 . S
C1853 H1823 0.950 . S
C1853 C1848 1.363 . S
C1853 C1852 1.415 . S
H1854 C1851 0.999 . S
H1855 C1836 0.913 . S
C675 C255 2.160 . S
C690 C395 2.213 . S
C740 C479 2.252 . S
C725 C295 2.196 . S
C790 C555 2.208 . S
C775 C175 2.335 . S
C840 C639 2.181 . S
C825 C215 2.309 . S
C890 C386 2.214 1_565 S
C875 C95 2.154 . S
C925 C135 2.187 1_556 S
C940 C470 2.251 . S
C975 C15 2.326 1_556 S
C990 C544 2.208 . S
C1025 C55 2.286 1_556 S
C1040 C628 2.181 . S
C1090 C383 0.416 1_455 S
C1075 C221 0.431 . S
C1140 C467 0.440 . S
C1125 C261 0.376 . S
C1190 C560 0.440 . S
C1175 C301 0.364 . S
C1225 C181 0.404 . S
C1240 C644 0.462 . S
C1275 C61 0.570 . S
C1290 C392 0.449 . S
C1340 C476 0.408 . S
C1325 C101 0.552 . S
C1390 C551 0.442 . S
C1375 C141 0.566 . S
C1425 C21 0.577 . S
C1440 C635 0.458 . S
C1475 C202 2.895 . S
C1490 C376 2.920 . S
C1525 C242 2.841 . S
C1540 C460 2.868 . S
C1590 C554 2.891 . S
C1575 C282 2.713 . S
C1640 C638 2.935 . S
C1625 C162 2.756 . S
C1675 C42 2.816 . S
C1690 C387 2.921 . S
C1740 C471 2.868 . S
C1725 C82 2.767 . S
C1790 C563 2.890 . S
C1775 C122 2.632 . S
C1825 C2 2.673 . S
C1840 C647 2.935 . S
