# Generated by pormake.
# Topology gar, (4,6)-cn, num edge types: 1
# Building blocks:
#     Node 0, Type 0, BuildingBlock: QUQFOY_clean_sbu_3, # of connection points: 4
#     Node 1, Type 0, BuildingBlock: QUQFOY_clean_sbu_3, # of connection points: 4
#     Node 2, Type 0, BuildingBlock: QUQFOY_clean_sbu_3, # of connection points: 4
#     Node 3, Type 0, BuildingBlock: QUQFOY_clean_sbu_3, # of connection points: 4
#     Node 4, Type 0, BuildingBlock: QUQFOY_clean_sbu_3, # of connection points: 4
#     Node 5, Type 0, BuildingBlock: QUQFOY_clean_sbu_3, # of connection points: 4
#     Node 6, Type 0, BuildingBlock: QUQFOY_clean_sbu_3, # of connection points: 4
#     Node 7, Type 0, BuildingBlock: QUQFOY_clean_sbu_3, # of connection points: 4
#     Node 8, Type 0, BuildingBlock: QUQFOY_clean_sbu_3, # of connection points: 4
#     Node 9, Type 0, BuildingBlock: QUQFOY_clean_sbu_3, # of connection points: 4
#     Node 10, Type 0, BuildingBlock: QUQFOY_clean_sbu_3, # of connection points: 4
#     Node 11, Type 0, BuildingBlock: QUQFOY_clean_sbu_3, # of connection points: 4
#     Node 12, Type 0, BuildingBlock: QUQFOY_clean_sbu_3, # of connection points: 4
#     Node 13, Type 0, BuildingBlock: QUQFOY_clean_sbu_3, # of connection points: 4
#     Node 14, Type 0, BuildingBlock: QUQFOY_clean_sbu_3, # of connection points: 4
#     Node 15, Type 0, BuildingBlock: QUQFOY_clean_sbu_3, # of connection points: 4
#     Node 16, Type 0, BuildingBlock: QUQFOY_clean_sbu_3, # of connection points: 4
#     Node 17, Type 0, BuildingBlock: QUQFOY_clean_sbu_3, # of connection points: 4
#     Node 18, Type 0, BuildingBlock: QUQFOY_clean_sbu_3, # of connection points: 4
#     Node 19, Type 0, BuildingBlock: QUQFOY_clean_sbu_3, # of connection points: 4
#     Node 20, Type 0, BuildingBlock: QUQFOY_clean_sbu_3, # of connection points: 4
#     Node 21, Type 0, BuildingBlock: QUQFOY_clean_sbu_3, # of connection points: 4
#     Node 22, Type 0, BuildingBlock: QUQFOY_clean_sbu_3, # of connection points: 4
#     Node 23, Type 0, BuildingBlock: QUQFOY_clean_sbu_3, # of connection points: 4
#     Node 24, Type 1, BuildingBlock: PAMTUU_clean_sbu_0, # of connection points: 6
#     Node 25, Type 1, BuildingBlock: PAMTUU_clean_sbu_0, # of connection points: 6
#     Node 26, Type 1, BuildingBlock: PAMTUU_clean_sbu_0, # of connection points: 6
#     Node 27, Type 1, BuildingBlock: PAMTUU_clean_sbu_0, # of connection points: 6
#     Node 28, Type 1, BuildingBlock: PAMTUU_clean_sbu_0, # of connection points: 6
#     Node 29, Type 1, BuildingBlock: PAMTUU_clean_sbu_0, # of connection points: 6
#     Node 30, Type 1, BuildingBlock: PAMTUU_clean_sbu_0, # of connection points: 6
#     Node 31, Type 1, BuildingBlock: PAMTUU_clean_sbu_0, # of connection points: 6
#     Node 32, Type 1, BuildingBlock: PAMTUU_clean_sbu_0, # of connection points: 6
#     Node 33, Type 1, BuildingBlock: PAMTUU_clean_sbu_0, # of connection points: 6
#     Node 34, Type 1, BuildingBlock: PAMTUU_clean_sbu_0, # of connection points: 6
#     Node 35, Type 1, BuildingBlock: PAMTUU_clean_sbu_0, # of connection points: 6
#     Node 36, Type 1, BuildingBlock: PAMTUU_clean_sbu_0, # of connection points: 6
#     Node 37, Type 1, BuildingBlock: PAMTUU_clean_sbu_0, # of connection points: 6
#     Node 38, Type 1, BuildingBlock: PAMTUU_clean_sbu_0, # of connection points: 6
#     Node 39, Type 1, BuildingBlock: PAMTUU_clean_sbu_0, # of connection points: 6
#     Edge 40, Type (0, 1), BuildingBlock: XUDNAN_clean_linker_2, # of connection points: 2
#     Edge 41, Type (0, 1), BuildingBlock: XUDNAN_clean_linker_2, # of connection points: 2
#     Edge 42, Type (0, 1), BuildingBlock: XUDNAN_clean_linker_2, # of connection points: 2
#     Edge 43, Type (0, 1), BuildingBlock: XUDNAN_clean_linker_2, # of connection points: 2
#     Edge 44, Type (0, 1), BuildingBlock: XUDNAN_clean_linker_2, # of connection points: 2
#     Edge 45, Type (0, 1), BuildingBlock: XUDNAN_clean_linker_2, # of connection points: 2
#     Edge 46, Type (0, 1), BuildingBlock: XUDNAN_clean_linker_2, # of connection points: 2
#     Edge 47, Type (0, 1), BuildingBlock: XUDNAN_clean_linker_2, # of connection points: 2
#     Edge 48, Type (0, 1), BuildingBlock: XUDNAN_clean_linker_2, # of connection points: 2
#     Edge 49, Type (0, 1), BuildingBlock: XUDNAN_clean_linker_2, # of connection points: 2
#     Edge 50, Type (0, 1), BuildingBlock: XUDNAN_clean_linker_2, # of connection points: 2
#     Edge 51, Type (0, 1), BuildingBlock: XUDNAN_clean_linker_2, # of connection points: 2
#     Edge 52, Type (0, 1), BuildingBlock: XUDNAN_clean_linker_2, # of connection points: 2
#     Edge 53, Type (0, 1), BuildingBlock: XUDNAN_clean_linker_2, # of connection points: 2
#     Edge 54, Type (0, 1), BuildingBlock: XUDNAN_clean_linker_2, # of connection points: 2
#     Edge 55, Type (0, 1), BuildingBlock: XUDNAN_clean_linker_2, # of connection points: 2
#     Edge 56, Type (0, 1), BuildingBlock: XUDNAN_clean_linker_2, # of connection points: 2
#     Edge 57, Type (0, 1), BuildingBlock: XUDNAN_clean_linker_2, # of connection points: 2
#     Edge 58, Type (0, 1), BuildingBlock: XUDNAN_clean_linker_2, # of connection points: 2
#     Edge 59, Type (0, 1), BuildingBlock: XUDNAN_clean_linker_2, # of connection points: 2
#     Edge 60, Type (0, 1), BuildingBlock: XUDNAN_clean_linker_2, # of connection points: 2
#     Edge 61, Type (0, 1), BuildingBlock: XUDNAN_clean_linker_2, # of connection points: 2
#     Edge 62, Type (0, 1), BuildingBlock: XUDNAN_clean_linker_2, # of connection points: 2
#     Edge 63, Type (0, 1), BuildingBlock: XUDNAN_clean_linker_2, # of connection points: 2
#     Edge 64, Type (0, 1), BuildingBlock: XUDNAN_clean_linker_2, # of connection points: 2
#     Edge 65, Type (0, 1), BuildingBlock: XUDNAN_clean_linker_2, # of connection points: 2
#     Edge 66, Type (0, 1), BuildingBlock: XUDNAN_clean_linker_2, # of connection points: 2
#     Edge 67, Type (0, 1), BuildingBlock: XUDNAN_clean_linker_2, # of connection points: 2
#     Edge 68, Type (0, 1), BuildingBlock: XUDNAN_clean_linker_2, # of connection points: 2
#     Edge 69, Type (0, 1), BuildingBlock: XUDNAN_clean_linker_2, # of connection points: 2
#     Edge 70, Type (0, 1), BuildingBlock: XUDNAN_clean_linker_2, # of connection points: 2
#     Edge 71, Type (0, 1), BuildingBlock: XUDNAN_clean_linker_2, # of connection points: 2
#     Edge 72, Type (0, 1), BuildingBlock: XUDNAN_clean_linker_2, # of connection points: 2
#     Edge 73, Type (0, 1), BuildingBlock: XUDNAN_clean_linker_2, # of connection points: 2
#     Edge 74, Type (0, 1), BuildingBlock: XUDNAN_clean_linker_2, # of connection points: 2
#     Edge 75, Type (0, 1), BuildingBlock: XUDNAN_clean_linker_2, # of connection points: 2
#     Edge 76, Type (0, 1), BuildingBlock: XUDNAN_clean_linker_2, # of connection points: 2
#     Edge 77, Type (0, 1), BuildingBlock: XUDNAN_clean_linker_2, # of connection points: 2
#     Edge 78, Type (0, 1), BuildingBlock: XUDNAN_clean_linker_2, # of connection points: 2
#     Edge 79, Type (0, 1), BuildingBlock: XUDNAN_clean_linker_2, # of connection points: 2
#     Edge 80, Type (0, 1), BuildingBlock: XUDNAN_clean_linker_2, # of connection points: 2
#     Edge 81, Type (0, 1), BuildingBlock: XUDNAN_clean_linker_2, # of connection points: 2
#     Edge 82, Type (0, 1), BuildingBlock: XUDNAN_clean_linker_2, # of connection points: 2
#     Edge 83, Type (0, 1), BuildingBlock: XUDNAN_clean_linker_2, # of connection points: 2
#     Edge 84, Type (0, 1), BuildingBlock: XUDNAN_clean_linker_2, # of connection points: 2
#     Edge 85, Type (0, 1), BuildingBlock: XUDNAN_clean_linker_2, # of connection points: 2
#     Edge 86, Type (0, 1), BuildingBlock: XUDNAN_clean_linker_2, # of connection points: 2
#     Edge 87, Type (0, 1), BuildingBlock: XUDNAN_clean_linker_2, # of connection points: 2
#     Edge 88, Type (0, 1), BuildingBlock: XUDNAN_clean_linker_2, # of connection points: 2
#     Edge 89, Type (0, 1), BuildingBlock: XUDNAN_clean_linker_2, # of connection points: 2
#     Edge 90, Type (0, 1), BuildingBlock: XUDNAN_clean_linker_2, # of connection points: 2
#     Edge 91, Type (0, 1), BuildingBlock: XUDNAN_clean_linker_2, # of connection points: 2
#     Edge 92, Type (0, 1), BuildingBlock: XUDNAN_clean_linker_2, # of connection points: 2
#     Edge 93, Type (0, 1), BuildingBlock: XUDNAN_clean_linker_2, # of connection points: 2
#     Edge 94, Type (0, 1), BuildingBlock: XUDNAN_clean_linker_2, # of connection points: 2
#     Edge 95, Type (0, 1), BuildingBlock: XUDNAN_clean_linker_2, # of connection points: 2
#     Edge 96, Type (0, 1), BuildingBlock: XUDNAN_clean_linker_2, # of connection points: 2
#     Edge 97, Type (0, 1), BuildingBlock: XUDNAN_clean_linker_2, # of connection points: 2
#     Edge 98, Type (0, 1), BuildingBlock: XUDNAN_clean_linker_2, # of connection points: 2
#     Edge 99, Type (0, 1), BuildingBlock: XUDNAN_clean_linker_2, # of connection points: 2
#     Edge 100, Type (0, 1), BuildingBlock: XUDNAN_clean_linker_2, # of connection points: 2
#     Edge 101, Type (0, 1), BuildingBlock: XUDNAN_clean_linker_2, # of connection points: 2
#     Edge 102, Type (0, 1), BuildingBlock: XUDNAN_clean_linker_2, # of connection points: 2
#     Edge 103, Type (0, 1), BuildingBlock: XUDNAN_clean_linker_2, # of connection points: 2
#     Edge 104, Type (0, 1), BuildingBlock: XUDNAN_clean_linker_2, # of connection points: 2
#     Edge 105, Type (0, 1), BuildingBlock: XUDNAN_clean_linker_2, # of connection points: 2
#     Edge 106, Type (0, 1), BuildingBlock: XUDNAN_clean_linker_2, # of connection points: 2
#     Edge 107, Type (0, 1), BuildingBlock: XUDNAN_clean_linker_2, # of connection points: 2
#     Edge 108, Type (0, 1), BuildingBlock: XUDNAN_clean_linker_2, # of connection points: 2
#     Edge 109, Type (0, 1), BuildingBlock: XUDNAN_clean_linker_2, # of connection points: 2
#     Edge 110, Type (0, 1), BuildingBlock: XUDNAN_clean_linker_2, # of connection points: 2
#     Edge 111, Type (0, 1), BuildingBlock: XUDNAN_clean_linker_2, # of connection points: 2
#     Edge 112, Type (0, 1), BuildingBlock: XUDNAN_clean_linker_2, # of connection points: 2
#     Edge 113, Type (0, 1), BuildingBlock: XUDNAN_clean_linker_2, # of connection points: 2
#     Edge 114, Type (0, 1), BuildingBlock: XUDNAN_clean_linker_2, # of connection points: 2
#     Edge 115, Type (0, 1), BuildingBlock: XUDNAN_clean_linker_2, # of connection points: 2
#     Edge 116, Type (0, 1), BuildingBlock: XUDNAN_clean_linker_2, # of connection points: 2
#     Edge 117, Type (0, 1), BuildingBlock: XUDNAN_clean_linker_2, # of connection points: 2
#     Edge 118, Type (0, 1), BuildingBlock: XUDNAN_clean_linker_2, # of connection points: 2
#     Edge 119, Type (0, 1), BuildingBlock: XUDNAN_clean_linker_2, # of connection points: 2
#     Edge 120, Type (0, 1), BuildingBlock: XUDNAN_clean_linker_2, # of connection points: 2
#     Edge 121, Type (0, 1), BuildingBlock: XUDNAN_clean_linker_2, # of connection points: 2
#     Edge 122, Type (0, 1), BuildingBlock: XUDNAN_clean_linker_2, # of connection points: 2
#     Edge 123, Type (0, 1), BuildingBlock: XUDNAN_clean_linker_2, # of connection points: 2
#     Edge 124, Type (0, 1), BuildingBlock: XUDNAN_clean_linker_2, # of connection points: 2
#     Edge 125, Type (0, 1), BuildingBlock: XUDNAN_clean_linker_2, # of connection points: 2
#     Edge 126, Type (0, 1), BuildingBlock: XUDNAN_clean_linker_2, # of connection points: 2
#     Edge 127, Type (0, 1), BuildingBlock: XUDNAN_clean_linker_2, # of connection points: 2
#     Edge 128, Type (0, 1), BuildingBlock: XUDNAN_clean_linker_2, # of connection points: 2
#     Edge 129, Type (0, 1), BuildingBlock: XUDNAN_clean_linker_2, # of connection points: 2
#     Edge 130, Type (0, 1), BuildingBlock: XUDNAN_clean_linker_2, # of connection points: 2
#     Edge 131, Type (0, 1), BuildingBlock: XUDNAN_clean_linker_2, # of connection points: 2
#     Edge 132, Type (0, 1), BuildingBlock: XUDNAN_clean_linker_2, # of connection points: 2
#     Edge 133, Type (0, 1), BuildingBlock: XUDNAN_clean_linker_2, # of connection points: 2
#     Edge 134, Type (0, 1), BuildingBlock: XUDNAN_clean_linker_2, # of connection points: 2
#     Edge 135, Type (0, 1), BuildingBlock: XUDNAN_clean_linker_2, # of connection points: 2
# Relax obj value: 0.172
# Max RMSD: 0.331
# Mean RMSD: 0.158
data_MOF--net-gar--node1-QUQFOY_clean_sbu_3--node2-PAMTUU_clean_sbu_0--edge1-XUDNAN_clean_linker_2
_symmetry_space_group_name_H-M    P1
_symmetry_Int_Tables_number       1
_symmetry_cell_setting            triclinic
loop_
_symmetry_equiv_pos_as_xyz
'x, y, z'
_cell_length_a     60.16583
_cell_length_b     57.545002
_cell_length_c     60.171753
_cell_angle_alpha  94.477335
_cell_angle_beta   93.670322
_cell_angle_gamma 107.05052
loop_
_atom_site_label
_atom_site_type_symbol
_atom_site_fract_x
_atom_site_fract_y
_atom_site_fract_z
_atom_type_partial_charge
C0 C 1.01257 0.29257 0.36696 0.0
O1 O 0.0274 0.30838 0.35763 0.0
Cd2 Cd 0.06766 0.31744 0.37423 0.0
O3 O 0.02086 0.2815 0.38214 0.0
Cd4 Cd 0.06621 0.28328 0.40161 0.0
C5 C 0.07082 0.34671 0.42463 0.0
O6 O 0.09049 0.28805 0.36562 0.0
O7 O 0.11218 0.29462 0.39606 0.0
O8 O 0.05475 0.23567 0.40373 0.0
C9 C 0.11117 0.29149 0.37479 0.0
O10 O 0.07407 0.3514 0.40459 0.0
C11 C 0.06072 0.23437 0.42422 0.0
O12 O 0.06735 0.32423 0.42889 0.0
O13 O 0.06875 0.25538 0.43527 0.0
C14 C 1.0013 0.79739 0.7007 0.0
O15 O 1.0083 0.78028 0.70763 0.0
Cd16 Cd 0.04384 0.78443 0.68672 0.0
O17 O 0.01447 0.81034 0.68696 0.0
Cd18 Cd 0.05713 0.80997 0.66748 0.0
C19 C 0.04969 0.74521 0.6494 0.0
O20 O 0.08321 0.80636 0.70488 0.0
O21 O 0.10186 0.81366 0.67591 0.0
O22 O 0.0657 0.85718 0.66439 0.0
C23 C 0.10293 0.81015 0.69652 0.0
O24 O 0.0451 0.74527 0.66969 0.0
C25 C 0.06235 0.85809 0.64337 0.0
O26 O 0.05321 0.76595 0.64103 0.0
O27 O 0.0573 0.83703 0.6324 0.0
C28 C 0.50918 0.78851 0.86343 0.0
O29 O 0.52478 0.80581 0.85649 0.0
Cd30 Cd 0.56343 0.81451 0.87869 0.0
O31 O 0.51649 0.77615 0.87791 0.0
Cd32 Cd 0.56127 0.78106 0.89829 0.0
C33 C 0.56257 0.84539 0.9224 0.0
O34 O 0.60148 0.8046 0.87957 0.0
O35 O 0.58649 0.76727 0.8681 0.0
O36 O 0.55142 0.73438 0.90837 0.0
C37 C 0.60419 0.78604 0.86828 0.0
O38 O 0.56587 0.85074 0.90264 0.0
C39 C 0.56058 0.738 0.92851 0.0
O40 O 0.56064 0.82291 0.92617 0.0
O41 O 0.56948 0.76073 0.93506 0.0
C42 C 0.50519 0.29197 0.20461 0.0
O43 O 0.515 0.27568 0.20811 0.0
Cd44 Cd 0.54841 0.28136 0.18513 0.0
O45 O 0.51582 0.3079 0.19161 0.0
Cd46 Cd 0.55825 0.31056 0.16982 0.0
C47 C 0.54998 0.24629 0.14491 0.0
O48 O 0.58806 0.30053 0.20295 0.0
O49 O 0.60353 0.32364 0.17862 0.0
O50 O 0.5621 0.35765 0.16278 0.0
C51 C 0.60699 0.313 0.1957 0.0
O52 O 0.54709 0.24214 0.16504 0.0
C53 C 0.56084 0.35548 0.14142 0.0
O54 O 0.55308 0.26872 0.14055 0.0
O55 O 0.55875 0.33365 0.13335 0.0
C56 C 0.06789 0.80106 0.16738 0.0
O57 O 0.07886 0.78921 0.17833 0.0
Cd58 Cd 0.11615 0.78547 0.17066 0.0
O59 O 0.07664 0.81229 0.15103 0.0
Cd60 Cd 0.11261 0.82139 0.13058 0.0
C61 C 0.1049 0.76011 0.11533 0.0
O62 O 0.13824 0.82593 0.16485 0.0
O63 O 0.1553 0.82982 0.13449 0.0
O64 O 0.10382 0.86061 0.12955 0.0
C65 C 0.15705 0.82939 0.15554 0.0
O66 O 0.1089 0.75841 0.13608 0.0
C67 C 0.10906 0.86409 0.10974 0.0
O68 O 0.10453 0.78044 0.10831 0.0
O69 O 0.11583 0.84767 0.09931 0.0
C70 C 0.48186 0.77864 0.40367 0.0
O71 O 0.49837 0.79351 0.39522 0.0
Cd72 Cd 0.53851 0.80671 0.4076 0.0
O73 O 0.48603 0.76812 0.42075 0.0
Cd74 Cd 0.52273 0.76802 0.44423 0.0
C75 C 0.53405 0.8286 0.46188 0.0
O76 O 0.54664 0.76995 0.41305 0.0
O77 O 0.56555 0.77644 0.44562 0.0
O78 O 0.50642 0.7237 0.44093 0.0
C79 C 0.56576 0.77312 0.42459 0.0
O80 O 0.54064 0.83173 0.44237 0.0
C81 C 0.51363 0.72046 0.46039 0.0
O82 O 0.52519 0.80705 0.46753 0.0
O83 O 0.52335 0.73967 0.47359 0.0
C84 C 0.56213 0.29225 0.66412 0.0
O85 O 0.57306 0.28103 0.6759 0.0
Cd86 Cd 0.61199 0.28207 0.67176 0.0
O87 O 0.57203 0.30508 0.64907 0.0
Cd88 Cd 0.60996 0.31989 0.63144 0.0
C89 C 0.60558 0.2601 0.61512 0.0
O90 O 0.62826 0.32422 0.66809 0.0
O91 O 0.65342 0.33305 0.64405 0.0
O92 O 0.59123 0.35164 0.63116 0.0
C93 C 0.64946 0.331 0.66438 0.0
O94 O 0.60784 0.25773 0.63594 0.0
C95 C 0.59896 0.36097 0.61377 0.0
O96 O 0.60564 0.28056 0.60818 0.0
O97 O 0.61306 0.35175 0.60404 0.0
C98 C 0.97546 0.2739 0.90101 0.0
O99 O 0.99088 0.28904 0.89161 0.0
Cd100 Cd 0.03132 0.30048 0.90142 0.0
O101 O 0.98121 0.26402 0.91799 0.0
Cd102 Cd 0.02013 0.26634 0.93984 0.0
C103 C 0.03454 0.32826 0.95458 0.0
O104 O 0.03545 0.26097 0.90463 0.0
O105 O 0.06191 0.27212 0.93213 0.0
O106 O 1.00069 0.22359 0.94717 0.0
C107 C 0.05621 0.26358 0.91184 0.0
O108 O 0.0396 0.33017 0.93446 0.0
C109 C 0.01459 0.22321 0.96383 0.0
O110 O 0.02562 0.3072 0.96118 0.0
O111 O 0.02994 0.24332 0.9706 0.0
C112 C 0.48442 0.06398 0.35628 0.0
O113 O 0.50073 0.05683 0.34848 0.0
Cd114 Cd 0.5057 0.04263 0.31182 0.0
O115 O 0.46653 0.06437 0.34387 0.0
Cd116 Cd 0.45545 0.05554 0.30284 0.0
C117 C 0.45469 0.99572 0.3026 0.0
O118 O 0.4947 0.07443 0.29616 0.0
O119 O 0.4713 0.06486 0.26625 0.0
O120 O 0.43416 0.08528 0.30403 0.0
C121 C 0.49188 0.07457 0.27531 0.0
O122 O 0.4768 1.00215 0.30634 0.0
C123 C 0.41643 0.07119 0.29205 0.0
O124 O 0.44381 0.01143 0.30074 0.0
O125 O 0.41669 0.04964 0.28614 0.0
C126 C 0.34463 0.17013 0.54349 0.0
O127 O 0.32827 0.15722 0.55361 0.0
Cd128 Cd 0.29095 0.16031 0.55805 0.0
O129 O 0.34212 0.18827 0.53358 0.0
Cd130 Cd 0.3091 0.20742 0.52703 0.0
C131 C 0.30674 0.21915 0.58486 0.0
O132 O 0.28133 0.16802 0.52142 0.0
O133 O 0.26499 0.19641 0.52417 0.0
O134 O 0.31356 0.20964 0.48638 0.0
C135 C 0.26269 0.17377 0.52044 0.0
O136 O 0.29876 0.19609 0.58497 0.0
C137 C 0.31834 0.23262 0.48643 0.0
O138 O 0.31219 0.22866 0.56659 0.0
O139 O 0.31959 0.24448 0.50548 0.0
C140 C 0.13857 0.02912 0.86327 0.0
O141 O 0.12533 0.03933 0.85323 0.0
Cd142 Cd 0.13206 0.06099 0.82077 0.0
O143 O 0.15802 0.02914 0.85621 0.0
Cd144 Cd 0.17915 0.04498 0.82495 0.0
C145 C 0.18369 0.10323 0.84128 0.0
O146 O 0.14747 0.0372 0.79574 0.0
O147 O 0.18078 0.06107 0.78907 0.0
O148 O 0.19457 0.01092 0.81977 0.0
C149 C 0.15959 0.05042 0.78236 0.0
O150 O 0.16308 0.0994 0.83207 0.0
C151 C 0.2157 0.02437 0.82189 0.0
O152 O 0.19233 0.08575 0.84325 0.0
O153 O 0.2195 0.04723 0.82589 0.0
C154 C 0.33293 0.96641 0.994 0.0
O155 O 0.31927 0.97623 0.98409 0.0
Cd156 Cd 0.27782 0.96149 0.98243 0.0
O157 O 0.32495 0.94716 0.00369 0.0
Cd158 Cd 0.28678 0.91947 0.0104 0.0
C159 C 0.26868 0.90562 0.95477 0.0
O160 O 0.27264 0.9529 0.02062 0.0
O161 O 0.24811 0.91751 0.02293 0.0
O162 O 0.30673 0.91265 0.04441 0.0
C163 C 0.25306 0.94057 0.02609 0.0
O164 O 0.2674 0.92711 0.95334 0.0
C165 C 0.29985 0.88952 0.04056 0.0
O166 O 0.27538 0.8993 0.97316 0.0
O167 O 0.28663 0.88044 0.02278 0.0
C168 C 0.36087 0.4167 0.04319 0.0
O169 O 0.34901 0.42892 0.03406 0.0
Cd170 Cd 0.30932 0.41353 0.02028 0.0
O171 O 0.35126 0.39512 0.0484 0.0
Cd172 Cd 0.31038 0.36668 0.04966 0.0
C173 C 0.31063 0.35844 0.99178 0.0
O174 O 0.29188 0.39813 0.05201 0.0
O175 O 0.26804 0.3623 0.04257 0.0
O176 O 0.31729 0.36678 0.09091 0.0
C177 C 0.27102 0.38493 0.04738 0.0
O178 O 0.30936 0.38021 0.99226 0.0
C179 C 0.30992 0.34379 0.09139 0.0
O180 O 0.31147 0.34834 0.00999 0.0
O181 O 0.30393 0.33115 0.07241 0.0
C182 C 0.84036 0.10117 0.07761 0.0
O183 O 0.82885 0.08876 0.09188 0.0
Cd184 Cd 0.79762 0.09871 0.10757 0.0
O185 O 0.83541 0.11972 0.07115 0.0
Cd186 Cd 0.8063 0.14125 0.07593 0.0
C187 C 0.82394 0.15826 0.12977 0.0
O188 O 0.77565 0.10336 0.07478 0.0
O189 O 0.76575 0.13594 0.08324 0.0
O190 O 0.80906 0.14024 0.03646 0.0
C191 C 0.75964 0.11312 0.07752 0.0
O192 O 0.81497 0.13578 0.13219 0.0
C193 C 0.80714 0.16126 0.03422 0.0
O194 O 0.82407 0.16597 0.11053 0.0
O195 O 0.80589 0.17417 0.05198 0.0
C196 C 0.10511 0.5303 0.27909 0.0
O197 O 0.10206 0.54218 0.2628 0.0
Cd198 Cd 0.12349 0.54577 0.23051 0.0
O199 O 0.12199 0.52119 0.28086 0.0
Cd200 Cd 0.15591 0.51861 0.26144 0.0
C201 C 0.17772 0.57966 0.25375 0.0
O202 O 0.12994 0.50673 0.22952 0.0
O203 O 0.16302 0.50126 0.2242 0.0
O204 O 0.15653 0.48549 0.28404 0.0
C205 C 0.14274 0.50022 0.21613 0.0
O206 O 0.15973 0.57895 0.24103 0.0
C207 C 0.1786 0.49287 0.28814 0.0
O208 O 0.17929 0.56095 0.26287 0.0
O209 O 0.18965 0.51198 0.27971 0.0
C210 C 0.8534 0.92221 0.53206 0.0
O211 O 0.84211 0.9353 0.52349 0.0
Cd212 Cd 0.80215 0.92153 0.50978 0.0
O213 O 0.84306 0.90069 0.53699 0.0
Cd214 Cd 0.80204 0.87335 0.53947 0.0
C215 C 0.80048 0.86473 0.48139 0.0
O216 O 0.78316 0.90482 0.53996 0.0
O217 O 0.75972 0.86846 0.53205 0.0
O218 O 0.8111 0.882 0.57983 0.0
C219 C 0.76241 0.89122 0.53523 0.0
O220 O 0.7995 0.88663 0.48295 0.0
C221 C 0.80396 0.86055 0.58569 0.0
O222 O 0.80252 0.85401 0.4991 0.0
O223 O 0.79689 0.84339 0.5697 0.0
C224 C 0.95485 0.03665 0.26938 0.0
O225 O 0.96737 0.032 0.25447 0.0
Cd226 Cd 0.95764 0.03017 0.21544 0.0
O227 O 0.93607 0.04172 0.26403 0.0
Cd228 Cd 0.91381 0.04651 0.22941 0.0
C229 C 0.90442 0.98699 0.21259 0.0
O230 O 0.94712 0.06693 0.21136 0.0
O231 O 0.9153 0.05395 0.18961 0.0
O232 O 0.9028 0.07884 0.25002 0.0
C233 C 0.93675 0.06602 0.19225 0.0
O234 O 0.92568 0.99169 0.20845 0.0
C235 C 0.88115 0.06974 0.24393 0.0
O236 O 0.89644 1.00356 0.22078 0.0
O237 O 0.87497 0.05017 0.23079 0.0
C238 C 0.35744 0.62431 0.55559 0.0
O239 O 0.34809 0.61249 0.57129 0.0
Cd240 Cd 0.31568 0.61768 0.58961 0.0
O241 O 0.35143 0.64254 0.5497 0.0
Cd242 Cd 0.32383 0.66393 0.56171 0.0
C243 C 0.33769 0.67387 0.61778 0.0
O244 O 0.29311 0.62577 0.55897 0.0
O245 O 0.28275 0.65783 0.5681 0.0
O246 O 0.32177 0.67588 0.52421 0.0
C247 C 0.27696 0.63495 0.56299 0.0
O248 O 0.3276 0.65132 0.61893 0.0
C249 C 0.32481 0.6983 0.53028 0.0
O250 O 0.34064 0.68239 0.59896 0.0
O251 O 0.32847 0.70498 0.55112 0.0
C252 C 0.46149 0.53544 0.7607 0.0
O253 O 0.47301 0.5281 0.74613 0.0
Cd254 Cd 0.46191 0.52212 0.70642 0.0
O255 O 0.44293 0.54064 0.75491 0.0
Cd256 Cd 0.4181 0.54158 0.72151 0.0
C257 C 0.40868 0.4807 0.70724 0.0
O258 O 0.44981 0.55768 0.70023 0.0
O259 O 0.41585 0.55233 0.68312 0.0
O260 O 0.40592 0.57317 0.7412 0.0
C261 C 0.4378 0.55883 0.68253 0.0
O262 O 0.42962 0.48371 0.70256 0.0
C263 C 0.38433 0.56126 0.73783 0.0
O264 O 0.40198 0.49863 0.71431 0.0
O265 O 0.37879 0.54058 0.72643 0.0
C266 C 0.60811 0.0167 0.76155 0.0
O267 O 0.60088 0.01981 0.74203 0.0
Cd268 Cd 0.62376 0.0221 0.71096 0.0
O269 O 0.62849 0.01476 0.76571 0.0
Cd270 Cd 0.66419 0.01395 0.74895 0.0
C271 C 0.67078 0.07086 0.73317 0.0
O272 O 0.641 0.9908 0.71784 0.0
O273 O 0.67735 0.99876 0.71355 0.0
O274 O 0.66844 0.98875 0.77838 0.0
C275 C 0.65646 0.98962 0.70502 0.0
O276 O 0.65351 0.0623 0.71839 0.0
C277 C 0.69027 0.99901 0.78237 0.0
O278 O 0.67688 0.05727 0.74648 0.0
O279 O 0.69981 0.01573 0.77039 0.0
C280 C 0.84607 0.67475 0.03279 0.0
O281 O 0.83061 0.66143 0.04357 0.0
Cd282 Cd 0.793 0.66265 0.0497 0.0
O283 O 0.84228 0.6924 0.02298 0.0
Cd284 Cd 0.80791 0.70991 0.01769 0.0
C285 C 0.80683 0.72138 0.07633 0.0
O286 O 0.78089 0.67 0.01365 0.0
O287 O 0.76395 0.69794 0.01648 0.0
O288 O 0.80992 0.71087 0.97627 0.0
C289 C 0.76201 0.67532 0.01346 0.0
O290 O 0.8003 0.69829 0.07669 0.0
C291 C 0.81506 0.73382 0.9759 0.0
O292 O 0.81088 0.73097 0.05781 0.0
O293 O 0.81734 0.74614 0.9949 0.0
C294 C 0.97397 0.54661 0.85487 0.0
O295 O 0.98379 0.53915 0.83892 0.0
Cd296 Cd 0.96841 0.53313 0.80066 0.0
O297 O 0.95567 0.55299 0.8516 0.0
Cd298 Cd 0.93002 0.55764 0.82119 0.0
C299 C 0.91321 0.49682 0.80719 0.0
O300 O 0.95964 0.57054 0.79716 0.0
O301 O 0.92502 0.56507 0.78169 0.0
O302 O 0.92526 0.59466 0.83861 0.0
C303 C 0.94682 0.57122 0.77992 0.0
O304 O 0.93287 0.49816 0.79976 0.0
C305 C 0.90351 0.58512 0.83979 0.0
O306 O 0.90895 0.51568 0.81579 0.0
O307 O 0.89459 0.56273 0.83275 0.0
C308 C 0.84951 0.46115 0.50512 0.0
O309 O 0.8431 0.47792 0.4966 0.0
Cd310 Cd 0.803 0.47587 0.49144 0.0
O311 O 0.83463 0.44214 0.51045 0.0
Cd312 Cd 0.79247 0.42343 0.51012 0.0
C313 C 0.78452 0.4249 0.45404 0.0
O314 O 0.78926 0.46121 0.52575 0.0
O315 O 0.75619 0.43324 0.51764 0.0
O316 O 0.80337 0.40943 0.54435 0.0
C317 C 0.76748 0.45436 0.52693 0.0
O318 O 0.7887 0.4479 0.4578 0.0
C319 C 0.79199 0.38711 0.5395 0.0
O320 O 0.78551 0.4119 0.47002 0.0
O321 O 0.7804 0.38115 0.52043 0.0
C322 C 0.66104 0.53009 0.37417 0.0
O323 O 0.64988 0.545 0.36981 0.0
Cd324 Cd 0.64955 0.56593 0.33764 0.0
O325 O 0.67447 0.52448 0.36065 0.0
Cd326 Cd 0.68655 0.53851 0.32423 0.0
C327 C 0.70772 0.59798 0.34317 0.0
O328 O 0.64926 0.53823 0.3061 0.0
O329 O 0.68011 0.55855 0.29165 0.0
O330 O 0.68647 0.49917 0.3066 0.0
C331 C 0.65806 0.55025 0.29039 0.0
O332 O 0.68655 0.59792 0.34319 0.0
C333 C 0.70829 0.5056 0.30486 0.0
O334 O 0.713 0.57851 0.33807 0.0
O335 O 0.71997 0.52715 0.31273 0.0
Tb336 Tb 0.08295 0.06385 0.05282 0.0
Tb337 Tb 0.03585 0.02294 0.02917 0.0
C338 C 0.03581 0.05483 0.07395 0.0
C339 C 0.14173 0.08351 0.07734 0.0
C340 C 0.17075 0.05331 0.07921 0.0
C341 C 0.1566 0.0548 0.09656 0.0
C342 C 0.14227 0.06988 0.09571 0.0
C343 C 0.15813 0.08437 0.06159 0.0
C344 C 0.17242 0.06925 0.06242 0.0
C345 C 0.12093 0.09123 0.07161 0.0
O346 O 0.0799 0.02993 0.06836 0.0
O347 O 0.05974 1.00301 0.03885 0.0
O348 O 0.05986 0.03279 0.00402 0.0
O349 O 0.09388 0.04287 0.02652 0.0
O350 O 1.00934 0.99004 0.03045 0.0
O351 O 1.0126 0.0088 1.0006 0.0
O352 O 0.0293 0.05774 0.02572 0.0
O353 O 0.06713 0.08329 0.02956 0.0
O354 O 0.05486 0.07108 0.06952 0.0
O355 O 0.02808 0.03303 0.06278 0.0
C356 C 0.07325 1.00793 0.05756 0.0
O357 O 0.11498 0.09023 0.05019 0.0
O358 O 0.10285 0.08177 0.08246 0.0
C359 C 0.08216 0.03525 0.00694 0.0
C360 C 0.9749 0.99231 0.01083 0.0
C361 C 0.93552 0.00856 0.0129 0.0
C362 C 0.94449 1.00561 0.99228 0.0
C363 C 0.96403 0.99741 0.99123 0.0
C364 C 0.96429 0.99261 0.03093 0.0
C365 C 0.94474 1.00067 0.03194 0.0
C366 C 0.99919 0.99189 0.01111 0.0
C367 C 0.0447 0.07882 0.02336 0.0
H368 H 0.15547 0.0431 0.10997 0.0
H369 H 0.13014 0.0691 0.10838 0.0
H370 H 0.15831 0.09486 0.04738 0.0
H371 H 0.1832 0.06852 0.04879 0.0
H372 H 0.9374 0.01123 0.97732 0.0
H373 H 0.97183 0.99711 0.97551 0.0
H374 H 0.97214 0.98865 0.04633 0.0
H375 H 0.93823 1.00279 0.0481 0.0
Tb376 Tb 0.29547 0.79312 0.30216 0.0
Tb377 Tb 0.32821 0.78765 0.26186 0.0
C378 C 0.28263 0.80378 0.25352 0.0
C379 C 0.27723 0.78932 0.35815 0.0
C380 C 0.2878 0.77792 0.40139 0.0
C381 C 0.2756 0.79506 0.39834 0.0
C382 C 0.2704 0.80079 0.37679 0.0
C383 C 0.2895 0.77237 0.36128 0.0
C384 C 0.29491 0.76689 0.38262 0.0
C385 C 0.27256 0.79538 0.33543 0.0
O386 O 0.27829 0.75978 0.28061 0.0
O387 O 0.31135 0.7515 0.27114 0.0
O388 O 0.34922 0.78763 0.29242 0.0
O389 O 0.31992 0.77498 0.31547 0.0
O390 O 0.33187 0.7685 0.23193 0.0
O391 O 0.35982 0.79967 0.24728 0.0
O392 O 0.33259 0.82615 0.27002 0.0
O393 O 0.3277 0.82318 0.30692 0.0
O394 O 0.28214 0.80965 0.27503 0.0
O395 O 0.29635 0.79155 0.24586 0.0
C396 C 0.28912 0.74412 0.27411 0.0
O397 O 0.28799 0.81426 0.32923 0.0
O398 O 0.26714 0.77694 0.32003 0.0
C399 C 0.34179 0.779 0.31106 0.0
C400 C 0.35232 0.79543 0.20828 0.0
C401 C 0.34739 0.81252 0.1664 0.0
C402 C 0.35773 0.79377 0.16874 0.0
C403 C 0.36012 0.78523 0.18958 0.0
C404 C 0.3427 0.81467 0.20618 0.0
C405 C 0.34024 0.82316 0.18541 0.0
C406 C 0.35177 0.78442 0.22937 0.0
C407 C 0.33695 0.83576 0.29083 0.0
H408 H 0.26983 0.80375 0.41253 0.0
H409 H 0.26105 0.81405 0.37466 0.0
H410 H 0.29488 0.76321 0.34719 0.0
H411 H 0.3048 0.75404 0.38437 0.0
H412 H 0.36356 0.78541 0.15439 0.0
H413 H 0.36739 0.77021 0.19098 0.0
H414 H 0.3363 0.82253 0.22046 0.0
H415 H 0.33181 0.83731 0.18409 0.0
Tb416 Tb 0.54443 0.04176 0.55213 0.0
Tb417 Tb 0.58904 0.04697 0.5212 0.0
C418 C 0.59073 0.03222 0.57042 0.0
C419 C 0.49433 0.0586 0.56952 0.0
C420 C 0.46653 0.08922 0.56019 0.0
C421 C 0.49052 0.09927 0.56666 0.0
C422 C 0.5043 0.08414 0.57115 0.0
C423 C 0.47034 0.04854 0.56336 0.0
C424 C 0.45658 0.06367 0.55869 0.0
C425 C 0.50913 0.04234 0.57194 0.0
O426 O 0.55972 0.08055 0.55 0.0
O427 O 0.59648 0.08285 0.53976 0.0
O428 O 0.56644 0.0638 0.50373 0.0
O429 O 0.53274 0.04197 0.51736 0.0
O430 O 0.62498 0.0597 0.51829 0.0
O431 O 0.60151 0.03718 0.49106 0.0
O432 O 0.56422 0.01053 0.51321 0.0
O433 O 0.54585 1.00461 0.54551 0.0
O434 O 0.57265 0.03941 0.57533 0.0
O435 O 0.59685 0.03018 0.5501 0.0
C436 C 0.58137 0.09305 0.54775 0.0
O437 O 0.50833 0.02724 0.55436 0.0
O438 O 0.53048 0.05259 0.58084 0.0
C439 C 0.54363 0.05626 0.50303 0.0
C440 C 0.63702 0.02825 0.49997 0.0
C441 C 0.66015 0.99233 0.50409 0.0
C442 C 0.66698 0.01404 0.51861 0.0
C443 C 0.65566 0.03183 0.5165 0.0
C444 C 0.63058 1.00684 0.48504 0.0
C445 C 0.64208 0.98911 0.48705 0.0
C446 C 0.62317 0.04574 0.4997 0.0
C447 C 0.55241 0.99596 0.52703 0.0
H448 H 0.49869 0.11885 0.56831 0.0
H449 H 0.52281 0.0925 0.57557 0.0
H450 H 0.46235 0.02892 0.56161 0.0
H451 H 0.43822 0.05525 0.55342 0.0
H452 H 0.68062 0.01703 0.53211 0.0
H453 H 0.6611 0.04806 0.52832 0.0
H454 H 0.61633 1.00351 0.4721 0.0
H455 H 0.63671 0.97282 0.47531 0.0
Tb456 Tb 0.33524 0.28826 0.79006 0.0
Tb457 Tb 0.28415 0.29762 0.78441 0.0
C458 C 0.29018 0.24998 0.80099 0.0
C459 C 0.3918 0.2837 0.77504 0.0
C460 C 0.42483 0.28819 0.74336 0.0
C461 C 0.43066 0.28503 0.76574 0.0
C462 C 0.41424 0.28277 0.78143 0.0
C463 C 0.38587 0.28705 0.75282 0.0
C464 C 0.40225 0.28922 0.73707 0.0
C465 C 0.37479 0.28169 0.79167 0.0
O466 O 0.31891 0.27153 0.75655 0.0
O467 O 0.29456 0.29492 0.75053 0.0
O468 O 0.30971 0.33276 0.78321 0.0
O469 O 0.33989 0.31968 0.77146 0.0
O470 O 0.24979 0.28609 0.76926 0.0
O471 O 0.26205 0.31842 0.79289 0.0
O472 O 0.29193 0.29793 0.82035 0.0
O473 O 0.33195 0.30788 0.82196 0.0
O474 O 0.31226 0.26073 0.8074 0.0
O475 O 0.27874 0.25901 0.78644 0.0
C476 C 0.30637 0.28058 0.74283 0.0
O477 O 0.3713 0.30221 0.79882 0.0
O478 O 0.35525 0.26408 0.78689 0.0
C479 C 0.32913 0.33636 0.77347 0.0
C480 C 0.22345 0.29391 0.7936 0.0
C481 C 0.18372 0.27723 0.81678 0.0
C482 C 0.18187 0.28562 0.79562 0.0
C483 C 0.20163 0.29393 0.78414 0.0
C484 C 0.22539 0.28521 0.81459 0.0
C485 C 0.20564 0.27707 0.8262 0.0
C486 C 0.24401 0.30281 0.78138 0.0
C487 C 0.31255 0.30592 0.8317 0.0
H488 H 0.44802 0.28461 0.77122 0.0
H489 H 0.4191 0.28043 0.79857 0.0
H490 H 0.36857 0.28794 0.74766 0.0
H491 H 0.39715 0.29138 0.71995 0.0
H492 H 0.16519 0.28613 0.78812 0.0
H493 H 0.1999 0.30049 0.76791 0.0
H494 H 0.24215 0.2848 0.822 0.0
H495 H 0.20743 0.27046 0.84239 0.0
Tb496 Tb 0.05882 0.062 0.55363 0.0
Tb497 Tb 0.06122 0.0274 0.51004 0.0
C498 C 0.01464 0.02296 0.52962 0.0
C499 C 0.05547 0.08477 0.61218 0.0
C500 C 0.06586 0.083 0.65786 0.0
C501 C 0.0617 0.10393 0.65017 0.0
C502 C 0.05676 0.10488 0.62737 0.0
C503 C 0.05657 0.0628 0.62004 0.0
C504 C 0.06181 0.06192 0.6428 0.0
C505 C 0.05802 0.08846 0.58868 0.0
O506 O 0.06744 0.03024 0.56759 0.0
O507 O 0.05935 1.00204 0.53667 0.0
O508 O 0.09633 0.04121 0.52626 0.0
O509 O 0.09218 0.07715 0.54042 0.0
O510 O 0.04903 0.99383 0.49018 0.0
O511 O 0.07686 0.02334 0.48033 0.0
O512 O 0.06157 0.06295 0.49686 0.0
O513 O 0.05172 0.08409 0.52669 0.0
O514 O 0.02595 0.03284 0.54893 0.0
O515 O 0.02501 0.02562 0.5112 0.0
C516 C 0.06392 1.00732 0.55865 0.0
O517 O 0.07694 0.08501 0.58154 0.0
O518 O 0.03972 0.07849 0.57449 0.0
C519 C 0.10545 0.06435 0.53327 0.0
C520 C 0.04764 1.00159 0.45224 0.0
C521 C 0.02225 0.00825 0.41355 0.0
C522 C 0.04672 0.01404 0.41462 0.0
C523 C 0.0593 0.01069 0.43382 0.0
C524 C 0.0231 0.99467 0.45068 0.0
C525 C 1.01057 0.99784 0.43149 0.0
C526 C 0.06109 1.00253 0.47382 0.0
C527 C 0.05638 0.08255 0.50549 0.0
H528 H 0.06425 0.12026 0.6615 0.0
H529 H 0.05587 0.12193 0.62148 0.0
H530 H 0.05553 0.04709 0.60842 0.0
H531 H 0.06496 0.04553 0.64814 0.0
H532 H 0.05623 0.0222 0.40109 0.0
H533 H 0.0782 0.01629 0.43469 0.0
H534 H 1.01352 0.98766 0.46458 0.0
H535 H 0.99171 0.99269 0.43093 0.0
Tb536 Tb 0.31658 0.82083 0.77657 0.0
Tb537 Tb 0.28983 0.76795 0.79 0.0
C538 C 0.31671 0.77397 0.74695 0.0
C539 C 0.33019 0.88529 0.76698 0.0
C540 C 0.31386 0.92553 0.77576 0.0
C541 C 0.33674 0.92674 0.78342 0.0
C542 C 0.34487 0.90672 0.77897 0.0
C543 C 0.30781 0.88457 0.75818 0.0
C544 C 0.29981 0.90467 0.76235 0.0
C545 C 0.33706 0.86297 0.76688 0.0
O546 O 0.28014 0.81286 0.75926 0.0
O547 O 0.26127 0.78352 0.78074 0.0
O548 O 0.29353 0.79222 0.81991 0.0
O549 O 0.29694 0.82767 0.8041 0.0
O550 O 0.26316 0.73495 0.78163 0.0
O551 O 0.28389 0.74212 0.81337 0.0
O552 O 0.32717 0.76984 0.79724 0.0
O553 O 0.3445 0.811 0.79718 0.0
O554 O 0.32815 0.79642 0.75453 0.0
O555 O 0.29847 0.76138 0.75615 0.0
C556 C 0.26022 0.799 0.76583 0.0
O557 O 0.33932 0.85573 0.78668 0.0
O558 O 0.32574 0.84494 0.75198 0.0
C559 C 0.29203 0.81442 0.82085 0.0
C560 C 0.27551 0.7035 0.79459 0.0
C561 C 0.29075 0.66244 0.78709 0.0
C562 C 0.27128 0.66109 0.79919 0.0
C563 C 0.26371 0.68169 0.80301 0.0
C564 C 0.29458 0.70465 0.78211 0.0
C565 C 0.30208 0.68426 0.77829 0.0
C566 C 0.26902 0.72566 0.79932 0.0
C567 C 0.34598 0.78917 0.80154 0.0
H568 H 0.34783 0.94251 0.79398 0.0
H569 H 0.3621 0.90742 0.78606 0.0
H570 H 0.29607 0.86813 0.74902 0.0
H571 H 0.28223 0.90347 0.75591 0.0
H572 H 0.26236 0.6444 0.8061 0.0
H573 H 0.24899 0.68072 0.81274 0.0
H574 H 0.30389 0.72145 0.77557 0.0
H575 H 0.31688 0.68562 0.76857 0.0
Tb576 Tb 0.54646 0.03259 0.05601 0.0
Tb577 Tb 0.54823 0.05375 0.00867 0.0
C578 C 0.59253 0.05544 0.03621 0.0
C579 C 0.56082 0.03366 0.11496 0.0
C580 C 0.57602 0.06329 0.15531 0.0
C581 C 0.57732 0.07388 0.13507 0.0
C582 C 0.56995 0.05909 0.11495 0.0
C583 C 0.56114 0.02292 0.13496 0.0
C584 C 0.56886 0.03771 0.15511 0.0
C585 C 0.54961 0.01886 0.09424 0.0
O586 O 0.54245 0.06964 0.06428 0.0
O587 O 0.55653 0.08705 0.03299 0.0
O588 O 0.51574 0.05139 0.02253 0.0
O589 O 0.51171 0.01685 0.03889 0.0
O590 O 0.5642 0.07696 0.98526 0.0
O591 O 0.5279 0.0548 0.97962 0.0
O592 O 0.54384 0.01421 0.99875 0.0
O593 O 0.55147 1.00257 0.03336 0.0
O594 O 0.58082 0.05733 0.05341 0.0
O595 O 0.58186 0.04882 0.0162 0.0
C596 C 0.55003 0.08937 0.05356 0.0
O597 O 0.53121 0.02392 0.08581 0.0
O598 O 0.56387 0.01716 0.07921 0.0
C599 C 0.50235 0.03092 0.02804 0.0
C600 C 0.5487 0.06121 0.9485 0.0
C601 C 0.55024 0.04296 0.90438 0.0
C602 C 0.5439 0.06438 0.90883 0.0
C603 C 0.54308 0.0734 0.9308 0.0
C604 C 0.55527 0.03996 0.94424 0.0
C605 C 0.55604 0.03087 0.92226 0.0
C606 C 0.54549 0.06945 0.97117 0.0
C607 C 0.54812 0.99774 0.01129 0.0
H608 H 0.58244 0.09356 0.13496 0.0
H609 H 0.57013 0.06759 0.09951 0.0
H610 H 0.55427 1.0033 0.13511 0.0
H611 H 0.56726 0.02925 0.17063 0.0
H612 H 0.5398 0.07429 0.89534 0.0
H613 H 0.53779 0.08972 0.93397 0.0
H614 H 0.55938 0.03022 0.95786 0.0
H615 H 0.56089 0.01426 0.91924 0.0
Tb616 Tb 0.29671 0.26082 0.28403 0.0
Tb617 Tb 0.31773 0.31748 0.29638 0.0
C618 C 0.29976 0.29606 0.2465 0.0
C619 C 0.28806 0.19657 0.26292 0.0
C620 C 0.30897 0.16093 0.24989 0.0
C621 C 0.28699 0.15418 0.25832 0.0
C622 C 0.27662 0.17199 0.26488 0.0
C623 C 0.30885 0.20313 0.25246 0.0
C624 C 0.31925 0.18534 0.24591 0.0
C625 C 0.28076 0.21519 0.2756 0.0
O626 O 0.33455 0.26802 0.27773 0.0
O627 O 0.34765 0.3099 0.27975 0.0
O628 O 0.33202 0.3005 0.32284 0.0
O629 O 0.30066 0.26698 0.32042 0.0
O630 O 0.32873 0.35346 0.28762 0.0
O631 O 0.32947 0.34621 0.32211 0.0
O632 O 0.28219 0.30849 0.31002 0.0
O633 O 0.26481 0.27186 0.28969 0.0
O634 O 0.30132 0.27497 0.25184 0.0
O635 O 0.30066 0.31366 0.26221 0.0
C636 C 0.3511 0.28845 0.27443 0.0
O637 O 0.29511 0.22614 0.29301 0.0
O638 O 0.27383 0.23053 0.26416 0.0
C639 C 0.31887 0.28212 0.33217 0.0
C640 C 0.31477 0.37744 0.31285 0.0
C641 C 0.28324 0.40268 0.32454 0.0
C642 C 0.30714 0.41275 0.33154 0.0
C643 C 0.32286 0.40001 0.32588 0.0
C644 C 0.29098 0.36767 0.30557 0.0
C645 C 0.27533 0.38012 0.31143 0.0
C646 C 0.33023 0.36265 0.30831 0.0
C647 C 0.26298 0.29009 0.3036 0.0
H648 H 0.27885 0.13555 0.26181 0.0
H649 H 0.26064 0.1668 0.2731 0.0
H650 H 0.3179 0.22214 0.25095 0.0
H651 H 0.33616 0.1909 0.23933 0.0
H652 H 0.31356 0.43028 0.34149 0.0
H653 H 0.34116 0.4076 0.3318 0.0
H654 H 0.28444 0.3503 0.29539 0.0
H655 H 0.25709 0.37231 0.30532 0.0
Tb656 Tb 0.56209 0.56157 0.05851 0.0
Tb657 Tb 0.56229 0.53305 0.01063 0.0
C658 C 0.51693 0.52551 0.03353 0.0
C659 C 0.55952 0.57997 0.11889 0.0
C660 C 0.56492 0.57721 0.16508 0.0
C661 C 0.55821 0.59655 0.15679 0.0
C662 C 0.55571 0.59801 0.1338 0.0
C663 C 0.56355 0.55921 0.12695 0.0
C664 C 0.56632 0.55786 0.14994 0.0
C665 C 0.56299 0.585 0.09573 0.0
O666 O 0.56823 0.52681 0.06858 0.0
O667 O 0.56098 0.50444 0.03405 0.0
O668 O 0.59749 0.54324 0.02653 0.0
O669 O 0.59512 0.57792 0.0451 0.0
O670 O 0.54681 0.50319 0.98662 0.0
O671 O 0.57848 0.53074 0.98103 0.0
O672 O 0.56423 0.57083 1.00188 0.0
O673 O 0.55353 0.58608 0.03443 0.0
O674 O 0.5291 0.53296 0.05286 0.0
O675 O 0.52633 0.53085 0.01487 0.0
C676 C 0.56473 0.50556 0.05623 0.0
O677 O 0.58116 0.58029 0.08797 0.0
O678 O 0.5446 0.57791 0.08127 0.0
C679 C 0.60756 0.56555 0.03553 0.0
C680 C 0.55009 0.51598 0.95084 0.0
C681 C 0.52683 0.52278 0.91104 0.0
C682 C 0.53585 0.50286 0.91195 0.0
C683 C 0.54743 0.49949 0.93178 0.0
C684 C 0.54127 0.53592 0.94991 0.0
C685 C 0.52993 0.53942 0.93016 0.0
C686 C 0.56121 0.5122 0.97202 0.0
C687 C 0.55841 0.58849 0.01332 0.0
H688 H 0.55658 0.61146 0.16808 0.0
H689 H 0.55241 0.61405 0.12775 0.0
H690 H 0.56638 0.54502 0.11556 0.0
H691 H 0.57159 0.54275 0.15573 0.0
H692 H 0.5335 0.48961 0.89752 0.0
H693 H 0.554 0.4839 0.93234 0.0
H694 H 0.54297 0.54872 0.96451 0.0
H695 H 0.52358 0.55519 0.92991 0.0
Tb696 Tb 0.82277 0.32264 0.27281 0.0
Tb697 Tb 0.793 0.27724 0.29749 0.0
C698 C 0.8174 0.26982 0.25439 0.0
C699 C 0.83669 0.38135 0.25151 0.0
C700 C 0.81009 0.41405 0.25102 0.0
C701 C 0.8106 0.39932 0.23147 0.0
C702 C 0.8239 0.38315 0.23168 0.0
C703 C 0.83817 0.39805 0.2703 0.0
C704 C 0.82491 0.4142 0.27007 0.0
C705 C 0.84381 0.35918 0.25397 0.0
O706 O 0.78604 0.32243 0.2644 0.0
O707 O 0.7652 0.28566 0.27547 0.0
O708 O 0.78897 0.30747 0.31833 0.0
O709 O 0.81308 0.33973 0.30252 0.0
O710 O 0.76789 0.24286 0.29231 0.0
O711 O 0.78447 0.25771 0.32542 0.0
O712 O 0.82947 0.28513 0.31355 0.0
O713 O 0.8509 0.30996 0.28956 0.0
O714 O 0.8165 0.29098 0.24888 0.0
O715 O 0.81302 0.2633 0.27428 0.0
C716 C 0.76573 0.30545 0.26525 0.0
O717 O 0.84989 0.35561 0.27432 0.0
O718 O 0.82977 0.33923 0.24316 0.0
C719 C 0.79904 0.33083 0.31765 0.0
C720 C 0.78023 0.21665 0.31383 0.0
C721 C 0.79485 0.17495 0.30554 0.0
C722 C 0.7716 0.17262 0.30984 0.0
C723 C 0.76429 0.19339 0.31376 0.0
C724 C 0.80369 0.21903 0.31089 0.0
C725 C 0.81091 0.19844 0.30666 0.0
C726 C 0.77211 0.23815 0.31273 0.0
C727 C 0.85008 0.29645 0.30657 0.0
H728 H 0.79961 0.3992 0.21646 0.0
H729 H 0.82261 0.37065 0.21688 0.0
H730 H 0.84797 0.39731 0.28583 0.0
H731 H 0.8248 0.42528 0.28545 0.0
H732 H 0.75887 0.15478 0.30935 0.0
H733 H 0.74604 0.19128 0.31569 0.0
H734 H 0.81619 0.23683 0.31046 0.0
H735 H 0.82881 0.2011 0.30292 0.0
Tb736 Tb 0.06406 0.53171 0.56527 0.0
Tb737 Tb 0.06228 0.55609 0.51949 0.0
C738 C 0.10851 0.55759 0.54483 0.0
C739 C 0.05273 0.5205 0.62223 0.0
C740 C 0.02694 0.5367 0.65397 0.0
C741 C 0.05058 0.54941 0.65303 0.0
C742 C 0.0634 0.54138 0.63728 0.0
C743 C 0.02952 0.50688 0.62433 0.0
C744 C 0.01671 0.515 0.63998 0.0
C745 C 0.06432 0.51506 0.60248 0.0
O746 O 0.06786 0.57052 0.57633 0.0
O747 O 0.05601 0.58413 0.5442 0.0
O748 O 0.02883 0.52911 0.52063 0.0
O749 O 0.02874 0.5323 0.55846 0.0
O750 O 0.07868 0.56982 0.49162 0.0
O751 O 0.04364 0.57089 0.49673 0.0
O752 O 0.06774 0.52002 0.50812 0.0
O753 O 0.05949 0.50047 0.53983 0.0
O754 O 0.09733 0.5371 0.55217 0.0
O755 O 0.09711 0.57146 0.53636 0.0
C756 C 0.06148 0.58748 0.56614 0.0
O757 O 0.05029 0.5035 0.58503 0.0
O758 O 0.08134 0.53308 0.59697 0.0
C759 C 0.01768 0.52581 0.53858 0.0
C760 C 0.05156 0.56182 0.46008 0.0
C761 C 0.03844 0.54106 0.41564 0.0
C762 C 0.03342 0.5626 0.42317 0.0
C763 C 0.04008 0.57297 0.44524 0.0
C764 C 0.05514 0.53948 0.45309 0.0
C765 C 0.04882 0.52929 0.43103 0.0
C766 C 0.05972 0.57346 0.4828 0.0
C767 C 0.06383 0.49978 0.51853 0.0
H768 H 0.05885 0.56616 0.66377 0.0
H769 H 0.08129 0.5522 0.63618 0.0
H770 H 0.02087 0.49059 0.61314 0.0
H771 H 0.99863 0.50459 0.64082 0.0
H772 H 0.02513 0.5719 0.41182 0.0
H773 H 0.03676 0.58998 0.45057 0.0
H774 H 0.06361 0.53031 0.46443 0.0
H775 H 0.05336 0.51294 0.42586 0.0
Tb776 Tb 0.83298 0.79019 0.2841 0.0
Tb777 Tb 0.77921 0.79242 0.27567 0.0
C778 C 0.79161 0.75157 0.30014 0.0
C779 C 0.8937 0.79421 0.27445 0.0
C780 C 0.93004 0.80151 0.24605 0.0
C781 C 0.93412 0.79834 0.26877 0.0
C782 C 0.91605 0.79465 0.28282 0.0
C783 C 0.8896 0.79794 0.25197 0.0
C784 C 0.90759 0.80146 0.23786 0.0
C785 C 0.87454 0.78893 0.28896 0.0
O786 O 0.82481 0.7827 0.24769 0.0
O787 O 0.78463 0.77212 0.2453 0.0
O788 O 0.79833 0.81939 0.25559 0.0
O789 O 0.83517 0.82581 0.27299 0.0
O790 O 0.74389 0.77208 0.26907 0.0
O791 O 0.75444 0.81154 0.27512 0.0
O792 O 0.79577 0.81749 0.3052 0.0
O793 O 0.82309 0.79984 0.31758 0.0
O794 O 0.81012 0.75444 0.28917 0.0
O795 O 0.77998 0.76746 0.30042 0.0
C796 C 0.80428 0.77393 0.2361 0.0
O797 O 0.86795 0.80755 0.29634 0.0
O798 O 0.85678 0.77006 0.28171 0.0
C799 C 0.82044 0.83194 0.25923 0.0
C800 C 0.72114 0.78943 0.29108 0.0
C801 C 0.69096 0.78422 0.32551 0.0
C802 C 0.68198 0.77775 0.3029 0.0
C803 C 0.69698 0.7805 0.28582 0.0
C804 C 0.7302 0.79539 0.31353 0.0
C805 C 0.71531 0.79326 0.33055 0.0
C806 C 0.73707 0.79136 0.27342 0.0
C807 C 0.80912 0.81327 0.32166 0.0
H808 H 0.95128 0.79872 0.27574 0.0
H809 H 0.91949 0.79189 0.30016 0.0
H810 H 0.87238 0.79768 0.24524 0.0
H811 H 0.90375 0.80354 0.22043 0.0
H812 H 0.6634 0.77019 0.29833 0.0
H813 H 0.68975 0.77534 0.26857 0.0
H814 H 0.74884 0.80159 0.31787 0.0
H815 H 0.72298 0.79884 0.34762 0.0
Tb816 Tb 0.78165 0.27846 0.81141 0.0
Tb817 Tb 0.81411 0.2839 0.76888 0.0
C818 C 0.76668 0.29796 0.76694 0.0
C819 C 0.76098 0.25637 0.86277 0.0
C820 C 0.76913 0.22901 0.89739 0.0
C821 C 0.75532 0.24481 0.90034 0.0
C822 C 0.75137 0.25852 0.88312 0.0
C823 C 0.77442 0.24039 0.85967 0.0
C824 C 0.77861 0.227 0.87684 0.0
C825 C 0.75902 0.27203 0.84524 0.0
O826 O 0.77796 0.24238 0.79493 0.0
O827 O 0.78243 0.25429 0.75998 0.0
O828 O 0.83028 0.26522 0.79238 0.0
O829 O 0.81485 0.27539 0.82454 0.0
O830 O 0.82575 0.26742 0.74131 0.0
O831 O 0.83814 0.3065 0.75024 0.0
O832 O 0.83006 0.3134 0.79464 0.0
O833 O 0.79669 0.31702 0.80832 0.0
O834 O 0.7602 0.28655 0.78465 0.0
O835 O 0.78764 0.30158 0.75998 0.0
C836 C 0.77369 0.23763 0.77317 0.0
O837 O 0.77776 0.29029 0.84437 0.0
O838 O 0.75095 0.26057 0.82546 0.0
C839 C 0.83004 0.26714 0.81433 0.0
C840 C 0.82972 0.29281 0.71209 0.0
C841 C 0.81718 0.3023 0.66872 0.0
C842 C 0.83231 0.28809 0.67197 0.0
C843 C 0.83861 0.28343 0.6936 0.0
C844 C 0.81395 0.30625 0.70868 0.0
C845 C 0.80781 0.31099 0.68722 0.0
C846 C 0.83666 0.28863 0.73492 0.0
C847 C 0.81842 0.32671 0.80425 0.0
H848 H 0.7476 0.2466 0.91591 0.0
H849 H 0.74113 0.27098 0.88577 0.0
H850 H 0.78216 0.23872 0.84408 0.0
H851 H 0.78978 0.21551 0.87412 0.0
H852 H 0.83982 0.28131 0.65791 0.0
H853 H 0.85063 0.27284 0.69594 0.0
H854 H 0.80669 0.31352 0.72263 0.0
H855 H 0.79595 0.32178 0.6851 0.0
Tb856 Tb 0.79371 0.77252 0.77212 0.0
Tb857 Tb 0.81358 0.82678 0.79341 0.0
C858 C 0.79391 0.81534 0.74218 0.0
C859 C 0.78883 0.71004 0.76868 0.0
C860 C 0.80678 0.67829 0.79158 0.0
C861 C 0.78651 0.66895 0.77671 0.0
C862 C 0.77746 0.68491 0.76528 0.0
C863 C 0.80892 0.71919 0.78363 0.0
C864 C 0.8177 0.70352 0.79509 0.0
C865 C 0.77936 0.72775 0.75887 0.0
O866 O 0.83257 0.78065 0.7693 0.0
O867 O 0.84245 0.82228 0.77345 0.0
O868 O 0.82931 0.80587 0.81461 0.0
O869 O 0.8001 0.77053 0.80826 0.0
O870 O 0.82469 0.8647 0.79145 0.0
O871 O 0.82662 0.84991 0.82297 0.0
O872 O 0.77774 0.81438 0.80591 0.0
O873 O 0.76148 0.78258 0.77929 0.0
O874 O 0.79287 0.79234 0.74282 0.0
O875 O 0.79729 0.8302 0.76072 0.0
C876 C 0.8479 0.80216 0.76705 0.0
O877 O 0.76884 0.73831 0.77278 0.0
O878 O 0.79419 0.74366 0.74867 0.0
C879 C 0.81724 0.78542 0.82163 0.0
C880 C 0.81665 0.886 0.82301 0.0
C881 C 0.79273 0.91812 0.83875 0.0
C882 C 0.817 0.92655 0.83741 0.0
C883 C 0.8289 0.91053 0.82953 0.0
C884 C 0.79268 0.87732 0.82525 0.0
C885 C 0.7808 0.89322 0.83307 0.0
C886 C 0.82854 0.86958 0.81307 0.0
C887 C 0.75883 0.79729 0.79641 0.0
H888 H 0.77791 0.64947 0.7738 0.0
H889 H 0.76167 0.67776 0.75405 0.0
H890 H 0.81766 0.73861 0.78677 0.0
H891 H 0.83304 0.71121 0.80685 0.0
H892 H 0.82658 0.94567 0.84167 0.0
H893 H 0.84746 0.91741 0.82793 0.0
H894 H 0.78296 0.85844 0.82022 0.0
H895 H 0.76203 0.88621 0.83335 0.0
Tb896 Tb 0.57594 0.55383 0.54273 0.0
Tb897 Tb 0.53098 0.51621 0.51245 0.0
C898 C 0.52557 0.54591 0.55601 0.0
C899 C 0.63579 0.57858 0.56467 0.0
C900 C 0.67383 0.56005 0.56542 0.0
C901 C 0.6672 0.56893 0.5855 0.0
C902 C 0.64813 0.57811 0.58513 0.0
C903 C 0.64372 0.57146 0.54454 0.0
C904 C 0.66262 0.56229 0.54493 0.0
C905 C 0.61235 0.5813 0.56444 0.0
O906 O 0.57799 0.51719 0.54747 0.0
O907 O 0.53895 0.49682 0.54001 0.0
O908 O 0.56072 0.50607 0.50184 0.0
O909 O 0.58739 0.54372 0.51091 0.0
O910 O 0.49747 0.49111 0.51073 0.0
O911 O 0.51466 0.50011 0.48074 0.0
O912 O 0.54018 0.55069 0.49737 0.0
O913 O 0.55704 0.57693 0.52843 0.0
O914 O 0.54705 0.54771 0.56323 0.0
O915 O 0.51755 0.53881 0.53506 0.0
C916 C 0.55989 0.49804 0.54879 0.0
O917 O 0.60385 0.5862 0.54547 0.0
O918 O 0.59729 0.56387 0.573 0.0
C919 C 0.5811 0.52174 0.50013 0.0
C920 C 0.47525 0.49931 0.48093 0.0
C921 C 0.44176 0.52458 0.48025 0.0
C922 C 0.43605 0.50055 0.48641 0.0
C923 C 0.45278 0.4881 0.48695 0.0
C924 C 0.47995 0.52198 0.47215 0.0
C925 C 0.46347 0.53461 0.47198 0.0
C926 C 0.49479 0.49078 0.48901 0.0
C927 C 0.54633 0.57271 0.50818 0.0
H928 H 0.67568 0.56722 0.60146 0.0
H929 H 0.64204 0.5832 0.6008 0.0
H930 H 0.63443 0.57141 0.52851 0.0
H931 H 0.6677 0.55573 0.52925 0.0
H932 H 0.41924 0.49204 0.49232 0.0
H933 H 0.44879 0.47064 0.49382 0.0
H934 H 0.49708 0.53097 0.46726 0.0
H935 H 0.46865 0.55308 0.46724 0.0
Tb936 Tb 0.04869 0.54285 0.04498 0.0
Tb937 Tb 0.10265 0.54951 0.02191 0.0
C938 C 0.088 0.52868 0.07049 0.0
C939 C 0.99444 0.56092 0.04486 0.0
C940 C 0.96869 0.59393 0.03767 0.0
C941 C 0.99289 0.60263 0.04372 0.0
C942 C 1.00569 0.58623 0.04723 0.0
C943 C 0.97048 0.55223 0.03824 0.0
C944 C 0.95774 0.56853 0.03465 0.0
C945 C 1.00734 0.54322 0.04871 0.0
O946 O 0.06952 0.58022 0.05493 0.0
O947 O 0.10148 0.58632 0.03352 0.0
O948 O 0.08742 0.55949 0.99195 0.0
O949 O 0.05939 0.55188 0.01376 0.0
O950 O 0.13871 0.56049 0.03138 0.0
O951 O 0.1247 0.54222 0.99852 0.0
O952 O 0.07987 0.51172 0.01317 0.0
O953 O 0.04855 0.50561 0.03547 0.0
O954 O 0.06709 0.53137 0.07117 0.0
O955 O 0.10148 0.53425 0.054 0.0
C956 C 0.08828 0.59432 0.04719 0.0
O957 O 0.01406 0.53391 0.03083 0.0
O958 O 0.0236 0.5491 0.06543 0.0
C959 C 0.06588 0.55742 0.9945 0.0
C960 C 0.15397 0.53004 0.01687 0.0
C961 C 0.17401 0.49221 0.02233 0.0
C962 C 0.18693 0.51418 0.01452 0.0
C963 C 0.17694 0.53299 0.01183 0.0
C964 C 0.14111 0.50827 0.02482 0.0
C965 C 0.15105 0.48956 0.02761 0.0
C966 C 0.14282 0.54904 0.01324 0.0
C967 C 0.06137 0.49749 0.02152 0.0
H968 H 1.00182 0.62206 0.04627 0.0
H969 H 0.02429 0.59332 0.052 0.0
H970 H 0.96159 0.53277 0.03594 0.0
H971 H 0.93923 0.5612 0.02952 0.0
H972 H 0.20458 0.51666 0.0101 0.0
H973 H 0.18701 0.54965 0.00556 0.0
H974 H 0.12327 0.50567 0.02872 0.0
H975 H 0.14078 0.47308 0.03401 0.0
H976 H 0.05001 0.21262 0.98856 0.0
H977 H 0.97829 0.18094 0.96013 0.0
H978 H 0.97814 0.14125 0.97319 0.0
H979 H 0.06839 0.16067 0.97264 0.0
H980 H 0.08786 0.16387 0.99749 0.0
H981 H 0.08195 0.1904 0.9876 0.0
H982 H 0.06847 0.20084 0.02616 0.0
H983 H 0.0745 0.17442 0.03622 0.0
H984 H 0.0459 0.17816 0.03768 0.0
H985 H 0.98587 0.10478 0.98832 0.0
H986 H 1.00103 0.07357 0.00386 0.0
H987 H 0.06857 0.12786 0.02144 0.0
C988 C 0.03413 0.19745 0.98548 0.0
C989 C 0.01401 0.20003 0.97357 0.0
C990 C 0.99382 0.17952 0.96936 0.0
C991 C 0.99358 0.15687 0.9767 0.0
C992 C 0.01375 0.15485 0.98808 0.0
C993 C 0.0337 0.17454 0.99243 0.0
C994 C 0.05339 0.16701 0.00398 0.0
C995 C 0.07412 0.17071 0.98956 0.0
C996 C 0.06101 0.18094 0.0274 0.0
C997 C 0.04137 0.14003 0.00541 0.0
C998 C 0.01847 0.13351 0.99625 0.0
C999 C 1.00377 0.10969 0.99555 0.0
C1000 C 1.0126 0.09204 0.00446 0.0
C1001 C 0.03606 0.0981 0.0139 0.0
C1002 C 0.0506 0.12252 0.01429 0.0
H1003 H 0.16498 0.82325 0.20007 0.0
H1004 H 0.19899 0.83483 0.1386 0.0
H1005 H 0.23525 0.83174 0.15784 0.0
H1006 H 0.21645 0.85736 0.23843 0.0
H1007 H 0.2095 0.83627 0.2594 0.0
H1008 H 0.18643 0.8409 0.24132 0.0
H1009 H 0.1712 0.79435 0.22907 0.0
H1010 H 0.19425 0.78964 0.24706 0.0
H1011 H 0.19081 0.77907 0.21769 0.0
H1012 H 0.26655 0.82419 0.18229 0.0
H1013 H 0.29201 0.81426 0.21136 0.0
H1014 H 0.23894 0.80896 0.25789 0.0
C1015 C 0.18017 0.82551 0.19077 0.0
C1016 C 0.17917 0.82937 0.16782 0.0
C1017 C 0.19934 0.83194 0.15618 0.0
C1018 C 0.22004 0.83023 0.16696 0.0
C1019 C 0.22037 0.8261 0.18945 0.0
C1020 C 0.20109 0.82395 0.20133 0.0
C1021 C 0.20605 0.81874 0.22521 0.0
C1022 C 0.20451 0.83956 0.24208 0.0
C1023 C 0.1896 0.79398 0.23003 0.0
C1024 C 0.23099 0.81796 0.22471 0.0
C1025 C 0.23883 0.82224 0.20386 0.0
C1026 C 0.26075 0.82114 0.19877 0.0
C1027 C 0.27506 0.81542 0.21538 0.0
C1028 C 0.26752 0.81109 0.23691 0.0
C1029 C 0.24528 0.81265 0.2417 0.0
H1030 H 0.55825 0.87558 0.45652 0.0
H1031 H 0.51342 0.83224 0.50142 0.0
H1032 H 0.51368 0.8704 0.52393 0.0
H1033 H 0.59302 0.92354 0.49876 0.0
H1034 H 0.59499 0.94702 0.48019 0.0
H1035 H 0.59253 0.91633 0.469 0.0
H1036 H 0.5561 0.91558 0.44308 0.0
H1037 H 0.55842 0.94619 0.45433 0.0
H1038 H 0.53162 0.92197 0.45521 0.0
H1039 H 0.51757 0.91442 0.54027 0.0
H1040 H 0.52555 0.95902 0.54925 0.0
H1041 H 0.56726 0.97203 0.49266 0.0
C1042 C 0.54864 0.87393 0.47122 0.0
C1043 C 0.53577 0.85081 0.47716 0.0
C1044 C 0.52351 0.84969 0.49658 0.0
C1045 C 0.52351 0.87129 0.50941 0.0
C1046 C 0.53597 0.89379 0.50267 0.0
C1047 C 0.54848 0.89512 0.4841 0.0
C1048 C 0.55996 0.9213 0.47977 0.0
C1049 C 0.58671 0.92739 0.48207 0.0
C1050 C 0.55097 0.92655 0.45674 0.0
C1051 C 0.55167 0.93467 0.49856 0.0
C1052 C 0.53798 0.91863 0.51175 0.0
C1053 C 0.52833 0.92706 0.53005 0.0
C1054 C 0.53292 0.95245 0.53499 0.0
C1055 C 0.54692 0.96912 0.5216 0.0
C1056 C 0.55633 0.9599 0.50318 0.0
H1057 H 0.53529 0.26412 0.69265 0.0
H1058 H 0.53586 0.32069 0.64877 0.0
H1059 H 0.49874 0.32384 0.66226 0.0
H1060 H 0.47154 0.23543 0.68775 0.0
H1061 H 0.47175 0.22955 0.71674 0.0
H1062 H 0.49672 0.22991 0.7016 0.0
H1063 H 0.52321 0.26271 0.73182 0.0
H1064 H 0.49833 0.26264 0.74688 0.0
H1065 H 0.51634 0.29082 0.73824 0.0
H1066 H 0.46369 0.3236 0.68367 0.0
H1067 H 0.43331 0.31914 0.71019 0.0
H1068 H 0.45606 0.26223 0.73914 0.0
C1069 C 0.52744 0.27686 0.68548 0.0
C1070 C 0.53847 0.29211 0.6696 0.0
C1071 C 0.52764 0.30866 0.66082 0.0
C1072 C 0.50659 0.31061 0.66841 0.0
C1073 C 0.49657 0.29574 0.68458 0.0
C1074 C 0.50656 0.27901 0.69282 0.0
C1075 C 0.49323 0.26613 0.71102 0.0
C1076 C 0.48268 0.23863 0.70384 0.0
C1077 C 0.5087 0.27087 0.7333 0.0
C1078 C 0.47449 0.27867 0.71222 0.0
C1079 C 0.47652 0.29556 0.69676 0.0
C1080 C 0.46173 0.31015 0.69559 0.0
C1081 C 0.44449 0.30743 0.71067 0.0
C1082 C 0.4423 0.29032 0.72674 0.0
C1083 C 0.45739 0.27564 0.72723 0.0
H1084 H 0.05427 0.86887 0.59766 0.0
H1085 H 0.07402 0.90431 0.66531 0.0
H1086 H 0.07652 0.94405 0.65143 0.0
H1087 H 0.09204 0.91888 0.56971 0.0
H1088 H 0.07129 0.91576 0.54587 0.0
H1089 H 0.07102 0.88962 0.56065 0.0
H1090 H 0.02758 0.88299 0.5667 0.0
H1091 H 0.02777 0.90913 0.55194 0.0
H1092 H 0.01879 0.90768 0.57993 0.0
H1093 H 0.07681 0.98164 0.63029 0.0
H1094 H 0.07507 0.01232 0.60441 0.0
H1095 H 0.05526 0.95531 0.54894 0.0
C1096 C 0.05921 0.88495 0.60962 0.0
C1097 C 0.06399 0.88259 0.63304 0.0
C1098 C 0.07025 0.90474 0.64754 0.0
C1099 C 0.07173 0.92778 0.63969 0.0
C1100 C 0.06694 0.92943 0.61687 0.0
C1101 C 0.06081 0.90857 0.60193 0.0
C1102 C 0.05651 0.91587 0.57817 0.0
C1103 C 0.07373 0.90965 0.56268 0.0
C1104 C 0.03115 0.90315 0.56861 0.0
C1105 C 0.06117 0.94385 0.58209 0.0
C1106 C 0.06715 0.95114 0.60466 0.0
C1107 C 0.07216 0.97587 0.61262 0.0
C1108 C 0.07111 0.99346 0.59755 0.0
C1109 C 0.0651 0.98708 0.57412 0.0
C1110 C 0.06006 0.96147 0.56652 0.0
H1111 H 0.48737 0.81871 0.84074 0.0
H1112 H 0.47022 0.7485 0.86754 0.0
H1113 H 0.42852 0.74145 0.85479 0.0
H1114 H 0.43528 0.83409 0.85667 0.0
H1115 H 0.43202 0.84916 0.83204 0.0
H1116 H 0.46052 0.84843 0.84254 0.0
H1117 H 0.46606 0.82889 0.80399 0.0
H1118 H 0.43757 0.82957 0.79337 0.0
H1119 H 0.4446 0.80115 0.79164 0.0
H1120 H 0.38709 0.74148 0.83765 0.0
H1121 H 0.35182 0.74919 0.8208 0.0
H1122 H 0.39375 0.82064 0.80625 0.0
C1123 C 0.47495 0.8017 0.8439 0.0
C1124 C 0.48297 0.78405 0.85526 0.0
C1125 C 0.46537 0.76241 0.859 0.0
C1126 C 0.44132 0.75823 0.8517 0.0
C1127 C 0.43419 0.77589 0.84065 0.0
C1128 C 0.45059 0.79737 0.83694 0.0
C1129 C 0.43819 0.81373 0.82524 0.0
C1130 C 0.44172 0.83779 0.84 0.0
C1131 C 0.44714 0.81864 0.80219 0.0
C1132 C 0.41229 0.79821 0.82276 0.0
C1133 C 0.41051 0.77632 0.83165 0.0
C1134 C 0.38861 0.7587 0.83088 0.0
C1135 C 0.36835 0.76332 0.82108 0.0
C1136 C 0.36908 0.78564 0.81196 0.0
C1137 C 0.39185 0.80336 0.81303 0.0
H1138 H 0.54252 0.19629 0.14999 0.0
H1139 H 0.55864 0.24754 0.09993 0.0
H1140 H 0.56053 0.21397 0.07235 0.0
H1141 H 0.58005 0.15998 0.13277 0.0
H1142 H 0.56007 0.13119 0.13798 0.0
H1143 H 0.55985 0.15901 0.15381 0.0
H1144 H 0.51594 0.14971 0.14171 0.0
H1145 H 0.51607 0.12183 0.12593 0.0
H1146 H 0.50591 0.14415 0.11234 0.0
H1147 H 0.56136 0.17391 0.0496 0.0
H1148 H 0.55991 0.13254 0.03403 0.0
H1149 H 0.54256 0.10543 0.09796 0.0
C1150 C 0.54638 0.20059 0.1332 0.0
C1151 C 0.55037 0.22523 0.12749 0.0
C1152 C 0.5554 0.22934 0.10513 0.0
C1153 C 0.55656 0.21016 0.08923 0.0
C1154 C 0.55262 0.18635 0.09546 0.0
C1155 C 0.54752 0.18148 0.11698 0.0
C1156 C 0.5439 0.15416 0.11933 0.0
C1157 C 0.56205 0.1509 0.13702 0.0
C1158 C 0.51897 0.14173 0.12517 0.0
C1159 C 0.54773 0.14436 0.09582 0.0
C1160 C 0.55284 0.16336 0.08239 0.0
C1161 C 0.55729 0.15907 0.06012 0.0
C1162 C 0.55644 0.13519 0.05133 0.0
C1163 C 0.55104 0.11497 0.06436 0.0
C1164 C 0.54666 0.12002 0.08715 0.0
H1165 H 0.16142 0.31076 0.38556 0.0
H1166 H 0.11 0.26878 0.33241 0.0
H1167 H 0.14172 0.26428 0.30996 0.0
H1168 H 0.20345 0.3434 0.34716 0.0
H1169 H 0.22912 0.34374 0.36451 0.0
H1170 H 0.20263 0.34347 0.37706 0.0
H1171 H 0.20351 0.30481 0.39574 0.0
H1172 H 0.22999 0.30499 0.38322 0.0
H1173 H 0.2049 0.27819 0.37866 0.0
H1174 H 0.18004 0.26221 0.29289 0.0
H1175 H 0.21966 0.26574 0.28211 0.0
H1176 H 0.2491 0.31208 0.3436 0.0
C1177 C 0.15671 0.30057 0.36919 0.0
C1178 C 0.13228 0.28994 0.36126 0.0
C1179 C 0.12786 0.27716 0.33942 0.0
C1180 C 0.14608 0.27444 0.32636 0.0
C1181 C 0.1696 0.28494 0.33458 0.0
C1182 C 0.17503 0.29815 0.35544 0.0
C1183 C 0.20201 0.30833 0.35974 0.0
C1184 C 0.20976 0.3364 0.36228 0.0
C1185 C 0.21061 0.2985 0.38059 0.0
C1186 C 0.21084 0.29849 0.33839 0.0
C1187 C 0.19164 0.28485 0.32424 0.0
C1188 C 0.19498 0.27314 0.30393 0.0
C1189 C 0.21795 0.27527 0.29785 0.0
C1190 C 0.23844 0.28944 0.31145 0.0
C1191 C 0.23438 0.30132 0.33223 0.0
H1192 H 0.93211 0.03814 0.15262 0.0
H1193 H 0.97362 0.1059 0.19038 0.0
H1194 H 1.00175 0.11229 0.16162 0.0
H1195 H 0.97899 0.01849 0.1401 0.0
H1196 H 0.96735 1.00393 0.11245 0.0
H1197 H 0.94785 1.00683 0.1332 0.0
H1198 H 0.92761 0.02912 0.10674 0.0
H1199 H 0.94688 0.02625 0.08568 0.0
H1200 H 0.9447 0.05593 0.09509 0.0
H1201 H 0.02729 0.10898 0.13198 0.0
H1202 H 0.04926 0.09649 0.10267 0.0
H1203 H 0.99224 0.02952 0.08482 0.0
C1204 C 0.94659 0.05482 0.15422 0.0
C1205 C 0.95055 0.07196 0.17322 0.0
C1206 C 0.97023 0.09295 0.17558 0.0
C1207 C 0.98622 0.09667 0.15939 0.0
C1208 C 0.98231 0.07905 0.14119 0.0
C1209 C 0.96299 0.05853 0.13844 0.0
C1210 C 0.96454 0.04093 0.11893 0.0
C1211 C 0.9647 0.01609 0.12665 0.0
C1212 C 0.94475 0.03791 0.1005 0.0
C1213 C 0.98792 0.05456 0.11149 0.0
C1214 C 0.99769 0.07662 0.1244 0.0
C1215 C 0.01971 0.09193 0.12152 0.0
C1216 C 0.03207 0.08458 0.10487 0.0
C1217 C 0.02244 0.06201 0.09145 0.0
C1218 C 1.00004 0.04687 0.0948 0.0
H1219 H 0.31005 0.6868 0.48604 0.0
H1220 H 0.333 0.74787 0.53778 0.0
H1221 H 0.32531 0.7754 0.51063 0.0
H1222 H 0.33359 0.71966 0.43998 0.0
H1223 H 0.30912 0.70293 0.42044 0.0
H1224 H 0.31755 0.68865 0.4438 0.0
H1225 H 0.27551 0.67926 0.45614 0.0
H1226 H 0.26706 0.69375 0.43295 0.0
H1227 H 0.26305 0.70392 0.46109 0.0
H1228 H 0.3145 0.79597 0.47744 0.0
H1229 H 0.30272 0.80787 0.44084 0.0
H1230 H 0.28492 0.73227 0.41258 0.0
C1231 C 0.31377 0.70602 0.49164 0.0
C1232 C 0.32226 0.71528 0.51393 0.0
C1233 C 0.32659 0.74047 0.52068 0.0
C1234 C 0.32222 0.7562 0.50543 0.0
C1235 C 0.31343 0.74633 0.48363 0.0
C1236 C 0.30932 0.72182 0.47678 0.0
C1237 C 0.29937 0.71552 0.45267 0.0
C1238 C 0.3159 0.70615 0.43839 0.0
C1239 C 0.27479 0.69702 0.45061 0.0
C1240 C 0.29854 0.74031 0.44696 0.0
C1241 C 0.30673 0.75793 0.46493 0.0
C1242 C 0.30798 0.78231 0.46327 0.0
C1243 C 0.3011 0.78886 0.44251 0.0
C1244 C 0.29307 0.77102 0.42386 0.0
C1245 C 0.29136 0.74642 0.4264 0.0
H1246 H 0.61313 0.97908 0.68387 0.0
H1247 H 0.68635 0.9981 0.67176 0.0
H1248 H 0.67623 1.00689 0.6335 0.0
H1249 H 0.58669 0.95588 0.62496 0.0
H1250 H 0.56408 0.97023 0.62861 0.0
H1251 H 0.57615 0.95883 0.6521 0.0
H1252 H 0.58578 1.00166 0.67413 0.0
H1253 H 0.57458 0.0135 0.65056 0.0
H1254 H 0.60413 0.02783 0.66264 0.0
H1255 H 0.65922 0.01987 0.59951 0.0
H1256 H 0.63649 0.03489 0.57152 0.0
H1257 H 0.57523 0.01154 0.60813 0.0
C1258 C 0.62698 0.98411 0.6729 0.0
C1259 C 0.65053 0.98787 0.68072 0.0
C1260 C 0.66817 0.99489 0.66599 0.0
C1261 C 0.66258 1.0 0.64429 0.0
C1262 C 0.63936 0.99796 0.63779 0.0
C1263 C 0.6218 0.98996 0.65161 0.0
C1264 C 0.59896 0.99295 0.64229 0.0
C1265 C 0.58037 0.96799 0.63665 0.0
C1266 C 0.59038 0.01 0.65836 0.0
C1267 C 0.60657 1.00467 0.62138 0.0
C1268 C 0.62979 1.00691 0.61884 0.0
C1269 C 0.64098 0.01792 0.60117 0.0
C1270 C 0.62798 0.02651 0.58548 0.0
C1271 C 0.60423 0.02444 0.58788 0.0
C1272 C 0.59344 0.01352 0.6061 0.0
H1273 H 0.32109 0.37862 0.95246 0.0
H1274 H 0.30188 0.30882 0.98019 0.0
H1275 H 0.3015 0.28785 0.94247 0.0
H1276 H 0.28624 0.35949 0.90055 0.0
H1277 H 0.30751 0.37825 0.88448 0.0
H1278 H 0.3067 0.38752 0.91363 0.0
H1279 H 0.35026 0.39002 0.92123 0.0
H1280 H 0.35121 0.38075 0.89209 0.0
H1281 H 0.35958 0.36372 0.91332 0.0
H1282 H 0.30088 0.27448 0.90066 0.0
H1283 H 0.30219 0.27013 0.85946 0.0
H1284 H 0.3237 0.34883 0.85956 0.0
C1285 C 0.31685 0.35889 0.95071 0.0
C1286 C 0.31139 0.34538 0.96944 0.0
C1287 C 0.30616 0.31962 0.96624 0.0
C1288 C 0.30586 0.30756 0.94482 0.0
C1289 C 0.31114 0.32149 0.92674 0.0
C1290 C 0.31677 0.34665 0.92958 0.0
C1291 C 0.32184 0.35753 0.90755 0.0
C1292 C 0.30454 0.37152 0.90118 0.0
C1293 C 0.34723 0.37398 0.90862 0.0
C1294 C 0.3179 0.33458 0.89169 0.0
C1295 C 0.31165 0.31394 0.90306 0.0
C1296 C 0.30609 0.29056 0.89175 0.0
C1297 C 0.3069 0.28824 0.86837 0.0
C1298 C 0.31346 0.30913 0.85648 0.0
C1299 C 0.31911 0.33259 0.86834 0.0
H1300 H 0.99015 0.02017 0.28565 0.0
H1301 H 0.93517 0.04955 0.30661 0.0
H1302 H 0.94652 0.04564 0.34608 0.0
H1303 H 0.98305 0.97579 0.32462 0.0
H1304 H 0.01381 0.97929 0.32911 0.0
H1305 H 1.00182 0.98521 0.30271 0.0
H1306 H 0.0313 0.02881 0.30692 0.0
H1307 H 0.04349 0.02305 0.3333 0.0
H1308 H 0.03272 0.04905 0.33176 0.0
H1309 H 0.96398 0.03818 0.38315 0.0
H1310 H 0.98612 0.028 0.41495 0.0
H1311 H 0.02858 1.00231 0.36896 0.0
C1312 C 0.98055 0.02598 0.29849 0.0
C1313 C 0.96183 0.03524 0.29307 0.0
C1314 C 0.94961 0.04241 0.31041 0.0
C1315 C 0.95592 0.04027 0.33284 0.0
C1316 C 0.97438 0.03086 0.33753 0.0
C1317 C 0.98649 0.02385 0.32082 0.0
C1318 C 1.00535 0.01386 0.33011 0.0
C1319 C 1.00072 0.98694 0.3211 0.0
C1320 C 0.02965 0.02964 0.32523 0.0
C1321 C 1.00208 0.0164 0.35473 0.0
C1322 C 0.98415 0.02624 0.3587 0.0
C1323 C 0.97798 0.03038 0.38022 0.0
C1324 C 0.99055 0.02436 0.39813 0.0
C1325 C 1.00897 0.0142 0.39439 0.0
C1326 C 0.01473 0.01021 0.37237 0.0
H1327 H 0.31894 0.66612 0.65758 0.0
H1328 H 0.36702 0.72066 0.62357 0.0
H1329 H 0.3699 0.75153 0.65535 0.0
H1330 H 0.28696 0.70249 0.67542 0.0
H1331 H 0.28161 0.69091 0.70218 0.0
H1332 H 0.2869 0.67173 0.67936 0.0
H1333 H 0.32141 0.66483 0.70338 0.0
H1334 H 0.31562 0.68347 0.72643 0.0
H1335 H 0.34435 0.69086 0.71671 0.0
H1336 H 0.36357 0.77734 0.68786 0.0
H1337 H 0.34909 0.79651 0.71958 0.0
H1338 H 0.30381 0.72537 0.73162 0.0
C1339 C 0.33079 0.68431 0.65721 0.0
C1340 C 0.34298 0.69098 0.63827 0.0
C1341 C 0.35769 0.71517 0.63803 0.0
C1342 C 0.35947 0.73279 0.656 0.0
C1343 C 0.34644 0.72586 0.674 0.0
C1344 C 0.33253 0.70215 0.67486 0.0
C1345 C 0.31824 0.7001 0.69483 0.0
C1346 C 0.29188 0.69077 0.68749 0.0
C1347 C 0.32535 0.68386 0.71131 0.0
C1348 C 0.3256 0.72652 0.70452 0.0
C1349 C 0.34219 0.74098 0.69251 0.0
C1350 C 0.35085 0.76618 0.69762 0.0
C1351 C 0.34242 0.77689 0.71559 0.0
C1352 C 0.32528 0.76242 0.72801 0.0
C1353 C 0.31687 0.73691 0.72241 0.0
H1354 H 0.61907 0.01207 0.80524 0.0
H1355 H 0.56355 0.02023 0.75957 0.0
H1356 H 0.54004 0.02246 0.79138 0.0
H1357 H 0.58121 0.97644 0.84482 0.0
H1358 H 0.60124 0.99198 0.86861 0.0
H1359 H 0.6121 0.98721 0.84194 0.0
H1360 H 0.63275 0.03379 0.84318 0.0
H1361 H 0.62198 0.03867 0.86976 0.0
H1362 H 0.61585 0.0548 0.84677 0.0
H1363 H 0.52491 0.02886 0.82831 0.0
H1364 H 0.51941 0.03928 0.8678 0.0
H1365 H 0.58529 0.02746 0.88865 0.0
C1366 C 0.60177 0.0138 0.80179 0.0
C1367 C 0.5931 0.01596 0.77996 0.0
C1368 C 0.5705 0.0185 0.77621 0.0
C1369 C 0.55698 0.01965 0.79412 0.0
C1370 C 0.56631 0.01801 0.81552 0.0
C1371 C 0.58814 0.01501 0.81939 0.0
C1372 C 0.59518 0.01611 0.84406 0.0
C1373 C 0.59757 0.99146 0.85021 0.0
C1374 C 0.61776 0.03709 0.85135 0.0
C1375 C 0.57427 0.02116 0.85352 0.0
C1376 C 0.55762 0.0218 0.83683 0.0
C1377 C 0.53761 0.02802 0.84155 0.0
C1378 C 0.53474 0.03407 0.86394 0.0
C1379 C 0.5519 0.03402 0.88115 0.0
C1380 C 0.57164 0.02705 0.87584 0.0
H1381 H 0.31868 0.36667 0.13485 0.0
H1382 H 0.29491 0.29508 0.09709 0.0
H1383 H 0.28872 0.27589 0.13235 0.0
H1384 H 0.34935 0.34908 0.18165 0.0
H1385 H 0.34105 0.36846 0.20244 0.0
H1386 H 0.34386 0.3768 0.17428 0.0
H1387 H 0.30149 0.37929 0.17177 0.0
H1388 H 0.29853 0.37077 0.19987 0.0
H1389 H 0.278 0.35318 0.17719 0.0
H1390 H 0.28493 0.26417 0.17142 0.0
H1391 H 0.28495 0.26035 0.21182 0.0
H1392 H 0.3108 0.33931 0.22559 0.0
C1393 C 0.31231 0.34694 0.13399 0.0
C1394 C 0.30737 0.3324 0.113 0.0
C1395 C 0.29892 0.30666 0.11278 0.0
C1396 C 0.29527 0.29557 0.13279 0.0
C1397 C 0.3001 0.31037 0.15309 0.0
C1398 C 0.30852 0.33549 0.15392 0.0
C1399 C 0.31231 0.34704 0.1781 0.0
C1400 C 0.33818 0.36118 0.18449 0.0
C1401 C 0.29665 0.36355 0.18195 0.0
C1402 C 0.30474 0.32446 0.19071 0.0
C1403 C 0.29774 0.30356 0.17582 0.0
C1404 C 0.29034 0.28042 0.18319 0.0
C1405 C 0.29041 0.27848 0.20629 0.0
C1406 C 0.29775 0.2995 0.2221 0.0
C1407 C 0.30477 0.32287 0.21405 0.0
H1408 H 0.26021 0.98941 0.03294 0.0
H1409 H 0.21091 0.91955 0.04235 0.0
H1410 H 0.18553 0.94118 0.06014 0.0
H1411 H 0.25409 0.02219 0.08468 0.0
H1412 H 0.25643 0.05012 0.07209 0.0
H1413 H 0.271 0.02909 0.06105 0.0
H1414 H 0.24974 0.02705 0.02169 0.0
H1415 H 0.23528 0.04819 0.03259 0.0
H1416 H 0.21832 0.01895 0.01853 0.0
H1417 H 0.1651 0.97061 0.07532 0.0
H1418 H 0.15019 1.00538 0.08506 0.0
H1419 H 0.21398 0.05545 0.06647 0.0
C1420 C 0.24415 0.97858 0.03885 0.0
C1421 C 0.23748 0.95284 0.03638 0.0
C1422 C 0.21627 0.93933 0.04414 0.0
C1423 C 0.20186 0.95143 0.05432 0.0
C1424 C 0.20909 0.9769 0.05661 0.0
C1425 C 0.22971 0.99027 0.04901 0.0
C1426 C 0.23315 0.01739 0.0525 0.0
C1427 C 0.25497 0.03046 0.06854 0.0
C1428 C 0.23417 0.02854 0.02999 0.0
C1429 C 0.21112 0.01725 0.06312 0.0
C1430 C 0.1975 0.99377 0.06549 0.0
C1431 C 0.17576 0.9891 0.07387 0.0
C1432 C 0.16756 0.00897 0.07955 0.0
C1433 C 0.18112 0.03311 0.07675 0.0
C1434 C 0.20333 0.03722 0.06887 0.0
H1435 H 0.72016 0.67946 0.02709 0.0
H1436 H 0.75388 0.62694 1.0017 0.0
H1437 H 0.71831 0.59331 0.00512 0.0
H1438 H 0.68996 0.64339 0.06782 0.0
H1439 H 0.66385 0.65244 0.06383 0.0
H1440 H 0.6916 0.67282 0.0585 0.0
H1441 H 0.67516 0.67524 0.01813 0.0
H1442 H 0.64729 0.65505 0.02341 0.0
H1443 H 0.66199 0.64743 1.00001 0.0
H1444 H 0.67973 0.56527 0.01168 0.0
H1445 H 0.63961 0.54443 0.02026 0.0
H1446 H 0.63083 0.61465 0.04231 0.0
C1447 C 0.71991 0.66091 0.02199 0.0
C1448 C 0.73976 0.65582 0.01406 0.0
C1449 C 0.73887 0.63127 0.00782 0.0
C1450 C 0.71877 0.61201 0.00972 0.0
C1451 C 0.69966 0.61755 0.01795 0.0
C1452 C 0.69994 0.64134 0.02393 0.0
C1453 C 0.67705 0.64205 0.03267 0.0
C1454 C 0.68085 0.65335 0.05716 0.0
C1455 C 0.66463 0.65575 0.01766 0.0
C1456 C 0.664 0.61497 0.03073 0.0
C1457 C 0.67737 0.6012 0.02214 0.0
C1458 C 0.66905 0.57581 0.01846 0.0
C1459 C 0.64627 0.56414 0.02343 0.0
C1460 C 0.63215 0.57786 0.03208 0.0
C1461 C 0.64129 0.60361 0.03595 0.0
H1462 H 0.75495 0.51179 0.30482 0.0
H1463 H 0.68696 0.46217 0.2797 0.0
H1464 H 0.70608 0.43498 0.2601 0.0
H1465 H 0.78517 0.50448 0.25587 0.0
H1466 H 0.81177 0.50542 0.27201 0.0
H1467 H 0.79279 0.52166 0.28306 0.0
H1468 H 0.79034 0.49859 0.31864 0.0
H1469 H 0.80947 0.48249 0.30778 0.0
H1470 H 0.78131 0.46565 0.31568 0.0
H1471 H 0.73236 0.41282 0.24439 0.0
H1472 H 0.76404 0.3953 0.23606 0.0
H1473 H 0.8148 0.45969 0.27129 0.0
C1474 C 0.74408 0.49529 0.29508 0.0
C1475 C 0.71953 0.48907 0.29363 0.0
C1476 C 0.70584 0.4672 0.28099 0.0
C1477 C 0.71652 0.45175 0.26971 0.0
C1478 C 0.7408 0.45852 0.27136 0.0
C1479 C 0.75441 0.47964 0.28388 0.0
C1480 C 0.7801 0.482 0.28402 0.0
C1481 C 0.79322 0.50474 0.27308 0.0
C1482 C 0.79093 0.48218 0.30795 0.0
C1483 C 0.77878 0.45881 0.26972 0.0
C1484 C 0.75599 0.44564 0.2624 0.0
C1485 C 0.75032 0.42308 0.24975 0.0
C1486 C 0.76845 0.41341 0.24492 0.0
C1487 C 0.79187 0.42634 0.2528 0.0
C1488 C 0.79707 0.44952 0.26495 0.0
H1489 H 0.88645 0.48974 0.48595 0.0
H1490 H 0.86847 0.44133 0.53821 0.0
H1491 H 0.91011 0.45161 0.55168 0.0
H1492 H 0.94121 0.47556 0.47513 0.0
H1493 H 0.95584 0.50649 0.46986 0.0
H1494 H 0.92472 0.49397 0.4634 0.0
H1495 H 0.91865 0.53014 0.48823 0.0
H1496 H 0.94968 0.54258 0.49499 0.0
H1497 H 0.93059 0.53608 0.51709 0.0
H1498 H 0.95241 0.47122 0.5625 0.0
H1499 H 0.99431 0.49462 0.56673 0.0
H1500 H 0.98526 0.52764 0.50571 0.0
C1501 C 0.89137 0.48101 0.49997 0.0
C1502 C 0.87439 0.46483 0.5111 0.0
C1503 C 0.88132 0.45367 0.52938 0.0
C1504 C 0.90486 0.45945 0.53721 0.0
C1505 C 0.92114 0.47597 0.52623 0.0
C1506 C 0.91481 0.48618 0.50771 0.0
C1507 C 0.93577 0.50363 0.49916 0.0
C1508 C 0.93962 0.49435 0.47549 0.0
C1509 C 0.93353 0.52964 0.49993 0.0
C1510 C 0.95474 0.5022 0.51623 0.0
C1511 C 0.94589 0.48628 0.53179 0.0
C1512 C 0.95969 0.48334 0.55018 0.0
C1513 C 0.98333 0.49682 0.55255 0.0
C1514 C 0.99277 0.51266 0.53643 0.0
C1515 C 0.97837 0.51531 0.51803 0.0
H1516 H 0.41447 0.11801 0.29611 0.0
H1517 H 0.37519 0.04413 0.26893 0.0
H1518 H 0.34419 0.05948 0.25253 0.0
H1519 H 0.36548 0.13737 0.31057 0.0
H1520 H 0.37792 0.16791 0.30307 0.0
H1521 H 0.39673 0.15076 0.3125 0.0
H1522 H 0.41765 0.15732 0.27607 0.0
H1523 H 0.39857 0.1741 0.26635 0.0
H1524 H 0.40078 0.14783 0.24931 0.0
H1525 H 0.31723 0.08282 0.23985 0.0
H1526 H 0.29548 0.11253 0.23335 0.0
H1527 H 0.35334 0.17062 0.26815 0.0
C1528 C 0.39928 0.10502 0.28686 0.0
C1529 C 0.39713 0.07992 0.28383 0.0
C1530 C 0.37709 0.06348 0.27148 0.0
C1531 C 0.35948 0.07201 0.26201 0.0
C1532 C 0.36235 0.09697 0.26497 0.0
C1533 C 0.38169 0.1132 0.27718 0.0
C1534 C 0.38047 0.13906 0.27819 0.0
C1535 C 0.38011 0.14937 0.30252 0.0
C1536 C 0.40056 0.15554 0.2668 0.0
C1537 C 0.3573 0.13479 0.26481 0.0
C1538 C 0.34713 0.11044 0.25723 0.0
C1539 C 0.32511 0.102 0.24546 0.0
C1540 C 0.31294 0.11892 0.2418 0.0
C1541 C 0.32297 0.14384 0.24985 0.0
C1542 C 0.34557 0.15182 0.26113 0.0
H1543 H 0.35208 0.1305 0.56055 0.0
H1544 H 0.38618 0.19285 0.52577 0.0
H1545 H 0.42168 0.17907 0.52598 0.0
H1546 H 0.40123 0.13042 0.59631 0.0
H1547 H 0.39313 0.09755 0.59477 0.0
H1548 H 0.37093 0.11257 0.59158 0.0
H1549 H 0.35542 0.08703 0.55327 0.0
H1550 H 0.37763 0.07198 0.55632 0.0
H1551 H 0.37512 0.08752 0.53184 0.0
H1552 H 0.45345 0.15758 0.53043 0.0
H1553 H 0.47802 0.13092 0.53829 0.0
H1554 H 0.42187 0.08396 0.57075 0.0
C1555 C 0.36693 0.14148 0.55296 0.0
C1556 C 0.36633 0.16288 0.5432 0.0
C1557 C 0.38624 0.17643 0.53338 0.0
C1558 C 0.40643 0.16872 0.53343 0.0
C1559 C 0.40627 0.14746 0.54328 0.0
C1560 C 0.38693 0.1341 0.55282 0.0
C1561 C 0.39075 0.11191 0.56232 0.0
C1562 C 0.38891 0.11321 0.58775 0.0
C1563 C 0.37372 0.08822 0.55021 0.0
C1564 C 0.41544 0.11482 0.55684 0.0
C1565 C 0.42418 0.13533 0.54581 0.0
C1566 C 0.44674 0.14154 0.53911 0.0
C1567 C 0.46061 0.12636 0.54379 0.0
C1568 C 0.45189 0.10529 0.55515 0.0
C1569 C 0.429 0.09965 0.56174 0.0
H1570 H 0.74504 0.61296 0.31911 0.0
H1571 H 0.70981 0.63641 0.37314 0.0
H1572 H 0.73465 0.67886 0.37261 0.0
H1573 H 0.80484 0.66183 0.33338 0.0
H1574 H 0.80805 0.6648 0.30407 0.0
H1575 H 0.79289 0.63561 0.31307 0.0
H1576 H 0.75692 0.63342 0.28594 0.0
H1577 H 0.77173 0.66264 0.27715 0.0
H1578 H 0.74379 0.65783 0.28825 0.0
H1579 H 0.75562 0.71832 0.36095 0.0
H1580 H 0.77234 0.75288 0.33937 0.0
H1581 H 0.79408 0.70498 0.29197 0.0
C1582 C 0.74354 0.62691 0.33159 0.0
C1583 C 0.72599 0.62158 0.3465 0.0
C1584 C 0.72349 0.64027 0.36187 0.0
C1585 C 0.73756 0.66436 0.36172 0.0
C1586 C 0.75394 0.66935 0.34602 0.0
C1587 C 0.7572 0.65115 0.33132 0.0
C1588 C 0.77293 0.66187 0.31363 0.0
C1589 C 0.79606 0.65566 0.3162 0.0
C1590 C 0.76059 0.65344 0.28986 0.0
C1591 C 0.77671 0.68882 0.31981 0.0
C1592 C 0.76606 0.69269 0.33889 0.0
C1593 C 0.7646 0.71564 0.3464 0.0
C1594 C 0.77394 0.73509 0.33392 0.0
C1595 C 0.78452 0.73142 0.31415 0.0
C1596 C 0.78652 0.70821 0.30734 0.0
H1597 H 0.91705 0.45123 0.79542 0.0
H1598 H 0.86886 0.48885 0.81937 0.0
H1599 H 0.83971 0.44931 0.82231 0.0
H1600 H 0.87349 0.40134 0.76233 0.0
H1601 H 0.88786 0.37906 0.76918 0.0
H1602 H 0.90474 0.41048 0.76847 0.0
H1603 H 0.92221 0.41145 0.80924 0.0
H1604 H 0.90515 0.38013 0.81018 0.0
H1605 H 0.90286 0.40343 0.83096 0.0
H1606 H 0.8161 0.40595 0.82348 0.0
H1607 H 0.79874 0.36113 0.82056 0.0
H1608 H 0.86253 0.35224 0.79621 0.0
C1609 C 0.9003 0.45116 0.80107 0.0
C1610 C 0.89527 0.47309 0.80718 0.0
C1611 C 0.87316 0.47224 0.81462 0.0
C1612 C 0.85646 0.4499 0.8164 0.0
C1613 C 0.86215 0.42864 0.81066 0.0
C1614 C 0.88342 0.42904 0.80298 0.0
C1615 C 0.88513 0.40354 0.79797 0.0
C1616 C 0.88796 0.3983 0.77301 0.0
C1617 C 0.90502 0.3994 0.81298 0.0
C1618 C 0.86152 0.38882 0.80407 0.0
C1619 C 0.84854 0.40361 0.81141 0.0
C1620 C 0.82606 0.39411 0.81776 0.0
C1621 C 0.8164 0.36868 0.81613 0.0
C1622 C 0.8293 0.35325 0.80821 0.0
C1623 C 0.85224 0.36354 0.80242 0.0
H1624 H 0.08331 0.89459 0.12203 0.0
H1625 H 0.13137 0.88389 0.0743 0.0
H1626 H 0.12946 0.92127 0.05758 0.0
H1627 H 0.04691 0.91459 0.08297 0.0
H1628 H 0.04097 0.93629 0.1032 0.0
H1629 H 0.0472 0.90954 0.11216 0.0
H1630 H 0.08092 0.93703 0.14016 0.0
H1631 H 0.07486 0.96388 0.13118 0.0
H1632 H 0.10372 0.96075 0.13006 0.0
H1633 H 0.12144 0.95911 0.04533 0.0
H1634 H 0.10628 0.99348 0.03719 0.0
H1635 H 0.06298 0.97956 0.09238 0.0
C1636 C 0.09355 0.90021 0.10815 0.0
C1637 C 0.10761 0.88637 0.09952 0.0
C1638 C 0.12046 0.89414 0.08114 0.0
C1639 C 0.11956 0.91542 0.0716 0.0
C1640 C 0.10551 0.92861 0.08047 0.0
C1641 C 0.09257 0.92121 0.09821 0.0
C1642 C 0.07787 0.93793 0.10379 0.0
C1643 C 0.05169 0.92374 0.10032 0.0
C1644 C 0.08476 0.95065 0.12772 0.0
C1645 C 0.08468 0.95601 0.08653 0.0
C1646 C 0.10072 0.95032 0.0733 0.0
C1647 C 0.109 0.96379 0.05566 0.0
C1648 C 0.10039 0.98329 0.0512 0.0
C1649 C 0.08386 0.98926 0.06441 0.0
C1650 C 0.07604 0.97561 0.0824 0.0
H1651 H 0.96061 0.28083 0.85904 0.0
H1652 H 0.93479 0.25279 0.92039 0.0
H1653 H 0.89415 0.245 0.90363 0.0
H1654 H 0.91964 0.31192 0.84779 0.0
H1655 H 0.91719 0.30471 0.81787 0.0
H1656 H 0.94383 0.30655 0.83427 0.0
H1657 H 0.94102 0.26256 0.81809 0.0
H1658 H 0.91432 0.2606 0.80164 0.0
H1659 H 0.91494 0.23793 0.82052 0.0
H1660 H 0.85663 0.24411 0.88111 0.0
H1661 H 0.82544 0.24843 0.85452 0.0
H1662 H 0.87616 0.2751 0.80731 0.0
C1663 C 0.94647 0.27289 0.86901 0.0
C1664 C 0.9509 0.26756 0.89115 0.0
C1665 C 0.93182 0.25699 0.90343 0.0
C1666 C 0.90872 0.25252 0.89403 0.0
C1667 C 0.90507 0.25834 0.87223 0.0
C1668 C 0.92348 0.26806 0.85982 0.0
C1669 C 0.9151 0.27335 0.83701 0.0
C1670 C 0.92449 0.30076 0.83408 0.0
C1671 C 0.92174 0.25767 0.81821 0.0
C1672 C 0.88902 0.26554 0.83856 0.0
C1673 C 0.88356 0.25695 0.85901 0.0
C1674 C 0.86071 0.25035 0.86493 0.0
C1675 C 0.8431 0.25285 0.8497 0.0
C1676 C 0.84833 0.2616 0.82868 0.0
C1677 C 0.87156 0.26766 0.82295 0.0
H1678 H 0.57817 0.21421 0.61882 0.0
H1679 H 0.62694 0.25648 0.57646 0.0
H1680 H 0.62616 0.21814 0.55383 0.0
H1681 H 0.60025 0.16485 0.6207 0.0
H1682 H 0.5723 0.14184 0.61942 0.0
H1683 H 0.57559 0.17252 0.63114 0.0
H1684 H 0.54203 0.1751 0.60299 0.0
H1685 H 0.53842 0.14419 0.59159 0.0
H1686 H 0.54344 0.16834 0.57344 0.0
H1687 H 0.62297 0.17401 0.53868 0.0
H1688 H 0.61348 0.12918 0.52918 0.0
H1689 H 0.56502 0.11713 0.58042 0.0
C1690 C 0.58836 0.21541 0.60451 0.0
C1691 C 0.60264 0.2382 0.59931 0.0
C1692 C 0.61573 0.23915 0.58052 0.0
C1693 C 0.61549 0.21748 0.56771 0.0
C1694 C 0.60165 0.19517 0.57369 0.0
C1695 C 0.58788 0.19413 0.59135 0.0
C1696 C 0.57451 0.16807 0.59451 0.0
C1697 C 0.58107 0.16144 0.61782 0.0
C1698 C 0.54804 0.16368 0.59038 0.0
C1699 C 0.58333 0.15445 0.57628 0.0
C1700 C 0.59909 0.17026 0.56449 0.0
C1701 C 0.61036 0.16155 0.54759 0.0
C1702 C 0.60502 0.13609 0.54242 0.0
C1703 C 0.58835 0.11976 0.55392 0.0
C1704 C 0.57753 0.12919 0.57108 0.0
H1705 H 0.57392 0.78224 0.38159 0.0
H1706 H 0.60625 0.76772 0.44342 0.0
H1707 H 0.64196 0.76874 0.42474 0.0
H1708 H 0.59734 0.74678 0.34385 0.0
H1709 H 0.60194 0.76824 0.32308 0.0
H1710 H 0.57896 0.76635 0.34126 0.0
H1711 H 0.59609 0.81268 0.35414 0.0
H1712 H 0.61901 0.81471 0.33587 0.0
H1713 H 0.62622 0.82474 0.36528 0.0
H1714 H 0.67301 0.76901 0.39865 0.0
H1715 H 0.69867 0.77194 0.3681 0.0
H1716 H 0.64704 0.79002 0.32442 0.0
C1717 C 0.58852 0.77928 0.3912 0.0
C1718 C 0.58739 0.77473 0.41388 0.0
C1719 C 0.60688 0.77124 0.42601 0.0
C1720 C 0.62715 0.77172 0.41554 0.0
C1721 C 0.62763 0.77603 0.39308 0.0
C1722 C 0.60896 0.78009 0.38114 0.0
C1723 C 0.61412 0.78492 0.35737 0.0
C1724 C 0.59708 0.76541 0.3404 0.0
C1725 C 0.61385 0.8108 0.35291 0.0
C1726 C 0.63852 0.78263 0.35772 0.0
C1727 C 0.64593 0.77733 0.37839 0.0
C1728 C 0.66756 0.77356 0.38248 0.0
C1729 C 0.6821 0.77548 0.36501 0.0
C1730 C 0.67513 0.78153 0.34377 0.0
C1731 C 0.65296 0.78511 0.34025 0.0
H1732 H 0.06566 0.22189 0.4697 0.0
H1733 H 0.05193 0.18916 0.4009 0.0
H1734 H 0.0496 0.14899 0.41383 0.0
H1735 H 0.10063 0.18373 0.48995 0.0
H1736 H 0.08875 0.18061 0.51668 0.0
H1737 H 0.08982 0.2073 0.50245 0.0
H1738 H 0.04542 0.1989 0.50435 0.0
H1739 H 0.04428 0.1722 0.51859 0.0
H1740 H 0.02579 0.16956 0.49316 0.0
H1741 H 0.04992 0.11098 0.4341 0.0
H1742 H 0.05048 0.07943 0.45946 0.0
H1743 H 0.06156 0.13364 0.51658 0.0
C1744 C 0.06214 0.20632 0.45728 0.0
C1745 C 0.05907 0.20955 0.43384 0.0
C1746 C 0.05439 0.18802 0.41872 0.0
C1747 C 0.05306 0.16478 0.42601 0.0
C1748 C 0.05615 0.16227 0.44889 0.0
C1749 C 0.06039 0.18246 0.46441 0.0
C1750 C 0.0625 0.17421 0.48812 0.0
C1751 C 0.08687 0.18725 0.50001 0.0
C1752 C 0.04336 0.17902 0.50187 0.0
C1753 C 0.05886 0.14647 0.4835 0.0
C1754 C 0.05545 0.14016 0.46062 0.0
C1755 C 0.05241 0.11595 0.45201 0.0
C1756 C 0.05277 0.09789 0.46675 0.0
C1757 C 0.0558 0.10322 0.49045 0.0
C1758 C 0.05885 0.12827 0.49873 0.0
H1759 H 0.62456 0.28331 0.22509 0.0
H1760 H 0.64807 0.34764 0.18966 0.0
H1761 H 0.68876 0.35229 0.20347 0.0
H1762 H 0.66861 0.30467 0.27416 0.0
H1763 H 0.67305 0.27531 0.27668 0.0
H1764 H 0.64533 0.27708 0.26491 0.0
H1765 H 0.64852 0.25064 0.22929 0.0
H1766 H 0.67626 0.24883 0.24094 0.0
H1767 H 0.67396 0.26011 0.21404 0.0
H1768 H 0.72843 0.35076 0.2214 0.0
H1769 H 0.76241 0.34245 0.24009 0.0
H1770 H 0.71651 0.27792 0.2641 0.0
C1771 C 0.63819 0.29858 0.22038 0.0
C1772 C 0.63216 0.31532 0.2061 0.0
C1773 C 0.65131 0.33453 0.20042 0.0
C1774 C 0.67485 0.33736 0.2083 0.0
C1775 C 0.6801 0.32073 0.22204 0.0
C1776 C 0.6623 0.30155 0.22801 0.0
C1777 C 0.67327 0.28592 0.24252 0.0
C1778 C 0.66453 0.28573 0.26596 0.0
C1779 C 0.66766 0.25982 0.23102 0.0
C1780 C 0.69981 0.29927 0.2438 0.0
C1781 C 0.70313 0.31942 0.23187 0.0
C1782 C 0.72576 0.33491 0.23063 0.0
C1783 C 0.74529 0.32993 0.24152 0.0
C1784 C 0.74311 0.30937 0.25392 0.0
C1785 C 0.71953 0.29381 0.25489 0.0
H1786 H 0.56093 0.89263 0.91604 0.0
H1787 H 0.55856 0.84485 0.96866 0.0
H1788 H 0.55457 0.87772 0.99604 0.0
H1789 H 0.59384 0.9496 0.94889 0.0
H1790 H 0.57787 0.96766 0.93571 0.0
H1791 H 0.58084 0.94064 0.9205 0.0
H1792 H 0.53598 0.92353 0.91299 0.0
H1793 H 0.5329 0.95049 0.92821 0.0
H1794 H 0.51819 0.92069 0.93622 0.0
H1795 H 0.55132 0.91736 0.01842 0.0
H1796 H 0.54827 0.95742 0.03294 0.0
H1797 H 0.55147 0.98037 0.96595 0.0
C1798 C 0.55966 0.88891 0.93334 0.0
C1799 C 0.56026 0.86554 0.93985 0.0
C1800 C 0.55829 0.86211 0.96284 0.0
C1801 C 0.55599 0.8809 0.97862 0.0
C1802 C 0.55548 0.90351 0.97156 0.0
C1803 C 0.55719 0.9075 0.94933 0.0
C1804 C 0.55585 0.93332 0.94592 0.0
C1805 C 0.57844 0.94871 0.93724 0.0
C1806 C 0.53446 0.93192 0.92988 0.0
C1807 C 0.5532 0.94344 0.96966 0.0
C1808 C 0.55313 0.92588 0.98418 0.0
C1809 C 0.55129 0.93097 0.007 0.0
C1810 C 0.54956 0.95412 0.01518 0.0
C1811 C 0.54944 0.97276 1.00094 0.0
C1812 C 0.55125 0.96692 0.97761 0.0
H1813 H 0.96399 0.76681 0.72227 0.0
H1814 H 0.98565 0.83851 0.69854 0.0
H1815 H 0.95068 0.84692 0.71269 0.0
H1816 H 0.90076 0.75547 0.70763 0.0
H1817 H 0.89188 0.7394 0.73165 0.0
H1818 H 0.91872 0.73894 0.72015 0.0
H1819 H 0.94138 0.75553 0.75883 0.0
H1820 H 0.91459 0.75607 0.77038 0.0
H1821 H 0.93903 0.78349 0.77279 0.0
H1822 H 0.91256 0.84849 0.73157 0.0
H1823 H 0.8758 0.84217 0.74939 0.0
H1824 H 0.87513 0.76823 0.75955 0.0
C1825 C 0.96149 0.78436 0.71993 0.0
C1826 C 0.97855 0.802 0.70897 0.0
C1827 C 0.97363 0.82446 0.70656 0.0
C1828 C 0.95351 0.82946 0.71474 0.0
C1829 C 0.93736 0.81185 0.7254 0.0
C1830 C 0.941 0.78952 0.72775 0.0
C1831 C 0.92044 0.77349 0.73931 0.0
C1832 C 0.90717 0.75045 0.72376 0.0
C1833 C 0.9294 0.76673 0.76165 0.0
C1834 C 0.90477 0.79018 0.74332 0.0
C1835 C 0.91512 0.81235 0.73529 0.0
C1836 C 0.90453 0.83103 0.73762 0.0
C1837 C 0.88328 0.8272 0.74803 0.0
C1838 C 0.87153 0.80464 0.75627 0.0
C1839 C 0.8829 0.7858 0.75359 0.0
H1840 H 0.0959 0.01711 0.87902 0.0
H1841 H 0.16836 0.02241 0.89675 0.0
H1842 H 0.16008 0.01778 0.93605 0.0
H1843 H 0.09002 0.05361 0.92169 0.0
H1844 H 0.06051 0.03742 0.92664 0.0
H1845 H 0.0702 0.03432 0.8993 0.0
H1846 H 0.05888 0.98727 0.89956 0.0
H1847 H 0.04857 0.9901 0.92682 0.0
H1848 H 0.07005 0.97436 0.92254 0.0
H1849 H 0.14629 0.0226 0.97388 0.0
H1850 H 0.12689 0.03227 0.00686 0.0
H1851 H 0.06357 0.02334 0.96384 0.0
C1852 C 0.10979 0.01629 0.89101 0.0
C1853 C 0.1327 0.02016 0.88498 0.0
C1854 C 0.15058 0.01926 0.90107 0.0
C1855 C 0.14606 0.01665 0.92343 0.0
C1856 C 0.12351 0.01443 0.92914 0.0
C1857 C 0.10553 0.01362 0.91326 0.0
C1858 C 0.08367 0.01428 0.92389 0.0
C1859 C 0.07567 0.03621 0.9175 0.0
C1860 C 0.06414 0.99005 0.91785 0.0
C1861 C 0.09262 0.01732 0.94824 0.0
C1862 C 0.11549 0.01695 0.95103 0.0
C1863 C 0.12817 0.0222 0.97198 0.0
C1864 C 0.11712 0.02793 0.99054 0.0
C1865 C 0.09376 0.02851 0.98784 0.0
C1866 C 0.08137 0.02275 0.96648 0.0
H1867 H 0.8051 0.39707 0.58392 0.0
H1868 H 0.78051 0.33709 0.53132 0.0
H1869 H 0.78437 0.30805 0.55867 0.0
H1870 H 0.84753 0.37606 0.61212 0.0
H1871 H 0.8419 0.38635 0.63966 0.0
H1872 H 0.8366 0.40197 0.61604 0.0
H1873 H 0.79369 0.3951 0.62521 0.0
H1874 H 0.79895 0.37962 0.64896 0.0
H1875 H 0.77547 0.36455 0.62781 0.0
H1876 H 0.79314 0.28614 0.59205 0.0
H1877 H 0.80286 0.2731 0.6289 0.0
H1878 H 0.82051 0.34807 0.65854 0.0
C1879 C 0.80043 0.37782 0.57811 0.0
C1880 C 0.79264 0.36925 0.55555 0.0
C1881 C 0.78648 0.34393 0.54862 0.0
C1882 C 0.7887 0.32738 0.56398 0.0
C1883 C 0.7968 0.33655 0.58612 0.0
C1884 C 0.80226 0.36118 0.59316 0.0
C1885 C 0.81039 0.36661 0.61777 0.0
C1886 C 0.8356 0.38375 0.62161 0.0
C1887 C 0.79362 0.37708 0.63069 0.0
C1888 C 0.80898 0.34123 0.62352 0.0
C1889 C 0.80121 0.32406 0.60514 0.0
C1890 C 0.79906 0.29942 0.60657 0.0
C1891 C 0.80471 0.2922 0.62745 0.0
C1892 C 0.81218 0.30959 0.64645 0.0
C1893 C 0.81448 0.33436 0.64431 0.0
H1894 H 0.52415 0.08798 0.38137 0.0
H1895 H 0.45014 0.05472 0.38516 0.0
H1896 H 0.45691 0.05697 0.42642 0.0
H1897 H 0.54223 0.05469 0.41529 0.0
H1898 H 0.56779 0.07753 0.42889 0.0
H1899 H 0.55673 0.08085 0.40134 0.0
H1900 H 0.55308 0.12336 0.41487 0.0
H1901 H 0.5647 0.12046 0.44254 0.0
H1902 H 0.53706 0.12655 0.43866 0.0
H1903 H 0.47285 0.05313 0.46472 0.0
H1904 H 0.49606 0.04572 0.49718 0.0
H1905 H 0.55984 0.08119 0.46784 0.0
C1906 C 0.50927 0.08222 0.39105 0.0
C1907 C 0.48668 0.07124 0.38038 0.0
C1908 C 0.46753 0.06351 0.39325 0.0
C1909 C 0.47126 0.06472 0.41663 0.0
C1910 C 0.49411 0.07418 0.42661 0.0
C1911 C 0.51275 0.08333 0.41421 0.0
C1912 C 0.5359 0.08883 0.42802 0.0
C1913 C 0.55154 0.07461 0.41778 0.0
C1914 C 0.54842 0.11644 0.43121 0.0
C1915 C 0.52749 0.07957 0.44966 0.0
C1916 C 0.50337 0.07178 0.44878 0.0
C1917 C 0.49172 0.05981 0.46585 0.0
C1918 C 0.50506 0.05548 0.4841 0.0
C1919 C 0.52975 0.06284 0.48493 0.0
C1920 C 0.54101 0.07558 0.46777 0.0
H1921 H 0.82794 0.71673 0.11674 0.0
H1922 H 0.78771 0.75857 0.08537 0.0
H1923 H 0.78318 0.77705 0.12285 0.0
H1924 H 0.79675 0.70333 0.1633 0.0
H1925 H 0.82159 0.70716 0.18317 0.0
H1926 H 0.82313 0.69854 0.15403 0.0
H1927 H 0.85972 0.73582 0.15307 0.0
H1928 H 0.85851 0.74434 0.18234 0.0
H1929 H 0.85852 0.76598 0.16224 0.0
H1930 H 0.77851 0.78631 0.16428 0.0
H1931 H 0.77964 0.79126 0.20561 0.0
H1932 H 0.82649 0.74691 0.21032 0.0
C1933 C 0.81873 0.73032 0.11775 0.0
C1934 C 0.80834 0.73641 0.09806 0.0
C1935 C 0.79616 0.75398 0.10011 0.0
C1936 C 0.79333 0.76438 0.12138 0.0
C1937 C 0.80327 0.75747 0.14049 0.0
C1938 C 0.81634 0.74138 0.13881 0.0
C1939 C 0.82529 0.73704 0.1619 0.0
C1940 C 0.81614 0.7099 0.16582 0.0
C1941 C 0.8521 0.74635 0.16507 0.0
C1942 C 0.81466 0.75257 0.17692 0.0
C1943 C 0.80177 0.76398 0.16422 0.0
C1944 C 0.78893 0.77783 0.1743 0.0
C1945 C 0.78952 0.78038 0.19781 0.0
C1946 C 0.8032 0.76956 0.21121 0.0
C1947 C 0.81606 0.7556 0.20054 0.0
H1948 H 0.11724 0.02776 0.75894 0.0
H1949 H 0.17623 0.09376 0.765 0.0
H1950 H 0.15582 0.11102 0.73696 0.0
H1951 H 0.10605 0.02517 0.69944 0.0
H1952 H 0.0748 0.01361 0.69955 0.0
H1953 H 0.09346 1.00703 0.72118 0.0
H1954 H 0.07264 0.02547 0.75122 0.0
H1955 H 0.05419 0.0325 0.7296 0.0
H1956 H 0.07151 0.05635 0.7503 0.0
H1957 H 0.12997 0.12102 0.70851 0.0
H1958 H 0.10258 0.12098 0.67653 0.0
H1959 H 0.06009 0.04831 0.68783 0.0
C1960 C 0.12581 0.04581 0.75428 0.0
C1961 C 0.14824 0.05946 0.76406 0.0
C1962 C 0.1591 0.08293 0.75753 0.0
C1963 C 0.14756 0.09302 0.74184 0.0
C1964 C 0.12531 0.07928 0.73275 0.0
C1965 C 0.11468 0.05603 0.73834 0.0
C1966 C 0.09142 0.04455 0.72474 0.0
C1967 C 0.09145 0.02121 0.71038 0.0
C1968 C 0.07125 0.03942 0.73988 0.0
C1969 C 0.09087 0.06491 0.71045 0.0
C1970 C 0.11039 0.08492 0.71574 0.0
C1971 C 0.11446 0.1056 0.7043 0.0
C1972 C 0.09861 0.10548 0.68629 0.0
C1973 C 0.07901 0.08473 0.67983 0.0
C1974 C 0.07481 0.06447 0.69249 0.0
H1975 H 0.77708 0.3767 0.43942 0.0
H1976 H 0.78561 0.448 0.41585 0.0
H1977 H 0.78694 0.43064 0.37742 0.0
H1978 H 0.81642 0.36067 0.40742 0.0
H1979 H 0.80026 0.32878 0.40147 0.0
H1980 H 0.79637 0.34568 0.42658 0.0
H1981 H 0.75182 0.33379 0.41541 0.0
H1982 H 0.75551 0.3165 0.39036 0.0
H1983 H 0.74145 0.34004 0.38841 0.0
H1984 H 0.79344 0.40732 0.343 0.0
H1985 H 0.80089 0.37833 0.31404 0.0
H1986 H 0.78685 0.32206 0.35974 0.0
C1987 C 0.77856 0.38854 0.42611 0.0
C1988 C 0.78125 0.41371 0.43067 0.0
C1989 C 0.78345 0.42864 0.41278 0.0
C1990 C 0.78423 0.41896 0.39087 0.0
C1991 C 0.78246 0.39429 0.38711 0.0
C1992 C 0.77926 0.37917 0.40414 0.0
C1993 C 0.77947 0.35372 0.39594 0.0
C1994 C 0.79931 0.34683 0.4086 0.0
C1995 C 0.75564 0.3349 0.39763 0.0
C1996 C 0.78405 0.35715 0.37183 0.0
C1997 C 0.78567 0.38065 0.36704 0.0
C1998 C 0.79172 0.38871 0.34638 0.0
C1999 C 0.7961 0.37221 0.33013 0.0
C2000 C 0.79424 0.34799 0.33468 0.0
C2001 C 0.78796 0.34037 0.35572 0.0
H2002 H 0.49199 0.08999 0.23375 0.0
H2003 H 0.53672 0.07674 0.28755 0.0
H2004 H 0.56938 0.08455 0.26373 0.0
H2005 H 0.50744 0.05978 0.19243 0.0
H2006 H 0.50731 0.0803 0.17128 0.0
H2007 H 0.48991 0.08036 0.19429 0.0
H2008 H 0.51046 0.12683 0.20397 0.0
H2009 H 0.52825 0.12666 0.18096 0.0
H2010 H 0.54184 0.13795 0.20885 0.0
H2011 H 0.59177 0.0806 0.23193 0.0
H2012 H 0.6025 0.06766 0.19503 0.0
H2013 H 0.5464 0.08893 0.1624 0.0
C2014 C 0.50894 0.0896 0.24064 0.0
C2015 C 0.51195 0.08266 0.26225 0.0
C2016 C 0.53417 0.08212 0.27094 0.0
C2017 C 0.55287 0.08673 0.25762 0.0
C2018 C 0.5492 0.09266 0.23597 0.0
C2019 C 0.52792 0.09476 0.2277 0.0
C2020 C 0.5275 0.09804 0.20304 0.0
C2021 C 0.50685 0.07844 0.18949 0.0
C2022 C 0.52699 0.12392 0.19897 0.0
C2023 C 0.55077 0.09464 0.19824 0.0
C2024 C 0.56336 0.09221 0.21755 0.0
C2025 C 0.58281 0.08368 0.21678 0.0
C2026 C 0.58883 0.07637 0.19584 0.0
C2027 C 0.57562 0.07808 0.17614 0.0
C2028 C 0.55733 0.08861 0.17734 0.0
H2029 H 0.79904 0.71286 0.93242 0.0
H2030 H 0.83844 0.78135 0.97049 0.0
H2031 H 0.84471 0.80089 0.93531 0.0
H2032 H 0.83285 0.71878 0.88395 0.0
H2033 H 0.80782 0.70603 0.86386 0.0
H2034 H 0.80718 0.69681 0.89182 0.0
H2035 H 0.76974 0.70946 0.89676 0.0
H2036 H 0.77022 0.71855 0.86878 0.0
H2037 H 0.76975 0.74003 0.89208 0.0
H2038 H 0.84753 0.81301 0.89588 0.0
H2039 H 0.84336 0.81815 0.85574 0.0
H2040 H 0.79988 0.74274 0.84238 0.0
C2041 C 0.8091 0.73195 0.93334 0.0
C2042 C 0.81843 0.74551 0.9544 0.0
C2043 C 0.83115 0.77053 0.95474 0.0
C2044 C 0.83488 0.78178 0.93477 0.0
C2045 C 0.82554 0.76795 0.91437 0.0
C2046 C 0.81264 0.74364 0.91349 0.0
C2047 C 0.80357 0.73334 0.88935 0.0
C2048 C 0.81344 0.7125 0.88181 0.0
C2049 C 0.77672 0.72484 0.88659 0.0
C2050 C 0.81338 0.75563 0.87685 0.0
C2051 C 0.82628 0.77526 0.89164 0.0
C2052 C 0.83738 0.79776 0.88421 0.0
C2053 C 0.83498 0.80045 0.86122 0.0
C2054 C 0.8213 0.78091 0.84562 0.0
C2055 C 0.81048 0.7581 0.85371 0.0
H2056 H 0.84712 0.05673 0.07968 0.0
H2057 H 0.8707 0.12425 0.04847 0.0
H2058 H 0.89523 0.10616 0.02551 0.0
H2059 H 0.90057 0.04403 0.08294 0.0
H2060 H 0.88839 0.01137 0.07673 0.0
H2061 H 0.87174 0.0288 0.09024 0.0
H2062 H 0.83779 0.01289 0.05922 0.0
H2063 H 0.85353 0.99458 0.04542 0.0
H2064 H 0.84342 0.01597 0.03036 0.0
H2065 H 0.91731 0.08086 0.00657 0.0
H2066 H 0.9383 0.05153 0.99545 0.0
H2067 H 0.89825 1.0002 0.03792 0.0
C2068 C 0.85759 0.06788 0.0682 0.0
C2069 C 0.85714 0.0919 0.06591 0.0
C2070 C 0.87093 0.10579 0.05053 0.0
C2071 C 0.88472 0.09563 0.03731 0.0
C2072 C 0.8842 0.0716 0.03959 0.0
C2073 C 0.87109 0.05798 0.05472 0.0
C2074 C 0.87396 0.03282 0.05444 0.0
C2075 C 0.88429 0.029 0.07744 0.0
C2076 C 0.85079 0.01289 0.04691 0.0
C2077 C 0.89109 0.03451 0.03699 0.0
C2078 C 0.89661 0.05691 0.02845 0.0
C2079 C 0.91293 0.06312 0.01288 0.0
C2080 C 0.92452 0.04622 0.00647 0.0
C2081 C 0.91964 0.02351 0.01567 0.0
C2082 C 0.9022 0.01737 0.03056 0.0
H2083 H 0.38606 0.46288 0.05966 0.0
H2084 H 0.39254 0.39453 0.02959 0.0
H2085 H 0.43388 0.41517 0.02411 0.0
H2086 H 0.41891 0.50127 0.02508 0.0
H2087 H 0.43323 0.526 0.04624 0.0
H2088 H 0.405 0.50562 0.05008 0.0
H2089 H 0.42112 0.49527 0.08783 0.0
H2090 H 0.4493 0.51615 0.08441 0.0
H2091 H 0.44663 0.48486 0.0888 0.0
H2092 H 0.47195 0.44475 0.01633 0.0
H2093 H 0.50729 0.47948 0.01384 0.0
H2094 H 0.47735 0.5277 0.05232 0.0
C2095 C 0.39649 0.45215 0.05264 0.0
C2096 C 0.38638 0.42715 0.04519 0.0
C2097 C 0.40023 0.41361 0.03575 0.0
C2098 C 0.42359 0.42524 0.03239 0.0
C2099 C 0.43282 0.45019 0.03912 0.0
C2100 C 0.41994 0.46331 0.04974 0.0
C2101 C 0.43387 0.48998 0.05511 0.0
C2102 C 0.42204 0.50669 0.04343 0.0
C2103 C 0.43798 0.49697 0.08055 0.0
C2104 C 0.45633 0.49 0.04516 0.0
C2105 C 0.45525 0.46693 0.03575 0.0
C2106 C 0.47318 0.46277 0.02404 0.0
C2107 C 0.49299 0.48259 0.02245 0.0
C2108 C 0.49474 0.50607 0.03277 0.0
C2109 C 0.47626 0.50983 0.0443 0.0
H2110 H 0.39093 0.60542 0.76144 0.0
H2111 H 0.33724 0.53894 0.73413 0.0
H2112 H 0.307 0.5559 0.7482 0.0
H2113 H 0.36289 0.61769 0.81168 0.0
H2114 H 0.37223 0.65021 0.80995 0.0
H2115 H 0.38979 0.63178 0.79985 0.0
H2116 H 0.38835 0.64829 0.76096 0.0
H2117 H 0.37096 0.66679 0.77105 0.0
H2118 H 0.36042 0.64551 0.74638 0.0
H2119 H 0.28262 0.58153 0.762 0.0
H2120 H 0.26605 0.61485 0.77329 0.0
H2121 H 0.33597 0.6634 0.7925 0.0
C2122 C 0.37285 0.59427 0.75871 0.0
C2123 C 0.36637 0.57092 0.74679 0.0
C2124 C 0.34253 0.55694 0.74329 0.0
C2125 C 0.32526 0.56632 0.75131 0.0
C2126 C 0.33224 0.58953 0.76289 0.0
C2127 C 0.35547 0.60331 0.76659 0.0
C2128 C 0.3583 0.62844 0.77791 0.0
C2129 C 0.37159 0.63224 0.80123 0.0
C2130 C 0.3702 0.64842 0.76319 0.0
C2131 C 0.33301 0.62682 0.77951 0.0
C2132 C 0.3182 0.6042 0.77099 0.0
C2133 C 0.294 0.59919 0.76911 0.0
C2134 C 0.28475 0.6181 0.77561 0.0
C2135 C 0.29982 0.64151 0.78367 0.0
C2136 C 0.32412 0.64561 0.7863 0.0
H2137 H 0.23759 0.64936 0.55854 0.0
H2138 H 0.26178 0.58569 0.56335 0.0
H2139 H 0.22106 0.55908 0.55873 0.0
H2140 H 0.18614 0.62831 0.58805 0.0
H2141 H 0.16852 0.64091 0.57006 0.0
H2142 H 0.19961 0.65509 0.57446 0.0
H2143 H 0.20237 0.65091 0.53156 0.0
H2144 H 0.1713 0.63655 0.52702 0.0
H2145 H 0.191 0.62124 0.51592 0.0
H2146 H 0.17856 0.53959 0.55389 0.0
H2147 H 0.13567 0.52774 0.54871 0.0
H2148 H 0.1387 0.60376 0.54546 0.0
C2149 C 0.23425 0.62985 0.55884 0.0
C2150 C 0.25267 0.6195 0.56139 0.0
C2151 C 0.24779 0.5939 0.5614 0.0
C2152 C 0.22479 0.57866 0.5588 0.0
C2153 C 0.20701 0.58938 0.55603 0.0
C2154 C 0.21138 0.61432 0.55598 0.0
C2155 C 0.18901 0.62098 0.55218 0.0
C2156 C 0.18562 0.63728 0.57239 0.0
C2157 C 0.18839 0.63314 0.53037 0.0
C2158 C 0.17142 0.59584 0.55023 0.0
C2159 C 0.18225 0.57794 0.55258 0.0
C2160 C 0.16981 0.55336 0.55194 0.0
C2161 C 0.1455 0.54685 0.54903 0.0
C2162 C 0.13403 0.56488 0.54664 0.0
C2163 C 0.14713 0.58964 0.54701 0.0
H2164 H 0.73724 0.0082 0.78617 0.0
H2165 H 0.67455 0.97125 0.81628 0.0
H2166 H 0.6979 0.95423 0.842 0.0
H2167 H 0.75802 0.96052 0.78216 0.0
H2168 H 0.78854 0.97742 0.78755 0.0
H2169 H 0.76838 0.99195 0.77627 0.0
H2170 H 0.78168 0.02616 0.80937 0.0
H2171 H 0.8018 0.0114 0.82088 0.0
H2172 H 0.78034 0.01816 0.83774 0.0
H2173 H 0.72582 0.93542 0.85902 0.0
H2174 H 0.75491 0.91315 0.86317 0.0
H2175 H 0.79887 0.96096 0.82067 0.0
C2176 C 0.72859 0.99726 0.79875 0.0
C2177 C 0.70423 0.99116 0.79946 0.0
C2178 C 0.69329 0.97619 0.8156 0.0
C2179 C 0.70644 0.96668 0.83042 0.0
C2180 C 0.73042 0.97242 0.82884 0.0
C2181 C 0.74139 0.98736 0.81335 0.0
C2182 C 0.76631 0.9871 0.81206 0.0
C2183 C 0.77053 0.97873 0.78812 0.0
C2184 C 0.78355 0.0122 0.82052 0.0
C2185 C 0.76716 0.96844 0.82814 0.0
C2186 C 0.74661 0.96087 0.83829 0.0
C2187 C 0.74221 0.94158 0.85164 0.0
C2188 C 0.75876 0.92898 0.85381 0.0
C2189 C 0.77914 0.93544 0.84229 0.0
C2190 C 0.78382 0.95612 0.83023 0.0
H2191 H 0.76542 0.93954 0.53522 0.0
H2192 H 0.7161 0.86669 0.52372 0.0
H2193 H 0.68439 0.88457 0.51431 0.0
H2194 H 0.72682 0.96922 0.56032 0.0
H2195 H 0.7381 0.99695 0.5473 0.0
H2196 H 0.75669 0.97836 0.55348 0.0
H2197 H 0.76545 0.97564 0.51186 0.0
H2198 H 0.74686 0.99418 0.50558 0.0
H2199 H 0.74155 0.96458 0.4903 0.0
H2200 H 0.65819 0.91057 0.50599 0.0
H2201 H 0.63944 0.94265 0.49982 0.0
H2202 H 0.70651 0.99813 0.51563 0.0
C2203 C 0.74794 0.9273 0.53085 0.0
C2204 C 0.74319 0.9017 0.53025 0.0
C2205 C 0.7201 0.88635 0.52431 0.0
C2206 C 0.702 0.89633 0.51893 0.0
C2207 C 0.70734 0.92165 0.51955 0.0
C2208 C 0.72975 0.93692 0.52537 0.0
C2209 C 0.73099 0.96347 0.52453 0.0
C2210 C 0.73859 0.97784 0.54779 0.0
C2211 C 0.74717 0.97514 0.50702 0.0
C2212 C 0.70575 0.96078 0.51731 0.0
C2213 C 0.69237 0.93654 0.51455 0.0
C2214 C 0.66852 0.92961 0.50802 0.0
C2215 C 0.65806 0.94796 0.50437 0.0
C2216 C 0.67148 0.97294 0.50717 0.0
C2217 C 0.69567 0.97926 0.5136 0.0
H2218 H 0.41919 0.43936 0.71693 0.0
H2219 H 0.36154 0.46783 0.7007 0.0
H2220 H 0.33409 0.43133 0.71297 0.0
H2221 H 0.38437 0.37159 0.70303 0.0
H2222 H 0.40016 0.36342 0.72612 0.0
H2223 H 0.41444 0.38875 0.71109 0.0
H2224 H 0.42529 0.41666 0.74857 0.0
H2225 H 0.41044 0.39173 0.76361 0.0
H2226 H 0.40243 0.4196 0.76554 0.0
H2227 H 0.31468 0.3977 0.73436 0.0
H2228 H 0.30281 0.36412 0.75827 0.0
H2229 H 0.37259 0.35645 0.76021 0.0
C2230 C 0.40066 0.43721 0.71484 0.0
C2231 C 0.39238 0.4562 0.70776 0.0
C2232 C 0.36813 0.45332 0.70598 0.0
C2233 C 0.35241 0.4327 0.71293 0.0
C2234 C 0.36126 0.41506 0.72133 0.0
C2235 C 0.3847 0.41668 0.72178 0.0
C2236 C 0.3899 0.39645 0.7338 0.0
C2237 C 0.39767 0.37901 0.71754 0.0
C2238 C 0.40809 0.40674 0.75407 0.0
C2239 C 0.36604 0.3842 0.7411 0.0
C2240 C 0.34977 0.39513 0.73359 0.0
C2241 C 0.32706 0.38851 0.73986 0.0
C2242 C 0.3206 0.36971 0.75372 0.0
C2243 C 0.33683 0.3578 0.76105 0.0
C2244 C 0.35981 0.36518 0.75467 0.0
H2245 H 0.17696 0.6269 0.25202 0.0
H2246 H 0.2234 0.58301 0.2637 0.0
H2247 H 0.25713 0.62034 0.26911 0.0
H2248 H 0.21534 0.67216 0.22263 0.0
H2249 H 0.20699 0.69727 0.23561 0.0
H2250 H 0.18652 0.66702 0.23185 0.0
H2251 H 0.18146 0.66921 0.27439 0.0
H2252 H 0.20186 0.69949 0.27826 0.0
H2253 H 0.20685 0.67593 0.29418 0.0
H2254 H 0.28581 0.66208 0.27214 0.0
H2255 H 0.30737 0.70613 0.27607 0.0
H2256 H 0.24207 0.72305 0.2649 0.0
C2257 C 0.19425 0.62519 0.25561 0.0
C2258 C 0.19764 0.60213 0.25732 0.0
C2259 C 0.22045 0.60056 0.26238 0.0
C2260 C 0.23971 0.62161 0.26537 0.0
C2261 C 0.23579 0.64408 0.26356 0.0
C2262 C 0.21364 0.64606 0.25909 0.0
C2263 C 0.21416 0.67251 0.25902 0.0
C2264 C 0.20522 0.67753 0.2359 0.0
C2265 C 0.20026 0.6797 0.27757 0.0
C2266 C 0.24008 0.68503 0.26404 0.0
C2267 C 0.25227 0.66828 0.26633 0.0
C2268 C 0.27648 0.67541 0.27051 0.0
C2269 C 0.28856 0.70042 0.27264 0.0
C2270 C 0.27633 0.71789 0.27089 0.0
C2271 C 0.25181 0.71005 0.2665 0.0
H2272 H 0.53397 0.70722 0.4982 0.0
H2273 H 0.49302 0.67738 0.4348 0.0
H2274 H 0.49673 0.63681 0.44064 0.0
H2275 H 0.57403 0.67337 0.49391 0.0
H2276 H 0.57591 0.66796 0.52297 0.0
H2277 H 0.56879 0.69464 0.51504 0.0
H2278 H 0.53079 0.68217 0.53502 0.0
H2279 H 0.53798 0.6556 0.54327 0.0
H2280 H 0.5103 0.65218 0.5279 0.0
H2281 H 0.50797 0.60066 0.45096 0.0
H2282 H 0.52258 0.56956 0.46728 0.0
H2283 H 0.55456 0.62098 0.52536 0.0
C2284 C 0.52533 0.69203 0.48582 0.0
C2285 C 0.51309 0.69558 0.46605 0.0
C2286 C 0.50238 0.67523 0.4501 0.0
C2287 C 0.50445 0.65205 0.45322 0.0
C2288 C 0.51713 0.64931 0.47249 0.0
C2289 C 0.52709 0.66857 0.48874 0.0
C2290 C 0.54017 0.66049 0.50767 0.0
C2291 C 0.56627 0.67498 0.51003 0.0
C2292 C 0.52915 0.66274 0.52978 0.0
C2293 C 0.53633 0.63388 0.49923 0.0
C2294 C 0.52305 0.62795 0.47886 0.0
C2295 C 0.518 0.60493 0.46713 0.0
C2296 C 0.52635 0.5873 0.47661 0.0
C2297 C 0.53932 0.59248 0.49784 0.0
C2298 C 0.54451 0.61626 0.50919 0.0
H2299 H 0.69352 0.32534 0.6613 0.0
H2300 H 0.64573 0.33793 0.70864 0.0
H2301 H 0.67253 0.33437 0.73982 0.0
H2302 H 0.70949 0.28027 0.68831 0.0
H2303 H 0.73989 0.28991 0.68317 0.0
H2304 H 0.71851 0.29641 0.66434 0.0
H2305 H 0.74157 0.34238 0.67019 0.0
H2306 H 0.76298 0.33622 0.68927 0.0
H2307 H 0.74818 0.35788 0.69812 0.0
H2308 H 0.70112 0.32497 0.76535 0.0
H2309 H 0.73168 0.31158 0.78475 0.0
H2310 H 0.76252 0.30527 0.7221 0.0
C2311 C 0.68909 0.32801 0.67827 0.0
C2312 C 0.6676 0.33209 0.68256 0.0
C2313 C 0.66211 0.33488 0.70496 0.0
C2314 C 0.67724 0.33293 0.72282 0.0
C2315 C 0.69793 0.32827 0.7181 0.0
C2316 C 0.70409 0.32602 0.69648 0.0
C2317 C 0.72685 0.31955 0.6963 0.0
C2318 C 0.72347 0.29508 0.6822 0.0
C2319 C 0.74603 0.34024 0.68797 0.0
C2320 C 0.73184 0.31758 0.72107 0.0
C2321 C 0.71496 0.32298 0.73324 0.0
C2322 C 0.71468 0.32106 0.75612 0.0
C2323 C 0.73205 0.31328 0.76696 0.0
C2324 C 0.74955 0.30752 0.75498 0.0
C2325 C 0.74961 0.31 0.73175 0.0
H2326 H 0.06251 0.37448 0.94982 0.0
H2327 H 1.01334 0.33392 0.99299 0.0
H2328 H 0.01539 0.37266 0.01526 0.0
H2329 H 0.09825 0.42024 0.99451 0.0
H2330 H 0.10358 0.44451 0.9765 0.0
H2331 H 0.09919 0.4135 0.96488 0.0
H2332 H 0.06555 0.41663 0.93724 0.0
H2333 H 0.0697 0.44753 0.94891 0.0
H2334 H 0.04144 0.42512 0.94803 0.0
H2335 H 0.02044 0.41641 0.03088 0.0
H2336 H 0.03054 0.46094 0.04066 0.0
H2337 H 0.07761 0.47284 0.98804 0.0
C2338 C 0.05238 0.37366 0.96414 0.0
C2339 C 0.0377 0.35106 0.96961 0.0
C2340 C 0.0248 0.3509 0.98852 0.0
C2341 C 0.02579 0.37286 1.00121 0.0
C2342 C 0.04004 0.39483 0.99503 0.0
C2343 C 0.05343 0.39534 0.97716 0.0
C2344 C 0.06722 0.42135 0.97388 0.0
C2345 C 0.09362 0.42511 0.97767 0.0
C2346 C 0.06057 0.42804 0.95064 0.0
C2347 C 0.05903 0.4355 0.99231 0.0
C2348 C 0.04337 0.41988 0.00433 0.0
C2349 C 0.03287 0.42875 0.02171 0.0
C2350 C 0.03866 0.45417 0.02707 0.0
C2351 C 0.05493 0.47059 0.01519 0.0
C2352 C 0.06521 0.46093 0.99758 0.0
H2353 H 0.04315 0.77729 0.19983 0.0
H2354 H 0.04183 0.82939 0.15165 0.0
H2355 H 1.00573 0.83452 0.16585 0.0
H2356 H 0.98027 0.74895 0.19689 0.0
H2357 H 0.98067 0.74518 0.22636 0.0
H2358 H 1.00569 0.74481 0.21157 0.0
H2359 H 0.03191 0.77974 0.24015 0.0
H2360 H 1.00693 0.78032 0.25488 0.0
H2361 H 0.02451 0.80781 0.24471 0.0
H2362 H 0.97095 0.83561 0.1869 0.0
H2363 H 0.93958 0.83151 0.21221 0.0
H2364 H 0.96344 0.77774 0.24555 0.0
C2365 C 0.0352 0.78962 0.19207 0.0
C2366 C 0.04535 0.80293 0.1746 0.0
C2367 C 0.03435 0.81891 0.16499 0.0
C2368 C 0.01386 0.82199 0.17296 0.0
C2369 C 1.00456 0.80884 0.19044 0.0
C2370 C 0.01479 0.79284 0.19974 0.0
C2371 C 1.00163 0.78121 0.21862 0.0
C2372 C 0.99146 0.75339 0.21302 0.0
C2373 C 0.01718 0.78767 0.2409 0.0
C2374 C 0.98258 0.79345 0.21872 0.0
C2375 C 0.9845 0.80929 0.20234 0.0
C2376 C 0.96914 0.82307 0.19964 0.0
C2377 C 0.95131 0.82052 0.21403 0.0
C2378 C 0.94898 0.80427 0.23089 0.0
C2379 C 0.96487 0.79056 0.23308 0.0
H2380 H 0.56501 0.40705 0.15187 0.0
H2381 H 0.55813 0.35286 0.0955 0.0
H2382 H 0.55865 0.38406 0.06963 0.0
H2383 H 0.52841 0.44028 0.12481 0.0
H2384 H 0.5461 0.47027 0.1366 0.0
H2385 H 0.54537 0.44401 0.15137 0.0
H2386 H 0.59023 0.455 0.15259 0.0
H2387 H 0.59104 0.48129 0.13782 0.0
H2388 H 0.6041 0.45884 0.12687 0.0
H2389 H 0.55959 0.42141 0.04848 0.0
H2390 H 0.56101 0.46066 0.03437 0.0
H2391 H 0.56756 0.49413 0.10261 0.0
C2392 C 0.56364 0.40164 0.13408 0.0
C2393 C 0.56152 0.37658 0.12624 0.0
C2394 C 0.55978 0.37124 0.10256 0.0
C2395 C 0.56006 0.38913 0.08748 0.0
C2396 C 0.56213 0.41324 0.09563 0.0
C2397 C 0.56392 0.41967 0.11844 0.0
C2398 C 0.5659 0.44722 0.12237 0.0
C2399 C 0.54522 0.45065 0.13452 0.0
C2400 C 0.5892 0.46143 0.13572 0.0
C2401 C 0.56498 0.45515 0.09837 0.0
C2402 C 0.56276 0.435 0.08333 0.0
C2403 C 0.56138 0.43717 0.06029 0.0
C2404 C 0.56223 0.45998 0.05232 0.0
C2405 C 0.56455 0.4815 0.06686 0.0
C2406 C 0.56594 0.47862 0.09055 0.0
H2407 H 0.99119 0.31482 0.33511 0.0
H2408 H 0.97265 0.26207 0.38357 0.0
H2409 H 0.93074 0.25756 0.37371 0.0
H2410 H 0.94633 0.34411 0.34488 0.0
H2411 H 0.94099 0.34861 0.31595 0.0
H2412 H 0.9693 0.34734 0.32647 0.0
H2413 H 0.96678 0.31243 0.2958 0.0
H2414 H 0.93849 0.31364 0.28515 0.0
H2415 H 0.94202 0.28528 0.2931 0.0
H2416 H 0.88894 0.25937 0.35816 0.0
H2417 H 0.85413 0.26646 0.33944 0.0
H2418 H 0.89863 0.31808 0.30025 0.0
C2419 C 0.97843 0.30212 0.34369 0.0
C2420 C 0.9861 0.28871 0.36035 0.0
C2421 C 0.96806 0.27258 0.37083 0.0
C2422 C 0.9439 0.26995 0.36526 0.0
C2423 C 0.93717 0.28347 0.34894 0.0
C2424 C 0.95408 0.29925 0.33825 0.0
C2425 C 0.94231 0.31182 0.32135 0.0
C2426 C 0.95021 0.33962 0.32753 0.0
C2427 C 0.94773 0.30542 0.29743 0.0
C2428 C 0.91612 0.30083 0.32406 0.0
C2429 C 0.91358 0.2845 0.34014 0.0
C2430 C 0.89112 0.27217 0.34563 0.0
C2431 C 0.87113 0.27642 0.33474 0.0
C2432 C 0.87275 0.29297 0.31804 0.0
C2433 C 0.89606 0.30528 0.31279 0.0
H2434 H 0.04834 0.72584 0.60225 0.0
H2435 H 0.05784 0.70846 0.67056 0.0
H2436 H 0.06162 0.66904 0.65669 0.0
H2437 H 0.0142 0.66286 0.57967 0.0
H2438 H 0.02713 0.6634 0.55344 0.0
H2439 H 0.0254 0.69141 0.56786 0.0
H2440 H 0.06997 0.71032 0.56758 0.0
H2441 H 0.07176 0.68235 0.55313 0.0
H2442 H 0.08931 0.69473 0.57916 0.0
H2443 H 0.06452 0.63052 0.63681 0.0
H2444 H 0.06595 0.59541 0.61181 0.0
H2445 H 0.05424 0.63279 0.55422 0.0
C2446 C 0.05134 0.71384 0.61431 0.0
C2447 C 0.05263 0.72122 0.63797 0.0
C2448 C 0.05648 0.70414 0.65259 0.0
C2449 C 0.05877 0.68129 0.64482 0.0
C2450 C 0.0572 0.67456 0.6219 0.0
C2451 C 0.05354 0.69015 0.60666 0.0
C2452 C 0.05233 0.67729 0.58282 0.0
C2453 C 0.02833 0.67353 0.57019 0.0
C2454 C 0.07201 0.69206 0.5699 0.0
C2455 C 0.05589 0.65241 0.58727 0.0
C2456 C 0.05871 0.6516 0.61011 0.0
C2457 C 0.06233 0.63108 0.61889 0.0
C2458 C 0.06316 0.61094 0.6043 0.0
C2459 C 0.06031 0.61052 0.5806 0.0
C2460 C 0.05652 0.63195 0.57209 0.0
H2461 H 0.65138 0.82036 0.86981 0.0
H2462 H 0.60844 0.75009 0.83752 0.0
H2463 H 0.64138 0.74636 0.81674 0.0
H2464 H 0.68471 0.84046 0.82133 0.0
H2465 H 0.71229 0.85449 0.83762 0.0
H2466 H 0.68537 0.85266 0.84997 0.0
H2467 H 0.69799 0.83053 0.88192 0.0
H2468 H 0.72493 0.83236 0.86962 0.0
H2469 H 0.70602 0.80315 0.87523 0.0
H2470 H 0.67962 0.74972 0.79787 0.0
H2471 H 0.71887 0.75881 0.78471 0.0
H2472 H 0.74099 0.82625 0.82892 0.0
C2473 C 0.64876 0.80417 0.85832 0.0
C2474 C 0.62625 0.7855 0.8557 0.0
C2475 C 0.62469 0.76481 0.84034 0.0
C2476 C 0.64364 0.76249 0.82822 0.0
C2477 C 0.6652 0.78087 0.83117 0.0
C2478 C 0.66802 0.80135 0.84599 0.0
C2479 C 0.6936 0.81801 0.84615 0.0
C2480 C 0.69402 0.84289 0.83831 0.0
C2481 C 0.7064 0.82121 0.86964 0.0
C2482 C 0.70453 0.8038 0.8292 0.0
C2483 C 0.68754 0.78247 0.82072 0.0
C2484 C 0.69287 0.7664 0.80462 0.0
C2485 C 0.71563 0.77187 0.79707 0.0
C2486 C 0.73406 0.79336 0.80528 0.0
C2487 C 0.72794 0.80955 0.82188 0.0
H2488 H 0.48315 0.56446 0.6755 0.0
H2489 H 0.41632 0.562 0.64193 0.0
H2490 H 0.43337 0.56352 0.60563 0.0
H2491 H 0.521 0.60389 0.63764 0.0
H2492 H 0.54175 0.58683 0.63918 0.0
H2493 H 0.52543 0.59002 0.66273 0.0
H2494 H 0.5107 0.54286 0.66237 0.0
H2495 H 0.52669 0.53949 0.63872 0.0
H2496 H 0.4957 0.52455 0.63711 0.0
H2497 H 0.45584 0.55935 0.57318 0.0
H2498 H 0.48221 0.55062 0.54626 0.0
H2499 H 0.53428 0.55551 0.60134 0.0
C2500 C 0.47228 0.56501 0.6606 0.0
C2501 C 0.4485 0.56326 0.66143 0.0
C2502 C 0.43465 0.56347 0.64158 0.0
C2503 C 0.44418 0.5644 0.62094 0.0
C2504 C 0.46754 0.5653 0.62061 0.0
C2505 C 0.48146 0.56581 0.63994 0.0
C2506 C 0.50524 0.56412 0.63488 0.0
C2507 C 0.52449 0.58762 0.64415 0.0
C2508 C 0.50983 0.54141 0.64379 0.0
C2509 C 0.50219 0.56166 0.60964 0.0
C2510 C 0.48048 0.56271 0.60174 0.0
C2511 C 0.47301 0.55894 0.57904 0.0
C2512 C 0.48806 0.55384 0.56394 0.0
C2513 C 0.51027 0.55246 0.57176 0.0
C2514 C 0.51749 0.55675 0.59486 0.0
H2515 H 0.80128 0.20477 0.02288 0.0
H2516 H 0.80606 0.13473 0.9946 0.0
H2517 H 0.7967 0.14469 0.95687 0.0
H2518 H 0.75352 0.20665 0.98659 0.0
H2519 H 0.76418 0.23888 0.98367 0.0
H2520 H 0.77254 0.22719 0.00875 0.0
H2521 H 0.81627 0.24626 0.00314 0.0
H2522 H 0.80805 0.25836 0.97822 0.0
H2523 H 0.827 0.23924 0.97694 0.0
H2524 H 0.78355 0.15996 0.92299 0.0
H2525 H 0.77173 0.18225 0.89346 0.0
H2526 H 0.77782 0.24379 0.94266 0.0
C2527 C 0.80073 0.19174 0.00871 0.0
C2528 C 0.80436 0.16897 0.01169 0.0
C2529 C 0.80337 0.15231 0.99275 0.0
C2530 C 0.79799 0.15773 0.97123 0.0
C2531 C 0.7939 0.17998 0.96889 0.0
C2532 C 0.79559 0.19695 0.98697 0.0
C2533 C 0.79023 0.21947 0.97959 0.0
C2534 C 0.76885 0.22326 0.99029 0.0
C2535 C 0.81167 0.24218 0.98477 0.0
C2536 C 0.78493 0.21221 0.95461 0.0
C2537 C 0.78703 0.18929 0.94892 0.0
C2538 C 0.78226 0.17814 0.92709 0.0
C2539 C 0.77566 0.19101 0.91043 0.0
C2540 C 0.77421 0.21495 0.91563 0.0
C2541 C 0.77866 0.22551 0.93812 0.0
H2542 H 0.10217 0.50277 0.19597 0.0
H2543 H 0.16789 0.49025 0.18211 0.0
H2544 H 0.15779 0.49025 0.14161 0.0
H2545 H 0.06649 0.46822 0.14387 0.0
H2546 H 0.05121 0.49075 0.14182 0.0
H2547 H 0.0613 0.48446 0.1689 0.0
H2548 H 0.08383 0.5305 0.17837 0.0
H2549 H 0.07406 0.53683 0.15131 0.0
H2550 H 0.10485 0.54551 0.16002 0.0
H2551 H 0.14364 0.49801 0.10419 0.0
H2552 H 0.12654 0.51278 0.0721 0.0
H2553 H 0.07046 0.52127 0.11099 0.0
C2554 C 0.11415 0.49924 0.1844 0.0
C2555 C 0.13575 0.49638 0.19203 0.0
C2556 C 0.15118 0.4923 0.17647 0.0
C2557 C 0.14555 0.49219 0.15351 0.0
C2558 C 0.12443 0.49599 0.14662 0.0
C2559 C 0.1089 0.49928 0.16161 0.0
C2560 C 0.08888 0.50618 0.15041 0.0
C2561 C 0.06559 0.4862 0.1513 0.0
C2562 C 0.08788 0.53123 0.16063 0.0
C2563 C 0.0961 0.50728 0.1269 0.0
C2564 C 0.1164 0.50092 0.12497 0.0
C2565 C 0.12751 0.50257 0.10536 0.0
C2566 C 0.11773 0.51118 0.08729 0.0
C2567 C 0.09717 0.51821 0.08911 0.0
C2568 C 0.08603 0.51578 0.10903 0.0
H2569 H 0.82684 0.83884 0.45817 0.0
H2570 H 0.76546 0.86365 0.45144 0.0
H2571 H 0.76164 0.8529 0.41083 0.0
H2572 H 0.85079 0.86007 0.40903 0.0
H2573 H 0.86044 0.83423 0.4003 0.0
H2574 H 0.85785 0.84147 0.42951 0.0
H2575 H 0.83012 0.79793 0.43151 0.0
H2576 H 0.83295 0.79039 0.40237 0.0
H2577 H 0.80444 0.78648 0.41199 0.0
H2578 H 0.76753 0.84648 0.37135 0.0
H2579 H 0.77782 0.83648 0.33402 0.0
H2580 H 0.83288 0.81031 0.36311 0.0
C2581 C 0.81214 0.84109 0.44818 0.0
C2582 C 0.79627 0.85197 0.45818 0.0
C2583 C 0.7777 0.85526 0.44433 0.0
C2584 C 0.77545 0.84933 0.42115 0.0
C2585 C 0.79174 0.83971 0.41168 0.0
C2586 C 0.80937 0.83487 0.42461 0.0
C2587 C 0.82446 0.82455 0.40943 0.0
C2588 C 0.8499 0.84106 0.41225 0.0
C2589 C 0.8229 0.79827 0.4141 0.0
C2590 C 0.81284 0.82509 0.38615 0.0
C2591 C 0.79419 0.83425 0.38816 0.0
C2592 C 0.78163 0.83854 0.36953 0.0
C2593 C 0.78768 0.83268 0.34822 0.0
C2594 C 0.80573 0.82176 0.34518 0.0
C2595 C 0.81872 0.8182 0.36463 0.0
H2596 H 0.49939 0.52454 0.77988 0.0
H2597 H 0.43994 0.54903 0.79592 0.0
H2598 H 0.45049 0.54866 0.83606 0.0
H2599 H 0.49499 0.4837 0.82164 0.0
H2600 H 0.52605 0.49053 0.82806 0.0
H2601 H 0.51456 0.49372 0.80047 0.0
H2602 H 0.54051 0.53886 0.80364 0.0
H2603 H 0.55227 0.53576 0.83116 0.0
H2604 H 0.53892 0.55955 0.82716 0.0
H2605 H 0.46608 0.54379 0.87401 0.0
H2606 H 0.48709 0.5366 0.90803 0.0
H2607 H 0.53705 0.51636 0.86755 0.0
C2608 C 0.48871 0.53006 0.79182 0.0
C2609 C 0.46884 0.5368 0.78474 0.0
C2610 C 0.45527 0.5438 0.80092 0.0
C2611 C 0.46108 0.54363 0.82377 0.0
C2612 C 0.48055 0.53653 0.83013 0.0
C2613 C 0.49427 0.53005 0.8147 0.0
C2614 C 0.51409 0.52285 0.82603 0.0
C2615 C 0.5123 0.49611 0.81861 0.0
C2616 C 0.53786 0.5403 0.82174 0.0
C2617 C 0.50919 0.52608 0.85024 0.0
C2618 C 0.48975 0.53397 0.85218 0.0
C2619 C 0.4815 0.53788 0.87277 0.0
C2620 C 0.49361 0.53386 0.89198 0.0
C2621 C 0.51383 0.52615 0.89045 0.0
C2622 C 0.52158 0.5221 0.86925 0.0
H2623 H 0.82429 0.20586 0.13513 0.0
H2624 H 0.84047 0.14885 0.17007 0.0
H2625 H 0.84633 0.17473 0.20581 0.0
H2626 H 0.86383 0.25997 0.17358 0.0
H2627 H 0.84244 0.27621 0.17143 0.0
H2628 H 0.84505 0.25585 0.14808 0.0
H2629 H 0.80104 0.23243 0.14753 0.0
H2630 H 0.79835 0.25233 0.17105 0.0
H2631 H 0.78988 0.21977 0.1725 0.0
H2632 H 0.8429 0.20226 0.23764 0.0
H2633 H 0.83254 0.23133 0.2641 0.0
H2634 H 0.81827 0.27092 0.20902 0.0
C2635 C 0.8301 0.19934 0.15019 0.0
C2636 C 0.83216 0.17554 0.14994 0.0
C2637 C 0.83893 0.16713 0.17 0.0
C2638 C 0.84239 0.18172 0.19033 0.0
C2639 C 0.8391 0.20466 0.19023 0.0
C2640 C 0.83339 0.21362 0.17069 0.0
C2641 C 0.82778 0.2374 0.17557 0.0
C2642 C 0.84586 0.25862 0.16664 0.0
C2643 C 0.80278 0.23533 0.16611 0.0
C2644 C 0.83006 0.23966 0.20088 0.0
C2645 C 0.83697 0.22079 0.20895 0.0
C2646 C 0.83806 0.2175 0.23161 0.0
C2647 C 0.83192 0.23397 0.24646 0.0
C2648 C 0.82469 0.25338 0.23855 0.0
C2649 C 0.82409 0.25645 0.21552 0.0
H2650 H 0.08823 0.56364 0.3007 0.0
H2651 H 0.08487 0.48719 0.29521 0.0
H2652 H 0.05761 0.47992 0.32476 0.0
H2653 H 0.09451 0.57063 0.35731 0.0
H2654 H 0.07826 0.59226 0.36086 0.0
H2655 H 0.092 0.58983 0.33558 0.0
H2656 H 0.05204 0.58171 0.31247 0.0
H2657 H 0.03809 0.5837 0.33791 0.0
H2658 H 0.02747 0.55683 0.31814 0.0
H2659 H 0.03543 0.48192 0.35757 0.0
H2660 H 0.02629 0.49399 0.39525 0.0
H2661 H 0.04757 0.56996 0.38152 0.0
C2662 C 0.08108 0.54528 0.30533 0.0
C2663 C 0.08813 0.52586 0.29571 0.0
C2664 C 0.07937 0.50218 0.3025 0.0
C2665 C 0.06369 0.49786 0.31899 0.0
C2666 C 0.05726 0.5175 0.32855 0.0
C2667 C 0.06598 0.54084 0.3222 0.0
C2668 C 0.06021 0.55956 0.33793 0.0
C2669 C 0.08256 0.57919 0.34855 0.0
C2670 C 0.04345 0.57113 0.32589 0.0
C2671 C 0.04814 0.54332 0.35487 0.0
C2672 C 0.04565 0.519 0.34861 0.0
C2673 C 0.03702 0.50086 0.36256 0.0
C2674 C 0.03204 0.50792 0.38399 0.0
C2675 C 0.03647 0.53296 0.39144 0.0
C2676 C 0.04347 0.55065 0.37623 0.0
H2677 H 0.79596 0.81737 0.60739 0.0
H2678 H 0.80884 0.89578 0.61985 0.0
H2679 H 0.80574 0.89203 0.65991 0.0
H2680 H 0.75466 0.79972 0.64922 0.0
H2681 H 0.76568 0.77568 0.65814 0.0
H2682 H 0.76827 0.78385 0.6299 0.0
H2683 H 0.81294 0.79137 0.63525 0.0
H2684 H 0.81045 0.78306 0.66345 0.0
H2685 H 0.82986 0.81221 0.65836 0.0
H2686 H 0.80083 0.88066 0.69868 0.0
H2687 H 0.79765 0.86252 0.73446 0.0
H2688 H 0.78941 0.79129 0.69914 0.0
C2689 C 0.79812 0.83371 0.61856 0.0
C2690 C 0.80264 0.85692 0.61014 0.0
C2691 C 0.80547 0.87779 0.62556 0.0
C2692 C 0.80362 0.87587 0.6485 0.0
C2693 C 0.79911 0.85294 0.65624 0.0
C2694 C 0.79665 0.83219 0.64189 0.0
C2695 C 0.79277 0.80997 0.65515 0.0
C2696 C 0.76892 0.79119 0.64765 0.0
C2697 C 0.81269 0.79847 0.65292 0.0
C2698 C 0.79334 0.82157 0.679 0.0
C2699 C 0.79683 0.84637 0.67906 0.0
C2700 C 0.7981 0.86124 0.69885 0.0
C2701 C 0.79617 0.85068 0.71919 0.0
C2702 C 0.79313 0.82539 0.71992 0.0
C2703 C 0.79151 0.81065 0.69934 0.0
H2704 H 0.72136 0.45212 0.52213 0.0
H2705 H 0.78857 0.49415 0.55629 0.0
H2706 H 0.77072 0.52385 0.57325 0.0
H2707 H 0.70474 0.50213 0.50736 0.0
H2708 H 0.67424 0.48944 0.51117 0.0
H2709 H 0.69138 0.46948 0.5042 0.0
H2710 H 0.67974 0.44699 0.53945 0.0
H2711 H 0.66243 0.46688 0.5463 0.0
H2712 H 0.68479 0.46435 0.56654 0.0
H2713 H 0.74675 0.55058 0.58408 0.0
H2714 H 0.71795 0.57369 0.58651 0.0
H2715 H 0.66693 0.51483 0.54468 0.0
C2716 C 0.73214 0.46728 0.53358 0.0
C2717 C 0.75621 0.47085 0.53805 0.0
C2718 C 0.77001 0.49115 0.55269 0.0
C2719 C 0.76005 0.50802 0.56252 0.0
C2720 C 0.73632 0.50425 0.5575 0.0
C2721 C 0.72251 0.48443 0.54337 0.0
C2722 C 0.69799 0.48594 0.53906 0.0
C2723 C 0.69174 0.48682 0.51397 0.0
C2724 C 0.6802 0.46478 0.54841 0.0
C2725 C 0.70049 0.51004 0.55243 0.0
C2726 C 0.72258 0.5201 0.56328 0.0
C2727 C 0.72928 0.54283 0.57588 0.0
C2728 C 0.71295 0.55579 0.57718 0.0
C2729 C 0.69054 0.54599 0.56563 0.0
C2730 C 0.68413 0.52271 0.55348 0.0
H2731 H 0.21989 0.17814 0.53109 0.0
H2732 H 0.25459 0.12554 0.50806 0.0
H2733 H 0.21832 0.09207 0.50909 0.0
H2734 H 0.1862 0.1415 0.56936 0.0
H2735 H 0.16049 0.15085 0.56364 0.0
H2736 H 0.18887 0.17118 0.56013 0.0
H2737 H 0.17537 0.17441 0.51899 0.0
H2738 H 0.14686 0.15427 0.52245 0.0
H2739 H 0.16315 0.14692 0.50024 0.0
H2740 H 0.17913 0.06412 0.51355 0.0
H2741 H 0.13833 0.04328 0.51998 0.0
H2742 H 0.12864 0.11349 0.54052 0.0
C2743 C 0.21971 0.15961 0.52598 0.0
C2744 C 0.24006 0.15446 0.51946 0.0
C2745 C 0.23923 0.12994 0.51315 0.0
C2746 C 0.21871 0.11076 0.51367 0.0
C2747 C 0.19911 0.11635 0.52057 0.0
C2748 C 0.1993 0.14012 0.5265 0.0
C2749 C 0.17579 0.14085 0.53365 0.0
C2750 C 0.17798 0.15174 0.55815 0.0
C2751 C 0.16463 0.15495 0.51789 0.0
C2752 C 0.16254 0.1138 0.53095 0.0
C2753 C 0.17635 0.10004 0.52334 0.0
C2754 C 0.16807 0.07466 0.51948 0.0
C2755 C 0.14489 0.06299 0.52323 0.0
C2756 C 0.1303 0.0767 0.53082 0.0
C2757 C 0.13938 0.10244 0.53486 0.0
H2758 H 0.21342 0.97627 0.8174 0.0
H2759 H 0.26117 0.04948 0.81804 0.0
H2760 H 0.29255 0.03208 0.80807 0.0
H2761 H 0.25711 0.94841 0.84014 0.0
H2762 H 0.24378 0.92015 0.82271 0.0
H2763 H 0.22611 0.93869 0.83222 0.0
H2764 H 0.21102 0.93926 0.79086 0.0
H2765 H 0.22913 0.92126 0.7814 0.0
H2766 H 0.23175 0.95033 0.77088 0.0
H2767 H 0.31727 1.00689 0.79433 0.0
H2768 H 0.33444 0.97519 0.77991 0.0
H2769 H 0.27071 0.91896 0.78997 0.0
C2770 C 0.23058 0.98863 0.81583 0.0
C2771 C 0.23495 0.01414 0.81844 0.0
C2772 C 0.25756 0.02981 0.81618 0.0
C2773 C 0.27546 0.02014 0.81052 0.0
C2774 C 0.27041 0.99487 0.80751 0.0
C2775 C 0.24864 0.97933 0.81038 0.0
C2776 C 0.24745 0.95289 0.80529 0.0
C2777 C 0.24339 0.93924 0.82635 0.0
C2778 C 0.22874 0.94021 0.78596 0.0
C2779 C 0.27173 0.95608 0.79839 0.0
C2780 C 0.28478 0.98037 0.79988 0.0
C2781 C 0.30739 0.98776 0.79338 0.0
C2782 C 0.31696 0.96971 0.78523 0.0
C2783 C 0.30381 0.94474 0.78368 0.0
C2784 C 0.28102 0.93795 0.79055 0.0
H2785 H 0.36754 0.95276 0.01661 0.0
H2786 H 0.35571 1.00695 0.97463 0.0
H2787 H 0.39779 0.02851 0.97878 0.0
H2788 H 0.41133 0.99386 0.05505 0.0
H2789 H 0.42878 0.97347 0.05824 0.0
H2790 H 0.39773 0.96126 0.05129 0.0
H2791 H 0.4045 0.93615 0.01608 0.0
H2792 H 0.4356 0.94813 0.02301 0.0
H2793 H 0.42296 0.95154 0.99593 0.0
H2794 H 0.43977 0.0453 0.98865 0.0
H2795 H 0.48105 0.05597 1.00216 0.0
H2796 H 0.46695 0.9909 0.03766 0.0
C2797 C 0.37382 0.96902 0.00809 0.0
C2798 C 0.35833 0.9782 0.99529 0.0
C2799 C 0.36722 0.99958 0.98451 0.0
C2800 C 0.39109 0.01197 0.98678 0.0
C2801 C 0.40578 1.00268 0.99978 0.0
C2802 C 0.39765 0.98165 0.01015 0.0
C2803 C 0.41735 0.97595 0.02344 0.0
C2804 C 0.41356 0.97615 0.04849 0.0
C2805 C 0.42027 0.95149 0.01405 0.0
C2806 C 0.43775 0.99731 0.01908 0.0
C2807 C 0.43051 0.01241 0.0054 0.0
C2808 C 0.44575 0.03359 0.99926 0.0
C2809 C 0.46919 0.0395 0.00715 0.0
C2810 C 0.47724 0.02425 0.02101 0.0
C2811 C 0.46128 1.00286 0.02709 0.0
H2812 H 0.91124 0.63156 0.83088 0.0
H2813 H 0.86087 0.57124 0.85605 0.0
H2814 H 0.83055 0.5919 0.85077 0.0
H2815 H 0.88589 0.68257 0.8486 0.0
H2816 H 0.89202 0.69524 0.82239 0.0
H2817 H 0.91101 0.67988 0.83501 0.0
H2818 H 0.90516 0.6515 0.79807 0.0
H2819 H 0.88551 0.66603 0.78566 0.0
H2820 H 0.87605 0.63349 0.78721 0.0
H2821 H 0.80438 0.61431 0.83533 0.0
H2822 H 0.78503 0.63911 0.81372 0.0
H2823 H 0.85246 0.68146 0.79534 0.0
C2824 C 0.89422 0.62347 0.8366 0.0
C2825 C 0.88831 0.60019 0.84425 0.0
C2826 C 0.86562 0.58937 0.85051 0.0
C2827 C 0.84834 0.60092 0.84751 0.0
C2828 C 0.85422 0.62304 0.83813 0.0
C2829 C 0.87672 0.63435 0.83299 0.0
C2830 C 0.87773 0.65538 0.81925 0.0
C2831 C 0.89253 0.67971 0.83209 0.0
C2832 C 0.88663 0.65132 0.79621 0.0
C2833 C 0.85225 0.65368 0.81697 0.0
C2834 C 0.83894 0.63522 0.82817 0.0
C2835 C 0.81466 0.62921 0.82692 0.0
C2836 C 0.80381 0.64304 0.81439 0.0
C2837 C 0.81739 0.66224 0.80323 0.0
C2838 C 0.84178 0.66725 0.80427 0.0
H2839 H 0.85573 0.63582 0.04905 0.0
H2840 H 0.88624 0.69855 0.01329 0.0
H2841 H 0.92216 0.68566 0.01125 0.0
H2842 H 0.90738 0.63612 0.08175 0.0
H2843 H 0.89949 0.60324 0.07978 0.0
H2844 H 0.87707 0.61817 0.07869 0.0
H2845 H 0.85912 0.59303 0.04071 0.0
H2846 H 0.88149 0.57805 0.04162 0.0
H2847 H 0.87716 0.5939 0.01781 0.0
H2848 H 0.95474 0.66443 0.01318 0.0
H2849 H 0.9795 0.63711 0.01777 0.0
H2850 H 0.92588 0.58947 0.05236 0.0
C2851 C 0.8699 0.64714 0.04085 0.0
C2852 C 0.86815 0.66834 0.03142 0.0
C2853 C 0.8872 0.68228 0.02071 0.0
C2854 C 0.90763 0.67509 0.0195 0.0
C2855 C 0.90858 0.65394 0.02901 0.0
C2856 C 0.89008 0.64025 0.03943 0.0
C2857 C 0.8947 0.61797 0.04793 0.0
C2858 C 0.89467 0.61895 0.07355 0.0
C2859 C 0.87708 0.59435 0.03632 0.0
C2860 C 0.91882 0.62108 0.04072 0.0
C2861 C 0.92673 0.64189 0.02989 0.0
C2862 C 0.94865 0.64814 0.02167 0.0
C2863 C 0.96264 0.63259 0.02445 0.0
C2864 C 0.95455 0.61103 0.03526 0.0
C2865 C 0.93245 0.60553 0.04365 0.0
H2866 H 0.17922 0.14352 0.8229 0.0
H2867 H 0.2249 0.11873 0.86774 0.0
H2868 H 0.25646 0.15689 0.86573 0.0
H2869 H 0.2177 0.16404 0.78688 0.0
H2870 H 0.20956 0.19069 0.78047 0.0
H2871 H 0.18843 0.16523 0.78999 0.0
H2872 H 0.18111 0.19319 0.82289 0.0
H2873 H 0.20174 0.21902 0.81304 0.0
H2874 H 0.20547 0.21212 0.84148 0.0
H2875 H 0.28492 0.19286 0.85284 0.0
H2876 H 0.30742 0.22644 0.83262 0.0
H2877 H 0.24328 0.22701 0.79545 0.0
C2878 C 0.19544 0.14669 0.83323 0.0
C2879 C 0.1996 0.12831 0.84558 0.0
C2880 C 0.22134 0.1327 0.85827 0.0
C2881 C 0.23937 0.15432 0.85724 0.0
C2882 C 0.23524 0.17135 0.84362 0.0
C2883 C 0.21365 0.16806 0.8322 0.0
C2884 C 0.21462 0.18747 0.81641 0.0
C2885 C 0.20715 0.17616 0.79201 0.0
C2886 C 0.19986 0.20393 0.82391 0.0
C2887 C 0.24035 0.20118 0.81973 0.0
C2888 C 0.25188 0.19196 0.83579 0.0
C2889 C 0.27602 0.20061 0.84057 0.0
C2890 C 0.28867 0.21948 0.82883 0.0
C2891 C 0.27712 0.2292 0.81237 0.0
C2892 C 0.25265 0.21992 0.80788 0.0
H2893 H 0.41429 0.97131 0.27687 0.0
H2894 H 0.46412 0.96237 0.32836 0.0
H2895 H 0.43878 0.92049 0.33149 0.0
H2896 H 0.36259 0.9388 0.29914 0.0
H2897 H 0.3473 0.92439 0.27256 0.0
H2898 H 0.36941 0.95353 0.274 0.0
H2899 H 0.39166 0.93579 0.24487 0.0
H2900 H 0.36944 0.90669 0.24312 0.0
H2901 H 0.39959 0.90864 0.24991 0.0
H2902 H 0.40635 0.8814 0.33148 0.0
H2903 H 0.37194 0.84468 0.32397 0.0
H2904 H 0.34515 0.87749 0.26994 0.0
C2905 C 0.41995 0.96036 0.28859 0.0
C2906 C 0.44107 0.9699 0.30241 0.0
C2907 C 0.44806 0.95519 0.31751 0.0
C2908 C 0.43373 0.93151 0.31951 0.0
C2909 C 0.41278 0.92277 0.30593 0.0
C2910 C 0.40617 0.93649 0.29036 0.0
C2911 C 0.38311 0.9225 0.27735 0.0
C2912 C 0.36451 0.93559 0.28099 0.0
C2913 C 0.38614 0.91815 0.25233 0.0
C2914 C 0.37762 0.89893 0.28829 0.0
C2915 C 0.39476 0.89963 0.30499 0.0
C2916 C 0.39297 0.88049 0.31826 0.0
C2917 C 0.37333 0.85987 0.31402 0.0
C2918 C 0.35609 0.85848 0.29641 0.0
C2919 C 0.35824 0.87821 0.28341 0.0
H2920 H 0.62075 0.39855 0.58836 0.0
H2921 H 0.55701 0.3672 0.61952 0.0
H2922 H 0.54084 0.39871 0.60633 0.0
H2923 H 0.6225 0.46179 0.60251 0.0
H2924 H 0.63336 0.47232 0.57671 0.0
H2925 H 0.64038 0.44679 0.58762 0.0
H2926 H 0.6234 0.42015 0.55034 0.0
H2927 H 0.61629 0.44553 0.53921 0.0
H2928 H 0.59384 0.41687 0.53958 0.0
H2929 H 0.53052 0.43192 0.58933 0.0
H2930 H 0.52745 0.46768 0.57085 0.0
H2931 H 0.59834 0.48086 0.55233 0.0
C2932 C 0.60336 0.39832 0.59224 0.0
C2933 C 0.59009 0.38029 0.60493 0.0
C2934 C 0.56753 0.3808 0.60992 0.0
C2935 C 0.55813 0.39861 0.60245 0.0
C2936 C 0.57157 0.41617 0.59021 0.0
C2937 C 0.59377 0.41648 0.58524 0.0
C2938 C 0.60449 0.43822 0.57235 0.0
C2939 C 0.62649 0.45582 0.5856 0.0
C2940 C 0.60981 0.42967 0.54898 0.0
C2941 C 0.58473 0.44973 0.57083 0.0
C2942 C 0.56589 0.43645 0.58112 0.0
C2943 C 0.5452 0.44264 0.58136 0.0
C2944 C 0.54361 0.46296 0.57078 0.0
C2945 C 0.56268 0.47715 0.56035 0.0
C2946 C 0.58361 0.47053 0.5605 0.0
H2947 H 0.46943 0.79343 0.36422 0.0
H2948 H 0.43978 0.7538 0.41913 0.0
H2949 H 0.39998 0.74861 0.40129 0.0
H2950 H 0.42826 0.82599 0.35763 0.0
H2951 H 0.42819 0.82434 0.3276 0.0
H2952 H 0.45387 0.82408 0.34453 0.0
H2953 H 0.4534 0.78332 0.32242 0.0
H2954 H 0.42775 0.78352 0.30538 0.0
H2955 H 0.42742 0.7575 0.32034 0.0
H2956 H 0.3631 0.74956 0.37724 0.0
H2957 H 0.33356 0.75516 0.34921 0.0
H2958 H 0.38907 0.79382 0.31093 0.0
C2959 C 0.45466 0.78355 0.3726 0.0
C2960 C 0.45777 0.77408 0.39316 0.0
C2961 C 0.43784 0.76119 0.40336 0.0
C2962 C 0.4152 0.75821 0.39337 0.0
C2963 C 0.41289 0.76809 0.37316 0.0
C2964 C 0.4322 0.78038 0.36292 0.0
C2965 C 0.42545 0.78958 0.34145 0.0
C2966 C 0.43447 0.81766 0.3429 0.0
C2967 C 0.43401 0.77777 0.32121 0.0
C2968 C 0.39923 0.78063 0.34109 0.0
C2969 C 0.39215 0.76834 0.35947 0.0
C2970 C 0.36854 0.75902 0.36273 0.0
C2971 C 0.35188 0.76233 0.34676 0.0
C2972 C 0.35896 0.77477 0.32777 0.0
C2973 C 0.38297 0.78394 0.32506 0.0
H2974 H 0.08277 0.71294 0.12187 0.0
H2975 H 0.1211 0.75735 0.07378 0.0
H2976 H 0.1214 0.71972 0.05073 0.0
H2977 H 0.11075 0.6678 0.12029 0.0
H2978 H 0.08492 0.64264 0.12207 0.0
H2979 H 0.08648 0.67285 0.13389 0.0
H2980 H 0.04846 0.67085 0.10986 0.0
H2981 H 0.04659 0.64044 0.09825 0.0
H2982 H 0.04655 0.66376 0.07994 0.0
H2983 H 0.12069 0.67655 0.03509 0.0
H2984 H 0.11432 0.63224 0.02562 0.0
H2985 H 0.07462 0.61688 0.08329 0.0
C2986 C 0.09087 0.71473 0.10627 0.0
C2987 C 0.10191 0.73803 0.09956 0.0
C2988 C 0.11232 0.73966 0.07907 0.0
C2989 C 0.11272 0.71839 0.066 0.0
C2990 C 0.1022 0.69567 0.07344 0.0
C2991 C 0.09096 0.69377 0.09286 0.0
C2992 C 0.08081 0.66734 0.09724 0.0
C2993 C 0.09138 0.66238 0.1197 0.0
C2994 C 0.05402 0.66018 0.09626 0.0
C2995 C 0.08867 0.65461 0.07767 0.0
C2996 C 0.10108 0.67115 0.06412 0.0
C2997 C 0.11074 0.66347 0.04546 0.0
C2998 C 0.10719 0.63827 0.0403 0.0
C2999 C 0.09391 0.62102 0.05364 0.0
C3000 C 0.08472 0.6295 0.07261 0.0
H3001 H 0.10415 0.28241 0.91677 0.0
H3002 H 0.04596 0.23658 0.87159 0.0
H3003 H 0.07304 0.23213 0.84375 0.0
H3004 H 0.13439 0.31493 0.87547 0.0
H3005 H 0.16319 0.31709 0.88762 0.0
H3006 H 0.1397 0.3145 0.90524 0.0
H3007 H 0.14722 0.27634 0.9205 0.0
H3008 H 0.17081 0.27884 0.90292 0.0
H3009 H 0.1472 0.25075 0.9012 0.0
H3010 H 0.10519 0.23528 0.81968 0.0
H3011 H 0.14126 0.24626 0.80037 0.0
H3012 H 0.17895 0.29041 0.86052 0.0
C3013 C 0.09724 0.27104 0.90121 0.0
C3014 C 0.07303 0.25973 0.89633 0.0
C3015 C 0.06449 0.2454 0.87562 0.0
C3016 C 0.07971 0.24266 0.85974 0.0
C3017 C 0.10343 0.25437 0.86483 0.0
C3018 C 0.11223 0.26827 0.88501 0.0
C3019 C 0.13829 0.28035 0.88545 0.0
C3020 C 0.14423 0.30837 0.88862 0.0
C3021 C 0.15167 0.271 0.9036 0.0
C3022 C 0.14255 0.27147 0.8622 0.0
C3023 C 0.1222 0.25632 0.85071 0.0
C3024 C 0.12133 0.24689 0.82854 0.0
C3025 C 0.14181 0.25332 0.81769 0.0
C3026 C 0.16278 0.26906 0.82902 0.0
C3027 C 0.1632 0.27797 0.85164 0.0
H3028 H 0.55479 0.68633 0.91842 0.0
H3029 H 0.56647 0.74182 0.97454 0.0
H3030 H 0.56642 0.71076 1.00061 0.0
H3031 H 0.51746 0.63507 0.94491 0.0
H3032 H 0.53007 0.61253 0.9333 0.0
H3033 H 0.5301 0.63864 0.91855 0.0
H3034 H 0.57483 0.64967 0.91792 0.0
H3035 H 0.57486 0.62356 0.93264 0.0
H3036 H 0.59291 0.65362 0.94385 0.0
H3037 H 0.56381 0.67271 0.02187 0.0
H3038 H 0.56223 0.63316 0.03574 0.0
H3039 H 0.55528 0.60018 0.96735 0.0
C3040 C 0.55724 0.69203 0.9362 0.0
C3041 C 0.56044 0.71732 0.94397 0.0
C3042 C 0.5639 0.72319 0.96761 0.0
C3043 C 0.56386 0.70538 0.98276 0.0
C3044 C 0.5607 0.68099 0.97467 0.0
C3045 C 0.55774 0.67425 0.95185 0.0
C3046 C 0.55568 0.64673 0.94784 0.0
C3047 C 0.53192 0.6324 0.9354 0.0
C3048 C 0.57576 0.64319 0.93478 0.0
C3049 C 0.55771 0.63907 0.97181 0.0
C3050 C 0.56035 0.65927 0.98694 0.0
C3051 C 0.56191 0.657 0.00998 0.0
C3052 C 0.56089 0.63406 0.01782 0.0
C3053 C 0.55865 0.6127 0.00311 0.0
C3054 C 0.55713 0.61568 0.97949 0.0
H3055 H 0.15087 0.82117 0.68556 0.0
H3056 H 0.10737 0.7956 0.73874 0.0
H3057 H 0.14148 0.79075 0.7607 0.0
H3058 H 0.18804 0.78146 0.69124 0.0
H3059 H 0.21478 0.80402 0.68645 0.0
H3060 H 0.18718 0.80586 0.67446 0.0
H3061 H 0.19641 0.84982 0.69353 0.0
H3062 H 0.22406 0.84811 0.70554 0.0
H3063 H 0.20369 0.85561 0.72338 0.0
H3064 H 0.18063 0.78669 0.77727 0.0
H3065 H 0.22057 0.78597 0.78758 0.0
H3066 H 0.24243 0.81601 0.72582 0.0
C3067 C 0.14845 0.8147 0.70191 0.0
C3068 C 0.12555 0.80888 0.71005 0.0
C3069 C 0.12403 0.80042 0.73168 0.0
C3070 C 0.1436 0.7975 0.74444 0.0
C3071 C 0.16556 0.80323 0.73598 0.0
C3072 C 0.16824 0.81194 0.71526 0.0
C3073 C 0.19417 0.817 0.71049 0.0
C3074 C 0.19616 0.80115 0.6894 0.0
C3075 C 0.20524 0.84426 0.70808 0.0
C3076 C 0.20551 0.80958 0.73153 0.0
C3077 C 0.18841 0.80157 0.74588 0.0
C3078 C 0.19399 0.79313 0.76607 0.0
C3079 C 0.21713 0.79277 0.77184 0.0
C3080 C 0.23564 0.80101 0.75796 0.0
C3081 C 0.22934 0.80973 0.73731 0.0
H3082 H 0.07523 0.39635 0.41973 0.0
H3083 H 0.06397 0.34496 0.46991 0.0
H3084 H 0.06117 0.37767 0.49792 0.0
H3085 H 0.11038 0.45001 0.45681 0.0
H3086 H 0.09797 0.47114 0.44383 0.0
H3087 H 0.0994 0.44395 0.42768 0.0
H3088 H 0.05493 0.4316 0.41698 0.0
H3089 H 0.05338 0.45872 0.43313 0.0
H3090 H 0.03538 0.42909 0.43875 0.0
H3091 H 0.05904 0.41655 0.52112 0.0
H3092 H 0.05821 0.45672 0.53727 0.0
H3093 H 0.07086 0.48523 0.47303 0.0
C3094 C 0.07231 0.39187 0.43665 0.0
C3095 C 0.06998 0.36743 0.44225 0.0
C3096 C 0.06598 0.36303 0.46477 0.0
C3097 C 0.06431 0.38171 0.48093 0.0
C3098 C 0.0666 0.40531 0.4748 0.0
C3099 C 0.07057 0.41049 0.45314 0.0
C3100 C 0.07223 0.43748 0.45099 0.0
C3101 C 0.09644 0.45148 0.44443 0.0
C3102 C 0.05283 0.43933 0.43395 0.0
C3103 C 0.0686 0.44676 0.47478 0.0
C3104 C 0.06537 0.42772 0.48814 0.0
C3105 C 0.0616 0.43141 0.51064 0.0
C3106 C 0.06115 0.45469 0.51976 0.0
C3107 C 0.06446 0.47501 0.50687 0.0
C3108 C 0.06826 0.4706 0.48377 0.0
H3109 H 0.47818 0.32683 0.21478 0.0
H3110 H 0.47583 0.25106 0.21815 0.0
H3111 H 0.43884 0.24319 0.23512 0.0
H3112 H 0.4529 0.33317 0.26869 0.0
H3113 H 0.43552 0.35194 0.25949 0.0
H3114 H 0.462 0.35256 0.24676 0.0
H3115 H 0.43891 0.34156 0.20781 0.0
H3116 H 0.41238 0.34094 0.22044 0.0
H3117 H 0.41395 0.31464 0.20301 0.0
H3118 H 0.40069 0.2418 0.25208 0.0
H3119 H 0.36594 0.24772 0.26811 0.0
H3120 H 0.38943 0.32435 0.2569 0.0
C3121 C 0.4699 0.30851 0.21891 0.0
C3122 C 0.48107 0.28963 0.21455 0.0
C3123 C 0.46875 0.26621 0.22089 0.0
C3124 C 0.44726 0.26137 0.23072 0.0
C3125 C 0.43704 0.28 0.23488 0.0
C3126 C 0.44791 0.30324 0.22928 0.0
C3127 C 0.43266 0.31975 0.23629 0.0
C3128 C 0.4466 0.34061 0.25384 0.0
C3129 C 0.42397 0.32984 0.21566 0.0
C3130 C 0.41186 0.30221 0.24654 0.0
C3131 C 0.41496 0.27931 0.2453 0.0
C3132 C 0.39834 0.25978 0.25315 0.0
C3133 C 0.3783 0.26339 0.26241 0.0
C3134 C 0.37405 0.28651 0.26442 0.0
C3135 C 0.39158 0.30629 0.25615 0.0
H3136 H 0.67259 0.55517 0.41452 0.0
H3137 H 0.64047 0.48274 0.38087 0.0
H3138 H 0.62275 0.46928 0.41544 0.0
H3139 H 0.67786 0.53497 0.47553 0.0
H3140 H 0.6712 0.56203 0.48632 0.0
H3141 H 0.68824 0.56294 0.46262 0.0
H3142 H 0.65874 0.5794 0.44028 0.0
H3143 H 0.64141 0.57777 0.46351 0.0
H3144 H 0.6283 0.56175 0.43671 0.0
H3145 H 0.59944 0.46781 0.44779 0.0
H3146 H 0.57506 0.47731 0.47644 0.0
H3147 H 0.62261 0.55089 0.48946 0.0
C3148 C 0.66309 0.53609 0.41508 0.0
C3149 C 0.65812 0.51976 0.39553 0.0
C3150 C 0.64487 0.49518 0.39607 0.0
C3151 C 0.63474 0.48747 0.4156 0.0
C3152 C 0.63854 0.50453 0.43434 0.0
C3153 C 0.65303 0.52824 0.43445 0.0
C3154 C 0.65092 0.54429 0.45486 0.0
C3155 C 0.6734 0.55146 0.47077 0.0
C3156 C 0.64443 0.5671 0.44843 0.0
C3157 C 0.63122 0.52672 0.46486 0.0
C3158 C 0.62481 0.50367 0.4533 0.0
C3159 C 0.60484 0.4855 0.45748 0.0
C3160 C 0.59095 0.49115 0.47363 0.0
C3161 C 0.597 0.51487 0.48514 0.0
C3162 C 0.61776 0.53251 0.48116 0.0
H3163 H 0.32315 0.90354 0.08217 0.0
H3164 H 0.29265 0.8403 0.0337 0.0
H3165 H 0.30454 0.81406 0.05969 0.0
H3166 H 0.37276 0.88533 0.10379 0.0
H3167 H 0.37128 0.89685 0.13221 0.0
H3168 H 0.36174 0.91097 0.10924 0.0
H3169 H 0.32129 0.90404 0.12475 0.0
H3170 H 0.33076 0.89001 0.14777 0.0
H3171 H 0.30475 0.87365 0.12996 0.0
H3172 H 0.31799 0.79456 0.09141 0.0
H3173 H 0.33035 0.78271 0.12762 0.0
H3174 H 0.35244 0.85882 0.15507 0.0
C3175 C 0.31917 0.88421 0.07694 0.0
C3176 C 0.30708 0.87391 0.05594 0.0
C3177 C 0.30192 0.84852 0.04976 0.0
C3178 C 0.30868 0.83351 0.06433 0.0
C3179 C 0.32056 0.84423 0.08494 0.0
C3180 C 0.32567 0.86897 0.09129 0.0
C3181 C 0.33744 0.8757 0.11484 0.0
C3182 C 0.36228 0.89325 0.11502 0.0
C3183 C 0.32267 0.88648 0.13023 0.0
C3184 C 0.33787 0.85082 0.12082 0.0
C3185 C 0.32825 0.83295 0.10329 0.0
C3186 C 0.32582 0.8084 0.1052 0.0
C3187 C 0.33303 0.80188 0.12576 0.0
C3188 C 0.34246 0.81987 0.14408 0.0
C3189 C 0.34525 0.84467 0.14137 0.0
H3190 H 0.01711 0.57244 0.87345 0.0
H3191 H 0.95123 0.52231 0.88713 0.0
H3192 H 0.96708 0.52231 0.92611 0.0
H3193 H 0.05454 0.54871 0.90405 0.0
H3194 H 0.07501 0.57767 0.91499 0.0
H3195 H 0.05793 0.5751 0.88877 0.0
H3196 H 0.04229 0.61021 0.90419 0.0
H3197 H 0.05933 0.61273 0.93053 0.0
H3198 H 0.02827 0.60766 0.92987 0.0
H3199 H 0.99113 0.52365 0.96083 0.0
H3200 H 0.02164 0.52835 0.99124 0.0
H3201 H 0.07114 0.58068 0.95663 0.0
C3202 C 1.00613 0.56165 0.88482 0.0
C3203 C 0.98325 0.54716 0.87772 0.0
C3204 C 0.96892 0.5334 0.89268 0.0
C3205 C 0.97768 0.5334 0.9147 0.0
C3206 C 1.00044 0.54783 0.92129 0.0
C3207 C 0.01438 0.562 0.90699 0.0
C3208 C 0.03837 0.57541 0.91825 0.0
C3209 C 0.05758 0.56881 0.90577 0.0
C3210 C 0.04229 0.60315 0.92086 0.0
C3211 C 0.03621 0.56528 0.94059 0.0
C3212 C 0.01405 0.5497 0.94207 0.0
C3213 C 1.00826 0.53651 0.96028 0.0
C3214 C 0.02563 0.53949 0.97753 0.0
C3215 C 0.0483 0.55559 0.97639 0.0
C3216 C 0.05374 0.56865 0.95782 0.0
H3217 H 0.31551 0.20672 0.62675 0.0
H3218 H 0.30285 0.26572 0.59239 0.0
H3219 H 0.30215 0.28832 0.6291 0.0
H3220 H 0.27931 0.20772 0.67005 0.0
H3221 H 0.29862 0.2018 0.69155 0.0
H3222 H 0.29934 0.191 0.66279 0.0
H3223 H 0.34362 0.21392 0.66484 0.0
H3224 H 0.34307 0.22459 0.69371 0.0
H3225 H 0.35385 0.24618 0.67387 0.0
H3226 H 0.29911 0.30246 0.66994 0.0
H3227 H 0.2982 0.3091 0.71089 0.0
H3228 H 0.31536 0.24187 0.71867 0.0
C3229 C 0.31287 0.22455 0.62692 0.0
C3230 C 0.30916 0.23443 0.60661 0.0
C3231 C 0.30589 0.25786 0.60764 0.0
C3232 C 0.30534 0.27074 0.62845 0.0
C3233 C 0.30856 0.26018 0.64812 0.0
C3234 C 0.31274 0.2378 0.64748 0.0
C3235 C 0.31576 0.2304 0.67093 0.0
C3236 C 0.29715 0.2063 0.674 0.0
C3237 C 0.34055 0.22867 0.67614 0.0
C3238 C 0.312 0.25176 0.68494 0.0
C3239 C 0.30777 0.26871 0.67147 0.0
C3240 C 0.30269 0.28942 0.68057 0.0
C3241 C 0.30207 0.29295 0.7039 0.0
C3242 C 0.30674 0.27604 0.7181 0.0
C3243 C 0.31191 0.25525 0.70836 0.0
H3244 H 0.61691 0.52479 0.26664 0.0
H3245 H 0.6674 0.59672 0.27979 0.0
H3246 H 0.64379 0.61297 0.25364 0.0
H3247 H 0.60952 0.52712 0.20918 0.0
H3248 H 0.57888 0.5104 0.20578 0.0
H3249 H 0.59728 0.50541 0.22849 0.0
H3250 H 0.56984 0.51571 0.25671 0.0
H3251 H 0.55148 0.521 0.23399 0.0
H3252 H 0.56356 0.54448 0.25682 0.0
H3253 H 0.61764 0.62056 0.22413 0.0
H3254 H 0.59369 0.61823 0.18904 0.0
H3255 H 0.56018 0.54102 0.19335 0.0
C3256 C 0.62259 0.54404 0.26427 0.0
C3257 C 0.64369 0.55967 0.27518 0.0
C3258 C 0.65119 0.58459 0.27143 0.0
C3259 C 0.63779 0.594 0.25687 0.0
C3260 C 0.61712 0.57813 0.24612 0.0
C3261 C 0.60968 0.55361 0.24934 0.0
C3262 C 0.58868 0.53988 0.23329 0.0
C3263 C 0.59392 0.51952 0.2183 0.0
C3264 C 0.56711 0.52967 0.24597 0.0
C3265 C 0.58606 0.56038 0.22005 0.0
C3266 C 0.60222 0.58239 0.22822 0.0
C3267 C 0.60458 0.60358 0.21778 0.0
C3268 C 0.59071 0.60208 0.19791 0.0
C3269 C 0.57486 0.57946 0.18855 0.0
C3270 C 0.57199 0.55857 0.20022 0.0
H3271 H 0.27713 0.91544 0.91184 0.0
H3272 H 0.25169 0.85634 0.9531 0.0
H3273 H 0.25073 0.82634 0.92125 0.0
H3274 H 0.24546 0.88182 0.85678 0.0
H3275 H 0.27012 0.89549 0.84165 0.0
H3276 H 0.26427 0.91216 0.86608 0.0
H3277 H 0.30629 0.91796 0.88355 0.0
H3278 H 0.31206 0.90098 0.85938 0.0
H3279 H 0.31596 0.89148 0.88683 0.0
H3280 H 0.25795 0.80349 0.88794 0.0
H3281 H 0.27161 0.78826 0.85379 0.0
H3282 H 0.29327 0.86184 0.83348 0.0
C3283 C 0.27048 0.89614 0.91381 0.0
C3284 C 0.26418 0.88807 0.93473 0.0
C3285 C 0.25641 0.86278 0.93709 0.0
C3286 C 0.25574 0.84564 0.91911 0.0
C3287 C 0.26292 0.85414 0.89894 0.0
C3288 C 0.26996 0.87875 0.89603 0.0
C3289 C 0.27937 0.883 0.87341 0.0
C3290 C 0.26387 0.89375 0.85861 0.0
C3291 C 0.30493 0.89931 0.87596 0.0
C3292 C 0.27736 0.85704 0.86456 0.0
C3293 C 0.26751 0.84073 0.87947 0.0
C3294 C 0.2653 0.81597 0.87591 0.0
C3295 C 0.27331 0.80756 0.85653 0.0
C3296 C 0.28352 0.82389 0.84098 0.0
C3297 C 0.28534 0.84892 0.84497 0.0
H3298 H 0.99159 0.57582 0.77162 0.0
H3299 H 0.92323 0.56909 0.73895 0.0
H3300 H 0.93831 0.56488 0.70208 0.0
H3301 H 0.0274 0.60765 0.72811 0.0
H3302 H 0.04791 0.59056 0.7318 0.0
H3303 H 0.03304 0.59801 0.75514 0.0
H3304 H 0.0181 0.5521 0.76122 0.0
H3305 H 0.03259 0.54444 0.7378 0.0
H3306 H 1.00166 0.5304 0.73844 0.0
H3307 H 0.95878 0.55494 0.66973 0.0
H3308 H 0.98366 0.54117 0.64381 0.0
H3309 H 0.03815 0.55346 0.69806 0.0
C3310 C 0.97996 0.57428 0.75672 0.0
C3311 C 0.95629 0.57289 0.75803 0.0
C3312 C 0.94147 0.57035 0.73821 0.0
C3313 C 0.94989 0.56801 0.71724 0.0
C3314 C 0.97312 0.56845 0.71657 0.0
C3315 C 0.98801 0.57174 0.73579 0.0
C3316 C 1.0113 0.5686 0.73078 0.0
C3317 C 0.03108 0.59264 0.73681 0.0
C3318 C 0.01617 0.54764 0.74276 0.0
C3319 C 1.00691 0.56211 0.70579 0.0
C3320 C 0.98492 0.56244 0.69786 0.0
C3321 C 0.97619 0.55507 0.67563 0.0
C3322 C 0.9903 0.54705 0.66113 0.0
C3323 C 1.01274 0.54635 0.66906 0.0
C3324 C 0.02122 0.5543 0.69156 0.0
H3325 H 0.30266 0.21203 0.44325 0.0
H3326 H 0.34145 0.28058 0.48148 0.0
H3327 H 0.3473 0.30039 0.44629 0.0
H3328 H 0.336 0.21824 0.39498 0.0
H3329 H 0.31081 0.2051 0.37514 0.0
H3330 H 0.31061 0.19611 0.40316 0.0
H3331 H 0.27294 0.2083 0.40835 0.0
H3332 H 0.27301 0.21722 0.38032 0.0
H3333 H 0.27255 0.23873 0.40358 0.0
H3334 H 0.34958 0.31254 0.4061 0.0
H3335 H 0.34488 0.31672 0.36553 0.0
H3336 H 0.30239 0.24092 0.35392 0.0
C3337 C 0.31254 0.23119 0.44423 0.0
C3338 C 0.32182 0.24468 0.46523 0.0
C3339 C 0.33424 0.26982 0.46569 0.0
C3340 C 0.3377 0.28121 0.44573 0.0
C3341 C 0.32835 0.26738 0.42533 0.0
C3342 C 0.31575 0.24295 0.4245 0.0
C3343 C 0.30652 0.23243 0.40058 0.0
C3344 C 0.31659 0.21175 0.39303 0.0
C3345 C 0.27966 0.22366 0.39807 0.0
C3346 C 0.31596 0.25466 0.38803 0.0
C3347 C 0.32876 0.27459 0.40254 0.0
C3348 C 0.33949 0.29703 0.39467 0.0
C3349 C 0.33683 0.29922 0.37153 0.0
C3350 C 0.32327 0.27921 0.35642 0.0
C3351 C 0.31282 0.25664 0.36495 0.0
H3352 H 0.37168 0.58447 0.5623 0.0
H3353 H 0.37697 0.64126 0.51764 0.0
H3354 H 0.39756 0.62069 0.49212 0.0
H3355 H 0.42743 0.57588 0.55515 0.0
H3356 H 0.41644 0.54326 0.55644 0.0
H3357 H 0.40305 0.56336 0.57101 0.0
H3358 H 0.36315 0.53857 0.55 0.0
H3359 H 0.37669 0.51891 0.53492 0.0
H3360 H 0.36004 0.53501 0.51982 0.0
H3361 H 0.4156 0.59238 0.47061 0.0
H3362 H 0.43393 0.56142 0.45705 0.0
H3363 H 0.41742 0.52472 0.51704 0.0
C3364 C 0.37742 0.59286 0.54734 0.0
C3365 C 0.37277 0.6145 0.542 0.0
C3366 C 0.38049 0.62475 0.52214 0.0
C3367 C 0.392 0.61311 0.50746 0.0
C3368 C 0.39555 0.59131 0.51293 0.0
C3369 C 0.38871 0.58149 0.53251 0.0
C3370 C 0.39452 0.55796 0.53466 0.0
C3371 C 0.41139 0.56027 0.55555 0.0
C3372 C 0.37227 0.53634 0.53485 0.0
C3373 C 0.40608 0.5562 0.51334 0.0
C3374 C 0.40619 0.57535 0.50082 0.0
C3375 C 0.41578 0.57739 0.48035 0.0
C3376 C 0.42616 0.55973 0.47281 0.0
C3377 C 0.42715 0.54055 0.48593 0.0
C3378 C 0.41656 0.5387 0.50626 0.0
H3379 H 0.87972 0.9687 0.54666 0.0
H3380 H 0.88453 0.89763 0.52214 0.0
H3381 H 0.92696 0.91575 0.51967 0.0
H3382 H 0.91838 1.00391 0.51335 0.0
H3383 H 0.93176 0.029 0.53447 0.0
H3384 H 0.90224 0.01031 0.53609 0.0
H3385 H 0.91325 1.00076 0.576 0.0
H3386 H 0.94274 0.01981 0.57467 0.0
H3387 H 0.93734 0.98853 0.58065 0.0
H3388 H 0.96713 0.94282 0.51448 0.0
H3389 H 1.00428 0.97562 0.51338 0.0
H3390 H 0.97439 0.02827 0.54502 0.0
C3391 C 0.88988 0.95689 0.5413 0.0
C3392 C 0.87904 0.93181 0.5346 0.0
C3393 C 0.89268 0.91683 0.52758 0.0
C3394 C 0.9167 0.927 0.52598 0.0
C3395 C 0.92675 0.95198 0.53206 0.0
C3396 C 0.91393 0.9666 0.54021 0.0
C3397 C 0.92891 0.99293 0.54552 0.0
C3398 C 0.91977 0.01003 0.53152 0.0
C3399 C 0.93066 1.00098 0.57071 0.0
C3400 C 0.95201 0.99102 0.53838 0.0
C3401 C 0.95031 0.96729 0.53041 0.0
C3402 C 0.96881 0.96134 0.52114 0.0
C3403 C 0.9897 0.98006 0.52039 0.0
C3404 C 0.99197 1.00425 0.52917 0.0
C3405 C 0.97299 0.0098 0.5384 0.0
H3406 H 0.88862 0.10834 0.27587 0.0
H3407 H 0.83463 0.05668 0.23019 0.0
H3408 H 0.80556 0.07576 0.24367 0.0
H3409 H 0.85236 0.11082 0.32177 0.0
H3410 H 0.86604 0.14304 0.32938 0.0
H3411 H 0.88245 0.12459 0.31696 0.0
H3412 H 0.89231 0.15359 0.28563 0.0
H3413 H 0.87606 0.17213 0.29809 0.0
H3414 H 0.8689 0.1597 0.2692 0.0
H3415 H 0.78319 0.1022 0.26001 0.0
H3416 H 0.76918 0.13471 0.2776 0.0
H3417 H 0.83718 0.16706 0.31463 0.0
C3418 C 0.87066 0.10095 0.26879 0.0
C3419 C 0.86383 0.08108 0.252 0.0
C3420 C 0.84019 0.07191 0.24311 0.0
C3421 C 0.82356 0.08255 0.25069 0.0
C3422 C 0.83086 0.10211 0.2673 0.0
C3423 C 0.85382 0.11119 0.27629 0.0
C3424 C 0.85728 0.13293 0.29336 0.0
C3425 C 0.86499 0.1275 0.31676 0.0
C3426 C 0.87466 0.15594 0.28613 0.0
C3427 C 0.83276 0.13488 0.29226 0.0
C3428 C 0.81776 0.11692 0.2772 0.0
C3429 C 0.79462 0.11611 0.27218 0.0
C3430 C 0.78677 0.13455 0.28244 0.0
C3431 C 0.80202 0.15342 0.29764 0.0
C3432 C 0.82509 0.15303 0.30302 0.0
H3433 H 0.72083 0.12356 0.09084 0.0
H3434 H 0.74383 0.07173 0.04896 0.0
H3435 H 0.70309 0.0508 0.0342 0.0
H3436 H 0.66688 0.07867 0.10411 0.0
H3437 H 0.65064 0.10048 0.1039 0.0
H3438 H 0.6816 0.11066 0.11193 0.0
H3439 H 0.68728 0.14089 0.08149 0.0
H3440 H 0.65642 0.13061 0.07317 0.0
H3441 H 0.67686 0.12945 0.05279 0.0
H3442 H 0.66112 0.03872 0.02085 0.0
H3443 H 0.61867 0.03211 0.01367 0.0
H3444 H 0.62256 0.08945 0.06641 0.0
C3445 C 0.71718 0.10759 0.07881 0.0
C3446 C 0.73527 0.09923 0.07094 0.0
C3447 C 0.73006 0.07828 0.05526 0.0
C3448 C 0.70705 0.06635 0.04671 0.0
C3449 C 0.68961 0.07536 0.05443 0.0
C3450 C 0.69427 0.09513 0.07048 0.0
C3451 C 0.67226 0.10106 0.07589 0.0
C3452 C 0.66757 0.09749 0.10041 0.0
C3453 C 0.67328 0.12704 0.0705 0.0
C3454 C 0.65463 0.0819 0.05994 0.0
C3455 C 0.66505 0.06744 0.04756 0.0
C3456 C 0.65261 0.04957 0.03068 0.0
C3457 C 0.62868 0.0461 0.02661 0.0
C3458 C 0.61767 0.0602 0.03964 0.0
C3459 C 0.63073 0.07827 0.05649 0.0
H3460 H 0.22557 0.50221 0.29468 0.0
H3461 H 0.16003 0.45261 0.31011 0.0
H3462 H 0.18163 0.42774 0.32841 0.0
H3463 H 0.24984 0.45844 0.27801 0.0
H3464 H 0.27934 0.4749 0.28898 0.0
H3465 H 0.25932 0.49138 0.28154 0.0
H3466 H 0.26676 0.51388 0.32166 0.0
H3467 H 0.28684 0.49729 0.32923 0.0
H3468 H 0.26248 0.49639 0.34545 0.0
H3469 H 0.20921 0.40515 0.33928 0.0
H3470 H 0.24055 0.38544 0.34026 0.0
H3471 H 0.28785 0.44963 0.31731 0.0
C3472 C 0.21577 0.48654 0.30251 0.0
C3473 C 0.19119 0.47938 0.30118 0.0
C3474 C 0.17892 0.45845 0.31111 0.0
C3475 C 0.19104 0.44434 0.32166 0.0
C3476 C 0.21532 0.45161 0.32223 0.0
C3477 C 0.22755 0.47226 0.31294 0.0
C3478 C 0.25317 0.47433 0.31292 0.0
C3479 C 0.26084 0.47476 0.28895 0.0
C3480 C 0.2682 0.49681 0.32824 0.0
C3481 C 0.25325 0.45097 0.32266 0.0
C3482 C 0.23137 0.4384 0.32841 0.0
C3483 C 0.22655 0.41506 0.33539 0.0
C3484 C 0.24437 0.404 0.33583 0.0
C3485 C 0.26654 0.41626 0.32909 0.0
C3486 C 0.27124 0.44029 0.3232 0.0
H3487 H 0.27461 0.43332 0.05356 0.0
H3488 H 0.2251 0.36205 0.03232 0.0
H3489 H 0.19446 0.38176 0.02405 0.0
H3490 H 0.2342 0.4601 0.07984 0.0
H3491 H 0.24727 0.48975 0.07067 0.0
H3492 H 0.26483 0.46983 0.07564 0.0
H3493 H 0.27743 0.47295 0.03527 0.0
H3494 H 0.25978 0.49273 0.03015 0.0
H3495 H 0.25538 0.46509 0.01191 0.0
H3496 H 0.16986 0.40951 0.01678 0.0
H3497 H 0.15277 0.44308 0.01181 0.0
H3498 H 0.2186 0.49581 0.03861 0.0
C3499 C 0.25728 0.42177 0.04735 0.0
C3500 C 0.25217 0.39614 0.0436 0.0
C3501 C 0.22932 0.38173 0.03536 0.0
C3502 C 0.21186 0.39275 0.0306 0.0
C3503 C 0.2176 0.41812 0.03425 0.0
C3504 C 0.23973 0.43243 0.04253 0.0
C3505 C 0.2416 0.4593 0.0446 0.0
C3506 C 0.24731 0.47039 0.06915 0.0
C3507 C 0.25961 0.47333 0.02958 0.0
C3508 C 0.21706 0.45792 0.03604 0.0
C3509 C 0.20346 0.43404 0.03017 0.0
C3510 C 0.18027 0.42827 0.0215 0.0
C3511 C 0.17071 0.44745 0.01885 0.0
C3512 C 0.18434 0.47207 0.02492 0.0
C3513 C 0.2078 0.47724 0.0336 0.0
H3514 H 0.91585 0.9472 0.22457 0.0
H3515 H 0.85843 0.97096 0.19796 0.0
H3516 H 0.83084 0.9307 0.20248 0.0
H3517 H 0.89082 0.87983 0.2035 0.0
H3518 H 0.90181 0.87105 0.22908 0.0
H3519 H 0.91758 0.89912 0.21852 0.0
H3520 H 0.91614 0.92291 0.25656 0.0
H3521 H 0.90002 0.8951 0.26707 0.0
H3522 H 0.88826 0.92053 0.26712 0.0
H3523 H 0.80919 0.89127 0.21516 0.0
H3524 H 0.7946 0.85478 0.23508 0.0
H3525 H 0.86599 0.85749 0.25552 0.0
C3526 C 0.89762 0.9434 0.21868 0.0
C3527 C 0.88918 0.96175 0.21044 0.0
C3528 C 0.86512 0.95681 0.20394 0.0
C3529 C 0.84938 0.93405 0.20643 0.0
C3530 C 0.85807 0.91663 0.21558 0.0
C3531 C 0.88164 0.92093 0.22151 0.0
C3532 C 0.88601 0.90063 0.234 0.0
C3533 C 0.89987 0.88684 0.22046 0.0
C3534 C 0.89832 0.91039 0.25757 0.0
C3535 C 0.86118 0.8849 0.23504 0.0
C3536 C 0.84538 0.89415 0.22388 0.0
C3537 C 0.82138 0.88359 0.22364 0.0
C3538 C 0.81328 0.86296 0.23511 0.0
C3539 C 0.82917 0.85341 0.24693 0.0
C3540 C 0.85341 0.86443 0.24669 0.0
H3541 H 0.69954 0.09759 0.76902 0.0
H3542 H 0.67233 0.10301 0.70164 0.0
H3543 H 0.69598 0.14643 0.70462 0.0
H3544 H 0.69967 0.15746 0.79206 0.0
H3545 H 0.72618 0.16259 0.81 0.0
H3546 H 0.70719 0.13196 0.80253 0.0
H3547 H 0.74169 0.11923 0.7872 0.0
H3548 H 0.76074 0.14984 0.79457 0.0
H3549 H 0.75765 0.13597 0.76619 0.0
H3550 H 0.72366 0.18842 0.71436 0.0
H3551 H 0.7515 0.22734 0.73108 0.0
H3552 H 0.75931 0.1949 0.79278 0.0
C3553 C 0.69854 0.10789 0.75487 0.0
C3554 C 0.6842 0.09696 0.73503 0.0
C3555 C 0.68317 0.11109 0.71699 0.0
C3556 C 0.69658 0.13569 0.71851 0.0
C3557 C 0.71064 0.14583 0.73826 0.0
C3558 C 0.71153 0.13247 0.7562 0.0
C3559 C 0.72777 0.14783 0.77567 0.0
C3560 C 0.71439 0.15009 0.79628 0.0
C3561 C 0.74817 0.1376 0.78122 0.0
C3562 C 0.73602 0.1719 0.76578 0.0
C3563 C 0.72606 0.17029 0.74414 0.0
C3564 C 0.73146 0.18996 0.73133 0.0
C3565 C 0.74737 0.21194 0.74096 0.0
C3566 C 0.75751 0.21409 0.76324 0.0
C3567 C 0.75171 0.1938 0.77578 0.0
loop_
_geom_bond_atom_site_label_1
_geom_bond_atom_site_label_2
_geom_bond_distance
_geom_bond_site_symmetry_2
_ccdc_geom_bond_type
C0 O1 1.306 1_655 S
C0 O3 1.160 1_655 S
O1 C0 1.306 1_455 S
O1 Cd2 2.228 . S
Cd2 O1 2.228 . S
Cd2 O6 2.273 . S
Cd2 O10 2.277 . S
O3 C0 1.160 1_455 S
O3 Cd4 2.203 . S
Cd4 O3 2.203 . S
Cd4 O6 2.411 . S
Cd4 O7 2.333 . S
Cd4 O8 2.352 . S
Cd4 O12 2.277 . S
Cd4 O13 2.356 . S
C5 O10 1.209 . S
C5 O12 1.226 . S
O6 Cd2 2.273 . S
O6 Cd4 2.411 . S
O6 C9 1.320 . S
O7 Cd4 2.333 . S
O7 C9 1.214 . S
O8 Cd4 2.352 . S
O8 C11 1.258 . S
C9 O6 1.320 . S
C9 O7 1.214 . S
O10 Cd2 2.277 . S
O10 C5 1.209 . S
C11 O8 1.258 . S
C11 O13 1.282 . S
O12 Cd4 2.277 . S
O12 C5 1.226 . S
O13 Cd4 2.356 . S
O13 C11 1.282 . S
C14 O15 1.306 . S
C14 O17 1.160 . S
O15 C14 1.306 . S
O15 Cd16 2.228 . S
Cd16 O15 2.228 . S
Cd16 O20 2.273 . S
Cd16 O24 2.277 . S
O17 C14 1.160 . S
O17 Cd18 2.203 . S
Cd18 O17 2.203 . S
Cd18 O20 2.411 . S
Cd18 O21 2.333 . S
Cd18 O22 2.352 . S
Cd18 O26 2.277 . S
Cd18 O27 2.356 . S
C19 O24 1.209 . S
C19 O26 1.226 . S
O20 Cd16 2.273 . S
O20 Cd18 2.411 . S
O20 C23 1.320 . S
O21 Cd18 2.333 . S
O21 C23 1.214 . S
O22 Cd18 2.352 . S
O22 C25 1.258 . S
C23 O20 1.320 . S
C23 O21 1.214 . S
O24 Cd16 2.277 . S
O24 C19 1.209 . S
C25 O22 1.258 . S
C25 O27 1.282 . S
O26 Cd18 2.277 . S
O26 C19 1.226 . S
O27 Cd18 2.356 . S
O27 C25 1.282 . S
C28 O29 1.306 . S
C28 O31 1.160 . S
O29 C28 1.306 . S
O29 Cd30 2.228 . S
Cd30 O29 2.228 . S
Cd30 O34 2.273 . S
Cd30 O38 2.277 . S
O31 C28 1.160 . S
O31 Cd32 2.203 . S
Cd32 O31 2.203 . S
Cd32 O34 2.411 . S
Cd32 O35 2.333 . S
Cd32 O36 2.352 . S
Cd32 O40 2.277 . S
Cd32 O41 2.356 . S
C33 O38 1.209 . S
C33 O40 1.226 . S
O34 Cd30 2.273 . S
O34 Cd32 2.411 . S
O34 C37 1.320 . S
O35 Cd32 2.333 . S
O35 C37 1.214 . S
O36 Cd32 2.352 . S
O36 C39 1.258 . S
C37 O34 1.320 . S
C37 O35 1.214 . S
O38 Cd30 2.277 . S
O38 C33 1.209 . S
C39 O36 1.258 . S
C39 O41 1.282 . S
O40 Cd32 2.277 . S
O40 C33 1.226 . S
O41 Cd32 2.356 . S
O41 C39 1.282 . S
C42 O43 1.306 . S
C42 O45 1.160 . S
O43 C42 1.306 . S
O43 Cd44 2.228 . S
Cd44 O43 2.228 . S
Cd44 O48 2.273 . S
Cd44 O52 2.277 . S
O45 C42 1.160 . S
O45 Cd46 2.203 . S
Cd46 O45 2.203 . S
Cd46 O48 2.411 . S
Cd46 O49 2.333 . S
Cd46 O50 2.352 . S
Cd46 O54 2.277 . S
Cd46 O55 2.356 . S
C47 O52 1.209 . S
C47 O54 1.226 . S
O48 Cd44 2.273 . S
O48 Cd46 2.411 . S
O48 C51 1.320 . S
O49 Cd46 2.333 . S
O49 C51 1.214 . S
O50 Cd46 2.352 . S
O50 C53 1.258 . S
C51 O48 1.320 . S
C51 O49 1.214 . S
O52 Cd44 2.277 . S
O52 C47 1.209 . S
C53 O50 1.258 . S
C53 O55 1.282 . S
O54 Cd46 2.277 . S
O54 C47 1.226 . S
O55 Cd46 2.356 . S
O55 C53 1.282 . S
C56 O57 1.306 . S
C56 O59 1.160 . S
O57 C56 1.306 . S
O57 Cd58 2.228 . S
Cd58 O57 2.228 . S
Cd58 O62 2.273 . S
Cd58 O66 2.277 . S
O59 C56 1.160 . S
O59 Cd60 2.203 . S
Cd60 O59 2.203 . S
Cd60 O62 2.411 . S
Cd60 O63 2.333 . S
Cd60 O64 2.352 . S
Cd60 O68 2.277 . S
Cd60 O69 2.356 . S
C61 O66 1.209 . S
C61 O68 1.226 . S
O62 Cd58 2.273 . S
O62 Cd60 2.411 . S
O62 C65 1.320 . S
O63 Cd60 2.333 . S
O63 C65 1.214 . S
O64 Cd60 2.352 . S
O64 C67 1.258 . S
C65 O62 1.320 . S
C65 O63 1.214 . S
O66 Cd58 2.277 . S
O66 C61 1.209 . S
C67 O64 1.258 . S
C67 O69 1.282 . S
O68 Cd60 2.277 . S
O68 C61 1.226 . S
O69 Cd60 2.356 . S
O69 C67 1.282 . S
C70 O71 1.306 . S
C70 O73 1.160 . S
O71 C70 1.306 . S
O71 Cd72 2.228 . S
Cd72 O71 2.228 . S
Cd72 O76 2.273 . S
Cd72 O80 2.277 . S
O73 C70 1.160 . S
O73 Cd74 2.203 . S
Cd74 O73 2.203 . S
Cd74 O76 2.411 . S
Cd74 O77 2.333 . S
Cd74 O78 2.352 . S
Cd74 O82 2.277 . S
Cd74 O83 2.356 . S
C75 O80 1.209 . S
C75 O82 1.226 . S
O76 Cd72 2.273 . S
O76 Cd74 2.411 . S
O76 C79 1.320 . S
O77 Cd74 2.333 . S
O77 C79 1.214 . S
O78 Cd74 2.352 . S
O78 C81 1.258 . S
C79 O76 1.320 . S
C79 O77 1.214 . S
O80 Cd72 2.277 . S
O80 C75 1.209 . S
C81 O78 1.258 . S
C81 O83 1.282 . S
O82 Cd74 2.277 . S
O82 C75 1.226 . S
O83 Cd74 2.356 . S
O83 C81 1.282 . S
C84 O85 1.306 . S
C84 O87 1.160 . S
O85 C84 1.306 . S
O85 Cd86 2.228 . S
Cd86 O85 2.228 . S
Cd86 O90 2.273 . S
Cd86 O94 2.277 . S
O87 C84 1.160 . S
O87 Cd88 2.203 . S
Cd88 O87 2.203 . S
Cd88 O90 2.411 . S
Cd88 O91 2.333 . S
Cd88 O92 2.352 . S
Cd88 O96 2.277 . S
Cd88 O97 2.356 . S
C89 O94 1.209 . S
C89 O96 1.226 . S
O90 Cd86 2.273 . S
O90 Cd88 2.411 . S
O90 C93 1.320 . S
O91 Cd88 2.333 . S
O91 C93 1.214 . S
O92 Cd88 2.352 . S
O92 C95 1.258 . S
C93 O90 1.320 . S
C93 O91 1.214 . S
O94 Cd86 2.277 . S
O94 C89 1.209 . S
C95 O92 1.258 . S
C95 O97 1.282 . S
O96 Cd88 2.277 . S
O96 C89 1.226 . S
O97 Cd88 2.356 . S
O97 C95 1.282 . S
C98 O99 1.306 . S
C98 O101 1.160 . S
O99 C98 1.306 . S
O99 Cd100 2.228 1_655 S
Cd100 O99 2.228 1_455 S
Cd100 O104 2.273 . S
Cd100 O108 2.277 . S
O101 C98 1.160 . S
O101 Cd102 2.203 1_655 S
Cd102 O101 2.203 1_455 S
Cd102 O104 2.411 . S
Cd102 O105 2.333 . S
Cd102 O106 2.352 1_455 S
Cd102 O110 2.277 . S
Cd102 O111 2.356 . S
C103 O108 1.209 . S
C103 O110 1.226 . S
O104 Cd100 2.273 . S
O104 Cd102 2.411 . S
O104 C107 1.320 . S
O105 Cd102 2.333 . S
O105 C107 1.214 . S
O106 Cd102 2.352 1_655 S
O106 C109 1.258 . S
C107 O104 1.320 . S
C107 O105 1.214 . S
O108 Cd100 2.277 . S
O108 C103 1.209 . S
C109 O106 1.258 . S
C109 O111 1.282 1_655 S
O110 Cd102 2.277 . S
O110 C103 1.226 . S
O111 Cd102 2.356 . S
O111 C109 1.282 1_455 S
C112 O113 1.306 . S
C112 O115 1.160 . S
O113 C112 1.306 . S
O113 Cd114 2.228 . S
Cd114 O113 2.228 . S
Cd114 O118 2.273 . S
Cd114 O122 2.277 1_545 S
O115 C112 1.160 . S
O115 Cd116 2.203 . S
Cd116 O115 2.203 . S
Cd116 O118 2.411 . S
Cd116 O119 2.333 . S
Cd116 O120 2.352 . S
Cd116 O124 2.277 1_545 S
Cd116 O125 2.356 . S
C117 O122 1.209 . S
C117 O124 1.226 . S
O118 Cd114 2.273 . S
O118 Cd116 2.411 . S
O118 C121 1.320 . S
O119 Cd116 2.333 . S
O119 C121 1.214 . S
O120 Cd116 2.352 . S
O120 C123 1.258 . S
C121 O118 1.320 . S
C121 O119 1.214 . S
O122 Cd114 2.277 1_565 S
O122 C117 1.209 . S
C123 O120 1.258 . S
C123 O125 1.282 . S
O124 Cd116 2.277 1_565 S
O124 C117 1.226 . S
O125 Cd116 2.356 . S
O125 C123 1.282 . S
C126 O127 1.306 . S
C126 O129 1.160 . S
O127 C126 1.306 . S
O127 Cd128 2.228 . S
Cd128 O127 2.228 . S
Cd128 O132 2.273 . S
Cd128 O136 2.277 . S
O129 C126 1.160 . S
O129 Cd130 2.203 . S
Cd130 O129 2.203 . S
Cd130 O132 2.411 . S
Cd130 O133 2.333 . S
Cd130 O134 2.352 . S
Cd130 O138 2.277 . S
Cd130 O139 2.356 . S
C131 O136 1.209 . S
C131 O138 1.226 . S
O132 Cd128 2.273 . S
O132 Cd130 2.411 . S
O132 C135 1.320 . S
O133 Cd130 2.333 . S
O133 C135 1.214 . S
O134 Cd130 2.352 . S
O134 C137 1.258 . S
C135 O132 1.320 . S
C135 O133 1.214 . S
O136 Cd128 2.277 . S
O136 C131 1.209 . S
C137 O134 1.258 . S
C137 O139 1.282 . S
O138 Cd130 2.277 . S
O138 C131 1.226 . S
O139 Cd130 2.356 . S
O139 C137 1.282 . S
C140 O141 1.306 . S
C140 O143 1.160 . S
O141 C140 1.306 . S
O141 Cd142 2.228 . S
Cd142 O141 2.228 . S
Cd142 O146 2.273 . S
Cd142 O150 2.277 . S
O143 C140 1.160 . S
O143 Cd144 2.203 . S
Cd144 O143 2.203 . S
Cd144 O146 2.411 . S
Cd144 O147 2.333 . S
Cd144 O148 2.352 . S
Cd144 O152 2.277 . S
Cd144 O153 2.356 . S
C145 O150 1.209 . S
C145 O152 1.226 . S
O146 Cd142 2.273 . S
O146 Cd144 2.411 . S
O146 C149 1.320 . S
O147 Cd144 2.333 . S
O147 C149 1.214 . S
O148 Cd144 2.352 . S
O148 C151 1.258 . S
C149 O146 1.320 . S
C149 O147 1.214 . S
O150 Cd142 2.277 . S
O150 C145 1.209 . S
C151 O148 1.258 . S
C151 O153 1.282 . S
O152 Cd144 2.277 . S
O152 C145 1.226 . S
O153 Cd144 2.356 . S
O153 C151 1.282 . S
C154 O155 1.313 . S
C154 O157 1.154 1_556 S
O155 C154 1.313 . S
O155 Cd156 2.228 . S
Cd156 O155 2.228 . S
Cd156 O160 2.283 . S
Cd156 O164 2.277 . S
O157 C154 1.154 1_554 S
O157 Cd158 2.203 . S
Cd158 O157 2.203 . S
Cd158 O160 2.409 1_554 S
Cd158 O161 2.333 . S
Cd158 O162 2.352 . S
Cd158 O166 2.277 1_554 S
Cd158 O167 2.356 . S
C159 O164 1.209 . S
C159 O166 1.226 . S
O160 Cd156 2.283 . S
O160 Cd158 2.409 1_556 S
O160 C163 1.319 1_556 S
O161 Cd158 2.333 . S
O161 C163 1.213 . S
O162 Cd158 2.352 . S
O162 C165 1.258 . S
C163 O160 1.319 1_554 S
C163 O161 1.213 . S
O164 Cd156 2.277 . S
O164 C159 1.209 . S
C165 O162 1.258 . S
C165 O167 1.282 . S
O166 Cd158 2.277 1_556 S
O166 C159 1.226 . S
O167 Cd158 2.356 . S
O167 C165 1.282 . S
C168 O169 1.306 . S
C168 O171 1.160 . S
O169 C168 1.306 . S
O169 Cd170 2.228 . S
Cd170 O169 2.228 . S
Cd170 O174 2.273 . S
Cd170 O178 2.277 1_554 S
O171 C168 1.160 . S
O171 Cd172 2.203 . S
Cd172 O171 2.203 . S
Cd172 O174 2.411 . S
Cd172 O175 2.333 . S
Cd172 O176 2.352 . S
Cd172 O180 2.277 . S
Cd172 O181 2.356 . S
C173 O178 1.209 . S
C173 O180 1.226 1_556 S
O174 Cd170 2.273 . S
O174 Cd172 2.411 . S
O174 C177 1.320 . S
O175 Cd172 2.333 . S
O175 C177 1.214 . S
O176 Cd172 2.352 . S
O176 C179 1.258 . S
C177 O174 1.320 . S
C177 O175 1.214 . S
O178 Cd170 2.277 1_556 S
O178 C173 1.209 . S
C179 O176 1.258 . S
C179 O181 1.282 . S
O180 Cd172 2.277 . S
O180 C173 1.226 1_554 S
O181 Cd172 2.356 . S
O181 C179 1.282 . S
C182 O183 1.306 . S
C182 O185 1.160 . S
O183 C182 1.306 . S
O183 Cd184 2.228 . S
Cd184 O183 2.228 . S
Cd184 O188 2.273 . S
Cd184 O192 2.277 . S
O185 C182 1.160 . S
O185 Cd186 2.203 . S
Cd186 O185 2.203 . S
Cd186 O188 2.411 . S
Cd186 O189 2.333 . S
Cd186 O190 2.352 . S
Cd186 O194 2.277 . S
Cd186 O195 2.356 . S
C187 O192 1.209 . S
C187 O194 1.226 . S
O188 Cd184 2.273 . S
O188 Cd186 2.411 . S
O188 C191 1.320 . S
O189 Cd186 2.333 . S
O189 C191 1.214 . S
O190 Cd186 2.352 . S
O190 C193 1.258 . S
C191 O188 1.320 . S
C191 O189 1.214 . S
O192 Cd184 2.277 . S
O192 C187 1.209 . S
C193 O190 1.258 . S
C193 O195 1.282 . S
O194 Cd186 2.277 . S
O194 C187 1.226 . S
O195 Cd186 2.356 . S
O195 C193 1.282 . S
C196 O197 1.306 . S
C196 O199 1.160 . S
O197 C196 1.306 . S
O197 Cd198 2.228 . S
Cd198 O197 2.228 . S
Cd198 O202 2.273 . S
Cd198 O206 2.277 . S
O199 C196 1.160 . S
O199 Cd200 2.203 . S
Cd200 O199 2.203 . S
Cd200 O202 2.411 . S
Cd200 O203 2.333 . S
Cd200 O204 2.352 . S
Cd200 O208 2.277 . S
Cd200 O209 2.356 . S
C201 O206 1.209 . S
C201 O208 1.226 . S
O202 Cd198 2.273 . S
O202 Cd200 2.411 . S
O202 C205 1.320 . S
O203 Cd200 2.333 . S
O203 C205 1.214 . S
O204 Cd200 2.352 . S
O204 C207 1.258 . S
C205 O202 1.320 . S
C205 O203 1.214 . S
O206 Cd198 2.277 . S
O206 C201 1.209 . S
C207 O204 1.258 . S
C207 O209 1.282 . S
O208 Cd200 2.277 . S
O208 C201 1.226 . S
O209 Cd200 2.356 . S
O209 C207 1.282 . S
C210 O211 1.306 . S
C210 O213 1.160 . S
O211 C210 1.306 . S
O211 Cd212 2.228 . S
Cd212 O211 2.228 . S
Cd212 O216 2.273 . S
Cd212 O220 2.277 . S
O213 C210 1.160 . S
O213 Cd214 2.203 . S
Cd214 O213 2.203 . S
Cd214 O216 2.411 . S
Cd214 O217 2.333 . S
Cd214 O218 2.352 . S
Cd214 O222 2.277 . S
Cd214 O223 2.356 . S
C215 O220 1.209 . S
C215 O222 1.226 . S
O216 Cd212 2.273 . S
O216 Cd214 2.411 . S
O216 C219 1.320 . S
O217 Cd214 2.333 . S
O217 C219 1.214 . S
O218 Cd214 2.352 . S
O218 C221 1.258 . S
C219 O216 1.320 . S
C219 O217 1.214 . S
O220 Cd212 2.277 . S
O220 C215 1.209 . S
C221 O218 1.258 . S
C221 O223 1.282 . S
O222 Cd214 2.277 . S
O222 C215 1.226 . S
O223 Cd214 2.356 . S
O223 C221 1.282 . S
C224 O225 1.306 . S
C224 O227 1.160 . S
O225 C224 1.306 . S
O225 Cd226 2.228 1_545 S
Cd226 O225 2.228 1_565 S
Cd226 O230 2.273 1_565 S
Cd226 O234 2.277 . S
O227 C224 1.160 . S
O227 Cd228 2.203 . S
Cd228 O227 2.203 . S
Cd228 O230 2.411 . S
Cd228 O231 2.333 . S
Cd228 O232 2.352 . S
Cd228 O236 2.277 1_545 S
Cd228 O237 2.356 . S
C229 O234 1.209 . S
C229 O236 1.226 . S
O230 Cd226 2.273 1_545 S
O230 Cd228 2.411 . S
O230 C233 1.320 . S
O231 Cd228 2.333 . S
O231 C233 1.214 . S
O232 Cd228 2.352 . S
O232 C235 1.258 . S
C233 O230 1.320 . S
C233 O231 1.214 . S
O234 Cd226 2.277 . S
O234 C229 1.209 . S
C235 O232 1.258 . S
C235 O237 1.282 . S
O236 Cd228 2.277 1_565 S
O236 C229 1.226 . S
O237 Cd228 2.356 . S
O237 C235 1.282 . S
C238 O239 1.306 . S
C238 O241 1.160 . S
O239 C238 1.306 . S
O239 Cd240 2.228 . S
Cd240 O239 2.228 . S
Cd240 O244 2.273 . S
Cd240 O248 2.277 . S
O241 C238 1.160 . S
O241 Cd242 2.203 . S
Cd242 O241 2.203 . S
Cd242 O244 2.411 . S
Cd242 O245 2.333 . S
Cd242 O246 2.352 . S
Cd242 O250 2.277 . S
Cd242 O251 2.356 . S
C243 O248 1.209 . S
C243 O250 1.226 . S
O244 Cd240 2.273 . S
O244 Cd242 2.411 . S
O244 C247 1.320 . S
O245 Cd242 2.333 . S
O245 C247 1.214 . S
O246 Cd242 2.352 . S
O246 C249 1.258 . S
C247 O244 1.320 . S
C247 O245 1.214 . S
O248 Cd240 2.277 . S
O248 C243 1.209 . S
C249 O246 1.258 . S
C249 O251 1.282 . S
O250 Cd242 2.277 . S
O250 C243 1.226 . S
O251 Cd242 2.356 . S
O251 C249 1.282 . S
C252 O253 1.306 . S
C252 O255 1.160 . S
O253 C252 1.306 . S
O253 Cd254 2.228 . S
Cd254 O253 2.228 . S
Cd254 O258 2.273 . S
Cd254 O262 2.277 . S
O255 C252 1.160 . S
O255 Cd256 2.203 . S
Cd256 O255 2.203 . S
Cd256 O258 2.411 . S
Cd256 O259 2.333 . S
Cd256 O260 2.352 . S
Cd256 O264 2.277 . S
Cd256 O265 2.356 . S
C257 O262 1.209 . S
C257 O264 1.226 . S
O258 Cd254 2.273 . S
O258 Cd256 2.411 . S
O258 C261 1.320 . S
O259 Cd256 2.333 . S
O259 C261 1.214 . S
O260 Cd256 2.352 . S
O260 C263 1.258 . S
C261 O258 1.320 . S
C261 O259 1.214 . S
O262 Cd254 2.277 . S
O262 C257 1.209 . S
C263 O260 1.258 . S
C263 O265 1.282 . S
O264 Cd256 2.277 . S
O264 C257 1.226 . S
O265 Cd256 2.356 . S
O265 C263 1.282 . S
C266 O267 1.306 . S
C266 O269 1.160 . S
O267 C266 1.306 . S
O267 Cd268 2.228 . S
Cd268 O267 2.228 . S
Cd268 O272 2.273 . S
Cd268 O276 2.277 . S
O269 C266 1.160 . S
O269 Cd270 2.203 . S
Cd270 O269 2.203 . S
Cd270 O272 2.411 . S
Cd270 O273 2.333 . S
Cd270 O274 2.352 1_545 S
Cd270 O278 2.277 . S
Cd270 O279 2.356 . S
C271 O276 1.209 . S
C271 O278 1.226 . S
O272 Cd268 2.273 . S
O272 Cd270 2.411 . S
O272 C275 1.320 . S
O273 Cd270 2.333 . S
O273 C275 1.214 . S
O274 Cd270 2.352 1_565 S
O274 C277 1.258 . S
C275 O272 1.320 . S
C275 O273 1.214 . S
O276 Cd268 2.277 . S
O276 C271 1.209 . S
C277 O274 1.258 . S
C277 O279 1.282 1_565 S
O278 Cd270 2.277 . S
O278 C271 1.226 . S
O279 Cd270 2.356 . S
O279 C277 1.282 1_545 S
C280 O281 1.306 . S
C280 O283 1.160 . S
O281 C280 1.306 . S
O281 Cd282 2.228 . S
Cd282 O281 2.228 . S
Cd282 O286 2.273 . S
Cd282 O290 2.277 . S
O283 C280 1.160 . S
O283 Cd284 2.203 . S
Cd284 O283 2.203 . S
Cd284 O286 2.411 . S
Cd284 O287 2.333 . S
Cd284 O288 2.352 1_554 S
Cd284 O292 2.277 . S
Cd284 O293 2.356 . S
C285 O290 1.209 . S
C285 O292 1.226 . S
O286 Cd282 2.273 . S
O286 Cd284 2.411 . S
O286 C289 1.320 . S
O287 Cd284 2.333 . S
O287 C289 1.214 . S
O288 Cd284 2.352 1_556 S
O288 C291 1.258 . S
C289 O286 1.320 . S
C289 O287 1.214 . S
O290 Cd282 2.277 . S
O290 C285 1.209 . S
C291 O288 1.258 . S
C291 O293 1.282 1_556 S
O292 Cd284 2.277 . S
O292 C285 1.226 . S
O293 Cd284 2.356 . S
O293 C291 1.282 1_554 S
C294 O295 1.306 . S
C294 O297 1.160 . S
O295 C294 1.306 . S
O295 Cd296 2.228 . S
Cd296 O295 2.228 . S
Cd296 O300 2.273 . S
Cd296 O304 2.277 . S
O297 C294 1.160 . S
O297 Cd298 2.203 . S
Cd298 O297 2.203 . S
Cd298 O300 2.411 . S
Cd298 O301 2.333 . S
Cd298 O302 2.352 . S
Cd298 O306 2.277 . S
Cd298 O307 2.356 . S
C299 O304 1.209 . S
C299 O306 1.226 . S
O300 Cd296 2.273 . S
O300 Cd298 2.411 . S
O300 C303 1.320 . S
O301 Cd298 2.333 . S
O301 C303 1.214 . S
O302 Cd298 2.352 . S
O302 C305 1.258 . S
C303 O300 1.320 . S
C303 O301 1.214 . S
O304 Cd296 2.277 . S
O304 C299 1.209 . S
C305 O302 1.258 . S
C305 O307 1.282 . S
O306 Cd298 2.277 . S
O306 C299 1.226 . S
O307 Cd298 2.356 . S
O307 C305 1.282 . S
C308 O309 1.306 . S
C308 O311 1.160 . S
O309 C308 1.306 . S
O309 Cd310 2.228 . S
Cd310 O309 2.228 . S
Cd310 O314 2.273 . S
Cd310 O318 2.277 . S
O311 C308 1.160 . S
O311 Cd312 2.203 . S
Cd312 O311 2.203 . S
Cd312 O314 2.411 . S
Cd312 O315 2.333 . S
Cd312 O316 2.352 . S
Cd312 O320 2.277 . S
Cd312 O321 2.356 . S
C313 O318 1.209 . S
C313 O320 1.226 . S
O314 Cd310 2.273 . S
O314 Cd312 2.411 . S
O314 C317 1.320 . S
O315 Cd312 2.333 . S
O315 C317 1.214 . S
O316 Cd312 2.352 . S
O316 C319 1.258 . S
C317 O314 1.320 . S
C317 O315 1.214 . S
O318 Cd310 2.277 . S
O318 C313 1.209 . S
C319 O316 1.258 . S
C319 O321 1.282 . S
O320 Cd312 2.277 . S
O320 C313 1.226 . S
O321 Cd312 2.356 . S
O321 C319 1.282 . S
C322 O323 1.306 . S
C322 O325 1.160 . S
O323 C322 1.306 . S
O323 Cd324 2.228 . S
Cd324 O323 2.228 . S
Cd324 O328 2.273 . S
Cd324 O332 2.277 . S
O325 C322 1.160 . S
O325 Cd326 2.203 . S
Cd326 O325 2.203 . S
Cd326 O328 2.411 . S
Cd326 O329 2.333 . S
Cd326 O330 2.352 . S
Cd326 O334 2.277 . S
Cd326 O335 2.356 . S
C327 O332 1.209 . S
C327 O334 1.226 . S
O328 Cd324 2.273 . S
O328 Cd326 2.411 . S
O328 C331 1.320 . S
O329 Cd326 2.333 . S
O329 C331 1.214 . S
O330 Cd326 2.352 . S
O330 C333 1.258 . S
C331 O328 1.320 . S
C331 O329 1.214 . S
O332 Cd324 2.277 . S
O332 C327 1.209 . S
C333 O330 1.258 . S
C333 O335 1.282 . S
O334 Cd326 2.277 . S
O334 C327 1.226 . S
O335 Cd326 2.356 . S
O335 C333 1.282 . S
Tb336 C345 2.764 . S
Tb336 O346 2.325 . S
Tb336 O349 2.303 . S
Tb336 O353 2.322 . S
Tb336 O354 2.349 . S
Tb336 O357 2.415 . S
Tb336 O358 2.399 . S
Tb337 O347 2.322 1_545 S
Tb337 O348 2.349 1_554 S
Tb337 O350 2.415 1_455 S
Tb337 O351 2.399 1_454 S
Tb337 O352 2.325 . S
Tb337 O355 2.303 . S
Tb337 C366 2.764 1_455 S
C338 O354 1.261 . S
C338 O355 1.257 . S
C339 C342 1.358 . S
C339 C343 1.332 . S
C339 C345 1.504 . S
C340 C341 1.373 . S
C340 C344 1.308 . S
C341 C340 1.373 . S
C341 C342 1.429 . S
C341 H368 0.932 . S
C342 C339 1.358 . S
C342 C341 1.429 . S
C342 H369 0.930 . S
C343 C339 1.332 . S
C343 C344 1.394 . S
C343 H370 0.932 . S
C344 C340 1.308 . S
C344 C343 1.394 . S
C344 H371 0.929 . S
C345 Tb336 2.764 . S
C345 C339 1.504 . S
C345 O357 1.239 . S
C345 O358 1.263 . S
O346 Tb336 2.325 . S
O346 C356 1.236 1_545 S
O347 Tb337 2.322 1_565 S
O347 C356 1.257 . S
O348 Tb337 2.349 1_556 S
O348 C359 1.261 . S
O349 Tb336 2.303 . S
O349 C359 1.257 1_554 S
O350 Tb337 2.415 1_655 S
O350 C366 1.239 . S
O351 Tb337 2.399 1_656 S
O351 C366 1.263 1_556 S
O352 Tb337 2.325 . S
O352 C367 1.236 . S
O353 Tb336 2.322 . S
O353 C367 1.257 . S
O354 Tb336 2.349 . S
O354 C338 1.261 . S
O355 Tb337 2.303 . S
O355 C338 1.257 . S
C356 O346 1.236 1_565 S
C356 O347 1.257 . S
O357 Tb336 2.415 . S
O357 C345 1.239 . S
O358 Tb336 2.399 . S
O358 C345 1.263 . S
C359 O348 1.261 . S
C359 O349 1.257 1_556 S
C360 C363 1.358 1_554 S
C360 C364 1.332 . S
C360 C366 1.504 . S
C361 C362 1.342 1_554 S
C361 C365 1.343 . S
C362 C361 1.342 1_556 S
C362 C363 1.429 . S
C362 H372 0.932 . S
C363 C360 1.358 1_556 S
C363 C362 1.429 . S
C363 H373 0.930 . S
C364 C360 1.332 . S
C364 C365 1.394 . S
C364 H374 0.932 . S
C365 C361 1.343 . S
C365 C364 1.394 . S
C365 H375 0.929 . S
C366 Tb337 2.764 1_655 S
C366 O350 1.239 . S
C366 O351 1.263 1_554 S
C366 C360 1.504 . S
C367 O352 1.236 . S
C367 O353 1.257 . S
H368 C341 0.932 . S
H369 C342 0.930 . S
H370 C343 0.932 . S
H371 C344 0.929 . S
H372 C362 0.932 . S
H373 C363 0.930 . S
H374 C364 0.932 . S
H375 C365 0.929 . S
Tb376 C385 2.764 . S
Tb376 O386 2.325 . S
Tb376 O389 2.303 . S
Tb376 O393 2.322 . S
Tb376 O394 2.349 . S
Tb376 O397 2.415 . S
Tb376 O398 2.399 . S
Tb377 O387 2.322 . S
Tb377 O388 2.349 . S
Tb377 O390 2.415 . S
Tb377 O391 2.399 . S
Tb377 O392 2.325 . S
Tb377 O395 2.303 . S
Tb377 C406 2.764 . S
C378 O394 1.261 . S
C378 O395 1.257 . S
C379 C382 1.358 . S
C379 C383 1.332 . S
C379 C385 1.504 . S
C380 C381 1.373 . S
C380 C384 1.308 . S
C381 C380 1.373 . S
C381 C382 1.429 . S
C381 H408 0.932 . S
C382 C379 1.358 . S
C382 C381 1.429 . S
C382 H409 0.930 . S
C383 C379 1.332 . S
C383 C384 1.394 . S
C383 H410 0.932 . S
C384 C380 1.308 . S
C384 C383 1.394 . S
C384 H411 0.929 . S
C385 Tb376 2.764 . S
C385 C379 1.504 . S
C385 O397 1.239 . S
C385 O398 1.263 . S
O386 Tb376 2.325 . S
O386 C396 1.236 . S
O387 Tb377 2.322 . S
O387 C396 1.257 . S
O388 Tb377 2.349 . S
O388 C399 1.261 . S
O389 Tb376 2.303 . S
O389 C399 1.257 . S
O390 Tb377 2.415 . S
O390 C406 1.239 . S
O391 Tb377 2.399 . S
O391 C406 1.263 . S
O392 Tb377 2.325 . S
O392 C407 1.236 . S
O393 Tb376 2.322 . S
O393 C407 1.257 . S
O394 Tb376 2.349 . S
O394 C378 1.261 . S
O395 Tb377 2.303 . S
O395 C378 1.257 . S
C396 O386 1.236 . S
C396 O387 1.257 . S
O397 Tb376 2.415 . S
O397 C385 1.239 . S
O398 Tb376 2.399 . S
O398 C385 1.263 . S
C399 O388 1.261 . S
C399 O389 1.257 . S
C400 C403 1.358 . S
C400 C404 1.332 . S
C400 C406 1.504 . S
C401 C402 1.373 . S
C401 C405 1.308 . S
C402 C401 1.373 . S
C402 C403 1.429 . S
C402 H412 0.932 . S
C403 C400 1.358 . S
C403 C402 1.429 . S
C403 H413 0.930 . S
C404 C400 1.332 . S
C404 C405 1.394 . S
C404 H414 0.932 . S
C405 C401 1.308 . S
C405 C404 1.394 . S
C405 H415 0.929 . S
C406 Tb377 2.764 . S
C406 O390 1.239 . S
C406 O391 1.263 . S
C406 C400 1.504 . S
C407 O392 1.236 . S
C407 O393 1.257 . S
H408 C381 0.932 . S
H409 C382 0.930 . S
H410 C383 0.932 . S
H411 C384 0.929 . S
H412 C402 0.932 . S
H413 C403 0.930 . S
H414 C404 0.932 . S
H415 C405 0.929 . S
Tb416 C425 2.764 . S
Tb416 O426 2.325 . S
Tb416 O429 2.303 . S
Tb416 O433 2.322 1_545 S
Tb416 O434 2.349 . S
Tb416 O437 2.415 . S
Tb416 O438 2.399 . S
Tb417 O427 2.322 . S
Tb417 O428 2.349 . S
Tb417 O430 2.415 . S
Tb417 O431 2.399 . S
Tb417 O432 2.325 1_545 S
Tb417 O435 2.303 . S
Tb417 C446 2.764 . S
C418 O434 1.261 . S
C418 O435 1.257 . S
C419 C422 1.358 . S
C419 C423 1.332 . S
C419 C425 1.504 . S
C420 C421 1.373 . S
C420 C424 1.308 . S
C421 C420 1.373 . S
C421 C422 1.429 . S
C421 H448 0.932 . S
C422 C419 1.358 . S
C422 C421 1.429 . S
C422 H449 0.930 . S
C423 C419 1.332 . S
C423 C424 1.394 . S
C423 H450 0.932 . S
C424 C420 1.308 . S
C424 C423 1.394 . S
C424 H451 0.929 . S
C425 Tb416 2.764 . S
C425 C419 1.504 . S
C425 O437 1.239 . S
C425 O438 1.263 . S
O426 Tb416 2.325 . S
O426 C436 1.236 . S
O427 Tb417 2.322 . S
O427 C436 1.257 . S
O428 Tb417 2.349 . S
O428 C439 1.261 . S
O429 Tb416 2.303 . S
O429 C439 1.257 . S
O430 Tb417 2.415 . S
O430 C446 1.239 . S
O431 Tb417 2.399 . S
O431 C446 1.263 . S
O432 Tb417 2.325 1_565 S
O432 C447 1.236 . S
O433 Tb416 2.322 1_565 S
O433 C447 1.257 . S
O434 Tb416 2.349 . S
O434 C418 1.261 . S
O435 Tb417 2.303 . S
O435 C418 1.257 . S
C436 O426 1.236 . S
C436 O427 1.257 . S
O437 Tb416 2.415 . S
O437 C425 1.239 . S
O438 Tb416 2.399 . S
O438 C425 1.263 . S
C439 O428 1.261 . S
C439 O429 1.257 . S
C440 C443 1.358 1_565 S
C440 C444 1.332 . S
C440 C446 1.504 1_565 S
C441 C442 1.373 . S
C441 C445 1.308 . S
C442 C441 1.373 . S
C442 C443 1.429 1_565 S
C442 H452 0.932 . S
C443 C440 1.358 1_545 S
C443 C442 1.429 1_545 S
C443 H453 0.930 . S
C444 C440 1.332 . S
C444 C445 1.394 . S
C444 H454 0.932 . S
C445 C441 1.308 . S
C445 C444 1.394 . S
C445 H455 0.929 . S
C446 Tb417 2.764 . S
C446 O430 1.239 . S
C446 O431 1.263 . S
C446 C440 1.504 1_545 S
C447 O432 1.236 . S
C447 O433 1.257 . S
H448 C421 0.932 . S
H449 C422 0.930 . S
H450 C423 0.932 . S
H451 C424 0.929 . S
H452 C442 0.932 . S
H453 C443 0.930 . S
H454 C444 0.932 . S
H455 C445 0.929 . S
Tb456 C465 2.764 . S
Tb456 O466 2.325 . S
Tb456 O469 2.303 . S
Tb456 O473 2.322 . S
Tb456 O474 2.349 . S
Tb456 O477 2.415 . S
Tb456 O478 2.399 . S
Tb457 O467 2.322 . S
Tb457 O468 2.349 . S
Tb457 O470 2.415 . S
Tb457 O471 2.399 . S
Tb457 O472 2.325 . S
Tb457 O475 2.303 . S
Tb457 C486 2.764 . S
C458 O474 1.261 . S
C458 O475 1.257 . S
C459 C462 1.358 . S
C459 C463 1.332 . S
C459 C465 1.504 . S
C460 C461 1.373 . S
C460 C464 1.308 . S
C461 C460 1.373 . S
C461 C462 1.429 . S
C461 H488 0.932 . S
C462 C459 1.358 . S
C462 C461 1.429 . S
C462 H489 0.930 . S
C463 C459 1.332 . S
C463 C464 1.394 . S
C463 H490 0.932 . S
C464 C460 1.308 . S
C464 C463 1.394 . S
C464 H491 0.929 . S
C465 Tb456 2.764 . S
C465 C459 1.504 . S
C465 O477 1.239 . S
C465 O478 1.263 . S
O466 Tb456 2.325 . S
O466 C476 1.236 . S
O467 Tb457 2.322 . S
O467 C476 1.257 . S
O468 Tb457 2.349 . S
O468 C479 1.261 . S
O469 Tb456 2.303 . S
O469 C479 1.257 . S
O470 Tb457 2.415 . S
O470 C486 1.239 . S
O471 Tb457 2.399 . S
O471 C486 1.263 . S
O472 Tb457 2.325 . S
O472 C487 1.236 . S
O473 Tb456 2.322 . S
O473 C487 1.257 . S
O474 Tb456 2.349 . S
O474 C458 1.261 . S
O475 Tb457 2.303 . S
O475 C458 1.257 . S
C476 O466 1.236 . S
C476 O467 1.257 . S
O477 Tb456 2.415 . S
O477 C465 1.239 . S
O478 Tb456 2.399 . S
O478 C465 1.263 . S
C479 O468 1.261 . S
C479 O469 1.257 . S
C480 C483 1.358 . S
C480 C484 1.332 . S
C480 C486 1.504 . S
C481 C482 1.373 . S
C481 C485 1.308 . S
C482 C481 1.373 . S
C482 C483 1.429 . S
C482 H492 0.932 . S
C483 C480 1.358 . S
C483 C482 1.429 . S
C483 H493 0.930 . S
C484 C480 1.332 . S
C484 C485 1.394 . S
C484 H494 0.932 . S
C485 C481 1.308 . S
C485 C484 1.394 . S
C485 H495 0.929 . S
C486 Tb457 2.764 . S
C486 O470 1.239 . S
C486 O471 1.263 . S
C486 C480 1.504 . S
C487 O472 1.236 . S
C487 O473 1.257 . S
H488 C461 0.932 . S
H489 C462 0.930 . S
H490 C463 0.932 . S
H491 C464 0.929 . S
H492 C482 0.932 . S
H493 C483 0.930 . S
H494 C484 0.932 . S
H495 C485 0.929 . S
Tb496 C505 2.764 . S
Tb496 O506 2.325 . S
Tb496 O509 2.303 . S
Tb496 O513 2.322 . S
Tb496 O514 2.349 . S
Tb496 O517 2.415 . S
Tb496 O518 2.399 . S
Tb497 O507 2.322 1_545 S
Tb497 O508 2.349 . S
Tb497 O510 2.415 . S
Tb497 O511 2.399 . S
Tb497 O512 2.325 . S
Tb497 O515 2.303 . S
Tb497 C526 2.764 . S
C498 O514 1.261 . S
C498 O515 1.257 . S
C499 C502 1.358 . S
C499 C503 1.332 . S
C499 C505 1.504 . S
C500 C501 1.373 . S
C500 C504 1.308 . S
C501 C500 1.373 . S
C501 C502 1.429 . S
C501 H528 0.932 . S
C502 C499 1.358 . S
C502 C501 1.429 . S
C502 H529 0.930 . S
C503 C499 1.332 . S
C503 C504 1.394 . S
C503 H530 0.932 . S
C504 C500 1.308 . S
C504 C503 1.394 . S
C504 H531 0.929 . S
C505 Tb496 2.764 . S
C505 C499 1.504 . S
C505 O517 1.239 . S
C505 O518 1.263 . S
O506 Tb496 2.325 . S
O506 C516 1.236 1_545 S
O507 Tb497 2.322 1_565 S
O507 C516 1.257 . S
O508 Tb497 2.349 . S
O508 C519 1.261 . S
O509 Tb496 2.303 . S
O509 C519 1.257 . S
O510 Tb497 2.415 . S
O510 C526 1.239 . S
O511 Tb497 2.399 . S
O511 C526 1.263 . S
O512 Tb497 2.325 . S
O512 C527 1.236 . S
O513 Tb496 2.322 . S
O513 C527 1.257 . S
O514 Tb496 2.349 . S
O514 C498 1.261 . S
O515 Tb497 2.303 . S
O515 C498 1.257 . S
C516 O506 1.236 1_565 S
C516 O507 1.257 . S
O517 Tb496 2.415 . S
O517 C505 1.239 . S
O518 Tb496 2.399 . S
O518 C505 1.263 . S
C519 O508 1.261 . S
C519 O509 1.257 . S
C520 C523 1.358 . S
C520 C524 1.336 . S
C520 C526 1.504 . S
C521 C522 1.373 . S
C521 C525 1.308 1_455 S
C522 C521 1.373 . S
C522 C523 1.429 . S
C522 H532 0.932 . S
C523 C520 1.358 . S
C523 C522 1.429 . S
C523 H533 0.930 . S
C524 C520 1.336 . S
C524 C525 1.393 1_455 S
C524 H534 0.929 1_455 S
C525 C521 1.308 1_655 S
C525 C524 1.393 1_655 S
C525 H535 0.929 . S
C526 Tb497 2.764 . S
C526 O510 1.239 . S
C526 O511 1.263 . S
C526 C520 1.504 . S
C527 O512 1.236 . S
C527 O513 1.257 . S
H528 C501 0.932 . S
H529 C502 0.930 . S
H530 C503 0.932 . S
H531 C504 0.929 . S
H532 C522 0.932 . S
H533 C523 0.930 . S
H534 C524 0.929 1_655 S
H535 C525 0.929 . S
Tb536 C545 2.764 . S
Tb536 O546 2.325 . S
Tb536 O549 2.303 . S
Tb536 O553 2.322 . S
Tb536 O554 2.349 . S
Tb536 O557 2.415 . S
Tb536 O558 2.399 . S
Tb537 O547 2.322 . S
Tb537 O548 2.349 . S
Tb537 O550 2.415 . S
Tb537 O551 2.399 . S
Tb537 O552 2.325 . S
Tb537 O555 2.303 . S
Tb537 C566 2.764 . S
C538 O554 1.261 . S
C538 O555 1.257 . S
C539 C542 1.358 . S
C539 C543 1.332 . S
C539 C545 1.504 . S
C540 C541 1.373 . S
C540 C544 1.308 . S
C541 C540 1.373 . S
C541 C542 1.429 . S
C541 H568 0.932 . S
C542 C539 1.358 . S
C542 C541 1.429 . S
C542 H569 0.930 . S
C543 C539 1.332 . S
C543 C544 1.394 . S
C543 H570 0.932 . S
C544 C540 1.308 . S
C544 C543 1.394 . S
C544 H571 0.929 . S
C545 Tb536 2.764 . S
C545 C539 1.504 . S
C545 O557 1.239 . S
C545 O558 1.263 . S
O546 Tb536 2.325 . S
O546 C556 1.236 . S
O547 Tb537 2.322 . S
O547 C556 1.257 . S
O548 Tb537 2.349 . S
O548 C559 1.261 . S
O549 Tb536 2.303 . S
O549 C559 1.257 . S
O550 Tb537 2.415 . S
O550 C566 1.239 . S
O551 Tb537 2.399 . S
O551 C566 1.263 . S
O552 Tb537 2.325 . S
O552 C567 1.236 . S
O553 Tb536 2.322 . S
O553 C567 1.257 . S
O554 Tb536 2.349 . S
O554 C538 1.261 . S
O555 Tb537 2.303 . S
O555 C538 1.257 . S
C556 O546 1.236 . S
C556 O547 1.257 . S
O557 Tb536 2.415 . S
O557 C545 1.239 . S
O558 Tb536 2.399 . S
O558 C545 1.263 . S
C559 O548 1.261 . S
C559 O549 1.257 . S
C560 C563 1.358 . S
C560 C564 1.332 . S
C560 C566 1.504 . S
C561 C562 1.373 . S
C561 C565 1.308 . S
C562 C561 1.373 . S
C562 C563 1.429 . S
C562 H572 0.932 . S
C563 C560 1.358 . S
C563 C562 1.429 . S
C563 H573 0.930 . S
C564 C560 1.332 . S
C564 C565 1.394 . S
C564 H574 0.932 . S
C565 C561 1.308 . S
C565 C564 1.394 . S
C565 H575 0.929 . S
C566 Tb537 2.764 . S
C566 O550 1.239 . S
C566 O551 1.263 . S
C566 C560 1.504 . S
C567 O552 1.236 . S
C567 O553 1.257 . S
H568 C541 0.932 . S
H569 C542 0.930 . S
H570 C543 0.932 . S
H571 C544 0.929 . S
H572 C562 0.932 . S
H573 C563 0.930 . S
H574 C564 0.932 . S
H575 C565 0.929 . S
Tb576 C585 2.764 . S
Tb576 O586 2.325 . S
Tb576 O589 2.303 . S
Tb576 O593 2.322 1_545 S
Tb576 O594 2.349 . S
Tb576 O597 2.415 . S
Tb576 O598 2.399 . S
Tb577 O587 2.322 . S
Tb577 O588 2.349 . S
Tb577 O590 2.415 1_554 S
Tb577 O591 2.399 1_554 S
Tb577 O592 2.325 1_554 S
Tb577 O595 2.303 . S
Tb577 C606 2.764 1_554 S
C578 O594 1.261 . S
C578 O595 1.257 . S
C579 C582 1.358 . S
C579 C583 1.332 . S
C579 C585 1.504 . S
C580 C581 1.373 . S
C580 C584 1.308 . S
C581 C580 1.373 . S
C581 C582 1.429 . S
C581 H608 0.932 . S
C582 C579 1.358 . S
C582 C581 1.429 . S
C582 H609 0.930 . S
C583 C579 1.332 . S
C583 C584 1.394 . S
C583 H610 0.932 . S
C584 C580 1.308 . S
C584 C583 1.394 . S
C584 H611 0.929 . S
C585 Tb576 2.764 . S
C585 C579 1.504 . S
C585 O597 1.239 . S
C585 O598 1.263 . S
O586 Tb576 2.325 . S
O586 C596 1.236 . S
O587 Tb577 2.322 . S
O587 C596 1.257 . S
O588 Tb577 2.349 . S
O588 C599 1.261 . S
O589 Tb576 2.303 . S
O589 C599 1.257 . S
O590 Tb577 2.415 1_556 S
O590 C606 1.239 . S
O591 Tb577 2.399 1_556 S
O591 C606 1.263 . S
O592 Tb577 2.325 1_556 S
O592 C607 1.236 1_546 S
O593 Tb576 2.322 1_565 S
O593 C607 1.257 . S
O594 Tb576 2.349 . S
O594 C578 1.261 . S
O595 Tb577 2.303 . S
O595 C578 1.257 . S
C596 O586 1.236 . S
C596 O587 1.257 . S
O597 Tb576 2.415 . S
O597 C585 1.239 . S
O598 Tb576 2.399 . S
O598 C585 1.263 . S
C599 O588 1.261 . S
C599 O589 1.257 . S
C600 C603 1.358 . S
C600 C604 1.332 . S
C600 C606 1.504 . S
C601 C602 1.373 . S
C601 C605 1.308 . S
C602 C601 1.373 . S
C602 C603 1.429 . S
C602 H612 0.932 . S
C603 C600 1.358 . S
C603 C602 1.429 . S
C603 H613 0.930 . S
C604 C600 1.332 . S
C604 C605 1.394 . S
C604 H614 0.932 . S
C605 C601 1.308 . S
C605 C604 1.394 . S
C605 H615 0.929 . S
C606 Tb577 2.764 1_556 S
C606 O590 1.239 . S
C606 O591 1.263 . S
C606 C600 1.504 . S
C607 O592 1.236 1_564 S
C607 O593 1.257 . S
H608 C581 0.932 . S
H609 C582 0.930 . S
H610 C583 0.932 . S
H611 C584 0.929 . S
H612 C602 0.932 . S
H613 C603 0.930 . S
H614 C604 0.932 . S
H615 C605 0.929 . S
Tb616 C625 2.764 . S
Tb616 O626 2.325 . S
Tb616 O629 2.303 . S
Tb616 O633 2.322 . S
Tb616 O634 2.349 . S
Tb616 O637 2.415 . S
Tb616 O638 2.399 . S
Tb617 O627 2.322 . S
Tb617 O628 2.349 . S
Tb617 O630 2.415 . S
Tb617 O631 2.399 . S
Tb617 O632 2.325 . S
Tb617 O635 2.303 . S
Tb617 C646 2.764 . S
C618 O634 1.261 . S
C618 O635 1.257 . S
C619 C622 1.358 . S
C619 C623 1.332 . S
C619 C625 1.504 . S
C620 C621 1.373 . S
C620 C624 1.308 . S
C621 C620 1.373 . S
C621 C622 1.429 . S
C621 H648 0.932 . S
C622 C619 1.358 . S
C622 C621 1.429 . S
C622 H649 0.930 . S
C623 C619 1.332 . S
C623 C624 1.394 . S
C623 H650 0.932 . S
C624 C620 1.308 . S
C624 C623 1.394 . S
C624 H651 0.929 . S
C625 Tb616 2.764 . S
C625 C619 1.504 . S
C625 O637 1.239 . S
C625 O638 1.263 . S
O626 Tb616 2.325 . S
O626 C636 1.236 . S
O627 Tb617 2.322 . S
O627 C636 1.257 . S
O628 Tb617 2.349 . S
O628 C639 1.261 . S
O629 Tb616 2.303 . S
O629 C639 1.257 . S
O630 Tb617 2.415 . S
O630 C646 1.239 . S
O631 Tb617 2.399 . S
O631 C646 1.263 . S
O632 Tb617 2.325 . S
O632 C647 1.236 . S
O633 Tb616 2.322 . S
O633 C647 1.257 . S
O634 Tb616 2.349 . S
O634 C618 1.261 . S
O635 Tb617 2.303 . S
O635 C618 1.257 . S
C636 O626 1.236 . S
C636 O627 1.257 . S
O637 Tb616 2.415 . S
O637 C625 1.239 . S
O638 Tb616 2.399 . S
O638 C625 1.263 . S
C639 O628 1.261 . S
C639 O629 1.257 . S
C640 C643 1.358 . S
C640 C644 1.332 . S
C640 C646 1.504 . S
C641 C642 1.373 . S
C641 C645 1.308 . S
C642 C641 1.373 . S
C642 C643 1.429 . S
C642 H652 0.932 . S
C643 C640 1.358 . S
C643 C642 1.429 . S
C643 H653 0.930 . S
C644 C640 1.332 . S
C644 C645 1.394 . S
C644 H654 0.932 . S
C645 C641 1.308 . S
C645 C644 1.394 . S
C645 H655 0.929 . S
C646 Tb617 2.764 . S
C646 O630 1.239 . S
C646 O631 1.263 . S
C646 C640 1.504 . S
C647 O632 1.236 . S
C647 O633 1.257 . S
H648 C621 0.932 . S
H649 C622 0.930 . S
H650 C623 0.932 . S
H651 C624 0.929 . S
H652 C642 0.932 . S
H653 C643 0.930 . S
H654 C644 0.932 . S
H655 C645 0.929 . S
Tb656 C665 2.764 . S
Tb656 O666 2.325 . S
Tb656 O669 2.303 . S
Tb656 O673 2.322 . S
Tb656 O674 2.349 . S
Tb656 O677 2.415 . S
Tb656 O678 2.399 . S
Tb657 O667 2.322 . S
Tb657 O668 2.349 . S
Tb657 O670 2.415 1_554 S
Tb657 O671 2.399 1_554 S
Tb657 O672 2.327 . S
Tb657 O675 2.303 . S
Tb657 C686 2.764 1_554 S
C658 O674 1.261 . S
C658 O675 1.257 . S
C659 C662 1.358 . S
C659 C663 1.332 . S
C659 C665 1.504 . S
C660 C661 1.373 . S
C660 C664 1.308 . S
C661 C660 1.373 . S
C661 C662 1.429 . S
C661 H688 0.932 . S
C662 C659 1.358 . S
C662 C661 1.429 . S
C662 H689 0.930 . S
C663 C659 1.332 . S
C663 C664 1.394 . S
C663 H690 0.932 . S
C664 C660 1.308 . S
C664 C663 1.394 . S
C664 H691 0.929 . S
C665 Tb656 2.764 . S
C665 C659 1.504 . S
C665 O677 1.239 . S
C665 O678 1.263 . S
O666 Tb656 2.325 . S
O666 C676 1.236 . S
O667 Tb657 2.322 . S
O667 C676 1.257 . S
O668 Tb657 2.349 . S
O668 C679 1.261 . S
O669 Tb656 2.303 . S
O669 C679 1.257 . S
O670 Tb657 2.415 1_556 S
O670 C686 1.239 . S
O671 Tb657 2.399 1_556 S
O671 C686 1.263 . S
O672 Tb657 2.327 . S
O672 C687 1.246 . S
O673 Tb656 2.322 . S
O673 C687 1.257 . S
O674 Tb656 2.349 . S
O674 C658 1.261 . S
O675 Tb657 2.303 . S
O675 C658 1.257 . S
C676 O666 1.236 . S
C676 O667 1.257 . S
O677 Tb656 2.415 . S
O677 C665 1.239 . S
O678 Tb656 2.399 . S
O678 C665 1.263 . S
C679 O668 1.261 . S
C679 O669 1.257 . S
C680 C683 1.358 . S
C680 C684 1.332 . S
C680 C686 1.504 . S
C681 C682 1.373 . S
C681 C685 1.308 . S
C682 C681 1.373 . S
C682 C683 1.429 . S
C682 H692 0.932 . S
C683 C680 1.358 . S
C683 C682 1.429 . S
C683 H693 0.930 . S
C684 C680 1.332 . S
C684 C685 1.394 . S
C684 H694 0.932 . S
C685 C681 1.308 . S
C685 C684 1.394 . S
C685 H695 0.929 . S
C686 Tb657 2.764 1_556 S
C686 O670 1.239 . S
C686 O671 1.263 . S
C686 C680 1.504 . S
C687 O672 1.246 . S
C687 O673 1.257 . S
H688 C661 0.932 . S
H689 C662 0.930 . S
H690 C663 0.932 . S
H691 C664 0.929 . S
H692 C682 0.932 . S
H693 C683 0.930 . S
H694 C684 0.932 . S
H695 C685 0.929 . S
Tb696 C705 2.764 . S
Tb696 O706 2.325 . S
Tb696 O709 2.303 . S
Tb696 O713 2.322 . S
Tb696 O714 2.349 . S
Tb696 O717 2.415 . S
Tb696 O718 2.399 . S
Tb697 O707 2.322 . S
Tb697 O708 2.349 . S
Tb697 O710 2.415 . S
Tb697 O711 2.399 . S
Tb697 O712 2.325 . S
Tb697 O715 2.303 . S
Tb697 C726 2.764 . S
C698 O714 1.261 . S
C698 O715 1.257 . S
C699 C702 1.358 . S
C699 C703 1.332 . S
C699 C705 1.504 . S
C700 C701 1.373 . S
C700 C704 1.308 . S
C701 C700 1.373 . S
C701 C702 1.429 . S
C701 H728 0.932 . S
C702 C699 1.358 . S
C702 C701 1.429 . S
C702 H729 0.930 . S
C703 C699 1.332 . S
C703 C704 1.394 . S
C703 H730 0.932 . S
C704 C700 1.308 . S
C704 C703 1.394 . S
C704 H731 0.929 . S
C705 Tb696 2.764 . S
C705 C699 1.504 . S
C705 O717 1.239 . S
C705 O718 1.263 . S
O706 Tb696 2.325 . S
O706 C716 1.236 . S
O707 Tb697 2.322 . S
O707 C716 1.257 . S
O708 Tb697 2.349 . S
O708 C719 1.261 . S
O709 Tb696 2.303 . S
O709 C719 1.257 . S
O710 Tb697 2.415 . S
O710 C726 1.239 . S
O711 Tb697 2.399 . S
O711 C726 1.263 . S
O712 Tb697 2.325 . S
O712 C727 1.236 . S
O713 Tb696 2.322 . S
O713 C727 1.257 . S
O714 Tb696 2.349 . S
O714 C698 1.261 . S
O715 Tb697 2.303 . S
O715 C698 1.257 . S
C716 O706 1.236 . S
C716 O707 1.257 . S
O717 Tb696 2.415 . S
O717 C705 1.239 . S
O718 Tb696 2.399 . S
O718 C705 1.263 . S
C719 O708 1.261 . S
C719 O709 1.257 . S
C720 C723 1.358 . S
C720 C724 1.332 . S
C720 C726 1.504 . S
C721 C722 1.373 . S
C721 C725 1.308 . S
C722 C721 1.373 . S
C722 C723 1.429 . S
C722 H732 0.932 . S
C723 C720 1.358 . S
C723 C722 1.429 . S
C723 H733 0.930 . S
C724 C720 1.332 . S
C724 C725 1.394 . S
C724 H734 0.932 . S
C725 C721 1.308 . S
C725 C724 1.394 . S
C725 H735 0.929 . S
C726 Tb697 2.764 . S
C726 O710 1.239 . S
C726 O711 1.263 . S
C726 C720 1.504 . S
C727 O712 1.236 . S
C727 O713 1.257 . S
H728 C701 0.932 . S
H729 C702 0.930 . S
H730 C703 0.932 . S
H731 C704 0.929 . S
H732 C722 0.932 . S
H733 C723 0.930 . S
H734 C724 0.932 . S
H735 C725 0.929 . S
Tb736 C745 2.764 . S
Tb736 O746 2.325 . S
Tb736 O749 2.303 . S
Tb736 O753 2.322 . S
Tb736 O754 2.349 . S
Tb736 O757 2.415 . S
Tb736 O758 2.399 . S
Tb737 O747 2.322 . S
Tb737 O748 2.349 . S
Tb737 O750 2.415 . S
Tb737 O751 2.399 . S
Tb737 O752 2.325 . S
Tb737 O755 2.303 . S
Tb737 C766 2.764 . S
C738 O754 1.261 . S
C738 O755 1.257 . S
C739 C742 1.358 . S
C739 C743 1.332 . S
C739 C745 1.504 . S
C740 C741 1.373 . S
C740 C744 1.308 1_455 S
C741 C740 1.373 . S
C741 C742 1.429 . S
C741 H768 0.932 . S
C742 C739 1.358 . S
C742 C741 1.429 . S
C742 H769 0.930 . S
C743 C739 1.332 . S
C743 C744 1.394 1_455 S
C743 H770 0.932 1_455 S
C744 C740 1.308 1_655 S
C744 C743 1.394 1_655 S
C744 H771 0.929 . S
C745 Tb736 2.764 . S
C745 C739 1.504 . S
C745 O757 1.239 . S
C745 O758 1.263 . S
O746 Tb736 2.325 . S
O746 C756 1.236 . S
O747 Tb737 2.322 . S
O747 C756 1.257 . S
O748 Tb737 2.349 . S
O748 C759 1.261 1_455 S
O749 Tb736 2.303 . S
O749 C759 1.257 1_455 S
O750 Tb737 2.415 . S
O750 C766 1.239 . S
O751 Tb737 2.399 . S
O751 C766 1.263 . S
O752 Tb737 2.325 . S
O752 C767 1.236 . S
O753 Tb736 2.322 . S
O753 C767 1.257 . S
O754 Tb736 2.349 . S
O754 C738 1.261 . S
O755 Tb737 2.303 . S
O755 C738 1.257 . S
C756 O746 1.236 . S
C756 O747 1.257 . S
O757 Tb736 2.415 . S
O757 C745 1.239 . S
O758 Tb736 2.399 . S
O758 C745 1.263 . S
C759 O748 1.261 1_655 S
C759 O749 1.257 1_655 S
C760 C763 1.358 . S
C760 C764 1.332 . S
C760 C766 1.504 . S
C761 C762 1.373 . S
C761 C765 1.308 . S
C762 C761 1.373 . S
C762 C763 1.429 . S
C762 H772 0.932 . S
C763 C760 1.358 . S
C763 C762 1.429 . S
C763 H773 0.930 . S
C764 C760 1.332 . S
C764 C765 1.394 . S
C764 H774 0.932 . S
C765 C761 1.308 . S
C765 C764 1.394 . S
C765 H775 0.929 . S
C766 Tb737 2.764 . S
C766 O750 1.239 . S
C766 O751 1.263 . S
C766 C760 1.504 . S
C767 O752 1.236 . S
C767 O753 1.257 . S
H768 C741 0.932 . S
H769 C742 0.930 . S
H770 C743 0.932 1_655 S
H771 C744 0.929 . S
H772 C762 0.932 . S
H773 C763 0.930 . S
H774 C764 0.932 . S
H775 C765 0.929 . S
Tb776 C785 2.764 . S
Tb776 O786 2.325 . S
Tb776 O789 2.303 . S
Tb776 O793 2.322 . S
Tb776 O794 2.349 . S
Tb776 O797 2.415 . S
Tb776 O798 2.399 . S
Tb777 O787 2.322 . S
Tb777 O788 2.349 . S
Tb777 O790 2.415 . S
Tb777 O791 2.399 . S
Tb777 O792 2.325 . S
Tb777 O795 2.303 . S
Tb777 C806 2.764 . S
C778 O794 1.261 . S
C778 O795 1.257 . S
C779 C782 1.358 . S
C779 C783 1.332 . S
C779 C785 1.504 . S
C780 C781 1.373 . S
C780 C784 1.308 . S
C781 C780 1.373 . S
C781 C782 1.429 . S
C781 H808 0.932 . S
C782 C779 1.358 . S
C782 C781 1.429 . S
C782 H809 0.930 . S
C783 C779 1.332 . S
C783 C784 1.394 . S
C783 H810 0.932 . S
C784 C780 1.308 . S
C784 C783 1.394 . S
C784 H811 0.929 . S
C785 Tb776 2.764 . S
C785 C779 1.504 . S
C785 O797 1.239 . S
C785 O798 1.263 . S
O786 Tb776 2.325 . S
O786 C796 1.236 . S
O787 Tb777 2.322 . S
O787 C796 1.257 . S
O788 Tb777 2.349 . S
O788 C799 1.261 . S
O789 Tb776 2.303 . S
O789 C799 1.257 . S
O790 Tb777 2.415 . S
O790 C806 1.239 . S
O791 Tb777 2.399 . S
O791 C806 1.263 . S
O792 Tb777 2.325 . S
O792 C807 1.236 . S
O793 Tb776 2.322 . S
O793 C807 1.257 . S
O794 Tb776 2.349 . S
O794 C778 1.261 . S
O795 Tb777 2.303 . S
O795 C778 1.257 . S
C796 O786 1.236 . S
C796 O787 1.257 . S
O797 Tb776 2.415 . S
O797 C785 1.239 . S
O798 Tb776 2.399 . S
O798 C785 1.263 . S
C799 O788 1.261 . S
C799 O789 1.257 . S
C800 C803 1.358 . S
C800 C804 1.332 . S
C800 C806 1.504 . S
C801 C802 1.373 . S
C801 C805 1.308 . S
C802 C801 1.373 . S
C802 C803 1.429 . S
C802 H812 0.932 . S
C803 C800 1.358 . S
C803 C802 1.429 . S
C803 H813 0.930 . S
C804 C800 1.332 . S
C804 C805 1.394 . S
C804 H814 0.932 . S
C805 C801 1.308 . S
C805 C804 1.394 . S
C805 H815 0.929 . S
C806 Tb777 2.764 . S
C806 O790 1.239 . S
C806 O791 1.263 . S
C806 C800 1.504 . S
C807 O792 1.236 . S
C807 O793 1.257 . S
H808 C781 0.932 . S
H809 C782 0.930 . S
H810 C783 0.932 . S
H811 C784 0.929 . S
H812 C802 0.932 . S
H813 C803 0.930 . S
H814 C804 0.932 . S
H815 C805 0.929 . S
Tb816 C825 2.764 . S
Tb816 O826 2.325 . S
Tb816 O829 2.303 . S
Tb816 O833 2.322 . S
Tb816 O834 2.349 . S
Tb816 O837 2.415 . S
Tb816 O838 2.399 . S
Tb817 O827 2.322 . S
Tb817 O828 2.349 . S
Tb817 O830 2.415 . S
Tb817 O831 2.399 . S
Tb817 O832 2.325 . S
Tb817 O835 2.303 . S
Tb817 C846 2.764 . S
C818 O834 1.261 . S
C818 O835 1.257 . S
C819 C822 1.358 . S
C819 C823 1.332 . S
C819 C825 1.504 . S
C820 C821 1.373 . S
C820 C824 1.308 . S
C821 C820 1.373 . S
C821 C822 1.429 . S
C821 H848 0.932 . S
C822 C819 1.358 . S
C822 C821 1.429 . S
C822 H849 0.930 . S
C823 C819 1.332 . S
C823 C824 1.394 . S
C823 H850 0.932 . S
C824 C820 1.308 . S
C824 C823 1.394 . S
C824 H851 0.929 . S
C825 Tb816 2.764 . S
C825 C819 1.504 . S
C825 O837 1.239 . S
C825 O838 1.263 . S
O826 Tb816 2.325 . S
O826 C836 1.236 . S
O827 Tb817 2.322 . S
O827 C836 1.257 . S
O828 Tb817 2.349 . S
O828 C839 1.261 . S
O829 Tb816 2.303 . S
O829 C839 1.257 . S
O830 Tb817 2.415 . S
O830 C846 1.239 . S
O831 Tb817 2.399 . S
O831 C846 1.263 . S
O832 Tb817 2.325 . S
O832 C847 1.236 . S
O833 Tb816 2.322 . S
O833 C847 1.257 . S
O834 Tb816 2.349 . S
O834 C818 1.261 . S
O835 Tb817 2.303 . S
O835 C818 1.257 . S
C836 O826 1.236 . S
C836 O827 1.257 . S
O837 Tb816 2.415 . S
O837 C825 1.239 . S
O838 Tb816 2.399 . S
O838 C825 1.263 . S
C839 O828 1.261 . S
C839 O829 1.257 . S
C840 C843 1.358 . S
C840 C844 1.332 . S
C840 C846 1.504 . S
C841 C842 1.373 . S
C841 C845 1.308 . S
C842 C841 1.373 . S
C842 C843 1.429 . S
C842 H852 0.932 . S
C843 C840 1.358 . S
C843 C842 1.429 . S
C843 H853 0.930 . S
C844 C840 1.332 . S
C844 C845 1.394 . S
C844 H854 0.932 . S
C845 C841 1.308 . S
C845 C844 1.394 . S
C845 H855 0.929 . S
C846 Tb817 2.764 . S
C846 O830 1.239 . S
C846 O831 1.263 . S
C846 C840 1.504 . S
C847 O832 1.236 . S
C847 O833 1.257 . S
H848 C821 0.932 . S
H849 C822 0.930 . S
H850 C823 0.932 . S
H851 C824 0.929 . S
H852 C842 0.932 . S
H853 C843 0.930 . S
H854 C844 0.932 . S
H855 C845 0.929 . S
Tb856 C865 2.764 . S
Tb856 O866 2.325 . S
Tb856 O869 2.303 . S
Tb856 O873 2.322 . S
Tb856 O874 2.349 . S
Tb856 O877 2.415 . S
Tb856 O878 2.399 . S
Tb857 O867 2.322 . S
Tb857 O868 2.349 . S
Tb857 O870 2.415 . S
Tb857 O871 2.399 . S
Tb857 O872 2.325 . S
Tb857 O875 2.303 . S
Tb857 C886 2.764 . S
C858 O874 1.261 . S
C858 O875 1.257 . S
C859 C862 1.358 . S
C859 C863 1.332 . S
C859 C865 1.504 . S
C860 C861 1.373 . S
C860 C864 1.308 . S
C861 C860 1.373 . S
C861 C862 1.429 . S
C861 H888 0.932 . S
C862 C859 1.358 . S
C862 C861 1.429 . S
C862 H889 0.930 . S
C863 C859 1.332 . S
C863 C864 1.394 . S
C863 H890 0.932 . S
C864 C860 1.308 . S
C864 C863 1.394 . S
C864 H891 0.929 . S
C865 Tb856 2.764 . S
C865 C859 1.504 . S
C865 O877 1.239 . S
C865 O878 1.263 . S
O866 Tb856 2.325 . S
O866 C876 1.236 . S
O867 Tb857 2.322 . S
O867 C876 1.257 . S
O868 Tb857 2.349 . S
O868 C879 1.261 . S
O869 Tb856 2.303 . S
O869 C879 1.257 . S
O870 Tb857 2.415 . S
O870 C886 1.239 . S
O871 Tb857 2.399 . S
O871 C886 1.263 . S
O872 Tb857 2.325 . S
O872 C887 1.236 . S
O873 Tb856 2.322 . S
O873 C887 1.257 . S
O874 Tb856 2.349 . S
O874 C858 1.261 . S
O875 Tb857 2.303 . S
O875 C858 1.257 . S
C876 O866 1.236 . S
C876 O867 1.257 . S
O877 Tb856 2.415 . S
O877 C865 1.239 . S
O878 Tb856 2.399 . S
O878 C865 1.263 . S
C879 O868 1.261 . S
C879 O869 1.257 . S
C880 C883 1.358 . S
C880 C884 1.332 . S
C880 C886 1.504 . S
C881 C882 1.373 . S
C881 C885 1.308 . S
C882 C881 1.373 . S
C882 C883 1.429 . S
C882 H892 0.932 . S
C883 C880 1.358 . S
C883 C882 1.429 . S
C883 H893 0.930 . S
C884 C880 1.332 . S
C884 C885 1.394 . S
C884 H894 0.932 . S
C885 C881 1.308 . S
C885 C884 1.394 . S
C885 H895 0.929 . S
C886 Tb857 2.764 . S
C886 O870 1.239 . S
C886 O871 1.263 . S
C886 C880 1.504 . S
C887 O872 1.236 . S
C887 O873 1.257 . S
H888 C861 0.932 . S
H889 C862 0.930 . S
H890 C863 0.932 . S
H891 C864 0.929 . S
H892 C882 0.932 . S
H893 C883 0.930 . S
H894 C884 0.932 . S
H895 C885 0.929 . S
Tb896 C905 2.764 . S
Tb896 O906 2.325 . S
Tb896 O909 2.303 . S
Tb896 O913 2.322 . S
Tb896 O914 2.349 . S
Tb896 O917 2.415 . S
Tb896 O918 2.399 . S
Tb897 O907 2.322 . S
Tb897 O908 2.349 . S
Tb897 O910 2.415 . S
Tb897 O911 2.399 . S
Tb897 O912 2.325 . S
Tb897 O915 2.303 . S
Tb897 C926 2.764 . S
C898 O914 1.261 . S
C898 O915 1.257 . S
C899 C902 1.358 . S
C899 C903 1.332 . S
C899 C905 1.504 . S
C900 C901 1.373 . S
C900 C904 1.308 . S
C901 C900 1.373 . S
C901 C902 1.429 . S
C901 H928 0.932 . S
C902 C899 1.358 . S
C902 C901 1.429 . S
C902 H929 0.930 . S
C903 C899 1.332 . S
C903 C904 1.394 . S
C903 H930 0.932 . S
C904 C900 1.308 . S
C904 C903 1.394 . S
C904 H931 0.929 . S
C905 Tb896 2.764 . S
C905 C899 1.504 . S
C905 O917 1.239 . S
C905 O918 1.263 . S
O906 Tb896 2.325 . S
O906 C916 1.236 . S
O907 Tb897 2.322 . S
O907 C916 1.257 . S
O908 Tb897 2.349 . S
O908 C919 1.261 . S
O909 Tb896 2.303 . S
O909 C919 1.257 . S
O910 Tb897 2.415 . S
O910 C926 1.239 . S
O911 Tb897 2.399 . S
O911 C926 1.263 . S
O912 Tb897 2.325 . S
O912 C927 1.236 . S
O913 Tb896 2.322 . S
O913 C927 1.257 . S
O914 Tb896 2.349 . S
O914 C898 1.261 . S
O915 Tb897 2.303 . S
O915 C898 1.257 . S
C916 O906 1.236 . S
C916 O907 1.257 . S
O917 Tb896 2.415 . S
O917 C905 1.239 . S
O918 Tb896 2.399 . S
O918 C905 1.263 . S
C919 O908 1.261 . S
C919 O909 1.257 . S
C920 C923 1.358 . S
C920 C924 1.332 . S
C920 C926 1.504 . S
C921 C922 1.373 . S
C921 C925 1.308 . S
C922 C921 1.373 . S
C922 C923 1.429 . S
C922 H932 0.932 . S
C923 C920 1.358 . S
C923 C922 1.429 . S
C923 H933 0.930 . S
C924 C920 1.332 . S
C924 C925 1.394 . S
C924 H934 0.932 . S
C925 C921 1.308 . S
C925 C924 1.394 . S
C925 H935 0.929 . S
C926 Tb897 2.764 . S
C926 O910 1.239 . S
C926 O911 1.263 . S
C926 C920 1.504 . S
C927 O912 1.236 . S
C927 O913 1.257 . S
H928 C901 0.932 . S
H929 C902 0.930 . S
H930 C903 0.932 . S
H931 C904 0.929 . S
H932 C922 0.932 . S
H933 C923 0.930 . S
H934 C924 0.932 . S
H935 C925 0.929 . S
Tb936 C945 2.764 1_455 S
Tb936 O946 2.325 . S
Tb936 O949 2.303 . S
Tb936 O953 2.322 . S
Tb936 O954 2.349 . S
Tb936 O957 2.415 1_455 S
Tb936 O958 2.399 1_455 S
Tb937 O947 2.322 . S
Tb937 O948 2.349 1_554 S
Tb937 O950 2.415 . S
Tb937 O951 2.399 . S
Tb937 O952 2.325 . S
Tb937 O955 2.303 . S
Tb937 C966 2.764 . S
C938 O954 1.261 . S
C938 O955 1.257 . S
C939 C942 1.358 . S
C939 C943 1.332 . S
C939 C945 1.504 . S
C940 C941 1.373 . S
C940 C944 1.308 . S
C941 C940 1.373 . S
C941 C942 1.429 . S
C941 H968 0.932 . S
C942 C939 1.358 . S
C942 C941 1.429 . S
C942 H969 0.930 . S
C943 C939 1.332 . S
C943 C944 1.394 . S
C943 H970 0.932 . S
C944 C940 1.308 . S
C944 C943 1.394 . S
C944 H971 0.929 . S
C945 Tb936 2.764 1_655 S
C945 C939 1.504 . S
C945 O957 1.239 . S
C945 O958 1.263 . S
O946 Tb936 2.325 . S
O946 C956 1.236 . S
O947 Tb937 2.322 . S
O947 C956 1.257 . S
O948 Tb937 2.349 1_556 S
O948 C959 1.261 . S
O949 Tb936 2.303 . S
O949 C959 1.257 1_554 S
O950 Tb937 2.415 . S
O950 C966 1.239 . S
O951 Tb937 2.399 . S
O951 C966 1.263 . S
O952 Tb937 2.325 . S
O952 C967 1.236 . S
O953 Tb936 2.322 . S
O953 C967 1.257 . S
O954 Tb936 2.349 . S
O954 C938 1.261 . S
O955 Tb937 2.303 . S
O955 C938 1.257 . S
C956 O946 1.236 . S
C956 O947 1.257 . S
O957 Tb936 2.415 1_655 S
O957 C945 1.239 . S
O958 Tb936 2.399 1_655 S
O958 C945 1.263 . S
C959 O948 1.261 . S
C959 O949 1.257 1_556 S
C960 C963 1.358 1_554 S
C960 C964 1.332 . S
C960 C966 1.504 . S
C961 C962 1.373 1_554 S
C961 C965 1.308 . S
C962 C961 1.373 1_556 S
C962 C963 1.429 . S
C962 H972 0.932 . S
C963 C960 1.358 1_556 S
C963 C962 1.429 . S
C963 H973 0.930 . S
C964 C960 1.332 . S
C964 C965 1.394 . S
C964 H974 0.932 . S
C965 C961 1.308 . S
C965 C964 1.394 . S
C965 H975 0.929 . S
C966 Tb937 2.764 . S
C966 O950 1.239 . S
C966 O951 1.263 . S
C966 C960 1.504 . S
C967 O952 1.236 . S
C967 O953 1.257 . S
H968 C941 0.932 . S
H969 C942 0.930 . S
H970 C943 0.932 . S
H971 C944 0.929 . S
H972 C962 0.932 . S
H973 C963 0.930 . S
H974 C964 0.932 . S
H975 C965 0.929 . S
H976 C988 0.930 . S
H977 C990 0.930 . S
H978 C991 0.930 . S
H979 C995 0.959 . S
H980 C995 0.959 . S
H981 C995 0.961 . S
H982 C996 0.960 1_556 S
H983 C996 0.961 . S
H984 C996 0.959 . S
H985 C999 0.929 . S
H986 C1000 0.938 . S
H987 C1002 0.930 . S
C988 H976 0.930 . S
C988 C989 1.399 1_455 S
C988 C993 1.399 . S
C989 C988 1.399 1_655 S
C989 C990 1.376 . S
C990 H977 0.930 . S
C990 C989 1.376 . S
C990 C991 1.388 . S
C991 H978 0.930 . S
C991 C990 1.388 . S
C991 C992 1.390 1_655 S
C992 C991 1.390 1_455 S
C992 C993 1.394 . S
C992 C998 1.465 1_556 S
C993 C988 1.399 . S
C993 C992 1.394 . S
C993 C994 1.516 . S
C994 C993 1.516 . S
C994 C995 1.502 . S
C994 C996 1.561 1_556 S
C994 C997 1.526 1_556 S
C995 H979 0.959 . S
C995 H980 0.959 . S
C995 H981 0.961 . S
C995 C994 1.502 . S
C996 H982 0.960 1_554 S
C996 H983 0.961 . S
C996 H984 0.959 . S
C996 C994 1.561 1_554 S
C997 C994 1.526 1_554 S
C997 C998 1.396 . S
C997 C1002 1.389 . S
C998 C992 1.465 1_554 S
C998 C997 1.396 . S
C998 C999 1.399 1_455 S
C999 H985 0.929 . S
C999 C998 1.399 1_655 S
C999 C1000 1.385 1_655 S
C1000 H986 0.938 . S
C1000 C999 1.385 1_455 S
C1000 C1001 1.389 . S
C1001 C1000 1.389 . S
C1001 C1002 1.387 . S
C1002 H987 0.930 . S
C1002 C997 1.389 . S
C1002 C1001 1.387 . S
H1003 C1015 0.930 . S
H1004 C1017 0.930 . S
H1005 C1018 0.930 . S
H1006 C1022 0.959 . S
H1007 C1022 0.959 . S
H1008 C1022 0.961 . S
H1009 C1023 0.960 . S
H1010 C1023 0.961 . S
H1011 C1023 0.959 . S
H1012 C1026 0.929 . S
H1013 C1027 0.931 . S
H1014 C1029 0.930 . S
C1015 H1003 0.930 . S
C1015 C1016 1.399 . S
C1015 C1020 1.399 . S
C1016 C1015 1.399 . S
C1016 C1017 1.376 . S
C1017 H1004 0.930 . S
C1017 C1016 1.376 . S
C1017 C1018 1.388 . S
C1018 H1005 0.930 . S
C1018 C1017 1.388 . S
C1018 C1019 1.390 . S
C1019 C1018 1.390 . S
C1019 C1020 1.394 . S
C1019 C1025 1.465 . S
C1020 C1015 1.399 . S
C1020 C1019 1.394 . S
C1020 C1021 1.516 . S
C1021 C1020 1.516 . S
C1021 C1022 1.502 . S
C1021 C1023 1.561 . S
C1021 C1024 1.526 . S
C1022 H1006 0.959 . S
C1022 H1007 0.959 . S
C1022 H1008 0.961 . S
C1022 C1021 1.502 . S
C1023 H1009 0.960 . S
C1023 H1010 0.961 . S
C1023 H1011 0.959 . S
C1023 C1021 1.561 . S
C1024 C1021 1.526 . S
C1024 C1025 1.396 . S
C1024 C1029 1.390 . S
C1025 C1019 1.465 . S
C1025 C1024 1.396 . S
C1025 C1026 1.399 . S
C1026 H1012 0.929 . S
C1026 C1025 1.399 . S
C1026 C1027 1.385 . S
C1027 H1013 0.931 . S
C1027 C1026 1.385 . S
C1027 C1028 1.389 . S
C1028 C1027 1.389 . S
C1028 C1029 1.387 . S
C1029 H1014 0.930 . S
C1029 C1024 1.390 . S
C1029 C1028 1.387 . S
H1030 C1042 0.930 . S
H1031 C1044 0.930 . S
H1032 C1045 0.930 . S
H1033 C1049 0.959 . S
H1034 C1049 0.959 . S
H1035 C1049 0.961 . S
H1036 C1050 0.960 . S
H1037 C1050 0.961 . S
H1038 C1050 0.959 . S
H1039 C1053 0.929 . S
H1040 C1054 0.931 . S
H1041 C1056 0.930 . S
C1042 H1030 0.930 . S
C1042 C1043 1.399 . S
C1042 C1047 1.399 . S
C1043 C1042 1.399 . S
C1043 C1044 1.376 . S
C1044 H1031 0.930 . S
C1044 C1043 1.376 . S
C1044 C1045 1.388 . S
C1045 H1032 0.930 . S
C1045 C1044 1.388 . S
C1045 C1046 1.390 . S
C1046 C1045 1.390 . S
C1046 C1047 1.394 . S
C1046 C1052 1.465 . S
C1047 C1042 1.399 . S
C1047 C1046 1.394 . S
C1047 C1048 1.516 . S
C1048 C1047 1.516 . S
C1048 C1049 1.502 . S
C1048 C1050 1.561 . S
C1048 C1051 1.526 . S
C1049 H1033 0.959 . S
C1049 H1034 0.959 . S
C1049 H1035 0.961 . S
C1049 C1048 1.502 . S
C1050 H1036 0.960 . S
C1050 H1037 0.961 . S
C1050 H1038 0.959 . S
C1050 C1048 1.561 . S
C1051 C1048 1.526 . S
C1051 C1052 1.396 . S
C1051 C1056 1.390 . S
C1052 C1046 1.465 . S
C1052 C1051 1.396 . S
C1052 C1053 1.399 . S
C1053 H1039 0.929 . S
C1053 C1052 1.399 . S
C1053 C1054 1.385 . S
C1054 H1040 0.931 . S
C1054 C1053 1.385 . S
C1054 C1055 1.389 . S
C1055 C1054 1.389 . S
C1055 C1056 1.387 . S
C1056 H1041 0.930 . S
C1056 C1051 1.390 . S
C1056 C1055 1.387 . S
H1057 C1069 0.930 . S
H1058 C1071 0.930 . S
H1059 C1072 0.930 . S
H1060 C1076 0.959 . S
H1061 C1076 0.959 . S
H1062 C1076 0.961 . S
H1063 C1077 0.960 . S
H1064 C1077 0.961 . S
H1065 C1077 0.959 . S
H1066 C1080 0.929 . S
H1067 C1081 0.931 . S
H1068 C1083 0.930 . S
C1069 H1057 0.930 . S
C1069 C1070 1.399 . S
C1069 C1074 1.399 . S
C1070 C1069 1.399 . S
C1070 C1071 1.376 . S
C1071 H1058 0.930 . S
C1071 C1070 1.376 . S
C1071 C1072 1.388 . S
C1072 H1059 0.930 . S
C1072 C1071 1.388 . S
C1072 C1073 1.390 . S
C1073 C1072 1.390 . S
C1073 C1074 1.394 . S
C1073 C1079 1.465 . S
C1074 C1069 1.399 . S
C1074 C1073 1.394 . S
C1074 C1075 1.516 . S
C1075 C1074 1.516 . S
C1075 C1076 1.502 . S
C1075 C1077 1.561 . S
C1075 C1078 1.526 . S
C1076 H1060 0.959 . S
C1076 H1061 0.959 . S
C1076 H1062 0.961 . S
C1076 C1075 1.502 . S
C1077 H1063 0.960 . S
C1077 H1064 0.961 . S
C1077 H1065 0.959 . S
C1077 C1075 1.561 . S
C1078 C1075 1.526 . S
C1078 C1079 1.396 . S
C1078 C1083 1.390 . S
C1079 C1073 1.465 . S
C1079 C1078 1.396 . S
C1079 C1080 1.399 . S
C1080 H1066 0.929 . S
C1080 C1079 1.399 . S
C1080 C1081 1.385 . S
C1081 H1067 0.931 . S
C1081 C1080 1.385 . S
C1081 C1082 1.389 . S
C1082 C1081 1.389 . S
C1082 C1083 1.387 . S
C1083 H1068 0.930 . S
C1083 C1078 1.390 . S
C1083 C1082 1.387 . S
H1084 C1096 0.930 . S
H1085 C1098 0.930 . S
H1086 C1099 0.930 . S
H1087 C1103 0.959 . S
H1088 C1103 0.959 . S
H1089 C1103 0.961 . S
H1090 C1104 0.960 . S
H1091 C1104 0.961 . S
H1092 C1104 0.959 . S
H1093 C1107 0.929 . S
H1094 C1108 0.931 . S
H1095 C1110 0.930 . S
C1096 H1084 0.930 . S
C1096 C1097 1.399 . S
C1096 C1101 1.399 . S
C1097 C1096 1.399 . S
C1097 C1098 1.376 . S
C1098 H1085 0.930 . S
C1098 C1097 1.376 . S
C1098 C1099 1.388 . S
C1099 H1086 0.930 . S
C1099 C1098 1.388 . S
C1099 C1100 1.390 . S
C1100 C1099 1.390 . S
C1100 C1101 1.394 . S
C1100 C1106 1.465 . S
C1101 C1096 1.399 . S
C1101 C1100 1.394 . S
C1101 C1102 1.516 . S
C1102 C1101 1.516 . S
C1102 C1103 1.502 . S
C1102 C1104 1.561 . S
C1102 C1105 1.526 . S
C1103 H1087 0.959 . S
C1103 H1088 0.959 . S
C1103 H1089 0.961 . S
C1103 C1102 1.502 . S
C1104 H1090 0.960 . S
C1104 H1091 0.961 . S
C1104 H1092 0.959 . S
C1104 C1102 1.561 . S
C1105 C1102 1.526 . S
C1105 C1106 1.396 . S
C1105 C1110 1.390 . S
C1106 C1100 1.465 . S
C1106 C1105 1.396 . S
C1106 C1107 1.399 . S
C1107 H1093 0.929 . S
C1107 C1106 1.399 . S
C1107 C1108 1.385 . S
C1108 H1094 0.931 . S
C1108 C1107 1.385 . S
C1108 C1109 1.389 . S
C1109 C1108 1.389 . S
C1109 C1110 1.387 . S
C1110 H1095 0.930 . S
C1110 C1105 1.390 . S
C1110 C1109 1.387 . S
H1111 C1123 0.930 . S
H1112 C1125 0.930 . S
H1113 C1126 0.930 . S
H1114 C1130 0.959 . S
H1115 C1130 0.959 . S
H1116 C1130 0.961 . S
H1117 C1131 0.960 . S
H1118 C1131 0.961 . S
H1119 C1131 0.959 . S
H1120 C1134 0.929 . S
H1121 C1135 0.931 . S
H1122 C1137 0.930 . S
C1123 H1111 0.930 . S
C1123 C1124 1.399 . S
C1123 C1128 1.399 . S
C1124 C1123 1.399 . S
C1124 C1125 1.376 . S
C1125 H1112 0.930 . S
C1125 C1124 1.376 . S
C1125 C1126 1.388 . S
C1126 H1113 0.930 . S
C1126 C1125 1.388 . S
C1126 C1127 1.390 . S
C1127 C1126 1.390 . S
C1127 C1128 1.394 . S
C1127 C1133 1.465 . S
C1128 C1123 1.399 . S
C1128 C1127 1.394 . S
C1128 C1129 1.516 . S
C1129 C1128 1.516 . S
C1129 C1130 1.502 . S
C1129 C1131 1.561 . S
C1129 C1132 1.526 . S
C1130 H1114 0.959 . S
C1130 H1115 0.959 . S
C1130 H1116 0.961 . S
C1130 C1129 1.502 . S
C1131 H1117 0.960 . S
C1131 H1118 0.961 . S
C1131 H1119 0.959 . S
C1131 C1129 1.561 . S
C1132 C1129 1.526 . S
C1132 C1133 1.396 . S
C1132 C1137 1.390 . S
C1133 C1127 1.465 . S
C1133 C1132 1.396 . S
C1133 C1134 1.399 . S
C1134 H1120 0.929 . S
C1134 C1133 1.399 . S
C1134 C1135 1.385 . S
C1135 H1121 0.931 . S
C1135 C1134 1.385 . S
C1135 C1136 1.389 . S
C1136 C1135 1.389 . S
C1136 C1137 1.387 . S
C1137 H1122 0.930 . S
C1137 C1132 1.390 . S
C1137 C1136 1.387 . S
H1138 C1150 0.930 . S
H1139 C1152 0.930 . S
H1140 C1153 0.930 . S
H1141 C1157 0.959 . S
H1142 C1157 0.959 . S
H1143 C1157 0.961 . S
H1144 C1158 0.960 . S
H1145 C1158 0.961 . S
H1146 C1158 0.959 . S
H1147 C1161 0.929 . S
H1148 C1162 0.931 . S
H1149 C1164 0.930 . S
C1150 H1138 0.930 . S
C1150 C1151 1.399 . S
C1150 C1155 1.399 . S
C1151 C1150 1.399 . S
C1151 C1152 1.376 . S
C1152 H1139 0.930 . S
C1152 C1151 1.376 . S
C1152 C1153 1.388 . S
C1153 H1140 0.930 . S
C1153 C1152 1.388 . S
C1153 C1154 1.390 . S
C1154 C1153 1.390 . S
C1154 C1155 1.394 . S
C1154 C1160 1.465 . S
C1155 C1150 1.399 . S
C1155 C1154 1.394 . S
C1155 C1156 1.516 . S
C1156 C1155 1.516 . S
C1156 C1157 1.502 . S
C1156 C1158 1.561 . S
C1156 C1159 1.526 . S
C1157 H1141 0.959 . S
C1157 H1142 0.959 . S
C1157 H1143 0.961 . S
C1157 C1156 1.502 . S
C1158 H1144 0.960 . S
C1158 H1145 0.961 . S
C1158 H1146 0.959 . S
C1158 C1156 1.561 . S
C1159 C1156 1.526 . S
C1159 C1160 1.396 . S
C1159 C1164 1.390 . S
C1160 C1154 1.465 . S
C1160 C1159 1.396 . S
C1160 C1161 1.399 . S
C1161 H1147 0.929 . S
C1161 C1160 1.399 . S
C1161 C1162 1.385 . S
C1162 H1148 0.931 . S
C1162 C1161 1.385 . S
C1162 C1163 1.389 . S
C1163 C1162 1.389 . S
C1163 C1164 1.387 . S
C1164 H1149 0.930 . S
C1164 C1159 1.390 . S
C1164 C1163 1.387 . S
H1165 C1177 0.930 . S
H1166 C1179 0.930 . S
H1167 C1180 0.930 . S
H1168 C1184 0.959 . S
H1169 C1184 0.959 . S
H1170 C1184 0.961 . S
H1171 C1185 0.960 . S
H1172 C1185 0.961 . S
H1173 C1185 0.959 . S
H1174 C1188 0.929 . S
H1175 C1189 0.931 . S
H1176 C1191 0.930 . S
C1177 H1165 0.930 . S
C1177 C1178 1.399 . S
C1177 C1182 1.399 . S
C1178 C1177 1.399 . S
C1178 C1179 1.376 . S
C1179 H1166 0.930 . S
C1179 C1178 1.376 . S
C1179 C1180 1.388 . S
C1180 H1167 0.930 . S
C1180 C1179 1.388 . S
C1180 C1181 1.390 . S
C1181 C1180 1.390 . S
C1181 C1182 1.394 . S
C1181 C1187 1.465 . S
C1182 C1177 1.399 . S
C1182 C1181 1.394 . S
C1182 C1183 1.516 . S
C1183 C1182 1.516 . S
C1183 C1184 1.502 . S
C1183 C1185 1.561 . S
C1183 C1186 1.526 . S
C1184 H1168 0.959 . S
C1184 H1169 0.959 . S
C1184 H1170 0.961 . S
C1184 C1183 1.502 . S
C1185 H1171 0.960 . S
C1185 H1172 0.961 . S
C1185 H1173 0.959 . S
C1185 C1183 1.561 . S
C1186 C1183 1.526 . S
C1186 C1187 1.396 . S
C1186 C1191 1.390 . S
C1187 C1181 1.465 . S
C1187 C1186 1.396 . S
C1187 C1188 1.399 . S
C1188 H1174 0.929 . S
C1188 C1187 1.399 . S
C1188 C1189 1.385 . S
C1189 H1175 0.931 . S
C1189 C1188 1.385 . S
C1189 C1190 1.389 . S
C1190 C1189 1.389 . S
C1190 C1191 1.387 . S
C1191 H1176 0.930 . S
C1191 C1186 1.390 . S
C1191 C1190 1.387 . S
H1192 C1204 0.969 . S
H1193 C1206 0.930 . S
H1194 C1207 0.930 . S
H1195 C1211 0.962 1_455 S
H1196 C1211 0.962 1_455 S
H1197 C1211 0.959 . S
H1198 C1212 0.960 . S
H1199 C1212 0.961 . S
H1200 C1212 0.959 . S
H1201 C1215 0.908 1_655 S
H1202 C1216 0.931 . S
H1203 C1218 0.930 . S
C1204 H1192 0.969 . S
C1204 C1205 1.372 1_565 S
C1204 C1209 1.387 1_565 S
C1205 C1204 1.372 1_545 S
C1205 C1206 1.376 . S
C1206 H1193 0.930 . S
C1206 C1205 1.376 . S
C1206 C1207 1.388 . S
C1207 H1194 0.930 . S
C1207 C1206 1.388 . S
C1207 C1208 1.390 . S
C1208 C1207 1.390 . S
C1208 C1209 1.394 . S
C1208 C1214 1.465 . S
C1209 C1204 1.387 1_545 S
C1209 C1208 1.394 . S
C1209 C1210 1.516 1_545 S
C1210 C1209 1.516 1_565 S
C1210 C1211 1.498 . S
C1210 C1212 1.561 . S
C1210 C1213 1.526 1_565 S
C1211 H1195 0.962 1_655 S
C1211 H1196 0.962 1_655 S
C1211 H1197 0.959 . S
C1211 C1210 1.498 . S
C1212 H1198 0.960 . S
C1212 H1199 0.961 . S
C1212 H1200 0.959 . S
C1212 C1210 1.561 . S
C1213 C1210 1.526 1_545 S
C1213 C1214 1.396 . S
C1213 C1218 1.390 1_655 S
C1214 C1208 1.465 . S
C1214 C1213 1.396 . S
C1214 C1215 1.394 1_655 S
C1215 H1201 0.908 1_455 S
C1215 C1214 1.394 1_455 S
C1215 C1216 1.413 . S
C1216 H1202 0.931 . S
C1216 C1215 1.413 . S
C1216 C1217 1.389 . S
C1217 C1216 1.389 . S
C1217 C1218 1.387 . S
C1218 H1203 0.930 . S
C1218 C1213 1.390 1_455 S
C1218 C1217 1.387 . S
H1219 C1231 0.930 . S
H1220 C1233 0.930 . S
H1221 C1234 0.930 . S
H1222 C1238 0.959 . S
H1223 C1238 0.959 . S
H1224 C1238 0.961 . S
H1225 C1239 0.960 . S
H1226 C1239 0.961 . S
H1227 C1239 0.959 . S
H1228 C1242 0.929 . S
H1229 C1243 0.931 . S
H1230 C1245 0.930 . S
C1231 H1219 0.930 . S
C1231 C1232 1.399 . S
C1231 C1236 1.399 . S
C1232 C1231 1.399 . S
C1232 C1233 1.376 . S
C1233 H1220 0.930 . S
C1233 C1232 1.376 . S
C1233 C1234 1.388 . S
C1234 H1221 0.930 . S
C1234 C1233 1.388 . S
C1234 C1235 1.390 . S
C1235 C1234 1.390 . S
C1235 C1236 1.394 . S
C1235 C1241 1.465 . S
C1236 C1231 1.399 . S
C1236 C1235 1.394 . S
C1236 C1237 1.516 . S
C1237 C1236 1.516 . S
C1237 C1238 1.502 . S
C1237 C1239 1.561 . S
C1237 C1240 1.526 . S
C1238 H1222 0.959 . S
C1238 H1223 0.959 . S
C1238 H1224 0.961 . S
C1238 C1237 1.502 . S
C1239 H1225 0.960 . S
C1239 H1226 0.961 . S
C1239 H1227 0.959 . S
C1239 C1237 1.561 . S
C1240 C1237 1.526 . S
C1240 C1241 1.396 . S
C1240 C1245 1.390 . S
C1241 C1235 1.465 . S
C1241 C1240 1.396 . S
C1241 C1242 1.399 . S
C1242 H1228 0.929 . S
C1242 C1241 1.399 . S
C1242 C1243 1.385 . S
C1243 H1229 0.931 . S
C1243 C1242 1.385 . S
C1243 C1244 1.389 . S
C1244 C1243 1.389 . S
C1244 C1245 1.387 . S
C1245 H1230 0.930 . S
C1245 C1240 1.390 . S
C1245 C1244 1.387 . S
H1246 C1258 0.967 . S
H1247 C1260 0.930 . S
H1248 C1261 0.930 . S
H1249 C1265 0.945 1_545 S
H1250 C1265 0.959 . S
H1251 C1265 0.961 . S
H1252 C1266 0.960 . S
H1253 C1266 0.961 . S
H1254 C1266 0.959 . S
H1255 C1269 0.929 . S
H1256 C1270 0.931 . S
H1257 C1272 0.930 1_565 S
C1258 H1246 0.967 . S
C1258 C1259 1.399 . S
C1258 C1263 1.399 . S
C1259 C1258 1.399 . S
C1259 C1260 1.376 . S
C1260 H1247 0.930 . S
C1260 C1259 1.376 . S
C1260 C1261 1.388 . S
C1261 H1248 0.930 . S
C1261 C1260 1.388 . S
C1261 C1262 1.390 . S
C1262 C1261 1.390 . S
C1262 C1263 1.394 . S
C1262 C1268 1.465 . S
C1263 C1258 1.399 . S
C1263 C1262 1.394 . S
C1263 C1264 1.515 . S
C1264 C1263 1.515 . S
C1264 C1265 1.504 1_545 S
C1264 C1266 1.563 1_545 S
C1264 C1267 1.524 . S
C1265 H1249 0.945 1_565 S
C1265 H1250 0.959 . S
C1265 H1251 0.961 . S
C1265 C1264 1.504 1_565 S
C1266 H1252 0.960 . S
C1266 H1253 0.961 . S
C1266 H1254 0.959 . S
C1266 C1264 1.563 1_565 S
C1267 C1264 1.524 . S
C1267 C1268 1.396 . S
C1267 C1272 1.390 . S
C1268 C1262 1.465 . S
C1268 C1267 1.396 . S
C1268 C1269 1.399 . S
C1269 H1255 0.929 . S
C1269 C1268 1.399 . S
C1269 C1270 1.385 . S
C1270 H1256 0.931 . S
C1270 C1269 1.385 . S
C1270 C1271 1.389 . S
C1271 C1270 1.389 . S
C1271 C1272 1.387 . S
C1272 H1257 0.930 1_545 S
C1272 C1267 1.390 . S
C1272 C1271 1.387 . S
H1273 C1285 0.930 . S
H1274 C1287 0.930 . S
H1275 C1288 0.930 . S
H1276 C1292 0.959 . S
H1277 C1292 0.959 . S
H1278 C1292 0.961 . S
H1279 C1293 0.960 . S
H1280 C1293 0.961 . S
H1281 C1293 0.959 . S
H1282 C1296 0.929 . S
H1283 C1297 0.931 . S
H1284 C1299 0.930 . S
C1285 H1273 0.930 . S
C1285 C1286 1.399 . S
C1285 C1290 1.399 . S
C1286 C1285 1.399 . S
C1286 C1287 1.376 . S
C1287 H1274 0.930 . S
C1287 C1286 1.376 . S
C1287 C1288 1.388 . S
C1288 H1275 0.930 . S
C1288 C1287 1.388 . S
C1288 C1289 1.390 . S
C1289 C1288 1.390 . S
C1289 C1290 1.394 . S
C1289 C1295 1.465 . S
C1290 C1285 1.399 . S
C1290 C1289 1.394 . S
C1290 C1291 1.516 . S
C1291 C1290 1.516 . S
C1291 C1292 1.502 . S
C1291 C1293 1.561 . S
C1291 C1294 1.526 . S
C1292 H1276 0.959 . S
C1292 H1277 0.959 . S
C1292 H1278 0.961 . S
C1292 C1291 1.502 . S
C1293 H1279 0.960 . S
C1293 H1280 0.961 . S
C1293 H1281 0.959 . S
C1293 C1291 1.561 . S
C1294 C1291 1.526 . S
C1294 C1295 1.396 . S
C1294 C1299 1.390 . S
C1295 C1289 1.465 . S
C1295 C1294 1.396 . S
C1295 C1296 1.399 . S
C1296 H1282 0.929 . S
C1296 C1295 1.399 . S
C1296 C1297 1.385 . S
C1297 H1283 0.931 . S
C1297 C1296 1.385 . S
C1297 C1298 1.389 . S
C1298 C1297 1.389 . S
C1298 C1299 1.387 . S
C1299 H1284 0.930 . S
C1299 C1294 1.390 . S
C1299 C1298 1.387 . S
H1300 C1312 0.930 . S
H1301 C1314 0.930 . S
H1302 C1315 0.930 . S
H1303 C1319 0.959 . S
H1304 C1319 0.959 . S
H1305 C1319 0.961 . S
H1306 C1320 0.960 . S
H1307 C1320 0.961 . S
H1308 C1320 0.959 1_455 S
H1309 C1323 0.929 . S
H1310 C1324 0.931 . S
H1311 C1326 0.930 . S
C1312 H1300 0.930 . S
C1312 C1313 1.399 1_565 S
C1312 C1317 1.399 1_565 S
C1313 C1312 1.399 1_545 S
C1313 C1314 1.376 . S
C1314 H1301 0.930 . S
C1314 C1313 1.376 . S
C1314 C1315 1.388 . S
C1315 H1302 0.930 . S
C1315 C1314 1.388 . S
C1315 C1316 1.390 . S
C1316 C1315 1.390 . S
C1316 C1317 1.394 . S
C1316 C1322 1.465 . S
C1317 C1312 1.399 1_545 S
C1317 C1316 1.394 . S
C1317 C1318 1.516 1_545 S
C1318 C1317 1.516 1_565 S
C1318 C1319 1.502 . S
C1318 C1320 1.561 . S
C1318 C1321 1.526 1_565 S
C1319 H1303 0.959 . S
C1319 H1304 0.959 . S
C1319 H1305 0.961 . S
C1319 C1318 1.502 . S
C1320 H1306 0.960 . S
C1320 H1307 0.961 . S
C1320 H1308 0.959 1_655 S
C1320 C1318 1.561 . S
C1321 C1318 1.526 1_545 S
C1321 C1322 1.396 . S
C1321 C1326 1.390 1_545 S
C1322 C1316 1.465 . S
C1322 C1321 1.396 . S
C1322 C1323 1.399 . S
C1323 H1309 0.929 . S
C1323 C1322 1.399 . S
C1323 C1324 1.385 1_655 S
C1324 H1310 0.931 . S
C1324 C1323 1.385 1_455 S
C1324 C1325 1.389 . S
C1325 C1324 1.389 . S
C1325 C1326 1.387 1_445 S
C1326 H1311 0.930 . S
C1326 C1321 1.390 1_565 S
C1326 C1325 1.387 1_665 S
H1327 C1339 0.930 . S
H1328 C1341 0.930 . S
H1329 C1342 0.930 . S
H1330 C1346 0.959 . S
H1331 C1346 0.959 . S
H1332 C1346 0.961 . S
H1333 C1347 0.960 . S
H1334 C1347 0.961 . S
H1335 C1347 0.959 . S
H1336 C1350 0.929 . S
H1337 C1351 0.931 . S
H1338 C1353 0.930 . S
C1339 H1327 0.930 . S
C1339 C1340 1.399 . S
C1339 C1344 1.399 . S
C1340 C1339 1.399 . S
C1340 C1341 1.376 . S
C1341 H1328 0.930 . S
C1341 C1340 1.376 . S
C1341 C1342 1.388 . S
C1342 H1329 0.930 . S
C1342 C1341 1.388 . S
C1342 C1343 1.390 . S
C1343 C1342 1.390 . S
C1343 C1344 1.394 . S
C1343 C1349 1.465 . S
C1344 C1339 1.399 . S
C1344 C1343 1.394 . S
C1344 C1345 1.516 . S
C1345 C1344 1.516 . S
C1345 C1346 1.502 . S
C1345 C1347 1.561 . S
C1345 C1348 1.526 . S
C1346 H1330 0.959 . S
C1346 H1331 0.959 . S
C1346 H1332 0.961 . S
C1346 C1345 1.502 . S
C1347 H1333 0.960 . S
C1347 H1334 0.961 . S
C1347 H1335 0.959 . S
C1347 C1345 1.561 . S
C1348 C1345 1.526 . S
C1348 C1349 1.396 . S
C1348 C1353 1.390 . S
C1349 C1343 1.465 . S
C1349 C1348 1.396 . S
C1349 C1350 1.399 . S
C1350 H1336 0.929 . S
C1350 C1349 1.399 . S
C1350 C1351 1.385 . S
C1351 H1337 0.931 . S
C1351 C1350 1.385 . S
C1351 C1352 1.389 . S
C1352 C1351 1.389 . S
C1352 C1353 1.387 . S
C1353 H1338 0.930 . S
C1353 C1348 1.390 . S
C1353 C1352 1.387 . S
H1354 C1366 0.930 . S
H1355 C1368 0.930 . S
H1356 C1369 0.957 . S
H1357 C1373 0.959 . S
H1358 C1373 0.959 . S
H1359 C1373 0.961 . S
H1360 C1374 0.960 . S
H1361 C1374 0.961 . S
H1362 C1374 0.959 . S
H1363 C1377 0.916 1_565 S
H1364 C1378 0.931 . S
H1365 C1380 0.930 . S
C1366 H1354 0.930 . S
C1366 C1367 1.399 . S
C1366 C1371 1.399 . S
C1367 C1366 1.399 . S
C1367 C1368 1.376 . S
C1368 H1355 0.930 . S
C1368 C1367 1.376 . S
C1368 C1369 1.388 . S
C1369 H1356 0.957 . S
C1369 C1368 1.388 . S
C1369 C1370 1.390 . S
C1370 C1369 1.390 . S
C1370 C1371 1.394 . S
C1370 C1376 1.465 . S
C1371 C1366 1.399 . S
C1371 C1370 1.394 . S
C1371 C1372 1.516 . S
C1372 C1371 1.516 . S
C1372 C1373 1.502 . S
C1372 C1374 1.561 . S
C1372 C1375 1.526 . S
C1373 H1357 0.959 . S
C1373 H1358 0.959 . S
C1373 H1359 0.961 . S
C1373 C1372 1.502 . S
C1374 H1360 0.960 . S
C1374 H1361 0.961 . S
C1374 H1362 0.959 . S
C1374 C1372 1.561 . S
C1375 C1372 1.526 . S
C1375 C1376 1.396 . S
C1375 C1380 1.390 . S
C1376 C1370 1.465 . S
C1376 C1375 1.396 . S
C1376 C1377 1.399 . S
C1377 H1363 0.916 1_545 S
C1377 C1376 1.399 . S
C1377 C1378 1.385 . S
C1378 H1364 0.931 . S
C1378 C1377 1.385 . S
C1378 C1379 1.389 . S
C1379 C1378 1.389 . S
C1379 C1380 1.387 . S
C1380 H1365 0.930 . S
C1380 C1375 1.390 . S
C1380 C1379 1.387 . S
H1381 C1393 0.930 . S
H1382 C1395 0.930 . S
H1383 C1396 0.930 . S
H1384 C1400 0.959 . S
H1385 C1400 0.959 . S
H1386 C1400 0.961 . S
H1387 C1401 0.960 . S
H1388 C1401 0.961 . S
H1389 C1401 0.959 . S
H1390 C1404 0.929 . S
H1391 C1405 0.931 . S
H1392 C1407 0.930 . S
C1393 H1381 0.930 . S
C1393 C1394 1.399 . S
C1393 C1398 1.399 . S
C1394 C1393 1.399 . S
C1394 C1395 1.376 . S
C1395 H1382 0.930 . S
C1395 C1394 1.376 . S
C1395 C1396 1.388 . S
C1396 H1383 0.930 . S
C1396 C1395 1.388 . S
C1396 C1397 1.390 . S
C1397 C1396 1.390 . S
C1397 C1398 1.394 . S
C1397 C1403 1.465 . S
C1398 C1393 1.399 . S
C1398 C1397 1.394 . S
C1398 C1399 1.516 . S
C1399 C1398 1.516 . S
C1399 C1400 1.502 . S
C1399 C1401 1.561 . S
C1399 C1402 1.526 . S
C1400 H1384 0.959 . S
C1400 H1385 0.959 . S
C1400 H1386 0.961 . S
C1400 C1399 1.502 . S
C1401 H1387 0.960 . S
C1401 H1388 0.961 . S
C1401 H1389 0.959 . S
C1401 C1399 1.561 . S
C1402 C1399 1.526 . S
C1402 C1403 1.396 . S
C1402 C1407 1.390 . S
C1403 C1397 1.465 . S
C1403 C1402 1.396 . S
C1403 C1404 1.399 . S
C1404 H1390 0.929 . S
C1404 C1403 1.399 . S
C1404 C1405 1.385 . S
C1405 H1391 0.931 . S
C1405 C1404 1.385 . S
C1405 C1406 1.389 . S
C1406 C1405 1.389 . S
C1406 C1407 1.387 . S
C1407 H1392 0.930 . S
C1407 C1402 1.390 . S
C1407 C1406 1.387 . S
H1408 C1420 0.930 1_556 S
H1409 C1422 0.930 . S
H1410 C1423 0.930 . S
H1411 C1427 0.959 . S
H1412 C1427 0.959 . S
H1413 C1427 0.961 1_556 S
H1414 C1428 0.960 . S
H1415 C1428 0.921 1_545 S
H1416 C1428 0.959 . S
H1417 C1431 0.929 . S
H1418 C1432 0.931 . S
H1419 C1434 0.930 . S
C1420 H1408 0.930 1_554 S
C1420 C1421 1.399 . S
C1420 C1425 1.399 . S
C1421 C1420 1.399 . S
C1421 C1422 1.376 . S
C1422 H1409 0.930 . S
C1422 C1421 1.376 . S
C1422 C1423 1.388 . S
C1423 H1410 0.930 . S
C1423 C1422 1.388 . S
C1423 C1424 1.390 . S
C1424 C1423 1.390 . S
C1424 C1425 1.394 . S
C1424 C1430 1.465 . S
C1425 C1420 1.399 . S
C1425 C1424 1.394 . S
C1425 C1426 1.518 1_565 S
C1426 C1425 1.518 1_545 S
C1426 C1427 1.500 . S
C1426 C1428 1.561 1_544 S
C1426 C1429 1.526 1_545 S
C1427 H1411 0.959 . S
C1427 H1412 0.959 . S
C1427 H1413 0.961 1_554 S
C1427 C1426 1.500 . S
C1428 H1414 0.960 . S
C1428 H1415 0.921 1_565 S
C1428 H1416 0.959 . S
C1428 C1426 1.561 1_566 S
C1429 C1426 1.526 1_565 S
C1429 C1430 1.401 . S
C1429 C1434 1.385 1_565 S
C1430 C1424 1.465 . S
C1430 C1429 1.401 . S
C1430 C1431 1.399 . S
C1431 H1417 0.929 . S
C1431 C1430 1.399 . S
C1431 C1432 1.385 . S
C1432 H1418 0.931 . S
C1432 C1431 1.385 . S
C1432 C1433 1.389 1_565 S
C1433 C1432 1.389 1_545 S
C1433 C1434 1.387 . S
C1434 H1419 0.930 . S
C1434 C1429 1.385 1_545 S
C1434 C1433 1.387 . S
H1435 C1447 0.930 . S
H1436 C1449 0.930 1_556 S
H1437 C1450 0.890 1_556 S
H1438 C1454 0.959 . S
H1439 C1454 0.959 . S
H1440 C1454 0.961 . S
H1441 C1455 0.960 . S
H1442 C1455 0.961 . S
H1443 C1455 0.959 . S
H1444 C1458 0.929 1_556 S
H1445 C1459 0.931 1_556 S
H1446 C1461 0.930 . S
C1447 H1435 0.930 . S
C1447 C1448 1.399 . S
C1447 C1452 1.399 . S
C1448 C1447 1.399 . S
C1448 C1449 1.376 . S
C1449 H1436 0.930 1_554 S
C1449 C1448 1.376 . S
C1449 C1450 1.392 . S
C1450 H1437 0.890 1_554 S
C1450 C1449 1.392 . S
C1450 C1451 1.428 . S
C1451 C1450 1.428 . S
C1451 C1452 1.394 . S
C1451 C1457 1.465 . S
C1452 C1447 1.399 . S
C1452 C1451 1.394 . S
C1452 C1453 1.516 . S
C1453 C1452 1.516 . S
C1453 C1454 1.502 . S
C1453 C1455 1.561 . S
C1453 C1456 1.526 . S
C1454 H1438 0.959 . S
C1454 H1439 0.959 . S
C1454 H1440 0.961 . S
C1454 C1453 1.502 . S
C1455 H1441 0.960 . S
C1455 H1442 0.961 . S
C1455 H1443 0.959 . S
C1455 C1453 1.561 . S
C1456 C1453 1.526 . S
C1456 C1457 1.396 . S
C1456 C1461 1.390 . S
C1457 C1451 1.465 . S
C1457 C1456 1.396 . S
C1457 C1458 1.399 . S
C1458 H1444 0.929 1_554 S
C1458 C1457 1.399 . S
C1458 C1459 1.385 . S
C1459 H1445 0.931 1_554 S
C1459 C1458 1.385 . S
C1459 C1460 1.389 . S
C1460 C1459 1.389 . S
C1460 C1461 1.387 . S
C1461 H1446 0.930 . S
C1461 C1456 1.390 . S
C1461 C1460 1.387 . S
H1462 C1474 0.930 . S
H1463 C1476 0.930 . S
H1464 C1477 0.930 . S
H1465 C1481 0.959 . S
H1466 C1481 0.959 . S
H1467 C1481 0.961 . S
H1468 C1482 0.960 . S
H1469 C1482 0.961 . S
H1470 C1482 0.959 . S
H1471 C1485 0.929 . S
H1472 C1486 0.931 . S
H1473 C1488 0.930 . S
C1474 H1462 0.930 . S
C1474 C1475 1.399 . S
C1474 C1479 1.399 . S
C1475 C1474 1.399 . S
C1475 C1476 1.376 . S
C1476 H1463 0.930 . S
C1476 C1475 1.376 . S
C1476 C1477 1.388 . S
C1477 H1464 0.930 . S
C1477 C1476 1.388 . S
C1477 C1478 1.390 . S
C1478 C1477 1.390 . S
C1478 C1479 1.394 . S
C1478 C1484 1.465 . S
C1479 C1474 1.399 . S
C1479 C1478 1.394 . S
C1479 C1480 1.516 . S
C1480 C1479 1.516 . S
C1480 C1481 1.502 . S
C1480 C1482 1.561 . S
C1480 C1483 1.526 . S
C1481 H1465 0.959 . S
C1481 H1466 0.959 . S
C1481 H1467 0.961 . S
C1481 C1480 1.502 . S
C1482 H1468 0.960 . S
C1482 H1469 0.961 . S
C1482 H1470 0.959 . S
C1482 C1480 1.561 . S
C1483 C1480 1.526 . S
C1483 C1484 1.396 . S
C1483 C1488 1.390 . S
C1484 C1478 1.465 . S
C1484 C1483 1.396 . S
C1484 C1485 1.399 . S
C1485 H1471 0.929 . S
C1485 C1484 1.399 . S
C1485 C1486 1.385 . S
C1486 H1472 0.931 . S
C1486 C1485 1.385 . S
C1486 C1487 1.389 . S
C1487 C1486 1.389 . S
C1487 C1488 1.387 . S
C1488 H1473 0.930 . S
C1488 C1483 1.390 . S
C1488 C1487 1.387 . S
H1489 C1501 0.930 . S
H1490 C1503 0.930 . S
H1491 C1504 0.930 . S
H1492 C1508 0.959 . S
H1493 C1508 0.959 . S
H1494 C1508 0.961 . S
H1495 C1509 0.960 . S
H1496 C1509 0.961 . S
H1497 C1509 0.959 . S
H1498 C1512 0.929 . S
H1499 C1513 0.931 . S
H1500 C1515 0.930 . S
C1501 H1489 0.930 . S
C1501 C1502 1.399 . S
C1501 C1506 1.399 . S
C1502 C1501 1.399 . S
C1502 C1503 1.376 . S
C1503 H1490 0.930 . S
C1503 C1502 1.376 . S
C1503 C1504 1.388 . S
C1504 H1491 0.930 . S
C1504 C1503 1.388 . S
C1504 C1505 1.390 . S
C1505 C1504 1.390 . S
C1505 C1506 1.394 . S
C1505 C1511 1.465 . S
C1506 C1501 1.399 . S
C1506 C1505 1.394 . S
C1506 C1507 1.516 . S
C1507 C1506 1.516 . S
C1507 C1508 1.502 . S
C1507 C1509 1.561 . S
C1507 C1510 1.526 . S
C1508 H1492 0.959 . S
C1508 H1493 0.959 . S
C1508 H1494 0.961 . S
C1508 C1507 1.502 . S
C1509 H1495 0.960 . S
C1509 H1496 0.961 . S
C1509 H1497 0.959 . S
C1509 C1507 1.561 . S
C1510 C1507 1.526 . S
C1510 C1511 1.396 . S
C1510 C1515 1.390 . S
C1511 C1505 1.465 . S
C1511 C1510 1.396 . S
C1511 C1512 1.399 . S
C1512 H1498 0.929 . S
C1512 C1511 1.399 . S
C1512 C1513 1.385 . S
C1513 H1499 0.931 . S
C1513 C1512 1.385 . S
C1513 C1514 1.389 . S
C1514 C1513 1.389 . S
C1514 C1515 1.387 . S
C1515 H1500 0.930 . S
C1515 C1510 1.390 . S
C1515 C1514 1.387 . S
H1516 C1528 0.930 . S
H1517 C1530 0.930 . S
H1518 C1531 0.930 . S
H1519 C1535 0.959 . S
H1520 C1535 0.959 . S
H1521 C1535 0.961 . S
H1522 C1536 0.960 . S
H1523 C1536 0.961 . S
H1524 C1536 0.959 . S
H1525 C1539 0.929 . S
H1526 C1540 0.931 . S
H1527 C1542 0.930 . S
C1528 H1516 0.930 . S
C1528 C1529 1.399 . S
C1528 C1533 1.399 . S
C1529 C1528 1.399 . S
C1529 C1530 1.376 . S
C1530 H1517 0.930 . S
C1530 C1529 1.376 . S
C1530 C1531 1.388 . S
C1531 H1518 0.930 . S
C1531 C1530 1.388 . S
C1531 C1532 1.390 . S
C1532 C1531 1.390 . S
C1532 C1533 1.394 . S
C1532 C1538 1.465 . S
C1533 C1528 1.399 . S
C1533 C1532 1.394 . S
C1533 C1534 1.516 . S
C1534 C1533 1.516 . S
C1534 C1535 1.502 . S
C1534 C1536 1.561 . S
C1534 C1537 1.526 . S
C1535 H1519 0.959 . S
C1535 H1520 0.959 . S
C1535 H1521 0.961 . S
C1535 C1534 1.502 . S
C1536 H1522 0.960 . S
C1536 H1523 0.961 . S
C1536 H1524 0.959 . S
C1536 C1534 1.561 . S
C1537 C1534 1.526 . S
C1537 C1538 1.396 . S
C1537 C1542 1.390 . S
C1538 C1532 1.465 . S
C1538 C1537 1.396 . S
C1538 C1539 1.399 . S
C1539 H1525 0.929 . S
C1539 C1538 1.399 . S
C1539 C1540 1.385 . S
C1540 H1526 0.931 . S
C1540 C1539 1.385 . S
C1540 C1541 1.389 . S
C1541 C1540 1.389 . S
C1541 C1542 1.387 . S
C1542 H1527 0.930 . S
C1542 C1537 1.390 . S
C1542 C1541 1.387 . S
H1543 C1555 0.930 . S
H1544 C1557 0.930 . S
H1545 C1558 0.930 . S
H1546 C1562 0.959 . S
H1547 C1562 0.959 . S
H1548 C1562 0.961 . S
H1549 C1563 0.960 . S
H1550 C1563 0.961 . S
H1551 C1563 0.959 . S
H1552 C1566 0.929 . S
H1553 C1567 0.931 . S
H1554 C1569 0.930 . S
C1555 H1543 0.930 . S
C1555 C1556 1.399 . S
C1555 C1560 1.399 . S
C1556 C1555 1.399 . S
C1556 C1557 1.376 . S
C1557 H1544 0.930 . S
C1557 C1556 1.376 . S
C1557 C1558 1.388 . S
C1558 H1545 0.930 . S
C1558 C1557 1.388 . S
C1558 C1559 1.390 . S
C1559 C1558 1.390 . S
C1559 C1560 1.394 . S
C1559 C1565 1.465 . S
C1560 C1555 1.399 . S
C1560 C1559 1.394 . S
C1560 C1561 1.516 . S
C1561 C1560 1.516 . S
C1561 C1562 1.502 . S
C1561 C1563 1.561 . S
C1561 C1564 1.526 . S
C1562 H1546 0.959 . S
C1562 H1547 0.959 . S
C1562 H1548 0.961 . S
C1562 C1561 1.502 . S
C1563 H1549 0.960 . S
C1563 H1550 0.961 . S
C1563 H1551 0.959 . S
C1563 C1561 1.561 . S
C1564 C1561 1.526 . S
C1564 C1565 1.396 . S
C1564 C1569 1.390 . S
C1565 C1559 1.465 . S
C1565 C1564 1.396 . S
C1565 C1566 1.399 . S
C1566 H1552 0.929 . S
C1566 C1565 1.399 . S
C1566 C1567 1.385 . S
C1567 H1553 0.931 . S
C1567 C1566 1.385 . S
C1567 C1568 1.389 . S
C1568 C1567 1.389 . S
C1568 C1569 1.387 . S
C1569 H1554 0.930 . S
C1569 C1564 1.390 . S
C1569 C1568 1.387 . S
H1570 C1582 0.930 . S
H1571 C1584 0.930 . S
H1572 C1585 0.930 . S
H1573 C1589 0.959 . S
H1574 C1589 0.959 . S
H1575 C1589 0.961 . S
H1576 C1590 0.960 . S
H1577 C1590 0.961 . S
H1578 C1590 0.959 . S
H1579 C1593 0.929 . S
H1580 C1594 0.931 . S
H1581 C1596 0.930 . S
C1582 H1570 0.930 . S
C1582 C1583 1.399 . S
C1582 C1587 1.399 . S
C1583 C1582 1.399 . S
C1583 C1584 1.376 . S
C1584 H1571 0.930 . S
C1584 C1583 1.376 . S
C1584 C1585 1.388 . S
C1585 H1572 0.930 . S
C1585 C1584 1.388 . S
C1585 C1586 1.390 . S
C1586 C1585 1.390 . S
C1586 C1587 1.394 . S
C1586 C1592 1.465 . S
C1587 C1582 1.399 . S
C1587 C1586 1.394 . S
C1587 C1588 1.516 . S
C1588 C1587 1.516 . S
C1588 C1589 1.502 . S
C1588 C1590 1.561 . S
C1588 C1591 1.526 . S
C1589 H1573 0.959 . S
C1589 H1574 0.959 . S
C1589 H1575 0.961 . S
C1589 C1588 1.502 . S
C1590 H1576 0.960 . S
C1590 H1577 0.961 . S
C1590 H1578 0.959 . S
C1590 C1588 1.561 . S
C1591 C1588 1.526 . S
C1591 C1592 1.396 . S
C1591 C1596 1.390 . S
C1592 C1586 1.465 . S
C1592 C1591 1.396 . S
C1592 C1593 1.399 . S
C1593 H1579 0.929 . S
C1593 C1592 1.399 . S
C1593 C1594 1.385 . S
C1594 H1580 0.931 . S
C1594 C1593 1.385 . S
C1594 C1595 1.389 . S
C1595 C1594 1.389 . S
C1595 C1596 1.387 . S
C1596 H1581 0.930 . S
C1596 C1591 1.390 . S
C1596 C1595 1.387 . S
H1597 C1609 0.930 . S
H1598 C1611 0.930 . S
H1599 C1612 0.930 . S
H1600 C1616 0.959 . S
H1601 C1616 0.959 . S
H1602 C1616 0.961 . S
H1603 C1617 0.960 . S
H1604 C1617 0.961 . S
H1605 C1617 0.959 . S
H1606 C1620 0.929 . S
H1607 C1621 0.931 . S
H1608 C1623 0.930 . S
C1609 H1597 0.930 . S
C1609 C1610 1.399 . S
C1609 C1614 1.399 . S
C1610 C1609 1.399 . S
C1610 C1611 1.376 . S
C1611 H1598 0.930 . S
C1611 C1610 1.376 . S
C1611 C1612 1.388 . S
C1612 H1599 0.930 . S
C1612 C1611 1.388 . S
C1612 C1613 1.390 . S
C1613 C1612 1.390 . S
C1613 C1614 1.394 . S
C1613 C1619 1.465 . S
C1614 C1609 1.399 . S
C1614 C1613 1.394 . S
C1614 C1615 1.516 . S
C1615 C1614 1.516 . S
C1615 C1616 1.502 . S
C1615 C1617 1.561 . S
C1615 C1618 1.526 . S
C1616 H1600 0.959 . S
C1616 H1601 0.959 . S
C1616 H1602 0.961 . S
C1616 C1615 1.502 . S
C1617 H1603 0.960 . S
C1617 H1604 0.961 . S
C1617 H1605 0.959 . S
C1617 C1615 1.561 . S
C1618 C1615 1.526 . S
C1618 C1619 1.396 . S
C1618 C1623 1.390 . S
C1619 C1613 1.465 . S
C1619 C1618 1.396 . S
C1619 C1620 1.399 . S
C1620 H1606 0.929 . S
C1620 C1619 1.399 . S
C1620 C1621 1.385 . S
C1621 H1607 0.931 . S
C1621 C1620 1.385 . S
C1621 C1622 1.389 . S
C1622 C1621 1.389 . S
C1622 C1623 1.387 . S
C1623 H1608 0.930 . S
C1623 C1618 1.390 . S
C1623 C1622 1.387 . S
H1624 C1636 0.930 . S
H1625 C1638 0.930 . S
H1626 C1639 0.930 . S
H1627 C1643 0.959 . S
H1628 C1643 0.959 . S
H1629 C1643 0.961 . S
H1630 C1644 0.960 . S
H1631 C1644 0.961 . S
H1632 C1644 0.959 . S
H1633 C1647 0.929 . S
H1634 C1648 0.931 . S
H1635 C1650 0.930 . S
C1636 H1624 0.930 . S
C1636 C1637 1.399 . S
C1636 C1641 1.399 . S
C1637 C1636 1.399 . S
C1637 C1638 1.376 . S
C1638 H1625 0.930 . S
C1638 C1637 1.376 . S
C1638 C1639 1.388 . S
C1639 H1626 0.930 . S
C1639 C1638 1.388 . S
C1639 C1640 1.390 . S
C1640 C1639 1.390 . S
C1640 C1641 1.394 . S
C1640 C1646 1.465 . S
C1641 C1636 1.399 . S
C1641 C1640 1.394 . S
C1641 C1642 1.516 . S
C1642 C1641 1.516 . S
C1642 C1643 1.502 . S
C1642 C1644 1.561 . S
C1642 C1645 1.526 . S
C1643 H1627 0.959 . S
C1643 H1628 0.959 . S
C1643 H1629 0.961 . S
C1643 C1642 1.502 . S
C1644 H1630 0.960 . S
C1644 H1631 0.961 . S
C1644 H1632 0.959 . S
C1644 C1642 1.561 . S
C1645 C1642 1.526 . S
C1645 C1646 1.396 . S
C1645 C1650 1.390 . S
C1646 C1640 1.465 . S
C1646 C1645 1.396 . S
C1646 C1647 1.399 . S
C1647 H1633 0.929 . S
C1647 C1646 1.399 . S
C1647 C1648 1.385 . S
C1648 H1634 0.931 . S
C1648 C1647 1.385 . S
C1648 C1649 1.389 . S
C1649 C1648 1.389 . S
C1649 C1650 1.387 . S
C1650 H1635 0.930 . S
C1650 C1645 1.390 . S
C1650 C1649 1.387 . S
H1651 C1663 0.930 . S
H1652 C1665 0.930 . S
H1653 C1666 0.930 . S
H1654 C1670 0.959 . S
H1655 C1670 0.959 . S
H1656 C1670 0.961 . S
H1657 C1671 0.960 . S
H1658 C1671 0.961 . S
H1659 C1671 0.959 . S
H1660 C1674 0.929 . S
H1661 C1675 0.931 . S
H1662 C1677 0.930 . S
C1663 H1651 0.930 . S
C1663 C1664 1.399 . S
C1663 C1668 1.399 . S
C1664 C1663 1.399 . S
C1664 C1665 1.376 . S
C1665 H1652 0.930 . S
C1665 C1664 1.376 . S
C1665 C1666 1.388 . S
C1666 H1653 0.930 . S
C1666 C1665 1.388 . S
C1666 C1667 1.390 . S
C1667 C1666 1.390 . S
C1667 C1668 1.394 . S
C1667 C1673 1.465 . S
C1668 C1663 1.399 . S
C1668 C1667 1.394 . S
C1668 C1669 1.516 . S
C1669 C1668 1.516 . S
C1669 C1670 1.502 . S
C1669 C1671 1.561 . S
C1669 C1672 1.526 . S
C1670 H1654 0.959 . S
C1670 H1655 0.959 . S
C1670 H1656 0.961 . S
C1670 C1669 1.502 . S
C1671 H1657 0.960 . S
C1671 H1658 0.961 . S
C1671 H1659 0.959 . S
C1671 C1669 1.561 . S
C1672 C1669 1.526 . S
C1672 C1673 1.396 . S
C1672 C1677 1.390 . S
C1673 C1667 1.465 . S
C1673 C1672 1.396 . S
C1673 C1674 1.399 . S
C1674 H1660 0.929 . S
C1674 C1673 1.399 . S
C1674 C1675 1.385 . S
C1675 H1661 0.931 . S
C1675 C1674 1.385 . S
C1675 C1676 1.389 . S
C1676 C1675 1.389 . S
C1676 C1677 1.387 . S
C1677 H1662 0.930 . S
C1677 C1672 1.390 . S
C1677 C1676 1.387 . S
H1678 C1690 0.930 . S
H1679 C1692 0.930 . S
H1680 C1693 0.930 . S
H1681 C1697 0.959 . S
H1682 C1697 0.959 . S
H1683 C1697 0.961 . S
H1684 C1698 0.960 . S
H1685 C1698 0.961 . S
H1686 C1698 0.959 . S
H1687 C1701 0.929 . S
H1688 C1702 0.931 . S
H1689 C1704 0.930 . S
C1690 H1678 0.930 . S
C1690 C1691 1.399 . S
C1690 C1695 1.399 . S
C1691 C1690 1.399 . S
C1691 C1692 1.376 . S
C1692 H1679 0.930 . S
C1692 C1691 1.376 . S
C1692 C1693 1.388 . S
C1693 H1680 0.930 . S
C1693 C1692 1.388 . S
C1693 C1694 1.390 . S
C1694 C1693 1.390 . S
C1694 C1695 1.394 . S
C1694 C1700 1.465 . S
C1695 C1690 1.399 . S
C1695 C1694 1.394 . S
C1695 C1696 1.516 . S
C1696 C1695 1.516 . S
C1696 C1697 1.502 . S
C1696 C1698 1.561 . S
C1696 C1699 1.526 . S
C1697 H1681 0.959 . S
C1697 H1682 0.959 . S
C1697 H1683 0.961 . S
C1697 C1696 1.502 . S
C1698 H1684 0.960 . S
C1698 H1685 0.961 . S
C1698 H1686 0.959 . S
C1698 C1696 1.561 . S
C1699 C1696 1.526 . S
C1699 C1700 1.396 . S
C1699 C1704 1.390 . S
C1700 C1694 1.465 . S
C1700 C1699 1.396 . S
C1700 C1701 1.399 . S
C1701 H1687 0.929 . S
C1701 C1700 1.399 . S
C1701 C1702 1.385 . S
C1702 H1688 0.931 . S
C1702 C1701 1.385 . S
C1702 C1703 1.389 . S
C1703 C1702 1.389 . S
C1703 C1704 1.387 . S
C1704 H1689 0.930 . S
C1704 C1699 1.390 . S
C1704 C1703 1.387 . S
H1705 C1717 0.930 . S
H1706 C1719 0.930 . S
H1707 C1720 0.930 . S
H1708 C1724 0.959 . S
H1709 C1724 0.959 . S
H1710 C1724 0.961 . S
H1711 C1725 0.960 . S
H1712 C1725 0.961 . S
H1713 C1725 0.959 . S
H1714 C1728 0.929 . S
H1715 C1729 0.931 . S
H1716 C1731 0.930 . S
C1717 H1705 0.930 . S
C1717 C1718 1.399 . S
C1717 C1722 1.399 . S
C1718 C1717 1.399 . S
C1718 C1719 1.376 . S
C1719 H1706 0.930 . S
C1719 C1718 1.376 . S
C1719 C1720 1.388 . S
C1720 H1707 0.930 . S
C1720 C1719 1.388 . S
C1720 C1721 1.390 . S
C1721 C1720 1.390 . S
C1721 C1722 1.394 . S
C1721 C1727 1.465 . S
C1722 C1717 1.399 . S
C1722 C1721 1.394 . S
C1722 C1723 1.516 . S
C1723 C1722 1.516 . S
C1723 C1724 1.502 . S
C1723 C1725 1.561 . S
C1723 C1726 1.526 . S
C1724 H1708 0.959 . S
C1724 H1709 0.959 . S
C1724 H1710 0.961 . S
C1724 C1723 1.502 . S
C1725 H1711 0.960 . S
C1725 H1712 0.961 . S
C1725 H1713 0.959 . S
C1725 C1723 1.561 . S
C1726 C1723 1.526 . S
C1726 C1727 1.396 . S
C1726 C1731 1.390 . S
C1727 C1721 1.465 . S
C1727 C1726 1.396 . S
C1727 C1728 1.399 . S
C1728 H1714 0.929 . S
C1728 C1727 1.399 . S
C1728 C1729 1.385 . S
C1729 H1715 0.931 . S
C1729 C1728 1.385 . S
C1729 C1730 1.389 . S
C1730 C1729 1.389 . S
C1730 C1731 1.387 . S
C1731 H1716 0.930 . S
C1731 C1726 1.390 . S
C1731 C1730 1.387 . S
H1732 C1744 0.930 . S
H1733 C1746 0.930 . S
H1734 C1747 0.930 . S
H1735 C1751 0.959 . S
H1736 C1751 0.959 . S
H1737 C1751 0.961 . S
H1738 C1752 0.960 . S
H1739 C1752 0.961 . S
H1740 C1752 0.959 . S
H1741 C1755 0.929 . S
H1742 C1756 0.931 . S
H1743 C1758 0.930 . S
C1744 H1732 0.930 . S
C1744 C1745 1.399 . S
C1744 C1749 1.399 . S
C1745 C1744 1.399 . S
C1745 C1746 1.376 . S
C1746 H1733 0.930 . S
C1746 C1745 1.376 . S
C1746 C1747 1.388 . S
C1747 H1734 0.930 . S
C1747 C1746 1.388 . S
C1747 C1748 1.390 . S
C1748 C1747 1.390 . S
C1748 C1749 1.394 . S
C1748 C1754 1.465 . S
C1749 C1744 1.399 . S
C1749 C1748 1.394 . S
C1749 C1750 1.516 . S
C1750 C1749 1.516 . S
C1750 C1751 1.502 . S
C1750 C1752 1.561 . S
C1750 C1753 1.526 . S
C1751 H1735 0.959 . S
C1751 H1736 0.959 . S
C1751 H1737 0.961 . S
C1751 C1750 1.502 . S
C1752 H1738 0.960 . S
C1752 H1739 0.961 . S
C1752 H1740 0.959 . S
C1752 C1750 1.561 . S
C1753 C1750 1.526 . S
C1753 C1754 1.396 . S
C1753 C1758 1.390 . S
C1754 C1748 1.465 . S
C1754 C1753 1.396 . S
C1754 C1755 1.399 . S
C1755 H1741 0.929 . S
C1755 C1754 1.399 . S
C1755 C1756 1.385 . S
C1756 H1742 0.931 . S
C1756 C1755 1.385 . S
C1756 C1757 1.389 . S
C1757 C1756 1.389 . S
C1757 C1758 1.387 . S
C1758 H1743 0.930 . S
C1758 C1753 1.390 . S
C1758 C1757 1.387 . S
H1759 C1771 0.930 . S
H1760 C1773 0.930 . S
H1761 C1774 0.930 . S
H1762 C1778 0.959 . S
H1763 C1778 0.959 . S
H1764 C1778 0.961 . S
H1765 C1779 0.960 . S
H1766 C1779 0.961 . S
H1767 C1779 0.959 . S
H1768 C1782 0.929 . S
H1769 C1783 0.931 . S
H1770 C1785 0.930 . S
C1771 H1759 0.930 . S
C1771 C1772 1.399 . S
C1771 C1776 1.399 . S
C1772 C1771 1.399 . S
C1772 C1773 1.376 . S
C1773 H1760 0.930 . S
C1773 C1772 1.376 . S
C1773 C1774 1.388 . S
C1774 H1761 0.930 . S
C1774 C1773 1.388 . S
C1774 C1775 1.390 . S
C1775 C1774 1.390 . S
C1775 C1776 1.394 . S
C1775 C1781 1.465 . S
C1776 C1771 1.399 . S
C1776 C1775 1.394 . S
C1776 C1777 1.516 . S
C1777 C1776 1.516 . S
C1777 C1778 1.502 . S
C1777 C1779 1.561 . S
C1777 C1780 1.526 . S
C1778 H1762 0.959 . S
C1778 H1763 0.959 . S
C1778 H1764 0.961 . S
C1778 C1777 1.502 . S
C1779 H1765 0.960 . S
C1779 H1766 0.961 . S
C1779 H1767 0.959 . S
C1779 C1777 1.561 . S
C1780 C1777 1.526 . S
C1780 C1781 1.396 . S
C1780 C1785 1.390 . S
C1781 C1775 1.465 . S
C1781 C1780 1.396 . S
C1781 C1782 1.399 . S
C1782 H1768 0.929 . S
C1782 C1781 1.399 . S
C1782 C1783 1.385 . S
C1783 H1769 0.931 . S
C1783 C1782 1.385 . S
C1783 C1784 1.389 . S
C1784 C1783 1.389 . S
C1784 C1785 1.387 . S
C1785 H1770 0.930 . S
C1785 C1780 1.390 . S
C1785 C1784 1.387 . S
H1786 C1798 0.930 . S
H1787 C1800 0.930 . S
H1788 C1801 0.930 . S
H1789 C1805 0.959 . S
H1790 C1805 0.959 . S
H1791 C1805 0.961 . S
H1792 C1806 0.960 . S
H1793 C1806 0.961 . S
H1794 C1806 0.959 . S
H1795 C1809 0.929 1_554 S
H1796 C1810 0.931 . S
H1797 C1812 0.930 . S
C1798 H1786 0.930 . S
C1798 C1799 1.399 . S
C1798 C1803 1.399 . S
C1799 C1798 1.399 . S
C1799 C1800 1.376 . S
C1800 H1787 0.930 . S
C1800 C1799 1.376 . S
C1800 C1801 1.388 . S
C1801 H1788 0.930 . S
C1801 C1800 1.388 . S
C1801 C1802 1.390 . S
C1802 C1801 1.390 . S
C1802 C1803 1.394 . S
C1802 C1808 1.465 . S
C1803 C1798 1.399 . S
C1803 C1802 1.394 . S
C1803 C1804 1.516 . S
C1804 C1803 1.516 . S
C1804 C1805 1.502 . S
C1804 C1806 1.561 . S
C1804 C1807 1.526 . S
C1805 H1789 0.959 . S
C1805 H1790 0.959 . S
C1805 H1791 0.961 . S
C1805 C1804 1.502 . S
C1806 H1792 0.960 . S
C1806 H1793 0.961 . S
C1806 H1794 0.959 . S
C1806 C1804 1.561 . S
C1807 C1804 1.526 . S
C1807 C1808 1.396 . S
C1807 C1812 1.390 . S
C1808 C1802 1.465 . S
C1808 C1807 1.396 . S
C1808 C1809 1.399 . S
C1809 H1795 0.929 1_556 S
C1809 C1808 1.399 . S
C1809 C1810 1.385 1_556 S
C1810 H1796 0.931 . S
C1810 C1809 1.385 1_554 S
C1810 C1811 1.389 1_554 S
C1811 C1810 1.389 1_556 S
C1811 C1812 1.387 . S
C1812 H1797 0.930 . S
C1812 C1807 1.390 . S
C1812 C1811 1.387 . S
H1813 C1825 0.930 . S
H1814 C1827 0.930 . S
H1815 C1828 0.930 . S
H1816 C1832 0.959 . S
H1817 C1832 0.959 . S
H1818 C1832 0.961 . S
H1819 C1833 0.960 . S
H1820 C1833 0.961 . S
H1821 C1833 0.959 . S
H1822 C1836 0.929 . S
H1823 C1837 0.931 . S
H1824 C1839 0.930 . S
C1825 H1813 0.930 . S
C1825 C1826 1.399 . S
C1825 C1830 1.399 . S
C1826 C1825 1.399 . S
C1826 C1827 1.376 . S
C1827 H1814 0.930 . S
C1827 C1826 1.376 . S
C1827 C1828 1.388 . S
C1828 H1815 0.930 . S
C1828 C1827 1.388 . S
C1828 C1829 1.390 . S
C1829 C1828 1.390 . S
C1829 C1830 1.394 . S
C1829 C1835 1.465 . S
C1830 C1825 1.399 . S
C1830 C1829 1.394 . S
C1830 C1831 1.516 . S
C1831 C1830 1.516 . S
C1831 C1832 1.502 . S
C1831 C1833 1.561 . S
C1831 C1834 1.526 . S
C1832 H1816 0.959 . S
C1832 H1817 0.959 . S
C1832 H1818 0.961 . S
C1832 C1831 1.502 . S
C1833 H1819 0.960 . S
C1833 H1820 0.961 . S
C1833 H1821 0.959 . S
C1833 C1831 1.561 . S
C1834 C1831 1.526 . S
C1834 C1835 1.396 . S
C1834 C1839 1.390 . S
C1835 C1829 1.465 . S
C1835 C1834 1.396 . S
C1835 C1836 1.399 . S
C1836 H1822 0.929 . S
C1836 C1835 1.399 . S
C1836 C1837 1.385 . S
C1837 H1823 0.931 . S
C1837 C1836 1.385 . S
C1837 C1838 1.389 . S
C1838 C1837 1.389 . S
C1838 C1839 1.387 . S
C1839 H1824 0.930 . S
C1839 C1834 1.390 . S
C1839 C1838 1.387 . S
H1840 C1852 0.930 . S
H1841 C1854 0.930 . S
H1842 C1855 0.930 . S
H1843 C1859 0.999 . S
H1844 C1859 0.928 1_565 S
H1845 C1859 0.944 1_565 S
H1846 C1860 0.960 . S
H1847 C1860 0.961 . S
H1848 C1860 0.959 1_545 S
H1849 C1863 0.929 . S
H1850 C1864 0.931 . S
H1851 C1866 0.962 . S
C1852 H1840 0.930 . S
C1852 C1853 1.399 . S
C1852 C1857 1.399 . S
C1853 C1852 1.399 . S
C1853 C1854 1.376 . S
C1854 H1841 0.930 . S
C1854 C1853 1.376 . S
C1854 C1855 1.388 . S
C1855 H1842 0.930 . S
C1855 C1854 1.388 . S
C1855 C1856 1.390 . S
C1856 C1855 1.390 . S
C1856 C1857 1.394 . S
C1856 C1862 1.465 . S
C1857 C1852 1.399 . S
C1857 C1856 1.394 . S
C1857 C1858 1.516 . S
C1858 C1857 1.516 . S
C1858 C1859 1.514 . S
C1858 C1860 1.561 1_545 S
C1858 C1861 1.526 . S
C1859 H1843 0.999 . S
C1859 H1844 0.928 1_545 S
C1859 H1845 0.944 1_545 S
C1859 C1858 1.514 . S
C1860 H1846 0.960 . S
C1860 H1847 0.961 . S
C1860 H1848 0.959 1_565 S
C1860 C1858 1.561 1_565 S
C1861 C1858 1.526 . S
C1861 C1862 1.396 . S
C1861 C1866 1.390 . S
C1862 C1856 1.465 . S
C1862 C1861 1.396 . S
C1862 C1863 1.399 . S
C1863 H1849 0.929 . S
C1863 C1862 1.399 . S
C1863 C1864 1.385 . S
C1864 H1850 0.931 . S
C1864 C1863 1.385 . S
C1864 C1865 1.389 . S
C1865 C1864 1.389 . S
C1865 C1866 1.387 . S
C1866 H1851 0.962 . S
C1866 C1861 1.390 . S
C1866 C1865 1.387 . S
H1867 C1879 0.930 . S
H1868 C1881 0.930 . S
H1869 C1882 0.930 . S
H1870 C1886 0.959 . S
H1871 C1886 0.959 . S
H1872 C1886 0.961 . S
H1873 C1887 0.960 . S
H1874 C1887 0.961 . S
H1875 C1887 0.959 . S
H1876 C1890 0.929 . S
H1877 C1891 0.931 . S
H1878 C1893 0.930 . S
C1879 H1867 0.930 . S
C1879 C1880 1.399 . S
C1879 C1884 1.399 . S
C1880 C1879 1.399 . S
C1880 C1881 1.376 . S
C1881 H1868 0.930 . S
C1881 C1880 1.376 . S
C1881 C1882 1.388 . S
C1882 H1869 0.930 . S
C1882 C1881 1.388 . S
C1882 C1883 1.390 . S
C1883 C1882 1.390 . S
C1883 C1884 1.394 . S
C1883 C1889 1.465 . S
C1884 C1879 1.399 . S
C1884 C1883 1.394 . S
C1884 C1885 1.516 . S
C1885 C1884 1.516 . S
C1885 C1886 1.502 . S
C1885 C1887 1.561 . S
C1885 C1888 1.526 . S
C1886 H1870 0.959 . S
C1886 H1871 0.959 . S
C1886 H1872 0.961 . S
C1886 C1885 1.502 . S
C1887 H1873 0.960 . S
C1887 H1874 0.961 . S
C1887 H1875 0.959 . S
C1887 C1885 1.561 . S
C1888 C1885 1.526 . S
C1888 C1889 1.396 . S
C1888 C1893 1.390 . S
C1889 C1883 1.465 . S
C1889 C1888 1.396 . S
C1889 C1890 1.399 . S
C1890 H1876 0.929 . S
C1890 C1889 1.399 . S
C1890 C1891 1.385 . S
C1891 H1877 0.931 . S
C1891 C1890 1.385 . S
C1891 C1892 1.389 . S
C1892 C1891 1.389 . S
C1892 C1893 1.387 . S
C1893 H1878 0.930 . S
C1893 C1888 1.390 . S
C1893 C1892 1.387 . S
H1894 C1906 0.930 . S
H1895 C1908 0.930 1_565 S
H1896 C1909 0.930 1_565 S
H1897 C1913 0.959 . S
H1898 C1913 0.959 . S
H1899 C1913 0.961 . S
H1900 C1914 0.960 . S
H1901 C1914 0.961 . S
H1902 C1914 0.959 . S
H1903 C1917 0.929 1_565 S
H1904 C1918 0.931 . S
H1905 C1920 0.930 . S
C1906 H1894 0.930 . S
C1906 C1907 1.399 . S
C1906 C1911 1.399 . S
C1907 C1906 1.399 . S
C1907 C1908 1.376 . S
C1908 H1895 0.930 1_545 S
C1908 C1907 1.376 . S
C1908 C1909 1.388 . S
C1909 H1896 0.930 1_545 S
C1909 C1908 1.388 . S
C1909 C1910 1.390 . S
C1910 C1909 1.390 . S
C1910 C1911 1.394 . S
C1910 C1916 1.465 . S
C1911 C1906 1.399 . S
C1911 C1910 1.394 . S
C1911 C1912 1.516 . S
C1912 C1911 1.516 . S
C1912 C1913 1.502 . S
C1912 C1914 1.561 . S
C1912 C1915 1.526 . S
C1913 H1897 0.959 . S
C1913 H1898 0.959 . S
C1913 H1899 0.961 . S
C1913 C1912 1.502 . S
C1914 H1900 0.960 . S
C1914 H1901 0.961 . S
C1914 H1902 0.959 . S
C1914 C1912 1.561 . S
C1915 C1912 1.526 . S
C1915 C1916 1.396 . S
C1915 C1920 1.390 . S
C1916 C1910 1.465 . S
C1916 C1915 1.396 . S
C1916 C1917 1.399 . S
C1917 H1903 0.929 1_545 S
C1917 C1916 1.399 . S
C1917 C1918 1.385 . S
C1918 H1904 0.931 . S
C1918 C1917 1.385 . S
C1918 C1919 1.389 . S
C1919 C1918 1.389 . S
C1919 C1920 1.387 . S
C1920 H1905 0.930 . S
C1920 C1915 1.390 . S
C1920 C1919 1.387 . S
H1921 C1933 0.930 . S
H1922 C1935 0.930 . S
H1923 C1936 0.930 . S
H1924 C1940 0.959 . S
H1925 C1940 0.959 . S
H1926 C1940 0.961 . S
H1927 C1941 0.960 . S
H1928 C1941 0.961 . S
H1929 C1941 0.959 . S
H1930 C1944 0.929 . S
H1931 C1945 0.931 . S
H1932 C1947 0.930 . S
C1933 H1921 0.930 . S
C1933 C1934 1.399 . S
C1933 C1938 1.399 . S
C1934 C1933 1.399 . S
C1934 C1935 1.376 . S
C1935 H1922 0.930 . S
C1935 C1934 1.376 . S
C1935 C1936 1.388 . S
C1936 H1923 0.930 . S
C1936 C1935 1.388 . S
C1936 C1937 1.390 . S
C1937 C1936 1.390 . S
C1937 C1938 1.394 . S
C1937 C1943 1.465 . S
C1938 C1933 1.399 . S
C1938 C1937 1.394 . S
C1938 C1939 1.516 . S
C1939 C1938 1.516 . S
C1939 C1940 1.502 . S
C1939 C1941 1.561 . S
C1939 C1942 1.526 . S
C1940 H1924 0.959 . S
C1940 H1925 0.959 . S
C1940 H1926 0.961 . S
C1940 C1939 1.502 . S
C1941 H1927 0.960 . S
C1941 H1928 0.961 . S
C1941 H1929 0.959 . S
C1941 C1939 1.561 . S
C1942 C1939 1.526 . S
C1942 C1943 1.396 . S
C1942 C1947 1.390 . S
C1943 C1937 1.465 . S
C1943 C1942 1.396 . S
C1943 C1944 1.399 . S
C1944 H1930 0.929 . S
C1944 C1943 1.399 . S
C1944 C1945 1.385 . S
C1945 H1931 0.931 . S
C1945 C1944 1.385 . S
C1945 C1946 1.389 . S
C1946 C1945 1.389 . S
C1946 C1947 1.387 . S
C1947 H1932 0.930 . S
C1947 C1942 1.390 . S
C1947 C1946 1.387 . S
H1948 C1960 0.930 . S
H1949 C1962 0.930 . S
H1950 C1963 0.930 . S
H1951 C1967 0.959 . S
H1952 C1967 0.959 . S
H1953 C1967 0.961 . S
H1954 C1968 0.960 1_565 S
H1955 C1968 0.961 1_565 S
H1956 C1968 0.959 . S
H1957 C1971 0.929 . S
H1958 C1972 0.931 . S
H1959 C1974 0.930 . S
C1960 H1948 0.930 . S
C1960 C1961 1.399 . S
C1960 C1965 1.399 . S
C1961 C1960 1.399 . S
C1961 C1962 1.376 . S
C1962 H1949 0.930 . S
C1962 C1961 1.376 . S
C1962 C1963 1.388 . S
C1963 H1950 0.930 . S
C1963 C1962 1.388 . S
C1963 C1964 1.390 . S
C1964 C1963 1.390 . S
C1964 C1965 1.394 . S
C1964 C1970 1.465 . S
C1965 C1960 1.399 . S
C1965 C1964 1.394 . S
C1965 C1966 1.516 . S
C1966 C1965 1.516 . S
C1966 C1967 1.502 . S
C1966 C1968 1.561 . S
C1966 C1969 1.526 . S
C1967 H1951 0.959 . S
C1967 H1952 0.959 . S
C1967 H1953 0.961 . S
C1967 C1966 1.502 . S
C1968 H1954 0.960 1_545 S
C1968 H1955 0.961 1_545 S
C1968 H1956 0.959 . S
C1968 C1966 1.561 . S
C1969 C1966 1.526 . S
C1969 C1970 1.396 . S
C1969 C1974 1.390 . S
C1970 C1964 1.465 . S
C1970 C1969 1.396 . S
C1970 C1971 1.399 . S
C1971 H1957 0.929 . S
C1971 C1970 1.399 . S
C1971 C1972 1.385 . S
C1972 H1958 0.931 . S
C1972 C1971 1.385 . S
C1972 C1973 1.389 . S
C1973 C1972 1.389 . S
C1973 C1974 1.387 . S
C1974 H1959 0.930 . S
C1974 C1969 1.390 . S
C1974 C1973 1.387 . S
H1975 C1987 0.930 . S
H1976 C1989 0.930 . S
H1977 C1990 0.930 . S
H1978 C1994 0.959 . S
H1979 C1994 0.959 . S
H1980 C1994 0.961 . S
H1981 C1995 0.960 . S
H1982 C1995 0.961 . S
H1983 C1995 0.959 . S
H1984 C1998 0.929 . S
H1985 C1999 0.931 . S
H1986 C2001 0.930 . S
C1987 H1975 0.930 . S
C1987 C1988 1.399 . S
C1987 C1992 1.399 . S
C1988 C1987 1.399 . S
C1988 C1989 1.376 . S
C1989 H1976 0.930 . S
C1989 C1988 1.376 . S
C1989 C1990 1.388 . S
C1990 H1977 0.930 . S
C1990 C1989 1.388 . S
C1990 C1991 1.390 . S
C1991 C1990 1.390 . S
C1991 C1992 1.394 . S
C1991 C1997 1.465 . S
C1992 C1987 1.399 . S
C1992 C1991 1.394 . S
C1992 C1993 1.516 . S
C1993 C1992 1.516 . S
C1993 C1994 1.502 . S
C1993 C1995 1.561 . S
C1993 C1996 1.526 . S
C1994 H1978 0.959 . S
C1994 H1979 0.959 . S
C1994 H1980 0.961 . S
C1994 C1993 1.502 . S
C1995 H1981 0.960 . S
C1995 H1982 0.961 . S
C1995 H1983 0.959 . S
C1995 C1993 1.561 . S
C1996 C1993 1.526 . S
C1996 C1997 1.396 . S
C1996 C2001 1.390 . S
C1997 C1991 1.465 . S
C1997 C1996 1.396 . S
C1997 C1998 1.399 . S
C1998 H1984 0.929 . S
C1998 C1997 1.399 . S
C1998 C1999 1.385 . S
C1999 H1985 0.931 . S
C1999 C1998 1.385 . S
C1999 C2000 1.389 . S
C2000 C1999 1.389 . S
C2000 C2001 1.387 . S
C2001 H1986 0.930 . S
C2001 C1996 1.390 . S
C2001 C2000 1.387 . S
H2002 C2014 0.930 . S
H2003 C2016 0.899 1_565 S
H2004 C2017 0.930 1_565 S
H2005 C2021 0.959 . S
H2006 C2021 0.959 . S
H2007 C2021 0.961 . S
H2008 C2022 0.960 . S
H2009 C2022 0.961 . S
H2010 C2022 0.959 . S
H2011 C2025 0.929 1_565 S
H2012 C2026 0.931 . S
H2013 C2028 0.930 . S
C2014 H2002 0.930 . S
C2014 C2015 1.399 . S
C2014 C2019 1.399 . S
C2015 C2014 1.399 . S
C2015 C2016 1.376 . S
C2016 H2003 0.899 1_545 S
C2016 C2015 1.376 . S
C2016 C2017 1.388 . S
C2017 H2004 0.930 1_545 S
C2017 C2016 1.388 . S
C2017 C2018 1.390 . S
C2018 C2017 1.390 . S
C2018 C2019 1.394 . S
C2018 C2024 1.465 . S
C2019 C2014 1.399 . S
C2019 C2018 1.394 . S
C2019 C2020 1.516 . S
C2020 C2019 1.516 . S
C2020 C2021 1.502 . S
C2020 C2022 1.561 . S
C2020 C2023 1.526 . S
C2021 H2005 0.959 . S
C2021 H2006 0.959 . S
C2021 H2007 0.961 . S
C2021 C2020 1.502 . S
C2022 H2008 0.960 . S
C2022 H2009 0.961 . S
C2022 H2010 0.959 . S
C2022 C2020 1.561 . S
C2023 C2020 1.526 . S
C2023 C2024 1.396 . S
C2023 C2028 1.390 . S
C2024 C2018 1.465 . S
C2024 C2023 1.396 . S
C2024 C2025 1.399 . S
C2025 H2011 0.929 1_545 S
C2025 C2024 1.399 . S
C2025 C2026 1.385 . S
C2026 H2012 0.931 . S
C2026 C2025 1.385 . S
C2026 C2027 1.389 . S
C2027 C2026 1.389 . S
C2027 C2028 1.387 . S
C2028 H2013 0.930 . S
C2028 C2023 1.390 . S
C2028 C2027 1.387 . S
H2029 C2041 0.930 . S
H2030 C2043 0.930 . S
H2031 C2044 0.930 . S
H2032 C2048 0.959 . S
H2033 C2048 0.959 . S
H2034 C2048 0.961 . S
H2035 C2049 0.960 . S
H2036 C2049 0.961 . S
H2037 C2049 0.959 . S
H2038 C2052 0.929 . S
H2039 C2053 0.931 . S
H2040 C2055 0.930 . S
C2041 H2029 0.930 . S
C2041 C2042 1.399 . S
C2041 C2046 1.399 . S
C2042 C2041 1.399 . S
C2042 C2043 1.376 . S
C2043 H2030 0.930 . S
C2043 C2042 1.376 . S
C2043 C2044 1.388 . S
C2044 H2031 0.930 . S
C2044 C2043 1.388 . S
C2044 C2045 1.390 . S
C2045 C2044 1.390 . S
C2045 C2046 1.394 . S
C2045 C2051 1.465 . S
C2046 C2041 1.399 . S
C2046 C2045 1.394 . S
C2046 C2047 1.516 . S
C2047 C2046 1.516 . S
C2047 C2048 1.502 . S
C2047 C2049 1.561 . S
C2047 C2050 1.526 . S
C2048 H2032 0.959 . S
C2048 H2033 0.959 . S
C2048 H2034 0.961 . S
C2048 C2047 1.502 . S
C2049 H2035 0.960 . S
C2049 H2036 0.961 . S
C2049 H2037 0.959 . S
C2049 C2047 1.561 . S
C2050 C2047 1.526 . S
C2050 C2051 1.396 . S
C2050 C2055 1.390 . S
C2051 C2045 1.465 . S
C2051 C2050 1.396 . S
C2051 C2052 1.399 . S
C2052 H2038 0.929 . S
C2052 C2051 1.399 . S
C2052 C2053 1.385 . S
C2053 H2039 0.931 . S
C2053 C2052 1.385 . S
C2053 C2054 1.389 . S
C2054 C2053 1.389 . S
C2054 C2055 1.387 . S
C2055 H2040 0.930 . S
C2055 C2050 1.390 . S
C2055 C2054 1.387 . S
H2056 C2068 0.930 . S
H2057 C2070 0.930 . S
H2058 C2071 0.930 . S
H2059 C2075 0.959 . S
H2060 C2075 0.959 . S
H2061 C2075 0.961 . S
H2062 C2076 0.960 . S
H2063 C2076 0.961 . S
H2064 C2076 0.959 . S
H2065 C2079 0.929 . S
H2066 C2080 0.931 . S
H2067 C2082 0.930 . S
C2068 H2056 0.930 . S
C2068 C2069 1.399 . S
C2068 C2073 1.399 . S
C2069 C2068 1.399 . S
C2069 C2070 1.376 . S
C2070 H2057 0.930 . S
C2070 C2069 1.376 . S
C2070 C2071 1.388 . S
C2071 H2058 0.930 . S
C2071 C2070 1.388 . S
C2071 C2072 1.390 . S
C2072 C2071 1.390 . S
C2072 C2073 1.394 . S
C2072 C2078 1.465 . S
C2073 C2068 1.399 . S
C2073 C2072 1.394 . S
C2073 C2074 1.516 . S
C2074 C2073 1.516 . S
C2074 C2075 1.502 . S
C2074 C2076 1.561 . S
C2074 C2077 1.526 . S
C2075 H2059 0.959 . S
C2075 H2060 0.959 . S
C2075 H2061 0.961 . S
C2075 C2074 1.502 . S
C2076 H2062 0.960 . S
C2076 H2063 0.961 . S
C2076 H2064 0.959 . S
C2076 C2074 1.561 . S
C2077 C2074 1.526 . S
C2077 C2078 1.396 . S
C2077 C2082 1.390 . S
C2078 C2072 1.465 . S
C2078 C2077 1.396 . S
C2078 C2079 1.399 1_554 S
C2079 H2065 0.929 . S
C2079 C2078 1.399 1_556 S
C2079 C2080 1.385 . S
C2080 H2066 0.931 . S
C2080 C2079 1.385 . S
C2080 C2081 1.389 1_556 S
C2081 C2080 1.389 1_554 S
C2081 C2082 1.387 . S
C2082 H2067 0.930 . S
C2082 C2077 1.390 . S
C2082 C2081 1.387 . S
H2083 C2095 0.930 . S
H2084 C2097 0.930 . S
H2085 C2098 0.930 1_556 S
H2086 C2102 0.959 . S
H2087 C2102 0.959 . S
H2088 C2102 0.961 . S
H2089 C2103 0.960 . S
H2090 C2103 0.961 . S
H2091 C2103 0.959 . S
H2092 C2106 0.929 1_556 S
H2093 C2107 0.931 1_556 S
H2094 C2109 0.930 . S
C2095 H2083 0.930 . S
C2095 C2096 1.399 . S
C2095 C2100 1.399 . S
C2096 C2095 1.399 . S
C2096 C2097 1.376 . S
C2097 H2084 0.930 . S
C2097 C2096 1.376 . S
C2097 C2098 1.388 . S
C2098 H2085 0.930 1_554 S
C2098 C2097 1.388 . S
C2098 C2099 1.390 . S
C2099 C2098 1.390 . S
C2099 C2100 1.394 . S
C2099 C2105 1.465 . S
C2100 C2095 1.399 . S
C2100 C2099 1.394 . S
C2100 C2101 1.516 . S
C2101 C2100 1.516 . S
C2101 C2102 1.502 . S
C2101 C2103 1.561 . S
C2101 C2104 1.526 . S
C2102 H2086 0.959 . S
C2102 H2087 0.959 . S
C2102 H2088 0.961 . S
C2102 C2101 1.502 . S
C2103 H2089 0.960 . S
C2103 H2090 0.961 . S
C2103 H2091 0.959 . S
C2103 C2101 1.561 . S
C2104 C2101 1.526 . S
C2104 C2105 1.396 . S
C2104 C2109 1.390 . S
C2105 C2099 1.465 . S
C2105 C2104 1.396 . S
C2105 C2106 1.399 . S
C2106 H2092 0.929 1_554 S
C2106 C2105 1.399 . S
C2106 C2107 1.385 . S
C2107 H2093 0.931 1_554 S
C2107 C2106 1.385 . S
C2107 C2108 1.389 . S
C2108 C2107 1.389 . S
C2108 C2109 1.387 . S
C2109 H2094 0.930 . S
C2109 C2104 1.390 . S
C2109 C2108 1.387 . S
H2110 C2122 0.930 . S
H2111 C2124 0.930 . S
H2112 C2125 0.930 . S
H2113 C2129 0.959 . S
H2114 C2129 0.959 . S
H2115 C2129 0.961 . S
H2116 C2130 0.960 . S
H2117 C2130 0.961 . S
H2118 C2130 0.959 . S
H2119 C2133 0.929 . S
H2120 C2134 0.931 . S
H2121 C2136 0.930 . S
C2122 H2110 0.930 . S
C2122 C2123 1.399 . S
C2122 C2127 1.399 . S
C2123 C2122 1.399 . S
C2123 C2124 1.376 . S
C2124 H2111 0.930 . S
C2124 C2123 1.376 . S
C2124 C2125 1.388 . S
C2125 H2112 0.930 . S
C2125 C2124 1.388 . S
C2125 C2126 1.390 . S
C2126 C2125 1.390 . S
C2126 C2127 1.394 . S
C2126 C2132 1.465 . S
C2127 C2122 1.399 . S
C2127 C2126 1.394 . S
C2127 C2128 1.516 . S
C2128 C2127 1.516 . S
C2128 C2129 1.502 . S
C2128 C2130 1.561 . S
C2128 C2131 1.526 . S
C2129 H2113 0.959 . S
C2129 H2114 0.959 . S
C2129 H2115 0.961 . S
C2129 C2128 1.502 . S
C2130 H2116 0.960 . S
C2130 H2117 0.961 . S
C2130 H2118 0.959 . S
C2130 C2128 1.561 . S
C2131 C2128 1.526 . S
C2131 C2132 1.396 . S
C2131 C2136 1.390 . S
C2132 C2126 1.465 . S
C2132 C2131 1.396 . S
C2132 C2133 1.399 . S
C2133 H2119 0.929 . S
C2133 C2132 1.399 . S
C2133 C2134 1.385 . S
C2134 H2120 0.931 . S
C2134 C2133 1.385 . S
C2134 C2135 1.389 . S
C2135 C2134 1.389 . S
C2135 C2136 1.387 . S
C2136 H2121 0.930 . S
C2136 C2131 1.390 . S
C2136 C2135 1.387 . S
H2137 C2149 0.930 . S
H2138 C2151 0.930 . S
H2139 C2152 0.930 . S
H2140 C2156 0.959 . S
H2141 C2156 0.959 . S
H2142 C2156 0.961 . S
H2143 C2157 0.960 . S
H2144 C2157 0.961 . S
H2145 C2157 0.959 . S
H2146 C2160 0.929 . S
H2147 C2161 0.931 . S
H2148 C2163 0.930 . S
C2149 H2137 0.930 . S
C2149 C2150 1.399 . S
C2149 C2154 1.399 . S
C2150 C2149 1.399 . S
C2150 C2151 1.376 . S
C2151 H2138 0.930 . S
C2151 C2150 1.376 . S
C2151 C2152 1.388 . S
C2152 H2139 0.930 . S
C2152 C2151 1.388 . S
C2152 C2153 1.390 . S
C2153 C2152 1.390 . S
C2153 C2154 1.394 . S
C2153 C2159 1.465 . S
C2154 C2149 1.399 . S
C2154 C2153 1.394 . S
C2154 C2155 1.516 . S
C2155 C2154 1.516 . S
C2155 C2156 1.502 . S
C2155 C2157 1.561 . S
C2155 C2158 1.526 . S
C2156 H2140 0.959 . S
C2156 H2141 0.959 . S
C2156 H2142 0.961 . S
C2156 C2155 1.502 . S
C2157 H2143 0.960 . S
C2157 H2144 0.961 . S
C2157 H2145 0.959 . S
C2157 C2155 1.561 . S
C2158 C2155 1.526 . S
C2158 C2159 1.396 . S
C2158 C2163 1.390 . S
C2159 C2153 1.465 . S
C2159 C2158 1.396 . S
C2159 C2160 1.399 . S
C2160 H2146 0.929 . S
C2160 C2159 1.399 . S
C2160 C2161 1.385 . S
C2161 H2147 0.931 . S
C2161 C2160 1.385 . S
C2161 C2162 1.389 . S
C2162 C2161 1.389 . S
C2162 C2163 1.387 . S
C2163 H2148 0.930 . S
C2163 C2158 1.390 . S
C2163 C2162 1.387 . S
H2164 C2176 0.930 1_545 S
H2165 C2178 0.930 . S
H2166 C2179 0.930 . S
H2167 C2183 0.959 . S
H2168 C2183 0.959 . S
H2169 C2183 0.961 1_545 S
H2170 C2184 0.960 . S
H2171 C2184 0.961 . S
H2172 C2184 0.959 . S
H2173 C2187 0.929 . S
H2174 C2188 0.931 . S
H2175 C2190 0.930 . S
C2176 H2164 0.930 1_565 S
C2176 C2177 1.399 . S
C2176 C2181 1.399 . S
C2177 C2176 1.399 . S
C2177 C2178 1.376 . S
C2178 H2165 0.930 . S
C2178 C2177 1.376 . S
C2178 C2179 1.388 . S
C2179 H2166 0.930 . S
C2179 C2178 1.388 . S
C2179 C2180 1.390 . S
C2180 C2179 1.390 . S
C2180 C2181 1.394 . S
C2180 C2186 1.465 . S
C2181 C2176 1.399 . S
C2181 C2180 1.394 . S
C2181 C2182 1.516 . S
C2182 C2181 1.516 . S
C2182 C2183 1.502 . S
C2182 C2184 1.561 . S
C2182 C2185 1.526 . S
C2183 H2167 0.959 . S
C2183 H2168 0.959 . S
C2183 H2169 0.961 1_565 S
C2183 C2182 1.502 . S
C2184 H2170 0.960 . S
C2184 H2171 0.961 . S
C2184 H2172 0.959 . S
C2184 C2182 1.561 . S
C2185 C2182 1.526 . S
C2185 C2186 1.396 . S
C2185 C2190 1.390 . S
C2186 C2180 1.465 . S
C2186 C2185 1.396 . S
C2186 C2187 1.399 . S
C2187 H2173 0.929 . S
C2187 C2186 1.399 . S
C2187 C2188 1.385 . S
C2188 H2174 0.931 . S
C2188 C2187 1.385 . S
C2188 C2189 1.389 . S
C2189 C2188 1.389 . S
C2189 C2190 1.387 . S
C2190 H2175 0.930 . S
C2190 C2185 1.390 . S
C2190 C2189 1.387 . S
H2191 C2203 0.930 . S
H2192 C2205 0.930 . S
H2193 C2206 0.930 . S
H2194 C2210 0.959 . S
H2195 C2210 0.959 . S
H2196 C2210 0.961 . S
H2197 C2211 0.960 . S
H2198 C2211 0.961 . S
H2199 C2211 0.959 . S
H2200 C2214 0.929 . S
H2201 C2215 0.931 . S
H2202 C2217 0.930 . S
C2203 H2191 0.930 . S
C2203 C2204 1.399 . S
C2203 C2208 1.399 . S
C2204 C2203 1.399 . S
C2204 C2205 1.376 . S
C2205 H2192 0.930 . S
C2205 C2204 1.376 . S
C2205 C2206 1.388 . S
C2206 H2193 0.930 . S
C2206 C2205 1.388 . S
C2206 C2207 1.390 . S
C2207 C2206 1.390 . S
C2207 C2208 1.394 . S
C2207 C2213 1.465 . S
C2208 C2203 1.399 . S
C2208 C2207 1.394 . S
C2208 C2209 1.516 . S
C2209 C2208 1.516 . S
C2209 C2210 1.502 . S
C2209 C2211 1.561 . S
C2209 C2212 1.526 . S
C2210 H2194 0.959 . S
C2210 H2195 0.959 . S
C2210 H2196 0.961 . S
C2210 C2209 1.502 . S
C2211 H2197 0.960 . S
C2211 H2198 0.961 . S
C2211 H2199 0.959 . S
C2211 C2209 1.561 . S
C2212 C2209 1.526 . S
C2212 C2213 1.396 . S
C2212 C2217 1.390 . S
C2213 C2207 1.465 . S
C2213 C2212 1.396 . S
C2213 C2214 1.399 . S
C2214 H2200 0.929 . S
C2214 C2213 1.399 . S
C2214 C2215 1.385 . S
C2215 H2201 0.931 . S
C2215 C2214 1.385 . S
C2215 C2216 1.389 . S
C2216 C2215 1.389 . S
C2216 C2217 1.387 . S
C2217 H2202 0.930 . S
C2217 C2212 1.390 . S
C2217 C2216 1.387 . S
H2218 C2230 0.930 . S
H2219 C2232 0.930 . S
H2220 C2233 0.930 . S
H2221 C2237 0.959 . S
H2222 C2237 0.959 . S
H2223 C2237 0.961 . S
H2224 C2238 0.960 . S
H2225 C2238 0.961 . S
H2226 C2238 0.959 . S
H2227 C2241 0.929 . S
H2228 C2242 0.931 . S
H2229 C2244 0.930 . S
C2230 H2218 0.930 . S
C2230 C2231 1.399 . S
C2230 C2235 1.399 . S
C2231 C2230 1.399 . S
C2231 C2232 1.376 . S
C2232 H2219 0.930 . S
C2232 C2231 1.376 . S
C2232 C2233 1.388 . S
C2233 H2220 0.930 . S
C2233 C2232 1.388 . S
C2233 C2234 1.390 . S
C2234 C2233 1.390 . S
C2234 C2235 1.394 . S
C2234 C2240 1.465 . S
C2235 C2230 1.399 . S
C2235 C2234 1.394 . S
C2235 C2236 1.516 . S
C2236 C2235 1.516 . S
C2236 C2237 1.502 . S
C2236 C2238 1.561 . S
C2236 C2239 1.526 . S
C2237 H2221 0.959 . S
C2237 H2222 0.959 . S
C2237 H2223 0.961 . S
C2237 C2236 1.502 . S
C2238 H2224 0.960 . S
C2238 H2225 0.961 . S
C2238 H2226 0.959 . S
C2238 C2236 1.561 . S
C2239 C2236 1.526 . S
C2239 C2240 1.396 . S
C2239 C2244 1.390 . S
C2240 C2234 1.465 . S
C2240 C2239 1.396 . S
C2240 C2241 1.399 . S
C2241 H2227 0.929 . S
C2241 C2240 1.399 . S
C2241 C2242 1.385 . S
C2242 H2228 0.931 . S
C2242 C2241 1.385 . S
C2242 C2243 1.389 . S
C2243 C2242 1.389 . S
C2243 C2244 1.387 . S
C2244 H2229 0.930 . S
C2244 C2239 1.390 . S
C2244 C2243 1.387 . S
H2245 C2257 0.930 . S
H2246 C2259 0.930 . S
H2247 C2260 0.930 . S
H2248 C2264 0.959 . S
H2249 C2264 0.959 . S
H2250 C2264 0.961 . S
H2251 C2265 0.960 . S
H2252 C2265 0.961 . S
H2253 C2265 0.959 . S
H2254 C2268 0.929 . S
H2255 C2269 0.931 . S
H2256 C2271 0.930 . S
C2257 H2245 0.930 . S
C2257 C2258 1.399 . S
C2257 C2262 1.399 . S
C2258 C2257 1.399 . S
C2258 C2259 1.376 . S
C2259 H2246 0.930 . S
C2259 C2258 1.376 . S
C2259 C2260 1.388 . S
C2260 H2247 0.930 . S
C2260 C2259 1.388 . S
C2260 C2261 1.390 . S
C2261 C2260 1.390 . S
C2261 C2262 1.394 . S
C2261 C2267 1.465 . S
C2262 C2257 1.399 . S
C2262 C2261 1.394 . S
C2262 C2263 1.516 . S
C2263 C2262 1.516 . S
C2263 C2264 1.502 . S
C2263 C2265 1.561 . S
C2263 C2266 1.526 . S
C2264 H2248 0.959 . S
C2264 H2249 0.959 . S
C2264 H2250 0.961 . S
C2264 C2263 1.502 . S
C2265 H2251 0.960 . S
C2265 H2252 0.961 . S
C2265 H2253 0.959 . S
C2265 C2263 1.561 . S
C2266 C2263 1.526 . S
C2266 C2267 1.396 . S
C2266 C2271 1.390 . S
C2267 C2261 1.465 . S
C2267 C2266 1.396 . S
C2267 C2268 1.399 . S
C2268 H2254 0.929 . S
C2268 C2267 1.399 . S
C2268 C2269 1.385 . S
C2269 H2255 0.931 . S
C2269 C2268 1.385 . S
C2269 C2270 1.389 . S
C2270 C2269 1.389 . S
C2270 C2271 1.387 . S
C2271 H2256 0.930 . S
C2271 C2266 1.390 . S
C2271 C2270 1.387 . S
H2272 C2284 0.930 . S
H2273 C2286 0.930 . S
H2274 C2287 0.930 . S
H2275 C2291 0.959 . S
H2276 C2291 0.959 . S
H2277 C2291 0.961 . S
H2278 C2292 0.960 . S
H2279 C2292 0.961 . S
H2280 C2292 0.959 . S
H2281 C2295 0.929 . S
H2282 C2296 0.931 . S
H2283 C2298 0.930 . S
C2284 H2272 0.930 . S
C2284 C2285 1.399 . S
C2284 C2289 1.399 . S
C2285 C2284 1.399 . S
C2285 C2286 1.376 . S
C2286 H2273 0.930 . S
C2286 C2285 1.376 . S
C2286 C2287 1.388 . S
C2287 H2274 0.930 . S
C2287 C2286 1.388 . S
C2287 C2288 1.390 . S
C2288 C2287 1.390 . S
C2288 C2289 1.394 . S
C2288 C2294 1.465 . S
C2289 C2284 1.399 . S
C2289 C2288 1.394 . S
C2289 C2290 1.516 . S
C2290 C2289 1.516 . S
C2290 C2291 1.502 . S
C2290 C2292 1.561 . S
C2290 C2293 1.526 . S
C2291 H2275 0.959 . S
C2291 H2276 0.959 . S
C2291 H2277 0.961 . S
C2291 C2290 1.502 . S
C2292 H2278 0.960 . S
C2292 H2279 0.961 . S
C2292 H2280 0.959 . S
C2292 C2290 1.561 . S
C2293 C2290 1.526 . S
C2293 C2294 1.396 . S
C2293 C2298 1.390 . S
C2294 C2288 1.465 . S
C2294 C2293 1.396 . S
C2294 C2295 1.399 . S
C2295 H2281 0.929 . S
C2295 C2294 1.399 . S
C2295 C2296 1.385 . S
C2296 H2282 0.931 . S
C2296 C2295 1.385 . S
C2296 C2297 1.389 . S
C2297 C2296 1.389 . S
C2297 C2298 1.387 . S
C2298 H2283 0.930 . S
C2298 C2293 1.390 . S
C2298 C2297 1.387 . S
H2299 C2311 0.930 . S
H2300 C2313 0.930 . S
H2301 C2314 0.930 . S
H2302 C2318 0.959 . S
H2303 C2318 0.959 . S
H2304 C2318 0.961 . S
H2305 C2319 0.960 . S
H2306 C2319 0.961 . S
H2307 C2319 0.959 . S
H2308 C2322 0.929 . S
H2309 C2323 0.931 . S
H2310 C2325 0.930 . S
C2311 H2299 0.930 . S
C2311 C2312 1.399 . S
C2311 C2316 1.399 . S
C2312 C2311 1.399 . S
C2312 C2313 1.376 . S
C2313 H2300 0.930 . S
C2313 C2312 1.376 . S
C2313 C2314 1.388 . S
C2314 H2301 0.930 . S
C2314 C2313 1.388 . S
C2314 C2315 1.390 . S
C2315 C2314 1.390 . S
C2315 C2316 1.394 . S
C2315 C2321 1.465 . S
C2316 C2311 1.399 . S
C2316 C2315 1.394 . S
C2316 C2317 1.516 . S
C2317 C2316 1.516 . S
C2317 C2318 1.502 . S
C2317 C2319 1.561 . S
C2317 C2320 1.526 . S
C2318 H2302 0.959 . S
C2318 H2303 0.959 . S
C2318 H2304 0.961 . S
C2318 C2317 1.502 . S
C2319 H2305 0.960 . S
C2319 H2306 0.961 . S
C2319 H2307 0.959 . S
C2319 C2317 1.561 . S
C2320 C2317 1.526 . S
C2320 C2321 1.396 . S
C2320 C2325 1.390 . S
C2321 C2315 1.465 . S
C2321 C2320 1.396 . S
C2321 C2322 1.399 . S
C2322 H2308 0.929 . S
C2322 C2321 1.399 . S
C2322 C2323 1.385 . S
C2323 H2309 0.931 . S
C2323 C2322 1.385 . S
C2323 C2324 1.389 . S
C2324 C2323 1.389 . S
C2324 C2325 1.387 . S
C2325 H2310 0.930 . S
C2325 C2320 1.390 . S
C2325 C2324 1.387 . S
H2326 C2338 0.930 . S
H2327 C2340 0.930 1_655 S
H2328 C2341 0.907 1_654 S
H2329 C2345 0.959 . S
H2330 C2345 0.959 . S
H2331 C2345 0.961 . S
H2332 C2346 0.960 . S
H2333 C2346 0.961 . S
H2334 C2346 0.959 1_655 S
H2335 C2349 0.929 . S
H2336 C2350 0.931 . S
H2337 C2352 0.930 . S
C2338 H2326 0.930 . S
C2338 C2339 1.399 . S
C2338 C2343 1.399 . S
C2339 C2338 1.399 . S
C2339 C2340 1.376 . S
C2340 H2327 0.930 1_455 S
C2340 C2339 1.376 . S
C2340 C2341 1.402 . S
C2341 H2328 0.907 1_456 S
C2341 C2340 1.402 . S
C2341 C2342 1.400 . S
C2342 C2341 1.400 . S
C2342 C2343 1.394 . S
C2342 C2348 1.465 1_556 S
C2343 C2338 1.399 . S
C2343 C2342 1.394 . S
C2343 C2344 1.516 . S
C2344 C2343 1.516 . S
C2344 C2345 1.502 . S
C2344 C2346 1.561 . S
C2344 C2347 1.526 . S
C2345 H2329 0.959 . S
C2345 H2330 0.959 . S
C2345 H2331 0.961 . S
C2345 C2344 1.502 . S
C2346 H2332 0.960 . S
C2346 H2333 0.961 . S
C2346 H2334 0.959 1_455 S
C2346 C2344 1.561 . S
C2347 C2344 1.526 . S
C2347 C2348 1.396 1_556 S
C2347 C2352 1.390 . S
C2348 C2342 1.465 1_554 S
C2348 C2347 1.396 1_554 S
C2348 C2349 1.399 . S
C2349 H2335 0.929 . S
C2349 C2348 1.399 . S
C2349 C2350 1.385 . S
C2350 H2336 0.931 . S
C2350 C2349 1.385 . S
C2350 C2351 1.389 . S
C2351 C2350 1.389 . S
C2351 C2352 1.387 1_554 S
C2352 H2337 0.930 . S
C2352 C2347 1.390 . S
C2352 C2351 1.387 1_556 S
H2353 C2365 0.930 . S
H2354 C2367 0.930 . S
H2355 C2368 0.930 . S
H2356 C2372 0.959 . S
H2357 C2372 0.959 . S
H2358 C2372 0.961 . S
H2359 C2373 0.960 . S
H2360 C2373 0.961 . S
H2361 C2373 0.959 . S
H2362 C2376 0.929 . S
H2363 C2377 0.931 . S
H2364 C2379 0.930 . S
C2365 H2353 0.930 . S
C2365 C2366 1.399 . S
C2365 C2370 1.399 1_455 S
C2366 C2365 1.399 . S
C2366 C2367 1.376 . S
C2367 H2354 0.930 . S
C2367 C2366 1.376 . S
C2367 C2368 1.388 . S
C2368 H2355 0.930 . S
C2368 C2367 1.388 . S
C2368 C2369 1.390 1_455 S
C2369 C2368 1.390 1_655 S
C2369 C2370 1.394 . S
C2369 C2375 1.465 . S
C2370 C2365 1.399 1_655 S
C2370 C2369 1.394 . S
C2370 C2371 1.516 . S
C2371 C2370 1.516 . S
C2371 C2372 1.502 . S
C2371 C2373 1.561 . S
C2371 C2374 1.526 . S
C2372 H2356 0.959 . S
C2372 H2357 0.959 . S
C2372 H2358 0.961 . S
C2372 C2371 1.502 . S
C2373 H2359 0.960 . S
C2373 H2360 0.961 . S
C2373 H2361 0.959 . S
C2373 C2371 1.561 . S
C2374 C2371 1.526 . S
C2374 C2375 1.396 . S
C2374 C2379 1.390 . S
C2375 C2369 1.465 . S
C2375 C2374 1.396 . S
C2375 C2376 1.399 . S
C2376 H2362 0.929 . S
C2376 C2375 1.399 . S
C2376 C2377 1.385 . S
C2377 H2363 0.931 . S
C2377 C2376 1.385 . S
C2377 C2378 1.389 . S
C2378 C2377 1.389 . S
C2378 C2379 1.387 . S
C2379 H2364 0.930 . S
C2379 C2374 1.390 . S
C2379 C2378 1.387 . S
H2380 C2392 0.930 . S
H2381 C2394 0.930 . S
H2382 C2395 0.930 . S
H2383 C2399 0.959 . S
H2384 C2399 0.959 . S
H2385 C2399 0.961 . S
H2386 C2400 0.960 . S
H2387 C2400 0.961 . S
H2388 C2400 0.959 . S
H2389 C2403 0.929 . S
H2390 C2404 0.931 . S
H2391 C2406 0.930 . S
C2392 H2380 0.930 . S
C2392 C2393 1.399 . S
C2392 C2397 1.399 . S
C2393 C2392 1.399 . S
C2393 C2394 1.376 . S
C2394 H2381 0.930 . S
C2394 C2393 1.376 . S
C2394 C2395 1.388 . S
C2395 H2382 0.930 . S
C2395 C2394 1.388 . S
C2395 C2396 1.390 . S
C2396 C2395 1.390 . S
C2396 C2397 1.394 . S
C2396 C2402 1.465 . S
C2397 C2392 1.399 . S
C2397 C2396 1.394 . S
C2397 C2398 1.516 . S
C2398 C2397 1.516 . S
C2398 C2399 1.502 . S
C2398 C2400 1.561 . S
C2398 C2401 1.526 . S
C2399 H2383 0.959 . S
C2399 H2384 0.959 . S
C2399 H2385 0.961 . S
C2399 C2398 1.502 . S
C2400 H2386 0.960 . S
C2400 H2387 0.961 . S
C2400 H2388 0.959 . S
C2400 C2398 1.561 . S
C2401 C2398 1.526 . S
C2401 C2402 1.396 . S
C2401 C2406 1.390 . S
C2402 C2396 1.465 . S
C2402 C2401 1.396 . S
C2402 C2403 1.399 . S
C2403 H2389 0.929 . S
C2403 C2402 1.399 . S
C2403 C2404 1.385 . S
C2404 H2390 0.931 . S
C2404 C2403 1.385 . S
C2404 C2405 1.389 . S
C2405 C2404 1.389 . S
C2405 C2406 1.387 . S
C2406 H2391 0.930 . S
C2406 C2401 1.390 . S
C2406 C2405 1.387 . S
H2407 C2419 0.930 . S
H2408 C2421 0.930 . S
H2409 C2422 0.930 . S
H2410 C2426 0.959 . S
H2411 C2426 0.959 . S
H2412 C2426 0.961 . S
H2413 C2427 0.960 . S
H2414 C2427 0.961 . S
H2415 C2427 0.959 . S
H2416 C2430 0.929 . S
H2417 C2431 0.931 . S
H2418 C2433 0.930 . S
C2419 H2407 0.930 . S
C2419 C2420 1.399 . S
C2419 C2424 1.399 . S
C2420 C2419 1.399 . S
C2420 C2421 1.376 . S
C2421 H2408 0.930 . S
C2421 C2420 1.376 . S
C2421 C2422 1.388 . S
C2422 H2409 0.930 . S
C2422 C2421 1.388 . S
C2422 C2423 1.390 . S
C2423 C2422 1.390 . S
C2423 C2424 1.394 . S
C2423 C2429 1.465 . S
C2424 C2419 1.399 . S
C2424 C2423 1.394 . S
C2424 C2425 1.516 . S
C2425 C2424 1.516 . S
C2425 C2426 1.502 . S
C2425 C2427 1.561 . S
C2425 C2428 1.526 . S
C2426 H2410 0.959 . S
C2426 H2411 0.959 . S
C2426 H2412 0.961 . S
C2426 C2425 1.502 . S
C2427 H2413 0.960 . S
C2427 H2414 0.961 . S
C2427 H2415 0.959 . S
C2427 C2425 1.561 . S
C2428 C2425 1.526 . S
C2428 C2429 1.396 . S
C2428 C2433 1.390 . S
C2429 C2423 1.465 . S
C2429 C2428 1.396 . S
C2429 C2430 1.399 . S
C2430 H2416 0.929 . S
C2430 C2429 1.399 . S
C2430 C2431 1.385 . S
C2431 H2417 0.931 . S
C2431 C2430 1.385 . S
C2431 C2432 1.389 . S
C2432 C2431 1.389 . S
C2432 C2433 1.387 . S
C2433 H2418 0.930 . S
C2433 C2428 1.390 . S
C2433 C2432 1.387 . S
H2434 C2446 0.930 . S
H2435 C2448 0.930 . S
H2436 C2449 0.930 . S
H2437 C2453 0.959 . S
H2438 C2453 0.959 . S
H2439 C2453 0.961 . S
H2440 C2454 0.960 . S
H2441 C2454 0.961 . S
H2442 C2454 0.959 . S
H2443 C2457 0.929 . S
H2444 C2458 0.931 . S
H2445 C2460 0.930 . S
C2446 H2434 0.930 . S
C2446 C2447 1.399 . S
C2446 C2451 1.399 . S
C2447 C2446 1.399 . S
C2447 C2448 1.376 . S
C2448 H2435 0.930 . S
C2448 C2447 1.376 . S
C2448 C2449 1.388 . S
C2449 H2436 0.930 . S
C2449 C2448 1.388 . S
C2449 C2450 1.390 . S
C2450 C2449 1.390 . S
C2450 C2451 1.394 . S
C2450 C2456 1.465 . S
C2451 C2446 1.399 . S
C2451 C2450 1.394 . S
C2451 C2452 1.516 . S
C2452 C2451 1.516 . S
C2452 C2453 1.502 1_455 S
C2452 C2454 1.561 . S
C2452 C2455 1.526 . S
C2453 H2437 0.959 . S
C2453 H2438 0.959 . S
C2453 H2439 0.961 . S
C2453 C2452 1.502 1_655 S
C2454 H2440 0.960 . S
C2454 H2441 0.961 . S
C2454 H2442 0.959 . S
C2454 C2452 1.561 . S
C2455 C2452 1.526 . S
C2455 C2456 1.396 . S
C2455 C2460 1.390 . S
C2456 C2450 1.465 . S
C2456 C2455 1.396 . S
C2456 C2457 1.399 . S
C2457 H2443 0.929 . S
C2457 C2456 1.399 . S
C2457 C2458 1.385 . S
C2458 H2444 0.931 . S
C2458 C2457 1.385 . S
C2458 C2459 1.389 . S
C2459 C2458 1.389 . S
C2459 C2460 1.387 . S
C2460 H2445 0.930 . S
C2460 C2455 1.390 . S
C2460 C2459 1.387 . S
H2461 C2473 0.930 . S
H2462 C2475 0.930 . S
H2463 C2476 0.930 . S
H2464 C2480 0.959 . S
H2465 C2480 0.959 . S
H2466 C2480 0.961 . S
H2467 C2481 0.960 . S
H2468 C2481 0.961 . S
H2469 C2481 0.959 . S
H2470 C2484 0.929 . S
H2471 C2485 0.931 . S
H2472 C2487 0.930 . S
C2473 H2461 0.930 . S
C2473 C2474 1.399 . S
C2473 C2478 1.399 . S
C2474 C2473 1.399 . S
C2474 C2475 1.376 . S
C2475 H2462 0.930 . S
C2475 C2474 1.376 . S
C2475 C2476 1.388 . S
C2476 H2463 0.930 . S
C2476 C2475 1.388 . S
C2476 C2477 1.390 . S
C2477 C2476 1.390 . S
C2477 C2478 1.394 . S
C2477 C2483 1.465 . S
C2478 C2473 1.399 . S
C2478 C2477 1.394 . S
C2478 C2479 1.516 . S
C2479 C2478 1.516 . S
C2479 C2480 1.502 . S
C2479 C2481 1.561 . S
C2479 C2482 1.526 . S
C2480 H2464 0.959 . S
C2480 H2465 0.959 . S
C2480 H2466 0.961 . S
C2480 C2479 1.502 . S
C2481 H2467 0.960 . S
C2481 H2468 0.961 . S
C2481 H2469 0.959 . S
C2481 C2479 1.561 . S
C2482 C2479 1.526 . S
C2482 C2483 1.396 . S
C2482 C2487 1.390 . S
C2483 C2477 1.465 . S
C2483 C2482 1.396 . S
C2483 C2484 1.399 . S
C2484 H2470 0.929 . S
C2484 C2483 1.399 . S
C2484 C2485 1.385 . S
C2485 H2471 0.931 . S
C2485 C2484 1.385 . S
C2485 C2486 1.389 . S
C2486 C2485 1.389 . S
C2486 C2487 1.387 . S
C2487 H2472 0.930 . S
C2487 C2482 1.390 . S
C2487 C2486 1.387 . S
H2488 C2500 0.930 . S
H2489 C2502 0.930 . S
H2490 C2503 0.930 . S
H2491 C2507 0.959 . S
H2492 C2507 0.959 . S
H2493 C2507 0.961 . S
H2494 C2508 0.960 . S
H2495 C2508 0.961 . S
H2496 C2508 0.959 . S
H2497 C2511 0.929 . S
H2498 C2512 0.931 . S
H2499 C2514 0.930 . S
C2500 H2488 0.930 . S
C2500 C2501 1.399 . S
C2500 C2505 1.399 . S
C2501 C2500 1.399 . S
C2501 C2502 1.376 . S
C2502 H2489 0.930 . S
C2502 C2501 1.376 . S
C2502 C2503 1.388 . S
C2503 H2490 0.930 . S
C2503 C2502 1.388 . S
C2503 C2504 1.390 . S
C2504 C2503 1.390 . S
C2504 C2505 1.394 . S
C2504 C2510 1.465 . S
C2505 C2500 1.399 . S
C2505 C2504 1.394 . S
C2505 C2506 1.516 . S
C2506 C2505 1.516 . S
C2506 C2507 1.502 . S
C2506 C2508 1.561 . S
C2506 C2509 1.526 . S
C2507 H2491 0.959 . S
C2507 H2492 0.959 . S
C2507 H2493 0.961 . S
C2507 C2506 1.502 . S
C2508 H2494 0.960 . S
C2508 H2495 0.961 . S
C2508 H2496 0.959 . S
C2508 C2506 1.561 . S
C2509 C2506 1.526 . S
C2509 C2510 1.396 . S
C2509 C2514 1.390 . S
C2510 C2504 1.465 . S
C2510 C2509 1.396 . S
C2510 C2511 1.399 . S
C2511 H2497 0.929 . S
C2511 C2510 1.399 . S
C2511 C2512 1.385 . S
C2512 H2498 0.931 . S
C2512 C2511 1.385 . S
C2512 C2513 1.389 . S
C2513 C2512 1.389 . S
C2513 C2514 1.387 . S
C2514 H2499 0.930 . S
C2514 C2509 1.390 . S
C2514 C2513 1.387 . S
H2515 C2527 0.930 . S
H2516 C2529 0.930 . S
H2517 C2530 0.930 . S
H2518 C2534 0.959 . S
H2519 C2534 0.959 . S
H2520 C2534 0.961 . S
H2521 C2535 0.960 1_554 S
H2522 C2535 0.961 . S
H2523 C2535 0.959 . S
H2524 C2538 0.929 . S
H2525 C2539 0.931 . S
H2526 C2541 0.930 . S
C2527 H2515 0.930 . S
C2527 C2528 1.399 . S
C2527 C2532 1.399 1_554 S
C2528 C2527 1.399 . S
C2528 C2529 1.376 1_554 S
C2529 H2516 0.930 . S
C2529 C2528 1.376 1_556 S
C2529 C2530 1.388 . S
C2530 H2517 0.930 . S
C2530 C2529 1.388 . S
C2530 C2531 1.390 . S
C2531 C2530 1.390 . S
C2531 C2532 1.394 . S
C2531 C2537 1.465 . S
C2532 C2527 1.399 1_556 S
C2532 C2531 1.394 . S
C2532 C2533 1.516 . S
C2533 C2532 1.516 . S
C2533 C2534 1.502 . S
C2533 C2535 1.561 . S
C2533 C2536 1.526 . S
C2534 H2518 0.959 . S
C2534 H2519 0.959 . S
C2534 H2520 0.961 . S
C2534 C2533 1.502 . S
C2535 H2521 0.960 1_556 S
C2535 H2522 0.961 . S
C2535 H2523 0.959 . S
C2535 C2533 1.561 . S
C2536 C2533 1.526 . S
C2536 C2537 1.396 . S
C2536 C2541 1.390 . S
C2537 C2531 1.465 . S
C2537 C2536 1.396 . S
C2537 C2538 1.399 . S
C2538 H2524 0.929 . S
C2538 C2537 1.399 . S
C2538 C2539 1.385 . S
C2539 H2525 0.931 . S
C2539 C2538 1.385 . S
C2539 C2540 1.389 . S
C2540 C2539 1.389 . S
C2540 C2541 1.387 . S
C2541 H2526 0.930 . S
C2541 C2536 1.390 . S
C2541 C2540 1.387 . S
H2542 C2554 0.930 . S
H2543 C2556 0.930 . S
H2544 C2557 0.930 . S
H2545 C2561 0.959 . S
H2546 C2561 0.959 . S
H2547 C2561 0.961 . S
H2548 C2562 0.960 . S
H2549 C2562 0.961 . S
H2550 C2562 0.959 . S
H2551 C2565 0.929 . S
H2552 C2566 0.931 . S
H2553 C2568 0.930 . S
C2554 H2542 0.930 . S
C2554 C2555 1.399 . S
C2554 C2559 1.399 . S
C2555 C2554 1.399 . S
C2555 C2556 1.376 . S
C2556 H2543 0.930 . S
C2556 C2555 1.376 . S
C2556 C2557 1.388 . S
C2557 H2544 0.930 . S
C2557 C2556 1.388 . S
C2557 C2558 1.390 . S
C2558 C2557 1.390 . S
C2558 C2559 1.394 . S
C2558 C2564 1.465 . S
C2559 C2554 1.399 . S
C2559 C2558 1.394 . S
C2559 C2560 1.516 . S
C2560 C2559 1.516 . S
C2560 C2561 1.502 . S
C2560 C2562 1.561 . S
C2560 C2563 1.526 . S
C2561 H2545 0.959 . S
C2561 H2546 0.959 . S
C2561 H2547 0.961 . S
C2561 C2560 1.502 . S
C2562 H2548 0.960 . S
C2562 H2549 0.961 . S
C2562 H2550 0.959 . S
C2562 C2560 1.561 . S
C2563 C2560 1.526 . S
C2563 C2564 1.396 . S
C2563 C2568 1.390 . S
C2564 C2558 1.465 . S
C2564 C2563 1.396 . S
C2564 C2565 1.399 . S
C2565 H2551 0.929 . S
C2565 C2564 1.399 . S
C2565 C2566 1.385 . S
C2566 H2552 0.931 . S
C2566 C2565 1.385 . S
C2566 C2567 1.389 . S
C2567 C2566 1.389 . S
C2567 C2568 1.387 . S
C2568 H2553 0.930 . S
C2568 C2563 1.390 . S
C2568 C2567 1.387 . S
H2569 C2581 0.930 . S
H2570 C2583 0.930 . S
H2571 C2584 0.930 . S
H2572 C2588 0.959 . S
H2573 C2588 0.959 . S
H2574 C2588 0.961 . S
H2575 C2589 0.960 . S
H2576 C2589 0.961 . S
H2577 C2589 0.959 . S
H2578 C2592 0.929 . S
H2579 C2593 0.931 . S
H2580 C2595 0.930 . S
C2581 H2569 0.930 . S
C2581 C2582 1.399 . S
C2581 C2586 1.399 . S
C2582 C2581 1.399 . S
C2582 C2583 1.376 . S
C2583 H2570 0.930 . S
C2583 C2582 1.376 . S
C2583 C2584 1.388 . S
C2584 H2571 0.930 . S
C2584 C2583 1.388 . S
C2584 C2585 1.390 . S
C2585 C2584 1.390 . S
C2585 C2586 1.394 . S
C2585 C2591 1.465 . S
C2586 C2581 1.399 . S
C2586 C2585 1.394 . S
C2586 C2587 1.516 . S
C2587 C2586 1.516 . S
C2587 C2588 1.502 . S
C2587 C2589 1.561 . S
C2587 C2590 1.526 . S
C2588 H2572 0.959 . S
C2588 H2573 0.959 . S
C2588 H2574 0.961 . S
C2588 C2587 1.502 . S
C2589 H2575 0.960 . S
C2589 H2576 0.961 . S
C2589 H2577 0.959 . S
C2589 C2587 1.561 . S
C2590 C2587 1.526 . S
C2590 C2591 1.396 . S
C2590 C2595 1.390 . S
C2591 C2585 1.465 . S
C2591 C2590 1.396 . S
C2591 C2592 1.399 . S
C2592 H2578 0.929 . S
C2592 C2591 1.399 . S
C2592 C2593 1.385 . S
C2593 H2579 0.931 . S
C2593 C2592 1.385 . S
C2593 C2594 1.389 . S
C2594 C2593 1.389 . S
C2594 C2595 1.387 . S
C2595 H2580 0.930 . S
C2595 C2590 1.390 . S
C2595 C2594 1.387 . S
H2596 C2608 0.930 . S
H2597 C2610 0.930 . S
H2598 C2611 0.930 . S
H2599 C2615 0.959 . S
H2600 C2615 0.959 . S
H2601 C2615 0.961 . S
H2602 C2616 0.960 . S
H2603 C2616 0.961 . S
H2604 C2616 0.959 . S
H2605 C2619 0.929 . S
H2606 C2620 0.931 . S
H2607 C2622 0.930 . S
C2608 H2596 0.930 . S
C2608 C2609 1.399 . S
C2608 C2613 1.399 . S
C2609 C2608 1.399 . S
C2609 C2610 1.376 . S
C2610 H2597 0.930 . S
C2610 C2609 1.376 . S
C2610 C2611 1.388 . S
C2611 H2598 0.930 . S
C2611 C2610 1.388 . S
C2611 C2612 1.390 . S
C2612 C2611 1.390 . S
C2612 C2613 1.394 . S
C2612 C2618 1.465 . S
C2613 C2608 1.399 . S
C2613 C2612 1.394 . S
C2613 C2614 1.516 . S
C2614 C2613 1.516 . S
C2614 C2615 1.502 . S
C2614 C2616 1.561 . S
C2614 C2617 1.526 . S
C2615 H2599 0.959 . S
C2615 H2600 0.959 . S
C2615 H2601 0.961 . S
C2615 C2614 1.502 . S
C2616 H2602 0.960 . S
C2616 H2603 0.961 . S
C2616 H2604 0.959 . S
C2616 C2614 1.561 . S
C2617 C2614 1.526 . S
C2617 C2618 1.396 . S
C2617 C2622 1.390 . S
C2618 C2612 1.465 . S
C2618 C2617 1.396 . S
C2618 C2619 1.399 . S
C2619 H2605 0.929 . S
C2619 C2618 1.399 . S
C2619 C2620 1.385 . S
C2620 H2606 0.931 . S
C2620 C2619 1.385 . S
C2620 C2621 1.389 . S
C2621 C2620 1.389 . S
C2621 C2622 1.387 . S
C2622 H2607 0.930 . S
C2622 C2617 1.390 . S
C2622 C2621 1.387 . S
H2623 C2635 0.930 . S
H2624 C2637 0.930 . S
H2625 C2638 0.930 . S
H2626 C2642 0.959 . S
H2627 C2642 0.959 . S
H2628 C2642 0.961 . S
H2629 C2643 0.960 . S
H2630 C2643 0.961 . S
H2631 C2643 0.959 . S
H2632 C2646 0.929 . S
H2633 C2647 0.931 . S
H2634 C2649 0.930 . S
C2635 H2623 0.930 . S
C2635 C2636 1.399 . S
C2635 C2640 1.399 . S
C2636 C2635 1.399 . S
C2636 C2637 1.376 . S
C2637 H2624 0.930 . S
C2637 C2636 1.376 . S
C2637 C2638 1.388 . S
C2638 H2625 0.930 . S
C2638 C2637 1.388 . S
C2638 C2639 1.390 . S
C2639 C2638 1.390 . S
C2639 C2640 1.394 . S
C2639 C2645 1.465 . S
C2640 C2635 1.399 . S
C2640 C2639 1.394 . S
C2640 C2641 1.516 . S
C2641 C2640 1.516 . S
C2641 C2642 1.502 . S
C2641 C2643 1.561 . S
C2641 C2644 1.526 . S
C2642 H2626 0.959 . S
C2642 H2627 0.959 . S
C2642 H2628 0.961 . S
C2642 C2641 1.502 . S
C2643 H2629 0.960 . S
C2643 H2630 0.961 . S
C2643 H2631 0.959 . S
C2643 C2641 1.561 . S
C2644 C2641 1.526 . S
C2644 C2645 1.396 . S
C2644 C2649 1.390 . S
C2645 C2639 1.465 . S
C2645 C2644 1.396 . S
C2645 C2646 1.399 . S
C2646 H2632 0.929 . S
C2646 C2645 1.399 . S
C2646 C2647 1.385 . S
C2647 H2633 0.931 . S
C2647 C2646 1.385 . S
C2647 C2648 1.389 . S
C2648 C2647 1.389 . S
C2648 C2649 1.387 . S
C2649 H2634 0.930 . S
C2649 C2644 1.390 . S
C2649 C2648 1.387 . S
H2650 C2662 0.930 . S
H2651 C2664 0.930 . S
H2652 C2665 0.930 . S
H2653 C2669 0.959 . S
H2654 C2669 0.959 . S
H2655 C2669 0.961 . S
H2656 C2670 0.960 . S
H2657 C2670 0.961 . S
H2658 C2670 0.959 . S
H2659 C2673 0.929 . S
H2660 C2674 0.931 . S
H2661 C2676 0.930 . S
C2662 H2650 0.930 . S
C2662 C2663 1.399 . S
C2662 C2667 1.399 . S
C2663 C2662 1.399 . S
C2663 C2664 1.376 . S
C2664 H2651 0.930 . S
C2664 C2663 1.376 . S
C2664 C2665 1.388 . S
C2665 H2652 0.930 . S
C2665 C2664 1.388 . S
C2665 C2666 1.390 . S
C2666 C2665 1.390 . S
C2666 C2667 1.394 . S
C2666 C2672 1.465 . S
C2667 C2662 1.399 . S
C2667 C2666 1.394 . S
C2667 C2668 1.516 . S
C2668 C2667 1.516 . S
C2668 C2669 1.502 . S
C2668 C2670 1.561 . S
C2668 C2671 1.526 . S
C2669 H2653 0.959 . S
C2669 H2654 0.959 . S
C2669 H2655 0.961 . S
C2669 C2668 1.502 . S
C2670 H2656 0.960 . S
C2670 H2657 0.961 . S
C2670 H2658 0.959 . S
C2670 C2668 1.561 . S
C2671 C2668 1.526 . S
C2671 C2672 1.396 . S
C2671 C2676 1.390 . S
C2672 C2666 1.465 . S
C2672 C2671 1.396 . S
C2672 C2673 1.399 . S
C2673 H2659 0.929 . S
C2673 C2672 1.399 . S
C2673 C2674 1.385 . S
C2674 H2660 0.931 . S
C2674 C2673 1.385 . S
C2674 C2675 1.389 . S
C2675 C2674 1.389 . S
C2675 C2676 1.387 . S
C2676 H2661 0.930 . S
C2676 C2671 1.390 . S
C2676 C2675 1.387 . S
H2677 C2689 0.930 . S
H2678 C2691 0.930 . S
H2679 C2692 0.930 . S
H2680 C2696 0.959 . S
H2681 C2696 0.959 . S
H2682 C2696 0.961 . S
H2683 C2697 0.960 . S
H2684 C2697 0.961 . S
H2685 C2697 0.959 . S
H2686 C2700 0.929 . S
H2687 C2701 0.931 . S
H2688 C2703 0.930 . S
C2689 H2677 0.930 . S
C2689 C2690 1.399 . S
C2689 C2694 1.399 . S
C2690 C2689 1.399 . S
C2690 C2691 1.376 . S
C2691 H2678 0.930 . S
C2691 C2690 1.376 . S
C2691 C2692 1.388 . S
C2692 H2679 0.930 . S
C2692 C2691 1.388 . S
C2692 C2693 1.390 . S
C2693 C2692 1.390 . S
C2693 C2694 1.394 . S
C2693 C2699 1.465 . S
C2694 C2689 1.399 . S
C2694 C2693 1.394 . S
C2694 C2695 1.516 . S
C2695 C2694 1.516 . S
C2695 C2696 1.502 . S
C2695 C2697 1.561 . S
C2695 C2698 1.526 . S
C2696 H2680 0.959 . S
C2696 H2681 0.959 . S
C2696 H2682 0.961 . S
C2696 C2695 1.502 . S
C2697 H2683 0.960 . S
C2697 H2684 0.961 . S
C2697 H2685 0.959 . S
C2697 C2695 1.561 . S
C2698 C2695 1.526 . S
C2698 C2699 1.396 . S
C2698 C2703 1.390 . S
C2699 C2693 1.465 . S
C2699 C2698 1.396 . S
C2699 C2700 1.399 . S
C2700 H2686 0.929 . S
C2700 C2699 1.399 . S
C2700 C2701 1.385 . S
C2701 H2687 0.931 . S
C2701 C2700 1.385 . S
C2701 C2702 1.389 . S
C2702 C2701 1.389 . S
C2702 C2703 1.387 . S
C2703 H2688 0.930 . S
C2703 C2698 1.390 . S
C2703 C2702 1.387 . S
H2704 C2716 0.930 . S
H2705 C2718 0.930 . S
H2706 C2719 0.930 . S
H2707 C2723 0.959 . S
H2708 C2723 0.959 . S
H2709 C2723 0.961 . S
H2710 C2724 0.960 . S
H2711 C2724 0.961 . S
H2712 C2724 0.959 . S
H2713 C2727 0.929 . S
H2714 C2728 0.931 . S
H2715 C2730 0.930 . S
C2716 H2704 0.930 . S
C2716 C2717 1.399 . S
C2716 C2721 1.399 . S
C2717 C2716 1.399 . S
C2717 C2718 1.376 . S
C2718 H2705 0.930 . S
C2718 C2717 1.376 . S
C2718 C2719 1.388 . S
C2719 H2706 0.930 . S
C2719 C2718 1.388 . S
C2719 C2720 1.390 . S
C2720 C2719 1.390 . S
C2720 C2721 1.394 . S
C2720 C2726 1.465 . S
C2721 C2716 1.399 . S
C2721 C2720 1.394 . S
C2721 C2722 1.516 . S
C2722 C2721 1.516 . S
C2722 C2723 1.502 . S
C2722 C2724 1.561 . S
C2722 C2725 1.526 . S
C2723 H2707 0.959 . S
C2723 H2708 0.959 . S
C2723 H2709 0.961 . S
C2723 C2722 1.502 . S
C2724 H2710 0.960 . S
C2724 H2711 0.961 . S
C2724 H2712 0.959 . S
C2724 C2722 1.561 . S
C2725 C2722 1.526 . S
C2725 C2726 1.396 . S
C2725 C2730 1.390 . S
C2726 C2720 1.465 . S
C2726 C2725 1.396 . S
C2726 C2727 1.399 . S
C2727 H2713 0.929 . S
C2727 C2726 1.399 . S
C2727 C2728 1.385 . S
C2728 H2714 0.931 . S
C2728 C2727 1.385 . S
C2728 C2729 1.389 . S
C2729 C2728 1.389 . S
C2729 C2730 1.387 . S
C2730 H2715 0.930 . S
C2730 C2725 1.390 . S
C2730 C2729 1.387 . S
H2731 C2743 0.930 . S
H2732 C2745 0.930 . S
H2733 C2746 0.930 . S
H2734 C2750 0.959 . S
H2735 C2750 0.959 . S
H2736 C2750 0.961 . S
H2737 C2751 0.960 . S
H2738 C2751 0.961 . S
H2739 C2751 0.959 . S
H2740 C2754 0.929 . S
H2741 C2755 0.931 . S
H2742 C2757 0.930 . S
C2743 H2731 0.930 . S
C2743 C2744 1.399 . S
C2743 C2748 1.399 . S
C2744 C2743 1.399 . S
C2744 C2745 1.376 . S
C2745 H2732 0.930 . S
C2745 C2744 1.376 . S
C2745 C2746 1.388 . S
C2746 H2733 0.930 . S
C2746 C2745 1.388 . S
C2746 C2747 1.390 . S
C2747 C2746 1.390 . S
C2747 C2748 1.394 . S
C2747 C2753 1.465 . S
C2748 C2743 1.399 . S
C2748 C2747 1.394 . S
C2748 C2749 1.516 . S
C2749 C2748 1.516 . S
C2749 C2750 1.502 . S
C2749 C2751 1.561 . S
C2749 C2752 1.526 . S
C2750 H2734 0.959 . S
C2750 H2735 0.959 . S
C2750 H2736 0.961 . S
C2750 C2749 1.502 . S
C2751 H2737 0.960 . S
C2751 H2738 0.961 . S
C2751 H2739 0.959 . S
C2751 C2749 1.561 . S
C2752 C2749 1.526 . S
C2752 C2753 1.396 . S
C2752 C2757 1.390 . S
C2753 C2747 1.465 . S
C2753 C2752 1.396 . S
C2753 C2754 1.399 . S
C2754 H2740 0.929 . S
C2754 C2753 1.399 . S
C2754 C2755 1.385 . S
C2755 H2741 0.931 . S
C2755 C2754 1.385 . S
C2755 C2756 1.389 . S
C2756 C2755 1.389 . S
C2756 C2757 1.387 . S
C2757 H2742 0.930 . S
C2757 C2752 1.390 . S
C2757 C2756 1.387 . S
H2758 C2770 0.930 . S
H2759 C2772 0.956 . S
H2760 C2773 0.930 . S
H2761 C2777 0.959 . S
H2762 C2777 0.959 . S
H2763 C2777 0.961 . S
H2764 C2778 0.960 . S
H2765 C2778 0.961 . S
H2766 C2778 0.959 . S
H2767 C2781 0.929 . S
H2768 C2782 0.931 . S
H2769 C2784 0.930 . S
C2770 H2758 0.930 . S
C2770 C2771 1.437 . S
C2770 C2775 1.399 . S
C2771 C2770 1.437 . S
C2771 C2772 1.361 1_565 S
C2772 H2759 0.956 . S
C2772 C2771 1.361 1_545 S
C2772 C2773 1.370 1_545 S
C2773 H2760 0.930 . S
C2773 C2772 1.370 1_565 S
C2773 C2774 1.390 . S
C2774 C2773 1.390 . S
C2774 C2775 1.394 . S
C2774 C2780 1.465 . S
C2775 C2770 1.399 . S
C2775 C2774 1.394 . S
C2775 C2776 1.516 . S
C2776 C2775 1.516 . S
C2776 C2777 1.502 . S
C2776 C2778 1.561 . S
C2776 C2779 1.526 . S
C2777 H2761 0.959 . S
C2777 H2762 0.959 . S
C2777 H2763 0.961 . S
C2777 C2776 1.502 . S
C2778 H2764 0.960 . S
C2778 H2765 0.961 . S
C2778 H2766 0.959 . S
C2778 C2776 1.561 . S
C2779 C2776 1.526 . S
C2779 C2780 1.396 . S
C2779 C2784 1.390 . S
C2780 C2774 1.465 . S
C2780 C2779 1.396 . S
C2780 C2781 1.399 . S
C2781 H2767 0.929 . S
C2781 C2780 1.399 . S
C2781 C2782 1.385 . S
C2782 H2768 0.931 . S
C2782 C2781 1.385 . S
C2782 C2783 1.389 . S
C2783 C2782 1.389 . S
C2783 C2784 1.387 . S
C2784 H2769 0.930 . S
C2784 C2779 1.390 . S
C2784 C2783 1.387 . S
H2785 C2797 0.930 . S
H2786 C2799 0.930 . S
H2787 C2800 0.930 . S
H2788 C2804 1.002 . S
H2789 C2804 0.958 . S
H2790 C2804 0.951 1_565 S
H2791 C2805 0.960 . S
H2792 C2805 0.961 . S
H2793 C2805 0.959 . S
H2794 C2808 0.929 . S
H2795 C2809 0.931 . S
H2796 C2811 0.930 . S
C2797 H2785 0.930 . S
C2797 C2798 1.399 1_554 S
C2797 C2802 1.399 . S
C2798 C2797 1.399 1_556 S
C2798 C2799 1.376 . S
C2799 H2786 0.930 . S
C2799 C2798 1.376 . S
C2799 C2800 1.388 . S
C2800 H2787 0.930 . S
C2800 C2799 1.388 . S
C2800 C2801 1.390 . S
C2801 C2800 1.390 . S
C2801 C2802 1.394 1_556 S
C2801 C2807 1.465 1_556 S
C2802 C2797 1.399 . S
C2802 C2801 1.394 1_554 S
C2802 C2803 1.516 . S
C2803 C2802 1.516 . S
C2803 C2804 1.474 1_565 S
C2803 C2805 1.561 . S
C2803 C2806 1.526 . S
C2804 H2788 1.002 . S
C2804 H2789 0.958 . S
C2804 H2790 0.951 1_545 S
C2804 C2803 1.474 1_545 S
C2805 H2791 0.960 . S
C2805 H2792 0.961 . S
C2805 H2793 0.959 . S
C2805 C2803 1.561 . S
C2806 C2803 1.526 . S
C2806 C2807 1.396 . S
C2806 C2811 1.390 1_565 S
C2807 C2801 1.465 1_554 S
C2807 C2806 1.396 . S
C2807 C2808 1.399 1_564 S
C2808 H2794 0.929 . S
C2808 C2807 1.399 1_546 S
C2808 C2809 1.385 . S
C2809 H2795 0.931 . S
C2809 C2808 1.385 . S
C2809 C2810 1.389 1_556 S
C2810 C2809 1.389 1_554 S
C2810 C2811 1.387 . S
C2811 H2796 0.930 . S
C2811 C2806 1.390 1_545 S
C2811 C2810 1.387 . S
H2812 C2824 0.930 . S
H2813 C2826 0.930 . S
H2814 C2827 0.930 . S
H2815 C2831 0.959 . S
H2816 C2831 0.959 . S
H2817 C2831 0.961 . S
H2818 C2832 0.960 . S
H2819 C2832 0.961 . S
H2820 C2832 0.959 . S
H2821 C2835 0.929 . S
H2822 C2836 0.931 . S
H2823 C2838 0.930 . S
C2824 H2812 0.930 . S
C2824 C2825 1.399 . S
C2824 C2829 1.399 . S
C2825 C2824 1.399 . S
C2825 C2826 1.376 . S
C2826 H2813 0.930 . S
C2826 C2825 1.376 . S
C2826 C2827 1.388 . S
C2827 H2814 0.930 . S
C2827 C2826 1.388 . S
C2827 C2828 1.390 . S
C2828 C2827 1.390 . S
C2828 C2829 1.394 . S
C2828 C2834 1.465 . S
C2829 C2824 1.399 . S
C2829 C2828 1.394 . S
C2829 C2830 1.516 . S
C2830 C2829 1.516 . S
C2830 C2831 1.502 . S
C2830 C2832 1.561 . S
C2830 C2833 1.526 . S
C2831 H2815 0.959 . S
C2831 H2816 0.959 . S
C2831 H2817 0.961 . S
C2831 C2830 1.502 . S
C2832 H2818 0.960 . S
C2832 H2819 0.961 . S
C2832 H2820 0.959 . S
C2832 C2830 1.561 . S
C2833 C2830 1.526 . S
C2833 C2834 1.396 . S
C2833 C2838 1.390 . S
C2834 C2828 1.465 . S
C2834 C2833 1.396 . S
C2834 C2835 1.399 . S
C2835 H2821 0.929 . S
C2835 C2834 1.399 . S
C2835 C2836 1.385 . S
C2836 H2822 0.931 . S
C2836 C2835 1.385 . S
C2836 C2837 1.389 . S
C2837 C2836 1.389 . S
C2837 C2838 1.387 . S
C2838 H2823 0.930 . S
C2838 C2833 1.390 . S
C2838 C2837 1.387 . S
H2839 C2851 0.930 . S
H2840 C2853 0.930 . S
H2841 C2854 0.930 . S
H2842 C2858 0.959 . S
H2843 C2858 0.959 . S
H2844 C2858 0.959 1_556 S
H2845 C2859 0.960 1_556 S
H2846 C2859 0.961 1_556 S
H2847 C2859 0.959 . S
H2848 C2862 0.929 . S
H2849 C2863 0.931 . S
H2850 C2865 0.930 . S
C2851 H2839 0.930 . S
C2851 C2852 1.399 . S
C2851 C2856 1.399 . S
C2852 C2851 1.399 . S
C2852 C2853 1.376 . S
C2853 H2840 0.930 . S
C2853 C2852 1.376 . S
C2853 C2854 1.388 . S
C2854 H2841 0.930 . S
C2854 C2853 1.388 . S
C2854 C2855 1.390 . S
C2855 C2854 1.390 . S
C2855 C2856 1.394 . S
C2855 C2861 1.465 . S
C2856 C2851 1.399 . S
C2856 C2855 1.394 . S
C2856 C2857 1.516 . S
C2857 C2856 1.516 . S
C2857 C2858 1.502 . S
C2857 C2859 1.561 . S
C2857 C2860 1.526 . S
C2858 H2842 0.959 . S
C2858 H2843 0.959 . S
C2858 H2844 0.959 1_554 S
C2858 C2857 1.502 . S
C2859 H2845 0.960 1_554 S
C2859 H2846 0.961 1_554 S
C2859 H2847 0.959 . S
C2859 C2857 1.561 . S
C2860 C2857 1.526 . S
C2860 C2861 1.396 . S
C2860 C2865 1.390 . S
C2861 C2855 1.465 . S
C2861 C2860 1.396 . S
C2861 C2862 1.399 . S
C2862 H2848 0.929 . S
C2862 C2861 1.399 . S
C2862 C2863 1.385 . S
C2863 H2849 0.931 . S
C2863 C2862 1.385 . S
C2863 C2864 1.389 . S
C2864 C2863 1.389 . S
C2864 C2865 1.387 . S
C2865 H2850 0.930 . S
C2865 C2860 1.390 . S
C2865 C2864 1.387 . S
H2866 C2878 0.930 . S
H2867 C2880 0.930 . S
H2868 C2881 0.930 . S
H2869 C2885 0.959 . S
H2870 C2885 0.959 . S
H2871 C2885 0.961 . S
H2872 C2886 0.960 . S
H2873 C2886 0.961 . S
H2874 C2886 0.959 . S
H2875 C2889 0.929 . S
H2876 C2890 0.931 . S
H2877 C2892 0.930 . S
C2878 H2866 0.930 . S
C2878 C2879 1.399 . S
C2878 C2883 1.399 . S
C2879 C2878 1.399 . S
C2879 C2880 1.376 . S
C2880 H2867 0.930 . S
C2880 C2879 1.376 . S
C2880 C2881 1.388 . S
C2881 H2868 0.930 . S
C2881 C2880 1.388 . S
C2881 C2882 1.390 . S
C2882 C2881 1.390 . S
C2882 C2883 1.394 . S
C2882 C2888 1.465 . S
C2883 C2878 1.399 . S
C2883 C2882 1.394 . S
C2883 C2884 1.516 . S
C2884 C2883 1.516 . S
C2884 C2885 1.502 . S
C2884 C2886 1.561 . S
C2884 C2887 1.526 . S
C2885 H2869 0.959 . S
C2885 H2870 0.959 . S
C2885 H2871 0.961 . S
C2885 C2884 1.502 . S
C2886 H2872 0.960 . S
C2886 H2873 0.961 . S
C2886 H2874 0.959 . S
C2886 C2884 1.561 . S
C2887 C2884 1.526 . S
C2887 C2888 1.396 . S
C2887 C2892 1.390 . S
C2888 C2882 1.465 . S
C2888 C2887 1.396 . S
C2888 C2889 1.399 . S
C2889 H2875 0.929 . S
C2889 C2888 1.399 . S
C2889 C2890 1.385 . S
C2890 H2876 0.931 . S
C2890 C2889 1.385 . S
C2890 C2891 1.389 . S
C2891 C2890 1.389 . S
C2891 C2892 1.387 . S
C2892 H2877 0.930 . S
C2892 C2887 1.390 . S
C2892 C2891 1.387 . S
H2893 C2905 0.930 . S
H2894 C2907 0.930 . S
H2895 C2908 0.930 . S
H2896 C2912 0.959 . S
H2897 C2912 0.959 . S
H2898 C2912 0.961 . S
H2899 C2913 0.960 . S
H2900 C2913 0.961 . S
H2901 C2913 0.959 . S
H2902 C2916 0.929 . S
H2903 C2917 0.931 . S
H2904 C2919 0.930 . S
C2905 H2893 0.930 . S
C2905 C2906 1.399 . S
C2905 C2910 1.399 . S
C2906 C2905 1.399 . S
C2906 C2907 1.376 . S
C2907 H2894 0.930 . S
C2907 C2906 1.376 . S
C2907 C2908 1.388 . S
C2908 H2895 0.930 . S
C2908 C2907 1.388 . S
C2908 C2909 1.390 . S
C2909 C2908 1.390 . S
C2909 C2910 1.394 . S
C2909 C2915 1.465 . S
C2910 C2905 1.399 . S
C2910 C2909 1.394 . S
C2910 C2911 1.516 . S
C2911 C2910 1.516 . S
C2911 C2912 1.502 . S
C2911 C2913 1.561 . S
C2911 C2914 1.526 . S
C2912 H2896 0.959 . S
C2912 H2897 0.959 . S
C2912 H2898 0.961 . S
C2912 C2911 1.502 . S
C2913 H2899 0.960 . S
C2913 H2900 0.961 . S
C2913 H2901 0.959 . S
C2913 C2911 1.561 . S
C2914 C2911 1.526 . S
C2914 C2915 1.396 . S
C2914 C2919 1.390 . S
C2915 C2909 1.465 . S
C2915 C2914 1.396 . S
C2915 C2916 1.399 . S
C2916 H2902 0.929 . S
C2916 C2915 1.399 . S
C2916 C2917 1.385 . S
C2917 H2903 0.931 . S
C2917 C2916 1.385 . S
C2917 C2918 1.389 . S
C2918 C2917 1.389 . S
C2918 C2919 1.387 . S
C2919 H2904 0.930 . S
C2919 C2914 1.390 . S
C2919 C2918 1.387 . S
H2920 C2932 0.930 . S
H2921 C2934 0.930 . S
H2922 C2935 0.930 . S
H2923 C2939 0.959 . S
H2924 C2939 0.959 . S
H2925 C2939 0.961 . S
H2926 C2940 0.960 . S
H2927 C2940 0.961 . S
H2928 C2940 0.959 . S
H2929 C2943 0.929 . S
H2930 C2944 0.931 . S
H2931 C2946 0.930 . S
C2932 H2920 0.930 . S
C2932 C2933 1.399 . S
C2932 C2937 1.399 . S
C2933 C2932 1.399 . S
C2933 C2934 1.376 . S
C2934 H2921 0.930 . S
C2934 C2933 1.376 . S
C2934 C2935 1.388 . S
C2935 H2922 0.930 . S
C2935 C2934 1.388 . S
C2935 C2936 1.390 . S
C2936 C2935 1.390 . S
C2936 C2937 1.394 . S
C2936 C2942 1.465 . S
C2937 C2932 1.399 . S
C2937 C2936 1.394 . S
C2937 C2938 1.516 . S
C2938 C2937 1.516 . S
C2938 C2939 1.502 . S
C2938 C2940 1.561 . S
C2938 C2941 1.526 . S
C2939 H2923 0.959 . S
C2939 H2924 0.959 . S
C2939 H2925 0.961 . S
C2939 C2938 1.502 . S
C2940 H2926 0.960 . S
C2940 H2927 0.961 . S
C2940 H2928 0.959 . S
C2940 C2938 1.561 . S
C2941 C2938 1.526 . S
C2941 C2942 1.396 . S
C2941 C2946 1.390 . S
C2942 C2936 1.465 . S
C2942 C2941 1.396 . S
C2942 C2943 1.399 . S
C2943 H2929 0.929 . S
C2943 C2942 1.399 . S
C2943 C2944 1.385 . S
C2944 H2930 0.931 . S
C2944 C2943 1.385 . S
C2944 C2945 1.389 . S
C2945 C2944 1.389 . S
C2945 C2946 1.387 . S
C2946 H2931 0.930 . S
C2946 C2941 1.390 . S
C2946 C2945 1.387 . S
H2947 C2959 0.930 . S
H2948 C2961 0.930 . S
H2949 C2962 0.930 . S
H2950 C2966 0.959 . S
H2951 C2966 0.959 . S
H2952 C2966 0.961 . S
H2953 C2967 0.960 . S
H2954 C2967 0.961 . S
H2955 C2967 0.959 . S
H2956 C2970 0.929 . S
H2957 C2971 0.931 . S
H2958 C2973 0.930 . S
C2959 H2947 0.930 . S
C2959 C2960 1.399 . S
C2959 C2964 1.399 . S
C2960 C2959 1.399 . S
C2960 C2961 1.376 . S
C2961 H2948 0.930 . S
C2961 C2960 1.376 . S
C2961 C2962 1.388 . S
C2962 H2949 0.930 . S
C2962 C2961 1.388 . S
C2962 C2963 1.390 . S
C2963 C2962 1.390 . S
C2963 C2964 1.394 . S
C2963 C2969 1.465 . S
C2964 C2959 1.399 . S
C2964 C2963 1.394 . S
C2964 C2965 1.516 . S
C2965 C2964 1.516 . S
C2965 C2966 1.502 . S
C2965 C2967 1.561 . S
C2965 C2968 1.526 . S
C2966 H2950 0.959 . S
C2966 H2951 0.959 . S
C2966 H2952 0.961 . S
C2966 C2965 1.502 . S
C2967 H2953 0.960 . S
C2967 H2954 0.961 . S
C2967 H2955 0.959 . S
C2967 C2965 1.561 . S
C2968 C2965 1.526 . S
C2968 C2969 1.396 . S
C2968 C2973 1.390 . S
C2969 C2963 1.465 . S
C2969 C2968 1.396 . S
C2969 C2970 1.399 . S
C2970 H2956 0.929 . S
C2970 C2969 1.399 . S
C2970 C2971 1.385 . S
C2971 H2957 0.931 . S
C2971 C2970 1.385 . S
C2971 C2972 1.389 . S
C2972 C2971 1.389 . S
C2972 C2973 1.387 . S
C2973 H2958 0.930 . S
C2973 C2968 1.390 . S
C2973 C2972 1.387 . S
H2974 C2986 0.930 . S
H2975 C2988 0.930 . S
H2976 C2989 0.930 . S
H2977 C2993 0.959 . S
H2978 C2993 0.959 . S
H2979 C2993 0.961 . S
H2980 C2994 0.960 . S
H2981 C2994 0.961 . S
H2982 C2994 0.959 . S
H2983 C2997 0.929 . S
H2984 C2998 0.931 . S
H2985 C3000 0.930 . S
C2986 H2974 0.930 . S
C2986 C2987 1.399 . S
C2986 C2991 1.399 . S
C2987 C2986 1.399 . S
C2987 C2988 1.376 . S
C2988 H2975 0.930 . S
C2988 C2987 1.376 . S
C2988 C2989 1.388 . S
C2989 H2976 0.930 . S
C2989 C2988 1.388 . S
C2989 C2990 1.390 . S
C2990 C2989 1.390 . S
C2990 C2991 1.394 . S
C2990 C2996 1.465 . S
C2991 C2986 1.399 . S
C2991 C2990 1.394 . S
C2991 C2992 1.516 . S
C2992 C2991 1.516 . S
C2992 C2993 1.502 . S
C2992 C2994 1.561 . S
C2992 C2995 1.526 . S
C2993 H2977 0.959 . S
C2993 H2978 0.959 . S
C2993 H2979 0.961 . S
C2993 C2992 1.502 . S
C2994 H2980 0.960 . S
C2994 H2981 0.961 . S
C2994 H2982 0.959 . S
C2994 C2992 1.561 . S
C2995 C2992 1.526 . S
C2995 C2996 1.396 . S
C2995 C3000 1.390 . S
C2996 C2990 1.465 . S
C2996 C2995 1.396 . S
C2996 C2997 1.399 . S
C2997 H2983 0.929 . S
C2997 C2996 1.399 . S
C2997 C2998 1.385 . S
C2998 H2984 0.931 . S
C2998 C2997 1.385 . S
C2998 C2999 1.389 . S
C2999 C2998 1.389 . S
C2999 C3000 1.387 . S
C3000 H2985 0.930 . S
C3000 C2995 1.390 . S
C3000 C2999 1.387 . S
H3001 C3013 0.930 . S
H3002 C3015 0.930 . S
H3003 C3016 0.930 . S
H3004 C3020 0.959 . S
H3005 C3020 0.959 . S
H3006 C3020 0.961 . S
H3007 C3021 0.960 . S
H3008 C3021 0.961 . S
H3009 C3021 0.959 . S
H3010 C3024 0.929 . S
H3011 C3025 0.931 . S
H3012 C3027 0.930 . S
C3013 H3001 0.930 . S
C3013 C3014 1.399 . S
C3013 C3018 1.399 . S
C3014 C3013 1.399 . S
C3014 C3015 1.376 . S
C3015 H3002 0.930 . S
C3015 C3014 1.376 . S
C3015 C3016 1.388 . S
C3016 H3003 0.930 . S
C3016 C3015 1.388 . S
C3016 C3017 1.390 . S
C3017 C3016 1.390 . S
C3017 C3018 1.394 . S
C3017 C3023 1.465 . S
C3018 C3013 1.399 . S
C3018 C3017 1.394 . S
C3018 C3019 1.516 . S
C3019 C3018 1.516 . S
C3019 C3020 1.502 . S
C3019 C3021 1.561 . S
C3019 C3022 1.526 . S
C3020 H3004 0.959 . S
C3020 H3005 0.959 . S
C3020 H3006 0.961 . S
C3020 C3019 1.502 . S
C3021 H3007 0.960 . S
C3021 H3008 0.961 . S
C3021 H3009 0.959 . S
C3021 C3019 1.561 . S
C3022 C3019 1.526 . S
C3022 C3023 1.396 . S
C3022 C3027 1.390 . S
C3023 C3017 1.465 . S
C3023 C3022 1.396 . S
C3023 C3024 1.399 . S
C3024 H3010 0.929 . S
C3024 C3023 1.399 . S
C3024 C3025 1.385 . S
C3025 H3011 0.931 . S
C3025 C3024 1.385 . S
C3025 C3026 1.389 . S
C3026 C3025 1.389 . S
C3026 C3027 1.387 . S
C3027 H3012 0.930 . S
C3027 C3022 1.390 . S
C3027 C3026 1.387 . S
H3028 C3040 0.930 . S
H3029 C3042 0.930 . S
H3030 C3043 0.930 . S
H3031 C3047 0.959 . S
H3032 C3047 0.959 . S
H3033 C3047 0.961 . S
H3034 C3048 0.960 . S
H3035 C3048 0.961 . S
H3036 C3048 0.959 . S
H3037 C3051 0.929 1_554 S
H3038 C3052 0.931 . S
H3039 C3054 0.930 . S
C3040 H3028 0.930 . S
C3040 C3041 1.399 . S
C3040 C3045 1.399 . S
C3041 C3040 1.399 . S
C3041 C3042 1.376 . S
C3042 H3029 0.930 . S
C3042 C3041 1.376 . S
C3042 C3043 1.388 . S
C3043 H3030 0.930 . S
C3043 C3042 1.388 . S
C3043 C3044 1.390 . S
C3044 C3043 1.390 . S
C3044 C3045 1.394 . S
C3044 C3050 1.465 . S
C3045 C3040 1.399 . S
C3045 C3044 1.394 . S
C3045 C3046 1.516 . S
C3046 C3045 1.516 . S
C3046 C3047 1.502 . S
C3046 C3048 1.561 . S
C3046 C3049 1.526 . S
C3047 H3031 0.959 . S
C3047 H3032 0.959 . S
C3047 H3033 0.961 . S
C3047 C3046 1.502 . S
C3048 H3034 0.960 . S
C3048 H3035 0.961 . S
C3048 H3036 0.959 . S
C3048 C3046 1.561 . S
C3049 C3046 1.526 . S
C3049 C3050 1.396 . S
C3049 C3054 1.390 . S
C3050 C3044 1.465 . S
C3050 C3049 1.396 . S
C3050 C3051 1.399 . S
C3051 H3037 0.929 1_556 S
C3051 C3050 1.399 . S
C3051 C3052 1.385 1_556 S
C3052 H3038 0.931 . S
C3052 C3051 1.385 1_554 S
C3052 C3053 1.389 1_554 S
C3053 C3052 1.389 1_556 S
C3053 C3054 1.387 . S
C3054 H3039 0.930 . S
C3054 C3049 1.390 . S
C3054 C3053 1.387 . S
H3055 C3067 0.930 . S
H3056 C3069 0.930 . S
H3057 C3070 0.930 . S
H3058 C3074 0.959 . S
H3059 C3074 0.959 . S
H3060 C3074 0.961 . S
H3061 C3075 0.960 . S
H3062 C3075 0.961 . S
H3063 C3075 0.959 . S
H3064 C3078 0.929 . S
H3065 C3079 0.931 . S
H3066 C3081 0.930 . S
C3067 H3055 0.930 . S
C3067 C3068 1.399 . S
C3067 C3072 1.399 . S
C3068 C3067 1.399 . S
C3068 C3069 1.376 . S
C3069 H3056 0.930 . S
C3069 C3068 1.376 . S
C3069 C3070 1.388 . S
C3070 H3057 0.930 . S
C3070 C3069 1.388 . S
C3070 C3071 1.390 . S
C3071 C3070 1.390 . S
C3071 C3072 1.394 . S
C3071 C3077 1.465 . S
C3072 C3067 1.399 . S
C3072 C3071 1.394 . S
C3072 C3073 1.516 . S
C3073 C3072 1.516 . S
C3073 C3074 1.502 . S
C3073 C3075 1.561 . S
C3073 C3076 1.526 . S
C3074 H3058 0.959 . S
C3074 H3059 0.959 . S
C3074 H3060 0.961 . S
C3074 C3073 1.502 . S
C3075 H3061 0.960 . S
C3075 H3062 0.961 . S
C3075 H3063 0.959 . S
C3075 C3073 1.561 . S
C3076 C3073 1.526 . S
C3076 C3077 1.396 . S
C3076 C3081 1.390 . S
C3077 C3071 1.465 . S
C3077 C3076 1.396 . S
C3077 C3078 1.399 . S
C3078 H3064 0.929 . S
C3078 C3077 1.399 . S
C3078 C3079 1.385 . S
C3079 H3065 0.931 . S
C3079 C3078 1.385 . S
C3079 C3080 1.389 . S
C3080 C3079 1.389 . S
C3080 C3081 1.387 . S
C3081 H3066 0.930 . S
C3081 C3076 1.390 . S
C3081 C3080 1.387 . S
H3082 C3094 0.930 . S
H3083 C3096 0.930 . S
H3084 C3097 0.930 . S
H3085 C3101 0.959 . S
H3086 C3101 0.959 . S
H3087 C3101 0.961 . S
H3088 C3102 0.960 . S
H3089 C3102 0.961 . S
H3090 C3102 0.959 . S
H3091 C3105 0.929 . S
H3092 C3106 0.931 . S
H3093 C3108 0.930 . S
C3094 H3082 0.930 . S
C3094 C3095 1.399 . S
C3094 C3099 1.399 . S
C3095 C3094 1.399 . S
C3095 C3096 1.376 . S
C3096 H3083 0.930 . S
C3096 C3095 1.376 . S
C3096 C3097 1.388 . S
C3097 H3084 0.930 . S
C3097 C3096 1.388 . S
C3097 C3098 1.390 . S
C3098 C3097 1.390 . S
C3098 C3099 1.394 . S
C3098 C3104 1.465 . S
C3099 C3094 1.399 . S
C3099 C3098 1.394 . S
C3099 C3100 1.516 . S
C3100 C3099 1.516 . S
C3100 C3101 1.502 . S
C3100 C3102 1.561 . S
C3100 C3103 1.526 . S
C3101 H3085 0.959 . S
C3101 H3086 0.959 . S
C3101 H3087 0.961 . S
C3101 C3100 1.502 . S
C3102 H3088 0.960 . S
C3102 H3089 0.961 . S
C3102 H3090 0.959 . S
C3102 C3100 1.561 . S
C3103 C3100 1.526 . S
C3103 C3104 1.396 . S
C3103 C3108 1.390 . S
C3104 C3098 1.465 . S
C3104 C3103 1.396 . S
C3104 C3105 1.399 . S
C3105 H3091 0.929 . S
C3105 C3104 1.399 . S
C3105 C3106 1.385 . S
C3106 H3092 0.931 . S
C3106 C3105 1.385 . S
C3106 C3107 1.389 . S
C3107 C3106 1.389 . S
C3107 C3108 1.387 . S
C3108 H3093 0.930 . S
C3108 C3103 1.390 . S
C3108 C3107 1.387 . S
H3109 C3121 0.930 . S
H3110 C3123 0.930 . S
H3111 C3124 0.930 . S
H3112 C3128 0.959 . S
H3113 C3128 0.959 . S
H3114 C3128 0.961 . S
H3115 C3129 0.960 . S
H3116 C3129 0.961 . S
H3117 C3129 0.959 . S
H3118 C3132 0.929 . S
H3119 C3133 0.931 . S
H3120 C3135 0.930 . S
C3121 H3109 0.930 . S
C3121 C3122 1.399 . S
C3121 C3126 1.399 . S
C3122 C3121 1.399 . S
C3122 C3123 1.376 . S
C3123 H3110 0.930 . S
C3123 C3122 1.376 . S
C3123 C3124 1.388 . S
C3124 H3111 0.930 . S
C3124 C3123 1.388 . S
C3124 C3125 1.390 . S
C3125 C3124 1.390 . S
C3125 C3126 1.394 . S
C3125 C3131 1.465 . S
C3126 C3121 1.399 . S
C3126 C3125 1.394 . S
C3126 C3127 1.516 . S
C3127 C3126 1.516 . S
C3127 C3128 1.502 . S
C3127 C3129 1.561 . S
C3127 C3130 1.526 . S
C3128 H3112 0.959 . S
C3128 H3113 0.959 . S
C3128 H3114 0.961 . S
C3128 C3127 1.502 . S
C3129 H3115 0.960 . S
C3129 H3116 0.961 . S
C3129 H3117 0.959 . S
C3129 C3127 1.561 . S
C3130 C3127 1.526 . S
C3130 C3131 1.396 . S
C3130 C3135 1.390 . S
C3131 C3125 1.465 . S
C3131 C3130 1.396 . S
C3131 C3132 1.399 . S
C3132 H3118 0.929 . S
C3132 C3131 1.399 . S
C3132 C3133 1.385 . S
C3133 H3119 0.931 . S
C3133 C3132 1.385 . S
C3133 C3134 1.389 . S
C3134 C3133 1.389 . S
C3134 C3135 1.387 . S
C3135 H3120 0.930 . S
C3135 C3130 1.390 . S
C3135 C3134 1.387 . S
H3136 C3148 0.930 . S
H3137 C3150 0.930 . S
H3138 C3151 0.930 . S
H3139 C3155 0.959 . S
H3140 C3155 0.959 . S
H3141 C3155 0.961 . S
H3142 C3156 0.960 . S
H3143 C3156 0.961 . S
H3144 C3156 0.959 . S
H3145 C3159 0.929 . S
H3146 C3160 0.931 . S
H3147 C3162 0.930 . S
C3148 H3136 0.930 . S
C3148 C3149 1.399 . S
C3148 C3153 1.399 . S
C3149 C3148 1.399 . S
C3149 C3150 1.376 . S
C3150 H3137 0.930 . S
C3150 C3149 1.376 . S
C3150 C3151 1.388 . S
C3151 H3138 0.930 . S
C3151 C3150 1.388 . S
C3151 C3152 1.390 . S
C3152 C3151 1.390 . S
C3152 C3153 1.394 . S
C3152 C3158 1.465 . S
C3153 C3148 1.399 . S
C3153 C3152 1.394 . S
C3153 C3154 1.516 . S
C3154 C3153 1.516 . S
C3154 C3155 1.502 . S
C3154 C3156 1.561 . S
C3154 C3157 1.526 . S
C3155 H3139 0.959 . S
C3155 H3140 0.959 . S
C3155 H3141 0.961 . S
C3155 C3154 1.502 . S
C3156 H3142 0.960 . S
C3156 H3143 0.961 . S
C3156 H3144 0.959 . S
C3156 C3154 1.561 . S
C3157 C3154 1.526 . S
C3157 C3158 1.396 . S
C3157 C3162 1.390 . S
C3158 C3152 1.465 . S
C3158 C3157 1.396 . S
C3158 C3159 1.399 . S
C3159 H3145 0.929 . S
C3159 C3158 1.399 . S
C3159 C3160 1.385 . S
C3160 H3146 0.931 . S
C3160 C3159 1.385 . S
C3160 C3161 1.389 . S
C3161 C3160 1.389 . S
C3161 C3162 1.387 . S
C3162 H3147 0.930 . S
C3162 C3157 1.390 . S
C3162 C3161 1.387 . S
H3163 C3175 0.930 . S
H3164 C3177 0.930 . S
H3165 C3178 0.930 . S
H3166 C3182 0.959 . S
H3167 C3182 0.959 . S
H3168 C3182 0.961 . S
H3169 C3183 0.960 . S
H3170 C3183 0.961 . S
H3171 C3183 0.959 . S
H3172 C3186 0.929 . S
H3173 C3187 0.931 . S
H3174 C3189 0.930 . S
C3175 H3163 0.930 . S
C3175 C3176 1.399 . S
C3175 C3180 1.399 . S
C3176 C3175 1.399 . S
C3176 C3177 1.376 . S
C3177 H3164 0.930 . S
C3177 C3176 1.376 . S
C3177 C3178 1.388 . S
C3178 H3165 0.930 . S
C3178 C3177 1.388 . S
C3178 C3179 1.390 . S
C3179 C3178 1.390 . S
C3179 C3180 1.394 . S
C3179 C3185 1.465 . S
C3180 C3175 1.399 . S
C3180 C3179 1.394 . S
C3180 C3181 1.516 . S
C3181 C3180 1.516 . S
C3181 C3182 1.502 . S
C3181 C3183 1.561 . S
C3181 C3184 1.526 . S
C3182 H3166 0.959 . S
C3182 H3167 0.959 . S
C3182 H3168 0.961 . S
C3182 C3181 1.502 . S
C3183 H3169 0.960 . S
C3183 H3170 0.961 . S
C3183 H3171 0.959 . S
C3183 C3181 1.561 . S
C3184 C3181 1.526 . S
C3184 C3185 1.396 . S
C3184 C3189 1.390 . S
C3185 C3179 1.465 . S
C3185 C3184 1.396 . S
C3185 C3186 1.399 . S
C3186 H3172 0.929 . S
C3186 C3185 1.399 . S
C3186 C3187 1.385 . S
C3187 H3173 0.931 . S
C3187 C3186 1.385 . S
C3187 C3188 1.389 . S
C3188 C3187 1.389 . S
C3188 C3189 1.387 . S
C3189 H3174 0.930 . S
C3189 C3184 1.390 . S
C3189 C3188 1.387 . S
H3190 C3202 0.930 . S
H3191 C3204 0.930 . S
H3192 C3205 0.930 . S
H3193 C3209 0.959 . S
H3194 C3209 0.959 . S
H3195 C3209 0.961 . S
H3196 C3210 0.960 . S
H3197 C3210 0.961 . S
H3198 C3210 0.959 . S
H3199 C3213 0.929 . S
H3200 C3214 0.931 . S
H3201 C3216 0.930 . S
C3202 H3190 0.930 . S
C3202 C3203 1.399 . S
C3202 C3207 1.399 . S
C3203 C3202 1.399 . S
C3203 C3204 1.376 . S
C3204 H3191 0.930 . S
C3204 C3203 1.376 . S
C3204 C3205 1.388 . S
C3205 H3192 0.930 . S
C3205 C3204 1.388 . S
C3205 C3206 1.390 . S
C3206 C3205 1.390 . S
C3206 C3207 1.394 . S
C3206 C3212 1.465 . S
C3207 C3202 1.399 . S
C3207 C3206 1.394 . S
C3207 C3208 1.516 1_655 S
C3208 C3207 1.516 1_455 S
C3208 C3209 1.502 . S
C3208 C3210 1.561 1_455 S
C3208 C3211 1.526 . S
C3209 H3193 0.959 . S
C3209 H3194 0.959 . S
C3209 H3195 0.961 . S
C3209 C3208 1.502 . S
C3210 H3196 0.960 . S
C3210 H3197 0.961 . S
C3210 H3198 0.959 . S
C3210 C3208 1.561 1_655 S
C3211 C3208 1.526 . S
C3211 C3212 1.396 1_455 S
C3211 C3216 1.390 . S
C3212 C3206 1.465 . S
C3212 C3211 1.396 1_655 S
C3212 C3213 1.399 . S
C3213 H3199 0.929 . S
C3213 C3212 1.399 . S
C3213 C3214 1.385 1_655 S
C3214 H3200 0.931 . S
C3214 C3213 1.385 1_455 S
C3214 C3215 1.389 . S
C3215 C3214 1.389 . S
C3215 C3216 1.387 . S
C3216 H3201 0.930 . S
C3216 C3211 1.390 . S
C3216 C3215 1.387 . S
H3217 C3229 0.930 . S
H3218 C3231 0.930 . S
H3219 C3232 0.930 . S
H3220 C3236 0.959 . S
H3221 C3236 0.959 . S
H3222 C3236 0.961 . S
H3223 C3237 0.960 . S
H3224 C3237 0.961 . S
H3225 C3237 0.959 . S
H3226 C3240 0.929 . S
H3227 C3241 0.931 . S
H3228 C3243 0.930 . S
C3229 H3217 0.930 . S
C3229 C3230 1.399 . S
C3229 C3234 1.399 . S
C3230 C3229 1.399 . S
C3230 C3231 1.376 . S
C3231 H3218 0.930 . S
C3231 C3230 1.376 . S
C3231 C3232 1.388 . S
C3232 H3219 0.930 . S
C3232 C3231 1.388 . S
C3232 C3233 1.390 . S
C3233 C3232 1.390 . S
C3233 C3234 1.394 . S
C3233 C3239 1.465 . S
C3234 C3229 1.399 . S
C3234 C3233 1.394 . S
C3234 C3235 1.516 . S
C3235 C3234 1.516 . S
C3235 C3236 1.502 . S
C3235 C3237 1.561 . S
C3235 C3238 1.526 . S
C3236 H3220 0.959 . S
C3236 H3221 0.959 . S
C3236 H3222 0.961 . S
C3236 C3235 1.502 . S
C3237 H3223 0.960 . S
C3237 H3224 0.961 . S
C3237 H3225 0.959 . S
C3237 C3235 1.561 . S
C3238 C3235 1.526 . S
C3238 C3239 1.396 . S
C3238 C3243 1.390 . S
C3239 C3233 1.465 . S
C3239 C3238 1.396 . S
C3239 C3240 1.399 . S
C3240 H3226 0.929 . S
C3240 C3239 1.399 . S
C3240 C3241 1.385 . S
C3241 H3227 0.931 . S
C3241 C3240 1.385 . S
C3241 C3242 1.389 . S
C3242 C3241 1.389 . S
C3242 C3243 1.387 . S
C3243 H3228 0.930 . S
C3243 C3238 1.390 . S
C3243 C3242 1.387 . S
H3244 C3256 0.930 . S
H3245 C3258 0.930 . S
H3246 C3259 0.930 . S
H3247 C3263 0.959 . S
H3248 C3263 0.959 . S
H3249 C3263 0.961 . S
H3250 C3264 0.960 . S
H3251 C3264 0.961 . S
H3252 C3264 0.959 . S
H3253 C3267 0.929 . S
H3254 C3268 0.931 . S
H3255 C3270 0.930 . S
C3256 H3244 0.930 . S
C3256 C3257 1.399 . S
C3256 C3261 1.399 . S
C3257 C3256 1.399 . S
C3257 C3258 1.376 . S
C3258 H3245 0.930 . S
C3258 C3257 1.376 . S
C3258 C3259 1.388 . S
C3259 H3246 0.930 . S
C3259 C3258 1.388 . S
C3259 C3260 1.390 . S
C3260 C3259 1.390 . S
C3260 C3261 1.394 . S
C3260 C3266 1.465 . S
C3261 C3256 1.399 . S
C3261 C3260 1.394 . S
C3261 C3262 1.516 . S
C3262 C3261 1.516 . S
C3262 C3263 1.502 . S
C3262 C3264 1.561 . S
C3262 C3265 1.526 . S
C3263 H3247 0.959 . S
C3263 H3248 0.959 . S
C3263 H3249 0.961 . S
C3263 C3262 1.502 . S
C3264 H3250 0.960 . S
C3264 H3251 0.961 . S
C3264 H3252 0.959 . S
C3264 C3262 1.561 . S
C3265 C3262 1.526 . S
C3265 C3266 1.396 . S
C3265 C3270 1.390 . S
C3266 C3260 1.465 . S
C3266 C3265 1.396 . S
C3266 C3267 1.399 . S
C3267 H3253 0.929 . S
C3267 C3266 1.399 . S
C3267 C3268 1.385 . S
C3268 H3254 0.931 . S
C3268 C3267 1.385 . S
C3268 C3269 1.389 . S
C3269 C3268 1.389 . S
C3269 C3270 1.387 . S
C3270 H3255 0.930 . S
C3270 C3265 1.390 . S
C3270 C3269 1.387 . S
H3271 C3283 0.930 . S
H3272 C3285 0.930 . S
H3273 C3286 0.930 . S
H3274 C3290 0.959 . S
H3275 C3290 0.959 . S
H3276 C3290 0.961 . S
H3277 C3291 0.960 . S
H3278 C3291 0.961 . S
H3279 C3291 0.959 . S
H3280 C3294 0.929 . S
H3281 C3295 0.931 . S
H3282 C3297 0.930 . S
C3283 H3271 0.930 . S
C3283 C3284 1.399 . S
C3283 C3288 1.399 . S
C3284 C3283 1.399 . S
C3284 C3285 1.376 . S
C3285 H3272 0.930 . S
C3285 C3284 1.376 . S
C3285 C3286 1.388 . S
C3286 H3273 0.930 . S
C3286 C3285 1.388 . S
C3286 C3287 1.390 . S
C3287 C3286 1.390 . S
C3287 C3288 1.394 . S
C3287 C3293 1.465 . S
C3288 C3283 1.399 . S
C3288 C3287 1.394 . S
C3288 C3289 1.516 . S
C3289 C3288 1.516 . S
C3289 C3290 1.502 . S
C3289 C3291 1.561 . S
C3289 C3292 1.526 . S
C3290 H3274 0.959 . S
C3290 H3275 0.959 . S
C3290 H3276 0.961 . S
C3290 C3289 1.502 . S
C3291 H3277 0.960 . S
C3291 H3278 0.961 . S
C3291 H3279 0.959 . S
C3291 C3289 1.561 . S
C3292 C3289 1.526 . S
C3292 C3293 1.396 . S
C3292 C3297 1.390 . S
C3293 C3287 1.465 . S
C3293 C3292 1.396 . S
C3293 C3294 1.399 . S
C3294 H3280 0.929 . S
C3294 C3293 1.399 . S
C3294 C3295 1.385 . S
C3295 H3281 0.931 . S
C3295 C3294 1.385 . S
C3295 C3296 1.389 . S
C3296 C3295 1.389 . S
C3296 C3297 1.387 . S
C3297 H3282 0.930 . S
C3297 C3292 1.390 . S
C3297 C3296 1.387 . S
H3298 C3310 0.930 . S
H3299 C3312 0.930 . S
H3300 C3313 0.930 . S
H3301 C3317 0.959 . S
H3302 C3317 0.959 . S
H3303 C3317 0.961 . S
H3304 C3318 0.960 . S
H3305 C3318 0.961 . S
H3306 C3318 0.959 . S
H3307 C3321 0.929 . S
H3308 C3322 0.931 . S
H3309 C3324 0.930 . S
C3310 H3298 0.930 . S
C3310 C3311 1.399 . S
C3310 C3315 1.399 . S
C3311 C3310 1.399 . S
C3311 C3312 1.376 . S
C3312 H3299 0.930 . S
C3312 C3311 1.376 . S
C3312 C3313 1.388 . S
C3313 H3300 0.930 . S
C3313 C3312 1.388 . S
C3313 C3314 1.390 . S
C3314 C3313 1.390 . S
C3314 C3315 1.394 . S
C3314 C3320 1.465 . S
C3315 C3310 1.399 . S
C3315 C3314 1.394 . S
C3315 C3316 1.516 . S
C3316 C3315 1.516 . S
C3316 C3317 1.502 1_655 S
C3316 C3318 1.561 . S
C3316 C3319 1.526 . S
C3317 H3301 0.959 . S
C3317 H3302 0.959 . S
C3317 H3303 0.961 . S
C3317 C3316 1.502 1_455 S
C3318 H3304 0.960 . S
C3318 H3305 0.961 . S
C3318 H3306 0.959 . S
C3318 C3316 1.561 . S
C3319 C3316 1.526 . S
C3319 C3320 1.396 . S
C3319 C3324 1.390 1_655 S
C3320 C3314 1.465 . S
C3320 C3319 1.396 . S
C3320 C3321 1.399 . S
C3321 H3307 0.929 . S
C3321 C3320 1.399 . S
C3321 C3322 1.385 . S
C3322 H3308 0.931 . S
C3322 C3321 1.385 . S
C3322 C3323 1.389 1_655 S
C3323 C3322 1.389 1_455 S
C3323 C3324 1.387 . S
C3324 H3309 0.930 . S
C3324 C3319 1.390 1_455 S
C3324 C3323 1.387 . S
H3325 C3337 0.930 . S
H3326 C3339 0.930 . S
H3327 C3340 0.930 . S
H3328 C3344 0.959 . S
H3329 C3344 0.959 . S
H3330 C3344 0.961 . S
H3331 C3345 0.960 . S
H3332 C3345 0.961 . S
H3333 C3345 0.959 . S
H3334 C3348 0.929 . S
H3335 C3349 0.931 . S
H3336 C3351 0.930 . S
C3337 H3325 0.930 . S
C3337 C3338 1.399 . S
C3337 C3342 1.399 . S
C3338 C3337 1.399 . S
C3338 C3339 1.376 . S
C3339 H3326 0.930 . S
C3339 C3338 1.376 . S
C3339 C3340 1.388 . S
C3340 H3327 0.930 . S
C3340 C3339 1.388 . S
C3340 C3341 1.390 . S
C3341 C3340 1.390 . S
C3341 C3342 1.394 . S
C3341 C3347 1.465 . S
C3342 C3337 1.399 . S
C3342 C3341 1.394 . S
C3342 C3343 1.516 . S
C3343 C3342 1.516 . S
C3343 C3344 1.502 . S
C3343 C3345 1.561 . S
C3343 C3346 1.526 . S
C3344 H3328 0.959 . S
C3344 H3329 0.959 . S
C3344 H3330 0.961 . S
C3344 C3343 1.502 . S
C3345 H3331 0.960 . S
C3345 H3332 0.961 . S
C3345 H3333 0.959 . S
C3345 C3343 1.561 . S
C3346 C3343 1.526 . S
C3346 C3347 1.396 . S
C3346 C3351 1.390 . S
C3347 C3341 1.465 . S
C3347 C3346 1.396 . S
C3347 C3348 1.399 . S
C3348 H3334 0.929 . S
C3348 C3347 1.399 . S
C3348 C3349 1.385 . S
C3349 H3335 0.931 . S
C3349 C3348 1.385 . S
C3349 C3350 1.389 . S
C3350 C3349 1.389 . S
C3350 C3351 1.387 . S
C3351 H3336 0.930 . S
C3351 C3346 1.390 . S
C3351 C3350 1.387 . S
H3352 C3364 0.930 . S
H3353 C3366 0.930 . S
H3354 C3367 0.930 . S
H3355 C3371 0.959 . S
H3356 C3371 0.959 . S
H3357 C3371 0.961 . S
H3358 C3372 0.960 . S
H3359 C3372 0.961 . S
H3360 C3372 0.959 . S
H3361 C3375 0.929 . S
H3362 C3376 0.931 . S
H3363 C3378 0.930 . S
C3364 H3352 0.930 . S
C3364 C3365 1.399 . S
C3364 C3369 1.399 . S
C3365 C3364 1.399 . S
C3365 C3366 1.376 . S
C3366 H3353 0.930 . S
C3366 C3365 1.376 . S
C3366 C3367 1.388 . S
C3367 H3354 0.930 . S
C3367 C3366 1.388 . S
C3367 C3368 1.390 . S
C3368 C3367 1.390 . S
C3368 C3369 1.394 . S
C3368 C3374 1.465 . S
C3369 C3364 1.399 . S
C3369 C3368 1.394 . S
C3369 C3370 1.516 . S
C3370 C3369 1.516 . S
C3370 C3371 1.502 . S
C3370 C3372 1.561 . S
C3370 C3373 1.526 . S
C3371 H3355 0.959 . S
C3371 H3356 0.959 . S
C3371 H3357 0.961 . S
C3371 C3370 1.502 . S
C3372 H3358 0.960 . S
C3372 H3359 0.961 . S
C3372 H3360 0.959 . S
C3372 C3370 1.561 . S
C3373 C3370 1.526 . S
C3373 C3374 1.396 . S
C3373 C3378 1.390 . S
C3374 C3368 1.465 . S
C3374 C3373 1.396 . S
C3374 C3375 1.399 . S
C3375 H3361 0.929 . S
C3375 C3374 1.399 . S
C3375 C3376 1.385 . S
C3376 H3362 0.931 . S
C3376 C3375 1.385 . S
C3376 C3377 1.389 . S
C3377 C3376 1.389 . S
C3377 C3378 1.387 . S
C3378 H3363 0.930 . S
C3378 C3373 1.390 . S
C3378 C3377 1.387 . S
H3379 C3391 0.930 . S
H3380 C3393 0.930 . S
H3381 C3394 0.930 . S
H3382 C3398 0.959 . S
H3383 C3398 0.959 1_545 S
H3384 C3398 0.961 . S
H3385 C3399 0.960 . S
H3386 C3399 0.961 . S
H3387 C3399 0.959 . S
H3388 C3402 0.929 . S
H3389 C3403 0.931 . S
H3390 C3405 0.930 1_545 S
C3391 H3379 0.930 . S
C3391 C3392 1.399 . S
C3391 C3396 1.399 . S
C3392 C3391 1.399 . S
C3392 C3393 1.376 . S
C3393 H3380 0.930 . S
C3393 C3392 1.376 . S
C3393 C3394 1.388 . S
C3394 H3381 0.930 . S
C3394 C3393 1.388 . S
C3394 C3395 1.390 . S
C3395 C3394 1.390 . S
C3395 C3396 1.394 . S
C3395 C3401 1.465 . S
C3396 C3391 1.399 . S
C3396 C3395 1.394 . S
C3396 C3397 1.516 . S
C3397 C3396 1.516 . S
C3397 C3398 1.502 . S
C3397 C3399 1.561 . S
C3397 C3400 1.526 . S
C3398 H3382 0.959 . S
C3398 H3383 0.959 1_565 S
C3398 H3384 0.961 . S
C3398 C3397 1.502 . S
C3399 H3385 0.960 . S
C3399 H3386 0.961 . S
C3399 H3387 0.959 . S
C3399 C3397 1.561 . S
C3400 C3397 1.526 . S
C3400 C3401 1.396 . S
C3400 C3405 1.390 . S
C3401 C3395 1.465 . S
C3401 C3400 1.396 . S
C3401 C3402 1.399 . S
C3402 H3388 0.929 . S
C3402 C3401 1.399 . S
C3402 C3403 1.385 . S
C3403 H3389 0.931 . S
C3403 C3402 1.385 . S
C3403 C3404 1.389 . S
C3404 C3403 1.389 . S
C3404 C3405 1.387 . S
C3405 H3390 0.930 1_565 S
C3405 C3400 1.390 . S
C3405 C3404 1.387 . S
H3406 C3418 0.930 . S
H3407 C3420 0.930 . S
H3408 C3421 0.930 . S
H3409 C3425 0.959 . S
H3410 C3425 0.959 . S
H3411 C3425 0.961 . S
H3412 C3426 0.960 . S
H3413 C3426 0.961 . S
H3414 C3426 0.959 . S
H3415 C3429 0.929 . S
H3416 C3430 0.931 . S
H3417 C3432 0.930 . S
C3418 H3406 0.930 . S
C3418 C3419 1.399 . S
C3418 C3423 1.399 . S
C3419 C3418 1.399 . S
C3419 C3420 1.376 . S
C3420 H3407 0.930 . S
C3420 C3419 1.376 . S
C3420 C3421 1.388 . S
C3421 H3408 0.930 . S
C3421 C3420 1.388 . S
C3421 C3422 1.390 . S
C3422 C3421 1.390 . S
C3422 C3423 1.394 . S
C3422 C3428 1.465 . S
C3423 C3418 1.399 . S
C3423 C3422 1.394 . S
C3423 C3424 1.516 . S
C3424 C3423 1.516 . S
C3424 C3425 1.502 . S
C3424 C3426 1.561 . S
C3424 C3427 1.526 . S
C3425 H3409 0.959 . S
C3425 H3410 0.959 . S
C3425 H3411 0.961 . S
C3425 C3424 1.502 . S
C3426 H3412 0.960 . S
C3426 H3413 0.961 . S
C3426 H3414 0.959 . S
C3426 C3424 1.561 . S
C3427 C3424 1.526 . S
C3427 C3428 1.396 . S
C3427 C3432 1.390 . S
C3428 C3422 1.465 . S
C3428 C3427 1.396 . S
C3428 C3429 1.399 . S
C3429 H3415 0.929 . S
C3429 C3428 1.399 . S
C3429 C3430 1.385 . S
C3430 H3416 0.931 . S
C3430 C3429 1.385 . S
C3430 C3431 1.389 . S
C3431 C3430 1.389 . S
C3431 C3432 1.387 . S
C3432 H3417 0.930 . S
C3432 C3427 1.390 . S
C3432 C3431 1.387 . S
H3433 C3445 0.930 . S
H3434 C3447 0.930 . S
H3435 C3448 0.930 . S
H3436 C3452 0.959 . S
H3437 C3452 0.959 . S
H3438 C3452 0.961 . S
H3439 C3453 0.960 . S
H3440 C3453 0.961 . S
H3441 C3453 0.959 . S
H3442 C3456 0.929 . S
H3443 C3457 0.931 . S
H3444 C3459 0.930 . S
C3445 H3433 0.930 . S
C3445 C3446 1.399 . S
C3445 C3450 1.399 . S
C3446 C3445 1.399 . S
C3446 C3447 1.376 . S
C3447 H3434 0.930 . S
C3447 C3446 1.376 . S
C3447 C3448 1.388 . S
C3448 H3435 0.930 . S
C3448 C3447 1.388 . S
C3448 C3449 1.390 . S
C3449 C3448 1.390 . S
C3449 C3450 1.394 . S
C3449 C3455 1.465 . S
C3450 C3445 1.399 . S
C3450 C3449 1.394 . S
C3450 C3451 1.516 . S
C3451 C3450 1.516 . S
C3451 C3452 1.502 . S
C3451 C3453 1.561 . S
C3451 C3454 1.526 . S
C3452 H3436 0.959 . S
C3452 H3437 0.959 . S
C3452 H3438 0.961 . S
C3452 C3451 1.502 . S
C3453 H3439 0.960 . S
C3453 H3440 0.961 . S
C3453 H3441 0.959 . S
C3453 C3451 1.561 . S
C3454 C3451 1.526 . S
C3454 C3455 1.396 . S
C3454 C3459 1.390 . S
C3455 C3449 1.465 . S
C3455 C3454 1.396 . S
C3455 C3456 1.399 . S
C3456 H3442 0.929 . S
C3456 C3455 1.399 . S
C3456 C3457 1.385 . S
C3457 H3443 0.931 . S
C3457 C3456 1.385 . S
C3457 C3458 1.389 . S
C3458 C3457 1.389 . S
C3458 C3459 1.387 . S
C3459 H3444 0.930 . S
C3459 C3454 1.390 . S
C3459 C3458 1.387 . S
H3460 C3472 0.930 . S
H3461 C3474 0.930 . S
H3462 C3475 0.930 . S
H3463 C3479 0.959 . S
H3464 C3479 0.959 . S
H3465 C3479 0.961 . S
H3466 C3480 0.960 . S
H3467 C3480 0.961 . S
H3468 C3480 0.959 . S
H3469 C3483 0.929 . S
H3470 C3484 0.931 . S
H3471 C3486 0.930 . S
C3472 H3460 0.930 . S
C3472 C3473 1.399 . S
C3472 C3477 1.399 . S
C3473 C3472 1.399 . S
C3473 C3474 1.376 . S
C3474 H3461 0.930 . S
C3474 C3473 1.376 . S
C3474 C3475 1.388 . S
C3475 H3462 0.930 . S
C3475 C3474 1.388 . S
C3475 C3476 1.390 . S
C3476 C3475 1.390 . S
C3476 C3477 1.394 . S
C3476 C3482 1.465 . S
C3477 C3472 1.399 . S
C3477 C3476 1.394 . S
C3477 C3478 1.516 . S
C3478 C3477 1.516 . S
C3478 C3479 1.502 . S
C3478 C3480 1.561 . S
C3478 C3481 1.526 . S
C3479 H3463 0.959 . S
C3479 H3464 0.959 . S
C3479 H3465 0.961 . S
C3479 C3478 1.502 . S
C3480 H3466 0.960 . S
C3480 H3467 0.961 . S
C3480 H3468 0.959 . S
C3480 C3478 1.561 . S
C3481 C3478 1.526 . S
C3481 C3482 1.396 . S
C3481 C3486 1.390 . S
C3482 C3476 1.465 . S
C3482 C3481 1.396 . S
C3482 C3483 1.399 . S
C3483 H3469 0.929 . S
C3483 C3482 1.399 . S
C3483 C3484 1.385 . S
C3484 H3470 0.931 . S
C3484 C3483 1.385 . S
C3484 C3485 1.389 . S
C3485 C3484 1.389 . S
C3485 C3486 1.387 . S
C3486 H3471 0.930 . S
C3486 C3481 1.390 . S
C3486 C3485 1.387 . S
H3487 C3499 0.930 . S
H3488 C3501 0.930 . S
H3489 C3502 0.930 . S
H3490 C3506 0.959 . S
H3491 C3506 0.959 1_556 S
H3492 C3506 0.961 . S
H3493 C3507 0.960 . S
H3494 C3507 0.961 . S
H3495 C3507 0.959 . S
H3496 C3510 0.929 . S
H3497 C3511 0.931 . S
H3498 C3513 0.900 1_556 S
C3499 H3487 0.930 . S
C3499 C3500 1.399 . S
C3499 C3504 1.399 . S
C3500 C3499 1.399 . S
C3500 C3501 1.376 . S
C3501 H3488 0.930 . S
C3501 C3500 1.376 . S
C3501 C3502 1.388 . S
C3502 H3489 0.930 . S
C3502 C3501 1.388 . S
C3502 C3503 1.390 . S
C3503 C3502 1.390 . S
C3503 C3504 1.394 . S
C3503 C3509 1.465 . S
C3504 C3499 1.399 . S
C3504 C3503 1.394 . S
C3504 C3505 1.533 . S
C3505 C3504 1.533 . S
C3505 C3506 1.502 . S
C3505 C3507 1.537 1_554 S
C3505 C3508 1.534 . S
C3506 H3490 0.959 . S
C3506 H3491 0.959 1_554 S
C3506 H3492 0.961 . S
C3506 C3505 1.502 . S
C3507 H3493 0.960 . S
C3507 H3494 0.961 . S
C3507 H3495 0.959 . S
C3507 C3505 1.537 1_556 S
C3508 C3505 1.534 . S
C3508 C3509 1.396 . S
C3508 C3513 1.403 . S
C3509 C3503 1.465 . S
C3509 C3508 1.396 . S
C3509 C3510 1.399 . S
C3510 H3496 0.929 . S
C3510 C3509 1.399 . S
C3510 C3511 1.385 . S
C3511 H3497 0.931 . S
C3511 C3510 1.385 . S
C3511 C3512 1.389 . S
C3512 C3511 1.389 . S
C3512 C3513 1.405 . S
C3513 H3498 0.900 1_554 S
C3513 C3508 1.403 . S
C3513 C3512 1.405 . S
H3514 C3526 0.930 . S
H3515 C3528 0.930 . S
H3516 C3529 0.930 . S
H3517 C3533 0.959 . S
H3518 C3533 0.959 . S
H3519 C3533 0.961 . S
H3520 C3534 0.960 . S
H3521 C3534 0.961 . S
H3522 C3534 0.959 . S
H3523 C3537 0.929 . S
H3524 C3538 0.931 . S
H3525 C3540 0.930 . S
C3526 H3514 0.930 . S
C3526 C3527 1.399 . S
C3526 C3531 1.399 . S
C3527 C3526 1.399 . S
C3527 C3528 1.376 . S
C3528 H3515 0.930 . S
C3528 C3527 1.376 . S
C3528 C3529 1.388 . S
C3529 H3516 0.930 . S
C3529 C3528 1.388 . S
C3529 C3530 1.390 . S
C3530 C3529 1.390 . S
C3530 C3531 1.394 . S
C3530 C3536 1.465 . S
C3531 C3526 1.399 . S
C3531 C3530 1.394 . S
C3531 C3532 1.516 . S
C3532 C3531 1.516 . S
C3532 C3533 1.502 . S
C3532 C3534 1.561 . S
C3532 C3535 1.526 . S
C3533 H3517 0.959 . S
C3533 H3518 0.959 . S
C3533 H3519 0.961 . S
C3533 C3532 1.502 . S
C3534 H3520 0.960 . S
C3534 H3521 0.961 . S
C3534 H3522 0.959 . S
C3534 C3532 1.561 . S
C3535 C3532 1.526 . S
C3535 C3536 1.396 . S
C3535 C3540 1.390 . S
C3536 C3530 1.465 . S
C3536 C3535 1.396 . S
C3536 C3537 1.399 . S
C3537 H3523 0.929 . S
C3537 C3536 1.399 . S
C3537 C3538 1.385 . S
C3538 H3524 0.931 . S
C3538 C3537 1.385 . S
C3538 C3539 1.389 . S
C3539 C3538 1.389 . S
C3539 C3540 1.387 . S
C3540 H3525 0.930 . S
C3540 C3535 1.390 . S
C3540 C3539 1.387 . S
H3541 C3553 0.930 . S
H3542 C3555 0.930 . S
H3543 C3556 0.930 . S
H3544 C3560 0.959 . S
H3545 C3560 0.959 . S
H3546 C3560 0.961 . S
H3547 C3561 0.960 . S
H3548 C3561 0.961 . S
H3549 C3561 0.959 . S
H3550 C3564 0.929 . S
H3551 C3565 0.931 . S
H3552 C3567 0.930 . S
C3553 H3541 0.930 . S
C3553 C3554 1.399 . S
C3553 C3558 1.399 . S
C3554 C3553 1.399 . S
C3554 C3555 1.376 . S
C3555 H3542 0.930 . S
C3555 C3554 1.376 . S
C3555 C3556 1.388 . S
C3556 H3543 0.930 . S
C3556 C3555 1.388 . S
C3556 C3557 1.390 . S
C3557 C3556 1.390 . S
C3557 C3558 1.394 . S
C3557 C3563 1.465 . S
C3558 C3553 1.399 . S
C3558 C3557 1.394 . S
C3558 C3559 1.516 . S
C3559 C3558 1.516 . S
C3559 C3560 1.502 . S
C3559 C3561 1.561 . S
C3559 C3562 1.526 . S
C3560 H3544 0.959 . S
C3560 H3545 0.959 . S
C3560 H3546 0.961 . S
C3560 C3559 1.502 . S
C3561 H3547 0.960 . S
C3561 H3548 0.961 . S
C3561 H3549 0.959 . S
C3561 C3559 1.561 . S
C3562 C3559 1.526 . S
C3562 C3563 1.396 . S
C3562 C3567 1.390 . S
C3563 C3557 1.465 . S
C3563 C3562 1.396 . S
C3563 C3564 1.399 . S
C3564 H3550 0.929 . S
C3564 C3563 1.399 . S
C3564 C3565 1.385 . S
C3565 H3551 0.931 . S
C3565 C3564 1.385 . S
C3565 C3566 1.389 . S
C3566 C3565 1.389 . S
C3566 C3567 1.387 . S
C3567 H3552 0.930 . S
C3567 C3562 1.390 . S
C3567 C3566 1.387 . S
C989 C109 2.139 . S
C1001 C367 2.115 . S
C1016 C65 1.830 . S
C1028 C378 1.832 . S
C1043 C75 1.696 . S
C1055 C447 1.671 . S
C1082 C460 1.188 . S
C1070 C84 1.217 . S
C1097 C25 2.511 . S
C1109 C516 2.471 . S
C1136 C567 2.094 . S
C1124 C28 2.081 . S
C1163 C596 2.402 . S
C1151 C47 2.410 . S
C1178 C9 2.475 . S
C1190 C647 2.422 . S
C1217 C338 1.378 . S
C1205 C233 1.344 . S
C1232 C249 0.940 . S
C1244 C380 0.861 . S
C1271 C418 1.055 . S
C1259 C275 1.098 . S
C1298 C487 1.669 . S
C1286 C173 1.679 . S
C1313 C224 0.695 . S
C1325 C521 0.633 . S
C1352 C538 1.467 . S
C1340 C243 1.439 . S
C1379 C601 0.458 . S
C1367 C266 0.387 . S
C1406 C618 2.029 . S
C1394 C179 2.044 . S
C1433 C340 1.706 . S
C1421 C163 1.734 . S
C1448 C289 1.620 . S
C1460 C679 1.534 . S
C1487 C700 1.450 . S
C1475 C333 1.491 . S
C1514 C759 0.523 . S
C1502 C308 0.319 . S
C1529 C123 1.030 . S
C1541 C620 1.129 . S
C1556 C126 1.436 . S
C1568 C420 1.423 . S
C1583 C327 1.009 . S
C1595 C778 0.973 . S
C1622 C847 1.026 . S
C1610 C299 1.067 . S
C1649 C356 2.117 . S
C1637 C67 2.172 . S
C1676 C839 1.856 . S
C1664 C98 1.819 . S
C1691 C89 1.717 . S
C1703 C436 1.663 . S
C1718 C79 1.259 . S
C1730 C801 1.208 . S
C1757 C527 2.534 . S
C1745 C11 2.558 . S
C1772 C51 2.124 . S
C1784 C716 2.069 . S
C1811 C607 2.458 1_556 S
C1799 C33 2.464 . S
C1838 C876 2.439 . S
C1826 C14 2.487 1_655 S
C1865 C359 1.305 . S
C1853 C140 1.342 . S
C1892 C841 0.880 . S
C1880 C319 0.957 . S
C1907 C112 1.104 . S
C1919 C439 1.092 . S
C1934 C285 1.688 . S
C1946 C796 1.699 . S
C1961 C149 0.679 . S
C1973 C500 0.726 . S
C2000 C719 1.511 . S
C1988 C313 1.498 . S
C2015 C121 0.484 . S
C2027 C580 0.509 . S
C2042 C291 2.090 . S
C2054 C879 2.042 . S
C2069 C182 1.732 . S
C2081 C361 1.702 . S
C2096 C168 1.609 . S
C2108 C658 1.600 . S
C2123 C263 1.535 . S
C2135 C561 1.371 . S
C2150 C247 0.482 . S
C2162 C738 0.371 . S
C2189 C881 0.985 . S
C2177 C277 1.117 . S
C2204 C219 1.475 . S
C2216 C441 1.385 . S
C2243 C479 1.003 . S
C2231 C257 1.001 . S
C2270 C396 1.028 . S
C2258 C201 1.048 . S
C2285 C81 2.151 . S
C2297 C927 2.089 . S
C2324 C818 1.826 . S
C2312 C93 1.819 . S
C2339 C103 1.695 . S
C2351 C967 1.682 . S
C2366 C56 1.213 . S
C2378 C780 1.192 . S
C2393 C53 2.499 . S
C2405 C676 2.499 . S
C2432 C727 2.084 . S
C2420 C0 2.093 . S
C2459 C756 2.393 . S
C2447 C19 2.413 . S
C2486 C887 2.419 . S
C2474 C37 2.476 . S
C2513 C898 1.343 . S
C2501 C261 1.378 . S
C2528 C193 0.970 . S
C2540 C820 0.843 . S
C2567 C938 1.053 . S
C2555 C205 1.098 . S
C2594 C807 1.662 . S
C2582 C215 1.670 . S
C2621 C681 0.667 . S
C2609 C252 0.653 . S
C2636 C187 1.466 . S
C2648 C698 1.442 . S
C2675 C761 0.430 . S
C2663 C196 0.413 . S
C2690 C221 2.053 . S
C2702 C858 2.010 . S
C2729 C900 1.677 . S
C2717 C317 1.775 . S
C2744 C135 1.621 . S
C2756 C519 1.534 . S
C2783 C540 1.480 . S
C2771 C151 1.421 1_565 S
C2810 C599 0.291 . S
C2798 C154 0.353 . S
C2837 C860 1.017 . S
C2825 C305 1.104 . S
C2852 C280 1.425 . S
C2864 C940 1.434 . S
C2891 C458 0.969 . S
C2879 C145 1.011 . S
C2918 C407 0.984 . S
C2906 C117 1.080 . S
C2933 C95 2.145 . S
C2945 C916 2.106 . S
C2972 C399 1.858 . S
C2960 C70 1.820 . S
C2987 C61 1.722 . S
C2999 C956 1.710 . S
C3014 C107 1.260 . S
C3026 C481 1.227 . S
C3041 C39 2.532 . S
C3053 C687 2.528 1_556 S
C3080 C556 2.115 . S
C3068 C23 2.141 . S
C3095 C5 2.464 . S
C3107 C767 2.455 . S
C3122 C42 2.493 . S
C3134 C636 2.418 . S
C3161 C919 1.330 . S
C3149 C322 1.296 . S
C3176 C165 0.945 . S
C3188 C401 0.903 . S
C3215 C959 1.094 . S
C3203 C294 1.105 . S
C3230 C131 1.688 . S
C3242 C476 1.700 . S
C3257 C331 0.682 . S
C3269 C660 0.731 . S
C3296 C559 1.494 . S
C3284 C159 1.480 . S
C3311 C303 0.425 . S
C3323 C740 0.415 . S
C3350 C639 2.038 . S
C3338 C137 2.090 . S
C3377 C921 1.636 . S
C3365 C238 1.753 . S
C3404 C498 1.596 1_665 S
C3392 C210 1.613 . S
C3419 C235 1.527 . S
C3431 C721 1.390 . S
C3458 C578 0.529 . S
C3446 C191 0.371 . S
C3473 C207 1.116 . S
C3485 C641 0.987 . S
C3500 C177 1.474 . S
C3512 C961 1.388 . S
C3539 C799 1.005 . S
C3527 C229 1.023 . S
C3566 C836 1.012 . S
C3554 C271 1.051 . S
