# Generated by pormake.
# Topology nia, (6,6)-cn, num edge types: 1
# Building blocks:
#     Node 0, Type 0, BuildingBlock: KUMBUR_clean_sbu_1, # of connection points: 6
#     Node 1, Type 0, BuildingBlock: KUMBUR_clean_sbu_1, # of connection points: 6
#     Node 2, Type 1, BuildingBlock: MIDCAF_clean_sbu_0, # of connection points: 6
#     Node 3, Type 1, BuildingBlock: MIDCAF_clean_sbu_0, # of connection points: 6
#     Edge 4, Type (0, 1), BuildingBlock: MIFKUJ_clean_linker_0, # of connection points: 2
#     Edge 5, Type (0, 1), BuildingBlock: MIFKUJ_clean_linker_0, # of connection points: 2
#     Edge 6, Type (0, 1), BuildingBlock: MIFKUJ_clean_linker_0, # of connection points: 2
#     Edge 7, Type (0, 1), BuildingBlock: MIFKUJ_clean_linker_0, # of connection points: 2
#     Edge 8, Type (0, 1), BuildingBlock: MIFKUJ_clean_linker_0, # of connection points: 2
#     Edge 9, Type (0, 1), BuildingBlock: MIFKUJ_clean_linker_0, # of connection points: 2
#     Edge 10, Type (0, 1), BuildingBlock: MIFKUJ_clean_linker_0, # of connection points: 2
#     Edge 11, Type (0, 1), BuildingBlock: MIFKUJ_clean_linker_0, # of connection points: 2
#     Edge 12, Type (0, 1), BuildingBlock: MIFKUJ_clean_linker_0, # of connection points: 2
#     Edge 13, Type (0, 1), BuildingBlock: MIFKUJ_clean_linker_0, # of connection points: 2
#     Edge 14, Type (0, 1), BuildingBlock: MIFKUJ_clean_linker_0, # of connection points: 2
#     Edge 15, Type (0, 1), BuildingBlock: MIFKUJ_clean_linker_0, # of connection points: 2
# Relax obj value: 0.166
# Max RMSD: 0.273
# Mean RMSD: 0.198
data_MOF--net-nia--node1-KUMBUR_clean_sbu_1--node2-MIDCAF_clean_sbu_0--edge1-MIFKUJ_clean_linker_0
_symmetry_space_group_name_H-M    P1
_symmetry_Int_Tables_number       1
_symmetry_cell_setting            triclinic
loop_
_symmetry_equiv_pos_as_xyz
'x, y, z'
_cell_length_a     35.100644
_cell_length_b     35.163367
_cell_length_c     40.413619
_cell_angle_alpha  89.995906
_cell_angle_beta   90.032045
_cell_angle_gamma 133.86913
loop_
_atom_site_label
_atom_site_type_symbol
_atom_site_fract_x
_atom_site_fract_y
_atom_site_fract_z
_atom_type_partial_charge
Tb0 Tb 0.04099 0.98821 0.04929 0.0
C1 C 0.96645 0.97817 0.90925 0.0
N2 N 0.00621 0.02162 0.92708 0.0
C3 C 0.0628 0.0582 0.87944 0.0
C4 C 0.97405 0.97189 0.87619 0.0
C5 C 0.05265 0.06311 0.91184 0.0
C6 C 0.02365 0.01191 0.86173 0.0
C7 C 0.87277 0.90002 0.90449 0.0
C8 C 0.91661 0.94261 0.92315 0.0
C9 C 0.88061 0.89161 0.87226 0.0
C10 C 0.93124 0.92742 0.85816 0.0
Tb11 Tb 0.98544 0.02345 0.98049 0.0
N12 N 0.91071 0.95163 0.9545 0.0
C13 C 0.82232 0.86825 0.91852 0.0
C14 C 0.86151 0.9229 0.96762 0.0
C15 C 0.81662 0.8803 0.95002 0.0
H16 H 0.08197 0.10032 0.92451 0.0
H17 H 0.77773 0.85681 0.96073 0.0
H18 H 0.97226 0.96307 0.11553 0.0
H19 H 0.25243 0.13505 0.02558 0.0
H20 H 0.85719 0.93253 0.99186 0.0
H21 H 0.78755 0.8352 0.90496 0.0
H22 H 0.16088 0.05228 0.01574 0.0
H23 H 0.10039 0.09056 0.86793 0.0
H24 H 0.8476 0.85852 0.85769 0.0
H25 H 0.93643 0.92151 0.83287 0.0
H26 H 0.98855 0.00514 0.16964 0.0
H27 H 0.03119 0.00868 0.83638 0.0
H28 H 0.27505 0.18923 0.07479 0.0
N29 N 0.05177 0.02402 0.09939 0.0
C30 C 0.10187 0.06893 0.10748 0.0
C31 C 0.02068 0.0237 0.15227 0.0
C32 C 0.11305 0.0944 0.13794 0.0
C33 C 0.01149 0.00013 0.12158 0.0
C34 C 0.07158 0.07133 0.16037 0.0
N35 N 0.12936 0.06226 0.0563 0.0
C36 C 0.16893 0.0768 0.03609 0.0
C37 C 0.1943 0.13603 0.09228 0.0
C38 C 0.14176 0.08938 0.08484 0.0
C39 C 0.23419 0.15358 0.07 0.0
C40 C 0.22154 0.12325 0.04212 0.0
H41 H 0.07852 0.08965 0.18407 0.0
H42 H 0.17436 0.16243 0.16805 0.0
H43 H 0.24557 0.19887 0.1281 0.0
O44 O 0.08244 0.97022 0.06928 0.0
O45 O 0.03606 0.04672 0.05781 0.0
O46 O 0.05689 0.08797 0.00801 0.0
O47 O 0.99816 0.91472 0.07258 0.0
O48 O 0.07421 0.00734 0.99895 0.0
O49 O 0.06954 0.06581 0.97933 0.0
O50 O 0.95413 0.05362 0.99766 0.0
O51 O 0.94789 0.94141 0.98742 0.0
O52 O 0.01479 0.94679 1.0019 0.0
O53 O 0.97759 0.06352 0.94703 0.0
O54 O 0.94592 0.99588 0.02874 0.0
O55 O 0.95603 0.94313 0.05339 0.0
C56 C 0.06036 0.08982 0.04045 0.0
C57 C 0.03703 0.88076 0.06518 0.0
C58 C 0.06795 0.83617 0.06778 0.0
C59 C 0.03753 0.80685 0.03956 0.0
C60 C 0.00649 0.85041 0.03729 0.0
C61 C 0.00684 0.81377 0.0246 0.0
C62 C 0.06731 0.87306 0.08063 0.0
C63 C 0.089 0.0446 0.97826 0.0
C64 C 0.03978 0.92238 0.0771 0.0
C65 C 0.165 0.14187 0.14494 0.0
C66 C 0.20551 0.16271 0.12212 0.0
C67 C 0.97089 0.92388 0.98578 0.0
C68 C 0.98105 0.12761 0.96902 0.0
C69 C 0.97579 0.18919 0.94868 0.0
C70 C 0.02261 0.23019 0.96589 0.0
C71 C 0.02747 0.16875 0.98622 0.0
C72 C 0.95526 0.1379 0.95049 0.0
C73 C 0.04806 0.21984 0.9847 0.0
C74 C 0.93035 0.95788 0.04907 0.0
C75 C 0.95912 0.07382 0.96917 0.0
H76 H 0.03699 0.77802 0.02929 0.0
H77 H 0.98258 0.85522 0.02518 0.0
H78 H 0.98335 0.79076 1.00298 0.0
H79 H 0.09123 0.89654 0.10206 0.0
H80 H 0.03912 0.27001 0.9651 0.0
H81 H 0.04769 0.16132 1.00058 0.0
H82 H 0.91961 0.10604 0.93694 0.0
H83 H 0.08392 0.25151 0.99806 0.0
Tb84 Tb 0.02187 0.96764 0.47647 0.0
C85 C 0.08009 0.09543 0.59888 0.0
N86 N 0.0336 0.04527 0.59308 0.0
C87 C 0.03908 0.0182 0.64587 0.0
C88 C 0.10954 0.10855 0.62777 0.0
C89 C 0.01158 0.0071 0.61661 0.0
C90 C 0.08865 0.06899 0.65128 0.0
C91 C 0.14545 0.18623 0.58074 0.0
C92 C 0.0977 0.13341 0.57561 0.0
C93 C 0.17637 0.19938 0.60877 0.0
C94 C 0.15841 0.16059 0.63227 0.0
Tb95 Tb 0.99248 0.03013 0.54421 0.0
N96 N 0.0665 0.11897 0.54892 0.0
C97 C 0.15975 0.22442 0.55813 0.0
C98 C 0.07799 0.15696 0.52864 0.0
C99 C 0.12528 0.20985 0.53237 0.0
H100 H 0.97323 0.96794 0.61252 0.0
H101 H 0.13469 0.23946 0.51568 0.0
H102 H 0.0935 0.0552 0.41554 0.0
H103 H 0.84124 0.76147 0.47003 0.0
H104 H 0.05051 0.14712 0.50986 0.0
H105 H 0.19611 0.26548 0.56115 0.0
H106 H 0.92576 0.84108 0.49495 0.0
H107 H 0.02217 0.98759 0.66414 0.0
H108 H 0.21354 0.23964 0.61292 0.0
H109 H 0.18213 0.17143 0.65407 0.0
H110 H 0.07784 0.06823 0.35906 0.0
H111 H 0.11004 0.0774 0.67384 0.0
H112 H 0.81386 0.76727 0.41524 0.0
N113 N 0.01414 0.98228 0.42273 0.0
C114 C 0.96766 0.94179 0.40758 0.0
C115 C 0.046 0.0329 0.37263 0.0
C116 C 0.95722 0.94643 0.37491 0.0
C117 C 0.05445 0.026 0.40499 0.0
C118 C 0.99671 0.99339 0.35775 0.0
N119 N 0.94455 0.89124 0.45515 0.0
C120 C 0.91395 0.84375 0.47105 0.0
C121 C 0.88434 0.85019 0.40894 0.0
C122 C 0.93194 0.89431 0.42415 0.0
C123 C 0.8509 0.80214 0.42603 0.0
C124 C 0.8662 0.79873 0.45699 0.0
H125 H 0.9904 0.99843 0.33254 0.0
H126 H 0.8995 0.90647 0.33522 0.0
H127 H 0.83541 0.82219 0.36517 0.0
O128 O 0.05142 0.93545 0.49291 0.0
O129 O 0.94267 0.93557 0.4864 0.0
O130 O 0.94939 0.00378 0.49731 0.0
O131 O 0.0581 0.95617 0.44197 0.0
O132 O 0.99661 0.93098 0.52582 0.0
O133 O 0.94649 0.94541 0.5492 0.0
O134 O 0.97216 0.06994 0.56338 0.0
O135 O 0.04808 0.02197 0.55212 0.0
O136 O 0.08908 0.0396 0.50274 0.0
O137 O 0.92145 0.98657 0.5704 0.0
O138 O 0.01212 0.06181 0.49362 0.0
O139 O 0.06638 0.05225 0.47183 0.0
C140 C 0.92831 0.96078 0.48088 0.0
C141 C 0.12558 0.9642 0.46325 0.0
C142 C 0.19125 0.96654 0.43982 0.0
C143 C 0.22977 0.00929 0.46066 0.0
C144 C 0.16456 0.00703 0.48372 0.0
C145 C 0.21643 0.02951 0.48232 0.0
C146 C 0.13915 0.94432 0.44124 0.0
C147 C 0.96196 0.92018 0.54756 0.0
C148 C 0.07068 0.93984 0.46413 0.0
C149 C 0.90864 0.90343 0.36011 0.0
C150 C 0.87222 0.85537 0.37712 0.0
C151 C 0.09087 0.04457 0.53506 0.0
C152 C 0.88036 0.01819 0.56573 0.0
C153 C 0.8278 0.03898 0.57674 0.0
C154 C 0.78858 0.99758 0.55519 0.0
C155 C 0.84143 0.97829 0.54372 0.0
C156 C 0.87401 0.04909 0.58142 0.0
C157 C 0.79585 0.9682 0.53852 0.0
C158 C 0.04787 0.07458 0.4722 0.0
C159 C 0.92664 0.02669 0.57405 0.0
H160 H 0.27028 0.0274 0.45995 0.0
H161 H 0.15489 0.02297 0.50074 0.0
H162 H 0.24637 0.06265 0.49811 0.0
H163 H 0.10886 0.91095 0.42562 0.0
H164 H 0.75169 0.98695 0.55141 0.0
H165 H 0.84578 0.95438 0.53097 0.0
H166 H 0.9055 0.08095 0.5973 0.0
H167 H 0.76557 0.93688 0.52187 0.0
Zn168 Zn 0.3611 0.65686 0.14776 0.0
Zn169 Zn 0.35142 0.65592 0.32538 0.0
Zn170 Zn 0.35699 0.65447 0.26452 0.0
C171 C 0.45988 0.72441 0.30831 0.0
C172 C 0.29858 0.55187 0.30704 0.0
O173 O 0.32357 0.68164 0.24215 0.0
O174 O 0.34321 0.66969 0.19456 0.0
C175 C 0.43782 0.70385 0.21234 0.0
O176 O 0.44053 0.70651 0.27913 0.0
O177 O 0.42947 0.71042 0.33236 0.0
O178 O 0.31439 0.58107 0.33207 0.0
O179 O 0.30834 0.57105 0.27774 0.0
O180 O 0.39423 0.67808 0.19663 0.0
O181 O 0.43556 0.70279 0.24401 0.0
O182 O 0.31231 0.57716 0.24229 0.0
O183 O 0.3381 0.62041 0.1957 0.0
C184 C 0.31283 0.57635 0.21055 0.0
O185 O 0.32371 0.68826 0.27612 0.0
O186 O 0.31209 0.67755 0.33021 0.0
C187 C 0.32229 0.68287 0.21054 0.0
C188 C 0.30823 0.69299 0.30334 0.0
Zn189 Zn 0.65708 0.34444 0.82659 0.0
Zn190 Zn 0.67442 0.36489 0.69899 0.0
Zn191 Zn 0.66076 0.35224 0.76217 0.0
C192 C 0.7163 0.46023 0.72249 0.0
C193 C 0.56509 0.28616 0.71073 0.0
O194 O 0.69354 0.3192 0.77862 0.0
O195 O 0.67185 0.29951 0.83146 0.0
C196 C 0.72799 0.4512 0.81281 0.0
O197 O 0.7075 0.43619 0.74974 0.0
O198 O 0.70196 0.43635 0.6952 0.0
O199 O 0.59884 0.3046 0.68813 0.0
O200 O 0.58024 0.30159 0.74089 0.0
O201 O 0.71549 0.42111 0.83659 0.0
O202 O 0.70871 0.43202 0.78371 0.0
O203 O 0.57648 0.30099 0.77565 0.0
O204 O 0.58313 0.31192 0.83001 0.0
C205 C 0.55543 0.29344 0.80402 0.0
O206 O 0.69745 0.32421 0.74376 0.0
O207 O 0.72316 0.35506 0.69269 0.0
C208 C 0.6922 0.29917 0.80587 0.0
C209 C 0.72116 0.33093 0.7168 0.0
H210 H 0.07002 0.81597 0.13289 0.0
H211 H 0.11582 0.79286 0.15706 0.0
H212 H 0.18474 0.81506 0.06192 0.0
H213 H 0.1373 0.83602 0.0376 0.0
H214 H 0.1507 0.72952 0.08645 0.0
H215 H 0.25717 0.90437 0.13181 0.0
H216 H 0.27508 0.97596 0.1626 0.0
H217 H 0.20716 0.88018 0.25023 0.0
H218 H 0.18787 0.80771 0.21972 0.0
H219 H 0.33492 0.71768 0.14668 0.0
H220 H 0.29455 0.74668 0.12187 0.0
H221 H 0.21083 0.71039 0.21288 0.0
H222 H 0.24971 0.68048 0.2372 0.0
H223 H 0.25458 0.80475 0.19047 0.0
H224 H 0.14758 0.63067 0.14569 0.0
H225 H 0.13016 0.55865 0.116 0.0
H226 H 0.19915 0.65294 0.02781 0.0
H227 H 0.21766 0.72586 0.05714 0.0
C228 C 0.09556 0.81661 0.11732 0.0
C229 C 0.10005 0.82774 0.08337 0.0
C230 C 0.12193 0.80355 0.13115 0.0
C231 C 0.15442 0.80264 0.11148 0.0
C232 C 0.15988 0.81518 0.0777 0.0
C233 C 0.13286 0.82731 0.0638 0.0
C234 C 0.1806 0.78613 0.12547 0.0
C235 C 0.17425 0.74684 0.10888 0.0
C236 C 0.21009 0.80723 0.15531 0.0
C237 C 0.2209 0.85054 0.17347 0.0
C238 C 0.24568 0.89845 0.15757 0.0
C239 C 0.25609 0.9392 0.17497 0.0
C240 C 0.24221 0.93262 0.20833 0.0
C241 C 0.21787 0.88526 0.22438 0.0
C242 C 0.20724 0.84436 0.20706 0.0
C243 C 0.3076 0.71558 0.16122 0.0
C244 C 0.29634 0.69778 0.19413 0.0
C245 C 0.28457 0.73219 0.14707 0.0
C246 C 0.24964 0.73089 0.16554 0.0
C247 C 0.23794 0.71233 0.1982 0.0
C248 C 0.26056 0.69553 0.21217 0.0
C249 C 0.22518 0.74887 0.15117 0.0
C250 C 0.23153 0.78804 0.16783 0.0
C251 C 0.1957 0.72771 0.12142 0.0
C252 C 0.18453 0.68392 0.10371 0.0
C253 C 0.15944 0.63621 0.12005 0.0
C254 C 0.14929 0.5952 0.10327 0.0
C255 C 0.16368 0.60127 0.07007 0.0
C256 C 0.18812 0.64833 0.05355 0.0
C257 C 0.19842 0.6895 0.07023 0.0
H258 H 0.15578 0.56947 0.05712 0.0
H259 H 0.25038 0.96425 0.22176 0.0
H260 H 0.19465 0.12762 0.51848 0.0
H261 H 0.2727 0.16464 0.5518 0.0
H262 H 0.17085 0.04695 0.62692 0.0
H263 H 0.09382 0.00889 0.59333 0.0
H264 H 0.30352 0.20786 0.61307 0.0
H265 H 0.22788 0.01091 0.66205 0.0
H266 H 0.16884 0.91817 0.64402 0.0
H267 H 0.20002 0.96708 0.54235 0.0
H268 H 0.25977 0.06013 0.55979 0.0
H269 H 0.48622 0.27628 0.73682 0.0
H270 H 0.39897 0.2276 0.71206 0.0
H271 H 0.43269 0.16831 0.63604 0.0
H272 H 0.51837 0.21503 0.66113 0.0
H273 H 0.33228 0.09538 0.6517 0.0
H274 H 0.4597 0.28136 0.62724 0.0
H275 H 0.5222 0.37613 0.6406 0.0
H276 H 0.39627 0.35425 0.68356 0.0
H277 H 0.33312 0.25916 0.67084 0.0
C278 C 0.1893 0.10948 0.54192 0.0
C279 C 0.13842 0.06567 0.55345 0.0
C280 C 0.23366 0.13084 0.56105 0.0
C281 C 0.22757 0.10839 0.59179 0.0
C282 C 0.17663 0.06457 0.60315 0.0
C283 C 0.1326 0.04311 0.58402 0.0
C284 C 0.27423 0.13015 0.61207 0.0
C285 C 0.30986 0.18333 0.62157 0.0
C286 C 0.28256 0.09813 0.62298 0.0
C287 C 0.2479 0.04241 0.61225 0.0
C288 C 0.22236 0.00187 0.63586 0.0
C289 C 0.18872 0.94927 0.62574 0.0
C290 C 0.18055 0.93675 0.59206 0.0
C291 C 0.20622 0.97683 0.56842 0.0
C292 C 0.23993 0.02949 0.57841 0.0
C293 C 0.47405 0.25125 0.71559 0.0
C294 C 0.50897 0.24937 0.70088 0.0
C295 C 0.42455 0.22406 0.70119 0.0
C296 C 0.4097 0.19514 0.6718 0.0
C297 C 0.4432 0.19044 0.6586 0.0
C298 C 0.4923 0.21734 0.67292 0.0
C299 C 0.36184 0.17328 0.65285 0.0
C300 C 0.32578 0.11991 0.64356 0.0
C301 C 0.35395 0.20556 0.64145 0.0
C302 C 0.39187 0.26289 0.64873 0.0
C303 C 0.44542 0.29662 0.63986 0.0
C304 C 0.48095 0.35045 0.64724 0.0
C305 C 0.46328 0.37115 0.6631 0.0
C306 C 0.40996 0.33813 0.6714 0.0
C307 C 0.37429 0.28428 0.66409 0.0
H308 H 0.49085 0.41282 0.66882 0.0
H309 H 0.15442 0.896 0.58429 0.0
H310 H 0.04464 0.10497 0.10335 0.0
H311 H 0.09048 0.18848 0.13144 0.0
H312 H 0.1812 0.27304 0.04302 0.0
H313 H 0.13845 0.18938 0.01584 0.0
H314 H 0.24244 0.32523 0.09267 0.0
H315 H 0.07075 0.2517 0.06633 0.0
H316 H 0.97346 0.18287 0.0638 0.0
H317 H 0.96559 0.17993 0.16993 0.0
H318 H 0.06297 0.24823 0.17312 0.0
H319 H 0.31133 0.56335 0.14334 0.0
H320 H 0.26948 0.48192 0.11325 0.0
H321 H 0.21355 0.39634 0.20533 0.0
H322 H 0.25682 0.47783 0.2355 0.0
H323 H 0.13489 0.34748 0.15156 0.0
H324 H 0.31285 0.42471 0.1739 0.0
H325 H 0.40999 0.49702 0.17173 0.0
H326 H 0.4042 0.49793 0.06562 0.0
H327 H 0.3069 0.4261 0.0672 0.0
C328 C 0.07518 0.14137 0.09016 0.0
C329 C 0.08815 0.14056 0.05748 0.0
C330 C 0.10084 0.18921 0.10605 0.0
C331 C 0.13865 0.23735 0.0892 0.0
C332 C 0.15215 0.23661 0.05663 0.0
C333 C 0.12737 0.18872 0.04101 0.0
C334 C 0.1634 0.28823 0.10538 0.0
C335 C 0.21872 0.33015 0.10512 0.0
C336 C 0.13278 0.29513 0.12173 0.0
C337 C 0.07418 0.25481 0.11997 0.0
C338 C 0.04829 0.23621 0.08914 0.0
C339 C 0.99312 0.19728 0.08759 0.0
C340 C 0.96335 0.17697 0.11669 0.0
C341 C 0.98871 0.19569 0.14741 0.0
C342 C 0.0439 0.23455 0.14911 0.0
C343 C 0.29008 0.52726 0.15722 0.0
C344 C 0.28686 0.52705 0.19195 0.0
C345 C 0.26619 0.48074 0.13996 0.0
C346 C 0.23823 0.43306 0.15706 0.0
C347 C 0.23455 0.43261 0.19162 0.0
C348 C 0.25913 0.47922 0.20887 0.0
C349 C 0.21356 0.38372 0.13907 0.0
C350 C 0.15831 0.34228 0.13896 0.0
C351 C 0.24411 0.37781 0.12162 0.0
C352 C 0.3026 0.42042 0.12069 0.0
C353 C 0.33227 0.44062 0.15012 0.0
C354 C 0.38736 0.48146 0.149 0.0
C355 C 0.41324 0.50216 0.11856 0.0
C356 C 0.38409 0.48191 0.08918 0.0
C357 C 0.32899 0.44111 0.09017 0.0
H358 H 0.45589 0.53381 0.11774 0.0
H359 H 0.92064 0.14679 0.11545 0.0
H360 H 0.87 0.09131 0.63688 0.0
H361 H 0.861 0.1461 0.66381 0.0
H362 H 0.75348 0.10846 0.58726 0.0
H363 H 0.76873 0.06047 0.55737 0.0
H364 H 0.80647 0.2003 0.60021 0.0
H365 H 0.71465 0.05081 0.67534 0.0
H366 H 0.70787 0.98903 0.7107 0.0
H367 H 0.84221 0.11921 0.767 0.0
H368 H 0.84875 0.18141 0.73267 0.0
H369 H 0.6743 0.23199 0.73439 0.0
H370 H 0.69965 0.18565 0.71616 0.0
H371 H 0.84094 0.32938 0.67163 0.0
H372 H 0.81396 0.37476 0.68823 0.0
H373 H 0.77351 0.18645 0.72096 0.0
H374 H 0.86607 0.30583 0.59933 0.0
H375 H 0.86069 0.35816 0.5627 0.0
H376 H 0.70201 0.2696 0.59548 0.0
H377 H 0.70625 0.21636 0.63195 0.0
C378 C 0.84548 0.09553 0.62504 0.0
C379 C 0.82027 0.07085 0.59451 0.0
C380 C 0.83917 0.12603 0.64119 0.0
C381 C 0.80529 0.13053 0.62829 0.0
C382 C 0.77975 0.10569 0.59803 0.0
C383 C 0.78781 0.07711 0.58113 0.0
C384 C 0.79739 0.16222 0.64552 0.0
C385 C 0.79909 0.1969 0.62661 0.0
C386 C 0.78754 0.15822 0.68 0.0
C387 C 0.78232 0.12065 0.70139 0.0
C388 C 0.74248 0.0661 0.69543 0.0
C389 C 0.73853 0.03101 0.71539 0.0
C390 C 0.77432 0.05011 0.74129 0.0
C391 C 0.81397 0.10431 0.74734 0.0
C392 C 0.81766 0.13948 0.72775 0.0
C393 C 0.71122 0.25376 0.72123 0.0
C394 C 0.74196 0.3066 0.7123 0.0
C395 C 0.72576 0.22735 0.71087 0.0
C396 C 0.77147 0.25361 0.69167 0.0
C397 C 0.80468 0.30783 0.68552 0.0
C398 C 0.78948 0.33383 0.69515 0.0
C399 C 0.78152 0.22331 0.67543 0.0
C400 C 0.78068 0.18942 0.69455 0.0
C401 C 0.78998 0.22632 0.64086 0.0
C402 C 0.78673 0.25756 0.61861 0.0
C403 C 0.82999 0.29743 0.59861 0.0
C404 C 0.82714 0.32726 0.5779 0.0
C405 C 0.7811 0.31733 0.57685 0.0
C406 C 0.73771 0.27738 0.59639 0.0
C407 C 0.74032 0.24738 0.61709 0.0
H408 H 0.77902 0.34052 0.56085 0.0
H409 H 0.77147 0.02295 0.75659 0.0
H410 H 0.88127 0.99203 0.05835 0.0
H411 H 0.79895 0.94787 0.08713 0.0
H412 H 0.78401 0.81848 0.1112 0.0
H413 H 0.8678 0.86341 0.0828 0.0
H414 H 0.7035 0.86076 0.0748 0.0
H415 H 0.71248 0.76087 0.18443 0.0
H416 H 0.77909 0.77497 0.21932 0.0
H417 H 0.88951 0.94142 0.20016 0.0
H418 H 0.82329 0.92844 0.16567 0.0
H419 H 0.45148 0.6796 0.15209 0.0
H420 H 0.5351 0.72073 0.12526 0.0
H421 H 0.62112 0.83032 0.20659 0.0
H422 H 0.53754 0.78894 0.23347 0.0
H423 H 0.66585 0.79679 0.19061 0.0
H424 H 0.60787 0.86653 0.13079 0.0
H425 H 0.54601 0.86308 0.09832 0.0
H426 H 0.54274 0.77603 0.02189 0.0
H427 H 0.60407 0.77835 0.05413 0.0
C428 C 0.86077 0.95424 0.06981 0.0
C429 C 0.88122 0.93121 0.06813 0.0
C430 C 0.81344 0.92892 0.08624 0.0
C431 C 0.78504 0.87978 0.10139 0.0
C432 C 0.80543 0.85667 0.10005 0.0
C433 C 0.85331 0.88234 0.08376 0.0
C434 C 0.73377 0.85294 0.11794 0.0
C435 C 0.69528 0.84658 0.10009 0.0
C436 C 0.72311 0.83514 0.15113 0.0
C437 C 0.76311 0.84353 0.17211 0.0
C438 C 0.75092 0.80048 0.18775 0.0
C439 C 0.7886 0.80829 0.20747 0.0
C440 C 0.83857 0.85903 0.21184 0.0
C441 C 0.85087 0.90211 0.19664 0.0
C442 C 0.81328 0.89454 0.17698 0.0
C443 C 0.48828 0.71276 0.16405 0.0
C444 C 0.48811 0.73087 0.19499 0.0
C445 C 0.53607 0.73621 0.14875 0.0
C446 C 0.58463 0.77886 0.1638 0.0
C447 C 0.58433 0.79724 0.19457 0.0
C448 C 0.53657 0.77356 0.20995 0.0
C449 C 0.63572 0.80466 0.14742 0.0
C450 C 0.67402 0.81064 0.16524 0.0
C451 C 0.64693 0.82356 0.1145 0.0
C452 C 0.61011 0.82213 0.09503 0.0
C453 C 0.59363 0.8463 0.10717 0.0
C454 C 0.55873 0.8446 0.08879 0.0
C455 C 0.54034 0.81922 0.05811 0.0
C456 C 0.55694 0.79559 0.04569 0.0
C457 C 0.5918 0.79712 0.06399 0.0
H458 H 0.51332 0.81796 0.04391 0.0
H459 H 0.8677 0.86498 0.22708 0.0
H460 H 0.86604 0.85495 0.57832 0.0
H461 H 0.83301 0.78729 0.6197 0.0
H462 H 0.98138 0.82931 0.61654 0.0
H463 H 0.01329 0.89497 0.57393 0.0
H464 H 0.90896 0.73075 0.61583 0.0
H465 H 0.94082 0.85949 0.68435 0.0
H466 H 0.93767 0.92426 0.70232 0.0
H467 H 0.76876 0.80106 0.71056 0.0
H468 H 0.77074 0.73558 0.69215 0.0
H469 H 0.81765 0.54486 0.74095 0.0
H470 H 0.86949 0.63691 0.72473 0.0
H471 H 0.72843 0.59188 0.68598 0.0
H472 H 0.67718 0.50004 0.7012 0.0
H473 H 0.81005 0.70095 0.71639 0.0
H474 H 0.78438 0.57973 0.6351 0.0
H475 H 0.79086 0.51672 0.61895 0.0
H476 H 0.95761 0.63355 0.63879 0.0
H477 H 0.95182 0.69695 0.6556 0.0
C478 C 0.89149 0.84965 0.58654 0.0
C479 C 0.94192 0.87969 0.57275 0.0
C480 C 0.87287 0.81139 0.61046 0.0
C481 C 0.90499 0.80365 0.62179 0.0
C482 C 0.95576 0.83436 0.60826 0.0
C483 C 0.97389 0.87174 0.58382 0.0
C484 C 0.88436 0.76119 0.64603 0.0
C485 C 0.88858 0.72532 0.63821 0.0
C486 C 0.85736 0.75345 0.67529 0.0
C487 C 0.85592 0.79261 0.68666 0.0
C488 C 0.90295 0.84621 0.68979 0.0
C489 C 0.90138 0.88307 0.70007 0.0
C490 C 0.85305 0.8668 0.70752 0.0
C491 C 0.80618 0.8136 0.70478 0.0
C492 C 0.8075 0.77657 0.69447 0.0
C493 C 0.79763 0.55524 0.73012 0.0
C494 C 0.74377 0.51592 0.72213 0.0
C495 C 0.82712 0.60762 0.72092 0.0
C496 C 0.80268 0.62094 0.70407 0.0
C497 C 0.74784 0.5824 0.69918 0.0
C498 C 0.71869 0.53004 0.70773 0.0
C499 C 0.83454 0.67118 0.68569 0.0
C500 C 0.83194 0.7079 0.69445 0.0
C501 C 0.86399 0.68052 0.6576 0.0
C502 C 0.86756 0.64276 0.64697 0.0
C503 C 0.82231 0.59179 0.63626 0.0
C504 C 0.82587 0.55604 0.62697 0.0
C505 C 0.87459 0.57106 0.62794 0.0
C506 C 0.91988 0.62193 0.63812 0.0
C507 C 0.91648 0.65777 0.64754 0.0
H508 H 0.87728 0.54334 0.62073 0.0
H509 H 0.85191 0.8954 0.71546 0.0
H510 H 0.24905 0.94317 0.45401 0.0
H511 H 0.26929 0.90384 0.41754 0.0
H512 H 0.18517 0.90059 0.33785 0.0
H513 H 0.16385 0.93911 0.37465 0.0
H514 H 0.15939 0.81161 0.33899 0.0
H515 H 0.32255 0.98948 0.33765 0.0
H516 H 0.39981 0.07683 0.3603 0.0
H517 H 0.44628 0.00866 0.41346 0.0
H518 H 0.36889 0.92076 0.39152 0.0
H519 H 0.34346 0.77713 0.26631 0.0
H520 H 0.32195 0.82981 0.27425 0.0
H521 H 0.21091 0.72261 0.35076 0.0
H522 H 0.23266 0.67049 0.3432 0.0
H523 H 0.33899 0.8796 0.33363 0.0
H524 H 0.10777 0.71552 0.34739 0.0
H525 H 0.03211 0.63248 0.31975 0.0
H526 H 0.12501 0.6807 0.23202 0.0
H527 H 0.20123 0.76406 0.25902 0.0
C528 C 0.23543 0.93469 0.42861 0.0
C529 C 0.20506 0.94441 0.41715 0.0
C530 C 0.24714 0.91232 0.40771 0.0
C531 C 0.22958 0.90006 0.3747 0.0
C532 C 0.19928 0.90982 0.36316 0.0
C533 C 0.18707 0.93174 0.3842 0.0
C534 C 0.24106 0.87485 0.353 0.0
C535 C 0.19872 0.8267 0.33758 0.0
C536 C 0.29274 0.89554 0.34993 0.0
C537 C 0.33973 0.94844 0.363 0.0
C538 C 0.34908 0.99306 0.3543 0.0
C539 C 0.39293 0.04268 0.36701 0.0
C540 C 0.42791 0.04828 0.38833 0.0
C541 C 0.41917 0.00427 0.39692 0.0
C542 C 0.37536 0.95454 0.38431 0.0
C543 C 0.3136 0.76428 0.28426 0.0
C544 C 0.28957 0.71978 0.30413 0.0
C545 C 0.30155 0.79445 0.28885 0.0
C546 C 0.26474 0.77996 0.313 0.0
C547 C 0.23899 0.73413 0.33174 0.0
C548 C 0.25157 0.70452 0.32751 0.0
C549 C 0.25685 0.81507 0.32154 0.0
C550 C 0.29986 0.8651 0.33447 0.0
C551 C 0.20607 0.79668 0.3216 0.0
C552 C 0.16035 0.74619 0.30533 0.0
C553 C 0.11207 0.70858 0.32216 0.0
C554 C 0.0691 0.66133 0.30662 0.0
C555 C 0.0738 0.65128 0.27418 0.0
C556 C 0.12152 0.68842 0.25721 0.0
C557 C 0.16466 0.73562 0.27266 0.0
H558 H 0.04045 0.61473 0.26218 0.0
H559 H 0.46181 0.08673 0.39816 0.0
H560 H 0.09737 0.9868 0.94049 0.0
H561 H 0.16486 0.01929 0.89879 0.0
H562 H 0.24117 0.17924 0.9199 0.0
H563 H 0.17236 0.14642 0.96051 0.0
H564 H 0.2433 0.16849 0.85606 0.0
H565 H 0.28352 0.12147 0.9533 0.0
H566 H 0.26256 0.06031 0.99692 0.0
H567 H 0.23668 0.95646 0.92316 0.0
H568 H 0.25671 0.01669 0.87905 0.0
H569 H 0.51563 0.32744 0.83447 0.0
H570 H 0.42406 0.27488 0.85098 0.0
H571 H 0.37703 0.13981 0.80027 0.0
H572 H 0.46942 0.19327 0.78302 0.0
H573 H 0.34898 0.12362 0.86866 0.0
H574 H 0.32696 0.18429 0.77202 0.0
H575 H 0.3502 0.24916 0.73086 0.0
H576 H 0.34754 0.33328 0.80619 0.0
H577 H 0.32436 0.26894 0.84798 0.0
C578 C 0.12872 0.02886 0.93617 0.0
C579 C 0.13021 0.06429 0.95375 0.0
C580 C 0.16716 0.0474 0.91235 0.0
C581 C 0.20862 0.10184 0.90648 0.0
C582 C 0.20957 0.1371 0.92387 0.0
C583 C 0.17057 0.11847 0.94721 0.0
C584 C 0.25244 0.12262 0.8834 0.0
C585 C 0.26646 0.15875 0.85887 0.0
C586 C 0.28186 0.10885 0.88638 0.0
C587 C 0.27111 0.07329 0.91288 0.0
C588 C 0.27315 0.08548 0.94638 0.0
C589 C 0.26142 0.05098 0.97119 0.0
C590 C 0.24819 0.00447 0.96281 0.0
C591 C 0.24687 0.99247 0.92961 0.0
C592 C 0.25842 0.02677 0.90469 0.0
C593 C 0.48544 0.28697 0.826 0.0
C594 C 0.49918 0.2643 0.80739 0.0
C595 C 0.43318 0.25699 0.83539 0.0
C596 C 0.39372 0.20348 0.82679 0.0
C597 C 0.40693 0.18113 0.807 0.0
C598 C 0.45943 0.21161 0.79704 0.0
C599 C 0.34065 0.17056 0.84201 0.0
C600 C 0.32498 0.13229 0.86524 0.0
C601 C 0.31028 0.18303 0.83821 0.0
C602 C 0.32411 0.22184 0.81318 0.0
C603 C 0.33163 0.21678 0.77988 0.0
C604 C 0.34475 0.25346 0.75641 0.0
C605 C 0.35057 0.29545 0.76587 0.0
C606 C 0.34303 0.30073 0.79887 0.0
C607 C 0.3297 0.26405 0.82246 0.0
H608 H 0.36081 0.32382 0.74762 0.0
H609 H 0.23906 0.97777 0.98205 0.0
H610 H 0.99777 0.1037 0.45061 0.0
H611 H 0.0313 0.1755 0.41296 0.0
H612 H 0.17538 0.21139 0.40048 0.0
H613 H 0.14292 0.14066 0.43932 0.0
H614 H 0.12678 0.28217 0.42614 0.0
H615 H 0.20884 0.2505 0.31688 0.0
H616 H 0.18535 0.17761 0.28389 0.0
H617 H 0.0214 0.08084 0.30708 0.0
H618 H 0.04398 0.15281 0.34049 0.0
H619 H 0.33063 0.51833 0.34769 0.0
H620 H 0.27979 0.42829 0.36658 0.0
H621 H 0.15318 0.37078 0.30007 0.0
H622 H 0.20392 0.46182 0.2815 0.0
H623 H 0.17963 0.30398 0.30851 0.0
H624 H 0.13122 0.38399 0.36805 0.0
H625 H 0.14969 0.45608 0.39847 0.0
H626 H 0.23439 0.45163 0.47247 0.0
H627 H 0.21718 0.38008 0.44214 0.0
C628 C 0.0365 0.12659 0.43973 0.0
C629 C 0.06759 0.11622 0.44778 0.0
C630 C 0.05539 0.16739 0.41808 0.0
C631 C 0.10544 0.19821 0.40368 0.0
C632 C 0.1362 0.18732 0.41095 0.0
C633 C 0.11761 0.14692 0.43308 0.0
C634 C 0.12782 0.24533 0.38406 0.0
C635 C 0.13798 0.28675 0.40037 0.0
C636 C 0.1417 0.25091 0.35036 0.0
C637 C 0.12819 0.20686 0.33139 0.0
C638 C 0.16782 0.21355 0.31505 0.0
C639 C 0.15467 0.17235 0.29633 0.0
C640 C 0.10193 0.12452 0.2935 0.0
C641 C 0.06226 0.11772 0.30948 0.0
C642 C 0.07526 0.15856 0.3285 0.0
C643 C 0.29246 0.48632 0.33652 0.0
C644 C 0.27133 0.49668 0.31287 0.0
C645 C 0.26357 0.43501 0.34727 0.0
C646 C 0.21285 0.3931 0.33473 0.0
C647 C 0.19257 0.40273 0.30974 0.0
C648 C 0.22156 0.4545 0.29906 0.0
C649 C 0.17947 0.34095 0.3509 0.0
C650 C 0.16776 0.29896 0.33415 0.0
C651 C 0.16334 0.33437 0.38416 0.0
C652 C 0.17331 0.37702 0.40266 0.0
C653 C 0.15418 0.39871 0.39065 0.0
C654 C 0.16436 0.43942 0.4079 0.0
C655 C 0.1933 0.45851 0.43734 0.0
C656 C 0.21202 0.43684 0.44964 0.0
C657 C 0.20203 0.39618 0.43244 0.0
H658 H 0.20113 0.49002 0.45067 0.0
H659 H 0.09178 0.09276 0.27889 0.0
H660 H 0.8707 0.1337 0.94869 0.0
H661 H 0.82494 0.14974 0.9153 0.0
H662 H 0.97275 0.2832 0.86948 0.0
H663 H 0.01889 0.26803 0.90363 0.0
H664 H 0.92104 0.30834 0.88416 0.0
H665 H 0.87573 0.16123 0.83096 0.0
H666 H 0.84223 0.07259 0.82552 0.0
H667 H 0.68755 0.00256 0.85483 0.0
H668 H 0.72036 0.0908 0.86143 0.0
H669 H 0.78523 0.34067 0.77808 0.0
H670 H 0.83521 0.31739 0.79115 0.0
H671 H 0.70933 0.19326 0.85546 0.0
H672 H 0.65893 0.21564 0.84186 0.0
H673 H 0.75661 0.16562 0.82213 0.0
H674 H 0.80849 0.31263 0.88652 0.0
H675 H 0.84124 0.401 0.89249 0.0
H676 H 0.98335 0.4695 0.84059 0.0
H677 H 0.95104 0.38134 0.83393 0.0
C678 C 0.89335 0.1663 0.93137 0.0
C679 C 0.94831 0.19954 0.92867 0.0
C680 C 0.86714 0.1753 0.91216 0.0
C681 C 0.89516 0.21706 0.88931 0.0
C682 C 0.9502 0.2506 0.8868 0.0
C683 C 0.97656 0.24202 0.90637 0.0
C684 C 0.86724 0.22685 0.86904 0.0
C685 C 0.88574 0.27728 0.87005 0.0
C686 C 0.82067 0.18623 0.85085 0.0
C687 C 0.80073 0.13289 0.84695 0.0
C688 C 0.83472 0.12702 0.83668 0.0
C689 C 0.81583 0.07678 0.8334 0.0
C690 C 0.76282 0.03198 0.83988 0.0
C691 C 0.72862 0.03732 0.8498 0.0
C692 C 0.74737 0.08747 0.85335 0.0
C693 C 0.76745 0.30715 0.79397 0.0
C694 C 0.71806 0.2796 0.80874 0.0
C695 C 0.79621 0.29421 0.80168 0.0
C696 C 0.77619 0.25394 0.82456 0.0
C697 C 0.72547 0.22436 0.8377 0.0
C698 C 0.69683 0.23733 0.83005 0.0
C699 C 0.80996 0.24646 0.83804 0.0
C700 C 0.79253 0.19662 0.83579 0.0
C701 C 0.85751 0.28744 0.85509 0.0
C702 C 0.87712 0.34041 0.8594 0.0
C703 C 0.84656 0.34652 0.87619 0.0
C704 C 0.86505 0.39655 0.87972 0.0
C705 C 0.91427 0.44082 0.86684 0.0
C706 C 0.94518 0.43516 0.85049 0.0
C707 C 0.92681 0.38519 0.84684 0.0
H708 H 0.92852 0.47953 0.8696 0.0
H709 H 0.74823 0.99312 0.83715 0.0
H710 H 0.93611 0.01111 0.42685 0.0
H711 H 0.86755 0.9767 0.38555 0.0
H712 H 0.75887 0.83007 0.4397 0.0
H713 H 0.82884 0.86355 0.47962 0.0
H714 H 0.74019 0.80809 0.37841 0.0
H715 H 0.76449 0.93599 0.44753 0.0
H716 H 0.81694 0.02381 0.47285 0.0
H717 H 0.85713 0.0938 0.37638 0.0
H718 H 0.80531 0.00642 0.35049 0.0
H719 H 0.514 0.79318 0.35906 0.0
H720 H 0.60309 0.8403 0.37718 0.0
H721 H 0.62549 0.78412 0.29156 0.0
H722 H 0.53405 0.73364 0.27432 0.0
H723 H 0.69743 0.91424 0.35833 0.0
H724 H 0.70592 0.76534 0.31354 0.0
H725 H 0.64591 0.67167 0.29731 0.0
H726 H 0.52486 0.63335 0.36039 0.0
H727 H 0.58436 0.72663 0.37723 0.0
C728 C 0.89741 0.97165 0.42981 0.0
C729 C 0.88693 0.94013 0.45651 0.0
C730 C 0.85835 0.95193 0.40624 0.0
C731 C 0.80749 0.90119 0.40987 0.0
C732 C 0.79765 0.86934 0.43631 0.0
C733 C 0.83727 0.88854 0.45929 0.0
C734 C 0.76354 0.88225 0.38754 0.0
C735 C 0.73109 0.83149 0.37381 0.0
C736 C 0.75132 0.91251 0.38157 0.0
C737 C 0.78149 0.96483 0.39709 0.0
C738 C 0.78465 0.97016 0.43174 0.0
C739 C 0.81427 0.01982 0.44619 0.0
C740 C 0.84046 0.06435 0.42624 0.0
C741 C 0.83689 0.05928 0.3918 0.0
C742 C 0.80737 0.0097 0.37722 0.0
C743 C 0.53796 0.79117 0.34383 0.0
C744 C 0.51696 0.75964 0.31525 0.0
C745 C 0.58922 0.81857 0.35411 0.0
C746 C 0.62109 0.81546 0.33602 0.0
C747 C 0.60145 0.78658 0.30624 0.0
C748 C 0.54949 0.75837 0.29611 0.0
C749 C 0.67268 0.83917 0.35035 0.0
C750 C 0.70703 0.89116 0.36233 0.0
C751 C 0.68523 0.80912 0.35602 0.0
C752 C 0.64928 0.75297 0.34623 0.0
C753 C 0.6665 0.73686 0.32393 0.0
C754 C 0.6326 0.68387 0.31465 0.0
C755 C 0.58153 0.64663 0.3277 0.0
C756 C 0.56433 0.66226 0.35019 0.0
C757 C 0.5981 0.71517 0.35959 0.0
H758 H 0.55533 0.60563 0.32046 0.0
H759 H 0.86344 0.10278 0.43746 0.0
H760 H 0.01923 0.89327 0.96229 0.0
H761 H 0.9813 0.81772 0.92729 0.0
H762 H 0.83312 0.7762 0.9252 0.0
H763 H 0.86901 0.84711 0.96418 0.0
H764 H 0.80942 0.69342 0.92762 0.0
H765 H 0.93226 0.84105 0.85647 0.0
H766 H 0.01855 0.9275 0.84019 0.0
H767 H 0.08901 0.86548 0.84635 0.0
H768 H 0.00325 0.77869 0.86284 0.0
H769 H 0.71402 0.51492 0.79304 0.0
H770 H 0.76156 0.6038 0.81407 0.0
H771 H 0.86654 0.60321 0.8689 0.0
H772 H 0.81823 0.51396 0.84881 0.0
H773 H 0.90997 0.70956 0.833 0.0
H774 H 0.78259 0.56539 0.91358 0.0
H775 H 0.69294 0.47995 0.9263 0.0
H776 H 0.62703 0.54119 0.89544 0.0
H777 H 0.71636 0.62676 0.88207 0.0
C778 C 0.97845 0.86784 0.95451 0.0
C779 C 0.9476 0.87751 0.96491 0.0
C780 C 0.95697 0.82502 0.93395 0.0
C781 C 0.90483 0.79218 0.92217 0.0
C782 C 0.8737 0.80117 0.9333 0.0
C783 C 0.89454 0.84255 0.95506 0.0
C784 C 0.88196 0.74712 0.89955 0.0
C785 C 0.83137 0.69773 0.90661 0.0
C786 C 0.91008 0.75178 0.87197 0.0
C787 C 0.96139 0.80347 0.8611 0.0
C788 C 0.96619 0.8459 0.85443 0.0
C789 C 0.015 0.89496 0.8452 0.0
C790 C 0.05925 0.90205 0.8424 0.0
C791 C 0.0547 0.85995 0.84856 0.0
C792 C 0.00597 0.81076 0.85776 0.0
C793 C 0.74825 0.53454 0.80875 0.0
C794 C 0.7626 0.5079 0.81943 0.0
C795 C 0.7753 0.58514 0.82071 0.0
C796 C 0.8175 0.60985 0.84294 0.0
C797 C 0.83435 0.58485 0.85154 0.0
C798 C 0.80662 0.5339 0.84023 0.0
C799 C 0.83838 0.65724 0.86148 0.0
C800 C 0.88831 0.70644 0.85372 0.0
C801 C 0.80928 0.65304 0.88782 0.0
C802 C 0.75591 0.6021 0.89652 0.0
C803 C 0.7489 0.56043 0.90929 0.0
C804 C 0.6982 0.51204 0.91664 0.0
C805 C 0.6543 0.50509 0.91159 0.0
C806 C 0.66105 0.54659 0.89928 0.0
C807 C 0.71168 0.59503 0.89182 0.0
H808 H 0.61507 0.4676 0.91729 0.0
H809 H 0.09704 0.94015 0.83538 0.0
loop_
_geom_bond_atom_site_label_1
_geom_bond_atom_site_label_2
_geom_bond_distance
_geom_bond_site_symmetry_2
_ccdc_geom_bond_type
Tb0 N29 2.617 . S
Tb0 N35 2.572 1_565 S
Tb0 O44 2.465 . S
Tb0 O45 2.387 1_565 S
Tb0 O47 2.428 . S
Tb0 O48 2.307 1_564 S
Tb0 O52 2.365 1_455 S
Tb0 O55 2.393 1_455 S
Tb0 C64 2.802 . S
C1 N2 1.379 1_665 S
C1 C4 1.416 . S
C1 C8 1.424 . S
N2 C1 1.379 1_445 S
N2 C5 1.334 . S
N2 Tb11 2.617 1_455 S
C3 C5 1.390 . S
C3 C6 1.339 . S
C3 H23 0.930 . S
C4 C1 1.416 . S
C4 C6 1.416 1_665 S
C4 C10 1.448 . S
C5 N2 1.334 . S
C5 C3 1.390 . S
C5 H16 0.930 . S
C6 C3 1.339 . S
C6 C4 1.416 1_445 S
C6 H27 0.930 1_545 S
C7 C8 1.413 . S
C7 C9 1.427 . S
C7 C13 1.416 . S
C8 C1 1.424 . S
C8 C7 1.413 . S
C8 N12 1.361 . S
C9 C7 1.427 . S
C9 C10 1.328 . S
C9 H24 0.929 . S
C10 C4 1.448 . S
C10 C9 1.328 . S
C10 H25 0.930 . S
Tb11 N2 2.617 1_655 S
Tb11 N12 2.572 1_545 S
Tb11 O46 2.349 1_656 S
Tb11 O49 2.393 1_655 S
Tb11 O50 2.465 . S
Tb11 O51 2.387 1_545 S
Tb11 O53 2.428 1_655 S
Tb11 O54 2.308 1_546 S
Tb11 C75 2.802 . S
N12 C8 1.361 . S
N12 Tb11 2.572 1_565 S
N12 C14 1.340 . S
C13 C7 1.416 . S
C13 C15 1.332 . S
C13 H21 0.931 . S
C14 N12 1.340 . S
C14 C15 1.407 . S
C14 H20 0.930 . S
C15 C13 1.332 . S
C15 C14 1.407 . S
C15 H17 0.929 . S
H16 C5 0.930 . S
H17 C15 0.929 . S
H18 C33 0.930 . S
H19 C40 0.929 . S
H20 C14 0.930 . S
H21 C13 0.931 . S
H22 C36 0.930 . S
H23 C3 0.930 . S
H24 C9 0.929 . S
H25 C10 0.930 . S
H26 C31 0.930 . S
H27 C6 0.930 1_565 S
H28 C39 0.931 . S
N29 Tb0 2.617 . S
N29 C30 1.379 1_565 S
N29 C33 1.334 1_455 S
C30 N29 1.379 1_545 S
C30 C32 1.416 . S
C30 C38 1.424 . S
C31 H26 0.930 . S
C31 C33 1.390 . S
C31 C34 1.339 1_565 S
C32 C30 1.416 . S
C32 C34 1.416 1_455 S
C32 C65 1.448 . S
C33 H18 0.930 . S
C33 N29 1.334 1_655 S
C33 C31 1.390 . S
C34 C31 1.339 1_545 S
C34 C32 1.416 1_655 S
C34 H41 0.930 . S
N35 Tb0 2.572 1_545 S
N35 C36 1.340 . S
N35 C38 1.361 . S
C36 H22 0.930 . S
C36 N35 1.340 . S
C36 C40 1.407 . S
C37 C38 1.413 . S
C37 C39 1.416 . S
C37 C66 1.427 . S
C38 C30 1.424 . S
C38 N35 1.361 . S
C38 C37 1.413 . S
C39 H28 0.931 . S
C39 C37 1.416 . S
C39 C40 1.332 . S
C40 H19 0.929 . S
C40 C36 1.407 . S
C40 C39 1.332 . S
H41 C34 0.930 . S
H42 C65 0.930 . S
H43 C66 0.929 . S
O44 Tb0 2.465 . S
O44 C64 1.264 . S
O45 Tb0 2.387 1_545 S
O45 C56 1.264 . S
O46 Tb11 2.349 1_454 S
O46 C56 1.243 . S
O47 Tb0 2.428 . S
O47 C64 1.256 . S
O48 Tb0 2.307 1_546 S
O48 C63 1.268 . S
O49 Tb11 2.393 1_455 S
O49 C63 1.248 . S
O50 Tb11 2.465 . S
O50 C75 1.264 . S
O51 Tb11 2.387 1_565 S
O51 C67 1.264 . S
O52 Tb0 2.365 1_655 S
O52 C67 1.223 1_554 S
O53 Tb11 2.428 1_455 S
O53 C75 1.256 1_455 S
O54 Tb11 2.308 1_564 S
O54 C74 1.266 . S
O55 Tb0 2.393 1_655 S
O55 C74 1.248 . S
C56 O45 1.264 . S
C56 O46 1.243 . S
C57 C60 1.399 . S
C57 C62 1.383 . S
C57 C64 1.496 . S
C58 C59 1.399 . S
C58 C62 1.389 . S
C59 C58 1.399 . S
C59 C61 1.380 . S
C59 H76 0.929 . S
C60 C57 1.399 . S
C60 C61 1.392 . S
C60 H77 0.929 1_455 S
C61 C59 1.380 . S
C61 C60 1.392 . S
C61 H78 0.929 . S
C62 C57 1.383 . S
C62 C58 1.389 . S
C62 H79 0.931 . S
C63 O48 1.268 . S
C63 O49 1.248 . S
C64 Tb0 2.802 . S
C64 O44 1.264 . S
C64 O47 1.256 . S
C64 C57 1.496 . S
C65 C32 1.448 . S
C65 H42 0.930 . S
C65 C66 1.328 . S
C66 C37 1.427 . S
C66 H43 0.929 . S
C66 C65 1.328 . S
C67 O51 1.264 . S
C67 O52 1.223 1_556 S
C68 C71 1.399 . S
C68 C72 1.383 . S
C68 C75 1.496 . S
C69 C70 1.399 . S
C69 C72 1.389 . S
C70 C69 1.399 . S
C70 C73 1.380 . S
C70 H80 0.929 . S
C71 C68 1.399 . S
C71 C73 1.392 . S
C71 H81 0.929 1_655 S
C72 C68 1.383 . S
C72 C69 1.389 . S
C72 H82 0.931 . S
C73 C70 1.380 . S
C73 C71 1.392 . S
C73 H83 0.929 1_655 S
C74 O54 1.266 . S
C74 O55 1.248 . S
C75 Tb11 2.802 . S
C75 O50 1.264 . S
C75 O53 1.256 1_655 S
C75 C68 1.496 . S
H76 C59 0.929 . S
H77 C60 0.929 1_655 S
H78 C61 0.929 . S
H79 C62 0.931 . S
H80 C70 0.929 . S
H81 C71 0.929 1_455 S
H82 C72 0.931 . S
H83 C73 0.929 1_455 S
Tb84 N113 2.617 1_565 S
Tb84 N119 2.572 1_455 S
Tb84 O128 2.465 . S
Tb84 O129 2.387 1_455 S
Tb84 O131 2.428 1_565 S
Tb84 O132 2.308 1_455 S
Tb84 O136 2.349 1_565 S
Tb84 O139 2.393 1_565 S
Tb84 C148 2.802 . S
C85 N86 1.379 . S
C85 C88 1.416 . S
C85 C92 1.424 . S
N86 C85 1.379 . S
N86 C89 1.334 1_445 S
N86 Tb95 2.613 1_455 S
C87 C89 1.390 . S
C87 C90 1.339 1_665 S
C87 H107 0.930 . S
C88 C85 1.416 . S
C88 C90 1.416 . S
C88 C94 1.448 . S
C89 N86 1.334 1_665 S
C89 C87 1.390 . S
C89 H100 0.930 . S
C90 C87 1.339 1_445 S
C90 C88 1.416 . S
C90 H111 0.930 1_545 S
C91 C92 1.413 . S
C91 C93 1.427 . S
C91 C97 1.416 . S
C92 C85 1.424 . S
C92 C91 1.413 . S
C92 N96 1.361 . S
C93 C91 1.427 . S
C93 C94 1.328 . S
C93 H108 0.929 . S
C94 C88 1.448 . S
C94 C93 1.328 . S
C94 H109 0.930 . S
Tb95 N86 2.613 1_655 S
Tb95 N96 2.569 1_655 S
Tb95 O130 2.359 1_545 S
Tb95 O133 2.387 1_545 S
Tb95 O134 2.483 . S
Tb95 O135 2.366 1_655 S
Tb95 O137 2.446 . S
Tb95 O138 2.303 1_655 S
Tb95 C159 2.822 . S
N96 C92 1.361 . S
N96 Tb95 2.569 1_455 S
N96 C98 1.340 . S
C97 C91 1.416 . S
C97 C99 1.332 . S
C97 H105 0.931 . S
C98 N96 1.340 . S
C98 C99 1.407 . S
C98 H104 0.930 . S
C99 C97 1.332 . S
C99 C98 1.407 . S
C99 H101 0.929 . S
H100 C89 0.930 . S
H101 C99 0.929 . S
H102 C117 0.930 . S
H103 C124 0.929 . S
H104 C98 0.930 . S
H105 C97 0.931 . S
H106 C120 0.930 . S
H107 C87 0.930 . S
H108 C93 0.929 . S
H109 C94 0.930 . S
H110 C115 0.930 . S
H111 C90 0.930 1_565 S
H112 C123 0.931 . S
N113 Tb84 2.617 1_545 S
N113 C114 1.379 1_445 S
N113 C117 1.334 . S
C114 N113 1.379 1_665 S
C114 C116 1.416 . S
C114 C122 1.424 . S
C115 H110 0.930 . S
C115 C117 1.390 . S
C115 C118 1.339 . S
C116 C114 1.416 . S
C116 C118 1.416 1_665 S
C116 C149 1.448 . S
C117 H102 0.930 . S
C117 N113 1.334 . S
C117 C115 1.390 . S
C118 C115 1.339 . S
C118 C116 1.416 1_445 S
C118 H125 0.930 . S
N119 Tb84 2.572 1_655 S
N119 C120 1.340 . S
N119 C122 1.361 . S
C120 H106 0.930 . S
C120 N119 1.340 . S
C120 C124 1.407 . S
C121 C122 1.413 . S
C121 C123 1.416 . S
C121 C150 1.427 . S
C122 C114 1.424 . S
C122 N119 1.361 . S
C122 C121 1.413 . S
C123 H112 0.931 . S
C123 C121 1.416 . S
C123 C124 1.332 . S
C124 H103 0.929 . S
C124 C120 1.407 . S
C124 C123 1.332 . S
H125 C118 0.930 . S
H126 C149 0.930 . S
H127 C150 0.929 . S
O128 Tb84 2.465 . S
O128 C148 1.264 . S
O129 Tb84 2.387 1_655 S
O129 C140 1.264 . S
O130 Tb95 2.359 1_565 S
O130 C140 1.243 . S
O131 Tb84 2.428 1_545 S
O131 C148 1.256 1_545 S
O132 Tb84 2.308 1_655 S
O132 C147 1.266 . S
O133 Tb95 2.387 1_565 S
O133 C147 1.248 . S
O134 Tb95 2.483 . S
O134 C159 1.264 . S
O135 Tb95 2.366 1_455 S
O135 C151 1.264 . S
O136 Tb84 2.349 1_545 S
O136 C151 1.243 . S
O137 Tb95 2.446 . S
O137 C159 1.256 . S
O138 Tb95 2.303 1_455 S
O138 C158 1.266 . S
O139 Tb84 2.393 1_545 S
O139 C158 1.248 . S
C140 O129 1.264 . S
C140 O130 1.243 . S
C141 C144 1.399 . S
C141 C146 1.383 . S
C141 C148 1.496 . S
C142 C143 1.399 . S
C142 C146 1.389 . S
C143 C142 1.399 . S
C143 C145 1.380 . S
C143 H160 0.929 . S
C144 C141 1.399 . S
C144 C145 1.392 . S
C144 H161 0.929 1_565 S
C145 C143 1.380 . S
C145 C144 1.392 . S
C145 H162 0.929 1_565 S
C146 C141 1.383 . S
C146 C142 1.389 . S
C146 H163 0.931 . S
C147 O132 1.266 . S
C147 O133 1.248 . S
C148 Tb84 2.802 . S
C148 O128 1.264 . S
C148 O131 1.256 1_565 S
C148 C141 1.496 . S
C149 C116 1.448 . S
C149 H126 0.930 . S
C149 C150 1.328 . S
C150 C121 1.427 . S
C150 H127 0.929 . S
C150 C149 1.328 . S
C151 O135 1.264 . S
C151 O136 1.243 . S
C152 C155 1.399 . S
C152 C156 1.383 . S
C152 C159 1.496 . S
C153 C154 1.399 . S
C153 C156 1.389 . S
C154 C153 1.399 . S
C154 C157 1.380 . S
C154 H164 0.929 . S
C155 C152 1.399 . S
C155 C157 1.392 . S
C155 H165 0.929 . S
C156 C152 1.383 . S
C156 C153 1.389 . S
C156 H166 0.931 . S
C157 C154 1.380 . S
C157 C155 1.392 . S
C157 H167 0.929 . S
C158 O138 1.266 . S
C158 O139 1.248 . S
C159 Tb95 2.822 . S
C159 O134 1.264 . S
C159 O137 1.256 . S
C159 C152 1.496 . S
H160 C143 0.929 . S
H161 C144 0.929 1_545 S
H162 C145 0.929 1_545 S
H163 C146 0.931 . S
H164 C154 0.929 . S
H165 C155 0.929 . S
H166 C156 0.931 . S
H167 C157 0.929 . S
Zn168 O174 1.920 . S
Zn168 O180 1.898 . S
Zn168 O183 1.905 . S
Zn169 O177 1.905 . S
Zn169 O178 1.898 . S
Zn169 O186 1.920 . S
Zn170 O173 2.080 . S
Zn170 O176 2.114 . S
Zn170 O179 2.120 . S
Zn170 O181 2.120 . S
Zn170 O182 2.114 . S
Zn170 O185 2.080 . S
C171 O176 1.166 . S
C171 O177 1.182 . S
C172 O178 1.167 . S
C172 O179 1.299 . S
O173 Zn170 2.080 . S
O173 C187 1.305 . S
O174 Zn168 1.920 . S
O174 C187 1.234 . S
C175 O180 1.167 . S
C175 O181 1.299 . S
O176 Zn170 2.114 . S
O176 C171 1.166 . S
O177 Zn169 1.905 . S
O177 C171 1.182 . S
O178 Zn169 1.898 . S
O178 C172 1.167 . S
O179 Zn170 2.120 . S
O179 C172 1.299 . S
O180 Zn168 1.898 . S
O180 C175 1.167 . S
O181 Zn170 2.120 . S
O181 C175 1.299 . S
O182 Zn170 2.114 . S
O182 C184 1.166 . S
O183 Zn168 1.905 . S
O183 C184 1.182 . S
C184 O182 1.166 . S
C184 O183 1.182 . S
O185 Zn170 2.080 . S
O185 C188 1.305 . S
O186 Zn169 1.920 . S
O186 C188 1.234 . S
C187 O173 1.305 . S
C187 O174 1.234 . S
C188 O185 1.305 . S
C188 O186 1.234 . S
Zn189 O195 1.920 . S
Zn189 O201 1.898 . S
Zn189 O204 1.905 . S
Zn190 O198 1.905 . S
Zn190 O199 1.898 . S
Zn190 O207 1.920 . S
Zn191 O194 2.080 . S
Zn191 O197 2.114 . S
Zn191 O200 2.120 . S
Zn191 O202 2.120 . S
Zn191 O203 2.114 . S
Zn191 O206 2.080 . S
C192 O197 1.166 . S
C192 O198 1.182 . S
C193 O199 1.167 . S
C193 O200 1.299 . S
O194 Zn191 2.080 . S
O194 C208 1.305 . S
O195 Zn189 1.920 . S
O195 C208 1.234 . S
C196 O201 1.167 . S
C196 O202 1.299 . S
O197 Zn191 2.114 . S
O197 C192 1.166 . S
O198 Zn190 1.905 . S
O198 C192 1.182 . S
O199 Zn190 1.898 . S
O199 C193 1.167 . S
O200 Zn191 2.120 . S
O200 C193 1.299 . S
O201 Zn189 1.898 . S
O201 C196 1.167 . S
O202 Zn191 2.120 . S
O202 C196 1.299 . S
O203 Zn191 2.114 . S
O203 C205 1.166 . S
O204 Zn189 1.905 . S
O204 C205 1.182 . S
C205 O203 1.166 . S
C205 O204 1.182 . S
O206 Zn191 2.080 . S
O206 C209 1.305 . S
O207 Zn190 1.920 . S
O207 C209 1.234 . S
C208 O194 1.305 . S
C208 O195 1.234 . S
C209 O206 1.305 . S
C209 O207 1.234 . S
H210 C228 0.951 . S
H211 C230 0.951 . S
H212 C232 0.950 . S
H213 C233 0.950 . S
H214 C235 0.950 . S
H215 C238 0.950 . S
H216 C239 0.950 . S
H217 C241 0.950 . S
H218 C242 0.950 . S
H219 C243 0.951 . S
H220 C245 0.951 . S
H221 C247 0.950 . S
H222 C248 0.950 . S
H223 C250 0.950 . S
H224 C253 0.950 . S
H225 C254 0.950 . S
H226 C256 0.950 . S
H227 C257 0.950 . S
C228 H210 0.951 . S
C228 C229 1.366 . S
C228 C230 1.388 . S
C229 C228 1.366 . S
C229 C233 1.385 . S
C230 H211 0.951 . S
C230 C228 1.388 . S
C230 C231 1.366 . S
C231 C230 1.366 . S
C231 C232 1.414 . S
C231 C234 1.499 . S
C232 H212 0.950 . S
C232 C231 1.414 . S
C232 C233 1.374 . S
C233 H213 0.950 . S
C233 C229 1.385 . S
C233 C232 1.374 . S
C234 C231 1.499 . S
C234 C235 1.373 . S
C234 C236 1.389 . S
C235 H214 0.950 . S
C235 C234 1.373 . S
C235 C251 1.377 . S
C236 C234 1.389 . S
C236 C237 1.524 . S
C236 C250 1.377 . S
C237 C236 1.524 . S
C237 C238 1.397 . S
C237 C242 1.363 . S
C238 H215 0.950 . S
C238 C237 1.397 . S
C238 C239 1.334 . S
C239 H216 0.950 . S
C239 C238 1.334 . S
C239 C240 1.287 . S
C240 C239 1.287 . S
C240 C241 1.524 . S
C240 H259 0.913 . S
C241 H217 0.950 . S
C241 C240 1.524 . S
C241 C242 1.415 . S
C242 H218 0.950 . S
C242 C237 1.363 . S
C242 C241 1.415 . S
C243 H219 0.951 . S
C243 C244 1.366 . S
C243 C245 1.388 . S
C244 C243 1.366 . S
C244 C248 1.385 . S
C245 H220 0.951 . S
C245 C243 1.388 . S
C245 C246 1.366 . S
C246 C245 1.366 . S
C246 C247 1.414 . S
C246 C249 1.499 . S
C247 H221 0.950 . S
C247 C246 1.414 . S
C247 C248 1.374 . S
C248 H222 0.950 . S
C248 C244 1.385 . S
C248 C247 1.374 . S
C249 C246 1.499 . S
C249 C250 1.373 . S
C249 C251 1.389 . S
C250 H223 0.950 . S
C250 C236 1.377 . S
C250 C249 1.373 . S
C251 C235 1.377 . S
C251 C249 1.389 . S
C251 C252 1.524 . S
C252 C251 1.524 . S
C252 C253 1.397 . S
C252 C257 1.363 . S
C253 H224 0.950 . S
C253 C252 1.397 . S
C253 C254 1.334 . S
C254 H225 0.950 . S
C254 C253 1.334 . S
C254 C255 1.287 . S
C255 C254 1.287 . S
C255 C256 1.524 . S
C255 H258 0.999 . S
C256 H226 0.950 . S
C256 C255 1.524 . S
C256 C257 1.415 . S
C257 H227 0.950 . S
C257 C252 1.363 . S
C257 C256 1.415 . S
H258 C255 0.999 . S
H259 C240 0.913 . S
H260 C278 0.951 . S
H261 C280 0.951 . S
H262 C282 0.950 . S
H263 C283 0.950 . S
H264 C285 0.950 . S
H265 C288 0.950 . S
H266 C289 0.950 . S
H267 C291 0.950 . S
H268 C292 0.950 . S
H269 C293 0.951 . S
H270 C295 0.951 . S
H271 C297 0.950 . S
H272 C298 0.950 . S
H273 C300 0.950 . S
H274 C303 0.950 . S
H275 C304 0.950 . S
H276 C306 0.950 . S
H277 C307 0.950 . S
C278 H260 0.951 . S
C278 C279 1.366 . S
C278 C280 1.388 . S
C279 C278 1.366 . S
C279 C283 1.385 . S
C280 H261 0.951 . S
C280 C278 1.388 . S
C280 C281 1.366 . S
C281 C280 1.366 . S
C281 C282 1.414 . S
C281 C284 1.499 . S
C282 H262 0.950 . S
C282 C281 1.414 . S
C282 C283 1.374 . S
C283 H263 0.950 . S
C283 C279 1.385 . S
C283 C282 1.374 . S
C284 C281 1.499 . S
C284 C285 1.373 . S
C284 C286 1.389 . S
C285 H264 0.950 . S
C285 C284 1.373 . S
C285 C301 1.377 . S
C286 C284 1.389 . S
C286 C287 1.524 . S
C286 C300 1.377 . S
C287 C286 1.524 . S
C287 C288 1.397 . S
C287 C292 1.363 . S
C288 H265 0.950 . S
C288 C287 1.397 . S
C288 C289 1.334 1_545 S
C289 H266 0.950 . S
C289 C288 1.334 1_565 S
C289 C290 1.287 . S
C290 C289 1.287 . S
C290 C291 1.524 . S
C290 H309 0.913 . S
C291 H267 0.950 . S
C291 C290 1.524 . S
C291 C292 1.415 1_565 S
C292 H268 0.950 . S
C292 C287 1.363 . S
C292 C291 1.415 1_545 S
C293 H269 0.951 . S
C293 C294 1.366 . S
C293 C295 1.388 . S
C294 C293 1.366 . S
C294 C298 1.385 . S
C295 H270 0.951 . S
C295 C293 1.388 . S
C295 C296 1.366 . S
C296 C295 1.366 . S
C296 C297 1.414 . S
C296 C299 1.499 . S
C297 H271 0.950 . S
C297 C296 1.414 . S
C297 C298 1.374 . S
C298 H272 0.950 . S
C298 C294 1.385 . S
C298 C297 1.374 . S
C299 C296 1.499 . S
C299 C300 1.373 . S
C299 C301 1.389 . S
C300 H273 0.950 . S
C300 C286 1.377 . S
C300 C299 1.373 . S
C301 C285 1.377 . S
C301 C299 1.389 . S
C301 C302 1.524 . S
C302 C301 1.524 . S
C302 C303 1.397 . S
C302 C307 1.363 . S
C303 H274 0.950 . S
C303 C302 1.397 . S
C303 C304 1.334 . S
C304 H275 0.950 . S
C304 C303 1.334 . S
C304 C305 1.287 . S
C305 C304 1.287 . S
C305 C306 1.524 . S
C305 H308 0.999 . S
C306 H276 0.950 . S
C306 C305 1.524 . S
C306 C307 1.415 . S
C307 H277 0.950 . S
C307 C302 1.363 . S
C307 C306 1.415 . S
H308 C305 0.999 . S
H309 C290 0.913 . S
H310 C328 0.951 . S
H311 C330 0.951 . S
H312 C332 0.950 . S
H313 C333 0.950 . S
H314 C335 0.950 . S
H315 C338 0.950 . S
H316 C339 0.950 1_655 S
H317 C341 0.950 . S
H318 C342 0.950 . S
H319 C343 0.951 . S
H320 C345 0.951 . S
H321 C347 0.950 . S
H322 C348 0.950 . S
H323 C350 0.950 . S
H324 C353 0.950 . S
H325 C354 0.950 . S
H326 C356 0.950 . S
H327 C357 0.950 . S
C328 H310 0.951 . S
C328 C329 1.366 . S
C328 C330 1.388 . S
C329 C328 1.366 . S
C329 C333 1.385 . S
C330 H311 0.951 . S
C330 C328 1.388 . S
C330 C331 1.366 . S
C331 C330 1.366 . S
C331 C332 1.414 . S
C331 C334 1.499 . S
C332 H312 0.950 . S
C332 C331 1.414 . S
C332 C333 1.374 . S
C333 H313 0.950 . S
C333 C329 1.385 . S
C333 C332 1.374 . S
C334 C331 1.499 . S
C334 C335 1.373 . S
C334 C336 1.389 . S
C335 H314 0.950 . S
C335 C334 1.373 . S
C335 C351 1.377 . S
C336 C334 1.389 . S
C336 C337 1.524 . S
C336 C350 1.377 . S
C337 C336 1.524 . S
C337 C338 1.397 . S
C337 C342 1.363 . S
C338 H315 0.950 . S
C338 C337 1.397 . S
C338 C339 1.334 . S
C339 H316 0.950 1_455 S
C339 C338 1.334 . S
C339 C340 1.287 . S
C340 C339 1.287 . S
C340 C341 1.524 . S
C340 H359 0.913 1_455 S
C341 H317 0.950 . S
C341 C340 1.524 . S
C341 C342 1.415 . S
C342 H318 0.950 . S
C342 C337 1.363 . S
C342 C341 1.415 . S
C343 H319 0.951 . S
C343 C344 1.366 . S
C343 C345 1.388 . S
C344 C343 1.366 . S
C344 C348 1.385 . S
C345 H320 0.951 . S
C345 C343 1.388 . S
C345 C346 1.366 . S
C346 C345 1.366 . S
C346 C347 1.414 . S
C346 C349 1.499 . S
C347 H321 0.950 . S
C347 C346 1.414 . S
C347 C348 1.374 . S
C348 H322 0.950 . S
C348 C344 1.385 . S
C348 C347 1.374 . S
C349 C346 1.499 . S
C349 C350 1.373 . S
C349 C351 1.389 . S
C350 H323 0.950 . S
C350 C336 1.377 . S
C350 C349 1.373 . S
C351 C335 1.377 . S
C351 C349 1.389 . S
C351 C352 1.524 . S
C352 C351 1.524 . S
C352 C353 1.397 . S
C352 C357 1.363 . S
C353 H324 0.950 . S
C353 C352 1.397 . S
C353 C354 1.334 . S
C354 H325 0.950 . S
C354 C353 1.334 . S
C354 C355 1.287 . S
C355 C354 1.287 . S
C355 C356 1.524 . S
C355 H358 0.999 . S
C356 H326 0.950 . S
C356 C355 1.524 . S
C356 C357 1.415 . S
C357 H327 0.950 . S
C357 C352 1.363 . S
C357 C356 1.415 . S
H358 C355 0.999 . S
H359 C340 0.913 1_655 S
H360 C378 0.951 . S
H361 C380 0.951 . S
H362 C382 0.950 . S
H363 C383 0.950 . S
H364 C385 0.950 . S
H365 C388 0.950 . S
H366 C389 0.950 . S
H367 C391 0.950 . S
H368 C392 0.950 . S
H369 C393 0.951 . S
H370 C395 0.951 . S
H371 C397 0.950 . S
H372 C398 0.950 . S
H373 C400 0.950 . S
H374 C403 0.950 . S
H375 C404 0.950 . S
H376 C406 0.950 . S
H377 C407 0.950 . S
C378 H360 0.951 . S
C378 C379 1.366 . S
C378 C380 1.388 . S
C379 C378 1.366 . S
C379 C383 1.385 . S
C380 H361 0.951 . S
C380 C378 1.388 . S
C380 C381 1.366 . S
C381 C380 1.366 . S
C381 C382 1.414 . S
C381 C384 1.499 . S
C382 H362 0.950 . S
C382 C381 1.414 . S
C382 C383 1.374 . S
C383 H363 0.950 . S
C383 C379 1.385 . S
C383 C382 1.374 . S
C384 C381 1.499 . S
C384 C385 1.373 . S
C384 C386 1.389 . S
C385 H364 0.950 . S
C385 C384 1.373 . S
C385 C401 1.377 . S
C386 C384 1.389 . S
C386 C387 1.524 . S
C386 C400 1.377 . S
C387 C386 1.524 . S
C387 C388 1.397 . S
C387 C392 1.363 . S
C388 H365 0.950 . S
C388 C387 1.397 . S
C388 C389 1.334 . S
C389 H366 0.950 . S
C389 C388 1.334 . S
C389 C390 1.287 . S
C390 C389 1.287 . S
C390 C391 1.524 . S
C390 H409 0.913 . S
C391 H367 0.950 . S
C391 C390 1.524 . S
C391 C392 1.415 . S
C392 H368 0.950 . S
C392 C387 1.363 . S
C392 C391 1.415 . S
C393 H369 0.951 . S
C393 C394 1.366 . S
C393 C395 1.388 . S
C394 C393 1.366 . S
C394 C398 1.385 . S
C395 H370 0.951 . S
C395 C393 1.388 . S
C395 C396 1.366 . S
C396 C395 1.366 . S
C396 C397 1.414 . S
C396 C399 1.499 . S
C397 H371 0.950 . S
C397 C396 1.414 . S
C397 C398 1.374 . S
C398 H372 0.950 . S
C398 C394 1.385 . S
C398 C397 1.374 . S
C399 C396 1.499 . S
C399 C400 1.373 . S
C399 C401 1.389 . S
C400 H373 0.950 . S
C400 C386 1.377 . S
C400 C399 1.373 . S
C401 C385 1.377 . S
C401 C399 1.389 . S
C401 C402 1.524 . S
C402 C401 1.524 . S
C402 C403 1.397 . S
C402 C407 1.363 . S
C403 H374 0.950 . S
C403 C402 1.397 . S
C403 C404 1.334 . S
C404 H375 0.950 . S
C404 C403 1.334 . S
C404 C405 1.287 . S
C405 C404 1.287 . S
C405 C406 1.524 . S
C405 H408 0.999 . S
C406 H376 0.950 . S
C406 C405 1.524 . S
C406 C407 1.415 . S
C407 H377 0.950 . S
C407 C402 1.363 . S
C407 C406 1.415 . S
H408 C405 0.999 . S
H409 C390 0.913 . S
H410 C428 0.951 . S
H411 C430 0.951 . S
H412 C432 0.950 . S
H413 C433 0.950 . S
H414 C435 0.950 . S
H415 C438 0.950 . S
H416 C439 0.950 . S
H417 C441 0.950 . S
H418 C442 0.950 . S
H419 C443 0.951 . S
H420 C445 0.951 . S
H421 C447 0.950 . S
H422 C448 0.950 . S
H423 C450 0.950 . S
H424 C453 0.950 . S
H425 C454 0.950 . S
H426 C456 0.950 . S
H427 C457 0.950 . S
C428 H410 0.951 . S
C428 C429 1.366 . S
C428 C430 1.388 . S
C429 C428 1.366 . S
C429 C433 1.385 . S
C430 H411 0.951 . S
C430 C428 1.388 . S
C430 C431 1.366 . S
C431 C430 1.366 . S
C431 C432 1.414 . S
C431 C434 1.499 . S
C432 H412 0.950 . S
C432 C431 1.414 . S
C432 C433 1.374 . S
C433 H413 0.950 . S
C433 C429 1.385 . S
C433 C432 1.374 . S
C434 C431 1.499 . S
C434 C435 1.373 . S
C434 C436 1.389 . S
C435 H414 0.950 . S
C435 C434 1.373 . S
C435 C451 1.377 . S
C436 C434 1.389 . S
C436 C437 1.524 . S
C436 C450 1.377 . S
C437 C436 1.524 . S
C437 C438 1.397 . S
C437 C442 1.363 . S
C438 H415 0.950 . S
C438 C437 1.397 . S
C438 C439 1.334 . S
C439 H416 0.950 . S
C439 C438 1.334 . S
C439 C440 1.287 . S
C440 C439 1.287 . S
C440 C441 1.524 . S
C440 H459 0.913 . S
C441 H417 0.950 . S
C441 C440 1.524 . S
C441 C442 1.415 . S
C442 H418 0.950 . S
C442 C437 1.363 . S
C442 C441 1.415 . S
C443 H419 0.951 . S
C443 C444 1.366 . S
C443 C445 1.388 . S
C444 C443 1.366 . S
C444 C448 1.385 . S
C445 H420 0.951 . S
C445 C443 1.388 . S
C445 C446 1.366 . S
C446 C445 1.366 . S
C446 C447 1.414 . S
C446 C449 1.499 . S
C447 H421 0.950 . S
C447 C446 1.414 . S
C447 C448 1.374 . S
C448 H422 0.950 . S
C448 C444 1.385 . S
C448 C447 1.374 . S
C449 C446 1.499 . S
C449 C450 1.373 . S
C449 C451 1.389 . S
C450 H423 0.950 . S
C450 C436 1.377 . S
C450 C449 1.373 . S
C451 C435 1.377 . S
C451 C449 1.389 . S
C451 C452 1.524 . S
C452 C451 1.524 . S
C452 C453 1.397 . S
C452 C457 1.363 . S
C453 H424 0.950 . S
C453 C452 1.397 . S
C453 C454 1.334 . S
C454 H425 0.950 . S
C454 C453 1.334 . S
C454 C455 1.287 . S
C455 C454 1.287 . S
C455 C456 1.524 . S
C455 H458 0.999 . S
C456 H426 0.950 . S
C456 C455 1.524 . S
C456 C457 1.415 . S
C457 H427 0.950 . S
C457 C452 1.363 . S
C457 C456 1.415 . S
H458 C455 0.999 . S
H459 C440 0.913 . S
H460 C478 0.951 . S
H461 C480 0.951 . S
H462 C482 0.950 . S
H463 C483 0.950 1_455 S
H464 C485 0.950 . S
H465 C488 0.950 . S
H466 C489 0.950 . S
H467 C491 0.950 . S
H468 C492 0.950 . S
H469 C493 0.951 . S
H470 C495 0.951 . S
H471 C497 0.950 . S
H472 C498 0.950 . S
H473 C500 0.950 . S
H474 C503 0.950 . S
H475 C504 0.950 . S
H476 C506 0.950 . S
H477 C507 0.950 . S
C478 H460 0.951 . S
C478 C479 1.366 . S
C478 C480 1.388 . S
C479 C478 1.366 . S
C479 C483 1.385 . S
C480 H461 0.951 . S
C480 C478 1.388 . S
C480 C481 1.366 . S
C481 C480 1.366 . S
C481 C482 1.414 . S
C481 C484 1.499 . S
C482 H462 0.950 . S
C482 C481 1.414 . S
C482 C483 1.374 . S
C483 H463 0.950 1_655 S
C483 C479 1.385 . S
C483 C482 1.374 . S
C484 C481 1.499 . S
C484 C485 1.373 . S
C484 C486 1.389 . S
C485 H464 0.950 . S
C485 C484 1.373 . S
C485 C501 1.377 . S
C486 C484 1.389 . S
C486 C487 1.524 . S
C486 C500 1.377 . S
C487 C486 1.524 . S
C487 C488 1.397 . S
C487 C492 1.363 . S
C488 H465 0.950 . S
C488 C487 1.397 . S
C488 C489 1.334 . S
C489 H466 0.950 . S
C489 C488 1.334 . S
C489 C490 1.287 . S
C490 C489 1.287 . S
C490 C491 1.524 . S
C490 H509 0.913 . S
C491 H467 0.950 . S
C491 C490 1.524 . S
C491 C492 1.415 . S
C492 H468 0.950 . S
C492 C487 1.363 . S
C492 C491 1.415 . S
C493 H469 0.951 . S
C493 C494 1.366 . S
C493 C495 1.388 . S
C494 C493 1.366 . S
C494 C498 1.385 . S
C495 H470 0.951 . S
C495 C493 1.388 . S
C495 C496 1.366 . S
C496 C495 1.366 . S
C496 C497 1.414 . S
C496 C499 1.499 . S
C497 H471 0.950 . S
C497 C496 1.414 . S
C497 C498 1.374 . S
C498 H472 0.950 . S
C498 C494 1.385 . S
C498 C497 1.374 . S
C499 C496 1.499 . S
C499 C500 1.373 . S
C499 C501 1.389 . S
C500 H473 0.950 . S
C500 C486 1.377 . S
C500 C499 1.373 . S
C501 C485 1.377 . S
C501 C499 1.389 . S
C501 C502 1.524 . S
C502 C501 1.524 . S
C502 C503 1.397 . S
C502 C507 1.363 . S
C503 H474 0.950 . S
C503 C502 1.397 . S
C503 C504 1.334 . S
C504 H475 0.950 . S
C504 C503 1.334 . S
C504 C505 1.287 . S
C505 C504 1.287 . S
C505 C506 1.524 . S
C505 H508 0.999 . S
C506 H476 0.950 . S
C506 C505 1.524 . S
C506 C507 1.415 . S
C507 H477 0.950 . S
C507 C502 1.363 . S
C507 C506 1.415 . S
H508 C505 0.999 . S
H509 C490 0.913 . S
H510 C528 0.951 . S
H511 C530 0.951 . S
H512 C532 0.950 . S
H513 C533 0.950 . S
H514 C535 0.950 . S
H515 C538 0.950 . S
H516 C539 0.950 1_545 S
H517 C541 0.950 . S
H518 C542 0.950 . S
H519 C543 0.951 . S
H520 C545 0.951 . S
H521 C547 0.950 . S
H522 C548 0.950 . S
H523 C550 0.950 . S
H524 C553 0.950 . S
H525 C554 0.950 . S
H526 C556 0.950 . S
H527 C557 0.950 . S
C528 H510 0.951 . S
C528 C529 1.366 . S
C528 C530 1.388 . S
C529 C528 1.366 . S
C529 C533 1.385 . S
C530 H511 0.951 . S
C530 C528 1.388 . S
C530 C531 1.366 . S
C531 C530 1.366 . S
C531 C532 1.414 . S
C531 C534 1.499 . S
C532 H512 0.950 . S
C532 C531 1.414 . S
C532 C533 1.374 . S
C533 H513 0.950 . S
C533 C529 1.385 . S
C533 C532 1.374 . S
C534 C531 1.499 . S
C534 C535 1.373 . S
C534 C536 1.389 . S
C535 H514 0.950 . S
C535 C534 1.373 . S
C535 C551 1.377 . S
C536 C534 1.389 . S
C536 C537 1.524 . S
C536 C550 1.377 . S
C537 C536 1.524 . S
C537 C538 1.397 . S
C537 C542 1.363 . S
C538 H515 0.950 . S
C538 C537 1.397 . S
C538 C539 1.334 . S
C539 H516 0.950 1_565 S
C539 C538 1.334 . S
C539 C540 1.287 1_565 S
C540 C539 1.287 1_545 S
C540 C541 1.524 1_545 S
C540 H559 0.913 . S
C541 H517 0.950 . S
C541 C540 1.524 1_565 S
C541 C542 1.415 . S
C542 H518 0.950 . S
C542 C537 1.363 . S
C542 C541 1.415 . S
C543 H519 0.951 . S
C543 C544 1.366 . S
C543 C545 1.388 . S
C544 C543 1.366 . S
C544 C548 1.385 . S
C545 H520 0.951 . S
C545 C543 1.388 . S
C545 C546 1.366 . S
C546 C545 1.366 . S
C546 C547 1.414 . S
C546 C549 1.499 . S
C547 H521 0.950 . S
C547 C546 1.414 . S
C547 C548 1.374 . S
C548 H522 0.950 . S
C548 C544 1.385 . S
C548 C547 1.374 . S
C549 C546 1.499 . S
C549 C550 1.373 . S
C549 C551 1.389 . S
C550 H523 0.950 . S
C550 C536 1.377 . S
C550 C549 1.373 . S
C551 C535 1.377 . S
C551 C549 1.389 . S
C551 C552 1.524 . S
C552 C551 1.524 . S
C552 C553 1.397 . S
C552 C557 1.363 . S
C553 H524 0.950 . S
C553 C552 1.397 . S
C553 C554 1.334 . S
C554 H525 0.950 . S
C554 C553 1.334 . S
C554 C555 1.287 . S
C555 C554 1.287 . S
C555 C556 1.524 . S
C555 H558 0.999 . S
C556 H526 0.950 . S
C556 C555 1.524 . S
C556 C557 1.415 . S
C557 H527 0.950 . S
C557 C552 1.363 . S
C557 C556 1.415 . S
H558 C555 0.999 . S
H559 C540 0.913 . S
H560 C578 0.951 . S
H561 C580 0.951 . S
H562 C582 0.950 . S
H563 C583 0.950 . S
H564 C585 0.950 . S
H565 C588 0.950 . S
H566 C589 0.950 . S
H567 C591 0.950 . S
H568 C592 0.950 . S
H569 C593 0.951 . S
H570 C595 0.951 . S
H571 C597 0.950 . S
H572 C598 0.950 . S
H573 C600 0.950 . S
H574 C603 0.950 . S
H575 C604 0.950 . S
H576 C606 0.950 . S
H577 C607 0.950 . S
C578 H560 0.951 . S
C578 C579 1.366 . S
C578 C580 1.388 . S
C579 C578 1.366 . S
C579 C583 1.385 . S
C580 H561 0.951 . S
C580 C578 1.388 . S
C580 C581 1.366 . S
C581 C580 1.366 . S
C581 C582 1.414 . S
C581 C584 1.499 . S
C582 H562 0.950 . S
C582 C581 1.414 . S
C582 C583 1.374 . S
C583 H563 0.950 . S
C583 C579 1.385 . S
C583 C582 1.374 . S
C584 C581 1.499 . S
C584 C585 1.373 . S
C584 C586 1.389 . S
C585 H564 0.950 . S
C585 C584 1.373 . S
C585 C601 1.377 . S
C586 C584 1.389 . S
C586 C587 1.524 . S
C586 C600 1.377 . S
C587 C586 1.524 . S
C587 C588 1.397 . S
C587 C592 1.363 . S
C588 H565 0.950 . S
C588 C587 1.397 . S
C588 C589 1.334 . S
C589 H566 0.950 . S
C589 C588 1.334 . S
C589 C590 1.287 1_545 S
C590 C589 1.287 1_565 S
C590 C591 1.524 . S
C590 H609 0.913 . S
C591 H567 0.950 . S
C591 C590 1.524 . S
C591 C592 1.415 1_565 S
C592 H568 0.950 . S
C592 C587 1.363 . S
C592 C591 1.415 1_545 S
C593 H569 0.951 . S
C593 C594 1.366 . S
C593 C595 1.388 . S
C594 C593 1.366 . S
C594 C598 1.385 . S
C595 H570 0.951 . S
C595 C593 1.388 . S
C595 C596 1.366 . S
C596 C595 1.366 . S
C596 C597 1.414 . S
C596 C599 1.499 . S
C597 H571 0.950 . S
C597 C596 1.414 . S
C597 C598 1.374 . S
C598 H572 0.950 . S
C598 C594 1.385 . S
C598 C597 1.374 . S
C599 C596 1.499 . S
C599 C600 1.373 . S
C599 C601 1.389 . S
C600 H573 0.950 . S
C600 C586 1.377 . S
C600 C599 1.373 . S
C601 C585 1.377 . S
C601 C599 1.389 . S
C601 C602 1.524 . S
C602 C601 1.524 . S
C602 C603 1.397 . S
C602 C607 1.363 . S
C603 H574 0.950 . S
C603 C602 1.397 . S
C603 C604 1.334 . S
C604 H575 0.950 . S
C604 C603 1.334 . S
C604 C605 1.287 . S
C605 C604 1.287 . S
C605 C606 1.524 . S
C605 H608 0.999 . S
C606 H576 0.950 . S
C606 C605 1.524 . S
C606 C607 1.415 . S
C607 H577 0.950 . S
C607 C602 1.363 . S
C607 C606 1.415 . S
H608 C605 0.999 . S
H609 C590 0.913 . S
H610 C628 0.951 . S
H611 C630 0.951 . S
H612 C632 0.950 . S
H613 C633 0.950 . S
H614 C635 0.950 . S
H615 C638 0.950 . S
H616 C639 0.950 . S
H617 C641 0.950 . S
H618 C642 0.950 . S
H619 C643 0.951 . S
H620 C645 0.951 . S
H621 C647 0.950 . S
H622 C648 0.950 . S
H623 C650 0.950 . S
H624 C653 0.950 . S
H625 C654 0.950 . S
H626 C656 0.950 . S
H627 C657 0.950 . S
C628 H610 0.951 . S
C628 C629 1.366 . S
C628 C630 1.388 . S
C629 C628 1.366 . S
C629 C633 1.385 . S
C630 H611 0.951 . S
C630 C628 1.388 . S
C630 C631 1.366 . S
C631 C630 1.366 . S
C631 C632 1.414 . S
C631 C634 1.499 . S
C632 H612 0.950 . S
C632 C631 1.414 . S
C632 C633 1.374 . S
C633 H613 0.950 . S
C633 C629 1.385 . S
C633 C632 1.374 . S
C634 C631 1.499 . S
C634 C635 1.373 . S
C634 C636 1.389 . S
C635 H614 0.950 . S
C635 C634 1.373 . S
C635 C651 1.377 . S
C636 C634 1.389 . S
C636 C637 1.524 . S
C636 C650 1.377 . S
C637 C636 1.524 . S
C637 C638 1.397 . S
C637 C642 1.363 . S
C638 H615 0.950 . S
C638 C637 1.397 . S
C638 C639 1.334 . S
C639 H616 0.950 . S
C639 C638 1.334 . S
C639 C640 1.287 . S
C640 C639 1.287 . S
C640 C641 1.524 . S
C640 H659 0.913 . S
C641 H617 0.950 . S
C641 C640 1.524 . S
C641 C642 1.415 . S
C642 H618 0.950 . S
C642 C637 1.363 . S
C642 C641 1.415 . S
C643 H619 0.951 . S
C643 C644 1.366 . S
C643 C645 1.388 . S
C644 C643 1.366 . S
C644 C648 1.385 . S
C645 H620 0.951 . S
C645 C643 1.388 . S
C645 C646 1.366 . S
C646 C645 1.366 . S
C646 C647 1.414 . S
C646 C649 1.499 . S
C647 H621 0.950 . S
C647 C646 1.414 . S
C647 C648 1.374 . S
C648 H622 0.950 . S
C648 C644 1.385 . S
C648 C647 1.374 . S
C649 C646 1.499 . S
C649 C650 1.373 . S
C649 C651 1.389 . S
C650 H623 0.950 . S
C650 C636 1.377 . S
C650 C649 1.373 . S
C651 C635 1.377 . S
C651 C649 1.389 . S
C651 C652 1.524 . S
C652 C651 1.524 . S
C652 C653 1.397 . S
C652 C657 1.363 . S
C653 H624 0.950 . S
C653 C652 1.397 . S
C653 C654 1.334 . S
C654 H625 0.950 . S
C654 C653 1.334 . S
C654 C655 1.287 . S
C655 C654 1.287 . S
C655 C656 1.524 . S
C655 H658 0.999 . S
C656 H626 0.950 . S
C656 C655 1.524 . S
C656 C657 1.415 . S
C657 H627 0.950 . S
C657 C652 1.363 . S
C657 C656 1.415 . S
H658 C655 0.999 . S
H659 C640 0.913 . S
H660 C678 0.951 . S
H661 C680 0.951 . S
H662 C682 0.950 . S
H663 C683 0.950 . S
H664 C685 0.950 . S
H665 C688 0.950 . S
H666 C689 0.950 . S
H667 C691 0.950 1_565 S
H668 C692 0.950 . S
H669 C693 0.951 . S
H670 C695 0.951 . S
H671 C697 0.950 . S
H672 C698 0.950 . S
H673 C700 0.950 . S
H674 C703 0.950 . S
H675 C704 0.950 . S
H676 C706 0.950 . S
H677 C707 0.950 . S
C678 H660 0.951 . S
C678 C679 1.366 . S
C678 C680 1.388 . S
C679 C678 1.366 . S
C679 C683 1.385 . S
C680 H661 0.951 . S
C680 C678 1.388 . S
C680 C681 1.366 . S
C681 C680 1.366 . S
C681 C682 1.414 . S
C681 C684 1.499 . S
C682 H662 0.950 . S
C682 C681 1.414 . S
C682 C683 1.374 . S
C683 H663 0.950 . S
C683 C679 1.385 . S
C683 C682 1.374 . S
C684 C681 1.499 . S
C684 C685 1.373 . S
C684 C686 1.389 . S
C685 H664 0.950 . S
C685 C684 1.373 . S
C685 C701 1.377 . S
C686 C684 1.389 . S
C686 C687 1.524 . S
C686 C700 1.377 . S
C687 C686 1.524 . S
C687 C688 1.397 . S
C687 C692 1.363 . S
C688 H665 0.950 . S
C688 C687 1.397 . S
C688 C689 1.334 . S
C689 H666 0.950 . S
C689 C688 1.334 . S
C689 C690 1.287 1_545 S
C690 C689 1.287 1_565 S
C690 C691 1.524 1_565 S
C690 H709 0.913 . S
C691 H667 0.950 1_545 S
C691 C690 1.524 1_545 S
C691 C692 1.415 . S
C692 H668 0.950 . S
C692 C687 1.363 . S
C692 C691 1.415 . S
C693 H669 0.951 . S
C693 C694 1.366 . S
C693 C695 1.388 . S
C694 C693 1.366 . S
C694 C698 1.385 . S
C695 H670 0.951 . S
C695 C693 1.388 . S
C695 C696 1.366 . S
C696 C695 1.366 . S
C696 C697 1.414 . S
C696 C699 1.499 . S
C697 H671 0.950 . S
C697 C696 1.414 . S
C697 C698 1.374 . S
C698 H672 0.950 . S
C698 C694 1.385 . S
C698 C697 1.374 . S
C699 C696 1.499 . S
C699 C700 1.373 . S
C699 C701 1.389 . S
C700 H673 0.950 . S
C700 C686 1.377 . S
C700 C699 1.373 . S
C701 C685 1.377 . S
C701 C699 1.389 . S
C701 C702 1.524 . S
C702 C701 1.524 . S
C702 C703 1.397 . S
C702 C707 1.363 . S
C703 H674 0.950 . S
C703 C702 1.397 . S
C703 C704 1.334 . S
C704 H675 0.950 . S
C704 C703 1.334 . S
C704 C705 1.287 . S
C705 C704 1.287 . S
C705 C706 1.524 . S
C705 H708 0.999 . S
C706 H676 0.950 . S
C706 C705 1.524 . S
C706 C707 1.415 . S
C707 H677 0.950 . S
C707 C702 1.363 . S
C707 C706 1.415 . S
H708 C705 0.999 . S
H709 C690 0.913 . S
H710 C728 0.951 . S
H711 C730 0.951 . S
H712 C732 0.950 . S
H713 C733 0.950 . S
H714 C735 0.950 . S
H715 C738 0.950 . S
H716 C739 0.950 . S
H717 C741 0.950 . S
H718 C742 0.950 . S
H719 C743 0.951 . S
H720 C745 0.951 . S
H721 C747 0.950 . S
H722 C748 0.950 . S
H723 C750 0.950 . S
H724 C753 0.950 . S
H725 C754 0.950 . S
H726 C756 0.950 . S
H727 C757 0.950 . S
C728 H710 0.951 . S
C728 C729 1.366 . S
C728 C730 1.388 . S
C729 C728 1.366 . S
C729 C733 1.385 . S
C730 H711 0.951 . S
C730 C728 1.388 . S
C730 C731 1.366 . S
C731 C730 1.366 . S
C731 C732 1.414 . S
C731 C734 1.499 . S
C732 H712 0.950 . S
C732 C731 1.414 . S
C732 C733 1.374 . S
C733 H713 0.950 . S
C733 C729 1.385 . S
C733 C732 1.374 . S
C734 C731 1.499 . S
C734 C735 1.373 . S
C734 C736 1.389 . S
C735 H714 0.950 . S
C735 C734 1.373 . S
C735 C751 1.377 . S
C736 C734 1.389 . S
C736 C737 1.524 . S
C736 C750 1.377 . S
C737 C736 1.524 . S
C737 C738 1.397 . S
C737 C742 1.363 . S
C738 H715 0.950 . S
C738 C737 1.397 . S
C738 C739 1.334 1_565 S
C739 H716 0.950 . S
C739 C738 1.334 1_545 S
C739 C740 1.287 . S
C740 C739 1.287 . S
C740 C741 1.524 . S
C740 H759 0.913 . S
C741 H717 0.950 . S
C741 C740 1.524 . S
C741 C742 1.415 1_545 S
C742 H718 0.950 . S
C742 C737 1.363 . S
C742 C741 1.415 1_565 S
C743 H719 0.951 . S
C743 C744 1.366 . S
C743 C745 1.388 . S
C744 C743 1.366 . S
C744 C748 1.385 . S
C745 H720 0.951 . S
C745 C743 1.388 . S
C745 C746 1.366 . S
C746 C745 1.366 . S
C746 C747 1.414 . S
C746 C749 1.499 . S
C747 H721 0.950 . S
C747 C746 1.414 . S
C747 C748 1.374 . S
C748 H722 0.950 . S
C748 C744 1.385 . S
C748 C747 1.374 . S
C749 C746 1.499 . S
C749 C750 1.373 . S
C749 C751 1.389 . S
C750 H723 0.950 . S
C750 C736 1.377 . S
C750 C749 1.373 . S
C751 C735 1.377 . S
C751 C749 1.389 . S
C751 C752 1.524 . S
C752 C751 1.524 . S
C752 C753 1.397 . S
C752 C757 1.363 . S
C753 H724 0.950 . S
C753 C752 1.397 . S
C753 C754 1.334 . S
C754 H725 0.950 . S
C754 C753 1.334 . S
C754 C755 1.287 . S
C755 C754 1.287 . S
C755 C756 1.524 . S
C755 H758 0.999 . S
C756 H726 0.950 . S
C756 C755 1.524 . S
C756 C757 1.415 . S
C757 H727 0.950 . S
C757 C752 1.363 . S
C757 C756 1.415 . S
H758 C755 0.999 . S
H759 C740 0.913 . S
H760 C778 0.951 . S
H761 C780 0.951 . S
H762 C782 0.950 . S
H763 C783 0.950 . S
H764 C785 0.950 . S
H765 C788 0.967 . S
H766 C789 0.950 . S
H767 C791 0.950 . S
H768 C792 0.950 . S
H769 C793 0.951 . S
H770 C795 0.951 . S
H771 C797 0.950 . S
H772 C798 0.950 . S
H773 C800 0.950 . S
H774 C803 0.950 . S
H775 C804 0.950 . S
H776 C806 0.950 . S
H777 C807 0.950 . S
C778 H760 0.951 . S
C778 C779 1.366 . S
C778 C780 1.388 . S
C779 C778 1.366 . S
C779 C783 1.385 . S
C780 H761 0.951 . S
C780 C778 1.388 . S
C780 C781 1.366 . S
C781 C780 1.366 . S
C781 C782 1.414 . S
C781 C784 1.499 . S
C782 H762 0.950 . S
C782 C781 1.414 . S
C782 C783 1.374 . S
C783 H763 0.950 . S
C783 C779 1.385 . S
C783 C782 1.374 . S
C784 C781 1.499 . S
C784 C785 1.373 . S
C784 C786 1.389 . S
C785 H764 0.950 . S
C785 C784 1.373 . S
C785 C801 1.377 . S
C786 C784 1.389 . S
C786 C787 1.524 . S
C786 C800 1.377 . S
C787 C786 1.524 . S
C787 C788 1.394 . S
C787 C792 1.363 . S
C788 H765 0.967 . S
C788 C787 1.394 . S
C788 C789 1.319 1_655 S
C789 H766 0.950 . S
C789 C788 1.319 1_455 S
C789 C790 1.287 . S
C790 C789 1.287 . S
C790 C791 1.524 . S
C790 H809 0.913 . S
C791 H767 0.950 . S
C791 C790 1.524 . S
C791 C792 1.415 1_455 S
C792 H768 0.950 . S
C792 C787 1.363 . S
C792 C791 1.415 1_655 S
C793 H769 0.951 . S
C793 C794 1.366 . S
C793 C795 1.388 . S
C794 C793 1.366 . S
C794 C798 1.385 . S
C795 H770 0.951 . S
C795 C793 1.388 . S
C795 C796 1.366 . S
C796 C795 1.366 . S
C796 C797 1.414 . S
C796 C799 1.499 . S
C797 H771 0.950 . S
C797 C796 1.414 . S
C797 C798 1.374 . S
C798 H772 0.950 . S
C798 C794 1.385 . S
C798 C797 1.374 . S
C799 C796 1.499 . S
C799 C800 1.373 . S
C799 C801 1.389 . S
C800 H773 0.950 . S
C800 C786 1.377 . S
C800 C799 1.373 . S
C801 C785 1.377 . S
C801 C799 1.389 . S
C801 C802 1.524 . S
C802 C801 1.524 . S
C802 C803 1.397 . S
C802 C807 1.363 . S
C803 H774 0.950 . S
C803 C802 1.397 . S
C803 C804 1.334 . S
C804 H775 0.950 . S
C804 C803 1.334 . S
C804 C805 1.287 . S
C805 C804 1.287 . S
C805 C806 1.524 . S
C805 H808 0.999 . S
C806 H776 0.950 . S
C806 C805 1.524 . S
C806 C807 1.415 . S
C807 H777 0.950 . S
C807 C802 1.363 . S
C807 C806 1.415 . S
H808 C805 0.999 . S
H809 C790 0.913 . S
C229 C58 1.165 . S
C244 C187 1.247 . S
C279 C151 1.518 . S
C294 C193 1.381 . S
C329 C56 1.588 . S
C344 C184 1.464 . S
C379 C153 1.195 . S
C394 C209 1.251 . S
C429 C74 1.564 . S
C444 C175 1.433 . S
C494 C192 1.514 . S
C479 C147 1.605 . S
C529 C142 1.166 . S
C544 C188 1.247 . S
C594 C205 1.513 . S
C579 C63 1.604 . S
C644 C172 1.433 . S
C629 C158 1.564 . S
C694 C208 1.252 . S
C679 C69 1.194 . S
C744 C171 1.464 . S
C729 C140 1.588 . S
C794 C196 1.381 . S
C779 C67 1.518 . S
