# Generated by pormake.
# Topology ibd, (4,6)-cn, num edge types: 1
# Building blocks:
#     Node 0, Type 0, BuildingBlock: NAHDIM_clean_sbu_0, # of connection points: 4
#     Node 1, Type 0, BuildingBlock: NAHDIM_clean_sbu_0, # of connection points: 4
#     Node 2, Type 0, BuildingBlock: NAHDIM_clean_sbu_0, # of connection points: 4
#     Node 3, Type 0, BuildingBlock: NAHDIM_clean_sbu_0, # of connection points: 4
#     Node 4, Type 0, BuildingBlock: NAHDIM_clean_sbu_0, # of connection points: 4
#     Node 5, Type 0, BuildingBlock: NAHDIM_clean_sbu_0, # of connection points: 4
#     Node 6, Type 0, BuildingBlock: NAHDIM_clean_sbu_0, # of connection points: 4
#     Node 7, Type 0, BuildingBlock: NAHDIM_clean_sbu_0, # of connection points: 4
#     Node 8, Type 0, BuildingBlock: NAHDIM_clean_sbu_0, # of connection points: 4
#     Node 9, Type 0, BuildingBlock: NAHDIM_clean_sbu_0, # of connection points: 4
#     Node 10, Type 0, BuildingBlock: NAHDIM_clean_sbu_0, # of connection points: 4
#     Node 11, Type 0, BuildingBlock: NAHDIM_clean_sbu_0, # of connection points: 4
#     Node 12, Type 0, BuildingBlock: NAHDIM_clean_sbu_0, # of connection points: 4
#     Node 13, Type 0, BuildingBlock: NAHDIM_clean_sbu_0, # of connection points: 4
#     Node 14, Type 0, BuildingBlock: NAHDIM_clean_sbu_0, # of connection points: 4
#     Node 15, Type 0, BuildingBlock: NAHDIM_clean_sbu_0, # of connection points: 4
#     Node 16, Type 0, BuildingBlock: NAHDIM_clean_sbu_0, # of connection points: 4
#     Node 17, Type 0, BuildingBlock: NAHDIM_clean_sbu_0, # of connection points: 4
#     Node 18, Type 0, BuildingBlock: NAHDIM_clean_sbu_0, # of connection points: 4
#     Node 19, Type 0, BuildingBlock: NAHDIM_clean_sbu_0, # of connection points: 4
#     Node 20, Type 0, BuildingBlock: NAHDIM_clean_sbu_0, # of connection points: 4
#     Node 21, Type 0, BuildingBlock: NAHDIM_clean_sbu_0, # of connection points: 4
#     Node 22, Type 0, BuildingBlock: NAHDIM_clean_sbu_0, # of connection points: 4
#     Node 23, Type 0, BuildingBlock: NAHDIM_clean_sbu_0, # of connection points: 4
#     Node 24, Type 1, BuildingBlock: CIFDUS_clean_sbu_1, # of connection points: 6
#     Node 25, Type 1, BuildingBlock: CIFDUS_clean_sbu_1, # of connection points: 6
#     Node 26, Type 1, BuildingBlock: CIFDUS_clean_sbu_1, # of connection points: 6
#     Node 27, Type 1, BuildingBlock: CIFDUS_clean_sbu_1, # of connection points: 6
#     Node 28, Type 1, BuildingBlock: CIFDUS_clean_sbu_1, # of connection points: 6
#     Node 29, Type 1, BuildingBlock: CIFDUS_clean_sbu_1, # of connection points: 6
#     Node 30, Type 1, BuildingBlock: CIFDUS_clean_sbu_1, # of connection points: 6
#     Node 31, Type 1, BuildingBlock: CIFDUS_clean_sbu_1, # of connection points: 6
#     Node 32, Type 1, BuildingBlock: CIFDUS_clean_sbu_1, # of connection points: 6
#     Node 33, Type 1, BuildingBlock: CIFDUS_clean_sbu_1, # of connection points: 6
#     Node 34, Type 1, BuildingBlock: CIFDUS_clean_sbu_1, # of connection points: 6
#     Node 35, Type 1, BuildingBlock: CIFDUS_clean_sbu_1, # of connection points: 6
#     Node 36, Type 1, BuildingBlock: CIFDUS_clean_sbu_1, # of connection points: 6
#     Node 37, Type 1, BuildingBlock: CIFDUS_clean_sbu_1, # of connection points: 6
#     Node 38, Type 1, BuildingBlock: CIFDUS_clean_sbu_1, # of connection points: 6
#     Node 39, Type 1, BuildingBlock: CIFDUS_clean_sbu_1, # of connection points: 6
#     Edge 40, Type (0, 1), BuildingBlock: XIVTED_clean_linker_0, # of connection points: 2
#     Edge 41, Type (0, 1), BuildingBlock: XIVTED_clean_linker_0, # of connection points: 2
#     Edge 42, Type (0, 1), BuildingBlock: XIVTED_clean_linker_0, # of connection points: 2
#     Edge 43, Type (0, 1), BuildingBlock: XIVTED_clean_linker_0, # of connection points: 2
#     Edge 44, Type (0, 1), BuildingBlock: XIVTED_clean_linker_0, # of connection points: 2
#     Edge 45, Type (0, 1), BuildingBlock: XIVTED_clean_linker_0, # of connection points: 2
#     Edge 46, Type (0, 1), BuildingBlock: XIVTED_clean_linker_0, # of connection points: 2
#     Edge 47, Type (0, 1), BuildingBlock: XIVTED_clean_linker_0, # of connection points: 2
#     Edge 48, Type (0, 1), BuildingBlock: XIVTED_clean_linker_0, # of connection points: 2
#     Edge 49, Type (0, 1), BuildingBlock: XIVTED_clean_linker_0, # of connection points: 2
#     Edge 50, Type (0, 1), BuildingBlock: XIVTED_clean_linker_0, # of connection points: 2
#     Edge 51, Type (0, 1), BuildingBlock: XIVTED_clean_linker_0, # of connection points: 2
#     Edge 52, Type (0, 1), BuildingBlock: XIVTED_clean_linker_0, # of connection points: 2
#     Edge 53, Type (0, 1), BuildingBlock: XIVTED_clean_linker_0, # of connection points: 2
#     Edge 54, Type (0, 1), BuildingBlock: XIVTED_clean_linker_0, # of connection points: 2
#     Edge 55, Type (0, 1), BuildingBlock: XIVTED_clean_linker_0, # of connection points: 2
#     Edge 56, Type (0, 1), BuildingBlock: XIVTED_clean_linker_0, # of connection points: 2
#     Edge 57, Type (0, 1), BuildingBlock: XIVTED_clean_linker_0, # of connection points: 2
#     Edge 58, Type (0, 1), BuildingBlock: XIVTED_clean_linker_0, # of connection points: 2
#     Edge 59, Type (0, 1), BuildingBlock: XIVTED_clean_linker_0, # of connection points: 2
#     Edge 60, Type (0, 1), BuildingBlock: XIVTED_clean_linker_0, # of connection points: 2
#     Edge 61, Type (0, 1), BuildingBlock: XIVTED_clean_linker_0, # of connection points: 2
#     Edge 62, Type (0, 1), BuildingBlock: XIVTED_clean_linker_0, # of connection points: 2
#     Edge 63, Type (0, 1), BuildingBlock: XIVTED_clean_linker_0, # of connection points: 2
#     Edge 64, Type (0, 1), BuildingBlock: XIVTED_clean_linker_0, # of connection points: 2
#     Edge 65, Type (0, 1), BuildingBlock: XIVTED_clean_linker_0, # of connection points: 2
#     Edge 66, Type (0, 1), BuildingBlock: XIVTED_clean_linker_0, # of connection points: 2
#     Edge 67, Type (0, 1), BuildingBlock: XIVTED_clean_linker_0, # of connection points: 2
#     Edge 68, Type (0, 1), BuildingBlock: XIVTED_clean_linker_0, # of connection points: 2
#     Edge 69, Type (0, 1), BuildingBlock: XIVTED_clean_linker_0, # of connection points: 2
#     Edge 70, Type (0, 1), BuildingBlock: XIVTED_clean_linker_0, # of connection points: 2
#     Edge 71, Type (0, 1), BuildingBlock: XIVTED_clean_linker_0, # of connection points: 2
#     Edge 72, Type (0, 1), BuildingBlock: XIVTED_clean_linker_0, # of connection points: 2
#     Edge 73, Type (0, 1), BuildingBlock: XIVTED_clean_linker_0, # of connection points: 2
#     Edge 74, Type (0, 1), BuildingBlock: XIVTED_clean_linker_0, # of connection points: 2
#     Edge 75, Type (0, 1), BuildingBlock: XIVTED_clean_linker_0, # of connection points: 2
#     Edge 76, Type (0, 1), BuildingBlock: XIVTED_clean_linker_0, # of connection points: 2
#     Edge 77, Type (0, 1), BuildingBlock: XIVTED_clean_linker_0, # of connection points: 2
#     Edge 78, Type (0, 1), BuildingBlock: XIVTED_clean_linker_0, # of connection points: 2
#     Edge 79, Type (0, 1), BuildingBlock: XIVTED_clean_linker_0, # of connection points: 2
#     Edge 80, Type (0, 1), BuildingBlock: XIVTED_clean_linker_0, # of connection points: 2
#     Edge 81, Type (0, 1), BuildingBlock: XIVTED_clean_linker_0, # of connection points: 2
#     Edge 82, Type (0, 1), BuildingBlock: XIVTED_clean_linker_0, # of connection points: 2
#     Edge 83, Type (0, 1), BuildingBlock: XIVTED_clean_linker_0, # of connection points: 2
#     Edge 84, Type (0, 1), BuildingBlock: XIVTED_clean_linker_0, # of connection points: 2
#     Edge 85, Type (0, 1), BuildingBlock: XIVTED_clean_linker_0, # of connection points: 2
#     Edge 86, Type (0, 1), BuildingBlock: XIVTED_clean_linker_0, # of connection points: 2
#     Edge 87, Type (0, 1), BuildingBlock: XIVTED_clean_linker_0, # of connection points: 2
#     Edge 88, Type (0, 1), BuildingBlock: XIVTED_clean_linker_0, # of connection points: 2
#     Edge 89, Type (0, 1), BuildingBlock: XIVTED_clean_linker_0, # of connection points: 2
#     Edge 90, Type (0, 1), BuildingBlock: XIVTED_clean_linker_0, # of connection points: 2
#     Edge 91, Type (0, 1), BuildingBlock: XIVTED_clean_linker_0, # of connection points: 2
#     Edge 92, Type (0, 1), BuildingBlock: XIVTED_clean_linker_0, # of connection points: 2
#     Edge 93, Type (0, 1), BuildingBlock: XIVTED_clean_linker_0, # of connection points: 2
#     Edge 94, Type (0, 1), BuildingBlock: XIVTED_clean_linker_0, # of connection points: 2
#     Edge 95, Type (0, 1), BuildingBlock: XIVTED_clean_linker_0, # of connection points: 2
#     Edge 96, Type (0, 1), BuildingBlock: XIVTED_clean_linker_0, # of connection points: 2
#     Edge 97, Type (0, 1), BuildingBlock: XIVTED_clean_linker_0, # of connection points: 2
#     Edge 98, Type (0, 1), BuildingBlock: XIVTED_clean_linker_0, # of connection points: 2
#     Edge 99, Type (0, 1), BuildingBlock: XIVTED_clean_linker_0, # of connection points: 2
#     Edge 100, Type (0, 1), BuildingBlock: XIVTED_clean_linker_0, # of connection points: 2
#     Edge 101, Type (0, 1), BuildingBlock: XIVTED_clean_linker_0, # of connection points: 2
#     Edge 102, Type (0, 1), BuildingBlock: XIVTED_clean_linker_0, # of connection points: 2
#     Edge 103, Type (0, 1), BuildingBlock: XIVTED_clean_linker_0, # of connection points: 2
#     Edge 104, Type (0, 1), BuildingBlock: XIVTED_clean_linker_0, # of connection points: 2
#     Edge 105, Type (0, 1), BuildingBlock: XIVTED_clean_linker_0, # of connection points: 2
#     Edge 106, Type (0, 1), BuildingBlock: XIVTED_clean_linker_0, # of connection points: 2
#     Edge 107, Type (0, 1), BuildingBlock: XIVTED_clean_linker_0, # of connection points: 2
#     Edge 108, Type (0, 1), BuildingBlock: XIVTED_clean_linker_0, # of connection points: 2
#     Edge 109, Type (0, 1), BuildingBlock: XIVTED_clean_linker_0, # of connection points: 2
#     Edge 110, Type (0, 1), BuildingBlock: XIVTED_clean_linker_0, # of connection points: 2
#     Edge 111, Type (0, 1), BuildingBlock: XIVTED_clean_linker_0, # of connection points: 2
#     Edge 112, Type (0, 1), BuildingBlock: XIVTED_clean_linker_0, # of connection points: 2
#     Edge 113, Type (0, 1), BuildingBlock: XIVTED_clean_linker_0, # of connection points: 2
#     Edge 114, Type (0, 1), BuildingBlock: XIVTED_clean_linker_0, # of connection points: 2
#     Edge 115, Type (0, 1), BuildingBlock: XIVTED_clean_linker_0, # of connection points: 2
#     Edge 116, Type (0, 1), BuildingBlock: XIVTED_clean_linker_0, # of connection points: 2
#     Edge 117, Type (0, 1), BuildingBlock: XIVTED_clean_linker_0, # of connection points: 2
#     Edge 118, Type (0, 1), BuildingBlock: XIVTED_clean_linker_0, # of connection points: 2
#     Edge 119, Type (0, 1), BuildingBlock: XIVTED_clean_linker_0, # of connection points: 2
#     Edge 120, Type (0, 1), BuildingBlock: XIVTED_clean_linker_0, # of connection points: 2
#     Edge 121, Type (0, 1), BuildingBlock: XIVTED_clean_linker_0, # of connection points: 2
#     Edge 122, Type (0, 1), BuildingBlock: XIVTED_clean_linker_0, # of connection points: 2
#     Edge 123, Type (0, 1), BuildingBlock: XIVTED_clean_linker_0, # of connection points: 2
#     Edge 124, Type (0, 1), BuildingBlock: XIVTED_clean_linker_0, # of connection points: 2
#     Edge 125, Type (0, 1), BuildingBlock: XIVTED_clean_linker_0, # of connection points: 2
#     Edge 126, Type (0, 1), BuildingBlock: XIVTED_clean_linker_0, # of connection points: 2
#     Edge 127, Type (0, 1), BuildingBlock: XIVTED_clean_linker_0, # of connection points: 2
#     Edge 128, Type (0, 1), BuildingBlock: XIVTED_clean_linker_0, # of connection points: 2
#     Edge 129, Type (0, 1), BuildingBlock: XIVTED_clean_linker_0, # of connection points: 2
#     Edge 130, Type (0, 1), BuildingBlock: XIVTED_clean_linker_0, # of connection points: 2
#     Edge 131, Type (0, 1), BuildingBlock: XIVTED_clean_linker_0, # of connection points: 2
#     Edge 132, Type (0, 1), BuildingBlock: XIVTED_clean_linker_0, # of connection points: 2
#     Edge 133, Type (0, 1), BuildingBlock: XIVTED_clean_linker_0, # of connection points: 2
#     Edge 134, Type (0, 1), BuildingBlock: XIVTED_clean_linker_0, # of connection points: 2
#     Edge 135, Type (0, 1), BuildingBlock: XIVTED_clean_linker_0, # of connection points: 2
# Relax obj value: 0.362
# Max RMSD: 0.322
# Mean RMSD: 0.285
data_MOF--net-ibd--node1-NAHDIM_clean_sbu_0--node2-CIFDUS_clean_sbu_1--edge1-XIVTED_clean_linker_0
_symmetry_space_group_name_H-M    P1
_symmetry_Int_Tables_number       1
_symmetry_cell_setting            triclinic
loop_
_symmetry_equiv_pos_as_xyz
'x, y, z'
_cell_length_a     46.779099
_cell_length_b     47.981622
_cell_length_c     48.725593
_cell_angle_alpha  91.447128
_cell_angle_beta   89.884243
_cell_angle_gamma 94.945537
loop_
_atom_site_label
_atom_site_type_symbol
_atom_site_fract_x
_atom_site_fract_y
_atom_site_fract_z
_atom_type_partial_charge
C0 C 0.04112 0.26577 0.34862 0.0
O1 O 0.06019 0.27902 0.3651 0.0
O2 O 0.03798 0.31713 0.39869 0.0
Zn3 Zn 0.00517 0.30305 0.37465 0.0
O4 O -0.00169 0.33113 0.34631 0.0
C5 C 0.97041 0.30867 0.42205 0.0
O6 O 0.98576 0.33291 0.42375 0.0
O7 O 0.01486 0.26977 0.35183 0.0
C8 C 0.99305 0.35664 0.34648 0.0
O9 O 0.98871 0.37 0.36977 0.0
C10 C 0.05422 0.33938 0.39553 0.0
O11 O 0.05158 0.3543 0.3736 0.0
O12 O 0.97252 0.2933 0.40056 0.0
C13 C 0.00522 0.77593 0.69923 0.0
O14 O 0.97861 0.77645 0.69084 0.0
O15 O 0.98312 0.78877 0.63354 0.0
Zn16 Zn 0.01171 0.81208 0.6566 0.0
O17 O 0.99458 0.84161 0.67901 0.0
C18 C 0.0328 0.84327 0.61382 0.0
O19 O 0.00997 0.85582 0.62099 0.0
O20 O 0.02549 0.78813 0.6854 0.0
C21 C 0.01074 0.85128 0.69861 0.0
O22 O 0.03852 0.84939 0.69649 0.0
C23 C 0.96357 0.79771 0.61895 0.0
O24 O 0.95806 0.82404 0.62132 0.0
O25 O 0.04196 0.82572 0.62996 0.0
C26 C 0.52499 0.77803 0.85349 0.0
O27 O 0.53065 0.77483 0.87957 0.0
O28 O 0.52979 0.84919 0.89074 0.0
Zn29 Zn 0.4976 0.82902 0.86992 0.0
O30 O 0.48175 0.85384 0.8427 0.0
C31 C 0.46841 0.8258 0.92206 0.0
O32 O 0.47823 0.85226 0.92406 0.0
O33 O 0.51153 0.79845 0.84626 0.0
C34 C 0.49964 0.87074 0.83043 0.0
O35 O 0.52528 0.8768 0.84098 0.0
C36 C 0.55566 0.84337 0.89259 0.0
O37 O 0.56568 0.82511 0.87539 0.0
O38 O 0.47105 0.81253 0.89931 0.0
C39 C 0.50107 0.22309 0.16936 0.0
O40 O 0.47527 0.22589 0.15984 0.0
O41 O 0.49617 0.28429 0.12188 0.0
Zn42 Zn 0.52486 0.27533 0.15019 0.0
O43 O 0.51891 0.29454 0.18687 0.0
C44 C 0.56851 0.31379 0.13078 0.0
O45 O 0.55692 0.33038 0.14863 0.0
O46 O 0.5226 0.23407 0.15638 0.0
C47 C 0.50832 0.31787 0.1903 0.0
O48 O 0.50082 0.33153 0.16881 0.0
C49 C 0.46919 0.28563 0.12258 0.0
O50 O 0.45498 0.28035 0.1454 0.0
O51 O 0.56248 0.2876 0.1324 0.0
C52 C 0.02787 0.7761 0.08242 0.0
O53 O 0.03388 0.80035 0.09511 0.0
O54 O 0.00351 0.79518 0.14953 0.0
Zn55 Zn 0.98189 0.77071 0.12114 0.0
O56 O 0.95311 0.79179 0.10173 0.0
C57 C 0.94787 0.74918 0.16153 0.0
O58 O 0.93694 0.77268 0.1558 0.0
O59 O 0.00803 0.75894 0.09144 0.0
C60 C 0.94421 0.78318 0.07808 0.0
O61 O 0.95004 0.75825 0.06911 0.0
C62 C 0.99434 0.81677 0.16102 0.0
O63 O 0.97151 0.82718 0.1512 0.0
O64 O 0.96503 0.73936 0.14434 0.0
C65 C 0.58295 0.75366 0.43973 0.0
O66 O 0.55509 0.74897 0.4363 0.0
O67 O 0.54787 0.76185 0.3711 0.0
Zn68 Zn 0.56976 0.78764 0.39874 0.0
O69 O 0.54317 0.80472 0.42558 0.0
C70 C 0.57565 0.83675 0.36609 0.0
O71 O 0.55572 0.84623 0.38193 0.0
O72 O 0.59716 0.76881 0.4226 0.0
C73 C 0.55502 0.82077 0.44416 0.0
O74 O 0.5829 0.8271 0.44333 0.0
C75 C 0.52773 0.77361 0.35979 0.0
O76 O 0.51984 0.79696 0.37087 0.0
O77 O 0.58901 0.81638 0.37403 0.0
C78 C 0.5307 0.27496 0.58448 0.0
O79 O 0.53884 0.30131 0.59039 0.0
O80 O 0.51888 0.30496 0.65484 0.0
Zn81 Zn 0.4921 0.28415 0.62784 0.0
O82 O 0.47223 0.3106 0.60482 0.0
C83 C 0.44704 0.27375 0.66558 0.0
O84 O 0.44185 0.29868 0.65737 0.0
O85 O 0.51242 0.26173 0.59983 0.0
C86 C 0.45459 0.30157 0.58616 0.0
O87 O 0.44579 0.27482 0.58476 0.0
C88 C 0.51174 0.3275 0.66618 0.0
O89 O 0.49049 0.33998 0.65575 0.0
O90 O 0.46586 0.26081 0.65287 0.0
C91 C 0.10438 0.26126 0.91645 0.0
O92 O 0.08702 0.24717 0.89895 0.0
O93 O 0.05732 0.28354 0.86377 0.0
Zn94 Zn 0.07619 0.30533 0.8962 0.0
O95 O 0.05048 0.31062 0.92868 0.0
C96 C 0.06416 0.35407 0.87272 0.0
O97 O 0.04025 0.34686 0.88583 0.0
O98 O 0.10914 0.28745 0.91345 0.0
C99 C 0.02359 0.30695 0.93253 0.0
O100 O 0.0065 0.29858 0.91204 0.0
C101 C 0.03809 0.26324 0.86153 0.0
O102 O 0.02757 0.25115 0.88369 0.0
O103 O 0.08661 0.3425 0.87914 0.0
C104 C 0.41179 0.94667 0.21724 0.0
O105 O 0.40251 0.94086 0.24208 0.0
O106 O 0.34202 0.95711 0.24472 0.0
Zn107 Zn 0.36886 0.9818 0.22247 0.0
O108 O 0.39372 0.00708 0.24722 0.0
C109 C 0.32783 0.01812 0.2156 0.0
O110 O 0.33337 0.0194 0.24202 0.0
O111 O 0.39697 0.96092 0.2019 0.0
C112 C 0.41387 0.02326 0.23741 0.0
O113 O 0.41576 0.02601 0.2107 0.0
C114 C 0.33786 0.96465 0.26945 0.0
O115 O 0.35923 0.97774 0.28334 0.0
O116 O 0.34318 0.00393 0.19992 0.0
C117 C 0.28178 0.13334 0.56092 0.0
O118 O 0.29653 0.13851 0.53843 0.0
O119 O 0.27672 0.19732 0.51718 0.0
Zn120 Zn 0.24885 0.16656 0.53173 0.0
O121 O 0.23972 0.13346 0.50635 0.0
C122 C 0.20623 0.20058 0.51704 0.0
O123 O 0.22084 0.19902 0.49407 0.0
O124 O 0.26089 0.14782 0.56623 0.0
C125 C 0.25478 0.121 0.48897 0.0
O126 O 0.27989 0.13261 0.48132 0.0
C127 C 0.30248 0.20327 0.50959 0.0
O128 O 0.32103 0.18425 0.51008 0.0
O129 O 0.21291 0.1861 0.53724 0.0
C130 C 0.1578 0.01356 0.69425 0.0
O131 O 0.13823 -0.0008 0.70871 0.0
O132 O 0.1043 0.03807 0.74102 0.0
Zn133 Zn 0.14093 0.05853 0.72751 0.0
O134 O 0.17249 0.06072 0.7554 0.0
C135 C 0.11515 0.10781 0.73783 0.0
O136 O 0.12091 0.10243 0.76343 0.0
O137 O 0.15823 0.04003 0.69479 0.0
C138 C 0.19708 0.06866 0.7458 0.0
O139 O 0.19901 0.07746 0.7205 0.0
C140 C 0.10029 0.01742 0.75677 0.0
O141 O 0.1224 0.0053 0.76592 0.0
O142 O 0.12888 0.09612 0.71884 0.0
C143 C 0.30705 0.86782 0.02524 0.0
O144 O 0.29383 0.8717 0.00206 0.0
O145 O 0.28087 0.93998 0.0219 0.0
Zn146 Zn 0.26773 0.90493 0.04158 0.0
O147 O 0.23875 0.87795 0.02207 0.0
C148 C 0.22486 0.91734 0.08072 0.0
O149 O 0.20935 0.89714 0.0676 0.0
O150 O 0.3011 0.88217 0.04651 0.0
C151 C 0.21704 0.88005 0.00695 0.0
O152 O 0.20906 0.90481 0.00117 0.0
C153 C 0.27559 0.94995 -0.00126 0.0
O154 O 0.25923 0.93508 0.98096 0.0
O155 O 0.25179 0.91982 0.07684 0.0
C156 C 0.25843 0.45271 0.95756 0.0
O157 O 0.28571 0.45721 0.96407 0.0
O158 O 0.28548 0.39152 0.9957 0.0
Zn159 Zn 0.25965 0.42137 0.00493 0.0
O160 O 0.27906 0.4554 0.02373 0.0
C161 C 0.24083 0.39058 0.04853 0.0
O162 O 0.26663 0.40074 0.05626 0.0
O163 O 0.24258 0.43513 0.97109 0.0
C164 C 0.26381 0.47403 0.03341 0.0
O165 O 0.2358 0.46883 0.03447 0.0
C166 C 0.30936 0.38649 0.00598 0.0
O167 O 0.32295 0.4045 0.02317 0.0
O168 O 0.22969 0.40101 0.02785 0.0
C169 C 0.67303 0.18447 0.97221 0.0
O170 O 0.68737 0.16917 0.95528 0.0
O171 O 0.72727 0.13747 0.98457 0.0
Zn172 Zn 0.70956 0.16419 0.01089 0.0
O173 O 0.73558 0.19886 0.01923 0.0
C174 C 0.7253 0.12992 0.0524 0.0
O175 O 0.75046 0.1433 0.04782 0.0
O176 O 0.67337 0.17914 -0.00246 0.0
C177 C 0.76205 0.20317 0.01353 0.0
O178 O 0.77586 0.18271 0.00306 0.0
C179 C 0.74229 0.13908 0.96283 0.0
O180 O 0.74832 0.16343 0.95147 0.0
O181 O 0.70295 0.1399 0.04326 0.0
C182 C 0.10083 0.58757 0.32011 0.0
O183 O 0.10108 0.56066 0.32427 0.0
O184 O 0.17371 0.55459 0.31982 0.0
Zn185 Zn 0.14839 0.57256 0.29327 0.0
O186 O 0.12087 0.54618 0.27109 0.0
C187 C 0.19177 0.57312 0.25432 0.0
O188 O 0.18285 0.54639 0.25411 0.0
O189 O 0.12289 0.60051 0.30968 0.0
C190 C 0.11065 0.52126 0.27536 0.0
O191 O 0.12074 0.50737 0.29556 0.0
C192 C 0.17463 0.5422 0.34248 0.0
O193 O 0.15107 0.53665 0.35676 0.0
O194 O 0.17782 0.5903 0.26809 0.0
C195 C 0.74473 0.94936 0.46306 0.0
O196 O 0.77289 0.95057 0.46261 0.0
O197 O 0.77893 0.89025 0.49921 0.0
Zn198 Zn 0.75277 0.91928 0.51133 0.0
O199 O 0.77275 0.95372 0.52912 0.0
C200 C 0.73805 0.88911 0.55738 0.0
O201 O 0.76362 0.9007 0.56413 0.0
O202 O 0.73116 0.93384 0.48037 0.0
C203 C 0.75782 0.97043 0.54241 0.0
O204 O 0.73066 0.96295 0.54735 0.0
C205 C 0.80221 0.88536 0.5109 0.0
O206 O 0.81376 0.90304 0.52958 0.0
O207 O 0.72578 0.89791 0.5365 0.0
C208 C 0.83617 0.05888 0.34308 0.0
O209 O 0.83731 0.03379 0.35296 0.0
O210 O 0.89469 0.0146 0.33637 0.0
Zn211 Zn 0.88154 0.0419 0.31007 0.0
O212 O 0.85677 0.02126 0.28212 0.0
C213 C 0.93133 0.04372 0.27815 0.0
O214 O 0.92019 0.01796 0.27356 0.0
O215 O 0.85587 0.0685 0.32703 0.0
C216 C 0.84287 0.03401 0.26477 0.0
O217 O 0.848 0.06122 0.26267 0.0
C218 C 0.89788 0.99008 0.32704 0.0
O219 O 0.87914 0.97842 0.30927 0.0
O220 O 0.91737 0.06021 0.29276 0.0
C221 C 0.18896 0.69643 0.47139 0.0
O222 O 0.20937 0.6864 0.45661 0.0
O223 O 0.23007 0.63765 0.47956 0.0
Zn224 Zn 0.21687 0.66591 0.50694 0.0
O225 O 0.24551 0.69874 0.51425 0.0
C226 C 0.23121 0.63272 0.55027 0.0
O227 O 0.25666 0.64555 0.54582 0.0
O228 O 0.18294 0.68549 0.49437 0.0
C229 C 0.27246 0.7047 0.51392 0.0
O230 O 0.28984 0.68507 0.50901 0.0
C231 C 0.24994 0.63958 0.46177 0.0
O232 O 0.26389 0.664 0.45735 0.0
O233 O 0.20931 0.64222 0.53966 0.0
C234 C 0.32774 0.53752 0.83856 0.0
O235 O 0.33074 0.51135 0.84434 0.0
O236 O 0.39085 0.50039 0.8306 0.0
Zn237 Zn 0.37894 0.53173 0.80821 0.0
O238 O 0.3616 0.51663 0.77334 0.0
C239 C 0.43276 0.54141 0.78612 0.0
O240 O 0.42385 0.51602 0.77743 0.0
O241 O 0.34767 0.55164 0.82591 0.0
C242 C 0.34741 0.53212 0.75877 0.0
O243 O 0.34745 0.55886 0.76528 0.0
C244 C 0.39625 0.4773 0.81918 0.0
O245 O 0.38241 0.46873 0.79668 0.0
O246 O 0.41557 0.55543 0.79994 0.0
C247 C 0.58431 0.07317 0.81329 0.0
O248 O 0.58042 0.04572 0.81297 0.0
O249 O 0.65755 0.0401 0.83177 0.0
Zn250 Zn 0.63903 0.05819 0.80024 0.0
O251 O 0.61775 0.03073 0.77391 0.0
C252 C 0.69039 0.06324 0.76894 0.0
O253 O 0.68428 0.03607 0.76629 0.0
O254 O 0.60967 0.08478 0.81098 0.0
C255 C 0.61183 0.04023 0.75072 0.0
O256 O 0.62322 0.06515 0.7441 0.0
C257 C 0.66314 0.01502 0.82706 0.0
O258 O 0.64846 0.0004 0.80787 0.0
O259 O 0.67282 0.07797 0.78138 0.0
C260 C 0.79045 0.61987 0.04589 0.0
O261 O 0.80119 0.62542 0.02151 0.0
O262 O 0.80144 0.69657 0.02716 0.0
Zn263 Zn 0.76792 0.66755 0.03092 0.0
O264 O 0.75781 0.64846 0.99445 0.0
C265 C 0.72939 0.70808 0.02372 0.0
O266 O 0.73443 0.70205 -0.00217 0.0
O267 O 0.77522 0.63741 0.05751 0.0
C268 C 0.75146 0.63652 0.97146 0.0
O269 O 0.75183 0.6517 0.94938 0.0
C270 C 0.81141 0.70145 0.00337 0.0
O271 O 0.806 0.68245 0.98378 0.0
O272 O 0.73751 0.69214 0.04216 0.0
C273 C 0.90643 0.43392 0.72599 0.0
O274 O 0.90052 0.43895 0.75193 0.0
O275 O 0.84211 0.46955 0.74763 0.0
Zn276 Zn 0.8756 0.48024 0.72335 0.0
O277 O 0.90638 0.50218 0.74565 0.0
C278 C 0.84962 0.52574 0.70733 0.0
O279 O 0.86218 0.53417 0.73051 0.0
O280 O 0.89407 0.4472 0.70782 0.0
C281 C 0.92882 0.51552 0.73632 0.0
O282 O 0.93258 0.51708 0.70966 0.0
C283 C 0.83724 0.4845 0.76879 0.0
O284 O 0.85764 0.50251 0.77858 0.0
O285 O 0.8569 0.50344 0.6957 0.0
C286 C 0.81504 0.37546 0.52278 0.0
O287 O 0.81287 0.37583 0.49592 0.0
O288 O 0.78628 0.44924 0.50204 0.0
Zn289 Zn 0.77266 0.41411 0.52084 0.0
O290 O 0.75054 0.38607 0.49639 0.0
C291 C 0.72111 0.4303 0.54475 0.0
O292 O 0.71017 0.41798 0.5223 0.0
O293 O 0.8035 0.39385 0.53728 0.0
C294 C 0.74144 0.36322 0.50736 0.0
O295 O 0.74573 0.36008 0.5337 0.0
C296 C 0.76823 0.46071 0.48754 0.0
O297 O 0.74392 0.44654 0.4807 0.0
O298 O 0.74731 0.42811 0.55034 0.0
C299 C 0.65536 0.51439 0.18203 0.0
O300 O 0.63483 0.50125 0.19635 0.0
O301 O 0.59942 0.54853 0.22538 0.0
Zn302 Zn 0.63971 0.56287 0.21264 0.0
O303 O 0.66708 0.55857 0.24312 0.0
C304 C 0.63121 0.62492 0.20706 0.0
O305 O 0.64356 0.65032 0.20418 0.0
O306 O 0.65733 0.54096 0.18211 0.0
C307 C 0.66406 0.57071 0.2662 0.0
O308 O 0.64088 0.58376 0.2708 0.0
C309 C 0.59732 0.52853 0.24213 0.0
O310 O 0.62077 0.51757 0.24963 0.0
O311 O 0.6467 0.60443 0.20582 0.0
O312 O 0.15964 0.18513 0.11091 0.0
Mn313 Mn 0.13723 0.15655 0.13659 0.0
O314 O 0.19406 0.20895 0.13671 0.0
Mn315 Mn 0.1831 0.19434 0.1702 0.0
O316 O 0.11378 0.1294 0.16334 0.0
O317 O 0.10528 0.15369 0.10925 0.0
Mn318 Mn 0.08818 0.11983 0.10599 0.0
O319 O 0.15433 0.12226 0.11742 0.0
O320 O 0.07377 0.11247 0.14054 0.0
O321 O 0.11858 0.18926 0.15731 0.0
O322 O 0.15223 0.20962 0.18628 0.0
O323 O 0.0715 0.14145 0.08033 0.0
O324 O 0.11725 0.0977 0.09556 0.0
C325 C 0.19143 0.1518 0.17677 0.0
C326 C 0.18097 0.20373 0.11399 0.0
C327 C 0.08882 0.11576 0.16236 0.0
C328 C 0.09049 0.16092 0.0888 0.0
C329 C 0.14355 0.10103 0.10298 0.0
C330 C 0.1266 0.20641 0.17712 0.0
O331 O 0.17028 0.15953 0.16286 0.0
O332 O 0.20713 0.17227 0.18835 0.0
O333 O 0.09424 0.89256 0.35195 0.0
Mn334 Mn 0.1219 0.91148 0.38214 0.0
O335 O 0.12113 0.86624 0.32469 0.0
Mn336 Mn 0.15681 0.87921 0.33853 0.0
O337 O 0.15017 0.93134 0.41127 0.0
O338 O 0.09388 0.9386 0.39072 0.0
Mn339 Mn 0.08819 0.94547 0.42555 0.0
O340 O 0.10366 0.88471 0.41168 0.0
O341 O 0.12422 0.95917 0.4378 0.0
O342 O 0.14043 0.93907 0.35362 0.0
O343 O 0.16975 0.91461 0.32729 0.0
O344 O 0.06384 0.96644 0.40564 0.0
O345 O 0.07546 0.91046 0.43813 0.0
C346 C 0.1665 0.8651 0.3791 0.0
C347 C 0.09718 0.87516 0.33176 0.0
C348 C 0.14801 0.95004 0.43043 0.0
C349 C 0.07461 0.95445 0.38445 0.0
C350 C 0.08529 0.88732 0.43103 0.0
C351 C 0.15912 0.93732 0.33453 0.0
O352 O 0.15021 0.88425 0.37359 0.0
O353 O 0.17884 0.85535 0.3576 0.0
O354 O 0.42305 0.95257 0.6446 0.0
Mn355 Mn 0.39127 0.92681 0.62387 0.0
O356 O 0.43984 0.98379 0.61315 0.0
Mn357 Mn 0.41489 0.97309 0.5844 0.0
O358 O 0.36094 0.90088 0.60126 0.0
O359 O 0.39811 0.89543 0.6486 0.0
Mn360 Mn 0.36573 0.87664 0.65811 0.0
O361 O 0.35943 0.93952 0.65028 0.0
O362 O 0.35046 0.86193 0.62561 0.0
O363 O 0.42239 0.91299 0.59644 0.0
O364 O 0.42607 0.94416 0.56269 0.0
O365 O 0.39482 0.86042 0.6758 0.0
O366 O 0.34392 0.90245 0.67549 0.0
C367 C 0.37022 0.97847 0.59058 0.0
C368 C 0.4407 0.97302 0.63685 0.0
C369 C 0.34897 0.87593 0.60391 0.0
C370 C 0.41143 0.87962 0.66419 0.0
C371 C 0.34288 0.92785 0.66858 0.0
C372 C 0.43117 0.92073 0.57247 0.0
O373 O 0.38368 0.95865 0.60026 0.0
O374 O 0.38586 0.99498 0.57494 0.0
O375 O 0.38909 0.21078 0.93171 0.0
Mn376 Mn 0.37561 0.17953 0.90268 0.0
O377 O 0.42676 0.19603 0.95435 0.0
Mn378 Mn 0.42548 0.16069 0.93797 0.0
O379 O 0.36151 0.14744 0.87452 0.0
O380 O 0.33786 0.19498 0.90242 0.0
Mn381 Mn 0.32025 0.1929 0.87101 0.0
O382 O 0.3887 0.20478 0.86991 0.0
O383 O 0.31534 0.15454 0.86581 0.0
O384 O 0.3606 0.15258 0.93345 0.0
O385 O 0.39852 0.13408 0.95185 0.0
O386 O 0.2992 0.21423 0.89526 0.0
O387 O 0.34719 0.21108 0.84772 0.0
C388 C 0.4383 0.15703 0.8957 0.0
C389 C 0.40912 0.2142 0.9498 0.0
C390 C 0.33629 0.13916 0.86545 0.0
C391 C 0.31989 0.2112 0.91212 0.0
C392 C 0.37461 0.21424 0.84991 0.0
C393 C 0.37153 0.1347 0.94858 0.0
O394 O 0.41417 0.16499 0.9039 0.0
O395 O 0.45501 0.15086 0.91535 0.0
O396 O 0.5959 0.39114 0.86613 0.0
Mn397 Mn 0.62399 0.41269 0.89441 0.0
O398 O 0.62303 0.36508 0.83895 0.0
Mn399 Mn 0.65862 0.37872 0.85244 0.0
O400 O 0.65249 0.4358 0.92143 0.0
O401 O 0.59514 0.43954 0.90117 0.0
Mn402 Mn 0.59057 0.44993 0.93538 0.0
O403 O 0.60736 0.38865 0.9269 0.0
O404 O 0.62654 0.46643 0.94459 0.0
O405 O 0.64138 0.43821 0.86315 0.0
O406 O 0.67189 0.41298 0.83917 0.0
O407 O 0.56348 0.46649 0.9144 0.0
O408 O 0.58055 0.41652 0.95258 0.0
C409 C 0.66864 0.36512 0.89267 0.0
C410 C 0.59893 0.37351 0.84619 0.0
C411 C 0.65036 0.45677 0.9382 0.0
C412 C 0.57396 0.45275 0.89417 0.0
C413 C 0.59069 0.39308 0.94734 0.0
C414 C 0.66048 0.43569 0.84448 0.0
O415 O 0.65279 0.38495 0.88754 0.0
O416 O 0.68081 0.35524 0.8711 0.0
O417 O 0.92375 0.43743 0.15924 0.0
Mn418 Mn 0.89506 0.41504 0.1321 0.0
O419 O 0.95016 0.46929 0.13429 0.0
Mn420 Mn 0.93441 0.45907 0.10014 0.0
O421 O 0.8678 0.39118 0.10419 0.0
O422 O 0.89246 0.38421 0.15827 0.0
Mn423 Mn 0.8589 0.36562 0.16049 0.0
O424 O 0.85936 0.43101 0.15085 0.0
O425 O 0.85535 0.35051 0.12543 0.0
O426 O 0.92881 0.39707 0.1119 0.0
O427 O 0.94921 0.4288 0.08284 0.0
O428 O 0.8821 0.35291 0.18797 0.0
O429 O 0.83413 0.39315 0.16843 0.0
C430 C 0.89057 0.46789 0.09325 0.0
C431 C 0.94371 0.45744 0.1569 0.0
C432 C 0.85751 0.36531 0.10403 0.0
C433 C 0.90098 0.37184 0.17924 0.0
C434 C 0.83702 0.41921 0.16292 0.0
C435 C 0.94569 0.40405 0.09187 0.0
O436 O 0.89836 0.44719 0.10674 0.0
O437 O 0.91172 0.48293 0.08245 0.0
O438 O 0.90867 0.6913 0.43006 0.0
Mn439 Mn 0.88257 0.67509 0.39809 0.0
O440 O 0.92238 0.65381 0.45221 0.0
Mn441 Mn 0.90523 0.62536 0.42951 0.0
O442 O 0.85508 0.65723 0.36744 0.0
O443 O 0.86313 0.71053 0.39896 0.0
Mn444 Mn 0.85342 0.7202 0.366 0.0
O445 O 0.91118 0.69142 0.36854 0.0
O446 O 0.82719 0.69092 0.3555 0.0
O447 O 0.85226 0.6579 0.42617 0.0
O448 O 0.86715 0.61604 0.43714 0.0
O449 O 0.84319 0.7482 0.39006 0.0
O450 O 0.8878 0.72378 0.34676 0.0
C451 C 0.92112 0.62433 0.38779 0.0
C452 C 0.92147 0.68023 0.44989 0.0
C453 C 0.83249 0.66535 0.35629 0.0
C454 C 0.85357 0.73309 0.40856 0.0
C455 C 0.90963 0.70995 0.35014 0.0
C456 C 0.84821 0.63361 0.43682 0.0
O457 O 0.90326 0.64077 0.3975 0.0
O458 O 0.92743 0.60583 0.40509 0.0
O459 O 0.86225 0.90297 0.92504 0.0
Mn460 Mn 0.88549 0.92967 0.89774 0.0
O461 O 0.83319 0.87373 0.89819 0.0
Mn462 Mn 0.84675 0.88459 0.86406 0.0
O463 O 0.90926 0.95455 0.86952 0.0
O464 O 0.91479 0.94006 0.92702 0.0
Mn465 Mn 0.92511 0.97645 0.92728 0.0
O466 O 0.8622 0.96281 0.9103 0.0
O467 O 0.94177 0.98287 0.8933 0.0
O468 O 0.90931 0.89714 0.88361 0.0
O469 O 0.88096 0.87109 0.85356 0.0
O470 O 0.94455 0.96155 0.95578 0.0
O471 O 0.89185 0.99407 0.93407 0.0
C472 C 0.83584 0.92555 0.85265 0.0
C473 C 0.84231 0.88282 0.92175 0.0
C474 C 0.93133 0.97249 0.87075 0.0
C475 C 0.93089 0.93803 0.94817 0.0
C476 C 0.86726 0.98571 0.92427 0.0
C477 C 0.90522 0.87763 0.86504 0.0
O478 O 0.856 0.92037 0.86902 0.0
O479 O 0.82332 0.90322 0.84111 0.0
O480 O 0.92887 0.20199 0.67133 0.0
Mn481 Mn 0.89959 0.18258 0.64266 0.0
O482 O 0.9086 0.23766 0.69224 0.0
Mn483 Mn 0.87166 0.22443 0.68213 0.0
O484 O 0.86977 0.16171 0.61524 0.0
O485 O 0.9255 0.15219 0.63795 0.0
Mn486 Mn 0.92954 0.14109 0.60376 0.0
O487 O 0.92032 0.20415 0.61016 0.0
O488 O 0.89289 0.12828 0.59311 0.0
O489 O 0.87796 0.16071 0.67417 0.0
O490 O 0.857 0.19285 0.70015 0.0
O491 O 0.95254 0.12027 0.62494 0.0
O492 O 0.9441 0.17282 0.58587 0.0
C493 C 0.85566 0.23087 0.64158 0.0
C494 C 0.92992 0.22331 0.68799 0.0
C495 C 0.87028 0.1404 0.59864 0.0
C496 C 0.94356 0.13516 0.64515 0.0
C497 C 0.93643 0.19751 0.58993 0.0
C498 C 0.86194 0.16761 0.69431 0.0
O499 O 0.87377 0.21329 0.64755 0.0
O500 O 0.8475 0.24524 0.66255 0.0
O501 O 0.63543 0.18814 0.39548 0.0
Mn502 Mn 0.61199 0.15358 0.37735 0.0
O503 O 0.65169 0.21449 0.35987 0.0
Mn504 Mn 0.63832 0.1914 0.33061 0.0
O505 O 0.5882 0.12008 0.35779 0.0
O506 O 0.58754 0.1495 0.41091 0.0
Mn507 Mn 0.58069 0.11424 0.41977 0.0
O508 O 0.64023 0.12642 0.39313 0.0
O509 O 0.56145 0.09718 0.38987 0.0
O510 O 0.58215 0.17901 0.36101 0.0
O511 O 0.60082 0.19478 0.321 0.0
O512 O 0.56167 0.135 0.44537 0.0
O513 O 0.61652 0.10246 0.42671 0.0
C514 C 0.65745 0.15206 0.32841 0.0
C515 C 0.64907 0.21014 0.3856 0.0
C516 C 0.56834 0.1015 0.36491 0.0
C517 C 0.57227 0.15617 0.43163 0.0
C518 C 0.63897 0.10852 0.41243 0.0
C519 C 0.58003 0.19083 0.33778 0.0
O520 O 0.63678 0.15795 0.34423 0.0
O521 O 0.66431 0.17132 0.31093 0.0
O522 O 0.61645 0.88291 0.09858 0.0
Mn523 Mn 0.6396 0.90577 0.13007 0.0
O524 O 0.59186 0.9146 0.07707 0.0
Mn525 Mn 0.60912 0.94692 0.09322 0.0
O526 O 0.66247 0.92868 0.16069 0.0
O527 O 0.66587 0.87544 0.13411 0.0
Mn528 Mn 0.66764 0.86488 0.16825 0.0
O529 O 0.61147 0.88811 0.15982 0.0
O530 O 0.68066 0.89713 0.18781 0.0
O531 O 0.66854 0.92468 0.10182 0.0
O532 O 0.64553 0.95787 0.08103 0.0
O533 O 0.69373 0.84535 0.14869 0.0
O534 O 0.63074 0.85073 0.17624 0.0
C535 C 0.596 0.95356 0.13498 0.0
C536 C 0.59784 0.8895 0.08085 0.0
C537 C 0.67709 0.92229 0.18153 0.0
C538 C 0.68581 0.85946 0.12818 0.0
C539 C 0.61004 0.86614 0.17452 0.0
C540 C 0.66793 0.94531 0.08554 0.0
O541 O 0.61435 0.93682 0.12682 0.0
O542 O 0.58733 0.96878 0.11566 0.0
O543 O 0.43389 0.70243 0.1656 0.0
Mn544 Mn 0.40691 0.68289 0.13486 0.0
O545 O 0.40979 0.7355 0.18664 0.0
Mn546 Mn 0.37424 0.71961 0.17552 0.0
O547 O 0.37922 0.66247 0.10546 0.0
O548 O 0.4352 0.65425 0.12904 0.0
Mn549 Mn 0.44044 0.64725 0.09386 0.0
O550 O 0.42786 0.70837 0.10498 0.0
O551 O 0.40507 0.63354 0.08044 0.0
O552 O 0.3857 0.65742 0.16399 0.0
O553 O 0.36232 0.6862 0.1918 0.0
O554 O 0.46353 0.62465 0.11241 0.0
O555 O 0.45482 0.6809 0.0795 0.0
C556 C 0.35828 0.72729 0.13524 0.0
C557 C 0.43255 0.72322 0.1827 0.0
C558 C 0.38138 0.6432 0.08691 0.0
C559 C 0.45361 0.63658 0.1341 0.0
C560 C 0.44577 0.70469 0.08531 0.0
C561 C 0.36918 0.66194 0.18446 0.0
O562 O 0.378 0.711 0.14046 0.0
O563 O 0.34844 0.73932 0.15694 0.0
O564 O 0.14348 0.68674 0.905 0.0
Mn565 Mn 0.11802 0.6533 0.88687 0.0
O566 O 0.16464 0.70995 0.86941 0.0
Mn567 Mn 0.14938 0.68756 0.84039 0.0
O568 O 0.09155 0.62132 0.86738 0.0
O569 O 0.09307 0.65196 0.91957 0.0
Mn570 Mn 0.07995 0.61815 0.92878 0.0
O571 O 0.14217 0.62394 0.90433 0.0
O572 O 0.05867 0.60532 0.89834 0.0
O573 O 0.09205 0.68156 0.86976 0.0
O574 O 0.11318 0.69573 0.83031 0.0
O575 O 0.06684 0.64323 0.95495 0.0
O576 O 0.11275 0.59965 0.93388 0.0
C577 C 0.16221 0.64552 0.83706 0.0
C578 C 0.15931 0.70744 0.89506 0.0
C579 C 0.06817 0.60677 0.87378 0.0
C580 C 0.08084 0.66207 0.94051 0.0
C581 C 0.13676 0.60426 0.92152 0.0
C582 C 0.09204 0.69415 0.84687 0.0
O583 O 0.14393 0.65425 0.85427 0.0
O584 O 0.17166 0.6643 0.81995 0.0
O585 O 0.11048 0.39846 0.6017 0.0
Mn586 Mn 0.13521 0.40912 0.6362 0.0
O587 O 0.10324 0.44048 0.58387 0.0
Mn588 Mn 0.11625 0.46486 0.61255 0.0
O589 O 0.16171 0.42231 0.66931 0.0
O590 O 0.15351 0.37295 0.63198 0.0
Mn591 Mn 0.16157 0.36 0.66437 0.0
O592 O 0.10549 0.3901 0.66286 0.0
O593 O 0.18826 0.3869 0.67855 0.0
O594 O 0.16682 0.42983 0.61126 0.0
O595 O 0.15514 0.47456 0.61188 0.0
O596 O 0.17097 0.33333 0.63879 0.0
O597 O 0.12712 0.35608 0.68362 0.0
C598 C 0.09385 0.45592 0.65057 0.0
C599 C 0.10173 0.41368 0.58253 0.0
C600 C 0.18346 0.41259 0.68054 0.0
C601 C 0.16145 0.35006 0.62123 0.0
C602 C 0.10612 0.37109 0.68085 0.0
C603 C 0.17315 0.45628 0.60822 0.0
O604 O 0.11507 0.44361 0.64097 0.0
O605 O 0.08898 0.47768 0.63687 0.0
O606 O 0.66271 0.68513 0.62831 0.0
Mn607 Mn 0.64159 0.65592 0.6541 0.0
O608 O 0.70022 0.70575 0.65259 0.0
Mn609 Mn 0.69271 0.68806 0.6855 0.0
O610 O 0.61972 0.6282 0.68123 0.0
O611 O 0.60661 0.65716 0.63124 0.0
Mn612 Mn 0.5861 0.62502 0.62766 0.0
O613 O 0.65336 0.62232 0.63007 0.0
O614 O 0.57537 0.61793 0.66343 0.0
O615 O 0.62804 0.6882 0.6795 0.0
O616 O 0.66508 0.70268 0.70721 0.0
O617 O 0.57031 0.64995 0.60446 0.0
O618 O 0.6118 0.60108 0.61292 0.0
C619 C 0.69934 0.64445 0.68678 0.0
C620 C 0.68494 0.70277 0.63087 0.0
C621 C 0.59339 0.6181 0.68305 0.0
C622 C 0.59193 0.66693 0.61209 0.0
C623 C 0.63905 0.60274 0.61605 0.0
C624 C 0.6387 0.70213 0.70055 0.0
O625 O 0.67752 0.6545 0.67595 0.0
O626 O 0.71723 0.66311 0.69843 0.0
O627 O 0.36636 0.39958 0.41198 0.0
Mn628 Mn 0.38702 0.4304 0.38773 0.0
O629 O 0.34118 0.36901 0.38314 0.0
Mn630 Mn 0.35101 0.38591 0.35004 0.0
O631 O 0.40968 0.45961 0.36215 0.0
O632 O 0.41447 0.43998 0.41866 0.0
Mn633 Mn 0.42417 0.4763 0.42144 0.0
O634 O 0.36119 0.46035 0.40287 0.0
O635 O 0.44322 0.48335 0.38885 0.0
O636 O 0.41315 0.40102 0.37059 0.0
O637 O 0.38659 0.37772 0.33695 0.0
O638 O 0.44224 0.45984 0.45003 0.0
O639 O 0.38985 0.49292 0.42627 0.0
C640 C 0.33538 0.42717 0.34634 0.0
C641 C 0.34992 0.3771 0.40708 0.0
C642 C 0.43305 0.47569 0.36537 0.0
C643 C 0.42951 0.43676 0.44022 0.0
C644 C 0.36541 0.48336 0.4168 0.0
C645 C 0.41033 0.38405 0.34957 0.0
O646 O 0.35834 0.42152 0.35839 0.0
O647 O 0.32319 0.40569 0.33318 0.0
H648 H 0.00953 0.23253 0.31076 0.0
H649 H 0.13264 0.25885 0.19918 0.0
H650 H 0.09387 0.27418 0.32551 0.0
H651 H 0.07284 0.18544 0.19266 0.0
H652 H 0.1072 0.2743 0.23972 0.0
H653 H 0.02424 0.2213 0.26344 0.0
C654 C 0.03116 0.23901 0.30417 0.0
C655 C 0.05053 0.2543 0.32208 0.0
C656 C 0.09929 0.25505 0.22914 0.0
C657 C 0.06678 0.24269 0.26816 0.0
C658 C 0.11354 0.24644 0.20583 0.0
C659 C 0.1052 0.22051 0.19315 0.0
C660 C 0.07673 0.23748 0.23992 0.0
C661 C 0.08013 0.20535 0.20228 0.0
C662 C 0.03937 0.23283 0.27721 0.0
C663 C 0.07824 0.26226 0.31255 0.0
N664 N 0.06705 0.21371 0.22571 0.0
N665 N 0.08538 0.25665 0.28618 0.0
H666 H 0.08397 0.8293 0.59174 0.0
H667 H 0.03222 0.86328 0.44181 0.0
H668 H 0.00084 0.85459 0.56982 0.0
H669 H 0.12127 0.8612 0.46319 0.0
H670 H 0.01863 0.84226 0.48557 0.0
H671 H 0.09635 0.82688 0.54265 0.0
C672 C 0.06842 0.8344 0.57663 0.0
C673 C 0.04168 0.84292 0.58481 0.0
C674 C 0.04118 0.84556 0.48038 0.0
C675 C 0.05515 0.83912 0.52906 0.0
C676 C 0.04887 0.85713 0.45525 0.0
C677 C 0.07781 0.86403 0.44919 0.0
C678 C 0.06265 0.84167 0.49971 0.0
C679 C 0.0987 0.856 0.46725 0.0
C680 C 0.07536 0.83273 0.54872 0.0
C681 C 0.02203 0.84874 0.56449 0.0
N682 N 0.09072 0.84592 0.4922 0.0
N683 N 0.02919 0.84679 0.53762 0.0
H684 H 0.47784 0.8322 0.79331 0.0
H685 H 0.43369 0.92706 0.68881 0.0
H686 H 0.51434 0.91772 0.80059 0.0
H687 H 0.45331 0.84407 0.66516 0.0
H688 H 0.46994 0.92848 0.7248 0.0
H689 H 0.47228 0.8376 0.74421 0.0
C690 C 0.48443 0.85226 0.78449 0.0
C691 C 0.49561 0.87488 0.801 0.0
C692 C 0.46759 0.91055 0.71078 0.0
C693 C 0.48967 0.88115 0.74469 0.0
C694 C 0.44735 0.9101 0.68975 0.0
C695 C 0.44088 0.88569 0.67393 0.0
C696 C 0.48024 0.88587 0.71646 0.0
C697 C 0.45771 0.86326 0.67716 0.0
C698 C 0.48186 0.85516 0.75638 0.0
C699 C 0.50491 0.90007 0.78847 0.0
N700 N 0.47601 0.86347 0.69874 0.0
N701 N 0.50098 0.90285 0.761 0.0
H702 H 0.49111 0.30923 0.07597 0.0
H703 H 0.36864 0.22732 0.98668 0.0
H704 H 0.41316 0.26884 0.10936 0.0
H705 H 0.45342 0.25388 0.95778 0.0
H706 H 0.37736 0.2572 0.02792 0.0
H707 H 0.4702 0.30409 0.03013 0.0
C708 C 0.46934 0.29973 0.0737 0.0
C709 C 0.45411 0.2887 0.09638 0.0
C710 C 0.39372 0.25722 0.01216 0.0
C711 C 0.43022 0.28239 0.04388 0.0
C712 C 0.38861 0.24045 0.98851 0.0
C713 C 0.41033 0.2384 0.96891 0.0
C714 C 0.42092 0.27157 0.01625 0.0
C715 C 0.43615 0.25508 0.97248 0.0
C716 C 0.45741 0.29682 0.0475 0.0
C717 C 0.42579 0.27721 0.09235 0.0
N718 N 0.4409 0.27067 -0.00407 0.0
N719 N 0.41497 0.27374 0.06646 0.0
H720 H 0.98981 0.86743 0.18768 0.0
H721 H 0.0769 0.82221 0.31822 0.0
H722 H 0.02441 0.7876 0.19646 0.0
H723 H 0.06449 0.90828 0.30254 0.0
H724 H 0.04674 0.80771 0.27864 0.0
H725 H 0.0082 0.88164 0.23368 0.0
C726 C 0.00132 0.85297 0.19923 0.0
C727 C 0.00607 0.82651 0.18805 0.0
C728 C 0.05005 0.82976 0.28414 0.0
C729 C 0.0263 0.84223 0.24068 0.0
C730 C 0.06696 0.83797 0.3069 0.0
C731 C 0.07274 0.86638 0.31376 0.0
C732 C 0.03933 0.85019 0.26778 0.0
C733 C 0.05985 0.88611 0.29825 0.0
C734 C 0.01165 0.86102 0.22546 0.0
C735 C 0.02077 0.80842 0.20398 0.0
N736 N 0.04402 0.87767 0.27564 0.0
N737 N 0.0303 0.81661 0.22943 0.0
H738 H 0.50427 0.79812 0.4656 0.0
H739 H 0.46251 0.93698 0.5279 0.0
H740 H 0.56713 0.86913 0.47363 0.0
H741 H 0.44225 0.86519 0.5785 0.0
H742 H 0.49371 0.90994 0.50027 0.0
H743 H 0.47489 0.81954 0.50111 0.0
C744 C 0.51187 0.81814 0.47489 0.0
C745 C 0.53784 0.83222 0.46641 0.0
C746 C 0.48255 0.90017 0.51752 0.0
C747 C 0.50461 0.85647 0.50645 0.0
C748 C 0.46452 0.91548 0.53329 0.0
C749 C 0.4497 0.9034 0.55576 0.0
C750 C 0.48561 0.87235 0.52374 0.0
C751 C 0.45336 0.87533 0.56146 0.0
C752 C 0.49533 0.83007 0.49526 0.0
C753 C 0.54711 0.85776 0.4794 0.0
N754 N 0.47087 0.86052 0.5453 0.0
N755 N 0.53019 0.86937 0.49837 0.0
H756 H 0.40402 0.29429 0.69557 0.0
H757 H 0.4258 0.20126 0.82718 0.0
H758 H 0.46536 0.23213 0.69748 0.0
H759 H 0.35793 0.25577 0.81839 0.0
H760 H 0.44474 0.21599 0.78218 0.0
H761 H 0.38971 0.28276 0.74227 0.0
C762 C 0.41429 0.27797 0.70571 0.0
C763 C 0.4358 0.26406 0.69247 0.0
C764 C 0.42592 0.22497 0.79031 0.0
C765 C 0.41981 0.251 0.74641 0.0
C766 C 0.41536 0.21686 0.81613 0.0
C767 C 0.39022 0.22727 0.82644 0.0
C768 C 0.41128 0.2437 0.77494 0.0
C769 C 0.37726 0.24709 0.81111 0.0
C770 C 0.40622 0.27149 0.73251 0.0
C771 C 0.44846 0.2432 0.70679 0.0
N772 N 0.38781 0.2545 0.78614 0.0
N773 N 0.44035 0.23736 0.73305 0.0
H774 H 0.05894 0.24165 0.94612 0.0
H775 H 0.1405 0.17319 0.06146 0.0
H776 H 0.15086 0.25835 0.9509 0.0
H777 H 0.05605 0.20044 0.07406 0.0
H778 H 0.14691 0.20386 0.02198 0.0
H779 H 0.05841 0.22468 0.99283 0.0
C780 C 0.07909 0.24152 0.95705 0.0
C781 C 0.10506 0.25083 0.94458 0.0
C782 C 0.12741 0.2039 0.03399 0.0
C783 C 0.10461 0.23153 -0.00182 0.0
C784 C 0.12393 0.18675 0.05678 0.0
C785 C 0.09808 0.1851 0.07154 0.0
C786 C 0.10446 0.21859 0.02548 0.0
C787 C 0.07652 0.20168 0.06354 0.0
C788 C 0.07873 0.23218 0.98383 0.0
C789 C 0.13048 0.25093 0.95982 0.0
N790 N 0.08001 0.21742 0.04081 0.0
N791 N 0.12973 0.24089 0.9858 0.0
H792 H 0.31613 0.03246 0.16267 0.0
H793 H 0.17706 0.10756 0.20935 0.0
H794 H 0.28222 0.03331 0.24512 0.0
H795 H 0.23147 0.13496 0.14211 0.0
H796 H 0.20574 0.06741 0.21473 0.0
H797 H 0.27565 0.05793 0.14771 0.0
C798 C 0.30007 0.03775 0.17751 0.0
C799 C 0.30284 0.03141 0.20526 0.0
C800 C 0.21082 0.08176 0.19826 0.0
C801 C 0.25656 0.05977 0.1883 0.0
C802 C 0.19434 0.1044 0.19507 0.0
C803 C 0.20182 0.12403 0.17501 0.0
C804 C 0.23494 0.07915 0.18141 0.0
C805 C 0.22497 0.11985 0.15756 0.0
C806 C 0.27703 0.05216 0.16898 0.0
C807 C 0.28126 0.03836 0.22363 0.0
N808 N 0.2409 0.09791 0.16125 0.0
N809 N 0.25913 0.05231 0.21486 0.0
H810 H 0.22435 0.08448 0.52141 0.0
H811 H 0.19936 0.96597 0.40564 0.0
H812 H 0.26715 0.08934 0.44294 0.0
H813 H 0.15536 0.96788 0.48333 0.0
H814 H 0.23376 0.00418 0.4225 0.0
H815 H 0.20838 0.03598 0.51132 0.0
C816 C 0.23019 0.07534 0.50184 0.0
C817 C 0.24633 0.09121 0.48257 0.0
C818 C 0.21702 0.99571 0.43607 0.0
C819 C 0.22774 0.03533 0.47067 0.0
C820 C 0.19752 0.97383 0.42651 0.0
C821 C 0.17405 0.96454 0.44284 0.0
C822 C 0.21296 0.00787 0.4622 0.0
C823 C 0.17282 0.97497 0.46987 0.0
C824 C 0.22128 0.04746 0.49619 0.0
C825 C 0.25422 0.07791 0.45808 0.0
N826 N 0.19167 0.99637 0.47853 0.0
N827 N 0.2443 0.05079 0.45251 0.0
H828 H 0.16713 0.95825 0.69521 0.0
H829 H 0.33652 0.98432 0.67036 0.0
H830 H 0.20923 0.03928 0.67673 0.0
H831 H 0.2922 0.90447 0.68871 0.0
H832 H 0.29089 0.00587 0.67458 0.0
H833 H 0.21326 0.93847 0.69232 0.0
C834 C 0.186 0.97183 0.69011 0.0
C835 C 0.18426 0.00051 0.68646 0.0
C836 C 0.29124 0.98366 0.67782 0.0
C837 C 0.23744 0.97807 0.68368 0.0
C838 C 0.31723 0.97142 0.67534 0.0
C839 C 0.318 0.94249 0.67818 0.0
C840 C 0.26596 0.96675 0.68341 0.0
C841 C 0.29268 0.92682 0.68599 0.0
C842 C 0.21244 0.96056 0.68875 0.0
C843 C 0.20952 0.01705 0.67984 0.0
N844 N 0.26768 0.93908 0.68797 0.0
N845 N 0.23513 0.00563 0.67889 0.0
H846 H 0.3092 0.98563 0.03201 0.0
H847 H 0.31927 0.11306 0.92908 0.0
H848 H 0.26752 0.98076 0.9528 0.0
H849 H 0.38082 0.10332 0.99323 0.0
H850 H 0.29263 0.06934 0.94274 0.0
H851 H 0.32828 0.03324 0.02275 0.0
C852 C 0.30406 0.99451 0.0126 0.0
C853 C 0.28701 0.97895 0.99296 0.0
C854 C 0.31175 0.07703 0.95402 0.0
C855 C 0.30875 0.03377 0.9824 0.0
C856 C 0.32681 0.10208 0.94643 0.0
C857 C 0.35242 0.1117 0.95995 0.0
C858 C 0.32215 0.06182 0.97553 0.0
C859 C 0.36133 0.09653 0.98213 0.0
C860 C 0.31495 0.02177 0.00739 0.0
C861 C 0.28082 0.99186 0.96838 0.0
N862 N 0.34628 0.0723 0.98916 0.0
N863 N 0.29178 0.01855 0.96374 0.0
H864 H 0.29007 0.95945 0.23706 0.0
H865 H 0.18897 0.98061 0.36132 0.0
H866 H 0.31873 0.9835 0.3192 0.0
H867 H 0.16173 0.95074 0.28081 0.0
H868 H 0.23381 0.00117 0.34177 0.0
H869 H 0.24246 0.97205 0.24889 0.0
C870 C 0.28629 0.96701 0.25778 0.0
C871 C 0.3083 0.96962 0.27747 0.0
C872 C 0.21755 0.99117 0.32814 0.0
C873 C 0.25352 0.98435 0.29108 0.0
C874 C 0.19178 0.97978 0.33928 0.0
C875 C 0.17267 0.9628 0.32271 0.0
C876 C 0.22357 0.98534 0.30042 0.0
C877 C 0.17668 0.96291 0.29429 0.0
C878 C 0.25913 0.9747 0.26436 0.0
C879 C 0.30222 0.98051 0.30361 0.0
N880 N 0.20228 0.9731 0.28403 0.0
N881 N 0.27524 0.98705 0.30982 0.0
H882 H 0.28212 0.11866 0.6156 0.0
H883 H 0.31841 0.96688 0.56613 0.0
H884 H 0.28331 0.08473 0.53289 0.0
H885 H 0.36075 0.0119 0.63414 0.0
H886 H 0.28212 0.00073 0.56658 0.0
H887 H 0.28992 0.07172 0.63274 0.0
C888 C 0.28338 0.10126 0.60118 0.0
C889 C 0.28275 0.10551 0.57283 0.0
C890 C 0.29851 0.00237 0.58236 0.0
C891 C 0.29027 0.05227 0.59204 0.0
C892 C 0.31899 0.98286 0.5823 0.0
C893 C 0.34244 0.98672 0.60016 0.0
C894 C 0.30208 0.02607 0.6 0.0
C895 C 0.34273 0.0082 0.62021 0.0
C896 C 0.2876 0.0746 0.61091 0.0
C897 C 0.28414 0.08239 0.55489 0.0
N898 N 0.32328 0.02761 0.61919 0.0
N899 N 0.28798 0.05688 0.56476 0.0
H900 H 0.20198 0.04775 0.79723 0.0
H901 H 0.35548 0.12599 0.81472 0.0
H902 H 0.25212 0.08655 0.73184 0.0
H903 H 0.30269 0.0937 0.88111 0.0
H904 H 0.32623 0.09593 0.78243 0.0
H905 H 0.24508 0.05028 0.82572 0.0
C906 C 0.22208 0.05667 0.78882 0.0
C907 C 0.22328 0.06779 0.76247 0.0
C908 C 0.32169 0.09452 0.80418 0.0
C909 C 0.2727 0.07064 0.79488 0.0
C910 C 0.33873 0.11133 0.82264 0.0
C911 C 0.33104 0.11248 0.8504 0.0
C912 C 0.29681 0.07924 0.81378 0.0
C913 C 0.309 0.09347 0.85971 0.0
C914 C 0.24674 0.05789 0.805 0.0
C915 C 0.25005 0.07838 0.75232 0.0
N916 N 0.29207 0.07815 0.84133 0.0
N917 N 0.27359 0.08001 0.76872 0.0
H918 H 0.17113 0.93113 0.06834 0.0
H919 H 0.18489 0.08322 0.13571 0.0
H920 H 0.24785 0.96163 0.11266 0.0
H921 H 0.13833 0.06216 0.06096 0.0
H922 H 0.20553 0.03807 0.13297 0.0
H923 H 0.1536 0.97736 0.07324 0.0
C924 C 0.18401 0.94732 0.07973 0.0
C925 C 0.21116 0.94256 0.0899 0.0
C926 C 0.19128 0.04362 0.11687 0.0
C927 C 0.19128 0.99563 0.09521 0.0
C928 C 0.18008 0.06966 0.11812 0.0
C929 C 0.16059 0.07685 0.09822 0.0
C930 C 0.18222 0.02437 0.0959 0.0
C931 C 0.15343 0.05756 0.07668 0.0
C932 C 0.17415 0.97383 0.08213 0.0
C933 C 0.22689 0.9645 0.10434 0.0
N934 N 0.164 0.03207 0.07626 0.0
N935 N 0.21677 0.9902 0.1065 0.0
H936 H 0.26959 0.35393 0.07714 0.0
H937 H 0.14434 0.23524 0.08821 0.0
H938 H 0.18796 0.36243 0.03836 0.0
H939 H 0.23364 0.22057 0.09424 0.0
H940 H 0.1581 0.28049 0.06772 0.0
H941 H 0.25493 0.305 0.08489 0.0
C942 C 0.24835 0.34564 0.07063 0.0
C943 C 0.22992 0.36237 0.05716 0.0
C944 C 0.17463 0.26696 0.07263 0.0
C945 C 0.21312 0.30598 0.06567 0.0
C946 C 0.16676 0.24087 0.08378 0.0
C947 C 0.18793 0.22405 0.09249 0.0
C948 C 0.20383 0.27636 0.07097 0.0
C949 C 0.21674 0.23292 0.0876 0.0
C950 C 0.24017 0.31751 0.07466 0.0
C951 C 0.20278 0.35025 0.0489 0.0
N952 N 0.22389 0.25874 0.07767 0.0
N953 N 0.19508 0.32274 0.05343 0.0
H954 H 0.71354 0.21874 0.94814 0.0
H955 H 0.62099 0.33788 0.91393 0.0
H956 H 0.62832 0.21707 0.9823 0.0
H957 H 0.71251 0.35193 0.9244 0.0
H958 H 0.62095 0.29584 0.94134 0.0
H959 H 0.71217 0.26825 0.93916 0.0
C960 C 0.69432 0.22882 0.95337 0.0
C961 C 0.67067 0.21378 0.96525 0.0
C962 C 0.64085 0.30876 0.93865 0.0
C963 C 0.66909 0.2706 0.95541 0.0
C964 C 0.64083 0.33302 0.9234 0.0
C965 C 0.66674 0.34863 0.91752 0.0
C966 C 0.66712 0.29975 0.94706 0.0
C967 C 0.69208 0.3406 0.92893 0.0
C968 C 0.69375 0.25718 0.94872 0.0
C969 C 0.64671 0.22799 0.97258 0.0
N970 N 0.69175 0.31634 0.94268 0.0
N971 N 0.64625 0.25566 0.96704 0.0
H972 H 0.08629 0.46686 0.27108 0.0
H973 H 0.95566 0.50961 0.17904 0.0
H974 H 0.07455 0.55085 0.24626 0.0
H975 H 0.97627 0.42435 0.18599 0.0
H976 H 0.99426 0.5245 0.21144 0.0
H977 H 0.04183 0.45023 0.24661 0.0
C978 C 0.07444 0.48175 0.26048 0.0
C979 C 0.08441 0.5102 0.26036 0.0
C980 C 0.99006 0.50244 0.20632 0.0
C981 C 0.03345 0.49151 0.23293 0.0
C982 C 0.96789 0.49397 0.18804 0.0
C983 C 0.96246 0.46569 0.18046 0.0
C984 C 0.0073 0.48251 0.21667 0.0
C985 C 0.97926 0.44624 0.19213 0.0
C986 C 0.04907 0.47228 0.24661 0.0
C987 C 0.06805 0.52865 0.24652 0.0
N988 N 0.00112 0.455 0.20954 0.0
N989 N 0.04347 0.519 0.23344 0.0
H990 H 0.85812 0.87217 0.51437 0.0
H991 H 0.8148 0.72103 0.44873 0.0
H992 H 0.77208 0.83603 0.49767 0.0
H993 H 0.89377 0.77015 0.43126 0.0
H994 H 0.80544 0.75418 0.48612 0.0
H995 H 0.8763 0.82684 0.50192 0.0
C996 C 0.84309 0.85464 0.50839 0.0
C997 C 0.81373 0.85801 0.506 0.0
C998 C 0.82547 0.75699 0.47493 0.0
C999 C 0.83409 0.80631 0.4928 0.0
C1000 C 0.83097 0.73789 0.45387 0.0
C1001 C 0.85514 0.74294 0.43718 0.0
C1002 C 0.84421 0.78127 0.47889 0.0
C1003 C 0.87506 0.7655 0.44401 0.0
C1004 C 0.85342 0.82883 0.50151 0.0
C1005 C 0.79502 0.83455 0.49879 0.0
N1006 N 0.86893 0.78422 0.46407 0.0
N1007 N 0.80553 0.80977 0.49221 0.0
H1008 H 0.96792 0.0115 0.25088 0.0
H1009 H 0.07921 0.14046 0.21253 0.0
H1010 H 0.96052 0.09607 0.28071 0.0
H1011 H 0.06848 0.06187 0.16745 0.0
H1012 H 0.0452 0.12119 0.24727 0.0
H1013 H 0.01368 0.02675 0.22979 0.0
C1014 C 0.97592 0.03331 0.25305 0.0
C1015 C 0.95997 0.05271 0.26697 0.0
C1016 C 0.05086 0.108 0.23009 0.0
C1017 C 0.01262 0.07025 0.24298 0.0
C1018 C 0.07038 0.11891 0.21045 0.0
C1019 C 0.07617 0.10277 0.18706 0.0
C1020 C 0.03756 0.08075 0.22625 0.0
C1021 C 0.06426 0.07499 0.18516 0.0
C1022 C 0.00217 0.04196 0.24111 0.0
C1023 C 0.97186 0.08053 0.2697 0.0
N1024 N 0.0453 0.06495 0.20433 0.0
N1025 N -0.00265 0.08858 0.2575 0.0
H1026 H 0.24204 0.75056 0.51389 0.0
H1027 H 0.29244 0.86026 0.59836 0.0
H1028 H 0.32789 0.72617 0.52523 0.0
H1029 H 0.37432 0.85497 0.55896 0.0
H1030 H 0.27211 0.82172 0.56886 0.0
H1031 H 0.25876 0.79849 0.52698 0.0
C1032 C 0.26446 0.75526 0.51913 0.0
C1033 C 0.28349 0.73413 0.5192 0.0
C1034 C 0.2942 0.82972 0.56571 0.0
C1035 C 0.30256 0.78902 0.53451 0.0
C1036 C 0.3057 0.8518 0.58247 0.0
C1037 C 0.3348 0.861 0.5805 0.0
C1038 C 0.31223 0.81633 0.54744 0.0
C1039 C 0.35158 0.8487 0.56049 0.0
C1040 C 0.27392 0.78266 0.52663 0.0
C1041 C 0.31243 0.74171 0.52537 0.0
N1042 N 0.34022 0.82641 0.54514 0.0
N1043 N 0.32106 0.76857 0.53313 0.0
H1044 H 0.05065 0.56279 0.30146 0.0
H1045 H 0.96061 0.66832 0.38169 0.0
H1046 H 0.08806 0.64019 0.33798 0.0
H1047 H 0.92569 0.59162 0.34225 0.0
H1048 H 0.00436 0.66637 0.35435 0.0
H1049 H 0.00341 0.57997 0.30516 0.0
C1050 C 0.04881 0.58353 0.31029 0.0
C1051 C 0.07304 0.5998 0.32026 0.0
C1052 C 0.98673 0.65053 0.35084 0.0
C1053 C 0.01882 0.6196 0.32495 0.0
C1054 C 0.96156 0.6519 0.36612 0.0
C1055 C 0.93965 0.6301 0.36403 0.0
C1056 C 0.98997 0.6269 0.33387 0.0
C1057 C 0.94219 0.60882 0.34432 0.0
C1058 C 0.02183 0.59346 0.31219 0.0
C1059 C 0.0697 0.62684 0.3306 0.0
N1060 N 0.96717 0.60744 0.33036 0.0
N1061 N 0.04289 0.63569 0.33334 0.0
H1062 H 0.41575 0.42529 0.80915 0.0
H1063 H 0.57204 0.48835 0.85221 0.0
H1064 H 0.443 0.50947 0.83736 0.0
H1065 H 0.53863 0.4074 0.87977 0.0
H1066 H 0.53092 0.48879 0.82127 0.0
H1067 H 0.46582 0.41305 0.81425 0.0
C1068 C 0.43215 0.44108 0.81636 0.0
C1069 C 0.42512 0.46819 0.82354 0.0
C1070 C 0.53328 0.47036 0.83319 0.0
C1071 C 0.48183 0.45501 0.82741 0.0
C1072 C 0.55674 0.47009 0.85066 0.0
C1073 C 0.55829 0.44793 0.86846 0.0
C1074 C 0.51103 0.44882 0.8345 0.0
C1075 C 0.53785 0.42486 0.86622 0.0
C1076 C 0.46055 0.43421 0.81884 0.0
C1077 C 0.44716 0.48811 0.83222 0.0
N1078 N 0.51442 0.42618 0.85004 0.0
N1079 N 0.47443 0.48113 0.83378 0.0
H1080 H 0.95865 0.82901 0.71599 0.0
H1081 H 0.96057 0.9013 0.8606 0.0
H1082 H 0.03511 0.87797 0.74445 0.0
H1083 H 0.9062 0.8268 0.83916 0.0
H1084 H 0.99193 0.89133 0.82186 0.0
H1085 H 0.9405 0.82809 0.76263 0.0
C1086 C 0.97145 0.84001 0.73201 0.0
C1087 C -0.00178 0.85405 0.72623 0.0
C1088 C 0.97364 0.8767 0.8262 0.0
C1089 C 0.97765 0.85271 0.78006 0.0
C1090 C 0.95585 0.88226 0.84844 0.0
C1091 C 0.93005 0.86557 0.85214 0.0
C1092 C 0.96537 0.85429 0.808 0.0
C1093 C 0.92534 0.8408 0.83629 0.0
C1094 C 0.9613 0.83902 0.7588 0.0
C1095 C 0.01416 0.86726 0.74804 0.0
N1096 N 0.94235 0.83633 0.81438 0.0
N1097 N 0.00345 0.86661 0.77405 0.0
H1098 H 0.94107 0.25732 0.42706 0.0
H1099 H 0.93728 0.25569 0.59077 0.0
H1100 H 0.9714 0.33109 0.47465 0.0
H1101 H 0.94908 0.18452 0.53713 0.0
H1102 H 0.94023 0.28578 0.55027 0.0
H1103 H 0.93096 0.23267 0.46955 0.0
C1104 C 0.94512 0.26853 0.44643 0.0
C1105 C 0.95772 0.29612 0.44724 0.0
C1106 C 0.94225 0.26356 0.54764 0.0
C1107 C 0.94651 0.26783 0.49603 0.0
C1108 C 0.9406 0.24642 0.57065 0.0
C1109 C 0.94254 0.21743 0.5674 0.0
C1110 C 0.94548 0.25142 0.52138 0.0
C1111 C 0.94737 0.20665 0.54087 0.0
C1112 C 0.93955 0.25437 0.47069 0.0
C1113 C 0.96208 0.30966 0.47307 0.0
N1114 N 0.94834 0.22353 0.51901 0.0
N1115 N 0.95685 0.29525 0.49654 0.0
H1116 H 0.46653 0.19061 0.20385 0.0
H1117 H 0.56571 0.24328 0.32996 0.0
H1118 H 0.54269 0.2482 0.20272 0.0
H1119 H 0.53356 0.1567 0.32135 0.0
H1120 H 0.5347 0.2545 0.29225 0.0
H1121 H 0.47299 0.18602 0.25384 0.0
C1122 C 0.48435 0.20243 0.21412 0.0
C1123 C 0.50427 0.21956 0.19914 0.0
C1124 C 0.53348 0.23323 0.29942 0.0
C1125 C 0.51072 0.21558 0.25579 0.0
C1126 C 0.55085 0.2269 0.32114 0.0
C1127 C 0.55239 0.19901 0.32829 0.0
C1128 C 0.51808 0.21139 0.28465 0.0
C1129 C 0.53301 0.17844 0.31612 0.0
C1130 C 0.48782 0.19998 0.2425 0.0
C1131 C 0.52693 0.23455 0.21332 0.0
N1132 N 0.51721 0.18485 0.2941 0.0
N1133 N 0.52944 0.23228 0.2408 0.0
H1134 H 0.58995 0.8105 0.9209 0.0
H1135 H 0.54526 0.88859 0.05745 0.0
H1136 H 0.54968 0.88808 0.92612 0.0
H1137 H 0.62044 0.84287 0.05702 0.0
H1138 H 0.53582 0.87312 0.01016 0.0
H1139 H 0.59607 0.81258 0.97111 0.0
C1140 C 0.58329 0.8284 0.93247 0.0
C1141 C 0.56904 0.84908 0.91953 0.0
C1142 C 0.55427 0.86618 0.0206 0.0
C1143 C 0.57447 0.85058 0.97631 0.0
C1144 C 0.55945 0.87461 0.04771 0.0
C1145 C 0.58504 0.86879 0.0605 0.0
C1146 C 0.57471 0.85165 0.00645 0.0
C1147 C 0.60181 0.8496 0.04734 0.0
C1148 C 0.58625 0.82922 0.96104 0.0
C1149 C 0.56051 0.87162 0.9354 0.0
N1150 N 0.597 0.8424 0.02048 0.0
N1151 N 0.56288 0.8715 0.96303 0.0
H1152 H 0.00026 0.21826 0.84752 0.0
H1153 H 0.96478 0.27098 0.70003 0.0
H1154 H 0.04891 0.28935 0.81266 0.0
H1155 H 0.94567 0.18549 0.72359 0.0
H1156 H -0.00447 0.27918 0.74089 0.0
H1157 H 0.97888 0.20675 0.80243 0.0
C1158 C 0.0066 0.23135 0.83039 0.0
C1159 C 0.02631 0.25488 0.83398 0.0
C1160 C 0.98517 0.25844 0.73672 0.0
C1161 C 0.00172 0.24196 0.7823 0.0
C1162 C 0.96783 0.25376 0.71338 0.0
C1163 C 0.95343 0.22733 0.70814 0.0
C1164 C 0.98717 0.23677 0.75536 0.0
C1165 C 0.95724 0.20589 0.72646 0.0
C1166 C 0.99447 0.22471 0.80461 0.0
C1167 C 0.03371 0.27107 0.81093 0.0
N1168 N 0.97341 0.21115 0.74943 0.0
N1169 N 0.02117 0.26451 0.78616 0.0
H1170 H 0.57878 0.2877 0.55316 0.0
H1171 H 0.52154 0.17827 0.43577 0.0
H1172 H 0.49905 0.23534 0.5542 0.0
H1173 H 0.61181 0.19671 0.45109 0.0
H1174 H 0.51124 0.21516 0.46888 0.0
H1175 H 0.58944 0.26747 0.50761 0.0
C1176 C 0.56358 0.27199 0.54381 0.0
C1177 C 0.5383 0.26266 0.55767 0.0
C1178 C 0.53339 0.21181 0.46436 0.0
C1179 C 0.54971 0.24061 0.50553 0.0
C1180 C 0.53926 0.19107 0.44521 0.0
C1181 C 0.56754 0.18467 0.44083 0.0
C1182 C 0.55597 0.22575 0.47957 0.0
C1183 C 0.58978 0.20143 0.4538 0.0
C1184 C 0.56957 0.26068 0.51785 0.0
C1185 C 0.51909 0.24263 0.54456 0.0
N1186 N 0.58354 0.22091 0.47321 0.0
N1187 N 0.52517 0.23234 0.51925 0.0
H1188 H 0.58493 0.79981 0.32459 0.0
H1189 H 0.59108 0.90691 0.20782 0.0
H1190 H 0.56166 0.8839 0.33992 0.0
H1191 H 0.58272 0.81768 0.1928 0.0
H1192 H 0.573 0.8997 0.25428 0.0
H1193 H 0.57992 0.80618 0.27566 0.0
C1194 C 0.5792 0.81986 0.31761 0.0
C1195 C 0.57456 0.8417 0.33633 0.0
C1196 C 0.57403 0.88172 0.24053 0.0
C1197 C 0.56844 0.84906 0.27997 0.0
C1198 C 0.58382 0.88586 0.21372 0.0
C1199 C 0.58834 0.86282 0.1964 0.0
C1200 C 0.56951 0.85436 0.25012 0.0
C1201 C 0.5797 0.83598 0.2056 0.0
C1202 C 0.57582 0.82331 0.2896 0.0
C1203 C 0.56605 0.86678 0.32608 0.0
N1204 N 0.57139 0.83243 0.23208 0.0
N1205 N 0.56376 0.87 0.29848 0.0
H1206 H 0.93242 0.83688 0.0894 0.0
H1207 H 0.91812 0.88201 0.93359 0.0
H1208 H 0.93463 0.77635 0.02247 0.0
H1209 H 0.94512 0.93737 0.00155 0.0
H1210 H 0.91742 0.84211 0.96462 0.0
H1211 H 0.92705 0.87319 0.05641 0.0
C1212 C 0.93132 0.83111 0.06776 0.0
C1213 C 0.93452 0.80362 0.05869 0.0
C1214 C 0.92352 0.86306 0.97256 0.0
C1215 C 0.92882 0.84533 0.02064 0.0
C1216 C 0.92386 0.88577 0.95492 0.0
C1217 C 0.9313 0.91304 0.96512 0.0
C1218 C 0.92988 0.86802 0.00054 0.0
C1219 C 0.93894 0.91675 0.99284 0.0
C1220 C 0.92848 0.85193 0.04888 0.0
C1221 C 0.93256 0.79738 0.03034 0.0
N1222 N 0.93773 0.89461 0.00957 0.0
N1223 N 0.93016 0.81819 0.0122 0.0
H1224 H 0.69567 0.0294 0.87342 0.0
H1225 H 0.82836 0.95729 0.80867 0.0
H1226 H 0.6967 0.98384 0.79594 0.0
H1227 H 0.80939 0.95061 0.89489 0.0
H1228 H 0.78955 0.98805 0.80424 0.0
H1229 H 0.74544 0.01781 0.8818 0.0
C1230 C 0.70628 0.01693 0.85832 0.0
C1231 C 0.69187 0.00697 0.83426 0.0
C1232 C 0.79471 0.98076 0.82436 0.0
C1233 C 0.74858 0.99528 0.8429 0.0
C1234 C 0.81698 0.96352 0.82691 0.0
C1235 C 0.82225 0.95189 0.85223 0.0
C1236 C 0.77733 0.98581 0.84717 0.0
C1237 C 0.80643 0.95987 0.87519 0.0
C1238 C 0.73458 0.01063 0.86298 0.0
C1239 C 0.70666 0.99138 0.81506 0.0
N1240 N 0.78418 0.97598 0.87205 0.0
N1241 N 0.73417 0.98618 0.81974 0.0
H1242 H 0.79985 0.00066 0.51482 0.0
H1243 H 0.82075 0.12296 0.62534 0.0
H1244 H 0.74194 0.00627 0.58335 0.0
H1245 H 0.86065 0.12496 0.54557 0.0
H1246 H 0.78672 0.08436 0.60883 0.0
H1247 H 0.81909 0.04865 0.52449 0.0
C1248 C 0.79135 0.01199 0.53208 0.0
C1249 C 0.76971 -0.00065 0.54867 0.0
C1250 C 0.80232 0.09386 0.59468 0.0
C1251 C 0.79157 0.05451 0.55992 0.0
C1252 C 0.82146 0.11612 0.60401 0.0
C1253 C 0.84361 0.1268 0.58681 0.0
C1254 C 0.80575 0.08231 0.56816 0.0
C1255 C 0.84397 0.11701 0.55949 0.0
C1256 C 0.80207 0.03955 0.53742 0.0
C1257 C 0.7589 0.01524 0.5703 0.0
N1258 N 0.82575 0.09494 0.55117 0.0
N1259 N 0.77028 0.04191 0.57561 0.0
H1260 H 0.8118 0.08264 0.30033 0.0
H1261 H 0.68859 0.1495 0.37473 0.0
H1262 H 0.79734 0.06204 0.3852 0.0
H1263 H 0.67489 0.11133 0.29435 0.0
H1264 H 0.73063 0.12294 0.38052 0.0
H1265 H 0.76422 0.09966 0.29846 0.0
C1266 C 0.79875 0.08213 0.31871 0.0
C1267 C 0.80861 0.07142 0.34311 0.0
C1268 C 0.71783 0.11972 0.36203 0.0
C1269 C 0.75428 0.09081 0.34103 0.0
C1270 C 0.69367 0.13447 0.35888 0.0
C1271 C 0.67767 0.13148 0.33453 0.0
C1272 C 0.72634 0.10264 0.34032 0.0
C1273 C 0.68627 0.11341 0.31372 0.0
C1274 C 0.7715 0.09145 0.31749 0.0
C1275 C 0.79053 0.07053 0.36614 0.0
N1276 N 0.7103 0.09984 0.31695 0.0
N1277 N 0.76424 0.0806 0.36471 0.0
H1278 H 0.7597 0.10171 0.08572 0.0
H1279 H 0.6809 0.95717 0.03271 0.0
H1280 H 0.68975 0.08931 0.02789 0.0
H1281 H 0.71375 0.96767 0.11512 0.0
H1282 H 0.70576 0.00215 0.0212 0.0
H1283 H 0.75952 0.05038 0.08912 0.0
C1284 C 0.74427 0.0882 0.07393 0.0
C1285 C 0.72415 0.09965 0.05714 0.0
C1286 C 0.70849 0.99412 0.04153 0.0
C1287 C 0.7251 0.04166 0.05956 0.0
C1288 C 0.69477 0.96821 0.04794 0.0
C1289 C 0.69466 0.9593 0.07509 0.0
C1290 C 0.72185 0.01104 0.06254 0.0
C1291 C 0.71296 0.97426 0.09407 0.0
C1292 C 0.74445 0.05911 0.07559 0.0
C1293 C 0.70504 0.0814 0.04174 0.0
N1294 N 0.72501 0.00013 0.08779 0.0
N1295 N 0.70607 0.05337 0.04327 0.0
H1296 H 0.71594 0.11462 0.78361 0.0
H1297 H 0.84233 0.11457 0.67658 0.0
H1298 H 0.72918 0.04081 0.73432 0.0
H1299 H 0.84226 0.17145 0.74661 0.0
H1300 H 0.80301 0.08529 0.69762 0.0
H1301 H 0.76288 0.13528 0.76956 0.0
C1302 C 0.72869 0.10279 0.76971 0.0
C1303 C 0.71852 0.07609 0.75988 0.0
C1304 C 0.81211 0.10384 0.70863 0.0
C1305 C 0.77248 0.09959 0.74376 0.0
C1306 C 0.83469 0.12042 0.69675 0.0
C1307 C 0.84512 0.14573 0.70966 0.0
C1308 C 0.79997 0.1129 0.73336 0.0
C1309 C 0.83441 0.15238 0.7357 0.0
C1310 C 0.75566 0.11447 0.76191 0.0
C1311 C 0.73618 0.06157 0.74222 0.0
N1312 N 0.81208 0.13637 0.74644 0.0
N1313 N 0.76223 0.07364 0.73444 0.0
H1314 H 0.69206 0.96574 0.47596 0.0
H1315 H 0.66842 0.08013 0.37393 0.0
H1316 H 0.76387 0.98421 0.42153 0.0
H1317 H 0.66136 0.09556 0.46109 0.0
H1318 H 0.69855 0.04175 0.38302 0.0
H1319 H 0.67182 0.00808 0.46162 0.0
C1320 C 0.70332 0.97834 0.46054 0.0
C1321 C 0.72986 0.97154 0.45009 0.0
C1322 C 0.69111 0.05421 0.40001 0.0
C1323 C 0.70665 0.02002 0.43374 0.0
C1324 C 0.67435 0.0763 0.39488 0.0
C1325 C 0.66299 0.09132 0.41683 0.0
C1326 C 0.69534 0.04669 0.42721 0.0
C1327 C 0.66991 0.08456 0.44365 0.0
C1328 C 0.69188 0.00264 0.45265 0.0
C1329 C 0.74344 0.98886 0.43019 0.0
N1330 N 0.68515 0.06234 0.44812 0.0
N1331 N 0.73163 0.01248 0.42255 0.0
H1332 H 0.82119 0.98056 0.27323 0.0
H1333 H 0.6963 0.97468 0.16445 0.0
H1334 H 0.80639 0.05356 0.22688 0.0
H1335 H 0.69737 0.92019 0.23354 0.0
H1336 H 0.73557 0.00496 0.18561 0.0
H1337 H 0.77658 0.95752 0.25579 0.0
C1338 C 0.80867 0.99171 0.25916 0.0
C1339 C 0.81752 0.01908 0.25153 0.0
C1340 C 0.72673 0.98668 0.19633 0.0
C1341 C 0.76602 0.99275 0.23164 0.0
C1342 C 0.70423 0.96952 0.18439 0.0
C1343 C 0.69413 0.94457 0.197 0.0
C1344 C 0.739 0.97858 0.22083 0.0
C1345 C 0.70502 0.93889 0.22283 0.0
C1346 C 0.78296 0.97862 0.24945 0.0
C1347 C 0.80029 0.03243 0.23326 0.0
N1348 N 0.7272 0.95551 0.23367 0.0
N1349 N 0.77528 0.01905 0.22378 0.0
H1350 H 0.7761 0.13265 0.91711 0.0
H1351 H 0.83747 0.99565 0.97082 0.0
H1352 H 0.74032 0.08825 0.98698 0.0
H1353 H 0.84589 0.01841 0.88607 0.0
H1354 H 0.80276 0.03073 0.97768 0.0
H1355 H 0.80291 0.09223 0.90523 0.0
C1356 C 0.77361 0.11436 0.92975 0.0
C1357 C 0.75613 0.11399 0.9532 0.0
C1358 C 0.81188 0.02782 0.95747 0.0
C1359 C 0.78691 0.068 0.93997 0.0
C1360 C 0.83162 0.00787 0.95363 0.0
C1361 C 0.84418 0.00426 0.92788 0.0
C1362 C 0.80535 0.04471 0.93554 0.0
C1363 C 0.83635 0.02066 0.90619 0.0
C1364 C 0.78886 0.0913 0.92294 0.0
C1365 C 0.75366 0.08964 0.9688 0.0
N1366 N 0.81763 0.0405 0.91056 0.0
N1367 N 0.76916 0.06783 0.96212 0.0
H1368 H 0.81397 0.72255 0.95219 0.0
H1369 H 0.86796 0.87623 0.97217 0.0
H1370 H 0.82614 0.74738 0.03752 0.0
H1371 H 0.79213 0.85004 0.92514 0.0
H1372 H 0.8612 0.83236 -0.00219 0.0
H1373 H 0.81759 0.77155 0.94021 0.0
C1374 C 0.81802 0.73824 0.96841 0.0
C1375 C 0.81961 0.73077 -0.00406 0.0
C1376 C 0.84571 0.83675 0.98236 0.0
C1377 C 0.82362 0.78707 0.98218 0.0
C1378 C 0.84968 0.86158 0.96765 0.0
C1379 C 0.83191 0.86563 0.94516 0.0
C1380 C 0.8236 0.81653 0.97443 0.0
C1381 C 0.80727 0.84707 0.94138 0.0
C1382 C 0.81971 0.76622 0.96155 0.0
C1383 C 0.82473 0.75229 0.01603 0.0
N1384 N 0.80438 0.82285 0.95516 0.0
N1385 N 0.82663 0.77968 0.00876 0.0
H1386 H 0.35401 0.86064 0.05638 0.0
H1387 H 0.38537 0.72252 0.08498 0.0
H1388 H 0.29101 0.81642 0.00309 0.0
H1389 H 0.30801 0.74765 0.12245 0.0
H1390 H 0.37735 0.75228 0.04588 0.0
H1391 H 0.3687 0.81552 0.07129 0.0
C1392 C 0.34402 0.84145 0.04715 0.0
C1393 C 0.32127 0.84205 0.02868 0.0
C1394 C 0.36174 0.75033 0.06232 0.0
C1395 C 0.33732 0.79099 0.04598 0.0
C1396 C 0.36649 0.73369 0.08474 0.0
C1397 C 0.3485 0.73427 0.10772 0.0
C1398 C 0.33809 0.76632 0.06278 0.0
C1399 C 0.32312 0.74762 0.10558 0.0
C1400 C 0.35248 0.81585 0.05547 0.0
C1401 C 0.30873 0.81666 0.01738 0.0
N1402 N 0.31897 0.7637 0.08375 0.0
N1403 N 0.31612 0.79197 0.0271 0.0
H1404 H 0.93222 0.50666 0.79108 0.0
H1405 H 0.07043 0.61419 0.81786 0.0
H1406 H 0.97588 0.55231 0.7258 0.0
H1407 H 0.0261 0.56451 0.88005 0.0
H1408 H 0.03807 0.59085 0.78311 0.0
H1409 H 0.96816 0.52697 0.82327 0.0
C1410 C 0.94936 0.52108 0.7835 0.0
C1411 C 0.9509 0.52796 0.75571 0.0
C1412 C 0.03564 0.58498 0.80435 0.0
C1413 C 0.99241 0.55145 0.7927 0.0
C1414 C 0.05415 0.59819 0.82417 0.0
C1415 C 0.05085 0.59144 0.85195 0.0
C1416 C 0.01381 0.56488 0.81245 0.0
C1417 C 0.0293 0.57066 0.85896 0.0
C1418 C 0.97001 0.53263 0.80193 0.0
C1419 C 0.97385 0.54651 0.74708 0.0
N1420 N 0.01162 0.55826 0.8394 0.0
N1421 N 0.99367 0.55778 0.76557 0.0
H1422 H 0.16166 0.20304 0.55306 0.0
H1423 H 0.19427 0.35782 0.57548 0.0
H1424 H 0.20934 0.25075 0.49166 0.0
H1425 H 0.11576 0.31593 0.60547 0.0
H1426 H 0.195 0.32246 0.53841 0.0
H1427 H 0.1391 0.24508 0.5674 0.0
C1428 C 0.16685 0.22225 0.5422 0.0
C1429 C 0.1877 0.2236 0.52153 0.0
C1430 C 0.17686 0.32168 0.5523 0.0
C1431 C 0.16267 0.27193 0.53822 0.0
C1432 C 0.17634 0.34206 0.57327 0.0
C1433 C 0.15493 0.33962 0.59335 0.0
C1434 C 0.15637 0.29842 0.55228 0.0
C1435 C 0.1326 0.31839 0.59021 0.0
C1436 C 0.15389 0.24625 0.55026 0.0
C1437 C 0.19351 0.24892 0.5079 0.0
N1438 N 0.13429 0.29809 0.57054 0.0
N1439 N 0.18172 0.27236 0.51705 0.0
H1440 H 0.05412 0.04852 0.75699 0.0
H1441 H 0.94536 0.93663 0.82947 0.0
H1442 H 0.07967 0.96778 0.77932 0.0
H1443 H 0.95572 0.02336 0.85565 0.0
H1444 H 0.98402 0.94587 0.79566 0.0
H1445 H 0.00719 0.0368 0.77799 0.0
C1446 C 0.04972 0.02813 0.76587 0.0
C1447 C 0.07097 0.00919 0.76673 0.0
C1448 C 0.97723 0.96292 0.8084 0.0
C1449 C 0.0172 0.99563 0.79021 0.0
C1450 C 0.95519 0.95773 0.82753 0.0
C1451 C 0.94781 0.97919 0.8456 0.0
C1452 C 0.99101 0.98998 0.80678 0.0
C1453 C 0.96102 0.00623 0.84221 0.0
C1454 C 0.02297 0.02154 0.77783 0.0
C1455 C 0.06401 0.98309 0.77854 0.0
N1456 N 0.98206 0.01088 0.82323 0.0
N1457 N 0.03768 0.97707 0.78993 0.0
H1458 H 0.72124 0.31087 0.5237 0.0
H1459 H 0.66669 0.26373 0.37302 0.0
H1460 H 0.72964 0.36291 0.45261 0.0
H1461 H 0.662 0.20709 0.44073 0.0
H1462 H 0.6889 0.30026 0.40298 0.0
H1463 H 0.69849 0.27274 0.49479 0.0
C1464 C 0.71823 0.31431 0.50206 0.0
C1465 C 0.72723 0.34014 0.49053 0.0
C1466 C 0.683 0.27991 0.41143 0.0
C1467 C 0.70141 0.29671 0.4575 0.0
C1468 C 0.6703 0.25891 0.39427 0.0
C1469 C 0.66225 0.23224 0.40439 0.0
C1470 C 0.6878 0.27443 0.43908 0.0
C1471 C 0.66743 0.22746 0.43218 0.0
C1472 C 0.70531 0.29253 0.4856 0.0
C1473 C 0.72296 0.34341 0.4624 0.0
N1474 N 0.67992 0.24842 0.44864 0.0
N1475 N 0.71036 0.32197 0.44689 0.0
H1476 H 0.92266 0.41249 0.67629 0.0
H1477 H 0.07581 0.473 0.70079 0.0
H1478 H 0.95259 0.42972 0.75921 0.0
H1479 H 0.05883 0.41004 0.63698 0.0
H1480 H 0.03125 0.45573 0.72377 0.0
H1481 H 0.97218 0.4076 0.66189 0.0
C1482 C 0.93953 0.4144 0.69159 0.0
C1483 C 0.93363 0.42211 0.71882 0.0
C1484 C 0.03775 0.44509 0.70521 0.0
C1485 C 0.99013 0.41746 0.70242 0.0
C1486 C 0.06307 0.45498 0.69216 0.0
C1487 C 0.07115 0.44232 0.66753 0.0
C1488 C 0.01989 0.42334 0.69273 0.0
C1489 C 0.05356 0.4197 0.65645 0.0
C1490 C 0.96777 0.41162 0.68339 0.0
C1491 C 0.95623 0.42412 0.73791 0.0
N1492 N 0.02842 0.41118 0.6689 0.0
N1493 N 0.98366 0.42273 0.72919 0.0
H1494 H 0.59512 0.58224 0.18613 0.0
H1495 H 0.47886 0.67678 0.16792 0.0
H1496 H 0.59632 0.65959 0.23315 0.0
H1497 H 0.46097 0.58762 0.15841 0.0
H1498 H 0.51636 0.66963 0.20081 0.0
H1499 H 0.54296 0.58052 0.18378 0.0
C1500 C 0.58424 0.59823 0.19697 0.0
C1501 C 0.59988 0.62087 0.2101 0.0
C1502 C 0.50343 0.65153 0.1926 0.0
C1503 C 0.54039 0.62008 0.20611 0.0
C1504 C 0.48154 0.65571 0.17417 0.0
C1505 C 0.46655 0.6328 0.16091 0.0
C1506 C 0.51111 0.62424 0.1966 0.0
C1507 C 0.47217 0.60581 0.16839 0.0
C1508 C 0.55444 0.59741 0.19547 0.0
C1509 C 0.5849 0.64183 0.22268 0.0
N1510 N 0.4946 0.60221 0.18519 0.0
N1511 N 0.55598 0.64127 0.21987 0.0
H1512 H 0.57972 0.76327 0.85413 0.0
H1513 H 0.57962 0.69573 0.7037 0.0
H1514 H 0.50384 0.75974 0.80364 0.0
H1515 H 0.65433 0.73986 0.74164 0.0
H1516 H 0.5501 0.7127 0.74134 0.0
H1517 H 0.60647 0.74596 0.81491 0.0
C1518 C 0.56856 0.7581 0.83497 0.0
C1519 C 0.53961 0.76267 0.832 0.0
C1520 C 0.57293 0.71882 0.74111 0.0
C1521 C 0.56992 0.74328 0.78718 0.0
C1522 C 0.58974 0.70933 0.7196 0.0
C1523 C 0.61957 0.71605 0.71971 0.0
C1524 C 0.58618 0.7348 0.76283 0.0
C1525 C 0.63153 0.73371 0.74091 0.0
C1526 C 0.58386 0.74865 0.81253 0.0
C1527 C 0.5262 0.75633 0.80659 0.0
N1528 N 0.61487 0.74215 0.76176 0.0
N1529 N 0.54147 0.74684 0.78506 0.0
H1530 H 0.60654 0.29429 0.09335 0.0
H1531 H 0.54089 0.37815 0.97368 0.0
H1532 H 0.5462 0.35661 0.10569 0.0
H1533 H 0.63035 0.36298 0.97106 0.0
H1534 H 0.53665 0.35561 0.01816 0.0
H1535 H 0.61154 0.30793 0.04492 0.0
C1536 C 0.59477 0.31108 0.08597 0.0
C1537 C 0.57625 0.32462 0.10353 0.0
C1538 C 0.55701 0.35655 0.00744 0.0
C1539 C 0.5806 0.33899 0.0485 0.0
C1540 C 0.55935 0.36907 0.982 0.0
C1541 C 0.58591 0.37201 0.96859 0.0
C1542 C 0.58143 0.34702 0.01953 0.0
C1543 C 0.60932 0.36027 0.98036 0.0
C1544 C 0.59742 0.31861 0.05845 0.0
C1545 C 0.5611 0.34595 0.09301 0.0
N1546 N 0.60665 0.3485 0.00545 0.0
N1547 N 0.56331 0.3522 0.0661 0.0
H1548 H 0.01889 0.34295 0.29867 0.0
H1549 H 0.90456 0.41643 0.21422 0.0
H1550 H 0.96284 0.40127 0.33363 0.0
H1551 H 0.95147 0.34859 0.18416 0.0
H1552 H 0.9378 0.42355 0.25308 0.0
H1553 H 0.00718 0.3578 0.25293 0.0
C1554 C 0.00438 0.35923 0.2967 0.0
C1555 C 0.99093 0.37021 0.31985 0.0
C1556 C 0.94141 0.40769 0.23756 0.0
C1557 C 0.97716 0.38699 0.26752 0.0
C1558 C 0.92263 0.4038 0.21532 0.0
C1559 C 0.92558 0.38199 0.19618 0.0
C1560 C 0.96291 0.38931 0.24068 0.0
C1561 C 0.94877 0.36573 0.19856 0.0
C1562 C -0.0022 0.36776 0.27057 0.0
C1563 C 0.97312 0.39184 0.31623 0.0
N1564 N 0.96639 0.36947 0.22069 0.0
N1565 N 0.96614 0.39906 0.29042 0.0
H1566 H 0.93839 0.81438 0.57198 0.0
H1567 H 0.94376 0.6642 0.4983 0.0
H1568 H 0.96544 0.74153 0.61151 0.0
H1569 H 0.92328 0.73749 0.45533 0.0
H1570 H 0.95193 0.69269 0.53984 0.0
H1571 H 0.92984 0.78633 0.52963 0.0
C1572 C 0.94201 0.79238 0.57191 0.0
C1573 C 0.95282 0.78028 0.59522 0.0
C1574 C 0.94571 0.70264 0.52133 0.0
C1575 C 0.94376 0.74837 0.54685 0.0
C1576 C 0.94126 0.68639 0.49744 0.0
C1577 C 0.93212 0.69837 0.47333 0.0
C1578 C 0.941 0.73112 0.52124 0.0
C1579 C 0.92955 0.7273 0.4736 0.0
C1580 C 0.93747 0.77649 0.54765 0.0
C1581 C 0.95732 0.75175 0.59395 0.0
N1582 N 0.93364 0.74269 0.49729 0.0
N1583 N 0.95295 0.73684 0.57012 0.0
H1584 H 0.50455 0.37589 0.69568 0.0
H1585 H 0.57919 0.32116 0.82921 0.0
H1586 H 0.5418 0.29692 0.7007 0.0
H1587 H 0.56728 0.40819 0.8182 0.0
H1588 H 0.55309 0.30952 0.78644 0.0
H1589 H 0.51794 0.38629 0.74379 0.0
C1590 C 0.51572 0.36086 0.7068 0.0
C1591 C 0.52235 0.33563 0.69405 0.0
C1592 C 0.55551 0.3311 0.79372 0.0
C1593 C 0.53685 0.34701 0.74913 0.0
C1594 C 0.57 0.33766 0.81831 0.0
C1595 C 0.57497 0.36559 0.82734 0.0
C1596 C 0.54641 0.35272 0.77784 0.0
C1597 C 0.56317 0.38633 0.81227 0.0
C1598 C 0.52313 0.36672 0.73427 0.0
C1599 C 0.53658 0.31679 0.70952 0.0
N1600 N 0.5498 0.37955 0.78793 0.0
N1601 N 0.54324 0.32283 0.73622 0.0
H1602 H 0.05369 0.32182 0.97931 0.0
H1603 H 0.91609 0.36312 0.06299 0.0
H1604 H 0.96718 0.30924 0.94782 0.0
H1605 H 0.00208 0.39755 0.0809 0.0
H1606 H 0.93467 0.3326 0.02728 0.0
H1607 H 0.03502 0.3392 0.02262 0.0
C1608 C 0.03072 0.32253 0.98153 0.0
C1609 C 0.01198 0.31454 0.95968 0.0
C1610 C 0.94958 0.34625 0.03949 0.0
C1611 C 0.99055 0.33432 0.00937 0.0
C1612 C 0.93901 0.36315 0.06017 0.0
C1613 C 0.95768 0.382 0.07528 0.0
C1614 C 0.97911 0.34845 0.03387 0.0
C1615 C 0.98713 0.38286 0.06988 0.0
C1616 C 0.02012 0.33244 0.00631 0.0
C1617 C 0.98242 0.31545 0.96399 0.0
N1618 N -0.00302 0.36635 0.04948 0.0
N1619 N 0.97261 0.32545 0.9883 0.0
H1620 H 0.95805 0.69796 0.1826 0.0
H1621 H 0.93952 0.75796 0.3352 0.0
H1622 H 0.94107 0.78221 0.20642 0.0
H1623 H 0.92745 0.66976 0.31534 0.0
H1624 H 0.9584 0.76636 0.28914 0.0
H1625 H 0.96101 0.68675 0.23167 0.0
C1626 C 0.95487 0.71399 0.19809 0.0
C1627 C 0.94853 0.74081 0.19047 0.0
C1628 C 0.95237 0.74503 0.29503 0.0
C1629 C 0.95314 0.72861 0.24606 0.0
C1630 C 0.94203 0.74024 0.32144 0.0
C1631 C 0.93177 0.71322 0.32882 0.0
C1632 C 0.95166 0.72271 0.27573 0.0
C1633 C 0.93524 0.69091 0.31027 0.0
C1634 C 0.95683 0.70768 0.22595 0.0
C1635 C 0.94518 0.76102 0.21126 0.0
N1636 N 0.94417 0.69621 0.28416 0.0
N1637 N 0.94753 0.7545 0.23797 0.0
H1638 H 0.56627 0.77728 0.48687 0.0
H1639 H 0.63694 0.66663 0.57728 0.0
H1640 H 0.62552 0.72081 0.45465 0.0
H1641 H 0.56897 0.71601 0.6039 0.0
H1642 H 0.64415 0.69573 0.53675 0.0
H1643 H 0.57845 0.76497 0.53338 0.0
C1644 C 0.58226 0.76256 0.48974 0.0
C1645 C 0.59465 0.74966 0.46712 0.0
C1646 C 0.62829 0.70079 0.55188 0.0
C1647 C 0.60817 0.73484 0.52021 0.0
C1648 C 0.62442 0.68443 0.57514 0.0
C1649 C 0.60265 0.68938 0.59401 0.0
C1650 C 0.60993 0.7219 0.54743 0.0
C1651 C 0.58625 0.71191 0.58995 0.0
C1652 C 0.5892 0.75551 0.51627 0.0
C1653 C 0.61541 0.73097 0.47173 0.0
N1654 N 0.59003 0.72719 0.56695 0.0
N1655 N 0.62114 0.72363 0.49787 0.0
H1656 H 0.80989 0.54004 0.74392 0.0
H1657 H 0.72514 0.62322 0.64234 0.0
H1658 H 0.82526 0.53355 0.65679 0.0
H1659 H 0.69481 0.60305 0.72349 0.0
H1660 H 0.75669 0.58508 0.64389 0.0
H1661 H 0.76423 0.55845 0.73498 0.0
C1662 C 0.80362 0.54263 0.7228 0.0
C1663 C 0.82167 0.53602 0.70103 0.0
C1664 C 0.74236 0.58824 0.66095 0.0
C1665 C 0.76917 0.55728 0.69055 0.0
C1666 C 0.72416 0.6098 0.65994 0.0
C1667 C 0.70725 0.61587 0.68272 0.0
C1668 C 0.74425 0.57352 0.68533 0.0
C1669 C 0.70728 0.59862 0.70539 0.0
C1670 C 0.77731 0.55282 0.71768 0.0
C1671 C 0.81209 0.53893 0.6741 0.0
N1672 N 0.72599 0.57856 0.70638 0.0
N1673 N 0.78668 0.55 0.66957 0.0
H1674 H 0.73903 0.60014 0.01316 0.0
H1675 H 0.70052 0.46991 0.91062 0.0
H1676 H 0.74887 0.60298 0.92514 0.0
H1677 H 0.65884 0.48215 0.98838 0.0
H1678 H 0.734 0.51111 0.92117 0.0
H1679 H 0.72466 0.54993 0.00881 0.0
C1680 C 0.73854 0.59016 0.99296 0.0
C1681 C 0.74476 0.60585 0.96942 0.0
C1682 C 0.718 0.50423 0.93622 0.0
C1683 C 0.72853 0.5485 0.9644 0.0
C1684 C 0.69905 0.48071 0.93026 0.0
C1685 C 0.6764 0.47335 0.94825 0.0
C1686 C 0.71451 0.51985 0.9606 0.0
C1687 C 0.67569 0.48762 0.97371 0.0
C1688 C 0.73038 0.56153 0.99053 0.0
C1689 C 0.74382 0.59178 0.94379 0.0
N1690 N 0.69417 0.51049 0.97897 0.0
N1691 N 0.7356 0.56393 0.94193 0.0
H1692 H 0.66211 0.45857 0.18547 0.0
H1693 H 0.83158 0.47573 0.15735 0.0
H1694 H 0.70694 0.53655 0.16129 0.0
H1695 H 0.78384 0.39891 0.18026 0.0
H1696 H 0.7868 0.499 0.15843 0.0
H1697 H 0.7068 0.43629 0.18157 0.0
C1698 C 0.68124 0.47094 0.17886 0.0
C1699 C 0.68072 0.49956 0.17394 0.0
C1700 C 0.78623 0.47704 0.16321 0.0
C1701 C 0.73237 0.4742 0.16989 0.0
C1702 C 0.81179 0.46378 0.1625 0.0
C1703 C 0.81155 0.43517 0.16793 0.0
C1704 C 0.76028 0.46156 0.16967 0.0
C1705 C 0.78531 0.42092 0.17558 0.0
C1706 C 0.70689 0.45823 0.17687 0.0
C1707 C 0.70631 0.51445 0.16542 0.0
N1708 N 0.76086 0.43418 0.17604 0.0
N1709 N 0.73116 0.50166 0.16392 0.0
H1710 H 0.80013 0.5 0.5181 0.0
H1711 H 0.8007 0.61323 0.40899 0.0
H1712 H 0.74363 0.49052 0.448 0.0
H1713 H 0.83459 0.62892 0.49046 0.0
H1714 H 0.76993 0.5736 0.42587 0.0
H1715 H 0.806 0.55018 0.51129 0.0
C1716 C 0.78911 0.50852 0.5011 0.0
C1717 C 0.77206 0.49105 0.48307 0.0
C1718 C 0.78312 0.5864 0.44039 0.0
C1719 C 0.7785 0.54868 0.47518 0.0
C1720 C 0.80031 0.60937 0.43081 0.0
C1721 C 0.8204 0.6239 0.44837 0.0
C1722 C 0.78671 0.57796 0.46749 0.0
C1723 C 0.81948 0.61791 0.47631 0.0
C1724 C 0.79207 0.53728 0.49747 0.0
C1725 C 0.75747 0.5033 0.46199 0.0
N1726 N 0.80363 0.59477 0.48491 0.0
N1727 N 0.76148 0.53137 0.45825 0.0
H1728 H 0.81848 0.50953 0.81591 0.0
H1729 H 0.66148 0.44302 0.78965 0.0
H1730 H 0.78815 0.46465 0.74225 0.0
H1731 H 0.6894 0.48257 0.86631 0.0
H1732 H 0.70256 0.46707 0.76684 0.0
H1733 H 0.76861 0.51248 0.83037 0.0
C1734 C 0.80135 0.50028 0.80281 0.0
C1735 C 0.80746 0.48599 0.7783 0.0
C1736 C 0.69938 0.47125 0.78853 0.0
C1737 C 0.75052 0.49 0.79426 0.0
C1738 C 0.67562 0.45789 0.80143 0.0
C1739 C 0.67283 0.4602 0.82998 0.0
C1740 C 0.72071 0.48619 0.80461 0.0
C1741 C 0.69146 0.47974 0.84435 0.0
C1742 C 0.77291 0.50228 0.8109 0.0
C1743 C 0.78448 0.47503 0.76176 0.0
N1744 N 0.71542 0.49122 0.83172 0.0
N1745 N 0.75709 0.47706 0.77016 0.0
H1746 H 0.79253 0.60578 0.10037 0.0
H1747 H 0.84722 0.45859 0.05635 0.0
H1748 H 0.79581 0.57143 0.01787 0.0
H1749 H 0.87194 0.50348 0.13133 0.0
H1750 H 0.81038 0.49105 0.04913 0.0
H1751 H 0.80492 0.56057 0.11788 0.0
C1752 C 0.79536 0.58861 0.08605 0.0
C1753 C 0.79399 0.59242 0.05766 0.0
C1754 C 0.8231 0.49316 0.06774 0.0
C1755 C 0.8074 0.541 0.07733 0.0
C1756 C 0.84383 0.47445 0.07197 0.0
C1757 C 0.86217 0.47834 0.0946 0.0
C1758 C 0.82136 0.51615 0.08598 0.0
C1759 C 0.85777 0.49973 0.11382 0.0
C1760 C 0.80233 0.56289 0.09599 0.0
C1761 C 0.79746 0.56953 0.0399 0.0
N1762 N 0.83809 0.5182 0.10889 0.0
N1763 N 0.80426 0.54491 0.05 0.0
H1764 H 0.71859 0.55544 0.25786 0.0
H1765 H 0.77928 0.66021 0.37676 0.0
H1766 H 0.66629 0.5965 0.31686 0.0
H1767 H 0.83352 0.62325 0.31696 0.0
H1768 H 0.73862 0.62913 0.36042 0.0
H1769 H 0.76126 0.57191 0.28437 0.0
C1770 C 0.71599 0.56744 0.27669 0.0
C1771 C 0.68888 0.57516 0.28489 0.0
C1772 C 0.75937 0.62755 0.35089 0.0
C1773 C 0.73762 0.59411 0.31513 0.0
C1774 C 0.7825 0.64534 0.36016 0.0
C1775 C 0.80941 0.64442 0.34777 0.0
C1776 C 0.76301 0.60915 0.32856 0.0
C1777 C 0.81289 0.62456 0.32678 0.0
C1778 C 0.74041 0.57688 0.29176 0.0
C1779 C 0.68679 0.59047 0.30954 0.0
N1780 N 0.7897 0.60793 0.31741 0.0
N1781 N 0.7109 0.59976 0.32358 0.0
H1782 H 0.6718 0.45153 0.52854 0.0
H1783 H 0.6795 0.57529 0.64138 0.0
H1784 H 0.73711 0.46083 0.59142 0.0
H1785 H 0.63011 0.57514 0.56693 0.0
H1786 H 0.69936 0.53213 0.62557 0.0
H1787 H 0.6528 0.49428 0.54578 0.0
C1788 C 0.68185 0.46226 0.54631 0.0
C1789 C 0.70621 0.45268 0.55844 0.0
C1790 C 0.68456 0.54178 0.61247 0.0
C1791 C 0.68477 0.50192 0.57804 0.0
C1792 C 0.67376 0.56671 0.62125 0.0
C1793 C 0.65398 0.57917 0.60503 0.0
C1794 C 0.67501 0.52905 0.58749 0.0
C1795 C 0.64558 0.56625 0.57988 0.0
C1796 C 0.67117 0.48687 0.55595 0.0
C1797 C 0.71837 0.46757 0.58136 0.0
N1798 N 0.65608 0.54182 0.5719 0.0
N1799 N 0.70759 0.49158 0.59035 0.0
H1800 H 0.76924 0.85491 0.58664 0.0
H1801 H 0.64704 0.73378 0.60589 0.0
H1802 H 0.68554 0.85935 0.5506 0.0
H1803 H 0.73708 0.72199 0.61135 0.0
H1804 H 0.65906 0.77859 0.58397 0.0
H1805 H 0.75614 0.80635 0.59753 0.0
C1806 C 0.7479 0.84582 0.58139 0.0
C1807 C 0.72839 0.86128 0.5678 0.0
C1808 C 0.67615 0.76581 0.58921 0.0
C1809 C 0.71339 0.80534 0.57986 0.0
C1810 C 0.66925 0.73996 0.60119 0.0
C1811 C 0.6911 0.72406 0.61004 0.0
C1812 C 0.70508 0.77595 0.58684 0.0
C1813 C 0.71964 0.73369 0.60475 0.0
C1814 C 0.74059 0.8179 0.58723 0.0
C1815 C 0.70117 0.84817 0.56119 0.0
N1816 N 0.72585 0.75925 0.59393 0.0
N1817 N 0.69438 0.82091 0.56741 0.0
H1818 H 0.13723 0.72028 0.47472 0.0
H1819 H 0.21169 0.86078 0.41283 0.0
H1820 H 0.22754 0.73886 0.45903 0.0
H1821 H 0.12196 0.8345 0.40219 0.0
H1822 H 0.21509 0.82408 0.44636 0.0
H1823 H 0.12924 0.76885 0.46289 0.0
C1824 C 0.15529 0.73465 0.46907 0.0
C1825 C 0.18289 0.72553 0.46692 0.0
C1826 C 0.19441 0.82687 0.43735 0.0
C1827 C 0.17423 0.7806 0.45439 0.0
C1828 C 0.19247 0.84795 0.41847 0.0
C1829 C 0.16649 0.85066 0.40515 0.0
C1830 C 0.17039 0.80789 0.44211 0.0
C1831 C 0.14224 0.83327 0.41257 0.0
C1832 C 0.1508 0.76224 0.46248 0.0
C1833 C 0.20577 0.74489 0.46006 0.0
N1834 N 0.14487 0.81213 0.43019 0.0
N1835 N 0.20091 0.7714 0.4539 0.0
H1836 H 0.56804 0.0024 0.76681 0.0
H1837 H 0.49284 0.99463 0.61973 0.0
H1838 H 0.60176 0.04727 0.69651 0.0
H1839 H 0.44549 0.97416 0.69369 0.0
H1840 H 0.53514 0.00838 0.64719 0.0
H1841 H 0.52571 0.98512 0.73964 0.0
C1842 C 0.56677 0.00821 0.74554 0.0
C1843 C 0.58841 0.02631 0.73382 0.0
C1844 C 0.51556 0.00082 0.65749 0.0
C1845 C 0.54016 0.00687 0.70292 0.0
C1846 C 0.49125 0.99309 0.64184 0.0
C1847 C 0.46557 0.9828 0.65439 0.0
C1848 C 0.51444 -0.00173 0.68606 0.0
C1849 C 0.46505 0.98111 0.68311 0.0
C1850 C 0.54251 -0.0014 0.73019 0.0
C1851 C 0.58555 0.03345 0.70634 0.0
N1852 N 0.48922 0.98867 0.69805 0.0
N1853 N 0.56189 0.02372 0.69184 0.0
H1854 H 0.36184 0.36952 0.99068 0.0
H1855 H 0.29051 0.2147 0.9601 0.0
H1856 H 0.27602 0.33882 0.01361 0.0
H1857 H 0.36129 0.25382 0.91443 0.0
H1858 H 0.29453 0.25454 0.99295 0.0
H1859 H 0.3712 0.32151 0.9762 0.0
C1860 C 0.3453 0.35255 0.99325 0.0
C1861 C 0.31796 0.35794 0.00258 0.0
C1862 C 0.30972 0.254 0.97618 0.0
C1863 C 0.32832 0.30367 0.98642 0.0
C1864 C 0.30747 0.2313 0.95761 0.0
C1865 C 0.326 0.23095 0.93509 0.0
C1866 C 0.33019 0.27666 0.97165 0.0
C1867 C 0.34713 0.25317 0.93207 0.0
C1868 C 0.35056 0.32531 0.98498 0.0
C1869 C 0.29719 0.33542 0.00584 0.0
N1870 N 0.34848 0.27535 0.94999 0.0
N1871 N 0.30267 0.3093 -0.00254 0.0
H1872 H 0.45687 0.59568 0.79183 0.0
H1873 H 0.58564 0.5633 0.69494 0.0
H1874 H 0.47626 0.51251 0.76656 0.0
H1875 H 0.57394 0.64579 0.72745 0.0
H1876 H 0.55197 0.54338 0.72907 0.0
H1877 H 0.5045 0.61381 0.77593 0.0
C1878 C 0.47124 0.58123 0.78321 0.0
C1879 C 0.46231 0.55271 0.77974 0.0
C1880 C 0.55733 0.5658 0.7294 0.0
C1881 C 0.51669 0.57316 0.76168 0.0
C1882 C 0.5768 0.57707 0.7101 0.0
C1883 C 0.58252 0.60609 0.7087 0.0
C1884 C 0.54289 0.58383 0.74674 0.0
C1885 C 0.57011 0.62325 0.72821 0.0
C1886 C 0.49846 0.59154 0.77424 0.0
C1887 C 0.48193 0.53481 0.76889 0.0
N1888 N 0.55033 0.61191 0.74612 0.0
N1889 N 0.50799 0.54537 0.75992 0.0
H1890 H 0.73819 0.25192 0.02651 0.0
H1891 H 0.88483 0.32633 0.07669 0.0
H1892 H 0.81976 0.21854 0.01166 0.0
H1893 H 0.80717 0.36834 0.07655 0.0
H1894 H 0.86301 0.29084 0.04505 0.0
H1895 H 0.76335 0.29732 0.03842 0.0
C1896 C 0.76141 0.25417 0.02563 0.0
C1897 C 0.77697 0.23122 0.01871 0.0
C1898 C 0.8509 0.30824 0.05106 0.0
C1899 C 0.80586 0.28321 0.03217 0.0
C1900 C 0.86365 0.32889 0.06871 0.0
C1901 C 0.84809 0.35075 0.07842 0.0
C1902 C 0.82183 0.30867 0.04419 0.0
C1903 C 0.82002 0.35209 0.06893 0.0
C1904 C 0.77575 0.28019 0.0322 0.0
C1905 C 0.80694 0.23552 0.01731 0.0
N1906 N 0.80749 0.33091 0.05278 0.0
N1907 N 0.82041 0.26089 0.02439 0.0
H1908 H 0.58348 0.13041 0.81448 0.0
H1909 H 0.42103 0.11659 0.85807 0.0
H1910 H 0.52776 0.05382 0.81349 0.0
H1911 H 0.47856 0.19075 0.87038 0.0
H1912 H 0.4543 0.09916 0.82421 0.0
H1913 H 0.54128 0.15696 0.81939 0.0
C1914 C 0.5624 0.11919 0.81517 0.0
C1915 C 0.5592 0.08984 0.81452 0.0
C1916 C 0.45918 0.11977 0.83347 0.0
C1917 C 0.51088 0.12003 0.81976 0.0
C1918 C 0.43993 0.1299 0.85244 0.0
C1919 C 0.44753 0.15481 0.86717 0.0
C1920 C 0.48614 0.13464 0.82985 0.0
C1921 C 0.47229 0.17122 0.8595 0.0
C1922 C 0.5383 0.13434 0.8177 0.0
C1923 C 0.53133 0.07641 0.81473 0.0
N1924 N 0.49123 0.16049 0.8419 0.0
N1925 N 0.5083 0.09158 0.81775 0.0
H1926 H 0.91563 0.93829 0.31361 0.0
H1927 H 0.07388 -0.0028 0.34936 0.0
H1928 H 0.94729 0.02301 0.33615 0.0
H1929 H 0.04169 0.91156 0.36118 0.0
H1930 H 0.03312 0.00295 0.31933 0.0
H1931 H 0.96564 0.92597 0.31035 0.0
C1932 C 0.93301 0.95422 0.31784 0.0
C1933 C 0.92731 0.98143 0.32608 0.0
C1934 C 0.03561 0.98252 0.32754 0.0
C1935 C 0.98391 0.96799 0.3209 0.0
C1936 C 0.05896 0.97923 0.34443 0.0
C1937 C 0.06062 0.95404 0.35781 0.0
C1938 C 0.01343 0.96085 0.3254 0.0
C1939 C 0.04082 0.93135 0.35115 0.0
C1940 C 0.96138 0.94731 0.31552 0.0
C1941 C 0.95053 0.00152 0.33061 0.0
N1942 N 0.01733 0.9355 0.33603 0.0
N1943 N 0.97771 0.99435 0.32803 0.0
H1944 H 0.50022 0.37153 0.20639 0.0
H1945 H 0.42088 0.32987 0.34001 0.0
H1946 H 0.50391 0.28868 0.23793 0.0
H1947 H 0.45548 0.41461 0.32769 0.0
H1948 H 0.45409 0.31366 0.30534 0.0
H1949 H 0.48616 0.38798 0.25194 0.0
C1950 C 0.49835 0.35688 0.22298 0.0
C1951 C 0.50284 0.32865 0.21831 0.0
C1952 C 0.45518 0.33572 0.31089 0.0
C1953 C 0.48655 0.34723 0.27037 0.0
C1954 C 0.43637 0.34491 0.33076 0.0
C1955 C 0.43585 0.37357 0.33678 0.0
C1956 C 0.47269 0.3555 0.29631 0.0
C1957 C 0.45579 0.39236 0.32391 0.0
C1958 C 0.49057 0.36631 0.24902 0.0
C1959 C 0.50045 0.3106 0.24061 0.0
N1960 N 0.47295 0.3831 0.30371 0.0
N1961 N 0.49188 0.32007 0.26558 0.0
H1962 H 0.45622 0.84656 0.97367 0.0
H1963 H 0.48275 0.70329 0.04209 0.0
H1964 H 0.46543 0.76931 0.92845 0.0
H1965 H 0.42671 0.75809 0.08305 0.0
H1966 H 0.48683 0.7346 0.00379 0.0
H1967 H 0.45221 0.82013 0.01644 0.0
C1968 C 0.45699 0.82406 0.97265 0.0
C1969 C 0.46119 0.81013 0.94737 0.0
C1970 C 0.47367 0.73983 0.02118 0.0
C1971 C 0.4576 0.78022 -0.0039 0.0
C1972 C 0.47144 0.72205 0.04328 0.0
C1973 C 0.45344 0.72739 0.0656 0.0
C1974 C 0.45814 0.7635 0.02124 0.0
C1975 C 0.44012 0.75263 0.06597 0.0
C1976 C 0.45481 0.8091 -0.00295 0.0
C1977 C 0.46214 0.781 0.94732 0.0
N1978 N 0.44246 0.76969 0.04389 0.0
N1979 N 0.46078 0.76714 0.97129 0.0
H1980 H 0.97517 0.73393 0.72666 0.0
H1981 H 0.08814 0.74972 0.84862 0.0
H1982 H 0.04696 0.79636 0.73455 0.0
H1983 H 0.0416 0.67131 0.82553 0.0
H1984 H 0.05718 0.77398 0.81861 0.0
H1985 H 0.98593 0.71738 0.77259 0.0
C1986 C 0.99308 0.74417 0.73815 0.0
C1987 C 0.01085 0.76584 0.72665 0.0
C1988 C 0.05306 0.75158 0.82081 0.0
C1989 C 0.02241 0.74797 0.77905 0.0
C1990 C 0.07048 0.73784 0.8381 0.0
C1991 C 0.06731 0.70865 0.83912 0.0
C1992 C 0.03297 0.73578 0.8041 0.0
C1993 C 0.04451 0.69393 0.82505 0.0
C1994 C -0.001 0.73492 0.7643 0.0
C1995 C 0.03338 0.77893 0.74239 0.0
N1996 N 0.0285 0.70763 0.80744 0.0
N1997 N 0.0386 0.76968 0.76776 0.0
H1998 H 0.06191 0.39435 0.41108 0.0
H1999 H 0.11366 0.36239 0.56214 0.0
H2000 H 0.0793 0.31176 0.43574 0.0
H2001 H 0.07131 0.4354 0.54159 0.0
H2002 H 0.10758 0.34497 0.51479 0.0
H2003 H 0.07454 0.41234 0.45727 0.0
C2004 C 0.06928 0.3802 0.42599 0.0
C2005 C 0.0694 0.35155 0.41984 0.0
C2006 C 0.09939 0.36467 0.52075 0.0
C2007 C 0.08317 0.37171 0.47259 0.0
C2008 C 0.10257 0.37443 0.54785 0.0
C2009 C 0.09308 0.40034 0.55586 0.0
C2010 C 0.08659 0.38103 0.50156 0.0
C2011 C 0.07916 0.41538 0.5363 0.0
C2012 C 0.07603 0.39036 0.45243 0.0
C2013 C 0.07874 0.33398 0.43991 0.0
N2014 N 0.07649 0.40557 0.51001 0.0
N2015 N 0.08505 0.34431 0.46556 0.0
H2016 H 0.53209 0.72326 0.33206 0.0
H2017 H 0.45633 0.77513 0.1974 0.0
H2018 H 0.50074 0.80464 0.32368 0.0
H2019 H 0.45878 0.68792 0.21518 0.0
H2020 H 0.4846 0.78743 0.23889 0.0
H2021 H 0.51561 0.7109 0.28498 0.0
C2022 C 0.52169 0.73844 0.3204 0.0
C2023 C 0.51728 0.7648 0.332 0.0
C2024 C 0.47963 0.76556 0.23332 0.0
C2025 C 0.49926 0.75117 0.27818 0.0
C2026 C 0.4638 0.75856 0.20951 0.0
C2027 C 0.45596 0.73045 0.20249 0.0
C2028 C 0.48729 0.74427 0.25044 0.0
C2029 C 0.46551 0.70976 0.21922 0.0
C2030 C 0.51245 0.73145 0.29357 0.0
C2031 C 0.50407 0.78386 0.31585 0.0
N2032 N 0.48045 0.71706 0.24262 0.0
N2033 N 0.4956 0.77668 0.28984 0.0
H2034 H 0.08444 0.78277 0.0672 0.0
H2035 H 0.04517 0.70089 0.92684 0.0
H2036 H -0.00047 0.7578 0.03638 0.0
H2037 H 0.1198 0.6886 0.97509 0.0
H2038 H 0.03719 0.74227 0.95546 0.0
H2039 H 0.10458 0.7673 0.02306 0.0
C2040 C 0.07012 0.77451 0.05095 0.0
C2041 C 0.04048 0.77054 0.05547 0.0
C2042 C 0.05604 0.73123 0.95902 0.0
C2043 C 0.06295 0.75405 0.00528 0.0
C2044 C 0.06066 0.70781 0.94262 0.0
C2045 C 0.08306 0.69157 0.94891 0.0
C2046 C 0.07373 0.73787 0.98195 0.0
C2047 C 0.10236 0.70088 0.96973 0.0
C2048 C 0.08153 0.76592 0.02587 0.0
C2049 C 0.0226 0.76029 0.03385 0.0
N2050 N 0.09695 0.72321 0.986 0.0
N2051 N 0.03413 0.75217 0.00973 0.0
H2052 H 0.02365 0.33544 0.83568 0.0
H2053 H 0.09958 0.41659 0.71196 0.0
H2054 H 0.10001 0.39199 0.84513 0.0
H2055 H 0.07286 0.32852 0.70523 0.0
H2056 H 0.08094 0.4177 0.75876 0.0
H2057 H 0.02477 0.34296 0.78614 0.0
C2058 C 0.04008 0.35022 0.82742 0.0
C2059 C 0.06179 0.36326 0.84437 0.0
C2060 C 0.07819 0.3984 0.74666 0.0
C2061 C 0.06275 0.37212 0.78815 0.0
C2062 C 0.08822 0.39784 0.7198 0.0
C2063 C 0.08691 0.37262 0.70453 0.0
C2064 C 0.06687 0.3735 0.7583 0.0
C2065 C 0.07376 0.34844 0.71628 0.0
C2066 C 0.04073 0.35429 0.79922 0.0
C2067 C 0.08294 0.38164 0.83265 0.0
N2068 N 0.06437 0.3494 0.74271 0.0
N2069 N 0.08291 0.38557 0.80512 0.0
H2070 H 0.48917 0.34565 0.5684 0.0
H2071 H 0.3854 0.40449 0.46336 0.0
H2072 H 0.40838 0.29816 0.55093 0.0
H2073 H 0.47707 0.41183 0.45237 0.0
H2074 H 0.39031 0.36781 0.49706 0.0
H2075 H 0.48229 0.37397 0.52857 0.0
C2076 C 0.46976 0.34141 0.55636 0.0
C2077 C 0.44913 0.31976 0.56313 0.0
C2078 C 0.4092 0.37688 0.4866 0.0
C2079 C 0.44121 0.3521 0.5174 0.0
C2080 C 0.40638 0.39749 0.46719 0.0
C2081 C 0.43084 0.41049 0.45467 0.0
C2082 C 0.4367 0.36995 0.4938 0.0
C2083 C 0.45772 0.40187 0.46134 0.0
C2084 C 0.46604 0.35736 0.53342 0.0
C2085 C 0.42468 0.31483 0.54642 0.0
N2086 N 0.45999 0.38235 0.48068 0.0
N2087 N 0.42116 0.33117 0.5244 0.0
H2088 H 0.22792 0.55897 0.3232 0.0
H2089 H 0.30064 0.43252 0.3901 0.0
H2090 H 0.18481 0.5028 0.38081 0.0
H2091 H 0.33206 0.47504 0.31787 0.0
H2092 H 0.26491 0.46677 0.39625 0.0
H2093 H 0.27235 0.53727 0.33089 0.0
C2094 C 0.22783 0.54221 0.33771 0.0
C2095 C 0.20235 0.53216 0.35084 0.0
C2096 C 0.27997 0.46896 0.37938 0.0
C2097 C 0.25333 0.50712 0.35957 0.0
C2098 C 0.30044 0.44962 0.376 0.0
C2099 C 0.31924 0.45125 0.35355 0.0
C2100 C 0.27818 0.48985 0.35995 0.0
C2101 C 0.318 0.47333 0.33554 0.0
C2102 C 0.25327 0.52987 0.34208 0.0
C2103 C 0.2038 0.5109 0.36992 0.0
N2104 N 0.2976 0.49168 0.33899 0.0
N2105 N 0.22878 0.49875 0.37338 0.0
H2106 H 0.31154 0.49895 0.00979 0.0
H2107 H 0.32963 0.62848 0.11141 0.0
H2108 H 0.24542 0.51431 0.06873 0.0
H2109 H 0.37498 0.62329 0.03459 0.0
H2110 H 0.29509 0.59018 0.09515 0.0
H2111 H 0.33321 0.54629 0.01811 0.0
C2112 C 0.30172 0.51229 0.02469 0.0
C2113 C 0.27702 0.50259 0.03902 0.0
C2114 C 0.31211 0.59802 0.08156 0.0
C2115 C 0.30166 0.55705 0.04864 0.0
C2116 C 0.33164 0.62003 0.09074 0.0
C2117 C 0.35544 0.62855 0.07448 0.0
C2118 C 0.31675 0.58461 0.05614 0.0
C2119 C 0.35719 0.6169 0.04793 0.0
C2120 C 0.31387 0.53949 0.02919 0.0
C2121 C 0.26471 0.521 0.05754 0.0
N2122 N 0.33849 0.59515 0.03981 0.0
N2123 N 0.27746 0.5473 0.06221 0.0
H2124 H 0.28847 0.53253 0.88048 0.0
H2125 H 0.17093 0.60679 0.79711 0.0
H2126 H 0.3016 0.56459 0.7991 0.0
H2127 H 0.18983 0.62913 0.88155 0.0
H2128 H 0.20718 0.57267 0.79827 0.0
H2129 H 0.2407 0.5508 0.88127 0.0
C2130 C 0.28124 0.54332 0.86285 0.0
C2131 C 0.29915 0.54792 0.84002 0.0
C2132 C 0.20236 0.58418 0.81689 0.0
C2133 C 0.24469 0.56729 0.84035 0.0
C2134 C 0.18165 0.60342 0.81628 0.0
C2135 C 0.1766 0.61979 0.8397 0.0
C2136 C 0.21811 0.58158 0.84102 0.0
C2137 C 0.19177 0.61555 0.86375 0.0
C2138 C 0.25409 0.55349 0.86328 0.0
C2139 C 0.28872 0.56142 0.8174 0.0
N2140 N 0.2121 0.59698 0.86379 0.0
N2141 N 0.26214 0.57062 0.81811 0.0
H2142 H 0.19638 0.59023 0.52793 0.0
H2143 H 0.21892 0.48176 0.63552 0.0
H2144 H 0.26353 0.60775 0.58803 0.0
H2145 H 0.18732 0.4587 0.55456 0.0
H2146 H 0.243 0.52463 0.61755 0.0
H2147 H 0.19624 0.54061 0.53686 0.0
C2148 C 0.21081 0.5836 0.54338 0.0
C2149 C 0.22944 0.60312 0.55785 0.0
C2150 C 0.23194 0.50963 0.6034 0.0
C2151 C 0.22979 0.54611 0.56787 0.0
C2152 C 0.21862 0.48485 0.61359 0.0
C2153 C 0.20057 0.46714 0.59657 0.0
C2154 C 0.22666 0.51654 0.57617 0.0
C2155 C 0.20077 0.47211 0.56839 0.0
C2156 C 0.21117 0.55519 0.54805 0.0
C2157 C 0.24845 0.59329 0.57688 0.0
N2158 N 0.21255 0.49699 0.55918 0.0
N2159 N 0.24776 0.56541 0.58179 0.0
H2160 H 0.2229 0.54689 0.2152 0.0
H2161 H 0.35812 0.65766 0.23879 0.0
H2162 H 0.22672 0.61866 0.27071 0.0
H2163 H 0.34333 0.61384 0.16111 0.0
H2164 H 0.31734 0.62964 0.25817 0.0
H2165 H 0.27261 0.56054 0.20106 0.0
C2166 C 0.23415 0.56553 0.2243 0.0
C2167 C 0.2206 0.58195 0.24382 0.0
C2168 C 0.32343 0.62566 0.23706 0.0
C2169 C 0.27734 0.59682 0.22867 0.0
C2170 C 0.34687 0.64138 0.22611 0.0
C2171 C 0.3536 0.63835 0.19823 0.0
C2172 C 0.30649 0.60707 0.21989 0.0
C2173 C 0.33857 0.61688 0.18267 0.0
C2174 C 0.26246 0.57312 0.21639 0.0
C2175 C 0.23614 0.60568 0.25524 0.0
N2176 N 0.31509 0.60242 0.19354 0.0
N2177 N 0.2637 0.61232 0.24757 0.0
H2178 H 0.20619 0.44623 0.93258 0.0
H2179 H 0.19544 0.61129 0.92835 0.0
H2180 H 0.27872 0.50658 0.94739 0.0
H2181 H 0.12408 0.54862 0.91919 0.0
H2182 H 0.22816 0.5738 0.92932 0.0
H2183 H 0.17812 0.48396 0.91865 0.0
C2184 C 0.21637 0.46738 0.9323 0.0
C2185 C 0.24455 0.47342 0.94167 0.0
C2186 C 0.20534 0.56833 0.92695 0.0
C2187 C 0.21239 0.51679 0.92672 0.0
C2188 C 0.18677 0.58966 0.92649 0.0
C2189 C 0.15718 0.58287 0.9238 0.0
C2190 C 0.19406 0.54024 0.92444 0.0
C2191 C 0.1468 0.55465 0.92163 0.0
C2192 C 0.2003 0.48897 0.92458 0.0
C2193 C 0.2569 0.5011 0.94056 0.0
N2194 N 0.16521 0.53439 0.92195 0.0
N2195 N 0.24051 0.52194 0.93384 0.0
H2196 H 0.29849 0.55309 0.74001 0.0
H2197 H 0.22891 0.39934 0.71085 0.0
H2198 H 0.34594 0.47978 0.73624 0.0
H2199 H 0.18862 0.4702 0.68045 0.0
H2200 H 0.26971 0.43058 0.72578 0.0
H2201 H 0.25684 0.5252 0.72004 0.0
C2202 C 0.3004 0.53137 0.73431 0.0
C2203 C 0.32546 0.5185 0.74022 0.0
C2204 C 0.25198 0.43934 0.71579 0.0
C2205 C 0.27806 0.48669 0.71828 0.0
C2206 C 0.22851 0.42154 0.70749 0.0
C2207 C 0.20549 0.43211 0.69397 0.0
C2208 C 0.2525 0.46801 0.71072 0.0
C2209 C 0.20603 0.46117 0.69066 0.0
C2210 C 0.27659 0.51547 0.72317 0.0
C2211 C 0.32684 0.49036 0.73247 0.0
N2212 N 0.22936 0.47821 0.69885 0.0
N2213 N 0.30329 0.47528 0.72232 0.0
H2214 H 0.23568 0.58581 0.47735 0.0
H2215 H 0.35214 0.52124 0.38016 0.0
H2216 H 0.28785 0.63417 0.41934 0.0
H2217 H 0.3264 0.48719 0.45823 0.0
H2218 H 0.31782 0.55683 0.38633 0.0
H2219 H 0.25825 0.544 0.46227 0.0
C2220 C 0.25151 0.58759 0.46108 0.0
C2221 C 0.26021 0.61365 0.44981 0.0
C2222 C 0.31944 0.54138 0.40195 0.0
C2223 C 0.28594 0.56581 0.43253 0.0
C2224 C 0.33886 0.52112 0.39841 0.0
C2225 C 0.342 0.50165 0.41887 0.0
C2226 C 0.30314 0.54203 0.42613 0.0
C2227 C 0.32447 0.50205 0.44212 0.0
C2228 C 0.26442 0.5637 0.45261 0.0
C2229 C 0.28077 0.61459 0.4288 0.0
N2230 N 0.30582 0.52214 0.44525 0.0
N2231 N 0.2931 0.59102 0.42095 0.0
H2232 H 0.26799 0.24589 0.50385 0.0
H2233 H 0.38854 0.34869 0.43332 0.0
H2234 H 0.35528 0.22545 0.49137 0.0
H2235 H 0.29803 0.35808 0.42819 0.0
H2236 H 0.37834 0.30852 0.46298 0.0
H2237 H 0.28033 0.29142 0.48405 0.0
C2238 C 0.28984 0.25097 0.49707 0.0
C2239 C 0.31058 0.23157 0.49902 0.0
C2240 C 0.36072 0.31966 0.45583 0.0
C2241 C 0.32483 0.28401 0.47634 0.0
C2242 C 0.36657 0.34284 0.43933 0.0
C2243 C 0.34411 0.35707 0.42911 0.0
C2244 C 0.33213 0.31051 0.46183 0.0
C2245 C 0.31591 0.3479 0.4362 0.0
C2246 C 0.29684 0.27706 0.48575 0.0
C2247 C 0.33856 0.2396 0.49007 0.0
N2248 N 0.31069 0.32512 0.45211 0.0
N2249 N 0.34484 0.26518 0.47899 0.0
H2250 H 0.79517 0.35707 0.57187 0.0
H2251 H 0.88775 0.23927 0.59541 0.0
H2252 H 0.84724 0.33368 0.50312 0.0
H2253 H 0.80147 0.2375 0.62596 0.0
H2254 H 0.87492 0.26898 0.55801 0.0
H2255 H 0.79977 0.31197 0.59154 0.0
C2256 C 0.80794 0.34255 0.56101 0.0
C2257 C 0.82114 0.3493 0.53594 0.0
C2258 C 0.85846 0.26101 0.57214 0.0
C2259 C 0.82625 0.29714 0.55844 0.0
C2260 C 0.86578 0.2438 0.59329 0.0
C2261 C 0.84586 0.23654 0.6139 0.0
C2262 C 0.83119 0.27107 0.57232 0.0
C2263 C 0.8176 0.24328 0.61067 0.0
C2264 C 0.81008 0.31652 0.57204 0.0
C2265 C 0.83697 0.3293 0.52265 0.0
N2266 N 0.81124 0.26086 0.5907 0.0
N2267 N 0.83956 0.30412 0.53434 0.0
H2268 H 0.42043 0.01391 0.29184 0.0
H2269 H 0.56502 0.11313 0.31007 0.0
H2270 H 0.46103 0.05855 0.22429 0.0
H2271 H 0.53025 0.05573 0.37098 0.0
H2272 H 0.52853 0.09311 0.27755 0.0
H2273 H 0.46088 0.03002 0.32095 0.0
C2274 C 0.43777 0.02733 0.28315 0.0
C2275 C 0.43728 0.03501 0.2556 0.0
C2276 C 0.52919 0.08471 0.29793 0.0
C2277 C 0.48398 0.0534 0.2889 0.0
C2278 C 0.5501 0.096 0.31646 0.0
C2279 C 0.55042 0.08639 0.34345 0.0
C2280 C 0.50853 0.06376 0.30655 0.0
C2281 C 0.53057 0.06414 0.35057 0.0
C2282 C 0.46103 0.03634 0.29977 0.0
C2283 C 0.46051 0.05224 0.24547 0.0
N2284 N 0.51028 0.05382 0.33234 0.0
N2285 N 0.48295 0.06096 0.26218 0.0
H2286 H 0.69078 0.7422 0.00291 0.0
H2287 H 0.74193 0.85662 0.11563 0.0
H2288 H 0.7606 0.74065 0.06032 0.0
H2289 H 0.65815 0.85189 0.08006 0.0
H2290 H 0.75796 0.82717 0.07814 0.0
H2291 H 0.68581 0.79143 0.01691 0.0
C2292 C 0.70499 0.75227 0.01841 0.0
C2293 C 0.72526 0.73723 0.03144 0.0
C2294 C 0.73615 0.83315 0.07787 0.0
C2295 C 0.72089 0.79326 0.04622 0.0
C2296 C 0.72714 0.85023 0.09909 0.0
C2297 C 0.69826 0.85549 0.10096 0.0
C2298 C 0.71572 0.82046 0.05934 0.0
C2299 C 0.68015 0.8473 0.07904 0.0
C2300 C 0.70242 0.7803 0.02608 0.0
C2301 C 0.74387 0.75122 0.05067 0.0
N2302 N 0.68867 0.82901 0.05952 0.0
N2303 N 0.74114 0.77835 0.05754 0.0
H2304 H 0.54543 0.55243 0.24134 0.0
H2305 H 0.48276 0.45331 0.35941 0.0
H2306 H 0.58583 0.48174 0.27165 0.0
H2307 H 0.42932 0.50899 0.31976 0.0
H2308 H 0.51982 0.46345 0.32534 0.0
H2309 H 0.50181 0.53717 0.26731 0.0
C2310 C 0.54503 0.53356 0.25312 0.0
C2311 C 0.5695 0.51856 0.25465 0.0
C2312 C 0.49996 0.47334 0.32364 0.0
C2313 C 0.51994 0.50115 0.28429 0.0
C2314 C 0.47877 0.46748 0.34312 0.0
C2315 C 0.45294 0.48008 0.34211 0.0
C2316 C 0.49585 0.49273 0.30321 0.0
C2317 C 0.4489 0.49858 0.32089 0.0
C2318 C 0.52015 0.52489 0.26792 0.0
C2319 C 0.56774 0.49425 0.27015 0.0
N2320 N 0.47038 0.50468 0.30234 0.0
N2321 N 0.54361 0.48652 0.28444 0.0
H2322 H 0.21542 0.82675 0.02542 0.0
H2323 H 0.17651 0.76019 0.87934 0.0
H2324 H 0.18855 0.87478 0.9579 0.0
H2325 H 0.16333 0.71071 0.95184 0.0
H2326 H 0.18669 0.80168 0.90822 0.0
H2327 H 0.19984 0.78355 -0.00029 0.0
C2328 C 0.20588 0.82818 0.00532 0.0
C2329 C 0.20344 0.85435 0.99361 0.0
C2330 C 0.18149 0.78179 0.91787 0.0
C2331 C 0.18629 0.80516 0.96405 0.0
C2332 C 0.176 0.7579 0.9014 0.0
C2333 C 0.16885 0.73176 0.91316 0.0
C2334 C 0.18029 0.77975 0.94646 0.0
C2335 C 0.16843 0.73043 0.94192 0.0
C2336 C 0.19701 0.80354 0.99073 0.0
C2337 C 0.1908 0.85506 0.96765 0.0
N2338 N 0.17419 0.75414 0.95768 0.0
N2339 N 0.18313 0.83079 0.95353 0.0
H2340 H 0.44692 0.90669 0.23202 0.0
H2341 H 0.58518 0.99326 0.17324 0.0
H2342 H 0.44641 0.98507 0.19055 0.0
H2343 H 0.56481 0.90675 0.14963 0.0
H2344 H 0.54296 0.99059 0.20348 0.0
H2345 H 0.49904 0.90735 0.2232 0.0
C2346 C 0.45778 0.92396 0.22115 0.0
C2347 C 0.4424 0.94544 0.21124 0.0
C2348 C 0.54884 0.97184 0.19281 0.0
C2349 C 0.50134 0.94722 0.203 0.0
C2350 C 0.57286 0.97331 0.17577 0.0
C2351 C 0.57897 0.94986 0.1599 0.0
C2352 C 0.53099 0.94683 0.1936 0.0
C2353 C 0.56173 0.92477 0.16274 0.0
C2354 C 0.48732 0.92449 0.21653 0.0
C2355 C 0.45736 0.96774 0.19787 0.0
N2356 N 0.53822 0.92395 0.17909 0.0
N2357 N 0.48605 0.96807 0.19418 0.0
H2358 H 0.07701 0.07434 0.70856 0.0
H2359 H 0.97606 0.17796 0.66976 0.0
H2360 H 0.08581 0.15289 0.75404 0.0
H2361 H 0.94506 0.0916 0.67896 0.0
H2362 H 0.01331 0.17251 0.70384 0.0
H2363 H 0.02748 0.08169 0.6985 0.0
C2364 C 0.06845 0.09329 0.71629 0.0
C2365 C 0.08558 0.11343 0.73152 0.0
C2366 C -0.0025 0.15513 0.69943 0.0
C2367 C 0.02879 0.12197 0.72011 0.0
C2368 C 0.976 0.15834 0.68025 0.0
C2369 C 0.9573 0.13529 0.67204 0.0
C2370 C 0.00079 0.12843 0.70936 0.0
C2371 C 0.95908 0.10986 0.68502 0.0
C2372 C 0.04003 0.09724 0.71096 0.0
C2373 C 0.07327 0.13724 0.74172 0.0
N2374 N 0.98098 0.10687 0.7026 0.0
N2375 N 0.04563 0.1413 0.73518 0.0
loop_
_geom_bond_atom_site_label_1
_geom_bond_atom_site_label_2
_geom_bond_distance
_geom_bond_site_symmetry_2
_ccdc_geom_bond_type
C0 O1 1.160 . S
C0 O7 1.185 . S
O1 C0 1.160 . S
O2 Zn3 1.899 . S
O2 C10 1.284 . S
Zn3 O2 1.899 . S
Zn3 O4 2.032 . S
Zn3 O7 2.086 . S
Zn3 O12 1.977 . S
O4 Zn3 2.032 . S
O4 C8 1.278 1_455 S
C5 O6 1.209 . S
C5 O12 1.267 1_655 S
O6 C5 1.209 . S
O7 C0 1.185 . S
O7 Zn3 2.086 . S
C8 O4 1.278 1_655 S
C8 O9 1.211 . S
O9 C8 1.211 . S
C10 O2 1.284 . S
C10 O11 1.273 . S
O11 C10 1.273 . S
O12 Zn3 1.977 . S
O12 C5 1.267 1_455 S
C13 O14 1.160 . S
C13 O20 1.185 . S
O14 C13 1.160 . S
O15 Zn16 1.899 1_655 S
O15 C23 1.284 . S
Zn16 O15 1.899 1_455 S
Zn16 O17 2.032 1_455 S
Zn16 O20 2.086 . S
Zn16 O25 1.977 . S
O17 Zn16 2.032 1_655 S
O17 C21 1.278 . S
C18 O19 1.203 . S
C18 O25 1.267 . S
O19 C18 1.203 . S
O20 C13 1.185 . S
O20 Zn16 2.086 . S
C21 O17 1.278 . S
C21 O22 1.211 . S
O22 C21 1.211 . S
C23 O15 1.284 . S
C23 O24 1.273 . S
O24 C23 1.273 . S
O25 Zn16 1.977 . S
O25 C18 1.267 . S
C26 O27 1.160 . S
C26 O33 1.185 . S
O27 C26 1.160 . S
O28 Zn29 1.899 . S
O28 C36 1.284 . S
Zn29 O28 1.899 . S
Zn29 O30 2.032 . S
Zn29 O33 2.086 . S
Zn29 O38 1.977 . S
O30 Zn29 2.032 . S
O30 C34 1.278 . S
C31 O32 1.203 . S
C31 O38 1.267 . S
O32 C31 1.203 . S
O33 C26 1.185 . S
O33 Zn29 2.086 . S
C34 O30 1.278 . S
C34 O35 1.211 . S
O35 C34 1.211 . S
C36 O28 1.284 . S
C36 O37 1.273 . S
O37 C36 1.273 . S
O38 Zn29 1.977 . S
O38 C31 1.267 . S
C39 O40 1.160 . S
C39 O46 1.185 . S
O40 C39 1.160 . S
O41 Zn42 1.899 . S
O41 C49 1.284 . S
Zn42 O41 1.899 . S
Zn42 O43 2.032 . S
Zn42 O46 2.086 . S
Zn42 O51 1.977 . S
O43 Zn42 2.032 . S
O43 C47 1.278 . S
C44 O45 1.203 . S
C44 O51 1.267 . S
O45 C44 1.203 . S
O46 C39 1.185 . S
O46 Zn42 2.086 . S
C47 O43 1.278 . S
C47 O48 1.211 . S
O48 C47 1.211 . S
C49 O41 1.284 . S
C49 O50 1.273 . S
O50 C49 1.273 . S
O51 Zn42 1.977 . S
O51 C44 1.267 . S
C52 O53 1.160 . S
C52 O59 1.185 . S
O53 C52 1.160 . S
O54 Zn55 1.899 . S
O54 C62 1.284 . S
Zn55 O54 1.899 . S
Zn55 O56 2.032 1_455 S
Zn55 O59 2.086 . S
Zn55 O64 1.977 1_455 S
O56 Zn55 2.032 1_655 S
O56 C60 1.278 . S
C57 O58 1.203 . S
C57 O64 1.267 . S
O58 C57 1.203 . S
O59 C52 1.185 . S
O59 Zn55 2.086 . S
C60 O56 1.278 . S
C60 O61 1.211 . S
O61 C60 1.211 . S
C62 O54 1.284 . S
C62 O63 1.273 . S
O63 C62 1.273 . S
O64 Zn55 1.977 1_655 S
O64 C57 1.267 . S
C65 O66 1.160 . S
C65 O72 1.185 . S
O66 C65 1.160 . S
O67 Zn68 1.899 . S
O67 C75 1.284 . S
Zn68 O67 1.899 . S
Zn68 O69 2.032 . S
Zn68 O72 2.086 . S
Zn68 O77 1.977 . S
O69 Zn68 2.032 . S
O69 C73 1.278 . S
C70 O71 1.203 . S
C70 O77 1.267 . S
O71 C70 1.203 . S
O72 C65 1.185 . S
O72 Zn68 2.086 . S
C73 O69 1.278 . S
C73 O74 1.211 . S
O74 C73 1.211 . S
C75 O67 1.284 . S
C75 O76 1.273 . S
O76 C75 1.273 . S
O77 Zn68 1.977 . S
O77 C70 1.267 . S
C78 O79 1.160 . S
C78 O85 1.185 . S
O79 C78 1.160 . S
O80 Zn81 1.899 . S
O80 C88 1.284 . S
Zn81 O80 1.899 . S
Zn81 O82 2.032 . S
Zn81 O85 2.086 . S
Zn81 O90 1.977 . S
O82 Zn81 2.032 . S
O82 C86 1.278 . S
C83 O84 1.203 . S
C83 O90 1.267 . S
O84 C83 1.203 . S
O85 C78 1.185 . S
O85 Zn81 2.086 . S
C86 O82 1.278 . S
C86 O87 1.211 . S
O87 C86 1.211 . S
C88 O80 1.284 . S
C88 O89 1.273 . S
O89 C88 1.273 . S
O90 Zn81 1.977 . S
O90 C83 1.267 . S
C91 O92 1.160 . S
C91 O98 1.185 . S
O92 C91 1.160 . S
O93 Zn94 1.899 . S
O93 C101 1.284 . S
Zn94 O93 1.899 . S
Zn94 O95 2.032 . S
Zn94 O98 2.086 . S
Zn94 O103 1.977 . S
O95 Zn94 2.032 . S
O95 C99 1.278 . S
C96 O97 1.203 . S
C96 O103 1.267 . S
O97 C96 1.203 . S
O98 C91 1.185 . S
O98 Zn94 2.086 . S
C99 O95 1.278 . S
C99 O100 1.211 . S
O100 C99 1.211 . S
C101 O93 1.284 . S
C101 O102 1.267 1_455 S
O102 C101 1.267 1_655 S
O103 Zn94 1.977 . S
O103 C96 1.267 . S
C104 O105 1.160 . S
C104 O111 1.185 . S
O105 C104 1.160 . S
O106 Zn107 1.899 . S
O106 C114 1.284 . S
Zn107 O106 1.899 . S
Zn107 O108 2.032 1_565 S
Zn107 O111 2.086 . S
Zn107 O116 1.977 1_565 S
O108 Zn107 2.032 1_545 S
O108 C112 1.278 . S
C109 O110 1.203 . S
C109 O116 1.267 . S
O110 C109 1.203 . S
O111 C104 1.185 . S
O111 Zn107 2.086 . S
C112 O108 1.278 . S
C112 O113 1.211 . S
O113 C112 1.211 . S
C114 O106 1.284 . S
C114 O115 1.273 . S
O115 C114 1.273 . S
O116 Zn107 1.977 1_545 S
O116 C109 1.267 . S
C117 O118 1.160 . S
C117 O124 1.185 . S
O118 C117 1.160 . S
O119 Zn120 1.899 . S
O119 C127 1.284 . S
Zn120 O119 1.899 . S
Zn120 O121 2.032 . S
Zn120 O124 2.086 . S
Zn120 O129 1.977 . S
O121 Zn120 2.032 . S
O121 C125 1.278 . S
C122 O123 1.203 . S
C122 O129 1.267 . S
O123 C122 1.203 . S
O124 C117 1.185 . S
O124 Zn120 2.086 . S
C125 O121 1.278 . S
C125 O126 1.211 . S
O126 C125 1.211 . S
C127 O119 1.284 . S
C127 O128 1.273 . S
O128 C127 1.273 . S
O129 Zn120 1.977 . S
O129 C122 1.267 . S
C130 O131 1.160 . S
C130 O137 1.185 . S
O131 C130 1.160 . S
O132 Zn133 1.899 . S
O132 C140 1.284 . S
Zn133 O132 1.899 . S
Zn133 O134 2.032 . S
Zn133 O137 2.086 . S
Zn133 O142 1.977 . S
O134 Zn133 2.032 . S
O134 C138 1.278 . S
C135 O136 1.203 . S
C135 O142 1.267 . S
O136 C135 1.203 . S
O137 C130 1.185 . S
O137 Zn133 2.086 . S
C138 O134 1.278 . S
C138 O139 1.211 . S
O139 C138 1.211 . S
C140 O132 1.284 . S
C140 O141 1.273 . S
O141 C140 1.273 . S
O142 Zn133 1.977 . S
O142 C135 1.267 . S
C143 O144 1.160 . S
C143 O150 1.185 . S
O144 C143 1.160 . S
O145 Zn146 1.899 . S
O145 C153 1.284 1_554 S
Zn146 O145 1.899 . S
Zn146 O147 2.032 . S
Zn146 O150 2.086 . S
Zn146 O155 1.977 . S
O147 Zn146 2.032 . S
O147 C151 1.278 . S
C148 O149 1.203 . S
C148 O155 1.267 . S
O149 C148 1.203 . S
O150 C143 1.185 . S
O150 Zn146 2.086 . S
C151 O147 1.278 . S
C151 O152 1.211 . S
O152 C151 1.211 . S
C153 O145 1.284 1_556 S
C153 O154 1.273 . S
O154 C153 1.273 . S
O155 Zn146 1.977 . S
O155 C148 1.267 . S
C156 O157 1.160 . S
C156 O163 1.185 . S
O157 C156 1.160 . S
O158 Zn159 1.899 1_556 S
O158 C166 1.284 . S
Zn159 O158 1.899 1_554 S
Zn159 O160 2.032 . S
Zn159 O163 2.086 1_554 S
Zn159 O168 1.977 . S
O160 Zn159 2.032 . S
O160 C164 1.278 . S
C161 O162 1.203 . S
C161 O168 1.267 . S
O162 C161 1.203 . S
O163 C156 1.185 . S
O163 Zn159 2.086 1_556 S
C164 O160 1.278 . S
C164 O165 1.211 . S
O165 C164 1.211 . S
C166 O158 1.284 . S
C166 O167 1.273 1_556 S
O167 C166 1.273 1_554 S
O168 Zn159 1.977 . S
O168 C161 1.267 . S
C169 O170 1.160 . S
C169 O176 1.185 . S
O170 C169 1.160 . S
O171 Zn172 1.899 . S
O171 C179 1.284 . S
Zn172 O171 1.899 . S
Zn172 O173 2.032 1_556 S
Zn172 O176 2.086 . S
Zn172 O181 1.977 1_556 S
O173 Zn172 2.032 1_554 S
O173 C177 1.278 . S
C174 O175 1.203 . S
C174 O181 1.267 . S
O175 C174 1.203 . S
O176 C169 1.185 . S
O176 Zn172 2.086 . S
C177 O173 1.278 . S
C177 O178 1.211 . S
O178 C177 1.211 . S
C179 O171 1.284 . S
C179 O180 1.273 . S
O180 C179 1.273 . S
O181 Zn172 1.977 1_554 S
O181 C174 1.267 . S
C182 O183 1.160 . S
C182 O189 1.185 . S
O183 C182 1.160 . S
O184 Zn185 1.899 . S
O184 C192 1.284 . S
Zn185 O184 1.899 . S
Zn185 O186 2.032 . S
Zn185 O189 2.086 . S
Zn185 O194 1.977 . S
O186 Zn185 2.032 . S
O186 C190 1.278 . S
C187 O188 1.203 . S
C187 O194 1.267 . S
O188 C187 1.203 . S
O189 C182 1.185 . S
O189 Zn185 2.086 . S
C190 O186 1.278 . S
C190 O191 1.211 . S
O191 C190 1.211 . S
C192 O184 1.284 . S
C192 O193 1.273 . S
O193 C192 1.273 . S
O194 Zn185 1.977 . S
O194 C187 1.267 . S
C195 O196 1.160 . S
C195 O202 1.185 . S
O196 C195 1.160 . S
O197 Zn198 1.899 . S
O197 C205 1.284 . S
Zn198 O197 1.899 . S
Zn198 O199 2.032 . S
Zn198 O202 2.086 . S
Zn198 O207 1.977 . S
O199 Zn198 2.032 . S
O199 C203 1.278 . S
C200 O201 1.203 . S
C200 O207 1.267 . S
O201 C200 1.203 . S
O202 C195 1.185 . S
O202 Zn198 2.086 . S
C203 O199 1.278 . S
C203 O204 1.211 . S
O204 C203 1.211 . S
C205 O197 1.284 . S
C205 O206 1.273 . S
O206 C205 1.273 . S
O207 Zn198 1.977 . S
O207 C200 1.267 . S
C208 O209 1.160 . S
C208 O215 1.185 . S
O209 C208 1.160 . S
O210 Zn211 1.899 . S
O210 C218 1.284 1_545 S
Zn211 O210 1.899 . S
Zn211 O212 2.032 1_545 S
Zn211 O215 2.086 . S
Zn211 O220 1.977 . S
O212 Zn211 2.032 1_565 S
O212 C216 1.278 . S
C213 O214 1.203 . S
C213 O220 1.267 . S
O214 C213 1.203 . S
O215 C208 1.185 . S
O215 Zn211 2.086 . S
C216 O212 1.278 . S
C216 O217 1.211 . S
O217 C216 1.211 . S
C218 O210 1.284 1_565 S
C218 O219 1.273 . S
O219 C218 1.273 . S
O220 Zn211 1.977 . S
O220 C213 1.267 . S
C221 O222 1.160 . S
C221 O228 1.185 . S
O222 C221 1.160 . S
O223 Zn224 1.899 . S
O223 C231 1.284 . S
Zn224 O223 1.899 . S
Zn224 O225 2.032 . S
Zn224 O228 2.086 . S
Zn224 O233 1.977 . S
O225 Zn224 2.032 . S
O225 C229 1.278 . S
C226 O227 1.203 . S
C226 O233 1.267 . S
O227 C226 1.203 . S
O228 C221 1.185 . S
O228 Zn224 2.086 . S
C229 O225 1.278 . S
C229 O230 1.211 . S
O230 C229 1.211 . S
C231 O223 1.284 . S
C231 O232 1.273 . S
O232 C231 1.273 . S
O233 Zn224 1.977 . S
O233 C226 1.267 . S
C234 O235 1.160 . S
C234 O241 1.185 . S
O235 C234 1.160 . S
O236 Zn237 1.899 . S
O236 C244 1.284 . S
Zn237 O236 1.899 . S
Zn237 O238 2.032 . S
Zn237 O241 2.086 . S
Zn237 O246 1.977 . S
O238 Zn237 2.032 . S
O238 C242 1.278 . S
C239 O240 1.203 . S
C239 O246 1.267 . S
O240 C239 1.203 . S
O241 C234 1.185 . S
O241 Zn237 2.086 . S
C242 O238 1.278 . S
C242 O243 1.211 . S
O243 C242 1.211 . S
C244 O236 1.284 . S
C244 O245 1.273 . S
O245 C244 1.273 . S
O246 Zn237 1.977 . S
O246 C239 1.267 . S
C247 O248 1.160 . S
C247 O254 1.185 . S
O248 C247 1.160 . S
O249 Zn250 1.899 . S
O249 C257 1.284 . S
Zn250 O249 1.899 . S
Zn250 O251 2.032 . S
Zn250 O254 2.086 . S
Zn250 O259 1.977 . S
O251 Zn250 2.032 . S
O251 C255 1.278 . S
C252 O253 1.203 . S
C252 O259 1.267 . S
O253 C252 1.203 . S
O254 C247 1.185 . S
O254 Zn250 2.086 . S
C255 O251 1.278 . S
C255 O256 1.211 . S
O256 C255 1.211 . S
C257 O249 1.284 . S
C257 O258 1.273 . S
O258 C257 1.273 . S
O259 Zn250 1.977 . S
O259 C252 1.267 . S
C260 O261 1.160 . S
C260 O267 1.185 . S
O261 C260 1.160 . S
O262 Zn263 1.899 . S
O262 C270 1.284 1_554 S
Zn263 O262 1.899 . S
Zn263 O264 2.052 . S
Zn263 O267 2.086 . S
Zn263 O272 1.977 . S
O264 Zn263 2.052 . S
O264 C268 1.261 1_554 S
C265 O266 1.203 . S
C265 O272 1.267 . S
O266 C265 1.203 . S
O267 C260 1.185 . S
O267 Zn263 2.086 . S
C268 O264 1.261 1_556 S
C268 O269 1.211 . S
O269 C268 1.211 . S
C270 O262 1.284 1_556 S
C270 O271 1.273 . S
O271 C270 1.273 . S
O272 Zn263 1.977 . S
O272 C265 1.267 . S
C273 O274 1.160 . S
C273 O280 1.185 . S
O274 C273 1.160 . S
O275 Zn276 1.899 . S
O275 C283 1.284 . S
Zn276 O275 1.899 . S
Zn276 O277 2.032 . S
Zn276 O280 2.086 . S
Zn276 O285 1.977 . S
O277 Zn276 2.032 . S
O277 C281 1.278 . S
C278 O279 1.203 . S
C278 O285 1.267 . S
O279 C278 1.203 . S
O280 C273 1.185 . S
O280 Zn276 2.086 . S
C281 O277 1.278 . S
C281 O282 1.211 . S
O282 C281 1.211 . S
C283 O275 1.284 . S
C283 O284 1.273 . S
O284 C283 1.273 . S
O285 Zn276 1.977 . S
O285 C278 1.267 . S
C286 O287 1.160 . S
C286 O293 1.185 . S
O287 C286 1.160 . S
O288 Zn289 1.899 . S
O288 C296 1.284 . S
Zn289 O288 1.899 . S
Zn289 O290 2.032 . S
Zn289 O293 2.086 . S
Zn289 O298 1.977 . S
O290 Zn289 2.032 . S
O290 C294 1.278 . S
C291 O292 1.203 . S
C291 O298 1.267 . S
O292 C291 1.203 . S
O293 C286 1.185 . S
O293 Zn289 2.086 . S
C294 O290 1.278 . S
C294 O295 1.211 . S
O295 C294 1.211 . S
C296 O288 1.284 . S
C296 O297 1.273 . S
O297 C296 1.273 . S
O298 Zn289 1.977 . S
O298 C291 1.267 . S
C299 O300 1.160 . S
C299 O306 1.185 . S
O300 C299 1.160 . S
O301 Zn302 1.899 . S
O301 C309 1.284 . S
Zn302 O301 1.899 . S
Zn302 O303 2.032 . S
Zn302 O306 2.086 . S
Zn302 O311 1.977 . S
O303 Zn302 2.032 . S
O303 C307 1.278 . S
C304 O305 1.203 . S
C304 O311 1.267 . S
O305 C304 1.203 . S
O306 C299 1.185 . S
O306 Zn302 2.086 . S
C307 O303 1.278 . S
C307 O308 1.211 . S
O308 C307 1.211 . S
C309 O301 1.284 . S
C309 O310 1.273 . S
O310 C309 1.273 . S
O311 Zn302 1.977 . S
O311 C304 1.267 . S
O312 Mn313 2.163 . S
O312 C326 1.244 . S
Mn313 O312 2.163 . S
Mn313 O316 2.160 . S
Mn313 O317 2.221 . S
Mn313 O319 2.163 . S
Mn313 O321 2.160 . S
Mn313 O331 2.221 . S
O314 Mn315 2.087 . S
O314 C326 1.256 . S
Mn315 O314 2.087 . S
Mn315 O322 2.089 . S
Mn315 O331 2.290 . S
Mn315 O332 2.251 . S
O316 Mn313 2.160 . S
O316 C327 1.239 . S
O317 Mn313 2.221 . S
O317 Mn318 2.290 . S
O317 C328 1.278 . S
Mn318 O317 2.290 . S
Mn318 O320 2.089 . S
Mn318 O323 2.251 . S
Mn318 O324 2.087 . S
O319 Mn313 2.163 . S
O319 C329 1.244 . S
O320 Mn318 2.089 . S
O320 C327 1.256 . S
O321 Mn313 2.160 . S
O321 C330 1.239 . S
O322 Mn315 2.089 . S
O322 C330 1.256 . S
O323 Mn318 2.251 . S
O323 C328 1.241 . S
O324 Mn318 2.087 . S
O324 C329 1.256 . S
C325 O331 1.278 . S
C325 O332 1.241 . S
C326 O312 1.244 . S
C326 O314 1.256 . S
C327 O316 1.239 . S
C327 O320 1.256 . S
C328 O317 1.278 . S
C328 O323 1.241 . S
C329 O319 1.244 . S
C329 O324 1.256 . S
C330 O321 1.239 . S
C330 O322 1.256 . S
O331 Mn313 2.221 . S
O331 Mn315 2.290 . S
O331 C325 1.278 . S
O332 Mn315 2.251 . S
O332 C325 1.241 . S
O333 Mn334 2.163 . S
O333 C347 1.244 . S
Mn334 O333 2.163 . S
Mn334 O337 2.160 . S
Mn334 O338 2.221 . S
Mn334 O340 2.163 . S
Mn334 O342 2.160 . S
Mn334 O352 2.221 . S
O335 Mn336 2.087 . S
O335 C347 1.256 . S
Mn336 O335 2.087 . S
Mn336 O343 2.089 . S
Mn336 O352 2.290 . S
Mn336 O353 2.251 . S
O337 Mn334 2.160 . S
O337 C348 1.239 . S
O338 Mn334 2.221 . S
O338 Mn339 2.290 . S
O338 C349 1.278 . S
Mn339 O338 2.290 . S
Mn339 O341 2.089 . S
Mn339 O344 2.251 . S
Mn339 O345 2.087 . S
O340 Mn334 2.163 . S
O340 C350 1.244 . S
O341 Mn339 2.089 . S
O341 C348 1.256 . S
O342 Mn334 2.160 . S
O342 C351 1.239 . S
O343 Mn336 2.089 . S
O343 C351 1.256 . S
O344 Mn339 2.251 . S
O344 C349 1.241 . S
O345 Mn339 2.087 . S
O345 C350 1.256 . S
C346 O352 1.278 . S
C346 O353 1.241 . S
C347 O333 1.244 . S
C347 O335 1.256 . S
C348 O337 1.239 . S
C348 O341 1.256 . S
C349 O338 1.278 . S
C349 O344 1.241 . S
C350 O340 1.244 . S
C350 O345 1.256 . S
C351 O342 1.239 . S
C351 O343 1.256 . S
O352 Mn334 2.221 . S
O352 Mn336 2.290 . S
O352 C346 1.278 . S
O353 Mn336 2.251 . S
O353 C346 1.241 . S
O354 Mn355 2.163 . S
O354 C368 1.244 . S
Mn355 O354 2.163 . S
Mn355 O358 2.160 . S
Mn355 O359 2.221 . S
Mn355 O361 2.163 . S
Mn355 O363 2.160 . S
Mn355 O373 2.221 . S
O356 Mn357 2.087 . S
O356 C368 1.256 . S
Mn357 O356 2.087 . S
Mn357 O364 2.089 . S
Mn357 O373 2.290 . S
Mn357 O374 2.274 . S
O358 Mn355 2.160 . S
O358 C369 1.239 . S
O359 Mn355 2.221 . S
O359 Mn360 2.290 . S
O359 C370 1.278 . S
Mn360 O359 2.290 . S
Mn360 O362 2.089 . S
Mn360 O365 2.251 . S
Mn360 O366 2.087 . S
O361 Mn355 2.163 . S
O361 C371 1.244 . S
O362 Mn360 2.089 . S
O362 C369 1.256 . S
O363 Mn355 2.160 . S
O363 C372 1.239 . S
O364 Mn357 2.089 . S
O364 C372 1.256 . S
O365 Mn360 2.251 . S
O365 C370 1.241 . S
O366 Mn360 2.087 . S
O366 C371 1.256 . S
C367 O373 1.278 . S
C367 O374 1.271 . S
C368 O354 1.244 . S
C368 O356 1.256 . S
C369 O358 1.239 . S
C369 O362 1.256 . S
C370 O359 1.278 . S
C370 O365 1.241 . S
C371 O361 1.244 . S
C371 O366 1.256 . S
C372 O363 1.239 . S
C372 O364 1.256 . S
O373 Mn355 2.221 . S
O373 Mn357 2.290 . S
O373 C367 1.278 . S
O374 Mn357 2.274 . S
O374 C367 1.271 . S
O375 Mn376 2.163 . S
O375 C389 1.244 . S
Mn376 O375 2.163 . S
Mn376 O379 2.160 . S
Mn376 O380 2.221 . S
Mn376 O382 2.163 . S
Mn376 O384 2.160 . S
Mn376 O394 2.221 . S
O377 Mn378 2.087 . S
O377 C389 1.256 . S
Mn378 O377 2.087 . S
Mn378 O385 2.089 . S
Mn378 O394 2.290 . S
Mn378 O395 2.251 . S
O379 Mn376 2.160 . S
O379 C390 1.239 . S
O380 Mn376 2.221 . S
O380 Mn381 2.290 . S
O380 C391 1.278 . S
Mn381 O380 2.290 . S
Mn381 O383 2.089 . S
Mn381 O386 2.251 . S
Mn381 O387 2.087 . S
O382 Mn376 2.163 . S
O382 C392 1.244 . S
O383 Mn381 2.089 . S
O383 C390 1.256 . S
O384 Mn376 2.160 . S
O384 C393 1.239 . S
O385 Mn378 2.089 . S
O385 C393 1.256 . S
O386 Mn381 2.251 . S
O386 C391 1.241 . S
O387 Mn381 2.087 . S
O387 C392 1.256 . S
C388 O394 1.278 . S
C388 O395 1.241 . S
C389 O375 1.244 . S
C389 O377 1.256 . S
C390 O379 1.239 . S
C390 O383 1.256 . S
C391 O380 1.278 . S
C391 O386 1.241 . S
C392 O382 1.244 . S
C392 O387 1.256 . S
C393 O384 1.239 . S
C393 O385 1.256 . S
O394 Mn376 2.221 . S
O394 Mn378 2.290 . S
O394 C388 1.278 . S
O395 Mn378 2.251 . S
O395 C388 1.241 . S
O396 Mn397 2.163 . S
O396 C410 1.244 . S
Mn397 O396 2.163 . S
Mn397 O400 2.160 . S
Mn397 O401 2.221 . S
Mn397 O403 2.163 . S
Mn397 O405 2.160 . S
Mn397 O415 2.221 . S
O398 Mn399 2.087 . S
O398 C410 1.256 . S
Mn399 O398 2.087 . S
Mn399 O406 2.089 . S
Mn399 O415 2.290 . S
Mn399 O416 2.251 . S
O400 Mn397 2.160 . S
O400 C411 1.239 . S
O401 Mn397 2.221 . S
O401 Mn402 2.290 . S
O401 C412 1.278 . S
Mn402 O401 2.290 . S
Mn402 O404 2.089 . S
Mn402 O407 2.251 . S
Mn402 O408 2.087 . S
O403 Mn397 2.163 . S
O403 C413 1.244 . S
O404 Mn402 2.089 . S
O404 C411 1.256 . S
O405 Mn397 2.160 . S
O405 C414 1.239 . S
O406 Mn399 2.089 . S
O406 C414 1.256 . S
O407 Mn402 2.251 . S
O407 C412 1.241 . S
O408 Mn402 2.087 . S
O408 C413 1.256 . S
C409 O415 1.278 . S
C409 O416 1.241 . S
C410 O396 1.244 . S
C410 O398 1.256 . S
C411 O400 1.239 . S
C411 O404 1.256 . S
C412 O401 1.278 . S
C412 O407 1.241 . S
C413 O403 1.244 . S
C413 O408 1.256 . S
C414 O405 1.239 . S
C414 O406 1.256 . S
O415 Mn397 2.221 . S
O415 Mn399 2.290 . S
O415 C409 1.278 . S
O416 Mn399 2.251 . S
O416 C409 1.241 . S
O417 Mn418 2.163 . S
O417 C431 1.244 . S
Mn418 O417 2.163 . S
Mn418 O421 2.160 . S
Mn418 O422 2.221 . S
Mn418 O424 2.163 . S
Mn418 O426 2.160 . S
Mn418 O436 2.221 . S
O419 Mn420 2.087 . S
O419 C431 1.256 . S
Mn420 O419 2.087 . S
Mn420 O427 2.089 . S
Mn420 O436 2.290 . S
Mn420 O437 2.251 . S
O421 Mn418 2.160 . S
O421 C432 1.239 . S
O422 Mn418 2.221 . S
O422 Mn423 2.290 . S
O422 C433 1.278 . S
Mn423 O422 2.290 . S
Mn423 O425 2.089 . S
Mn423 O428 2.251 . S
Mn423 O429 2.087 . S
O424 Mn418 2.163 . S
O424 C434 1.244 . S
O425 Mn423 2.089 . S
O425 C432 1.256 . S
O426 Mn418 2.160 . S
O426 C435 1.239 . S
O427 Mn420 2.089 . S
O427 C435 1.256 . S
O428 Mn423 2.251 . S
O428 C433 1.241 . S
O429 Mn423 2.087 . S
O429 C434 1.256 . S
C430 O436 1.278 . S
C430 O437 1.241 . S
C431 O417 1.244 . S
C431 O419 1.256 . S
C432 O421 1.239 . S
C432 O425 1.256 . S
C433 O422 1.278 . S
C433 O428 1.241 . S
C434 O424 1.244 . S
C434 O429 1.256 . S
C435 O426 1.239 . S
C435 O427 1.256 . S
O436 Mn418 2.221 . S
O436 Mn420 2.290 . S
O436 C430 1.278 . S
O437 Mn420 2.251 . S
O437 C430 1.241 . S
O438 Mn439 2.163 . S
O438 C452 1.244 . S
Mn439 O438 2.163 . S
Mn439 O442 2.160 . S
Mn439 O443 2.221 . S
Mn439 O445 2.163 . S
Mn439 O447 2.160 . S
Mn439 O457 2.221 . S
O440 Mn441 2.087 . S
O440 C452 1.256 . S
Mn441 O440 2.087 . S
Mn441 O448 2.089 . S
Mn441 O457 2.290 . S
Mn441 O458 2.251 . S
O442 Mn439 2.160 . S
O442 C453 1.239 . S
O443 Mn439 2.221 . S
O443 Mn444 2.290 . S
O443 C454 1.278 . S
Mn444 O443 2.290 . S
Mn444 O446 2.089 . S
Mn444 O449 2.251 . S
Mn444 O450 2.087 . S
O445 Mn439 2.163 . S
O445 C455 1.244 . S
O446 Mn444 2.089 . S
O446 C453 1.256 . S
O447 Mn439 2.160 . S
O447 C456 1.239 . S
O448 Mn441 2.089 . S
O448 C456 1.256 . S
O449 Mn444 2.251 . S
O449 C454 1.241 . S
O450 Mn444 2.087 . S
O450 C455 1.256 . S
C451 O457 1.278 . S
C451 O458 1.241 . S
C452 O438 1.244 . S
C452 O440 1.256 . S
C453 O442 1.239 . S
C453 O446 1.256 . S
C454 O443 1.278 . S
C454 O449 1.241 . S
C455 O445 1.244 . S
C455 O450 1.256 . S
C456 O447 1.239 . S
C456 O448 1.256 . S
O457 Mn439 2.221 . S
O457 Mn441 2.290 . S
O457 C451 1.278 . S
O458 Mn441 2.251 . S
O458 C451 1.241 . S
O459 Mn460 2.163 . S
O459 C473 1.244 . S
Mn460 O459 2.163 . S
Mn460 O463 2.160 . S
Mn460 O464 2.221 . S
Mn460 O466 2.163 . S
Mn460 O468 2.160 . S
Mn460 O478 2.221 . S
O461 Mn462 2.087 . S
O461 C473 1.256 . S
Mn462 O461 2.087 . S
Mn462 O469 2.089 . S
Mn462 O478 2.290 . S
Mn462 O479 2.251 . S
O463 Mn460 2.160 . S
O463 C474 1.239 . S
O464 Mn460 2.221 . S
O464 Mn465 2.290 . S
O464 C475 1.278 . S
Mn465 O464 2.290 . S
Mn465 O467 2.089 . S
Mn465 O470 2.251 . S
Mn465 O471 2.087 . S
O466 Mn460 2.163 . S
O466 C476 1.244 . S
O467 Mn465 2.089 . S
O467 C474 1.256 . S
O468 Mn460 2.160 . S
O468 C477 1.239 . S
O469 Mn462 2.089 . S
O469 C477 1.256 . S
O470 Mn465 2.251 . S
O470 C475 1.241 . S
O471 Mn465 2.087 . S
O471 C476 1.256 . S
C472 O478 1.278 . S
C472 O479 1.241 . S
C473 O459 1.244 . S
C473 O461 1.256 . S
C474 O463 1.239 . S
C474 O467 1.256 . S
C475 O464 1.278 . S
C475 O470 1.241 . S
C476 O466 1.244 . S
C476 O471 1.256 . S
C477 O468 1.239 . S
C477 O469 1.256 . S
O478 Mn460 2.221 . S
O478 Mn462 2.290 . S
O478 C472 1.278 . S
O479 Mn462 2.251 . S
O479 C472 1.241 . S
O480 Mn481 2.163 . S
O480 C494 1.244 . S
Mn481 O480 2.163 . S
Mn481 O484 2.160 . S
Mn481 O485 2.221 . S
Mn481 O487 2.163 . S
Mn481 O489 2.160 . S
Mn481 O499 2.221 . S
O482 Mn483 2.087 . S
O482 C494 1.256 . S
Mn483 O482 2.087 . S
Mn483 O490 2.089 . S
Mn483 O499 2.290 . S
Mn483 O500 2.251 . S
O484 Mn481 2.160 . S
O484 C495 1.239 . S
O485 Mn481 2.221 . S
O485 Mn486 2.290 . S
O485 C496 1.278 . S
Mn486 O485 2.290 . S
Mn486 O488 2.089 . S
Mn486 O491 2.251 . S
Mn486 O492 2.087 . S
O487 Mn481 2.163 . S
O487 C497 1.244 . S
O488 Mn486 2.089 . S
O488 C495 1.256 . S
O489 Mn481 2.160 . S
O489 C498 1.239 . S
O490 Mn483 2.089 . S
O490 C498 1.256 . S
O491 Mn486 2.251 . S
O491 C496 1.241 . S
O492 Mn486 2.087 . S
O492 C497 1.256 . S
C493 O499 1.278 . S
C493 O500 1.241 . S
C494 O480 1.244 . S
C494 O482 1.256 . S
C495 O484 1.239 . S
C495 O488 1.256 . S
C496 O485 1.278 . S
C496 O491 1.241 . S
C497 O487 1.244 . S
C497 O492 1.256 . S
C498 O489 1.239 . S
C498 O490 1.256 . S
O499 Mn481 2.221 . S
O499 Mn483 2.290 . S
O499 C493 1.278 . S
O500 Mn483 2.251 . S
O500 C493 1.241 . S
O501 Mn502 2.163 . S
O501 C515 1.244 . S
Mn502 O501 2.163 . S
Mn502 O505 2.160 . S
Mn502 O506 2.221 . S
Mn502 O508 2.163 . S
Mn502 O510 2.160 . S
Mn502 O520 2.221 . S
O503 Mn504 2.087 . S
O503 C515 1.256 . S
Mn504 O503 2.087 . S
Mn504 O511 2.089 . S
Mn504 O520 2.290 . S
Mn504 O521 2.251 . S
O505 Mn502 2.160 . S
O505 C516 1.239 . S
O506 Mn502 2.221 . S
O506 Mn507 2.290 . S
O506 C517 1.278 . S
Mn507 O506 2.290 . S
Mn507 O509 2.089 . S
Mn507 O512 2.251 . S
Mn507 O513 2.087 . S
O508 Mn502 2.163 . S
O508 C518 1.244 . S
O509 Mn507 2.089 . S
O509 C516 1.256 . S
O510 Mn502 2.160 . S
O510 C519 1.239 . S
O511 Mn504 2.089 . S
O511 C519 1.256 . S
O512 Mn507 2.251 . S
O512 C517 1.241 . S
O513 Mn507 2.087 . S
O513 C518 1.256 . S
C514 O520 1.278 . S
C514 O521 1.241 . S
C515 O501 1.244 . S
C515 O503 1.256 . S
C516 O505 1.239 . S
C516 O509 1.256 . S
C517 O506 1.278 . S
C517 O512 1.241 . S
C518 O508 1.244 . S
C518 O513 1.256 . S
C519 O510 1.239 . S
C519 O511 1.256 . S
O520 Mn502 2.221 . S
O520 Mn504 2.290 . S
O520 C514 1.278 . S
O521 Mn504 2.251 . S
O521 C514 1.241 . S
O522 Mn523 2.163 . S
O522 C536 1.244 . S
Mn523 O522 2.163 . S
Mn523 O526 2.160 . S
Mn523 O527 2.221 . S
Mn523 O529 2.163 . S
Mn523 O531 2.160 . S
Mn523 O541 2.221 . S
O524 Mn525 2.087 . S
O524 C536 1.256 . S
Mn525 O524 2.087 . S
Mn525 O532 2.089 . S
Mn525 O541 2.290 . S
Mn525 O542 2.251 . S
O526 Mn523 2.160 . S
O526 C537 1.239 . S
O527 Mn523 2.221 . S
O527 Mn528 2.290 . S
O527 C538 1.278 . S
Mn528 O527 2.290 . S
Mn528 O530 2.089 . S
Mn528 O533 2.251 . S
Mn528 O534 2.087 . S
O529 Mn523 2.163 . S
O529 C539 1.244 . S
O530 Mn528 2.089 . S
O530 C537 1.256 . S
O531 Mn523 2.160 . S
O531 C540 1.239 . S
O532 Mn525 2.089 . S
O532 C540 1.256 . S
O533 Mn528 2.251 . S
O533 C538 1.241 . S
O534 Mn528 2.087 . S
O534 C539 1.256 . S
C535 O541 1.278 . S
C535 O542 1.241 . S
C536 O522 1.244 . S
C536 O524 1.256 . S
C537 O526 1.239 . S
C537 O530 1.256 . S
C538 O527 1.278 . S
C538 O533 1.241 . S
C539 O529 1.244 . S
C539 O534 1.256 . S
C540 O531 1.239 . S
C540 O532 1.256 . S
O541 Mn523 2.221 . S
O541 Mn525 2.290 . S
O541 C535 1.278 . S
O542 Mn525 2.251 . S
O542 C535 1.241 . S
O543 Mn544 2.163 . S
O543 C557 1.244 . S
Mn544 O543 2.163 . S
Mn544 O547 2.160 . S
Mn544 O548 2.221 . S
Mn544 O550 2.163 . S
Mn544 O552 2.160 . S
Mn544 O562 2.221 . S
O545 Mn546 2.087 . S
O545 C557 1.256 . S
Mn546 O545 2.087 . S
Mn546 O553 2.089 . S
Mn546 O562 2.290 . S
Mn546 O563 2.251 . S
O547 Mn544 2.160 . S
O547 C558 1.239 . S
O548 Mn544 2.221 . S
O548 Mn549 2.290 . S
O548 C559 1.278 . S
Mn549 O548 2.290 . S
Mn549 O551 2.089 . S
Mn549 O554 2.251 . S
Mn549 O555 2.087 . S
O550 Mn544 2.163 . S
O550 C560 1.244 . S
O551 Mn549 2.089 . S
O551 C558 1.256 . S
O552 Mn544 2.160 . S
O552 C561 1.239 . S
O553 Mn546 2.089 . S
O553 C561 1.256 . S
O554 Mn549 2.251 . S
O554 C559 1.241 . S
O555 Mn549 2.087 . S
O555 C560 1.256 . S
C556 O562 1.278 . S
C556 O563 1.241 . S
C557 O543 1.244 . S
C557 O545 1.256 . S
C558 O547 1.239 . S
C558 O551 1.256 . S
C559 O548 1.278 . S
C559 O554 1.241 . S
C560 O550 1.244 . S
C560 O555 1.256 . S
C561 O552 1.239 . S
C561 O553 1.256 . S
O562 Mn544 2.221 . S
O562 Mn546 2.290 . S
O562 C556 1.278 . S
O563 Mn546 2.251 . S
O563 C556 1.241 . S
O564 Mn565 2.163 . S
O564 C578 1.244 . S
Mn565 O564 2.163 . S
Mn565 O568 2.160 . S
Mn565 O569 2.221 . S
Mn565 O571 2.163 . S
Mn565 O573 2.160 . S
Mn565 O583 2.221 . S
O566 Mn567 2.087 . S
O566 C578 1.256 . S
Mn567 O566 2.087 . S
Mn567 O574 2.089 . S
Mn567 O583 2.290 . S
Mn567 O584 2.251 . S
O568 Mn565 2.160 . S
O568 C579 1.239 . S
O569 Mn565 2.221 . S
O569 Mn570 2.290 . S
O569 C580 1.278 . S
Mn570 O569 2.290 . S
Mn570 O572 2.089 . S
Mn570 O575 2.251 . S
Mn570 O576 2.087 . S
O571 Mn565 2.163 . S
O571 C581 1.244 . S
O572 Mn570 2.089 . S
O572 C579 1.256 . S
O573 Mn565 2.160 . S
O573 C582 1.239 . S
O574 Mn567 2.089 . S
O574 C582 1.256 . S
O575 Mn570 2.251 . S
O575 C580 1.241 . S
O576 Mn570 2.087 . S
O576 C581 1.256 . S
C577 O583 1.278 . S
C577 O584 1.241 . S
C578 O564 1.244 . S
C578 O566 1.256 . S
C579 O568 1.239 . S
C579 O572 1.256 . S
C580 O569 1.278 . S
C580 O575 1.241 . S
C581 O571 1.244 . S
C581 O576 1.256 . S
C582 O573 1.239 . S
C582 O574 1.256 . S
O583 Mn565 2.221 . S
O583 Mn567 2.290 . S
O583 C577 1.278 . S
O584 Mn567 2.251 . S
O584 C577 1.241 . S
O585 Mn586 2.163 . S
O585 C599 1.244 . S
Mn586 O585 2.163 . S
Mn586 O589 2.160 . S
Mn586 O590 2.221 . S
Mn586 O592 2.163 . S
Mn586 O594 2.160 . S
Mn586 O604 2.221 . S
O587 Mn588 2.087 . S
O587 C599 1.256 . S
Mn588 O587 2.087 . S
Mn588 O595 2.089 . S
Mn588 O604 2.290 . S
Mn588 O605 2.251 . S
O589 Mn586 2.160 . S
O589 C600 1.239 . S
O590 Mn586 2.221 . S
O590 Mn591 2.290 . S
O590 C601 1.278 . S
Mn591 O590 2.290 . S
Mn591 O593 2.089 . S
Mn591 O596 2.251 . S
Mn591 O597 2.087 . S
O592 Mn586 2.163 . S
O592 C602 1.244 . S
O593 Mn591 2.089 . S
O593 C600 1.256 . S
O594 Mn586 2.160 . S
O594 C603 1.239 . S
O595 Mn588 2.089 . S
O595 C603 1.256 . S
O596 Mn591 2.251 . S
O596 C601 1.241 . S
O597 Mn591 2.087 . S
O597 C602 1.256 . S
C598 O604 1.278 . S
C598 O605 1.241 . S
C599 O585 1.244 . S
C599 O587 1.256 . S
C600 O589 1.239 . S
C600 O593 1.256 . S
C601 O590 1.278 . S
C601 O596 1.241 . S
C602 O592 1.244 . S
C602 O597 1.256 . S
C603 O594 1.239 . S
C603 O595 1.256 . S
O604 Mn586 2.221 . S
O604 Mn588 2.290 . S
O604 C598 1.278 . S
O605 Mn588 2.251 . S
O605 C598 1.241 . S
O606 Mn607 2.163 . S
O606 C620 1.244 . S
Mn607 O606 2.163 . S
Mn607 O610 2.160 . S
Mn607 O611 2.221 . S
Mn607 O613 2.163 . S
Mn607 O615 2.160 . S
Mn607 O625 2.221 . S
O608 Mn609 2.087 . S
O608 C620 1.256 . S
Mn609 O608 2.087 . S
Mn609 O616 2.089 . S
Mn609 O625 2.290 . S
Mn609 O626 2.251 . S
O610 Mn607 2.160 . S
O610 C621 1.239 . S
O611 Mn607 2.221 . S
O611 Mn612 2.290 . S
O611 C622 1.278 . S
Mn612 O611 2.290 . S
Mn612 O614 2.089 . S
Mn612 O617 2.251 . S
Mn612 O618 2.087 . S
O613 Mn607 2.163 . S
O613 C623 1.244 . S
O614 Mn612 2.089 . S
O614 C621 1.256 . S
O615 Mn607 2.160 . S
O615 C624 1.239 . S
O616 Mn609 2.089 . S
O616 C624 1.256 . S
O617 Mn612 2.251 . S
O617 C622 1.241 . S
O618 Mn612 2.087 . S
O618 C623 1.256 . S
C619 O625 1.278 . S
C619 O626 1.241 . S
C620 O606 1.244 . S
C620 O608 1.256 . S
C621 O610 1.239 . S
C621 O614 1.256 . S
C622 O611 1.278 . S
C622 O617 1.241 . S
C623 O613 1.244 . S
C623 O618 1.256 . S
C624 O615 1.239 . S
C624 O616 1.256 . S
O625 Mn607 2.221 . S
O625 Mn609 2.290 . S
O625 C619 1.278 . S
O626 Mn609 2.251 . S
O626 C619 1.241 . S
O627 Mn628 2.163 . S
O627 C641 1.244 . S
Mn628 O627 2.163 . S
Mn628 O631 2.160 . S
Mn628 O632 2.221 . S
Mn628 O634 2.163 . S
Mn628 O636 2.160 . S
Mn628 O646 2.221 . S
O629 Mn630 2.087 . S
O629 C641 1.256 . S
Mn630 O629 2.087 . S
Mn630 O637 2.089 . S
Mn630 O646 2.290 . S
Mn630 O647 2.251 . S
O631 Mn628 2.160 . S
O631 C642 1.239 . S
O632 Mn628 2.221 . S
O632 Mn633 2.290 . S
O632 C643 1.278 . S
Mn633 O632 2.290 . S
Mn633 O635 2.089 . S
Mn633 O638 2.251 . S
Mn633 O639 2.087 . S
O634 Mn628 2.163 . S
O634 C644 1.244 . S
O635 Mn633 2.089 . S
O635 C642 1.256 . S
O636 Mn628 2.160 . S
O636 C645 1.239 . S
O637 Mn630 2.089 . S
O637 C645 1.256 . S
O638 Mn633 2.251 . S
O638 C643 1.241 . S
O639 Mn633 2.087 . S
O639 C644 1.256 . S
C640 O646 1.278 . S
C640 O647 1.241 . S
C641 O627 1.244 . S
C641 O629 1.256 . S
C642 O631 1.239 . S
C642 O635 1.256 . S
C643 O632 1.278 . S
C643 O638 1.241 . S
C644 O634 1.244 . S
C644 O639 1.256 . S
C645 O636 1.239 . S
C645 O637 1.256 . S
O646 Mn628 2.221 . S
O646 Mn630 2.290 . S
O646 C640 1.278 . S
O647 Mn630 2.251 . S
O647 C640 1.241 . S
H648 C654 0.930 . S
H649 C658 0.930 . S
H650 C663 0.929 . S
H651 C661 0.929 . S
H652 C656 0.929 . S
H653 C662 0.929 . S
C654 H648 0.930 . S
C654 C655 1.367 . S
C654 C662 1.378 . S
C655 C654 1.367 . S
C655 C663 1.433 . S
C656 H652 0.929 . S
C656 C658 1.378 . S
C656 C660 1.350 . S
C657 C660 1.463 . S
C657 C662 1.350 . S
C657 N665 1.427 . S
C658 H649 0.930 . S
C658 C656 1.378 . S
C658 C659 1.367 . S
C659 C658 1.367 . S
C659 C661 1.433 . S
C660 C656 1.350 . S
C660 C657 1.463 . S
C660 N664 1.427 . S
C661 H651 0.929 . S
C661 C659 1.433 . S
C661 N664 1.384 . S
C662 H653 0.929 . S
C662 C654 1.378 . S
C662 C657 1.350 . S
C663 H650 0.929 . S
C663 C655 1.433 . S
C663 N665 1.384 . S
N664 C660 1.427 . S
N664 C661 1.384 . S
N665 C657 1.427 . S
N665 C663 1.384 . S
H666 C672 0.930 . S
H667 C676 0.930 . S
H668 C681 0.929 . S
H669 C679 0.929 . S
H670 C674 0.929 . S
H671 C680 0.929 . S
C672 H666 0.930 . S
C672 C673 1.367 . S
C672 C680 1.378 . S
C673 C672 1.367 . S
C673 C681 1.433 . S
C674 H670 0.929 . S
C674 C676 1.378 . S
C674 C678 1.350 . S
C675 C678 1.463 . S
C675 C680 1.350 . S
C675 N683 1.427 . S
C676 H667 0.930 . S
C676 C674 1.378 . S
C676 C677 1.367 . S
C677 C676 1.367 . S
C677 C679 1.433 . S
C678 C674 1.350 . S
C678 C675 1.463 . S
C678 N682 1.427 . S
C679 H669 0.929 . S
C679 C677 1.433 . S
C679 N682 1.384 . S
C680 H671 0.929 . S
C680 C672 1.378 . S
C680 C675 1.350 . S
C681 H668 0.929 . S
C681 C673 1.433 . S
C681 N683 1.384 . S
N682 C678 1.427 . S
N682 C679 1.384 . S
N683 C675 1.427 . S
N683 C681 1.384 . S
H684 C690 0.930 . S
H685 C694 0.930 . S
H686 C699 0.929 . S
H687 C697 0.929 . S
H688 C692 0.929 . S
H689 C698 0.929 . S
C690 H684 0.930 . S
C690 C691 1.367 . S
C690 C698 1.378 . S
C691 C690 1.367 . S
C691 C699 1.433 . S
C692 H688 0.929 . S
C692 C694 1.378 . S
C692 C696 1.350 . S
C693 C696 1.463 . S
C693 C698 1.350 . S
C693 N701 1.427 . S
C694 H685 0.930 . S
C694 C692 1.378 . S
C694 C695 1.367 . S
C695 C694 1.367 . S
C695 C697 1.433 . S
C696 C692 1.350 . S
C696 C693 1.463 . S
C696 N700 1.427 . S
C697 H687 0.929 . S
C697 C695 1.433 . S
C697 N700 1.384 . S
C698 H689 0.929 . S
C698 C690 1.378 . S
C698 C693 1.350 . S
C699 H686 0.929 . S
C699 C691 1.433 . S
C699 N701 1.384 . S
N700 C696 1.427 . S
N700 C697 1.384 . S
N701 C693 1.427 . S
N701 C699 1.384 . S
H702 C708 0.930 . S
H703 C712 0.930 . S
H704 C717 0.929 . S
H705 C715 0.929 . S
H706 C710 0.929 . S
H707 C716 0.929 . S
C708 H702 0.930 . S
C708 C709 1.367 . S
C708 C716 1.378 . S
C709 C708 1.367 . S
C709 C717 1.433 . S
C710 H706 0.929 . S
C710 C712 1.378 1_554 S
C710 C714 1.350 . S
C711 C714 1.463 . S
C711 C716 1.350 . S
C711 N719 1.427 . S
C712 H703 0.930 . S
C712 C710 1.378 1_556 S
C712 C713 1.367 . S
C713 C712 1.367 . S
C713 C715 1.433 . S
C714 C710 1.350 . S
C714 C711 1.463 . S
C714 N718 1.427 . S
C715 H705 0.929 . S
C715 C713 1.433 . S
C715 N718 1.384 1_556 S
C716 H707 0.929 . S
C716 C708 1.378 . S
C716 C711 1.350 . S
C717 H704 0.929 . S
C717 C709 1.433 . S
C717 N719 1.384 . S
N718 C714 1.427 . S
N718 C715 1.384 1_554 S
N719 C711 1.427 . S
N719 C717 1.384 . S
H720 C726 0.930 . S
H721 C730 0.930 . S
H722 C735 0.929 . S
H723 C733 0.929 . S
H724 C728 0.929 . S
H725 C734 0.929 . S
C726 H720 0.930 . S
C726 C727 1.367 . S
C726 C734 1.378 . S
C727 C726 1.367 . S
C727 C735 1.433 . S
C728 H724 0.929 . S
C728 C730 1.378 . S
C728 C732 1.350 . S
C729 C732 1.463 . S
C729 C734 1.350 . S
C729 N737 1.427 . S
C730 H721 0.930 . S
C730 C728 1.378 . S
C730 C731 1.367 . S
C731 C730 1.367 . S
C731 C733 1.433 . S
C732 C728 1.350 . S
C732 C729 1.463 . S
C732 N736 1.427 . S
C733 H723 0.929 . S
C733 C731 1.433 . S
C733 N736 1.384 . S
C734 H725 0.929 . S
C734 C726 1.378 . S
C734 C729 1.350 . S
C735 H722 0.929 . S
C735 C727 1.433 . S
C735 N737 1.384 . S
N736 C732 1.427 . S
N736 C733 1.384 . S
N737 C729 1.427 . S
N737 C735 1.384 . S
H738 C744 0.930 . S
H739 C748 0.930 . S
H740 C753 0.929 . S
H741 C751 0.929 . S
H742 C746 0.929 . S
H743 C752 0.929 . S
C744 H738 0.930 . S
C744 C745 1.367 . S
C744 C752 1.378 . S
C745 C744 1.367 . S
C745 C753 1.433 . S
C746 H742 0.929 . S
C746 C748 1.378 . S
C746 C750 1.350 . S
C747 C750 1.463 . S
C747 C752 1.350 . S
C747 N755 1.427 . S
C748 H739 0.930 . S
C748 C746 1.378 . S
C748 C749 1.367 . S
C749 C748 1.367 . S
C749 C751 1.433 . S
C750 C746 1.350 . S
C750 C747 1.463 . S
C750 N754 1.427 . S
C751 H741 0.929 . S
C751 C749 1.433 . S
C751 N754 1.384 . S
C752 H743 0.929 . S
C752 C744 1.378 . S
C752 C747 1.350 . S
C753 H740 0.929 . S
C753 C745 1.433 . S
C753 N755 1.384 . S
N754 C750 1.427 . S
N754 C751 1.384 . S
N755 C747 1.427 . S
N755 C753 1.384 . S
H756 C762 0.930 . S
H757 C766 0.930 . S
H758 C771 0.929 . S
H759 C769 0.929 . S
H760 C764 0.929 . S
H761 C770 0.929 . S
C762 H756 0.930 . S
C762 C763 1.367 . S
C762 C770 1.378 . S
C763 C762 1.367 . S
C763 C771 1.433 . S
C764 H760 0.929 . S
C764 C766 1.378 . S
C764 C768 1.350 . S
C765 C768 1.463 . S
C765 C770 1.350 . S
C765 N773 1.427 . S
C766 H757 0.930 . S
C766 C764 1.378 . S
C766 C767 1.367 . S
C767 C766 1.367 . S
C767 C769 1.433 . S
C768 C764 1.350 . S
C768 C765 1.463 . S
C768 N772 1.427 . S
C769 H759 0.929 . S
C769 C767 1.433 . S
C769 N772 1.384 . S
C770 H761 0.929 . S
C770 C762 1.378 . S
C770 C765 1.350 . S
C771 H758 0.929 . S
C771 C763 1.433 . S
C771 N773 1.384 . S
N772 C768 1.427 . S
N772 C769 1.384 . S
N773 C765 1.427 . S
N773 C771 1.384 . S
H774 C780 0.930 . S
H775 C784 0.930 . S
H776 C789 0.929 . S
H777 C787 0.929 . S
H778 C782 0.929 . S
H779 C788 0.929 . S
C780 H774 0.930 . S
C780 C781 1.367 . S
C780 C788 1.378 . S
C781 C780 1.367 . S
C781 C789 1.433 . S
C782 H778 0.929 . S
C782 C784 1.378 . S
C782 C786 1.350 . S
C783 C786 1.463 . S
C783 C788 1.350 1_554 S
C783 N791 1.427 . S
C784 H775 0.930 . S
C784 C782 1.378 . S
C784 C785 1.367 . S
C785 C784 1.367 . S
C785 C787 1.433 . S
C786 C782 1.350 . S
C786 C783 1.463 . S
C786 N790 1.427 . S
C787 H777 0.929 . S
C787 C785 1.433 . S
C787 N790 1.384 . S
C788 H779 0.929 . S
C788 C780 1.378 . S
C788 C783 1.350 1_556 S
C789 H776 0.929 . S
C789 C781 1.433 . S
C789 N791 1.384 1_556 S
N790 C786 1.427 . S
N790 C787 1.384 . S
N791 C783 1.427 . S
N791 C789 1.384 1_554 S
H792 C798 0.930 . S
H793 C802 0.930 . S
H794 C807 0.929 . S
H795 C805 0.929 . S
H796 C800 0.929 . S
H797 C806 0.929 . S
C798 H792 0.930 . S
C798 C799 1.367 . S
C798 C806 1.378 . S
C799 C798 1.367 . S
C799 C807 1.433 . S
C800 H796 0.929 . S
C800 C802 1.378 . S
C800 C804 1.350 . S
C801 C804 1.463 . S
C801 C806 1.350 . S
C801 N809 1.427 . S
C802 H793 0.930 . S
C802 C800 1.378 . S
C802 C803 1.367 . S
C803 C802 1.367 . S
C803 C805 1.433 . S
C804 C800 1.350 . S
C804 C801 1.463 . S
C804 N808 1.427 . S
C805 H795 0.929 . S
C805 C803 1.433 . S
C805 N808 1.384 . S
C806 H797 0.929 . S
C806 C798 1.378 . S
C806 C801 1.350 . S
C807 H794 0.929 . S
C807 C799 1.433 . S
C807 N809 1.384 . S
N808 C804 1.427 . S
N808 C805 1.384 . S
N809 C801 1.427 . S
N809 C807 1.384 . S
H810 C816 0.930 . S
H811 C820 0.930 . S
H812 C825 0.929 . S
H813 C823 0.929 . S
H814 C818 0.929 . S
H815 C824 0.929 . S
C816 H810 0.930 . S
C816 C817 1.367 . S
C816 C824 1.378 . S
C817 C816 1.367 . S
C817 C825 1.433 . S
C818 H814 0.929 . S
C818 C820 1.378 1_545 S
C818 C822 1.350 . S
C819 C822 1.463 . S
C819 C824 1.350 . S
C819 N827 1.427 . S
C820 H811 0.930 . S
C820 C818 1.378 1_565 S
C820 C821 1.367 . S
C821 C820 1.367 . S
C821 C823 1.433 . S
C822 C818 1.350 . S
C822 C819 1.463 . S
C822 N826 1.427 . S
C823 H813 0.929 . S
C823 C821 1.433 . S
C823 N826 1.384 1_565 S
C824 H815 0.929 . S
C824 C816 1.378 . S
C824 C819 1.350 . S
C825 H812 0.929 . S
C825 C817 1.433 . S
C825 N827 1.384 . S
N826 C822 1.427 . S
N826 C823 1.384 1_545 S
N827 C819 1.427 . S
N827 C825 1.384 . S
H828 C834 0.930 . S
H829 C838 0.930 . S
H830 C843 0.929 . S
H831 C841 0.929 . S
H832 C836 0.929 1_545 S
H833 C842 0.929 . S
C834 H828 0.930 . S
C834 C835 1.367 1_565 S
C834 C842 1.378 . S
C835 C834 1.367 1_545 S
C835 C843 1.433 . S
C836 H832 0.929 1_565 S
C836 C838 1.378 . S
C836 C840 1.350 . S
C837 C840 1.463 . S
C837 C842 1.350 . S
C837 N845 1.427 1_565 S
C838 H829 0.930 . S
C838 C836 1.378 . S
C838 C839 1.367 . S
C839 C838 1.367 . S
C839 C841 1.433 . S
C840 C836 1.350 . S
C840 C837 1.463 . S
C840 N844 1.427 . S
C841 H831 0.929 . S
C841 C839 1.433 . S
C841 N844 1.384 . S
C842 H833 0.929 . S
C842 C834 1.378 . S
C842 C837 1.350 . S
C843 H830 0.929 . S
C843 C835 1.433 . S
C843 N845 1.384 . S
N844 C840 1.427 . S
N844 C841 1.384 . S
N845 C837 1.427 1_545 S
N845 C843 1.384 . S
H846 C852 0.930 . S
H847 C856 0.930 . S
H848 C861 0.929 . S
H849 C859 0.929 . S
H850 C854 0.929 . S
H851 C860 0.923 1_554 S
C852 H846 0.930 . S
C852 C853 1.367 1_554 S
C852 C860 1.375 1_564 S
C853 C852 1.367 1_556 S
C853 C861 1.433 . S
C854 H850 0.929 . S
C854 C856 1.378 . S
C854 C858 1.350 . S
C855 C858 1.463 . S
C855 C860 1.358 . S
C855 N863 1.427 . S
C856 H847 0.930 . S
C856 C854 1.378 . S
C856 C857 1.367 . S
C857 C856 1.367 . S
C857 C859 1.433 . S
C858 C854 1.350 . S
C858 C855 1.463 . S
C858 N862 1.427 . S
C859 H849 0.929 . S
C859 C857 1.433 . S
C859 N862 1.384 . S
C860 H851 0.923 1_556 S
C860 C852 1.375 1_546 S
C860 C855 1.358 . S
C861 H848 0.929 . S
C861 C853 1.433 . S
C861 N863 1.384 1_565 S
N862 C858 1.427 . S
N862 C859 1.384 . S
N863 C855 1.427 . S
N863 C861 1.384 1_545 S
H864 C870 0.930 . S
H865 C874 0.930 . S
H866 C879 0.929 . S
H867 C877 0.929 . S
H868 C872 0.929 . S
H869 C878 0.929 . S
C870 H864 0.930 . S
C870 C871 1.367 . S
C870 C878 1.378 . S
C871 C870 1.367 . S
C871 C879 1.433 . S
C872 H868 0.929 . S
C872 C874 1.378 . S
C872 C876 1.350 . S
C873 C876 1.463 . S
C873 C878 1.350 . S
C873 N881 1.427 . S
C874 H865 0.930 . S
C874 C872 1.378 . S
C874 C875 1.367 . S
C875 C874 1.367 . S
C875 C877 1.433 . S
C876 C872 1.350 . S
C876 C873 1.463 . S
C876 N880 1.427 . S
C877 H867 0.929 . S
C877 C875 1.433 . S
C877 N880 1.384 . S
C878 H869 0.929 . S
C878 C870 1.378 . S
C878 C873 1.350 . S
C879 H866 0.929 . S
C879 C871 1.433 . S
C879 N881 1.384 . S
N880 C876 1.427 . S
N880 C877 1.384 . S
N881 C873 1.427 . S
N881 C879 1.384 . S
H882 C888 0.930 . S
H883 C892 0.930 . S
H884 C897 0.929 . S
H885 C895 0.929 . S
H886 C890 0.929 . S
H887 C896 0.929 . S
C888 H882 0.930 . S
C888 C889 1.367 . S
C888 C896 1.378 . S
C889 C888 1.367 . S
C889 C897 1.433 . S
C890 H886 0.929 . S
C890 C892 1.378 1_545 S
C890 C894 1.350 . S
C891 C894 1.463 . S
C891 C896 1.350 . S
C891 N899 1.427 . S
C892 H883 0.930 . S
C892 C890 1.378 1_565 S
C892 C893 1.367 . S
C893 C892 1.367 . S
C893 C895 1.433 1_565 S
C894 C890 1.350 . S
C894 C891 1.463 . S
C894 N898 1.427 . S
C895 H885 0.929 . S
C895 C893 1.433 1_545 S
C895 N898 1.384 . S
C896 H887 0.929 . S
C896 C888 1.378 . S
C896 C891 1.350 . S
C897 H884 0.929 . S
C897 C889 1.433 . S
C897 N899 1.384 . S
N898 C894 1.427 . S
N898 C895 1.384 . S
N899 C891 1.427 . S
N899 C897 1.384 . S
H900 C906 0.930 . S
H901 C910 0.930 . S
H902 C915 0.929 . S
H903 C913 0.929 . S
H904 C908 0.929 . S
H905 C914 0.929 . S
C906 H900 0.930 . S
C906 C907 1.367 . S
C906 C914 1.378 . S
C907 C906 1.367 . S
C907 C915 1.433 . S
C908 H904 0.929 . S
C908 C910 1.378 . S
C908 C912 1.350 . S
C909 C912 1.463 . S
C909 C914 1.350 . S
C909 N917 1.427 . S
C910 H901 0.930 . S
C910 C908 1.378 . S
C910 C911 1.367 . S
C911 C910 1.367 . S
C911 C913 1.433 . S
C912 C908 1.350 . S
C912 C909 1.463 . S
C912 N916 1.427 . S
C913 H903 0.929 . S
C913 C911 1.433 . S
C913 N916 1.384 . S
C914 H905 0.929 . S
C914 C906 1.378 . S
C914 C909 1.350 . S
C915 H902 0.929 . S
C915 C907 1.433 . S
C915 N917 1.384 . S
N916 C912 1.427 . S
N916 C913 1.384 . S
N917 C909 1.427 . S
N917 C915 1.384 . S
H918 C924 0.930 . S
H919 C928 0.930 . S
H920 C933 0.929 . S
H921 C931 0.929 . S
H922 C926 0.929 . S
H923 C932 0.929 . S
C924 H918 0.930 . S
C924 C925 1.367 . S
C924 C932 1.378 1_565 S
C925 C924 1.367 . S
C925 C933 1.433 . S
C926 H922 0.929 . S
C926 C928 1.378 . S
C926 C930 1.350 . S
C927 C930 1.463 . S
C927 C932 1.350 . S
C927 N935 1.427 . S
C928 H919 0.930 . S
C928 C926 1.378 . S
C928 C929 1.367 . S
C929 C928 1.367 . S
C929 C931 1.433 . S
C930 C926 1.350 . S
C930 C927 1.463 . S
C930 N934 1.427 . S
C931 H921 0.929 . S
C931 C929 1.433 . S
C931 N934 1.384 . S
C932 H923 0.929 . S
C932 C924 1.378 1_545 S
C932 C927 1.350 . S
C933 H920 0.929 . S
C933 C925 1.433 . S
C933 N935 1.384 1_565 S
N934 C930 1.427 . S
N934 C931 1.384 . S
N935 C927 1.427 . S
N935 C933 1.384 1_545 S
H936 C942 0.930 . S
H937 C946 0.930 . S
H938 C951 0.929 . S
H939 C949 0.929 . S
H940 C944 0.929 . S
H941 C950 0.929 . S
C942 H936 0.930 . S
C942 C943 1.367 . S
C942 C950 1.378 . S
C943 C942 1.367 . S
C943 C951 1.433 . S
C944 H940 0.929 . S
C944 C946 1.378 . S
C944 C948 1.350 . S
C945 C948 1.463 . S
C945 C950 1.350 . S
C945 N953 1.427 . S
C946 H937 0.930 . S
C946 C944 1.378 . S
C946 C947 1.367 . S
C947 C946 1.367 . S
C947 C949 1.433 . S
C948 C944 1.350 . S
C948 C945 1.463 . S
C948 N952 1.427 . S
C949 H939 0.929 . S
C949 C947 1.433 . S
C949 N952 1.384 . S
C950 H941 0.929 . S
C950 C942 1.378 . S
C950 C945 1.350 . S
C951 H938 0.929 . S
C951 C943 1.433 . S
C951 N953 1.384 . S
N952 C948 1.427 . S
N952 C949 1.384 . S
N953 C945 1.427 . S
N953 C951 1.384 . S
H954 C960 0.930 . S
H955 C964 0.930 . S
H956 C969 0.929 . S
H957 C967 0.929 . S
H958 C962 0.929 . S
H959 C968 0.929 . S
C960 H954 0.930 . S
C960 C961 1.367 . S
C960 C968 1.378 . S
C961 C960 1.367 . S
C961 C969 1.433 . S
C962 H958 0.929 . S
C962 C964 1.378 . S
C962 C966 1.350 . S
C963 C966 1.463 . S
C963 C968 1.350 . S
C963 N971 1.427 . S
C964 H955 0.930 . S
C964 C962 1.378 . S
C964 C965 1.367 . S
C965 C964 1.367 . S
C965 C967 1.433 . S
C966 C962 1.350 . S
C966 C963 1.463 . S
C966 N970 1.427 . S
C967 H957 0.929 . S
C967 C965 1.433 . S
C967 N970 1.384 . S
C968 H959 0.929 . S
C968 C960 1.378 . S
C968 C963 1.350 . S
C969 H956 0.929 . S
C969 C961 1.433 . S
C969 N971 1.384 . S
N970 C966 1.427 . S
N970 C967 1.384 . S
N971 C963 1.427 . S
N971 C969 1.384 . S
H972 C978 0.930 . S
H973 C982 0.930 . S
H974 C987 0.929 . S
H975 C985 0.929 . S
H976 C980 0.929 . S
H977 C986 0.929 . S
C978 H972 0.930 . S
C978 C979 1.367 . S
C978 C986 1.378 . S
C979 C978 1.367 . S
C979 C987 1.433 . S
C980 H976 0.929 . S
C980 C982 1.378 1_455 S
C980 C984 1.350 . S
C981 C984 1.463 . S
C981 C986 1.350 . S
C981 N989 1.427 . S
C982 H973 0.930 . S
C982 C980 1.378 1_655 S
C982 C983 1.367 . S
C983 C982 1.367 . S
C983 C985 1.433 . S
C984 C980 1.350 . S
C984 C981 1.463 . S
C984 N988 1.427 . S
C985 H975 0.929 . S
C985 C983 1.433 . S
C985 N988 1.384 1_655 S
C986 H977 0.929 . S
C986 C978 1.378 . S
C986 C981 1.350 . S
C987 H974 0.929 . S
C987 C979 1.433 . S
C987 N989 1.384 . S
N988 C984 1.427 . S
N988 C985 1.384 1_455 S
N989 C981 1.427 . S
N989 C987 1.384 . S
H990 C996 0.930 . S
H991 C1000 0.930 . S
H992 C1005 0.929 . S
H993 C1003 0.929 . S
H994 C998 0.929 . S
H995 C1004 0.929 . S
C996 H990 0.930 . S
C996 C997 1.367 . S
C996 C1004 1.378 . S
C997 C996 1.367 . S
C997 C1005 1.433 . S
C998 H994 0.929 . S
C998 C1000 1.378 . S
C998 C1002 1.350 . S
C999 C1002 1.463 . S
C999 C1004 1.350 . S
C999 N1007 1.427 . S
C1000 H991 0.930 . S
C1000 C998 1.378 . S
C1000 C1001 1.367 . S
C1001 C1000 1.367 . S
C1001 C1003 1.433 . S
C1002 C998 1.350 . S
C1002 C999 1.463 . S
C1002 N1006 1.427 . S
C1003 H993 0.929 . S
C1003 C1001 1.433 . S
C1003 N1006 1.384 . S
C1004 H995 0.929 . S
C1004 C996 1.378 . S
C1004 C999 1.350 . S
C1005 H992 0.929 . S
C1005 C997 1.433 . S
C1005 N1007 1.384 . S
N1006 C1002 1.427 . S
N1006 C1003 1.384 . S
N1007 C999 1.427 . S
N1007 C1005 1.384 . S
H1008 C1014 0.930 . S
H1009 C1018 0.930 . S
H1010 C1023 0.929 . S
H1011 C1021 0.929 . S
H1012 C1016 0.929 . S
H1013 C1022 0.943 . S
C1014 H1008 0.930 . S
C1014 C1015 1.367 . S
C1014 C1022 1.378 . S
C1015 C1014 1.367 . S
C1015 C1023 1.433 . S
C1016 H1012 0.929 . S
C1016 C1018 1.378 . S
C1016 C1020 1.350 . S
C1017 C1020 1.463 1_655 S
C1017 C1022 1.350 . S
C1017 N1025 1.427 . S
C1018 H1009 0.930 . S
C1018 C1016 1.378 . S
C1018 C1019 1.367 . S
C1019 C1018 1.367 . S
C1019 C1021 1.433 . S
C1020 C1016 1.350 . S
C1020 C1017 1.463 1_455 S
C1020 N1024 1.427 . S
C1021 H1011 0.929 . S
C1021 C1019 1.433 . S
C1021 N1024 1.384 . S
C1022 H1013 0.943 . S
C1022 C1014 1.378 . S
C1022 C1017 1.350 . S
C1023 H1010 0.929 . S
C1023 C1015 1.433 . S
C1023 N1025 1.384 . S
N1024 C1020 1.427 . S
N1024 C1021 1.384 . S
N1025 C1017 1.427 . S
N1025 C1023 1.384 . S
H1026 C1032 0.930 . S
H1027 C1036 0.930 . S
H1028 C1041 0.929 . S
H1029 C1039 0.929 . S
H1030 C1034 0.929 . S
H1031 C1040 0.929 . S
C1032 H1026 0.930 . S
C1032 C1033 1.367 . S
C1032 C1040 1.378 . S
C1033 C1032 1.367 . S
C1033 C1041 1.433 . S
C1034 H1030 0.929 . S
C1034 C1036 1.378 . S
C1034 C1038 1.350 . S
C1035 C1038 1.463 . S
C1035 C1040 1.350 . S
C1035 N1043 1.427 . S
C1036 H1027 0.930 . S
C1036 C1034 1.378 . S
C1036 C1037 1.367 . S
C1037 C1036 1.367 . S
C1037 C1039 1.433 . S
C1038 C1034 1.350 . S
C1038 C1035 1.463 . S
C1038 N1042 1.427 . S
C1039 H1029 0.929 . S
C1039 C1037 1.433 . S
C1039 N1042 1.384 . S
C1040 H1031 0.929 . S
C1040 C1032 1.378 . S
C1040 C1035 1.350 . S
C1041 H1028 0.929 . S
C1041 C1033 1.433 . S
C1041 N1043 1.384 . S
N1042 C1038 1.427 . S
N1042 C1039 1.384 . S
N1043 C1035 1.427 . S
N1043 C1041 1.384 . S
H1044 C1050 0.930 . S
H1045 C1054 0.930 . S
H1046 C1059 0.929 . S
H1047 C1057 0.929 . S
H1048 C1052 0.929 . S
H1049 C1058 0.929 . S
C1050 H1044 0.930 . S
C1050 C1051 1.367 . S
C1050 C1058 1.378 . S
C1051 C1050 1.367 . S
C1051 C1059 1.433 . S
C1052 H1048 0.929 . S
C1052 C1054 1.378 1_455 S
C1052 C1056 1.350 . S
C1053 C1056 1.463 . S
C1053 C1058 1.350 . S
C1053 N1061 1.427 . S
C1054 H1045 0.930 . S
C1054 C1052 1.378 1_655 S
C1054 C1055 1.367 . S
C1055 C1054 1.367 . S
C1055 C1057 1.433 . S
C1056 C1052 1.350 . S
C1056 C1053 1.463 . S
C1056 N1060 1.427 1_455 S
C1057 H1047 0.929 . S
C1057 C1055 1.433 . S
C1057 N1060 1.384 . S
C1058 H1049 0.929 . S
C1058 C1050 1.378 . S
C1058 C1053 1.350 . S
C1059 H1046 0.929 . S
C1059 C1051 1.433 . S
C1059 N1061 1.384 . S
N1060 C1056 1.427 1_655 S
N1060 C1057 1.384 . S
N1061 C1053 1.427 . S
N1061 C1059 1.384 . S
H1062 C1068 0.930 . S
H1063 C1072 0.930 . S
H1064 C1077 0.929 . S
H1065 C1075 0.929 . S
H1066 C1070 0.929 . S
H1067 C1076 0.929 . S
C1068 H1062 0.930 . S
C1068 C1069 1.367 . S
C1068 C1076 1.378 . S
C1069 C1068 1.367 . S
C1069 C1077 1.433 . S
C1070 H1066 0.929 . S
C1070 C1072 1.378 . S
C1070 C1074 1.350 . S
C1071 C1074 1.463 . S
C1071 C1076 1.350 . S
C1071 N1079 1.427 . S
C1072 H1063 0.930 . S
C1072 C1070 1.378 . S
C1072 C1073 1.367 . S
C1073 C1072 1.367 . S
C1073 C1075 1.433 . S
C1074 C1070 1.350 . S
C1074 C1071 1.463 . S
C1074 N1078 1.427 . S
C1075 H1065 0.929 . S
C1075 C1073 1.433 . S
C1075 N1078 1.384 . S
C1076 H1067 0.929 . S
C1076 C1068 1.378 . S
C1076 C1071 1.350 . S
C1077 H1064 0.929 . S
C1077 C1069 1.433 . S
C1077 N1079 1.384 . S
N1078 C1074 1.427 . S
N1078 C1075 1.384 . S
N1079 C1071 1.427 . S
N1079 C1077 1.384 . S
H1080 C1086 0.930 . S
H1081 C1090 0.930 . S
H1082 C1095 0.929 1_455 S
H1083 C1093 0.929 . S
H1084 C1088 0.929 . S
H1085 C1094 0.929 . S
C1086 H1080 0.930 . S
C1086 C1087 1.367 . S
C1086 C1094 1.378 . S
C1087 C1086 1.367 . S
C1087 C1095 1.433 . S
C1088 H1084 0.929 . S
C1088 C1090 1.378 . S
C1088 C1092 1.350 . S
C1089 C1092 1.463 . S
C1089 C1094 1.350 . S
C1089 N1097 1.427 . S
C1090 H1081 0.930 . S
C1090 C1088 1.378 . S
C1090 C1091 1.367 . S
C1091 C1090 1.367 . S
C1091 C1093 1.433 . S
C1092 C1088 1.350 . S
C1092 C1089 1.463 . S
C1092 N1096 1.427 . S
C1093 H1083 0.929 . S
C1093 C1091 1.433 . S
C1093 N1096 1.384 . S
C1094 H1085 0.929 . S
C1094 C1086 1.378 . S
C1094 C1089 1.350 . S
C1095 H1082 0.929 1_655 S
C1095 C1087 1.433 . S
C1095 N1097 1.384 . S
N1096 C1092 1.427 . S
N1096 C1093 1.384 . S
N1097 C1089 1.427 . S
N1097 C1095 1.384 . S
H1098 C1104 0.930 . S
H1099 C1108 0.930 . S
H1100 C1113 0.929 . S
H1101 C1111 0.929 . S
H1102 C1106 0.929 . S
H1103 C1112 0.929 . S
C1104 H1098 0.930 . S
C1104 C1105 1.367 . S
C1104 C1112 1.378 . S
C1105 C1104 1.367 . S
C1105 C1113 1.433 . S
C1106 H1102 0.929 . S
C1106 C1108 1.378 . S
C1106 C1110 1.350 . S
C1107 C1110 1.463 . S
C1107 C1112 1.350 . S
C1107 N1115 1.427 . S
C1108 H1099 0.930 . S
C1108 C1106 1.378 . S
C1108 C1109 1.367 . S
C1109 C1108 1.367 . S
C1109 C1111 1.433 . S
C1110 C1106 1.350 . S
C1110 C1107 1.463 . S
C1110 N1114 1.427 . S
C1111 H1101 0.929 . S
C1111 C1109 1.433 . S
C1111 N1114 1.384 . S
C1112 H1103 0.929 . S
C1112 C1104 1.378 . S
C1112 C1107 1.350 . S
C1113 H1100 0.929 . S
C1113 C1105 1.433 . S
C1113 N1115 1.384 . S
N1114 C1110 1.427 . S
N1114 C1111 1.384 . S
N1115 C1107 1.427 . S
N1115 C1113 1.384 . S
H1116 C1122 0.930 . S
H1117 C1126 0.930 . S
H1118 C1131 0.929 . S
H1119 C1129 0.929 . S
H1120 C1124 0.929 . S
H1121 C1130 0.929 . S
C1122 H1116 0.930 . S
C1122 C1123 1.367 . S
C1122 C1130 1.378 . S
C1123 C1122 1.367 . S
C1123 C1131 1.433 . S
C1124 H1120 0.929 . S
C1124 C1126 1.378 . S
C1124 C1128 1.350 . S
C1125 C1128 1.463 . S
C1125 C1130 1.350 . S
C1125 N1133 1.427 . S
C1126 H1117 0.930 . S
C1126 C1124 1.378 . S
C1126 C1127 1.367 . S
C1127 C1126 1.367 . S
C1127 C1129 1.433 . S
C1128 C1124 1.350 . S
C1128 C1125 1.463 . S
C1128 N1132 1.427 . S
C1129 H1119 0.929 . S
C1129 C1127 1.433 . S
C1129 N1132 1.384 . S
C1130 H1121 0.929 . S
C1130 C1122 1.378 . S
C1130 C1125 1.350 . S
C1131 H1118 0.929 . S
C1131 C1123 1.433 . S
C1131 N1133 1.384 . S
N1132 C1128 1.427 . S
N1132 C1129 1.384 . S
N1133 C1125 1.427 . S
N1133 C1131 1.384 . S
H1134 C1140 0.930 . S
H1135 C1144 0.930 . S
H1136 C1149 0.929 . S
H1137 C1147 0.929 . S
H1138 C1142 0.929 . S
H1139 C1148 0.929 . S
C1140 H1134 0.930 . S
C1140 C1141 1.367 . S
C1140 C1148 1.378 . S
C1141 C1140 1.367 . S
C1141 C1149 1.433 . S
C1142 H1138 0.929 . S
C1142 C1144 1.378 . S
C1142 C1146 1.350 . S
C1143 C1146 1.463 1_556 S
C1143 C1148 1.350 . S
C1143 N1151 1.427 . S
C1144 H1135 0.930 . S
C1144 C1142 1.378 . S
C1144 C1145 1.367 . S
C1145 C1144 1.367 . S
C1145 C1147 1.433 . S
C1146 C1142 1.350 . S
C1146 C1143 1.463 1_554 S
C1146 N1150 1.427 . S
C1147 H1137 0.929 . S
C1147 C1145 1.433 . S
C1147 N1150 1.384 . S
C1148 H1139 0.929 . S
C1148 C1140 1.378 . S
C1148 C1143 1.350 . S
C1149 H1136 0.929 . S
C1149 C1141 1.433 . S
C1149 N1151 1.384 . S
N1150 C1146 1.427 . S
N1150 C1147 1.384 . S
N1151 C1143 1.427 . S
N1151 C1149 1.384 . S
H1152 C1158 0.930 . S
H1153 C1162 0.930 . S
H1154 C1167 0.929 . S
H1155 C1165 0.929 . S
H1156 C1160 0.891 1_455 S
H1157 C1166 0.929 . S
C1158 H1152 0.930 . S
C1158 C1159 1.367 . S
C1158 C1166 1.378 . S
C1159 C1158 1.367 . S
C1159 C1167 1.433 1_655 S
C1160 H1156 0.891 1_655 S
C1160 C1162 1.378 . S
C1160 C1164 1.350 . S
C1161 C1164 1.463 . S
C1161 C1166 1.350 . S
C1161 N1169 1.427 1_655 S
C1162 H1153 0.930 . S
C1162 C1160 1.378 . S
C1162 C1163 1.367 . S
C1163 C1162 1.367 . S
C1163 C1165 1.433 . S
C1164 C1160 1.350 . S
C1164 C1161 1.463 . S
C1164 N1168 1.427 . S
C1165 H1155 0.929 . S
C1165 C1163 1.433 . S
C1165 N1168 1.384 . S
C1166 H1157 0.929 . S
C1166 C1158 1.378 . S
C1166 C1161 1.350 . S
C1167 H1154 0.929 . S
C1167 C1159 1.433 1_455 S
C1167 N1169 1.384 . S
N1168 C1164 1.427 . S
N1168 C1165 1.384 . S
N1169 C1161 1.427 1_455 S
N1169 C1167 1.384 . S
H1170 C1176 0.930 . S
H1171 C1180 0.930 . S
H1172 C1185 0.929 . S
H1173 C1183 0.929 . S
H1174 C1178 0.929 . S
H1175 C1184 0.929 . S
C1176 H1170 0.930 . S
C1176 C1177 1.367 . S
C1176 C1184 1.378 . S
C1177 C1176 1.367 . S
C1177 C1185 1.433 . S
C1178 H1174 0.929 . S
C1178 C1180 1.378 . S
C1178 C1182 1.350 . S
C1179 C1182 1.463 . S
C1179 C1184 1.350 . S
C1179 N1187 1.427 . S
C1180 H1171 0.930 . S
C1180 C1178 1.378 . S
C1180 C1181 1.367 . S
C1181 C1180 1.367 . S
C1181 C1183 1.433 . S
C1182 C1178 1.350 . S
C1182 C1179 1.463 . S
C1182 N1186 1.427 . S
C1183 H1173 0.929 . S
C1183 C1181 1.433 . S
C1183 N1186 1.384 . S
C1184 H1175 0.929 . S
C1184 C1176 1.378 . S
C1184 C1179 1.350 . S
C1185 H1172 0.929 . S
C1185 C1177 1.433 . S
C1185 N1187 1.384 . S
N1186 C1182 1.427 . S
N1186 C1183 1.384 . S
N1187 C1179 1.427 . S
N1187 C1185 1.384 . S
H1188 C1194 0.930 . S
H1189 C1198 0.930 . S
H1190 C1203 0.929 . S
H1191 C1201 0.929 . S
H1192 C1196 0.929 . S
H1193 C1202 0.929 . S
C1194 H1188 0.930 . S
C1194 C1195 1.367 . S
C1194 C1202 1.378 . S
C1195 C1194 1.367 . S
C1195 C1203 1.433 . S
C1196 H1192 0.929 . S
C1196 C1198 1.378 . S
C1196 C1200 1.350 . S
C1197 C1200 1.463 . S
C1197 C1202 1.350 . S
C1197 N1205 1.427 . S
C1198 H1189 0.930 . S
C1198 C1196 1.378 . S
C1198 C1199 1.367 . S
C1199 C1198 1.367 . S
C1199 C1201 1.433 . S
C1200 C1196 1.350 . S
C1200 C1197 1.463 . S
C1200 N1204 1.427 . S
C1201 H1191 0.929 . S
C1201 C1199 1.433 . S
C1201 N1204 1.384 . S
C1202 H1193 0.929 . S
C1202 C1194 1.378 . S
C1202 C1197 1.350 . S
C1203 H1190 0.929 . S
C1203 C1195 1.433 . S
C1203 N1205 1.384 . S
N1204 C1200 1.427 . S
N1204 C1201 1.384 . S
N1205 C1197 1.427 . S
N1205 C1203 1.384 . S
H1206 C1212 0.930 . S
H1207 C1216 0.930 . S
H1208 C1221 0.929 . S
H1209 C1219 0.929 . S
H1210 C1214 0.929 . S
H1211 C1220 0.929 . S
C1212 H1206 0.930 . S
C1212 C1213 1.367 . S
C1212 C1220 1.378 . S
C1213 C1212 1.367 . S
C1213 C1221 1.433 . S
C1214 H1210 0.929 . S
C1214 C1216 1.378 . S
C1214 C1218 1.350 1_556 S
C1215 C1218 1.463 . S
C1215 C1220 1.350 . S
C1215 N1223 1.427 . S
C1216 H1207 0.930 . S
C1216 C1214 1.378 . S
C1216 C1217 1.367 . S
C1217 C1216 1.367 . S
C1217 C1219 1.433 . S
C1218 C1214 1.350 1_554 S
C1218 C1215 1.463 . S
C1218 N1222 1.427 . S
C1219 H1209 0.929 . S
C1219 C1217 1.433 . S
C1219 N1222 1.384 1_556 S
C1220 H1211 0.929 . S
C1220 C1212 1.378 . S
C1220 C1215 1.350 . S
C1221 H1208 0.929 . S
C1221 C1213 1.433 . S
C1221 N1223 1.384 . S
N1222 C1218 1.427 . S
N1222 C1219 1.384 1_554 S
N1223 C1215 1.427 . S
N1223 C1221 1.384 . S
H1224 C1230 0.930 . S
H1225 C1234 0.930 . S
H1226 C1239 0.929 . S
H1227 C1237 0.929 . S
H1228 C1232 0.929 . S
H1229 C1238 0.925 1_565 S
C1230 H1224 0.930 . S
C1230 C1231 1.367 . S
C1230 C1238 1.378 . S
C1231 C1230 1.367 . S
C1231 C1239 1.433 . S
C1232 H1228 0.929 . S
C1232 C1234 1.378 . S
C1232 C1236 1.350 . S
C1233 C1236 1.463 . S
C1233 C1238 1.350 1_565 S
C1233 N1241 1.427 1_565 S
C1234 H1225 0.930 . S
C1234 C1232 1.378 . S
C1234 C1235 1.367 . S
C1235 C1234 1.367 . S
C1235 C1237 1.433 . S
C1236 C1232 1.350 . S
C1236 C1233 1.463 . S
C1236 N1240 1.427 . S
C1237 H1227 0.929 . S
C1237 C1235 1.433 . S
C1237 N1240 1.384 . S
C1238 H1229 0.925 1_545 S
C1238 C1230 1.378 . S
C1238 C1233 1.350 1_545 S
C1239 H1226 0.929 . S
C1239 C1231 1.433 . S
C1239 N1241 1.384 . S
N1240 C1236 1.427 . S
N1240 C1237 1.384 . S
N1241 C1233 1.427 1_545 S
N1241 C1239 1.384 . S
H1242 C1248 0.934 . S
H1243 C1252 0.930 . S
H1244 C1257 0.929 . S
H1245 C1255 0.929 . S
H1246 C1250 0.929 . S
H1247 C1256 0.929 . S
C1248 H1242 0.934 . S
C1248 C1249 1.367 1_545 S
C1248 C1256 1.378 . S
C1249 C1248 1.367 1_565 S
C1249 C1257 1.433 . S
C1250 H1246 0.929 . S
C1250 C1252 1.378 . S
C1250 C1254 1.350 . S
C1251 C1254 1.463 . S
C1251 C1256 1.350 . S
C1251 N1259 1.427 . S
C1252 H1243 0.930 . S
C1252 C1250 1.378 . S
C1252 C1253 1.367 . S
C1253 C1252 1.367 . S
C1253 C1255 1.433 . S
C1254 C1250 1.350 . S
C1254 C1251 1.463 . S
C1254 N1258 1.427 . S
C1255 H1245 0.929 . S
C1255 C1253 1.433 . S
C1255 N1258 1.384 . S
C1256 H1247 0.929 . S
C1256 C1248 1.378 . S
C1256 C1251 1.350 . S
C1257 H1244 0.929 . S
C1257 C1249 1.433 . S
C1257 N1259 1.384 1_565 S
N1258 C1254 1.427 . S
N1258 C1255 1.384 . S
N1259 C1251 1.427 . S
N1259 C1257 1.384 1_545 S
H1260 C1266 0.930 . S
H1261 C1270 0.930 . S
H1262 C1275 0.929 . S
H1263 C1273 0.929 . S
H1264 C1268 0.929 . S
H1265 C1274 0.929 . S
C1266 H1260 0.930 . S
C1266 C1267 1.367 . S
C1266 C1274 1.378 . S
C1267 C1266 1.367 . S
C1267 C1275 1.433 . S
C1268 H1264 0.929 . S
C1268 C1270 1.378 . S
C1268 C1272 1.350 . S
C1269 C1272 1.463 . S
C1269 C1274 1.350 . S
C1269 N1277 1.427 . S
C1270 H1261 0.930 . S
C1270 C1268 1.378 . S
C1270 C1271 1.367 . S
C1271 C1270 1.367 . S
C1271 C1273 1.433 . S
C1272 C1268 1.350 . S
C1272 C1269 1.463 . S
C1272 N1276 1.427 . S
C1273 H1263 0.929 . S
C1273 C1271 1.433 . S
C1273 N1276 1.384 . S
C1274 H1265 0.929 . S
C1274 C1266 1.378 . S
C1274 C1269 1.350 . S
C1275 H1262 0.929 . S
C1275 C1267 1.433 . S
C1275 N1277 1.384 . S
N1276 C1272 1.427 . S
N1276 C1273 1.384 . S
N1277 C1269 1.427 . S
N1277 C1275 1.384 . S
H1278 C1284 0.930 . S
H1279 C1288 0.930 . S
H1280 C1293 0.929 . S
H1281 C1291 0.929 . S
H1282 C1286 0.929 . S
H1283 C1292 0.929 . S
C1284 H1278 0.930 . S
C1284 C1285 1.367 . S
C1284 C1292 1.378 . S
C1285 C1284 1.367 . S
C1285 C1293 1.433 . S
C1286 H1282 0.929 . S
C1286 C1288 1.378 1_545 S
C1286 C1290 1.350 . S
C1287 C1290 1.463 . S
C1287 C1292 1.350 . S
C1287 N1295 1.427 . S
C1288 H1279 0.930 . S
C1288 C1286 1.378 1_565 S
C1288 C1289 1.367 . S
C1289 C1288 1.367 . S
C1289 C1291 1.433 . S
C1290 C1286 1.350 . S
C1290 C1287 1.463 . S
C1290 N1294 1.427 . S
C1291 H1281 0.929 . S
C1291 C1289 1.433 . S
C1291 N1294 1.384 1_565 S
C1292 H1283 0.929 . S
C1292 C1284 1.378 . S
C1292 C1287 1.350 . S
C1293 H1280 0.929 . S
C1293 C1285 1.433 . S
C1293 N1295 1.384 . S
N1294 C1290 1.427 . S
N1294 C1291 1.384 1_545 S
N1295 C1287 1.427 . S
N1295 C1293 1.384 . S
H1296 C1302 0.930 . S
H1297 C1306 0.930 . S
H1298 C1311 0.929 . S
H1299 C1309 0.929 . S
H1300 C1304 0.929 . S
H1301 C1310 0.929 . S
C1302 H1296 0.930 . S
C1302 C1303 1.367 . S
C1302 C1310 1.378 . S
C1303 C1302 1.367 . S
C1303 C1311 1.433 . S
C1304 H1300 0.929 . S
C1304 C1306 1.378 . S
C1304 C1308 1.350 . S
C1305 C1308 1.463 . S
C1305 C1310 1.350 . S
C1305 N1313 1.427 . S
C1306 H1297 0.930 . S
C1306 C1304 1.378 . S
C1306 C1307 1.367 . S
C1307 C1306 1.367 . S
C1307 C1309 1.433 . S
C1308 C1304 1.350 . S
C1308 C1305 1.463 . S
C1308 N1312 1.427 . S
C1309 H1299 0.929 . S
C1309 C1307 1.433 . S
C1309 N1312 1.384 . S
C1310 H1301 0.929 . S
C1310 C1302 1.378 . S
C1310 C1305 1.350 . S
C1311 H1298 0.929 . S
C1311 C1303 1.433 . S
C1311 N1313 1.384 . S
N1312 C1308 1.427 . S
N1312 C1309 1.384 . S
N1313 C1305 1.427 . S
N1313 C1311 1.384 . S
H1314 C1320 0.930 . S
H1315 C1324 0.930 . S
H1316 C1329 0.929 . S
H1317 C1327 0.929 . S
H1318 C1322 0.929 . S
H1319 C1328 0.929 . S
C1320 H1314 0.930 . S
C1320 C1321 1.367 . S
C1320 C1328 1.378 1_565 S
C1321 C1320 1.367 . S
C1321 C1329 1.433 . S
C1322 H1318 0.929 . S
C1322 C1324 1.378 . S
C1322 C1326 1.350 . S
C1323 C1326 1.463 . S
C1323 C1328 1.350 . S
C1323 N1331 1.427 . S
C1324 H1315 0.930 . S
C1324 C1322 1.378 . S
C1324 C1325 1.367 . S
C1325 C1324 1.367 . S
C1325 C1327 1.433 . S
C1326 C1322 1.350 . S
C1326 C1323 1.463 . S
C1326 N1330 1.427 . S
C1327 H1317 0.929 . S
C1327 C1325 1.433 . S
C1327 N1330 1.384 . S
C1328 H1319 0.929 . S
C1328 C1320 1.378 1_545 S
C1328 C1323 1.350 . S
C1329 H1316 0.929 . S
C1329 C1321 1.433 . S
C1329 N1331 1.384 1_565 S
N1330 C1326 1.427 . S
N1330 C1327 1.384 . S
N1331 C1323 1.427 . S
N1331 C1329 1.384 1_545 S
H1332 C1338 0.930 . S
H1333 C1342 0.930 . S
H1334 C1347 0.929 . S
H1335 C1345 0.929 . S
H1336 C1340 0.929 . S
H1337 C1346 0.929 . S
C1338 H1332 0.930 . S
C1338 C1339 1.367 . S
C1338 C1346 1.378 . S
C1339 C1338 1.367 . S
C1339 C1347 1.433 . S
C1340 H1336 0.929 . S
C1340 C1342 1.378 . S
C1340 C1344 1.350 . S
C1341 C1344 1.463 . S
C1341 C1346 1.350 . S
C1341 N1349 1.427 . S
C1342 H1333 0.930 . S
C1342 C1340 1.378 . S
C1342 C1343 1.367 . S
C1343 C1342 1.367 . S
C1343 C1345 1.433 . S
C1344 C1340 1.350 . S
C1344 C1341 1.463 . S
C1344 N1348 1.427 . S
C1345 H1335 0.929 . S
C1345 C1343 1.433 . S
C1345 N1348 1.384 . S
C1346 H1337 0.929 . S
C1346 C1338 1.378 . S
C1346 C1341 1.350 . S
C1347 H1334 0.929 . S
C1347 C1339 1.433 . S
C1347 N1349 1.384 . S
N1348 C1344 1.427 . S
N1348 C1345 1.384 . S
N1349 C1341 1.427 . S
N1349 C1347 1.384 . S
H1350 C1356 0.930 . S
H1351 C1360 0.930 1_565 S
H1352 C1365 0.929 . S
H1353 C1363 0.929 . S
H1354 C1358 0.929 . S
H1355 C1364 0.929 . S
C1356 H1350 0.930 . S
C1356 C1357 1.367 . S
C1356 C1364 1.378 . S
C1357 C1356 1.367 . S
C1357 C1365 1.433 . S
C1358 H1354 0.929 . S
C1358 C1360 1.378 . S
C1358 C1362 1.350 . S
C1359 C1362 1.463 . S
C1359 C1364 1.350 . S
C1359 N1367 1.427 . S
C1360 H1351 0.930 1_545 S
C1360 C1358 1.378 . S
C1360 C1361 1.367 1_545 S
C1361 C1360 1.367 1_565 S
C1361 C1363 1.433 1_565 S
C1362 C1358 1.350 . S
C1362 C1359 1.463 . S
C1362 N1366 1.427 . S
C1363 H1353 0.929 . S
C1363 C1361 1.433 1_545 S
C1363 N1366 1.384 . S
C1364 H1355 0.929 . S
C1364 C1356 1.378 . S
C1364 C1359 1.350 . S
C1365 H1352 0.929 . S
C1365 C1357 1.433 . S
C1365 N1367 1.384 . S
N1366 C1362 1.427 . S
N1366 C1363 1.384 . S
N1367 C1359 1.427 . S
N1367 C1365 1.384 . S
H1368 C1374 0.930 . S
H1369 C1378 0.930 . S
H1370 C1383 0.929 1_554 S
H1371 C1381 0.929 . S
H1372 C1376 0.929 . S
H1373 C1382 0.929 . S
C1374 H1368 0.930 . S
C1374 C1375 1.367 . S
C1374 C1382 1.378 . S
C1375 C1374 1.367 . S
C1375 C1383 1.433 . S
C1376 H1372 0.929 . S
C1376 C1378 1.378 . S
C1376 C1380 1.350 . S
C1377 C1380 1.463 . S
C1377 C1382 1.350 . S
C1377 N1385 1.427 . S
C1378 H1369 0.930 . S
C1378 C1376 1.378 . S
C1378 C1379 1.367 . S
C1379 C1378 1.367 . S
C1379 C1381 1.433 . S
C1380 C1376 1.350 . S
C1380 C1377 1.463 . S
C1380 N1384 1.427 . S
C1381 H1371 0.929 . S
C1381 C1379 1.433 . S
C1381 N1384 1.384 . S
C1382 H1373 0.929 . S
C1382 C1374 1.378 . S
C1382 C1377 1.350 . S
C1383 H1370 0.929 1_556 S
C1383 C1375 1.433 . S
C1383 N1385 1.384 . S
N1384 C1380 1.427 . S
N1384 C1381 1.384 . S
N1385 C1377 1.427 . S
N1385 C1383 1.384 . S
H1386 C1392 0.930 . S
H1387 C1396 0.930 . S
H1388 C1401 0.929 . S
H1389 C1399 0.929 . S
H1390 C1394 0.929 . S
H1391 C1400 0.929 . S
C1392 H1386 0.930 . S
C1392 C1393 1.367 . S
C1392 C1400 1.378 . S
C1393 C1392 1.367 . S
C1393 C1401 1.433 . S
C1394 H1390 0.929 . S
C1394 C1396 1.378 . S
C1394 C1398 1.350 . S
C1395 C1398 1.463 . S
C1395 C1400 1.350 . S
C1395 N1403 1.427 . S
C1396 H1387 0.930 . S
C1396 C1394 1.378 . S
C1396 C1397 1.367 . S
C1397 C1396 1.367 . S
C1397 C1399 1.433 . S
C1398 C1394 1.350 . S
C1398 C1395 1.463 . S
C1398 N1402 1.427 . S
C1399 H1389 0.929 . S
C1399 C1397 1.433 . S
C1399 N1402 1.384 . S
C1400 H1391 0.929 . S
C1400 C1392 1.378 . S
C1400 C1395 1.350 . S
C1401 H1388 0.929 . S
C1401 C1393 1.433 . S
C1401 N1403 1.384 . S
N1402 C1398 1.427 . S
N1402 C1399 1.384 . S
N1403 C1395 1.427 . S
N1403 C1401 1.384 . S
H1404 C1410 0.930 . S
H1405 C1414 0.930 . S
H1406 C1419 0.929 . S
H1407 C1417 0.929 . S
H1408 C1412 0.929 . S
H1409 C1418 0.929 . S
C1410 H1404 0.930 . S
C1410 C1411 1.367 . S
C1410 C1418 1.378 . S
C1411 C1410 1.367 . S
C1411 C1419 1.433 . S
C1412 H1408 0.929 . S
C1412 C1414 1.378 . S
C1412 C1416 1.350 . S
C1413 C1416 1.463 1_655 S
C1413 C1418 1.350 . S
C1413 N1421 1.427 . S
C1414 H1405 0.930 . S
C1414 C1412 1.378 . S
C1414 C1415 1.367 . S
C1415 C1414 1.367 . S
C1415 C1417 1.433 . S
C1416 C1412 1.350 . S
C1416 C1413 1.463 1_455 S
C1416 N1420 1.427 . S
C1417 H1407 0.929 . S
C1417 C1415 1.433 . S
C1417 N1420 1.384 . S
C1418 H1409 0.929 . S
C1418 C1410 1.378 . S
C1418 C1413 1.350 . S
C1419 H1406 0.929 . S
C1419 C1411 1.433 . S
C1419 N1421 1.384 . S
N1420 C1416 1.427 . S
N1420 C1417 1.384 . S
N1421 C1413 1.427 . S
N1421 C1419 1.384 . S
H1422 C1428 0.930 . S
H1423 C1432 0.930 . S
H1424 C1437 0.929 . S
H1425 C1435 0.929 . S
H1426 C1430 0.929 . S
H1427 C1436 0.929 . S
C1428 H1422 0.930 . S
C1428 C1429 1.367 . S
C1428 C1436 1.378 . S
C1429 C1428 1.367 . S
C1429 C1437 1.433 . S
C1430 H1426 0.929 . S
C1430 C1432 1.378 . S
C1430 C1434 1.350 . S
C1431 C1434 1.463 . S
C1431 C1436 1.350 . S
C1431 N1439 1.427 . S
C1432 H1423 0.930 . S
C1432 C1430 1.378 . S
C1432 C1433 1.367 . S
C1433 C1432 1.367 . S
C1433 C1435 1.433 . S
C1434 C1430 1.350 . S
C1434 C1431 1.463 . S
C1434 N1438 1.427 . S
C1435 H1425 0.929 . S
C1435 C1433 1.433 . S
C1435 N1438 1.384 . S
C1436 H1427 0.929 . S
C1436 C1428 1.378 . S
C1436 C1431 1.350 . S
C1437 H1424 0.929 . S
C1437 C1429 1.433 . S
C1437 N1439 1.384 . S
N1438 C1434 1.427 . S
N1438 C1435 1.384 . S
N1439 C1431 1.427 . S
N1439 C1437 1.384 . S
H1440 C1446 0.930 . S
H1441 C1450 0.930 . S
H1442 C1455 0.929 . S
H1443 C1453 0.929 . S
H1444 C1448 0.953 . S
H1445 C1454 0.929 . S
C1446 H1440 0.930 . S
C1446 C1447 1.367 . S
C1446 C1454 1.378 . S
C1447 C1446 1.367 . S
C1447 C1455 1.433 1_545 S
C1448 H1444 0.953 . S
C1448 C1450 1.352 1_455 S
C1448 C1452 1.351 1_565 S
C1449 C1452 1.463 . S
C1449 C1454 1.350 . S
C1449 N1457 1.427 1_545 S
C1450 H1441 0.930 . S
C1450 C1448 1.352 1_655 S
C1450 C1451 1.367 . S
C1451 C1450 1.367 . S
C1451 C1453 1.433 1_565 S
C1452 C1448 1.351 1_545 S
C1452 C1449 1.463 . S
C1452 N1456 1.427 1_455 S
C1453 H1443 0.929 . S
C1453 C1451 1.433 1_545 S
C1453 N1456 1.384 . S
C1454 H1445 0.929 . S
C1454 C1446 1.378 . S
C1454 C1449 1.350 . S
C1455 H1442 0.929 . S
C1455 C1447 1.433 1_565 S
C1455 N1457 1.384 . S
N1456 C1452 1.427 1_655 S
N1456 C1453 1.384 . S
N1457 C1449 1.427 1_565 S
N1457 C1455 1.384 . S
H1458 C1464 0.930 . S
H1459 C1468 0.930 . S
H1460 C1473 0.929 . S
H1461 C1471 0.929 . S
H1462 C1466 0.929 . S
H1463 C1472 0.929 . S
C1464 H1458 0.930 . S
C1464 C1465 1.367 . S
C1464 C1472 1.378 . S
C1465 C1464 1.367 . S
C1465 C1473 1.433 . S
C1466 H1462 0.929 . S
C1466 C1468 1.378 . S
C1466 C1470 1.350 . S
C1467 C1470 1.463 . S
C1467 C1472 1.350 . S
C1467 N1475 1.427 . S
C1468 H1459 0.930 . S
C1468 C1466 1.378 . S
C1468 C1469 1.367 . S
C1469 C1468 1.367 . S
C1469 C1471 1.433 . S
C1470 C1466 1.350 . S
C1470 C1467 1.463 . S
C1470 N1474 1.427 . S
C1471 H1461 0.929 . S
C1471 C1469 1.433 . S
C1471 N1474 1.384 . S
C1472 H1463 0.929 . S
C1472 C1464 1.378 . S
C1472 C1467 1.350 . S
C1473 H1460 0.929 . S
C1473 C1465 1.433 . S
C1473 N1475 1.384 . S
N1474 C1470 1.427 . S
N1474 C1471 1.384 . S
N1475 C1467 1.427 . S
N1475 C1473 1.384 . S
H1476 C1482 0.930 . S
H1477 C1486 0.930 . S
H1478 C1491 0.929 . S
H1479 C1489 0.929 . S
H1480 C1484 0.929 . S
H1481 C1490 0.929 . S
C1482 H1476 0.930 . S
C1482 C1483 1.367 . S
C1482 C1490 1.378 . S
C1483 C1482 1.367 . S
C1483 C1491 1.433 . S
C1484 H1480 0.929 . S
C1484 C1486 1.378 . S
C1484 C1488 1.350 . S
C1485 C1488 1.463 1_655 S
C1485 C1490 1.350 . S
C1485 N1493 1.427 . S
C1486 H1477 0.930 . S
C1486 C1484 1.378 . S
C1486 C1487 1.367 . S
C1487 C1486 1.367 . S
C1487 C1489 1.433 . S
C1488 C1484 1.350 . S
C1488 C1485 1.463 1_455 S
C1488 N1492 1.427 . S
C1489 H1479 0.929 . S
C1489 C1487 1.433 . S
C1489 N1492 1.384 . S
C1490 H1481 0.929 . S
C1490 C1482 1.378 . S
C1490 C1485 1.350 . S
C1491 H1478 0.929 . S
C1491 C1483 1.433 . S
C1491 N1493 1.384 . S
N1492 C1488 1.427 . S
N1492 C1489 1.384 . S
N1493 C1485 1.427 . S
N1493 C1491 1.384 . S
H1494 C1500 0.930 . S
H1495 C1504 0.930 . S
H1496 C1509 0.929 . S
H1497 C1507 0.929 . S
H1498 C1502 0.929 . S
H1499 C1508 0.929 . S
C1500 H1494 0.930 . S
C1500 C1501 1.367 . S
C1500 C1508 1.378 . S
C1501 C1500 1.367 . S
C1501 C1509 1.433 . S
C1502 H1498 0.929 . S
C1502 C1504 1.378 . S
C1502 C1506 1.350 . S
C1503 C1506 1.463 . S
C1503 C1508 1.350 . S
C1503 N1511 1.427 . S
C1504 H1495 0.930 . S
C1504 C1502 1.378 . S
C1504 C1505 1.367 . S
C1505 C1504 1.367 . S
C1505 C1507 1.433 . S
C1506 C1502 1.350 . S
C1506 C1503 1.463 . S
C1506 N1510 1.427 . S
C1507 H1497 0.929 . S
C1507 C1505 1.433 . S
C1507 N1510 1.384 . S
C1508 H1499 0.929 . S
C1508 C1500 1.378 . S
C1508 C1503 1.350 . S
C1509 H1496 0.929 . S
C1509 C1501 1.433 . S
C1509 N1511 1.384 . S
N1510 C1506 1.427 . S
N1510 C1507 1.384 . S
N1511 C1503 1.427 . S
N1511 C1509 1.384 . S
H1512 C1518 0.930 . S
H1513 C1522 0.930 . S
H1514 C1527 0.929 . S
H1515 C1525 0.929 . S
H1516 C1520 0.929 . S
H1517 C1526 0.929 . S
C1518 H1512 0.930 . S
C1518 C1519 1.367 . S
C1518 C1526 1.378 . S
C1519 C1518 1.367 . S
C1519 C1527 1.433 . S
C1520 H1516 0.929 . S
C1520 C1522 1.378 . S
C1520 C1524 1.350 . S
C1521 C1524 1.463 . S
C1521 C1526 1.350 . S
C1521 N1529 1.427 . S
C1522 H1513 0.930 . S
C1522 C1520 1.378 . S
C1522 C1523 1.367 . S
C1523 C1522 1.367 . S
C1523 C1525 1.433 . S
C1524 C1520 1.350 . S
C1524 C1521 1.463 . S
C1524 N1528 1.427 . S
C1525 H1515 0.929 . S
C1525 C1523 1.433 . S
C1525 N1528 1.384 . S
C1526 H1517 0.929 . S
C1526 C1518 1.378 . S
C1526 C1521 1.350 . S
C1527 H1514 0.929 . S
C1527 C1519 1.433 . S
C1527 N1529 1.384 . S
N1528 C1524 1.427 . S
N1528 C1525 1.384 . S
N1529 C1521 1.427 . S
N1529 C1527 1.384 . S
H1530 C1536 0.930 . S
H1531 C1540 0.930 . S
H1532 C1545 0.929 . S
H1533 C1543 0.929 . S
H1534 C1538 0.929 . S
H1535 C1544 0.929 . S
C1536 H1530 0.930 . S
C1536 C1537 1.367 . S
C1536 C1544 1.378 . S
C1537 C1536 1.367 . S
C1537 C1545 1.433 . S
C1538 H1534 0.929 . S
C1538 C1540 1.378 1_554 S
C1538 C1542 1.350 . S
C1539 C1542 1.463 . S
C1539 C1544 1.350 . S
C1539 N1547 1.427 . S
C1540 H1531 0.930 . S
C1540 C1538 1.378 1_556 S
C1540 C1541 1.367 . S
C1541 C1540 1.367 . S
C1541 C1543 1.433 . S
C1542 C1538 1.350 . S
C1542 C1539 1.463 . S
C1542 N1546 1.427 . S
C1543 H1533 0.929 . S
C1543 C1541 1.433 . S
C1543 N1546 1.384 1_556 S
C1544 H1535 0.929 . S
C1544 C1536 1.378 . S
C1544 C1539 1.350 . S
C1545 H1532 0.929 . S
C1545 C1537 1.433 . S
C1545 N1547 1.384 . S
N1546 C1542 1.427 . S
N1546 C1543 1.384 1_554 S
N1547 C1539 1.427 . S
N1547 C1545 1.384 . S
H1548 C1554 0.930 . S
H1549 C1558 0.930 . S
H1550 C1563 0.929 . S
H1551 C1561 0.929 . S
H1552 C1556 0.929 . S
H1553 C1562 0.929 . S
C1554 H1548 0.930 . S
C1554 C1555 1.367 . S
C1554 C1562 1.378 . S
C1555 C1554 1.367 . S
C1555 C1563 1.433 . S
C1556 H1552 0.929 . S
C1556 C1558 1.378 . S
C1556 C1560 1.350 . S
C1557 C1560 1.463 . S
C1557 C1562 1.350 . S
C1557 N1565 1.427 . S
C1558 H1549 0.930 . S
C1558 C1556 1.378 . S
C1558 C1559 1.367 . S
C1559 C1558 1.367 . S
C1559 C1561 1.433 . S
C1560 C1556 1.350 . S
C1560 C1557 1.463 . S
C1560 N1564 1.427 . S
C1561 H1551 0.929 . S
C1561 C1559 1.433 . S
C1561 N1564 1.384 . S
C1562 H1553 0.929 . S
C1562 C1554 1.378 . S
C1562 C1557 1.350 . S
C1563 H1550 0.929 . S
C1563 C1555 1.433 . S
C1563 N1565 1.384 . S
N1564 C1560 1.427 . S
N1564 C1561 1.384 . S
N1565 C1557 1.427 . S
N1565 C1563 1.384 . S
H1566 C1572 0.930 . S
H1567 C1576 0.930 . S
H1568 C1581 0.929 . S
H1569 C1579 0.929 . S
H1570 C1574 0.929 . S
H1571 C1580 0.929 . S
C1572 H1566 0.930 . S
C1572 C1573 1.367 . S
C1572 C1580 1.378 . S
C1573 C1572 1.367 . S
C1573 C1581 1.433 . S
C1574 H1570 0.929 . S
C1574 C1576 1.378 . S
C1574 C1578 1.350 . S
C1575 C1578 1.463 . S
C1575 C1580 1.350 . S
C1575 N1583 1.427 . S
C1576 H1567 0.930 . S
C1576 C1574 1.378 . S
C1576 C1577 1.367 . S
C1577 C1576 1.367 . S
C1577 C1579 1.433 . S
C1578 C1574 1.350 . S
C1578 C1575 1.463 . S
C1578 N1582 1.427 . S
C1579 H1569 0.929 . S
C1579 C1577 1.433 . S
C1579 N1582 1.384 . S
C1580 H1571 0.929 . S
C1580 C1572 1.378 . S
C1580 C1575 1.350 . S
C1581 H1568 0.929 . S
C1581 C1573 1.433 . S
C1581 N1583 1.384 . S
N1582 C1578 1.427 . S
N1582 C1579 1.384 . S
N1583 C1575 1.427 . S
N1583 C1581 1.384 . S
H1584 C1590 0.930 . S
H1585 C1594 0.930 . S
H1586 C1599 0.929 . S
H1587 C1597 0.929 . S
H1588 C1592 0.929 . S
H1589 C1598 0.929 . S
C1590 H1584 0.930 . S
C1590 C1591 1.367 . S
C1590 C1598 1.378 . S
C1591 C1590 1.367 . S
C1591 C1599 1.433 . S
C1592 H1588 0.929 . S
C1592 C1594 1.378 . S
C1592 C1596 1.350 . S
C1593 C1596 1.463 . S
C1593 C1598 1.350 . S
C1593 N1601 1.427 . S
C1594 H1585 0.930 . S
C1594 C1592 1.378 . S
C1594 C1595 1.367 . S
C1595 C1594 1.367 . S
C1595 C1597 1.433 . S
C1596 C1592 1.350 . S
C1596 C1593 1.463 . S
C1596 N1600 1.427 . S
C1597 H1587 0.929 . S
C1597 C1595 1.433 . S
C1597 N1600 1.384 . S
C1598 H1589 0.929 . S
C1598 C1590 1.378 . S
C1598 C1593 1.350 . S
C1599 H1586 0.929 . S
C1599 C1591 1.433 . S
C1599 N1601 1.384 . S
N1600 C1596 1.427 . S
N1600 C1597 1.384 . S
N1601 C1593 1.427 . S
N1601 C1599 1.384 . S
H1602 C1608 0.930 . S
H1603 C1612 0.930 . S
H1604 C1617 0.929 . S
H1605 C1615 0.904 1_455 S
H1606 C1610 0.929 . S
H1607 C1616 0.929 . S
C1608 H1602 0.930 . S
C1608 C1609 1.367 . S
C1608 C1616 1.378 1_556 S
C1609 C1608 1.367 . S
C1609 C1617 1.433 1_455 S
C1610 H1606 0.929 . S
C1610 C1612 1.378 . S
C1610 C1614 1.350 . S
C1611 C1614 1.463 . S
C1611 C1616 1.350 1_655 S
C1611 N1619 1.427 1_554 S
C1612 H1603 0.930 . S
C1612 C1610 1.378 . S
C1612 C1613 1.367 . S
C1613 C1612 1.367 . S
C1613 C1615 1.471 . S
C1614 C1610 1.350 . S
C1614 C1611 1.463 . S
C1614 N1618 1.427 1_655 S
C1615 H1605 0.904 1_655 S
C1615 C1613 1.471 . S
C1615 N1618 1.373 1_655 S
C1616 H1607 0.929 . S
C1616 C1608 1.378 1_554 S
C1616 C1611 1.350 1_455 S
C1617 H1604 0.929 . S
C1617 C1609 1.433 1_655 S
C1617 N1619 1.384 . S
N1618 C1614 1.427 1_455 S
N1618 C1615 1.373 1_455 S
N1619 C1611 1.427 1_556 S
N1619 C1617 1.384 . S
H1620 C1626 0.930 . S
H1621 C1630 0.930 . S
H1622 C1635 0.929 . S
H1623 C1633 0.929 . S
H1624 C1628 0.929 . S
H1625 C1634 0.929 . S
C1626 H1620 0.930 . S
C1626 C1627 1.367 . S
C1626 C1634 1.378 . S
C1627 C1626 1.367 . S
C1627 C1635 1.433 . S
C1628 H1624 0.929 . S
C1628 C1630 1.378 . S
C1628 C1632 1.350 . S
C1629 C1632 1.463 . S
C1629 C1634 1.350 . S
C1629 N1637 1.427 . S
C1630 H1621 0.930 . S
C1630 C1628 1.378 . S
C1630 C1631 1.367 . S
C1631 C1630 1.367 . S
C1631 C1633 1.433 . S
C1632 C1628 1.350 . S
C1632 C1629 1.463 . S
C1632 N1636 1.427 . S
C1633 H1623 0.929 . S
C1633 C1631 1.433 . S
C1633 N1636 1.384 . S
C1634 H1625 0.929 . S
C1634 C1626 1.378 . S
C1634 C1629 1.350 . S
C1635 H1622 0.929 . S
C1635 C1627 1.433 . S
C1635 N1637 1.384 . S
N1636 C1632 1.427 . S
N1636 C1633 1.384 . S
N1637 C1629 1.427 . S
N1637 C1635 1.384 . S
H1638 C1644 0.930 . S
H1639 C1648 0.930 . S
H1640 C1653 0.929 . S
H1641 C1651 0.929 . S
H1642 C1646 0.929 . S
H1643 C1652 0.929 . S
C1644 H1638 0.930 . S
C1644 C1645 1.367 . S
C1644 C1652 1.378 . S
C1645 C1644 1.367 . S
C1645 C1653 1.433 . S
C1646 H1642 0.929 . S
C1646 C1648 1.378 . S
C1646 C1650 1.350 . S
C1647 C1650 1.463 . S
C1647 C1652 1.350 . S
C1647 N1655 1.427 . S
C1648 H1639 0.930 . S
C1648 C1646 1.378 . S
C1648 C1649 1.367 . S
C1649 C1648 1.367 . S
C1649 C1651 1.433 . S
C1650 C1646 1.350 . S
C1650 C1647 1.463 . S
C1650 N1654 1.427 . S
C1651 H1641 0.929 . S
C1651 C1649 1.433 . S
C1651 N1654 1.384 . S
C1652 H1643 0.929 . S
C1652 C1644 1.378 . S
C1652 C1647 1.350 . S
C1653 H1640 0.929 . S
C1653 C1645 1.433 . S
C1653 N1655 1.384 . S
N1654 C1650 1.427 . S
N1654 C1651 1.384 . S
N1655 C1647 1.427 . S
N1655 C1653 1.384 . S
H1656 C1662 0.930 . S
H1657 C1666 0.930 . S
H1658 C1671 0.929 . S
H1659 C1669 0.929 . S
H1660 C1664 0.929 . S
H1661 C1670 0.929 . S
C1662 H1656 0.930 . S
C1662 C1663 1.367 . S
C1662 C1670 1.378 . S
C1663 C1662 1.367 . S
C1663 C1671 1.433 . S
C1664 H1660 0.929 . S
C1664 C1666 1.378 . S
C1664 C1668 1.350 . S
C1665 C1668 1.463 . S
C1665 C1670 1.350 . S
C1665 N1673 1.427 . S
C1666 H1657 0.930 . S
C1666 C1664 1.378 . S
C1666 C1667 1.367 . S
C1667 C1666 1.367 . S
C1667 C1669 1.433 . S
C1668 C1664 1.350 . S
C1668 C1665 1.463 . S
C1668 N1672 1.427 . S
C1669 H1659 0.929 . S
C1669 C1667 1.433 . S
C1669 N1672 1.384 . S
C1670 H1661 0.929 . S
C1670 C1662 1.378 . S
C1670 C1665 1.350 . S
C1671 H1658 0.929 . S
C1671 C1663 1.433 . S
C1671 N1673 1.384 . S
N1672 C1668 1.427 . S
N1672 C1669 1.384 . S
N1673 C1665 1.427 . S
N1673 C1671 1.384 . S
H1674 C1680 0.933 1_554 S
H1675 C1684 0.930 . S
H1676 C1689 0.929 . S
H1677 C1687 0.929 . S
H1678 C1682 0.929 . S
H1679 C1688 0.929 1_554 S
C1680 H1674 0.933 1_556 S
C1680 C1681 1.365 . S
C1680 C1688 1.377 . S
C1681 C1680 1.365 . S
C1681 C1689 1.433 . S
C1682 H1678 0.929 . S
C1682 C1684 1.378 . S
C1682 C1686 1.350 . S
C1683 C1686 1.463 . S
C1683 C1688 1.350 . S
C1683 N1691 1.427 . S
C1684 H1675 0.930 . S
C1684 C1682 1.378 . S
C1684 C1685 1.367 . S
C1685 C1684 1.367 . S
C1685 C1687 1.433 . S
C1686 C1682 1.350 . S
C1686 C1683 1.463 . S
C1686 N1690 1.427 . S
C1687 H1677 0.929 . S
C1687 C1685 1.433 . S
C1687 N1690 1.384 . S
C1688 H1679 0.929 1_556 S
C1688 C1680 1.377 . S
C1688 C1683 1.350 . S
C1689 H1676 0.929 . S
C1689 C1681 1.433 . S
C1689 N1691 1.384 . S
N1690 C1686 1.427 . S
N1690 C1687 1.384 . S
N1691 C1683 1.427 . S
N1691 C1689 1.384 . S
H1692 C1698 0.930 . S
H1693 C1702 0.930 . S
H1694 C1707 0.929 . S
H1695 C1705 0.929 . S
H1696 C1700 0.929 . S
H1697 C1706 0.929 . S
C1698 H1692 0.930 . S
C1698 C1699 1.367 . S
C1698 C1706 1.378 . S
C1699 C1698 1.367 . S
C1699 C1707 1.433 . S
C1700 H1696 0.929 . S
C1700 C1702 1.378 . S
C1700 C1704 1.350 . S
C1701 C1704 1.463 . S
C1701 C1706 1.350 . S
C1701 N1709 1.427 . S
C1702 H1693 0.930 . S
C1702 C1700 1.378 . S
C1702 C1703 1.367 . S
C1703 C1702 1.367 . S
C1703 C1705 1.433 . S
C1704 C1700 1.350 . S
C1704 C1701 1.463 . S
C1704 N1708 1.427 . S
C1705 H1695 0.929 . S
C1705 C1703 1.433 . S
C1705 N1708 1.384 . S
C1706 H1697 0.929 . S
C1706 C1698 1.378 . S
C1706 C1701 1.350 . S
C1707 H1694 0.929 . S
C1707 C1699 1.433 . S
C1707 N1709 1.384 . S
N1708 C1704 1.427 . S
N1708 C1705 1.384 . S
N1709 C1701 1.427 . S
N1709 C1707 1.384 . S
H1710 C1716 0.930 . S
H1711 C1720 0.930 . S
H1712 C1725 0.929 . S
H1713 C1723 0.929 . S
H1714 C1718 0.929 . S
H1715 C1724 0.929 . S
C1716 H1710 0.930 . S
C1716 C1717 1.367 . S
C1716 C1724 1.378 . S
C1717 C1716 1.367 . S
C1717 C1725 1.433 . S
C1718 H1714 0.929 . S
C1718 C1720 1.378 . S
C1718 C1722 1.350 . S
C1719 C1722 1.463 . S
C1719 C1724 1.350 . S
C1719 N1727 1.427 . S
C1720 H1711 0.930 . S
C1720 C1718 1.378 . S
C1720 C1721 1.367 . S
C1721 C1720 1.367 . S
C1721 C1723 1.433 . S
C1722 C1718 1.350 . S
C1722 C1719 1.463 . S
C1722 N1726 1.427 . S
C1723 H1713 0.929 . S
C1723 C1721 1.433 . S
C1723 N1726 1.384 . S
C1724 H1715 0.929 . S
C1724 C1716 1.378 . S
C1724 C1719 1.350 . S
C1725 H1712 0.929 . S
C1725 C1717 1.433 . S
C1725 N1727 1.384 . S
N1726 C1722 1.427 . S
N1726 C1723 1.384 . S
N1727 C1719 1.427 . S
N1727 C1725 1.384 . S
H1728 C1734 0.930 . S
H1729 C1738 0.930 . S
H1730 C1743 0.929 . S
H1731 C1741 0.929 . S
H1732 C1736 0.929 . S
H1733 C1742 0.929 . S
C1734 H1728 0.930 . S
C1734 C1735 1.367 . S
C1734 C1742 1.378 . S
C1735 C1734 1.367 . S
C1735 C1743 1.433 . S
C1736 H1732 0.929 . S
C1736 C1738 1.378 . S
C1736 C1740 1.350 . S
C1737 C1740 1.463 . S
C1737 C1742 1.350 . S
C1737 N1745 1.427 . S
C1738 H1729 0.930 . S
C1738 C1736 1.378 . S
C1738 C1739 1.367 . S
C1739 C1738 1.367 . S
C1739 C1741 1.433 . S
C1740 C1736 1.350 . S
C1740 C1737 1.463 . S
C1740 N1744 1.427 . S
C1741 H1731 0.929 . S
C1741 C1739 1.433 . S
C1741 N1744 1.384 . S
C1742 H1733 0.929 . S
C1742 C1734 1.378 . S
C1742 C1737 1.350 . S
C1743 H1730 0.929 . S
C1743 C1735 1.433 . S
C1743 N1745 1.384 . S
N1744 C1740 1.427 . S
N1744 C1741 1.384 . S
N1745 C1737 1.427 . S
N1745 C1743 1.384 . S
H1746 C1752 0.930 . S
H1747 C1756 0.930 . S
H1748 C1761 0.929 . S
H1749 C1759 0.929 . S
H1750 C1754 0.929 . S
H1751 C1760 0.929 . S
C1752 H1746 0.930 . S
C1752 C1753 1.367 . S
C1752 C1760 1.378 . S
C1753 C1752 1.367 . S
C1753 C1761 1.433 . S
C1754 H1750 0.929 . S
C1754 C1756 1.378 . S
C1754 C1758 1.350 . S
C1755 C1758 1.463 . S
C1755 C1760 1.350 . S
C1755 N1763 1.427 . S
C1756 H1747 0.930 . S
C1756 C1754 1.378 . S
C1756 C1757 1.367 . S
C1757 C1756 1.367 . S
C1757 C1759 1.433 . S
C1758 C1754 1.350 . S
C1758 C1755 1.463 . S
C1758 N1762 1.427 . S
C1759 H1749 0.929 . S
C1759 C1757 1.433 . S
C1759 N1762 1.384 . S
C1760 H1751 0.929 . S
C1760 C1752 1.378 . S
C1760 C1755 1.350 . S
C1761 H1748 0.929 . S
C1761 C1753 1.433 . S
C1761 N1763 1.384 . S
N1762 C1758 1.427 . S
N1762 C1759 1.384 . S
N1763 C1755 1.427 . S
N1763 C1761 1.384 . S
H1764 C1770 0.930 . S
H1765 C1774 0.930 . S
H1766 C1779 0.929 . S
H1767 C1777 0.929 . S
H1768 C1772 0.929 . S
H1769 C1778 0.929 . S
C1770 H1764 0.930 . S
C1770 C1771 1.367 . S
C1770 C1778 1.378 . S
C1771 C1770 1.367 . S
C1771 C1779 1.433 . S
C1772 H1768 0.929 . S
C1772 C1774 1.378 . S
C1772 C1776 1.350 . S
C1773 C1776 1.463 . S
C1773 C1778 1.350 . S
C1773 N1781 1.427 . S
C1774 H1765 0.930 . S
C1774 C1772 1.378 . S
C1774 C1775 1.367 . S
C1775 C1774 1.367 . S
C1775 C1777 1.433 . S
C1776 C1772 1.350 . S
C1776 C1773 1.463 . S
C1776 N1780 1.427 . S
C1777 H1767 0.929 . S
C1777 C1775 1.433 . S
C1777 N1780 1.384 . S
C1778 H1769 0.929 . S
C1778 C1770 1.378 . S
C1778 C1773 1.350 . S
C1779 H1766 0.929 . S
C1779 C1771 1.433 . S
C1779 N1781 1.384 . S
N1780 C1776 1.427 . S
N1780 C1777 1.384 . S
N1781 C1773 1.427 . S
N1781 C1779 1.384 . S
H1782 C1788 0.930 . S
H1783 C1792 0.930 . S
H1784 C1797 0.929 . S
H1785 C1795 0.929 . S
H1786 C1790 0.929 . S
H1787 C1796 0.929 . S
C1788 H1782 0.930 . S
C1788 C1789 1.367 . S
C1788 C1796 1.378 . S
C1789 C1788 1.367 . S
C1789 C1797 1.433 . S
C1790 H1786 0.929 . S
C1790 C1792 1.378 . S
C1790 C1794 1.350 . S
C1791 C1794 1.463 . S
C1791 C1796 1.350 . S
C1791 N1799 1.427 . S
C1792 H1783 0.930 . S
C1792 C1790 1.378 . S
C1792 C1793 1.367 . S
C1793 C1792 1.367 . S
C1793 C1795 1.433 . S
C1794 C1790 1.350 . S
C1794 C1791 1.463 . S
C1794 N1798 1.427 . S
C1795 H1785 0.929 . S
C1795 C1793 1.433 . S
C1795 N1798 1.384 . S
C1796 H1787 0.929 . S
C1796 C1788 1.378 . S
C1796 C1791 1.350 . S
C1797 H1784 0.929 . S
C1797 C1789 1.433 . S
C1797 N1799 1.384 . S
N1798 C1794 1.427 . S
N1798 C1795 1.384 . S
N1799 C1791 1.427 . S
N1799 C1797 1.384 . S
H1800 C1806 0.930 . S
H1801 C1810 0.930 . S
H1802 C1815 0.929 . S
H1803 C1813 0.929 . S
H1804 C1808 0.929 . S
H1805 C1814 0.929 . S
C1806 H1800 0.930 . S
C1806 C1807 1.367 . S
C1806 C1814 1.378 . S
C1807 C1806 1.367 . S
C1807 C1815 1.433 . S
C1808 H1804 0.929 . S
C1808 C1810 1.378 . S
C1808 C1812 1.350 . S
C1809 C1812 1.463 . S
C1809 C1814 1.350 . S
C1809 N1817 1.427 . S
C1810 H1801 0.930 . S
C1810 C1808 1.378 . S
C1810 C1811 1.367 . S
C1811 C1810 1.367 . S
C1811 C1813 1.433 . S
C1812 C1808 1.350 . S
C1812 C1809 1.463 . S
C1812 N1816 1.427 . S
C1813 H1803 0.929 . S
C1813 C1811 1.433 . S
C1813 N1816 1.384 . S
C1814 H1805 0.929 . S
C1814 C1806 1.378 . S
C1814 C1809 1.350 . S
C1815 H1802 0.929 . S
C1815 C1807 1.433 . S
C1815 N1817 1.384 . S
N1816 C1812 1.427 . S
N1816 C1813 1.384 . S
N1817 C1809 1.427 . S
N1817 C1815 1.384 . S
H1818 C1824 0.930 . S
H1819 C1828 0.930 . S
H1820 C1833 0.929 . S
H1821 C1831 0.929 . S
H1822 C1826 0.929 . S
H1823 C1832 0.929 . S
C1824 H1818 0.930 . S
C1824 C1825 1.367 . S
C1824 C1832 1.378 . S
C1825 C1824 1.367 . S
C1825 C1833 1.433 . S
C1826 H1822 0.929 . S
C1826 C1828 1.378 . S
C1826 C1830 1.350 . S
C1827 C1830 1.463 . S
C1827 C1832 1.350 . S
C1827 N1835 1.427 . S
C1828 H1819 0.930 . S
C1828 C1826 1.378 . S
C1828 C1829 1.367 . S
C1829 C1828 1.367 . S
C1829 C1831 1.433 . S
C1830 C1826 1.350 . S
C1830 C1827 1.463 . S
C1830 N1834 1.427 . S
C1831 H1821 0.929 . S
C1831 C1829 1.433 . S
C1831 N1834 1.384 . S
C1832 H1823 0.929 . S
C1832 C1824 1.378 . S
C1832 C1827 1.350 . S
C1833 H1820 0.929 . S
C1833 C1825 1.433 . S
C1833 N1835 1.384 . S
N1834 C1830 1.427 . S
N1834 C1831 1.384 . S
N1835 C1827 1.427 . S
N1835 C1833 1.384 . S
H1836 C1842 0.930 . S
H1837 C1846 0.930 . S
H1838 C1851 0.929 . S
H1839 C1849 0.929 . S
H1840 C1844 0.929 1_545 S
H1841 C1850 0.929 . S
C1842 H1836 0.930 . S
C1842 C1843 1.367 . S
C1842 C1850 1.378 1_545 S
C1843 C1842 1.367 . S
C1843 C1851 1.433 . S
C1844 H1840 0.929 1_565 S
C1844 C1846 1.378 . S
C1844 C1848 1.350 . S
C1845 C1848 1.463 1_545 S
C1845 C1850 1.350 1_545 S
C1845 N1853 1.427 . S
C1846 H1837 0.930 . S
C1846 C1844 1.378 . S
C1846 C1847 1.367 . S
C1847 C1846 1.367 . S
C1847 C1849 1.433 . S
C1848 C1844 1.350 . S
C1848 C1845 1.463 1_565 S
C1848 N1852 1.427 . S
C1849 H1839 0.929 . S
C1849 C1847 1.433 . S
C1849 N1852 1.384 . S
C1850 H1841 0.929 . S
C1850 C1842 1.378 1_565 S
C1850 C1845 1.350 1_565 S
C1851 H1838 0.929 . S
C1851 C1843 1.433 . S
C1851 N1853 1.384 . S
N1852 C1848 1.427 . S
N1852 C1849 1.384 . S
N1853 C1845 1.427 . S
N1853 C1851 1.384 . S
H1854 C1860 0.930 . S
H1855 C1864 0.930 . S
H1856 C1869 0.929 . S
H1857 C1867 0.929 . S
H1858 C1862 0.929 . S
H1859 C1868 0.929 . S
C1860 H1854 0.930 . S
C1860 C1861 1.367 . S
C1860 C1868 1.378 . S
C1861 C1860 1.367 . S
C1861 C1869 1.433 . S
C1862 H1858 0.929 . S
C1862 C1864 1.378 . S
C1862 C1866 1.350 . S
C1863 C1866 1.463 . S
C1863 C1868 1.350 . S
C1863 N1871 1.427 . S
C1864 H1855 0.930 . S
C1864 C1862 1.378 . S
C1864 C1865 1.367 . S
C1865 C1864 1.367 . S
C1865 C1867 1.433 . S
C1866 C1862 1.350 . S
C1866 C1863 1.463 . S
C1866 N1870 1.427 . S
C1867 H1857 0.929 . S
C1867 C1865 1.433 . S
C1867 N1870 1.384 . S
C1868 H1859 0.929 . S
C1868 C1860 1.378 . S
C1868 C1863 1.350 . S
C1869 H1856 0.929 . S
C1869 C1861 1.433 . S
C1869 N1871 1.384 . S
N1870 C1866 1.427 . S
N1870 C1867 1.384 . S
N1871 C1863 1.427 . S
N1871 C1869 1.384 . S
H1872 C1878 0.930 . S
H1873 C1882 0.930 . S
H1874 C1887 0.929 . S
H1875 C1885 0.929 . S
H1876 C1880 0.929 . S
H1877 C1886 0.929 . S
C1878 H1872 0.930 . S
C1878 C1879 1.367 . S
C1878 C1886 1.378 . S
C1879 C1878 1.367 . S
C1879 C1887 1.433 . S
C1880 H1876 0.929 . S
C1880 C1882 1.378 . S
C1880 C1884 1.350 . S
C1881 C1884 1.463 . S
C1881 C1886 1.350 . S
C1881 N1889 1.427 . S
C1882 H1873 0.930 . S
C1882 C1880 1.378 . S
C1882 C1883 1.367 . S
C1883 C1882 1.367 . S
C1883 C1885 1.433 . S
C1884 C1880 1.350 . S
C1884 C1881 1.463 . S
C1884 N1888 1.427 . S
C1885 H1875 0.929 . S
C1885 C1883 1.433 . S
C1885 N1888 1.384 . S
C1886 H1877 0.929 . S
C1886 C1878 1.378 . S
C1886 C1881 1.350 . S
C1887 H1874 0.929 . S
C1887 C1879 1.433 . S
C1887 N1889 1.384 . S
N1888 C1884 1.427 . S
N1888 C1885 1.384 . S
N1889 C1881 1.427 . S
N1889 C1887 1.384 . S
H1890 C1896 0.930 . S
H1891 C1900 0.930 . S
H1892 C1905 0.929 . S
H1893 C1903 0.929 . S
H1894 C1898 0.929 . S
H1895 C1904 0.929 . S
C1896 H1890 0.930 . S
C1896 C1897 1.367 . S
C1896 C1904 1.378 . S
C1897 C1896 1.367 . S
C1897 C1905 1.433 . S
C1898 H1894 0.929 . S
C1898 C1900 1.378 . S
C1898 C1902 1.350 . S
C1899 C1902 1.463 . S
C1899 C1904 1.350 . S
C1899 N1907 1.427 . S
C1900 H1891 0.930 . S
C1900 C1898 1.378 . S
C1900 C1901 1.367 . S
C1901 C1900 1.367 . S
C1901 C1903 1.433 . S
C1902 C1898 1.350 . S
C1902 C1899 1.463 . S
C1902 N1906 1.427 . S
C1903 H1893 0.929 . S
C1903 C1901 1.433 . S
C1903 N1906 1.384 . S
C1904 H1895 0.929 . S
C1904 C1896 1.378 . S
C1904 C1899 1.350 . S
C1905 H1892 0.929 . S
C1905 C1897 1.433 . S
C1905 N1907 1.384 . S
N1906 C1902 1.427 . S
N1906 C1903 1.384 . S
N1907 C1899 1.427 . S
N1907 C1905 1.384 . S
H1908 C1914 0.930 . S
H1909 C1918 0.930 . S
H1910 C1923 0.929 . S
H1911 C1921 0.929 . S
H1912 C1916 0.929 . S
H1913 C1922 0.929 . S
C1914 H1908 0.930 . S
C1914 C1915 1.367 . S
C1914 C1922 1.378 . S
C1915 C1914 1.367 . S
C1915 C1923 1.433 . S
C1916 H1912 0.929 . S
C1916 C1918 1.378 . S
C1916 C1920 1.350 . S
C1917 C1920 1.463 . S
C1917 C1922 1.350 . S
C1917 N1925 1.427 . S
C1918 H1909 0.930 . S
C1918 C1916 1.378 . S
C1918 C1919 1.367 . S
C1919 C1918 1.367 . S
C1919 C1921 1.433 . S
C1920 C1916 1.350 . S
C1920 C1917 1.463 . S
C1920 N1924 1.427 . S
C1921 H1911 0.929 . S
C1921 C1919 1.433 . S
C1921 N1924 1.384 . S
C1922 H1913 0.929 . S
C1922 C1914 1.378 . S
C1922 C1917 1.350 . S
C1923 H1910 0.929 . S
C1923 C1915 1.433 . S
C1923 N1925 1.384 . S
N1924 C1920 1.427 . S
N1924 C1921 1.384 . S
N1925 C1917 1.427 . S
N1925 C1923 1.384 . S
H1926 C1932 0.930 . S
H1927 C1936 0.930 . S
H1928 C1941 0.929 1_545 S
H1929 C1939 0.929 . S
H1930 C1934 0.896 1_545 S
H1931 C1940 0.929 . S
C1932 H1926 0.930 . S
C1932 C1933 1.367 . S
C1932 C1940 1.378 . S
C1933 C1932 1.367 . S
C1933 C1941 1.433 . S
C1934 H1930 0.896 1_565 S
C1934 C1936 1.378 . S
C1934 C1938 1.350 . S
C1935 C1938 1.463 1_655 S
C1935 C1940 1.350 . S
C1935 N1943 1.427 . S
C1936 H1927 0.930 . S
C1936 C1934 1.378 . S
C1936 C1937 1.367 . S
C1937 C1936 1.367 . S
C1937 C1939 1.433 . S
C1938 C1934 1.350 . S
C1938 C1935 1.463 1_455 S
C1938 N1942 1.427 . S
C1939 H1929 0.929 . S
C1939 C1937 1.433 . S
C1939 N1942 1.384 . S
C1940 H1931 0.929 . S
C1940 C1932 1.378 . S
C1940 C1935 1.350 . S
C1941 H1928 0.929 1_565 S
C1941 C1933 1.433 . S
C1941 N1943 1.384 . S
N1942 C1938 1.427 . S
N1942 C1939 1.384 . S
N1943 C1935 1.427 . S
N1943 C1941 1.384 . S
H1944 C1950 0.930 . S
H1945 C1954 0.930 . S
H1946 C1959 0.929 . S
H1947 C1957 0.929 . S
H1948 C1952 0.929 . S
H1949 C1958 0.929 . S
C1950 H1944 0.930 . S
C1950 C1951 1.367 . S
C1950 C1958 1.378 . S
C1951 C1950 1.367 . S
C1951 C1959 1.433 . S
C1952 H1948 0.929 . S
C1952 C1954 1.378 . S
C1952 C1956 1.350 . S
C1953 C1956 1.463 . S
C1953 C1958 1.350 . S
C1953 N1961 1.427 . S
C1954 H1945 0.930 . S
C1954 C1952 1.378 . S
C1954 C1955 1.367 . S
C1955 C1954 1.367 . S
C1955 C1957 1.433 . S
C1956 C1952 1.350 . S
C1956 C1953 1.463 . S
C1956 N1960 1.427 . S
C1957 H1947 0.929 . S
C1957 C1955 1.433 . S
C1957 N1960 1.384 . S
C1958 H1949 0.929 . S
C1958 C1950 1.378 . S
C1958 C1953 1.350 . S
C1959 H1946 0.929 . S
C1959 C1951 1.433 . S
C1959 N1961 1.384 . S
N1960 C1956 1.427 . S
N1960 C1957 1.384 . S
N1961 C1953 1.427 . S
N1961 C1959 1.384 . S
H1962 C1968 0.930 . S
H1963 C1972 0.930 . S
H1964 C1977 0.929 . S
H1965 C1975 0.929 . S
H1966 C1970 0.929 . S
H1967 C1976 0.929 . S
C1968 H1962 0.930 . S
C1968 C1969 1.367 . S
C1968 C1976 1.378 . S
C1969 C1968 1.367 . S
C1969 C1977 1.433 . S
C1970 H1966 0.929 . S
C1970 C1972 1.378 . S
C1970 C1974 1.350 . S
C1971 C1974 1.463 1_556 S
C1971 C1976 1.350 . S
C1971 N1979 1.427 . S
C1972 H1963 0.930 . S
C1972 C1970 1.378 . S
C1972 C1973 1.367 . S
C1973 C1972 1.367 . S
C1973 C1975 1.433 . S
C1974 C1970 1.350 . S
C1974 C1971 1.463 1_554 S
C1974 N1978 1.427 . S
C1975 H1965 0.929 . S
C1975 C1973 1.433 . S
C1975 N1978 1.384 . S
C1976 H1967 0.929 . S
C1976 C1968 1.378 . S
C1976 C1971 1.350 . S
C1977 H1964 0.929 . S
C1977 C1969 1.433 . S
C1977 N1979 1.384 . S
N1978 C1974 1.427 . S
N1978 C1975 1.384 . S
N1979 C1971 1.427 . S
N1979 C1977 1.384 . S
H1980 C1986 0.930 . S
H1981 C1990 0.930 . S
H1982 C1995 0.929 . S
H1983 C1993 0.929 . S
H1984 C1988 0.929 . S
H1985 C1994 0.929 . S
C1986 H1980 0.930 . S
C1986 C1987 1.367 . S
C1986 C1994 1.378 . S
C1987 C1986 1.367 . S
C1987 C1995 1.433 . S
C1988 H1984 0.929 . S
C1988 C1990 1.378 . S
C1988 C1992 1.350 . S
C1989 C1992 1.463 . S
C1989 C1994 1.350 . S
C1989 N1997 1.427 . S
C1990 H1981 0.930 . S
C1990 C1988 1.378 . S
C1990 C1991 1.367 . S
C1991 C1990 1.367 . S
C1991 C1993 1.433 . S
C1992 C1988 1.350 . S
C1992 C1989 1.463 . S
C1992 N1996 1.427 . S
C1993 H1983 0.929 . S
C1993 C1991 1.433 . S
C1993 N1996 1.384 . S
C1994 H1985 0.929 . S
C1994 C1986 1.378 . S
C1994 C1989 1.350 . S
C1995 H1982 0.929 . S
C1995 C1987 1.433 . S
C1995 N1997 1.384 . S
N1996 C1992 1.427 . S
N1996 C1993 1.384 . S
N1997 C1989 1.427 . S
N1997 C1995 1.384 . S
H1998 C2004 0.930 . S
H1999 C2008 0.930 . S
H2000 C2013 0.929 . S
H2001 C2011 0.929 . S
H2002 C2006 0.929 . S
H2003 C2012 0.929 . S
C2004 H1998 0.930 . S
C2004 C2005 1.367 . S
C2004 C2012 1.378 . S
C2005 C2004 1.367 . S
C2005 C2013 1.433 . S
C2006 H2002 0.929 . S
C2006 C2008 1.378 . S
C2006 C2010 1.350 . S
C2007 C2010 1.463 . S
C2007 C2012 1.350 . S
C2007 N2015 1.427 . S
C2008 H1999 0.930 . S
C2008 C2006 1.378 . S
C2008 C2009 1.367 . S
C2009 C2008 1.367 . S
C2009 C2011 1.433 . S
C2010 C2006 1.350 . S
C2010 C2007 1.463 . S
C2010 N2014 1.427 . S
C2011 H2001 0.929 . S
C2011 C2009 1.433 . S
C2011 N2014 1.384 . S
C2012 H2003 0.929 . S
C2012 C2004 1.378 . S
C2012 C2007 1.350 . S
C2013 H2000 0.929 . S
C2013 C2005 1.433 . S
C2013 N2015 1.384 . S
N2014 C2010 1.427 . S
N2014 C2011 1.384 . S
N2015 C2007 1.427 . S
N2015 C2013 1.384 . S
H2016 C2022 0.930 . S
H2017 C2026 0.930 . S
H2018 C2031 0.929 . S
H2019 C2029 0.929 . S
H2020 C2024 0.929 . S
H2021 C2030 0.929 . S
C2022 H2016 0.930 . S
C2022 C2023 1.367 . S
C2022 C2030 1.378 . S
C2023 C2022 1.367 . S
C2023 C2031 1.433 . S
C2024 H2020 0.929 . S
C2024 C2026 1.378 . S
C2024 C2028 1.350 . S
C2025 C2028 1.463 . S
C2025 C2030 1.350 . S
C2025 N2033 1.427 . S
C2026 H2017 0.930 . S
C2026 C2024 1.378 . S
C2026 C2027 1.367 . S
C2027 C2026 1.367 . S
C2027 C2029 1.433 . S
C2028 C2024 1.350 . S
C2028 C2025 1.463 . S
C2028 N2032 1.427 . S
C2029 H2019 0.929 . S
C2029 C2027 1.433 . S
C2029 N2032 1.384 . S
C2030 H2021 0.929 . S
C2030 C2022 1.378 . S
C2030 C2025 1.350 . S
C2031 H2018 0.929 . S
C2031 C2023 1.433 . S
C2031 N2033 1.384 . S
N2032 C2028 1.427 . S
N2032 C2029 1.384 . S
N2033 C2025 1.427 . S
N2033 C2031 1.384 . S
H2034 C2040 0.930 . S
H2035 C2044 0.930 . S
H2036 C2049 0.929 . S
H2037 C2047 0.929 . S
H2038 C2042 0.929 . S
H2039 C2048 0.929 . S
C2040 H2034 0.930 . S
C2040 C2041 1.367 . S
C2040 C2048 1.378 . S
C2041 C2040 1.367 . S
C2041 C2049 1.433 . S
C2042 H2038 0.929 . S
C2042 C2044 1.378 . S
C2042 C2046 1.350 1_556 S
C2043 C2046 1.463 . S
C2043 C2048 1.350 . S
C2043 N2051 1.427 . S
C2044 H2035 0.930 . S
C2044 C2042 1.378 . S
C2044 C2045 1.367 . S
C2045 C2044 1.367 . S
C2045 C2047 1.433 . S
C2046 C2042 1.350 1_554 S
C2046 C2043 1.463 . S
C2046 N2050 1.427 1_554 S
C2047 H2037 0.929 . S
C2047 C2045 1.433 . S
C2047 N2050 1.384 . S
C2048 H2039 0.929 . S
C2048 C2040 1.378 . S
C2048 C2043 1.350 . S
C2049 H2036 0.929 . S
C2049 C2041 1.433 . S
C2049 N2051 1.384 . S
N2050 C2046 1.427 1_556 S
N2050 C2047 1.384 . S
N2051 C2043 1.427 . S
N2051 C2049 1.384 . S
H2052 C2058 0.930 . S
H2053 C2062 0.930 . S
H2054 C2067 0.929 . S
H2055 C2065 0.929 . S
H2056 C2060 0.929 . S
H2057 C2066 0.929 . S
C2058 H2052 0.930 . S
C2058 C2059 1.367 . S
C2058 C2066 1.378 . S
C2059 C2058 1.367 . S
C2059 C2067 1.433 . S
C2060 H2056 0.929 . S
C2060 C2062 1.378 . S
C2060 C2064 1.350 . S
C2061 C2064 1.463 . S
C2061 C2066 1.350 . S
C2061 N2069 1.427 . S
C2062 H2053 0.930 . S
C2062 C2060 1.378 . S
C2062 C2063 1.367 . S
C2063 C2062 1.367 . S
C2063 C2065 1.433 . S
C2064 C2060 1.350 . S
C2064 C2061 1.463 . S
C2064 N2068 1.427 . S
C2065 H2055 0.929 . S
C2065 C2063 1.433 . S
C2065 N2068 1.384 . S
C2066 H2057 0.929 . S
C2066 C2058 1.378 . S
C2066 C2061 1.350 . S
C2067 H2054 0.929 . S
C2067 C2059 1.433 . S
C2067 N2069 1.384 . S
N2068 C2064 1.427 . S
N2068 C2065 1.384 . S
N2069 C2061 1.427 . S
N2069 C2067 1.384 . S
H2070 C2076 0.930 . S
H2071 C2080 0.930 . S
H2072 C2085 0.929 . S
H2073 C2083 0.929 . S
H2074 C2078 0.929 . S
H2075 C2084 0.929 . S
C2076 H2070 0.930 . S
C2076 C2077 1.367 . S
C2076 C2084 1.378 . S
C2077 C2076 1.367 . S
C2077 C2085 1.433 . S
C2078 H2074 0.929 . S
C2078 C2080 1.378 . S
C2078 C2082 1.350 . S
C2079 C2082 1.463 . S
C2079 C2084 1.350 . S
C2079 N2087 1.427 . S
C2080 H2071 0.930 . S
C2080 C2078 1.378 . S
C2080 C2081 1.367 . S
C2081 C2080 1.367 . S
C2081 C2083 1.433 . S
C2082 C2078 1.350 . S
C2082 C2079 1.463 . S
C2082 N2086 1.427 . S
C2083 H2073 0.929 . S
C2083 C2081 1.433 . S
C2083 N2086 1.384 . S
C2084 H2075 0.929 . S
C2084 C2076 1.378 . S
C2084 C2079 1.350 . S
C2085 H2072 0.929 . S
C2085 C2077 1.433 . S
C2085 N2087 1.384 . S
N2086 C2082 1.427 . S
N2086 C2083 1.384 . S
N2087 C2079 1.427 . S
N2087 C2085 1.384 . S
H2088 C2094 0.930 . S
H2089 C2098 0.930 . S
H2090 C2103 0.929 . S
H2091 C2101 0.929 . S
H2092 C2096 0.929 . S
H2093 C2102 0.929 . S
C2094 H2088 0.930 . S
C2094 C2095 1.367 . S
C2094 C2102 1.378 . S
C2095 C2094 1.367 . S
C2095 C2103 1.433 . S
C2096 H2092 0.929 . S
C2096 C2098 1.378 . S
C2096 C2100 1.350 . S
C2097 C2100 1.463 . S
C2097 C2102 1.350 . S
C2097 N2105 1.427 . S
C2098 H2089 0.930 . S
C2098 C2096 1.378 . S
C2098 C2099 1.367 . S
C2099 C2098 1.367 . S
C2099 C2101 1.433 . S
C2100 C2096 1.350 . S
C2100 C2097 1.463 . S
C2100 N2104 1.427 . S
C2101 H2091 0.929 . S
C2101 C2099 1.433 . S
C2101 N2104 1.384 . S
C2102 H2093 0.929 . S
C2102 C2094 1.378 . S
C2102 C2097 1.350 . S
C2103 H2090 0.929 . S
C2103 C2095 1.433 . S
C2103 N2105 1.384 . S
N2104 C2100 1.427 . S
N2104 C2101 1.384 . S
N2105 C2097 1.427 . S
N2105 C2103 1.384 . S
H2106 C2112 0.930 . S
H2107 C2116 0.930 . S
H2108 C2121 0.929 . S
H2109 C2119 0.929 . S
H2110 C2114 0.929 . S
H2111 C2120 0.929 . S
C2112 H2106 0.930 . S
C2112 C2113 1.367 . S
C2112 C2120 1.378 . S
C2113 C2112 1.367 . S
C2113 C2121 1.433 . S
C2114 H2110 0.929 . S
C2114 C2116 1.378 . S
C2114 C2118 1.350 . S
C2115 C2118 1.463 . S
C2115 C2120 1.350 . S
C2115 N2123 1.427 . S
C2116 H2107 0.930 . S
C2116 C2114 1.378 . S
C2116 C2117 1.367 . S
C2117 C2116 1.367 . S
C2117 C2119 1.433 . S
C2118 C2114 1.350 . S
C2118 C2115 1.463 . S
C2118 N2122 1.427 . S
C2119 H2109 0.929 . S
C2119 C2117 1.433 . S
C2119 N2122 1.384 . S
C2120 H2111 0.929 . S
C2120 C2112 1.378 . S
C2120 C2115 1.350 . S
C2121 H2108 0.929 . S
C2121 C2113 1.433 . S
C2121 N2123 1.384 . S
N2122 C2118 1.427 . S
N2122 C2119 1.384 . S
N2123 C2115 1.427 . S
N2123 C2121 1.384 . S
H2124 C2130 0.930 . S
H2125 C2134 0.930 . S
H2126 C2139 0.929 . S
H2127 C2137 0.929 . S
H2128 C2132 0.929 . S
H2129 C2138 0.929 . S
C2130 H2124 0.930 . S
C2130 C2131 1.367 . S
C2130 C2138 1.378 . S
C2131 C2130 1.367 . S
C2131 C2139 1.433 . S
C2132 H2128 0.929 . S
C2132 C2134 1.378 . S
C2132 C2136 1.350 . S
C2133 C2136 1.463 . S
C2133 C2138 1.350 . S
C2133 N2141 1.427 . S
C2134 H2125 0.930 . S
C2134 C2132 1.378 . S
C2134 C2135 1.367 . S
C2135 C2134 1.367 . S
C2135 C2137 1.433 . S
C2136 C2132 1.350 . S
C2136 C2133 1.463 . S
C2136 N2140 1.427 . S
C2137 H2127 0.929 . S
C2137 C2135 1.433 . S
C2137 N2140 1.384 . S
C2138 H2129 0.929 . S
C2138 C2130 1.378 . S
C2138 C2133 1.350 . S
C2139 H2126 0.929 . S
C2139 C2131 1.433 . S
C2139 N2141 1.384 . S
N2140 C2136 1.427 . S
N2140 C2137 1.384 . S
N2141 C2133 1.427 . S
N2141 C2139 1.384 . S
H2142 C2148 0.930 . S
H2143 C2152 0.930 . S
H2144 C2157 0.929 . S
H2145 C2155 0.929 . S
H2146 C2150 0.929 . S
H2147 C2156 0.929 . S
C2148 H2142 0.930 . S
C2148 C2149 1.367 . S
C2148 C2156 1.378 . S
C2149 C2148 1.367 . S
C2149 C2157 1.433 . S
C2150 H2146 0.929 . S
C2150 C2152 1.378 . S
C2150 C2154 1.350 . S
C2151 C2154 1.463 . S
C2151 C2156 1.350 . S
C2151 N2159 1.427 . S
C2152 H2143 0.930 . S
C2152 C2150 1.378 . S
C2152 C2153 1.367 . S
C2153 C2152 1.367 . S
C2153 C2155 1.433 . S
C2154 C2150 1.350 . S
C2154 C2151 1.463 . S
C2154 N2158 1.427 . S
C2155 H2145 0.929 . S
C2155 C2153 1.433 . S
C2155 N2158 1.384 . S
C2156 H2147 0.929 . S
C2156 C2148 1.378 . S
C2156 C2151 1.350 . S
C2157 H2144 0.929 . S
C2157 C2149 1.433 . S
C2157 N2159 1.384 . S
N2158 C2154 1.427 . S
N2158 C2155 1.384 . S
N2159 C2151 1.427 . S
N2159 C2157 1.384 . S
H2160 C2166 0.930 . S
H2161 C2170 0.930 . S
H2162 C2175 0.929 . S
H2163 C2173 0.929 . S
H2164 C2168 0.929 . S
H2165 C2174 0.929 . S
C2166 H2160 0.930 . S
C2166 C2167 1.367 . S
C2166 C2174 1.378 . S
C2167 C2166 1.367 . S
C2167 C2175 1.433 . S
C2168 H2164 0.929 . S
C2168 C2170 1.378 . S
C2168 C2172 1.350 . S
C2169 C2172 1.463 . S
C2169 C2174 1.350 . S
C2169 N2177 1.427 . S
C2170 H2161 0.930 . S
C2170 C2168 1.378 . S
C2170 C2171 1.367 . S
C2171 C2170 1.367 . S
C2171 C2173 1.433 . S
C2172 C2168 1.350 . S
C2172 C2169 1.463 . S
C2172 N2176 1.427 . S
C2173 H2163 0.929 . S
C2173 C2171 1.433 . S
C2173 N2176 1.384 . S
C2174 H2165 0.929 . S
C2174 C2166 1.378 . S
C2174 C2169 1.350 . S
C2175 H2162 0.929 . S
C2175 C2167 1.433 . S
C2175 N2177 1.384 . S
N2176 C2172 1.427 . S
N2176 C2173 1.384 . S
N2177 C2169 1.427 . S
N2177 C2175 1.384 . S
H2178 C2184 0.930 . S
H2179 C2188 0.930 . S
H2180 C2193 0.929 . S
H2181 C2191 0.929 . S
H2182 C2186 0.929 . S
H2183 C2192 0.929 . S
C2184 H2178 0.930 . S
C2184 C2185 1.367 . S
C2184 C2192 1.378 . S
C2185 C2184 1.367 . S
C2185 C2193 1.433 . S
C2186 H2182 0.929 . S
C2186 C2188 1.378 . S
C2186 C2190 1.350 . S
C2187 C2190 1.463 . S
C2187 C2192 1.350 . S
C2187 N2195 1.427 . S
C2188 H2179 0.930 . S
C2188 C2186 1.378 . S
C2188 C2189 1.367 . S
C2189 C2188 1.367 . S
C2189 C2191 1.433 . S
C2190 C2186 1.350 . S
C2190 C2187 1.463 . S
C2190 N2194 1.427 . S
C2191 H2181 0.929 . S
C2191 C2189 1.433 . S
C2191 N2194 1.384 . S
C2192 H2183 0.929 . S
C2192 C2184 1.378 . S
C2192 C2187 1.350 . S
C2193 H2180 0.929 . S
C2193 C2185 1.433 . S
C2193 N2195 1.384 . S
N2194 C2190 1.427 . S
N2194 C2191 1.384 . S
N2195 C2187 1.427 . S
N2195 C2193 1.384 . S
H2196 C2202 0.930 . S
H2197 C2206 0.930 . S
H2198 C2211 0.929 . S
H2199 C2209 0.929 . S
H2200 C2204 0.929 . S
H2201 C2210 0.929 . S
C2202 H2196 0.930 . S
C2202 C2203 1.367 . S
C2202 C2210 1.378 . S
C2203 C2202 1.367 . S
C2203 C2211 1.433 . S
C2204 H2200 0.929 . S
C2204 C2206 1.378 . S
C2204 C2208 1.350 . S
C2205 C2208 1.463 . S
C2205 C2210 1.350 . S
C2205 N2213 1.427 . S
C2206 H2197 0.930 . S
C2206 C2204 1.378 . S
C2206 C2207 1.367 . S
C2207 C2206 1.367 . S
C2207 C2209 1.433 . S
C2208 C2204 1.350 . S
C2208 C2205 1.463 . S
C2208 N2212 1.427 . S
C2209 H2199 0.929 . S
C2209 C2207 1.433 . S
C2209 N2212 1.384 . S
C2210 H2201 0.929 . S
C2210 C2202 1.378 . S
C2210 C2205 1.350 . S
C2211 H2198 0.929 . S
C2211 C2203 1.433 . S
C2211 N2213 1.384 . S
N2212 C2208 1.427 . S
N2212 C2209 1.384 . S
N2213 C2205 1.427 . S
N2213 C2211 1.384 . S
H2214 C2220 0.930 . S
H2215 C2224 0.930 . S
H2216 C2229 0.929 . S
H2217 C2227 0.929 . S
H2218 C2222 0.929 . S
H2219 C2228 0.929 . S
C2220 H2214 0.930 . S
C2220 C2221 1.367 . S
C2220 C2228 1.378 . S
C2221 C2220 1.367 . S
C2221 C2229 1.433 . S
C2222 H2218 0.929 . S
C2222 C2224 1.378 . S
C2222 C2226 1.350 . S
C2223 C2226 1.463 . S
C2223 C2228 1.350 . S
C2223 N2231 1.427 . S
C2224 H2215 0.930 . S
C2224 C2222 1.378 . S
C2224 C2225 1.367 . S
C2225 C2224 1.367 . S
C2225 C2227 1.433 . S
C2226 C2222 1.350 . S
C2226 C2223 1.463 . S
C2226 N2230 1.427 . S
C2227 H2217 0.929 . S
C2227 C2225 1.433 . S
C2227 N2230 1.384 . S
C2228 H2219 0.929 . S
C2228 C2220 1.378 . S
C2228 C2223 1.350 . S
C2229 H2216 0.929 . S
C2229 C2221 1.433 . S
C2229 N2231 1.384 . S
N2230 C2226 1.427 . S
N2230 C2227 1.384 . S
N2231 C2223 1.427 . S
N2231 C2229 1.384 . S
H2232 C2238 0.930 . S
H2233 C2242 0.930 . S
H2234 C2247 0.929 . S
H2235 C2245 0.929 . S
H2236 C2240 0.929 . S
H2237 C2246 0.929 . S
C2238 H2232 0.930 . S
C2238 C2239 1.367 . S
C2238 C2246 1.378 . S
C2239 C2238 1.367 . S
C2239 C2247 1.433 . S
C2240 H2236 0.929 . S
C2240 C2242 1.378 . S
C2240 C2244 1.350 . S
C2241 C2244 1.463 . S
C2241 C2246 1.350 . S
C2241 N2249 1.427 . S
C2242 H2233 0.930 . S
C2242 C2240 1.378 . S
C2242 C2243 1.367 . S
C2243 C2242 1.367 . S
C2243 C2245 1.433 . S
C2244 C2240 1.350 . S
C2244 C2241 1.463 . S
C2244 N2248 1.427 . S
C2245 H2235 0.929 . S
C2245 C2243 1.433 . S
C2245 N2248 1.384 . S
C2246 H2237 0.929 . S
C2246 C2238 1.378 . S
C2246 C2241 1.350 . S
C2247 H2234 0.929 . S
C2247 C2239 1.433 . S
C2247 N2249 1.384 . S
N2248 C2244 1.427 . S
N2248 C2245 1.384 . S
N2249 C2241 1.427 . S
N2249 C2247 1.384 . S
H2250 C2256 0.930 . S
H2251 C2260 0.930 . S
H2252 C2265 0.929 . S
H2253 C2263 0.929 . S
H2254 C2258 0.929 . S
H2255 C2264 0.929 . S
C2256 H2250 0.930 . S
C2256 C2257 1.367 . S
C2256 C2264 1.378 . S
C2257 C2256 1.367 . S
C2257 C2265 1.433 . S
C2258 H2254 0.929 . S
C2258 C2260 1.378 . S
C2258 C2262 1.350 . S
C2259 C2262 1.463 . S
C2259 C2264 1.350 . S
C2259 N2267 1.427 . S
C2260 H2251 0.930 . S
C2260 C2258 1.378 . S
C2260 C2261 1.367 . S
C2261 C2260 1.367 . S
C2261 C2263 1.433 . S
C2262 C2258 1.350 . S
C2262 C2259 1.463 . S
C2262 N2266 1.427 . S
C2263 H2253 0.929 . S
C2263 C2261 1.433 . S
C2263 N2266 1.384 . S
C2264 H2255 0.929 . S
C2264 C2256 1.378 . S
C2264 C2259 1.350 . S
C2265 H2252 0.929 . S
C2265 C2257 1.433 . S
C2265 N2267 1.384 . S
N2266 C2262 1.427 . S
N2266 C2263 1.384 . S
N2267 C2259 1.427 . S
N2267 C2265 1.384 . S
H2268 C2274 0.930 . S
H2269 C2278 0.930 . S
H2270 C2283 0.929 . S
H2271 C2281 0.929 . S
H2272 C2276 0.929 . S
H2273 C2282 0.929 . S
C2274 H2268 0.930 . S
C2274 C2275 1.367 . S
C2274 C2282 1.378 . S
C2275 C2274 1.367 . S
C2275 C2283 1.433 . S
C2276 H2272 0.929 . S
C2276 C2278 1.378 . S
C2276 C2280 1.350 . S
C2277 C2280 1.463 . S
C2277 C2282 1.350 . S
C2277 N2285 1.427 . S
C2278 H2269 0.930 . S
C2278 C2276 1.378 . S
C2278 C2279 1.367 . S
C2279 C2278 1.367 . S
C2279 C2281 1.433 . S
C2280 C2276 1.350 . S
C2280 C2277 1.463 . S
C2280 N2284 1.427 . S
C2281 H2271 0.929 . S
C2281 C2279 1.433 . S
C2281 N2284 1.384 . S
C2282 H2273 0.929 . S
C2282 C2274 1.378 . S
C2282 C2277 1.350 . S
C2283 H2270 0.929 . S
C2283 C2275 1.433 . S
C2283 N2285 1.384 . S
N2284 C2280 1.427 . S
N2284 C2281 1.384 . S
N2285 C2277 1.427 . S
N2285 C2283 1.384 . S
H2286 C2292 0.930 . S
H2287 C2296 0.930 . S
H2288 C2301 0.929 . S
H2289 C2299 0.929 . S
H2290 C2294 0.929 . S
H2291 C2300 0.929 . S
C2292 H2286 0.930 . S
C2292 C2293 1.367 . S
C2292 C2300 1.378 . S
C2293 C2292 1.367 . S
C2293 C2301 1.433 . S
C2294 H2290 0.929 . S
C2294 C2296 1.378 . S
C2294 C2298 1.350 . S
C2295 C2298 1.463 . S
C2295 C2300 1.350 . S
C2295 N2303 1.427 . S
C2296 H2287 0.930 . S
C2296 C2294 1.378 . S
C2296 C2297 1.367 . S
C2297 C2296 1.367 . S
C2297 C2299 1.433 . S
C2298 C2294 1.350 . S
C2298 C2295 1.463 . S
C2298 N2302 1.427 . S
C2299 H2289 0.929 . S
C2299 C2297 1.433 . S
C2299 N2302 1.384 . S
C2300 H2291 0.929 . S
C2300 C2292 1.378 . S
C2300 C2295 1.350 . S
C2301 H2288 0.929 . S
C2301 C2293 1.433 . S
C2301 N2303 1.384 . S
N2302 C2298 1.427 . S
N2302 C2299 1.384 . S
N2303 C2295 1.427 . S
N2303 C2301 1.384 . S
H2304 C2310 0.930 . S
H2305 C2314 0.930 . S
H2306 C2319 0.929 . S
H2307 C2317 0.929 . S
H2308 C2312 0.929 . S
H2309 C2318 0.929 . S
C2310 H2304 0.930 . S
C2310 C2311 1.367 . S
C2310 C2318 1.378 . S
C2311 C2310 1.367 . S
C2311 C2319 1.433 . S
C2312 H2308 0.929 . S
C2312 C2314 1.378 . S
C2312 C2316 1.350 . S
C2313 C2316 1.463 . S
C2313 C2318 1.350 . S
C2313 N2321 1.427 . S
C2314 H2305 0.930 . S
C2314 C2312 1.378 . S
C2314 C2315 1.367 . S
C2315 C2314 1.367 . S
C2315 C2317 1.433 . S
C2316 C2312 1.350 . S
C2316 C2313 1.463 . S
C2316 N2320 1.427 . S
C2317 H2307 0.929 . S
C2317 C2315 1.433 . S
C2317 N2320 1.384 . S
C2318 H2309 0.929 . S
C2318 C2310 1.378 . S
C2318 C2313 1.350 . S
C2319 H2306 0.929 . S
C2319 C2311 1.433 . S
C2319 N2321 1.384 . S
N2320 C2316 1.427 . S
N2320 C2317 1.384 . S
N2321 C2313 1.427 . S
N2321 C2319 1.384 . S
H2322 C2328 0.930 . S
H2323 C2332 0.930 . S
H2324 C2337 0.929 . S
H2325 C2335 0.929 . S
H2326 C2330 0.929 . S
H2327 C2336 0.929 1_554 S
C2328 H2322 0.930 . S
C2328 C2329 1.367 1_554 S
C2328 C2336 1.378 1_554 S
C2329 C2328 1.367 1_556 S
C2329 C2337 1.433 . S
C2330 H2326 0.929 . S
C2330 C2332 1.378 . S
C2330 C2334 1.350 . S
C2331 C2334 1.463 . S
C2331 C2336 1.350 . S
C2331 N2339 1.427 . S
C2332 H2323 0.930 . S
C2332 C2330 1.378 . S
C2332 C2333 1.367 . S
C2333 C2332 1.367 . S
C2333 C2335 1.433 . S
C2334 C2330 1.350 . S
C2334 C2331 1.463 . S
C2334 N2338 1.427 . S
C2335 H2325 0.929 . S
C2335 C2333 1.433 . S
C2335 N2338 1.384 . S
C2336 H2327 0.929 1_556 S
C2336 C2328 1.378 1_556 S
C2336 C2331 1.350 . S
C2337 H2324 0.929 . S
C2337 C2329 1.433 . S
C2337 N2339 1.384 . S
N2338 C2334 1.427 . S
N2338 C2335 1.384 . S
N2339 C2331 1.427 . S
N2339 C2337 1.384 . S
H2340 C2346 0.930 . S
H2341 C2350 0.930 . S
H2342 C2355 0.929 . S
H2343 C2353 0.929 . S
H2344 C2348 0.929 . S
H2345 C2354 0.929 . S
C2346 H2340 0.930 . S
C2346 C2347 1.367 . S
C2346 C2354 1.378 . S
C2347 C2346 1.367 . S
C2347 C2355 1.433 . S
C2348 H2344 0.929 . S
C2348 C2350 1.378 . S
C2348 C2352 1.350 . S
C2349 C2352 1.463 . S
C2349 C2354 1.350 . S
C2349 N2357 1.427 . S
C2350 H2341 0.930 . S
C2350 C2348 1.378 . S
C2350 C2351 1.367 . S
C2351 C2350 1.367 . S
C2351 C2353 1.433 . S
C2352 C2348 1.350 . S
C2352 C2349 1.463 . S
C2352 N2356 1.427 . S
C2353 H2343 0.929 . S
C2353 C2351 1.433 . S
C2353 N2356 1.384 . S
C2354 H2345 0.929 . S
C2354 C2346 1.378 . S
C2354 C2349 1.350 . S
C2355 H2342 0.929 . S
C2355 C2347 1.433 . S
C2355 N2357 1.384 . S
N2356 C2352 1.427 . S
N2356 C2353 1.384 . S
N2357 C2349 1.427 . S
N2357 C2355 1.384 . S
H2358 C2364 0.930 . S
H2359 C2368 0.930 . S
H2360 C2373 0.929 . S
H2361 C2371 0.929 . S
H2362 C2366 0.929 . S
H2363 C2372 0.929 . S
C2364 H2358 0.930 . S
C2364 C2365 1.367 . S
C2364 C2372 1.378 . S
C2365 C2364 1.367 . S
C2365 C2373 1.433 . S
C2366 H2362 0.929 . S
C2366 C2368 1.378 1_455 S
C2366 C2370 1.350 . S
C2367 C2370 1.463 . S
C2367 C2372 1.350 . S
C2367 N2375 1.427 . S
C2368 H2359 0.930 . S
C2368 C2366 1.378 1_655 S
C2368 C2369 1.367 . S
C2369 C2368 1.367 . S
C2369 C2371 1.433 . S
C2370 C2366 1.350 . S
C2370 C2367 1.463 . S
C2370 N2374 1.427 1_455 S
C2371 H2361 0.929 . S
C2371 C2369 1.433 . S
C2371 N2374 1.384 . S
C2372 H2363 0.929 . S
C2372 C2364 1.378 . S
C2372 C2367 1.350 . S
C2373 H2360 0.929 . S
C2373 C2365 1.433 . S
C2373 N2375 1.384 . S
N2374 C2370 1.427 1_655 S
N2374 C2371 1.384 . S
N2375 C2367 1.427 . S
N2375 C2373 1.384 . S
C659 C330 0.922 . S
C655 C0 0.958 . S
C673 C18 1.368 . S
C677 C350 1.479 . S
C695 C370 1.068 . S
C691 C34 1.172 . S
C713 C389 1.369 . S
C709 C49 1.365 . S
C731 C347 1.307 . S
C727 C62 1.308 . S
C745 C73 1.241 . S
C749 C372 1.153 . S
C767 C392 1.370 . S
C763 C83 1.279 . S
C781 C91 1.054 . S
C785 C328 0.995 . S
C799 C109 1.253 . S
C803 C325 1.188 . S
C821 C348 1.129 . S
C817 C125 1.200 . S
C839 C371 1.353 . S
C835 C130 1.313 . S
C857 C393 1.350 . S
C853 C153 1.448 . S
C875 C351 0.981 . S
C871 C114 1.058 . S
C893 C367 1.011 . S
C889 C117 1.139 . S
C907 C138 1.069 . S
C911 C390 0.992 . S
C929 C329 0.841 . S
C925 C148 0.806 . S
C943 C161 1.190 . S
C947 C326 1.291 . S
C961 C169 0.952 . S
C965 C409 0.858 . S
C983 C431 1.240 . S
C979 C190 1.234 . S
C1001 C454 1.004 . S
C997 C205 1.190 . S
C1015 C213 1.242 . S
C1019 C327 1.249 . S
C1033 C229 1.372 . S
C1037 C369 1.293 . S
C1055 C451 1.158 . S
C1051 C182 1.391 . S
C1073 C412 0.856 . S
C1069 C244 0.956 . S
C1091 C477 1.022 . S
C1087 C21 1.089 . S
C1109 C497 1.567 . S
C1105 C5 1.474 . S
C1123 C39 1.012 . S
C1127 C519 0.978 . S
C1141 C36 1.143 . S
C1145 C536 1.141 . S
C1159 C101 1.590 1_655 S
C1163 C494 1.614 . S
C1177 C78 1.076 . S
C1181 C517 0.951 . S
C1199 C539 1.297 . S
C1195 C70 1.175 . S
C1213 C60 1.323 . S
C1217 C475 1.170 . S
C1231 C257 1.054 . S
C1235 C472 0.966 . S
C1253 C495 1.403 . S
C1249 C203 1.532 . S
C1271 C514 1.239 . S
C1267 C208 1.394 . S
C1289 C540 1.224 . S
C1285 C174 1.224 . S
C1307 C498 0.964 . S
C1303 C252 0.976 . S
C1325 C518 0.971 . S
C1321 C195 0.973 . S
C1343 C537 0.802 . S
C1339 C216 0.844 . S
C1357 C179 1.303 . S
C1361 C476 1.343 . S
C1379 C473 1.372 . S
C1375 C270 1.347 . S
C1393 C143 1.142 . S
C1397 C556 1.006 . S
C1415 C579 1.264 . S
C1411 C281 1.343 . S
C1429 C122 1.165 . S
C1433 C601 1.057 . S
C1451 C474 1.332 . S
C1447 C140 1.380 . S
C1469 C515 1.369 . S
C1465 C294 1.381 . S
C1487 C598 0.982 . S
C1483 C273 1.130 . S
C1501 C304 0.833 . S
C1505 C559 0.819 . S
C1519 C26 0.943 . S
C1523 C624 0.905 . S
C1537 C44 1.363 . S
C1541 C413 1.472 . S
C1559 C433 1.052 . S
C1555 C8 1.172 . S
C1573 C23 1.370 . S
C1577 C452 1.370 . S
C1591 C88 1.307 . S
C1595 C410 1.304 . S
C1609 C99 1.238 . S
C1613 C435 1.156 . S
C1631 C455 1.358 . S
C1627 C57 1.277 . S
C1649 C622 0.963 . S
C1645 C65 1.058 . S
C1667 C619 1.198 . S
C1663 C278 1.236 . S
C1685 C411 1.131 . S
C1681 C268 1.200 . S
C1703 C434 1.353 . S
C1699 C299 1.311 . S
C1717 C296 1.448 . S
C1721 C456 1.350 . S
C1739 C414 1.014 . S
C1735 C283 1.075 . S
C1753 C260 1.139 . S
C1757 C430 1.000 . S
C1775 C453 0.982 . S
C1771 C307 1.060 . S
C1789 C291 0.791 . S
C1793 C623 0.831 . S
C1811 C620 1.298 . S
C1807 C200 1.198 . S
C1825 C221 0.968 . S
C1829 C346 0.866 . S
C1847 C368 1.236 . S
C1843 C255 1.231 . S
C1861 C166 1.203 . S
C1865 C391 1.031 . S
C1883 C621 1.262 . S
C1879 C239 1.261 . S
C1901 C432 1.291 . S
C1897 C177 1.366 . S
C1919 C388 1.159 . S
C1915 C247 1.399 . S
C1937 C349 0.857 . S
C1933 C218 0.957 . S
C1951 C47 1.090 . S
C1955 C645 1.031 . S
C1969 C31 1.471 . S
C1973 C560 1.560 . S
C1987 C13 1.007 . S
C1991 C582 0.970 . S
C2009 C599 1.152 . S
C2005 C10 1.133 . S
C2027 C557 1.607 . S
C2023 C75 1.594 . S
C2041 C52 1.078 . S
C2045 C580 0.959 . S
C2063 C602 1.295 . S
C2059 C96 1.173 . S
C2077 C86 1.322 . S
C2081 C643 1.163 . S
C2099 C640 0.947 . S
C2095 C192 1.041 . S
C2113 C164 1.537 . S
C2117 C558 1.414 . S
C2131 C234 1.396 . S
C2135 C577 1.237 . S
C2153 C603 1.199 . S
C2149 C226 1.199 . S
C2171 C561 0.964 . S
C2167 C187 0.974 . S
C2185 C156 0.977 . S
C2189 C581 0.977 . S
C2207 C600 0.805 . S
C2203 C242 0.839 . S
C2225 C644 1.335 . S
C2221 C231 1.290 . S
C2243 C641 1.363 . S
C2239 C127 1.341 . S
C2261 C493 1.007 . S
C2257 C286 1.142 . S
C2275 C112 1.343 . S
C2279 C516 1.265 . S
C2293 C265 1.144 . S
C2297 C538 1.023 . S
C2315 C642 1.332 . S
C2311 C309 1.380 . S
C2333 C578 1.369 . S
C2329 C151 1.380 1_556 S
C2351 C535 0.948 . S
C2347 C104 1.119 . S
C2369 C496 0.817 . S
C2365 C135 0.831 . S
