# Generated by pormake.
# Topology gar, (4,6)-cn, num edge types: 1
# Building blocks:
#     Node 0, Type 0, BuildingBlock: AZAVOO_clean_sbu_0, # of connection points: 4
#     Node 1, Type 0, BuildingBlock: AZAVOO_clean_sbu_0, # of connection points: 4
#     Node 2, Type 0, BuildingBlock: AZAVOO_clean_sbu_0, # of connection points: 4
#     Node 3, Type 0, BuildingBlock: AZAVOO_clean_sbu_0, # of connection points: 4
#     Node 4, Type 0, BuildingBlock: AZAVOO_clean_sbu_0, # of connection points: 4
#     Node 5, Type 0, BuildingBlock: AZAVOO_clean_sbu_0, # of connection points: 4
#     Node 6, Type 0, BuildingBlock: AZAVOO_clean_sbu_0, # of connection points: 4
#     Node 7, Type 0, BuildingBlock: AZAVOO_clean_sbu_0, # of connection points: 4
#     Node 8, Type 0, BuildingBlock: AZAVOO_clean_sbu_0, # of connection points: 4
#     Node 9, Type 0, BuildingBlock: AZAVOO_clean_sbu_0, # of connection points: 4
#     Node 10, Type 0, BuildingBlock: AZAVOO_clean_sbu_0, # of connection points: 4
#     Node 11, Type 0, BuildingBlock: AZAVOO_clean_sbu_0, # of connection points: 4
#     Node 12, Type 0, BuildingBlock: AZAVOO_clean_sbu_0, # of connection points: 4
#     Node 13, Type 0, BuildingBlock: AZAVOO_clean_sbu_0, # of connection points: 4
#     Node 14, Type 0, BuildingBlock: AZAVOO_clean_sbu_0, # of connection points: 4
#     Node 15, Type 0, BuildingBlock: AZAVOO_clean_sbu_0, # of connection points: 4
#     Node 16, Type 0, BuildingBlock: AZAVOO_clean_sbu_0, # of connection points: 4
#     Node 17, Type 0, BuildingBlock: AZAVOO_clean_sbu_0, # of connection points: 4
#     Node 18, Type 0, BuildingBlock: AZAVOO_clean_sbu_0, # of connection points: 4
#     Node 19, Type 0, BuildingBlock: AZAVOO_clean_sbu_0, # of connection points: 4
#     Node 20, Type 0, BuildingBlock: AZAVOO_clean_sbu_0, # of connection points: 4
#     Node 21, Type 0, BuildingBlock: AZAVOO_clean_sbu_0, # of connection points: 4
#     Node 22, Type 0, BuildingBlock: AZAVOO_clean_sbu_0, # of connection points: 4
#     Node 23, Type 0, BuildingBlock: AZAVOO_clean_sbu_0, # of connection points: 4
#     Node 24, Type 1, BuildingBlock: BETFEN_clean_sbu_0, # of connection points: 6
#     Node 25, Type 1, BuildingBlock: BETFEN_clean_sbu_0, # of connection points: 6
#     Node 26, Type 1, BuildingBlock: BETFEN_clean_sbu_0, # of connection points: 6
#     Node 27, Type 1, BuildingBlock: BETFEN_clean_sbu_0, # of connection points: 6
#     Node 28, Type 1, BuildingBlock: BETFEN_clean_sbu_0, # of connection points: 6
#     Node 29, Type 1, BuildingBlock: BETFEN_clean_sbu_0, # of connection points: 6
#     Node 30, Type 1, BuildingBlock: BETFEN_clean_sbu_0, # of connection points: 6
#     Node 31, Type 1, BuildingBlock: BETFEN_clean_sbu_0, # of connection points: 6
#     Node 32, Type 1, BuildingBlock: BETFEN_clean_sbu_0, # of connection points: 6
#     Node 33, Type 1, BuildingBlock: BETFEN_clean_sbu_0, # of connection points: 6
#     Node 34, Type 1, BuildingBlock: BETFEN_clean_sbu_0, # of connection points: 6
#     Node 35, Type 1, BuildingBlock: BETFEN_clean_sbu_0, # of connection points: 6
#     Node 36, Type 1, BuildingBlock: BETFEN_clean_sbu_0, # of connection points: 6
#     Node 37, Type 1, BuildingBlock: BETFEN_clean_sbu_0, # of connection points: 6
#     Node 38, Type 1, BuildingBlock: BETFEN_clean_sbu_0, # of connection points: 6
#     Node 39, Type 1, BuildingBlock: BETFEN_clean_sbu_0, # of connection points: 6
#     Edge 40, Type (0, 1), None
#     Edge 41, Type (0, 1), None
#     Edge 42, Type (0, 1), None
#     Edge 43, Type (0, 1), None
#     Edge 44, Type (0, 1), None
#     Edge 45, Type (0, 1), None
#     Edge 46, Type (0, 1), None
#     Edge 47, Type (0, 1), None
#     Edge 48, Type (0, 1), None
#     Edge 49, Type (0, 1), None
#     Edge 50, Type (0, 1), None
#     Edge 51, Type (0, 1), None
#     Edge 52, Type (0, 1), None
#     Edge 53, Type (0, 1), None
#     Edge 54, Type (0, 1), None
#     Edge 55, Type (0, 1), None
#     Edge 56, Type (0, 1), None
#     Edge 57, Type (0, 1), None
#     Edge 58, Type (0, 1), None
#     Edge 59, Type (0, 1), None
#     Edge 60, Type (0, 1), None
#     Edge 61, Type (0, 1), None
#     Edge 62, Type (0, 1), None
#     Edge 63, Type (0, 1), None
#     Edge 64, Type (0, 1), None
#     Edge 65, Type (0, 1), None
#     Edge 66, Type (0, 1), None
#     Edge 67, Type (0, 1), None
#     Edge 68, Type (0, 1), None
#     Edge 69, Type (0, 1), None
#     Edge 70, Type (0, 1), None
#     Edge 71, Type (0, 1), None
#     Edge 72, Type (0, 1), None
#     Edge 73, Type (0, 1), None
#     Edge 74, Type (0, 1), None
#     Edge 75, Type (0, 1), None
#     Edge 76, Type (0, 1), None
#     Edge 77, Type (0, 1), None
#     Edge 78, Type (0, 1), None
#     Edge 79, Type (0, 1), None
#     Edge 80, Type (0, 1), None
#     Edge 81, Type (0, 1), None
#     Edge 82, Type (0, 1), None
#     Edge 83, Type (0, 1), None
#     Edge 84, Type (0, 1), None
#     Edge 85, Type (0, 1), None
#     Edge 86, Type (0, 1), None
#     Edge 87, Type (0, 1), None
#     Edge 88, Type (0, 1), None
#     Edge 89, Type (0, 1), None
#     Edge 90, Type (0, 1), None
#     Edge 91, Type (0, 1), None
#     Edge 92, Type (0, 1), None
#     Edge 93, Type (0, 1), None
#     Edge 94, Type (0, 1), None
#     Edge 95, Type (0, 1), None
#     Edge 96, Type (0, 1), None
#     Edge 97, Type (0, 1), None
#     Edge 98, Type (0, 1), None
#     Edge 99, Type (0, 1), None
#     Edge 100, Type (0, 1), None
#     Edge 101, Type (0, 1), None
#     Edge 102, Type (0, 1), None
#     Edge 103, Type (0, 1), None
#     Edge 104, Type (0, 1), None
#     Edge 105, Type (0, 1), None
#     Edge 106, Type (0, 1), None
#     Edge 107, Type (0, 1), None
#     Edge 108, Type (0, 1), None
#     Edge 109, Type (0, 1), None
#     Edge 110, Type (0, 1), None
#     Edge 111, Type (0, 1), None
#     Edge 112, Type (0, 1), None
#     Edge 113, Type (0, 1), None
#     Edge 114, Type (0, 1), None
#     Edge 115, Type (0, 1), None
#     Edge 116, Type (0, 1), None
#     Edge 117, Type (0, 1), None
#     Edge 118, Type (0, 1), None
#     Edge 119, Type (0, 1), None
#     Edge 120, Type (0, 1), None
#     Edge 121, Type (0, 1), None
#     Edge 122, Type (0, 1), None
#     Edge 123, Type (0, 1), None
#     Edge 124, Type (0, 1), None
#     Edge 125, Type (0, 1), None
#     Edge 126, Type (0, 1), None
#     Edge 127, Type (0, 1), None
#     Edge 128, Type (0, 1), None
#     Edge 129, Type (0, 1), None
#     Edge 130, Type (0, 1), None
#     Edge 131, Type (0, 1), None
#     Edge 132, Type (0, 1), None
#     Edge 133, Type (0, 1), None
#     Edge 134, Type (0, 1), None
#     Edge 135, Type (0, 1), None
# Relax obj value: 0.446
# Max RMSD: 0.432
# Mean RMSD: 0.245
data_MOF--net-gar--node1-AZAVOO_clean_sbu_0--node2-BETFEN_clean_sbu_0--edge1-none
_symmetry_space_group_name_H-M    P1
_symmetry_Int_Tables_number       1
_symmetry_cell_setting            triclinic
loop_
_symmetry_equiv_pos_as_xyz
'x, y, z'
_cell_length_a     33.941976
_cell_length_b     26.616479
_cell_length_c     26.499538
_cell_angle_alpha  94.780729
_cell_angle_beta   102.19401
_cell_angle_gamma 106.4814
loop_
_atom_site_label
_atom_site_type_symbol
_atom_site_fract_x
_atom_site_fract_y
_atom_site_fract_z
_atom_type_partial_charge
Mg0 Mg 0.05421 0.39418 0.40337 0.0
O1 O 0.08571 0.47615 0.46552 0.0
O2 O 0.04315 0.46948 0.51975 0.0
Mg3 Mg 0.98786 0.38932 0.49171 0.0
C4 C 0.07505 0.49625 0.50457 0.0
C5 C 0.11074 0.37147 0.33333 0.0
O6 O 0.07227 0.35125 0.30294 0.0
O7 O 0.06877 0.33099 0.45551 0.0
O8 O 1.02576 0.32716 0.50871 0.0
O9 O 1.01748 0.43791 0.35184 0.0
O10 O 0.99135 0.38915 0.40743 0.0
C11 C 0.05244 0.30965 0.49083 0.0
C12 C 0.98588 0.41889 0.37201 0.0
O13 O 0.11562 0.39837 0.37766 0.0
Mg14 Mg 0.13578 0.93712 0.66628 0.0
O15 O 0.11458 0.83652 0.6424 0.0
O16 O 0.11734 0.86235 0.56676 0.0
Mg17 Mg 0.10116 0.91537 0.62319 0.0
C18 C 0.11204 0.82401 0.59311 0.0
C19 C 0.21916 0.92442 0.74848 0.0
O20 O 0.1891 0.89633 0.76804 0.0
O21 O 0.1501 0.03064 0.66392 0.0
O22 O 0.11093 0.99143 0.58671 0.0
O23 O 0.11643 0.94803 0.74508 0.0
O24 O 0.07085 0.94858 0.67493 0.0
C25 C 0.13055 0.03462 0.61814 0.0
C26 C 0.08212 0.95708 0.72442 0.0
O27 O 0.20841 0.9444 0.70713 0.0
Mg28 Mg 0.55293 0.89262 0.9026 0.0
O29 O 0.5854 0.97377 0.96321 0.0
O30 O 0.54435 0.96856 1.01927 0.0
Mg31 Mg 0.48893 0.88917 0.99385 0.0
C32 C 0.57579 0.99433 1.00274 0.0
C33 C 0.60942 0.8702 0.83189 0.0
O34 O 0.57105 0.84994 0.80125 0.0
O35 O 0.56899 0.83157 0.95605 0.0
O36 O 0.52804 0.82847 1.01175 0.0
O37 O 0.51609 0.93713 0.85244 0.0
O38 O 0.49073 0.8889 0.90887 0.0
C39 C 0.55474 0.81163 0.9933 0.0
C40 C 0.48522 0.91944 0.87419 0.0
O41 O 0.61405 0.89669 0.8763 0.0
Mg42 Mg 0.6356 0.43651 0.16491 0.0
O43 O 0.61508 0.33647 0.14185 0.0
O44 O 0.61664 0.36137 0.06552 0.0
Mg45 Mg 0.60051 0.41497 0.12141 0.0
C46 C 0.61221 0.3235 0.09256 0.0
C47 C 0.71884 0.4247 0.24921 0.0
O48 O 0.6885 0.39612 0.26803 0.0
O49 O 0.64889 0.52919 0.16126 0.0
O50 O 0.60845 0.49113 0.0842 0.0
O51 O 0.61617 0.44746 0.24366 0.0
O52 O 0.57045 0.44782 0.17367 0.0
C53 C 0.62856 0.53388 0.11612 0.0
C54 C 0.58174 0.45624 0.22314 0.0
O55 O 0.70837 0.44462 0.20767 0.0
Mg56 Mg 0.17826 0.96214 0.16055 0.0
O57 O 0.15714 0.86743 0.1263 0.0
O58 O 0.08765 0.83609 0.11873 0.0
Mg59 Mg 0.07422 0.90104 0.0803 0.0
C60 C 0.1235 0.8285 0.12342 0.0
C61 C 0.25023 0.95884 0.2636 0.0
O62 O 0.23032 0.98235 0.29043 0.0
O63 O 0.13546 1.0052 0.10131 0.0
O64 O 0.07204 0.97215 0.04599 0.0
O65 O 0.14382 0.9437 0.22729 0.0
O66 O 0.10833 0.95159 0.15465 0.0
C67 C 0.10488 1.01127 0.06614 0.0
C68 C 0.10776 0.93923 0.19938 0.0
O69 O 0.23627 0.94597 0.21404 0.0
Mg70 Mg 0.54299 0.88453 0.44353 0.0
O71 O 0.56199 0.9755 0.47356 0.0
O72 O 0.50378 0.97155 0.49716 0.0
Mg73 Mg 0.51126 0.89111 0.50991 0.0
C74 C 0.53646 0.99892 0.48488 0.0
C75 C 0.60956 0.92298 0.38352 0.0
O76 O 0.57498 0.91992 0.34842 0.0
O77 O 0.58133 0.85493 0.51418 0.0
O78 O 0.52027 0.81079 0.52401 0.0
O79 O 0.50133 0.90498 0.37669 0.0
O80 O 0.469 0.85961 0.43032 0.0
C81 C 0.55943 0.81598 0.53104 0.0
C82 C 0.46682 0.88128 0.38849 0.0
O83 O 0.60689 0.90892 0.42729 0.0
Mg84 Mg 0.67718 0.4622 0.6584 0.0
O85 O 0.65533 0.36732 0.62623 0.0
O86 O 0.58598 0.33707 0.61981 0.0
Mg87 Mg 0.57277 0.40141 0.58004 0.0
C88 C 0.62173 0.3291 0.62513 0.0
C89 C 0.75041 0.46192 0.75882 0.0
O90 O 0.7301 0.4858 0.78463 0.0
O91 O 0.63426 0.50488 0.59965 0.0
O92 O 0.57073 0.47211 0.54468 0.0
O93 O 0.6437 0.44469 0.72606 0.0
O94 O 0.60756 0.45265 0.65376 0.0
C95 C 0.60369 0.51111 0.56467 0.0
C96 C 0.60747 0.44042 0.69867 0.0
O97 O 0.73627 0.44707 0.70959 0.0
Mg98 Mg 0.04413 0.38233 0.94346 0.0
O99 O 0.06473 0.47404 0.97044 0.0
O100 O 1.00878 0.4717 0.99896 0.0
Mg101 Mg 1.01349 0.39002 1.00755 0.0
C102 C 1.04067 0.49824 0.98468 0.0
C103 C 0.11136 0.42075 0.88472 0.0
O104 O 0.07758 0.42298 0.85142 0.0
O105 O 0.08169 0.3562 1.01772 0.0
O106 O 1.01918 0.30771 1.01784 0.0
O107 O 1.00517 0.39898 0.87225 0.0
O108 O 0.9698 0.36459 0.92853 0.0
C109 C 0.05874 0.31478 0.02999 0.0
C110 C 0.97 0.382 0.88456 0.0
O111 O 0.10784 0.40193 0.92635 0.0
Mg112 Mg 0.54722 0.34885 0.40759 0.0
O113 O 0.4956 0.27698 0.41323 0.0
O114 O 0.4422 0.21042 0.41548 0.0
Mg115 Mg 0.4657 0.27717 0.48249 0.0
C116 C 0.46678 0.235 0.38928 0.0
C117 C 0.58342 0.28965 0.3347 0.0
O118 O 0.61814 0.32125 0.36695 0.0
O119 O 0.48553 0.36142 0.36885 0.0
O120 O 0.43902 0.32155 0.4141 0.0
O121 O 0.59624 0.31729 0.45371 0.0
O122 O 0.53239 0.28943 0.46338 0.0
C123 C 0.44816 0.34613 0.37622 0.0
C124 C 0.56954 0.28344 0.47107 0.0
O125 O 0.54779 0.29478 0.33706 0.0
Mg126 Mg 0.3017 0.33198 0.53107 0.0
O127 O 0.29693 0.31223 0.6143 0.0
O128 O 0.33375 0.3953 0.63963 0.0
Mg129 Mg 0.34035 0.40667 0.5612 0.0
C130 C 0.31536 0.35113 0.6507 0.0
C131 C 0.21514 0.2397 0.52376 0.0
O132 O 0.24452 0.21727 0.53904 0.0
O133 O 0.31328 0.35554 0.44524 0.0
O134 O 0.35716 0.43005 0.49037 0.0
O135 O 0.32555 0.26535 0.52384 0.0
O136 O 0.37381 0.34235 0.55948 0.0
C137 C 0.34088 0.40087 0.44692 0.0
C138 C 0.36379 0.29162 0.54731 0.0
O139 O 0.22638 0.2858 0.50957 0.0
Mg140 Mg 0.2467 0.25494 0.93859 0.0
O141 O 0.2738 0.29148 0.87403 0.0
O142 O 0.32487 0.32288 0.94448 0.0
Mg143 Mg 0.27187 0.27294 0.97431 0.0
C144 C 0.31229 0.31688 0.89519 0.0
C145 C 0.18524 0.15721 0.84694 0.0
O146 O 0.16672 0.10729 0.82618 0.0
O147 O 0.25817 0.17818 0.91064 0.0
O148 O 0.31257 0.21721 0.9743 0.0
O149 O 0.17739 0.23602 0.92316 0.0
O150 O 0.213 0.21716 0.99478 0.0
C151 C 0.29512 0.18098 0.9355 0.0
C152 C 0.17725 0.21278 0.96341 0.0
O153 O 0.21664 0.16961 0.88702 0.0
Mg154 Mg 0.39478 0.05596 0.07897 0.0
O155 O 0.36361 0.99599 0.99782 0.0
O156 O 0.40128 0.93956 0.99972 0.0
Mg157 Mg 0.45698 0.96713 0.07539 0.0
C158 C 0.37144 0.95601 0.97617 0.0
C159 C 0.33483 0.10439 0.12305 0.0
O160 O 0.36641 0.10844 0.16325 0.0
O161 O 0.37705 1.00015 0.13893 0.0
O162 O 0.41987 0.95002 0.1413 0.0
O163 O 0.43613 0.1112 0.03723 0.0
O164 O 0.45611 0.05157 0.08022 0.0
C165 C 0.39289 0.96631 0.15963 0.0
C166 C 0.46526 0.08963 0.05332 0.0
O167 O 0.33534 0.08246 0.07847 0.0
Mg168 Mg 0.4032 0.52359 0.09266 0.0
O169 O 0.38055 0.48282 1.00386 0.0
O170 O 0.43766 0.46103 1.00461 0.0
Mg171 Mg 0.43264 0.45488 0.08808 0.0
C172 C 0.40432 0.46797 0.97866 0.0
C173 C 0.33757 0.57527 0.04062 0.0
O174 O 0.36996 0.59733 1.02167 0.0
O175 O 0.36531 0.45336 0.13319 0.0
O176 O 0.4238 0.43959 0.17048 0.0
O177 O 0.44785 0.5904 0.06505 0.0
O178 O 0.47726 0.53953 0.11134 0.0
C179 C 0.38509 0.43341 0.16869 0.0
C180 C 0.48164 0.58112 0.08818 0.0
O181 O 0.34119 0.54295 0.07261 0.0
Mg182 Mg 0.83043 0.28976 0.05171 0.0
O183 O 0.83919 0.34932 0.13455 0.0
O184 O 0.88529 0.42361 0.12914 0.0
Mg185 Mg 0.88771 0.3566 0.07568 0.0
C186 C 0.86181 0.39711 0.15511 0.0
C187 C 0.73338 0.212 0.03383 0.0
O188 O 0.74748 0.17788 1.01028 0.0
O189 O 0.81525 0.33446 0.97813 0.0
O190 O 0.87732 0.39493 1.00216 0.0
O191 O 0.83363 0.22873 0.99068 0.0
O192 O 0.89489 0.28813 0.03085 0.0
C193 C 0.84279 0.37351 0.96775 0.0
C194 C 0.87405 0.24569 0.9983 0.0
O195 O 0.75806 0.25907 0.05201 0.0
Mg196 Mg 0.17114 0.49098 0.2017 0.0
O197 O 0.21627 0.56492 0.18827 0.0
O198 O 0.21696 0.55721 0.26858 0.0
Mg199 Mg 0.22778 0.56953 0.35293 0.0
C200 C 0.23201 0.58318 0.23594 0.0
C201 C 0.11856 0.55439 0.12347 0.0
O202 O 0.14423 0.55151 0.09357 0.0
O203 O 0.23302 0.47013 0.24144 0.0
O204 O 0.26642 0.52262 0.32031 0.0
O205 O 0.12038 0.52904 0.21661 0.0
O206 O 0.17111 0.53156 0.28161 0.0
C207 C 0.26517 0.48967 0.28141 0.0
C208 C 0.13745 0.54371 0.26524 0.0
O209 O 0.11769 0.52792 0.16184 0.0
Mg210 Mg 0.90141 0.02663 0.59009 0.0
O211 O 0.87995 0.98916 0.50032 0.0
O212 O 0.93432 0.96074 0.50304 0.0
Mg213 Mg 0.93076 0.961 0.58749 0.0
C214 C 0.90254 0.97037 0.47618 0.0
C215 C 0.83407 0.07801 0.54039 0.0
O216 O 0.86539 0.09865 0.51915 0.0
O217 O 0.86324 0.95166 0.62497 0.0
O218 O 0.92349 0.95131 0.67182 0.0
O219 O 0.94418 0.09883 0.56839 0.0
O220 O 0.97675 0.04497 0.604 0.0
C221 C 0.88356 0.93765 0.66477 0.0
C222 C 0.97898 0.08917 0.58573 0.0
O223 O 0.83872 0.04638 0.57298 0.0
Mg224 Mg 0.9382 0.07616 0.13736 0.0
O225 O 0.90061 1.00758 0.17541 0.0
O226 O 0.9465 0.02868 0.25158 0.0
Mg227 Mg 0.9332 0.10265 0.27852 0.0
C228 C 0.91241 0.99845 0.22198 0.0
C229 C 1.01121 0.12385 0.1027 0.0
O230 O 1.00314 0.07209 0.09504 0.0
O231 O 0.90893 0.1365 0.17171 0.0
O232 O 0.87426 0.0793 0.2131 0.0
O233 O 1.00084 0.0818 0.19285 0.0
O234 O 0.96607 0.13001 0.21591 0.0
C235 C 0.87997 0.12293 0.19626 0.0
C236 C 1.00089 0.12062 0.22331 0.0
O237 O 0.98193 0.14272 0.10891 0.0
Mg238 Mg 0.33004 0.79175 0.55002 0.0
O239 O 0.33965 0.85 0.63428 0.0
O240 O 0.38664 0.924 0.62997 0.0
Mg241 Mg 0.38825 0.85682 0.57608 0.0
C242 C 0.36296 0.89732 0.65566 0.0
C243 C 0.23258 0.7137 0.53457 0.0
O244 O 0.24703 0.6785 0.51341 0.0
O245 O 0.31841 0.8397 0.47698 0.0
O246 O 0.38192 0.89687 0.50336 0.0
O247 O 0.33309 0.73096 0.48838 0.0
O248 O 0.39467 0.78818 0.53103 0.0
C249 C 0.34782 0.87755 0.46777 0.0
C250 C 0.37365 0.74665 0.4974 0.0
O251 O 0.25687 0.76162 0.54957 0.0
Mg252 Mg 0.43838 0.5764 0.63826 0.0
O253 O 0.4008 0.5078 0.67645 0.0
O254 O 0.44719 0.52827 0.75225 0.0
Mg255 Mg 0.43486 0.60267 0.78008 0.0
C256 C 0.41288 0.49837 0.72285 0.0
C257 C 0.51084 0.6239 0.60235 0.0
O258 O 0.50257 0.57212 0.59409 0.0
O259 O 0.40889 0.63657 0.67149 0.0
O260 O 0.37579 0.58037 0.71514 0.0
O261 O 0.50121 0.58029 0.69205 0.0
O262 O 0.46784 0.62917 0.71744 0.0
C263 C 0.38072 0.62336 0.69715 0.0
C264 C 0.50213 0.6185 0.72394 0.0
O265 O 0.48188 0.64289 0.6096 0.0
Mg266 Mg 0.66842 0.99129 0.69846 0.0
O267 O 0.71356 0.06656 0.68727 0.0
O268 O 0.71287 0.05531 0.76668 0.0
Mg269 Mg 0.72427 0.06696 0.85105 0.0
C270 C 0.72879 0.08263 0.73544 0.0
C271 C 0.61586 0.05536 0.62186 0.0
O272 O 0.6416 0.05284 0.59203 0.0
O273 O 0.73105 0.97115 0.73763 0.0
O274 O 0.76416 0.02321 0.81683 0.0
O275 O 0.61719 0.02839 0.7145 0.0
O276 O 0.6677 0.02964 0.77914 0.0
C277 C 0.76339 0.99135 0.77735 0.0
C278 C 0.63405 0.042 0.76326 0.0
O279 O 0.61474 0.02826 0.65973 0.0
Mg280 Mg 0.80264 0.83198 1.027 0.0
O281 O 0.7988 0.81359 0.11126 0.0
O282 O 0.83627 0.89628 0.13712 0.0
Mg283 Mg 0.84155 0.90765 0.05818 0.0
C284 C 0.8174 0.8522 0.1479 0.0
C285 C 0.71282 0.74611 1.02768 0.0
O286 O 0.74011 0.72822 0.05774 0.0
O287 O 0.81375 0.85624 0.9413 0.0
O288 O 0.85672 0.93122 0.98673 0.0
O289 O 0.827 0.76566 1.01963 0.0
O290 O 0.87498 0.84339 0.05412 0.0
C291 C 0.84066 0.90217 0.94317 0.0
C292 C 0.86547 0.79279 0.0413 0.0
O293 O 0.72702 0.7852 1.00372 0.0
Mg294 Mg 1.03239 0.83785 0.92423 0.0
O295 O 1.00981 0.7718 0.85581 0.0
O296 O 0.94975 0.75019 0.87895 0.0
Mg297 Mg 0.9839 0.81098 0.94896 0.0
C298 C 0.97115 0.74355 0.84657 0.0
C299 C 0.08992 0.79657 0.85505 0.0
O300 O 0.12181 0.82244 0.89457 0.0
O301 O 0.98087 0.86018 0.86812 0.0
O302 O 0.93675 0.8497 0.9188 0.0
O303 O 0.08609 0.81729 0.97324 0.0
O304 O 1.02531 0.7607 0.96772 0.0
C305 C 0.9451 0.85937 0.8756 0.0
C306 C 0.06508 0.77189 0.97929 0.0
O307 O 0.05242 0.79783 0.855 0.0
Mg308 Mg 0.89394 0.55653 0.57993 0.0
O309 O 0.86099 0.49703 0.49803 0.0
O310 O 0.90158 0.44487 0.49541 0.0
Mg311 Mg 0.95501 0.46767 0.5737 0.0
C312 C 0.87035 0.45989 0.47359 0.0
C313 C 0.83447 0.60489 0.62395 0.0
O314 O 0.86614 0.6091 0.66408 0.0
O315 O 0.87688 0.50248 0.64177 0.0
O316 O 0.91846 0.45118 0.64069 0.0
O317 O 0.93516 0.61115 0.53739 0.0
O318 O 0.9558 0.55258 0.5813 0.0
C319 C 0.8929 0.46835 0.66137 0.0
C320 C 0.96461 0.59026 0.55395 0.0
O321 O 0.83488 0.583 0.57937 0.0
Mg322 Mg 0.746 0.7556 0.43719 0.0
O323 O 0.77288 0.79221 0.37255 0.0
O324 O 0.82406 0.82308 0.44295 0.0
Mg325 Mg 0.77114 0.77326 0.47305 0.0
C326 C 0.81143 0.81728 0.39367 0.0
C327 C 0.68553 0.65991 0.34299 0.0
O328 O 0.66745 0.61037 0.32071 0.0
O329 O 0.75718 0.67879 0.40925 0.0
O330 O 0.81154 0.71738 0.47322 0.0
O331 O 0.67673 0.73592 0.42252 0.0
O332 O 0.71266 0.71728 0.49384 0.0
C333 C 0.79398 0.68125 0.43436 0.0
C334 C 0.6768 0.71259 0.46265 0.0
O335 O 0.71615 0.6714 0.38387 0.0
Pr336 Pr 0.05734 0.14115 0.98721 0.0
Pr337 Pr 0.13408 0.19992 0.09178 0.0
C338 C 0.97724 0.12349 0.93481 0.0
C339 C 0.94739 0.15195 0.94716 0.0
C340 C 0.94066 0.19381 0.92073 0.0
C341 C 0.91599 0.22392 0.93625 0.0
C342 C 0.89734 0.21242 0.97821 0.0
C343 C 0.90393 0.17085 1.0045 0.0
C344 C 0.92838 0.14084 0.98907 0.0
C345 C 0.13715 0.18317 0.9727 0.0
C346 C 0.07476 0.26927 0.04106 0.0
C347 C 0.21541 0.21938 0.14164 0.0
C348 C 0.24335 0.18556 0.13945 0.0
C349 C 0.27843 0.19128 0.18088 0.0
C350 C 0.30715 0.16322 0.1762 0.0
C351 C 0.30167 0.12927 0.12966 0.0
C352 C 0.26535 0.12159 0.08922 0.0
C353 C 0.23644 0.14919 0.09419 0.0
C354 C 0.0533 0.15639 0.10203 0.0
C355 C 0.10451 0.06392 0.05106 0.0
O356 O 0.98803 0.09301 0.96816 0.0
O357 O 1.00923 0.15058 0.91764 0.0
O358 O 0.12144 0.2026 1.00517 0.0
O359 O 0.10856 0.14416 0.93912 0.0
O360 O 0.11329 0.27498 0.07044 0.0
O361 O 0.04869 0.2226 1.01662 0.0
O362 O 0.20372 0.23718 0.09812 0.0
O363 O 0.18467 0.20406 0.16537 0.0
O364 O 0.07174 0.13914 0.07227 0.0
O365 O 0.07925 0.19729 0.13626 0.0
O366 O 0.07235 0.06491 1.01282 0.0
O367 O 0.13162 0.10803 0.08103 0.0
H368 H 0.9552 0.20402 0.88879 0.0
H369 H 0.91191 0.25646 0.91593 0.0
H370 H 0.89079 0.16221 0.03785 0.0
H371 H 0.93295 0.10943 1.01081 0.0
H372 H 0.28433 0.21852 0.21633 0.0
H373 H 0.33449 0.16965 0.2085 0.0
H374 H 0.2597 0.09515 0.05329 0.0
H375 H 0.20928 0.14326 0.06181 0.0
Pr376 Pr 0.37711 0.96629 0.33062 0.0
Pr377 Pr 0.34948 0.88111 0.29162 0.0
C378 C 0.42658 0.0643 0.35969 0.0
C379 C 0.43864 0.10618 0.32964 0.0
C380 C 0.40946 0.13122 0.30697 0.0
C381 C 0.42419 0.18569 0.30755 0.0
C382 C 0.46551 0.21211 0.33723 0.0
C383 C 0.49581 0.18545 0.33951 0.0
C384 C 0.48202 0.13111 0.33741 0.0
C385 C 0.29103 0.95217 0.28986 0.0
C386 C 0.38379 0.95119 0.21013 0.0
C387 C 0.30287 0.79314 0.22908 0.0
C388 C 0.28751 0.74041 0.23997 0.0
C389 C 0.3143 0.70856 0.24808 0.0
C390 C 0.29723 0.65613 0.253 0.0
C391 C 0.25423 0.63739 0.25115 0.0
C392 C 0.22905 0.67054 0.25026 0.0
C393 C 0.24545 0.72201 0.24348 0.0
C394 C 0.42564 0.88098 0.35595 0.0
C395 C 0.34664 0.89557 0.41505 0.0
O396 O 0.4417 0.02535 0.35218 0.0
O397 O 0.38761 0.05038 0.36453 0.0
O398 O 0.31632 0.94202 0.26527 0.0
O399 O 0.30863 0.96475 0.33971 0.0
O400 O 0.38292 0.90503 0.22366 0.0
O401 O 0.37746 0.98477 0.2442 0.0
O402 O 0.28637 0.82649 0.24895 0.0
O403 O 0.34369 0.81155 0.23415 0.0
O404 O 0.42139 0.91449 0.32571 0.0
O405 O 0.38959 0.8471 0.35572 0.0
O406 O 0.37574 0.93853 0.41191 0.0
O407 O 0.32466 0.8652 0.3701 0.0
H408 H 0.37558 0.11138 0.29732 0.0
H409 H 0.40108 0.20687 0.30029 0.0
H410 H 0.52838 0.20481 0.36051 0.0
H411 H 0.50494 0.11136 0.35245 0.0
H412 H 0.34742 0.72298 0.24757 0.0
H413 H 0.31643 0.62971 0.25421 0.0
H414 H 0.19556 0.65521 0.24898 0.0
H415 H 0.22467 0.7465 0.2385 0.0
Pr416 Pr 0.6264 0.17425 0.53972 0.0
Pr417 Pr 0.54425 0.15546 0.56918 0.0
C418 C 0.69994 0.1709 0.51951 0.0
C419 C 0.72847 0.13879 0.51717 0.0
C420 C 0.7591 0.1535 0.48869 0.0
C421 C 0.79243 0.13183 0.49459 0.0
C422 C 0.79552 0.09476 0.52893 0.0
C423 C 0.76295 0.07704 0.55441 0.0
C424 C 0.72995 0.09938 0.5489 0.0
C425 C 0.58461 0.2436 0.49839 0.0
C426 C 0.54897 0.05744 0.49473 0.0
C427 C 0.47204 0.16249 0.59059 0.0
C428 C 0.4475 0.1998 0.58961 0.0
C429 C 0.40421 0.17907 0.58603 0.0
C430 C 0.37764 0.20985 0.57361 0.0
C431 C 0.39391 0.26234 0.56504 0.0
C432 C 0.43801 0.28497 0.57367 0.0
C433 C 0.46476 0.25344 0.58505 0.0
C434 C 0.59158 0.09346 0.61554 0.0
C435 C 0.61851 0.27217 0.61602 0.0
O436 O 0.696 0.18584 0.5661 0.0
O437 O 0.66487 0.15957 0.48253 0.0
O438 O 0.56468 0.195 0.49925 0.0
O439 O 0.62505 0.25224 0.51072 0.0
O440 O 0.52183 0.07979 0.50741 0.0
O441 O 0.58952 0.08444 0.50306 0.0
O442 O 0.47416 0.14266 0.54472 0.0
O443 O 0.50758 0.17396 0.62658 0.0
O444 O 0.60671 0.14152 0.6102 0.0
O445 O 0.55061 0.07868 0.60381 0.0
O446 O 0.64665 0.25499 0.59812 0.0
O447 O 0.57992 0.24079 0.61121 0.0
H448 H 0.75868 0.18408 0.4642 0.0
H449 H 0.81674 0.14597 0.47391 0.0
H450 H 0.76411 0.04814 0.5807 0.0
H451 H 0.70736 0.08839 0.57206 0.0
H452 H 0.39054 0.13803 0.5902 0.0
H453 H 0.34399 0.19198 0.56955 0.0
H454 H 0.45144 0.32571 0.56846 0.0
H455 H 0.49831 0.27004 0.58758 0.0
Pr456 Pr 0.32226 0.42488 0.80298 0.0
Pr457 Pr 0.40204 0.38965 0.81605 0.0
C458 C 0.25406 0.45577 0.80279 0.0
C459 C 0.2243 0.45797 0.83398 0.0
C460 C 0.19384 0.48246 0.81623 0.0
C461 C 0.15791 0.4727 0.83543 0.0
C462 C 0.15248 0.43853 0.87262 0.0
C463 C 0.18525 0.41856 0.89454 0.0
C464 C 0.2212 0.42808 0.87493 0.0
C465 C 0.38083 0.47423 0.74978 0.0
C466 C 0.39171 0.45365 0.92082 0.0
C467 C 0.47522 0.37655 0.80388 0.0
C468 C 0.50277 0.38314 0.76722 0.0
C469 C 0.53763 0.36429 0.77786 0.0
C470 C 0.57037 0.38062 0.75291 0.0
C471 C 0.56873 0.41584 0.71637 0.0
C472 C 0.53175 0.4306 0.70172 0.0
C473 C 0.49903 0.41477 0.72749 0.0
C474 C 0.34264 0.33377 0.86411 0.0
C475 C 0.32411 0.34682 0.70598 0.0
O476 O 0.25196 0.40791 0.78354 0.0
O477 O 0.2926 0.48844 0.81986 0.0
O478 O 0.38953 0.46559 0.79608 0.0
O479 O 0.34051 0.46269 0.73086 0.0
O480 O 0.41962 0.44276 0.89732 0.0
O481 O 0.35198 0.44603 0.89493 0.0
O482 O 0.47246 0.42047 0.82681 0.0
O483 O 0.43951 0.33743 0.79155 0.0
O484 O 0.3338 0.34705 0.81974 0.0
O485 O 0.38309 0.34273 0.88212 0.0
O486 O 0.29759 0.35717 0.73188 0.0
O487 O 0.36507 0.36024 0.72829 0.0
H488 H 0.19629 0.50586 0.7848 0.0
H489 H 0.1334 0.48961 0.81913 0.0
H490 H 0.1818 0.39267 0.92387 0.0
H491 H 0.24492 0.40911 0.88887 0.0
H492 H 0.54092 0.33966 0.80808 0.0
H493 H 0.59799 0.36752 0.76405 0.0
H494 H 0.52945 0.45719 0.67319 0.0
H495 H 0.47213 0.42959 0.71857 0.0
Pr496 Pr 0.08654 0.14841 0.51699 0.0
Pr497 Pr 0.10358 0.20127 0.59662 0.0
C498 C 0.04745 0.09146 0.42445 0.0
C499 C 0.04314 0.10876 0.37426 0.0
C500 C 0.06174 0.08907 0.33808 0.0
C501 C 0.05536 0.10248 0.28848 0.0
C502 C 1.02872 0.13347 0.2751 0.0
C503 C 1.0178 0.16176 0.31402 0.0
C504 C 1.02382 0.1481 0.36349 0.0
C505 C 0.17058 0.20924 0.52425 0.0
C506 C 0.0655 0.26468 0.51299 0.0
C507 C 0.1412 0.26607 0.68794 0.0
C508 C 0.15821 0.25763 0.74063 0.0
C509 C 0.13043 0.24114 0.77277 0.0
C510 C 0.13994 0.21003 0.81018 0.0
C511 C 0.17809 0.1981 0.81706 0.0
C512 C 0.20832 0.22119 0.79045 0.0
C513 C 0.19886 0.25205 0.75306 0.0
C514 C 1.02065 0.12878 0.58514 0.0
C515 C 0.12468 0.08477 0.59973 0.0
O516 O 1.02664 0.10787 0.45525 0.0
O517 O 0.08634 0.09514 0.44722 0.0
O518 O 0.14186 0.22799 0.53347 0.0
O519 O 0.15757 0.15798 0.51805 0.0
O520 O 0.07885 0.26792 0.56306 0.0
O521 O 0.06428 0.22113 0.48395 0.0
O522 O 0.16154 0.25625 0.65351 0.0
O523 O 0.10017 0.2465 0.67033 0.0
O524 O 0.05361 0.11754 0.58184 0.0
O525 O 1.02832 0.17968 0.58753 0.0
O526 O 0.1035 0.07889 0.55165 0.0
O527 O 0.13225 0.13127 0.6289 0.0
H528 H 0.07908 0.06115 0.34724 0.0
H529 H 0.06604 0.08261 0.25915 0.0
H530 H 0.99884 0.1879 0.30455 0.0
H531 H 1.01119 0.16603 0.39195 0.0
H532 H 0.09947 0.24685 0.76498 0.0
H533 H 0.11667 0.19284 0.83138 0.0
H534 H 0.23795 0.21203 0.79574 0.0
H535 H 0.22136 0.26585 0.7298 0.0
Pr536 Pr 0.33816 0.87729 0.81839 0.0
Pr537 Pr 0.37112 0.98097 0.80372 0.0
C538 C 0.31721 0.772 0.79466 0.0
C539 C 0.33815 0.73678 0.77469 0.0
C540 C 0.32512 0.68387 0.78142 0.0
C541 C 0.33976 0.64761 0.75657 0.0
C542 C 0.36787 0.66382 0.72462 0.0
C543 C 0.38361 0.71786 0.72108 0.0
C544 C 0.36876 0.75439 0.74619 0.0
C545 C 0.35026 0.93202 0.91971 0.0
C546 C 0.44262 0.92471 0.85238 0.0
C547 C 0.38541 0.08581 0.81787 0.0
C548 C 0.36216 0.11117 0.84674 0.0
C549 C 0.37338 0.16628 0.85849 0.0
C550 C 0.35247 0.18888 0.88965 0.0
C551 C 0.3202 0.15648 0.90906 0.0
C552 C 0.30804 0.10149 0.89568 0.0
C553 C 0.32945 0.07891 0.86553 0.0
C554 C 0.36872 0.91861 0.71233 0.0
C555 C 0.26413 0.927 0.77217 0.0
O556 O 0.30448 0.80166 0.76217 0.0
O557 O 0.33454 0.79676 0.84222 0.0
O558 O 0.36043 0.95411 0.88148 0.0
O559 O 0.33036 0.88182 0.90488 0.0
O560 O 0.4377 0.9701 0.84081 0.0
O561 O 0.40974 0.88196 0.84194 0.0
O562 O 0.40938 0.06315 0.84657 0.0
O563 O 0.36279 0.05564 0.77406 0.0
O564 O 0.34007 0.90885 0.73779 0.0
O565 O 0.40039 0.96019 0.73579 0.0
O566 O 0.27098 0.88773 0.79585 0.0
O567 O 0.29669 0.96724 0.76939 0.0
H568 H 0.30231 0.67017 0.80428 0.0
H569 H 0.32795 0.60643 0.76139 0.0
H570 H 0.40647 0.7316 0.6983 0.0
H571 H 0.37995 0.79583 0.74192 0.0
H572 H 0.39828 0.19158 0.84395 0.0
H573 H 0.36079 0.23166 0.89761 0.0
H574 H 0.28221 0.07614 0.9087 0.0
H575 H 0.32063 0.03614 0.85711 0.0
Pr576 Pr 0.61407 0.14461 0.09717 0.0
Pr577 Pr 0.58502 0.17239 0.99603 0.0
C578 C 0.62858 0.15154 0.20105 0.0
C579 C 0.60939 0.17712 0.23562 0.0
C580 C 0.6236 0.18129 0.28965 0.0
C581 C 0.61204 0.21525 0.32242 0.0
C582 C 0.58619 0.24499 0.30118 0.0
C583 C 0.56767 0.23575 0.24749 0.0
C584 C 0.5797 0.20227 0.21459 0.0
C585 C 0.59992 0.0499 0.03033 0.0
C586 C 0.50926 0.11355 0.04903 0.0
C587 C 0.56845 0.16451 0.89188 0.0
C588 C 0.58701 0.13659 0.85826 0.0
C589 C 0.5766 0.13466 0.80407 0.0
C590 C 0.59306 0.10499 0.77294 0.0
C591 C 0.62002 0.07717 0.79595 0.0
C592 C 0.63214 0.08164 0.85038 0.0
C593 C 0.61543 0.11076 0.88128 0.0
C594 C 0.59863 0.26735 0.06317 0.0
C595 C 0.68933 0.19482 0.03986 0.0
O596 O 0.65338 0.18388 0.17812 0.0
O597 O 0.60266 0.10961 0.16945 0.0
O598 O 0.5928 0.09155 1.01512 0.0
O599 O 0.61897 0.05911 0.07955 0.0
O600 O 0.51676 0.1346 1.00757 0.0
O601 O 0.54048 0.1159 0.08901 0.0
O602 O 0.54318 0.13405 0.91572 0.0
O603 O 0.59556 0.20624 0.92285 0.0
O604 O 0.6059 0.22609 0.07938 0.0
O605 O 0.58105 0.25776 1.01356 0.0
O606 O 0.68202 0.18044 0.0841 0.0
O607 O 0.65787 0.19069 0.99948 0.0
H608 H 0.64564 0.16103 0.30627 0.0
H609 H 0.62521 0.2206 0.3642 0.0
H610 H 0.54692 0.2576 0.23076 0.0
H611 H 0.56799 0.19871 0.1727 0.0
H612 H 0.55521 0.15507 0.78589 0.0
H613 H 0.58413 0.1031 0.73093 0.0
H614 H 0.653 0.06083 0.86901 0.0
H615 H 0.62382 0.11187 0.92318 0.0
Pr616 Pr 0.32049 0.35081 0.27842 0.0
Pr617 Pr 0.39814 0.46993 0.32757 0.0
C618 C 0.24227 0.29266 0.27901 0.0
C619 C 0.20834 0.31236 0.29337 0.0
C620 C 0.17452 0.316 0.25428 0.0
C621 C 0.14364 0.33678 0.26714 0.0
C622 C 0.14602 0.35515 0.3194 0.0
C623 C 0.18024 0.35263 0.35848 0.0
C624 C 0.21087 0.33131 0.3457 0.0
C625 C 0.36316 0.4019 0.2053 0.0
C626 C 0.30035 0.46869 0.28625 0.0
C627 C 0.47493 0.53582 0.33191 0.0
C628 C 0.50709 0.52388 0.30625 0.0
C629 C 0.54085 0.50841 0.33439 0.0
C630 C 0.56589 0.48699 0.30817 0.0
C631 C 0.55725 0.48005 0.25329 0.0
C632 C 0.52496 0.49807 0.22583 0.0
C633 C 0.50063 0.52009 0.25182 0.0
C634 C 0.35847 0.42389 0.40367 0.0
C635 C 0.41445 0.3572 0.33907 0.0
O636 O 0.27527 0.29623 0.31682 0.0
O637 O 0.25265 0.30502 0.23568 0.0
O638 O 0.36114 0.42018 0.24981 0.0
O639 O 0.33866 0.35221 0.19442 0.0
O640 O 0.34005 0.50057 0.30391 0.0
O641 O 0.28884 0.41676 0.27703 0.0
O642 O 0.44036 0.53997 0.30113 0.0
O643 O 0.46708 0.50911 0.36999 0.0
O644 O 0.35121 0.40582 0.35589 0.0
O645 O 0.38788 0.47004 0.41302 0.0
O646 O 0.37486 0.32586 0.32892 0.0
O647 O 0.42477 0.39947 0.3164 0.0
H648 H 0.17189 0.3027 0.2136 0.0
H649 H 0.11766 0.33814 0.23605 0.0
H650 H 0.18269 0.36567 0.39918 0.0
H651 H 0.23651 0.32968 0.37702 0.0
H652 H 0.54693 0.5111 0.3765 0.0
H653 H 0.59114 0.47469 0.33066 0.0
H654 H 0.51796 0.49459 0.18367 0.0
H655 H 0.47551 0.53213 0.22871 0.0
Pr656 Pr 0.58399 0.6525 1.01294 0.0
Pr657 Pr 0.60371 0.69737 0.10341 0.0
C658 C 0.55263 0.58571 0.9247 0.0
C659 C 0.54553 0.60132 0.87387 0.0
C660 C 0.56279 0.58167 0.83628 0.0
C661 C 0.55563 0.59615 0.78712 0.0
C662 C 0.52982 0.62857 0.77566 0.0
C663 C 0.51983 0.65618 0.8159 0.0
C664 C 0.52648 0.64127 0.8648 0.0
C665 C 0.6668 0.72167 1.02614 0.0
C666 C 0.56695 0.76513 1.01269 0.0
C667 C 0.63471 0.76986 0.19011 0.0
C668 C 0.65563 0.76455 0.24258 0.0
C669 C 0.63012 0.74822 0.27726 0.0
C670 C 0.64034 0.71495 0.31199 0.0
C671 C 0.67777 0.70188 0.31497 0.0
C672 C 0.7065 0.72535 0.28658 0.0
C673 C 0.69585 0.75748 0.25096 0.0
C674 C 0.52471 0.61912 0.09113 0.0
C675 C 0.62266 0.58501 0.10046 0.0
O676 O 0.52829 0.59598 0.95364 0.0
O677 O 0.59254 0.59896 0.94888 0.0
O678 O 0.65429 0.69119 0.05798 0.0
O679 O 0.63549 0.7199 0.98754 0.0
O680 O 0.57998 0.76427 0.06278 0.0
O681 O 0.56427 0.72379 0.98015 0.0
O682 O 0.65553 0.76723 0.15428 0.0
O683 O 0.59499 0.74102 0.17438 0.0
O684 O 0.53343 0.65236 0.05999 0.0
O685 O 0.55762 0.62483 0.12901 0.0
O686 O 0.60016 0.58255 0.05308 0.0
O687 O 0.63308 0.62982 0.13275 0.0
H688 H 0.58011 0.55354 0.84428 0.0
H689 H 0.56557 0.5767 0.75674 0.0
H690 H 0.50153 0.68333 0.80802 0.0
H691 H 0.51498 0.65925 0.89448 0.0
H692 H 0.59946 0.75458 0.27231 0.0
H693 H 0.61801 0.69712 0.33412 0.0
H694 H 0.73565 0.71548 0.28898 0.0
H695 H 0.71672 0.77084 0.22567 0.0
Pr696 Pr 0.83772 0.37707 0.3176 0.0
Pr697 Pr 0.87131 0.47923 0.30493 0.0
C698 C 0.81919 0.27155 0.29877 0.0
C699 C 0.84033 0.23644 0.27888 0.0
C700 C 0.82646 0.18313 0.28399 0.0
C701 C 0.83999 0.14684 0.25733 0.0
C702 C 0.86783 0.16333 0.22506 0.0
C703 C 0.88412 0.21756 0.22269 0.0
C704 C 0.87033 0.25411 0.24955 0.0
C705 C 0.85162 0.44166 0.41524 0.0
C706 C 0.94327 0.4236 0.34922 0.0
C707 C 0.88641 0.58433 0.32251 0.0
C708 C 0.86175 0.61 0.3484 0.0
C709 C 0.87283 0.66516 0.35905 0.0
C710 C 0.85147 0.68829 0.38904 0.0
C711 C 0.8189 0.65631 0.40828 0.0
C712 C 0.8066 0.60127 0.39549 0.0
C713 C 0.82846 0.57819 0.36654 0.0
C714 C 0.86736 0.41905 0.21147 0.0
C715 C 0.76369 0.42658 0.2731 0.0
O716 O 0.80519 0.2992 0.26503 0.0
O717 O 0.83681 0.29844 0.34551 0.0
O718 O 0.87564 0.44689 0.38401 0.0
O719 O 0.81777 0.40108 0.39544 0.0
O720 O 0.93865 0.46811 0.33452 0.0
O721 O 0.90979 0.38189 0.3432 0.0
O722 O 0.90732 0.55965 0.35284 0.0
O723 O 0.86631 0.55598 0.27699 0.0
O724 O 0.83886 0.40879 0.23715 0.0
O725 O 0.89922 0.46044 0.23509 0.0
O726 O 0.77013 0.38553 0.29342 0.0
O727 O 0.79663 0.46794 0.27404 0.0
H728 H 0.80363 0.16918 0.30677 0.0
H729 H 0.82757 0.10544 0.26105 0.0
H730 H 0.90656 0.23147 0.1994 0.0
H731 H 0.88167 0.29566 0.24576 0.0
H732 H 0.8982 0.69009 0.34494 0.0
H733 H 0.85986 0.73111 0.39652 0.0
H734 H 0.78054 0.57629 0.4084 0.0
H735 H 0.8199 0.5354 0.35916 0.0
Pr736 Pr 0.1138 0.64773 0.60174 0.0
Pr737 Pr 0.08379 0.6728 0.49496 0.0
C738 C 0.13015 0.66227 0.7065 0.0
C739 C 0.11475 0.69117 0.74373 0.0
C740 C 0.13003 0.69249 0.79724 0.0
C741 C 0.12086 0.72597 0.83333 0.0
C742 C 0.09595 0.75825 0.81634 0.0
C743 C 0.07742 0.75346 0.76279 0.0
C744 C 0.08717 0.72043 0.7265 0.0
C745 C 0.09904 0.55177 0.53417 0.0
C746 C 1.00869 0.61493 0.5502 0.0
C747 C 0.06715 0.66229 0.39078 0.0
C748 C 0.08702 0.63551 0.35808 0.0
C749 C 0.07738 0.63374 0.30392 0.0
C750 C 0.09517 0.60526 0.27357 0.0
C751 C 0.12275 0.57855 0.29733 0.0
C752 C 0.13418 0.58303 0.35179 0.0
C753 C 0.11609 0.61091 0.38195 0.0
C754 C 0.09779 0.76813 0.56275 0.0
C755 C 0.18841 0.69677 0.54091 0.0
O756 O 0.1543 0.69163 0.68075 0.0
O757 O 0.10235 0.61994 0.67729 0.0
O758 O 0.09359 0.59472 0.52018 0.0
O759 O 0.11612 0.56004 0.58414 0.0
O760 O 1.01608 0.63424 0.5078 0.0
O761 O 1.03977 0.61919 0.59129 0.0
O762 O 0.04281 0.63122 0.41522 0.0
O763 O 0.09298 0.70543 0.42086 0.0
O764 O 0.10389 0.72593 0.57762 0.0
O765 O 0.081 0.75937 0.51287 0.0
O766 O 0.18124 0.68332 0.58573 0.0
O767 O 0.15693 0.69123 0.49998 0.0
H768 H 0.1504 0.66915 0.8111 0.0
H769 H 0.13388 0.72734 0.87462 0.0
H770 H 0.05706 0.77687 0.74904 0.0
H771 H 0.07446 0.71911 0.68512 0.0
H772 H 0.05553 0.65327 0.28516 0.0
H773 H 0.08669 0.60326 0.23152 0.0
H774 H 0.15548 0.563 0.37095 0.0
H775 H 0.12389 0.61198 0.42387 0.0
Pr776 Pr 0.82079 0.92411 0.30049 0.0
Pr777 Pr 0.90139 0.8898 0.31482 0.0
C778 C 0.75179 0.95337 0.30034 0.0
C779 C 0.72221 0.95665 0.3317 0.0
C780 C 0.69217 0.9818 0.31385 0.0
C781 C 0.65631 0.97316 0.33324 0.0
C782 C 0.65064 0.93978 0.37098 0.0
C783 C 0.68307 0.91926 0.39306 0.0
C784 C 0.71884 0.9274 0.3731 0.0
C785 C 0.88 0.97433 0.24849 0.0
C786 C 0.89027 0.95496 0.4185 0.0
C787 C 0.97482 0.87687 0.30358 0.0
C788 C 1.00253 0.88311 0.26713 0.0
C789 C 1.03716 0.86385 0.27802 0.0
C790 C 0.07004 0.87975 0.25324 0.0
C791 C 0.06878 0.91492 0.21662 0.0
C792 C 1.03204 0.93011 0.2017 0.0
C793 C 0.99916 0.9147 0.2273 0.0
C794 C 0.84184 0.83393 0.3626 0.0
C795 C 0.82494 0.84774 0.20319 0.0
O796 O 0.7503 0.90523 0.28283 0.0
O797 O 0.79006 0.98704 0.3157 0.0
O798 O 0.88831 0.9654 0.29473 0.0
O799 O 0.83971 0.96267 0.22901 0.0
O800 O 0.91833 0.94338 0.39571 0.0
O801 O 0.8506 0.947 0.39226 0.0
O802 O 0.97183 0.92091 0.32596 0.0
O803 O 0.93921 0.83759 0.29137 0.0
O804 O 0.8331 0.84686 0.31804 0.0
O805 O 0.88228 0.84308 0.38088 0.0
O806 O 0.7977 0.85794 0.22799 0.0
O807 O 0.86563 0.86078 0.22667 0.0
H808 H 0.69486 1.00483 0.28219 0.0
H809 H 0.63204 0.99039 0.31683 0.0
H810 H 0.67939 0.89385 0.42276 0.0
H811 H 0.74217 0.90794 0.38721 0.0
H812 H 1.04016 0.83924 0.30832 0.0
H813 H 0.09751 0.8664 0.26462 0.0
H814 H 1.03006 0.95672 0.17315 0.0
H815 H 0.97243 0.92982 0.21818 0.0
Pr816 Pr 0.87267 0.45831 0.83456 0.0
Pr817 Pr 0.85244 0.38474 0.79169 0.0
C818 C 0.93022 0.55109 0.86651 0.0
C819 C 0.9369 0.59539 0.83814 0.0
C820 C 0.9037 0.61586 0.81896 0.0
C821 C 0.91336 0.66539 0.80327 0.0
C822 C 0.95617 0.69419 0.81043 0.0
C823 C 0.98596 0.66666 0.81269 0.0
C824 C 0.977 0.61797 0.82993 0.0
C825 C 0.79051 0.45473 0.78651 0.0
C826 C 0.88416 0.45099 0.71149 0.0
C827 C 0.80213 0.29256 0.74015 0.0
C828 C 0.78743 0.24096 0.75345 0.0
C829 C 0.81349 0.20806 0.75895 0.0
C830 C 0.7951 0.15459 0.75824 0.0
C831 C 0.75164 0.13612 0.75356 0.0
C832 C 0.72727 0.16984 0.75641 0.0
C833 C 0.74509 0.22257 0.75554 0.0
C834 C 0.93104 0.38586 0.85051 0.0
C835 C 0.83878 0.39083 0.91488 0.0
O836 O 0.93945 0.51066 0.84627 0.0
O837 O 0.89505 0.53891 0.88219 0.0
O838 O 0.81655 0.44343 0.76357 0.0
O839 O 0.80559 0.46565 0.83685 0.0
O840 O 0.88143 0.40353 0.72076 0.0
O841 O 0.87873 0.48227 0.74896 0.0
O842 O 0.78784 0.32778 0.76095 0.0
O843 O 0.84206 0.30942 0.74003 0.0
O844 O 0.90135 0.39391 0.86749 0.0
O845 O 0.92387 0.38559 0.80044 0.0
O846 O 0.85539 0.4407 0.91267 0.0
O847 O 0.83312 0.35768 0.87171 0.0
H848 H 0.87146 0.59654 0.82099 0.0
H849 H 0.88924 0.68517 0.79779 0.0
H850 H 1.01867 0.68697 0.81411 0.0
H851 H 1.00217 0.6005 0.84116 0.0
H852 H 0.8468 0.22247 0.75931 0.0
H853 H 0.81369 0.12763 0.75707 0.0
H854 H 0.69349 0.15463 0.75337 0.0
H855 H 0.72493 0.24786 0.75223 0.0
Pr856 Pr 0.81939 0.85389 0.7744 0.0
Pr857 Pr 0.89714 0.97459 0.82465 0.0
C858 C 0.74219 0.79449 0.7772 0.0
C859 C 0.70795 0.81329 0.79176 0.0
C860 C 0.67414 0.81703 0.75272 0.0
C861 C 0.64295 0.83707 0.76569 0.0
C862 C 0.64496 0.85455 0.81803 0.0
C863 C 0.67912 0.85186 0.85713 0.0
C864 C 0.71009 0.83127 0.84423 0.0
C865 C 0.8612 0.90592 0.70084 0.0
C866 C 0.79902 0.97143 0.78177 0.0
C867 C 0.97546 0.03806 0.83219 0.0
C868 C 1.00784 0.02603 0.80699 0.0
C869 C 0.04102 1.00966 0.83528 0.0
C870 C 0.06602 0.98794 0.80927 0.0
C871 C 0.05783 0.98145 0.75441 0.0
C872 C 1.02626 1.00059 0.72686 0.0
C873 C 1.00215 0.02315 0.75273 0.0
C874 C 0.85776 0.92621 0.90008 0.0
C875 C 0.91244 0.86255 0.83229 0.0
O876 O 0.77577 0.79953 0.81473 0.0
O877 O 0.7517 0.80628 0.73325 0.0
O878 O 0.86381 0.92144 0.74798 0.0
O879 O 0.83478 0.85729 0.68887 0.0
O880 O 0.83857 1.00394 0.7993 0.0
O881 O 0.78783 0.91956 0.77305 0.0
O882 O 0.94186 0.0446 0.80132 0.0
O883 O 0.96603 1.00967 0.86865 0.0
O884 O 0.85033 0.90918 0.85201 0.0
O885 O 0.88709 0.97243 0.91002 0.0
O886 O 0.87371 0.8296 0.82368 0.0
O887 O 0.92065 0.90289 0.80684 0.0
H888 H 0.67176 0.80439 0.71197 0.0
H889 H 0.61703 0.83857 0.73461 0.0
H890 H 0.68128 0.86423 0.89789 0.0
H891 H 0.73567 0.82946 0.87552 0.0
H892 H 0.04663 1.01189 0.87733 0.0
H893 H 0.09083 0.97496 0.83186 0.0
H894 H 1.01969 0.99775 0.68473 0.0
H895 H 0.9778 0.03646 0.72966 0.0
Pr896 Pr 0.55687 0.64179 0.48673 0.0
Pr897 Pr 0.63369 0.69968 0.59127 0.0
C898 C 0.47674 0.62404 0.43447 0.0
C899 C 0.44692 0.65256 0.44677 0.0
C900 C 0.4399 0.69402 0.4199 0.0
C901 C 0.4151 0.72406 0.43515 0.0
C902 C 0.39669 0.71301 0.47736 0.0
C903 C 0.40368 0.67195 0.50422 0.0
C904 C 0.42817 0.64189 0.48898 0.0
C905 C 0.6368 0.68305 0.47225 0.0
C906 C 0.5749 0.76993 0.54133 0.0
C907 C 0.71485 0.71924 0.64171 0.0
C908 C 0.74286 0.68558 0.63978 0.0
C909 C 0.77789 0.69153 0.68134 0.0
C910 C 0.80668 0.66358 0.67687 0.0
C911 C 0.80126 0.62954 0.63047 0.0
C912 C 0.76498 0.62161 0.58993 0.0
C913 C 0.73603 0.64913 0.59464 0.0
C914 C 0.55289 0.65641 0.60157 0.0
C915 C 0.60362 0.56385 0.54978 0.0
O916 O 0.48758 0.59373 0.46797 0.0
O917 O 0.50868 0.65101 0.41713 0.0
O918 O 0.62125 0.70275 0.50473 0.0
O919 O 0.60801 0.64427 0.43862 0.0
O920 O 0.6133 0.77509 0.57067 0.0
O921 O 0.54867 0.7236 0.5162 0.0
O922 O 0.70337 0.73705 0.59813 0.0
O923 O 0.68394 0.7037 0.66512 0.0
O924 O 0.57122 0.63918 0.57166 0.0
O925 O 0.57895 0.69715 0.63588 0.0
O926 O 0.57145 0.56519 0.51178 0.0
O927 O 0.63099 0.60775 0.57982 0.0
H928 H 0.45429 0.70393 0.38777 0.0
H929 H 0.41078 0.75627 0.41445 0.0
H930 H 0.39079 0.66372 0.53782 0.0
H931 H 0.433 0.61083 0.51109 0.0
H932 H 0.7837 0.71888 0.71668 0.0
H933 H 0.83403 0.6702 0.70919 0.0
H934 H 0.75943 0.59508 0.55407 0.0
H935 H 0.70893 0.64313 0.56215 0.0
Pr936 Pr 0.13256 0.67256 0.04137 0.0
Pr937 Pr 0.04641 0.65305 0.06926 0.0
C938 C 0.20574 0.66964 1.0211 0.0
C939 C 0.23327 0.63686 1.01769 0.0
C940 C 0.26388 0.65169 0.98928 0.0
C941 C 0.29669 0.62935 0.9946 0.0
C942 C 0.29912 0.59169 1.02833 0.0
C943 C 0.26614 0.57338 0.05308 0.0
C944 C 0.23352 0.59619 0.04798 0.0
C945 C 0.08679 0.73349 0.99435 0.0
C946 C 0.0539 0.55651 0.99528 0.0
C947 C 0.97289 0.66231 0.08387 0.0
C948 C 0.94979 0.70139 0.08098 0.0
C949 C 0.90962 0.6868 0.09089 0.0
C950 C 0.88309 0.71782 0.07907 0.0
C951 C 0.89643 0.76444 0.05769 0.0
C952 C 0.93799 0.78143 0.05128 0.0
C953 C 0.96454 0.74964 0.06246 0.0
C954 C 0.09428 0.5925 0.11698 0.0
C955 C 0.12054 0.77165 0.11283 0.0
O956 O 0.20203 0.68394 0.06807 0.0
O957 O 0.17074 0.65879 0.98415 0.0
O958 O 0.07 0.68571 0.99966 0.0
O959 O 0.12764 0.74703 1.00527 0.0
O960 O 1.02628 0.57877 1.00679 0.0
O961 O 0.09483 0.58279 1.00534 0.0
O962 O 0.97716 0.64264 0.03912 0.0
O963 O 1.00657 0.67169 0.12251 0.0
O964 O 0.10913 0.64028 0.11045 0.0
O965 O 0.05323 0.57784 0.10675 0.0
O966 O 0.14976 0.75487 0.09693 0.0
O967 O 0.0819 0.73987 0.10725 0.0
H968 H 0.26392 0.68293 0.96552 0.0
H969 H 0.32126 0.64363 0.97432 0.0
H970 H 0.26677 0.5438 0.0787 0.0
H971 H 0.21032 0.58459 0.07035 0.0
H972 H 0.89795 0.65001 0.10553 0.0
H973 H 0.85158 0.70467 0.08568 0.0
H974 H 0.94909 0.81761 0.03545 0.0
H975 H 0.99577 0.76161 0.05496 0.0
loop_
_geom_bond_atom_site_label_1
_geom_bond_atom_site_label_2
_geom_bond_distance
_geom_bond_site_symmetry_2
_ccdc_geom_bond_type
Mg0 O1 2.028 1_655 S
Mg0 O7 1.986 1_655 S
Mg0 O9 2.114 . S
Mg0 O10 2.251 . S
Mg0 O13 2.010 1_655 S
O1 Mg0 2.028 1_455 S
O1 C4 1.250 . S
O2 Mg3 2.028 . S
O2 C4 1.248 1_655 S
Mg3 O2 2.028 . S
Mg3 O8 2.032 . S
Mg3 O10 2.079 . S
C4 O1 1.250 . S
C4 O2 1.248 1_455 S
C5 O6 1.264 . S
C5 O13 1.249 . S
O6 C5 1.264 . S
O7 Mg0 1.986 1_455 S
O7 C11 1.246 1_455 S
O8 Mg3 2.032 . S
O8 C11 1.259 . S
O9 Mg0 2.114 . S
O9 C12 1.252 . S
O10 Mg0 2.251 . S
O10 Mg3 2.079 . S
O10 C12 1.273 . S
C11 O7 1.246 1_655 S
C11 O8 1.259 . S
C12 O9 1.252 . S
C12 O10 1.273 . S
O13 Mg0 2.010 1_455 S
O13 C5 1.249 . S
Mg14 O15 2.028 . S
Mg14 O21 1.986 . S
Mg14 O23 2.114 . S
Mg14 O24 2.251 . S
Mg14 O27 2.010 . S
O15 Mg14 2.028 . S
O15 C18 1.250 . S
O16 Mg17 2.028 . S
O16 C18 1.248 . S
Mg17 O16 2.028 . S
Mg17 O22 2.032 . S
Mg17 O24 2.079 . S
C18 O15 1.250 . S
C18 O16 1.248 . S
C19 O20 1.264 1_565 S
C19 O27 1.249 . S
O20 C19 1.264 1_545 S
O21 Mg14 1.986 . S
O21 C25 1.246 . S
O22 Mg17 2.032 . S
O22 C25 1.259 . S
O23 Mg14 2.114 . S
O23 C26 1.252 . S
O24 Mg14 2.251 . S
O24 Mg17 2.079 . S
O24 C26 1.273 . S
C25 O21 1.246 . S
C25 O22 1.259 . S
C26 O23 1.252 . S
C26 O24 1.273 . S
O27 Mg14 2.010 . S
O27 C19 1.249 . S
Mg28 O29 2.028 . S
Mg28 O35 1.986 . S
Mg28 O37 2.114 . S
Mg28 O38 2.251 . S
Mg28 O41 2.010 . S
O29 Mg28 2.028 . S
O29 C32 1.250 . S
O30 Mg31 2.028 . S
O30 C32 1.248 . S
Mg31 O30 2.028 . S
Mg31 O36 2.032 . S
Mg31 O38 2.079 . S
C32 O29 1.250 . S
C32 O30 1.248 . S
C33 O34 1.264 . S
C33 O41 1.249 . S
O34 C33 1.264 . S
O35 Mg28 1.986 . S
O35 C39 1.246 . S
O36 Mg31 2.032 . S
O36 C39 1.259 . S
O37 Mg28 2.114 . S
O37 C40 1.252 . S
O38 Mg28 2.251 . S
O38 Mg31 2.079 . S
O38 C40 1.273 . S
C39 O35 1.246 . S
C39 O36 1.259 . S
C40 O37 1.252 . S
C40 O38 1.273 . S
O41 Mg28 2.010 . S
O41 C33 1.249 . S
Mg42 O43 2.028 . S
Mg42 O49 1.986 . S
Mg42 O51 2.114 . S
Mg42 O52 2.251 . S
Mg42 O55 2.010 . S
O43 Mg42 2.028 . S
O43 C46 1.250 . S
O44 Mg45 2.028 . S
O44 C46 1.248 . S
Mg45 O44 2.028 . S
Mg45 O50 2.032 . S
Mg45 O52 2.079 . S
C46 O43 1.250 . S
C46 O44 1.248 . S
C47 O48 1.264 . S
C47 O55 1.249 . S
O48 C47 1.264 . S
O49 Mg42 1.986 . S
O49 C53 1.246 . S
O50 Mg45 2.032 . S
O50 C53 1.259 . S
O51 Mg42 2.114 . S
O51 C54 1.252 . S
O52 Mg42 2.251 . S
O52 Mg45 2.079 . S
O52 C54 1.273 . S
C53 O49 1.246 . S
C53 O50 1.259 . S
C54 O51 1.252 . S
C54 O52 1.273 . S
O55 Mg42 2.010 . S
O55 C47 1.249 . S
Mg56 O57 2.028 . S
Mg56 O63 1.986 . S
Mg56 O65 2.114 . S
Mg56 O66 2.251 . S
Mg56 O69 2.010 . S
O57 Mg56 2.028 . S
O57 C60 1.250 . S
O58 Mg59 2.028 . S
O58 C60 1.248 . S
Mg59 O58 2.028 . S
Mg59 O64 2.032 . S
Mg59 O66 2.079 . S
C60 O57 1.250 . S
C60 O58 1.248 . S
C61 O62 1.264 1_565 S
C61 O69 1.249 . S
O62 C61 1.264 1_545 S
O63 Mg56 1.986 . S
O63 C67 1.246 . S
O64 Mg59 2.032 . S
O64 C67 1.259 . S
O65 Mg56 2.114 . S
O65 C68 1.252 . S
O66 Mg56 2.251 . S
O66 Mg59 2.079 . S
O66 C68 1.273 . S
C67 O63 1.246 . S
C67 O64 1.259 . S
C68 O65 1.252 . S
C68 O66 1.273 . S
O69 Mg56 2.010 . S
O69 C61 1.249 . S
Mg70 O71 2.028 . S
Mg70 O77 1.986 . S
Mg70 O79 2.114 . S
Mg70 O80 2.251 . S
Mg70 O83 2.010 . S
O71 Mg70 2.028 . S
O71 C74 1.250 . S
O72 Mg73 2.028 . S
O72 C74 1.248 . S
Mg73 O72 2.028 . S
Mg73 O78 2.032 . S
Mg73 O80 2.079 . S
C74 O71 1.250 . S
C74 O72 1.248 . S
C75 O76 1.264 . S
C75 O83 1.249 . S
O76 C75 1.264 . S
O77 Mg70 1.986 . S
O77 C81 1.246 . S
O78 Mg73 2.032 . S
O78 C81 1.259 . S
O79 Mg70 2.114 . S
O79 C82 1.252 . S
O80 Mg70 2.251 . S
O80 Mg73 2.079 . S
O80 C82 1.273 . S
C81 O77 1.246 . S
C81 O78 1.259 . S
C82 O79 1.252 . S
C82 O80 1.273 . S
O83 Mg70 2.010 . S
O83 C75 1.249 . S
Mg84 O85 2.028 . S
Mg84 O91 1.986 . S
Mg84 O93 2.114 . S
Mg84 O94 2.251 . S
Mg84 O97 2.010 . S
O85 Mg84 2.028 . S
O85 C88 1.250 . S
O86 Mg87 2.028 . S
O86 C88 1.248 . S
Mg87 O86 2.028 . S
Mg87 O92 2.032 . S
Mg87 O94 2.079 . S
C88 O85 1.250 . S
C88 O86 1.248 . S
C89 O90 1.264 . S
C89 O97 1.249 . S
O90 C89 1.264 . S
O91 Mg84 1.986 . S
O91 C95 1.246 . S
O92 Mg87 2.032 . S
O92 C95 1.259 . S
O93 Mg84 2.114 . S
O93 C96 1.252 . S
O94 Mg84 2.251 . S
O94 Mg87 2.079 . S
O94 C96 1.273 . S
C95 O91 1.246 . S
C95 O92 1.259 . S
C96 O93 1.252 . S
C96 O94 1.273 . S
O97 Mg84 2.010 . S
O97 C89 1.249 . S
Mg98 O99 2.028 1_655 S
Mg98 O105 1.986 1_655 S
Mg98 O107 2.114 . S
Mg98 O108 2.251 . S
Mg98 O111 2.010 1_655 S
O99 Mg98 2.028 1_455 S
O99 C102 1.250 . S
O100 Mg101 2.028 . S
O100 C102 1.248 1_655 S
Mg101 O100 2.028 . S
Mg101 O106 2.032 . S
Mg101 O108 2.079 . S
C102 O99 1.250 . S
C102 O100 1.248 1_455 S
C103 O104 1.264 . S
C103 O111 1.249 . S
O104 C103 1.264 . S
O105 Mg98 1.986 1_455 S
O105 C109 1.246 1_455 S
O106 Mg101 2.032 . S
O106 C109 1.259 . S
O107 Mg98 2.114 . S
O107 C110 1.252 . S
O108 Mg98 2.251 . S
O108 Mg101 2.079 . S
O108 C110 1.273 . S
C109 O105 1.246 1_655 S
C109 O106 1.259 . S
C110 O107 1.252 . S
C110 O108 1.273 . S
O111 Mg98 2.010 1_455 S
O111 C103 1.249 . S
Mg112 O113 2.028 . S
Mg112 O119 1.986 . S
Mg112 O121 2.114 . S
Mg112 O122 2.251 . S
Mg112 O125 2.010 . S
O113 Mg112 2.028 . S
O113 C116 1.250 . S
O114 Mg115 2.028 . S
O114 C116 1.248 . S
Mg115 O114 2.028 . S
Mg115 O120 2.032 . S
Mg115 O122 2.079 . S
C116 O113 1.250 . S
C116 O114 1.248 . S
C117 O118 1.264 . S
C117 O125 1.249 . S
O118 C117 1.264 . S
O119 Mg112 1.986 . S
O119 C123 1.246 . S
O120 Mg115 2.032 . S
O120 C123 1.259 . S
O121 Mg112 2.114 . S
O121 C124 1.252 . S
O122 Mg112 2.251 . S
O122 Mg115 2.079 . S
O122 C124 1.273 . S
C123 O119 1.246 . S
C123 O120 1.259 . S
C124 O121 1.252 . S
C124 O122 1.273 . S
O125 Mg112 2.010 . S
O125 C117 1.249 . S
Mg126 O127 2.028 . S
Mg126 O133 1.986 . S
Mg126 O135 2.114 . S
Mg126 O136 2.251 . S
Mg126 O139 2.010 . S
O127 Mg126 2.028 . S
O127 C130 1.250 . S
O128 Mg129 2.028 . S
O128 C130 1.248 . S
Mg129 O128 2.028 . S
Mg129 O134 2.032 . S
Mg129 O136 2.079 . S
C130 O127 1.250 . S
C130 O128 1.248 . S
C131 O132 1.264 . S
C131 O139 1.249 . S
O132 C131 1.264 . S
O133 Mg126 1.986 . S
O133 C137 1.246 . S
O134 Mg129 2.032 . S
O134 C137 1.259 . S
O135 Mg126 2.114 . S
O135 C138 1.252 . S
O136 Mg126 2.251 . S
O136 Mg129 2.079 . S
O136 C138 1.273 . S
C137 O133 1.246 . S
C137 O134 1.259 . S
C138 O135 1.252 . S
C138 O136 1.273 . S
O139 Mg126 2.010 . S
O139 C131 1.249 . S
Mg140 O141 2.028 . S
Mg140 O147 1.986 . S
Mg140 O149 2.114 . S
Mg140 O150 2.251 . S
Mg140 O153 2.010 . S
O141 Mg140 2.028 . S
O141 C144 1.250 . S
O142 Mg143 2.028 1_556 S
O142 C144 1.248 . S
Mg143 O142 2.028 1_554 S
Mg143 O148 2.032 1_554 S
Mg143 O150 2.079 1_554 S
C144 O141 1.250 . S
C144 O142 1.248 . S
C145 O146 1.264 . S
C145 O153 1.249 . S
O146 C145 1.264 . S
O147 Mg140 1.986 . S
O147 C151 1.246 . S
O148 Mg143 2.032 1_556 S
O148 C151 1.259 . S
O149 Mg140 2.114 . S
O149 C152 1.252 . S
O150 Mg140 2.251 . S
O150 Mg143 2.079 1_556 S
O150 C152 1.273 . S
C151 O147 1.246 . S
C151 O148 1.259 . S
C152 O149 1.252 . S
C152 O150 1.273 . S
O153 Mg140 2.010 . S
O153 C145 1.249 . S
Mg154 O155 2.028 1_545 S
Mg154 O161 1.986 1_545 S
Mg154 O163 2.114 . S
Mg154 O164 2.251 . S
Mg154 O167 2.010 . S
O155 Mg154 2.028 1_565 S
O155 C158 1.250 1_554 S
O156 Mg157 2.028 1_556 S
O156 C158 1.248 . S
Mg157 O156 2.028 1_554 S
Mg157 O162 2.032 . S
Mg157 O164 2.079 1_565 S
C158 O155 1.250 1_556 S
C158 O156 1.248 . S
C159 O160 1.264 . S
C159 O167 1.249 . S
O160 C159 1.264 . S
O161 Mg154 1.986 1_565 S
O161 C165 1.246 . S
O162 Mg157 2.032 . S
O162 C165 1.259 . S
O163 Mg154 2.114 . S
O163 C166 1.252 . S
O164 Mg154 2.251 . S
O164 Mg157 2.079 1_545 S
O164 C166 1.273 . S
C165 O161 1.246 . S
C165 O162 1.259 . S
C166 O163 1.252 . S
C166 O164 1.273 . S
O167 Mg154 2.010 . S
O167 C159 1.249 . S
Mg168 O169 2.028 1_554 S
Mg168 O175 1.986 . S
Mg168 O177 2.114 . S
Mg168 O178 2.251 . S
Mg168 O181 2.010 . S
O169 Mg168 2.028 1_556 S
O169 C172 1.250 . S
O170 Mg171 2.028 1_556 S
O170 C172 1.248 . S
Mg171 O170 2.028 1_554 S
Mg171 O176 2.032 . S
Mg171 O178 2.079 . S
C172 O169 1.250 . S
C172 O170 1.248 . S
C173 O174 1.264 . S
C173 O181 1.249 . S
O174 C173 1.264 . S
O175 Mg168 1.986 . S
O175 C179 1.246 . S
O176 Mg171 2.032 . S
O176 C179 1.259 . S
O177 Mg168 2.114 . S
O177 C180 1.252 . S
O178 Mg168 2.251 . S
O178 Mg171 2.079 . S
O178 C180 1.273 . S
C179 O175 1.246 . S
C179 O176 1.259 . S
C180 O177 1.252 . S
C180 O178 1.273 . S
O181 Mg168 2.010 . S
O181 C173 1.249 . S
Mg182 O183 2.028 1_556 S
Mg182 O189 1.986 . S
Mg182 O191 2.114 1_556 S
Mg182 O192 2.251 . S
Mg182 O195 2.010 . S
O183 Mg182 2.028 1_554 S
O183 C186 1.250 . S
O184 Mg185 2.028 . S
O184 C186 1.248 . S
Mg185 O184 2.028 . S
Mg185 O190 2.032 1_554 S
Mg185 O192 2.079 1_554 S
C186 O183 1.250 . S
C186 O184 1.248 . S
C187 O188 1.264 . S
C187 O195 1.249 . S
O188 C187 1.264 . S
O189 Mg182 1.986 . S
O189 C193 1.246 . S
O190 Mg185 2.032 1_556 S
O190 C193 1.259 . S
O191 Mg182 2.114 1_554 S
O191 C194 1.252 . S
O192 Mg182 2.251 . S
O192 Mg185 2.079 1_556 S
O192 C194 1.273 1_556 S
C193 O189 1.246 . S
C193 O190 1.259 . S
C194 O191 1.252 . S
C194 O192 1.273 1_554 S
O195 Mg182 2.010 . S
O195 C187 1.249 . S
Mg196 O197 2.028 . S
Mg196 O203 1.986 . S
Mg196 O205 2.114 . S
Mg196 O206 2.251 . S
Mg196 O209 2.010 . S
O197 Mg196 2.028 . S
O197 C200 1.250 . S
O198 Mg199 2.028 . S
O198 C200 1.248 . S
Mg199 O198 2.028 . S
Mg199 O204 2.032 . S
Mg199 O206 2.079 . S
C200 O197 1.250 . S
C200 O198 1.248 . S
C201 O202 1.264 . S
C201 O209 1.249 . S
O202 C201 1.264 . S
O203 Mg196 1.986 . S
O203 C207 1.246 . S
O204 Mg199 2.032 . S
O204 C207 1.259 . S
O205 Mg196 2.114 . S
O205 C208 1.252 . S
O206 Mg196 2.251 . S
O206 Mg199 2.079 . S
O206 C208 1.273 . S
C207 O203 1.246 . S
C207 O204 1.259 . S
C208 O205 1.252 . S
C208 O206 1.273 . S
O209 Mg196 2.010 . S
O209 C201 1.249 . S
Mg210 O211 2.028 1_545 S
Mg210 O217 1.986 1_545 S
Mg210 O219 2.114 . S
Mg210 O220 2.251 . S
Mg210 O223 2.010 . S
O211 Mg210 2.028 1_565 S
O211 C214 1.250 . S
O212 Mg213 2.028 . S
O212 C214 1.248 . S
Mg213 O212 2.028 . S
Mg213 O218 2.032 . S
Mg213 O220 2.079 1_565 S
C214 O211 1.250 . S
C214 O212 1.248 . S
C215 O216 1.264 . S
C215 O223 1.249 . S
O216 C215 1.264 . S
O217 Mg210 1.986 1_565 S
O217 C221 1.246 . S
O218 Mg213 2.032 . S
O218 C221 1.259 . S
O219 Mg210 2.114 . S
O219 C222 1.252 . S
O220 Mg210 2.251 . S
O220 Mg213 2.079 1_545 S
O220 C222 1.273 . S
C221 O217 1.246 . S
C221 O218 1.259 . S
C222 O219 1.252 . S
C222 O220 1.273 . S
O223 Mg210 2.010 . S
O223 C215 1.249 . S
Mg224 O225 2.028 1_545 S
Mg224 O231 1.986 . S
Mg224 O233 2.114 . S
Mg224 O234 2.251 . S
Mg224 O237 2.010 . S
O225 Mg224 2.028 1_565 S
O225 C228 1.250 . S
O226 Mg227 2.028 1_565 S
O226 C228 1.248 . S
Mg227 O226 2.028 1_545 S
Mg227 O232 2.032 . S
Mg227 O234 2.079 . S
C228 O225 1.250 . S
C228 O226 1.248 . S
C229 O230 1.264 . S
C229 O237 1.249 . S
O230 C229 1.264 . S
O231 Mg224 1.986 . S
O231 C235 1.246 . S
O232 Mg227 2.032 . S
O232 C235 1.259 . S
O233 Mg224 2.114 . S
O233 C236 1.252 . S
O234 Mg224 2.251 . S
O234 Mg227 2.079 . S
O234 C236 1.273 . S
C235 O231 1.246 . S
C235 O232 1.259 . S
C236 O233 1.252 . S
C236 O234 1.273 . S
O237 Mg224 2.010 . S
O237 C229 1.249 . S
Mg238 O239 2.028 . S
Mg238 O245 1.986 . S
Mg238 O247 2.114 . S
Mg238 O248 2.251 . S
Mg238 O251 2.010 . S
O239 Mg238 2.028 . S
O239 C242 1.250 . S
O240 Mg241 2.028 . S
O240 C242 1.248 . S
Mg241 O240 2.028 . S
Mg241 O246 2.032 . S
Mg241 O248 2.079 . S
C242 O239 1.250 . S
C242 O240 1.248 . S
C243 O244 1.264 . S
C243 O251 1.249 . S
O244 C243 1.264 . S
O245 Mg238 1.986 . S
O245 C249 1.246 . S
O246 Mg241 2.032 . S
O246 C249 1.259 . S
O247 Mg238 2.114 . S
O247 C250 1.252 . S
O248 Mg238 2.251 . S
O248 Mg241 2.079 . S
O248 C250 1.273 . S
C249 O245 1.246 . S
C249 O246 1.259 . S
C250 O247 1.252 . S
C250 O248 1.273 . S
O251 Mg238 2.010 . S
O251 C243 1.249 . S
Mg252 O253 2.028 . S
Mg252 O259 1.986 . S
Mg252 O261 2.114 . S
Mg252 O262 2.251 . S
Mg252 O265 2.010 . S
O253 Mg252 2.028 . S
O253 C256 1.250 . S
O254 Mg255 2.028 . S
O254 C256 1.248 . S
Mg255 O254 2.028 . S
Mg255 O260 2.032 . S
Mg255 O262 2.079 . S
C256 O253 1.250 . S
C256 O254 1.248 . S
C257 O258 1.264 . S
C257 O265 1.249 . S
O258 C257 1.264 . S
O259 Mg252 1.986 . S
O259 C263 1.246 . S
O260 Mg255 2.032 . S
O260 C263 1.259 . S
O261 Mg252 2.114 . S
O261 C264 1.252 . S
O262 Mg252 2.251 . S
O262 Mg255 2.079 . S
O262 C264 1.273 . S
C263 O259 1.246 . S
C263 O260 1.259 . S
C264 O261 1.252 . S
C264 O262 1.273 . S
O265 Mg252 2.010 . S
O265 C257 1.249 . S
Mg266 O267 2.028 1_565 S
Mg266 O273 1.986 . S
Mg266 O275 2.114 1_565 S
Mg266 O276 2.251 . S
Mg266 O279 2.010 . S
O267 Mg266 2.028 1_545 S
O267 C270 1.250 . S
O268 Mg269 2.028 . S
O268 C270 1.248 . S
Mg269 O268 2.028 . S
Mg269 O274 2.032 1_545 S
Mg269 O276 2.079 1_545 S
C270 O267 1.250 . S
C270 O268 1.248 . S
C271 O272 1.264 . S
C271 O279 1.249 . S
O272 C271 1.264 . S
O273 Mg266 1.986 . S
O273 C277 1.246 . S
O274 Mg269 2.032 1_565 S
O274 C277 1.259 . S
O275 Mg266 2.114 1_545 S
O275 C278 1.252 . S
O276 Mg266 2.251 . S
O276 Mg269 2.079 1_565 S
O276 C278 1.273 1_565 S
C277 O273 1.246 . S
C277 O274 1.259 . S
C278 O275 1.252 . S
C278 O276 1.273 1_545 S
O279 Mg266 2.010 . S
O279 C271 1.249 . S
Mg280 O281 2.028 1_556 S
Mg280 O287 1.986 . S
Mg280 O289 2.114 1_556 S
Mg280 O290 2.251 1_556 S
Mg280 O293 2.010 . S
O281 Mg280 2.028 1_554 S
O281 C284 1.250 . S
O282 Mg283 2.028 . S
O282 C284 1.248 . S
Mg283 O282 2.028 . S
Mg283 O288 2.032 1_554 S
Mg283 O290 2.079 . S
C284 O281 1.250 . S
C284 O282 1.248 . S
C285 O286 1.264 . S
C285 O293 1.249 . S
O286 C285 1.264 . S
O287 Mg280 1.986 . S
O287 C291 1.246 . S
O288 Mg283 2.032 1_556 S
O288 C291 1.259 . S
O289 Mg280 2.114 1_554 S
O289 C292 1.252 . S
O290 Mg280 2.251 1_554 S
O290 Mg283 2.079 . S
O290 C292 1.273 . S
C291 O287 1.246 . S
C291 O288 1.259 . S
C292 O289 1.252 . S
C292 O290 1.273 . S
O293 Mg280 2.010 . S
O293 C285 1.249 . S
Mg294 O295 2.028 1_455 S
Mg294 O301 1.986 1_455 S
Mg294 O303 2.114 . S
Mg294 O304 2.251 . S
Mg294 O307 2.010 . S
O295 Mg294 2.028 1_655 S
O295 C298 1.250 . S
O296 Mg297 2.028 . S
O296 C298 1.248 . S
Mg297 O296 2.028 . S
Mg297 O302 2.032 . S
Mg297 O304 2.079 1_655 S
C298 O295 1.250 . S
C298 O296 1.248 . S
C299 O300 1.264 . S
C299 O307 1.249 . S
O300 C299 1.264 . S
O301 Mg294 1.986 1_655 S
O301 C305 1.246 . S
O302 Mg297 2.032 . S
O302 C305 1.259 . S
O303 Mg294 2.114 . S
O303 C306 1.252 . S
O304 Mg294 2.251 . S
O304 Mg297 2.079 1_455 S
O304 C306 1.273 . S
C305 O301 1.246 . S
C305 O302 1.259 . S
C306 O303 1.252 . S
C306 O304 1.273 . S
O307 Mg294 2.010 . S
O307 C299 1.249 . S
Mg308 O309 2.028 . S
Mg308 O315 1.986 . S
Mg308 O317 2.114 . S
Mg308 O318 2.251 . S
Mg308 O321 2.010 . S
O309 Mg308 2.028 . S
O309 C312 1.250 . S
O310 Mg311 2.028 . S
O310 C312 1.248 . S
Mg311 O310 2.028 . S
Mg311 O316 2.032 . S
Mg311 O318 2.079 . S
C312 O309 1.250 . S
C312 O310 1.248 . S
C313 O314 1.264 . S
C313 O321 1.249 . S
O314 C313 1.264 . S
O315 Mg308 1.986 . S
O315 C319 1.246 . S
O316 Mg311 2.032 . S
O316 C319 1.259 . S
O317 Mg308 2.114 . S
O317 C320 1.252 . S
O318 Mg308 2.251 . S
O318 Mg311 2.079 . S
O318 C320 1.273 . S
C319 O315 1.246 . S
C319 O316 1.259 . S
C320 O317 1.252 . S
C320 O318 1.273 . S
O321 Mg308 2.010 . S
O321 C313 1.249 . S
Mg322 O323 2.028 . S
Mg322 O329 1.986 . S
Mg322 O331 2.114 . S
Mg322 O332 2.251 . S
Mg322 O335 2.010 . S
O323 Mg322 2.028 . S
O323 C326 1.250 . S
O324 Mg325 2.028 . S
O324 C326 1.248 . S
Mg325 O324 2.028 . S
Mg325 O330 2.032 . S
Mg325 O332 2.079 . S
C326 O323 1.250 . S
C326 O324 1.248 . S
C327 O328 1.264 . S
C327 O335 1.249 . S
O328 C327 1.264 . S
O329 Mg322 1.986 . S
O329 C333 1.246 . S
O330 Mg325 2.032 . S
O330 C333 1.259 . S
O331 Mg322 2.114 . S
O331 C334 1.252 . S
O332 Mg322 2.251 . S
O332 Mg325 2.079 . S
O332 C334 1.273 . S
C333 O329 1.246 . S
C333 O330 1.259 . S
C334 O331 1.252 . S
C334 O332 1.273 . S
O335 Mg322 2.010 . S
O335 C327 1.249 . S
Pr336 C338 2.880 1_455 S
Pr336 O356 2.562 1_455 S
Pr336 O357 2.490 1_455 S
Pr336 O358 2.695 . S
Pr336 O359 2.512 . S
Pr336 O361 2.437 . S
Pr336 O364 2.436 1_556 S
Pr336 O366 2.438 . S
Pr337 C347 2.880 . S
Pr337 O358 2.436 1_554 S
Pr337 O360 2.438 . S
Pr337 O362 2.562 . S
Pr337 O363 2.490 . S
Pr337 O364 2.695 . S
Pr337 O365 2.512 . S
Pr337 O367 2.437 . S
C338 Pr336 2.880 1_655 S
C338 C339 1.491 . S
C338 O356 1.254 . S
C338 O357 1.225 . S
C339 C338 1.491 . S
C339 C340 1.392 . S
C339 C344 1.356 . S
C340 C339 1.392 . S
C340 C341 1.368 . S
C340 H368 0.929 . S
C341 C340 1.368 . S
C341 C342 1.386 . S
C341 H369 0.929 . S
C342 C341 1.386 . S
C342 C343 1.373 . S
C343 C342 1.373 . S
C343 C344 1.409 . S
C343 H370 0.931 . S
C344 C339 1.356 . S
C344 C343 1.409 . S
C344 H371 0.930 . S
C345 O358 1.270 . S
C345 O359 1.248 . S
C346 O360 1.267 . S
C346 O361 1.278 1_554 S
C347 Pr337 2.880 . S
C347 C348 1.491 . S
C347 O362 1.254 . S
C347 O363 1.225 . S
C348 C347 1.491 . S
C348 C349 1.392 . S
C348 C353 1.356 . S
C349 C348 1.392 . S
C349 C350 1.368 . S
C349 H372 0.929 . S
C350 C349 1.368 . S
C350 C351 1.386 . S
C350 H373 0.929 . S
C351 C350 1.386 . S
C351 C352 1.373 . S
C352 C351 1.373 . S
C352 C353 1.409 . S
C352 H374 0.931 . S
C353 C348 1.356 . S
C353 C352 1.409 . S
C353 H375 0.930 . S
C354 O364 1.270 . S
C354 O365 1.248 . S
C355 O366 1.267 1_554 S
C355 O367 1.278 . S
O356 Pr336 2.562 1_655 S
O356 C338 1.254 . S
O357 Pr336 2.490 1_655 S
O357 C338 1.225 . S
O358 Pr336 2.695 . S
O358 Pr337 2.436 1_556 S
O358 C345 1.270 . S
O359 Pr336 2.512 . S
O359 C345 1.248 . S
O360 Pr337 2.438 . S
O360 C346 1.267 . S
O361 Pr336 2.437 . S
O361 C346 1.278 1_556 S
O362 Pr337 2.562 . S
O362 C347 1.254 . S
O363 Pr337 2.490 . S
O363 C347 1.225 . S
O364 Pr336 2.436 1_554 S
O364 Pr337 2.695 . S
O364 C354 1.270 . S
O365 Pr337 2.512 . S
O365 C354 1.248 . S
O366 Pr336 2.438 . S
O366 C355 1.267 1_556 S
O367 Pr337 2.437 . S
O367 C355 1.278 . S
H368 C340 0.929 . S
H369 C341 0.929 . S
H370 C343 0.931 . S
H371 C344 0.930 . S
H372 C349 0.929 . S
H373 C350 0.929 . S
H374 C352 0.931 . S
H375 C353 0.930 . S
Pr376 C378 2.880 1_565 S
Pr376 O396 2.562 1_565 S
Pr376 O397 2.490 1_565 S
Pr376 O398 2.695 . S
Pr376 O399 2.512 . S
Pr376 O401 2.437 . S
Pr376 O404 2.436 . S
Pr376 O406 2.438 . S
Pr377 C387 2.880 . S
Pr377 O398 2.436 . S
Pr377 O400 2.438 . S
Pr377 O402 2.562 . S
Pr377 O403 2.490 . S
Pr377 O404 2.695 . S
Pr377 O405 2.512 . S
Pr377 O407 2.437 . S
C378 Pr376 2.880 1_545 S
C378 C379 1.491 . S
C378 O396 1.254 . S
C378 O397 1.225 . S
C379 C378 1.491 . S
C379 C380 1.392 . S
C379 C384 1.356 . S
C380 C379 1.392 . S
C380 C381 1.368 . S
C380 H408 0.929 . S
C381 C380 1.368 . S
C381 C382 1.386 . S
C381 H409 0.929 . S
C382 C381 1.386 . S
C382 C383 1.373 . S
C383 C382 1.373 . S
C383 C384 1.409 . S
C383 H410 0.931 . S
C384 C379 1.356 . S
C384 C383 1.409 . S
C384 H411 0.930 . S
C385 O398 1.270 . S
C385 O399 1.248 . S
C386 O400 1.267 . S
C386 O401 1.278 . S
C387 Pr377 2.880 . S
C387 C388 1.491 . S
C387 O402 1.254 . S
C387 O403 1.225 . S
C388 C387 1.491 . S
C388 C389 1.392 . S
C388 C393 1.356 . S
C389 C388 1.392 . S
C389 C390 1.368 . S
C389 H412 0.929 . S
C390 C389 1.368 . S
C390 C391 1.386 . S
C390 H413 0.929 . S
C391 C390 1.386 . S
C391 C392 1.373 . S
C392 C391 1.373 . S
C392 C393 1.409 . S
C392 H414 0.931 . S
C393 C388 1.356 . S
C393 C392 1.409 . S
C393 H415 0.930 . S
C394 O404 1.270 . S
C394 O405 1.248 . S
C395 O406 1.267 . S
C395 O407 1.278 . S
O396 Pr376 2.562 1_545 S
O396 C378 1.254 . S
O397 Pr376 2.490 1_545 S
O397 C378 1.225 . S
O398 Pr376 2.695 . S
O398 Pr377 2.436 . S
O398 C385 1.270 . S
O399 Pr376 2.512 . S
O399 C385 1.248 . S
O400 Pr377 2.438 . S
O400 C386 1.267 . S
O401 Pr376 2.437 . S
O401 C386 1.278 . S
O402 Pr377 2.562 . S
O402 C387 1.254 . S
O403 Pr377 2.490 . S
O403 C387 1.225 . S
O404 Pr376 2.436 . S
O404 Pr377 2.695 . S
O404 C394 1.270 . S
O405 Pr377 2.512 . S
O405 C394 1.248 . S
O406 Pr376 2.438 . S
O406 C395 1.267 . S
O407 Pr377 2.437 . S
O407 C395 1.278 . S
H408 C380 0.929 . S
H409 C381 0.929 . S
H410 C383 0.931 . S
H411 C384 0.930 . S
H412 C389 0.929 . S
H413 C390 0.929 . S
H414 C392 0.931 . S
H415 C393 0.930 . S
Pr416 C418 2.880 . S
Pr416 O436 2.562 . S
Pr416 O437 2.490 . S
Pr416 O438 2.695 . S
Pr416 O439 2.512 . S
Pr416 O441 2.437 . S
Pr416 O444 2.436 . S
Pr416 O446 2.438 . S
Pr417 C427 2.880 . S
Pr417 O438 2.436 . S
Pr417 O440 2.438 . S
Pr417 O442 2.562 . S
Pr417 O443 2.490 . S
Pr417 O444 2.695 . S
Pr417 O445 2.512 . S
Pr417 O447 2.437 . S
C418 Pr416 2.880 . S
C418 C419 1.491 . S
C418 O436 1.254 . S
C418 O437 1.225 . S
C419 C418 1.491 . S
C419 C420 1.392 . S
C419 C424 1.356 . S
C420 C419 1.392 . S
C420 C421 1.368 . S
C420 H448 0.929 . S
C421 C420 1.368 . S
C421 C422 1.386 . S
C421 H449 0.929 . S
C422 C421 1.386 . S
C422 C423 1.373 . S
C423 C422 1.373 . S
C423 C424 1.409 . S
C423 H450 0.931 1_545 S
C424 C419 1.356 . S
C424 C423 1.409 . S
C424 H451 0.930 . S
C425 O438 1.270 . S
C425 O439 1.248 . S
C426 O440 1.267 . S
C426 O441 1.278 . S
C427 Pr417 2.880 . S
C427 C428 1.491 . S
C427 O442 1.254 . S
C427 O443 1.225 . S
C428 C427 1.491 . S
C428 C429 1.392 . S
C428 C433 1.356 . S
C429 C428 1.392 . S
C429 C430 1.368 . S
C429 H452 0.929 . S
C430 C429 1.368 . S
C430 C431 1.386 . S
C430 H453 0.929 . S
C431 C430 1.386 . S
C431 C432 1.373 . S
C432 C431 1.373 . S
C432 C433 1.409 . S
C432 H454 0.931 . S
C433 C428 1.356 . S
C433 C432 1.409 . S
C433 H455 0.930 . S
C434 O444 1.270 . S
C434 O445 1.248 . S
C435 O446 1.267 . S
C435 O447 1.278 . S
O436 Pr416 2.562 . S
O436 C418 1.254 . S
O437 Pr416 2.490 . S
O437 C418 1.225 . S
O438 Pr416 2.695 . S
O438 Pr417 2.436 . S
O438 C425 1.270 . S
O439 Pr416 2.512 . S
O439 C425 1.248 . S
O440 Pr417 2.438 . S
O440 C426 1.267 . S
O441 Pr416 2.437 . S
O441 C426 1.278 . S
O442 Pr417 2.562 . S
O442 C427 1.254 . S
O443 Pr417 2.490 . S
O443 C427 1.225 . S
O444 Pr416 2.436 . S
O444 Pr417 2.695 . S
O444 C434 1.270 . S
O445 Pr417 2.512 . S
O445 C434 1.248 . S
O446 Pr416 2.438 . S
O446 C435 1.267 . S
O447 Pr417 2.437 . S
O447 C435 1.278 . S
H448 C420 0.929 . S
H449 C421 0.929 . S
H450 C423 0.931 1_565 S
H451 C424 0.930 . S
H452 C429 0.929 . S
H453 C430 0.929 . S
H454 C432 0.931 . S
H455 C433 0.930 . S
Pr456 C458 2.880 . S
Pr456 O476 2.562 . S
Pr456 O477 2.490 . S
Pr456 O478 2.695 . S
Pr456 O479 2.512 . S
Pr456 O481 2.437 . S
Pr456 O484 2.436 . S
Pr456 O486 2.438 . S
Pr457 C467 2.880 . S
Pr457 O478 2.436 . S
Pr457 O480 2.438 . S
Pr457 O482 2.562 . S
Pr457 O483 2.490 . S
Pr457 O484 2.695 . S
Pr457 O485 2.512 . S
Pr457 O487 2.437 . S
C458 Pr456 2.880 . S
C458 C459 1.491 . S
C458 O476 1.254 . S
C458 O477 1.225 . S
C459 C458 1.491 . S
C459 C460 1.392 . S
C459 C464 1.356 . S
C460 C459 1.392 . S
C460 C461 1.368 . S
C460 H488 0.929 . S
C461 C460 1.368 . S
C461 C462 1.386 . S
C461 H489 0.929 . S
C462 C461 1.386 . S
C462 C463 1.373 . S
C463 C462 1.373 . S
C463 C464 1.409 . S
C463 H490 0.931 . S
C464 C459 1.356 . S
C464 C463 1.409 . S
C464 H491 0.930 . S
C465 O478 1.270 . S
C465 O479 1.248 . S
C466 O480 1.267 . S
C466 O481 1.278 . S
C467 Pr457 2.880 . S
C467 C468 1.491 . S
C467 O482 1.254 . S
C467 O483 1.225 . S
C468 C467 1.491 . S
C468 C469 1.392 . S
C468 C473 1.356 . S
C469 C468 1.392 . S
C469 C470 1.368 . S
C469 H492 0.929 . S
C470 C469 1.368 . S
C470 C471 1.386 . S
C470 H493 0.929 . S
C471 C470 1.386 . S
C471 C472 1.373 . S
C472 C471 1.373 . S
C472 C473 1.409 . S
C472 H494 0.931 . S
C473 C468 1.356 . S
C473 C472 1.409 . S
C473 H495 0.930 . S
C474 O484 1.270 . S
C474 O485 1.248 . S
C475 O486 1.267 . S
C475 O487 1.278 . S
O476 Pr456 2.562 . S
O476 C458 1.254 . S
O477 Pr456 2.490 . S
O477 C458 1.225 . S
O478 Pr456 2.695 . S
O478 Pr457 2.436 . S
O478 C465 1.270 . S
O479 Pr456 2.512 . S
O479 C465 1.248 . S
O480 Pr457 2.438 . S
O480 C466 1.267 . S
O481 Pr456 2.437 . S
O481 C466 1.278 . S
O482 Pr457 2.562 . S
O482 C467 1.254 . S
O483 Pr457 2.490 . S
O483 C467 1.225 . S
O484 Pr456 2.436 . S
O484 Pr457 2.695 . S
O484 C474 1.270 . S
O485 Pr457 2.512 . S
O485 C474 1.248 . S
O486 Pr456 2.438 . S
O486 C475 1.267 . S
O487 Pr457 2.437 . S
O487 C475 1.278 . S
H488 C460 0.929 . S
H489 C461 0.929 . S
H490 C463 0.931 . S
H491 C464 0.930 . S
H492 C469 0.929 . S
H493 C470 0.929 . S
H494 C472 0.931 . S
H495 C473 0.930 . S
Pr496 C498 2.880 1_455 S
Pr496 O516 2.562 1_455 S
Pr496 O517 2.490 . S
Pr496 O518 2.695 . S
Pr496 O519 2.512 . S
Pr496 O521 2.437 . S
Pr496 O524 2.436 . S
Pr496 O526 2.438 . S
Pr497 C507 2.880 . S
Pr497 O518 2.436 . S
Pr497 O520 2.438 . S
Pr497 O522 2.562 . S
Pr497 O523 2.490 . S
Pr497 O524 2.695 . S
Pr497 O525 2.512 1_455 S
Pr497 O527 2.437 . S
C498 Pr496 2.880 1_655 S
C498 C499 1.491 . S
C498 O516 1.254 . S
C498 O517 1.225 1_655 S
C499 C498 1.491 . S
C499 C500 1.392 . S
C499 C504 1.356 . S
C500 C499 1.392 . S
C500 C501 1.368 . S
C500 H528 0.929 1_655 S
C501 C500 1.368 . S
C501 C502 1.386 . S
C501 H529 0.929 . S
C502 C501 1.386 . S
C502 C503 1.373 . S
C503 C502 1.373 . S
C503 C504 1.409 . S
C503 H530 0.931 . S
C504 C499 1.356 . S
C504 C503 1.409 . S
C504 H531 0.930 . S
C505 O518 1.270 . S
C505 O519 1.248 . S
C506 O520 1.267 . S
C506 O521 1.278 . S
C507 Pr497 2.880 . S
C507 C508 1.491 . S
C507 O522 1.254 . S
C507 O523 1.225 . S
C508 C507 1.491 . S
C508 C509 1.392 . S
C508 C513 1.356 . S
C509 C508 1.392 . S
C509 C510 1.368 . S
C509 H532 0.929 . S
C510 C509 1.368 . S
C510 C511 1.386 . S
C510 H533 0.929 . S
C511 C510 1.386 . S
C511 C512 1.373 . S
C512 C511 1.373 . S
C512 C513 1.409 . S
C512 H534 0.931 . S
C513 C508 1.356 . S
C513 C512 1.409 . S
C513 H535 0.930 . S
C514 O524 1.270 1_655 S
C514 O525 1.248 . S
C515 O526 1.267 . S
C515 O527 1.278 . S
O516 Pr496 2.562 1_655 S
O516 C498 1.254 . S
O517 Pr496 2.490 . S
O517 C498 1.225 1_455 S
O518 Pr496 2.695 . S
O518 Pr497 2.436 . S
O518 C505 1.270 . S
O519 Pr496 2.512 . S
O519 C505 1.248 . S
O520 Pr497 2.438 . S
O520 C506 1.267 . S
O521 Pr496 2.437 . S
O521 C506 1.278 . S
O522 Pr497 2.562 . S
O522 C507 1.254 . S
O523 Pr497 2.490 . S
O523 C507 1.225 . S
O524 Pr496 2.436 . S
O524 Pr497 2.695 . S
O524 C514 1.270 1_455 S
O525 Pr497 2.512 1_655 S
O525 C514 1.248 . S
O526 Pr496 2.438 . S
O526 C515 1.267 . S
O527 Pr497 2.437 . S
O527 C515 1.278 . S
H528 C500 0.929 1_455 S
H529 C501 0.929 . S
H530 C503 0.931 . S
H531 C504 0.930 . S
H532 C509 0.929 . S
H533 C510 0.929 . S
H534 C512 0.931 . S
H535 C513 0.930 . S
Pr536 C538 2.880 . S
Pr536 O556 2.562 . S
Pr536 O557 2.490 . S
Pr536 O558 2.695 . S
Pr536 O559 2.512 . S
Pr536 O561 2.437 . S
Pr536 O564 2.436 . S
Pr536 O566 2.438 . S
Pr537 C547 2.880 1_565 S
Pr537 O558 2.436 . S
Pr537 O560 2.438 . S
Pr537 O562 2.562 1_565 S
Pr537 O563 2.490 1_565 S
Pr537 O564 2.695 . S
Pr537 O565 2.512 . S
Pr537 O567 2.437 . S
C538 Pr536 2.880 . S
C538 C539 1.491 . S
C538 O556 1.254 . S
C538 O557 1.225 . S
C539 C538 1.491 . S
C539 C540 1.392 . S
C539 C544 1.356 . S
C540 C539 1.392 . S
C540 C541 1.368 . S
C540 H568 0.929 . S
C541 C540 1.368 . S
C541 C542 1.386 . S
C541 H569 0.929 . S
C542 C541 1.386 . S
C542 C543 1.373 . S
C543 C542 1.373 . S
C543 C544 1.409 . S
C543 H570 0.931 . S
C544 C539 1.356 . S
C544 C543 1.409 . S
C544 H571 0.930 . S
C545 O558 1.270 . S
C545 O559 1.248 . S
C546 O560 1.267 . S
C546 O561 1.278 . S
C547 Pr537 2.880 1_545 S
C547 C548 1.491 . S
C547 O562 1.254 . S
C547 O563 1.225 . S
C548 C547 1.491 . S
C548 C549 1.392 . S
C548 C553 1.356 . S
C549 C548 1.392 . S
C549 C550 1.368 . S
C549 H572 0.929 . S
C550 C549 1.368 . S
C550 C551 1.386 . S
C550 H573 0.929 . S
C551 C550 1.386 . S
C551 C552 1.373 . S
C552 C551 1.373 . S
C552 C553 1.409 . S
C552 H574 0.931 . S
C553 C548 1.356 . S
C553 C552 1.409 . S
C553 H575 0.930 . S
C554 O564 1.270 . S
C554 O565 1.248 . S
C555 O566 1.267 . S
C555 O567 1.278 . S
O556 Pr536 2.562 . S
O556 C538 1.254 . S
O557 Pr536 2.490 . S
O557 C538 1.225 . S
O558 Pr536 2.695 . S
O558 Pr537 2.436 . S
O558 C545 1.270 . S
O559 Pr536 2.512 . S
O559 C545 1.248 . S
O560 Pr537 2.438 . S
O560 C546 1.267 . S
O561 Pr536 2.437 . S
O561 C546 1.278 . S
O562 Pr537 2.562 1_545 S
O562 C547 1.254 . S
O563 Pr537 2.490 1_545 S
O563 C547 1.225 . S
O564 Pr536 2.436 . S
O564 Pr537 2.695 . S
O564 C554 1.270 . S
O565 Pr537 2.512 . S
O565 C554 1.248 . S
O566 Pr536 2.438 . S
O566 C555 1.267 . S
O567 Pr537 2.437 . S
O567 C555 1.278 . S
H568 C540 0.929 . S
H569 C541 0.929 . S
H570 C543 0.931 . S
H571 C544 0.930 . S
H572 C549 0.929 . S
H573 C550 0.929 . S
H574 C552 0.931 . S
H575 C553 0.930 . S
Pr576 C578 2.880 . S
Pr576 O596 2.562 . S
Pr576 O597 2.490 . S
Pr576 O598 2.706 . S
Pr576 O599 2.512 . S
Pr576 O601 2.437 . S
Pr576 O604 2.436 . S
Pr576 O606 2.438 . S
Pr577 C587 2.880 . S
Pr577 O598 2.428 1_556 S
Pr577 O600 2.438 . S
Pr577 O602 2.562 . S
Pr577 O603 2.490 . S
Pr577 O604 2.695 1_556 S
Pr577 O605 2.512 . S
Pr577 O607 2.437 . S
C578 Pr576 2.880 . S
C578 C579 1.491 . S
C578 O596 1.254 . S
C578 O597 1.225 . S
C579 C578 1.491 . S
C579 C580 1.392 . S
C579 C584 1.356 . S
C580 C579 1.392 . S
C580 C581 1.368 . S
C580 H608 0.929 . S
C581 C580 1.368 . S
C581 C582 1.386 . S
C581 H609 0.929 . S
C582 C581 1.386 . S
C582 C583 1.373 . S
C583 C582 1.373 . S
C583 C584 1.409 . S
C583 H610 0.931 . S
C584 C579 1.356 . S
C584 C583 1.409 . S
C584 H611 0.930 . S
C585 O598 1.277 . S
C585 O599 1.248 . S
C586 O600 1.267 1_554 S
C586 O601 1.278 . S
C587 Pr577 2.880 . S
C587 C588 1.491 . S
C587 O602 1.254 . S
C587 O603 1.225 . S
C588 C587 1.491 . S
C588 C589 1.392 . S
C588 C593 1.356 . S
C589 C588 1.392 . S
C589 C590 1.368 . S
C589 H612 0.929 . S
C590 C589 1.368 . S
C590 C591 1.386 . S
C590 H613 0.929 . S
C591 C590 1.386 . S
C591 C592 1.373 . S
C592 C591 1.373 . S
C592 C593 1.409 . S
C592 H614 0.931 . S
C593 C588 1.356 . S
C593 C592 1.409 . S
C593 H615 0.930 . S
C594 O604 1.270 . S
C594 O605 1.248 1_554 S
C595 O606 1.267 . S
C595 O607 1.278 1_554 S
O596 Pr576 2.562 . S
O596 C578 1.254 . S
O597 Pr576 2.490 . S
O597 C578 1.225 . S
O598 Pr576 2.706 . S
O598 Pr577 2.428 1_554 S
O598 C585 1.277 . S
O599 Pr576 2.512 . S
O599 C585 1.248 . S
O600 Pr577 2.438 . S
O600 C586 1.267 1_556 S
O601 Pr576 2.437 . S
O601 C586 1.278 . S
O602 Pr577 2.562 . S
O602 C587 1.254 . S
O603 Pr577 2.490 . S
O603 C587 1.225 . S
O604 Pr576 2.436 . S
O604 Pr577 2.695 1_554 S
O604 C594 1.270 . S
O605 Pr577 2.512 . S
O605 C594 1.248 1_556 S
O606 Pr576 2.438 . S
O606 C595 1.267 . S
O607 Pr577 2.437 . S
O607 C595 1.278 1_556 S
H608 C580 0.929 . S
H609 C581 0.929 . S
H610 C583 0.931 . S
H611 C584 0.930 . S
H612 C589 0.929 . S
H613 C590 0.929 . S
H614 C592 0.931 . S
H615 C593 0.930 . S
Pr616 C618 2.880 . S
Pr616 O636 2.562 . S
Pr616 O637 2.490 . S
Pr616 O638 2.695 . S
Pr616 O639 2.512 . S
Pr616 O641 2.437 . S
Pr616 O644 2.436 . S
Pr616 O646 2.438 . S
Pr617 C627 2.880 . S
Pr617 O638 2.436 . S
Pr617 O640 2.438 . S
Pr617 O642 2.562 . S
Pr617 O643 2.490 . S
Pr617 O644 2.695 . S
Pr617 O645 2.512 . S
Pr617 O647 2.437 . S
C618 Pr616 2.880 . S
C618 C619 1.491 . S
C618 O636 1.254 . S
C618 O637 1.225 . S
C619 C618 1.491 . S
C619 C620 1.392 . S
C619 C624 1.356 . S
C620 C619 1.392 . S
C620 C621 1.368 . S
C620 H648 0.929 . S
C621 C620 1.368 . S
C621 C622 1.386 . S
C621 H649 0.929 . S
C622 C621 1.386 . S
C622 C623 1.373 . S
C623 C622 1.373 . S
C623 C624 1.409 . S
C623 H650 0.931 . S
C624 C619 1.356 . S
C624 C623 1.409 . S
C624 H651 0.930 . S
C625 O638 1.270 . S
C625 O639 1.248 . S
C626 O640 1.267 . S
C626 O641 1.278 . S
C627 Pr617 2.880 . S
C627 C628 1.491 . S
C627 O642 1.254 . S
C627 O643 1.225 . S
C628 C627 1.491 . S
C628 C629 1.392 . S
C628 C633 1.356 . S
C629 C628 1.392 . S
C629 C630 1.368 . S
C629 H652 0.929 . S
C630 C629 1.368 . S
C630 C631 1.386 . S
C630 H653 0.929 . S
C631 C630 1.386 . S
C631 C632 1.373 . S
C632 C631 1.373 . S
C632 C633 1.409 . S
C632 H654 0.931 . S
C633 C628 1.356 . S
C633 C632 1.409 . S
C633 H655 0.930 . S
C634 O644 1.270 . S
C634 O645 1.248 . S
C635 O646 1.267 . S
C635 O647 1.278 . S
O636 Pr616 2.562 . S
O636 C618 1.254 . S
O637 Pr616 2.490 . S
O637 C618 1.225 . S
O638 Pr616 2.695 . S
O638 Pr617 2.436 . S
O638 C625 1.270 . S
O639 Pr616 2.512 . S
O639 C625 1.248 . S
O640 Pr617 2.438 . S
O640 C626 1.267 . S
O641 Pr616 2.437 . S
O641 C626 1.278 . S
O642 Pr617 2.562 . S
O642 C627 1.254 . S
O643 Pr617 2.490 . S
O643 C627 1.225 . S
O644 Pr616 2.436 . S
O644 Pr617 2.695 . S
O644 C634 1.270 . S
O645 Pr617 2.512 . S
O645 C634 1.248 . S
O646 Pr616 2.438 . S
O646 C635 1.267 . S
O647 Pr617 2.437 . S
O647 C635 1.278 . S
H648 C620 0.929 . S
H649 C621 0.929 . S
H650 C623 0.931 . S
H651 C624 0.930 . S
H652 C629 0.929 . S
H653 C630 0.929 . S
H654 C632 0.931 . S
H655 C633 0.930 . S
Pr656 C658 2.880 . S
Pr656 O676 2.562 . S
Pr656 O677 2.490 . S
Pr656 O678 2.695 1_556 S
Pr656 O679 2.512 . S
Pr656 O681 2.437 . S
Pr656 O684 2.436 1_556 S
Pr656 O686 2.438 1_556 S
Pr657 C667 2.880 . S
Pr657 O678 2.436 . S
Pr657 O680 2.438 . S
Pr657 O682 2.562 . S
Pr657 O683 2.490 . S
Pr657 O684 2.695 . S
Pr657 O685 2.512 . S
Pr657 O687 2.437 . S
C658 Pr656 2.880 . S
C658 C659 1.491 . S
C658 O676 1.254 . S
C658 O677 1.225 . S
C659 C658 1.491 . S
C659 C660 1.392 . S
C659 C664 1.356 . S
C660 C659 1.392 . S
C660 C661 1.368 . S
C660 H688 0.929 . S
C661 C660 1.368 . S
C661 C662 1.386 . S
C661 H689 0.929 . S
C662 C661 1.386 . S
C662 C663 1.373 . S
C663 C662 1.373 . S
C663 C664 1.409 . S
C663 H690 0.931 . S
C664 C659 1.356 . S
C664 C663 1.409 . S
C664 H691 0.930 . S
C665 O678 1.270 . S
C665 O679 1.248 1_554 S
C666 O680 1.267 1_556 S
C666 O681 1.278 . S
C667 Pr657 2.880 . S
C667 C668 1.491 . S
C667 O682 1.254 . S
C667 O683 1.225 . S
C668 C667 1.491 . S
C668 C669 1.392 . S
C668 C673 1.356 . S
C669 C668 1.392 . S
C669 C670 1.368 . S
C669 H692 0.929 . S
C670 C669 1.368 . S
C670 C671 1.386 . S
C670 H693 0.929 . S
C671 C670 1.386 . S
C671 C672 1.373 . S
C672 C671 1.373 . S
C672 C673 1.409 . S
C672 H694 0.931 . S
C673 C668 1.356 . S
C673 C672 1.409 . S
C673 H695 0.930 . S
C674 O684 1.270 . S
C674 O685 1.248 . S
C675 O686 1.267 . S
C675 O687 1.278 . S
O676 Pr656 2.562 . S
O676 C658 1.254 . S
O677 Pr656 2.490 . S
O677 C658 1.225 . S
O678 Pr656 2.695 1_554 S
O678 Pr657 2.436 . S
O678 C665 1.270 . S
O679 Pr656 2.512 . S
O679 C665 1.248 1_556 S
O680 Pr657 2.438 . S
O680 C666 1.267 1_554 S
O681 Pr656 2.437 . S
O681 C666 1.278 . S
O682 Pr657 2.562 . S
O682 C667 1.254 . S
O683 Pr657 2.490 . S
O683 C667 1.225 . S
O684 Pr656 2.436 1_554 S
O684 Pr657 2.695 . S
O684 C674 1.270 . S
O685 Pr657 2.512 . S
O685 C674 1.248 . S
O686 Pr656 2.438 1_554 S
O686 C675 1.267 . S
O687 Pr657 2.437 . S
O687 C675 1.278 . S
H688 C660 0.929 . S
H689 C661 0.929 . S
H690 C663 0.931 . S
H691 C664 0.930 . S
H692 C669 0.929 . S
H693 C670 0.929 . S
H694 C672 0.931 . S
H695 C673 0.930 . S
Pr696 C698 2.880 . S
Pr696 O716 2.562 . S
Pr696 O717 2.490 . S
Pr696 O718 2.695 . S
Pr696 O719 2.512 . S
Pr696 O721 2.437 . S
Pr696 O724 2.436 . S
Pr696 O726 2.438 . S
Pr697 C707 2.880 . S
Pr697 O718 2.436 . S
Pr697 O720 2.438 . S
Pr697 O722 2.562 . S
Pr697 O723 2.490 . S
Pr697 O724 2.695 . S
Pr697 O725 2.512 . S
Pr697 O727 2.437 . S
C698 Pr696 2.880 . S
C698 C699 1.491 . S
C698 O716 1.254 . S
C698 O717 1.225 . S
C699 C698 1.491 . S
C699 C700 1.392 . S
C699 C704 1.356 . S
C700 C699 1.392 . S
C700 C701 1.368 . S
C700 H728 0.929 . S
C701 C700 1.368 . S
C701 C702 1.386 . S
C701 H729 0.929 . S
C702 C701 1.386 . S
C702 C703 1.373 . S
C703 C702 1.373 . S
C703 C704 1.409 . S
C703 H730 0.931 . S
C704 C699 1.356 . S
C704 C703 1.409 . S
C704 H731 0.930 . S
C705 O718 1.270 . S
C705 O719 1.248 . S
C706 O720 1.267 . S
C706 O721 1.278 . S
C707 Pr697 2.880 . S
C707 C708 1.491 . S
C707 O722 1.254 . S
C707 O723 1.225 . S
C708 C707 1.491 . S
C708 C709 1.392 . S
C708 C713 1.356 . S
C709 C708 1.392 . S
C709 C710 1.368 . S
C709 H732 0.929 . S
C710 C709 1.368 . S
C710 C711 1.386 . S
C710 H733 0.929 . S
C711 C710 1.386 . S
C711 C712 1.373 . S
C712 C711 1.373 . S
C712 C713 1.409 . S
C712 H734 0.931 . S
C713 C708 1.356 . S
C713 C712 1.409 . S
C713 H735 0.930 . S
C714 O724 1.270 . S
C714 O725 1.248 . S
C715 O726 1.267 . S
C715 O727 1.278 . S
O716 Pr696 2.562 . S
O716 C698 1.254 . S
O717 Pr696 2.490 . S
O717 C698 1.225 . S
O718 Pr696 2.695 . S
O718 Pr697 2.436 . S
O718 C705 1.270 . S
O719 Pr696 2.512 . S
O719 C705 1.248 . S
O720 Pr697 2.438 . S
O720 C706 1.267 . S
O721 Pr696 2.437 . S
O721 C706 1.278 . S
O722 Pr697 2.562 . S
O722 C707 1.254 . S
O723 Pr697 2.490 . S
O723 C707 1.225 . S
O724 Pr696 2.436 . S
O724 Pr697 2.695 . S
O724 C714 1.270 . S
O725 Pr697 2.512 . S
O725 C714 1.248 . S
O726 Pr696 2.438 . S
O726 C715 1.267 . S
O727 Pr697 2.437 . S
O727 C715 1.278 . S
H728 C700 0.929 . S
H729 C701 0.929 . S
H730 C703 0.931 . S
H731 C704 0.930 . S
H732 C709 0.929 . S
H733 C710 0.929 . S
H734 C712 0.931 . S
H735 C713 0.930 . S
Pr736 C738 2.880 . S
Pr736 O756 2.562 . S
Pr736 O757 2.490 . S
Pr736 O758 2.695 . S
Pr736 O759 2.512 . S
Pr736 O761 2.437 . S
Pr736 O764 2.436 . S
Pr736 O766 2.438 . S
Pr737 C747 2.880 . S
Pr737 O758 2.436 . S
Pr737 O760 2.438 1_455 S
Pr737 O762 2.562 . S
Pr737 O763 2.490 . S
Pr737 O764 2.695 . S
Pr737 O765 2.512 . S
Pr737 O767 2.437 . S
C738 Pr736 2.880 . S
C738 C739 1.491 . S
C738 O756 1.254 . S
C738 O757 1.225 . S
C739 C738 1.491 . S
C739 C740 1.392 . S
C739 C744 1.356 . S
C740 C739 1.392 . S
C740 C741 1.368 . S
C740 H768 0.929 . S
C741 C740 1.368 . S
C741 C742 1.386 . S
C741 H769 0.929 . S
C742 C741 1.386 . S
C742 C743 1.373 . S
C743 C742 1.373 . S
C743 C744 1.409 . S
C743 H770 0.931 1_455 S
C744 C739 1.356 . S
C744 C743 1.409 . S
C744 H771 0.930 . S
C745 O758 1.270 . S
C745 O759 1.248 . S
C746 O760 1.267 . S
C746 O761 1.278 1_655 S
C747 Pr737 2.880 . S
C747 C748 1.491 . S
C747 O762 1.254 . S
C747 O763 1.225 . S
C748 C747 1.491 . S
C748 C749 1.392 . S
C748 C753 1.356 . S
C749 C748 1.392 . S
C749 C750 1.368 . S
C749 H772 0.929 . S
C750 C749 1.368 . S
C750 C751 1.386 . S
C750 H773 0.929 . S
C751 C750 1.386 . S
C751 C752 1.373 . S
C752 C751 1.373 . S
C752 C753 1.409 . S
C752 H774 0.931 . S
C753 C748 1.356 . S
C753 C752 1.409 . S
C753 H775 0.930 . S
C754 O764 1.270 . S
C754 O765 1.248 . S
C755 O766 1.267 . S
C755 O767 1.278 . S
O756 Pr736 2.562 . S
O756 C738 1.254 . S
O757 Pr736 2.490 . S
O757 C738 1.225 . S
O758 Pr736 2.695 . S
O758 Pr737 2.436 . S
O758 C745 1.270 . S
O759 Pr736 2.512 . S
O759 C745 1.248 . S
O760 Pr737 2.438 1_655 S
O760 C746 1.267 . S
O761 Pr736 2.437 . S
O761 C746 1.278 1_455 S
O762 Pr737 2.562 . S
O762 C747 1.254 . S
O763 Pr737 2.490 . S
O763 C747 1.225 . S
O764 Pr736 2.436 . S
O764 Pr737 2.695 . S
O764 C754 1.270 . S
O765 Pr737 2.512 . S
O765 C754 1.248 . S
O766 Pr736 2.438 . S
O766 C755 1.267 . S
O767 Pr737 2.437 . S
O767 C755 1.278 . S
H768 C740 0.929 . S
H769 C741 0.929 . S
H770 C743 0.931 1_655 S
H771 C744 0.930 . S
H772 C749 0.929 . S
H773 C750 0.929 . S
H774 C752 0.931 . S
H775 C753 0.930 . S
Pr776 C778 2.880 . S
Pr776 O796 2.562 . S
Pr776 O797 2.490 . S
Pr776 O798 2.695 . S
Pr776 O799 2.512 . S
Pr776 O801 2.437 . S
Pr776 O804 2.436 . S
Pr776 O806 2.438 . S
Pr777 C787 2.880 . S
Pr777 O798 2.436 . S
Pr777 O800 2.438 . S
Pr777 O802 2.562 . S
Pr777 O803 2.490 . S
Pr777 O804 2.695 . S
Pr777 O805 2.512 . S
Pr777 O807 2.437 . S
C778 Pr776 2.880 . S
C778 C779 1.491 . S
C778 O796 1.254 . S
C778 O797 1.225 . S
C779 C778 1.491 . S
C779 C780 1.392 . S
C779 C784 1.356 . S
C780 C779 1.392 . S
C780 C781 1.368 1_565 S
C780 H808 0.929 1_565 S
C781 C780 1.368 1_545 S
C781 C782 1.386 1_545 S
C781 H809 0.929 . S
C782 C781 1.386 1_565 S
C782 C783 1.373 . S
C783 C782 1.373 . S
C783 C784 1.409 . S
C783 H810 0.931 . S
C784 C779 1.356 . S
C784 C783 1.409 . S
C784 H811 0.930 . S
C785 O798 1.270 . S
C785 O799 1.248 . S
C786 O800 1.267 . S
C786 O801 1.278 . S
C787 Pr777 2.880 . S
C787 C788 1.491 . S
C787 O802 1.254 . S
C787 O803 1.225 . S
C788 C787 1.491 . S
C788 C789 1.392 . S
C788 C793 1.356 . S
C789 C788 1.392 . S
C789 C790 1.368 . S
C789 H812 0.929 . S
C790 C789 1.368 . S
C790 C791 1.384 1_655 S
C790 H813 0.929 1_655 S
C791 C790 1.384 1_455 S
C791 C792 1.367 1_455 S
C792 C791 1.367 1_655 S
C792 C793 1.409 . S
C792 H814 0.931 . S
C793 C788 1.356 . S
C793 C792 1.409 . S
C793 H815 0.930 . S
C794 O804 1.270 . S
C794 O805 1.248 . S
C795 O806 1.267 . S
C795 O807 1.278 . S
O796 Pr776 2.562 . S
O796 C778 1.254 . S
O797 Pr776 2.490 . S
O797 C778 1.225 . S
O798 Pr776 2.695 . S
O798 Pr777 2.436 . S
O798 C785 1.270 . S
O799 Pr776 2.512 . S
O799 C785 1.248 . S
O800 Pr777 2.438 . S
O800 C786 1.267 . S
O801 Pr776 2.437 . S
O801 C786 1.278 . S
O802 Pr777 2.562 . S
O802 C787 1.254 . S
O803 Pr777 2.490 . S
O803 C787 1.225 . S
O804 Pr776 2.436 . S
O804 Pr777 2.695 . S
O804 C794 1.270 . S
O805 Pr777 2.512 . S
O805 C794 1.248 . S
O806 Pr776 2.438 . S
O806 C795 1.267 . S
O807 Pr777 2.437 . S
O807 C795 1.278 . S
H808 C780 0.929 1_545 S
H809 C781 0.929 . S
H810 C783 0.931 . S
H811 C784 0.930 . S
H812 C789 0.929 . S
H813 C790 0.929 1_455 S
H814 C792 0.931 . S
H815 C793 0.930 . S
Pr816 C818 2.880 . S
Pr816 O836 2.562 . S
Pr816 O837 2.490 . S
Pr816 O838 2.695 . S
Pr816 O839 2.512 . S
Pr816 O841 2.437 . S
Pr816 O844 2.436 . S
Pr816 O846 2.438 . S
Pr817 C827 2.880 . S
Pr817 O838 2.436 . S
Pr817 O840 2.438 . S
Pr817 O842 2.562 . S
Pr817 O843 2.490 . S
Pr817 O844 2.695 . S
Pr817 O845 2.512 . S
Pr817 O847 2.437 . S
C818 Pr816 2.880 . S
C818 C819 1.491 . S
C818 O836 1.254 . S
C818 O837 1.225 . S
C819 C818 1.491 . S
C819 C820 1.392 . S
C819 C824 1.356 . S
C820 C819 1.392 . S
C820 C821 1.368 . S
C820 H848 0.929 . S
C821 C820 1.368 . S
C821 C822 1.386 . S
C821 H849 0.929 . S
C822 C821 1.386 . S
C822 C823 1.373 . S
C823 C822 1.373 . S
C823 C824 1.409 . S
C823 H850 0.917 1_655 S
C824 C819 1.356 . S
C824 C823 1.409 . S
C824 H851 0.930 . S
C825 O838 1.270 . S
C825 O839 1.248 . S
C826 O840 1.267 . S
C826 O841 1.278 . S
C827 Pr817 2.880 . S
C827 C828 1.491 . S
C827 O842 1.254 . S
C827 O843 1.225 . S
C828 C827 1.491 . S
C828 C829 1.392 . S
C828 C833 1.356 . S
C829 C828 1.392 . S
C829 C830 1.368 . S
C829 H852 0.929 . S
C830 C829 1.368 . S
C830 C831 1.386 . S
C830 H853 0.929 . S
C831 C830 1.386 . S
C831 C832 1.373 . S
C832 C831 1.373 . S
C832 C833 1.409 . S
C832 H854 0.931 . S
C833 C828 1.356 . S
C833 C832 1.409 . S
C833 H855 0.930 . S
C834 O844 1.270 . S
C834 O845 1.248 . S
C835 O846 1.267 . S
C835 O847 1.278 . S
O836 Pr816 2.562 . S
O836 C818 1.254 . S
O837 Pr816 2.490 . S
O837 C818 1.225 . S
O838 Pr816 2.695 . S
O838 Pr817 2.436 . S
O838 C825 1.270 . S
O839 Pr816 2.512 . S
O839 C825 1.248 . S
O840 Pr817 2.438 . S
O840 C826 1.267 . S
O841 Pr816 2.437 . S
O841 C826 1.278 . S
O842 Pr817 2.562 . S
O842 C827 1.254 . S
O843 Pr817 2.490 . S
O843 C827 1.225 . S
O844 Pr816 2.436 . S
O844 Pr817 2.695 . S
O844 C834 1.270 . S
O845 Pr817 2.512 . S
O845 C834 1.248 . S
O846 Pr816 2.438 . S
O846 C835 1.267 . S
O847 Pr817 2.437 . S
O847 C835 1.278 . S
H848 C820 0.929 . S
H849 C821 0.929 . S
H850 C823 0.917 1_455 S
H851 C824 0.930 . S
H852 C829 0.929 . S
H853 C830 0.929 . S
H854 C832 0.931 . S
H855 C833 0.930 . S
Pr856 C858 2.880 . S
Pr856 O876 2.562 . S
Pr856 O877 2.490 . S
Pr856 O878 2.695 . S
Pr856 O879 2.512 . S
Pr856 O881 2.437 . S
Pr856 O884 2.436 . S
Pr856 O886 2.438 . S
Pr857 C867 2.880 . S
Pr857 O878 2.436 . S
Pr857 O880 2.438 . S
Pr857 O882 2.562 . S
Pr857 O883 2.490 1_565 S
Pr857 O884 2.695 . S
Pr857 O885 2.512 . S
Pr857 O887 2.437 . S
C858 Pr856 2.880 . S
C858 C859 1.491 . S
C858 O876 1.254 . S
C858 O877 1.225 . S
C859 C858 1.491 . S
C859 C860 1.392 . S
C859 C864 1.356 . S
C860 C859 1.392 . S
C860 C861 1.368 . S
C860 H888 0.929 . S
C861 C860 1.368 . S
C861 C862 1.386 . S
C861 H889 0.929 . S
C862 C861 1.386 . S
C862 C863 1.373 . S
C863 C862 1.373 . S
C863 C864 1.409 . S
C863 H890 0.931 . S
C864 C859 1.356 . S
C864 C863 1.409 . S
C864 H891 0.930 . S
C865 O878 1.270 . S
C865 O879 1.248 . S
C866 O880 1.267 . S
C866 O881 1.278 . S
C867 Pr857 2.880 . S
C867 C868 1.491 1_565 S
C867 O882 1.254 . S
C867 O883 1.225 1_565 S
C868 C867 1.491 1_545 S
C868 C869 1.392 1_655 S
C868 C873 1.356 1_645 S
C869 C868 1.392 1_455 S
C869 C870 1.368 . S
C869 H892 0.929 . S
C870 C869 1.368 . S
C870 C871 1.386 . S
C870 H893 0.929 . S
C871 C870 1.386 . S
C871 C872 1.374 . S
C872 C871 1.374 . S
C872 C873 1.410 1_545 S
C872 H894 0.928 1_545 S
C873 C868 1.356 1_465 S
C873 C872 1.410 1_565 S
C873 H895 0.930 1_455 S
C874 O884 1.270 . S
C874 O885 1.248 . S
C875 O886 1.267 . S
C875 O887 1.278 . S
O876 Pr856 2.562 . S
O876 C858 1.254 . S
O877 Pr856 2.490 . S
O877 C858 1.225 . S
O878 Pr856 2.695 . S
O878 Pr857 2.436 . S
O878 C865 1.270 . S
O879 Pr856 2.512 . S
O879 C865 1.248 . S
O880 Pr857 2.438 . S
O880 C866 1.267 . S
O881 Pr856 2.437 . S
O881 C866 1.278 . S
O882 Pr857 2.562 . S
O882 C867 1.254 . S
O883 Pr857 2.490 1_545 S
O883 C867 1.225 1_545 S
O884 Pr856 2.436 . S
O884 Pr857 2.695 . S
O884 C874 1.270 . S
O885 Pr857 2.512 . S
O885 C874 1.248 . S
O886 Pr856 2.438 . S
O886 C875 1.267 . S
O887 Pr857 2.437 . S
O887 C875 1.278 . S
H888 C860 0.929 . S
H889 C861 0.929 . S
H890 C863 0.931 . S
H891 C864 0.930 . S
H892 C869 0.929 . S
H893 C870 0.929 . S
H894 C872 0.928 1_565 S
H895 C873 0.930 1_655 S
Pr896 C898 2.880 . S
Pr896 O916 2.562 . S
Pr896 O917 2.490 . S
Pr896 O918 2.695 . S
Pr896 O919 2.512 . S
Pr896 O921 2.437 . S
Pr896 O924 2.436 . S
Pr896 O926 2.438 . S
Pr897 C907 2.880 . S
Pr897 O918 2.436 . S
Pr897 O920 2.438 . S
Pr897 O922 2.562 . S
Pr897 O923 2.490 . S
Pr897 O924 2.695 . S
Pr897 O925 2.512 . S
Pr897 O927 2.437 . S
C898 Pr896 2.880 . S
C898 C899 1.491 . S
C898 O916 1.254 . S
C898 O917 1.225 . S
C899 C898 1.491 . S
C899 C900 1.392 . S
C899 C904 1.356 . S
C900 C899 1.392 . S
C900 C901 1.368 . S
C900 H928 0.929 . S
C901 C900 1.368 . S
C901 C902 1.386 . S
C901 H929 0.929 . S
C902 C901 1.386 . S
C902 C903 1.373 . S
C903 C902 1.373 . S
C903 C904 1.409 . S
C903 H930 0.931 . S
C904 C899 1.356 . S
C904 C903 1.409 . S
C904 H931 0.930 . S
C905 O918 1.270 . S
C905 O919 1.248 . S
C906 O920 1.267 . S
C906 O921 1.278 . S
C907 Pr897 2.880 . S
C907 C908 1.491 . S
C907 O922 1.254 . S
C907 O923 1.225 . S
C908 C907 1.491 . S
C908 C909 1.392 . S
C908 C913 1.356 . S
C909 C908 1.392 . S
C909 C910 1.368 . S
C909 H932 0.929 . S
C910 C909 1.368 . S
C910 C911 1.386 . S
C910 H933 0.929 . S
C911 C910 1.386 . S
C911 C912 1.373 . S
C912 C911 1.373 . S
C912 C913 1.409 . S
C912 H934 0.931 . S
C913 C908 1.356 . S
C913 C912 1.409 . S
C913 H935 0.930 . S
C914 O924 1.270 . S
C914 O925 1.248 . S
C915 O926 1.267 . S
C915 O927 1.278 . S
O916 Pr896 2.562 . S
O916 C898 1.254 . S
O917 Pr896 2.490 . S
O917 C898 1.225 . S
O918 Pr896 2.695 . S
O918 Pr897 2.436 . S
O918 C905 1.270 . S
O919 Pr896 2.512 . S
O919 C905 1.248 . S
O920 Pr897 2.438 . S
O920 C906 1.267 . S
O921 Pr896 2.437 . S
O921 C906 1.278 . S
O922 Pr897 2.562 . S
O922 C907 1.254 . S
O923 Pr897 2.490 . S
O923 C907 1.225 . S
O924 Pr896 2.436 . S
O924 Pr897 2.695 . S
O924 C914 1.270 . S
O925 Pr897 2.512 . S
O925 C914 1.248 . S
O926 Pr896 2.438 . S
O926 C915 1.267 . S
O927 Pr897 2.437 . S
O927 C915 1.278 . S
H928 C900 0.929 . S
H929 C901 0.929 . S
H930 C903 0.931 . S
H931 C904 0.930 . S
H932 C909 0.929 . S
H933 C910 0.929 . S
H934 C912 0.931 . S
H935 C913 0.930 . S
Pr936 C938 2.880 1_554 S
Pr936 O956 2.562 . S
Pr936 O957 2.490 1_554 S
Pr936 O958 2.695 1_554 S
Pr936 O959 2.512 1_554 S
Pr936 O961 2.437 1_554 S
Pr936 O964 2.436 . S
Pr936 O966 2.438 . S
Pr937 C947 2.880 . S
Pr937 O958 2.436 1_654 S
Pr937 O960 2.438 1_654 S
Pr937 O962 2.562 . S
Pr937 O963 2.490 . S
Pr937 O964 2.695 1_655 S
Pr937 O965 2.512 1_655 S
Pr937 O967 2.437 1_655 S
C938 Pr936 2.880 1_556 S
C938 C939 1.491 . S
C938 O956 1.254 1_556 S
C938 O957 1.225 . S
C939 C938 1.491 . S
C939 C940 1.392 . S
C939 C944 1.356 . S
C940 C939 1.392 . S
C940 C941 1.368 . S
C940 H968 0.929 . S
C941 C940 1.368 . S
C941 C942 1.386 . S
C941 H969 0.929 . S
C942 C941 1.386 . S
C942 C943 1.373 . S
C943 C942 1.373 . S
C943 C944 1.409 . S
C943 H970 0.931 . S
C944 C939 1.356 . S
C944 C943 1.409 . S
C944 H971 0.930 1_556 S
C945 O958 1.270 . S
C945 O959 1.248 . S
C946 O960 1.267 . S
C946 O961 1.278 . S
C947 Pr937 2.880 . S
C947 C948 1.491 . S
C947 O962 1.254 . S
C947 O963 1.225 . S
C948 C947 1.491 . S
C948 C949 1.392 . S
C948 C953 1.356 . S
C949 C948 1.392 . S
C949 C950 1.368 . S
C949 H972 0.929 . S
C950 C949 1.368 . S
C950 C951 1.386 . S
C950 H973 0.929 . S
C951 C950 1.386 . S
C951 C952 1.373 . S
C952 C951 1.373 . S
C952 C953 1.409 . S
C952 H974 0.931 . S
C953 C948 1.356 . S
C953 C952 1.409 . S
C953 H975 0.930 . S
C954 O964 1.270 . S
C954 O965 1.248 . S
C955 O966 1.267 . S
C955 O967 1.278 . S
O956 Pr936 2.562 . S
O956 C938 1.254 1_554 S
O957 Pr936 2.490 1_556 S
O957 C938 1.225 . S
O958 Pr936 2.695 1_556 S
O958 Pr937 2.436 1_456 S
O958 C945 1.270 . S
O959 Pr936 2.512 1_556 S
O959 C945 1.248 . S
O960 Pr937 2.438 1_456 S
O960 C946 1.267 . S
O961 Pr936 2.437 1_556 S
O961 C946 1.278 . S
O962 Pr937 2.562 . S
O962 C947 1.254 . S
O963 Pr937 2.490 . S
O963 C947 1.225 . S
O964 Pr936 2.436 . S
O964 Pr937 2.695 1_455 S
O964 C954 1.270 . S
O965 Pr937 2.512 1_455 S
O965 C954 1.248 . S
O966 Pr936 2.438 . S
O966 C955 1.267 . S
O967 Pr937 2.437 1_455 S
O967 C955 1.278 . S
H968 C940 0.929 . S
H969 C941 0.929 . S
H970 C943 0.931 . S
H971 C944 0.930 1_554 S
H972 C949 0.929 . S
H973 C950 0.929 . S
H974 C952 0.931 . S
H975 C953 0.930 . S
C109 C346 3.143 1_656 S
C61 C385 2.265 . S
C74 C426 2.702 1_565 S
C471 C96 2.601 . S
C25 C515 2.865 1_565 S
C546 C40 2.096 . S
C594 C46 2.624 . S
C5 C622 3.446 . S
C354 C229 3.039 1_455 S
C249 C395 2.363 . S
C434 C271 3.971 1_545 S
C466 C172 3.089 . S
C236 C502 1.524 . S
C554 C242 3.109 . S
C591 C278 3.822 . S
C625 C179 3.079 . S
C351 C159 4.011 . S
C285 C665 2.267 1_556 S
C711 C333 3.532 . S
C746 C320 2.348 . S
C123 C635 4.000 . S
C138 C431 2.603 . S
C326 C794 3.844 . S
C822 C298 1.839 . S
C355 C67 2.850 1_545 S
C834 C110 2.274 . S
C88 C435 2.550 . S
C75 C782 2.965 . S
C506 C11 2.978 1_455 S
C47 C715 2.294 . S
C585 C32 2.753 1_544 S
C871 C26 4.558 1_545 S
C345 C152 4.026 . S
C826 C319 2.573 . S
C124 C425 3.592 . S
C284 C795 3.101 . S
C145 C511 1.342 . S
C705 C312 3.126 . S
C117 C582 4.474 . S
C291 C874 2.758 . S
C194 C342 4.990 1_554 S
C180 C674 2.337 . S
C263 C542 3.134 . S
C243 C755 2.044 . S
C866 C277 3.712 . S
C215 C422 3.079 . S
C465 C256 3.212 . S
C391 C200 1.285 . S
C81 C906 3.142 . S
C825 C89 2.266 . S
C102 C946 2.702 . S
C68 C791 2.606 . S
C53 C675 2.865 . S
C706 C12 2.100 . S
C754 C18 2.624 . S
C862 C33 3.448 . S
C914 C257 3.040 . S
C193 C835 2.362 . S
C954 C201 3.972 . S
C786 C214 3.089 . S
C662 C264 1.524 . S
C186 C714 3.109 . S
C751 C208 3.823 . S
C221 C865 3.080 . S
C911 C313 4.011 . S
C131 C505 2.268 . S
C551 C151 3.532 . S
C586 C166 2.348 . S
C875 C305 4.000 . S
C292 C951 2.604 . S
C474 C144 3.845 . S
C382 C116 1.839 . S
C95 C915 2.850 . S
C394 C82 2.274 . S
C60 C955 2.550 . S
C103 C462 2.964 . S
C39 C666 2.981 . S
C555 C19 2.294 . S
C4 C745 2.751 . S
C54 C631 4.559 . S
C905 C334 4.026 . S
C165 C386 2.573 . S
C945 C306 3.592 . S
C130 C475 3.101 . S
C327 C671 1.342 . S
C545 C158 3.126 . S
C299 C742 4.473 . S
C634 C137 2.758 . S
C902 C250 4.990 . S
C514 C222 2.338 . S
C235 C702 3.134 . S
C595 C187 2.044 1_554 S
C207 C626 3.713 . S
C173 C942 3.079 1_554 S
C785 C228 3.212 . S
C831 C270 1.284 . S
