# Generated by pormake.
# Topology pth, (4,4)-cn, num edge types: 1
# Building blocks:
#     Node 0, Type 0, BuildingBlock: QUQFOY_clean_sbu_1, # of connection points: 4
#     Node 1, Type 0, BuildingBlock: QUQFOY_clean_sbu_1, # of connection points: 4
#     Node 2, Type 0, BuildingBlock: QUQFOY_clean_sbu_1, # of connection points: 4
#     Node 3, Type 1, BuildingBlock: NAWXER_clean_sbu_0, # of connection points: 4
#     Node 4, Type 1, BuildingBlock: NAWXER_clean_sbu_0, # of connection points: 4
#     Node 5, Type 1, BuildingBlock: NAWXER_clean_sbu_0, # of connection points: 4
#     Edge 6, Type (0, 1), BuildingBlock: XUDNAN_clean_linker_2, # of connection points: 2
#     Edge 7, Type (0, 1), BuildingBlock: XUDNAN_clean_linker_2, # of connection points: 2
#     Edge 8, Type (0, 1), BuildingBlock: XUDNAN_clean_linker_2, # of connection points: 2
#     Edge 9, Type (0, 1), BuildingBlock: XUDNAN_clean_linker_2, # of connection points: 2
#     Edge 10, Type (0, 1), BuildingBlock: XUDNAN_clean_linker_2, # of connection points: 2
#     Edge 11, Type (0, 1), BuildingBlock: XUDNAN_clean_linker_2, # of connection points: 2
#     Edge 12, Type (0, 1), BuildingBlock: XUDNAN_clean_linker_2, # of connection points: 2
#     Edge 13, Type (0, 1), BuildingBlock: XUDNAN_clean_linker_2, # of connection points: 2
#     Edge 14, Type (0, 1), BuildingBlock: XUDNAN_clean_linker_2, # of connection points: 2
#     Edge 15, Type (0, 1), BuildingBlock: XUDNAN_clean_linker_2, # of connection points: 2
#     Edge 16, Type (0, 1), BuildingBlock: XUDNAN_clean_linker_2, # of connection points: 2
#     Edge 17, Type (0, 1), BuildingBlock: XUDNAN_clean_linker_2, # of connection points: 2
# Relax obj value: 0.024
# Max RMSD: 0.121
# Mean RMSD: 0.064
data_MOF--net-pth--node1-QUQFOY_clean_sbu_1--node2-NAWXER_clean_sbu_0--edge1-XUDNAN_clean_linker_2
_symmetry_space_group_name_H-M    P1
_symmetry_Int_Tables_number       1
_symmetry_cell_setting            triclinic
loop_
_symmetry_equiv_pos_as_xyz
'x, y, z'
_cell_length_a     22.04849
_cell_length_b     23.780876
_cell_length_c     57.402158
_cell_angle_alpha  90.255202
_cell_angle_beta   89.963201
_cell_angle_gamma 120.19244
loop_
_atom_site_label
_atom_site_type_symbol
_atom_site_fract_x
_atom_site_fract_y
_atom_site_fract_z
_atom_type_partial_charge
O0 O 0.99798 0.09995 0.05268 0.0
Cd1 Cd 0.93282 0.02854 0.07555 0.0
Cd2 Cd 0.04145 1.00626 0.07713 0.0
O3 O 0.09409 0.09945 0.06294 0.0
O4 O 0.86703 0.05635 0.08777 0.0
O5 O 0.95103 0.05683 0.1091 0.0
C6 C 0.90203 0.0713 0.10704 0.0
C7 C 0.0876 0.96778 0.10552 0.0
C8 C 0.0643 0.12557 0.052 0.0
C9 C 0.90813 0.90486 0.05424 0.0
O10 O 0.97424 0.93041 0.05593 0.0
O11 O 0.87756 0.93324 0.0631 0.0
O12 O 0.11405 0.98257 0.08491 0.0
O13 O 0.03864 0.98039 0.11079 0.0
O14 O 0.95914 0.07776 0.42336 0.0
Cd15 Cd 0.04949 0.09877 0.40585 0.0
Cd16 Cd 0.98815 0.9675 0.40682 0.0
O17 O 0.90174 0.97107 0.41913 0.0
O18 O 0.08639 0.19104 0.3961 0.0
O19 O 0.0584 0.11071 0.37098 0.0
C20 C 0.08007 0.17146 0.37481 0.0
C21 C 0.98738 0.91029 0.37362 0.0
C22 C 0.9043 0.02286 0.42641 0.0
C23 C 0.11904 0.04331 0.43522 0.0
O24 O 0.06641 0.98762 0.43077 0.0
O25 O 0.12493 0.09408 0.42567 0.0
O26 O 0.95831 0.88022 0.39271 0.0
O27 O 0.01389 0.97269 0.37314 0.0
O28 O 0.92599 0.93191 0.72001 0.0
Cd29 Cd 0.99581 0.93456 0.74445 0.0
Cd30 Cd 0.0372 0.05807 0.74252 0.0
O31 O 0.93661 0.02607 0.72986 0.0
O32 O 0.95488 0.84207 0.7546 0.0
O33 O 0.95662 0.91858 0.77707 0.0
C34 C 0.93645 0.858 0.77374 0.0
C35 C 0.08755 0.10299 0.77847 0.0
C36 C 0.90391 0.97197 0.71898 0.0
C37 C 0.13374 0.02305 0.72211 0.0
O38 O 0.10908 0.06064 0.71925 0.0
O39 O 0.10127 0.97284 0.73495 0.0
O40 O 0.08322 0.13884 0.7624 0.0
O41 O 0.05755 0.04116 0.77469 0.0
C42 C 0.01314 0.60344 0.26426 0.0
C43 C 0.96107 0.4281 0.20858 0.0
O44 O 0.06864 0.60875 0.25485 0.0
Zn45 Zn 0.09451 0.55462 0.23016 0.0
O46 O 0.95359 0.55439 0.25951 0.0
Zn47 Zn 0.98703 0.51616 0.23667 0.0
O48 O 0.03802 0.47753 0.25837 0.0
O49 O 0.14928 0.52721 0.24779 0.0
O50 O 0.91833 0.43958 0.21952 0.0
O51 O 0.02713 0.46728 0.21095 0.0
O52 O 0.14216 0.61884 0.20638 0.0
O53 O 0.03173 0.59293 0.21062 0.0
C54 C 0.09994 0.48573 0.26046 0.0
C55 C 0.09191 0.62797 0.20098 0.0
C56 C 0.55317 0.95986 0.61127 0.0
C57 C 0.41506 1.01133 0.55682 0.0
O58 O 0.49391 0.91773 0.6028 0.0
Zn59 Zn 0.47915 0.97829 0.58353 0.0
O60 O 0.58152 0.01915 0.60482 0.0
Zn61 Zn 0.56385 0.08077 0.58323 0.0
O62 O 0.56125 0.14 0.6066 0.0
O63 O 0.47288 0.03867 0.60954 0.0
O64 O 0.47503 0.0586 0.5629 0.0
O65 O 0.39471 0.95442 0.56463 0.0
O66 O 0.55482 1.00283 0.55714 0.0
O67 O 0.63692 0.10632 0.55922 0.0
C68 C 0.50549 0.09762 0.61676 0.0
C69 C 0.61113 0.05102 0.5492 0.0
C70 C 0.39879 0.46096 0.94723 0.0
C71 C 0.573 0.57191 0.885 0.0
O72 O 0.40263 0.50689 0.93475 0.0
Zn73 Zn 0.48396 0.52066 0.916 0.0
O74 O 0.44225 0.44108 0.94384 0.0
Zn75 Zn 0.52758 0.45794 0.92244 0.0
O76 O 0.60362 0.48664 0.94513 0.0
O77 O 0.5645 0.5553 0.94164 0.0
O78 O 0.57572 0.52536 0.89509 0.0
O79 O 0.52842 0.58766 0.89173 0.0
O80 O 0.43797 0.43228 0.89628 0.0
O81 O 0.48738 0.37473 0.90606 0.0
C82 C 0.60594 0.53924 0.95126 0.0
C83 C 0.44243 0.38084 0.89405 0.0
H84 H 0.999 0.1574 0.13793 0.0
H85 H 0.78373 0.07845 0.1151 0.0
H86 H 0.77261 0.15716 0.14049 0.0
H87 H 0.97678 0.19848 0.19848 0.0
H88 H 0.0604 0.27288 0.19835 0.0
H89 H 0.04776 0.2044 0.18103 0.0
H90 H 0.08712 0.27708 0.14428 0.0
H91 H 0.09901 0.3455 0.16138 0.0
H92 H 0.04198 0.31976 0.1363 0.0
H93 H 0.78778 0.24974 0.16669 0.0
H94 H 0.82872 0.34924 0.1907 0.0
H95 H 0.03627 0.37143 0.1941 0.0
C96 C 0.94884 0.15531 0.13885 0.0
C97 C 0.89176 0.111 0.12488 0.0
C98 C 0.82781 0.11144 0.12589 0.0
C99 C 0.82106 0.15603 0.14024 0.0
C100 C 0.87902 0.20039 0.1533 0.0
C101 C 0.94169 0.2003 0.15273 0.0
C102 C 0.99789 0.25653 0.16676 0.0
C103 C 0.02212 0.23157 0.18738 0.0
C104 C 0.06015 0.30241 0.15125 0.0
C105 C 0.95743 0.2888 0.17504 0.0
C106 C 0.88868 0.25526 0.1674 0.0
C107 C 0.84149 0.27625 0.17281 0.0
C108 C 0.86521 0.33287 0.18642 0.0
C109 C 0.93578 0.36846 0.19413 0.0
C110 C 0.98216 0.34577 0.1883 0.0
H111 H 0.90943 0.11598 0.45592 0.0
H112 H 0.76945 0.92078 0.42981 0.0
H113 H 0.67705 0.91121 0.45662 0.0
H114 H 0.86205 0.08081 0.51452 0.0
H115 H 0.86831 0.15757 0.52142 0.0
H116 H 0.92075 0.15272 0.49832 0.0
H117 H 0.86936 0.20124 0.46939 0.0
H118 H 0.81704 0.20673 0.49245 0.0
H119 H 0.77556 0.16313 0.46601 0.0
H120 H 0.60395 0.91937 0.48778 0.0
H121 H 0.55301 0.94315 0.52172 0.0
H122 H 0.74096 0.13297 0.52897 0.0
C123 C 0.85877 0.07176 0.45542 0.0
C124 C 0.84632 0.01925 0.44056 0.0
C125 C 0.77997 0.96166 0.44091 0.0
C126 C 0.7272 0.95587 0.45605 0.0
C127 C 0.74178 1.00801 0.47078 0.0
C128 C 0.80582 0.06491 0.47061 0.0
C129 C 0.80961 0.11167 0.48944 0.0
C130 C 0.86868 0.12653 0.50696 0.0
C131 C 0.8184 0.17441 0.47867 0.0
C132 C 0.73794 0.07167 0.5005 0.0
C133 C 0.69969 1.01234 0.48926 0.0
C134 C 0.63314 0.9658 0.49662 0.0
C135 C 0.60485 0.97988 0.51605 0.0
C136 C 0.64299 0.04005 0.52815 0.0
C137 C 0.71032 0.0868 0.52006 0.0
H138 H 0.85992 0.87066 0.80924 0.0
H139 H 0.90093 0.73036 0.77468 0.0
H140 H 0.81002 0.64283 0.79871 0.0
H141 H 0.82497 0.79679 0.86706 0.0
H142 H 0.75597 0.81428 0.87326 0.0
H143 H 0.82685 0.86666 0.85418 0.0
H144 H 0.73674 0.84972 0.82204 0.0
H145 H 0.66561 0.79651 0.84089 0.0
H146 H 0.67422 0.76834 0.81255 0.0
H147 H 0.71413 0.57049 0.82529 0.0
H148 H 0.62155 0.5168 0.85475 0.0
H149 H 0.63783 0.7018 0.87202 0.0
C150 C 0.8506 0.82169 0.80703 0.0
C151 C 0.88794 0.80739 0.79016 0.0
C152 C 0.87331 0.74253 0.78753 0.0
C153 C 0.82158 0.69244 0.80104 0.0
C154 C 0.78461 0.70786 0.81706 0.0
C155 C 0.79857 0.77083 0.82029 0.0
C156 C 0.74992 0.77354 0.83848 0.0
C157 C 0.79194 0.81528 0.85949 0.0
C158 C 0.7039 0.79851 0.82785 0.0
C159 C 0.70642 0.70215 0.84492 0.0
C160 C 0.72767 0.66543 0.83228 0.0
C161 C 0.69702 0.59865 0.8353 0.0
C162 C 0.64438 0.56863 0.85206 0.0
C163 C 0.6223 0.60506 0.86559 0.0
C164 C 0.65293 0.67264 0.86168 0.0
H165 H 1.00905 0.88533 0.14075 0.0
H166 H 0.20782 0.96155 0.10466 0.0
H167 H 0.23196 0.88493 0.12599 0.0
H168 H 0.0667 0.8517 0.19711 0.0
H169 H 0.98434 0.77764 0.20146 0.0
H170 H 0.98684 0.84384 0.18548 0.0
H171 H 0.92538 0.76604 0.15063 0.0
H172 H 0.92374 0.69992 0.16631 0.0
H173 H 0.96427 0.72203 0.138 0.0
H174 H 0.23083 0.79488 0.14906 0.0
H175 H 0.20648 0.70036 0.17335 0.0
H176 H 1.00625 0.67942 0.19342 0.0
C177 C 0.05861 0.88726 0.13788 0.0
C178 C 0.10706 0.93009 0.12126 0.0
C179 C 0.1703 0.92963 0.11746 0.0
C180 C 0.18438 0.88615 0.12946 0.0
C181 C 0.13453 0.84306 0.14513 0.0
C182 C 0.07311 0.84352 0.14952 0.0
C183 C 0.02632 0.78932 0.1661 0.0
C184 C 0.01543 0.81731 0.18889 0.0
C185 C 0.95577 0.74151 0.15456 0.0
C186 C 0.07057 0.75783 0.17007 0.0
C187 C 0.13301 0.78991 0.15795 0.0
C188 C 0.18226 0.76958 0.15873 0.0
C189 C 0.16781 0.71564 0.17251 0.0
C190 C 0.10431 0.68211 0.18522 0.0
C191 C 0.05501 0.70353 0.18378 0.0
H192 H 0.12562 0.94559 0.45893 0.0
H193 H 0.23097 0.15575 0.45142 0.0
H194 H 0.31391 0.1682 0.48238 0.0
H195 H 0.1415 0.9435 0.52112 0.0
H196 H 0.15824 0.87671 0.5214 0.0
H197 H 0.10658 0.88289 0.49832 0.0
H198 H 0.1908 0.87958 0.46759 0.0
H199 H 0.24234 0.87275 0.49056 0.0
H200 H 0.28347 0.93734 0.46956 0.0
H201 H 0.38205 0.15957 0.51442 0.0
H202 H 0.4407 0.1309 0.54427 0.0
H203 H 0.29554 0.92532 0.5315 0.0
C204 C 0.16641 0.99422 0.4637 0.0
C205 C 0.17158 0.04977 0.45272 0.0
C206 C 0.22579 0.11247 0.45949 0.0
C207 C 0.27307 0.1201 0.47714 0.0
C208 C 0.26579 0.0646 0.48781 0.0
C209 C 0.21452 1.00281 0.48128 0.0
C210 C 0.21947 0.95157 0.49558 0.0
C211 C 0.15245 0.9113 0.50996 0.0
C212 C 0.23496 0.90773 0.47988 0.0
C213 C 0.28161 0.99449 0.51116 0.0
C214 C 0.30676 0.05945 0.50636 0.0
C215 C 0.36325 0.10893 0.51827 0.0
C216 C 0.39619 0.09186 0.53525 0.0
C217 C 0.37318 0.02566 0.54021 0.0
C218 C 0.31429 0.97624 0.52818 0.0
H219 H 0.15735 0.23151 0.79226 0.0
H220 H 0.12199 0.04091 0.81138 0.0
H221 H 0.21006 0.09084 0.84272 0.0
H222 H 0.34043 0.31814 0.80109 0.0
H223 H 0.34376 0.38969 0.8132 0.0
H224 H 0.27516 0.33896 0.79301 0.0
H225 H 0.1808 0.32478 0.82308 0.0
H226 H 0.24915 0.37636 0.84323 0.0
H227 H 0.18263 0.29583 0.8519 0.0
H228 H 0.30958 0.16311 0.87018 0.0
H229 H 0.40191 0.25082 0.89448 0.0
H230 H 0.3688 0.3928 0.85814 0.0
C231 C 0.16717 0.20011 0.80329 0.0
C232 C 0.13255 0.13223 0.79933 0.0
C233 C 0.14743 0.09299 0.8141 0.0
C234 C 0.19774 0.12094 0.83191 0.0
C235 C 0.23236 0.18818 0.83492 0.0
C236 C 0.21682 0.22713 0.82128 0.0
C237 C 0.26163 0.29809 0.82806 0.0
C238 C 0.30798 0.33857 0.80762 0.0
C239 C 0.21581 0.32535 0.83711 0.0
C240 C 0.30525 0.29302 0.84743 0.0
C241 C 0.28811 0.22935 0.85104 0.0
C242 C 0.32298 0.21312 0.86764 0.0
C243 C 0.37567 0.26322 0.88125 0.0
C244 C 0.39236 0.32853 0.87828 0.0
C245 C 0.35693 0.34328 0.86096 0.0
H246 H 0.85842 0.05362 0.7033 0.0
H247 H 0.80725 0.85197 0.70209 0.0
H248 H 0.70552 0.8239 0.67668 0.0
H249 H 0.67781 0.02254 0.70237 0.0
H250 H 0.69962 0.09035 0.68343 0.0
H251 H 0.76453 0.09322 0.70322 0.0
H252 H 0.84949 0.11589 0.66866 0.0
H253 H 0.78494 0.11313 0.64881 0.0
H254 H 0.82076 0.06053 0.64421 0.0
H255 H 0.61142 0.81895 0.64945 0.0
H256 H 0.53836 0.8399 0.62179 0.0
H257 H 0.6541 0.04444 0.64077 0.0
C258 C 0.82521 1.00339 0.69801 0.0
C259 C 0.84074 0.95504 0.70479 0.0
C260 C 0.79651 0.88999 0.69712 0.0
C261 C 0.73834 0.87342 0.68274 0.0
C262 C 0.72498 0.92242 0.67611 0.0
C263 C 0.76731 0.98611 0.68349 0.0
C264 C 0.74453 0.03046 0.67274 0.0
C265 C 0.72017 0.06092 0.69157 0.0
C266 C 0.80342 0.08307 0.65771 0.0
C267 C 0.68363 0.98207 0.65792 0.0
C268 C 0.6723 0.91979 0.66022 0.0
C269 C 0.61964 0.86756 0.64761 0.0
C270 C 0.5783 0.87974 0.63199 0.0
C271 C 0.59076 0.94371 0.629 0.0
C272 C 0.64344 0.99493 0.64248 0.0
H273 H 0.77848 0.85336 0.03329 0.0
H274 H 0.948 0.81488 0.04645 0.0
H275 H 0.88571 0.71298 0.02374 0.0
H276 H 0.63432 0.68389 0.03466 0.0
H277 H 0.5877 0.69556 1.01114 0.0
H278 H 0.64262 0.76247 0.03023 0.0
H279 H 0.71192 0.83151 0.99457 0.0
H280 H 0.65734 0.76484 0.97542 0.0
H281 H 0.7513 0.80018 0.97471 0.0
H282 H 0.80702 0.61699 0.99799 0.0
H283 H 0.7203 0.5377 0.96999 0.0
H284 H 0.60496 0.64123 0.97284 0.0
C285 C 0.80185 0.82292 0.03171 0.0
C286 C 0.8679 0.84193 0.04175 0.0
C287 C 0.89743 0.80135 0.0389 0.0
C288 C 0.86235 0.74319 0.0261 0.0
C289 C 0.79782 0.72626 1.01612 0.0
C290 C 0.76792 0.76502 1.01872 0.0
C291 C 0.70034 0.73796 1.00496 0.0
C292 C 0.63753 0.71883 1.02122 0.0
C293 C 0.70559 0.78651 0.98631 0.0
C294 C 0.69743 0.67854 0.99404 0.0
C295 C 0.7536 0.67207 1.00087 0.0
C296 C 0.76257 0.6214 0.99259 0.0
C297 C 0.7131 0.57656 0.97672 0.0
C298 C 0.65598 0.58326 0.96915 0.0
C299 C 0.64809 0.63469 0.97819 0.0
H300 H 0.91482 0.77845 0.36494 0.0
H301 H 0.07904 0.96217 0.33739 0.0
H302 H 0.10236 0.90322 0.30642 0.0
H303 H 0.99818 0.68679 0.35519 0.0
H304 H 0.92 0.61326 0.34634 0.0
H305 H 0.91363 0.6695 0.36588 0.0
H306 H 0.82651 0.67766 0.33779 0.0
H307 H 0.83198 0.62083 0.31826 0.0
H308 H 0.85093 0.69936 0.30778 0.0
H309 H 0.11585 0.82455 0.28099 0.0
H310 H 0.10846 0.73159 0.25923 0.0
H311 H 0.92974 0.59831 0.30104 0.0
C312 C 0.95506 0.80627 0.3522 0.0
C313 C 0.99526 0.87497 0.3536 0.0
C314 C 0.04735 0.90962 0.33659 0.0
C315 C 0.06123 0.87654 0.319 0.0
C316 C 0.02173 0.80882 0.3184 0.0
C317 C 0.96873 0.77403 0.33423 0.0
C318 C 0.93381 0.70144 0.32951 0.0
C319 C 0.94192 0.66566 0.35048 0.0
C320 C 0.8562 0.67317 0.32294 0.0
C321 C 0.97644 0.70085 0.30886 0.0
C322 C 0.02732 0.76338 0.30292 0.0
C323 C 0.07565 0.77543 0.28527 0.0
C324 C 0.07136 0.72229 0.27313 0.0
C325 C 0.01848 0.65786 0.27843 0.0
C326 C 0.9703 0.64712 0.29651 0.0
H327 H 0.18545 0.08558 0.68079 0.0
H328 H 0.23355 0.99669 0.73826 0.0
H329 H 0.34767 0.02675 0.72002 0.0
H330 H 0.25061 0.0255 0.63733 0.0
H331 H 0.28298 0.09618 0.61901 0.0
H332 H 0.21043 0.07538 0.63825 0.0
H333 H 0.27884 0.19066 0.65668 0.0
H334 H 0.35229 0.21119 0.63774 0.0
H335 H 0.36479 0.21883 0.66887 0.0
H336 H 0.45258 0.0602 0.69449 0.0
H337 H 0.53018 0.07732 0.66091 0.0
H338 H 0.41154 0.13953 0.61913 0.0
C339 C 0.22055 0.07332 0.68968 0.0
C340 C 0.2012 0.03943 0.71104 0.0
C341 C 0.24752 0.02268 0.72189 0.0
C342 C 0.31269 0.0402 0.71178 0.0
C343 C 0.3304 0.07392 0.69073 0.0
C344 C 0.28507 0.08926 0.6796 0.0
C345 C 0.31263 0.11842 0.65581 0.0
C346 C 0.26113 0.07635 0.63647 0.0
C347 C 0.32805 0.18897 0.65472 0.0
C348 C 0.37984 0.11574 0.65503 0.0
C349 C 0.39008 0.09159 0.67563 0.0
C350 C 0.44583 0.08026 0.67847 0.0
C351 C 0.49016 0.09084 0.65942 0.0
C352 C 0.4782 0.11209 0.63785 0.0
C353 C 0.42359 0.1263 0.63581 0.0
H354 H 0.20458 0.18501 0.04133 0.0
H355 H 0.01879 0.20061 0.0305 0.0
H356 H 0.087 0.29632 1.00542 0.0
H357 H 0.33266 0.36017 0.04164 0.0
H358 H 0.39725 0.34936 0.02615 0.0
H359 H 0.33526 0.28607 0.045 0.0
H360 H 0.29563 0.20342 1.01078 0.0
H361 H 0.35757 0.26631 0.99191 0.0
H362 H 0.26605 0.22121 0.984 0.0
H363 H 0.17492 0.38665 0.97887 0.0
H364 H 0.2727 0.45879 0.95255 0.0
H365 H 0.39869 0.38276 0.98148 0.0
C366 C 0.17839 0.20909 0.03401 0.0
C367 C 0.10633 0.18525 0.03799 0.0
C368 C 0.07399 0.21786 0.02775 0.0
C369 C 0.11238 0.27252 1.01353 0.0
C370 C 0.18319 0.29429 1.00974 0.0
C371 C 0.21579 0.26349 1.01973 0.0
C372 C 0.29106 0.29347 1.01176 0.0
C373 C 0.34206 0.3241 0.03237 0.0
C374 C 0.30324 0.24311 0.99884 0.0
C375 C 0.29536 0.34501 0.99538 0.0
C376 C 0.23309 0.34551 0.99454 0.0
C377 C 0.22422 0.38713 0.97959 0.0
C378 C 0.28001 0.42811 0.96476 0.0
C379 C 0.3433 0.4265 0.96493 0.0
C380 C 0.35107 0.38539 0.98089 0.0
H381 H 0.03434 0.25787 0.37064 0.0
H382 H 0.1559 0.18609 0.33534 0.0
H383 H 0.18073 0.26431 0.30322 0.0
H384 H 0.95256 0.27126 0.31848 0.0
H385 H 0.95051 0.34238 0.32831 0.0
H386 H 0.94759 0.28477 0.34918 0.0
H387 H 0.05616 0.37725 0.37026 0.0
H388 H 0.05967 0.4351 0.34936 0.0
H389 H 0.13553 0.42664 0.35402 0.0
H390 H 0.1954 0.35368 0.2758 0.0
H391 H 0.18414 0.43469 0.25212 0.0
H392 H 0.04137 0.43851 0.30323 0.0
C393 C 0.06673 0.25922 0.35621 0.0
C394 C 0.09438 0.21707 0.35549 0.0
C395 C 0.13483 0.21854 0.33615 0.0
C396 C 0.14935 0.26289 0.31795 0.0
C397 C 0.12147 0.30412 0.31918 0.0
C398 C 0.07974 0.30162 0.33759 0.0
C399 C 0.05134 0.3472 0.33385 0.0
C400 C 0.97073 0.30912 0.33236 0.0
C401 C 0.07725 0.39966 0.35301 0.0
C402 C 0.08401 0.37622 0.31053 0.0
C403 C 0.12545 0.35174 0.30259 0.0
C404 C 0.16267 0.37275 0.28177 0.0
C405 C 0.15632 0.41902 0.26852 0.0
C406 C 0.11184 0.4426 0.27587 0.0
C407 C 0.0755 0.421 0.29719 0.0
loop_
_geom_bond_atom_site_label_1
_geom_bond_atom_site_label_2
_geom_bond_distance
_geom_bond_site_symmetry_2
_ccdc_geom_bond_type
O0 Cd1 2.223 1_455 S
O0 C8 1.315 . S
Cd1 O0 2.223 1_655 S
Cd1 O4 2.297 . S
Cd1 O5 2.439 . S
Cd1 O11 2.240 1_545 S
Cd2 O3 2.240 1_565 S
Cd2 O10 2.223 1_455 S
Cd2 O12 2.297 . S
Cd2 O13 2.439 . S
O3 Cd2 2.240 1_545 S
O3 C8 1.279 . S
O4 Cd1 2.297 . S
O4 C6 1.247 . S
O5 Cd1 2.439 . S
O5 C6 1.208 . S
C6 O4 1.247 . S
C6 O5 1.208 . S
C7 O12 1.247 . S
C7 O13 1.208 . S
C8 O0 1.315 . S
C8 O3 1.279 . S
C9 O10 1.315 . S
C9 O11 1.279 . S
O10 Cd2 2.223 1_655 S
O10 C9 1.315 . S
O11 Cd1 2.240 1_565 S
O11 C9 1.279 . S
O12 Cd2 2.297 . S
O12 C7 1.247 . S
O13 Cd2 2.439 . S
O13 C7 1.208 . S
O14 Cd15 2.223 1_655 S
O14 C22 1.315 . S
Cd15 O14 2.223 1_455 S
Cd15 O18 2.297 . S
Cd15 O19 2.439 . S
Cd15 O25 2.240 . S
Cd16 O17 2.240 . S
Cd16 O24 2.223 1_655 S
Cd16 O26 2.297 . S
Cd16 O27 2.439 . S
O17 Cd16 2.240 . S
O17 C22 1.279 1_565 S
O18 Cd15 2.297 . S
O18 C20 1.247 . S
O19 Cd15 2.439 . S
O19 C20 1.208 . S
C20 O18 1.247 . S
C20 O19 1.208 . S
C21 O26 1.247 . S
C21 O27 1.208 . S
C22 O14 1.315 . S
C22 O17 1.279 1_545 S
C23 O24 1.315 . S
C23 O25 1.279 1_565 S
O24 Cd16 2.223 1_455 S
O24 C23 1.315 . S
O25 Cd15 2.240 . S
O25 C23 1.279 1_545 S
O26 Cd16 2.297 . S
O26 C21 1.247 . S
O27 Cd16 2.439 . S
O27 C21 1.208 . S
O28 Cd29 2.223 . S
O28 C36 1.315 . S
Cd29 O28 2.223 . S
Cd29 O32 2.297 . S
Cd29 O33 2.439 . S
Cd29 O39 2.240 1_655 S
Cd30 O31 2.240 1_455 S
Cd30 O38 2.223 . S
Cd30 O40 2.297 . S
Cd30 O41 2.439 . S
O31 Cd30 2.240 1_655 S
O31 C36 1.279 1_545 S
O32 Cd29 2.297 . S
O32 C34 1.247 . S
O33 Cd29 2.439 . S
O33 C34 1.208 . S
C34 O32 1.247 . S
C34 O33 1.208 . S
C35 O40 1.247 . S
C35 O41 1.208 . S
C36 O28 1.315 . S
C36 O31 1.279 1_565 S
C37 O38 1.315 . S
C37 O39 1.279 1_545 S
O38 Cd30 2.223 . S
O38 C37 1.315 . S
O39 Cd29 2.240 1_455 S
O39 C37 1.279 1_565 S
O40 Cd30 2.297 . S
O40 C35 1.247 . S
O41 Cd30 2.439 . S
O41 C35 1.208 . S
C42 O44 1.252 . S
C42 O46 1.255 1_455 S
C43 O50 1.248 . S
C43 O51 1.257 1_655 S
O44 C42 1.252 . S
O44 Zn45 2.028 . S
Zn45 O44 2.028 . S
Zn45 O49 2.035 . S
Zn45 O51 2.035 . S
Zn45 O52 2.028 . S
O46 C42 1.255 1_655 S
O46 Zn47 2.035 . S
Zn47 O46 2.035 . S
Zn47 O48 2.028 . S
Zn47 O50 2.028 . S
Zn47 O53 2.035 . S
O48 Zn47 2.028 . S
O48 C54 1.248 . S
O49 Zn45 2.035 . S
O49 C54 1.257 1_455 S
O50 C43 1.248 . S
O50 Zn47 2.028 . S
O51 C43 1.257 1_455 S
O51 Zn45 2.035 . S
O52 Zn45 2.028 . S
O52 C55 1.252 . S
O53 Zn47 2.035 . S
O53 C55 1.255 1_655 S
C54 O48 1.248 . S
C54 O49 1.257 1_655 S
C55 O52 1.252 . S
C55 O53 1.255 1_455 S
C56 O58 1.247 . S
C56 O60 1.258 1_565 S
C57 O64 1.250 . S
C57 O65 1.253 1_545 S
O58 C56 1.247 . S
O58 Zn59 2.028 . S
Zn59 O58 2.028 . S
Zn59 O63 2.035 . S
Zn59 O65 2.035 . S
Zn59 O66 2.028 . S
O60 C56 1.258 1_545 S
O60 Zn61 2.035 . S
Zn61 O60 2.035 . S
Zn61 O62 2.028 . S
Zn61 O64 2.028 . S
Zn61 O67 2.035 . S
O62 Zn61 2.028 . S
O62 C68 1.250 . S
O63 Zn59 2.035 . S
O63 C68 1.253 1_565 S
O64 C57 1.250 . S
O64 Zn61 2.028 . S
O65 C57 1.253 1_565 S
O65 Zn59 2.035 . S
O66 Zn59 2.028 . S
O66 C69 1.247 . S
O67 Zn61 2.035 . S
O67 C69 1.258 1_545 S
C68 O62 1.250 . S
C68 O63 1.253 1_545 S
C69 O66 1.247 . S
C69 O67 1.258 1_565 S
C70 O72 1.247 . S
C70 O74 1.258 . S
C71 O78 1.247 . S
C71 O79 1.258 . S
O72 C70 1.247 . S
O72 Zn73 2.028 . S
Zn73 O72 2.028 . S
Zn73 O77 2.035 . S
Zn73 O79 2.035 . S
Zn73 O80 2.028 . S
O74 C70 1.258 . S
O74 Zn75 2.035 . S
Zn75 O74 2.035 . S
Zn75 O76 2.028 . S
Zn75 O78 2.028 . S
Zn75 O81 2.035 . S
O76 Zn75 2.028 . S
O76 C82 1.247 . S
O77 Zn73 2.035 . S
O77 C82 1.258 . S
O78 C71 1.247 . S
O78 Zn75 2.028 . S
O79 C71 1.258 . S
O79 Zn73 2.035 . S
O80 Zn73 2.028 . S
O80 C83 1.247 . S
O81 Zn75 2.035 . S
O81 C83 1.258 . S
C82 O76 1.247 . S
C82 O77 1.258 . S
C83 O80 1.247 . S
C83 O81 1.258 . S
H84 C96 0.930 . S
H85 C98 0.930 . S
H86 C99 0.930 . S
H87 C103 0.959 . S
H88 C103 0.959 . S
H89 C103 0.961 . S
H90 C104 0.960 . S
H91 C104 0.961 . S
H92 C104 0.959 . S
H93 C107 0.929 . S
H94 C108 0.931 . S
H95 C110 0.930 . S
C96 H84 0.930 . S
C96 C97 1.399 1_455 S
C96 C101 1.399 . S
C97 C96 1.399 1_655 S
C97 C98 1.376 . S
C98 H85 0.930 . S
C98 C97 1.376 . S
C98 C99 1.388 . S
C99 H86 0.930 . S
C99 C98 1.388 . S
C99 C100 1.390 . S
C100 C99 1.390 . S
C100 C101 1.394 1_655 S
C100 C106 1.465 . S
C101 C96 1.399 . S
C101 C100 1.394 1_455 S
C101 C102 1.516 . S
C102 C101 1.516 . S
C102 C103 1.502 . S
C102 C104 1.561 . S
C102 C105 1.526 . S
C103 H87 0.959 . S
C103 H88 0.959 . S
C103 H89 0.961 . S
C103 C102 1.502 . S
C104 H90 0.960 . S
C104 H91 0.961 . S
C104 H92 0.959 . S
C104 C102 1.561 . S
C105 C102 1.526 . S
C105 C106 1.396 1_455 S
C105 C110 1.390 . S
C106 C100 1.465 . S
C106 C105 1.396 1_655 S
C106 C107 1.399 . S
C107 H93 0.929 . S
C107 C106 1.399 . S
C107 C108 1.385 . S
C108 H94 0.931 . S
C108 C107 1.385 . S
C108 C109 1.389 . S
C109 C108 1.389 . S
C109 C110 1.387 1_655 S
C110 H95 0.930 . S
C110 C105 1.390 . S
C110 C109 1.387 1_455 S
H111 C123 0.930 . S
H112 C125 0.930 . S
H113 C126 0.930 . S
H114 C130 0.959 . S
H115 C130 0.959 . S
H116 C130 0.961 . S
H117 C131 0.960 . S
H118 C131 0.961 . S
H119 C131 0.959 . S
H120 C134 0.929 . S
H121 C135 0.931 . S
H122 C137 0.930 . S
C123 H111 0.930 . S
C123 C124 1.393 1_545 S
C123 C128 1.399 . S
C124 C123 1.393 1_565 S
C124 C125 1.381 . S
C125 H112 0.930 . S
C125 C124 1.381 . S
C125 C126 1.388 . S
C126 H113 0.930 . S
C126 C125 1.388 . S
C126 C127 1.390 . S
C127 C126 1.390 . S
C127 C128 1.394 1_565 S
C127 C133 1.465 . S
C128 C123 1.399 . S
C128 C127 1.394 1_545 S
C128 C129 1.516 . S
C129 C128 1.516 . S
C129 C130 1.502 . S
C129 C131 1.561 . S
C129 C132 1.526 . S
C130 H114 0.959 . S
C130 H115 0.959 . S
C130 H116 0.961 . S
C130 C129 1.502 . S
C131 H117 0.960 . S
C131 H118 0.961 . S
C131 H119 0.959 . S
C131 C129 1.561 . S
C132 C129 1.526 . S
C132 C133 1.396 1_545 S
C132 C137 1.390 . S
C133 C127 1.465 . S
C133 C132 1.396 1_565 S
C133 C134 1.399 . S
C134 H120 0.929 . S
C134 C133 1.399 . S
C134 C135 1.385 . S
C135 H121 0.931 . S
C135 C134 1.385 . S
C135 C136 1.389 . S
C136 C135 1.389 . S
C136 C137 1.387 1_565 S
C137 H122 0.930 . S
C137 C132 1.390 . S
C137 C136 1.387 1_545 S
H138 C150 0.930 . S
H139 C152 0.930 . S
H140 C153 0.930 . S
H141 C157 0.959 . S
H142 C157 0.959 . S
H143 C157 0.961 . S
H144 C158 0.960 . S
H145 C158 0.961 . S
H146 C158 0.959 . S
H147 C161 0.929 . S
H148 C162 0.931 . S
H149 C164 0.930 . S
C150 H138 0.930 . S
C150 C151 1.399 . S
C150 C155 1.399 . S
C151 C150 1.399 . S
C151 C152 1.376 . S
C152 H139 0.930 . S
C152 C151 1.376 . S
C152 C153 1.388 . S
C153 H140 0.930 . S
C153 C152 1.388 . S
C153 C154 1.390 . S
C154 C153 1.390 . S
C154 C155 1.394 . S
C154 C160 1.465 . S
C155 C150 1.399 . S
C155 C154 1.394 . S
C155 C156 1.516 . S
C156 C155 1.516 . S
C156 C157 1.502 . S
C156 C158 1.561 . S
C156 C159 1.526 . S
C157 H141 0.959 . S
C157 H142 0.959 . S
C157 H143 0.961 . S
C157 C156 1.502 . S
C158 H144 0.960 . S
C158 H145 0.961 . S
C158 H146 0.959 . S
C158 C156 1.561 . S
C159 C156 1.526 . S
C159 C160 1.396 . S
C159 C164 1.390 . S
C160 C154 1.465 . S
C160 C159 1.396 . S
C160 C161 1.399 . S
C161 H147 0.929 . S
C161 C160 1.399 . S
C161 C162 1.385 . S
C162 H148 0.931 . S
C162 C161 1.385 . S
C162 C163 1.389 . S
C163 C162 1.389 . S
C163 C164 1.387 . S
C164 H149 0.930 . S
C164 C159 1.390 . S
C164 C163 1.387 . S
H165 C177 0.930 . S
H166 C179 0.930 . S
H167 C180 0.930 . S
H168 C184 0.959 . S
H169 C184 0.959 . S
H170 C184 0.961 . S
H171 C185 0.960 . S
H172 C185 0.961 . S
H173 C185 0.959 . S
H174 C188 0.929 . S
H175 C189 0.931 . S
H176 C191 0.930 . S
C177 H165 0.930 . S
C177 C178 1.399 1_655 S
C177 C182 1.399 . S
C178 C177 1.399 1_455 S
C178 C179 1.376 . S
C179 H166 0.930 . S
C179 C178 1.376 . S
C179 C180 1.388 . S
C180 H167 0.930 . S
C180 C179 1.388 . S
C180 C181 1.390 . S
C181 C180 1.390 . S
C181 C182 1.394 1_455 S
C181 C187 1.465 . S
C182 C177 1.399 . S
C182 C181 1.394 1_655 S
C182 C183 1.516 . S
C183 C182 1.516 . S
C183 C184 1.502 . S
C183 C185 1.561 . S
C183 C186 1.526 . S
C184 H168 0.959 . S
C184 H169 0.959 . S
C184 H170 0.961 . S
C184 C183 1.502 . S
C185 H171 0.960 . S
C185 H172 0.961 . S
C185 H173 0.959 . S
C185 C183 1.561 . S
C186 C183 1.526 . S
C186 C187 1.396 1_655 S
C186 C191 1.390 . S
C187 C181 1.465 . S
C187 C186 1.396 1_455 S
C187 C188 1.399 . S
C188 H174 0.929 . S
C188 C187 1.399 . S
C188 C189 1.385 . S
C189 H175 0.931 . S
C189 C188 1.385 . S
C189 C190 1.389 . S
C190 C189 1.389 . S
C190 C191 1.387 1_455 S
C191 H176 0.930 . S
C191 C186 1.390 . S
C191 C190 1.387 1_655 S
H192 C204 0.930 . S
H193 C206 0.930 . S
H194 C207 0.930 . S
H195 C211 0.959 . S
H196 C211 0.959 . S
H197 C211 0.961 . S
H198 C212 0.960 . S
H199 C212 0.961 . S
H200 C212 0.959 . S
H201 C215 0.929 . S
H202 C216 0.931 . S
H203 C218 0.930 . S
C204 H192 0.930 . S
C204 C205 1.399 . S
C204 C209 1.399 . S
C205 C204 1.399 . S
C205 C206 1.376 1_565 S
C206 H193 0.930 . S
C206 C205 1.376 1_545 S
C206 C207 1.388 . S
C207 H194 0.930 . S
C207 C206 1.388 . S
C207 C208 1.390 . S
C208 C207 1.390 . S
C208 C209 1.394 1_545 S
C208 C214 1.465 . S
C209 C204 1.399 . S
C209 C208 1.394 1_565 S
C209 C210 1.516 . S
C210 C209 1.516 . S
C210 C211 1.502 . S
C210 C212 1.561 . S
C210 C213 1.526 . S
C211 H195 0.959 . S
C211 H196 0.959 . S
C211 H197 0.961 . S
C211 C210 1.502 . S
C212 H198 0.960 . S
C212 H199 0.961 . S
C212 H200 0.959 . S
C212 C210 1.561 . S
C213 C210 1.526 . S
C213 C214 1.396 1_565 S
C213 C218 1.390 . S
C214 C208 1.465 . S
C214 C213 1.396 1_545 S
C214 C215 1.399 . S
C215 H201 0.929 . S
C215 C214 1.399 . S
C215 C216 1.385 . S
C216 H202 0.931 . S
C216 C215 1.385 . S
C216 C217 1.389 . S
C217 C216 1.389 . S
C217 C218 1.387 1_545 S
C218 H203 0.930 . S
C218 C213 1.390 . S
C218 C217 1.387 1_565 S
H219 C231 0.930 . S
H220 C233 0.930 . S
H221 C234 0.930 . S
H222 C238 0.959 . S
H223 C238 0.959 . S
H224 C238 0.961 . S
H225 C239 0.960 . S
H226 C239 0.961 . S
H227 C239 0.959 . S
H228 C242 0.929 . S
H229 C243 0.931 . S
H230 C245 0.930 . S
C231 H219 0.930 . S
C231 C232 1.399 . S
C231 C236 1.399 . S
C232 C231 1.399 . S
C232 C233 1.376 . S
C233 H220 0.930 . S
C233 C232 1.376 . S
C233 C234 1.388 . S
C234 H221 0.930 . S
C234 C233 1.388 . S
C234 C235 1.390 . S
C235 C234 1.390 . S
C235 C236 1.394 . S
C235 C241 1.465 . S
C236 C231 1.399 . S
C236 C235 1.394 . S
C236 C237 1.516 . S
C237 C236 1.516 . S
C237 C238 1.502 . S
C237 C239 1.561 . S
C237 C240 1.526 . S
C238 H222 0.959 . S
C238 H223 0.959 . S
C238 H224 0.961 . S
C238 C237 1.502 . S
C239 H225 0.960 . S
C239 H226 0.961 . S
C239 H227 0.959 . S
C239 C237 1.561 . S
C240 C237 1.526 . S
C240 C241 1.396 . S
C240 C245 1.390 . S
C241 C235 1.465 . S
C241 C240 1.396 . S
C241 C242 1.399 . S
C242 H228 0.929 . S
C242 C241 1.399 . S
C242 C243 1.385 . S
C243 H229 0.931 . S
C243 C242 1.385 . S
C243 C244 1.389 . S
C244 C243 1.389 . S
C244 C245 1.387 . S
C245 H230 0.930 . S
C245 C240 1.390 . S
C245 C244 1.387 . S
H246 C258 0.930 . S
H247 C260 0.930 . S
H248 C261 0.930 . S
H249 C265 0.959 . S
H250 C265 0.959 . S
H251 C265 0.961 . S
H252 C266 0.960 . S
H253 C266 0.961 . S
H254 C266 0.959 . S
H255 C269 0.929 . S
H256 C270 0.931 . S
H257 C272 0.930 . S
C258 H246 0.930 . S
C258 C259 1.399 1_545 S
C258 C263 1.399 . S
C259 C258 1.399 1_565 S
C259 C260 1.376 . S
C260 H247 0.930 . S
C260 C259 1.376 . S
C260 C261 1.388 . S
C261 H248 0.930 . S
C261 C260 1.388 . S
C261 C262 1.390 . S
C262 C261 1.390 . S
C262 C263 1.394 1_565 S
C262 C268 1.465 . S
C263 C258 1.399 . S
C263 C262 1.394 1_545 S
C263 C264 1.516 . S
C264 C263 1.516 . S
C264 C265 1.502 . S
C264 C266 1.561 . S
C264 C267 1.526 . S
C265 H249 0.959 . S
C265 H250 0.959 . S
C265 H251 0.961 . S
C265 C264 1.502 . S
C266 H252 0.960 . S
C266 H253 0.961 . S
C266 H254 0.959 . S
C266 C264 1.561 . S
C267 C264 1.526 . S
C267 C268 1.396 1_545 S
C267 C272 1.390 . S
C268 C262 1.465 . S
C268 C267 1.396 1_565 S
C268 C269 1.399 . S
C269 H255 0.929 . S
C269 C268 1.399 . S
C269 C270 1.385 . S
C270 H256 0.931 . S
C270 C269 1.385 . S
C270 C271 1.389 . S
C271 C270 1.389 . S
C271 C272 1.387 1_565 S
C272 H257 0.930 . S
C272 C267 1.390 . S
C272 C271 1.387 1_545 S
H273 C285 0.930 . S
H274 C287 0.930 . S
H275 C288 0.930 . S
H276 C292 0.959 . S
H277 C292 0.959 . S
H278 C292 0.961 . S
H279 C293 0.960 . S
H280 C293 0.961 . S
H281 C293 0.959 . S
H282 C296 0.929 . S
H283 C297 0.931 . S
H284 C299 0.930 . S
C285 H273 0.930 . S
C285 C286 1.399 1_556 S
C285 C290 1.399 . S
C286 C285 1.399 1_554 S
C286 C287 1.376 . S
C287 H274 0.930 . S
C287 C286 1.376 . S
C287 C288 1.388 . S
C288 H275 0.930 . S
C288 C287 1.388 . S
C288 C289 1.390 1_554 S
C289 C288 1.390 1_556 S
C289 C290 1.394 . S
C289 C295 1.465 . S
C290 C285 1.399 . S
C290 C289 1.394 . S
C290 C291 1.516 . S
C291 C290 1.516 . S
C291 C292 1.502 . S
C291 C293 1.561 . S
C291 C294 1.526 . S
C292 H276 0.959 . S
C292 H277 0.959 . S
C292 H278 0.961 . S
C292 C291 1.502 . S
C293 H279 0.960 . S
C293 H280 0.961 . S
C293 H281 0.959 . S
C293 C291 1.561 . S
C294 C291 1.526 . S
C294 C295 1.396 . S
C294 C299 1.390 . S
C295 C289 1.465 . S
C295 C294 1.396 . S
C295 C296 1.399 . S
C296 H282 0.929 . S
C296 C295 1.399 . S
C296 C297 1.385 . S
C297 H283 0.931 . S
C297 C296 1.385 . S
C297 C298 1.389 . S
C298 C297 1.389 . S
C298 C299 1.387 . S
C299 H284 0.930 . S
C299 C294 1.390 . S
C299 C298 1.387 . S
H300 C312 0.930 . S
H301 C314 0.930 . S
H302 C315 0.930 . S
H303 C319 0.959 1_455 S
H304 C319 0.959 . S
H305 C319 0.961 . S
H306 C320 0.960 . S
H307 C320 0.961 . S
H308 C320 0.959 . S
H309 C323 0.929 . S
H310 C324 0.931 . S
H311 C326 0.930 . S
C312 H300 0.930 . S
C312 C313 1.399 1_655 S
C312 C317 1.399 . S
C313 C312 1.399 1_455 S
C313 C314 1.376 . S
C314 H301 0.930 . S
C314 C313 1.376 . S
C314 C315 1.388 . S
C315 H302 0.930 . S
C315 C314 1.388 . S
C315 C316 1.390 . S
C316 C315 1.390 . S
C316 C317 1.394 1_455 S
C316 C322 1.465 . S
C317 C312 1.399 . S
C317 C316 1.394 1_655 S
C317 C318 1.516 . S
C318 C317 1.516 . S
C318 C319 1.502 . S
C318 C320 1.561 . S
C318 C321 1.526 . S
C319 H303 0.959 1_655 S
C319 H304 0.959 . S
C319 H305 0.961 . S
C319 C318 1.502 . S
C320 H306 0.960 . S
C320 H307 0.961 . S
C320 H308 0.959 . S
C320 C318 1.561 . S
C321 C318 1.526 . S
C321 C322 1.396 1_655 S
C321 C326 1.390 . S
C322 C316 1.465 . S
C322 C321 1.396 1_455 S
C322 C323 1.399 . S
C323 H309 0.929 . S
C323 C322 1.399 . S
C323 C324 1.385 . S
C324 H310 0.931 . S
C324 C323 1.385 . S
C324 C325 1.389 . S
C325 C324 1.389 . S
C325 C326 1.387 1_455 S
C326 H311 0.930 . S
C326 C321 1.390 . S
C326 C325 1.387 1_655 S
H327 C339 0.930 . S
H328 C341 0.930 . S
H329 C342 0.930 . S
H330 C346 0.959 . S
H331 C346 0.959 . S
H332 C346 0.961 . S
H333 C347 0.960 . S
H334 C347 0.961 . S
H335 C347 0.959 . S
H336 C350 0.929 . S
H337 C351 0.931 . S
H338 C353 0.930 . S
C339 H327 0.930 . S
C339 C340 1.399 . S
C339 C344 1.399 . S
C340 C339 1.399 . S
C340 C341 1.376 1_545 S
C341 H328 0.930 . S
C341 C340 1.376 1_565 S
C341 C342 1.388 . S
C342 H329 0.930 . S
C342 C341 1.388 . S
C342 C343 1.390 . S
C343 C342 1.390 . S
C343 C344 1.394 1_565 S
C343 C349 1.465 . S
C344 C339 1.399 . S
C344 C343 1.394 1_545 S
C344 C345 1.516 . S
C345 C344 1.516 . S
C345 C346 1.502 . S
C345 C347 1.561 . S
C345 C348 1.526 . S
C346 H330 0.959 . S
C346 H331 0.959 . S
C346 H332 0.961 . S
C346 C345 1.502 . S
C347 H333 0.960 . S
C347 H334 0.961 . S
C347 H335 0.959 . S
C347 C345 1.561 . S
C348 C345 1.526 . S
C348 C349 1.396 1_545 S
C348 C353 1.390 . S
C349 C343 1.465 . S
C349 C348 1.396 1_565 S
C349 C350 1.399 . S
C350 H336 0.929 . S
C350 C349 1.399 . S
C350 C351 1.385 . S
C351 H337 0.931 . S
C351 C350 1.385 . S
C351 C352 1.389 . S
C352 C351 1.389 . S
C352 C353 1.387 1_565 S
C353 H338 0.930 . S
C353 C348 1.390 . S
C353 C352 1.387 1_545 S
H354 C366 0.930 . S
H355 C368 0.930 . S
H356 C369 0.930 . S
H357 C373 0.959 . S
H358 C373 0.959 . S
H359 C373 0.961 . S
H360 C374 0.960 1_554 S
H361 C374 0.961 . S
H362 C374 0.959 . S
H363 C377 0.929 . S
H364 C378 0.931 . S
H365 C380 0.930 . S
C366 H354 0.930 . S
C366 C367 1.399 . S
C366 C371 1.399 1_554 S
C367 C366 1.399 . S
C367 C368 1.376 1_554 S
C368 H355 0.930 . S
C368 C367 1.376 1_556 S
C368 C369 1.388 . S
C369 H356 0.930 . S
C369 C368 1.388 . S
C369 C370 1.390 . S
C370 C369 1.390 . S
C370 C371 1.394 . S
C370 C376 1.465 . S
C371 C366 1.399 1_556 S
C371 C370 1.394 . S
C371 C372 1.516 . S
C372 C371 1.516 . S
C372 C373 1.502 1_556 S
C372 C374 1.561 . S
C372 C375 1.526 . S
C373 H357 0.959 . S
C373 H358 0.959 . S
C373 H359 0.961 . S
C373 C372 1.502 1_554 S
C374 H360 0.960 1_556 S
C374 H361 0.961 . S
C374 H362 0.959 . S
C374 C372 1.561 . S
C375 C372 1.526 . S
C375 C376 1.396 . S
C375 C380 1.390 . S
C376 C370 1.465 . S
C376 C375 1.396 . S
C376 C377 1.399 . S
C377 H363 0.929 . S
C377 C376 1.399 . S
C377 C378 1.385 . S
C378 H364 0.931 . S
C378 C377 1.385 . S
C378 C379 1.389 . S
C379 C378 1.389 . S
C379 C380 1.387 . S
C380 H365 0.930 . S
C380 C375 1.390 . S
C380 C379 1.387 . S
H381 C393 0.930 . S
H382 C395 0.930 . S
H383 C396 0.930 . S
H384 C400 0.959 . S
H385 C400 0.959 . S
H386 C400 0.961 . S
H387 C401 0.960 . S
H388 C401 0.961 . S
H389 C401 0.959 . S
H390 C404 0.929 . S
H391 C405 0.931 . S
H392 C407 0.930 . S
C393 H381 0.930 . S
C393 C394 1.399 . S
C393 C398 1.399 . S
C394 C393 1.399 . S
C394 C395 1.377 1_655 S
C395 H382 0.930 . S
C395 C394 1.377 1_455 S
C395 C396 1.388 . S
C396 H383 0.930 . S
C396 C395 1.388 . S
C396 C397 1.390 . S
C397 C396 1.390 . S
C397 C398 1.394 1_455 S
C397 C403 1.465 . S
C398 C393 1.399 . S
C398 C397 1.394 1_655 S
C398 C399 1.516 . S
C399 C398 1.516 . S
C399 C400 1.502 . S
C399 C401 1.561 1_655 S
C399 C402 1.526 . S
C400 H384 0.959 . S
C400 H385 0.959 . S
C400 H386 0.961 . S
C400 C399 1.502 . S
C401 H387 0.960 . S
C401 H388 0.961 . S
C401 H389 0.959 . S
C401 C399 1.561 1_455 S
C402 C399 1.526 . S
C402 C403 1.396 1_655 S
C402 C407 1.390 . S
C403 C397 1.465 . S
C403 C402 1.396 1_455 S
C403 C404 1.399 . S
C404 H390 0.929 . S
C404 C403 1.399 . S
C404 C405 1.385 . S
C405 H391 0.931 . S
C405 C404 1.385 . S
C405 C406 1.389 . S
C406 C405 1.389 . S
C406 C407 1.387 1_455 S
C407 H392 0.930 . S
C407 C402 1.390 . S
C407 C406 1.387 1_655 S
C109 C43 1.466 . S
C97 C6 1.432 . S
C124 C22 1.539 1_565 S
C136 C69 1.547 . S
C151 C34 1.236 . S
C163 C71 1.285 . S
C178 C7 1.434 . S
C190 C55 1.466 . S
C217 C57 1.545 . S
C205 C23 1.526 . S
C232 C35 1.241 . S
C244 C83 1.286 . S
C271 C56 1.549 . S
C259 C36 1.527 . S
C286 C9 1.691 . S
C298 C82 1.751 . S
C325 C42 1.464 . S
C313 C21 1.460 1_455 S
C352 C68 1.548 1_565 S
C340 C37 1.540 . S
C379 C70 1.752 . S
C367 C8 1.721 . S
C394 C20 1.436 1_655 S
C406 C54 1.464 1_455 S
