# Generated by pormake.
# Topology cor, (4,6)-cn, num edge types: 1
# Building blocks:
#     Node 0, Type 0, BuildingBlock: ESEHIV_clean_sbu_0, # of connection points: 4
#     Node 1, Type 0, BuildingBlock: ESEHIV_clean_sbu_0, # of connection points: 4
#     Node 2, Type 0, BuildingBlock: ESEHIV_clean_sbu_0, # of connection points: 4
#     Node 3, Type 0, BuildingBlock: ESEHIV_clean_sbu_0, # of connection points: 4
#     Node 4, Type 0, BuildingBlock: ESEHIV_clean_sbu_0, # of connection points: 4
#     Node 5, Type 0, BuildingBlock: ESEHIV_clean_sbu_0, # of connection points: 4
#     Node 6, Type 0, BuildingBlock: ESEHIV_clean_sbu_0, # of connection points: 4
#     Node 7, Type 0, BuildingBlock: ESEHIV_clean_sbu_0, # of connection points: 4
#     Node 8, Type 0, BuildingBlock: ESEHIV_clean_sbu_0, # of connection points: 4
#     Node 9, Type 0, BuildingBlock: ESEHIV_clean_sbu_0, # of connection points: 4
#     Node 10, Type 0, BuildingBlock: ESEHIV_clean_sbu_0, # of connection points: 4
#     Node 11, Type 0, BuildingBlock: ESEHIV_clean_sbu_0, # of connection points: 4
#     Node 12, Type 0, BuildingBlock: ESEHIV_clean_sbu_0, # of connection points: 4
#     Node 13, Type 0, BuildingBlock: ESEHIV_clean_sbu_0, # of connection points: 4
#     Node 14, Type 0, BuildingBlock: ESEHIV_clean_sbu_0, # of connection points: 4
#     Node 15, Type 0, BuildingBlock: ESEHIV_clean_sbu_0, # of connection points: 4
#     Node 16, Type 0, BuildingBlock: ESEHIV_clean_sbu_0, # of connection points: 4
#     Node 17, Type 0, BuildingBlock: ESEHIV_clean_sbu_0, # of connection points: 4
#     Node 18, Type 1, BuildingBlock: MIDCAF_clean_sbu_0, # of connection points: 6
#     Node 19, Type 1, BuildingBlock: MIDCAF_clean_sbu_0, # of connection points: 6
#     Node 20, Type 1, BuildingBlock: MIDCAF_clean_sbu_0, # of connection points: 6
#     Node 21, Type 1, BuildingBlock: MIDCAF_clean_sbu_0, # of connection points: 6
#     Node 22, Type 1, BuildingBlock: MIDCAF_clean_sbu_0, # of connection points: 6
#     Node 23, Type 1, BuildingBlock: MIDCAF_clean_sbu_0, # of connection points: 6
#     Node 24, Type 1, BuildingBlock: MIDCAF_clean_sbu_0, # of connection points: 6
#     Node 25, Type 1, BuildingBlock: MIDCAF_clean_sbu_0, # of connection points: 6
#     Node 26, Type 1, BuildingBlock: MIDCAF_clean_sbu_0, # of connection points: 6
#     Node 27, Type 1, BuildingBlock: MIDCAF_clean_sbu_0, # of connection points: 6
#     Node 28, Type 1, BuildingBlock: MIDCAF_clean_sbu_0, # of connection points: 6
#     Node 29, Type 1, BuildingBlock: MIDCAF_clean_sbu_0, # of connection points: 6
#     Edge 30, Type (0, 1), BuildingBlock: UVAHIK_clean_linker_0, # of connection points: 2
#     Edge 31, Type (0, 1), BuildingBlock: UVAHIK_clean_linker_0, # of connection points: 2
#     Edge 32, Type (0, 1), BuildingBlock: UVAHIK_clean_linker_0, # of connection points: 2
#     Edge 33, Type (0, 1), BuildingBlock: UVAHIK_clean_linker_0, # of connection points: 2
#     Edge 34, Type (0, 1), BuildingBlock: UVAHIK_clean_linker_0, # of connection points: 2
#     Edge 35, Type (0, 1), BuildingBlock: UVAHIK_clean_linker_0, # of connection points: 2
#     Edge 36, Type (0, 1), BuildingBlock: UVAHIK_clean_linker_0, # of connection points: 2
#     Edge 37, Type (0, 1), BuildingBlock: UVAHIK_clean_linker_0, # of connection points: 2
#     Edge 38, Type (0, 1), BuildingBlock: UVAHIK_clean_linker_0, # of connection points: 2
#     Edge 39, Type (0, 1), BuildingBlock: UVAHIK_clean_linker_0, # of connection points: 2
#     Edge 40, Type (0, 1), BuildingBlock: UVAHIK_clean_linker_0, # of connection points: 2
#     Edge 41, Type (0, 1), BuildingBlock: UVAHIK_clean_linker_0, # of connection points: 2
#     Edge 42, Type (0, 1), BuildingBlock: UVAHIK_clean_linker_0, # of connection points: 2
#     Edge 43, Type (0, 1), BuildingBlock: UVAHIK_clean_linker_0, # of connection points: 2
#     Edge 44, Type (0, 1), BuildingBlock: UVAHIK_clean_linker_0, # of connection points: 2
#     Edge 45, Type (0, 1), BuildingBlock: UVAHIK_clean_linker_0, # of connection points: 2
#     Edge 46, Type (0, 1), BuildingBlock: UVAHIK_clean_linker_0, # of connection points: 2
#     Edge 47, Type (0, 1), BuildingBlock: UVAHIK_clean_linker_0, # of connection points: 2
#     Edge 48, Type (0, 1), BuildingBlock: UVAHIK_clean_linker_0, # of connection points: 2
#     Edge 49, Type (0, 1), BuildingBlock: UVAHIK_clean_linker_0, # of connection points: 2
#     Edge 50, Type (0, 1), BuildingBlock: UVAHIK_clean_linker_0, # of connection points: 2
#     Edge 51, Type (0, 1), BuildingBlock: UVAHIK_clean_linker_0, # of connection points: 2
#     Edge 52, Type (0, 1), BuildingBlock: UVAHIK_clean_linker_0, # of connection points: 2
#     Edge 53, Type (0, 1), BuildingBlock: UVAHIK_clean_linker_0, # of connection points: 2
#     Edge 54, Type (0, 1), BuildingBlock: UVAHIK_clean_linker_0, # of connection points: 2
#     Edge 55, Type (0, 1), BuildingBlock: UVAHIK_clean_linker_0, # of connection points: 2
#     Edge 56, Type (0, 1), BuildingBlock: UVAHIK_clean_linker_0, # of connection points: 2
#     Edge 57, Type (0, 1), BuildingBlock: UVAHIK_clean_linker_0, # of connection points: 2
#     Edge 58, Type (0, 1), BuildingBlock: UVAHIK_clean_linker_0, # of connection points: 2
#     Edge 59, Type (0, 1), BuildingBlock: UVAHIK_clean_linker_0, # of connection points: 2
#     Edge 60, Type (0, 1), BuildingBlock: UVAHIK_clean_linker_0, # of connection points: 2
#     Edge 61, Type (0, 1), BuildingBlock: UVAHIK_clean_linker_0, # of connection points: 2
#     Edge 62, Type (0, 1), BuildingBlock: UVAHIK_clean_linker_0, # of connection points: 2
#     Edge 63, Type (0, 1), BuildingBlock: UVAHIK_clean_linker_0, # of connection points: 2
#     Edge 64, Type (0, 1), BuildingBlock: UVAHIK_clean_linker_0, # of connection points: 2
#     Edge 65, Type (0, 1), BuildingBlock: UVAHIK_clean_linker_0, # of connection points: 2
#     Edge 66, Type (0, 1), BuildingBlock: UVAHIK_clean_linker_0, # of connection points: 2
#     Edge 67, Type (0, 1), BuildingBlock: UVAHIK_clean_linker_0, # of connection points: 2
#     Edge 68, Type (0, 1), BuildingBlock: UVAHIK_clean_linker_0, # of connection points: 2
#     Edge 69, Type (0, 1), BuildingBlock: UVAHIK_clean_linker_0, # of connection points: 2
#     Edge 70, Type (0, 1), BuildingBlock: UVAHIK_clean_linker_0, # of connection points: 2
#     Edge 71, Type (0, 1), BuildingBlock: UVAHIK_clean_linker_0, # of connection points: 2
#     Edge 72, Type (0, 1), BuildingBlock: UVAHIK_clean_linker_0, # of connection points: 2
#     Edge 73, Type (0, 1), BuildingBlock: UVAHIK_clean_linker_0, # of connection points: 2
#     Edge 74, Type (0, 1), BuildingBlock: UVAHIK_clean_linker_0, # of connection points: 2
#     Edge 75, Type (0, 1), BuildingBlock: UVAHIK_clean_linker_0, # of connection points: 2
#     Edge 76, Type (0, 1), BuildingBlock: UVAHIK_clean_linker_0, # of connection points: 2
#     Edge 77, Type (0, 1), BuildingBlock: UVAHIK_clean_linker_0, # of connection points: 2
#     Edge 78, Type (0, 1), BuildingBlock: UVAHIK_clean_linker_0, # of connection points: 2
#     Edge 79, Type (0, 1), BuildingBlock: UVAHIK_clean_linker_0, # of connection points: 2
#     Edge 80, Type (0, 1), BuildingBlock: UVAHIK_clean_linker_0, # of connection points: 2
#     Edge 81, Type (0, 1), BuildingBlock: UVAHIK_clean_linker_0, # of connection points: 2
#     Edge 82, Type (0, 1), BuildingBlock: UVAHIK_clean_linker_0, # of connection points: 2
#     Edge 83, Type (0, 1), BuildingBlock: UVAHIK_clean_linker_0, # of connection points: 2
#     Edge 84, Type (0, 1), BuildingBlock: UVAHIK_clean_linker_0, # of connection points: 2
#     Edge 85, Type (0, 1), BuildingBlock: UVAHIK_clean_linker_0, # of connection points: 2
#     Edge 86, Type (0, 1), BuildingBlock: UVAHIK_clean_linker_0, # of connection points: 2
#     Edge 87, Type (0, 1), BuildingBlock: UVAHIK_clean_linker_0, # of connection points: 2
#     Edge 88, Type (0, 1), BuildingBlock: UVAHIK_clean_linker_0, # of connection points: 2
#     Edge 89, Type (0, 1), BuildingBlock: UVAHIK_clean_linker_0, # of connection points: 2
#     Edge 90, Type (0, 1), BuildingBlock: UVAHIK_clean_linker_0, # of connection points: 2
#     Edge 91, Type (0, 1), BuildingBlock: UVAHIK_clean_linker_0, # of connection points: 2
#     Edge 92, Type (0, 1), BuildingBlock: UVAHIK_clean_linker_0, # of connection points: 2
#     Edge 93, Type (0, 1), BuildingBlock: UVAHIK_clean_linker_0, # of connection points: 2
#     Edge 94, Type (0, 1), BuildingBlock: UVAHIK_clean_linker_0, # of connection points: 2
#     Edge 95, Type (0, 1), BuildingBlock: UVAHIK_clean_linker_0, # of connection points: 2
#     Edge 96, Type (0, 1), BuildingBlock: UVAHIK_clean_linker_0, # of connection points: 2
#     Edge 97, Type (0, 1), BuildingBlock: UVAHIK_clean_linker_0, # of connection points: 2
#     Edge 98, Type (0, 1), BuildingBlock: UVAHIK_clean_linker_0, # of connection points: 2
#     Edge 99, Type (0, 1), BuildingBlock: UVAHIK_clean_linker_0, # of connection points: 2
#     Edge 100, Type (0, 1), BuildingBlock: UVAHIK_clean_linker_0, # of connection points: 2
#     Edge 101, Type (0, 1), BuildingBlock: UVAHIK_clean_linker_0, # of connection points: 2
# Relax obj value: 0.148
# Max RMSD: 0.288
# Mean RMSD: 0.236
data_MOF--net-cor--node1-ESEHIV_clean_sbu_0--node2-MIDCAF_clean_sbu_0--edge1-UVAHIK_clean_linker_0
_symmetry_space_group_name_H-M    P1
_symmetry_Int_Tables_number       1
_symmetry_cell_setting            triclinic
loop_
_symmetry_equiv_pos_as_xyz
'x, y, z'
_cell_length_a     49.894874
_cell_length_b     48.357526
_cell_length_c     148.24219
_cell_angle_alpha  91.597849
_cell_angle_beta   91.648144
_cell_angle_gamma 120.24309
loop_
_atom_site_label
_atom_site_type_symbol
_atom_site_fract_x
_atom_site_fract_y
_atom_site_fract_z
_atom_type_partial_charge
Cu0 Cu 0.73196 0.02115 0.25871 0.0
N1 N 0.7415 1.00314 0.24885 0.0
N2 N 0.76306 0.99907 0.2362 0.0
C3 C 0.75614 0.01781 0.2414 0.0
C4 C 0.75205 0.97143 0.24051 0.0
C5 C 0.73873 0.97399 0.24828 0.0
O6 O 0.73252 0.05968 0.25474 0.0
C7 C 0.75937 0.03641 0.27676 0.0
O8 O 0.73883 0.04501 0.27846 0.0
H9 H 0.76307 0.04231 0.24005 0.0
H10 H 0.72882 0.95636 0.25335 0.0
N11 N 0.69197 0.99236 0.26235 0.0
N12 N 0.65292 0.95842 0.27061 0.0
C13 C 0.68381 0.97317 0.26943 0.0
C14 C 0.66536 0.98936 0.2589 0.0
C15 C 0.64129 0.96853 0.26398 0.0
C16 C 0.75656 0.08472 0.25227 0.0
O17 O 0.78385 0.08703 0.25339 0.0
H18 H 0.70033 0.97118 0.27386 0.0
H19 H 0.66377 1.00223 0.25326 0.0
O20 O 0.76123 0.02789 0.2687 0.0
H21 H 0.75418 0.95111 0.23832 0.0
H22 H 0.61712 0.96168 0.26294 0.0
Cu23 Cu 0.02319 0.73895 0.25777 0.0
N24 N 0.04026 0.76323 0.24766 0.0
N25 N 0.04367 0.78693 0.2346 0.0
C26 C 0.02493 0.7696 0.24116 0.0
C27 C 0.07197 0.79161 0.23711 0.0
C28 C 0.06978 0.777 0.24515 0.0
O29 O 0.9839 0.70133 0.25362 0.0
C30 C 0.01292 0.75726 0.27522 0.0
O31 O 1.00556 0.72806 0.27724 0.0
H32 H 1.00036 0.76118 0.24116 0.0
H33 H 0.08837 0.77633 0.24889 0.0
N34 N 0.04876 0.72394 0.2623 0.0
N35 N 0.08082 0.71581 0.27123 0.0
C36 C 0.07066 0.73617 0.26915 0.0
C37 C 0.04534 0.69523 0.25994 0.0
C38 C 0.06496 0.69011 0.26544 0.0
C39 C 0.9592 0.70098 0.25098 0.0
O40 O 0.9577 0.72725 0.25193 0.0
H41 H 0.07781 0.75865 0.27283 0.0
H42 H 0.0288 0.67864 0.25479 0.0
O43 O 0.0196 0.76578 0.26715 0.0
H44 H 0.09289 0.80494 0.23347 0.0
H45 H 0.06704 0.66888 0.26531 0.0
Cu46 Cu 0.30508 0.3047 0.26315 0.0
N47 N 0.29346 0.27655 0.27262 0.0
N48 N 0.27379 0.25234 0.28546 0.0
C49 C 0.2808 0.27786 0.28044 0.0
C50 C 0.28278 0.23456 0.28063 0.0
C51 C 0.29487 0.24953 0.27275 0.0
O52 O 0.30439 0.34305 0.26733 0.0
C53 C 0.28112 0.29431 0.24484 0.0
O54 O 0.3017 0.32477 0.24412 0.0
H55 H 0.27606 0.29668 0.28231 0.0
H56 H 0.3037 0.2411 0.26741 0.0
N57 N 0.34597 0.3174 0.26038 0.0
N58 N 0.38798 0.32531 0.2532 0.0
C59 C 0.35656 0.3089 0.25314 0.0
C60 C 0.37145 0.33957 0.26519 0.0
C61 C 0.39732 0.34452 0.2608 0.0
C62 C 0.28063 0.34331 0.27015 0.0
O63 O 0.25345 0.3168 0.26941 0.0
H64 H 0.3416 0.2919 0.2478 0.0
H65 H 0.37114 0.35173 0.27139 0.0
O66 O 0.27805 0.28201 0.2525 0.0
H67 H 0.2807 0.21222 0.28261 0.0
H68 H 0.42121 0.36112 0.26301 0.0
Cu69 Cu 0.30789 0.02957 0.76332 0.0
N70 N 0.29223 0.04407 0.77247 0.0
N71 N 0.2689 0.04569 0.78501 0.0
C72 C 0.27592 0.02767 0.77949 0.0
C73 C 0.28148 0.07453 0.78127 0.0
C74 C 0.29583 0.07345 0.77357 0.0
O75 O 0.30712 0.99119 0.76772 0.0
C76 C 0.25719 0.01923 0.75125 0.0
O77 O 0.24293 0.01843 0.75864 0.0
H78 H 0.26915 1.00295 0.78047 0.0
H79 H 0.3083 0.0928 0.76911 0.0
N80 N 0.34803 0.06275 0.76112 0.0
N81 N 0.38774 0.10075 0.75383 0.0
C82 C 0.35884 0.07464 0.75303 0.0
C83 C 0.37071 0.08201 0.76726 0.0
C84 C 0.39524 0.10527 0.76279 0.0
C85 C 0.33146 0.99005 0.76987 0.0
O86 O 0.35877 0.01442 0.76821 0.0
H87 H 0.34523 0.06501 0.74674 0.0
H88 H 0.36924 0.07962 0.77449 0.0
O89 O 0.28375 0.02154 0.75193 0.0
H90 H 0.28089 0.09523 0.78396 0.0
H91 H 0.41685 0.12412 0.76596 0.0
Cu92 Cu 0.01816 0.30532 0.76299 0.0
N93 N 1.00254 0.27942 0.77284 0.0
N94 N 1.00187 0.25616 0.78576 0.0
C95 C 0.01968 0.27623 0.77947 0.0
C96 C 0.97231 0.24646 0.78293 0.0
C97 C 0.97282 0.26085 0.77496 0.0
O98 O 0.05898 0.34043 0.76734 0.0
C99 C 0.03018 0.2901 0.74531 0.0
O100 O 0.04356 0.32105 0.7442 0.0
H101 H 0.0448 0.28878 0.7797 0.0
H102 H 0.95296 0.25797 0.771 0.0
N103 N 0.99147 0.3203 0.75952 0.0
N104 N 0.9582 0.32896 0.75134 0.0
C105 C 0.97382 0.31286 0.75177 0.0
C106 C 0.98654 0.34146 0.76418 0.0
C107 C 0.96619 0.34698 0.75914 0.0
C108 C 0.07049 0.36972 0.76551 0.0
O109 O 0.05598 0.37753 0.75947 0.0
H110 H 0.97299 0.29653 0.74648 0.0
H111 H 0.99733 0.35239 0.77074 0.0
O112 O 0.01945 0.2793 0.75293 0.0
H113 H 0.95169 0.22973 0.78626 0.0
H114 H 0.9578 0.36291 0.76109 0.0
Cu115 Cu 0.735 0.74509 0.7602 0.0
N116 N 0.74431 0.77218 0.7506 0.0
N117 N 0.76452 0.79595 0.73778 0.0
C118 C 0.7614 0.77351 0.74357 0.0
C119 C 0.74868 0.80917 0.74134 0.0
C120 C 0.73619 0.79441 0.74923 0.0
O121 O 0.74077 0.71016 0.75565 0.0
C122 C 0.76211 0.75856 0.77823 0.0
O123 O 0.74382 0.72774 0.77924 0.0
H124 H 0.7719 0.75874 0.74284 0.0
H125 H 0.7223 0.79959 0.75368 0.0
N126 N 0.694 0.73033 0.76338 0.0
N127 N 0.65315 0.72245 0.7712 0.0
C128 C 0.68446 0.73851 0.77091 0.0
C129 C 0.66786 0.70875 0.7587 0.0
C130 C 0.64267 0.7037 0.76352 0.0
C131 C 0.72385 0.68065 0.75722 0.0
O132 O 0.70231 0.67215 0.76315 0.0
H133 H 0.70018 0.75536 0.77617 0.0
H134 H 0.66723 0.69722 0.75227 0.0
O135 O 0.76264 0.76988 0.77054 0.0
H136 H 0.74612 0.82805 0.73844 0.0
H137 H 0.61849 0.68759 0.76149 0.0
Cu138 Cu 0.40394 0.3523 0.59276 0.0
N139 N 0.41411 0.33494 0.58293 0.0
N140 N 0.43633 0.33239 0.57028 0.0
C141 C 0.43014 0.35091 0.57582 0.0
C142 C 0.42357 0.30362 0.57405 0.0
C143 C 0.40982 0.30525 0.58184 0.0
O144 O 0.40995 0.39331 0.5888 0.0
C145 C 0.43065 0.3669 0.61093 0.0
O146 O 0.41352 0.38006 0.61226 0.0
H147 H 0.43834 0.37605 0.57496 0.0
H148 H 0.39829 0.28645 0.58652 0.0
N149 N 0.36276 0.32414 0.59565 0.0
N150 N 0.32159 0.29054 0.60332 0.0
C151 C 0.35294 0.30787 0.60327 0.0
C152 C 0.33677 0.31645 0.59067 0.0
C153 C 0.31138 0.29593 0.59539 0.0
C154 C 0.39146 0.40383 0.59005 0.0
O155 O 0.36819 0.38859 0.59533 0.0
H156 H 0.36843 0.30927 0.60875 0.0
H157 H 0.33636 0.32551 0.58411 0.0
O158 O 0.43085 0.3558 0.60305 0.0
H159 H 0.42454 0.28303 0.57144 0.0
H160 H 0.28726 0.28567 0.59315 0.0
Cu161 Cu 0.69222 0.07842 0.59091 0.0
N162 N 0.7065 0.1092 0.58211 0.0
N163 N 0.70983 0.1358 0.56964 0.0
C164 C 0.69227 0.10914 0.57421 0.0
C165 C 0.7362 0.15301 0.57487 0.0
C166 C 0.73405 0.13659 0.58251 0.0
O167 O 0.65521 0.03941 0.58607 0.0
C168 C 0.67926 0.11811 0.60247 0.0
O169 O 0.67304 0.12762 0.59489 0.0
H170 H 0.66938 0.09013 0.57192 0.0
H171 H 0.75138 0.14406 0.58801 0.0
N172 N 0.72296 0.06803 0.59342 0.0
N173 N 0.75891 0.06074 0.60057 0.0
C174 C 0.73965 0.07272 0.60123 0.0
C175 C 0.73212 0.05288 0.58763 0.0
C176 C 0.75421 0.04833 0.59201 0.0
C177 C 0.63008 0.03761 0.58315 0.0
O178 O 0.62697 0.06296 0.58397 0.0
H179 H 0.73716 0.08397 0.60731 0.0
H180 H 0.7231 0.04544 0.58073 0.0
O181 O 0.68624 0.09616 0.60216 0.0
H182 H 0.75589 0.17577 0.57329 0.0
H183 H 0.766 0.03687 0.58909 0.0
Cu184 Cu 0.97495 0.63946 0.59705 0.0
N185 N 0.95998 0.60956 0.60609 0.0
N186 N 0.93864 0.58553 0.61879 0.0
C187 C 0.94382 0.60932 0.61327 0.0
C188 C 0.95212 0.57026 0.61494 0.0
C189 C 0.96522 0.58511 0.60712 0.0
O190 O 0.97674 0.67855 0.60176 0.0
C191 C 0.92346 0.59748 0.5849 0.0
O192 O 0.90904 0.58477 0.59227 0.0
H193 H 0.93677 0.62677 0.61458 0.0
H194 H 0.97808 0.57884 0.60256 0.0
N195 N 0.01558 0.64962 0.59487 0.0
N196 N 0.05765 0.65603 0.58803 0.0
C197 C 0.02645 0.64312 0.58734 0.0
C198 C 0.0406 0.6669 0.60051 0.0
C199 C 0.06653 0.67093 0.59632 0.0
C200 C 0.95322 0.68076 0.60379 0.0
O201 O 0.92522 0.65642 0.60178 0.0
H202 H 0.01193 0.63006 0.58139 0.0
H203 H 0.04001 0.67631 0.60716 0.0
O204 O 0.95075 0.62183 0.58561 0.0
H205 H 0.95238 0.54972 0.61757 0.0
H206 H 0.09014 0.68386 0.59917 0.0
Cu207 Cu 0.97798 0.3642 0.09568 0.0
N208 N 0.9631 0.37994 0.10479 0.0
N209 N 0.94068 0.38358 0.11733 0.0
C210 C 0.94841 0.36523 0.11222 0.0
C211 C 0.95122 0.411 0.11292 0.0
C212 C 0.96502 0.40868 0.10523 0.0
O213 O 0.97926 0.3272 0.10019 0.0
C214 C 0.92645 0.35187 0.08377 0.0
O215 O 0.91206 0.34973 0.09122 0.0
H216 H 0.9431 0.34137 0.11379 0.0
H217 H 0.97569 0.42667 0.10028 0.0
N218 N 0.01859 0.39593 0.09344 0.0
N219 N 0.0603 0.43215 0.08645 0.0
C220 C 0.02919 0.41189 0.08581 0.0
C221 C 0.04369 0.4066 0.09911 0.0
C222 C 0.0694 0.42885 0.09483 0.0
C223 C 0.95544 0.30125 0.10229 0.0
O224 O 0.92769 0.29717 0.10052 0.0
H225 H 0.01453 0.40809 0.07983 0.0
H226 H 0.0433 0.39846 0.10585 0.0
O227 O 0.95366 0.35574 0.08431 0.0
H228 H 0.9494 0.4315 0.1151 0.0
H229 H 0.09298 0.44168 0.0977 0.0
Cu230 Cu 0.68651 0.6466 0.095 0.0
N231 N 0.6711 0.62106 0.10497 0.0
N232 N 0.66932 0.59683 0.11781 0.0
C233 C 0.68768 0.61733 0.11168 0.0
C234 C 0.63999 0.58743 0.11482 0.0
C235 C 0.64118 0.60238 0.10692 0.0
O236 O 0.72492 0.68546 0.09911 0.0
C237 C 0.69929 0.63124 0.07743 0.0
O238 O 0.70852 0.66123 0.0758 0.0
H239 H 0.71274 0.62958 0.11209 0.0
H240 H 0.62161 0.59962 0.10283 0.0
N241 N 0.65815 0.65875 0.09099 0.0
N242 N 0.62436 0.66548 0.08242 0.0
C243 C 0.63968 0.64918 0.08336 0.0
C244 C 0.6541 0.68151 0.09504 0.0
C245 C 0.63337 0.68575 0.08979 0.0
C246 C 0.75025 0.68676 0.10154 0.0
O247 O 0.75275 0.66115 0.10034 0.0
H248 H 0.63839 0.63155 0.07843 0.0
H249 H 0.666 0.69461 0.1013 0.0
O250 O 0.69083 0.62134 0.08529 0.0
H251 H 0.61907 0.57039 0.11797 0.0
H252 H 0.62568 0.70265 0.09124 0.0
Cu253 Cu 0.3969 0.07302 0.09218 0.0
N254 N 0.41166 0.10418 0.08349 0.0
N255 N 0.43429 0.131 0.07123 0.0
C256 C 0.42626 0.10455 0.07593 0.0
C257 C 0.42406 0.14774 0.07604 0.0
C258 C 0.41012 0.13114 0.08356 0.0
O259 O 0.39524 0.03455 0.08699 0.0
C260 C 0.44888 0.11402 0.10429 0.0
O261 O 0.46293 0.12757 0.09695 0.0
H262 H 0.43137 0.08606 0.07399 0.0
H263 H 0.3997 0.13826 0.08875 0.0
N264 N 0.35657 0.06269 0.09486 0.0
N265 N 0.31626 0.05759 0.10244 0.0
C266 C 0.34754 0.07197 0.1023 0.0
C267 C 0.3302 0.04201 0.09012 0.0
C268 C 0.30532 0.03877 0.09477 0.0
C269 C 0.41904 0.03329 0.0847 0.0
O270 O 0.44682 0.05812 0.08664 0.0
H271 H 0.36352 0.0879 0.10766 0.0
H272 H 0.32916 0.02955 0.08383 0.0
O273 O 0.42171 0.0895 0.10355 0.0
H274 H 0.42627 0.17031 0.07425 0.0
H275 H 0.28103 0.02349 0.09272 0.0
Cu276 Cu 0.06575 0.68849 0.92609 0.0
N277 N 0.07488 0.67008 0.91626 0.0
N278 N 0.09695 0.66629 0.9037 0.0
C279 C 0.09114 0.68544 0.9091 0.0
C280 C 0.08369 0.63774 0.90759 0.0
C281 C 0.07005 0.64014 0.91532 0.0
O282 O 0.06703 0.727 0.92184 0.0
C283 C 0.09236 0.70262 0.94416 0.0
O284 O 0.07097 0.70999 0.9459 0.0
H285 H 0.09993 0.71061 0.90812 0.0
H286 H 0.05838 0.62173 0.9201 0.0
N287 N 0.0258 0.66071 0.92993 0.0
N288 N 0.98742 0.62611 0.93826 0.0
C289 C 0.01721 0.63782 0.93603 0.0
C290 C 1.00055 0.66329 0.92821 0.0
C291 C 0.9769 0.64206 0.93334 0.0
C292 C 0.09168 0.75354 0.92072 0.0
O293 O 0.11867 0.75729 0.92342 0.0
H294 H 0.03294 0.63118 0.93913 0.0
H295 H 0.99984 0.68043 0.92382 0.0
O296 O 0.09509 0.69529 0.93605 0.0
H297 H 0.08435 0.61682 0.90514 0.0
H298 H 0.9539 0.63902 0.93357 0.0
Cu299 Cu 0.35853 0.40564 0.92466 0.0
N300 N 0.37683 0.43179 0.915 0.0
N301 N 0.38126 0.45671 0.90214 0.0
C302 C 0.36165 0.43458 0.90772 0.0
C303 C 0.4099 0.46818 0.90608 0.0
C304 C 0.40708 0.45274 0.914 0.0
O305 O 0.32015 0.36858 0.9197 0.0
C306 C 0.34663 0.42198 0.94214 0.0
O307 O 0.3404 0.39304 0.94407 0.0
H308 H 0.33662 0.42132 0.90669 0.0
H309 H 0.4257 0.4568 0.91876 0.0
N310 N 0.38397 0.39101 0.92955 0.0
N311 N 0.41743 0.38595 0.93875 0.0
C312 C 0.40837 0.40612 0.93561 0.0
C313 C 0.37771 0.36052 0.92881 0.0
C314 C 0.39821 0.3573 0.93448 0.0
C315 C 0.29359 0.36626 0.91911 0.0
O316 O 0.29003 0.38933 0.92266 0.0
H317 H 0.41805 0.43077 0.93806 0.0
H318 H 0.35859 0.34157 0.92473 0.0
O319 O 0.353 0.43094 0.93409 0.0
H320 H 0.43138 0.48647 0.90345 0.0
H321 H 0.39853 0.33541 0.93556 0.0
Cu322 Cu 0.64699 0.98266 0.9293 0.0
N323 N 0.63942 0.95604 0.93895 0.0
N324 N 0.61961 0.93143 0.95171 0.0
C325 C 0.62234 0.95406 0.94605 0.0
C326 C 0.6357 0.91874 0.948 0.0
C327 C 0.64793 0.93401 0.94014 0.0
O328 O 0.64579 0.01997 0.93414 0.0
C329 C 0.61909 0.96712 0.91144 0.0
O330 O 0.64175 0.9958 0.90969 0.0
H331 H 0.61129 0.96824 0.94689 0.0
H332 H 0.66164 0.92908 0.93555 0.0
N333 N 0.68645 0.99657 0.92493 0.0
N334 N 0.72425 1.00021 0.91639 0.0
C335 C 0.69562 0.98061 0.91936 0.0
C336 C 0.71015 0.02705 0.92552 0.0
C337 C 0.73342 0.02939 0.92025 0.0
C338 C 0.62124 0.0213 0.93522 0.0
O339 O 0.59434 0.99733 0.93211 0.0
H340 H 0.68095 0.9557 0.91713 0.0
H341 H 0.70988 0.04654 0.92919 0.0
O342 O 0.61633 0.95807 0.91952 0.0
H343 H 0.63839 0.89972 0.95074 0.0
H344 H 0.75514 0.05103 0.91916 0.0
Cu345 Cu 0.64631 0.70568 0.43037 0.0
N346 N 0.62893 0.71789 0.43964 0.0
N347 N 0.60562 0.717 0.4524 0.0
C348 C 0.61174 0.69979 0.44632 0.0
C349 C 0.61925 0.74694 0.44937 0.0
C350 C 0.63349 0.74738 0.4415 0.0
O351 O 0.64965 0.6695 0.43467 0.0
C352 C 0.59516 0.69372 0.41828 0.0
O353 O 0.58129 0.69394 0.42566 0.0
H354 H 0.60485 0.67483 0.44689 0.0
H355 H 0.64686 0.76795 0.43752 0.0
N356 N 0.6855 0.7406 0.42816 0.0
N357 N 0.72368 0.77924 0.42064 0.0
C358 C 0.6975 0.75016 0.42001 0.0
C359 C 0.70494 0.76435 0.43412 0.0
C360 C 0.72842 0.78821 0.42951 0.0
C361 C 0.66454 0.67356 0.4422 0.0
O362 O 0.67857 0.70219 0.44628 0.0
H363 H 0.68628 0.73699 0.4137 0.0
H364 H 0.70143 0.76501 0.44127 0.0
O365 O 0.62174 0.69605 0.41898 0.0
H366 H 0.61902 0.76712 0.45264 0.0
H367 H 0.74712 0.81078 0.43241 0.0
Cu368 Cu 0.35098 0.97336 0.4281 0.0
N369 N 0.33484 0.94683 0.43779 0.0
N370 N 0.3339 0.92227 0.45047 0.0
C371 C 0.35175 0.94206 0.44414 0.0
C372 C 0.30453 0.91439 0.44796 0.0
C373 C 0.30521 0.92958 0.44015 0.0
O374 O 0.39153 0.00815 0.43273 0.0
C375 C 0.36234 0.95915 0.41028 0.0
O376 O 0.37299 0.98972 0.40912 0.0
H377 H 0.37678 0.95338 0.44416 0.0
H378 H 0.28553 0.92822 0.43645 0.0
N379 N 0.32453 0.98855 0.42451 0.0
N380 N 0.29112 0.99674 0.41622 0.0
C381 C 0.30569 0.97966 0.41697 0.0
C382 C 0.32142 0.01168 0.42873 0.0
C383 C 0.30099 0.01691 0.42362 0.0
C384 C 0.40425 0.03736 0.43071 0.0
O385 O 0.39115 0.04554 0.42432 0.0
H386 H 0.30337 0.96163 0.41201 0.0
H387 H 0.33359 0.02424 0.43502 0.0
O388 O 0.35331 0.94812 0.41801 0.0
H389 H 0.28393 0.89843 0.45143 0.0
H390 H 0.29389 0.03417 0.42524 0.0
Cu391 Cu 0.07174 0.41233 0.42604 0.0
N392 N 0.08228 0.44071 0.41672 0.0
N393 N 0.10243 0.465 0.40395 0.0
C394 C 0.09776 0.44109 0.40937 0.0
C395 C 0.08926 0.48016 0.40808 0.0
C396 C 0.07682 0.46508 0.41594 0.0
O397 O 0.07713 0.37742 0.42126 0.0
C398 C 0.09575 0.42278 0.44431 0.0
O399 O 0.07606 0.39201 0.44489 0.0
H400 H 0.10603 0.42455 0.40815 0.0
H401 H 0.06477 0.47151 0.42076 0.0
N402 N 0.0305 0.39763 0.42894 0.0
N403 N 0.98923 0.39021 0.43646 0.0
C404 C 0.02056 0.4066 0.43624 0.0
C405 C 1.00462 0.37516 0.42434 0.0
C406 C 0.97916 0.37042 0.42898 0.0
C407 C 0.06106 0.34801 0.42306 0.0
O408 O 0.04057 0.33957 0.42931 0.0
H409 H 0.03603 0.42422 0.44139 0.0
H410 H 1.00433 0.3628 0.41812 0.0
O411 O 0.09842 0.43543 0.43672 0.0
H412 H 0.0885 0.50059 0.40559 0.0
H413 H 0.95509 0.35378 0.42696 0.0
Zn414 Zn 0.02304 0.03566 0.14759 0.0
Zn415 Zn 0.01691 0.033 0.18001 0.0
Zn416 Zn 0.02106 0.03496 0.16328 0.0
C417 C 0.9938 0.9701 0.17455 0.0
C418 C 0.07987 0.07122 0.17767 0.0
O419 O 1.00192 0.06541 0.15816 0.0
O420 O 0.02847 0.07863 0.14586 0.0
C421 C 0.97586 0.97635 0.15012 0.0
O422 O 0.99969 0.98323 0.16683 0.0
O423 O 0.99853 0.98702 0.18169 0.0
O424 O 0.06086 0.06018 0.18384 0.0
O425 O 0.07006 0.06409 0.1693 0.0
O426 O 0.98154 0.99757 0.14452 0.0
O427 O 0.99222 0.98428 0.15765 0.0
O428 O 0.07106 0.05536 0.16016 0.0
O429 O 0.05978 0.03042 0.14675 0.0
C430 C 0.0794 0.04554 0.15318 0.0
O431 O 0.99179 0.05663 0.16697 0.0
O432 O 0.9902 0.05125 0.18174 0.0
C433 C 0.01209 0.08331 0.15132 0.0
C434 C 0.98212 0.05977 0.17471 0.0
Zn435 Zn 0.01709 0.0401 0.33769 0.0
Zn436 Zn 0.01533 0.01548 0.36915 0.0
Zn437 Zn 0.01655 0.02893 0.35395 0.0
C438 C 0.02942 0.07862 0.3699 0.0
C439 C 0.95669 0.97592 0.3634 0.0
O440 O 0.036 1.0015 0.3469 0.0
O441 O 0.03211 0.01251 0.33273 0.0
C442 C 0.05685 0.09917 0.34586 0.0
O443 O 0.03714 0.07595 0.36183 0.0
O444 O 0.01521 0.05369 0.37433 0.0
O445 O 0.97578 0.974 0.36872 0.0
O446 O 0.96677 0.99832 0.35768 0.0
O447 O 0.04613 0.08608 0.33812 0.0
O448 O 0.04775 0.08228 0.35293 0.0
O449 O 0.9668 0.0099 0.34895 0.0
O450 O 0.97355 0.02609 0.33497 0.0
C451 C 0.95571 0.01258 0.34125 0.0
O452 O 0.04604 0.00614 0.356 0.0
O453 O 0.0543 0.01498 0.37076 0.0
C454 C 0.03887 0.99772 0.33839 0.0
C455 C 0.06097 0.00707 0.36337 0.0
Zn456 Zn 0.02026 0.0154 0.87807 0.0
Zn457 Zn 0.02411 0.01698 0.84356 0.0
Zn458 Zn 0.02192 0.01578 0.86041 0.0
C459 C 0.05138 0.08009 0.84877 0.0
C460 C 0.96183 0.98215 0.84624 0.0
O461 O 0.04595 0.98997 0.86537 0.0
O462 O 0.04368 0.99298 0.88023 0.0
C463 C 0.05217 0.07974 0.87396 0.0
O464 O 0.04266 0.06682 0.8564 0.0
O465 O 0.04817 0.06315 0.84176 0.0
O466 O 0.97983 0.99548 0.83996 0.0
O467 O 0.97292 0.98621 0.85446 0.0
O468 O 0.04208 0.06241 0.88066 0.0
O469 O 0.04675 0.06671 0.8659 0.0
O470 O 0.97199 0.99088 0.86394 0.0
O471 O 0.97454 0.99099 0.87887 0.0
C472 C 0.9585 0.98397 0.87153 0.0
O473 O 0.05122 0.99489 0.85602 0.0
O474 O 0.04492 0.99262 0.84116 0.0
C475 C 0.05181 0.98366 0.87335 0.0
C476 C 0.05662 0.9875 0.84811 0.0
Zn477 Zn 0.02988 0.02408 0.68404 0.0
Zn478 Zn 0.02734 0.0218 0.65184 0.0
Zn479 Zn 0.02799 0.02361 0.66728 0.0
C480 C 0.01732 0.96395 0.65514 0.0
C481 C 0.08361 0.07207 0.65615 0.0
O482 O 0.00724 0.05324 0.67182 0.0
O483 O 0.01492 0.05384 0.68661 0.0
C484 C 0.99047 0.96062 0.67886 0.0
O485 O 0.00751 0.97236 0.66208 0.0
O486 O 0.03376 0.98491 0.64973 0.0
O487 O 0.06241 0.06544 0.6502 0.0
O488 O 0.07712 0.05481 0.66313 0.0
O489 O 1.00115 0.97873 0.68591 0.0
O490 O 0.99869 0.97238 0.67103 0.0
O491 O 0.07841 0.0452 0.67193 0.0
O492 O 0.07385 0.03953 0.68666 0.0
C493 C 0.0906 0.04763 0.67993 0.0
O494 O 0.99798 0.04328 0.66264 0.0
O495 O 0.98472 0.0144 0.64985 0.0
C496 C 1.00577 0.06289 0.67991 0.0
C497 C 0.97982 0.03122 0.65548 0.0
Zn498 Zn 0.68472 0.36445 0.51207 0.0
Zn499 Zn 0.69385 0.37356 0.4791 0.0
Zn500 Zn 0.68881 0.36817 0.49529 0.0
C501 C 0.7508 0.38519 0.48517 0.0
C502 C 0.64674 0.31125 0.48091 0.0
O503 O 0.66083 0.39077 0.49954 0.0
O504 O 0.65816 0.38252 0.51417 0.0
C505 C 0.74729 0.4024 0.51005 0.0
O506 O 0.73923 0.38797 0.49259 0.0
O507 O 0.73418 0.37594 0.47793 0.0
O508 O 0.65648 0.33292 0.47528 0.0
O509 O 0.659 0.31811 0.48904 0.0
O510 O 0.72832 0.39122 0.51622 0.0
O511 O 0.73752 0.3957 0.50166 0.0
O512 O 0.66558 0.31573 0.4982 0.0
O513 O 0.66593 0.31826 0.51312 0.0
C514 C 0.65988 0.30186 0.50581 0.0
O515 O 0.67039 0.39996 0.49072 0.0
O516 O 0.69031 0.41169 0.47729 0.0
C517 C 0.65094 0.39278 0.50735 0.0
C518 C 0.67587 0.416 0.4835 0.0
Zn519 Zn 0.68344 0.35293 0.70415 0.0
Zn520 Zn 0.6818 0.36779 0.6725 0.0
Zn521 Zn 0.68245 0.36028 0.68901 0.0
C522 C 0.62063 0.34113 0.67665 0.0
C523 C 0.72168 0.42844 0.67986 0.0
O524 O 0.71333 0.33963 0.69179 0.0
O525 O 0.72582 0.35984 0.70577 0.0
C526 C 0.62633 0.30682 0.69901 0.0
O527 O 0.63223 0.33931 0.68435 0.0
O528 O 0.638 0.35392 0.67021 0.0
O529 O 0.71145 0.41367 0.67228 0.0
O530 O 0.71241 0.41319 0.68719 0.0
O531 O 0.6476 0.30866 0.70425 0.0
O532 O 0.6334 0.32805 0.69303 0.0
O533 O 0.70173 0.40887 0.69606 0.0
O534 O 0.67712 0.38832 0.70835 0.0
C535 C 0.69185 0.41252 0.7037 0.0
O536 O 0.70266 0.33248 0.68271 0.0
O537 O 0.69576 0.33837 0.66824 0.0
C538 C 0.7312 0.34735 0.69901 0.0
C539 C 0.70411 0.32606 0.67428 0.0
Zn540 Zn 0.68733 0.34977 0.20736 0.0
Zn541 Zn 0.68761 0.34784 0.1747 0.0
Zn542 Zn 0.6872 0.34878 0.19162 0.0
C543 C 0.71062 0.41143 0.17976 0.0
C544 C 0.62614 0.30826 0.1782 0.0
O545 O 0.70753 0.31925 0.19656 0.0
O546 O 0.6829 0.30729 0.20922 0.0
C547 C 0.73339 0.40896 0.20413 0.0
O548 O 0.70772 0.39977 0.18763 0.0
O549 O 0.70308 0.39333 0.17273 0.0
O550 O 0.64368 0.31759 0.17166 0.0
O551 O 0.63742 0.31822 0.18637 0.0
O552 O 0.72881 0.38848 0.20989 0.0
O553 O 0.71612 0.4 0.19676 0.0
O554 O 0.63767 0.32846 0.19536 0.0
O555 O 0.65038 0.35441 0.20865 0.0
C556 C 0.63005 0.33864 0.20242 0.0
O557 O 0.71687 0.32789 0.18768 0.0
O558 O 0.71627 0.332 0.17286 0.0
C559 C 0.69847 0.30209 0.20357 0.0
C560 C 0.7259 0.32468 0.17983 0.0
Zn561 Zn 0.6943 0.35516 0.017 0.0
Zn562 Zn 0.69325 0.36054 0.98244 0.0
Zn563 Zn 0.69372 0.35817 1.00005 0.0
C564 C 0.66151 0.29569 0.98593 0.0
C565 C 0.75559 0.3916 0.98825 0.0
O566 O 0.67526 0.38884 1.00557 0.0
O567 O 0.67553 0.38104 0.02018 0.0
C568 C 0.65601 0.29287 0.01109 0.0
O569 O 0.66813 0.30769 0.99413 0.0
O570 O 0.66933 0.31387 0.97938 0.0
O571 O 0.73863 0.38345 0.98108 0.0
O572 O 0.74323 0.38402 0.996 0.0
O573 O 0.66866 0.30902 0.01835 0.0
O574 O 0.66254 0.30677 1.00349 0.0
O575 O 0.74324 0.37697 1.00523 0.0
O576 O 0.73859 0.37416 0.02002 0.0
C577 C 0.75539 0.38097 0.01332 0.0
O578 O 0.66913 0.38443 0.99607 0.0
O579 O 0.67142 0.38497 0.98119 0.0
C580 C 0.67014 0.39429 0.01373 0.0
C581 C 0.66251 0.39188 0.98835 0.0
Zn582 Zn 0.34889 0.69462 0.84737 0.0
Zn583 Zn 0.36068 0.70189 0.81574 0.0
Zn584 Zn 0.35482 0.69845 0.83091 0.0
C585 C 0.41422 0.70767 0.82153 0.0
C586 C 0.31017 0.64371 0.81685 0.0
O587 O 0.32624 0.72108 0.83448 0.0
O588 O 0.32154 0.71203 0.84905 0.0
C589 C 0.41205 0.73285 0.84584 0.0
O590 O 0.40537 0.71765 0.82836 0.0
O591 O 0.39529 0.69331 0.8149 0.0
O592 O 0.31875 0.66684 0.81174 0.0
O593 O 0.32479 0.64868 0.82459 0.0
O594 O 0.39221 0.72175 0.85179 0.0
O595 O 0.40326 0.72608 0.83739 0.0
O596 O 0.3317 0.64587 0.83373 0.0
O597 O 0.33078 0.64858 0.84861 0.0
C598 C 0.3257 0.63211 0.84135 0.0
O599 O 0.33822 0.73111 0.82585 0.0
O600 O 0.36971 0.74646 0.81462 0.0
C601 C 0.31515 0.72255 0.84213 0.0
C602 C 0.35175 0.7507 0.81954 0.0
Zn603 Zn 0.3545 0.69554 0.03492 0.0
Zn604 Zn 0.34731 0.69916 1.00287 0.0
Zn605 Zn 0.35019 0.69567 0.01947 0.0
C606 C 0.28655 0.67264 1.00762 0.0
C607 C 0.38715 0.76131 1.00863 0.0
O608 O 0.38041 0.67498 0.02284 0.0
O609 O 0.39714 0.7023 0.0359 0.0
C610 C 0.29679 0.64647 0.03099 0.0
O611 O 0.29934 0.67398 0.01544 0.0
O612 O 0.30291 0.68269 1.00084 0.0
O613 O 0.3751 0.74488 1.00137 0.0
O614 O 0.3798 0.74773 0.01628 0.0
O615 O 0.31926 0.65174 0.0363 0.0
O616 O 0.30195 0.66473 0.02429 0.0
O617 O 0.37101 0.74625 0.02524 0.0
O618 O 0.34855 0.73209 0.03818 0.0
C619 C 0.36277 0.75362 0.03268 0.0
O620 O 0.36984 0.66647 0.01368 0.0
O621 O 0.36282 0.67075 0.99911 0.0
C622 C 0.4001 0.68577 0.0297 0.0
C623 C 0.37148 0.65932 1.00533 0.0
Zn624 Zn 0.35465 0.68474 0.54071 0.0
Zn625 Zn 0.35624 0.6774 0.50865 0.0
Zn626 Zn 0.35438 0.68017 0.52541 0.0
C627 C 0.38236 0.74181 0.51291 0.0
C628 C 0.29371 0.64264 0.51172 0.0
O629 O 0.37226 0.64944 0.53121 0.0
O630 O 0.34606 0.64139 0.54346 0.0
C631 C 0.40271 0.74105 0.5374 0.0
O632 O 0.37671 0.73069 0.52088 0.0
O633 O 0.37633 0.72307 0.5061 0.0
O634 O 0.31187 0.65145 0.50532 0.0
O635 O 0.30466 0.65125 0.51996 0.0
O636 O 0.39745 0.72091 0.54331 0.0
O637 O 0.38507 0.73204 0.5301 0.0
O638 O 0.30505 0.66185 0.52907 0.0
O639 O 0.31997 0.69344 0.54137 0.0
C640 C 0.29865 0.6754 0.53562 0.0
O641 O 0.38264 0.65693 0.52229 0.0
O642 O 0.38105 0.6567 0.50736 0.0
C643 C 0.36126 0.63362 0.53837 0.0
C644 C 0.39062 0.65078 0.5146 0.0
Zn645 Zn 0.36121 0.69648 0.3169 0.0
Zn646 Zn 0.3607 0.68359 0.35021 0.0
Zn647 Zn 0.3605 0.68936 0.33344 0.0
C648 C 0.42174 0.70885 0.34649 0.0
C649 C 0.3213 0.62227 0.34336 0.0
O650 O 0.33203 0.71219 0.33014 0.0
O651 O 0.32625 0.7043 0.31528 0.0
C652 C 0.42116 0.7376 0.32301 0.0
O653 O 0.41032 0.70917 0.33858 0.0
O654 O 0.40432 0.69811 0.35302 0.0
O655 O 0.33193 0.63777 0.35082 0.0
O656 O 0.32999 0.63681 0.3359 0.0
O657 O 0.40294 0.73427 0.31647 0.0
O658 O 0.41055 0.72007 0.32991 0.0
O659 O 0.339 0.63999 0.32688 0.0
O660 O 0.3557 0.65408 0.31321 0.0
C661 C 0.34328 0.63252 0.31884 0.0
O662 O 0.34035 0.71775 0.3394 0.0
O663 O 0.34532 0.7121 0.35399 0.0
C664 C 0.31945 0.71317 0.32251 0.0
C665 C 0.33762 0.72419 0.34772 0.0
C666 C 0.24849 0.24013 0.23692 0.0
C667 C 0.264 0.27372 0.23664 0.0
C668 C 0.23417 0.22066 0.22909 0.0
C669 C 0.19959 0.21832 0.20669 0.0
H670 H 0.21001 0.14509 0.20198 0.0
C671 C 0.12741 0.12561 0.17776 0.0
C672 C 0.11256 0.094 0.18056 0.0
C673 C 0.1527 0.15011 0.18296 0.0
C674 C 0.20673 0.16536 0.20319 0.0
H675 H 0.27606 0.31308 0.22787 0.0
H676 H 0.25041 0.27895 0.21422 0.0
H677 H 0.23877 0.1826 0.21472 0.0
H678 H 0.11402 0.06265 0.19044 0.0
H679 H 0.15785 0.10463 0.19936 0.0
H680 H 0.16643 0.20034 0.19545 0.0
C681 C 0.24958 0.26777 0.22052 0.0
C682 C 0.22324 0.18686 0.21051 0.0
C683 C 0.26429 0.28731 0.22834 0.0
C684 C 0.12529 0.0868 0.18807 0.0
C685 C 0.15049 0.11105 0.19322 0.0
C686 C 0.18279 0.19659 0.19942 0.0
C687 C 0.23465 0.23421 0.22078 0.0
C688 C 0.21933 0.21318 0.21248 0.0
C689 C 0.16361 0.14329 0.19101 0.0
C690 C 0.18551 0.16932 0.1977 0.0
H691 H 0.24786 0.2288 0.24318 0.0
H692 H 0.22248 0.19488 0.22955 0.0
H693 H 0.19599 0.23831 0.20804 0.0
H694 H 0.11776 0.13186 0.17206 0.0
H695 H 0.16257 0.17458 0.18095 0.0
C696 C 0.80223 0.99669 0.22689 0.0
C697 C 0.78191 0.00832 0.22841 0.0
C698 C 0.82208 0.00721 0.21972 0.0
C699 C 0.83493 0.04111 0.19749 0.0
H700 H 0.92141 0.07068 0.20385 0.0
C701 C 0.92745 0.04668 0.17343 0.0
C702 C 0.95864 0.06935 0.17577 0.0
C703 C 0.9036 0.04606 0.17838 0.0
C704 C 0.89747 0.06303 0.20194 0.0
H705 H 0.76577 0.0393 0.22337 0.0
H706 H 0.80028 0.05733 0.21066 0.0
H707 H 0.88414 0.05412 0.21562 0.0
H708 H 0.98914 0.11159 0.18421 0.0
H709 H 0.94769 0.11145 0.19256 0.0
H710 H 0.84834 0.04896 0.18371 0.0
C711 C 0.80088 0.04024 0.21511 0.0
C712 C 0.87605 0.05317 0.2087 0.0
C713 C 0.78131 0.03009 0.22241 0.0
C714 C 0.96526 0.09406 0.18221 0.0
C715 C 0.94152 0.09361 0.1871 0.0
C716 C 0.85641 0.05056 0.19067 0.0
C717 C 0.82184 0.0293 0.21379 0.0
C718 C 0.8445 0.0417 0.20655 0.0
C719 C 0.91073 0.06822 0.1857 0.0
C720 C 0.88795 0.06145 0.19282 0.0
H721 H 0.80352 0.9802 0.23142 0.0
H722 H 0.83786 0.99822 0.21883 0.0
H723 H 0.81069 0.0323 0.19566 0.0
H724 H 0.92179 0.02701 0.16861 0.0
H725 H 0.88013 0.02622 0.17711 0.0
C726 C 0.0091 0.80209 0.22649 0.0
C727 C 0.03516 0.79809 0.22665 0.0
C728 C 1.00115 0.81342 0.21888 0.0
C729 C 0.03511 0.86033 0.1988 0.0
H730 H 0.94902 0.83115 0.19195 0.0
C731 C 1.006 0.92645 0.17231 0.0
C732 C 0.98627 0.93674 0.17566 0.0
C733 C 0.00783 0.90149 0.17635 0.0
C734 C 0.97319 0.83949 0.19375 0.0
H735 H 0.07274 0.80218 0.21871 0.0
H736 H 0.05892 0.82199 0.20546 0.0
H737 H 0.96141 0.80419 0.20364 0.0
H738 H 0.95062 0.92692 0.18511 0.0
H739 H 0.95311 0.88317 0.19196 0.0
H740 H 0.04693 0.8963 0.18915 0.0
C741 C 0.04486 0.81675 0.21129 0.0
C742 C 0.98031 0.82414 0.20049 0.0
C743 C 0.05283 0.80542 0.21892 0.0
C744 C 0.96583 0.91924 0.18234 0.0
C745 C 0.9674 0.89418 0.1863 0.0
C746 C 0.028 0.87565 0.19206 0.0
C747 C 0.01899 0.82108 0.21118 0.0
C748 C 0.01137 0.8349 0.20328 0.0
C749 C 0.9897 0.88624 0.18373 0.0
C750 C 0.99694 0.86601 0.18961 0.0
H751 H 0.99517 0.79722 0.23233 0.0
H752 H 0.98144 0.81702 0.21913 0.0
H753 H 0.05929 0.86954 0.20081 0.0
H754 H 0.02229 0.9398 0.16725 0.0
H755 H 0.02488 0.89558 0.17409 0.0
C756 C 0.2409 0.21251 0.29634 0.0
C757 C 0.25813 0.24454 0.29389 0.0
C758 C 0.22496 0.20466 0.30433 0.0
C759 C 0.19108 0.23494 0.3211 0.0
H760 H 0.18051 0.16122 0.33371 0.0
C761 C 0.08292 0.15332 0.33995 0.0
C762 C 0.08372 0.13208 0.34608 0.0
C763 C 0.11019 0.17669 0.33629 0.0
C764 C 0.18365 0.18236 0.33046 0.0
H765 H 0.27247 0.29353 0.29813 0.0
H766 H 0.2447 0.27984 0.31211 0.0
H767 H 0.21702 0.18192 0.32181 0.0
H768 H 0.11397 0.12165 0.35419 0.0
H769 H 0.16193 0.16339 0.34808 0.0
H770 H 0.15754 0.23523 0.32975 0.0
C771 C 0.24323 0.26071 0.30776 0.0
C772 C 0.20428 0.19391 0.32348 0.0
C773 C 0.25917 0.26858 0.29973 0.0
C774 C 0.11268 0.13782 0.34952 0.0
C775 C 0.14011 0.16132 0.34585 0.0
C776 C 0.17054 0.2235 0.32814 0.0
C777 C 0.2258 0.2286 0.31016 0.0
C778 C 0.20744 0.21959 0.31847 0.0
C779 C 0.13895 0.17943 0.3387 0.0
C780 C 0.16567 0.19629 0.33271 0.0
H781 H 0.23899 0.19325 0.29197 0.0
H782 H 0.21122 0.1796 0.30579 0.0
H783 H 0.19286 0.25479 0.31743 0.0
H784 H 0.06086 0.14927 0.33715 0.0
H785 H 0.10806 0.19005 0.33085 0.0
C786 C 0.79033 0.01288 0.283 0.0
C787 C 0.77726 0.03243 0.28429 0.0
C788 C 0.80524 0.00702 0.2902 0.0
C789 C 0.81558 0.01361 0.31552 0.0
H790 H 0.88478 1.00158 0.3103 0.0
C791 C 0.91131 0.0219 0.34115 0.0
C792 C 0.92259 1.00107 0.33928 0.0
C793 C 0.88724 0.02058 0.33566 0.0
C794 C 0.86519 1.0044 0.31187 0.0
H795 H 0.77002 0.06152 0.2942 0.0
H796 H 0.79738 0.05264 0.30669 0.0
H797 H 0.85831 0.01228 0.29813 0.0
H798 H 0.91576 0.96068 0.33082 0.0
H799 H 0.87342 0.9578 0.3214 0.0
H800 H 0.82403 0.00729 0.32943 0.0
C801 C 0.7953 0.04094 0.30016 0.0
C802 C 0.84986 0.0105 0.30486 0.0
C803 C 0.77987 0.04636 0.29297 0.0
C804 C 0.90708 0.97659 0.33252 0.0
C805 C 0.8832 0.97533 0.32703 0.0
C806 C 0.83138 0.00803 0.32259 0.0
C807 C 0.80812 0.02103 0.2989 0.0
C808 C 0.82464 0.015 0.30653 0.0
C809 C 0.87438 0.99856 0.32818 0.0
C810 C 0.8562 1.00309 0.32081 0.0
H811 H 0.78833 1.00131 0.27645 0.0
H812 H 0.81401 0.99094 0.28893 0.0
H813 H 0.79607 0.01651 0.31711 0.0
H814 H 0.92342 0.04152 0.34616 0.0
H815 H 0.88097 0.03881 0.33672 0.0
C816 C 0.00674 0.77141 0.29121 0.0
C817 C 0.01613 0.78092 0.28242 0.0
C818 C 0.01106 0.79405 0.29807 0.0
C819 C 0.02641 0.87756 0.30144 0.0
H820 H 0.04942 0.8703 0.32612 0.0
C821 C 0.06399 0.98157 0.32688 0.0
C822 C 0.04724 0.97441 0.33477 0.0
C823 C 0.06369 0.95731 0.3215 0.0
C824 C 0.04288 0.87252 0.31926 0.0
H825 H 0.03781 0.82187 0.27401 0.0
H826 H 0.04594 0.8612 0.28593 0.0
H827 H 0.04069 0.82907 0.31451 0.0
H828 H 0.0194 0.93666 0.34366 0.0
H829 H 0.01893 0.89381 0.33419 0.0
H830 H 0.02895 0.92105 0.30611 0.0
C831 C 0.0345 0.8362 0.28752 0.0
C832 C 0.03772 0.84884 0.31261 0.0
C833 C 0.02995 0.81359 0.28066 0.0
C834 C 0.03273 0.94286 0.33765 0.0
C835 C 0.0323 0.91834 0.3322 0.0
C836 C 0.03184 0.90122 0.30804 0.0
C837 C 0.02505 0.82681 0.29633 0.0
C838 C 0.02967 0.85122 0.30358 0.0
C839 C 0.04645 0.92519 0.32383 0.0
C840 C 0.04046 0.89923 0.317 0.0
H841 H 0.99602 0.74644 0.2928 0.0
H842 H 1.0031 0.78579 0.30472 0.0
H843 H 0.01938 0.87988 0.29466 0.0
H844 H 0.07551 0.00572 0.32452 0.0
H845 H 0.07548 0.96347 0.31521 0.0
C846 C 0.79229 0.8137 0.78567 0.0
C847 C 0.77976 0.78048 0.78616 0.0
C848 C 0.8077 0.8344 0.79321 0.0
C849 C 0.82045 0.83666 0.81833 0.0
H850 H 0.8904 0.92034 0.81401 0.0
C851 C 0.91686 0.92634 0.84497 0.0
C852 C 0.92913 0.95903 0.8435 0.0
C853 C 0.89278 0.90296 0.83918 0.0
C854 C 0.87062 0.89724 0.81535 0.0
H855 H 0.77379 0.74301 0.79499 0.0
H856 H 0.80178 0.77924 0.80807 0.0
H857 H 0.86241 0.88296 0.80133 0.0
H858 H 0.92361 0.99299 0.83563 0.0
H859 H 0.88113 0.9525 0.82578 0.0
H860 H 0.82997 0.85105 0.83247 0.0
C861 C 0.79901 0.78929 0.80192 0.0
C862 C 0.85445 0.8757 0.80804 0.0
C863 C 0.78319 0.76849 0.79438 0.0
C864 C 0.91445 0.96793 0.83693 0.0
C865 C 0.89044 0.94473 0.83121 0.0
C866 C 0.83701 0.85821 0.82568 0.0
C867 C 0.81152 0.8226 0.80144 0.0
C868 C 0.82893 0.84515 0.80938 0.0
C869 C 0.88073 0.91211 0.83189 0.0
C870 C 0.8621 0.88889 0.82425 0.0
H871 H 0.78971 0.82376 0.77949 0.0
H872 H 0.81628 0.85972 0.79259 0.0
H873 H 0.80078 0.81351 0.81965 0.0
H874 H 0.92812 0.91887 0.84989 0.0
H875 H 0.88572 0.878 0.83989 0.0
C876 C 0.23699 0.05285 0.79633 0.0
C877 C 0.25162 0.03634 0.79314 0.0
C878 C 0.22032 0.04404 0.80418 0.0
C879 C 0.1788 0.97624 0.81891 0.0
H880 H 0.17928 0.04214 0.83452 0.0
C881 C 0.07582 0.95768 0.83918 0.0
C882 C 0.0805 0.97862 0.84659 0.0
C883 C 0.10107 0.95941 0.83485 0.0
C884 C 0.17925 0.0233 0.8304 0.0
H885 H 0.26025 0.99759 0.79591 0.0
H886 H 0.23094 0.98209 0.80959 0.0
H887 H 0.21537 0.05735 0.82247 0.0
H888 H 0.11505 0.01489 0.85601 0.0
H889 H 0.15943 0.01754 0.84857 0.0
H890 H 0.14227 0.9422 0.82677 0.0
C891 C 0.23224 1.00178 0.80593 0.0
C892 C 0.19968 0.0321 0.82336 0.0
C893 C 0.24902 0.01065 0.79806 0.0
C894 C 0.11077 0.99832 0.85034 0.0
C895 C 0.13619 1.00022 0.84596 0.0
C896 C 0.15835 0.96742 0.82597 0.0
C897 C 0.21772 0.01843 0.80911 0.0
C898 C 0.19902 0.00875 0.81733 0.0
C899 C 0.13165 0.98225 0.83782 0.0
C900 C 0.15759 0.99087 0.83163 0.0
H901 H 0.23787 0.07231 0.79267 0.0
H902 H 0.20886 0.05695 0.80627 0.0
H903 H 0.17763 0.95758 0.81441 0.0
H904 H 0.05269 0.94237 0.83613 0.0
H905 H 0.09646 0.94513 0.82863 0.0
C906 C 0.99311 0.23413 0.80104 0.0
C907 C 0.01221 0.24649 0.79367 0.0
C908 C 1.00267 0.22358 0.80853 0.0
C909 C 0.05498 0.19317 0.81458 0.0
H910 H 0.036 0.20334 0.83921 0.0
C911 C 0.08428 0.1321 0.84197 0.0
C912 C 0.05956 0.11346 0.84744 0.0
C913 C 0.08464 0.15677 0.83719 0.0
C914 C 0.04146 0.20026 0.83237 0.0
H915 H 0.05679 0.25782 0.78856 0.0
H916 H 0.07355 0.24004 0.8016 0.0
H917 H 0.02361 0.22901 0.82707 0.0
H918 H 0.01756 0.10795 0.85293 0.0
H919 H 0.01768 0.15055 0.84445 0.0
H920 H 0.07173 0.16363 0.81969 0.0
C921 C 0.05098 0.23815 0.80156 0.0
C922 C 0.03428 0.21492 0.82541 0.0
C923 C 0.04144 0.24868 0.79409 0.0
C924 C 0.03714 0.12231 0.84886 0.0
C925 C 0.03713 0.14664 0.84392 0.0
C926 C 0.06204 0.17852 0.8215 0.0
C927 C 0.03157 0.22505 0.80883 0.0
C928 C 0.04071 0.21129 0.8164 0.0
C929 C 0.05984 0.16275 0.83758 0.0
C930 C 0.05518 0.18158 0.8305 0.0
H931 H 0.97066 0.23245 0.80104 0.0
H932 H 0.987 0.2134 0.81396 0.0
H933 H 0.0597 0.18924 0.80772 0.0
H934 H 0.10177 0.12563 0.84074 0.0
H935 H 0.10312 0.16941 0.83262 0.0
C936 C 0.78727 0.78251 0.72489 0.0
C937 C 0.7821 0.80473 0.72972 0.0
C938 C 0.80521 0.7914 0.71725 0.0
C939 C 0.83979 0.85554 0.70056 0.0
H940 H 0.89957 0.82729 0.69824 0.0
C941 C 0.93619 0.91575 0.67575 0.0
C942 C 0.96561 0.92735 0.68004 0.0
C943 C 0.90964 0.89137 0.67957 0.0
C944 C 0.88292 0.83531 0.69874 0.0
H945 H 0.79187 0.8538 0.73024 0.0
H946 H 0.82337 0.86943 0.71709 0.0
H947 H 0.86127 0.80534 0.70973 0.0
H948 H 0.99085 0.92023 0.69096 0.0
H949 H 0.94518 0.87785 0.69751 0.0
H950 H 0.86273 0.88712 0.69 0.0
C951 C 0.813 0.84485 0.71904 0.0
C952 C 0.8607 0.82247 0.7053 0.0
C953 C 0.79496 0.83592 0.72663 0.0
C954 C 0.96841 0.91155 0.68749 0.0
C955 C 0.94206 0.8872 0.69127 0.0
C956 C 0.86211 0.86851 0.69404 0.0
C957 C 0.81856 0.8228 0.71426 0.0
C958 C 0.83944 0.83317 0.70649 0.0
C959 C 0.91218 0.87814 0.68769 0.0
C960 C 0.88464 0.85935 0.69323 0.0
H961 H 0.77732 0.75814 0.72698 0.0
H962 H 0.80856 0.7736 0.71369 0.0
H963 H 0.82337 0.86385 0.70112 0.0
H964 H 0.93337 0.92775 0.67005 0.0
H965 H 0.88703 0.88449 0.67651 0.0
C966 C 0.26171 0.02856 0.73456 0.0
C967 C 0.24423 0.02163 0.74233 0.0
C968 C 0.25068 0.03419 0.7264 0.0
C969 C 0.19605 0.05941 0.71793 0.0
H970 H 0.20442 0.02779 0.69448 0.0
C971 C 0.12939 0.03069 0.68135 0.0
C972 C 0.123 0.05584 0.68168 0.0
C973 C 0.15222 0.03137 0.68725 0.0
C974 C 0.20198 0.03691 0.70097 0.0
H975 H 0.20081 0.01387 0.74745 0.0
H976 H 0.18148 0.02313 0.73328 0.0
H977 H 0.22553 0.01659 0.7081 0.0
H978 H 0.13783 0.103 0.68758 0.0
H979 H 0.17902 0.10532 0.69742 0.0
H980 H 0.1714 0.07848 0.71099 0.0
C981 C 0.20404 0.02495 0.73351 0.0
C982 C 0.21426 0.03064 0.70878 0.0
C983 C 0.21503 0.01936 0.74164 0.0
C984 C 0.1426 0.0835 0.6871 0.0
C985 C 0.16572 0.08443 0.69289 0.0
C986 C 0.18384 0.06566 0.71017 0.0
C987 C 0.22195 0.03309 0.72582 0.0
C988 C 0.21087 0.04127 0.71739 0.0
C989 C 0.16923 0.05739 0.69353 0.0
C990 C 0.18617 0.05414 0.70157 0.0
H991 H 0.28436 0.0306 0.73484 0.0
H992 H 0.26515 0.04048 0.72064 0.0
H993 H 0.1935 0.06855 0.72441 0.0
H994 H 0.11412 0.00877 0.6774 0.0
H995 H 0.15414 0.01008 0.6875 0.0
C996 C 1.00372 0.23471 0.73798 0.0
C997 C 0.02516 0.2676 0.73755 0.0
C998 C 0.9979 0.21352 0.73058 0.0
C999 C 0.00894 0.21 0.70575 0.0
H1000 H 0.99255 0.12484 0.71083 0.0
C1001 C 0.01611 0.11875 0.68057 0.0
C1002 C 0.99562 0.08613 0.68185 0.0
C1003 C 0.01497 0.14235 0.68602 0.0
C1004 C 0.99657 0.14835 0.70927 0.0
H1005 H 0.05742 0.30397 0.72895 0.0
H1006 H 0.04823 0.26684 0.71616 0.0
H1007 H 1.00197 0.16279 0.72324 0.0
H1008 H 0.95602 0.05258 0.68907 0.0
H1009 H 0.95324 0.09351 0.69831 0.0
H1010 H 1.00478 0.19543 0.69169 0.0
C1011 C 0.03524 0.25746 0.72214 0.0
C1012 C 1.00198 0.17023 0.71642 0.0
C1013 C 0.04075 0.27877 0.72952 0.0
C1014 C 0.97179 0.07759 0.68787 0.0
C1015 C 0.97057 0.10104 0.69327 0.0
C1016 C 1.00388 0.18809 0.69856 0.0
C1017 C 0.01371 0.22447 0.72256 0.0
C1018 C 0.0081 0.20137 0.7148 0.0
C1019 C 0.99335 0.13353 0.69281 0.0
C1020 C 0.99742 0.15691 0.70025 0.0
H1021 H 0.99093 0.22531 0.744 0.0
H1022 H 0.98064 0.18852 0.73115 0.0
H1023 H 0.01323 0.23359 0.7042 0.0
H1024 H 0.03513 0.1259 0.67612 0.0
H1025 H 0.03284 0.16717 0.68549 0.0
C1026 C 0.92662 0.59107 0.56808 0.0
C1027 C 0.90935 0.58149 0.57589 0.0
C1028 C 0.91411 0.57399 0.55977 0.0
C1029 C 0.85315 0.49371 0.55047 0.0
H1030 H 0.86624 0.53486 0.52765 0.0
C1031 C 0.78881 0.45856 0.51321 0.0
C1032 C 0.77963 0.42592 0.51294 0.0
C1033 C 0.8117 0.48005 0.5196 0.0
C1034 C 0.86238 0.52296 0.53396 0.0
H1035 H 0.86488 0.54711 0.58096 0.0
H1036 H 0.84296 0.51788 0.56652 0.0
H1037 H 0.88963 0.56748 0.54165 0.0
H1038 H 0.78921 0.3907 0.51844 0.0
H1039 H 0.83052 0.42834 0.52914 0.0
H1040 H 0.82489 0.44946 0.54297 0.0
C1041 C 0.86646 0.5381 0.56683 0.0
C1042 C 0.876 0.54168 0.542 0.0
C1043 C 0.87896 0.55507 0.57512 0.0
C1044 C 0.79621 0.41586 0.51841 0.0
C1045 C 0.8194 0.43737 0.52469 0.0
C1046 C 0.83957 0.4751 0.54248 0.0
C1047 C 0.88403 0.54692 0.55906 0.0
C1048 C 0.8711 0.5273 0.55038 0.0
C1049 C 0.82596 0.46925 0.5258 0.0
C1050 C 0.84363 0.48938 0.5341 0.0
H1051 H 0.95015 0.61125 0.56843 0.0
H1052 H 0.9284 0.58142 0.55396 0.0
H1053 H 0.84931 0.48167 0.55676 0.0
H1054 H 0.77583 0.46675 0.50923 0.0
H1055 H 0.81597 0.50432 0.52021 0.0
C1056 C 0.47453 0.32962 0.56061 0.0
C1057 C 0.45529 0.34228 0.56252 0.0
C1058 C 0.49422 0.34039 0.55339 0.0
C1059 C 0.50726 0.37695 0.53156 0.0
H1060 H 0.59331 0.40279 0.53723 0.0
C1061 C 0.59684 0.38142 0.50649 0.0
C1062 C 0.62831 0.40333 0.50872 0.0
C1063 C 0.57369 0.38111 0.51172 0.0
C1064 C 0.5695 0.39618 0.53552 0.0
H1065 H 0.44086 0.37539 0.55816 0.0
H1066 H 0.47503 0.39386 0.54538 0.0
H1067 H 0.55678 0.38608 0.54922 0.0
H1068 H 0.66008 0.44462 0.51729 0.0
H1069 H 0.61984 0.44498 0.52617 0.0
H1070 H 0.51998 0.38594 0.51774 0.0
C1071 C 0.47496 0.37579 0.54955 0.0
C1072 C 0.5485 0.38623 0.5424 0.0
C1073 C 0.45561 0.36539 0.55688 0.0
C1074 C 0.63595 0.42773 0.51537 0.0
C1075 C 0.61291 0.42754 0.52056 0.0
C1076 C 0.52829 0.38645 0.52461 0.0
C1077 C 0.49482 0.36373 0.54782 0.0
C1078 C 0.5171 0.37614 0.54049 0.0
C1079 C 0.58181 0.4028 0.51922 0.0
C1080 C 0.55965 0.39601 0.52652 0.0
H1081 H 0.47504 0.31203 0.56485 0.0
H1082 H 0.50914 0.33054 0.55219 0.0
H1083 H 0.48314 0.3692 0.52991 0.0
H1084 H 0.59039 0.36196 0.50152 0.0
H1085 H 0.54994 0.36177 0.5105 0.0
C1086 C 0.6785 0.1216 0.55508 0.0
C1087 C 0.70192 0.1447 0.56113 0.0
C1088 C 0.67076 0.13055 0.54692 0.0
C1089 C 0.70102 0.19693 0.53105 0.0
H1090 H 0.61433 0.1645 0.52421 0.0
C1091 C 0.67091 0.25757 0.50346 0.0
C1092 C 0.65105 0.26801 0.5066 0.0
C1093 C 0.67241 0.23268 0.50766 0.0
C1094 C 0.63866 0.17362 0.52597 0.0
H1095 H 0.73508 0.19557 0.56326 0.0
H1096 H 0.72182 0.21092 0.54915 0.0
H1097 H 0.6281 0.14222 0.53693 0.0
H1098 H 0.61454 0.25821 0.5157 0.0
H1099 H 0.61661 0.21481 0.52288 0.0
H1100 H 0.71174 0.22961 0.52052 0.0
C1101 C 0.70978 0.18578 0.55061 0.0
C1102 C 0.64657 0.16068 0.53323 0.0
C1103 C 0.7174 0.17691 0.55875 0.0
C1104 C 0.62987 0.25041 0.51311 0.0
C1105 C 0.63122 0.22553 0.51726 0.0
C1106 C 0.69315 0.20983 0.52381 0.0
C1107 C 0.68638 0.16278 0.54457 0.0
C1108 C 0.67786 0.17296 0.53606 0.0
C1109 C 0.65396 0.21781 0.51502 0.0
C1110 C 0.66186 0.19912 0.52135 0.0
H1111 H 0.66625 0.09654 0.55659 0.0
H1112 H 0.65274 0.11218 0.54241 0.0
H1113 H 0.72536 0.20654 0.53293 0.0
H1114 H 0.68773 0.27095 0.49852 0.0
H1115 H 0.68972 0.22685 0.50562 0.0
C1116 C 0.89757 0.58373 0.62819 0.0
C1117 C 0.92233 0.5781 0.62708 0.0
C1118 C 0.88088 0.57522 0.63606 0.0
C1119 C 0.86379 0.52147 0.6552 0.0
H1120 H 0.82327 0.56654 0.66416 0.0
C1121 C 0.77766 0.46715 0.68277 0.0
C1122 C 0.7483 0.46135 0.67972 0.0
C1123 C 0.80445 0.49023 0.67875 0.0
C1124 C 0.83464 0.55384 0.66179 0.0
H1125 H 0.94988 0.5605 0.63357 0.0
H1126 H 0.92142 0.54637 0.64737 0.0
H1127 H 0.85944 0.58869 0.65206 0.0
H1128 H 0.72416 0.47778 0.67103 0.0
H1129 H 0.77066 0.51864 0.66427 0.0
H1130 H 0.83856 0.48633 0.66477 0.0
C1131 C 0.91415 0.55645 0.64206 0.0
C1132 C 0.85519 0.56637 0.65478 0.0
C1133 C 0.93056 0.5646 0.63414 0.0
C1134 C 0.74657 0.48206 0.67358 0.0
C1135 C 0.7733 0.50535 0.66965 0.0
C1136 C 0.84352 0.50915 0.66224 0.0
C1137 C 0.88873 0.56118 0.6431 0.0
C1138 C 0.86948 0.54992 0.65122 0.0
C1139 C 0.80226 0.50811 0.67172 0.0
C1140 C 0.82808 0.52473 0.66549 0.0
H1141 H 0.89045 0.59381 0.62284 0.0
H1142 H 0.86118 0.57877 0.63649 0.0
H1143 H 0.87379 0.50771 0.65259 0.0
H1144 H 0.77961 0.45121 0.6874 0.0
H1145 H 0.82652 0.49219 0.68061 0.0
C1146 C 0.45144 0.37781 0.62713 0.0
C1147 C 0.4468 0.36158 0.61869 0.0
C1148 C 0.46561 0.37166 0.6345 0.0
C1149 C 0.51399 0.33468 0.63994 0.0
H1150 H 0.49169 0.34004 0.66452 0.0
C1151 C 0.57105 0.30418 0.66848 0.0
C1152 C 0.58747 0.32981 0.67486 0.0
C1153 C 0.54711 0.30254 0.66293 0.0
C1154 C 0.49804 0.33834 0.65768 0.0
H1155 H 0.45274 0.32555 0.61149 0.0
H1156 H 0.47629 0.31408 0.6243 0.0
H1157 H 0.46477 0.34932 0.65193 0.0
H1158 H 0.58981 0.372 0.68106 0.0
H1159 H 0.54743 0.36882 0.67151 0.0
H1160 H 0.54706 0.32359 0.64566 0.0
C1161 C 0.47008 0.3324 0.62522 0.0
C1162 C 0.48283 0.34394 0.65045 0.0
C1163 C 0.4564 0.33889 0.61784 0.0
C1164 C 0.577 0.35154 0.67635 0.0
C1165 C 0.55295 0.34992 0.67079 0.0
C1166 C 0.52877 0.32866 0.64713 0.0
C1167 C 0.47512 0.34879 0.63367 0.0
C1168 C 0.4907 0.34234 0.64146 0.0
C1169 C 0.53921 0.32661 0.66363 0.0
C1170 C 0.52111 0.3305 0.65609 0.0
H1171 H 0.44428 0.39542 0.62802 0.0
H1172 H 0.46945 0.38519 0.64082 0.0
H1173 H 0.52147 0.33403 0.6332 0.0
H1174 H 0.57908 0.28751 0.66707 0.0
H1175 H 0.53658 0.28396 0.65757 0.0
C1176 C 0.69309 0.12913 0.6192 0.0
C1177 C 0.68147 0.13527 0.6112 0.0
C1178 C 0.69791 0.14758 0.6272 0.0
C1179 C 0.71102 0.22717 0.63485 0.0
H1180 H 0.69344 0.19213 0.65858 0.0
C1181 C 0.69059 0.26957 0.67161 0.0
C1182 C 0.71252 0.30231 0.67124 0.0
C1183 C 0.69127 0.24714 0.66554 0.0
C1184 C 0.69852 0.20231 0.65201 0.0
H1185 H 0.66457 0.16478 0.6055 0.0
H1186 H 0.67248 0.19645 0.6194 0.0
H1187 H 0.68303 0.15653 0.64524 0.0
H1188 H 0.75395 0.33702 0.66493 0.0
H1189 H 0.75642 0.29792 0.65476 0.0
H1190 H 0.72535 0.27257 0.64143 0.0
C1191 C 0.67856 0.17787 0.61947 0.0
C1192 C 0.69274 0.18192 0.64436 0.0
C1193 C 0.67379 0.15952 0.61149 0.0
C1194 C 0.73701 0.31184 0.66542 0.0
C1195 C 0.738 0.28945 0.65947 0.0
C1196 C 0.71678 0.24745 0.64245 0.0
C1197 C 0.69126 0.17262 0.62739 0.0
C1198 C 0.6985 0.19406 0.63566 0.0
C1199 C 0.71403 0.25713 0.65905 0.0
C1200 C 0.71041 0.23537 0.65114 0.0
H1201 H 0.69932 0.11067 0.61923 0.0
H1202 H 0.70784 0.14293 0.63315 0.0
H1203 H 0.71628 0.23753 0.62829 0.0
H1204 H 0.67107 0.26176 0.6759 0.0
H1205 H 0.67239 0.22254 0.66544 0.0
C1206 C 0.44614 0.11856 0.12119 0.0
C1207 C 0.463 0.12949 0.11334 0.0
C1208 C 0.45843 0.1352 0.12956 0.0
C1209 C 0.51658 0.216 0.13913 0.0
H1210 H 0.50813 0.17362 0.16157 0.0
C1211 C 0.58602 0.25158 0.17542 0.0
C1212 C 0.59355 0.28374 0.17602 0.0
C1213 C 0.56243 0.22964 0.16929 0.0
C1214 C 0.51061 0.18585 0.15537 0.0
H1215 H 0.50657 0.16585 0.10826 0.0
H1216 H 0.5281 0.19443 0.12281 0.0
H1217 H 0.48477 0.14158 0.14747 0.0
H1218 H 0.5804 0.31748 0.17145 0.0
H1219 H 0.538 0.27894 0.16116 0.0
H1220 H 0.54346 0.26011 0.14683 0.0
C1221 C 0.50508 0.1734 0.12248 0.0
C1222 C 0.49705 0.16746 0.14729 0.0
C1223 C 0.49282 0.15683 0.11413 0.0
C1224 C 0.57468 0.29267 0.17123 0.0
C1225 C 0.55085 0.27069 0.16518 0.0
C1226 C 0.53007 0.2343 0.14717 0.0
C1227 C 0.48785 0.1632 0.13028 0.0
C1228 C 0.50041 0.18234 0.13903 0.0
C1229 C 0.54589 0.23952 0.16366 0.0
C1230 C 0.52773 0.21957 0.1554 0.0
H1231 H 0.42305 0.09763 0.12083 0.0
H1232 H 0.44446 0.12671 0.13541 0.0
H1233 H 0.51916 0.22835 0.13295 0.0
H1234 H 0.60076 0.24432 0.17887 0.0
H1235 H 0.55944 0.20595 0.16834 0.0
C1236 C 0.92246 0.35101 0.13091 0.0
C1237 C 0.9239 0.37533 0.12557 0.0
C1238 C 0.90561 0.34269 0.13878 0.0
C1239 C 0.8702 0.37252 0.15539 0.0
H1240 H 0.81551 0.28257 0.15949 0.0
C1241 C 0.78061 0.33781 0.18226 0.0
C1242 C 0.75053 0.31676 0.17858 0.0
C1243 C 0.80652 0.34057 0.17797 0.0
C1244 C 0.83082 0.30781 0.1585 0.0
H1245 H 0.9082 0.40963 0.12439 0.0
H1246 H 0.87915 0.39527 0.138 0.0
H1247 H 0.85136 0.29797 0.14727 0.0
H1248 H 0.7237 0.2795 0.16827 0.0
H1249 H 0.76835 0.28363 0.16094 0.0
H1250 H 0.84856 0.38246 0.16624 0.0
C1251 C 0.8915 0.38298 0.13622 0.0
C1252 C 0.85157 0.31666 0.15151 0.0
C1253 C 0.90822 0.39122 0.12837 0.0
C1254 C 0.74667 0.29567 0.1713 0.0
C1255 C 0.77242 0.29823 0.16706 0.0
C1256 C 0.84952 0.3637 0.16236 0.0
C1257 C 0.88987 0.35856 0.14153 0.0
C1258 C 0.87084 0.34913 0.14969 0.0
C1259 C 0.80267 0.32216 0.16997 0.0
C1260 C 0.82885 0.3312 0.16385 0.0
H1261 H 0.93451 0.33849 0.12908 0.0
H1262 H 0.90512 0.32398 0.14274 0.0
H1263 H 0.88511 0.39777 0.1543 0.0
H1264 H 0.78422 0.35464 0.18779 0.0
H1265 H 0.8295 0.3588 0.18051 0.0
C1266 C 0.70793 0.5878 0.12613 0.0
C1267 C 0.67895 0.58616 0.12565 0.0
C1268 C 0.71665 0.5761 0.1335 0.0
C1269 C 0.69791 0.55014 0.15706 0.0
H1270 H 0.73422 0.49807 0.15097 0.0
C1271 C 0.69683 0.45391 0.17977 0.0
C1272 C 0.71919 0.4449 0.17848 0.0
C1273 C 0.6976 0.47882 0.17495 0.0
C1274 C 0.72483 0.51314 0.15289 0.0
H1275 H 0.637 0.57193 0.13284 0.0
H1276 H 0.65192 0.55091 0.14558 0.0
H1277 H 0.72388 0.52574 0.13924 0.0
H1278 H 0.7616 0.45674 0.17196 0.0
H1279 H 0.76425 0.50147 0.164 0.0
H1280 H 0.69824 0.53673 0.17073 0.0
C1281 C 0.66803 0.56152 0.14027 0.0
C1282 C 0.71875 0.52898 0.14611 0.0
C1283 C 0.65929 0.57322 0.13288 0.0
C1284 C 0.74428 0.46351 0.17314 0.0
C1285 C 0.74539 0.48871 0.16844 0.0
C1286 C 0.70411 0.5343 0.16389 0.0
C1287 C 0.69666 0.56239 0.14061 0.0
C1288 C 0.70488 0.5474 0.14806 0.0
C1289 C 0.72093 0.49526 0.1688 0.0
C1290 C 0.71737 0.51528 0.16188 0.0
H1291 H 0.72368 0.59735 0.1207 0.0
H1292 H 0.73904 0.57755 0.13358 0.0
H1293 H 0.68754 0.56445 0.15883 0.0
H1294 H 0.67688 0.43944 0.1837 0.0
H1295 H 0.67834 0.48306 0.17542 0.0
C1296 C 0.45218 0.11701 0.05724 0.0
C1297 C 0.45128 0.14008 0.06304 0.0
C1298 C 0.46943 0.12606 0.04947 0.0
C1299 C 0.50787 0.19339 0.03402 0.0
H1300 H 0.56044 0.1576 0.02907 0.0
C1301 C 0.63238 0.2418 0.01884 0.0
C1302 C 0.63004 0.25986 0.01193 0.0
C1303 C 0.60577 0.21795 0.02266 0.0
C1304 C 0.54573 0.16769 0.0303 0.0
H1305 H 0.46821 0.19095 0.06511 0.0
H1306 H 0.49804 0.2066 0.05165 0.0
H1307 H 0.52345 0.13613 0.04097 0.0
H1308 H 0.59805 0.26455 1.00283 0.0
H1309 H 0.55126 0.22234 1.00938 0.0
H1310 H 0.53133 0.2262 0.02376 0.0
C1311 C 0.48497 0.18138 0.05301 0.0
C1312 C 0.52433 0.15521 0.0371 0.0
C1313 C 0.46781 0.17237 0.06077 0.0
C1314 C 0.60053 0.25085 1.00811 0.0
C1315 C 0.57375 0.22704 0.01198 0.0
C1316 C 0.52924 0.20586 0.02724 0.0
C1317 C 0.48614 0.1584 0.04726 0.0
C1318 C 0.50582 0.16859 0.03924 0.0
C1319 C 0.57614 0.21172 0.01967 0.0
C1320 C 0.54917 0.19386 0.02548 0.0
H1321 H 0.43943 0.09187 0.05866 0.0
H1322 H 0.46952 0.10766 0.04515 0.0
H1323 H 0.49357 0.20388 0.03536 0.0
H1324 H 0.65489 0.24839 0.02194 0.0
H1325 H 0.60872 0.20682 0.02855 0.0
C1326 C 0.88292 0.3503 0.07442 0.0
C1327 C 0.91272 0.35395 0.07494 0.0
C1328 C 0.87111 0.35564 0.06641 0.0
C1329 C 0.88033 0.36322 0.04167 0.0
H1330 H 0.83541 0.4087 0.04459 0.0
C1331 C 0.80694 0.41605 0.02087 0.0
C1332 C 0.78766 0.3889 0.01523 0.0
C1333 C 0.83003 0.41662 0.0266 0.0
C1334 C 0.84838 0.39653 0.04357 0.0
H1335 H 0.95304 0.36507 0.06726 0.0
H1336 H 0.93237 0.37448 0.05325 0.0
H1337 H 0.85844 0.39859 0.05776 0.0
H1338 H 0.77923 0.34237 1.01052 0.0
H1339 H 0.81925 0.34306 0.02052 0.0
H1340 H 0.87005 0.36119 0.02741 0.0
C1341 C 0.91809 0.36732 0.05906 0.0
C1342 C 0.86114 0.39018 0.05119 0.0
C1343 C 0.92996 0.36196 0.06711 0.0
C1344 C 0.79426 0.36392 0.01466 0.0
C1345 C 0.81707 0.36423 0.02049 0.0
C1346 C 0.86745 0.36956 0.034 0.0
C1347 C 0.88875 0.36488 0.05867 0.0
C1348 C 0.87681 0.37295 0.05038 0.0
C1349 C 0.83382 0.3897 0.02695 0.0
C1350 C 0.85096 0.38601 0.03486 0.0
H1351 H 0.86887 0.34395 0.08028 0.0
H1352 H 0.84814 0.35279 0.06631 0.0
H1353 H 0.89223 0.34987 0.04079 0.0
H1354 H 0.80202 0.43541 0.02154 0.0
H1355 H 0.84313 0.43711 0.03127 0.0
C1356 C 0.67795 0.57507 0.07108 0.0
C1357 C 0.69555 0.60822 0.06996 0.0
C1358 C 0.6728 0.55317 0.06394 0.0
C1359 C 0.67668 0.54569 0.03886 0.0
H1360 H 0.67145 0.46564 0.04481 0.0
C1361 C 0.68066 0.45056 0.01403 0.0
C1362 C 0.66149 0.41846 0.01618 0.0
C1363 C 0.68112 0.47536 0.01934 0.0
C1364 C 0.67248 0.48773 0.04303 0.0
H1365 H 0.72177 0.64431 0.06042 0.0
H1366 H 0.71382 0.60606 0.04805 0.0
H1367 H 0.68208 0.50559 0.05675 0.0
H1368 H 0.6253 0.38689 0.02478 0.0
H1369 H 0.62546 0.42981 0.03383 0.0
H1370 H 0.66819 0.52767 0.025 0.0
C1371 C 0.70329 0.59693 0.05439 0.0
C1372 C 0.6785 0.51071 0.0499 0.0
C1373 C 0.70811 0.61892 0.06152 0.0
C1374 C 0.64023 0.41144 0.02297 0.0
C1375 C 0.64061 0.43603 0.02822 0.0
C1376 C 0.67107 0.5227 0.03192 0.0
C1377 C 0.6855 0.56369 0.05549 0.0
C1378 C 0.68029 0.53989 0.04797 0.0
C1379 C 0.66237 0.46822 0.02683 0.0
C1380 C 0.66845 0.49327 0.03397 0.0
H1381 H 0.66752 0.56592 0.07743 0.0
H1382 H 0.65836 0.52788 0.06505 0.0
H1383 H 0.67763 0.56771 0.03708 0.0
H1384 H 0.69758 0.4566 1.00892 0.0
H1385 H 0.69806 0.49998 0.0181 0.0
C1386 C 0.59941 0.95462 0.89515 0.0
C1387 C 0.59922 0.94421 0.90393 0.0
C1388 C 0.58205 0.93262 0.88797 0.0
C1389 C 0.51729 0.8483 0.88335 0.0
H1390 H 0.54804 0.86047 0.85919 0.0
C1391 C 0.45623 0.74759 0.85663 0.0
C1392 C 0.44441 0.75547 0.84904 0.0
C1393 C 0.47999 0.77155 0.86225 0.0
C1394 C 0.53921 0.85686 0.8659 0.0
H1395 H 0.58083 0.90235 0.912 0.0
H1396 H 0.5515 0.86412 0.89956 0.0
H1397 H 0.57845 0.90048 0.8714 0.0
H1398 H 0.45014 0.79428 0.84087 0.0
H1399 H 0.49234 0.83654 0.85068 0.0
H1400 H 0.47847 0.8045 0.87792 0.0
C1401 C 0.56423 0.88932 0.89819 0.0
C1402 C 0.55648 0.87985 0.87291 0.0
C1403 C 0.58122 0.91131 0.90536 0.0
C1404 C 0.45919 0.78754 0.8466 0.0
C1405 C 0.48312 0.81172 0.85227 0.0
C1406 C 0.50039 0.82526 0.87642 0.0
C1407 C 0.5643 0.89958 0.88938 0.0
C1408 C 0.54583 0.87578 0.88176 0.0
C1409 C 0.49241 0.80399 0.86042 0.0
C1410 C 0.5112 0.82907 0.86763 0.0
H1411 H 0.61304 0.97982 0.8938 0.0
H1412 H 0.58241 0.94162 0.88135 0.0
H1413 H 0.50769 0.84459 0.88996 0.0
H1414 H 0.44511 0.72306 0.85869 0.0
H1415 H 0.48708 0.76482 0.86839 0.0
C1416 C 0.13522 0.66234 0.89433 0.0
C1417 C 0.11626 0.67553 0.896 0.0
C1418 C 0.15531 0.67255 0.88721 0.0
C1419 C 0.17008 0.70816 0.86522 0.0
H1420 H 0.25566 0.73347 0.87145 0.0
C1421 C 0.26105 0.71113 0.8409 0.0
C1422 C 0.29244 0.73316 0.84321 0.0
C1423 C 0.2376 0.71101 0.84594 0.0
C1424 C 0.23198 0.72698 0.86959 0.0
H1425 H 0.1028 0.70902 0.8913 0.0
H1426 H 0.13764 0.72645 0.87866 0.0
H1427 H 0.21841 0.71756 0.88324 0.0
H1428 H 0.32375 0.77473 0.85177 0.0
H1429 H 0.28301 0.77538 0.86032 0.0
H1430 H 0.18364 0.71645 0.85145 0.0
C1431 C 0.13703 0.70841 0.88296 0.0
C1432 C 0.21057 0.71751 0.87635 0.0
C1433 C 0.11729 0.6986 0.89021 0.0
C1434 C 0.29971 0.75776 0.84976 0.0
C1435 C 0.27638 0.75774 0.85477 0.0
C1436 C 0.19151 0.71717 0.85839 0.0
C1437 C 0.1566 0.69583 0.88148 0.0
C1438 C 0.17933 0.70765 0.87424 0.0
C1439 C 0.24532 0.73298 0.85335 0.0
C1440 C 0.22272 0.72655 0.8605 0.0
H1441 H 0.13521 0.64478 0.8987 0.0
H1442 H 0.17001 0.66231 0.88619 0.0
H1443 H 0.14608 0.70059 0.86342 0.0
H1444 H 0.25486 0.69149 0.83602 0.0
H1445 H 0.2139 0.69164 0.84466 0.0
C1446 C 0.39192 0.49856 0.89123 0.0
C1447 C 0.37317 0.4671 0.89396 0.0
C1448 C 0.38363 0.50904 0.88349 0.0
C1449 C 0.3156 0.49025 0.86817 0.0
H1450 H 0.37941 0.5564 0.8544 0.0
C1451 C 0.29772 0.58128 0.84909 0.0
C1452 C 0.31764 0.59849 0.84228 0.0
C1453 C 0.29973 0.55656 0.85311 0.0
C1454 C 0.3611 0.53742 0.858 0.0
H1455 H 0.33138 0.42172 0.8905 0.0
H1456 H 0.31712 0.43976 0.87692 0.0
H1457 H 0.3939 0.5311 0.86595 0.0
H1458 H 0.35271 0.60088 0.83357 0.0
H1459 H 0.35559 0.55678 0.84036 0.0
H1460 H 0.28278 0.49645 0.86016 0.0
C1461 C 0.33794 0.45664 0.88087 0.0
C1462 C 0.36953 0.52328 0.86479 0.0
C1463 C 0.34613 0.44623 0.88866 0.0
C1464 C 0.33687 0.58783 0.83876 0.0
C1465 C 0.33894 0.56298 0.84279 0.0
C1466 C 0.30713 0.50419 0.86132 0.0
C1467 C 0.35646 0.4883 0.8782 0.0
C1468 C 0.34703 0.50025 0.87018 0.0
C1469 C 0.32176 0.54837 0.85039 0.0
C1470 C 0.32984 0.52878 0.85633 0.0
H1471 H 0.41262 0.51544 0.89521 0.0
H1472 H 0.39819 0.53379 0.88183 0.0
H1473 H 0.29751 0.47267 0.87216 0.0
H1474 H 0.28284 0.58918 0.85198 0.0
H1475 H 0.28609 0.54616 0.85892 0.0
C1476 C 0.58841 0.89002 0.96243 0.0
C1477 C 0.60167 0.92167 0.9597 0.0
C1478 C 0.56971 0.88009 0.96988 0.0
C1479 C 0.52144 0.90141 0.98379 0.0
H1480 H 0.51642 0.83342 0.99818 0.0
C1481 C 0.41132 0.81191 1.00064 0.0
C1482 C 0.41302 0.79442 1.00782 0.0
C1483 C 0.43832 0.83621 0.99712 0.0
C1484 C 0.51786 0.85292 0.99441 0.0
H1485 H 0.60659 0.96805 0.96292 0.0
H1486 H 0.57437 0.95093 0.97599 0.0
H1487 H 0.55685 0.85783 0.98742 0.0
H1488 H 0.44408 0.79105 0.01762 0.0
H1489 H 0.49151 0.83429 0.01164 0.0
H1490 H 0.48243 0.89649 0.99079 0.0
C1491 C 0.57781 0.9335 0.97225 0.0
C1492 C 0.5408 0.86657 0.98808 0.0
C1493 C 0.59634 0.94336 0.96475 0.0
C1494 C 0.44208 0.80432 0.01213 0.0
C1495 C 0.46927 0.8287 1.00858 0.0
C1496 C 0.49863 0.88793 0.99017 0.0
C1497 C 0.56393 0.90161 0.97488 0.0
C1498 C 0.54228 0.89024 0.98246 0.0
C1499 C 0.46775 0.84362 1.00069 0.0
C1500 C 0.49582 0.86271 0.99535 0.0
H1501 H 0.59164 0.87256 0.95864 0.0
H1502 H 0.55899 0.85519 0.97154 0.0
H1503 H 0.52168 0.91951 0.97961 0.0
H1504 H 0.38919 0.80464 0.99717 0.0
H1505 H 0.43595 0.84691 0.99105 0.0
C1506 C 0.1237 0.67942 0.95032 0.0
C1507 C 0.1102 0.69853 0.95169 0.0
C1508 C 0.13843 0.6733 0.95751 0.0
C1509 C 0.14759 0.67824 0.98287 0.0
H1510 H 0.21685 0.6663 0.97765 0.0
C1511 C 0.24326 0.68364 1.00818 0.0
C1512 C 0.2534 0.66197 1.00609 0.0
C1513 C 0.2193 0.68333 1.00288 0.0
C1514 C 0.19727 0.66916 0.97921 0.0
H1515 H 0.10203 0.7266 0.96171 0.0
H1516 H 0.12916 0.71735 0.97418 0.0
H1517 H 0.19115 0.67822 0.96554 0.0
H1518 H 0.24426 0.62082 0.99758 0.0
H1519 H 0.20214 0.61973 0.9885 0.0
H1520 H 0.15538 0.67077 0.99673 0.0
C1521 C 0.12753 0.70615 0.96761 0.0
C1522 C 0.18235 0.67591 0.97223 0.0
C1523 C 0.11223 0.71179 0.96042 0.0
C1524 C 0.23657 0.63747 0.99942 0.0
C1525 C 0.2128 0.63719 0.99413 0.0
C1526 C 0.16303 0.67205 0.98991 0.0
C1527 C 0.14075 0.68664 0.96628 0.0
C1528 C 0.15704 0.68026 0.9739 0.0
C1529 C 0.20535 0.66139 0.99542 0.0
C1530 C 0.18781 0.66707 0.98812 0.0
H1531 H 0.12211 0.66835 0.94372 0.0
H1532 H 0.14748 0.65749 0.95618 0.0
H1533 H 0.12803 0.68103 0.98446 0.0
H1534 H 0.25633 0.70323 0.01314 0.0
H1535 H 0.21403 0.70227 1.00403 0.0
C1536 C 0.36399 0.47802 0.94792 0.0
C1537 C 0.34949 0.44514 0.94945 0.0
C1538 C 0.36863 0.50021 0.95492 0.0
C1539 C 0.37006 0.51042 0.9801 0.0
H1540 H 0.36604 0.58569 0.97401 0.0
C1541 C 0.36423 0.60425 1.00507 0.0
C1542 C 0.38104 0.63617 1.00253 0.0
C1543 C 0.36411 0.5797 0.99972 0.0
C1544 C 0.36756 0.56496 0.97582 0.0
H1545 H 0.32812 0.4098 0.95955 0.0
H1546 H 0.33514 0.4484 0.9717 0.0
H1547 H 0.3558 0.54514 0.96229 0.0
H1548 H 0.41342 0.66794 0.99308 0.0
H1549 H 0.41385 0.62552 0.98394 0.0
H1550 H 0.3808 0.53033 0.99379 0.0
C1551 C 0.34369 0.45719 0.96514 0.0
C1552 C 0.36178 0.54165 0.96907 0.0
C1553 C 0.33938 0.43497 0.95814 0.0
C1554 C 0.40036 0.64352 0.99521 0.0
C1555 C 0.4003 0.6192 0.98991 0.0
C1556 C 0.37544 0.53369 0.98691 0.0
C1557 C 0.3585 0.49019 0.96364 0.0
C1558 C 0.36337 0.51422 0.97105 0.0
C1559 C 0.3808 0.58691 0.99179 0.0
C1560 C 0.37473 0.56146 0.9848 0.0
H1561 H 0.37246 0.4868 0.94135 0.0
H1562 H 0.38076 0.52538 0.9535 0.0
H1563 H 0.37177 0.48981 0.9819 0.0
H1564 H 0.34877 0.59793 1.0106 0.0
H1565 H 0.34892 0.555 1.00134 0.0
C1566 C 0.1266 0.47671 0.45251 0.0
C1567 C 0.11218 0.44314 0.4526 0.0
C1568 C 0.14026 0.49582 0.46044 0.0
C1569 C 0.17506 0.49764 0.48276 0.0
H1570 H 0.16235 0.56911 0.48799 0.0
C1571 C 0.2461 0.58873 0.51194 0.0
C1572 C 0.26057 0.62047 0.50926 0.0
C1573 C 0.22066 0.56435 0.50676 0.0
C1574 C 0.16625 0.54932 0.48664 0.0
H1575 H 0.10131 0.40344 0.46113 0.0
H1576 H 0.12577 0.43695 0.47495 0.0
H1577 H 0.13441 0.53221 0.47506 0.0
H1578 H 0.2582 0.6522 0.4997 0.0
H1579 H 0.21405 0.61042 0.49082 0.0
H1580 H 0.20803 0.51549 0.49403 0.0
C1581 C 0.12629 0.4484 0.46873 0.0
C1582 C 0.15022 0.52818 0.47921 0.0
C1583 C 0.11225 0.42922 0.46081 0.0
C1584 C 0.24717 0.62795 0.50197 0.0
C1585 C 0.22182 0.60379 0.49685 0.0
C1586 C 0.19137 0.51898 0.49014 0.0
C1587 C 0.14018 0.48192 0.46865 0.0
C1588 C 0.15498 0.50252 0.47705 0.0
C1589 C 0.20927 0.57143 0.49886 0.0
C1590 C 0.18779 0.54563 0.49206 0.0
H1591 H 0.1269 0.48827 0.44632 0.0
H1592 H 0.15116 0.52159 0.46012 0.0
H1593 H 0.17934 0.47818 0.48126 0.0
H1594 H 0.25631 0.58227 0.51745 0.0
H1595 H 0.21119 0.53978 0.50863 0.0
C1596 C 0.56339 0.67508 0.46092 0.0
C1597 C 0.58903 0.70621 0.46057 0.0
C1598 C 0.54625 0.66536 0.46871 0.0
C1599 C 0.53094 0.70004 0.48936 0.0
H1600 H 0.48523 0.61126 0.49578 0.0
C1601 C 0.44549 0.66545 0.51721 0.0
C1602 C 0.41546 0.64295 0.51378 0.0
C1603 C 0.47151 0.6688 0.51286 0.0
C1604 C 0.49808 0.6362 0.49412 0.0
H1605 H 0.6179 0.75088 0.46829 0.0
H1606 H 0.5889 0.73382 0.48194 0.0
H1607 H 0.52155 0.62681 0.48364 0.0
H1608 H 0.38907 0.60348 0.50402 0.0
H1609 H 0.43417 0.60845 0.49667 0.0
H1610 H 0.50716 0.70937 0.4997 0.0
C1611 C 0.5811 0.71714 0.47612 0.0
C1612 C 0.51871 0.64512 0.4871 0.0
C1613 C 0.59786 0.72697 0.46829 0.0
C1614 C 0.412 0.62081 0.50685 0.0
C1615 C 0.43794 0.62387 0.50259 0.0
C1616 C 0.51065 0.6912 0.49642 0.0
C1617 C 0.55462 0.68639 0.4764 0.0
C1618 C 0.53494 0.67709 0.48447 0.0
C1619 C 0.46783 0.64937 0.50513 0.0
C1620 C 0.49342 0.65908 0.49877 0.0
H1621 H 0.55594 0.65863 0.45506 0.0
H1622 H 0.52582 0.64169 0.46857 0.0
H1623 H 0.54237 0.72476 0.48748 0.0
H1624 H 0.44882 0.68309 0.52246 0.0
H1625 H 0.49431 0.68834 0.51508 0.0
C1626 C 0.32584 0.90018 0.46574 0.0
C1627 C 0.34407 0.91143 0.45815 0.0
C1628 C 0.33532 0.88876 0.47304 0.0
C1629 C 0.38435 0.85375 0.47822 0.0
H1630 H 0.37134 0.86759 0.50322 0.0
C1631 C 0.41472 0.79186 0.50516 0.0
C1632 C 0.39121 0.7751 0.51116 0.0
C1633 C 0.41522 0.81643 0.50029 0.0
C1634 C 0.37509 0.86344 0.49627 0.0
H1635 H 0.38692 0.91969 0.45244 0.0
H1636 H 0.40353 0.90034 0.46514 0.0
H1637 H 0.35882 0.89397 0.49131 0.0
H1638 H 0.35149 0.77261 0.51741 0.0
H1639 H 0.35179 0.81504 0.50879 0.0
H1640 H 0.39949 0.82247 0.483 0.0
C1641 C 0.38173 0.90006 0.46543 0.0
C1642 C 0.36785 0.87852 0.48944 0.0
C1643 C 0.37231 0.91149 0.45815 0.0
C1644 C 0.37018 0.78557 0.51293 0.0
C1645 C 0.37027 0.80979 0.50791 0.0
C1646 C 0.39145 0.83866 0.485 0.0
C1647 C 0.36321 0.88817 0.47292 0.0
C1648 C 0.3722 0.87365 0.48032 0.0
C1649 C 0.39167 0.82414 0.50113 0.0
C1650 C 0.38678 0.84308 0.49413 0.0
H1651 H 0.30419 0.90014 0.46606 0.0
H1652 H 0.32034 0.87956 0.47866 0.0
H1653 H 0.38741 0.84886 0.47127 0.0
H1654 H 0.43108 0.78407 0.50365 0.0
H1655 H 0.43272 0.82768 0.49536 0.0
C1656 C 0.12095 0.45003 0.3903 0.0
C1657 C 0.119 0.47332 0.3957 0.0
C1658 C 0.13764 0.45835 0.38242 0.0
C1659 C 0.17382 0.52397 0.36619 0.0
H1660 H 0.22609 0.48778 0.36134 0.0
C1661 C 0.26587 0.58098 0.34019 0.0
C1662 C 0.29538 0.58905 0.34379 0.0
C1663 C 0.23907 0.55725 0.34407 0.0
C1664 C 0.21156 0.49809 0.36256 0.0
H1665 H 0.1334 0.52372 0.397 0.0
H1666 H 0.16276 0.53832 0.38342 0.0
H1667 H 0.19018 0.46764 0.37349 0.0
H1668 H 0.32009 0.57604 0.35339 0.0
H1669 H 0.27399 0.53488 0.36007 0.0
H1670 H 0.19664 0.55595 0.35573 0.0
C1671 C 0.15076 0.5134 0.38512 0.0
C1672 C 0.19068 0.48628 0.3695 0.0
C1673 C 0.13395 0.50505 0.39295 0.0
C1674 C 0.29758 0.57009 0.35044 0.0
C1675 C 0.27095 0.54649 0.35431 0.0
C1676 C 0.19484 0.53593 0.35931 0.0
C1677 C 0.15295 0.49022 0.37973 0.0
C1678 C 0.1722 0.49976 0.3716 0.0
C1679 C 0.24142 0.54126 0.3516 0.0
C1680 C 0.21474 0.52386 0.35757 0.0
H1681 H 0.10937 0.42528 0.39213 0.0
H1682 H 0.13841 0.43973 0.37841 0.0
H1683 H 0.15947 0.53446 0.36745 0.0
H1684 H 0.26352 0.59544 0.33512 0.0
H1685 H 0.21668 0.55326 0.34162 0.0
C1686 C 0.55236 0.69237 0.40863 0.0
C1687 C 0.58172 0.695 0.40931 0.0
C1688 C 0.54086 0.69697 0.40045 0.0
C1689 C 0.54973 0.69993 0.37565 0.0
H1690 H 0.50551 0.74651 0.37741 0.0
C1691 C 0.47374 0.74667 0.35339 0.0
C1692 C 0.4544 0.71809 0.3483 0.0
C1693 C 0.4976 0.74919 0.35921 0.0
C1694 C 0.51831 0.73403 0.3767 0.0
H1695 H 0.62159 0.70356 0.40176 0.0
H1696 H 0.60148 0.7117 0.38745 0.0
H1697 H 0.52907 0.73899 0.39092 0.0
H1698 H 0.44652 0.67092 0.34464 0.0
H1699 H 0.48785 0.67504 0.35473 0.0
H1700 H 0.53879 0.69498 0.36138 0.0
C1701 C 0.58729 0.70591 0.39327 0.0
C1702 C 0.53138 0.72917 0.38453 0.0
C1703 C 0.59884 0.70126 0.40149 0.0
C1704 C 0.46159 0.69352 0.34834 0.0
C1705 C 0.4852 0.69584 0.35422 0.0
C1706 C 0.53661 0.70481 0.36778 0.0
C1707 C 0.55839 0.70445 0.39269 0.0
C1708 C 0.54666 0.71145 0.38416 0.0
C1709 C 0.50215 0.7229 0.36017 0.0
C1710 C 0.52022 0.72148 0.36822 0.0
H1711 H 0.53839 0.68736 0.41449 0.0
H1712 H 0.51818 0.69487 0.40022 0.0
H1713 H 0.56135 0.68618 0.3751 0.0
H1714 H 0.46832 0.76573 0.35362 0.0
H1715 H 0.51077 0.7708 0.36348 0.0
C1716 C 0.36981 0.94909 0.39404 0.0
C1717 C 0.35801 0.93711 0.40246 0.0
C1718 C 0.3643 0.92815 0.38657 0.0
C1719 C 0.31062 0.84518 0.37773 0.0
H1720 H 0.3785 0.85678 0.36316 0.0
C1721 C 0.31065 0.74194 0.3581 0.0
C1722 C 0.32811 0.74753 0.3504 0.0
C1723 C 0.30941 0.76689 0.36263 0.0
C1724 C 0.35905 0.85352 0.367 0.0
H1725 H 0.33125 0.89361 0.40961 0.0
H1726 H 0.32165 0.85727 0.39662 0.0
H1727 H 0.38737 0.89719 0.37494 0.0
H1728 H 0.35601 0.78307 0.34098 0.0
H1729 H 0.35367 0.82709 0.34888 0.0
H1730 H 0.28239 0.80131 0.36993 0.0
C1731 C 0.33498 0.88285 0.39577 0.0
C1732 C 0.36422 0.87665 0.3738 0.0
C1733 C 0.34075 0.90372 0.40325 0.0
C1734 C 0.34214 0.77807 0.34685 0.0
C1735 C 0.34116 0.80332 0.35146 0.0
C1736 C 0.30539 0.82221 0.3709 0.0
C1737 C 0.34654 0.89478 0.38732 0.0
C1738 C 0.34029 0.87225 0.37942 0.0
C1739 C 0.32582 0.79826 0.35962 0.0
C1740 C 0.32976 0.82554 0.36562 0.0
H1741 H 0.38315 0.97466 0.39319 0.0
H1742 H 0.37346 0.9381 0.38015 0.0
H1743 H 0.29151 0.84143 0.38182 0.0
H1744 H 0.29976 0.71863 0.361 0.0
H1745 H 0.29757 0.76194 0.3689 0.0
C1746 C 0.26944 0.0332 0.11141 0.0
C1747 C 0.2981 0.05992 0.10953 0.0
C1748 C 0.25152 0.03524 0.1182 0.0
C1749 C 0.23455 0.0909 0.13034 0.0
H1750 H 0.19372 0.02094 0.14638 0.0
C1751 C 0.13767 0.08066 0.1533 0.0
C1752 C 0.11086 0.05019 0.15239 0.0
C1753 C 0.16603 0.08532 0.1502 0.0
C1754 C 0.20491 0.04072 0.14196 0.0
H1755 H 0.33036 0.10985 0.11329 0.0
H1756 H 0.29859 0.11364 0.12509 0.0
H1757 H 0.23241 0.02242 0.13642 0.0
H1758 H 0.0929 1.00052 0.14816 0.0
H1759 H 0.14168 0.00828 0.14296 0.0
H1760 H 0.2058 0.1083 0.13554 0.0
C1761 C 0.29022 0.09103 0.12133 0.0
C1762 C 0.22711 0.04154 0.13625 0.0
C1763 C 0.30846 0.08882 0.11462 0.0
C1764 C 0.1133 0.02424 0.14898 0.0
C1765 C 0.14141 0.02873 0.14601 0.0
C1766 C 0.21205 0.08993 0.13601 0.0
C1767 C 0.26157 0.06418 0.12321 0.0
C1768 C 0.2415 0.06609 0.13017 0.0
C1769 C 0.16798 0.05946 0.14629 0.0
C1770 C 0.19617 0.06421 0.14168 0.0
H1771 H 0.26095 0.01052 0.10769 0.0
H1772 H 0.22943 0.01421 0.1194 0.0
H1773 H 0.24519 0.11011 0.12572 0.0
H1774 H 0.13627 0.10112 0.15581 0.0
H1775 H 0.18611 0.10927 0.15059 0.0
C1776 C 0.98877 0.28237 0.10988 0.0
C1777 C 0.95912 0.27781 0.10774 0.0
C1778 C 0.99247 0.26181 0.11559 0.0
C1779 C 0.94984 0.18161 0.12549 0.0
H1780 H 0.02222 0.21843 0.14208 0.0
C1781 C 0.97469 0.10394 0.15001 0.0
C1782 C 1.00479 0.10877 0.14938 0.0
C1783 C 0.96705 0.12566 0.14624 0.0
C1784 C 1.00186 0.20774 0.13749 0.0
H1785 H 0.91002 0.24753 0.1099 0.0
H1786 H 0.9165 0.2119 0.11991 0.0
H1787 H 0.01295 0.25322 0.13251 0.0
H1788 H 0.05084 0.1409 0.14487 0.0
H1789 H 0.03792 0.17881 0.13858 0.0
H1790 H 0.93905 0.13601 0.13045 0.0
C1791 C 0.93692 0.23119 0.11709 0.0
C1792 C 0.99663 0.22769 0.13195 0.0
C1793 C 0.93321 0.25173 0.11135 0.0
C1794 C 0.02745 0.13659 0.14547 0.0
C1795 C 0.02004 0.1584 0.14188 0.0
C1796 C 0.95503 0.16163 0.13108 0.0
C1797 C 0.96666 0.23614 0.11938 0.0
C1798 C 0.97092 0.21488 0.12572 0.0
C1799 C 0.98957 0.15285 0.14197 0.0
C1800 C 0.98148 0.17437 0.13702 0.0
H1801 H 0.00927 0.30211 0.10722 0.0
H1802 H 0.01569 0.26606 0.11702 0.0
H1803 H 0.92989 0.17077 0.12075 0.0
H1804 H 0.95671 0.08254 0.15292 0.0
H1805 H 0.94341 0.12083 0.14648 0.0
C1806 C 0.79992 0.71494 0.11124 0.0
C1807 C 0.77498 0.71557 0.10677 0.0
C1808 C 0.82151 0.741 0.11688 0.0
C1809 C 0.83036 0.81274 0.12974 0.0
H1810 H 0.9182 0.84076 0.13065 0.0
C1811 C 0.9246 0.93888 0.14249 0.0
C1812 C 0.95052 0.94322 0.1477 0.0
C1813 C 0.90235 0.90863 0.13889 0.0
C1814 C 0.89366 0.83287 0.13059 0.0
H1815 H 0.75394 0.74474 0.10449 0.0
H1816 H 0.79183 0.79028 0.11408 0.0
H1817 H 0.88192 0.79368 0.12111 0.0
H1818 H 0.97309 0.91904 0.15344 0.0
H1819 H 0.93403 0.86558 0.14696 0.0
H1820 H 0.84224 0.85253 0.13898 0.0
C1821 C 0.79434 0.76935 0.11345 0.0
C1822 C 0.87282 0.8059 0.1251 0.0
C1823 C 0.77272 0.74329 0.10787 0.0
C1824 C 0.95318 0.9163 0.14951 0.0
C1825 C 0.93102 0.88585 0.14573 0.0
C1826 C 0.85116 0.83973 0.13517 0.0
C1827 C 0.81877 0.76842 0.11817 0.0
C1828 C 0.84093 0.79585 0.12445 0.0
C1829 C 0.90556 0.88182 0.14028 0.0
C1830 C 0.88315 0.85052 0.13553 0.0
H1831 H 0.80232 0.69394 0.1106 0.0
H1832 H 0.83982 0.73923 0.12043 0.0
H1833 H 0.80592 0.80529 0.12964 0.0
H1834 H 0.92193 0.95919 0.14098 0.0
H1835 H 0.88327 0.90652 0.13466 0.0
C1836 C 0.08098 0.33123 0.40977 0.0
C1837 C 0.0634 0.32317 0.41754 0.0
C1838 C 0.08142 0.30744 0.40424 0.0
C1839 C 0.0657 0.2239 0.40434 0.0
H1840 H 0.05443 0.22318 0.37831 0.0
C1841 C 0.02303 0.10924 0.38263 0.0
C1842 C 0.03646 0.10975 0.37436 0.0
C1843 C 0.02985 0.13749 0.38735 0.0
C1844 C 0.05812 0.22331 0.38555 0.0
H1845 H 0.03284 0.28367 0.4256 0.0
H1846 H 0.03374 0.2424 0.41603 0.0
H1847 H 0.05999 0.26836 0.38778 0.0
H1848 H 0.06714 0.14098 0.36448 0.0
H1849 H 0.07922 0.19105 0.37284 0.0
H1850 H 0.0634 0.17884 0.4022 0.0
C1851 C 0.04736 0.26712 0.41423 0.0
C1852 C 0.06126 0.24917 0.39098 0.0
C1853 C 0.04674 0.29082 0.41971 0.0
C1854 C 0.05644 0.13967 0.37082 0.0
C1855 C 0.06332 0.16831 0.37561 0.0
C1856 C 0.06266 0.19824 0.39894 0.0
C1857 C 0.06455 0.27505 0.40639 0.0
C1858 C 0.0643 0.24936 0.40047 0.0
C1859 C 0.05044 0.16745 0.38402 0.0
C1860 C 0.05796 0.19712 0.38949 0.0
H1861 H 0.09402 0.35589 0.40786 0.0
H1862 H 0.0951 0.31444 0.39831 0.0
H1863 H 0.06879 0.22358 0.41159 0.0
H1864 H 0.00712 0.0868 0.38555 0.0
H1865 H 0.01879 0.13579 0.39366 0.0
C1866 C 0.74833 0.78423 0.40605 0.0
C1867 C 0.74136 0.79823 0.41335 0.0
C1868 C 0.76694 0.80315 0.39923 0.0
C1869 C 0.82305 0.88916 0.3947 0.0
H1870 H 0.81765 0.85381 0.37047 0.0
C1871 C 0.90501 0.96676 0.36772 0.0
C1872 C 0.92336 0.95423 0.36473 0.0
C1873 C 0.87749 0.94725 0.37207 0.0
C1874 C 0.81922 0.86405 0.3772 0.0
H1875 H 0.74685 0.84258 0.41901 0.0
H1876 H 0.77773 0.87533 0.40698 0.0
H1877 H 0.78003 0.82103 0.38138 0.0
H1878 H 0.92637 0.91125 0.36328 0.0
H1879 H 0.87771 0.87689 0.37045 0.0
H1880 H 0.86205 0.93226 0.39043 0.0
C1881 C 0.77032 0.85008 0.40664 0.0
C1882 C 0.79788 0.84516 0.38351 0.0
C1883 C 0.75238 0.83129 0.41354 0.0
C1884 C 0.91234 0.92133 0.3654 0.0
C1885 C 0.88455 0.90171 0.36955 0.0
C1886 C 0.8439 0.90817 0.38834 0.0
C1887 C 0.77847 0.8365 0.39944 0.0
C1888 C 0.79977 0.85721 0.39243 0.0
C1889 C 0.86761 0.91478 0.37332 0.0
C1890 C 0.84258 0.89572 0.37956 0.0
H1891 H 0.7402 0.7588 0.40578 0.0
H1892 H 0.77293 0.79162 0.39395 0.0
H1893 H 0.82606 0.89938 0.4015 0.0
H1894 H 0.91332 0.99217 0.36744 0.0
H1895 H 0.8648 0.95792 0.37489 0.0
C1896 C 0.24989 0.96542 0.40427 0.0
C1897 C 0.27022 0.99479 0.40895 0.0
C1898 C 0.22892 0.96353 0.39743 0.0
C1899 C 0.21454 0.01235 0.38138 0.0
H1900 H 0.12743 0.94888 0.38287 0.0
C1901 C 0.11723 0.02875 0.36574 0.0
C1902 C 0.08779 1.00212 0.36354 0.0
C1903 C 0.14141 0.02479 0.36916 0.0
C1904 C 0.1517 0.96631 0.38216 0.0
H1905 H 0.2851 0.04534 0.40987 0.0
H1906 H 0.24887 0.04215 0.39791 0.0
H1907 H 0.16589 0.94774 0.39313 0.0
H1908 H 0.06077 0.95038 0.36273 0.0
H1909 H 0.10343 0.94312 0.36839 0.0
H1910 H 0.20059 0.03111 0.37047 0.0
C1911 C 0.24899 0.02053 0.39955 0.0
C1912 C 0.17377 0.96572 0.38811 0.0
C1913 C 0.26955 0.02231 0.40648 0.0
C1914 C 0.08349 0.97128 0.3642 0.0
C1915 C 0.10781 0.96723 0.36761 0.0
C1916 C 0.19257 0.0127 0.37536 0.0
C1917 C 0.22824 0.99109 0.39499 0.0
C1918 C 0.20534 0.98928 0.38795 0.0
C1919 C 0.13674 0.99398 0.37051 0.0
C1920 C 0.16067 0.99029 0.37583 0.0
H1921 H 0.24974 0.94378 0.40605 0.0
H1922 H 0.21328 0.94052 0.39402 0.0
H1923 H 0.23877 0.03051 0.38098 0.0
H1924 H 0.12084 0.05278 0.3655 0.0
H1925 H 0.16298 0.04606 0.37139 0.0
C1926 C 0.75581 0.01379 0.90297 0.0
C1927 C 0.74081 0.99276 0.90985 0.0
C1928 C 0.77365 0.00796 0.89694 0.0
C1929 C 0.79481 0.94636 0.88953 0.0
H1930 H 0.86821 0.02162 0.88177 0.0
C1931 C 0.90875 0.95269 0.87914 0.0
C1932 C 0.92497 0.97247 0.87212 0.0
C1933 C 0.88068 0.94963 0.88173 0.0
C1934 C 0.84752 1.00031 0.88373 0.0
H1935 H 0.73219 0.94885 0.91574 0.0
H1936 H 0.76468 0.93927 0.90555 0.0
H1937 H 0.83137 0.02802 0.89059 0.0
H1938 H 0.92342 1.00273 0.86188 0.0
H1939 H 0.87447 0.9979 0.86653 0.0
H1940 H 0.81269 0.91898 0.88311 0.0
C1941 C 0.76197 0.95982 0.90456 0.0
C1942 C 0.82617 1.00391 0.8888 0.0
C1943 C 0.74344 0.96531 0.91046 0.0
C1944 C 0.91127 0.98706 0.86725 0.0
C1945 C 0.88345 0.98456 0.86997 0.0
C1946 C 0.81657 0.94282 0.88459 0.0
C1947 C 0.77776 0.98132 0.89776 0.0
C1948 C 0.79954 0.97704 0.89187 0.0
C1949 C 0.86854 0.96683 0.87748 0.0
C1950 C 0.8433 0.9698 0.88169 0.0
H1951 H 0.75368 0.03484 0.90226 0.0
H1952 H 0.78441 0.02461 0.89167 0.0
H1953 H 0.77442 0.92497 0.89156 0.0
H1954 H 0.9189 0.94133 0.88305 0.0
H1955 H 0.86986 0.93589 0.88755 0.0
C1956 C 0.06364 0.77067 0.90992 0.0
C1957 C 0.09016 0.7785 0.91545 0.0
C1958 C 0.0629 0.79348 0.90445 0.0
C1959 C 0.09595 0.87969 0.90249 0.0
H1960 H 0.06803 0.85827 0.87726 0.0
C1961 C 0.09096 0.97368 0.88091 0.0
C1962 C 0.06526 0.96298 0.87482 0.0
C1963 C 0.09828 0.95193 0.88468 0.0
C1964 C 0.07557 0.86467 0.88431 0.0
H1965 H 0.13651 0.8167 0.91965 0.0
H1966 H 0.1348 0.85682 0.91031 0.0
H1967 H 0.07085 0.81873 0.88652 0.0
H1968 H 0.02776 0.92145 0.86758 0.0
H1969 H 0.03962 0.88316 0.87432 0.0
H1970 H 0.09925 0.9248 0.90055 0.0
C1971 C 0.11473 0.83287 0.91015 0.0
C1972 C 0.07728 0.84195 0.88961 0.0
C1973 C 0.1157 0.80988 0.91549 0.0
C1974 C 0.04811 0.93036 0.87212 0.0
C1975 C 0.05494 0.90839 0.87605 0.0
C1976 C 0.09374 0.90217 0.89726 0.0
C1977 C 0.08843 0.82485 0.9045 0.0
C1978 C 0.0874 0.84919 0.89877 0.0
C1979 C 0.07939 0.91872 0.88268 0.0
C1980 C 0.08345 0.89508 0.88807 0.0
H1981 H 0.04362 0.74668 0.90966 0.0
H1982 H 0.04219 0.78666 0.90025 0.0
H1983 H 0.10347 0.88586 0.90956 0.0
H1984 H 0.10438 0.99873 0.88316 0.0
H1985 H 0.11797 0.96116 0.88948 0.0
C1986 C 0.23666 0.33148 0.91474 0.0
C1987 C 0.26749 0.33873 0.91386 0.0
C1988 C 0.21222 0.30583 0.90965 0.0
C1989 C 0.19353 0.25533 0.88877 0.0
H1990 H 0.12316 0.1925 0.90137 0.0
C1991 C 0.10217 0.13091 0.87224 0.0
C1992 C 0.07263 0.11463 0.8758 0.0
C1993 C 0.12482 0.16112 0.87597 0.0
C1994 C 0.14213 0.21008 0.89764 0.0
H1995 H 0.2968 0.32496 0.9068 0.0
H1996 H 0.25419 0.2806 0.89782 0.0
H1997 H 0.16448 0.23924 0.90971 0.0
H1998 H 0.04256 0.11819 0.8854 0.0
H1999 H 0.08089 0.17155 0.89142 0.0
H2000 H 0.17108 0.22659 0.87666 0.0
C2001 C 0.24895 0.29467 0.90249 0.0
C2002 C 0.16602 0.23685 0.90248 0.0
C2003 C 0.27331 0.31993 0.90769 0.0
C2004 C 0.06525 0.13021 0.88256 0.0
C2005 C 0.08751 0.16063 0.88612 0.0
C2006 C 0.16933 0.22878 0.88387 0.0
C2007 C 0.21811 0.28723 0.90344 0.0
C2008 C 0.19214 0.25962 0.89814 0.0
C2009 C 0.11815 0.17591 0.88323 0.0
C2010 C 0.1433 0.20553 0.88824 0.0
H2011 H 0.23137 0.34551 0.91941 0.0
H2012 H 0.18869 0.30072 0.9105 0.0
H2013 H 0.21329 0.27266 0.88522 0.0
H2014 H 0.10856 0.11922 0.8671 0.0
H2015 H 0.14803 0.17181 0.87353 0.0
C2016 C 0.98745 0.7347 0.61172 0.0
C2017 C 0.95751 0.70878 0.60945 0.0
C2018 C 0.99176 0.75978 0.61766 0.0
C2019 C 0.95096 0.79833 0.62814 0.0
H2020 H 0.02312 0.83591 0.64483 0.0
C2021 C 0.9788 0.90463 0.65355 0.0
C2022 C 0.00922 0.93046 0.65299 0.0
C2023 C 0.97032 0.87438 0.64957 0.0
C2024 C 1.00282 0.82567 0.64022 0.0
H2025 H 0.90852 0.68936 0.61159 0.0
H2026 H 0.91606 0.73295 0.62201 0.0
H2027 H 0.01251 0.79029 0.63484 0.0
H2028 H 0.05496 0.94454 0.64838 0.0
H2029 H 0.04058 0.89212 0.64172 0.0
H2030 H 0.9416 0.83415 0.63349 0.0
C2031 C 0.93625 0.73407 0.61912 0.0
C2032 C 0.99683 0.7996 0.63444 0.0
C2033 C 0.93192 0.70899 0.61314 0.0
C2034 C 0.03136 0.92502 0.64893 0.0
C2035 C 0.0231 0.8949 0.64512 0.0
C2036 C 0.9569 0.82438 0.63397 0.0
C2037 C 0.96627 0.75964 0.62156 0.0
C2038 C 0.97122 0.78599 0.62816 0.0
C2039 C 0.99231 0.8694 0.64514 0.0
C2040 C 0.9833 0.83882 0.63994 0.0
H2041 H 0.00771 0.73546 0.60899 0.0
H2042 H 0.01519 0.77935 0.6192 0.0
H2043 H 0.93112 0.78867 0.62337 0.0
H2044 H 0.96122 0.90828 0.65656 0.0
H2045 H 0.94644 0.85512 0.64975 0.0
C2046 C 0.3128 0.25462 0.61595 0.0
C2047 C 0.3028 0.27125 0.61043 0.0
C2048 C 0.29405 0.23535 0.6227 0.0
C2049 C 0.2297 0.22335 0.6369 0.0
H2050 H 0.20993 0.135 0.63777 0.0
C2051 C 0.11671 0.12629 0.6506 0.0
C2052 C 0.11486 0.09957 0.65469 0.0
C2053 C 0.14447 0.14985 0.64727 0.0
C2054 C 0.21572 0.1598 0.63779 0.0
H2055 H 0.26565 0.28127 0.60786 0.0
H2056 H 0.23322 0.24809 0.61964 0.0
H2057 H 0.24934 0.17104 0.6277 0.0
H2058 H 0.14112 0.07729 0.6589 0.0
H2059 H 0.19035 0.11892 0.65302 0.0
H2060 H 0.19592 0.21226 0.64683 0.0
C2061 C 0.25546 0.24978 0.61874 0.0
C2062 C 0.23823 0.18043 0.63198 0.0
C2063 C 0.27391 0.26856 0.61192 0.0
C2064 C 0.14199 0.0978 0.65584 0.0
C2065 C 0.17001 0.12143 0.65239 0.0
C2066 C 0.20749 0.20291 0.64275 0.0
C2067 C 0.26519 0.23282 0.6242 0.0
C2068 C 0.2447 0.21214 0.63125 0.0
C2069 C 0.17135 0.1474 0.64786 0.0
C2070 C 0.19933 0.17052 0.64304 0.0
H2071 H 0.33485 0.25605 0.61493 0.0
H2072 H 0.30223 0.22264 0.62681 0.0
H2073 H 0.23463 0.24783 0.63664 0.0
H2074 H 0.09614 0.12825 0.6496 0.0
H2075 H 0.14426 0.16907 0.64375 0.0
C2076 C 0.78655 0.03541 0.60734 0.0
C2077 C 0.77964 0.0602 0.6075 0.0
C2078 C 0.80778 0.0354 0.61368 0.0
C2079 C 0.84983 0.06988 0.63593 0.0
H2080 H 0.90291 0.03975 0.6266 0.0
C2081 C 0.95621 0.0668 0.65456 0.0
C2082 C 0.95368 0.0366 0.65331 0.0
C2083 C 0.93424 0.0729 0.65027 0.0
C2084 C 0.8883 0.0483 0.62931 0.0
H2085 H 0.78914 0.1041 0.61468 0.0
H2086 H 0.82677 0.10436 0.62576 0.0
H2087 H 0.86695 0.04477 0.61633 0.0
H2088 H 0.92477 0.98844 0.64742 0.0
H2089 H 0.88687 0.99897 0.64009 0.0
H2090 H 0.87185 0.07336 0.64899 0.0
C2091 C 0.81544 0.08472 0.62073 0.0
C2092 C 0.86747 0.05096 0.62343 0.0
C2093 C 0.7939 0.08461 0.61438 0.0
C2094 C 0.92754 0.01205 0.64842 0.0
C2095 C 0.90586 0.01807 0.6442 0.0
C2096 C 0.87106 0.06744 0.64185 0.0
C2097 C 0.82306 0.06036 0.62036 0.0
C2098 C 0.84727 0.06087 0.62667 0.0
C2099 C 0.90964 0.04884 0.64473 0.0
C2100 C 0.88988 0.05579 0.6386 0.0
H2101 H 0.77544 0.0158 0.6023 0.0
H2102 H 0.81224 0.01568 0.61333 0.0
H2103 H 0.83467 0.07763 0.63866 0.0
H2104 H 0.97621 0.08617 0.65827 0.0
H2105 H 0.9376 0.09684 0.6508 0.0
C2106 C 0.97976 0.42171 0.44815 0.0
C2107 C 0.97035 0.39251 0.44333 0.0
C2108 C 0.96082 0.42396 0.45461 0.0
C2109 C 0.89643 0.37499 0.46931 0.0
H2110 H 0.87636 0.44246 0.46773 0.0
C2111 C 0.78366 0.36176 0.48212 0.0
C2112 C 0.78189 0.38873 0.48489 0.0
C2113 C 0.81141 0.365 0.47921 0.0
C2114 C 0.88219 0.42386 0.46845 0.0
H2115 H 0.93412 0.34263 0.44175 0.0
H2116 H 0.9013 0.34646 0.453 0.0
H2117 H 0.91582 0.44294 0.45827 0.0
H2118 H 0.80793 0.44022 0.48716 0.0
H2119 H 0.85714 0.44612 0.48222 0.0
H2120 H 0.86268 0.35561 0.47938 0.0
C2121 C 0.92325 0.36767 0.45179 0.0
C2122 C 0.90477 0.42408 0.46298 0.0
C2123 C 0.94191 0.36554 0.44526 0.0
C2124 C 0.80891 0.41901 0.48521 0.0
C2125 C 0.8369 0.42235 0.48224 0.0
C2126 C 0.87413 0.37493 0.47484 0.0
C2127 C 0.93233 0.39693 0.45651 0.0
C2128 C 0.91146 0.3991 0.46315 0.0
C2129 C 0.83821 0.39543 0.47892 0.0
C2130 C 0.86592 0.39878 0.47429 0.0
H2131 H 1.00144 0.44296 0.44679 0.0
H2132 H 0.96853 0.44682 0.45815 0.0
H2133 H 0.90149 0.35574 0.46974 0.0
H2134 H 0.76294 0.33823 0.48165 0.0
H2135 H 0.81112 0.34371 0.47659 0.0
C2136 C 0.68035 0.65205 0.45522 0.0
C2137 C 0.66417 0.64639 0.44681 0.0
C2138 C 0.67901 0.62678 0.45994 0.0
C2139 C 0.63223 0.53834 0.46166 0.0
H2140 H 0.70613 0.55041 0.47472 0.0
C2141 C 0.64711 0.43431 0.47388 0.0
C2142 C 0.66474 0.43861 0.48189 0.0
C2143 C 0.64321 0.45909 0.47073 0.0
C2144 C 0.6851 0.54678 0.47126 0.0
H2145 H 0.63405 0.60943 0.43675 0.0
H2146 H 0.63211 0.56521 0.44492 0.0
H2147 H 0.70825 0.59429 0.46649 0.0
H2148 H 0.6912 0.47171 0.49312 0.0
H2149 H 0.68442 0.51547 0.48764 0.0
H2150 H 0.60935 0.49048 0.46628 0.0
C2151 C 0.6455 0.5893 0.44794 0.0
C2152 C 0.68632 0.57198 0.4665 0.0
C2153 C 0.64683 0.61469 0.4432 0.0
C2154 C 0.67704 0.46765 0.487 0.0
C2155 C 0.6735 0.49277 0.48379 0.0
C2156 C 0.63105 0.51309 0.46641 0.0
C2157 C 0.66149 0.59499 0.4564 0.0
C2158 C 0.65998 0.56808 0.46157 0.0
C2159 C 0.65733 0.48908 0.47546 0.0
C2160 C 0.65754 0.51687 0.47121 0.0
H2161 H 0.69385 0.67609 0.45826 0.0
H2162 H 0.69127 0.63219 0.46648 0.0
H2163 H 0.61131 0.53456 0.45811 0.0
H2164 H 0.6378 0.41227 0.46975 0.0
H2165 H 0.63088 0.45537 0.46427 0.0
C2166 C 0.44581 0.09474 0.43403 0.0
C2167 C 0.43196 0.06237 0.43613 0.0
C2168 C 0.47059 0.11859 0.43945 0.0
C2169 C 0.5081 0.13639 0.46247 0.0
H2170 H 0.57349 0.20929 0.45103 0.0
C2171 C 0.61639 0.25023 0.48104 0.0
C2172 C 0.6207 0.27914 0.47775 0.0
C2173 C 0.59399 0.22063 0.47678 0.0
C2174 C 0.55544 0.18905 0.45434 0.0
H2175 H 0.43371 0.02977 0.44559 0.0
H2176 H 0.47717 0.07148 0.455 0.0
H2177 H 0.5342 0.16379 0.44173 0.0
H2178 H 0.6032 0.29942 0.46791 0.0
H2179 H 0.56492 0.2487 0.46065 0.0
H2180 H 0.52952 0.16239 0.47513 0.0
C2181 C 0.46863 0.07839 0.44919 0.0
C2182 C 0.53279 0.16301 0.449 0.0
C2183 C 0.44384 0.05445 0.44374 0.0
C2184 C 0.60106 0.27772 0.47052 0.0
C2185 C 0.57907 0.24859 0.46632 0.0
C2186 C 0.53099 0.16258 0.46785 0.0
C2187 C 0.48228 0.11081 0.44713 0.0
C2188 C 0.50826 0.13671 0.45296 0.0
C2189 C 0.57584 0.21974 0.46918 0.0
C2190 C 0.55436 0.18959 0.46381 0.0
H2191 H 0.43722 0.1018 0.42827 0.0
H2192 H 0.48013 0.14332 0.43772 0.0
H2193 H 0.48952 0.11656 0.46576 0.0
H2194 H 0.63114 0.25055 0.48659 0.0
H2195 H 0.59179 0.19865 0.47917 0.0
C2196 C 0.74626 0.66428 0.74449 0.0
C2197 C 0.72621 0.65581 0.7517 0.0
C2198 C 0.74668 0.64063 0.73889 0.0
C2199 C 0.7235 0.55438 0.738 0.0
H2200 H 0.7243 0.56124 0.71198 0.0
C2201 C 0.67923 0.44387 0.71456 0.0
C2202 C 0.69761 0.44394 0.70753 0.0
C2203 C 0.68604 0.47213 0.71927 0.0
C2204 C 0.72453 0.55923 0.71924 0.0
H2205 H 0.69114 0.61565 0.75869 0.0
H2206 H 0.69175 0.57466 0.74897 0.0
H2207 H 0.73037 0.60593 0.72181 0.0
H2208 H 0.73672 0.47443 0.6996 0.0
H2209 H 0.74861 0.52465 0.7079 0.0
H2210 H 0.71678 0.5075 0.73546 0.0
C2211 C 0.70748 0.59956 0.74768 0.0
C2212 C 0.72801 0.58481 0.72488 0.0
C2213 C 0.70701 0.62314 0.75325 0.0
C2214 C 0.72214 0.47355 0.70498 0.0
C2215 C 0.72897 0.50222 0.70975 0.0
C2216 C 0.71992 0.52895 0.73239 0.0
C2217 C 0.72718 0.60791 0.74038 0.0
C2218 C 0.72675 0.58235 0.73434 0.0
C2219 C 0.71145 0.50156 0.71713 0.0
C2220 C 0.71958 0.53067 0.72294 0.0
H2221 H 0.76132 0.68921 0.74307 0.0
H2222 H 0.76235 0.64799 0.7334 0.0
H2223 H 0.72325 0.55189 0.74524 0.0
H2224 H 0.65977 0.42166 0.71663 0.0
H2225 H 0.67157 0.47084 0.72475 0.0
C2226 C 0.40081 0.10821 0.73766 0.0
C2227 C 0.40623 0.1204 0.74668 0.0
C2228 C 0.41919 0.1271 0.73081 0.0
C2229 C 0.47614 0.21178 0.72562 0.0
H2230 H 0.50404 0.17193 0.70811 0.0
C2231 C 0.589 0.25214 0.70365 0.0
C2232 C 0.59404 0.28145 0.70051 0.0
C2233 C 0.56087 0.23053 0.70726 0.0
C2234 C 0.49638 0.18347 0.71292 0.0
H2235 H 0.435 0.16273 0.75541 0.0
H2236 H 0.46733 0.1951 0.74361 0.0
H2237 H 0.46589 0.13903 0.7188 0.0
H2238 H 0.57282 0.31029 0.69816 0.0
H2239 H 0.52312 0.27225 0.70451 0.0
H2240 H 0.50796 0.25646 0.72004 0.0
C2241 C 0.44861 0.17104 0.74177 0.0
C2242 C 0.47423 0.1645 0.71901 0.0
C2243 C 0.43027 0.1522 0.74861 0.0
C2244 C 0.56948 0.28777 0.70048 0.0
C2245 C 0.5412 0.26615 0.70422 0.0
C2246 C 0.49835 0.23076 0.71952 0.0
C2247 C 0.44349 0.15875 0.73278 0.0
C2248 C 0.46438 0.17848 0.72561 0.0
C2249 C 0.53694 0.23768 0.70791 0.0
C2250 C 0.50942 0.21697 0.71325 0.0
H2251 H 0.38271 0.08385 0.73589 0.0
H2252 H 0.41431 0.11685 0.72396 0.0
H2253 H 0.46871 0.22336 0.73048 0.0
H2254 H 0.60755 0.24664 0.70377 0.0
H2255 H 0.55874 0.20915 0.71009 0.0
C2256 C 0.91934 0.29974 0.73865 0.0
C2257 C 0.93792 0.32801 0.74402 0.0
C2258 C 0.89894 0.29876 0.73176 0.0
C2259 C 0.88432 0.35087 0.71706 0.0
H2260 H 0.7978 0.28376 0.71656 0.0
C2261 C 0.78648 0.36902 0.70343 0.0
C2262 C 0.75853 0.34319 0.69974 0.0
C2263 C 0.81055 0.3645 0.70655 0.0
C2264 C 0.82199 0.30228 0.71642 0.0
H2265 H 0.95027 0.37762 0.74614 0.0
H2266 H 0.91503 0.37604 0.73413 0.0
H2267 H 0.8357 0.28073 0.72667 0.0
H2268 H 0.73424 0.29253 0.69598 0.0
H2269 H 0.77674 0.28435 0.70144 0.0
H2270 H 0.87074 0.37281 0.70697 0.0
C2271 C 0.9161 0.35456 0.73525 0.0
C2272 C 0.84371 0.3006 0.72227 0.0
C2273 C 0.93607 0.35539 0.74221 0.0
C2274 C 0.75577 0.31291 0.6987 0.0
C2275 C 0.77994 0.30822 0.70193 0.0
C2276 C 0.86273 0.35242 0.71118 0.0
C2277 C 0.89712 0.32621 0.72997 0.0
C2278 C 0.87493 0.32544 0.72287 0.0
C2279 C 0.80728 0.33385 0.70616 0.0
C2280 C 0.83105 0.32876 0.71101 0.0
H2281 H 0.92011 0.2782 0.73992 0.0
H2282 H 0.88468 0.27658 0.7278 0.0
H2283 H 0.90833 0.37006 0.71722 0.0
H2284 H 0.78903 0.39255 0.7044 0.0
H2285 H 0.8309 0.38477 0.70985 0.0
C2286 C 0.43606 0.35197 0.24486 0.0
C2287 C 0.40787 0.32422 0.24647 0.0
C2288 C 0.45654 0.35095 0.23882 0.0
C2289 C 0.46486 0.3024 0.22027 0.0
H2290 H 0.55188 0.35539 0.22782 0.0
C2291 C 0.57255 0.30305 0.20406 0.0
C2292 C 0.59867 0.3338 0.20354 0.0
C2293 C 0.54551 0.29924 0.20795 0.0
C2294 C 0.52769 0.34062 0.22556 0.0
H2295 H 0.37863 0.27372 0.24274 0.0
H2296 H 0.41488 0.27166 0.23226 0.0
H2297 H 0.5126 0.35339 0.23746 0.0
H2298 H 0.61627 0.38455 0.2059 0.0
H2299 H 0.56933 0.37806 0.21242 0.0
H2300 H 0.48066 0.28928 0.20838 0.0
C2301 C 0.42094 0.29438 0.23562 0.0
C2302 C 0.50507 0.33956 0.23109 0.0
C2303 C 0.40018 0.29551 0.24163 0.0
C2304 C 0.59642 0.36059 0.20621 0.0
C2305 C 0.56964 0.35685 0.21003 0.0
C2306 C 0.48771 0.30325 0.21473 0.0
C2307 C 0.44972 0.32203 0.23427 0.0
C2308 C 0.47332 0.32103 0.22846 0.0
C2309 C 0.54446 0.32616 0.21136 0.0
C2310 C 0.51942 0.32296 0.21725 0.0
H2311 H 0.44234 0.37463 0.24829 0.0
H2312 H 0.47793 0.37299 0.23776 0.0
H2313 H 0.44066 0.28784 0.21801 0.0
H2314 H 0.57392 0.28201 0.20216 0.0
H2315 H 0.52642 0.27529 0.20888 0.0
C2316 C 0.72368 0.1051 0.24525 0.0
C2317 C 0.75313 0.10864 0.24699 0.0
C2318 C 0.71994 0.12569 0.23957 0.0
C2319 C 0.76243 0.20459 0.22905 0.0
H2320 H 0.68857 0.16741 0.21304 0.0
C2321 C 0.73591 0.28145 0.20465 0.0
C2322 C 0.7059 0.27671 0.20546 0.0
C2323 C 0.74379 0.25986 0.20839 0.0
C2324 C 0.70934 0.17822 0.21747 0.0
H2325 H 0.80192 0.13732 0.24421 0.0
H2326 H 0.79536 0.17316 0.23428 0.0
H2327 H 0.69824 0.133 0.22265 0.0
H2328 H 0.66025 0.2449 0.21028 0.0
H2329 H 0.67356 0.20726 0.21653 0.0
H2330 H 0.77317 0.24996 0.22392 0.0
C2331 C 0.77514 0.15455 0.23737 0.0
C2332 C 0.71481 0.15848 0.22303 0.0
C2333 C 0.77889 0.13391 0.24307 0.0
C2334 C 0.68354 0.24911 0.20953 0.0
C2335 C 0.69119 0.22746 0.2131 0.0
C2336 C 0.75697 0.22438 0.22346 0.0
C2337 C 0.74552 0.15043 0.23543 0.0
C2338 C 0.74106 0.17144 0.22906 0.0
C2339 C 0.72159 0.23291 0.21282 0.0
C2340 C 0.72997 0.21153 0.21774 0.0
H2341 H 0.70331 0.08601 0.24816 0.0
H2342 H 0.69687 0.12215 0.23841 0.0
H2343 H 0.78283 0.21549 0.23362 0.0
H2344 H 0.75366 0.30271 0.20163 0.0
H2345 H 0.76737 0.26463 0.208 0.0
C2346 C 0.90954 0.67328 0.24124 0.0
C2347 C 0.93413 0.67226 0.24582 0.0
C2348 C 0.88775 0.64719 0.23565 0.0
C2349 C 0.87848 0.5752 0.22295 0.0
H2350 H 0.79045 0.54627 0.22235 0.0
C2351 C 0.78498 0.44784 0.2113 0.0
C2352 C 0.7585 0.44245 0.20619 0.0
C2353 C 0.80712 0.47858 0.21459 0.0
C2354 C 0.81504 0.55443 0.22231 0.0
H2355 H 0.95429 0.6424 0.24832 0.0
H2356 H 0.91618 0.59696 0.23877 0.0
H2357 H 0.82687 0.59407 0.23165 0.0
H2358 H 0.73484 0.46525 0.20026 0.0
H2359 H 0.77371 0.51962 0.20621 0.0
H2360 H 0.86658 0.53504 0.21386 0.0
C2361 C 0.91407 0.61816 0.23931 0.0
C2362 C 0.83594 0.58179 0.22766 0.0
C2363 C 0.93582 0.64418 0.24487 0.0
C2364 C 0.75516 0.4688 0.20414 0.0
C2365 C 0.77722 0.49977 0.2076 0.0
C2366 C 0.85765 0.54789 0.21765 0.0
C2367 C 0.89004 0.61947 0.23448 0.0
C2368 C 0.86787 0.59206 0.22823 0.0
C2369 C 0.80325 0.50485 0.21297 0.0
C2370 C 0.8256 0.5367 0.21743 0.0
H2371 H 0.90758 0.69456 0.24178 0.0
H2372 H 0.86966 0.64915 0.23202 0.0
H2373 H 0.90296 0.58285 0.223 0.0
H2374 H 0.7882 0.428 0.21299 0.0
H2375 H 0.82665 0.48151 0.21877 0.0
C2376 C 0.64851 0.06712 0.94679 0.0
C2377 C 0.62268 0.04803 0.94084 0.0
C2378 C 0.64915 0.09101 0.95251 0.0
C2379 C 0.61858 0.1452 0.95469 0.0
H2380 H 0.64131 0.15144 0.98022 0.0
C2381 C 0.62321 0.24589 0.97722 0.0
C2382 C 0.64767 0.26101 0.98379 0.0
C2383 C 0.6157 0.21635 0.97308 0.0
C2384 C 0.63526 0.15039 0.9731 0.0
H2385 H 0.57744 0.03949 0.93618 0.0
H2386 H 0.57904 0.08199 0.94598 0.0
H2387 H 0.63853 0.10827 0.97053 0.0
H2388 H 0.68262 0.2566 0.99151 0.0
H2389 H 0.67055 0.20567 0.98409 0.0
H2390 H 0.61682 0.18794 0.957 0.0
C2391 C 0.59862 0.07813 0.94627 0.0
C2392 C 0.63355 0.1255 0.96755 0.0
C2393 C 0.59771 0.05379 0.94066 0.0
C2394 C 0.66327 0.24512 0.98657 0.0
C2395 C 0.65632 0.21587 0.98226 0.0
C2396 C 0.62082 0.17038 0.96018 0.0
C2397 C 0.62424 0.09682 0.95231 0.0
C2398 C 0.62526 0.12268 0.95828 0.0
C2399 C 0.63322 0.20166 0.97517 0.0
C2400 C 0.62922 0.17349 0.96948 0.0
H2401 H 0.66806 0.0632 0.94715 0.0
H2402 H 0.66933 0.10523 0.95703 0.0
H2403 H 0.61252 0.14391 0.94756 0.0
H2404 H 0.61091 0.25776 0.97494 0.0
H2405 H 0.59698 0.2058 0.96794 0.0
C2406 C 0.97373 0.57605 0.94591 0.0
C2407 C 0.97079 0.60325 0.94497 0.0
C2408 C 0.95594 0.55289 0.95204 0.0
C2409 C 0.91216 0.5392 0.97262 0.0
H2410 H 0.85949 0.45268 0.96254 0.0
C2411 C 0.80221 0.44598 0.98986 0.0
C2412 C 0.78918 0.41335 0.98741 0.0
C2413 C 0.82981 0.4689 0.98615 0.0
C2414 C 0.87451 0.47638 0.96563 0.0
H2415 H 0.94807 0.62828 0.95 0.0
H2416 H 0.9176 0.58832 0.96085 0.0
H2417 H 0.89765 0.4932 0.95329 0.0
H2418 H 0.79585 0.37871 0.97981 0.0
H2419 H 0.84523 0.41811 0.97395 0.0
H2420 H 0.88947 0.52258 0.985 0.0
C2421 C 0.93334 0.58467 0.95678 0.0
C2422 C 0.89633 0.49974 0.96024 0.0
C2423 C 0.95057 0.60739 0.95052 0.0
C2424 C 0.80565 0.40375 0.98188 0.0
C2425 C 0.83365 0.42653 0.97836 0.0
C2426 C 0.89076 0.51568 0.97809 0.0
C2427 C 0.93545 0.55692 0.95752 0.0
C2428 C 0.91492 0.53155 0.96361 0.0
C2429 C 0.84527 0.4596 0.98001 0.0
C2430 C 0.87102 0.48398 0.97462 0.0
H2431 H 0.98907 0.57225 0.9417 0.0
H2432 H 0.95806 0.53175 0.95248 0.0
H2433 H 0.92642 0.56351 0.97542 0.0
H2434 H 0.78954 0.45403 0.99395 0.0
H2435 H 0.83754 0.49393 0.9876 0.0
C2436 C 0.4344 0.37037 0.95252 0.0
C2437 C 0.44074 0.39232 0.94576 0.0
C2438 C 0.45746 0.37508 0.95899 0.0
C2439 C 0.53884 0.43477 0.96795 0.0
H2440 H 0.53657 0.35773 0.97569 0.0
C2441 C 0.6447 0.4249 0.98042 0.0
C2442 C 0.64076 0.4041 0.98736 0.0
C2443 C 0.6201 0.42881 0.97735 0.0
C2444 C 0.53729 0.37951 0.97374 0.0
H2445 H 0.47592 0.43671 0.94054 0.0
H2446 H 0.51694 0.44436 0.95152 0.0
H2447 H 0.49434 0.35324 0.96606 0.0
H2448 H 0.60866 0.37285 0.99695 0.0
H2449 H 0.56527 0.37919 0.99145 0.0
H2450 H 0.58321 0.46073 0.97521 0.0
C2451 C 0.49389 0.42393 0.95208 0.0
C2452 C 0.51292 0.37701 0.9682 0.0
C2453 C 0.47048 0.41955 0.94572 0.0
C2454 C 0.61246 0.3893 0.99167 0.0
C2455 C 0.58755 0.39266 0.98845 0.0
C2456 C 0.56356 0.43721 0.97336 0.0
C2457 C 0.48788 0.40148 0.95875 0.0
C2458 C 0.51333 0.40456 0.96513 0.0
C2459 C 0.5908 0.41147 0.98102 0.0
C2460 C 0.56315 0.40957 0.97626 0.0
H2461 H 0.41147 0.34945 0.95277 0.0
H2462 H 0.45133 0.35773 0.96414 0.0
H2463 H 0.53995 0.45664 0.96593 0.0
H2464 H 0.66622 0.43642 0.97694 0.0
H2465 H 0.62334 0.44336 0.9716 0.0
C2466 C 0.6442 0.75277 0.78339 0.0
C2467 C 0.63461 0.72405 0.7783 0.0
C2468 C 0.62554 0.75433 0.79007 0.0
C2469 C 0.56207 0.70355 0.8048 0.0
H2470 H 0.5406 0.77021 0.80426 0.0
C2471 C 0.44809 0.68599 0.81765 0.0
C2472 C 0.44564 0.71202 0.821 0.0
C2473 C 0.47622 0.69042 0.81471 0.0
C2474 C 0.54686 0.75184 0.80469 0.0
H2475 H 0.59835 0.67427 0.77642 0.0
H2476 H 0.56604 0.67687 0.78806 0.0
H2477 H 0.58021 0.77249 0.79448 0.0
H2478 H 0.47108 0.76299 0.82435 0.0
H2479 H 0.52093 0.77099 0.81921 0.0
H2480 H 0.52848 0.68251 0.81486 0.0
C2481 C 0.5879 0.69825 0.7869 0.0
C2482 C 0.56951 0.75309 0.79903 0.0
C2483 C 0.60627 0.69683 0.78015 0.0
C2484 C 0.47249 0.74246 0.8219 0.0
C2485 C 0.50085 0.74704 0.81884 0.0
C2486 C 0.5397 0.70245 0.8105 0.0
C2487 C 0.59717 0.72703 0.79191 0.0
C2488 C 0.5766 0.72837 0.79881 0.0
C2489 C 0.5028 0.72115 0.81495 0.0
C2490 C 0.53094 0.72594 0.81029 0.0
H2491 H 0.66582 0.7742 0.78209 0.0
H2492 H 0.63336 0.77684 0.79383 0.0
H2493 H 0.56746 0.68449 0.80493 0.0
H2494 H 0.42765 0.66231 0.81681 0.0
H2495 H 0.47648 0.66993 0.81168 0.0
C2496 C 0.35668 0.96173 0.7769 0.0
C2497 C 0.32957 0.96293 0.77491 0.0
C2498 C 0.35581 0.93767 0.78211 0.0
C2499 C 0.31014 0.87828 0.79891 0.0
H2500 H 0.36293 0.84411 0.79248 0.0
C2501 C 0.31645 0.77315 0.81655 0.0
C2502 C 0.34645 0.7774 0.81744 0.0
C2503 C 0.31157 0.79577 0.8121 0.0
C2504 C 0.34823 0.85356 0.79443 0.0
H2505 H 0.28011 0.93943 0.7769 0.0
H2506 H 0.27855 0.89701 0.78596 0.0
H2507 H 0.3591 0.88181 0.78282 0.0
H2508 H 0.39501 0.8098 0.81518 0.0
H2509 H 0.38673 0.84921 0.80774 0.0
H2510 H 0.29935 0.84958 0.81057 0.0
C2511 C 0.30057 0.91499 0.78351 0.0
C2512 C 0.34604 0.87526 0.78887 0.0
C2513 C 0.30142 0.93914 0.77825 0.0
C2514 C 0.37159 0.80576 0.81453 0.0
C2515 C 0.36681 0.82821 0.81018 0.0
C2516 C 0.31226 0.85631 0.80449 0.0
C2517 C 0.32781 0.91395 0.78551 0.0
C2518 C 0.32755 0.88853 0.79112 0.0
C2519 C 0.33666 0.82286 0.80852 0.0
C2520 C 0.33194 0.84429 0.80241 0.0
H2521 H 0.37883 0.97969 0.77451 0.0
H2522 H 0.37738 0.93808 0.78362 0.0
H2523 H 0.29572 0.88805 0.80086 0.0
H2524 H 0.29662 0.75135 0.81866 0.0
H2525 H 0.28806 0.79104 0.81097 0.0
C2526 C 0.1114 0.38757 0.77821 0.0
C2527 C 0.09813 0.39516 0.77087 0.0
C2528 C 0.1359 0.41185 0.78367 0.0
C2529 C 0.19662 0.49815 0.7839 0.0
H2530 H 0.1956 0.49413 0.81 0.0
C2531 C 0.26422 0.61109 0.80639 0.0
C2532 C 0.28417 0.61192 0.81343 0.0
C2533 C 0.24245 0.5823 0.80196 0.0
C2534 C 0.19643 0.49535 0.80273 0.0
H2535 H 0.10065 0.43439 0.76347 0.0
H2536 H 0.143 0.47647 0.77293 0.0
H2537 H 0.15643 0.44832 0.80047 0.0
H2538 H 0.29541 0.58255 0.8217 0.0
H2539 H 0.25653 0.53139 0.81388 0.0
H2540 H 0.23589 0.54535 0.7861 0.0
C2541 C 0.13481 0.45177 0.77445 0.0
C2542 C 0.17402 0.46913 0.79725 0.0
C2543 C 0.11035 0.42757 0.76902 0.0
C2544 C 0.28041 0.58272 0.81631 0.0
C2545 C 0.25826 0.55351 0.81182 0.0
C2546 C 0.21878 0.52422 0.78934 0.0
C2547 C 0.14785 0.44432 0.78188 0.0
C2548 C 0.17338 0.47055 0.78776 0.0
C2549 C 0.23977 0.55324 0.8044 0.0
C2550 C 0.21851 0.52352 0.79881 0.0
H2551 H 0.10254 0.36285 0.77986 0.0
H2552 H 0.14552 0.40517 0.78927 0.0
H2553 H 0.19745 0.49986 0.77663 0.0
H2554 H 0.26598 0.633 0.8041 0.0
H2555 H 0.22803 0.58288 0.79644 0.0
C2556 C 0.3857 0.97888 0.07692 0.0
C2557 C 0.41528 0.00578 0.0789 0.0
C2558 C 0.38184 0.95407 0.07094 0.0
C2559 C 0.42469 0.91894 0.05975 0.0
H2560 H 0.34991 0.87644 0.04411 0.0
C2561 C 0.39873 0.81357 0.03412 0.0
C2562 C 0.36944 0.78643 0.03516 0.0
C2563 C 0.40611 0.8434 0.03818 0.0
C2564 C 0.37096 0.88811 0.04841 0.0
H2565 H 0.46409 0.02738 0.07616 0.0
H2566 H 0.45731 0.98438 0.06565 0.0
H2567 H 0.35945 0.92178 0.05405 0.0
H2568 H 0.32446 0.76947 0.04077 0.0
H2569 H 0.33687 0.82114 0.04756 0.0
H2570 H 0.43593 0.88488 0.0541 0.0
C2571 C 0.43709 0.98219 0.06882 0.0
C2572 C 0.37635 0.91398 0.05418 0.0
C2573 C 0.44098 0.00695 0.07485 0.0
C2574 C 0.3472 0.79001 0.03984 0.0
C2575 C 0.35431 0.81969 0.04372 0.0
C2576 C 0.41937 0.89312 0.05392 0.0
C2577 C 0.4074 0.95552 0.0667 0.0
C2578 C 0.40293 0.92935 0.06009 0.0
C2579 C 0.38406 0.84661 0.04316 0.0
C2580 C 0.3921 0.87694 0.04832 0.0
H2581 H 0.36539 0.97706 0.07994 0.0
H2582 H 0.3587 0.93365 0.06966 0.0
H2583 H 0.44531 0.92994 0.06422 0.0
H2584 H 0.41638 0.81137 0.03063 0.0
H2585 H 0.4292 0.86378 0.03759 0.0
C2586 C 0.11121 0.45979 0.07949 0.0
C2587 C 0.08015 0.45235 0.07963 0.0
C2588 C 0.13102 0.48027 0.07318 0.0
C2589 C 0.13382 0.51822 0.0514 0.0
H2590 H 0.21941 0.57428 0.05996 0.0
C2591 C 0.2392 0.62371 0.03276 0.0
C2592 C 0.26555 0.62023 0.03313 0.0
C2593 C 0.21236 0.60228 0.0372 0.0
C2594 C 0.19555 0.55883 0.05747 0.0
H2595 H 0.04541 0.4603 0.07307 0.0
H2596 H 0.08026 0.49667 0.06207 0.0
H2597 H 0.1814 0.53999 0.07044 0.0
H2598 H 0.28341 0.59003 0.03761 0.0
H2599 H 0.23709 0.55308 0.04521 0.0
H2600 H 0.14866 0.53784 0.03837 0.0
C2601 C 0.08918 0.48626 0.06681 0.0
C2602 C 0.17374 0.53891 0.06346 0.0
C2603 C 0.06919 0.46544 0.07312 0.0
C2604 C 0.26359 0.59352 0.03727 0.0
C2605 C 0.2371 0.57239 0.04166 0.0
C2606 C 0.15579 0.53859 0.04539 0.0
C2607 C 0.12054 0.49432 0.06684 0.0
C2608 C 0.14273 0.51761 0.06049 0.0
C2609 C 0.21173 0.57727 0.04201 0.0
C2610 C 0.18703 0.55848 0.04835 0.0
H2611 H 0.12026 0.44955 0.08424 0.0
H2612 H 0.15467 0.48499 0.07327 0.0
H2613 H 0.11019 0.50216 0.04885 0.0
H2614 H 0.24016 0.64421 0.02966 0.0
H2615 H 0.19302 0.6065 0.03737 0.0
C2616 C 0.60353 0.69095 0.07241 0.0
C2617 C 0.60411 0.66346 0.07495 0.0
C2618 C 0.58341 0.6892 0.06538 0.0
C2619 C 0.50897 0.63478 0.05349 0.0
H2620 H 0.53695 0.70344 0.03686 0.0
C2621 C 0.42188 0.64874 0.02987 0.0
C2622 C 0.42627 0.67977 0.03071 0.0
C2623 C 0.44524 0.64279 0.0331 0.0
C2624 C 0.52871 0.684 0.04142 0.0
H2625 H 0.58407 0.61254 0.07202 0.0
H2626 H 0.5483 0.60932 0.05973 0.0
H2627 H 0.57464 0.70044 0.04701 0.0
H2628 H 0.45891 0.72911 0.03495 0.0
H2629 H 0.49944 0.71912 0.04035 0.0
H2630 H 0.46282 0.61929 0.04821 0.0
C2631 C 0.56366 0.63227 0.0632 0.0
C2632 C 0.55034 0.68231 0.04725 0.0
C2633 C 0.58423 0.63413 0.07019 0.0
C2634 C 0.455 0.70497 0.03418 0.0
C2635 C 0.47831 0.69921 0.03726 0.0
C2636 C 0.48723 0.63658 0.04768 0.0
C2637 C 0.56305 0.65984 0.06072 0.0
C2638 C 0.54064 0.65834 0.05356 0.0
C2639 C 0.47346 0.66792 0.03705 0.0
C2640 C 0.49674 0.6619 0.04179 0.0
H2641 H 0.61877 0.71395 0.07587 0.0
H2642 H 0.58331 0.71083 0.06373 0.0
H2643 H 0.50073 0.61606 0.05829 0.0
H2644 H 0.39978 0.62885 0.02729 0.0
H2645 H 0.44085 0.61845 0.03278 0.0
C2646 C 0.06785 0.62901 0.57516 0.0
C2647 C 0.0778 0.65547 0.5813 0.0
C2648 C 0.08836 0.62804 0.56902 0.0
C2649 C 0.17329 0.66581 0.56587 0.0
H2650 H 0.14931 0.63077 0.54118 0.0
C2651 C 0.26493 0.69615 0.54053 0.0
C2652 C 0.26721 0.67017 0.53701 0.0
C2653 C 0.23799 0.69122 0.54449 0.0
C2654 C 0.15615 0.64033 0.54809 0.0
H2655 H 0.11645 0.70243 0.58539 0.0
H2656 H 0.15173 0.70119 0.57468 0.0
H2657 H 0.10988 0.62861 0.55122 0.0
H2658 H 0.24207 0.61884 0.53418 0.0
H2659 H 0.19419 0.61011 0.54115 0.0
H2660 H 0.21952 0.67844 0.56272 0.0
C2661 C 0.12856 0.68055 0.57477 0.0
C2662 C 0.13364 0.63907 0.55385 0.0
C2663 C 0.10826 0.68135 0.58093 0.0
C2664 C 0.24081 0.6393 0.53678 0.0
C2665 C 0.21355 0.63431 0.5408 0.0
C2666 C 0.19561 0.66735 0.56013 0.0
C2667 C 0.1192 0.65364 0.56885 0.0
C2668 C 0.1421 0.65245 0.56277 0.0
C2669 C 0.21255 0.66016 0.54506 0.0
C2670 C 0.18748 0.65522 0.55114 0.0
H2671 H 0.04453 0.60867 0.57529 0.0
H2672 H 0.08032 0.60688 0.56459 0.0
H2673 H 0.18065 0.67541 0.57276 0.0
H2674 H 0.28486 0.72023 0.54076 0.0
H2675 H 0.23769 0.71161 0.5476 0.0
C2676 C 0.4165 0.44502 0.57828 0.0
C2677 C 0.39394 0.43074 0.58476 0.0
C2678 C 0.41702 0.46853 0.57281 0.0
C2679 C 0.38693 0.52506 0.57128 0.0
H2680 H 0.40037 0.52315 0.54567 0.0
C2681 C 0.34484 0.58454 0.54682 0.0
C2682 C 0.36652 0.60746 0.54124 0.0
C2683 C 0.35136 0.56355 0.55132 0.0
C2684 C 0.39699 0.52421 0.55282 0.0
H2685 H 0.35442 0.43041 0.59059 0.0
H2686 H 0.3551 0.47082 0.58109 0.0
H2687 H 0.40623 0.4863 0.5555 0.0
H2688 H 0.41129 0.62464 0.53547 0.0
H2689 H 0.42271 0.58708 0.54336 0.0
H2690 H 0.37664 0.56205 0.56858 0.0
C2691 C 0.37279 0.46437 0.58028 0.0
C2692 C 0.40037 0.50315 0.55848 0.0
C2693 C 0.37229 0.44096 0.58573 0.0
C2694 C 0.39411 0.60721 0.53972 0.0
C2695 C 0.40068 0.58586 0.54425 0.0
C2696 C 0.38334 0.54578 0.56565 0.0
C2697 C 0.39504 0.47842 0.5737 0.0
C2698 C 0.39464 0.5028 0.56776 0.0
C2699 C 0.37977 0.56468 0.55037 0.0
C2700 C 0.3876 0.54513 0.55632 0.0
H2701 H 0.4335 0.43768 0.57731 0.0
H2702 H 0.43469 0.47898 0.56789 0.0
H2703 H 0.38319 0.52624 0.5784 0.0
H2704 H 0.32314 0.5837 0.54805 0.0
H2705 H 0.33448 0.54703 0.5558 0.0
C2706 C 0.60817 0.98024 0.57768 0.0
C2707 C 0.60569 0.00794 0.57816 0.0
C2708 C 0.58603 0.95273 0.57267 0.0
C2709 C 0.52571 0.92403 0.55403 0.0
H2710 H 0.49782 0.84161 0.56428 0.0
C2711 C 0.42528 0.80102 0.53798 0.0
C2712 C 0.42863 0.77424 0.53932 0.0
C2713 C 0.44743 0.83128 0.54189 0.0
C2714 C 0.50563 0.86435 0.56123 0.0
H2715 H 0.57782 0.02829 0.57367 0.0
H2716 H 0.5391 0.98014 0.56495 0.0
H2717 H 0.53445 0.89028 0.57294 0.0
H2718 H 0.45886 0.7585 0.54502 0.0
H2719 H 0.49773 0.81088 0.55143 0.0
H2720 H 0.4968 0.89775 0.54226 0.0
C2721 C 0.55833 0.97984 0.56842 0.0
C2722 C 0.52665 0.89234 0.56623 0.0
C2723 C 0.58041 0.00736 0.57349 0.0
C2724 C 0.45552 0.77868 0.54397 0.0
C2725 C 0.47765 0.80869 0.54774 0.0
C2726 C 0.50466 0.89585 0.54898 0.0
C2727 C 0.56084 0.95215 0.56796 0.0
C2728 C 0.5373 0.92256 0.56267 0.0
C2729 C 0.47329 0.83513 0.54713 0.0
C2730 C 0.49471 0.86559 0.55247 0.0
H2731 H 0.62738 0.97982 0.58113 0.0
H2732 H 0.58894 0.93199 0.57238 0.0
H2733 H 0.53355 0.94692 0.55106 0.0
H2734 H 0.40464 0.79817 0.53447 0.0
H2735 H 0.44338 0.85114 0.54124 0.0
C2736 C 0.26005 0.37041 0.28026 0.0
C2737 C 0.28448 0.372 0.27535 0.0
C2738 C 0.26464 0.3965 0.28585 0.0
C2739 C 0.3281 0.47103 0.29765 0.0
H2740 H 0.26478 0.49459 0.29977 0.0
C2741 C 0.35555 0.59617 0.31009 0.0
C2742 C 0.33577 0.59965 0.31598 0.0
C2743 C 0.34803 0.56612 0.30642 0.0
C2744 C 0.28248 0.48796 0.29937 0.0
H2745 H 0.33263 0.40286 0.27225 0.0
H2746 H 0.34038 0.44842 0.28173 0.0
H2747 H 0.25391 0.44737 0.29035 0.0
H2748 H 0.29263 0.57416 0.32276 0.0
H2749 H 0.27894 0.52098 0.31614 0.0
H2750 H 0.35699 0.51221 0.30642 0.0
C2751 C 0.31785 0.42675 0.2815 0.0
C2752 C 0.27631 0.46091 0.29395 0.0
C2753 C 0.31332 0.40066 0.27596 0.0
C2754 C 0.30842 0.57212 0.3183 0.0
C2755 C 0.30051 0.54181 0.31446 0.0
C2756 C 0.33429 0.49809 0.303 0.0
C2757 C 0.29375 0.42492 0.28664 0.0
C2758 C 0.29929 0.45245 0.29287 0.0
C2759 C 0.32022 0.5386 0.30842 0.0
C2760 C 0.31181 0.50728 0.30379 0.0
H2761 H 0.23756 0.34867 0.28 0.0
H2762 H 0.24557 0.39401 0.28974 0.0
H2763 H 0.3461 0.46485 0.29722 0.0
H2764 H 0.37683 0.61693 0.30818 0.0
H2765 H 0.36358 0.56462 0.30174 0.0
C2766 C 0.61053 0.93919 0.28124 0.0
C2767 C 0.63597 0.93811 0.27781 0.0
C2768 C 0.59358 0.91925 0.28808 0.0
C2769 C 0.57067 0.8421 0.29759 0.0
H2770 H 0.54428 0.87553 0.31735 0.0
C2771 C 0.47756 0.75617 0.32131 0.0
C2772 C 0.45384 0.76327 0.32255 0.0
C2773 C 0.50592 0.77917 0.31791 0.0
C2774 C 0.55132 0.86568 0.31187 0.0
H2775 H 0.66359 0.91521 0.2789 0.0
H2776 H 0.6334 0.87964 0.29079 0.0
H2777 H 0.58143 0.91225 0.307 0.0
H2778 H 0.44155 0.8001 0.32172 0.0
H2779 H 0.49042 0.83995 0.31595 0.0
H2780 H 0.53927 0.79539 0.30212 0.0
C2781 C 0.62683 0.89622 0.2882 0.0
C2782 C 0.57269 0.8868 0.30594 0.0
C2783 C 0.64418 0.91666 0.28143 0.0
C2784 C 0.45971 0.79425 0.32098 0.0
C2785 C 0.48786 0.81714 0.31764 0.0
C2786 C 0.54894 0.82087 0.30346 0.0
C2787 C 0.60133 0.89735 0.29161 0.0
C2788 C 0.58199 0.87522 0.29859 0.0
C2789 C 0.51098 0.80962 0.31571 0.0
C2790 C 0.53824 0.8323 0.31053 0.0
H2791 H 0.6038 0.95567 0.27867 0.0
H2792 H 0.5739 0.92051 0.29049 0.0
H2793 H 0.57728 0.83241 0.29196 0.0
H2794 H 0.47334 0.73222 0.32232 0.0
H2795 H 0.52331 0.77262 0.31663 0.0
C2796 C 0.09602 0.69271 0.28361 0.0
C2797 C 0.10226 0.71911 0.2785 0.0
C2798 C 0.11756 0.69486 0.29025 0.0
C2799 C 0.19238 0.75296 0.30315 0.0
H2800 H 0.19749 0.67619 0.3058 0.0
C2801 C 0.30046 0.74778 0.31641 0.0
C2802 C 0.29554 0.72248 0.32185 0.0
C2803 C 0.27541 0.75065 0.31314 0.0
C2804 C 0.19605 0.69771 0.30527 0.0
H2805 H 0.13562 0.7687 0.27642 0.0
H2806 H 0.17416 0.77232 0.28771 0.0
H2807 H 0.15733 0.67444 0.29579 0.0
H2808 H 0.26094 0.68112 0.32847 0.0
H2809 H 0.21687 0.68577 0.32265 0.0
H2810 H 0.23276 0.77649 0.31226 0.0
C2811 C 0.15222 0.75007 0.28683 0.0
C2812 C 0.17286 0.69676 0.29952 0.0
C2813 C 0.13024 0.74806 0.28031 0.0
C2814 C 0.26537 0.70124 0.32445 0.0
C2815 C 0.24017 0.7037 0.32103 0.0
C2816 C 0.21602 0.75402 0.30879 0.0
C2817 C 0.14641 0.7233 0.29182 0.0
C2818 C 0.17064 0.72438 0.29832 0.0
C2819 C 0.24485 0.72774 0.31507 0.0
C2820 C 0.21816 0.7264 0.30988 0.0
H2821 H 0.07436 0.67027 0.28246 0.0
H2822 H 0.11152 0.67398 0.2941 0.0
H2823 H 0.1913 0.77464 0.30258 0.0
H2824 H 0.32347 0.76403 0.31416 0.0
H2825 H 0.27975 0.76927 0.30852 0.0
loop_
_geom_bond_atom_site_label_1
_geom_bond_atom_site_label_2
_geom_bond_distance
_geom_bond_site_symmetry_2
_ccdc_geom_bond_type
Cu0 N1 1.999 . S
Cu0 O6 1.974 . S
Cu0 N11 1.985 . S
Cu0 O20 1.959 1_545 S
N1 Cu0 1.999 . S
N1 C3 1.263 . S
N1 C5 1.389 . S
N2 C3 1.358 . S
N2 C4 1.400 . S
C3 N1 1.263 . S
C3 N2 1.358 . S
C3 H9 0.930 . S
C4 N2 1.400 . S
C4 C5 1.351 . S
C4 H21 0.930 . S
C5 N1 1.389 . S
C5 C4 1.351 . S
C5 H10 0.930 1_545 S
O6 Cu0 1.974 . S
O6 C16 1.282 . S
C7 O8 1.261 . S
C7 O20 1.251 1_545 S
O8 C7 1.261 . S
H9 C3 0.930 . S
H10 C5 0.930 1_565 S
N11 Cu0 1.985 . S
N11 C13 1.335 1_545 S
N11 C14 1.390 . S
N12 C13 1.345 . S
N12 C15 1.336 1_565 S
C13 N11 1.335 1_565 S
C13 N12 1.345 . S
C13 H18 0.930 . S
C14 N11 1.390 . S
C14 C15 1.346 . S
C14 H19 0.930 . S
C15 N12 1.336 1_545 S
C15 C14 1.346 . S
C15 H22 0.929 . S
C16 O6 1.282 . S
C16 O17 1.216 . S
O17 C16 1.216 . S
H18 C13 0.930 . S
H19 C14 0.930 . S
O20 Cu0 1.959 1_565 S
O20 C7 1.251 1_565 S
H21 C4 0.930 . S
H22 C15 0.929 . S
Cu23 N24 1.999 . S
Cu23 O29 1.974 . S
Cu23 N34 1.985 . S
Cu23 O43 1.959 . S
N24 Cu23 1.999 . S
N24 C26 1.263 1_455 S
N24 C28 1.389 . S
N25 C26 1.358 . S
N25 C27 1.400 1_655 S
C26 N24 1.263 1_655 S
C26 N25 1.358 . S
C26 H32 0.930 . S
C27 N25 1.400 1_455 S
C27 C28 1.351 . S
C27 H44 0.930 . S
C28 N24 1.389 . S
C28 C27 1.351 . S
C28 H33 0.930 . S
O29 Cu23 1.974 . S
O29 C39 1.282 1_455 S
C30 O31 1.261 1_455 S
C30 O43 1.251 . S
O31 C30 1.261 1_655 S
H32 C26 0.930 . S
H33 C28 0.930 . S
N34 Cu23 1.985 . S
N34 C36 1.335 . S
N34 C37 1.390 . S
N35 C36 1.345 . S
N35 C38 1.336 . S
C36 N34 1.335 . S
C36 N35 1.345 . S
C36 H41 0.930 . S
C37 N34 1.390 . S
C37 C38 1.346 . S
C37 H42 0.939 . S
C38 N35 1.336 . S
C38 C37 1.346 . S
C38 H45 0.929 . S
C39 O29 1.282 1_655 S
C39 O40 1.216 . S
O40 C39 1.216 . S
H41 C36 0.930 . S
H42 C37 0.939 . S
O43 Cu23 1.959 . S
O43 C30 1.251 . S
H44 C27 0.930 . S
H45 C38 0.929 . S
Cu46 N47 1.999 . S
Cu46 O52 1.974 . S
Cu46 N57 1.985 . S
Cu46 O66 1.959 . S
N47 Cu46 1.999 . S
N47 C49 1.263 . S
N47 C51 1.389 . S
N48 C49 1.358 . S
N48 C50 1.400 . S
C49 N47 1.263 . S
C49 N48 1.358 . S
C49 H55 0.930 . S
C50 N48 1.400 . S
C50 C51 1.351 . S
C50 H67 0.930 . S
C51 N47 1.389 . S
C51 C50 1.351 . S
C51 H56 0.930 . S
O52 Cu46 1.974 . S
O52 C62 1.282 . S
C53 O54 1.261 . S
C53 O66 1.251 . S
O54 C53 1.261 . S
H55 C49 0.930 . S
H56 C51 0.930 . S
N57 Cu46 1.985 . S
N57 C59 1.335 . S
N57 C60 1.390 . S
N58 C59 1.345 . S
N58 C61 1.336 . S
C59 N57 1.335 . S
C59 N58 1.345 . S
C59 H64 0.930 . S
C60 N57 1.390 . S
C60 C61 1.346 . S
C60 H65 0.930 . S
C61 N58 1.336 . S
C61 C60 1.346 . S
C61 H68 0.929 . S
C62 O52 1.282 . S
C62 O63 1.216 . S
O63 C62 1.216 . S
H64 C59 0.930 . S
H65 C60 0.930 . S
O66 Cu46 1.959 . S
O66 C53 1.251 . S
H67 C50 0.930 . S
H68 C61 0.929 . S
Cu69 N70 1.999 . S
Cu69 O75 1.974 . S
Cu69 N80 1.985 . S
Cu69 O89 1.959 . S
N70 Cu69 1.999 . S
N70 C72 1.263 1_545 S
N70 C74 1.389 . S
N71 C72 1.358 . S
N71 C73 1.400 1_565 S
C72 N70 1.263 1_565 S
C72 N71 1.358 . S
C72 H78 0.930 . S
C73 N71 1.400 1_545 S
C73 C74 1.351 . S
C73 H90 0.930 . S
C74 N70 1.389 . S
C74 C73 1.351 . S
C74 H79 0.930 . S
O75 Cu69 1.974 . S
O75 C85 1.282 1_545 S
C76 O77 1.261 1_545 S
C76 O89 1.251 . S
O77 C76 1.261 1_565 S
H78 C72 0.930 . S
H79 C74 0.930 . S
N80 Cu69 1.985 . S
N80 C82 1.335 . S
N80 C83 1.390 . S
N81 C82 1.345 . S
N81 C84 1.336 . S
C82 N80 1.335 . S
C82 N81 1.345 . S
C82 H87 0.930 . S
C83 N80 1.390 . S
C83 C84 1.346 . S
C83 H88 0.930 . S
C84 N81 1.336 . S
C84 C83 1.346 . S
C84 H91 0.929 . S
C85 O75 1.282 1_565 S
C85 O86 1.216 . S
O86 C85 1.216 . S
H87 C82 0.930 . S
H88 C83 0.930 . S
O89 Cu69 1.959 . S
O89 C76 1.251 . S
H90 C73 0.930 . S
H91 C84 0.929 . S
Cu92 N93 1.999 . S
Cu92 O98 1.974 . S
Cu92 N103 1.985 . S
Cu92 O112 1.959 1_455 S
N93 Cu92 1.999 . S
N93 C95 1.263 . S
N93 C97 1.389 . S
N94 C95 1.358 . S
N94 C96 1.400 . S
C95 N93 1.263 . S
C95 N94 1.358 . S
C95 H101 0.930 . S
C96 N94 1.400 . S
C96 C97 1.351 . S
C96 H113 0.930 . S
C97 N93 1.389 . S
C97 C96 1.351 . S
C97 H102 0.930 1_455 S
O98 Cu92 1.974 . S
O98 C108 1.282 . S
C99 O100 1.261 . S
C99 O112 1.251 1_455 S
O100 C99 1.261 . S
H101 C95 0.930 . S
H102 C97 0.930 1_655 S
N103 Cu92 1.985 . S
N103 C105 1.335 1_455 S
N103 C106 1.390 . S
N104 C105 1.345 . S
N104 C107 1.336 1_655 S
C105 N103 1.335 1_655 S
C105 N104 1.345 . S
C105 H110 0.930 . S
C106 N103 1.390 . S
C106 C107 1.346 . S
C106 H111 0.930 . S
C107 N104 1.336 1_455 S
C107 C106 1.346 . S
C107 H114 0.929 . S
C108 O98 1.282 . S
C108 O109 1.216 . S
O109 C108 1.216 . S
H110 C105 0.930 . S
H111 C106 0.930 . S
O112 Cu92 1.959 1_655 S
O112 C99 1.251 1_655 S
H113 C96 0.930 . S
H114 C107 0.929 . S
Cu115 N116 1.999 . S
Cu115 O121 1.974 . S
Cu115 N126 1.985 . S
Cu115 O135 1.959 . S
N116 Cu115 1.999 . S
N116 C118 1.263 . S
N116 C120 1.389 . S
N117 C118 1.358 . S
N117 C119 1.400 . S
C118 N116 1.263 . S
C118 N117 1.358 . S
C118 H124 0.930 . S
C119 N117 1.400 . S
C119 C120 1.351 . S
C119 H136 0.930 . S
C120 N116 1.389 . S
C120 C119 1.351 . S
C120 H125 0.930 . S
O121 Cu115 1.974 . S
O121 C131 1.282 . S
C122 O123 1.261 . S
C122 O135 1.251 . S
O123 C122 1.261 . S
H124 C118 0.930 . S
H125 C120 0.930 . S
N126 Cu115 1.985 . S
N126 C128 1.335 . S
N126 C129 1.390 . S
N127 C128 1.345 . S
N127 C130 1.336 . S
C128 N126 1.335 . S
C128 N127 1.345 . S
C128 H133 0.930 . S
C129 N126 1.390 . S
C129 C130 1.346 . S
C129 H134 0.930 . S
C130 N127 1.336 . S
C130 C129 1.346 . S
C130 H137 0.929 . S
C131 O121 1.282 . S
C131 O132 1.216 . S
O132 C131 1.216 . S
H133 C128 0.930 . S
H134 C129 0.930 . S
O135 Cu115 1.959 . S
O135 C122 1.251 . S
H136 C119 0.930 . S
H137 C130 0.929 . S
Cu138 N139 1.999 . S
Cu138 O144 1.974 . S
Cu138 N149 1.985 . S
Cu138 O158 1.959 . S
N139 Cu138 1.999 . S
N139 C141 1.263 . S
N139 C143 1.389 . S
N140 C141 1.358 . S
N140 C142 1.400 . S
C141 N139 1.263 . S
C141 N140 1.358 . S
C141 H147 0.930 . S
C142 N140 1.400 . S
C142 C143 1.351 . S
C142 H159 0.930 . S
C143 N139 1.389 . S
C143 C142 1.351 . S
C143 H148 0.930 . S
O144 Cu138 1.974 . S
O144 C154 1.282 . S
C145 O146 1.261 . S
C145 O158 1.251 . S
O146 C145 1.261 . S
H147 C141 0.930 . S
H148 C143 0.930 . S
N149 Cu138 1.985 . S
N149 C151 1.335 . S
N149 C152 1.390 . S
N150 C151 1.345 . S
N150 C153 1.336 . S
C151 N149 1.335 . S
C151 N150 1.345 . S
C151 H156 0.930 . S
C152 N149 1.390 . S
C152 C153 1.346 . S
C152 H157 0.930 . S
C153 N150 1.336 . S
C153 C152 1.346 . S
C153 H160 0.929 . S
C154 O144 1.282 . S
C154 O155 1.216 . S
O155 C154 1.216 . S
H156 C151 0.930 . S
H157 C152 0.930 . S
O158 Cu138 1.959 . S
O158 C145 1.251 . S
H159 C142 0.930 . S
H160 C153 0.929 . S
Cu161 N162 1.999 . S
Cu161 O167 1.974 . S
Cu161 N172 1.985 . S
Cu161 O181 1.959 . S
N162 Cu161 1.999 . S
N162 C164 1.263 . S
N162 C166 1.389 . S
N163 C164 1.358 . S
N163 C165 1.400 . S
C164 N162 1.263 . S
C164 N163 1.358 . S
C164 H170 0.930 . S
C165 N163 1.400 . S
C165 C166 1.351 . S
C165 H182 0.930 . S
C166 N162 1.389 . S
C166 C165 1.351 . S
C166 H171 0.930 . S
O167 Cu161 1.974 . S
O167 C177 1.282 . S
C168 O169 1.261 . S
C168 O181 1.251 . S
O169 C168 1.261 . S
H170 C164 0.930 . S
H171 C166 0.930 . S
N172 Cu161 1.985 . S
N172 C174 1.335 . S
N172 C175 1.390 . S
N173 C174 1.345 . S
N173 C176 1.336 . S
C174 N172 1.335 . S
C174 N173 1.345 . S
C174 H179 0.930 . S
C175 N172 1.390 . S
C175 C176 1.346 . S
C175 H180 0.930 . S
C176 N173 1.336 . S
C176 C175 1.346 . S
C176 H183 0.929 1_545 S
C177 O167 1.282 . S
C177 O178 1.216 . S
O178 C177 1.216 . S
H179 C174 0.930 . S
H180 C175 0.930 . S
O181 Cu161 1.959 . S
O181 C168 1.251 . S
H182 C165 0.930 . S
H183 C176 0.929 1_565 S
Cu184 N185 1.999 . S
Cu184 O190 1.974 . S
Cu184 N195 1.985 1_655 S
Cu184 O204 1.959 . S
N185 Cu184 1.999 . S
N185 C187 1.263 . S
N185 C189 1.389 . S
N186 C187 1.358 . S
N186 C188 1.400 . S
C187 N185 1.263 . S
C187 N186 1.358 . S
C187 H193 0.930 . S
C188 N186 1.400 . S
C188 C189 1.351 . S
C188 H205 0.930 . S
C189 N185 1.389 . S
C189 C188 1.351 . S
C189 H194 0.930 . S
O190 Cu184 1.974 . S
O190 C200 1.282 . S
C191 O192 1.261 . S
C191 O204 1.251 . S
O192 C191 1.261 . S
H193 C187 0.930 . S
H194 C189 0.930 . S
N195 Cu184 1.985 1_455 S
N195 C197 1.335 . S
N195 C198 1.390 . S
N196 C197 1.345 . S
N196 C199 1.336 . S
C197 N195 1.335 . S
C197 N196 1.345 . S
C197 H202 0.930 . S
C198 N195 1.390 . S
C198 C199 1.346 . S
C198 H203 0.930 . S
C199 N196 1.336 . S
C199 C198 1.346 . S
C199 H206 0.929 . S
C200 O190 1.282 . S
C200 O201 1.216 . S
O201 C200 1.216 . S
H202 C197 0.930 . S
H203 C198 0.930 . S
O204 Cu184 1.959 . S
O204 C191 1.251 . S
H205 C188 0.930 . S
H206 C199 0.929 . S
Cu207 N208 1.999 . S
Cu207 O213 1.974 . S
Cu207 N218 1.985 1_655 S
Cu207 O227 1.959 . S
N208 Cu207 1.999 . S
N208 C210 1.263 . S
N208 C212 1.389 . S
N209 C210 1.358 . S
N209 C211 1.400 . S
C210 N208 1.263 . S
C210 N209 1.358 . S
C210 H216 0.930 . S
C211 N209 1.400 . S
C211 C212 1.351 . S
C211 H228 0.930 . S
C212 N208 1.389 . S
C212 C211 1.351 . S
C212 H217 0.930 . S
O213 Cu207 1.974 . S
O213 C223 1.282 . S
C214 O215 1.261 . S
C214 O227 1.251 . S
O215 C214 1.261 . S
H216 C210 0.930 . S
H217 C212 0.930 . S
N218 Cu207 1.985 1_455 S
N218 C220 1.335 . S
N218 C221 1.390 . S
N219 C220 1.345 . S
N219 C222 1.336 . S
C220 N218 1.335 . S
C220 N219 1.345 . S
C220 H225 0.930 . S
C221 N218 1.390 . S
C221 C222 1.346 . S
C221 H226 0.930 . S
C222 N219 1.336 . S
C222 C221 1.346 . S
C222 H229 0.929 . S
C223 O213 1.282 . S
C223 O224 1.216 . S
O224 C223 1.216 . S
H225 C220 0.930 . S
H226 C221 0.930 . S
O227 Cu207 1.959 . S
O227 C214 1.251 . S
H228 C211 0.930 . S
H229 C222 0.929 . S
Cu230 N231 1.999 . S
Cu230 O236 1.974 . S
Cu230 N241 1.985 . S
Cu230 O250 1.959 . S
N231 Cu230 1.999 . S
N231 C233 1.263 . S
N231 C235 1.389 . S
N232 C233 1.358 . S
N232 C234 1.400 . S
C233 N231 1.263 . S
C233 N232 1.358 . S
C233 H239 0.930 . S
C234 N232 1.400 . S
C234 C235 1.351 . S
C234 H251 0.930 . S
C235 N231 1.389 . S
C235 C234 1.351 . S
C235 H240 0.930 . S
O236 Cu230 1.974 . S
O236 C246 1.282 . S
C237 O238 1.261 . S
C237 O250 1.251 . S
O238 C237 1.261 . S
H239 C233 0.930 . S
H240 C235 0.930 . S
N241 Cu230 1.985 . S
N241 C243 1.335 . S
N241 C244 1.390 . S
N242 C243 1.345 . S
N242 C245 1.336 . S
C243 N241 1.335 . S
C243 N242 1.345 . S
C243 H248 0.930 . S
C244 N241 1.390 . S
C244 C245 1.346 . S
C244 H249 0.930 . S
C245 N242 1.336 . S
C245 C244 1.346 . S
C245 H252 0.929 . S
C246 O236 1.282 . S
C246 O247 1.216 . S
O247 C246 1.216 . S
H248 C243 0.930 . S
H249 C244 0.930 . S
O250 Cu230 1.959 . S
O250 C237 1.251 . S
H251 C234 0.930 . S
H252 C245 0.929 . S
Cu253 N254 1.999 . S
Cu253 O259 1.974 . S
Cu253 N264 1.985 . S
Cu253 O273 1.959 . S
N254 Cu253 1.999 . S
N254 C256 1.263 . S
N254 C258 1.389 . S
N255 C256 1.358 . S
N255 C257 1.400 . S
C256 N254 1.263 . S
C256 N255 1.358 . S
C256 H262 0.930 . S
C257 N255 1.400 . S
C257 C258 1.351 . S
C257 H274 0.930 . S
C258 N254 1.389 . S
C258 C257 1.351 . S
C258 H263 0.930 . S
O259 Cu253 1.974 . S
O259 C269 1.282 . S
C260 O261 1.261 . S
C260 O273 1.251 . S
O261 C260 1.261 . S
H262 C256 0.930 . S
H263 C258 0.930 . S
N264 Cu253 1.985 . S
N264 C266 1.335 . S
N264 C267 1.390 . S
N265 C266 1.345 . S
N265 C268 1.336 . S
C266 N264 1.335 . S
C266 N265 1.345 . S
C266 H271 0.930 . S
C267 N264 1.390 . S
C267 C268 1.346 . S
C267 H272 0.930 1_545 S
C268 N265 1.336 . S
C268 C267 1.346 . S
C268 H275 0.929 1_545 S
C269 O259 1.282 . S
C269 O270 1.216 . S
O270 C269 1.216 . S
H271 C266 0.930 . S
H272 C267 0.930 1_565 S
O273 Cu253 1.959 . S
O273 C260 1.251 . S
H274 C257 0.930 . S
H275 C268 0.929 1_565 S
Cu276 N277 1.999 . S
Cu276 O282 1.974 . S
Cu276 N287 1.985 . S
Cu276 O296 1.959 . S
N277 Cu276 1.999 . S
N277 C279 1.263 . S
N277 C281 1.389 . S
N278 C279 1.358 . S
N278 C280 1.400 . S
C279 N277 1.263 . S
C279 N278 1.358 . S
C279 H285 0.930 . S
C280 N278 1.400 . S
C280 C281 1.351 . S
C280 H297 0.930 . S
C281 N277 1.389 . S
C281 C280 1.351 . S
C281 H286 0.930 . S
O282 Cu276 1.974 . S
O282 C292 1.282 . S
C283 O284 1.261 . S
C283 O296 1.251 . S
O284 C283 1.261 . S
H285 C279 0.930 . S
H286 C281 0.930 . S
N287 Cu276 1.985 . S
N287 C289 1.335 . S
N287 C290 1.390 . S
N288 C289 1.345 1_655 S
N288 C291 1.336 . S
C289 N287 1.335 . S
C289 N288 1.345 1_455 S
C289 H294 0.930 . S
C290 N287 1.390 . S
C290 C291 1.346 1_455 S
C290 H295 0.930 . S
C291 N288 1.336 . S
C291 C290 1.346 1_655 S
C291 H298 0.929 . S
C292 O282 1.282 . S
C292 O293 1.216 . S
O293 C292 1.216 . S
H294 C289 0.930 . S
H295 C290 0.930 . S
O296 Cu276 1.959 . S
O296 C283 1.251 . S
H297 C280 0.930 . S
H298 C291 0.929 . S
Cu299 N300 1.999 . S
Cu299 O305 1.974 . S
Cu299 N310 1.985 . S
Cu299 O319 1.959 . S
N300 Cu299 1.999 . S
N300 C302 1.263 . S
N300 C304 1.389 . S
N301 C302 1.358 . S
N301 C303 1.400 . S
C302 N300 1.263 . S
C302 N301 1.358 . S
C302 H308 0.930 . S
C303 N301 1.400 . S
C303 C304 1.351 . S
C303 H320 0.930 . S
C304 N300 1.389 . S
C304 C303 1.351 . S
C304 H309 0.930 . S
O305 Cu299 1.974 . S
O305 C315 1.282 . S
C306 O307 1.261 . S
C306 O319 1.251 . S
O307 C306 1.261 . S
H308 C302 0.930 . S
H309 C304 0.930 . S
N310 Cu299 1.985 . S
N310 C312 1.335 . S
N310 C313 1.390 . S
N311 C312 1.345 . S
N311 C314 1.336 . S
C312 N310 1.335 . S
C312 N311 1.345 . S
C312 H317 0.930 . S
C313 N310 1.390 . S
C313 C314 1.346 . S
C313 H318 0.930 . S
C314 N311 1.336 . S
C314 C313 1.346 . S
C314 H321 0.929 . S
C315 O305 1.282 . S
C315 O316 1.216 . S
O316 C315 1.216 . S
H317 C312 0.930 . S
H318 C313 0.930 . S
O319 Cu299 1.959 . S
O319 C306 1.251 . S
H320 C303 0.930 . S
H321 C314 0.929 . S
Cu322 N323 1.999 . S
Cu322 O328 1.974 1_565 S
Cu322 N333 1.985 . S
Cu322 O342 1.959 . S
N323 Cu322 1.999 . S
N323 C325 1.263 . S
N323 C327 1.389 . S
N324 C325 1.358 . S
N324 C326 1.400 . S
C325 N323 1.263 . S
C325 N324 1.358 . S
C325 H331 0.930 . S
C326 N324 1.400 . S
C326 C327 1.351 . S
C326 H343 0.930 . S
C327 N323 1.389 . S
C327 C326 1.351 . S
C327 H332 0.930 . S
O328 Cu322 1.974 1_545 S
O328 C338 1.282 . S
C329 O330 1.261 . S
C329 O342 1.251 . S
O330 C329 1.261 . S
H331 C325 0.930 . S
H332 C327 0.930 . S
N333 Cu322 1.985 . S
N333 C335 1.335 . S
N333 C336 1.390 1_565 S
N334 C335 1.345 1_545 S
N334 C337 1.336 . S
C335 N333 1.335 . S
C335 N334 1.345 1_565 S
C335 H340 0.930 . S
C336 N333 1.390 1_545 S
C336 C337 1.346 . S
C336 H341 0.930 . S
C337 N334 1.336 . S
C337 C336 1.346 . S
C337 H344 0.929 . S
C338 O328 1.282 . S
C338 O339 1.216 . S
O339 C338 1.216 . S
H340 C335 0.930 . S
H341 C336 0.930 . S
O342 Cu322 1.959 . S
O342 C329 1.251 . S
H343 C326 0.930 . S
H344 C337 0.929 . S
Cu345 N346 1.999 . S
Cu345 O351 1.974 . S
Cu345 N356 1.985 . S
Cu345 O365 1.959 . S
N346 Cu345 1.999 . S
N346 C348 1.263 . S
N346 C350 1.389 . S
N347 C348 1.358 . S
N347 C349 1.400 . S
C348 N346 1.263 . S
C348 N347 1.358 . S
C348 H354 0.930 . S
C349 N347 1.400 . S
C349 C350 1.351 . S
C349 H366 0.930 . S
C350 N346 1.389 . S
C350 C349 1.351 . S
C350 H355 0.930 . S
O351 Cu345 1.974 . S
O351 C361 1.282 . S
C352 O353 1.261 . S
C352 O365 1.251 . S
O353 C352 1.261 . S
H354 C348 0.930 . S
H355 C350 0.930 . S
N356 Cu345 1.985 . S
N356 C358 1.335 . S
N356 C359 1.390 . S
N357 C358 1.345 . S
N357 C360 1.336 . S
C358 N356 1.335 . S
C358 N357 1.345 . S
C358 H363 0.930 . S
C359 N356 1.390 . S
C359 C360 1.346 . S
C359 H364 0.930 . S
C360 N357 1.336 . S
C360 C359 1.346 . S
C360 H367 0.929 . S
C361 O351 1.282 . S
C361 O362 1.216 . S
O362 C361 1.216 . S
H363 C358 0.930 . S
H364 C359 0.930 . S
O365 Cu345 1.959 . S
O365 C352 1.251 . S
H366 C349 0.930 . S
H367 C360 0.929 . S
Cu368 N369 1.999 . S
Cu368 O374 1.974 1_565 S
Cu368 N379 1.985 . S
Cu368 O388 1.959 . S
N369 Cu368 1.999 . S
N369 C371 1.263 . S
N369 C373 1.389 . S
N370 C371 1.358 . S
N370 C372 1.400 . S
C371 N369 1.263 . S
C371 N370 1.358 . S
C371 H377 0.930 . S
C372 N370 1.400 . S
C372 C373 1.351 . S
C372 H389 0.930 . S
C373 N369 1.389 . S
C373 C372 1.351 . S
C373 H378 0.930 . S
O374 Cu368 1.974 1_545 S
O374 C384 1.282 . S
C375 O376 1.261 . S
C375 O388 1.251 . S
O376 C375 1.261 . S
H377 C371 0.930 . S
H378 C373 0.930 . S
N379 Cu368 1.985 . S
N379 C381 1.335 . S
N379 C382 1.390 1_565 S
N380 C381 1.345 1_545 S
N380 C383 1.336 . S
C381 N379 1.335 . S
C381 N380 1.345 1_565 S
C381 H386 0.930 . S
C382 N379 1.390 1_545 S
C382 C383 1.346 . S
C382 H387 0.930 . S
C383 N380 1.336 . S
C383 C382 1.346 . S
C383 H390 0.929 . S
C384 O374 1.282 . S
C384 O385 1.216 . S
O385 C384 1.216 . S
H386 C381 0.930 . S
H387 C382 0.930 . S
O388 Cu368 1.959 . S
O388 C375 1.251 . S
H389 C372 0.930 . S
H390 C383 0.929 . S
Cu391 N392 1.999 . S
Cu391 O397 1.974 . S
Cu391 N402 1.985 . S
Cu391 O411 1.959 . S
N392 Cu391 1.999 . S
N392 C394 1.263 . S
N392 C396 1.389 . S
N393 C394 1.358 . S
N393 C395 1.400 . S
C394 N392 1.263 . S
C394 N393 1.358 . S
C394 H400 0.930 . S
C395 N393 1.400 . S
C395 C396 1.351 . S
C395 H412 0.930 . S
C396 N392 1.389 . S
C396 C395 1.351 . S
C396 H401 0.930 . S
O397 Cu391 1.974 . S
O397 C407 1.282 . S
C398 O399 1.261 . S
C398 O411 1.251 . S
O399 C398 1.261 . S
H400 C394 0.930 . S
H401 C396 0.930 . S
N402 Cu391 1.985 . S
N402 C404 1.335 . S
N402 C405 1.390 . S
N403 C404 1.345 1_655 S
N403 C406 1.336 . S
C404 N402 1.335 . S
C404 N403 1.345 1_455 S
C404 H409 0.930 . S
C405 N402 1.390 . S
C405 C406 1.346 1_455 S
C405 H410 0.930 . S
C406 N403 1.336 . S
C406 C405 1.346 1_655 S
C406 H413 0.929 . S
C407 O397 1.282 . S
C407 O408 1.216 . S
O408 C407 1.216 . S
H409 C404 0.930 . S
H410 C405 0.930 . S
O411 Cu391 1.959 . S
O411 C398 1.251 . S
H412 C395 0.930 . S
H413 C406 0.929 . S
Zn414 O420 1.920 1_455 S
Zn414 O426 1.898 1_445 S
Zn414 O429 1.905 . S
Zn415 O423 1.905 1_545 S
Zn415 O424 1.898 . S
Zn415 O432 1.920 1_455 S
Zn416 O419 2.080 . S
Zn416 O422 2.114 1_545 S
Zn416 O425 2.120 . S
Zn416 O427 2.120 1_445 S
Zn416 O428 2.114 . S
Zn416 O431 2.080 1_455 S
C417 O422 1.166 . S
C417 O423 1.182 . S
C418 O424 1.167 . S
C418 O425 1.299 . S
O419 Zn416 2.080 . S
O419 C433 1.297 1_455 S
O420 Zn414 1.920 1_655 S
O420 C433 1.233 . S
C421 O426 1.167 . S
C421 O427 1.299 . S
O422 Zn416 2.114 1_565 S
O422 C417 1.166 . S
O423 Zn415 1.905 1_565 S
O423 C417 1.182 . S
O424 Zn415 1.898 . S
O424 C418 1.167 . S
O425 Zn416 2.120 . S
O425 C418 1.299 . S
O426 Zn414 1.898 1_665 S
O426 C421 1.167 . S
O427 Zn416 2.120 1_665 S
O427 C421 1.299 . S
O428 Zn416 2.114 . S
O428 C430 1.166 . S
O429 Zn414 1.905 . S
O429 C430 1.182 . S
C430 O428 1.166 . S
C430 O429 1.182 . S
O431 Zn416 2.080 1_655 S
O431 C434 1.305 . S
O432 Zn415 1.920 1_655 S
O432 C434 1.234 . S
C433 O419 1.297 1_655 S
C433 O420 1.233 . S
C434 O431 1.305 . S
C434 O432 1.234 . S
Zn435 O441 1.920 1_545 S
Zn435 O447 1.898 . S
Zn435 O450 1.905 1_455 S
Zn436 O444 1.905 . S
Zn436 O445 1.898 1_445 S
Zn436 O453 1.920 . S
Zn437 O440 2.080 1_545 S
Zn437 O443 2.114 . S
Zn437 O446 2.120 1_445 S
Zn437 O448 2.120 . S
Zn437 O449 2.114 1_455 S
Zn437 O452 2.080 . S
C438 O443 1.166 . S
C438 O444 1.182 . S
C439 O445 1.167 . S
C439 O446 1.299 . S
O440 Zn437 2.080 1_565 S
O440 C454 1.305 . S
O441 Zn435 1.920 1_565 S
O441 C454 1.234 . S
C442 O447 1.167 . S
C442 O448 1.299 . S
O443 Zn437 2.114 . S
O443 C438 1.166 . S
O444 Zn436 1.905 . S
O444 C438 1.182 . S
O445 Zn436 1.898 1_665 S
O445 C439 1.167 . S
O446 Zn437 2.120 1_665 S
O446 C439 1.299 . S
O447 Zn435 1.898 . S
O447 C442 1.167 . S
O448 Zn437 2.120 . S
O448 C442 1.299 . S
O449 Zn437 2.114 1_655 S
O449 C451 1.166 . S
O450 Zn435 1.905 1_655 S
O450 C451 1.182 . S
C451 O449 1.166 . S
C451 O450 1.182 . S
O452 Zn437 2.080 . S
O452 C455 1.305 . S
O453 Zn436 1.920 . S
O453 C455 1.234 . S
C454 O440 1.305 . S
C454 O441 1.234 . S
C455 O452 1.305 . S
C455 O453 1.234 . S
Zn456 O462 1.920 1_545 S
Zn456 O468 1.898 . S
Zn456 O471 1.905 1_455 S
Zn457 O465 1.905 . S
Zn457 O466 1.898 1_445 S
Zn457 O474 1.917 1_545 S
Zn458 O461 2.080 1_545 S
Zn458 O464 2.114 . S
Zn458 O467 2.120 1_445 S
Zn458 O469 2.120 . S
Zn458 O470 2.114 1_455 S
Zn458 O473 2.080 . S
C459 O464 1.166 . S
C459 O465 1.182 . S
C460 O466 1.167 . S
C460 O467 1.299 . S
O461 Zn458 2.080 1_565 S
O461 C475 1.305 . S
O462 Zn456 1.920 1_565 S
O462 C475 1.234 . S
C463 O468 1.167 . S
C463 O469 1.299 . S
O464 Zn458 2.114 . S
O464 C459 1.166 . S
O465 Zn457 1.905 . S
O465 C459 1.182 . S
O466 Zn457 1.898 1_665 S
O466 C460 1.167 . S
O467 Zn458 2.120 1_665 S
O467 C460 1.299 . S
O468 Zn456 1.898 . S
O468 C463 1.167 . S
O469 Zn458 2.120 . S
O469 C463 1.299 . S
O470 Zn458 2.114 1_655 S
O470 C472 1.166 . S
O471 Zn456 1.905 1_655 S
O471 C472 1.182 . S
C472 O470 1.166 . S
C472 O471 1.182 . S
O473 Zn458 2.080 . S
O473 C476 1.305 . S
O474 Zn457 1.917 1_565 S
O474 C476 1.235 1_565 S
C475 O461 1.305 . S
C475 O462 1.234 . S
C476 O473 1.305 . S
C476 O474 1.235 1_545 S
Zn477 O483 1.920 . S
Zn477 O489 1.898 1_445 S
Zn477 O492 1.905 . S
Zn478 O486 1.903 1_545 S
Zn478 O487 1.898 . S
Zn478 O495 1.920 1_455 S
Zn479 O482 2.080 . S
Zn479 O485 2.114 1_545 S
Zn479 O488 2.120 . S
Zn479 O490 2.120 1_445 S
Zn479 O491 2.114 . S
Zn479 O494 2.080 1_455 S
C480 O485 1.166 . S
C480 O486 1.188 . S
C481 O487 1.167 . S
C481 O488 1.299 . S
O482 Zn479 2.080 . S
O482 C496 1.305 . S
O483 Zn477 1.920 . S
O483 C496 1.234 . S
C484 O489 1.167 . S
C484 O490 1.299 . S
O485 Zn479 2.114 1_565 S
O485 C480 1.166 . S
O486 Zn478 1.903 1_565 S
O486 C480 1.188 . S
O487 Zn478 1.898 . S
O487 C481 1.167 . S
O488 Zn479 2.120 . S
O488 C481 1.299 . S
O489 Zn477 1.898 1_665 S
O489 C484 1.167 . S
O490 Zn479 2.120 1_665 S
O490 C484 1.299 . S
O491 Zn479 2.114 . S
O491 C493 1.166 . S
O492 Zn477 1.905 . S
O492 C493 1.182 . S
C493 O491 1.166 . S
C493 O492 1.182 . S
O494 Zn479 2.080 1_655 S
O494 C497 1.305 . S
O495 Zn478 1.920 1_655 S
O495 C497 1.234 . S
C496 O482 1.305 . S
C496 O483 1.234 . S
C497 O494 1.305 . S
C497 O495 1.234 . S
Zn498 O504 1.920 . S
Zn498 O510 1.898 . S
Zn498 O513 1.905 . S
Zn499 O507 1.905 . S
Zn499 O508 1.898 . S
Zn499 O516 1.920 . S
Zn500 O503 2.080 . S
Zn500 O506 2.114 . S
Zn500 O509 2.120 . S
Zn500 O511 2.120 . S
Zn500 O512 2.114 . S
Zn500 O515 2.080 . S
C501 O506 1.166 . S
C501 O507 1.182 . S
C502 O508 1.167 . S
C502 O509 1.299 . S
O503 Zn500 2.080 . S
O503 C517 1.305 . S
O504 Zn498 1.920 . S
O504 C517 1.234 . S
C505 O510 1.167 . S
C505 O511 1.299 . S
O506 Zn500 2.114 . S
O506 C501 1.166 . S
O507 Zn499 1.905 . S
O507 C501 1.182 . S
O508 Zn499 1.898 . S
O508 C502 1.167 . S
O509 Zn500 2.120 . S
O509 C502 1.299 . S
O510 Zn498 1.898 . S
O510 C505 1.167 . S
O511 Zn500 2.120 . S
O511 C505 1.299 . S
O512 Zn500 2.114 . S
O512 C514 1.166 . S
O513 Zn498 1.905 . S
O513 C514 1.182 . S
C514 O512 1.166 . S
C514 O513 1.182 . S
O515 Zn500 2.080 . S
O515 C518 1.305 . S
O516 Zn499 1.920 . S
O516 C518 1.234 . S
C517 O503 1.305 . S
C517 O504 1.234 . S
C518 O515 1.305 . S
C518 O516 1.234 . S
Zn519 O525 1.920 . S
Zn519 O531 1.898 . S
Zn519 O534 1.905 . S
Zn520 O528 1.905 . S
Zn520 O529 1.898 . S
Zn520 O537 1.920 . S
Zn521 O524 2.080 . S
Zn521 O527 2.114 . S
Zn521 O530 2.120 . S
Zn521 O532 2.120 . S
Zn521 O533 2.114 . S
Zn521 O536 2.080 . S
C522 O527 1.166 . S
C522 O528 1.182 . S
C523 O529 1.167 . S
C523 O530 1.299 . S
O524 Zn521 2.080 . S
O524 C538 1.305 . S
O525 Zn519 1.920 . S
O525 C538 1.234 . S
C526 O531 1.167 . S
C526 O532 1.299 . S
O527 Zn521 2.114 . S
O527 C522 1.166 . S
O528 Zn520 1.905 . S
O528 C522 1.182 . S
O529 Zn520 1.898 . S
O529 C523 1.167 . S
O530 Zn521 2.120 . S
O530 C523 1.299 . S
O531 Zn519 1.898 . S
O531 C526 1.167 . S
O532 Zn521 2.120 . S
O532 C526 1.299 . S
O533 Zn521 2.114 . S
O533 C535 1.166 . S
O534 Zn519 1.905 . S
O534 C535 1.182 . S
C535 O533 1.166 . S
C535 O534 1.182 . S
O536 Zn521 2.080 . S
O536 C539 1.305 . S
O537 Zn520 1.920 . S
O537 C539 1.234 . S
C538 O524 1.305 . S
C538 O525 1.234 . S
C539 O536 1.305 . S
C539 O537 1.234 . S
Zn540 O546 1.920 . S
Zn540 O552 1.898 . S
Zn540 O555 1.905 . S
Zn541 O549 1.905 . S
Zn541 O550 1.898 . S
Zn541 O558 1.920 . S
Zn542 O545 2.080 . S
Zn542 O548 2.114 . S
Zn542 O551 2.120 . S
Zn542 O553 2.120 . S
Zn542 O554 2.114 . S
Zn542 O557 2.080 . S
C543 O548 1.166 . S
C543 O549 1.182 . S
C544 O550 1.167 . S
C544 O551 1.299 . S
O545 Zn542 2.080 . S
O545 C559 1.305 . S
O546 Zn540 1.920 . S
O546 C559 1.234 . S
C547 O552 1.167 . S
C547 O553 1.299 . S
O548 Zn542 2.114 . S
O548 C543 1.166 . S
O549 Zn541 1.905 . S
O549 C543 1.182 . S
O550 Zn541 1.898 . S
O550 C544 1.167 . S
O551 Zn542 2.120 . S
O551 C544 1.299 . S
O552 Zn540 1.898 . S
O552 C547 1.167 . S
O553 Zn542 2.120 . S
O553 C547 1.299 . S
O554 Zn542 2.114 . S
O554 C556 1.166 . S
O555 Zn540 1.905 . S
O555 C556 1.182 . S
C556 O554 1.166 . S
C556 O555 1.182 . S
O557 Zn542 2.080 . S
O557 C560 1.305 . S
O558 Zn541 1.920 . S
O558 C560 1.234 . S
C559 O545 1.305 . S
C559 O546 1.234 . S
C560 O557 1.305 . S
C560 O558 1.234 . S
Zn561 O567 1.920 . S
Zn561 O573 1.898 . S
Zn561 O576 1.905 . S
Zn562 O570 1.905 . S
Zn562 O571 1.898 . S
Zn562 O579 1.920 . S
Zn563 O566 2.133 . S
Zn563 O569 2.114 . S
Zn563 O572 2.120 . S
Zn563 O574 2.120 . S
Zn563 O575 2.186 . S
Zn563 O578 2.080 . S
C564 O569 1.166 . S
C564 O570 1.182 . S
C565 O571 1.167 . S
C565 O572 1.299 . S
O566 Zn563 2.133 . S
O566 C580 1.237 1_556 S
O567 Zn561 1.920 . S
O567 C580 1.234 . S
C568 O573 1.167 . S
C568 O574 1.299 1_554 S
O569 Zn563 2.114 . S
O569 C564 1.166 . S
O570 Zn562 1.905 . S
O570 C564 1.182 . S
O571 Zn562 1.898 . S
O571 C565 1.167 . S
O572 Zn563 2.120 . S
O572 C565 1.299 . S
O573 Zn561 1.898 . S
O573 C568 1.167 . S
O574 Zn563 2.120 . S
O574 C568 1.299 1_556 S
O575 Zn563 2.186 . S
O575 C577 1.069 1_556 S
O576 Zn561 1.905 . S
O576 C577 1.182 . S
C577 O575 1.069 1_554 S
C577 O576 1.182 . S
O578 Zn563 2.080 . S
O578 C581 1.305 . S
O579 Zn562 1.920 . S
O579 C581 1.234 . S
C580 O566 1.237 1_554 S
C580 O567 1.234 . S
C581 O578 1.305 . S
C581 O579 1.234 . S
Zn582 O588 1.920 . S
Zn582 O594 1.898 . S
Zn582 O597 1.905 . S
Zn583 O591 1.905 . S
Zn583 O592 1.898 . S
Zn583 O600 1.920 . S
Zn584 O587 2.080 . S
Zn584 O590 2.114 . S
Zn584 O593 2.120 . S
Zn584 O595 2.120 . S
Zn584 O596 2.114 . S
Zn584 O599 2.080 . S
C585 O590 1.166 . S
C585 O591 1.182 . S
C586 O592 1.167 . S
C586 O593 1.299 . S
O587 Zn584 2.080 . S
O587 C601 1.305 . S
O588 Zn582 1.920 . S
O588 C601 1.234 . S
C589 O594 1.167 . S
C589 O595 1.299 . S
O590 Zn584 2.114 . S
O590 C585 1.166 . S
O591 Zn583 1.905 . S
O591 C585 1.182 . S
O592 Zn583 1.898 . S
O592 C586 1.167 . S
O593 Zn584 2.120 . S
O593 C586 1.299 . S
O594 Zn582 1.898 . S
O594 C589 1.167 . S
O595 Zn584 2.120 . S
O595 C589 1.299 . S
O596 Zn584 2.114 . S
O596 C598 1.166 . S
O597 Zn582 1.905 . S
O597 C598 1.182 . S
C598 O596 1.166 . S
C598 O597 1.182 . S
O599 Zn584 2.080 . S
O599 C602 1.305 . S
O600 Zn583 1.920 . S
O600 C602 1.234 . S
C601 O587 1.305 . S
C601 O588 1.234 . S
C602 O599 1.305 . S
C602 O600 1.234 . S
Zn603 O609 1.920 . S
Zn603 O615 1.898 . S
Zn603 O618 1.905 . S
Zn604 O612 1.905 . S
Zn604 O613 1.898 . S
Zn604 O621 1.920 . S
Zn605 O608 2.080 . S
Zn605 O611 2.186 . S
Zn605 O614 2.120 . S
Zn605 O616 2.120 . S
Zn605 O617 2.114 . S
Zn605 O620 2.133 . S
C606 O611 1.069 1_556 S
C606 O612 1.182 . S
C607 O613 1.167 . S
C607 O614 1.299 1_556 S
O608 Zn605 2.080 . S
O608 C622 1.305 . S
O609 Zn603 1.920 . S
O609 C622 1.234 . S
C610 O615 1.167 . S
C610 O616 1.299 . S
O611 Zn605 2.186 . S
O611 C606 1.069 1_554 S
O612 Zn604 1.905 . S
O612 C606 1.182 . S
O613 Zn604 1.898 . S
O613 C607 1.167 . S
O614 Zn605 2.120 . S
O614 C607 1.299 1_554 S
O615 Zn603 1.898 . S
O615 C610 1.167 . S
O616 Zn605 2.120 . S
O616 C610 1.299 . S
O617 Zn605 2.114 . S
O617 C619 1.166 . S
O618 Zn603 1.905 . S
O618 C619 1.182 . S
C619 O617 1.166 . S
C619 O618 1.182 . S
O620 Zn605 2.133 . S
O620 C623 1.237 1_554 S
O621 Zn604 1.920 . S
O621 C623 1.234 . S
C622 O608 1.305 . S
C622 O609 1.234 . S
C623 O620 1.237 1_556 S
C623 O621 1.234 . S
Zn624 O630 1.920 . S
Zn624 O636 1.898 . S
Zn624 O639 1.905 . S
Zn625 O633 1.905 . S
Zn625 O634 1.898 . S
Zn625 O642 1.920 . S
Zn626 O629 2.080 . S
Zn626 O632 2.114 . S
Zn626 O635 2.120 . S
Zn626 O637 2.120 . S
Zn626 O638 2.114 . S
Zn626 O641 2.080 . S
C627 O632 1.166 . S
C627 O633 1.182 . S
C628 O634 1.167 . S
C628 O635 1.299 . S
O629 Zn626 2.080 . S
O629 C643 1.305 . S
O630 Zn624 1.920 . S
O630 C643 1.234 . S
C631 O636 1.167 . S
C631 O637 1.299 . S
O632 Zn626 2.114 . S
O632 C627 1.166 . S
O633 Zn625 1.905 . S
O633 C627 1.182 . S
O634 Zn625 1.898 . S
O634 C628 1.167 . S
O635 Zn626 2.120 . S
O635 C628 1.299 . S
O636 Zn624 1.898 . S
O636 C631 1.167 . S
O637 Zn626 2.120 . S
O637 C631 1.299 . S
O638 Zn626 2.114 . S
O638 C640 1.166 . S
O639 Zn624 1.905 . S
O639 C640 1.182 . S
C640 O638 1.166 . S
C640 O639 1.182 . S
O641 Zn626 2.080 . S
O641 C644 1.305 . S
O642 Zn625 1.920 . S
O642 C644 1.234 . S
C643 O629 1.305 . S
C643 O630 1.234 . S
C644 O641 1.305 . S
C644 O642 1.234 . S
Zn645 O651 1.920 . S
Zn645 O657 1.898 . S
Zn645 O660 1.905 . S
Zn646 O654 1.905 . S
Zn646 O655 1.898 . S
Zn646 O663 1.920 . S
Zn647 O650 2.080 . S
Zn647 O653 2.114 . S
Zn647 O656 2.120 . S
Zn647 O658 2.120 . S
Zn647 O659 2.114 . S
Zn647 O662 2.080 . S
C648 O653 1.166 . S
C648 O654 1.182 . S
C649 O655 1.167 . S
C649 O656 1.299 . S
O650 Zn647 2.080 . S
O650 C664 1.305 . S
O651 Zn645 1.920 . S
O651 C664 1.234 . S
C652 O657 1.167 . S
C652 O658 1.299 . S
O653 Zn647 2.114 . S
O653 C648 1.166 . S
O654 Zn646 1.905 . S
O654 C648 1.182 . S
O655 Zn646 1.898 . S
O655 C649 1.167 . S
O656 Zn647 2.120 . S
O656 C649 1.299 . S
O657 Zn645 1.898 . S
O657 C652 1.167 . S
O658 Zn647 2.120 . S
O658 C652 1.299 . S
O659 Zn647 2.114 . S
O659 C661 1.166 . S
O660 Zn645 1.905 . S
O660 C661 1.182 . S
C661 O659 1.166 . S
C661 O660 1.182 . S
O662 Zn647 2.080 . S
O662 C665 1.305 . S
O663 Zn646 1.920 . S
O663 C665 1.234 . S
C664 O650 1.305 . S
C664 O651 1.234 . S
C665 O662 1.305 . S
C665 O663 1.234 . S
C666 C667 1.349 . S
C666 C668 1.327 . S
C666 H691 0.950 . S
C667 C666 1.349 . S
C667 C683 1.349 . S
C668 C666 1.327 . S
C668 C687 1.429 . S
C668 H692 0.950 . S
C669 C686 1.574 . S
C669 C688 1.368 . S
C669 H693 0.949 . S
H670 C674 0.949 . S
C671 C672 1.349 . S
C671 C673 1.327 . S
C671 H694 0.950 . S
C672 C671 1.349 . S
C672 C684 1.349 . S
C673 C671 1.327 . S
C673 C689 1.429 . S
C673 H695 0.950 . S
C674 H670 0.949 . S
C674 C682 1.574 . S
C674 C690 1.368 . S
H675 C683 0.950 . S
H676 C681 0.950 . S
H677 C682 0.949 . S
H678 C684 0.950 . S
H679 C685 0.950 . S
H680 C686 0.949 . S
C681 H676 0.950 . S
C681 C683 1.327 . S
C681 C687 1.429 . S
C682 C674 1.574 . S
C682 H677 0.949 . S
C682 C688 1.368 . S
C683 C667 1.349 . S
C683 H675 0.950 . S
C683 C681 1.327 . S
C684 C672 1.349 . S
C684 H678 0.950 . S
C684 C685 1.327 . S
C685 H679 0.950 . S
C685 C684 1.327 . S
C685 C689 1.429 . S
C686 C669 1.574 . S
C686 H680 0.949 . S
C686 C690 1.368 . S
C687 C668 1.429 . S
C687 C681 1.429 . S
C687 C688 1.523 . S
C688 C669 1.368 . S
C688 C682 1.368 . S
C688 C687 1.523 . S
C689 C673 1.429 . S
C689 C685 1.429 . S
C689 C690 1.523 . S
C690 C674 1.368 . S
C690 C686 1.368 . S
C690 C689 1.523 . S
H691 C666 0.950 . S
H692 C668 0.950 . S
H693 C669 0.949 . S
H694 C671 0.950 . S
H695 C673 0.950 . S
C696 C697 1.349 . S
C696 C698 1.327 . S
C696 H721 0.950 . S
C697 C696 1.349 . S
C697 C713 1.349 . S
C698 C696 1.327 . S
C698 C717 1.429 . S
C698 H722 0.950 . S
C699 C716 1.574 . S
C699 C718 1.368 . S
C699 H723 0.949 . S
H700 C704 0.949 . S
C701 C702 1.349 . S
C701 C703 1.327 . S
C701 H724 0.950 . S
C702 C701 1.349 . S
C702 C714 1.349 . S
C703 C701 1.327 . S
C703 C719 1.429 . S
C703 H725 0.950 . S
C704 H700 0.949 . S
C704 C712 1.574 . S
C704 C720 1.368 . S
H705 C713 0.950 . S
H706 C711 0.950 . S
H707 C712 0.949 . S
H708 C714 0.950 . S
H709 C715 0.950 . S
H710 C716 0.949 . S
C711 H706 0.950 . S
C711 C713 1.327 . S
C711 C717 1.429 . S
C712 C704 1.574 . S
C712 H707 0.949 . S
C712 C718 1.368 . S
C713 C697 1.349 . S
C713 H705 0.950 . S
C713 C711 1.327 . S
C714 C702 1.349 . S
C714 H708 0.950 . S
C714 C715 1.327 . S
C715 H709 0.950 . S
C715 C714 1.327 . S
C715 C719 1.429 . S
C716 C699 1.574 . S
C716 H710 0.949 . S
C716 C720 1.368 . S
C717 C698 1.429 . S
C717 C711 1.429 . S
C717 C718 1.523 . S
C718 C699 1.368 . S
C718 C712 1.368 . S
C718 C717 1.523 . S
C719 C703 1.429 . S
C719 C715 1.429 . S
C719 C720 1.523 . S
C720 C704 1.368 . S
C720 C716 1.368 . S
C720 C719 1.523 . S
H721 C696 0.950 . S
H722 C698 0.950 . S
H723 C699 0.949 . S
H724 C701 0.950 . S
H725 C703 0.950 . S
C726 C727 1.349 . S
C726 C728 1.327 . S
C726 H751 0.950 . S
C727 C726 1.349 . S
C727 C743 1.349 1_655 S
C728 C726 1.327 . S
C728 C747 1.429 . S
C728 H752 0.950 . S
C729 C746 1.574 . S
C729 C748 1.368 1_455 S
C729 H753 0.949 . S
H730 C734 0.949 . S
C731 C732 1.372 . S
C731 C733 1.327 . S
C731 H754 0.950 . S
C732 C731 1.372 . S
C732 C744 1.335 1_455 S
C733 C731 1.327 . S
C733 C749 1.429 1_455 S
C733 H755 0.950 . S
C734 H730 0.949 . S
C734 C742 1.574 . S
C734 C750 1.368 . S
H735 C743 0.950 . S
H736 C741 0.950 . S
H737 C742 0.949 . S
H738 C744 0.950 . S
H739 C745 0.950 . S
H740 C746 0.949 . S
C741 H736 0.950 . S
C741 C743 1.327 . S
C741 C747 1.429 1_455 S
C742 C734 1.574 . S
C742 H737 0.949 . S
C742 C748 1.368 . S
C743 C727 1.349 1_455 S
C743 H735 0.950 . S
C743 C741 1.327 . S
C744 C732 1.335 1_655 S
C744 H738 0.950 . S
C744 C745 1.327 . S
C745 H739 0.950 . S
C745 C744 1.327 . S
C745 C749 1.429 . S
C746 C729 1.574 . S
C746 H740 0.949 . S
C746 C750 1.368 1_455 S
C747 C728 1.429 . S
C747 C741 1.429 1_655 S
C747 C748 1.523 . S
C748 C729 1.368 1_655 S
C748 C742 1.368 . S
C748 C747 1.523 . S
C749 C733 1.429 1_655 S
C749 C745 1.429 . S
C749 C750 1.523 . S
C750 C734 1.368 . S
C750 C746 1.368 1_655 S
C750 C749 1.523 . S
H751 C726 0.950 . S
H752 C728 0.950 . S
H753 C729 0.949 . S
H754 C731 0.950 . S
H755 C733 0.950 . S
C756 C757 1.349 . S
C756 C758 1.327 . S
C756 H781 0.950 . S
C757 C756 1.349 . S
C757 C773 1.349 . S
C758 C756 1.327 . S
C758 C777 1.429 . S
C758 H782 0.950 . S
C759 C776 1.574 . S
C759 C778 1.368 . S
C759 H783 0.949 . S
H760 C764 0.949 . S
C761 C762 1.349 . S
C761 C763 1.327 . S
C761 H784 0.950 . S
C762 C761 1.349 . S
C762 C774 1.349 . S
C763 C761 1.327 . S
C763 C779 1.429 . S
C763 H785 0.950 . S
C764 H760 0.949 . S
C764 C772 1.574 . S
C764 C780 1.368 . S
H765 C773 0.950 . S
H766 C771 0.950 . S
H767 C772 0.949 . S
H768 C774 0.950 . S
H769 C775 0.950 . S
H770 C776 0.949 . S
C771 H766 0.950 . S
C771 C773 1.327 . S
C771 C777 1.429 . S
C772 C764 1.574 . S
C772 H767 0.949 . S
C772 C778 1.368 . S
C773 C757 1.349 . S
C773 H765 0.950 . S
C773 C771 1.327 . S
C774 C762 1.349 . S
C774 H768 0.950 . S
C774 C775 1.327 . S
C775 H769 0.950 . S
C775 C774 1.327 . S
C775 C779 1.429 . S
C776 C759 1.574 . S
C776 H770 0.949 . S
C776 C780 1.368 . S
C777 C758 1.429 . S
C777 C771 1.429 . S
C777 C778 1.523 . S
C778 C759 1.368 . S
C778 C772 1.368 . S
C778 C777 1.523 . S
C779 C763 1.429 . S
C779 C775 1.429 . S
C779 C780 1.523 . S
C780 C764 1.368 . S
C780 C776 1.368 . S
C780 C779 1.523 . S
H781 C756 0.950 . S
H782 C758 0.950 . S
H783 C759 0.949 . S
H784 C761 0.950 . S
H785 C763 0.950 . S
C786 C787 1.349 1_565 S
C786 C788 1.327 . S
C786 H811 0.950 . S
C787 C786 1.349 1_545 S
C787 C803 1.349 . S
C788 C786 1.327 . S
C788 C807 1.429 1_565 S
C788 H812 0.950 . S
C789 C806 1.574 . S
C789 C808 1.368 . S
C789 H813 0.949 . S
H790 C794 0.949 . S
C791 C792 1.349 . S
C791 C793 1.327 . S
C791 H814 0.950 . S
C792 C791 1.349 . S
C792 C804 1.349 1_545 S
C793 C791 1.327 . S
C793 C809 1.429 . S
C793 H815 0.950 . S
C794 H790 0.949 . S
C794 C802 1.574 . S
C794 C810 1.368 1_565 S
H795 C803 0.950 . S
H796 C801 0.950 . S
H797 C802 0.949 . S
H798 C804 0.950 . S
H799 C805 0.950 . S
H800 C806 0.949 . S
C801 H796 0.950 . S
C801 C803 1.327 . S
C801 C807 1.429 . S
C802 C794 1.574 . S
C802 H797 0.949 . S
C802 C808 1.368 1_565 S
C803 C787 1.349 . S
C803 H795 0.950 . S
C803 C801 1.327 . S
C804 C792 1.349 1_565 S
C804 H798 0.950 . S
C804 C805 1.327 . S
C805 H799 0.950 . S
C805 C804 1.327 . S
C805 C809 1.429 1_565 S
C806 C789 1.574 . S
C806 H800 0.949 . S
C806 C810 1.368 . S
C807 C788 1.429 1_545 S
C807 C801 1.429 . S
C807 C808 1.523 . S
C808 C789 1.368 . S
C808 C802 1.368 1_545 S
C808 C807 1.523 . S
C809 C793 1.429 . S
C809 C805 1.429 1_545 S
C809 C810 1.523 . S
C810 C794 1.368 1_545 S
C810 C806 1.368 . S
C810 C809 1.523 . S
H811 C786 0.950 . S
H812 C788 0.950 . S
H813 C789 0.949 . S
H814 C791 0.950 . S
H815 C793 0.950 . S
C816 C817 1.349 . S
C816 C818 1.327 . S
C816 H841 0.950 . S
C817 C816 1.349 . S
C817 C833 1.349 . S
C818 C816 1.327 . S
C818 C837 1.429 . S
C818 H842 0.950 1_455 S
C819 C836 1.574 . S
C819 C838 1.368 . S
C819 H843 0.949 . S
H820 C824 0.949 1_655 S
C821 C822 1.349 . S
C821 C823 1.327 . S
C821 H844 0.950 . S
C822 C821 1.349 . S
C822 C834 1.349 . S
C823 C821 1.327 . S
C823 C839 1.429 . S
C823 H845 0.950 . S
C824 H820 0.949 1_455 S
C824 C832 1.574 . S
C824 C840 1.368 . S
H825 C833 0.950 . S
H826 C831 0.950 . S
H827 C832 0.949 1_655 S
H828 C834 0.950 1_655 S
H829 C835 0.950 1_655 S
H830 C836 0.949 . S
C831 H826 0.950 . S
C831 C833 1.327 . S
C831 C837 1.429 . S
C832 C824 1.574 . S
C832 H827 0.949 1_455 S
C832 C838 1.368 . S
C833 C817 1.349 . S
C833 H825 0.950 . S
C833 C831 1.327 . S
C834 C822 1.349 . S
C834 H828 0.950 1_455 S
C834 C835 1.327 . S
C835 H829 0.950 1_455 S
C835 C834 1.327 . S
C835 C839 1.429 . S
C836 C819 1.574 . S
C836 H830 0.949 . S
C836 C840 1.368 . S
C837 C818 1.429 . S
C837 C831 1.429 . S
C837 C838 1.523 . S
C838 C819 1.368 . S
C838 C832 1.368 . S
C838 C837 1.523 . S
C839 C823 1.429 . S
C839 C835 1.429 . S
C839 C840 1.523 . S
C840 C824 1.368 . S
C840 C836 1.368 . S
C840 C839 1.523 . S
H841 C816 0.950 . S
H842 C818 0.950 1_655 S
H843 C819 0.949 . S
H844 C821 0.950 . S
H845 C823 0.950 . S
C846 C847 1.349 . S
C846 C848 1.327 . S
C846 H871 0.950 . S
C847 C846 1.349 . S
C847 C863 1.349 . S
C848 C846 1.327 . S
C848 C867 1.429 . S
C848 H872 0.950 . S
C849 C866 1.574 . S
C849 C868 1.368 . S
C849 H873 0.949 . S
H850 C854 0.949 . S
C851 C852 1.349 . S
C851 C853 1.327 . S
C851 H874 0.950 . S
C852 C851 1.349 . S
C852 C864 1.349 . S
C853 C851 1.327 . S
C853 C869 1.429 . S
C853 H875 0.950 . S
C854 H850 0.949 . S
C854 C862 1.574 . S
C854 C870 1.368 . S
H855 C863 0.950 . S
H856 C861 0.950 . S
H857 C862 0.949 . S
H858 C864 0.950 . S
H859 C865 0.950 . S
H860 C866 0.949 . S
C861 H856 0.950 . S
C861 C863 1.327 . S
C861 C867 1.429 . S
C862 C854 1.574 . S
C862 H857 0.949 . S
C862 C868 1.368 . S
C863 C847 1.349 . S
C863 H855 0.950 . S
C863 C861 1.327 . S
C864 C852 1.349 . S
C864 H858 0.950 . S
C864 C865 1.327 . S
C865 H859 0.950 . S
C865 C864 1.327 . S
C865 C869 1.429 . S
C866 C849 1.574 . S
C866 H860 0.949 . S
C866 C870 1.368 . S
C867 C848 1.429 . S
C867 C861 1.429 . S
C867 C868 1.523 . S
C868 C849 1.368 . S
C868 C862 1.368 . S
C868 C867 1.523 . S
C869 C853 1.429 . S
C869 C865 1.429 . S
C869 C870 1.523 . S
C870 C854 1.368 . S
C870 C866 1.368 . S
C870 C869 1.523 . S
H871 C846 0.950 . S
H872 C848 0.950 . S
H873 C849 0.949 . S
H874 C851 0.950 . S
H875 C853 0.950 . S
C876 C877 1.349 1_545 S
C876 C878 1.327 . S
C876 H901 0.950 . S
C877 C876 1.349 1_565 S
C877 C893 1.349 . S
C878 C876 1.327 . S
C878 C897 1.429 1_545 S
C878 H902 0.950 . S
C879 C896 1.574 . S
C879 C898 1.368 . S
C879 H903 0.949 . S
H880 C884 0.949 . S
C881 C882 1.344 1_565 S
C881 C883 1.327 . S
C881 H904 0.950 . S
C882 C881 1.344 1_545 S
C882 C894 1.352 . S
C883 C881 1.327 . S
C883 C899 1.429 . S
C883 H905 0.950 . S
C884 H880 0.949 . S
C884 C892 1.574 . S
C884 C900 1.368 1_545 S
H885 C893 0.950 . S
H886 C891 0.950 . S
H887 C892 0.949 . S
H888 C894 0.950 . S
H889 C895 0.950 . S
H890 C896 0.949 . S
C891 H886 0.950 . S
C891 C893 1.327 . S
C891 C897 1.429 . S
C892 C884 1.574 . S
C892 H887 0.949 . S
C892 C898 1.368 1_545 S
C893 C877 1.349 . S
C893 H885 0.950 . S
C893 C891 1.327 . S
C894 C882 1.352 . S
C894 H888 0.950 . S
C894 C895 1.327 . S
C895 H889 0.950 . S
C895 C894 1.327 . S
C895 C899 1.429 1_545 S
C896 C879 1.574 . S
C896 H890 0.949 . S
C896 C900 1.368 . S
C897 C878 1.429 1_565 S
C897 C891 1.429 . S
C897 C898 1.523 . S
C898 C879 1.368 . S
C898 C892 1.368 1_565 S
C898 C897 1.523 . S
C899 C883 1.429 . S
C899 C895 1.429 1_565 S
C899 C900 1.523 . S
C900 C884 1.368 1_565 S
C900 C896 1.368 . S
C900 C899 1.523 . S
H901 C876 0.950 . S
H902 C878 0.950 . S
H903 C879 0.949 . S
H904 C881 0.950 . S
H905 C883 0.950 . S
C906 C907 1.349 . S
C906 C908 1.327 . S
C906 H931 0.950 . S
C907 C906 1.349 . S
C907 C923 1.349 . S
C908 C906 1.327 . S
C908 C927 1.429 . S
C908 H932 0.950 . S
C909 C926 1.574 . S
C909 C928 1.368 . S
C909 H933 0.949 . S
H910 C914 0.949 . S
C911 C912 1.349 . S
C911 C913 1.327 . S
C911 H934 0.950 . S
C912 C911 1.349 . S
C912 C924 1.349 . S
C913 C911 1.327 . S
C913 C929 1.429 . S
C913 H935 0.950 . S
C914 H910 0.949 . S
C914 C922 1.574 . S
C914 C930 1.368 . S
H915 C923 0.950 . S
H916 C921 0.950 . S
H917 C922 0.949 . S
H918 C924 0.950 . S
H919 C925 0.950 . S
H920 C926 0.949 . S
C921 H916 0.950 . S
C921 C923 1.327 . S
C921 C927 1.429 . S
C922 C914 1.574 . S
C922 H917 0.949 . S
C922 C928 1.368 . S
C923 C907 1.349 . S
C923 H915 0.950 . S
C923 C921 1.327 . S
C924 C912 1.349 . S
C924 H918 0.950 . S
C924 C925 1.327 . S
C925 H919 0.950 . S
C925 C924 1.327 . S
C925 C929 1.429 . S
C926 C909 1.574 . S
C926 H920 0.949 . S
C926 C930 1.368 . S
C927 C908 1.429 . S
C927 C921 1.429 . S
C927 C928 1.523 . S
C928 C909 1.368 . S
C928 C922 1.368 . S
C928 C927 1.523 . S
C929 C913 1.429 . S
C929 C925 1.429 . S
C929 C930 1.523 . S
C930 C914 1.368 . S
C930 C926 1.368 . S
C930 C929 1.523 . S
H931 C906 0.950 . S
H932 C908 0.950 . S
H933 C909 0.949 . S
H934 C911 0.950 . S
H935 C913 0.950 . S
C936 C937 1.349 . S
C936 C938 1.327 . S
C936 H961 0.950 . S
C937 C936 1.349 . S
C937 C953 1.349 . S
C938 C936 1.327 . S
C938 C957 1.429 . S
C938 H962 0.950 . S
C939 C956 1.574 . S
C939 C958 1.368 . S
C939 H963 0.949 . S
H940 C944 0.949 . S
C941 C942 1.349 . S
C941 C943 1.327 . S
C941 H964 0.950 . S
C942 C941 1.349 . S
C942 C954 1.349 . S
C943 C941 1.327 . S
C943 C959 1.429 . S
C943 H965 0.950 . S
C944 H940 0.949 . S
C944 C952 1.574 . S
C944 C960 1.368 . S
H945 C953 0.950 . S
H946 C951 0.950 . S
H947 C952 0.949 . S
H948 C954 0.950 . S
H949 C955 0.950 . S
H950 C956 0.949 . S
C951 H946 0.950 . S
C951 C953 1.327 . S
C951 C957 1.429 . S
C952 C944 1.574 . S
C952 H947 0.949 . S
C952 C958 1.368 . S
C953 C937 1.349 . S
C953 H945 0.950 . S
C953 C951 1.327 . S
C954 C942 1.349 . S
C954 H948 0.950 . S
C954 C955 1.327 . S
C955 H949 0.950 . S
C955 C954 1.327 . S
C955 C959 1.429 . S
C956 C939 1.574 . S
C956 H950 0.949 . S
C956 C960 1.368 . S
C957 C938 1.429 . S
C957 C951 1.429 . S
C957 C958 1.523 . S
C958 C939 1.368 . S
C958 C952 1.368 . S
C958 C957 1.523 . S
C959 C943 1.429 . S
C959 C955 1.429 . S
C959 C960 1.523 . S
C960 C944 1.368 . S
C960 C956 1.368 . S
C960 C959 1.523 . S
H961 C936 0.950 . S
H962 C938 0.950 . S
H963 C939 0.949 . S
H964 C941 0.950 . S
H965 C943 0.950 . S
C966 C967 1.349 . S
C966 C968 1.327 . S
C966 H991 0.950 . S
C967 C966 1.349 . S
C967 C983 1.349 . S
C968 C966 1.327 . S
C968 C987 1.429 . S
C968 H992 0.950 . S
C969 C986 1.574 . S
C969 C988 1.368 . S
C969 H993 0.949 1_545 S
H970 C974 0.949 . S
C971 C972 1.349 . S
C971 C973 1.327 . S
C971 H994 0.950 1_545 S
C972 C971 1.349 . S
C972 C984 1.349 . S
C973 C971 1.327 . S
C973 C989 1.429 . S
C973 H995 0.950 1_545 S
C974 H970 0.949 . S
C974 C982 1.574 . S
C974 C990 1.368 . S
H975 C983 0.950 1_565 S
H976 C981 0.950 1_565 S
H977 C982 0.949 . S
H978 C984 0.950 . S
H979 C985 0.950 . S
H980 C986 0.949 1_565 S
C981 H976 0.950 1_545 S
C981 C983 1.327 . S
C981 C987 1.429 . S
C982 C974 1.574 . S
C982 H977 0.949 . S
C982 C988 1.368 . S
C983 C967 1.349 . S
C983 H975 0.950 1_545 S
C983 C981 1.327 . S
C984 C972 1.349 . S
C984 H978 0.950 . S
C984 C985 1.327 . S
C985 H979 0.950 . S
C985 C984 1.327 . S
C985 C989 1.429 . S
C986 C969 1.574 . S
C986 H980 0.949 1_545 S
C986 C990 1.368 . S
C987 C968 1.429 . S
C987 C981 1.429 . S
C987 C988 1.523 . S
C988 C969 1.368 . S
C988 C982 1.368 . S
C988 C987 1.523 . S
C989 C973 1.429 . S
C989 C985 1.429 . S
C989 C990 1.523 . S
C990 C974 1.368 . S
C990 C986 1.368 . S
C990 C989 1.523 . S
H991 C966 0.950 . S
H992 C968 0.950 . S
H993 C969 0.949 1_565 S
H994 C971 0.950 1_565 S
H995 C973 0.950 1_565 S
C996 C997 1.349 1_655 S
C996 C998 1.327 . S
C996 H1021 0.950 . S
C997 C996 1.349 1_455 S
C997 C1013 1.349 . S
C998 C996 1.327 . S
C998 C1017 1.429 1_655 S
C998 H1022 0.950 . S
C999 C1016 1.574 . S
C999 C1018 1.368 . S
C999 H1023 0.949 . S
H1000 C1004 0.949 . S
C1001 C1002 1.349 . S
C1001 C1003 1.327 . S
C1001 H1024 0.950 . S
C1002 C1001 1.349 . S
C1002 C1014 1.349 1_455 S
C1003 C1001 1.327 . S
C1003 C1019 1.429 . S
C1003 H1025 0.950 . S
C1004 H1000 0.949 . S
C1004 C1012 1.574 . S
C1004 C1020 1.368 1_655 S
H1005 C1013 0.950 . S
H1006 C1011 0.950 . S
H1007 C1012 0.949 . S
H1008 C1014 0.950 . S
H1009 C1015 0.950 . S
H1010 C1016 0.949 . S
C1011 H1006 0.950 . S
C1011 C1013 1.327 . S
C1011 C1017 1.429 . S
C1012 C1004 1.574 . S
C1012 H1007 0.949 . S
C1012 C1018 1.368 1_655 S
C1013 C997 1.349 . S
C1013 H1005 0.950 . S
C1013 C1011 1.327 . S
C1014 C1002 1.349 1_655 S
C1014 H1008 0.950 . S
C1014 C1015 1.327 . S
C1015 H1009 0.950 . S
C1015 C1014 1.327 . S
C1015 C1019 1.429 1_655 S
C1016 C999 1.574 . S
C1016 H1010 0.949 . S
C1016 C1020 1.368 . S
C1017 C998 1.429 1_455 S
C1017 C1011 1.429 . S
C1017 C1018 1.523 . S
C1018 C999 1.368 . S
C1018 C1012 1.368 1_455 S
C1018 C1017 1.523 . S
C1019 C1003 1.429 . S
C1019 C1015 1.429 1_455 S
C1019 C1020 1.523 . S
C1020 C1004 1.368 1_455 S
C1020 C1016 1.368 . S
C1020 C1019 1.523 . S
H1021 C996 0.950 . S
H1022 C998 0.950 . S
H1023 C999 0.949 . S
H1024 C1001 0.950 . S
H1025 C1003 0.950 . S
C1026 C1027 1.349 . S
C1026 C1028 1.327 . S
C1026 H1051 0.950 . S
C1027 C1026 1.349 . S
C1027 C1043 1.349 . S
C1028 C1026 1.327 . S
C1028 C1047 1.429 . S
C1028 H1052 0.950 . S
C1029 C1046 1.574 . S
C1029 C1048 1.368 . S
C1029 H1053 0.949 . S
H1030 C1034 0.949 . S
C1031 C1032 1.349 . S
C1031 C1033 1.327 . S
C1031 H1054 0.950 . S
C1032 C1031 1.349 . S
C1032 C1044 1.349 . S
C1033 C1031 1.327 . S
C1033 C1049 1.429 . S
C1033 H1055 0.950 . S
C1034 H1030 0.949 . S
C1034 C1042 1.574 . S
C1034 C1050 1.368 . S
H1035 C1043 0.950 . S
H1036 C1041 0.950 . S
H1037 C1042 0.949 . S
H1038 C1044 0.950 . S
H1039 C1045 0.950 . S
H1040 C1046 0.949 . S
C1041 H1036 0.950 . S
C1041 C1043 1.327 . S
C1041 C1047 1.429 . S
C1042 C1034 1.574 . S
C1042 H1037 0.949 . S
C1042 C1048 1.368 . S
C1043 C1027 1.349 . S
C1043 H1035 0.950 . S
C1043 C1041 1.327 . S
C1044 C1032 1.349 . S
C1044 H1038 0.950 . S
C1044 C1045 1.327 . S
C1045 H1039 0.950 . S
C1045 C1044 1.327 . S
C1045 C1049 1.429 . S
C1046 C1029 1.574 . S
C1046 H1040 0.949 . S
C1046 C1050 1.368 . S
C1047 C1028 1.429 . S
C1047 C1041 1.429 . S
C1047 C1048 1.523 . S
C1048 C1029 1.368 . S
C1048 C1042 1.368 . S
C1048 C1047 1.523 . S
C1049 C1033 1.429 . S
C1049 C1045 1.429 . S
C1049 C1050 1.523 . S
C1050 C1034 1.368 . S
C1050 C1046 1.368 . S
C1050 C1049 1.523 . S
H1051 C1026 0.950 . S
H1052 C1028 0.950 . S
H1053 C1029 0.949 . S
H1054 C1031 0.950 . S
H1055 C1033 0.950 . S
C1056 C1057 1.349 . S
C1056 C1058 1.327 . S
C1056 H1081 0.950 . S
C1057 C1056 1.349 . S
C1057 C1073 1.349 . S
C1058 C1056 1.327 . S
C1058 C1077 1.429 . S
C1058 H1082 0.950 . S
C1059 C1076 1.574 . S
C1059 C1078 1.368 . S
C1059 H1083 0.949 . S
H1060 C1064 0.949 . S
C1061 C1062 1.349 . S
C1061 C1063 1.327 . S
C1061 H1084 0.950 . S
C1062 C1061 1.349 . S
C1062 C1074 1.349 . S
C1063 C1061 1.327 . S
C1063 C1079 1.429 . S
C1063 H1085 0.950 . S
C1064 H1060 0.949 . S
C1064 C1072 1.574 . S
C1064 C1080 1.368 . S
H1065 C1073 0.950 . S
H1066 C1071 0.950 . S
H1067 C1072 0.949 . S
H1068 C1074 0.950 . S
H1069 C1075 0.950 . S
H1070 C1076 0.949 . S
C1071 H1066 0.950 . S
C1071 C1073 1.327 . S
C1071 C1077 1.429 . S
C1072 C1064 1.574 . S
C1072 H1067 0.949 . S
C1072 C1078 1.368 . S
C1073 C1057 1.349 . S
C1073 H1065 0.950 . S
C1073 C1071 1.327 . S
C1074 C1062 1.349 . S
C1074 H1068 0.950 . S
C1074 C1075 1.327 . S
C1075 H1069 0.950 . S
C1075 C1074 1.327 . S
C1075 C1079 1.429 . S
C1076 C1059 1.574 . S
C1076 H1070 0.949 . S
C1076 C1080 1.368 . S
C1077 C1058 1.429 . S
C1077 C1071 1.429 . S
C1077 C1078 1.523 . S
C1078 C1059 1.368 . S
C1078 C1072 1.368 . S
C1078 C1077 1.523 . S
C1079 C1063 1.429 . S
C1079 C1075 1.429 . S
C1079 C1080 1.523 . S
C1080 C1064 1.368 . S
C1080 C1076 1.368 . S
C1080 C1079 1.523 . S
H1081 C1056 0.950 . S
H1082 C1058 0.950 . S
H1083 C1059 0.949 . S
H1084 C1061 0.950 . S
H1085 C1063 0.950 . S
C1086 C1087 1.349 . S
C1086 C1088 1.327 . S
C1086 H1111 0.950 . S
C1087 C1086 1.349 . S
C1087 C1103 1.349 . S
C1088 C1086 1.327 . S
C1088 C1107 1.429 . S
C1088 H1112 0.950 . S
C1089 C1106 1.574 . S
C1089 C1108 1.368 . S
C1089 H1113 0.949 . S
H1090 C1094 0.949 . S
C1091 C1092 1.349 . S
C1091 C1093 1.327 . S
C1091 H1114 0.950 . S
C1092 C1091 1.349 . S
C1092 C1104 1.349 . S
C1093 C1091 1.327 . S
C1093 C1109 1.429 . S
C1093 H1115 0.950 . S
C1094 H1090 0.949 . S
C1094 C1102 1.574 . S
C1094 C1110 1.368 . S
H1095 C1103 0.950 . S
H1096 C1101 0.950 . S
H1097 C1102 0.949 . S
H1098 C1104 0.950 . S
H1099 C1105 0.950 . S
H1100 C1106 0.949 . S
C1101 H1096 0.950 . S
C1101 C1103 1.327 . S
C1101 C1107 1.429 . S
C1102 C1094 1.574 . S
C1102 H1097 0.949 . S
C1102 C1108 1.368 . S
C1103 C1087 1.349 . S
C1103 H1095 0.950 . S
C1103 C1101 1.327 . S
C1104 C1092 1.349 . S
C1104 H1098 0.950 . S
C1104 C1105 1.327 . S
C1105 H1099 0.950 . S
C1105 C1104 1.327 . S
C1105 C1109 1.429 . S
C1106 C1089 1.574 . S
C1106 H1100 0.949 . S
C1106 C1110 1.368 . S
C1107 C1088 1.429 . S
C1107 C1101 1.429 . S
C1107 C1108 1.523 . S
C1108 C1089 1.368 . S
C1108 C1102 1.368 . S
C1108 C1107 1.523 . S
C1109 C1093 1.429 . S
C1109 C1105 1.429 . S
C1109 C1110 1.523 . S
C1110 C1094 1.368 . S
C1110 C1106 1.368 . S
C1110 C1109 1.523 . S
H1111 C1086 0.950 . S
H1112 C1088 0.950 . S
H1113 C1089 0.949 . S
H1114 C1091 0.950 . S
H1115 C1093 0.950 . S
C1116 C1117 1.349 . S
C1116 C1118 1.327 . S
C1116 H1141 0.950 . S
C1117 C1116 1.349 . S
C1117 C1133 1.349 . S
C1118 C1116 1.327 . S
C1118 C1137 1.429 . S
C1118 H1142 0.950 . S
C1119 C1136 1.574 . S
C1119 C1138 1.368 . S
C1119 H1143 0.949 . S
H1120 C1124 0.949 . S
C1121 C1122 1.349 . S
C1121 C1123 1.327 . S
C1121 H1144 0.950 . S
C1122 C1121 1.349 . S
C1122 C1134 1.349 . S
C1123 C1121 1.327 . S
C1123 C1139 1.429 . S
C1123 H1145 0.950 . S
C1124 H1120 0.949 . S
C1124 C1132 1.574 . S
C1124 C1140 1.368 . S
H1125 C1133 0.950 . S
H1126 C1131 0.950 . S
H1127 C1132 0.949 . S
H1128 C1134 0.950 . S
H1129 C1135 0.950 . S
H1130 C1136 0.949 . S
C1131 H1126 0.950 . S
C1131 C1133 1.327 . S
C1131 C1137 1.429 . S
C1132 C1124 1.574 . S
C1132 H1127 0.949 . S
C1132 C1138 1.368 . S
C1133 C1117 1.349 . S
C1133 H1125 0.950 . S
C1133 C1131 1.327 . S
C1134 C1122 1.349 . S
C1134 H1128 0.950 . S
C1134 C1135 1.327 . S
C1135 H1129 0.950 . S
C1135 C1134 1.327 . S
C1135 C1139 1.429 . S
C1136 C1119 1.574 . S
C1136 H1130 0.949 . S
C1136 C1140 1.368 . S
C1137 C1118 1.429 . S
C1137 C1131 1.429 . S
C1137 C1138 1.523 . S
C1138 C1119 1.368 . S
C1138 C1132 1.368 . S
C1138 C1137 1.523 . S
C1139 C1123 1.429 . S
C1139 C1135 1.429 . S
C1139 C1140 1.523 . S
C1140 C1124 1.368 . S
C1140 C1136 1.368 . S
C1140 C1139 1.523 . S
H1141 C1116 0.950 . S
H1142 C1118 0.950 . S
H1143 C1119 0.949 . S
H1144 C1121 0.950 . S
H1145 C1123 0.950 . S
C1146 C1147 1.349 . S
C1146 C1148 1.327 . S
C1146 H1171 0.950 . S
C1147 C1146 1.349 . S
C1147 C1163 1.349 . S
C1148 C1146 1.327 . S
C1148 C1167 1.429 . S
C1148 H1172 0.950 . S
C1149 C1166 1.574 . S
C1149 C1168 1.368 . S
C1149 H1173 0.949 . S
H1150 C1154 0.949 . S
C1151 C1152 1.349 . S
C1151 C1153 1.327 . S
C1151 H1174 0.950 . S
C1152 C1151 1.349 . S
C1152 C1164 1.349 . S
C1153 C1151 1.327 . S
C1153 C1169 1.429 . S
C1153 H1175 0.950 . S
C1154 H1150 0.949 . S
C1154 C1162 1.574 . S
C1154 C1170 1.368 . S
H1155 C1163 0.950 . S
H1156 C1161 0.950 . S
H1157 C1162 0.949 . S
H1158 C1164 0.950 . S
H1159 C1165 0.950 . S
H1160 C1166 0.949 . S
C1161 H1156 0.950 . S
C1161 C1163 1.327 . S
C1161 C1167 1.429 . S
C1162 C1154 1.574 . S
C1162 H1157 0.949 . S
C1162 C1168 1.368 . S
C1163 C1147 1.349 . S
C1163 H1155 0.950 . S
C1163 C1161 1.327 . S
C1164 C1152 1.349 . S
C1164 H1158 0.950 . S
C1164 C1165 1.327 . S
C1165 H1159 0.950 . S
C1165 C1164 1.327 . S
C1165 C1169 1.429 . S
C1166 C1149 1.574 . S
C1166 H1160 0.949 . S
C1166 C1170 1.368 . S
C1167 C1148 1.429 . S
C1167 C1161 1.429 . S
C1167 C1168 1.523 . S
C1168 C1149 1.368 . S
C1168 C1162 1.368 . S
C1168 C1167 1.523 . S
C1169 C1153 1.429 . S
C1169 C1165 1.429 . S
C1169 C1170 1.523 . S
C1170 C1154 1.368 . S
C1170 C1166 1.368 . S
C1170 C1169 1.523 . S
H1171 C1146 0.950 . S
H1172 C1148 0.950 . S
H1173 C1149 0.949 . S
H1174 C1151 0.950 . S
H1175 C1153 0.950 . S
C1176 C1177 1.349 . S
C1176 C1178 1.327 . S
C1176 H1201 0.950 . S
C1177 C1176 1.349 . S
C1177 C1193 1.349 . S
C1178 C1176 1.327 . S
C1178 C1197 1.429 . S
C1178 H1202 0.950 . S
C1179 C1196 1.574 . S
C1179 C1198 1.368 . S
C1179 H1203 0.949 . S
H1180 C1184 0.949 . S
C1181 C1182 1.349 . S
C1181 C1183 1.327 . S
C1181 H1204 0.950 . S
C1182 C1181 1.349 . S
C1182 C1194 1.349 . S
C1183 C1181 1.327 . S
C1183 C1199 1.429 . S
C1183 H1205 0.950 . S
C1184 H1180 0.949 . S
C1184 C1192 1.574 . S
C1184 C1200 1.368 . S
H1185 C1193 0.950 . S
H1186 C1191 0.950 . S
H1187 C1192 0.949 . S
H1188 C1194 0.950 . S
H1189 C1195 0.950 . S
H1190 C1196 0.949 . S
C1191 H1186 0.950 . S
C1191 C1193 1.327 . S
C1191 C1197 1.429 . S
C1192 C1184 1.574 . S
C1192 H1187 0.949 . S
C1192 C1198 1.368 . S
C1193 C1177 1.349 . S
C1193 H1185 0.950 . S
C1193 C1191 1.327 . S
C1194 C1182 1.349 . S
C1194 H1188 0.950 . S
C1194 C1195 1.327 . S
C1195 H1189 0.950 . S
C1195 C1194 1.327 . S
C1195 C1199 1.429 . S
C1196 C1179 1.574 . S
C1196 H1190 0.949 . S
C1196 C1200 1.368 . S
C1197 C1178 1.429 . S
C1197 C1191 1.429 . S
C1197 C1198 1.523 . S
C1198 C1179 1.368 . S
C1198 C1192 1.368 . S
C1198 C1197 1.523 . S
C1199 C1183 1.429 . S
C1199 C1195 1.429 . S
C1199 C1200 1.523 . S
C1200 C1184 1.368 . S
C1200 C1196 1.368 . S
C1200 C1199 1.523 . S
H1201 C1176 0.950 . S
H1202 C1178 0.950 . S
H1203 C1179 0.949 . S
H1204 C1181 0.950 . S
H1205 C1183 0.950 . S
C1206 C1207 1.349 . S
C1206 C1208 1.327 . S
C1206 H1231 0.950 . S
C1207 C1206 1.349 . S
C1207 C1223 1.349 . S
C1208 C1206 1.327 . S
C1208 C1227 1.429 . S
C1208 H1232 0.950 . S
C1209 C1226 1.574 . S
C1209 C1228 1.368 . S
C1209 H1233 0.949 . S
H1210 C1214 0.949 . S
C1211 C1212 1.349 . S
C1211 C1213 1.327 . S
C1211 H1234 0.950 . S
C1212 C1211 1.349 . S
C1212 C1224 1.349 . S
C1213 C1211 1.327 . S
C1213 C1229 1.429 . S
C1213 H1235 0.950 . S
C1214 H1210 0.949 . S
C1214 C1222 1.574 . S
C1214 C1230 1.368 . S
H1215 C1223 0.950 . S
H1216 C1221 0.950 . S
H1217 C1222 0.949 . S
H1218 C1224 0.950 . S
H1219 C1225 0.950 . S
H1220 C1226 0.949 . S
C1221 H1216 0.950 . S
C1221 C1223 1.327 . S
C1221 C1227 1.429 . S
C1222 C1214 1.574 . S
C1222 H1217 0.949 . S
C1222 C1228 1.368 . S
C1223 C1207 1.349 . S
C1223 H1215 0.950 . S
C1223 C1221 1.327 . S
C1224 C1212 1.349 . S
C1224 H1218 0.950 . S
C1224 C1225 1.327 . S
C1225 H1219 0.950 . S
C1225 C1224 1.327 . S
C1225 C1229 1.429 . S
C1226 C1209 1.574 . S
C1226 H1220 0.949 . S
C1226 C1230 1.368 . S
C1227 C1208 1.429 . S
C1227 C1221 1.429 . S
C1227 C1228 1.523 . S
C1228 C1209 1.368 . S
C1228 C1222 1.368 . S
C1228 C1227 1.523 . S
C1229 C1213 1.429 . S
C1229 C1225 1.429 . S
C1229 C1230 1.523 . S
C1230 C1214 1.368 . S
C1230 C1226 1.368 . S
C1230 C1229 1.523 . S
H1231 C1206 0.950 . S
H1232 C1208 0.950 . S
H1233 C1209 0.949 . S
H1234 C1211 0.950 . S
H1235 C1213 0.950 . S
C1236 C1237 1.349 . S
C1236 C1238 1.327 . S
C1236 H1261 0.950 . S
C1237 C1236 1.349 . S
C1237 C1253 1.349 . S
C1238 C1236 1.327 . S
C1238 C1257 1.429 . S
C1238 H1262 0.950 . S
C1239 C1256 1.574 . S
C1239 C1258 1.368 . S
C1239 H1263 0.949 . S
H1240 C1244 0.949 . S
C1241 C1242 1.349 . S
C1241 C1243 1.327 . S
C1241 H1264 0.950 . S
C1242 C1241 1.349 . S
C1242 C1254 1.349 . S
C1243 C1241 1.327 . S
C1243 C1259 1.429 . S
C1243 H1265 0.950 . S
C1244 H1240 0.949 . S
C1244 C1252 1.574 . S
C1244 C1260 1.368 . S
H1245 C1253 0.950 . S
H1246 C1251 0.950 . S
H1247 C1252 0.949 . S
H1248 C1254 0.950 . S
H1249 C1255 0.950 . S
H1250 C1256 0.949 . S
C1251 H1246 0.950 . S
C1251 C1253 1.327 . S
C1251 C1257 1.429 . S
C1252 C1244 1.574 . S
C1252 H1247 0.949 . S
C1252 C1258 1.368 . S
C1253 C1237 1.349 . S
C1253 H1245 0.950 . S
C1253 C1251 1.327 . S
C1254 C1242 1.349 . S
C1254 H1248 0.950 . S
C1254 C1255 1.327 . S
C1255 H1249 0.950 . S
C1255 C1254 1.327 . S
C1255 C1259 1.429 . S
C1256 C1239 1.574 . S
C1256 H1250 0.949 . S
C1256 C1260 1.368 . S
C1257 C1238 1.429 . S
C1257 C1251 1.429 . S
C1257 C1258 1.523 . S
C1258 C1239 1.368 . S
C1258 C1252 1.368 . S
C1258 C1257 1.523 . S
C1259 C1243 1.429 . S
C1259 C1255 1.429 . S
C1259 C1260 1.523 . S
C1260 C1244 1.368 . S
C1260 C1256 1.368 . S
C1260 C1259 1.523 . S
H1261 C1236 0.950 . S
H1262 C1238 0.950 . S
H1263 C1239 0.949 . S
H1264 C1241 0.950 . S
H1265 C1243 0.950 . S
C1266 C1267 1.349 . S
C1266 C1268 1.327 . S
C1266 H1291 0.950 . S
C1267 C1266 1.349 . S
C1267 C1283 1.349 . S
C1268 C1266 1.327 . S
C1268 C1287 1.429 . S
C1268 H1292 0.950 . S
C1269 C1286 1.574 . S
C1269 C1288 1.368 . S
C1269 H1293 0.949 . S
H1270 C1274 0.949 . S
C1271 C1272 1.349 . S
C1271 C1273 1.327 . S
C1271 H1294 0.950 . S
C1272 C1271 1.349 . S
C1272 C1284 1.349 . S
C1273 C1271 1.327 . S
C1273 C1289 1.429 . S
C1273 H1295 0.950 . S
C1274 H1270 0.949 . S
C1274 C1282 1.574 . S
C1274 C1290 1.368 . S
H1275 C1283 0.950 . S
H1276 C1281 0.950 . S
H1277 C1282 0.949 . S
H1278 C1284 0.950 . S
H1279 C1285 0.950 . S
H1280 C1286 0.949 . S
C1281 H1276 0.950 . S
C1281 C1283 1.327 . S
C1281 C1287 1.429 . S
C1282 C1274 1.574 . S
C1282 H1277 0.949 . S
C1282 C1288 1.368 . S
C1283 C1267 1.349 . S
C1283 H1275 0.950 . S
C1283 C1281 1.327 . S
C1284 C1272 1.349 . S
C1284 H1278 0.950 . S
C1284 C1285 1.327 . S
C1285 H1279 0.950 . S
C1285 C1284 1.327 . S
C1285 C1289 1.429 . S
C1286 C1269 1.574 . S
C1286 H1280 0.949 . S
C1286 C1290 1.368 . S
C1287 C1268 1.429 . S
C1287 C1281 1.429 . S
C1287 C1288 1.523 . S
C1288 C1269 1.368 . S
C1288 C1282 1.368 . S
C1288 C1287 1.523 . S
C1289 C1273 1.429 . S
C1289 C1285 1.429 . S
C1289 C1290 1.523 . S
C1290 C1274 1.368 . S
C1290 C1286 1.368 . S
C1290 C1289 1.523 . S
H1291 C1266 0.950 . S
H1292 C1268 0.950 . S
H1293 C1269 0.949 . S
H1294 C1271 0.950 . S
H1295 C1273 0.950 . S
C1296 C1297 1.349 . S
C1296 C1298 1.327 . S
C1296 H1321 0.950 . S
C1297 C1296 1.349 . S
C1297 C1313 1.349 . S
C1298 C1296 1.327 . S
C1298 C1317 1.429 . S
C1298 H1322 0.950 . S
C1299 C1316 1.574 . S
C1299 C1318 1.368 . S
C1299 H1323 0.949 . S
H1300 C1304 0.949 . S
C1301 C1302 1.349 . S
C1301 C1303 1.327 . S
C1301 H1324 0.950 . S
C1302 C1301 1.349 . S
C1302 C1314 1.349 . S
C1303 C1301 1.327 . S
C1303 C1319 1.429 . S
C1303 H1325 0.950 . S
C1304 H1300 0.949 . S
C1304 C1312 1.574 . S
C1304 C1320 1.368 . S
H1305 C1313 0.950 . S
H1306 C1311 0.950 . S
H1307 C1312 0.949 . S
H1308 C1314 0.950 1_556 S
H1309 C1315 0.950 . S
H1310 C1316 0.949 . S
C1311 H1306 0.950 . S
C1311 C1313 1.327 . S
C1311 C1317 1.429 . S
C1312 C1304 1.574 . S
C1312 H1307 0.949 . S
C1312 C1318 1.368 . S
C1313 C1297 1.349 . S
C1313 H1305 0.950 . S
C1313 C1311 1.327 . S
C1314 C1302 1.349 . S
C1314 H1308 0.950 1_554 S
C1314 C1315 1.327 . S
C1315 H1309 0.950 . S
C1315 C1314 1.327 . S
C1315 C1319 1.429 . S
C1316 C1299 1.574 . S
C1316 H1310 0.949 . S
C1316 C1320 1.368 . S
C1317 C1298 1.429 . S
C1317 C1311 1.429 . S
C1317 C1318 1.523 . S
C1318 C1299 1.368 . S
C1318 C1312 1.368 . S
C1318 C1317 1.523 . S
C1319 C1303 1.429 . S
C1319 C1315 1.429 . S
C1319 C1320 1.523 . S
C1320 C1304 1.368 . S
C1320 C1316 1.368 . S
C1320 C1319 1.523 . S
H1321 C1296 0.950 . S
H1322 C1298 0.950 . S
H1323 C1299 0.949 . S
H1324 C1301 0.950 . S
H1325 C1303 0.950 . S
C1326 C1327 1.349 . S
C1326 C1328 1.327 . S
C1326 H1351 0.950 . S
C1327 C1326 1.349 . S
C1327 C1343 1.349 . S
C1328 C1326 1.327 . S
C1328 C1347 1.429 . S
C1328 H1352 0.950 . S
C1329 C1346 1.574 . S
C1329 C1348 1.368 . S
C1329 H1353 0.949 . S
H1330 C1334 0.949 . S
C1331 C1332 1.349 . S
C1331 C1333 1.327 . S
C1331 H1354 0.950 . S
C1332 C1331 1.349 . S
C1332 C1344 1.349 . S
C1333 C1331 1.327 . S
C1333 C1349 1.429 . S
C1333 H1355 0.950 . S
C1334 H1330 0.949 . S
C1334 C1342 1.574 . S
C1334 C1350 1.368 . S
H1335 C1343 0.950 . S
H1336 C1341 0.950 . S
H1337 C1342 0.949 . S
H1338 C1344 0.950 . S
H1339 C1345 0.950 . S
H1340 C1346 0.949 . S
C1341 H1336 0.950 . S
C1341 C1343 1.327 . S
C1341 C1347 1.429 . S
C1342 C1334 1.574 . S
C1342 H1337 0.949 . S
C1342 C1348 1.368 . S
C1343 C1327 1.349 . S
C1343 H1335 0.950 . S
C1343 C1341 1.327 . S
C1344 C1332 1.349 . S
C1344 H1338 0.950 . S
C1344 C1345 1.327 . S
C1345 H1339 0.950 . S
C1345 C1344 1.327 . S
C1345 C1349 1.429 . S
C1346 C1329 1.574 . S
C1346 H1340 0.949 . S
C1346 C1350 1.368 . S
C1347 C1328 1.429 . S
C1347 C1341 1.429 . S
C1347 C1348 1.523 . S
C1348 C1329 1.368 . S
C1348 C1342 1.368 . S
C1348 C1347 1.523 . S
C1349 C1333 1.429 . S
C1349 C1345 1.429 . S
C1349 C1350 1.523 . S
C1350 C1334 1.368 . S
C1350 C1346 1.368 . S
C1350 C1349 1.523 . S
H1351 C1326 0.950 . S
H1352 C1328 0.950 . S
H1353 C1329 0.949 . S
H1354 C1331 0.950 . S
H1355 C1333 0.950 . S
C1356 C1357 1.349 . S
C1356 C1358 1.327 . S
C1356 H1381 0.950 . S
C1357 C1356 1.349 . S
C1357 C1373 1.349 . S
C1358 C1356 1.327 . S
C1358 C1377 1.429 . S
C1358 H1382 0.950 . S
C1359 C1376 1.574 . S
C1359 C1378 1.368 . S
C1359 H1383 0.949 . S
H1360 C1364 0.949 . S
C1361 C1362 1.349 . S
C1361 C1363 1.327 . S
C1361 H1384 0.950 . S
C1362 C1361 1.349 . S
C1362 C1374 1.349 . S
C1363 C1361 1.327 . S
C1363 C1379 1.429 . S
C1363 H1385 0.950 . S
C1364 H1360 0.949 . S
C1364 C1372 1.574 . S
C1364 C1380 1.368 . S
H1365 C1373 0.950 . S
H1366 C1371 0.950 . S
H1367 C1372 0.949 . S
H1368 C1374 0.950 . S
H1369 C1375 0.950 . S
H1370 C1376 0.949 . S
C1371 H1366 0.950 . S
C1371 C1373 1.327 . S
C1371 C1377 1.429 . S
C1372 C1364 1.574 . S
C1372 H1367 0.949 . S
C1372 C1378 1.368 . S
C1373 C1357 1.349 . S
C1373 H1365 0.950 . S
C1373 C1371 1.327 . S
C1374 C1362 1.349 . S
C1374 H1368 0.950 . S
C1374 C1375 1.327 . S
C1375 H1369 0.950 . S
C1375 C1374 1.327 . S
C1375 C1379 1.429 . S
C1376 C1359 1.574 . S
C1376 H1370 0.949 . S
C1376 C1380 1.368 . S
C1377 C1358 1.429 . S
C1377 C1371 1.429 . S
C1377 C1378 1.523 . S
C1378 C1359 1.368 . S
C1378 C1372 1.368 . S
C1378 C1377 1.523 . S
C1379 C1363 1.429 . S
C1379 C1375 1.429 . S
C1379 C1380 1.523 . S
C1380 C1364 1.368 . S
C1380 C1376 1.368 . S
C1380 C1379 1.523 . S
H1381 C1356 0.950 . S
H1382 C1358 0.950 . S
H1383 C1359 0.949 . S
H1384 C1361 0.950 . S
H1385 C1363 0.950 . S
C1386 C1387 1.349 . S
C1386 C1388 1.327 . S
C1386 H1411 0.950 . S
C1387 C1386 1.349 . S
C1387 C1403 1.349 . S
C1388 C1386 1.327 . S
C1388 C1407 1.429 . S
C1388 H1412 0.950 . S
C1389 C1406 1.574 . S
C1389 C1408 1.368 . S
C1389 H1413 0.949 . S
H1390 C1394 0.949 . S
C1391 C1392 1.349 . S
C1391 C1393 1.327 . S
C1391 H1414 0.950 . S
C1392 C1391 1.349 . S
C1392 C1404 1.349 . S
C1393 C1391 1.327 . S
C1393 C1409 1.429 . S
C1393 H1415 0.950 . S
C1394 H1390 0.949 . S
C1394 C1402 1.574 . S
C1394 C1410 1.368 . S
H1395 C1403 0.950 . S
H1396 C1401 0.950 . S
H1397 C1402 0.949 . S
H1398 C1404 0.950 . S
H1399 C1405 0.950 . S
H1400 C1406 0.949 . S
C1401 H1396 0.950 . S
C1401 C1403 1.327 . S
C1401 C1407 1.429 . S
C1402 C1394 1.574 . S
C1402 H1397 0.949 . S
C1402 C1408 1.368 . S
C1403 C1387 1.349 . S
C1403 H1395 0.950 . S
C1403 C1401 1.327 . S
C1404 C1392 1.349 . S
C1404 H1398 0.950 . S
C1404 C1405 1.327 . S
C1405 H1399 0.950 . S
C1405 C1404 1.327 . S
C1405 C1409 1.429 . S
C1406 C1389 1.574 . S
C1406 H1400 0.949 . S
C1406 C1410 1.368 . S
C1407 C1388 1.429 . S
C1407 C1401 1.429 . S
C1407 C1408 1.523 . S
C1408 C1389 1.368 . S
C1408 C1402 1.368 . S
C1408 C1407 1.523 . S
C1409 C1393 1.429 . S
C1409 C1405 1.429 . S
C1409 C1410 1.523 . S
C1410 C1394 1.368 . S
C1410 C1406 1.368 . S
C1410 C1409 1.523 . S
H1411 C1386 0.950 . S
H1412 C1388 0.950 . S
H1413 C1389 0.949 . S
H1414 C1391 0.950 . S
H1415 C1393 0.950 . S
C1416 C1417 1.349 . S
C1416 C1418 1.327 . S
C1416 H1441 0.950 . S
C1417 C1416 1.349 . S
C1417 C1433 1.349 . S
C1418 C1416 1.327 . S
C1418 C1437 1.429 . S
C1418 H1442 0.950 . S
C1419 C1436 1.574 . S
C1419 C1438 1.368 . S
C1419 H1443 0.949 . S
H1420 C1424 0.949 . S
C1421 C1422 1.349 . S
C1421 C1423 1.327 . S
C1421 H1444 0.950 . S
C1422 C1421 1.349 . S
C1422 C1434 1.349 . S
C1423 C1421 1.327 . S
C1423 C1439 1.429 . S
C1423 H1445 0.950 . S
C1424 H1420 0.949 . S
C1424 C1432 1.574 . S
C1424 C1440 1.368 . S
H1425 C1433 0.950 . S
H1426 C1431 0.950 . S
H1427 C1432 0.949 . S
H1428 C1434 0.950 . S
H1429 C1435 0.950 . S
H1430 C1436 0.949 . S
C1431 H1426 0.950 . S
C1431 C1433 1.327 . S
C1431 C1437 1.429 . S
C1432 C1424 1.574 . S
C1432 H1427 0.949 . S
C1432 C1438 1.368 . S
C1433 C1417 1.349 . S
C1433 H1425 0.950 . S
C1433 C1431 1.327 . S
C1434 C1422 1.349 . S
C1434 H1428 0.950 . S
C1434 C1435 1.327 . S
C1435 H1429 0.950 . S
C1435 C1434 1.327 . S
C1435 C1439 1.429 . S
C1436 C1419 1.574 . S
C1436 H1430 0.949 . S
C1436 C1440 1.368 . S
C1437 C1418 1.429 . S
C1437 C1431 1.429 . S
C1437 C1438 1.523 . S
C1438 C1419 1.368 . S
C1438 C1432 1.368 . S
C1438 C1437 1.523 . S
C1439 C1423 1.429 . S
C1439 C1435 1.429 . S
C1439 C1440 1.523 . S
C1440 C1424 1.368 . S
C1440 C1436 1.368 . S
C1440 C1439 1.523 . S
H1441 C1416 0.950 . S
H1442 C1418 0.950 . S
H1443 C1419 0.949 . S
H1444 C1421 0.950 . S
H1445 C1423 0.950 . S
C1446 C1447 1.349 . S
C1446 C1448 1.327 . S
C1446 H1471 0.950 . S
C1447 C1446 1.349 . S
C1447 C1463 1.349 . S
C1448 C1446 1.327 . S
C1448 C1467 1.429 . S
C1448 H1472 0.950 . S
C1449 C1466 1.574 . S
C1449 C1468 1.368 . S
C1449 H1473 0.949 . S
H1450 C1454 0.949 . S
C1451 C1452 1.349 . S
C1451 C1453 1.327 . S
C1451 H1474 0.950 . S
C1452 C1451 1.349 . S
C1452 C1464 1.349 . S
C1453 C1451 1.327 . S
C1453 C1469 1.429 . S
C1453 H1475 0.950 . S
C1454 H1450 0.949 . S
C1454 C1462 1.574 . S
C1454 C1470 1.368 . S
H1455 C1463 0.950 . S
H1456 C1461 0.950 . S
H1457 C1462 0.949 . S
H1458 C1464 0.950 . S
H1459 C1465 0.950 . S
H1460 C1466 0.949 . S
C1461 H1456 0.950 . S
C1461 C1463 1.327 . S
C1461 C1467 1.429 . S
C1462 C1454 1.574 . S
C1462 H1457 0.949 . S
C1462 C1468 1.368 . S
C1463 C1447 1.349 . S
C1463 H1455 0.950 . S
C1463 C1461 1.327 . S
C1464 C1452 1.349 . S
C1464 H1458 0.950 . S
C1464 C1465 1.327 . S
C1465 H1459 0.950 . S
C1465 C1464 1.327 . S
C1465 C1469 1.429 . S
C1466 C1449 1.574 . S
C1466 H1460 0.949 . S
C1466 C1470 1.368 . S
C1467 C1448 1.429 . S
C1467 C1461 1.429 . S
C1467 C1468 1.523 . S
C1468 C1449 1.368 . S
C1468 C1462 1.368 . S
C1468 C1467 1.523 . S
C1469 C1453 1.429 . S
C1469 C1465 1.429 . S
C1469 C1470 1.523 . S
C1470 C1454 1.368 . S
C1470 C1466 1.368 . S
C1470 C1469 1.523 . S
H1471 C1446 0.950 . S
H1472 C1448 0.950 . S
H1473 C1449 0.949 . S
H1474 C1451 0.950 . S
H1475 C1453 0.950 . S
C1476 C1477 1.349 . S
C1476 C1478 1.327 . S
C1476 H1501 0.950 . S
C1477 C1476 1.349 . S
C1477 C1493 1.349 . S
C1478 C1476 1.327 . S
C1478 C1497 1.429 . S
C1478 H1502 0.950 . S
C1479 C1496 1.574 . S
C1479 C1498 1.368 . S
C1479 H1503 0.949 . S
H1480 C1484 0.949 . S
C1481 C1482 1.349 . S
C1481 C1483 1.327 . S
C1481 H1504 0.870 1_556 S
C1482 C1481 1.349 . S
C1482 C1494 1.349 . S
C1483 C1481 1.327 . S
C1483 C1499 1.429 . S
C1483 H1505 0.950 . S
C1484 H1480 0.949 . S
C1484 C1492 1.574 . S
C1484 C1500 1.368 . S
H1485 C1493 0.950 . S
H1486 C1491 0.950 . S
H1487 C1492 0.949 . S
H1488 C1494 0.950 . S
H1489 C1495 0.950 . S
H1490 C1496 0.949 . S
C1491 H1486 0.950 . S
C1491 C1493 1.327 . S
C1491 C1497 1.429 . S
C1492 C1484 1.574 . S
C1492 H1487 0.949 . S
C1492 C1498 1.368 . S
C1493 C1477 1.349 . S
C1493 H1485 0.950 . S
C1493 C1491 1.327 . S
C1494 C1482 1.349 . S
C1494 H1488 0.950 . S
C1494 C1495 1.327 . S
C1495 H1489 0.950 . S
C1495 C1494 1.327 . S
C1495 C1499 1.429 . S
C1496 C1479 1.574 . S
C1496 H1490 0.949 . S
C1496 C1500 1.368 . S
C1497 C1478 1.429 . S
C1497 C1491 1.429 . S
C1497 C1498 1.523 . S
C1498 C1479 1.368 . S
C1498 C1492 1.368 . S
C1498 C1497 1.523 . S
C1499 C1483 1.429 . S
C1499 C1495 1.429 . S
C1499 C1500 1.523 . S
C1500 C1484 1.368 . S
C1500 C1496 1.368 . S
C1500 C1499 1.523 . S
H1501 C1476 0.950 . S
H1502 C1478 0.950 . S
H1503 C1479 0.949 . S
H1504 C1481 0.870 1_554 S
H1505 C1483 0.950 . S
C1506 C1507 1.349 . S
C1506 C1508 1.327 . S
C1506 H1531 0.950 . S
C1507 C1506 1.349 . S
C1507 C1523 1.349 . S
C1508 C1506 1.327 . S
C1508 C1527 1.429 . S
C1508 H1532 0.950 . S
C1509 C1526 1.574 . S
C1509 C1528 1.368 . S
C1509 H1533 0.949 . S
H1510 C1514 0.949 . S
C1511 C1512 1.349 . S
C1511 C1513 1.327 . S
C1511 H1534 0.950 . S
C1512 C1511 1.349 . S
C1512 C1524 1.349 . S
C1513 C1511 1.327 . S
C1513 C1529 1.429 . S
C1513 H1535 0.950 . S
C1514 H1510 0.949 . S
C1514 C1522 1.574 . S
C1514 C1530 1.368 . S
H1515 C1523 0.950 . S
H1516 C1521 0.950 . S
H1517 C1522 0.949 . S
H1518 C1524 0.950 . S
H1519 C1525 0.950 . S
H1520 C1526 0.949 . S
C1521 H1516 0.950 . S
C1521 C1523 1.327 . S
C1521 C1527 1.429 . S
C1522 C1514 1.574 . S
C1522 H1517 0.949 . S
C1522 C1528 1.368 . S
C1523 C1507 1.349 . S
C1523 H1515 0.950 . S
C1523 C1521 1.327 . S
C1524 C1512 1.349 . S
C1524 H1518 0.950 . S
C1524 C1525 1.327 . S
C1525 H1519 0.950 . S
C1525 C1524 1.327 . S
C1525 C1529 1.429 . S
C1526 C1509 1.574 . S
C1526 H1520 0.949 . S
C1526 C1530 1.368 . S
C1527 C1508 1.429 . S
C1527 C1521 1.429 . S
C1527 C1528 1.523 . S
C1528 C1509 1.368 . S
C1528 C1522 1.368 . S
C1528 C1527 1.523 . S
C1529 C1513 1.429 . S
C1529 C1525 1.429 . S
C1529 C1530 1.523 . S
C1530 C1514 1.368 . S
C1530 C1526 1.368 . S
C1530 C1529 1.523 . S
H1531 C1506 0.950 . S
H1532 C1508 0.950 . S
H1533 C1509 0.949 . S
H1534 C1511 0.950 . S
H1535 C1513 0.950 . S
C1536 C1537 1.349 . S
C1536 C1538 1.327 . S
C1536 H1561 0.950 . S
C1537 C1536 1.349 . S
C1537 C1553 1.349 . S
C1538 C1536 1.327 . S
C1538 C1557 1.429 . S
C1538 H1562 0.950 . S
C1539 C1556 1.574 . S
C1539 C1558 1.368 . S
C1539 H1563 0.949 . S
H1540 C1544 0.949 . S
C1541 C1542 1.349 . S
C1541 C1543 1.327 . S
C1541 H1564 1.063 . S
C1542 C1541 1.349 . S
C1542 C1554 1.349 . S
C1543 C1541 1.327 . S
C1543 C1559 1.429 . S
C1543 H1565 0.950 . S
C1544 H1540 0.949 . S
C1544 C1552 1.574 . S
C1544 C1560 1.368 . S
H1545 C1553 0.950 . S
H1546 C1551 0.950 . S
H1547 C1552 0.949 . S
H1548 C1554 0.950 . S
H1549 C1555 0.950 . S
H1550 C1556 0.949 . S
C1551 H1546 0.950 . S
C1551 C1553 1.327 . S
C1551 C1557 1.429 . S
C1552 C1544 1.574 . S
C1552 H1547 0.949 . S
C1552 C1558 1.368 . S
C1553 C1537 1.349 . S
C1553 H1545 0.950 . S
C1553 C1551 1.327 . S
C1554 C1542 1.349 . S
C1554 H1548 0.950 . S
C1554 C1555 1.327 . S
C1555 H1549 0.950 . S
C1555 C1554 1.327 . S
C1555 C1559 1.429 . S
C1556 C1539 1.574 . S
C1556 H1550 0.949 . S
C1556 C1560 1.368 . S
C1557 C1538 1.429 . S
C1557 C1551 1.429 . S
C1557 C1558 1.523 . S
C1558 C1539 1.368 . S
C1558 C1552 1.368 . S
C1558 C1557 1.523 . S
C1559 C1543 1.429 . S
C1559 C1555 1.429 . S
C1559 C1560 1.523 . S
C1560 C1544 1.368 . S
C1560 C1556 1.368 . S
C1560 C1559 1.523 . S
H1561 C1536 0.950 . S
H1562 C1538 0.950 . S
H1563 C1539 0.949 . S
H1564 C1541 1.063 . S
H1565 C1543 0.950 . S
C1566 C1567 1.349 . S
C1566 C1568 1.327 . S
C1566 H1591 0.950 . S
C1567 C1566 1.349 . S
C1567 C1583 1.349 . S
C1568 C1566 1.327 . S
C1568 C1587 1.429 . S
C1568 H1592 0.950 . S
C1569 C1586 1.574 . S
C1569 C1588 1.368 . S
C1569 H1593 0.949 . S
H1570 C1574 0.949 . S
C1571 C1572 1.349 . S
C1571 C1573 1.327 . S
C1571 H1594 0.950 . S
C1572 C1571 1.349 . S
C1572 C1584 1.349 . S
C1573 C1571 1.327 . S
C1573 C1589 1.429 . S
C1573 H1595 0.950 . S
C1574 H1570 0.949 . S
C1574 C1582 1.574 . S
C1574 C1590 1.368 . S
H1575 C1583 0.950 . S
H1576 C1581 0.950 . S
H1577 C1582 0.949 . S
H1578 C1584 0.950 . S
H1579 C1585 0.950 . S
H1580 C1586 0.949 . S
C1581 H1576 0.950 . S
C1581 C1583 1.327 . S
C1581 C1587 1.429 . S
C1582 C1574 1.574 . S
C1582 H1577 0.949 . S
C1582 C1588 1.368 . S
C1583 C1567 1.349 . S
C1583 H1575 0.950 . S
C1583 C1581 1.327 . S
C1584 C1572 1.349 . S
C1584 H1578 0.950 . S
C1584 C1585 1.327 . S
C1585 H1579 0.950 . S
C1585 C1584 1.327 . S
C1585 C1589 1.429 . S
C1586 C1569 1.574 . S
C1586 H1580 0.949 . S
C1586 C1590 1.368 . S
C1587 C1568 1.429 . S
C1587 C1581 1.429 . S
C1587 C1588 1.523 . S
C1588 C1569 1.368 . S
C1588 C1582 1.368 . S
C1588 C1587 1.523 . S
C1589 C1573 1.429 . S
C1589 C1585 1.429 . S
C1589 C1590 1.523 . S
C1590 C1574 1.368 . S
C1590 C1586 1.368 . S
C1590 C1589 1.523 . S
H1591 C1566 0.950 . S
H1592 C1568 0.950 . S
H1593 C1569 0.949 . S
H1594 C1571 0.950 . S
H1595 C1573 0.950 . S
C1596 C1597 1.349 . S
C1596 C1598 1.327 . S
C1596 H1621 0.950 . S
C1597 C1596 1.349 . S
C1597 C1613 1.349 . S
C1598 C1596 1.327 . S
C1598 C1617 1.429 . S
C1598 H1622 0.950 . S
C1599 C1616 1.574 . S
C1599 C1618 1.368 . S
C1599 H1623 0.949 . S
H1600 C1604 0.949 . S
C1601 C1602 1.349 . S
C1601 C1603 1.327 . S
C1601 H1624 0.950 . S
C1602 C1601 1.349 . S
C1602 C1614 1.349 . S
C1603 C1601 1.327 . S
C1603 C1619 1.429 . S
C1603 H1625 0.950 . S
C1604 H1600 0.949 . S
C1604 C1612 1.574 . S
C1604 C1620 1.368 . S
H1605 C1613 0.950 . S
H1606 C1611 0.950 . S
H1607 C1612 0.949 . S
H1608 C1614 0.950 . S
H1609 C1615 0.950 . S
H1610 C1616 0.949 . S
C1611 H1606 0.950 . S
C1611 C1613 1.327 . S
C1611 C1617 1.429 . S
C1612 C1604 1.574 . S
C1612 H1607 0.949 . S
C1612 C1618 1.368 . S
C1613 C1597 1.349 . S
C1613 H1605 0.950 . S
C1613 C1611 1.327 . S
C1614 C1602 1.349 . S
C1614 H1608 0.950 . S
C1614 C1615 1.327 . S
C1615 H1609 0.950 . S
C1615 C1614 1.327 . S
C1615 C1619 1.429 . S
C1616 C1599 1.574 . S
C1616 H1610 0.949 . S
C1616 C1620 1.368 . S
C1617 C1598 1.429 . S
C1617 C1611 1.429 . S
C1617 C1618 1.523 . S
C1618 C1599 1.368 . S
C1618 C1612 1.368 . S
C1618 C1617 1.523 . S
C1619 C1603 1.429 . S
C1619 C1615 1.429 . S
C1619 C1620 1.523 . S
C1620 C1604 1.368 . S
C1620 C1616 1.368 . S
C1620 C1619 1.523 . S
H1621 C1596 0.950 . S
H1622 C1598 0.950 . S
H1623 C1599 0.949 . S
H1624 C1601 0.950 . S
H1625 C1603 0.950 . S
C1626 C1627 1.349 . S
C1626 C1628 1.327 . S
C1626 H1651 0.950 . S
C1627 C1626 1.349 . S
C1627 C1643 1.349 . S
C1628 C1626 1.327 . S
C1628 C1647 1.429 . S
C1628 H1652 0.950 . S
C1629 C1646 1.574 . S
C1629 C1648 1.368 . S
C1629 H1653 0.949 . S
H1630 C1634 0.949 . S
C1631 C1632 1.349 . S
C1631 C1633 1.327 . S
C1631 H1654 0.950 . S
C1632 C1631 1.349 . S
C1632 C1644 1.349 . S
C1633 C1631 1.327 . S
C1633 C1649 1.429 . S
C1633 H1655 0.950 . S
C1634 H1630 0.949 . S
C1634 C1642 1.574 . S
C1634 C1650 1.368 . S
H1635 C1643 0.950 . S
H1636 C1641 0.950 . S
H1637 C1642 0.949 . S
H1638 C1644 0.950 . S
H1639 C1645 0.950 . S
H1640 C1646 0.949 . S
C1641 H1636 0.950 . S
C1641 C1643 1.327 . S
C1641 C1647 1.429 . S
C1642 C1634 1.574 . S
C1642 H1637 0.949 . S
C1642 C1648 1.368 . S
C1643 C1627 1.349 . S
C1643 H1635 0.950 . S
C1643 C1641 1.327 . S
C1644 C1632 1.349 . S
C1644 H1638 0.950 . S
C1644 C1645 1.327 . S
C1645 H1639 0.950 . S
C1645 C1644 1.327 . S
C1645 C1649 1.429 . S
C1646 C1629 1.574 . S
C1646 H1640 0.949 . S
C1646 C1650 1.368 . S
C1647 C1628 1.429 . S
C1647 C1641 1.429 . S
C1647 C1648 1.523 . S
C1648 C1629 1.368 . S
C1648 C1642 1.368 . S
C1648 C1647 1.523 . S
C1649 C1633 1.429 . S
C1649 C1645 1.429 . S
C1649 C1650 1.523 . S
C1650 C1634 1.368 . S
C1650 C1646 1.368 . S
C1650 C1649 1.523 . S
H1651 C1626 0.950 . S
H1652 C1628 0.950 . S
H1653 C1629 0.949 . S
H1654 C1631 0.950 . S
H1655 C1633 0.950 . S
C1656 C1657 1.349 . S
C1656 C1658 1.327 . S
C1656 H1681 0.950 . S
C1657 C1656 1.349 . S
C1657 C1673 1.349 . S
C1658 C1656 1.327 . S
C1658 C1677 1.429 . S
C1658 H1682 0.950 . S
C1659 C1676 1.574 . S
C1659 C1678 1.368 . S
C1659 H1683 0.949 . S
H1660 C1664 0.949 . S
C1661 C1662 1.349 . S
C1661 C1663 1.327 . S
C1661 H1684 0.950 . S
C1662 C1661 1.349 . S
C1662 C1674 1.349 . S
C1663 C1661 1.327 . S
C1663 C1679 1.429 . S
C1663 H1685 0.950 . S
C1664 H1660 0.949 . S
C1664 C1672 1.574 . S
C1664 C1680 1.368 . S
H1665 C1673 0.950 . S
H1666 C1671 0.950 . S
H1667 C1672 0.949 . S
H1668 C1674 0.950 . S
H1669 C1675 0.950 . S
H1670 C1676 0.949 . S
C1671 H1666 0.950 . S
C1671 C1673 1.327 . S
C1671 C1677 1.429 . S
C1672 C1664 1.574 . S
C1672 H1667 0.949 . S
C1672 C1678 1.368 . S
C1673 C1657 1.349 . S
C1673 H1665 0.950 . S
C1673 C1671 1.327 . S
C1674 C1662 1.349 . S
C1674 H1668 0.950 . S
C1674 C1675 1.327 . S
C1675 H1669 0.950 . S
C1675 C1674 1.327 . S
C1675 C1679 1.429 . S
C1676 C1659 1.574 . S
C1676 H1670 0.949 . S
C1676 C1680 1.368 . S
C1677 C1658 1.429 . S
C1677 C1671 1.429 . S
C1677 C1678 1.523 . S
C1678 C1659 1.368 . S
C1678 C1672 1.368 . S
C1678 C1677 1.523 . S
C1679 C1663 1.429 . S
C1679 C1675 1.429 . S
C1679 C1680 1.523 . S
C1680 C1664 1.368 . S
C1680 C1676 1.368 . S
C1680 C1679 1.523 . S
H1681 C1656 0.950 . S
H1682 C1658 0.950 . S
H1683 C1659 0.949 . S
H1684 C1661 0.950 . S
H1685 C1663 0.950 . S
C1686 C1687 1.349 . S
C1686 C1688 1.327 . S
C1686 H1711 0.950 . S
C1687 C1686 1.349 . S
C1687 C1703 1.349 . S
C1688 C1686 1.327 . S
C1688 C1707 1.429 . S
C1688 H1712 0.950 . S
C1689 C1706 1.574 . S
C1689 C1708 1.368 . S
C1689 H1713 0.949 . S
H1690 C1694 0.949 . S
C1691 C1692 1.349 . S
C1691 C1693 1.327 . S
C1691 H1714 0.950 . S
C1692 C1691 1.349 . S
C1692 C1704 1.349 . S
C1693 C1691 1.327 . S
C1693 C1709 1.429 . S
C1693 H1715 0.950 . S
C1694 H1690 0.949 . S
C1694 C1702 1.574 . S
C1694 C1710 1.368 . S
H1695 C1703 0.950 . S
H1696 C1701 0.950 . S
H1697 C1702 0.949 . S
H1698 C1704 0.950 . S
H1699 C1705 0.950 . S
H1700 C1706 0.949 . S
C1701 H1696 0.950 . S
C1701 C1703 1.327 . S
C1701 C1707 1.429 . S
C1702 C1694 1.574 . S
C1702 H1697 0.949 . S
C1702 C1708 1.368 . S
C1703 C1687 1.349 . S
C1703 H1695 0.950 . S
C1703 C1701 1.327 . S
C1704 C1692 1.349 . S
C1704 H1698 0.950 . S
C1704 C1705 1.327 . S
C1705 H1699 0.950 . S
C1705 C1704 1.327 . S
C1705 C1709 1.429 . S
C1706 C1689 1.574 . S
C1706 H1700 0.949 . S
C1706 C1710 1.368 . S
C1707 C1688 1.429 . S
C1707 C1701 1.429 . S
C1707 C1708 1.523 . S
C1708 C1689 1.368 . S
C1708 C1702 1.368 . S
C1708 C1707 1.523 . S
C1709 C1693 1.429 . S
C1709 C1705 1.429 . S
C1709 C1710 1.523 . S
C1710 C1694 1.368 . S
C1710 C1706 1.368 . S
C1710 C1709 1.523 . S
H1711 C1686 0.950 . S
H1712 C1688 0.950 . S
H1713 C1689 0.949 . S
H1714 C1691 0.950 . S
H1715 C1693 0.950 . S
C1716 C1717 1.349 . S
C1716 C1718 1.327 . S
C1716 H1741 0.950 . S
C1717 C1716 1.349 . S
C1717 C1733 1.349 . S
C1718 C1716 1.327 . S
C1718 C1737 1.429 . S
C1718 H1742 0.950 . S
C1719 C1736 1.574 . S
C1719 C1738 1.368 . S
C1719 H1743 0.949 . S
H1720 C1724 0.949 . S
C1721 C1722 1.349 . S
C1721 C1723 1.327 . S
C1721 H1744 0.950 . S
C1722 C1721 1.349 . S
C1722 C1734 1.349 . S
C1723 C1721 1.327 . S
C1723 C1739 1.429 . S
C1723 H1745 0.950 . S
C1724 H1720 0.949 . S
C1724 C1732 1.574 . S
C1724 C1740 1.368 . S
H1725 C1733 0.950 . S
H1726 C1731 0.950 . S
H1727 C1732 0.949 . S
H1728 C1734 0.950 . S
H1729 C1735 0.950 . S
H1730 C1736 0.949 . S
C1731 H1726 0.950 . S
C1731 C1733 1.327 . S
C1731 C1737 1.429 . S
C1732 C1724 1.574 . S
C1732 H1727 0.949 . S
C1732 C1738 1.368 . S
C1733 C1717 1.349 . S
C1733 H1725 0.950 . S
C1733 C1731 1.327 . S
C1734 C1722 1.349 . S
C1734 H1728 0.950 . S
C1734 C1735 1.327 . S
C1735 H1729 0.950 . S
C1735 C1734 1.327 . S
C1735 C1739 1.429 . S
C1736 C1719 1.574 . S
C1736 H1730 0.949 . S
C1736 C1740 1.368 . S
C1737 C1718 1.429 . S
C1737 C1731 1.429 . S
C1737 C1738 1.523 . S
C1738 C1719 1.368 . S
C1738 C1732 1.368 . S
C1738 C1737 1.523 . S
C1739 C1723 1.429 . S
C1739 C1735 1.429 . S
C1739 C1740 1.523 . S
C1740 C1724 1.368 . S
C1740 C1736 1.368 . S
C1740 C1739 1.523 . S
H1741 C1716 0.950 . S
H1742 C1718 0.950 . S
H1743 C1719 0.949 . S
H1744 C1721 0.950 . S
H1745 C1723 0.950 . S
C1746 C1747 1.349 . S
C1746 C1748 1.327 . S
C1746 H1771 0.950 1_545 S
C1747 C1746 1.349 . S
C1747 C1763 1.349 . S
C1748 C1746 1.327 . S
C1748 C1767 1.429 . S
C1748 H1772 0.950 1_545 S
C1749 C1766 1.574 . S
C1749 C1768 1.368 . S
C1749 H1773 0.949 . S
H1750 C1754 0.961 . S
C1751 C1752 1.349 . S
C1751 C1753 1.327 . S
C1751 H1774 0.950 . S
C1752 C1751 1.349 . S
C1752 C1764 1.349 . S
C1753 C1751 1.327 . S
C1753 C1769 1.429 . S
C1753 H1775 0.950 . S
C1754 H1750 0.961 . S
C1754 C1762 1.574 . S
C1754 C1770 1.368 . S
H1755 C1763 0.950 . S
H1756 C1761 0.950 . S
H1757 C1762 0.949 1_565 S
H1758 C1764 0.950 . S
H1759 C1765 0.950 . S
H1760 C1766 0.949 . S
C1761 H1756 0.950 . S
C1761 C1763 1.327 . S
C1761 C1767 1.429 . S
C1762 C1754 1.574 . S
C1762 H1757 0.949 1_545 S
C1762 C1768 1.368 . S
C1763 C1747 1.349 . S
C1763 H1755 0.950 . S
C1763 C1761 1.327 . S
C1764 C1752 1.349 . S
C1764 H1758 0.950 . S
C1764 C1765 1.327 . S
C1765 H1759 0.950 . S
C1765 C1764 1.327 . S
C1765 C1769 1.429 . S
C1766 C1749 1.574 . S
C1766 H1760 0.949 . S
C1766 C1770 1.368 . S
C1767 C1748 1.429 . S
C1767 C1761 1.429 . S
C1767 C1768 1.523 . S
C1768 C1749 1.368 . S
C1768 C1762 1.368 . S
C1768 C1767 1.523 . S
C1769 C1753 1.429 . S
C1769 C1765 1.429 . S
C1769 C1770 1.523 . S
C1770 C1754 1.368 . S
C1770 C1766 1.368 . S
C1770 C1769 1.523 . S
H1771 C1746 0.950 1_565 S
H1772 C1748 0.950 1_565 S
H1773 C1749 0.949 . S
H1774 C1751 0.950 . S
H1775 C1753 0.950 . S
C1776 C1777 1.349 1_455 S
C1776 C1778 1.327 . S
C1776 H1801 0.950 . S
C1777 C1776 1.349 1_655 S
C1777 C1793 1.349 . S
C1778 C1776 1.327 . S
C1778 C1797 1.429 1_455 S
C1778 H1802 0.950 . S
C1779 C1796 1.574 . S
C1779 C1798 1.368 . S
C1779 H1803 0.949 . S
H1780 C1784 0.949 . S
C1781 C1782 1.349 . S
C1781 C1783 1.327 . S
C1781 H1804 0.950 . S
C1782 C1781 1.349 . S
C1782 C1794 1.349 1_655 S
C1783 C1781 1.327 . S
C1783 C1799 1.429 . S
C1783 H1805 0.950 . S
C1784 H1780 0.949 . S
C1784 C1792 1.574 . S
C1784 C1800 1.368 1_455 S
H1785 C1793 0.950 . S
H1786 C1791 0.950 . S
H1787 C1792 0.949 . S
H1788 C1794 0.950 . S
H1789 C1795 0.950 . S
H1790 C1796 0.949 . S
C1791 H1786 0.950 . S
C1791 C1793 1.327 . S
C1791 C1797 1.429 . S
C1792 C1784 1.574 . S
C1792 H1787 0.949 . S
C1792 C1798 1.368 1_455 S
C1793 C1777 1.349 . S
C1793 H1785 0.950 . S
C1793 C1791 1.327 . S
C1794 C1782 1.349 1_455 S
C1794 H1788 0.950 . S
C1794 C1795 1.327 . S
C1795 H1789 0.950 . S
C1795 C1794 1.327 . S
C1795 C1799 1.429 1_455 S
C1796 C1779 1.574 . S
C1796 H1790 0.949 . S
C1796 C1800 1.368 . S
C1797 C1778 1.429 1_655 S
C1797 C1791 1.429 . S
C1797 C1798 1.523 . S
C1798 C1779 1.368 . S
C1798 C1792 1.368 1_655 S
C1798 C1797 1.523 . S
C1799 C1783 1.429 . S
C1799 C1795 1.429 1_655 S
C1799 C1800 1.523 . S
C1800 C1784 1.368 1_655 S
C1800 C1796 1.368 . S
C1800 C1799 1.523 . S
H1801 C1776 0.950 . S
H1802 C1778 0.950 . S
H1803 C1779 0.949 . S
H1804 C1781 0.950 . S
H1805 C1783 0.950 . S
C1806 C1807 1.349 . S
C1806 C1808 1.327 . S
C1806 H1831 0.950 . S
C1807 C1806 1.349 . S
C1807 C1823 1.349 . S
C1808 C1806 1.327 . S
C1808 C1827 1.429 . S
C1808 H1832 0.950 . S
C1809 C1826 1.574 . S
C1809 C1828 1.368 . S
C1809 H1833 0.949 . S
H1810 C1814 0.949 . S
C1811 C1812 1.349 . S
C1811 C1813 1.327 . S
C1811 H1834 0.950 . S
C1812 C1811 1.349 . S
C1812 C1824 1.349 . S
C1813 C1811 1.327 . S
C1813 C1829 1.429 . S
C1813 H1835 0.950 . S
C1814 H1810 0.949 . S
C1814 C1822 1.574 . S
C1814 C1830 1.368 . S
H1815 C1823 0.950 . S
H1816 C1821 0.950 . S
H1817 C1822 0.949 . S
H1818 C1824 0.950 . S
H1819 C1825 0.950 . S
H1820 C1826 0.949 . S
C1821 H1816 0.950 . S
C1821 C1823 1.327 . S
C1821 C1827 1.429 . S
C1822 C1814 1.574 . S
C1822 H1817 0.949 . S
C1822 C1828 1.368 . S
C1823 C1807 1.349 . S
C1823 H1815 0.950 . S
C1823 C1821 1.327 . S
C1824 C1812 1.349 . S
C1824 H1818 0.950 . S
C1824 C1825 1.327 . S
C1825 H1819 0.950 . S
C1825 C1824 1.327 . S
C1825 C1829 1.429 . S
C1826 C1809 1.574 . S
C1826 H1820 0.949 . S
C1826 C1830 1.368 . S
C1827 C1808 1.429 . S
C1827 C1821 1.429 . S
C1827 C1828 1.523 . S
C1828 C1809 1.368 . S
C1828 C1822 1.368 . S
C1828 C1827 1.523 . S
C1829 C1813 1.429 . S
C1829 C1825 1.429 . S
C1829 C1830 1.523 . S
C1830 C1814 1.368 . S
C1830 C1826 1.368 . S
C1830 C1829 1.523 . S
H1831 C1806 0.950 . S
H1832 C1808 0.950 . S
H1833 C1809 0.949 . S
H1834 C1811 0.950 . S
H1835 C1813 0.950 . S
C1836 C1837 1.349 . S
C1836 C1838 1.327 . S
C1836 H1861 0.950 . S
C1837 C1836 1.349 . S
C1837 C1853 1.349 . S
C1838 C1836 1.327 . S
C1838 C1857 1.429 . S
C1838 H1862 0.950 . S
C1839 C1856 1.574 . S
C1839 C1858 1.368 . S
C1839 H1863 0.949 . S
H1840 C1844 0.949 . S
C1841 C1842 1.349 . S
C1841 C1843 1.327 . S
C1841 H1864 0.950 1_455 S
C1842 C1841 1.349 . S
C1842 C1854 1.349 . S
C1843 C1841 1.327 . S
C1843 C1859 1.429 . S
C1843 H1865 0.921 1_455 S
C1844 H1840 0.949 . S
C1844 C1852 1.574 . S
C1844 C1860 1.368 . S
H1845 C1853 0.950 . S
H1846 C1851 0.950 . S
H1847 C1852 0.949 . S
H1848 C1854 0.950 . S
H1849 C1855 0.950 . S
H1850 C1856 0.951 . S
C1851 H1846 0.950 . S
C1851 C1853 1.327 . S
C1851 C1857 1.429 . S
C1852 C1844 1.574 . S
C1852 H1847 0.949 . S
C1852 C1858 1.368 . S
C1853 C1837 1.349 . S
C1853 H1845 0.950 . S
C1853 C1851 1.327 . S
C1854 C1842 1.349 . S
C1854 H1848 0.950 . S
C1854 C1855 1.327 . S
C1855 H1849 0.950 . S
C1855 C1854 1.327 . S
C1855 C1859 1.429 . S
C1856 C1839 1.574 . S
C1856 H1850 0.951 . S
C1856 C1860 1.368 . S
C1857 C1838 1.429 . S
C1857 C1851 1.429 . S
C1857 C1858 1.523 . S
C1858 C1839 1.368 . S
C1858 C1852 1.368 . S
C1858 C1857 1.523 . S
C1859 C1843 1.429 . S
C1859 C1855 1.429 . S
C1859 C1860 1.523 . S
C1860 C1844 1.368 . S
C1860 C1856 1.368 . S
C1860 C1859 1.523 . S
H1861 C1836 0.950 . S
H1862 C1838 0.950 . S
H1863 C1839 0.949 . S
H1864 C1841 0.950 1_655 S
H1865 C1843 0.921 1_655 S
C1866 C1867 1.349 . S
C1866 C1868 1.327 . S
C1866 H1891 0.950 . S
C1867 C1866 1.349 . S
C1867 C1883 1.349 . S
C1868 C1866 1.327 . S
C1868 C1887 1.429 . S
C1868 H1892 0.950 . S
C1869 C1886 1.574 . S
C1869 C1888 1.368 . S
C1869 H1893 0.949 . S
H1870 C1874 0.949 . S
C1871 C1872 1.349 . S
C1871 C1873 1.327 . S
C1871 H1894 0.950 . S
C1872 C1871 1.349 . S
C1872 C1884 1.349 . S
C1873 C1871 1.327 . S
C1873 C1889 1.429 . S
C1873 H1895 0.950 . S
C1874 H1870 0.949 . S
C1874 C1882 1.574 . S
C1874 C1890 1.368 . S
H1875 C1883 0.950 . S
H1876 C1881 0.950 . S
H1877 C1882 0.949 . S
H1878 C1884 0.950 . S
H1879 C1885 0.950 . S
H1880 C1886 0.949 . S
C1881 H1876 0.950 . S
C1881 C1883 1.327 . S
C1881 C1887 1.429 . S
C1882 C1874 1.574 . S
C1882 H1877 0.949 . S
C1882 C1888 1.368 . S
C1883 C1867 1.349 . S
C1883 H1875 0.950 . S
C1883 C1881 1.327 . S
C1884 C1872 1.349 . S
C1884 H1878 0.950 . S
C1884 C1885 1.327 . S
C1885 H1879 0.950 . S
C1885 C1884 1.327 . S
C1885 C1889 1.429 . S
C1886 C1869 1.574 . S
C1886 H1880 0.949 . S
C1886 C1890 1.368 . S
C1887 C1868 1.429 . S
C1887 C1881 1.429 . S
C1887 C1888 1.523 . S
C1888 C1869 1.368 . S
C1888 C1882 1.368 . S
C1888 C1887 1.523 . S
C1889 C1873 1.429 . S
C1889 C1885 1.429 . S
C1889 C1890 1.523 . S
C1890 C1874 1.368 . S
C1890 C1886 1.368 . S
C1890 C1889 1.523 . S
H1891 C1866 0.950 . S
H1892 C1868 0.950 . S
H1893 C1869 0.949 . S
H1894 C1871 0.950 . S
H1895 C1873 0.950 . S
C1896 C1897 1.349 1_565 S
C1896 C1898 1.327 . S
C1896 H1921 0.950 . S
C1897 C1896 1.349 1_545 S
C1897 C1913 1.349 . S
C1898 C1896 1.327 . S
C1898 C1917 1.429 1_565 S
C1898 H1922 0.950 . S
C1899 C1916 1.574 . S
C1899 C1918 1.368 . S
C1899 H1923 0.949 . S
H1900 C1904 0.949 . S
C1901 C1902 1.349 . S
C1901 C1903 1.327 . S
C1901 H1924 0.950 . S
C1902 C1901 1.349 . S
C1902 C1914 1.349 1_545 S
C1903 C1901 1.327 . S
C1903 C1919 1.429 . S
C1903 H1925 0.950 . S
C1904 H1900 0.949 . S
C1904 C1912 1.574 . S
C1904 C1920 1.368 1_565 S
H1905 C1913 0.950 . S
H1906 C1911 0.950 . S
H1907 C1912 0.949 . S
H1908 C1914 0.950 . S
H1909 C1915 0.950 . S
H1910 C1916 0.949 . S
C1911 H1906 0.950 . S
C1911 C1913 1.327 . S
C1911 C1917 1.429 . S
C1912 C1904 1.574 . S
C1912 H1907 0.949 . S
C1912 C1918 1.368 1_565 S
C1913 C1897 1.349 . S
C1913 H1905 0.950 . S
C1913 C1911 1.327 . S
C1914 C1902 1.349 1_565 S
C1914 H1908 0.950 . S
C1914 C1915 1.327 . S
C1915 H1909 0.950 . S
C1915 C1914 1.327 . S
C1915 C1919 1.429 1_565 S
C1916 C1899 1.574 . S
C1916 H1910 0.949 . S
C1916 C1920 1.368 . S
C1917 C1898 1.429 1_545 S
C1917 C1911 1.429 . S
C1917 C1918 1.523 . S
C1918 C1899 1.368 . S
C1918 C1912 1.368 1_545 S
C1918 C1917 1.523 . S
C1919 C1903 1.429 . S
C1919 C1915 1.429 1_545 S
C1919 C1920 1.523 . S
C1920 C1904 1.368 1_545 S
C1920 C1916 1.368 . S
C1920 C1919 1.523 . S
H1921 C1896 0.950 . S
H1922 C1898 0.950 . S
H1923 C1899 0.949 . S
H1924 C1901 0.950 . S
H1925 C1903 0.950 . S
C1926 C1927 1.349 . S
C1926 C1928 1.327 . S
C1926 H1951 0.950 . S
C1927 C1926 1.349 . S
C1927 C1943 1.349 1_545 S
C1928 C1926 1.327 . S
C1928 C1947 1.429 . S
C1928 H1952 0.950 . S
C1929 C1946 1.574 . S
C1929 C1948 1.368 1_565 S
C1929 H1953 0.949 . S
H1930 C1934 0.949 . S
C1931 C1932 1.352 . S
C1931 C1933 1.327 . S
C1931 H1954 0.950 . S
C1932 C1931 1.352 . S
C1932 C1944 1.340 1_565 S
C1933 C1931 1.327 . S
C1933 C1949 1.429 1_565 S
C1933 H1955 0.950 . S
C1934 H1930 0.949 . S
C1934 C1942 1.574 . S
C1934 C1950 1.368 . S
H1935 C1943 0.950 . S
H1936 C1941 0.950 . S
H1937 C1942 0.949 . S
H1938 C1944 0.950 . S
H1939 C1945 0.950 . S
H1940 C1946 0.949 . S
C1941 H1936 0.950 . S
C1941 C1943 1.327 . S
C1941 C1947 1.429 1_565 S
C1942 C1934 1.574 . S
C1942 H1937 0.949 . S
C1942 C1948 1.368 . S
C1943 C1927 1.349 1_565 S
C1943 H1935 0.950 . S
C1943 C1941 1.327 . S
C1944 C1932 1.340 1_545 S
C1944 H1938 0.950 . S
C1944 C1945 1.327 . S
C1945 H1939 0.950 . S
C1945 C1944 1.327 . S
C1945 C1949 1.429 . S
C1946 C1929 1.574 . S
C1946 H1940 0.949 . S
C1946 C1950 1.368 1_565 S
C1947 C1928 1.429 . S
C1947 C1941 1.429 1_545 S
C1947 C1948 1.523 . S
C1948 C1929 1.368 1_545 S
C1948 C1942 1.368 . S
C1948 C1947 1.523 . S
C1949 C1933 1.429 1_545 S
C1949 C1945 1.429 . S
C1949 C1950 1.523 . S
C1950 C1934 1.368 . S
C1950 C1946 1.368 1_545 S
C1950 C1949 1.523 . S
H1951 C1926 0.950 . S
H1952 C1928 0.950 . S
H1953 C1929 0.949 . S
H1954 C1931 0.950 . S
H1955 C1933 0.950 . S
C1956 C1957 1.349 . S
C1956 C1958 1.327 . S
C1956 H1981 0.950 . S
C1957 C1956 1.349 . S
C1957 C1973 1.349 . S
C1958 C1956 1.327 . S
C1958 C1977 1.429 . S
C1958 H1982 0.950 . S
C1959 C1976 1.574 . S
C1959 C1978 1.368 . S
C1959 H1983 0.949 . S
H1960 C1964 0.949 . S
C1961 C1962 1.349 . S
C1961 C1963 1.327 . S
C1961 H1984 0.950 . S
C1962 C1961 1.349 . S
C1962 C1974 1.349 . S
C1963 C1961 1.327 . S
C1963 C1979 1.429 . S
C1963 H1985 0.950 . S
C1964 H1960 0.949 . S
C1964 C1972 1.574 . S
C1964 C1980 1.368 . S
H1965 C1973 0.950 . S
H1966 C1971 0.950 . S
H1967 C1972 0.949 . S
H1968 C1974 0.956 . S
H1969 C1975 0.956 . S
H1970 C1976 0.949 . S
C1971 H1966 0.950 . S
C1971 C1973 1.327 . S
C1971 C1977 1.429 . S
C1972 C1964 1.574 . S
C1972 H1967 0.949 . S
C1972 C1978 1.368 . S
C1973 C1957 1.349 . S
C1973 H1965 0.950 . S
C1973 C1971 1.327 . S
C1974 C1962 1.349 . S
C1974 H1968 0.956 . S
C1974 C1975 1.327 . S
C1975 H1969 0.956 . S
C1975 C1974 1.327 . S
C1975 C1979 1.429 . S
C1976 C1959 1.574 . S
C1976 H1970 0.949 . S
C1976 C1980 1.368 . S
C1977 C1958 1.429 . S
C1977 C1971 1.429 . S
C1977 C1978 1.523 . S
C1978 C1959 1.368 . S
C1978 C1972 1.368 . S
C1978 C1977 1.523 . S
C1979 C1963 1.429 . S
C1979 C1975 1.429 . S
C1979 C1980 1.523 . S
C1980 C1964 1.368 . S
C1980 C1976 1.368 . S
C1980 C1979 1.523 . S
H1981 C1956 0.950 . S
H1982 C1958 0.950 . S
H1983 C1959 0.949 . S
H1984 C1961 0.950 . S
H1985 C1963 0.950 . S
C1986 C1987 1.349 . S
C1986 C1988 1.327 . S
C1986 H2011 0.950 . S
C1987 C1986 1.349 . S
C1987 C2003 1.349 . S
C1988 C1986 1.327 . S
C1988 C2007 1.429 . S
C1988 H2012 0.950 . S
C1989 C2006 1.574 . S
C1989 C2008 1.368 . S
C1989 H2013 0.949 . S
H1990 C1994 0.949 . S
C1991 C1992 1.349 . S
C1991 C1993 1.327 . S
C1991 H2014 0.950 . S
C1992 C1991 1.349 . S
C1992 C2004 1.349 . S
C1993 C1991 1.327 . S
C1993 C2009 1.429 . S
C1993 H2015 0.950 . S
C1994 H1990 0.949 . S
C1994 C2002 1.574 . S
C1994 C2010 1.368 . S
H1995 C2003 0.950 . S
H1996 C2001 0.950 . S
H1997 C2002 0.949 . S
H1998 C2004 0.950 . S
H1999 C2005 0.950 . S
H2000 C2006 0.949 . S
C2001 H1996 0.950 . S
C2001 C2003 1.327 . S
C2001 C2007 1.429 . S
C2002 C1994 1.574 . S
C2002 H1997 0.949 . S
C2002 C2008 1.368 . S
C2003 C1987 1.349 . S
C2003 H1995 0.950 . S
C2003 C2001 1.327 . S
C2004 C1992 1.349 . S
C2004 H1998 0.950 . S
C2004 C2005 1.327 . S
C2005 H1999 0.950 . S
C2005 C2004 1.327 . S
C2005 C2009 1.429 . S
C2006 C1989 1.574 . S
C2006 H2000 0.949 . S
C2006 C2010 1.368 . S
C2007 C1988 1.429 . S
C2007 C2001 1.429 . S
C2007 C2008 1.523 . S
C2008 C1989 1.368 . S
C2008 C2002 1.368 . S
C2008 C2007 1.523 . S
C2009 C1993 1.429 . S
C2009 C2005 1.429 . S
C2009 C2010 1.523 . S
C2010 C1994 1.368 . S
C2010 C2006 1.368 . S
C2010 C2009 1.523 . S
H2011 C1986 0.950 . S
H2012 C1988 0.950 . S
H2013 C1989 0.949 . S
H2014 C1991 0.950 . S
H2015 C1993 0.950 . S
C2016 C2017 1.353 . S
C2016 C2018 1.352 1_655 S
C2016 H2041 0.940 1_655 S
C2017 C2016 1.353 . S
C2017 C2033 1.349 . S
C2018 C2016 1.352 1_455 S
C2018 C2037 1.398 1_455 S
C2018 H2042 0.964 . S
C2019 C2036 1.574 . S
C2019 C2038 1.368 . S
C2019 H2043 0.949 . S
H2020 C2024 0.949 . S
C2021 C2022 1.349 . S
C2021 C2023 1.327 . S
C2021 H2044 0.950 . S
C2022 C2021 1.349 . S
C2022 C2034 1.349 1_655 S
C2023 C2021 1.327 . S
C2023 C2039 1.429 . S
C2023 H2045 0.950 . S
C2024 H2020 0.949 . S
C2024 C2032 1.574 . S
C2024 C2040 1.368 1_455 S
H2025 C2033 0.950 . S
H2026 C2031 0.950 . S
H2027 C2032 0.949 . S
H2028 C2034 0.950 . S
H2029 C2035 0.950 . S
H2030 C2036 0.949 . S
C2031 H2026 0.950 . S
C2031 C2033 1.327 . S
C2031 C2037 1.429 . S
C2032 C2024 1.574 . S
C2032 H2027 0.949 . S
C2032 C2038 1.368 1_455 S
C2033 C2017 1.349 . S
C2033 H2025 0.950 . S
C2033 C2031 1.327 . S
C2034 C2022 1.349 1_455 S
C2034 H2028 0.950 . S
C2034 C2035 1.327 . S
C2035 H2029 0.950 . S
C2035 C2034 1.327 . S
C2035 C2039 1.429 1_455 S
C2036 C2019 1.574 . S
C2036 H2030 0.949 . S
C2036 C2040 1.368 . S
C2037 C2018 1.398 1_655 S
C2037 C2031 1.429 . S
C2037 C2038 1.523 . S
C2038 C2019 1.368 . S
C2038 C2032 1.368 1_655 S
C2038 C2037 1.523 . S
C2039 C2023 1.429 . S
C2039 C2035 1.429 1_655 S
C2039 C2040 1.523 . S
C2040 C2024 1.368 1_655 S
C2040 C2036 1.368 . S
C2040 C2039 1.523 . S
H2041 C2016 0.940 1_455 S
H2042 C2018 0.964 . S
H2043 C2019 0.949 . S
H2044 C2021 0.950 . S
H2045 C2023 0.950 . S
C2046 C2047 1.349 . S
C2046 C2048 1.327 . S
C2046 H2071 0.950 . S
C2047 C2046 1.349 . S
C2047 C2063 1.349 . S
C2048 C2046 1.327 . S
C2048 C2067 1.429 . S
C2048 H2072 0.950 . S
C2049 C2066 1.574 . S
C2049 C2068 1.368 . S
C2049 H2073 0.949 . S
H2050 C2054 0.949 . S
C2051 C2052 1.349 . S
C2051 C2053 1.327 . S
C2051 H2074 0.950 . S
C2052 C2051 1.349 . S
C2052 C2064 1.349 . S
C2053 C2051 1.327 . S
C2053 C2069 1.429 . S
C2053 H2075 0.950 . S
C2054 H2050 0.949 . S
C2054 C2062 1.574 . S
C2054 C2070 1.368 . S
H2055 C2063 0.950 . S
H2056 C2061 0.950 . S
H2057 C2062 0.949 . S
H2058 C2064 0.950 . S
H2059 C2065 0.950 . S
H2060 C2066 0.949 . S
C2061 H2056 0.950 . S
C2061 C2063 1.327 . S
C2061 C2067 1.429 . S
C2062 C2054 1.574 . S
C2062 H2057 0.949 . S
C2062 C2068 1.368 . S
C2063 C2047 1.349 . S
C2063 H2055 0.950 . S
C2063 C2061 1.327 . S
C2064 C2052 1.349 . S
C2064 H2058 0.950 . S
C2064 C2065 1.327 . S
C2065 H2059 0.950 . S
C2065 C2064 1.327 . S
C2065 C2069 1.429 . S
C2066 C2049 1.574 . S
C2066 H2060 0.949 . S
C2066 C2070 1.368 . S
C2067 C2048 1.429 . S
C2067 C2061 1.429 . S
C2067 C2068 1.523 . S
C2068 C2049 1.368 . S
C2068 C2062 1.368 . S
C2068 C2067 1.523 . S
C2069 C2053 1.429 . S
C2069 C2065 1.429 . S
C2069 C2070 1.523 . S
C2070 C2054 1.368 . S
C2070 C2066 1.368 . S
C2070 C2069 1.523 . S
H2071 C2046 0.950 . S
H2072 C2048 0.950 . S
H2073 C2049 0.949 . S
H2074 C2051 0.950 . S
H2075 C2053 0.950 . S
C2076 C2077 1.349 . S
C2076 C2078 1.327 . S
C2076 H2101 0.950 . S
C2077 C2076 1.349 . S
C2077 C2093 1.349 . S
C2078 C2076 1.327 . S
C2078 C2097 1.429 . S
C2078 H2102 0.950 . S
C2079 C2096 1.574 . S
C2079 C2098 1.368 . S
C2079 H2103 0.949 . S
H2080 C2084 0.949 . S
C2081 C2082 1.349 . S
C2081 C2083 1.327 . S
C2081 H2104 0.950 . S
C2082 C2081 1.349 . S
C2082 C2094 1.349 . S
C2083 C2081 1.327 . S
C2083 C2099 1.429 . S
C2083 H2105 0.950 . S
C2084 H2080 0.949 . S
C2084 C2092 1.574 . S
C2084 C2100 1.368 . S
H2085 C2093 0.950 . S
H2086 C2091 0.950 . S
H2087 C2092 0.949 . S
H2088 C2094 0.950 . S
H2089 C2095 0.950 . S
H2090 C2096 0.949 . S
C2091 H2086 0.950 . S
C2091 C2093 1.327 . S
C2091 C2097 1.429 . S
C2092 C2084 1.574 . S
C2092 H2087 0.949 . S
C2092 C2098 1.368 . S
C2093 C2077 1.349 . S
C2093 H2085 0.950 . S
C2093 C2091 1.327 . S
C2094 C2082 1.349 . S
C2094 H2088 0.950 . S
C2094 C2095 1.327 . S
C2095 H2089 0.950 . S
C2095 C2094 1.327 . S
C2095 C2099 1.429 . S
C2096 C2079 1.574 . S
C2096 H2090 0.949 . S
C2096 C2100 1.368 . S
C2097 C2078 1.429 . S
C2097 C2091 1.429 . S
C2097 C2098 1.523 . S
C2098 C2079 1.368 . S
C2098 C2092 1.368 . S
C2098 C2097 1.523 . S
C2099 C2083 1.429 . S
C2099 C2095 1.429 . S
C2099 C2100 1.523 . S
C2100 C2084 1.368 . S
C2100 C2096 1.368 . S
C2100 C2099 1.523 . S
H2101 C2076 0.950 . S
H2102 C2078 0.950 . S
H2103 C2079 0.949 . S
H2104 C2081 0.950 . S
H2105 C2083 0.950 . S
C2106 C2107 1.349 . S
C2106 C2108 1.327 . S
C2106 H2131 0.950 . S
C2107 C2106 1.349 . S
C2107 C2123 1.349 . S
C2108 C2106 1.327 . S
C2108 C2127 1.429 . S
C2108 H2132 0.950 . S
C2109 C2126 1.574 . S
C2109 C2128 1.368 . S
C2109 H2133 0.949 . S
H2110 C2114 0.949 . S
C2111 C2112 1.349 . S
C2111 C2113 1.327 . S
C2111 H2134 0.950 . S
C2112 C2111 1.349 . S
C2112 C2124 1.349 . S
C2113 C2111 1.327 . S
C2113 C2129 1.429 . S
C2113 H2135 0.950 . S
C2114 H2110 0.949 . S
C2114 C2122 1.574 . S
C2114 C2130 1.368 . S
H2115 C2123 0.950 . S
H2116 C2121 0.950 . S
H2117 C2122 0.949 . S
H2118 C2124 0.950 . S
H2119 C2125 0.950 . S
H2120 C2126 0.949 . S
C2121 H2116 0.950 . S
C2121 C2123 1.327 . S
C2121 C2127 1.429 . S
C2122 C2114 1.574 . S
C2122 H2117 0.949 . S
C2122 C2128 1.368 . S
C2123 C2107 1.349 . S
C2123 H2115 0.950 . S
C2123 C2121 1.327 . S
C2124 C2112 1.349 . S
C2124 H2118 0.950 . S
C2124 C2125 1.327 . S
C2125 H2119 0.950 . S
C2125 C2124 1.327 . S
C2125 C2129 1.429 . S
C2126 C2109 1.574 . S
C2126 H2120 0.949 . S
C2126 C2130 1.368 . S
C2127 C2108 1.429 . S
C2127 C2121 1.429 . S
C2127 C2128 1.523 . S
C2128 C2109 1.368 . S
C2128 C2122 1.368 . S
C2128 C2127 1.523 . S
C2129 C2113 1.429 . S
C2129 C2125 1.429 . S
C2129 C2130 1.523 . S
C2130 C2114 1.368 . S
C2130 C2126 1.368 . S
C2130 C2129 1.523 . S
H2131 C2106 0.950 . S
H2132 C2108 0.950 . S
H2133 C2109 0.949 . S
H2134 C2111 0.950 . S
H2135 C2113 0.950 . S
C2136 C2137 1.349 . S
C2136 C2138 1.327 . S
C2136 H2161 0.950 . S
C2137 C2136 1.349 . S
C2137 C2153 1.349 . S
C2138 C2136 1.327 . S
C2138 C2157 1.429 . S
C2138 H2162 0.950 . S
C2139 C2156 1.574 . S
C2139 C2158 1.368 . S
C2139 H2163 0.949 . S
H2140 C2144 0.949 . S
C2141 C2142 1.349 . S
C2141 C2143 1.327 . S
C2141 H2164 0.950 . S
C2142 C2141 1.349 . S
C2142 C2154 1.349 . S
C2143 C2141 1.327 . S
C2143 C2159 1.429 . S
C2143 H2165 0.950 . S
C2144 H2140 0.949 . S
C2144 C2152 1.574 . S
C2144 C2160 1.368 . S
H2145 C2153 0.950 . S
H2146 C2151 0.950 . S
H2147 C2152 0.949 . S
H2148 C2154 0.950 . S
H2149 C2155 0.950 . S
H2150 C2156 0.949 . S
C2151 H2146 0.950 . S
C2151 C2153 1.327 . S
C2151 C2157 1.429 . S
C2152 C2144 1.574 . S
C2152 H2147 0.949 . S
C2152 C2158 1.368 . S
C2153 C2137 1.349 . S
C2153 H2145 0.950 . S
C2153 C2151 1.327 . S
C2154 C2142 1.349 . S
C2154 H2148 0.950 . S
C2154 C2155 1.327 . S
C2155 H2149 0.950 . S
C2155 C2154 1.327 . S
C2155 C2159 1.429 . S
C2156 C2139 1.574 . S
C2156 H2150 0.949 . S
C2156 C2160 1.368 . S
C2157 C2138 1.429 . S
C2157 C2151 1.429 . S
C2157 C2158 1.523 . S
C2158 C2139 1.368 . S
C2158 C2152 1.368 . S
C2158 C2157 1.523 . S
C2159 C2143 1.429 . S
C2159 C2155 1.429 . S
C2159 C2160 1.523 . S
C2160 C2144 1.368 . S
C2160 C2156 1.368 . S
C2160 C2159 1.523 . S
H2161 C2136 0.950 . S
H2162 C2138 0.950 . S
H2163 C2139 0.949 . S
H2164 C2141 0.950 . S
H2165 C2143 0.950 . S
C2166 C2167 1.349 . S
C2166 C2168 1.327 . S
C2166 H2191 0.950 . S
C2167 C2166 1.349 . S
C2167 C2183 1.349 . S
C2168 C2166 1.327 . S
C2168 C2187 1.429 . S
C2168 H2192 0.950 . S
C2169 C2186 1.574 . S
C2169 C2188 1.368 . S
C2169 H2193 0.949 . S
H2170 C2174 0.949 . S
C2171 C2172 1.349 . S
C2171 C2173 1.327 . S
C2171 H2194 0.950 . S
C2172 C2171 1.349 . S
C2172 C2184 1.349 . S
C2173 C2171 1.327 . S
C2173 C2189 1.429 . S
C2173 H2195 0.950 . S
C2174 H2170 0.949 . S
C2174 C2182 1.574 . S
C2174 C2190 1.368 . S
H2175 C2183 0.950 . S
H2176 C2181 0.950 . S
H2177 C2182 0.949 . S
H2178 C2184 0.950 . S
H2179 C2185 0.950 . S
H2180 C2186 0.949 . S
C2181 H2176 0.950 . S
C2181 C2183 1.327 . S
C2181 C2187 1.429 . S
C2182 C2174 1.574 . S
C2182 H2177 0.949 . S
C2182 C2188 1.368 . S
C2183 C2167 1.349 . S
C2183 H2175 0.950 . S
C2183 C2181 1.327 . S
C2184 C2172 1.349 . S
C2184 H2178 0.950 . S
C2184 C2185 1.327 . S
C2185 H2179 0.950 . S
C2185 C2184 1.327 . S
C2185 C2189 1.429 . S
C2186 C2169 1.574 . S
C2186 H2180 0.949 . S
C2186 C2190 1.368 . S
C2187 C2168 1.429 . S
C2187 C2181 1.429 . S
C2187 C2188 1.523 . S
C2188 C2169 1.368 . S
C2188 C2182 1.368 . S
C2188 C2187 1.523 . S
C2189 C2173 1.429 . S
C2189 C2185 1.429 . S
C2189 C2190 1.523 . S
C2190 C2174 1.368 . S
C2190 C2186 1.368 . S
C2190 C2189 1.523 . S
H2191 C2166 0.950 . S
H2192 C2168 0.950 . S
H2193 C2169 0.949 . S
H2194 C2171 0.950 . S
H2195 C2173 0.950 . S
C2196 C2197 1.349 . S
C2196 C2198 1.327 . S
C2196 H2221 0.950 . S
C2197 C2196 1.349 . S
C2197 C2213 1.349 . S
C2198 C2196 1.327 . S
C2198 C2217 1.429 . S
C2198 H2222 0.950 . S
C2199 C2216 1.574 . S
C2199 C2218 1.368 . S
C2199 H2223 0.949 . S
H2200 C2204 0.949 . S
C2201 C2202 1.349 . S
C2201 C2203 1.327 . S
C2201 H2224 0.950 . S
C2202 C2201 1.349 . S
C2202 C2214 1.349 . S
C2203 C2201 1.327 . S
C2203 C2219 1.429 . S
C2203 H2225 0.950 . S
C2204 H2200 0.949 . S
C2204 C2212 1.574 . S
C2204 C2220 1.368 . S
H2205 C2213 0.950 . S
H2206 C2211 0.950 . S
H2207 C2212 0.949 . S
H2208 C2214 0.950 . S
H2209 C2215 0.950 . S
H2210 C2216 0.949 . S
C2211 H2206 0.950 . S
C2211 C2213 1.327 . S
C2211 C2217 1.429 . S
C2212 C2204 1.574 . S
C2212 H2207 0.949 . S
C2212 C2218 1.368 . S
C2213 C2197 1.349 . S
C2213 H2205 0.950 . S
C2213 C2211 1.327 . S
C2214 C2202 1.349 . S
C2214 H2208 0.950 . S
C2214 C2215 1.327 . S
C2215 H2209 0.950 . S
C2215 C2214 1.327 . S
C2215 C2219 1.429 . S
C2216 C2199 1.574 . S
C2216 H2210 0.949 . S
C2216 C2220 1.368 . S
C2217 C2198 1.429 . S
C2217 C2211 1.429 . S
C2217 C2218 1.523 . S
C2218 C2199 1.368 . S
C2218 C2212 1.368 . S
C2218 C2217 1.523 . S
C2219 C2203 1.429 . S
C2219 C2215 1.429 . S
C2219 C2220 1.523 . S
C2220 C2204 1.368 . S
C2220 C2216 1.368 . S
C2220 C2219 1.523 . S
H2221 C2196 0.950 . S
H2222 C2198 0.950 . S
H2223 C2199 0.949 . S
H2224 C2201 0.950 . S
H2225 C2203 0.950 . S
C2226 C2227 1.349 . S
C2226 C2228 1.327 . S
C2226 H2251 0.950 . S
C2227 C2226 1.349 . S
C2227 C2243 1.349 . S
C2228 C2226 1.327 . S
C2228 C2247 1.429 . S
C2228 H2252 0.950 . S
C2229 C2246 1.574 . S
C2229 C2248 1.368 . S
C2229 H2253 0.949 . S
H2230 C2234 0.949 . S
C2231 C2232 1.349 . S
C2231 C2233 1.327 . S
C2231 H2254 0.950 . S
C2232 C2231 1.349 . S
C2232 C2244 1.349 . S
C2233 C2231 1.327 . S
C2233 C2249 1.429 . S
C2233 H2255 0.950 . S
C2234 H2230 0.949 . S
C2234 C2242 1.574 . S
C2234 C2250 1.368 . S
H2235 C2243 0.950 . S
H2236 C2241 0.950 . S
H2237 C2242 0.949 . S
H2238 C2244 0.950 . S
H2239 C2245 0.950 . S
H2240 C2246 0.949 . S
C2241 H2236 0.950 . S
C2241 C2243 1.327 . S
C2241 C2247 1.429 . S
C2242 C2234 1.574 . S
C2242 H2237 0.949 . S
C2242 C2248 1.368 . S
C2243 C2227 1.349 . S
C2243 H2235 0.950 . S
C2243 C2241 1.327 . S
C2244 C2232 1.349 . S
C2244 H2238 0.950 . S
C2244 C2245 1.327 . S
C2245 H2239 0.950 . S
C2245 C2244 1.327 . S
C2245 C2249 1.429 . S
C2246 C2229 1.574 . S
C2246 H2240 0.949 . S
C2246 C2250 1.368 . S
C2247 C2228 1.429 . S
C2247 C2241 1.429 . S
C2247 C2248 1.523 . S
C2248 C2229 1.368 . S
C2248 C2242 1.368 . S
C2248 C2247 1.523 . S
C2249 C2233 1.429 . S
C2249 C2245 1.429 . S
C2249 C2250 1.523 . S
C2250 C2234 1.368 . S
C2250 C2246 1.368 . S
C2250 C2249 1.523 . S
H2251 C2226 0.950 . S
H2252 C2228 0.950 . S
H2253 C2229 0.949 . S
H2254 C2231 0.950 . S
H2255 C2233 0.950 . S
C2256 C2257 1.349 . S
C2256 C2258 1.327 . S
C2256 H2281 0.950 . S
C2257 C2256 1.349 . S
C2257 C2273 1.349 . S
C2258 C2256 1.327 . S
C2258 C2277 1.429 . S
C2258 H2282 0.950 . S
C2259 C2276 1.574 . S
C2259 C2278 1.368 . S
C2259 H2283 0.949 . S
H2260 C2264 0.949 . S
C2261 C2262 1.349 . S
C2261 C2263 1.327 . S
C2261 H2284 0.950 . S
C2262 C2261 1.349 . S
C2262 C2274 1.349 . S
C2263 C2261 1.327 . S
C2263 C2279 1.429 . S
C2263 H2285 0.950 . S
C2264 H2260 0.949 . S
C2264 C2272 1.574 . S
C2264 C2280 1.368 . S
H2265 C2273 0.950 . S
H2266 C2271 0.950 . S
H2267 C2272 0.949 . S
H2268 C2274 0.950 . S
H2269 C2275 0.950 . S
H2270 C2276 0.949 . S
C2271 H2266 0.950 . S
C2271 C2273 1.327 . S
C2271 C2277 1.429 . S
C2272 C2264 1.574 . S
C2272 H2267 0.949 . S
C2272 C2278 1.368 . S
C2273 C2257 1.349 . S
C2273 H2265 0.950 . S
C2273 C2271 1.327 . S
C2274 C2262 1.349 . S
C2274 H2268 0.950 . S
C2274 C2275 1.327 . S
C2275 H2269 0.950 . S
C2275 C2274 1.327 . S
C2275 C2279 1.429 . S
C2276 C2259 1.574 . S
C2276 H2270 0.949 . S
C2276 C2280 1.368 . S
C2277 C2258 1.429 . S
C2277 C2271 1.429 . S
C2277 C2278 1.523 . S
C2278 C2259 1.368 . S
C2278 C2272 1.368 . S
C2278 C2277 1.523 . S
C2279 C2263 1.429 . S
C2279 C2275 1.429 . S
C2279 C2280 1.523 . S
C2280 C2264 1.368 . S
C2280 C2276 1.368 . S
C2280 C2279 1.523 . S
H2281 C2256 0.950 . S
H2282 C2258 0.950 . S
H2283 C2259 0.949 . S
H2284 C2261 0.950 . S
H2285 C2263 0.950 . S
C2286 C2287 1.349 . S
C2286 C2288 1.327 . S
C2286 H2311 0.950 . S
C2287 C2286 1.349 . S
C2287 C2303 1.349 . S
C2288 C2286 1.327 . S
C2288 C2307 1.429 . S
C2288 H2312 0.950 . S
C2289 C2306 1.574 . S
C2289 C2308 1.368 . S
C2289 H2313 0.949 . S
H2290 C2294 0.949 . S
C2291 C2292 1.349 . S
C2291 C2293 1.327 . S
C2291 H2314 0.950 . S
C2292 C2291 1.349 . S
C2292 C2304 1.349 . S
C2293 C2291 1.327 . S
C2293 C2309 1.429 . S
C2293 H2315 0.950 . S
C2294 H2290 0.949 . S
C2294 C2302 1.574 . S
C2294 C2310 1.368 . S
H2295 C2303 0.950 . S
H2296 C2301 0.950 . S
H2297 C2302 0.949 . S
H2298 C2304 0.950 . S
H2299 C2305 0.950 . S
H2300 C2306 0.949 . S
C2301 H2296 0.950 . S
C2301 C2303 1.327 . S
C2301 C2307 1.429 . S
C2302 C2294 1.574 . S
C2302 H2297 0.949 . S
C2302 C2308 1.368 . S
C2303 C2287 1.349 . S
C2303 H2295 0.950 . S
C2303 C2301 1.327 . S
C2304 C2292 1.349 . S
C2304 H2298 0.950 . S
C2304 C2305 1.327 . S
C2305 H2299 0.950 . S
C2305 C2304 1.327 . S
C2305 C2309 1.429 . S
C2306 C2289 1.574 . S
C2306 H2300 0.949 . S
C2306 C2310 1.368 . S
C2307 C2288 1.429 . S
C2307 C2301 1.429 . S
C2307 C2308 1.523 . S
C2308 C2289 1.368 . S
C2308 C2302 1.368 . S
C2308 C2307 1.523 . S
C2309 C2293 1.429 . S
C2309 C2305 1.429 . S
C2309 C2310 1.523 . S
C2310 C2294 1.368 . S
C2310 C2306 1.368 . S
C2310 C2309 1.523 . S
H2311 C2286 0.950 . S
H2312 C2288 0.950 . S
H2313 C2289 0.949 . S
H2314 C2291 0.950 . S
H2315 C2293 0.950 . S
C2316 C2317 1.349 . S
C2316 C2318 1.327 . S
C2316 H2341 0.950 . S
C2317 C2316 1.349 . S
C2317 C2333 1.349 . S
C2318 C2316 1.327 . S
C2318 C2337 1.429 . S
C2318 H2342 0.950 . S
C2319 C2336 1.574 . S
C2319 C2338 1.368 . S
C2319 H2343 0.949 . S
H2320 C2324 0.949 . S
C2321 C2322 1.349 . S
C2321 C2323 1.327 . S
C2321 H2344 0.950 . S
C2322 C2321 1.349 . S
C2322 C2334 1.349 . S
C2323 C2321 1.327 . S
C2323 C2339 1.429 . S
C2323 H2345 0.950 . S
C2324 H2320 0.949 . S
C2324 C2332 1.574 . S
C2324 C2340 1.368 . S
H2325 C2333 0.950 . S
H2326 C2331 0.950 . S
H2327 C2332 0.949 . S
H2328 C2334 0.950 . S
H2329 C2335 0.950 . S
H2330 C2336 0.949 . S
C2331 H2326 0.950 . S
C2331 C2333 1.327 . S
C2331 C2337 1.429 . S
C2332 C2324 1.574 . S
C2332 H2327 0.949 . S
C2332 C2338 1.368 . S
C2333 C2317 1.349 . S
C2333 H2325 0.950 . S
C2333 C2331 1.327 . S
C2334 C2322 1.349 . S
C2334 H2328 0.950 . S
C2334 C2335 1.327 . S
C2335 H2329 0.950 . S
C2335 C2334 1.327 . S
C2335 C2339 1.429 . S
C2336 C2319 1.574 . S
C2336 H2330 0.949 . S
C2336 C2340 1.368 . S
C2337 C2318 1.429 . S
C2337 C2331 1.429 . S
C2337 C2338 1.523 . S
C2338 C2319 1.368 . S
C2338 C2332 1.368 . S
C2338 C2337 1.523 . S
C2339 C2323 1.429 . S
C2339 C2335 1.429 . S
C2339 C2340 1.523 . S
C2340 C2324 1.368 . S
C2340 C2336 1.368 . S
C2340 C2339 1.523 . S
H2341 C2316 0.950 . S
H2342 C2318 0.950 . S
H2343 C2319 0.949 . S
H2344 C2321 0.950 . S
H2345 C2323 0.950 . S
C2346 C2347 1.349 . S
C2346 C2348 1.327 . S
C2346 H2371 0.950 . S
C2347 C2346 1.349 . S
C2347 C2363 1.349 . S
C2348 C2346 1.327 . S
C2348 C2367 1.429 . S
C2348 H2372 0.950 . S
C2349 C2366 1.574 . S
C2349 C2368 1.368 . S
C2349 H2373 0.949 . S
H2350 C2354 0.949 . S
C2351 C2352 1.349 . S
C2351 C2353 1.327 . S
C2351 H2374 0.950 . S
C2352 C2351 1.349 . S
C2352 C2364 1.349 . S
C2353 C2351 1.327 . S
C2353 C2369 1.429 . S
C2353 H2375 0.950 . S
C2354 H2350 0.949 . S
C2354 C2362 1.574 . S
C2354 C2370 1.368 . S
H2355 C2363 0.950 . S
H2356 C2361 0.950 . S
H2357 C2362 0.949 . S
H2358 C2364 0.950 . S
H2359 C2365 0.950 . S
H2360 C2366 0.949 . S
C2361 H2356 0.950 . S
C2361 C2363 1.327 . S
C2361 C2367 1.429 . S
C2362 C2354 1.574 . S
C2362 H2357 0.949 . S
C2362 C2368 1.368 . S
C2363 C2347 1.349 . S
C2363 H2355 0.950 . S
C2363 C2361 1.327 . S
C2364 C2352 1.349 . S
C2364 H2358 0.950 . S
C2364 C2365 1.327 . S
C2365 H2359 0.950 . S
C2365 C2364 1.327 . S
C2365 C2369 1.429 . S
C2366 C2349 1.574 . S
C2366 H2360 0.949 . S
C2366 C2370 1.368 . S
C2367 C2348 1.429 . S
C2367 C2361 1.429 . S
C2367 C2368 1.523 . S
C2368 C2349 1.368 . S
C2368 C2362 1.368 . S
C2368 C2367 1.523 . S
C2369 C2353 1.429 . S
C2369 C2365 1.429 . S
C2369 C2370 1.523 . S
C2370 C2354 1.368 . S
C2370 C2366 1.368 . S
C2370 C2369 1.523 . S
H2371 C2346 0.950 . S
H2372 C2348 0.950 . S
H2373 C2349 0.949 . S
H2374 C2351 0.950 . S
H2375 C2353 0.950 . S
C2376 C2377 1.349 . S
C2376 C2378 1.327 . S
C2376 H2401 0.950 . S
C2377 C2376 1.349 . S
C2377 C2393 1.349 . S
C2378 C2376 1.327 . S
C2378 C2397 1.429 . S
C2378 H2402 0.950 . S
C2379 C2396 1.574 . S
C2379 C2398 1.368 . S
C2379 H2403 0.949 . S
H2380 C2384 0.949 . S
C2381 C2382 1.349 . S
C2381 C2383 1.327 . S
C2381 H2404 0.950 . S
C2382 C2381 1.349 . S
C2382 C2394 1.349 . S
C2383 C2381 1.327 . S
C2383 C2399 1.429 . S
C2383 H2405 0.950 . S
C2384 H2380 0.949 . S
C2384 C2392 1.574 . S
C2384 C2400 1.368 . S
H2385 C2393 0.950 . S
H2386 C2391 0.950 . S
H2387 C2392 0.949 . S
H2388 C2394 0.950 . S
H2389 C2395 0.950 . S
H2390 C2396 0.949 . S
C2391 H2386 0.950 . S
C2391 C2393 1.327 . S
C2391 C2397 1.429 . S
C2392 C2384 1.574 . S
C2392 H2387 0.949 . S
C2392 C2398 1.368 . S
C2393 C2377 1.349 . S
C2393 H2385 0.950 . S
C2393 C2391 1.327 . S
C2394 C2382 1.349 . S
C2394 H2388 0.950 . S
C2394 C2395 1.327 . S
C2395 H2389 0.950 . S
C2395 C2394 1.327 . S
C2395 C2399 1.429 . S
C2396 C2379 1.574 . S
C2396 H2390 0.949 . S
C2396 C2400 1.368 . S
C2397 C2378 1.429 . S
C2397 C2391 1.429 . S
C2397 C2398 1.523 . S
C2398 C2379 1.368 . S
C2398 C2392 1.368 . S
C2398 C2397 1.523 . S
C2399 C2383 1.429 . S
C2399 C2395 1.429 . S
C2399 C2400 1.523 . S
C2400 C2384 1.368 . S
C2400 C2396 1.368 . S
C2400 C2399 1.523 . S
H2401 C2376 0.950 . S
H2402 C2378 0.950 . S
H2403 C2379 0.949 . S
H2404 C2381 0.950 . S
H2405 C2383 0.950 . S
C2406 C2407 1.349 . S
C2406 C2408 1.327 . S
C2406 H2431 0.950 . S
C2407 C2406 1.349 . S
C2407 C2423 1.349 . S
C2408 C2406 1.327 . S
C2408 C2427 1.429 . S
C2408 H2432 0.950 . S
C2409 C2426 1.574 . S
C2409 C2428 1.368 . S
C2409 H2433 0.949 . S
H2410 C2414 0.949 . S
C2411 C2412 1.349 . S
C2411 C2413 1.327 . S
C2411 H2434 0.950 . S
C2412 C2411 1.349 . S
C2412 C2424 1.349 . S
C2413 C2411 1.327 . S
C2413 C2429 1.429 . S
C2413 H2435 0.950 . S
C2414 H2410 0.949 . S
C2414 C2422 1.574 . S
C2414 C2430 1.368 . S
H2415 C2423 0.950 . S
H2416 C2421 0.950 . S
H2417 C2422 0.949 . S
H2418 C2424 0.950 . S
H2419 C2425 0.950 . S
H2420 C2426 0.949 . S
C2421 H2416 0.950 . S
C2421 C2423 1.327 . S
C2421 C2427 1.429 . S
C2422 C2414 1.574 . S
C2422 H2417 0.949 . S
C2422 C2428 1.368 . S
C2423 C2407 1.349 . S
C2423 H2415 0.950 . S
C2423 C2421 1.327 . S
C2424 C2412 1.349 . S
C2424 H2418 0.950 . S
C2424 C2425 1.327 . S
C2425 H2419 0.950 . S
C2425 C2424 1.327 . S
C2425 C2429 1.429 . S
C2426 C2409 1.574 . S
C2426 H2420 0.949 . S
C2426 C2430 1.368 . S
C2427 C2408 1.429 . S
C2427 C2421 1.429 . S
C2427 C2428 1.523 . S
C2428 C2409 1.368 . S
C2428 C2422 1.368 . S
C2428 C2427 1.523 . S
C2429 C2413 1.429 . S
C2429 C2425 1.429 . S
C2429 C2430 1.523 . S
C2430 C2414 1.368 . S
C2430 C2426 1.368 . S
C2430 C2429 1.523 . S
H2431 C2406 0.950 . S
H2432 C2408 0.950 . S
H2433 C2409 0.949 . S
H2434 C2411 0.950 . S
H2435 C2413 0.950 . S
C2436 C2437 1.349 . S
C2436 C2438 1.327 . S
C2436 H2461 0.950 . S
C2437 C2436 1.349 . S
C2437 C2453 1.349 . S
C2438 C2436 1.327 . S
C2438 C2457 1.429 . S
C2438 H2462 0.950 . S
C2439 C2456 1.574 . S
C2439 C2458 1.368 . S
C2439 H2463 0.949 . S
H2440 C2444 0.949 . S
C2441 C2442 1.349 . S
C2441 C2443 1.327 . S
C2441 H2464 0.950 . S
C2442 C2441 1.349 . S
C2442 C2454 1.349 . S
C2443 C2441 1.327 . S
C2443 C2459 1.429 . S
C2443 H2465 0.950 . S
C2444 H2440 0.949 . S
C2444 C2452 1.574 . S
C2444 C2460 1.368 . S
H2445 C2453 0.950 . S
H2446 C2451 0.950 . S
H2447 C2452 0.949 . S
H2448 C2454 0.950 . S
H2449 C2455 0.950 . S
H2450 C2456 0.949 . S
C2451 H2446 0.950 . S
C2451 C2453 1.327 . S
C2451 C2457 1.429 . S
C2452 C2444 1.574 . S
C2452 H2447 0.949 . S
C2452 C2458 1.368 . S
C2453 C2437 1.349 . S
C2453 H2445 0.950 . S
C2453 C2451 1.327 . S
C2454 C2442 1.349 . S
C2454 H2448 0.950 . S
C2454 C2455 1.327 . S
C2455 H2449 0.950 . S
C2455 C2454 1.327 . S
C2455 C2459 1.429 . S
C2456 C2439 1.574 . S
C2456 H2450 0.949 . S
C2456 C2460 1.368 . S
C2457 C2438 1.429 . S
C2457 C2451 1.429 . S
C2457 C2458 1.523 . S
C2458 C2439 1.368 . S
C2458 C2452 1.368 . S
C2458 C2457 1.523 . S
C2459 C2443 1.429 . S
C2459 C2455 1.429 . S
C2459 C2460 1.523 . S
C2460 C2444 1.368 . S
C2460 C2456 1.368 . S
C2460 C2459 1.523 . S
H2461 C2436 0.950 . S
H2462 C2438 0.950 . S
H2463 C2439 0.949 . S
H2464 C2441 0.950 . S
H2465 C2443 0.950 . S
C2466 C2467 1.349 . S
C2466 C2468 1.327 . S
C2466 H2491 0.950 . S
C2467 C2466 1.349 . S
C2467 C2483 1.349 . S
C2468 C2466 1.327 . S
C2468 C2487 1.429 . S
C2468 H2492 0.950 . S
C2469 C2486 1.574 . S
C2469 C2488 1.368 . S
C2469 H2493 0.949 . S
H2470 C2474 0.949 . S
C2471 C2472 1.349 . S
C2471 C2473 1.327 . S
C2471 H2494 0.950 . S
C2472 C2471 1.349 . S
C2472 C2484 1.349 . S
C2473 C2471 1.327 . S
C2473 C2489 1.429 . S
C2473 H2495 0.950 . S
C2474 H2470 0.949 . S
C2474 C2482 1.574 . S
C2474 C2490 1.368 . S
H2475 C2483 0.950 . S
H2476 C2481 0.950 . S
H2477 C2482 0.949 . S
H2478 C2484 0.950 . S
H2479 C2485 0.950 . S
H2480 C2486 0.949 . S
C2481 H2476 0.950 . S
C2481 C2483 1.327 . S
C2481 C2487 1.429 . S
C2482 C2474 1.574 . S
C2482 H2477 0.949 . S
C2482 C2488 1.368 . S
C2483 C2467 1.349 . S
C2483 H2475 0.950 . S
C2483 C2481 1.327 . S
C2484 C2472 1.349 . S
C2484 H2478 0.950 . S
C2484 C2485 1.327 . S
C2485 H2479 0.950 . S
C2485 C2484 1.327 . S
C2485 C2489 1.429 . S
C2486 C2469 1.574 . S
C2486 H2480 0.949 . S
C2486 C2490 1.368 . S
C2487 C2468 1.429 . S
C2487 C2481 1.429 . S
C2487 C2488 1.523 . S
C2488 C2469 1.368 . S
C2488 C2482 1.368 . S
C2488 C2487 1.523 . S
C2489 C2473 1.429 . S
C2489 C2485 1.429 . S
C2489 C2490 1.523 . S
C2490 C2474 1.368 . S
C2490 C2486 1.368 . S
C2490 C2489 1.523 . S
H2491 C2466 0.950 . S
H2492 C2468 0.950 . S
H2493 C2469 0.949 . S
H2494 C2471 0.950 . S
H2495 C2473 0.950 . S
C2496 C2497 1.349 . S
C2496 C2498 1.327 . S
C2496 H2521 0.950 . S
C2497 C2496 1.349 . S
C2497 C2513 1.349 . S
C2498 C2496 1.327 . S
C2498 C2517 1.429 . S
C2498 H2522 0.950 . S
C2499 C2516 1.574 . S
C2499 C2518 1.368 . S
C2499 H2523 0.949 . S
H2500 C2504 0.949 . S
C2501 C2502 1.349 . S
C2501 C2503 1.327 . S
C2501 H2524 0.950 . S
C2502 C2501 1.349 . S
C2502 C2514 1.349 . S
C2503 C2501 1.327 . S
C2503 C2519 1.429 . S
C2503 H2525 0.950 . S
C2504 H2500 0.949 . S
C2504 C2512 1.574 . S
C2504 C2520 1.368 . S
H2505 C2513 0.950 . S
H2506 C2511 0.950 . S
H2507 C2512 0.949 . S
H2508 C2514 0.950 . S
H2509 C2515 0.950 . S
H2510 C2516 0.949 . S
C2511 H2506 0.950 . S
C2511 C2513 1.327 . S
C2511 C2517 1.429 . S
C2512 C2504 1.574 . S
C2512 H2507 0.949 . S
C2512 C2518 1.368 . S
C2513 C2497 1.349 . S
C2513 H2505 0.950 . S
C2513 C2511 1.327 . S
C2514 C2502 1.349 . S
C2514 H2508 0.950 . S
C2514 C2515 1.327 . S
C2515 H2509 0.950 . S
C2515 C2514 1.327 . S
C2515 C2519 1.429 . S
C2516 C2499 1.574 . S
C2516 H2510 0.949 . S
C2516 C2520 1.368 . S
C2517 C2498 1.429 . S
C2517 C2511 1.429 . S
C2517 C2518 1.523 . S
C2518 C2499 1.368 . S
C2518 C2512 1.368 . S
C2518 C2517 1.523 . S
C2519 C2503 1.429 . S
C2519 C2515 1.429 . S
C2519 C2520 1.523 . S
C2520 C2504 1.368 . S
C2520 C2516 1.368 . S
C2520 C2519 1.523 . S
H2521 C2496 0.950 . S
H2522 C2498 0.950 . S
H2523 C2499 0.949 . S
H2524 C2501 0.950 . S
H2525 C2503 0.950 . S
C2526 C2527 1.349 . S
C2526 C2528 1.327 . S
C2526 H2551 0.950 . S
C2527 C2526 1.349 . S
C2527 C2543 1.349 . S
C2528 C2526 1.327 . S
C2528 C2547 1.429 . S
C2528 H2552 0.950 . S
C2529 C2546 1.574 . S
C2529 C2548 1.368 . S
C2529 H2553 0.949 . S
H2530 C2534 0.949 . S
C2531 C2532 1.349 . S
C2531 C2533 1.327 . S
C2531 H2554 0.950 . S
C2532 C2531 1.349 . S
C2532 C2544 1.349 . S
C2533 C2531 1.327 . S
C2533 C2549 1.429 . S
C2533 H2555 0.950 . S
C2534 H2530 0.949 . S
C2534 C2542 1.574 . S
C2534 C2550 1.368 . S
H2535 C2543 0.950 . S
H2536 C2541 0.950 . S
H2537 C2542 0.949 . S
H2538 C2544 0.950 . S
H2539 C2545 0.950 . S
H2540 C2546 0.949 . S
C2541 H2536 0.950 . S
C2541 C2543 1.327 . S
C2541 C2547 1.429 . S
C2542 C2534 1.574 . S
C2542 H2537 0.949 . S
C2542 C2548 1.368 . S
C2543 C2527 1.349 . S
C2543 H2535 0.950 . S
C2543 C2541 1.327 . S
C2544 C2532 1.349 . S
C2544 H2538 0.950 . S
C2544 C2545 1.327 . S
C2545 H2539 0.950 . S
C2545 C2544 1.327 . S
C2545 C2549 1.429 . S
C2546 C2529 1.574 . S
C2546 H2540 0.949 . S
C2546 C2550 1.368 . S
C2547 C2528 1.429 . S
C2547 C2541 1.429 . S
C2547 C2548 1.523 . S
C2548 C2529 1.368 . S
C2548 C2542 1.368 . S
C2548 C2547 1.523 . S
C2549 C2533 1.429 . S
C2549 C2545 1.429 . S
C2549 C2550 1.523 . S
C2550 C2534 1.368 . S
C2550 C2546 1.368 . S
C2550 C2549 1.523 . S
H2551 C2526 0.950 . S
H2552 C2528 0.950 . S
H2553 C2529 0.949 . S
H2554 C2531 0.950 . S
H2555 C2533 0.950 . S
C2556 C2557 1.349 . S
C2556 C2558 1.327 . S
C2556 H2581 0.950 . S
C2557 C2556 1.349 . S
C2557 C2573 1.349 . S
C2558 C2556 1.327 . S
C2558 C2577 1.429 . S
C2558 H2582 0.950 . S
C2559 C2576 1.574 . S
C2559 C2578 1.368 . S
C2559 H2583 0.949 . S
H2560 C2564 0.949 . S
C2561 C2562 1.349 . S
C2561 C2563 1.327 . S
C2561 H2584 0.950 . S
C2562 C2561 1.349 . S
C2562 C2574 1.349 . S
C2563 C2561 1.327 . S
C2563 C2579 1.429 . S
C2563 H2585 0.950 . S
C2564 H2560 0.949 . S
C2564 C2572 1.574 . S
C2564 C2580 1.368 . S
H2565 C2573 0.950 . S
H2566 C2571 0.950 . S
H2567 C2572 0.949 . S
H2568 C2574 0.950 . S
H2569 C2575 0.950 . S
H2570 C2576 0.949 . S
C2571 H2566 0.950 . S
C2571 C2573 1.327 . S
C2571 C2577 1.429 . S
C2572 C2564 1.574 . S
C2572 H2567 0.949 . S
C2572 C2578 1.368 . S
C2573 C2557 1.349 . S
C2573 H2565 0.950 . S
C2573 C2571 1.327 . S
C2574 C2562 1.349 . S
C2574 H2568 0.950 . S
C2574 C2575 1.327 . S
C2575 H2569 0.950 . S
C2575 C2574 1.327 . S
C2575 C2579 1.429 . S
C2576 C2559 1.574 . S
C2576 H2570 0.949 . S
C2576 C2580 1.368 . S
C2577 C2558 1.429 . S
C2577 C2571 1.429 . S
C2577 C2578 1.523 . S
C2578 C2559 1.368 . S
C2578 C2572 1.368 . S
C2578 C2577 1.523 . S
C2579 C2563 1.429 . S
C2579 C2575 1.429 . S
C2579 C2580 1.523 . S
C2580 C2564 1.368 . S
C2580 C2576 1.368 . S
C2580 C2579 1.523 . S
H2581 C2556 0.950 . S
H2582 C2558 0.950 . S
H2583 C2559 0.949 . S
H2584 C2561 0.950 . S
H2585 C2563 0.950 . S
C2586 C2587 1.349 . S
C2586 C2588 1.327 . S
C2586 H2611 0.950 . S
C2587 C2586 1.349 . S
C2587 C2603 1.349 . S
C2588 C2586 1.327 . S
C2588 C2607 1.429 . S
C2588 H2612 0.950 . S
C2589 C2606 1.574 . S
C2589 C2608 1.368 . S
C2589 H2613 0.949 . S
H2590 C2594 0.949 . S
C2591 C2592 1.349 . S
C2591 C2593 1.327 . S
C2591 H2614 0.950 . S
C2592 C2591 1.349 . S
C2592 C2604 1.349 . S
C2593 C2591 1.327 . S
C2593 C2609 1.429 . S
C2593 H2615 0.950 . S
C2594 H2590 0.949 . S
C2594 C2602 1.574 . S
C2594 C2610 1.368 . S
H2595 C2603 0.950 . S
H2596 C2601 0.950 . S
H2597 C2602 0.949 . S
H2598 C2604 0.950 . S
H2599 C2605 0.950 . S
H2600 C2606 0.949 . S
C2601 H2596 0.950 . S
C2601 C2603 1.327 . S
C2601 C2607 1.429 . S
C2602 C2594 1.574 . S
C2602 H2597 0.949 . S
C2602 C2608 1.368 . S
C2603 C2587 1.349 . S
C2603 H2595 0.950 . S
C2603 C2601 1.327 . S
C2604 C2592 1.349 . S
C2604 H2598 0.950 . S
C2604 C2605 1.327 . S
C2605 H2599 0.950 . S
C2605 C2604 1.327 . S
C2605 C2609 1.429 . S
C2606 C2589 1.574 . S
C2606 H2600 0.949 . S
C2606 C2610 1.368 . S
C2607 C2588 1.429 . S
C2607 C2601 1.429 . S
C2607 C2608 1.523 . S
C2608 C2589 1.368 . S
C2608 C2602 1.368 . S
C2608 C2607 1.523 . S
C2609 C2593 1.429 . S
C2609 C2605 1.429 . S
C2609 C2610 1.523 . S
C2610 C2594 1.368 . S
C2610 C2606 1.368 . S
C2610 C2609 1.523 . S
H2611 C2586 0.950 . S
H2612 C2588 0.950 . S
H2613 C2589 0.949 . S
H2614 C2591 0.950 . S
H2615 C2593 0.950 . S
C2616 C2617 1.349 . S
C2616 C2618 1.327 . S
C2616 H2641 0.950 . S
C2617 C2616 1.349 . S
C2617 C2633 1.349 . S
C2618 C2616 1.327 . S
C2618 C2637 1.429 . S
C2618 H2642 0.950 . S
C2619 C2636 1.574 . S
C2619 C2638 1.368 . S
C2619 H2643 0.949 . S
H2620 C2624 0.949 . S
C2621 C2622 1.349 . S
C2621 C2623 1.327 . S
C2621 H2644 0.950 . S
C2622 C2621 1.349 . S
C2622 C2634 1.349 . S
C2623 C2621 1.327 . S
C2623 C2639 1.429 . S
C2623 H2645 0.950 . S
C2624 H2620 0.949 . S
C2624 C2632 1.574 . S
C2624 C2640 1.368 . S
H2625 C2633 0.950 . S
H2626 C2631 0.950 . S
H2627 C2632 0.949 . S
H2628 C2634 0.950 . S
H2629 C2635 0.950 . S
H2630 C2636 0.949 . S
C2631 H2626 0.950 . S
C2631 C2633 1.327 . S
C2631 C2637 1.429 . S
C2632 C2624 1.574 . S
C2632 H2627 0.949 . S
C2632 C2638 1.368 . S
C2633 C2617 1.349 . S
C2633 H2625 0.950 . S
C2633 C2631 1.327 . S
C2634 C2622 1.349 . S
C2634 H2628 0.950 . S
C2634 C2635 1.327 . S
C2635 H2629 0.950 . S
C2635 C2634 1.327 . S
C2635 C2639 1.429 . S
C2636 C2619 1.574 . S
C2636 H2630 0.949 . S
C2636 C2640 1.368 . S
C2637 C2618 1.429 . S
C2637 C2631 1.429 . S
C2637 C2638 1.523 . S
C2638 C2619 1.368 . S
C2638 C2632 1.368 . S
C2638 C2637 1.523 . S
C2639 C2623 1.429 . S
C2639 C2635 1.429 . S
C2639 C2640 1.523 . S
C2640 C2624 1.368 . S
C2640 C2636 1.368 . S
C2640 C2639 1.523 . S
H2641 C2616 0.950 . S
H2642 C2618 0.950 . S
H2643 C2619 0.949 . S
H2644 C2621 0.950 . S
H2645 C2623 0.950 . S
C2646 C2647 1.349 . S
C2646 C2648 1.327 . S
C2646 H2671 0.950 . S
C2647 C2646 1.349 . S
C2647 C2663 1.349 . S
C2648 C2646 1.327 . S
C2648 C2667 1.429 . S
C2648 H2672 0.950 . S
C2649 C2666 1.574 . S
C2649 C2668 1.368 . S
C2649 H2673 0.949 . S
H2650 C2654 0.949 . S
C2651 C2652 1.349 . S
C2651 C2653 1.327 . S
C2651 H2674 0.950 . S
C2652 C2651 1.349 . S
C2652 C2664 1.349 . S
C2653 C2651 1.327 . S
C2653 C2669 1.429 . S
C2653 H2675 0.950 . S
C2654 H2650 0.949 . S
C2654 C2662 1.574 . S
C2654 C2670 1.368 . S
H2655 C2663 0.950 . S
H2656 C2661 0.950 . S
H2657 C2662 0.949 . S
H2658 C2664 0.950 . S
H2659 C2665 0.950 . S
H2660 C2666 0.949 . S
C2661 H2656 0.950 . S
C2661 C2663 1.327 . S
C2661 C2667 1.429 . S
C2662 C2654 1.574 . S
C2662 H2657 0.949 . S
C2662 C2668 1.368 . S
C2663 C2647 1.349 . S
C2663 H2655 0.950 . S
C2663 C2661 1.327 . S
C2664 C2652 1.349 . S
C2664 H2658 0.950 . S
C2664 C2665 1.327 . S
C2665 H2659 0.950 . S
C2665 C2664 1.327 . S
C2665 C2669 1.429 . S
C2666 C2649 1.574 . S
C2666 H2660 0.949 . S
C2666 C2670 1.368 . S
C2667 C2648 1.429 . S
C2667 C2661 1.429 . S
C2667 C2668 1.523 . S
C2668 C2649 1.368 . S
C2668 C2662 1.368 . S
C2668 C2667 1.523 . S
C2669 C2653 1.429 . S
C2669 C2665 1.429 . S
C2669 C2670 1.523 . S
C2670 C2654 1.368 . S
C2670 C2666 1.368 . S
C2670 C2669 1.523 . S
H2671 C2646 0.950 . S
H2672 C2648 0.950 . S
H2673 C2649 0.949 . S
H2674 C2651 0.950 . S
H2675 C2653 0.950 . S
C2676 C2677 1.349 . S
C2676 C2678 1.327 . S
C2676 H2701 0.950 . S
C2677 C2676 1.349 . S
C2677 C2693 1.349 . S
C2678 C2676 1.327 . S
C2678 C2697 1.429 . S
C2678 H2702 0.950 . S
C2679 C2696 1.574 . S
C2679 C2698 1.368 . S
C2679 H2703 0.949 . S
H2680 C2684 0.949 . S
C2681 C2682 1.349 . S
C2681 C2683 1.327 . S
C2681 H2704 0.950 . S
C2682 C2681 1.349 . S
C2682 C2694 1.349 . S
C2683 C2681 1.327 . S
C2683 C2699 1.429 . S
C2683 H2705 0.950 . S
C2684 H2680 0.949 . S
C2684 C2692 1.574 . S
C2684 C2700 1.368 . S
H2685 C2693 0.950 . S
H2686 C2691 0.950 . S
H2687 C2692 0.949 . S
H2688 C2694 0.950 . S
H2689 C2695 0.950 . S
H2690 C2696 0.949 . S
C2691 H2686 0.950 . S
C2691 C2693 1.327 . S
C2691 C2697 1.429 . S
C2692 C2684 1.574 . S
C2692 H2687 0.949 . S
C2692 C2698 1.368 . S
C2693 C2677 1.349 . S
C2693 H2685 0.950 . S
C2693 C2691 1.327 . S
C2694 C2682 1.349 . S
C2694 H2688 0.950 . S
C2694 C2695 1.327 . S
C2695 H2689 0.950 . S
C2695 C2694 1.327 . S
C2695 C2699 1.429 . S
C2696 C2679 1.574 . S
C2696 H2690 0.949 . S
C2696 C2700 1.368 . S
C2697 C2678 1.429 . S
C2697 C2691 1.429 . S
C2697 C2698 1.523 . S
C2698 C2679 1.368 . S
C2698 C2692 1.368 . S
C2698 C2697 1.523 . S
C2699 C2683 1.429 . S
C2699 C2695 1.429 . S
C2699 C2700 1.523 . S
C2700 C2684 1.368 . S
C2700 C2696 1.368 . S
C2700 C2699 1.523 . S
H2701 C2676 0.950 . S
H2702 C2678 0.950 . S
H2703 C2679 0.949 . S
H2704 C2681 0.950 . S
H2705 C2683 0.950 . S
C2706 C2707 1.349 . S
C2706 C2708 1.327 . S
C2706 H2731 0.950 . S
C2707 C2706 1.349 . S
C2707 C2723 1.349 . S
C2708 C2706 1.327 . S
C2708 C2727 1.429 . S
C2708 H2732 0.950 . S
C2709 C2726 1.574 . S
C2709 C2728 1.368 . S
C2709 H2733 0.949 . S
H2710 C2714 0.949 . S
C2711 C2712 1.349 . S
C2711 C2713 1.327 . S
C2711 H2734 0.950 . S
C2712 C2711 1.349 . S
C2712 C2724 1.349 . S
C2713 C2711 1.327 . S
C2713 C2729 1.429 . S
C2713 H2735 0.950 . S
C2714 H2710 0.949 . S
C2714 C2722 1.574 . S
C2714 C2730 1.368 . S
H2715 C2723 0.950 1_545 S
H2716 C2721 0.950 . S
H2717 C2722 0.949 . S
H2718 C2724 0.950 . S
H2719 C2725 0.950 . S
H2720 C2726 0.949 . S
C2721 H2716 0.950 . S
C2721 C2723 1.327 . S
C2721 C2727 1.429 . S
C2722 C2714 1.574 . S
C2722 H2717 0.949 . S
C2722 C2728 1.368 . S
C2723 C2707 1.349 . S
C2723 H2715 0.950 1_565 S
C2723 C2721 1.327 . S
C2724 C2712 1.349 . S
C2724 H2718 0.950 . S
C2724 C2725 1.327 . S
C2725 H2719 0.950 . S
C2725 C2724 1.327 . S
C2725 C2729 1.429 . S
C2726 C2709 1.574 . S
C2726 H2720 0.949 . S
C2726 C2730 1.368 . S
C2727 C2708 1.429 . S
C2727 C2721 1.429 . S
C2727 C2728 1.523 . S
C2728 C2709 1.368 . S
C2728 C2722 1.368 . S
C2728 C2727 1.523 . S
C2729 C2713 1.429 . S
C2729 C2725 1.429 . S
C2729 C2730 1.523 . S
C2730 C2714 1.368 . S
C2730 C2726 1.368 . S
C2730 C2729 1.523 . S
H2731 C2706 0.950 . S
H2732 C2708 0.950 . S
H2733 C2709 0.949 . S
H2734 C2711 0.950 . S
H2735 C2713 0.950 . S
C2736 C2737 1.349 . S
C2736 C2738 1.327 . S
C2736 H2761 0.950 . S
C2737 C2736 1.349 . S
C2737 C2753 1.349 . S
C2738 C2736 1.327 . S
C2738 C2757 1.429 . S
C2738 H2762 0.950 . S
C2739 C2756 1.574 . S
C2739 C2758 1.368 . S
C2739 H2763 0.949 . S
H2740 C2744 0.949 . S
C2741 C2742 1.349 . S
C2741 C2743 1.327 . S
C2741 H2764 0.950 . S
C2742 C2741 1.349 . S
C2742 C2754 1.349 . S
C2743 C2741 1.327 . S
C2743 C2759 1.429 . S
C2743 H2765 0.950 . S
C2744 H2740 0.949 . S
C2744 C2752 1.574 . S
C2744 C2760 1.368 . S
H2745 C2753 0.950 . S
H2746 C2751 0.950 . S
H2747 C2752 0.949 . S
H2748 C2754 0.950 . S
H2749 C2755 0.950 . S
H2750 C2756 0.949 . S
C2751 H2746 0.950 . S
C2751 C2753 1.327 . S
C2751 C2757 1.429 . S
C2752 C2744 1.574 . S
C2752 H2747 0.949 . S
C2752 C2758 1.368 . S
C2753 C2737 1.349 . S
C2753 H2745 0.950 . S
C2753 C2751 1.327 . S
C2754 C2742 1.349 . S
C2754 H2748 0.950 . S
C2754 C2755 1.327 . S
C2755 H2749 0.950 . S
C2755 C2754 1.327 . S
C2755 C2759 1.429 . S
C2756 C2739 1.574 . S
C2756 H2750 0.949 . S
C2756 C2760 1.368 . S
C2757 C2738 1.429 . S
C2757 C2751 1.429 . S
C2757 C2758 1.523 . S
C2758 C2739 1.368 . S
C2758 C2752 1.368 . S
C2758 C2757 1.523 . S
C2759 C2743 1.429 . S
C2759 C2755 1.429 . S
C2759 C2760 1.523 . S
C2760 C2744 1.368 . S
C2760 C2756 1.368 . S
C2760 C2759 1.523 . S
H2761 C2736 0.950 . S
H2762 C2738 0.950 . S
H2763 C2739 0.949 . S
H2764 C2741 0.950 . S
H2765 C2743 0.950 . S
C2766 C2767 1.349 . S
C2766 C2768 1.327 . S
C2766 H2791 0.950 . S
C2767 C2766 1.349 . S
C2767 C2783 1.349 . S
C2768 C2766 1.327 . S
C2768 C2787 1.429 . S
C2768 H2792 0.950 . S
C2769 C2786 1.574 . S
C2769 C2788 1.368 . S
C2769 H2793 0.949 . S
H2770 C2774 0.949 . S
C2771 C2772 1.349 . S
C2771 C2773 1.327 . S
C2771 H2794 0.950 . S
C2772 C2771 1.349 . S
C2772 C2784 1.349 . S
C2773 C2771 1.327 . S
C2773 C2789 1.429 . S
C2773 H2795 0.950 . S
C2774 H2770 0.949 . S
C2774 C2782 1.574 . S
C2774 C2790 1.368 . S
H2775 C2783 0.950 . S
H2776 C2781 0.950 . S
H2777 C2782 0.949 . S
H2778 C2784 0.950 . S
H2779 C2785 0.950 . S
H2780 C2786 0.949 . S
C2781 H2776 0.950 . S
C2781 C2783 1.327 . S
C2781 C2787 1.429 . S
C2782 C2774 1.574 . S
C2782 H2777 0.949 . S
C2782 C2788 1.368 . S
C2783 C2767 1.349 . S
C2783 H2775 0.950 . S
C2783 C2781 1.327 . S
C2784 C2772 1.349 . S
C2784 H2778 0.950 . S
C2784 C2785 1.327 . S
C2785 H2779 0.950 . S
C2785 C2784 1.327 . S
C2785 C2789 1.429 . S
C2786 C2769 1.574 . S
C2786 H2780 0.949 . S
C2786 C2790 1.368 . S
C2787 C2768 1.429 . S
C2787 C2781 1.429 . S
C2787 C2788 1.523 . S
C2788 C2769 1.368 . S
C2788 C2782 1.368 . S
C2788 C2787 1.523 . S
C2789 C2773 1.429 . S
C2789 C2785 1.429 . S
C2789 C2790 1.523 . S
C2790 C2774 1.368 . S
C2790 C2786 1.368 . S
C2790 C2789 1.523 . S
H2791 C2766 0.950 . S
H2792 C2768 0.950 . S
H2793 C2769 0.949 . S
H2794 C2771 0.950 . S
H2795 C2773 0.950 . S
C2796 C2797 1.349 . S
C2796 C2798 1.327 . S
C2796 H2821 0.950 . S
C2797 C2796 1.349 . S
C2797 C2813 1.349 . S
C2798 C2796 1.327 . S
C2798 C2817 1.429 . S
C2798 H2822 0.950 . S
C2799 C2816 1.574 . S
C2799 C2818 1.368 . S
C2799 H2823 0.949 . S
H2800 C2804 0.949 . S
C2801 C2802 1.349 . S
C2801 C2803 1.327 . S
C2801 H2824 0.950 . S
C2802 C2801 1.349 . S
C2802 C2814 1.349 . S
C2803 C2801 1.327 . S
C2803 C2819 1.429 . S
C2803 H2825 0.950 . S
C2804 H2800 0.949 . S
C2804 C2812 1.574 . S
C2804 C2820 1.368 . S
H2805 C2813 0.950 . S
H2806 C2811 0.950 . S
H2807 C2812 0.949 . S
H2808 C2814 0.950 . S
H2809 C2815 0.950 . S
H2810 C2816 0.949 . S
C2811 H2806 0.950 . S
C2811 C2813 1.327 . S
C2811 C2817 1.429 . S
C2812 C2804 1.574 . S
C2812 H2807 0.949 . S
C2812 C2818 1.368 . S
C2813 C2797 1.349 . S
C2813 H2805 0.950 . S
C2813 C2811 1.327 . S
C2814 C2802 1.349 . S
C2814 H2808 0.950 . S
C2814 C2815 1.327 . S
C2815 H2809 0.950 . S
C2815 C2814 1.327 . S
C2815 C2819 1.429 . S
C2816 C2799 1.574 . S
C2816 H2810 0.949 . S
C2816 C2820 1.368 . S
C2817 C2798 1.429 . S
C2817 C2811 1.429 . S
C2817 C2818 1.523 . S
C2818 C2799 1.368 . S
C2818 C2812 1.368 . S
C2818 C2817 1.523 . S
C2819 C2803 1.429 . S
C2819 C2815 1.429 . S
C2819 C2820 1.523 . S
C2820 C2804 1.368 . S
C2820 C2816 1.368 . S
C2820 C2819 1.523 . S
H2821 C2796 0.950 . S
H2822 C2798 0.950 . S
H2823 C2799 0.949 . S
H2824 C2801 0.950 . S
H2825 C2803 0.950 . S
C667 C53 1.463 . S
C672 C418 1.271 . S
C697 N2 1.267 . S
C702 C434 1.180 . S
C732 C417 1.192 . S
C727 N25 1.253 . S
C762 C442 1.184 . S
C757 N48 1.259 . S
C787 C7 1.516 . S
C792 C451 1.328 . S
C822 C454 1.246 . S
C817 C30 1.410 . S
C847 C122 1.464 . S
C852 C460 1.272 . S
C882 C476 1.184 . S
C877 N71 1.268 . S
C912 C459 1.202 . S
C907 N94 1.254 . S
C937 N117 1.259 . S
C942 C484 1.184 . S
C972 C493 1.328 . S
C967 C76 1.516 . S
C1002 C496 1.246 . S
C997 C99 1.409 . S
C1032 C505 1.271 . S
C1027 C191 1.463 . S
C1062 C517 1.180 . S
C1057 N140 1.267 . S
C1092 C514 1.202 . S
C1087 N163 1.254 . S
C1117 N186 1.259 . S
C1122 C523 1.184 . S
C1152 C522 1.328 . S
C1147 C145 1.516 . S
C1177 C168 1.410 . S
C1182 C539 1.246 . S
C1212 C544 1.271 . S
C1207 C260 1.463 . S
C1242 C560 1.181 . S
C1237 N209 1.268 . S
C1267 N232 1.254 . S
C1272 C543 1.202 . S
C1302 C568 1.184 . S
C1297 N255 1.259 . S
C1332 C577 1.328 . S
C1327 C214 1.516 . S
C1357 C237 1.409 . S
C1362 C580 1.246 . S
C1387 C329 1.463 . S
C1392 C589 1.271 . S
C1422 C601 1.181 . S
C1417 N278 1.268 . S
C1452 C598 1.202 . S
C1447 N301 1.253 . S
C1477 N324 1.259 . S
C1482 C607 1.184 . S
C1512 C606 1.328 . S
C1507 C283 1.516 . S
C1537 C306 1.409 . S
C1542 C623 1.246 . S
C1572 C628 1.271 . S
C1567 C398 1.463 . S
C1602 C644 1.181 . S
C1597 N347 1.268 . S
C1627 N370 1.253 . S
C1632 C627 1.202 . S
C1662 C649 1.183 . S
C1657 N393 1.259 . S
C1692 C648 1.328 . S
C1687 C352 1.516 . S
C1722 C665 1.246 . S
C1717 C375 1.409 . S
C1752 C430 1.861 . S
C1747 N265 1.944 . S
C1777 C223 1.832 . S
C1782 C433 1.777 . S
C1812 C421 1.697 . S
C1807 C246 1.740 . S
C1837 C407 1.771 . S
C1842 C438 1.711 . S
C1867 N357 1.883 . S
C1872 C439 1.764 . S
C1902 C455 1.750 . S
C1897 N380 1.831 . S
C1932 C472 1.866 1_565 S
C1927 N334 1.944 . S
C1962 C475 1.769 . S
C1957 C292 1.832 . S
C1987 C315 1.740 . S
C1992 C463 1.697 . S
C2022 C480 1.711 1_655 S
C2017 C200 1.771 . S
C2047 N150 1.883 . S
C2052 C481 1.765 . S
C2077 N173 1.831 . S
C2082 C497 1.750 . S
C2107 N403 1.944 . S
C2112 C501 1.861 . S
C2137 C361 1.832 . S
C2142 C518 1.769 . S
C2172 C502 1.698 . S
C2167 C384 1.741 . S
C2202 C535 1.711 . S
C2197 C131 1.771 . S
C2232 C526 1.764 . S
C2227 N81 1.882 . S
C2257 N104 1.830 . S
C2262 C538 1.749 . S
C2292 C556 1.861 . S
C2287 N58 1.944 . S
C2322 C559 1.769 . S
C2317 C16 1.832 . S
C2347 C39 1.741 . S
C2352 C547 1.697 . S
C2382 C564 1.711 . S
C2377 C338 1.771 . S
C2412 C565 1.765 . S
C2407 N288 1.883 . S
C2442 C581 1.750 . S
C2437 N311 1.831 . S
C2472 C585 1.861 . S
C2467 N127 1.944 . S
C2502 C602 1.770 . S
C2497 C85 1.832 . S
C2527 C108 1.740 . S
C2532 C586 1.697 . S
C2557 C269 1.771 1_565 S
C2562 C619 1.711 . S
C2587 N219 1.883 . S
C2592 C610 1.765 . S
C2622 C622 1.749 . S
C2617 N242 1.830 . S
C2647 N196 1.943 . S
C2652 C640 1.861 . S
C2677 C154 1.832 . S
C2682 C643 1.769 . S
C2712 C631 1.698 . S
C2707 C177 1.741 1_565 S
C2742 C661 1.711 . S
C2737 C62 1.771 . S
C2772 C652 1.765 . S
C2767 N12 1.883 . S
C2797 N35 1.830 . S
C2802 C664 1.749 . S
