# Generated by pormake.
# Topology ctn, (3,4)-cn, num edge types: 1
# Building blocks:
#     Node 0, Type 0, BuildingBlock: OLANEW_clean_sbu_2, # of connection points: 3
#     Node 1, Type 0, BuildingBlock: OLANEW_clean_sbu_2, # of connection points: 3
#     Node 2, Type 0, BuildingBlock: OLANEW_clean_sbu_2, # of connection points: 3
#     Node 3, Type 0, BuildingBlock: OLANEW_clean_sbu_2, # of connection points: 3
#     Node 4, Type 0, BuildingBlock: OLANEW_clean_sbu_2, # of connection points: 3
#     Node 5, Type 0, BuildingBlock: OLANEW_clean_sbu_2, # of connection points: 3
#     Node 6, Type 0, BuildingBlock: OLANEW_clean_sbu_2, # of connection points: 3
#     Node 7, Type 0, BuildingBlock: OLANEW_clean_sbu_2, # of connection points: 3
#     Node 8, Type 0, BuildingBlock: OLANEW_clean_sbu_2, # of connection points: 3
#     Node 9, Type 0, BuildingBlock: OLANEW_clean_sbu_2, # of connection points: 3
#     Node 10, Type 0, BuildingBlock: OLANEW_clean_sbu_2, # of connection points: 3
#     Node 11, Type 0, BuildingBlock: OLANEW_clean_sbu_2, # of connection points: 3
#     Node 12, Type 0, BuildingBlock: OLANEW_clean_sbu_2, # of connection points: 3
#     Node 13, Type 0, BuildingBlock: OLANEW_clean_sbu_2, # of connection points: 3
#     Node 14, Type 0, BuildingBlock: OLANEW_clean_sbu_2, # of connection points: 3
#     Node 15, Type 0, BuildingBlock: OLANEW_clean_sbu_2, # of connection points: 3
#     Node 16, Type 1, BuildingBlock: TATPOV_clean_sbu_0, # of connection points: 4
#     Node 17, Type 1, BuildingBlock: TATPOV_clean_sbu_0, # of connection points: 4
#     Node 18, Type 1, BuildingBlock: TATPOV_clean_sbu_0, # of connection points: 4
#     Node 19, Type 1, BuildingBlock: TATPOV_clean_sbu_0, # of connection points: 4
#     Node 20, Type 1, BuildingBlock: TATPOV_clean_sbu_0, # of connection points: 4
#     Node 21, Type 1, BuildingBlock: TATPOV_clean_sbu_0, # of connection points: 4
#     Node 22, Type 1, BuildingBlock: TATPOV_clean_sbu_0, # of connection points: 4
#     Node 23, Type 1, BuildingBlock: TATPOV_clean_sbu_0, # of connection points: 4
#     Node 24, Type 1, BuildingBlock: TATPOV_clean_sbu_0, # of connection points: 4
#     Node 25, Type 1, BuildingBlock: TATPOV_clean_sbu_0, # of connection points: 4
#     Node 26, Type 1, BuildingBlock: TATPOV_clean_sbu_0, # of connection points: 4
#     Node 27, Type 1, BuildingBlock: TATPOV_clean_sbu_0, # of connection points: 4
#     Edge 28, Type (0, 1), BuildingBlock: CIFDUS_clean_linker_0, # of connection points: 2
#     Edge 29, Type (0, 1), BuildingBlock: CIFDUS_clean_linker_0, # of connection points: 2
#     Edge 30, Type (0, 1), BuildingBlock: CIFDUS_clean_linker_0, # of connection points: 2
#     Edge 31, Type (0, 1), BuildingBlock: CIFDUS_clean_linker_0, # of connection points: 2
#     Edge 32, Type (0, 1), BuildingBlock: CIFDUS_clean_linker_0, # of connection points: 2
#     Edge 33, Type (0, 1), BuildingBlock: CIFDUS_clean_linker_0, # of connection points: 2
#     Edge 34, Type (0, 1), BuildingBlock: CIFDUS_clean_linker_0, # of connection points: 2
#     Edge 35, Type (0, 1), BuildingBlock: CIFDUS_clean_linker_0, # of connection points: 2
#     Edge 36, Type (0, 1), BuildingBlock: CIFDUS_clean_linker_0, # of connection points: 2
#     Edge 37, Type (0, 1), BuildingBlock: CIFDUS_clean_linker_0, # of connection points: 2
#     Edge 38, Type (0, 1), BuildingBlock: CIFDUS_clean_linker_0, # of connection points: 2
#     Edge 39, Type (0, 1), BuildingBlock: CIFDUS_clean_linker_0, # of connection points: 2
#     Edge 40, Type (0, 1), BuildingBlock: CIFDUS_clean_linker_0, # of connection points: 2
#     Edge 41, Type (0, 1), BuildingBlock: CIFDUS_clean_linker_0, # of connection points: 2
#     Edge 42, Type (0, 1), BuildingBlock: CIFDUS_clean_linker_0, # of connection points: 2
#     Edge 43, Type (0, 1), BuildingBlock: CIFDUS_clean_linker_0, # of connection points: 2
#     Edge 44, Type (0, 1), BuildingBlock: CIFDUS_clean_linker_0, # of connection points: 2
#     Edge 45, Type (0, 1), BuildingBlock: CIFDUS_clean_linker_0, # of connection points: 2
#     Edge 46, Type (0, 1), BuildingBlock: CIFDUS_clean_linker_0, # of connection points: 2
#     Edge 47, Type (0, 1), BuildingBlock: CIFDUS_clean_linker_0, # of connection points: 2
#     Edge 48, Type (0, 1), BuildingBlock: CIFDUS_clean_linker_0, # of connection points: 2
#     Edge 49, Type (0, 1), BuildingBlock: CIFDUS_clean_linker_0, # of connection points: 2
#     Edge 50, Type (0, 1), BuildingBlock: CIFDUS_clean_linker_0, # of connection points: 2
#     Edge 51, Type (0, 1), BuildingBlock: CIFDUS_clean_linker_0, # of connection points: 2
#     Edge 52, Type (0, 1), BuildingBlock: CIFDUS_clean_linker_0, # of connection points: 2
#     Edge 53, Type (0, 1), BuildingBlock: CIFDUS_clean_linker_0, # of connection points: 2
#     Edge 54, Type (0, 1), BuildingBlock: CIFDUS_clean_linker_0, # of connection points: 2
#     Edge 55, Type (0, 1), BuildingBlock: CIFDUS_clean_linker_0, # of connection points: 2
#     Edge 56, Type (0, 1), BuildingBlock: CIFDUS_clean_linker_0, # of connection points: 2
#     Edge 57, Type (0, 1), BuildingBlock: CIFDUS_clean_linker_0, # of connection points: 2
#     Edge 58, Type (0, 1), BuildingBlock: CIFDUS_clean_linker_0, # of connection points: 2
#     Edge 59, Type (0, 1), BuildingBlock: CIFDUS_clean_linker_0, # of connection points: 2
#     Edge 60, Type (0, 1), BuildingBlock: CIFDUS_clean_linker_0, # of connection points: 2
#     Edge 61, Type (0, 1), BuildingBlock: CIFDUS_clean_linker_0, # of connection points: 2
#     Edge 62, Type (0, 1), BuildingBlock: CIFDUS_clean_linker_0, # of connection points: 2
#     Edge 63, Type (0, 1), BuildingBlock: CIFDUS_clean_linker_0, # of connection points: 2
#     Edge 64, Type (0, 1), BuildingBlock: CIFDUS_clean_linker_0, # of connection points: 2
#     Edge 65, Type (0, 1), BuildingBlock: CIFDUS_clean_linker_0, # of connection points: 2
#     Edge 66, Type (0, 1), BuildingBlock: CIFDUS_clean_linker_0, # of connection points: 2
#     Edge 67, Type (0, 1), BuildingBlock: CIFDUS_clean_linker_0, # of connection points: 2
#     Edge 68, Type (0, 1), BuildingBlock: CIFDUS_clean_linker_0, # of connection points: 2
#     Edge 69, Type (0, 1), BuildingBlock: CIFDUS_clean_linker_0, # of connection points: 2
#     Edge 70, Type (0, 1), BuildingBlock: CIFDUS_clean_linker_0, # of connection points: 2
#     Edge 71, Type (0, 1), BuildingBlock: CIFDUS_clean_linker_0, # of connection points: 2
#     Edge 72, Type (0, 1), BuildingBlock: CIFDUS_clean_linker_0, # of connection points: 2
#     Edge 73, Type (0, 1), BuildingBlock: CIFDUS_clean_linker_0, # of connection points: 2
#     Edge 74, Type (0, 1), BuildingBlock: CIFDUS_clean_linker_0, # of connection points: 2
#     Edge 75, Type (0, 1), BuildingBlock: CIFDUS_clean_linker_0, # of connection points: 2
# Relax obj value: 0.056
# Max RMSD: 0.169
# Mean RMSD: 0.094
data_MOF--net-ctn--node1-OLANEW_clean_sbu_2--node2-TATPOV_clean_sbu_0--edge1-CIFDUS_clean_linker_0
_symmetry_space_group_name_H-M    P1
_symmetry_Int_Tables_number       1
_symmetry_cell_setting            triclinic
loop_
_symmetry_equiv_pos_as_xyz
'x, y, z'
_cell_length_a     50.796603
_cell_length_b     51.905125
_cell_length_c     49.204717
_cell_angle_alpha  92.255588
_cell_angle_beta   96.006874
_cell_angle_gamma 97.075417
loop_
_atom_site_label
_atom_site_type_symbol
_atom_site_fract_x
_atom_site_fract_y
_atom_site_fract_z
_atom_type_partial_charge
O0 O 0.07527 0.05132 0.99328 0.0
Cd1 Cd 0.0818 0.01575 0.02397 0.0
O2 O 0.04608 0.05777 0.02135 0.0
Cd3 Cd 0.01387 0.07111 0.04234 0.0
O4 O 0.98904 0.06596 0.07607 0.0
C5 C 0.96414 0.06753 0.07394 0.0
O6 O 0.95219 0.07365 0.05053 0.0
C7 C 0.05738 0.06453 0.00037 0.0
C8 C 0.1268 0.98982 0.02263 0.0
O9 O 0.10491 0.9815 0.00776 0.0
O10 O 0.12773 0.011 0.03723 0.0
O11 O 0.31154 0.72318 0.26299 0.0
Cd12 Cd 0.26759 0.71361 0.2367 0.0
O13 O 0.31668 0.68436 0.27775 0.0
Cd14 Cd 0.27677 0.66543 0.26277 0.0
O15 O 0.24345 0.63484 0.26441 0.0
C16 C 0.22326 0.63925 0.27624 0.0
O17 O 0.22191 0.66294 0.28597 0.0
C18 C 0.32573 0.70809 0.27589 0.0
C19 C 0.26673 0.74722 0.19363 0.0
O20 O 0.25752 0.75317 0.216 0.0
O21 O 0.27541 0.72515 0.19141 0.0
O22 O 0.95297 0.42855 0.11531 0.0
Cd23 Cd 0.93563 0.42275 0.06704 0.0
O24 O 0.99438 0.4419 0.10826 0.0
Cd25 Cd 0.98723 0.42993 0.06492 0.0
O26 O 0.98976 0.40694 0.02745 0.0
C27 C 0.99624 0.38416 0.02973 0.0
O28 O 0.00056 0.37542 0.0543 0.0
C29 C 0.97676 0.43752 0.12461 0.0
C30 C 0.91641 0.46802 0.04928 0.0
O31 O 0.90263 0.45191 0.06296 0.0
O32 O 0.93929 0.46273 0.04369 0.0
O33 O 0.77488 0.80893 0.24063 0.0
Cd34 Cd 0.74507 0.76805 0.23059 0.0
O35 O 0.77402 0.80482 0.28489 0.0
Cd36 Cd 0.74379 0.77073 0.28322 0.0
O37 O 0.70662 0.75591 0.29942 0.0
C38 C 0.69717 0.7735 0.31268 0.0
O39 O 0.71017 0.79713 0.31478 0.0
C40 C 0.78254 0.81734 0.26517 0.0
C41 C 0.7571 0.73808 0.1862 0.0
O42 O 0.74143 0.75553 0.18282 0.0
O43 O 0.76738 0.735 0.2106 0.0
O44 O 0.14559 0.94281 0.49605 0.0
Cd45 Cd 0.11544 0.90248 0.4964 0.0
O46 O 0.11138 0.96463 0.49003 0.0
Cd47 Cd 0.09165 0.99819 0.47843 0.0
O48 O 0.05916 0.01441 0.45534 0.0
C49 C 0.05752 0.01265 0.42936 0.0
O50 O 0.07645 0.0029 0.41763 0.0
C51 C 0.13646 0.96426 0.49241 0.0
C52 C 0.08767 0.8976 0.54226 0.0
O53 O 0.11088 0.89031 0.54219 0.0
O54 O 0.07783 0.90779 0.5208 0.0
O55 O 0.27444 0.76373 0.82183 0.0
Cd56 Cd 0.25464 0.73822 0.78013 0.0
O57 O 0.2364 0.77777 0.82867 0.0
Cd58 Cd 0.21221 0.76002 0.79205 0.0
O59 O 0.1734 0.76011 0.76861 0.0
C60 C 0.15487 0.76489 0.78281 0.0
O61 O 0.16027 0.76791 0.80954 0.0
C62 C 0.26096 0.77691 0.83622 0.0
C63 C 0.2713 0.68892 0.77936 0.0
O64 O 0.2511 0.69361 0.79144 0.0
O65 O 0.28353 0.7075 0.7673 0.0
O66 O 0.9474 0.56175 0.48742 0.0
Cd67 Cd 0.92305 0.58348 0.51987 0.0
O68 O 0.9666 0.59584 0.46864 0.0
Cd69 Cd 0.94713 0.62159 0.49379 0.0
O70 O 0.93202 0.65066 0.51903 0.0
C71 C 0.93692 0.65096 0.5449 0.0
O72 O 0.95033 0.63313 0.55584 0.0
C73 C 0.96264 0.57136 0.47049 0.0
C74 C 0.89056 0.54325 0.54015 0.0
O75 O 0.88175 0.55583 0.51996 0.0
O76 O 0.91424 0.55068 0.55166 0.0
O77 O 0.82465 0.81099 0.90865 0.0
Cd78 Cd 0.82651 0.85483 0.89159 0.0
O79 O 0.79484 0.79464 0.87472 0.0
Cd80 Cd 0.78136 0.83211 0.86655 0.0
O81 O 0.75016 0.8574 0.86763 0.0
C82 C 0.72849 0.8465 0.87513 0.0
O83 O 0.72699 0.82198 0.88126 0.0
C84 C 0.81132 0.79138 0.89519 0.0
C85 C 0.84896 0.8556 0.84201 0.0
O86 O 0.86375 0.85903 0.86493 0.0
O87 O 0.82361 0.85237 0.84251 0.0
O88 O 0.30622 0.30005 0.41204 0.0
Cd89 Cd 0.30346 0.344 0.39622 0.0
O90 O 0.27596 0.28139 0.37957 0.0
Cd91 Cd 0.26137 0.31791 0.36915 0.0
O92 O 0.23791 0.35004 0.36229 0.0
C93 C 0.21511 0.34752 0.371 0.0
O94 O 0.20756 0.32636 0.38347 0.0
C95 C 0.29364 0.27959 0.39945 0.0
C96 C 0.32605 0.34914 0.34693 0.0
O97 O 0.34057 0.35311 0.36998 0.0
O98 O 0.30084 0.34337 0.34718 0.0
O99 O 0.43497 0.92129 0.66302 0.0
Cd100 Cd 0.41441 0.916 0.61569 0.0
O101 O 0.47523 0.93226 0.65109 0.0
Cd102 Cd 0.46412 0.91955 0.60825 0.0
O103 O 0.46498 0.89854 0.56914 0.0
C104 C 0.47325 0.87639 0.56909 0.0
O105 O 0.48028 0.8666 0.59259 0.0
C106 C 0.45957 0.92929 0.66957 0.0
C107 C 0.39648 0.96224 0.59889 0.0
O108 O 0.38218 0.94598 0.61196 0.0
O109 O 0.41934 0.95663 0.59357 0.0
O110 O 0.27053 0.31522 0.71858 0.0
Cd111 Cd 0.2434 0.27245 0.71588 0.0
O112 O 0.27301 0.31645 0.76355 0.0
Cd113 Cd 0.24623 0.28071 0.76704 0.0
O114 O 0.20842 0.26202 0.77869 0.0
C115 C 0.18757 0.26668 0.76411 0.0
O116 O 0.19038 0.2803 0.7424 0.0
C117 C 0.27899 0.32688 0.74165 0.0
C118 C 0.25411 0.23766 0.67493 0.0
O119 O 0.23619 0.2528 0.67035 0.0
O120 O 0.26725 0.23927 0.69877 0.0
O121 O 0.80515 0.21123 0.75641 0.0
Cd122 Cd 0.75952 0.20119 0.73382 0.0
O123 O 0.80799 0.17363 0.77494 0.0
Cd124 Cd 0.76609 0.15892 0.76356 0.0
O125 O 0.72886 0.13584 0.77066 0.0
C126 C 0.72287 0.13657 0.79509 0.0
O127 O 0.73842 0.15192 0.81362 0.0
C128 C 0.8187 0.19619 0.77018 0.0
C129 C 0.75667 0.22706 0.68505 0.0
O130 O 0.74945 0.23722 0.70679 0.0
O131 O 0.76437 0.20449 0.68624 0.0
O132 O 0.54551 0.5394 0.46735 0.0
Cd133 Cd 0.54117 0.49361 0.47938 0.0
O134 O 0.51932 0.54474 0.49892 0.0
Cd135 Cd 0.49246 0.55995 0.52592 0.0
O136 O 0.46891 0.55763 0.56084 0.0
C137 C 0.4778 0.54502 0.5807 0.0
O138 O 0.50026 0.53518 0.57915 0.0
C139 C 0.53225 0.55428 0.48005 0.0
C140 C 0.58749 0.46965 0.48864 0.0
O141 O 0.57555 0.47031 0.46444 0.0
O142 O 0.57808 0.48113 0.50833 0.0
O143 O 0.62769 0.4666 0.01743 0.0
Cd144 Cd 0.59703 0.42626 0.01047 0.0
O145 O 0.60445 0.48072 0.98245 0.0
Cd146 Cd 0.5924 0.50892 0.95334 0.0
O147 O 0.56171 0.52657 0.92897 0.0
C148 C 0.55732 0.52252 0.90316 0.0
O149 O 0.57295 0.50884 0.89056 0.0
C150 C 0.62426 0.48432 0.00082 0.0
C151 C 0.56743 0.41434 0.0539 0.0
O152 O 0.59103 0.40808 0.05355 0.0
O153 O 0.55796 0.42677 0.0339 0.0
O154 O 0.7719 0.2509 0.32592 0.0
Cd155 Cd 0.76785 0.22787 0.281 0.0
O156 O 0.72979 0.2544 0.31539 0.0
Cd157 Cd 0.69034 0.26654 0.31716 0.0
O158 O 0.64913 0.27297 0.3062 0.0
C159 C 0.64343 0.29555 0.30103 0.0
O160 O 0.66262 0.31521 0.30361 0.0
C161 C 0.75063 0.25889 0.33246 0.0
C162 C 0.78552 0.17921 0.2833 0.0
O163 O 0.76195 0.18241 0.28866 0.0
O164 O 0.80082 0.19906 0.27692 0.0
O165 O 0.47478 0.09499 0.00188 0.0
Cd166 Cd 0.44414 0.10757 0.03344 0.0
O167 O 0.49512 0.07375 0.03398 0.0
Cd168 Cd 0.4806 0.09577 0.06697 0.0
O169 O 0.47449 0.12723 0.09567 0.0
C170 C 0.45179 0.1346 0.09778 0.0
O171 O 0.43058 0.12217 0.08315 0.0
C172 C 0.49119 0.07921 0.009 0.0
C173 C 0.4094 0.06288 0.04074 0.0
O174 O 0.40261 0.07938 0.02348 0.0
O175 O 0.43209 0.06794 0.05512 0.0
Zn176 Zn 0.33635 0.86122 0.03131 0.0
Zn177 Zn 0.28978 0.88083 0.03532 0.0
O178 O 0.28877 0.85391 0.06538 0.0
O179 O 0.32572 0.83681 0.06029 0.0
O180 O 0.25621 0.89819 0.036 0.0
O181 O 0.35714 0.89666 0.0417 0.0
O182 O 0.31886 0.91236 0.04223 0.0
C183 C 0.30468 0.83738 0.07194 0.0
C184 C 0.30098 0.8528 0.98181 0.0
O185 O 0.28594 0.86393 0.99641 0.0
O186 O 0.32442 0.84986 0.99162 0.0
C187 C 0.23398 0.88893 0.02276 0.0
O188 O 0.23196 0.86622 0.00943 0.0
C189 C 0.34428 0.91581 0.04457 0.0
Zn190 Zn 0.04287 0.44819 0.33529 0.0
Zn191 Zn 0.08248 0.48654 0.32731 0.0
O192 O 0.06145 0.50289 0.35561 0.0
O193 O 0.02937 0.47208 0.36249 0.0
O194 O 0.11041 0.51585 0.32011 0.0
O195 O 0.07178 0.4263 0.34785 0.0
O196 O 0.10366 0.45736 0.34084 0.0
C197 C 0.04106 0.49502 0.3675 0.0
C198 C 0.0416 0.46296 0.27953 0.0
O199 O 0.06217 0.47834 0.28933 0.0
O200 O 0.0292 0.44799 0.295 0.0
C201 C 0.10409 0.53872 0.31816 0.0
O202 O 0.07961 0.54286 0.32155 0.0
C203 C 0.09637 0.43453 0.34819 0.0
Zn204 Zn 0.8001 0.60237 0.96576 0.0
Zn205 Zn 0.79373 0.62316 0.01612 0.0
O206 O 0.82183 0.59887 0.02553 0.0
O207 O 0.82882 0.58318 0.98496 0.0
O208 O 0.78827 0.64182 0.05156 0.0
O209 O 0.80907 0.6381 0.95185 0.0
O210 O 0.8046 0.65406 0.99297 0.0
C211 C 0.83377 0.58431 0.01082 0.0
C212 C 0.74738 0.5886 0.98256 0.0
O213 O 0.75726 0.6022 0.00417 0.0
O214 O 0.7613 0.5861 0.96291 0.0
C215 C 0.79815 0.63758 0.07555 0.0
O216 O 0.81335 0.61898 0.07897 0.0
C217 C 0.8097 0.65747 0.96847 0.0
Zn218 Zn 0.87232 0.00824 0.31366 0.0
Zn219 Zn 0.89459 0.0118 0.26653 0.0
O220 O 0.87331 0.0431 0.26813 0.0
O221 O 0.85207 0.03846 0.30473 0.0
O222 O 0.91238 0.01678 0.23186 0.0
O223 O 0.90896 0.01472 0.33489 0.0
O224 O 0.9268 0.01397 0.29602 0.0
C225 C 0.85716 0.05086 0.28387 0.0
C226 C 0.85924 0.96191 0.27756 0.0
O227 O 0.87243 0.97531 0.26113 0.0
O228 O 0.85683 0.97151 0.30112 0.0
C229 C 0.90111 0.02557 0.21048 0.0
O230 O 0.87636 0.0306 0.21018 0.0
C231 C 0.92941 0.01563 0.32211 0.0
Zn232 Zn 0.31439 0.09344 0.47097 0.0
Zn233 Zn 0.29705 0.1111 0.51757 0.0
O234 O 0.32706 0.08991 0.53071 0.0
O235 O 0.34527 0.08009 0.49357 0.0
O236 O 0.28653 0.12837 0.55169 0.0
O237 O 0.31737 0.12932 0.45593 0.0
O238 O 0.30616 0.1431 0.49545 0.0
C239 C 0.34465 0.07928 0.51922 0.0
C240 C 0.26077 0.07038 0.48084 0.0
O241 O 0.26403 0.08635 0.50163 0.0
O242 O 0.27909 0.06969 0.46526 0.0
C243 C 0.30279 0.13403 0.57317 0.0
O244 O 0.32677 0.12686 0.57414 0.0
C245 C 0.31306 0.14775 0.4718 0.0
Zn246 Zn 0.36481 0.52237 0.80863 0.0
Zn247 Zn 0.37994 0.521 0.75831 0.0
O248 O 0.35844 0.55246 0.75978 0.0
O249 O 0.3434 0.55165 0.80012 0.0
O250 O 0.39375 0.52249 0.72119 0.0
O251 O 0.40317 0.52991 0.82523 0.0
O252 O 0.41519 0.525 0.78386 0.0
C253 C 0.34482 0.56179 0.77727 0.0
C254 C 0.34766 0.47307 0.77822 0.0
O255 O 0.35833 0.48437 0.75875 0.0
O256 O 0.34819 0.48517 0.80119 0.0
C257 C 0.38263 0.53256 0.70054 0.0
O258 O 0.35977 0.54157 0.70231 0.0
C259 C 0.42134 0.52892 0.8096 0.0
Zn260 Zn 0.80243 0.35277 0.53241 0.0
Zn261 Zn 0.75275 0.36489 0.52258 0.0
O262 O 0.74948 0.34158 0.55565 0.0
O263 O 0.78924 0.32831 0.56025 0.0
O264 O 0.71691 0.37816 0.51513 0.0
O265 O 0.81729 0.39004 0.5433 0.0
O266 O 0.77714 0.39968 0.53008 0.0
C267 C 0.76589 0.32761 0.56727 0.0
C268 C 0.77849 0.33711 0.47784 0.0
O269 O 0.7579 0.34476 0.48675 0.0
O270 O 0.80049 0.33969 0.49299 0.0
C271 C 0.71052 0.38686 0.49186 0.0
O272 O 0.7265 0.38536 0.47268 0.0
C273 C 0.80156 0.40687 0.53873 0.0
Zn274 Zn 0.55754 0.94334 0.87034 0.0
Zn275 Zn 0.58722 0.98792 0.85795 0.0
O276 O 0.56875 0.99961 0.89056 0.0
O277 O 0.54729 0.96326 0.90319 0.0
O278 O 0.6092 0.02019 0.84768 0.0
O279 O 0.59165 0.92631 0.87382 0.0
O280 O 0.61515 0.96318 0.86569 0.0
C281 C 0.55414 0.98758 0.90672 0.0
C282 C 0.54298 0.95999 0.81608 0.0
O283 O 0.56244 0.97766 0.82311 0.0
O284 O 0.53593 0.94322 0.83284 0.0
C285 C 0.62169 0.03727 0.86514 0.0
O286 O 0.61991 0.03428 0.8913 0.0
C287 C 0.61396 0.9393 0.87111 0.0
Zn288 Zn 0.01254 0.26778 0.85468 0.0
Zn289 Zn 0.01827 0.2263 0.88362 0.0
O290 O 0.05143 0.23046 0.86175 0.0
O291 O 0.04515 0.26363 0.83638 0.0
O292 O 0.02367 0.19472 0.90583 0.0
O293 O 0.01428 0.29019 0.88915 0.0
O294 O 0.0175 0.25564 0.91322 0.0
C295 C 0.05883 0.24577 0.84354 0.0
C296 C 0.96789 0.22844 0.84314 0.0
O297 O 0.98147 0.21612 0.86038 0.0
O298 O 0.97704 0.25106 0.83723 0.0
C299 C 0.03175 0.17494 0.89487 0.0
O300 O 0.03586 0.17511 0.86895 0.0
C301 C 0.01586 0.27993 0.91208 0.0
Zn302 Zn 0.5079 0.78659 0.38417 0.0
Zn303 Zn 0.51535 0.74202 0.40649 0.0
O304 O 0.55066 0.75244 0.38918 0.0
O305 O 0.54491 0.79062 0.37315 0.0
O306 O 0.52052 0.70743 0.42287 0.0
O307 O 0.50121 0.80192 0.42031 0.0
O308 O 0.50934 0.7658 0.43972 0.0
C309 C 0.55936 0.77267 0.37726 0.0
C310 C 0.46876 0.74546 0.36145 0.0
O311 O 0.48138 0.73267 0.37897 0.0
O312 O 0.4768 0.7692 0.35883 0.0
C313 C 0.52728 0.68949 0.40772 0.0
O314 O 0.53093 0.69421 0.38224 0.0
C315 C 0.50337 0.78896 0.4415 0.0
Zn316 Zn 0.92942 0.82642 0.65517 0.0
Zn317 Zn 0.97422 0.81378 0.68522 0.0
O318 O 0.98862 0.84046 0.65945 0.0
O319 O 0.95348 0.85255 0.63573 0.0
O320 O 0.00774 0.80398 0.70529 0.0
O321 O 0.91628 0.83599 0.69176 0.0
O322 O 0.95322 0.82686 0.71489 0.0
C323 C 0.97862 0.85407 0.64106 0.0
C324 C 0.9381 0.77259 0.64748 0.0
O325 O 0.95785 0.77962 0.66541 0.0
O326 O 0.92276 0.78886 0.63921 0.0
C327 C 0.02455 0.79554 0.69089 0.0
O328 O 0.01925 0.79387 0.66411 0.0
C329 C 0.93037 0.83466 0.71441 0.0
Zn330 Zn 0.41184 0.32474 0.16288 0.0
Zn331 Zn 0.4582 0.31854 0.1946 0.0
O332 O 0.4702 0.34451 0.16723 0.0
O333 O 0.43379 0.35124 0.14159 0.0
O334 O 0.49227 0.31497 0.21792 0.0
O335 O 0.39661 0.33558 0.19783 0.0
O336 O 0.43439 0.33052 0.22208 0.0
C337 C 0.4589 0.35571 0.14753 0.0
C338 C 0.42693 0.2723 0.16008 0.0
O339 O 0.44661 0.28228 0.17694 0.0
O340 O 0.40924 0.28609 0.15121 0.0
C341 C 0.508 0.33506 0.22719 0.0
O342 O 0.50149 0.35816 0.22162 0.0
C343 C 0.41071 0.33638 0.22077 0.0
H344 H 0.23797 0.80847 0.86928 0.0
H345 H 0.31177 0.77691 0.86148 0.0
H346 H 0.33108 0.79866 0.90532 0.0
H347 H 0.32631 0.82519 0.94661 0.0
H348 H 0.25211 0.85613 0.9542 0.0
H349 H 0.23374 0.83608 0.90951 0.0
C350 C 0.25833 0.80636 0.87705 0.0
C351 C 0.27333 0.79094 0.86213 0.0
C352 C 0.26923 0.81878 0.90225 0.0
C353 C 0.29973 0.78861 0.87253 0.0
C354 C 0.31078 0.80102 0.89762 0.0
C355 C 0.30618 0.82771 0.93843 0.0
C356 C 0.2906 0.84208 0.95386 0.0
C357 C 0.29562 0.81595 0.91276 0.0
C358 C 0.26455 0.84514 0.94287 0.0
C359 C 0.25399 0.83364 0.91731 0.0
H360 H 0.00276 0.58439 0.43875 0.0
H361 H 0.95111 0.51879 0.4629 0.0
H362 H 0.97123 0.48956 0.43372 0.0
H363 H 0.00274 0.48253 0.40085 0.0
H364 H 0.05521 0.54756 0.3769 0.0
H365 H 0.03562 0.57704 0.40668 0.0
C366 C 0.99591 0.5637 0.43761 0.0
C367 C 0.97536 0.55385 0.45291 0.0
C368 C 0.00773 0.54687 0.42089 0.0
C369 C 0.96688 0.52695 0.45137 0.0
C370 C 0.97836 0.51017 0.43466 0.0
C371 C 0.00998 0.50315 0.40214 0.0
C372 C 0.03032 0.51282 0.38654 0.0
C373 C 0.9987 0.51993 0.41927 0.0
C374 C 0.03957 0.53957 0.38869 0.0
C375 C 0.02833 0.55646 0.40565 0.0
H376 H 0.82563 0.77705 0.94658 0.0
H377 H 0.80131 0.7462 0.86383 0.0
H378 H 0.801 0.70193 0.87901 0.0
H379 H 0.8046 0.67207 0.91611 0.0
H380 H 0.82538 0.70268 0.99945 0.0
H381 H 0.83024 0.74697 0.98374 0.0
C382 C 0.82063 0.76062 0.93185 0.0
C383 C 0.81354 0.76484 0.90414 0.0
C384 C 0.81967 0.7352 0.94086 0.0
C385 C 0.80675 0.74341 0.8853 0.0
C386 C 0.80655 0.71811 0.89396 0.0
C387 C 0.81051 0.68841 0.93082 0.0
C388 C 0.81464 0.6841 0.95889 0.0
C389 C 0.81252 0.71378 0.92174 0.0
C390 C 0.82199 0.7055 0.97772 0.0
C391 C 0.82477 0.73081 0.96876 0.0
H392 H 0.0473 0.0096 0.37382 0.0
H393 H 0.01254 0.02791 0.44752 0.0
H394 H 0.9703 0.03191 0.42053 0.0
H395 H 0.94232 0.02701 0.37656 0.0
H396 H 0.97675 0.00856 0.30274 0.0
H397 H 0.02009 0.00797 0.32929 0.0
C398 C 0.03058 0.01473 0.38398 0.0
C399 C 0.03305 0.01818 0.4127 0.0
C400 C 0.00623 0.01679 0.36836 0.0
C401 C 0.01121 0.02501 0.42547 0.0
C402 C 0.98698 0.02723 0.41006 0.0
C403 C 0.95932 0.023 0.36621 0.0
C404 C 0.95619 0.01753 0.33773 0.0
C405 C 0.98412 0.02262 0.38158 0.0
C406 C 0.97855 0.01273 0.32464 0.0
C407 C 0.00334 0.01233 0.33982 0.0
H408 H 0.29271 0.20552 0.6774 0.0
H409 H 0.22694 0.22713 0.62402 0.0
H410 H 0.23524 0.19594 0.58847 0.0
H411 H 0.26181 0.16329 0.57206 0.0
H412 H 0.32849 0.1427 0.62485 0.0
H413 H 0.31902 0.17255 0.66115 0.0
C414 C 0.28015 0.20339 0.65801 0.0
C415 C 0.25927 0.21871 0.6534 0.0
C416 C 0.28514 0.18553 0.63756 0.0
C417 C 0.24322 0.21569 0.62812 0.0
C418 C 0.24791 0.1978 0.60777 0.0
C419 C 0.27412 0.16514 0.5916 0.0
C420 C 0.2958 0.15073 0.59574 0.0
C421 C 0.26887 0.18269 0.61222 0.0
C422 C 0.3117 0.15357 0.6211 0.0
C423 C 0.30633 0.17067 0.64186 0.0
H424 H 0.42861 0.5583 0.58865 0.0
H425 H 0.49387 0.52206 0.62733 0.0
H426 H 0.46995 0.51442 0.66725 0.0
H427 H 0.43085 0.51827 0.6915 0.0
H428 H 0.36535 0.5544 0.65324 0.0
H429 H 0.38895 0.56162 0.61287 0.0
C430 C 0.43761 0.54877 0.60583 0.0
C431 C 0.46305 0.54084 0.60495 0.0
C432 C 0.42367 0.5443 0.62881 0.0
C433 C 0.47434 0.5284 0.62738 0.0
C434 C 0.46067 0.52398 0.65027 0.0
C435 C 0.42163 0.52763 0.67431 0.0
C436 C 0.39634 0.53577 0.67548 0.0
C437 C 0.43535 0.53185 0.65122 0.0
C438 C 0.38478 0.54789 0.65295 0.0
C439 C 0.39829 0.5521 0.62984 0.0
H440 H 0.73279 0.26997 0.6716 0.0
H441 H 0.78357 0.21678 0.64184 0.0
H442 H 0.78984 0.24272 0.6023 0.0
H443 H 0.78338 0.2818 0.57768 0.0
H444 H 0.73127 0.33445 0.60541 0.0
H445 H 0.72279 0.30733 0.64413 0.0
C446 C 0.74503 0.26398 0.65632 0.0
C447 C 0.75791 0.2416 0.65983 0.0
C448 C 0.74839 0.27891 0.63336 0.0
C449 C 0.77346 0.23391 0.6397 0.0
C450 C 0.77715 0.24878 0.61709 0.0
C451 C 0.77003 0.28726 0.59213 0.0
C452 C 0.75823 0.31022 0.58898 0.0
C453 C 0.7651 0.27152 0.61399 0.0
C454 C 0.7406 0.31685 0.60749 0.0
C455 C 0.73586 0.30142 0.62965 0.0
H456 H 0.50558 0.95888 0.68987 0.0
H457 H 0.43754 0.91082 0.71445 0.0
H458 H 0.45705 0.91648 0.76224 0.0
H459 H 0.49448 0.93356 0.79673 0.0
H460 H 0.56158 0.98293 0.77186 0.0
H461 H 0.54131 0.97833 0.72452 0.0
C462 C 0.49497 0.94971 0.7057 0.0
C463 C 0.4703 0.93426 0.69863 0.0
C464 C 0.50616 0.95322 0.73307 0.0
C465 C 0.45659 0.92282 0.71939 0.0
C466 C 0.46777 0.92596 0.74669 0.0
C467 C 0.50459 0.94338 0.78095 0.0
C468 C 0.52959 0.95838 0.78779 0.0
C469 C 0.4927 0.94087 0.75372 0.0
C470 C 0.54231 0.97125 0.76718 0.0
C471 C 0.53079 0.96859 0.74006 0.0
H472 H 0.85237 0.17072 0.80334 0.0
H473 H 0.84849 0.24168 0.76085 0.0
H474 H 0.89446 0.25705 0.77883 0.0
H475 H 0.9351 0.2511 0.80726 0.0
H476 H 0.9397 0.18094 0.85089 0.0
H477 H 0.89402 0.16441 0.83155 0.0
C478 C 0.8616 0.18952 0.79794 0.0
C479 C 0.84688 0.20505 0.7808 0.0
C480 C 0.88812 0.19837 0.80851 0.0
C481 C 0.85921 0.22934 0.77405 0.0
C482 C 0.88554 0.23816 0.7843 0.0
C483 C 0.92627 0.23211 0.81254 0.0
C484 C 0.94086 0.21732 0.83059 0.0
C485 C 0.90008 0.22293 0.80165 0.0
C486 C 0.92896 0.19275 0.83707 0.0
C487 C 0.90282 0.18332 0.82606 0.0
H488 H 0.49064 0.82913 0.56193 0.0
H489 H 0.46261 0.89238 0.51743 0.0
H490 H 0.46925 0.87062 0.47437 0.0
H491 H 0.48383 0.83449 0.44946 0.0
H492 H 0.51175 0.77074 0.49306 0.0
H493 H 0.50427 0.79193 0.53648 0.0
C494 C 0.4859 0.83812 0.54281 0.0
C495 C 0.47623 0.86243 0.54297 0.0
C496 C 0.48981 0.82549 0.51802 0.0
C497 C 0.47011 0.87373 0.51798 0.0
C498 C 0.47393 0.86132 0.49331 0.0
C499 C 0.48834 0.82513 0.46841 0.0
C500 C 0.49852 0.8011 0.46798 0.0
C501 C 0.48394 0.83733 0.49313 0.0
C502 C 0.50396 0.78925 0.49279 0.0
C503 C 0.4997 0.80137 0.51761 0.0
H504 H 0.17454 0.24092 0.80936 0.0
H505 H 0.14029 0.27832 0.73965 0.0
H506 H 0.09713 0.27343 0.75739 0.0
H507 H 0.07005 0.26209 0.79427 0.0
H508 H 0.10309 0.22429 0.86407 0.0
H509 H 0.14574 0.22554 0.84457 0.0
C510 C 0.15755 0.24771 0.79789 0.0
C511 C 0.16081 0.2603 0.77336 0.0
C512 C 0.13263 0.24494 0.8083 0.0
C513 C 0.1385 0.26875 0.75866 0.0
C514 C 0.11376 0.26603 0.76881 0.0
C515 C 0.08653 0.25396 0.80517 0.0
C516 C 0.0836 0.24349 0.83076 0.0
C517 C 0.11079 0.25476 0.79389 0.0
C518 C 0.10492 0.23256 0.84438 0.0
C519 C 0.12931 0.23337 0.83328 0.0
H520 H 0.54392 0.57369 0.4319 0.0
H521 H 0.51832 0.59601 0.50931 0.0
H522 H 0.51455 0.63973 0.49393 0.0
H523 H 0.51796 0.67161 0.45799 0.0
H524 H 0.54388 0.64866 0.3808 0.0
H525 H 0.54832 0.60543 0.39674 0.0
C526 C 0.53762 0.58812 0.44553 0.0
C527 C 0.53097 0.58133 0.4716 0.0
C528 C 0.5356 0.61323 0.43656 0.0
C529 C 0.52288 0.60036 0.4889 0.0
C530 C 0.52094 0.62551 0.48017 0.0
C531 C 0.52466 0.65717 0.44469 0.0
C532 C 0.53051 0.66346 0.41817 0.0
C533 C 0.52707 0.63212 0.45394 0.0
C534 C 0.53915 0.64445 0.40125 0.0
C535 C 0.54171 0.61965 0.41034 0.0
H536 H 0.90098 0.85339 0.83456 0.0
H537 H 0.82315 0.85469 0.79042 0.0
H538 H 0.84179 0.84987 0.74702 0.0
H539 H 0.87968 0.84315 0.72168 0.0
H540 H 0.95721 0.84018 0.76586 0.0
H541 H 0.93919 0.84791 0.8091 0.0
C542 C 0.88813 0.85285 0.81545 0.0
C543 C 0.8607 0.85436 0.81576 0.0
C544 C 0.8989 0.84966 0.79055 0.0
C545 C 0.84432 0.85349 0.79079 0.0
C546 C 0.85496 0.85072 0.76594 0.0
C547 C 0.89272 0.84441 0.74073 0.0
C548 C 0.91976 0.84101 0.74047 0.0
C549 C 0.88215 0.84846 0.76558 0.0
C550 C 0.9363 0.8426 0.76542 0.0
C551 C 0.92601 0.84702 0.79019 0.0
H552 H 0.03641 0.90635 0.54638 0.0
H553 H 0.10369 0.87755 0.59079 0.0
H554 H 0.07643 0.86437 0.62704 0.0
H555 H 0.03261 0.85701 0.64376 0.0
H556 H 0.96471 0.88416 0.59864 0.0
H557 H 0.99325 0.90237 0.56532 0.0
C558 C 0.04521 0.8975 0.56416 0.0
C559 C 0.07199 0.89269 0.56569 0.0
C560 C 0.02929 0.88958 0.58478 0.0
C561 C 0.08309 0.8813 0.58895 0.0
C562 C 0.06751 0.87373 0.6097 0.0
C563 C 0.02405 0.86727 0.6269 0.0
C564 C 0.99646 0.86895 0.6236 0.0
C565 C 0.04043 0.87717 0.60748 0.0
C566 C 0.98584 0.88243 0.60164 0.0
C567 C 0.00213 0.89276 0.58249 0.0
H568 H 0.1383 0.76382 0.72823 0.0
H569 H 0.11183 0.77585 0.80781 0.0
H570 H 0.06909 0.78596 0.78644 0.0
H571 H 0.03976 0.79291 0.74528 0.0
H572 H 0.06615 0.78098 0.66566 0.0
H573 H 0.10833 0.76935 0.68696 0.0
C574 C 0.12313 0.76848 0.7409 0.0
C575 C 0.12835 0.76917 0.76958 0.0
C576 C 0.0986 0.77446 0.72849 0.0
C577 C 0.10842 0.77523 0.78568 0.0
C578 C 0.08395 0.78108 0.77349 0.0
C579 C 0.05471 0.78773 0.73257 0.0
C580 C 0.04983 0.78795 0.70393 0.0
C581 C 0.07893 0.78103 0.74493 0.0
C582 C 0.06938 0.78103 0.68777 0.0
C583 C 0.09354 0.77437 0.69993 0.0
H584 H 0.95271 0.66226 0.59896 0.0
H585 H 0.90628 0.68874 0.52943 0.0
H586 H 0.8996 0.72741 0.55642 0.0
H587 H 0.91087 0.75579 0.59819 0.0
H588 H 0.95954 0.73035 0.6667 0.0
H589 H 0.96108 0.68906 0.64181 0.0
C590 C 0.94083 0.6763 0.58979 0.0
C591 C 0.93026 0.67273 0.56213 0.0
C592 C 0.93755 0.69877 0.60523 0.0
C593 C 0.91486 0.69112 0.55061 0.0
C594 C 0.91103 0.71326 0.56603 0.0
C595 C 0.92136 0.74101 0.60788 0.0
C596 C 0.93519 0.7462 0.63419 0.0
C597 C 0.92284 0.7176 0.59314 0.0
C598 C 0.94886 0.7269 0.64639 0.0
C599 C 0.94982 0.70331 0.63215 0.0
H600 H 0.80189 0.85197 0.22892 0.0
H601 H 0.80165 0.83988 0.31531 0.0
H602 H 0.82574 0.88302 0.32632 0.0
H603 H 0.8448 0.92489 0.31194 0.0
H604 H 0.84644 0.93801 0.22609 0.0
H605 H 0.82399 0.89374 0.2144 0.0
C606 C 0.80735 0.85868 0.25014 0.0
C607 C 0.7997 0.84265 0.27121 0.0
C608 C 0.82128 0.88376 0.25647 0.0
C609 C 0.80706 0.85171 0.29861 0.0
C610 C 0.82083 0.87647 0.305 0.0
C611 C 0.84028 0.91813 0.29062 0.0
C612 C 0.84697 0.93484 0.26991 0.0
C613 C 0.82763 0.89277 0.28414 0.0
C614 C 0.8414 0.92555 0.24243 0.0
C615 C 0.82853 0.90026 0.23575 0.0
H616 H 0.8264 0.16238 0.25902 0.0
H617 H 0.76535 0.13807 0.31073 0.0
H618 H 0.78162 0.09587 0.31473 0.0
H619 H 0.81408 0.06649 0.30486 0.0
H620 H 0.87404 0.0899 0.2516 0.0
H621 H 0.8571 0.13175 0.24663 0.0
C622 C 0.81666 0.14782 0.27114 0.0
C623 C 0.79488 0.1534 0.28477 0.0
C624 C 0.82587 0.12344 0.27301 0.0
C625 C 0.78219 0.13424 0.30007 0.0
C626 C 0.7915 0.11012 0.3024 0.0
C627 C 0.82337 0.0807 0.29205 0.0
C628 C 0.84543 0.07518 0.27883 0.0
C629 C 0.81344 0.1046 0.28914 0.0
C630 C 0.85702 0.09365 0.26202 0.0
C631 C 0.84743 0.11764 0.25926 0.0
H632 H 0.42457 0.01911 0.06223 0.0
H633 H 0.35632 0.05049 0.02315 0.0
H634 H 0.32934 0.00804 0.02318 0.0
H635 H 0.32607 0.96134 0.03155 0.0
H636 H 0.39552 0.92959 0.06732 0.0
H637 H 0.42107 0.97288 0.07153 0.0
C638 C 0.4037 0.01676 0.05403 0.0
C639 C 0.39243 0.03791 0.04275 0.0
C640 C 0.38858 0.99218 0.0534 0.0
C641 C 0.36545 0.03447 0.0319 0.0
C642 C 0.35003 0.01021 0.03189 0.0
C643 C 0.3467 0.96399 0.04058 0.0
C644 C 0.3589 0.94232 0.04912 0.0
C645 C 0.36151 0.98883 0.04219 0.0
C646 C 0.38573 0.94596 0.06048 0.0
C647 C 0.40035 0.9707 0.06289 0.0
H648 H 0.16427 0.34537 0.38365 0.0
H649 H 0.2249 0.39448 0.3479 0.0
H650 H 0.19398 0.42652 0.339 0.0
H651 H 0.14906 0.43978 0.33986 0.0
H652 H 0.08846 0.38957 0.37452 0.0
H653 H 0.12012 0.3589 0.38547 0.0
C654 C 0.17083 0.36312 0.37402 0.0
C655 C 0.19685 0.36746 0.3664 0.0
C656 C 0.15291 0.38129 0.36873 0.0
C657 C 0.20494 0.3906 0.35392 0.0
C658 C 0.18727 0.40894 0.34882 0.0
C659 C 0.14287 0.42224 0.35002 0.0
C660 C 0.11638 0.41699 0.35628 0.0
C661 C 0.16112 0.4044 0.35594 0.0
C662 C 0.10865 0.39407 0.36932 0.0
C663 C 0.12675 0.37648 0.3756 0.0
H664 H 0.1791 0.96836 0.46417 0.0
H665 H 0.13516 0.01294 0.5149 0.0
H666 H 0.16914 0.05087 0.51458 0.0
H667 H 0.21332 0.06995 0.50268 0.0
H668 H 0.25543 0.02528 0.44971 0.0
H669 H 0.22003 0.98896 0.44775 0.0
C670 C 0.1769 0.9865 0.47492 0.0
C671 C 0.15498 0.98794 0.48978 0.0
C672 C 0.19619 0.00816 0.47426 0.0
C673 C 0.15196 0.01153 0.50331 0.0
C674 C 0.17141 0.03312 0.50322 0.0
C675 C 0.21454 0.05239 0.49044 0.0
C676 C 0.23717 0.05027 0.47665 0.0
C677 C 0.1939 0.03149 0.48917 0.0
C678 C 0.23831 0.02749 0.46058 0.0
C679 C 0.21812 0.0066 0.45954 0.0
H680 H 0.70752 0.13138 0.84605 0.0
H681 H 0.68805 0.10103 0.76242 0.0
H682 H 0.65392 0.06857 0.77662 0.0
H683 H 0.63163 0.04714 0.81307 0.0
H684 H 0.65181 0.07687 0.89684 0.0
H685 H 0.68358 0.11135 0.88219 0.0
C686 C 0.69567 0.11782 0.83086 0.0
C687 C 0.70049 0.11854 0.80323 0.0
C688 C 0.67631 0.09901 0.8392 0.0
C689 C 0.68485 0.10087 0.78383 0.0
C690 C 0.66536 0.08225 0.79194 0.0
C691 C 0.64283 0.06125 0.82814 0.0
C692 C 0.63948 0.05927 0.85605 0.0
C693 C 0.66124 0.08087 0.81962 0.0
C694 C 0.65408 0.07782 0.87525 0.0
C695 C 0.67228 0.09755 0.8669 0.0
H696 H 0.41493 0.99389 0.56029 0.0
H697 H 0.35537 0.98477 0.61682 0.0
H698 H 0.33655 0.02282 0.59968 0.0
H699 H 0.33443 0.05613 0.56598 0.0
H700 H 0.39147 0.06321 0.50676 0.0
H701 H 0.41419 0.02891 0.52794 0.0
C702 C 0.39802 1.00041 0.56905 0.0
C703 C 0.38646 0.98641 0.58968 0.0
C704 C 0.38686 0.02198 0.55862 0.0
C705 C 0.36449 0.99505 0.60075 0.0
C706 C 0.35374 0.01685 0.59101 0.0
C707 C 0.35218 0.05058 0.55805 0.0
C708 C 0.36127 0.06222 0.53485 0.0
C709 C 0.36443 0.03015 0.5696 0.0
C710 C 0.38408 0.05453 0.52461 0.0
C711 C 0.39698 0.03483 0.53662 0.0
H712 H 0.61389 0.44647 0.45102 0.0
H713 H 0.61329 0.45999 0.53805 0.0
H714 H 0.65033 0.43451 0.5468 0.0
H715 H 0.68314 0.40846 0.52975 0.0
H716 H 0.68467 0.39636 0.4427 0.0
H717 H 0.64692 0.42095 0.434 0.0
C718 C 0.62188 0.44391 0.47191 0.0
C719 C 0.61078 0.45516 0.49382 0.0
C720 C 0.64328 0.42931 0.47682 0.0
C721 C 0.62147 0.45165 0.52077 0.0
C722 C 0.64262 0.43698 0.52581 0.0
C723 C 0.67504 0.41102 0.50889 0.0
C724 C 0.68662 0.40047 0.48691 0.0
C725 C 0.65365 0.42566 0.504 0.0
C726 C 0.67613 0.40427 0.45999 0.0
C727 C 0.65457 0.41837 0.45498 0.0
H728 H 0.79336 0.28515 0.36341 0.0
H729 H 0.70841 0.26415 0.36212 0.0
H730 H 0.70908 0.28834 0.40571 0.0
H731 H 0.73423 0.31419 0.44537 0.0
H732 H 0.81974 0.33221 0.44786 0.0
H733 H 0.81843 0.31034 0.40292 0.0
C734 C 0.77496 0.28591 0.37261 0.0
C735 C 0.75074 0.27347 0.359 0.0
C736 C 0.77563 0.29922 0.39811 0.0
C737 C 0.72714 0.27446 0.37139 0.0
C738 C 0.72758 0.288 0.39662 0.0
C739 C 0.75252 0.31349 0.43596 0.0
C740 C 0.77703 0.32481 0.44997 0.0
C741 C 0.75173 0.30042 0.41022 0.0
C742 C 0.80061 0.32353 0.43761 0.0
C743 C 0.7999 0.31104 0.41187 0.0
H744 H 0.50785 0.03169 0.01043 0.0
H745 H 0.50449 0.098 0.96063 0.0
H746 H 0.52559 0.07616 0.9253 0.0
H747 H 0.54337 0.03747 0.90784 0.0
H748 H 0.54279 0.96975 0.95594 0.0
H749 H 0.52498 0.99287 0.99275 0.0
C750 C 0.51197 0.04142 0.99193 0.0
C751 C 0.5048 0.06644 0.98815 0.0
C752 C 0.52331 0.02845 0.9714 0.0
C753 C 0.50982 0.0787 0.96393 0.0
C754 C 0.52189 0.06625 0.94376 0.0
C755 C 0.53954 0.0279 0.9265 0.0
C756 C 0.54446 0.00202 0.92929 0.0
C757 C 0.5285 0.04102 0.94717 0.0
C758 C 0.53907 0.98966 0.95335 0.0
C759 C 0.52892 0.00286 0.97438 0.0
H760 H 0.31142 0.2666 0.45044 0.0
H761 H 0.28717 0.23439 0.36818 0.0
H762 H 0.29355 0.19097 0.38294 0.0
H763 H 0.30355 0.16183 0.41965 0.0
H764 H 0.32373 0.19335 0.50268 0.0
H765 H 0.32162 0.23737 0.48724 0.0
C766 C 0.30781 0.25008 0.43573 0.0
C767 C 0.2989 0.25365 0.40827 0.0
C768 C 0.31072 0.22506 0.44453 0.0
C769 C 0.29393 0.23208 0.38947 0.0
C770 C 0.2976 0.20727 0.39787 0.0
C771 C 0.30784 0.17839 0.43429 0.0
C772 C 0.31394 0.17442 0.46222 0.0
C773 C 0.30566 0.20348 0.42541 0.0
C774 C 0.31898 0.19597 0.48106 0.0
C775 C 0.31775 0.22111 0.47225 0.0
H776 H 0.54075 0.51542 0.84854 0.0
H777 H 0.51829 0.546 0.92448 0.0
H778 H 0.47495 0.55258 0.90156 0.0
H779 H 0.44195 0.54591 0.86118 0.0
H780 H 0.46394 0.51533 0.78509 0.0
H781 H 0.50901 0.51277 0.80682 0.0
C782 C 0.52651 0.52382 0.86001 0.0
C783 C 0.53268 0.52985 0.88828 0.0
C784 C 0.50145 0.5274 0.84674 0.0
C785 C 0.51405 0.54097 0.90276 0.0
C786 C 0.48919 0.54469 0.88969 0.0
C787 C 0.45666 0.5389 0.84925 0.0
C788 C 0.44947 0.53049 0.82166 0.0
C789 C 0.48244 0.53735 0.86188 0.0
C790 C 0.4689 0.52183 0.8064 0.0
C791 C 0.49466 0.52027 0.81884 0.0
H792 H 0.78692 0.69782 0.18717 0.0
H793 H 0.73986 0.74155 0.13221 0.0
H794 H 0.74834 0.71432 0.09335 0.0
H795 H 0.76885 0.67806 0.07491 0.0
H796 H 0.81582 0.63406 0.12963 0.0
H797 H 0.80756 0.66141 0.1686 0.0
C798 C 0.77856 0.70144 0.16669 0.0
C799 C 0.76278 0.72174 0.16266 0.0
C800 C 0.78343 0.68562 0.14437 0.0
C801 C 0.75207 0.72608 0.13596 0.0
C802 C 0.7569 0.7105 0.11369 0.0
C803 C 0.77728 0.67439 0.09535 0.0
C804 C 0.79293 0.65398 0.09928 0.0
C805 C 0.77249 0.69019 0.11766 0.0
C806 C 0.8037 0.64959 0.12595 0.0
C807 C 0.799 0.66525 0.14828 0.0
H808 H 0.98145 0.04771 0.12199 0.0
H809 H 0.91185 0.07311 0.07833 0.0
H810 H 0.88613 0.06205 0.11647 0.0
H811 H 0.88341 0.04519 0.16227 0.0
H812 H 0.95305 0.01936 0.20549 0.0
H813 H 0.97862 0.03044 0.16738 0.0
C814 C 0.96067 0.05092 0.1208 0.0
C815 C 0.94865 0.06132 0.09731 0.0
C816 C 0.94594 0.04433 0.1427 0.0
C817 C 0.92164 0.06516 0.09613 0.0
C818 C 0.9069 0.05882 0.11795 0.0
C819 C 0.90416 0.0419 0.16335 0.0
C820 C 0.91624 0.03144 0.18678 0.0
C821 C 0.91883 0.04835 0.14132 0.0
C822 C 0.94317 0.02734 0.18775 0.0
C823 C 0.95787 0.03373 0.16596 0.0
H824 H 0.29542 0.74464 0.15059 0.0
H825 H 0.24323 0.79184 0.18757 0.0
H826 H 0.24927 0.82364 0.1525 0.0
H827 H 0.27095 0.83878 0.11203 0.0
H828 H 0.3249 0.79177 0.07747 0.0
H829 H 0.31658 0.7593 0.11082 0.0
C830 C 0.28515 0.76176 0.15089 0.0
C831 C 0.26884 0.7658 0.17161 0.0
C832 C 0.28917 0.78015 0.13112 0.0
C833 C 0.25591 0.78825 0.17182 0.0
C834 C 0.25938 0.80647 0.15179 0.0
C835 C 0.28075 0.82137 0.11178 0.0
C836 C 0.29861 0.81783 0.09231 0.0
C837 C 0.27621 0.80276 0.13146 0.0
C838 C 0.31126 0.79519 0.09234 0.0
C839 C 0.30646 0.7765 0.11137 0.0
H840 H 0.02266 0.46358 0.15087 0.0
H841 H 0.94736 0.421 0.16545 0.0
H842 H 0.96056 0.42562 0.21469 0.0
H843 H 0.99411 0.44027 0.25349 0.0
H844 H 0.06901 0.4837 0.23902 0.0
H845 H 0.05524 0.48028 0.18985 0.0
C846 C 0.0091 0.45538 0.16481 0.0
C847 C 0.98416 0.44181 0.15446 0.0
C848 C 0.01674 0.45819 0.19312 0.0
C849 C 0.9667 0.43154 0.17284 0.0
C850 C 0.97425 0.4341 0.20102 0.0
C851 C 0.00741 0.44904 0.23959 0.0
C852 C 0.03262 0.46203 0.24991 0.0
C853 C 0.99933 0.44714 0.21136 0.0
C854 C 0.04949 0.47355 0.23163 0.0
C855 C 0.04167 0.47157 0.20349 0.0
H856 H 0.36031 0.68235 0.30751 0.0
H857 H 0.35223 0.75683 0.2735 0.0
H858 H 0.39629 0.77423 0.29571 0.0
H859 H 0.43625 0.76895 0.32587 0.0
H860 H 0.44453 0.6951 0.3611 0.0
H861 H 0.40127 0.67675 0.33702 0.0
C862 C 0.36821 0.70237 0.30487 0.0
C863 C 0.35285 0.71827 0.28892 0.0
C864 C 0.39358 0.71236 0.31786 0.0
C865 C 0.36348 0.74415 0.28573 0.0
C866 C 0.38872 0.75414 0.2984 0.0
C867 C 0.42877 0.74876 0.3282 0.0
C868 C 0.44364 0.73346 0.34536 0.0
C869 C 0.40382 0.73849 0.31466 0.0
C870 C 0.43352 0.70734 0.34806 0.0
C871 C 0.40874 0.69686 0.33435 0.0
H872 H 0.0081 0.33436 0.0277 0.0
H873 H 0.99163 0.39747 0.9765 0.0
H874 H 0.9972 0.371 0.93597 0.0
H875 H 0.00616 0.33008 0.91501 0.0
H876 H 0.02179 0.26633 0.96556 0.0
H877 H 0.01727 0.29308 0.00649 0.0
C878 C 0.00573 0.34234 0.00768 0.0
C879 C 0.99943 0.36789 0.00518 0.0
C880 C 0.00888 0.32697 0.98438 0.0
C881 C 0.99642 0.37788 0.97906 0.0
C882 C -0.00036 0.36277 0.95585 0.0
C883 C 0.00874 0.32198 0.93496 0.0
C884 C 0.01436 0.2962 0.93717 0.0
C885 C 0.00583 0.33731 0.95828 0.0
C886 C 0.01747 0.2861 0.96324 0.0
C887 C 0.01485 0.30138 0.98665 0.0
H888 H 0.67005 0.80862 0.33559 0.0
H889 H 0.66737 0.72624 0.31777 0.0
H890 H 0.62521 0.71822 0.33803 0.0
H891 H 0.58813 0.73514 0.35955 0.0
H892 H 0.59102 0.81797 0.37465 0.0
H893 H 0.63417 0.82523 0.35701 0.0
C894 C 0.66037 0.78885 0.33619 0.0
C895 C 0.67186 0.76808 0.32515 0.0
C896 C 0.63612 0.78447 0.34748 0.0
C897 C 0.6589 0.74262 0.32604 0.0
C898 C 0.63482 0.73802 0.33767 0.0
C899 C 0.59842 0.75469 0.35919 0.0
C900 C 0.58641 0.77599 0.36835 0.0
C901 C 0.62311 0.75885 0.34832 0.0
C902 C 0.59977 0.80128 0.36755 0.0
C903 C 0.62445 0.80547 0.35747 0.0
H904 H 0.06554 0.07325 0.94777 0.0
H905 H 0.03323 0.10609 0.01697 0.0
H906 H 0.02193 0.14278 0.99046 0.0
H907 H 0.02202 0.1661 0.94767 0.0
H908 H 0.05435 0.13278 0.87858 0.0
H909 H 0.0649 0.09594 0.905 0.0
C910 C 0.056 0.08841 0.95707 0.0
C911 C 0.05 0.0867 0.98428 0.0
C912 C 0.04963 0.10951 0.94171 0.0
C913 C 0.03758 0.10654 0.99594 0.0
C914 C 0.03131 0.12769 0.98083 0.0
C915 C 0.03133 0.15076 0.93837 0.0
C916 C 0.0374 0.15233 0.91113 0.0
C917 C 0.03729 0.12943 0.95369 0.0
C918 C 0.04939 0.13217 0.89945 0.0
C919 C 0.05549 0.11105 0.91457 0.0
H920 H 0.37876 0.35361 0.33991 0.0
H921 H 0.30019 0.34584 0.29517 0.0
H922 H 0.31964 0.34317 0.252 0.0
H923 H 0.35867 0.34016 0.22711 0.0
H924 H 0.43708 0.34627 0.27206 0.0
H925 H 0.41796 0.35264 0.3149 0.0
C926 C 0.3659 0.35161 0.32071 0.0
C927 C 0.33806 0.34982 0.3208 0.0
C928 C 0.37717 0.34965 0.29596 0.0
C929 C 0.32169 0.34716 0.29572 0.0
C930 C 0.33278 0.3456 0.27099 0.0
C931 C 0.37163 0.34317 0.24623 0.0
C932 C 0.39925 0.34259 0.24634 0.0
C933 C 0.36046 0.3464 0.27089 0.0
C934 C 0.41572 0.34646 0.27136 0.0
C935 C 0.40481 0.3501 0.2959 0.0
H936 H 0.51412 0.41553 0.05523 0.0
H937 H 0.58417 0.39437 0.10215 0.0
H938 H 0.55686 0.37674 0.13666 0.0
H939 H 0.51297 0.36417 0.15158 0.0
H940 H 0.44239 0.38319 0.10378 0.0
H941 H 0.47012 0.40512 0.07174 0.0
C942 C 0.52345 0.40735 0.07317 0.0
C943 C 0.55113 0.40612 0.07601 0.0
C944 C 0.50754 0.39676 0.09272 0.0
C945 C 0.56289 0.3954 0.09935 0.0
C946 C 0.5473 0.3853 0.11911 0.0
C947 C 0.50358 0.37336 0.13435 0.0
C948 C 0.47559 0.37184 0.13002 0.0
C949 C 0.51956 0.38539 0.11571 0.0
C950 C 0.46387 0.38395 0.10757 0.0
C951 C 0.47972 0.39643 0.08918 0.0
H952 H 0.62477 0.34074 0.28707 0.0
H953 H 0.60036 0.25827 0.28984 0.0
H954 H 0.55608 0.26343 0.26813 0.0
H955 H 0.52497 0.29089 0.24636 0.0
H956 H 0.54916 0.37335 0.2435 0.0
H957 H 0.5928 0.36861 0.26733 0.0
C958 C 0.60972 0.32391 0.2831 0.0
C959 C 0.61598 0.29914 0.28992 0.0
C960 C 0.58428 0.32697 0.27047 0.0
C961 C 0.59616 0.27757 0.28474 0.0
C962 C 0.57081 0.28047 0.27226 0.0
C963 C 0.53974 0.30786 0.25102 0.0
C964 C 0.53386 0.3324 0.24297 0.0
C965 C 0.56478 0.30501 0.2647 0.0
C966 C 0.55316 0.35421 0.2494 0.0
C967 C 0.57815 0.35152 0.263 0.0
H968 H 0.40957 0.16221 0.09719 0.0
H969 H 0.48979 0.16092 0.13555 0.0
H970 H 0.48824 0.20248 0.1599 0.0
H971 H 0.46543 0.24051 0.1678 0.0
H972 H 0.38599 0.24293 0.12788 0.0
H973 H 0.38589 0.19951 0.10681 0.0
C974 C 0.4266 0.17087 0.11112 0.0
C975 C 0.4498 0.15851 0.11443 0.0
C976 C 0.42579 0.19504 0.12466 0.0
C977 C 0.47173 0.17007 0.13249 0.0
C978 C 0.47088 0.19386 0.14642 0.0
C979 C 0.44795 0.23147 0.15474 0.0
C980 C 0.4258 0.24506 0.14935 0.0
C981 C 0.44821 0.20673 0.14228 0.0
C982 C 0.40337 0.233 0.13229 0.0
C983 C 0.4033 0.20816 0.1202 0.0
H984 H 0.29334 0.35844 0.78715 0.0
H985 H 0.29817 0.35524 0.70007 0.0
H986 H 0.32035 0.40014 0.70345 0.0
H987 H 0.33722 0.44095 0.73136 0.0
H988 H 0.33026 0.44299 0.8182 0.0
H989 H 0.31002 0.39804 0.81451 0.0
C990 C 0.29937 0.36739 0.76884 0.0
C991 C 0.29409 0.3534 0.74341 0.0
C992 C 0.31162 0.39319 0.77085 0.0
C993 C 0.30199 0.36552 0.71996 0.0
C994 C 0.31462 0.39124 0.72186 0.0
C995 C 0.33129 0.43152 0.74944 0.0
C996 C 0.33524 0.44552 0.77499 0.0
C997 C 0.31933 0.40539 0.74722 0.0
C998 C 0.32739 0.43292 0.79821 0.0
C999 C 0.31583 0.40709 0.79619 0.0
H1000 H 0.3068 0.66981 0.74846 0.0
H1001 H 0.25694 0.64992 0.81235 0.0
H1002 H 0.27441 0.60838 0.81632 0.0
H1003 H 0.30536 0.5787 0.80342 0.0
H1004 H 0.35461 0.59752 0.73883 0.0
H1005 H 0.33563 0.63837 0.73315 0.0
C1006 C 0.29969 0.65632 0.76316 0.0
C1007 C 0.28077 0.66308 0.78025 0.0
C1008 C 0.3097 0.6323 0.76522 0.0
C1009 C 0.27151 0.64526 0.79897 0.0
C1010 C 0.28153 0.6215 0.80131 0.0
C1011 C 0.31187 0.59166 0.78798 0.0
C1012 C 0.33158 0.58521 0.77178 0.0
C1013 C 0.30086 0.61498 0.7848 0.0
C1014 C 0.33949 0.60204 0.7516 0.0
C1015 C 0.32872 0.62545 0.74843 0.0
H1016 H 0.83875 0.52482 0.52297 0.0
H1017 H 0.90781 0.5072 0.57431 0.0
H1018 H 0.88525 0.4639 0.58044 0.0
H1019 H 0.84804 0.42945 0.5669 0.0
H1020 H 0.77881 0.44702 0.51587 0.0
H1021 H 0.79921 0.49198 0.51419 0.0
C1022 C 0.8487 0.51166 0.53586 0.0
C1023 C 0.87506 0.51911 0.54783 0.0
C1024 C 0.83569 0.48668 0.53915 0.0
C1025 C 0.88756 0.50194 0.56474 0.0
C1026 C 0.87473 0.47709 0.56815 0.0
C1027 C 0.83729 0.4432 0.55568 0.0
C1028 C 0.81215 0.4348 0.54117 0.0
C1029 C 0.84914 0.46899 0.55475 0.0
C1030 C 0.79826 0.45294 0.52711 0.0
C1031 C 0.80995 0.47865 0.52604 0.0
H1032 H 0.72545 0.89784 0.86695 0.0
H1033 H 0.67888 0.82707 0.88669 0.0
H1034 H 0.63981 0.84975 0.8882 0.0
H1035 H 0.61842 0.88918 0.88275 0.0
H1036 H 0.66458 0.96017 0.86303 0.0
H1037 H 0.70422 0.9379 0.86292 0.0
C1038 C 0.70676 0.8874 0.87163 0.0
C1039 C 0.70512 0.86075 0.87657 0.0
C1040 C 0.68427 0.90058 0.87252 0.0
C1041 C 0.68076 0.84756 0.88274 0.0
C1042 C 0.65835 0.86051 0.88362 0.0
C1043 C 0.63716 0.89987 0.87856 0.0
C1044 C 0.63843 0.92629 0.87281 0.0
C1045 C 0.65983 0.88695 0.87839 0.0
C1046 C 0.66296 0.9398 0.86751 0.0
C1047 C 0.68566 0.92707 0.86737 0.0
H1048 H 0.64213 0.5102 0.95833 0.0
H1049 H 0.65143 0.51005 0.0464 0.0
H1050 H 0.68854 0.5452 0.04862 0.0
H1051 H 0.72111 0.5726 0.02531 0.0
H1052 H 0.71413 0.5699 0.93707 0.0
H1053 H 0.67302 0.53964 0.93505 0.0
C1054 C 0.6518 0.51841 0.978 0.0
C1055 C 0.64394 0.50784 0.00218 0.0
C1056 C 0.67367 0.53794 0.97904 0.0
C1057 C 0.65717 0.518 0.02754 0.0
C1058 C 0.67838 0.53803 0.0288 0.0
C1059 C 0.7103 0.56579 0.00565 0.0
C1060 C 0.72065 0.57342 0.98138 0.0
C1061 C 0.68724 0.54768 0.00465 0.0
C1062 C 0.70661 0.56419 0.95604 0.0
C1063 C 0.68314 0.54685 0.95487 0.0
H1064 H 0.17596 0.64241 0.29667 0.0
H1065 H 0.22464 0.58721 0.26692 0.0
H1066 H 0.19235 0.55129 0.27768 0.0
H1067 H 0.1507 0.53547 0.29639 0.0
H1068 H 0.10137 0.59064 0.32483 0.0
H1069 H 0.13356 0.6266 0.31384 0.0
C1070 C 0.17947 0.62253 0.29244 0.0
C1071 C 0.20276 0.61756 0.28111 0.0
C1072 C 0.16077 0.60193 0.29859 0.0
C1073 C 0.20689 0.59165 0.2756 0.0
C1074 C 0.18847 0.57106 0.28184 0.0
C1075 C 0.14704 0.55536 0.30026 0.0
C1076 C 0.12377 0.56037 0.31157 0.0
C1077 C 0.16545 0.57596 0.29353 0.0
C1078 C 0.11914 0.58625 0.31614 0.0
C1079 C 0.13754 0.60684 0.30987 0.0
H1080 H 0.8839 0.49628 0.07464 0.0
H1081 H 0.92552 0.49294 0.00284 0.0
H1082 H 0.90495 0.53007 0.9852 0.0
H1083 H 0.87258 0.56137 0.98882 0.0
H1084 H 0.833 0.56618 0.06196 0.0
H1085 H 0.85571 0.53092 0.08072 0.0
C1086 C 0.88855 0.50383 0.05521 0.0
C1087 C 0.90583 0.49174 0.03982 0.0
C1088 C 0.8771 0.52545 0.04551 0.0
C1089 C 0.91217 0.50192 0.01496 0.0
C1090 C 0.90039 0.52309 0.00486 0.0
C1091 C 0.86922 0.55492 0.00902 0.0
C1092 C 0.85093 0.56618 0.02385 0.0
C1093 C 0.88247 0.53473 0.01976 0.0
C1094 C 0.84701 0.55787 0.05014 0.0
C1095 C 0.85984 0.53757 0.0608 0.0
H1096 H 0.12827 0.94117 0.00051 0.0
H1097 H 0.17704 0.0044 0.04843 0.0
H1098 H 0.21427 0.97869 0.05309 0.0
H1099 H 0.23286 0.93807 0.04407 0.0
H1100 H 0.18389 0.8747 0.9965 0.0
H1101 H 0.14688 0.9006 0.99143 0.0
C1102 C 0.1471 0.94942 0.01183 0.0
C1103 C 0.14984 0.97473 0.02403 0.0
C1104 C 0.16836 0.93441 0.0147 0.0
C1105 C 0.17435 0.98499 0.03878 0.0
C1106 C 0.19565 0.97027 0.04153 0.0
C1107 C 0.21407 0.92985 0.03267 0.0
C1108 C 0.21121 0.90441 0.02074 0.0
C1109 C 0.19284 0.9449 0.02972 0.0
C1110 C 0.1867 0.89418 0.00596 0.0
C1111 C 0.1655 0.90901 0.00298 0.0
loop_
_geom_bond_atom_site_label_1
_geom_bond_atom_site_label_2
_geom_bond_distance
_geom_bond_site_symmetry_2
_ccdc_geom_bond_type
O0 Cd1 2.300 . S
O0 C7 1.275 . S
Cd1 O0 2.300 . S
Cd1 O9 2.381 . S
Cd1 O10 2.393 . S
O2 Cd3 2.385 . S
O2 C7 1.255 . S
Cd3 O2 2.385 . S
Cd3 O4 2.317 . S
O4 Cd3 2.317 . S
O4 C5 1.232 1_455 S
C5 O4 1.232 1_655 S
C5 O6 1.218 . S
O6 C5 1.218 . S
C7 O0 1.275 . S
C7 O2 1.255 . S
C8 O9 1.258 1_565 S
C8 O10 1.252 1_565 S
O9 Cd1 2.381 . S
O9 C8 1.258 1_545 S
O10 Cd1 2.393 . S
O10 C8 1.252 1_545 S
O11 Cd12 2.300 . S
O11 C18 1.275 . S
Cd12 O11 2.300 . S
Cd12 O20 2.381 . S
Cd12 O21 2.378 . S
O13 Cd14 2.385 . S
O13 C18 1.255 . S
Cd14 O13 2.385 . S
Cd14 O15 2.317 . S
O15 Cd14 2.317 . S
O15 C16 1.232 . S
C16 O15 1.232 . S
C16 O17 1.218 . S
O17 C16 1.218 . S
C18 O11 1.275 . S
C18 O13 1.255 . S
C19 O20 1.258 . S
C19 O21 1.256 . S
O20 Cd12 2.381 . S
O20 C19 1.258 . S
O21 Cd12 2.378 . S
O21 C19 1.256 . S
O22 Cd23 2.300 . S
O22 C29 1.275 . S
Cd23 O22 2.300 . S
Cd23 O31 2.381 . S
Cd23 O32 2.378 . S
O24 Cd25 2.385 1_655 S
O24 C29 1.255 . S
Cd25 O24 2.385 1_455 S
Cd25 O26 2.317 1_455 S
O26 Cd25 2.317 1_655 S
O26 C27 1.232 . S
C27 O26 1.232 . S
C27 O28 1.218 1_655 S
O28 C27 1.218 1_455 S
C29 O22 1.275 . S
C29 O24 1.255 . S
C30 O31 1.258 . S
C30 O32 1.256 . S
O31 Cd23 2.381 . S
O31 C30 1.258 . S
O32 Cd23 2.378 . S
O32 C30 1.256 . S
O33 Cd34 2.300 . S
O33 C40 1.275 . S
Cd34 O33 2.300 . S
Cd34 O42 2.381 . S
Cd34 O43 2.378 . S
O35 Cd36 2.385 . S
O35 C40 1.255 . S
Cd36 O35 2.385 . S
Cd36 O37 2.317 . S
O37 Cd36 2.317 . S
O37 C38 1.232 . S
C38 O37 1.232 . S
C38 O39 1.218 . S
O39 C38 1.218 . S
C40 O33 1.275 . S
C40 O35 1.255 . S
C41 O42 1.258 . S
C41 O43 1.256 . S
O42 Cd34 2.381 . S
O42 C41 1.258 . S
O43 Cd34 2.378 . S
O43 C41 1.256 . S
O44 Cd45 2.300 . S
O44 C51 1.275 . S
Cd45 O44 2.300 . S
Cd45 O53 2.381 . S
Cd45 O54 2.378 . S
O46 Cd47 2.385 1_565 S
O46 C51 1.255 . S
Cd47 O46 2.385 1_545 S
Cd47 O48 2.317 1_545 S
O48 Cd47 2.317 1_565 S
O48 C49 1.232 . S
C49 O48 1.232 . S
C49 O50 1.218 1_565 S
O50 C49 1.218 1_545 S
C51 O44 1.275 . S
C51 O46 1.255 . S
C52 O53 1.258 . S
C52 O54 1.256 . S
O53 Cd45 2.381 . S
O53 C52 1.258 . S
O54 Cd45 2.378 . S
O54 C52 1.256 . S
O55 Cd56 2.300 . S
O55 C62 1.275 . S
Cd56 O55 2.300 . S
Cd56 O64 2.381 . S
Cd56 O65 2.378 . S
O57 Cd58 2.385 . S
O57 C62 1.255 . S
Cd58 O57 2.385 . S
Cd58 O59 2.317 . S
O59 Cd58 2.317 . S
O59 C60 1.232 . S
C60 O59 1.232 . S
C60 O61 1.218 . S
O61 C60 1.218 . S
C62 O55 1.275 . S
C62 O57 1.255 . S
C63 O64 1.258 . S
C63 O65 1.256 . S
O64 Cd56 2.381 . S
O64 C63 1.258 . S
O65 Cd56 2.378 . S
O65 C63 1.256 . S
O66 Cd67 2.300 . S
O66 C73 1.275 . S
Cd67 O66 2.300 . S
Cd67 O75 2.381 . S
Cd67 O76 2.378 . S
O68 Cd69 2.388 . S
O68 C73 1.253 1_455 S
Cd69 O68 2.388 . S
Cd69 O70 2.317 1_455 S
O70 Cd69 2.317 1_655 S
O70 C71 1.226 1_655 S
C71 O70 1.226 1_455 S
C71 O72 1.229 . S
O72 C71 1.229 . S
C73 O66 1.275 . S
C73 O68 1.253 1_655 S
C74 O75 1.258 . S
C74 O76 1.256 . S
O75 Cd67 2.381 . S
O75 C74 1.258 . S
O76 Cd67 2.378 . S
O76 C74 1.256 . S
O77 Cd78 2.300 . S
O77 C84 1.275 . S
Cd78 O77 2.300 . S
Cd78 O86 2.381 . S
Cd78 O87 2.378 . S
O79 Cd80 2.385 . S
O79 C84 1.255 . S
Cd80 O79 2.385 . S
Cd80 O81 2.317 . S
O81 Cd80 2.317 . S
O81 C82 1.232 . S
C82 O81 1.232 . S
C82 O83 1.218 . S
O83 C82 1.218 . S
C84 O77 1.275 . S
C84 O79 1.255 . S
C85 O86 1.258 . S
C85 O87 1.256 . S
O86 Cd78 2.381 . S
O86 C85 1.258 . S
O87 Cd78 2.378 . S
O87 C85 1.256 . S
O88 Cd89 2.300 . S
O88 C95 1.275 . S
Cd89 O88 2.300 . S
Cd89 O97 2.381 . S
Cd89 O98 2.378 . S
O90 Cd91 2.385 . S
O90 C95 1.255 . S
Cd91 O90 2.385 . S
Cd91 O92 2.317 . S
O92 Cd91 2.317 . S
O92 C93 1.232 . S
C93 O92 1.232 . S
C93 O94 1.218 . S
O94 C93 1.218 . S
C95 O88 1.275 . S
C95 O90 1.255 . S
C96 O97 1.258 . S
C96 O98 1.256 . S
O97 Cd89 2.381 . S
O97 C96 1.258 . S
O98 Cd89 2.378 . S
O98 C96 1.256 . S
O99 Cd100 2.300 . S
O99 C106 1.275 . S
Cd100 O99 2.300 . S
Cd100 O108 2.381 1_565 S
Cd100 O109 2.378 1_565 S
O101 Cd102 2.385 . S
O101 C106 1.255 . S
Cd102 O101 2.385 . S
Cd102 O103 2.317 . S
O103 Cd102 2.317 . S
O103 C104 1.232 . S
C104 O103 1.232 . S
C104 O105 1.218 . S
O105 C104 1.218 . S
C106 O99 1.275 . S
C106 O101 1.255 . S
C107 O108 1.258 . S
C107 O109 1.256 . S
O108 Cd100 2.381 1_545 S
O108 C107 1.258 . S
O109 Cd100 2.378 1_545 S
O109 C107 1.256 . S
O110 Cd111 2.300 . S
O110 C117 1.275 . S
Cd111 O110 2.300 . S
Cd111 O119 2.381 . S
Cd111 O120 2.378 . S
O112 Cd113 2.385 . S
O112 C117 1.255 . S
Cd113 O112 2.385 . S
Cd113 O114 2.317 . S
O114 Cd113 2.317 . S
O114 C115 1.232 . S
C115 O114 1.232 . S
C115 O116 1.218 . S
O116 C115 1.218 . S
C117 O110 1.275 . S
C117 O112 1.255 . S
C118 O119 1.258 . S
C118 O120 1.256 . S
O119 Cd111 2.381 . S
O119 C118 1.258 . S
O120 Cd111 2.378 . S
O120 C118 1.256 . S
O121 Cd122 2.300 . S
O121 C128 1.275 . S
Cd122 O121 2.300 . S
Cd122 O130 2.381 . S
Cd122 O131 2.378 . S
O123 Cd124 2.385 . S
O123 C128 1.255 . S
Cd124 O123 2.385 . S
Cd124 O125 2.317 . S
O125 Cd124 2.317 . S
O125 C126 1.232 . S
C126 O125 1.232 . S
C126 O127 1.218 . S
O127 C126 1.218 . S
C128 O121 1.275 . S
C128 O123 1.255 . S
C129 O130 1.258 . S
C129 O131 1.256 . S
O130 Cd122 2.381 . S
O130 C129 1.258 . S
O131 Cd122 2.378 . S
O131 C129 1.256 . S
O132 Cd133 2.300 . S
O132 C139 1.275 . S
Cd133 O132 2.300 . S
Cd133 O141 2.381 . S
Cd133 O142 2.378 . S
O134 Cd135 2.385 . S
O134 C139 1.255 . S
Cd135 O134 2.385 . S
Cd135 O136 2.317 . S
O136 Cd135 2.317 . S
O136 C137 1.232 . S
C137 O136 1.232 . S
C137 O138 1.218 . S
O138 C137 1.218 . S
C139 O132 1.275 . S
C139 O134 1.255 . S
C140 O141 1.258 . S
C140 O142 1.256 . S
O141 Cd133 2.381 . S
O141 C140 1.258 . S
O142 Cd133 2.378 . S
O142 C140 1.256 . S
O143 Cd144 2.300 1_556 S
O143 C150 1.275 . S
Cd144 O143 2.300 1_554 S
Cd144 O152 2.381 . S
Cd144 O153 2.378 . S
O145 Cd146 2.385 . S
O145 C150 1.255 . S
Cd146 O145 2.385 . S
Cd146 O147 2.317 . S
O147 Cd146 2.317 . S
O147 C148 1.232 . S
C148 O147 1.232 . S
C148 O149 1.218 . S
O149 C148 1.218 . S
C150 O143 1.275 . S
C150 O145 1.255 . S
C151 O152 1.258 . S
C151 O153 1.256 . S
O152 Cd144 2.381 . S
O152 C151 1.258 . S
O153 Cd144 2.378 . S
O153 C151 1.256 . S
O154 Cd155 2.300 . S
O154 C161 1.275 . S
Cd155 O154 2.300 . S
Cd155 O163 2.381 . S
Cd155 O164 2.378 . S
O156 Cd157 2.385 . S
O156 C161 1.255 . S
Cd157 O156 2.385 . S
Cd157 O158 2.317 . S
O158 Cd157 2.317 . S
O158 C159 1.232 . S
C159 O158 1.232 . S
C159 O160 1.218 . S
O160 C159 1.218 . S
C161 O154 1.275 . S
C161 O156 1.255 . S
C162 O163 1.258 . S
C162 O164 1.256 . S
O163 Cd155 2.381 . S
O163 C162 1.258 . S
O164 Cd155 2.378 . S
O164 C162 1.256 . S
O165 Cd166 2.300 . S
O165 C172 1.275 . S
Cd166 O165 2.300 . S
Cd166 O174 2.381 . S
Cd166 O175 2.378 1_556 S
O167 Cd168 2.385 1_556 S
O167 C172 1.255 . S
Cd168 O167 2.385 1_554 S
Cd168 O169 2.317 . S
O169 Cd168 2.317 . S
O169 C170 1.232 . S
C170 O169 1.232 . S
C170 O171 1.218 . S
O171 C170 1.218 . S
C172 O165 1.275 . S
C172 O167 1.255 . S
C173 O174 1.255 1_565 S
C173 O175 1.255 1_566 S
O174 Cd166 2.381 . S
O174 C173 1.255 1_545 S
O175 Cd166 2.378 1_554 S
O175 C173 1.255 1_544 S
Zn176 O179 2.031 . S
Zn176 O181 2.065 . S
Zn176 O186 2.067 1_554 S
Zn177 O178 1.962 . S
Zn177 O180 1.986 . S
Zn177 O182 1.996 . S
Zn177 O185 1.943 1_554 S
O178 Zn177 1.962 . S
O178 C183 1.254 . S
O179 Zn176 2.031 . S
O179 C183 1.269 . S
O180 Zn177 1.986 . S
O180 C187 1.262 . S
O181 Zn176 2.065 . S
O181 C189 1.270 . S
O182 Zn177 1.996 . S
O182 C189 1.257 . S
C183 O178 1.254 . S
C183 O179 1.269 . S
C184 O185 1.249 . S
C184 O186 1.270 . S
O185 Zn177 1.943 1_556 S
O185 C184 1.249 . S
O186 Zn176 2.067 1_556 S
O186 C184 1.270 . S
C187 O180 1.262 . S
C187 O188 1.232 . S
O188 C187 1.232 . S
C189 O181 1.270 . S
C189 O182 1.257 . S
Zn190 O193 2.031 . S
Zn190 O195 2.049 . S
Zn190 O200 2.067 . S
Zn191 O192 1.962 . S
Zn191 O194 1.986 . S
Zn191 O196 1.996 . S
Zn191 O199 1.943 . S
O192 Zn191 1.962 . S
O192 C197 1.254 . S
O193 Zn190 2.031 . S
O193 C197 1.269 . S
O194 Zn191 1.986 . S
O194 C201 1.262 . S
O195 Zn190 2.049 . S
O195 C203 1.260 . S
O196 Zn191 1.996 . S
O196 C203 1.257 . S
C197 O192 1.254 . S
C197 O193 1.269 . S
C198 O199 1.249 . S
C198 O200 1.270 . S
O199 Zn191 1.943 . S
O199 C198 1.249 . S
O200 Zn190 2.067 . S
O200 C198 1.270 . S
C201 O194 1.262 . S
C201 O202 1.232 . S
O202 C201 1.232 . S
C203 O195 1.260 . S
C203 O196 1.257 . S
Zn204 O207 2.031 1_556 S
Zn204 O209 2.049 . S
Zn204 O214 2.067 . S
Zn205 O206 1.962 . S
Zn205 O208 1.986 . S
Zn205 O210 1.996 1_554 S
Zn205 O213 1.943 . S
O206 Zn205 1.962 . S
O206 C211 1.254 . S
O207 Zn204 2.031 1_554 S
O207 C211 1.269 . S
O208 Zn205 1.986 . S
O208 C215 1.262 . S
O209 Zn204 2.049 . S
O209 C217 1.260 . S
O210 Zn205 1.996 1_556 S
O210 C217 1.257 . S
C211 O206 1.254 . S
C211 O207 1.269 . S
C212 O213 1.249 . S
C212 O214 1.270 1_554 S
O213 Zn205 1.943 . S
O213 C212 1.249 . S
O214 Zn204 2.067 . S
O214 C212 1.270 1_556 S
C215 O208 1.262 . S
C215 O216 1.232 . S
O216 C215 1.232 . S
C217 O209 1.260 . S
C217 O210 1.257 . S
Zn218 O221 2.031 . S
Zn218 O223 2.032 1_545 S
Zn218 O228 2.067 1_545 S
Zn219 O220 1.962 . S
Zn219 O222 1.986 . S
Zn219 O224 1.996 . S
Zn219 O227 1.943 1_545 S
O220 Zn219 1.962 . S
O220 C225 1.254 . S
O221 Zn218 2.031 . S
O221 C225 1.269 . S
O222 Zn219 1.986 . S
O222 C229 1.262 . S
O223 Zn218 2.032 1_565 S
O223 C231 1.253 1_565 S
O224 Zn219 1.996 . S
O224 C231 1.257 . S
C225 O220 1.254 . S
C225 O221 1.269 . S
C226 O227 1.249 . S
C226 O228 1.270 . S
O227 Zn219 1.943 1_565 S
O227 C226 1.249 . S
O228 Zn218 2.067 1_565 S
O228 C226 1.270 . S
C229 O222 1.262 . S
C229 O230 1.232 . S
O230 C229 1.232 . S
C231 O223 1.253 1_545 S
C231 O224 1.257 . S
Zn232 O235 2.031 . S
Zn232 O237 2.049 . S
Zn232 O242 2.067 . S
Zn233 O234 1.962 . S
Zn233 O236 1.986 . S
Zn233 O238 1.996 . S
Zn233 O241 1.943 . S
O234 Zn233 1.962 . S
O234 C239 1.254 . S
O235 Zn232 2.031 . S
O235 C239 1.269 . S
O236 Zn233 1.986 . S
O236 C243 1.262 . S
O237 Zn232 2.049 . S
O237 C245 1.260 . S
O238 Zn233 1.996 . S
O238 C245 1.257 . S
C239 O234 1.254 . S
C239 O235 1.269 . S
C240 O241 1.249 . S
C240 O242 1.270 . S
O241 Zn233 1.943 . S
O241 C240 1.249 . S
O242 Zn232 2.067 . S
O242 C240 1.270 . S
C243 O236 1.262 . S
C243 O244 1.232 . S
O244 C243 1.232 . S
C245 O237 1.260 . S
C245 O238 1.257 . S
Zn246 O249 2.031 . S
Zn246 O251 2.049 . S
Zn246 O256 2.067 . S
Zn247 O248 1.962 . S
Zn247 O250 1.986 . S
Zn247 O252 1.996 . S
Zn247 O255 1.943 . S
O248 Zn247 1.962 . S
O248 C253 1.254 . S
O249 Zn246 2.031 . S
O249 C253 1.269 . S
O250 Zn247 1.986 . S
O250 C257 1.262 . S
O251 Zn246 2.049 . S
O251 C259 1.260 . S
O252 Zn247 1.996 . S
O252 C259 1.257 . S
C253 O248 1.254 . S
C253 O249 1.269 . S
C254 O255 1.249 . S
C254 O256 1.270 . S
O255 Zn247 1.943 . S
O255 C254 1.249 . S
O256 Zn246 2.067 . S
O256 C254 1.270 . S
C257 O250 1.262 . S
C257 O258 1.232 . S
O258 C257 1.232 . S
C259 O251 1.260 . S
C259 O252 1.257 . S
Zn260 O263 2.031 . S
Zn260 O265 2.049 . S
Zn260 O270 2.067 . S
Zn261 O262 1.962 . S
Zn261 O264 1.986 . S
Zn261 O266 1.996 . S
Zn261 O269 1.943 . S
O262 Zn261 1.962 . S
O262 C267 1.254 . S
O263 Zn260 2.031 . S
O263 C267 1.269 . S
O264 Zn261 1.986 . S
O264 C271 1.262 . S
O265 Zn260 2.049 . S
O265 C273 1.260 . S
O266 Zn261 1.996 . S
O266 C273 1.257 . S
C267 O262 1.254 . S
C267 O263 1.269 . S
C268 O269 1.249 . S
C268 O270 1.270 . S
O269 Zn261 1.943 . S
O269 C268 1.249 . S
O270 Zn260 2.067 . S
O270 C268 1.270 . S
C271 O264 1.262 . S
C271 O272 1.232 . S
O272 C271 1.232 . S
C273 O265 1.260 . S
C273 O266 1.257 . S
Zn274 O277 2.031 . S
Zn274 O279 2.049 . S
Zn274 O284 2.067 . S
Zn275 O276 1.962 . S
Zn275 O278 1.986 . S
Zn275 O280 1.996 1_545 S
Zn275 O283 1.943 . S
O276 Zn275 1.962 . S
O276 C281 1.254 . S
O277 Zn274 2.031 . S
O277 C281 1.269 1_565 S
O278 Zn275 1.986 . S
O278 C285 1.262 . S
O279 Zn274 2.049 . S
O279 C287 1.260 . S
O280 Zn275 1.996 1_565 S
O280 C287 1.257 . S
C281 O276 1.254 . S
C281 O277 1.269 1_545 S
C282 O283 1.249 1_565 S
C282 O284 1.270 . S
O283 Zn275 1.943 . S
O283 C282 1.249 1_545 S
O284 Zn274 2.067 . S
O284 C282 1.270 . S
C285 O278 1.262 . S
C285 O286 1.232 . S
O286 C285 1.232 . S
C287 O279 1.260 . S
C287 O280 1.257 . S
Zn288 O291 2.031 . S
Zn288 O293 2.049 1_455 S
Zn288 O298 2.067 1_455 S
Zn289 O290 1.962 . S
Zn289 O292 1.986 . S
Zn289 O294 1.996 . S
Zn289 O297 1.943 1_455 S
O290 Zn289 1.962 . S
O290 C295 1.254 . S
O291 Zn288 2.031 . S
O291 C295 1.269 . S
O292 Zn289 1.986 . S
O292 C299 1.262 . S
O293 Zn288 2.049 1_655 S
O293 C301 1.260 1_655 S
O294 Zn289 1.996 . S
O294 C301 1.257 . S
C295 O290 1.254 . S
C295 O291 1.269 . S
C296 O297 1.249 . S
C296 O298 1.270 . S
O297 Zn289 1.943 1_655 S
O297 C296 1.249 . S
O298 Zn288 2.067 1_655 S
O298 C296 1.270 . S
C299 O292 1.262 . S
C299 O300 1.232 . S
O300 C299 1.232 . S
C301 O293 1.260 1_455 S
C301 O294 1.257 . S
Zn302 O305 2.031 . S
Zn302 O307 2.049 . S
Zn302 O312 2.067 . S
Zn303 O304 1.962 . S
Zn303 O306 1.986 . S
Zn303 O308 1.996 . S
Zn303 O311 1.943 . S
O304 Zn303 1.962 . S
O304 C309 1.254 . S
O305 Zn302 2.031 . S
O305 C309 1.269 . S
O306 Zn303 1.986 . S
O306 C313 1.262 . S
O307 Zn302 2.049 . S
O307 C315 1.260 . S
O308 Zn303 1.996 . S
O308 C315 1.257 . S
C309 O304 1.254 . S
C309 O305 1.269 . S
C310 O311 1.249 . S
C310 O312 1.270 . S
O311 Zn303 1.943 . S
O311 C310 1.249 . S
O312 Zn302 2.067 . S
O312 C310 1.270 . S
C313 O306 1.262 . S
C313 O314 1.232 . S
O314 C313 1.232 . S
C315 O307 1.260 . S
C315 O308 1.257 . S
Zn316 O319 2.031 1_655 S
Zn316 O321 2.049 . S
Zn316 O326 2.067 . S
Zn317 O318 1.962 . S
Zn317 O320 1.986 . S
Zn317 O322 1.996 1_455 S
Zn317 O325 1.943 . S
O318 Zn317 1.962 . S
O318 C323 1.254 . S
O319 Zn316 2.031 1_455 S
O319 C323 1.269 . S
O320 Zn317 1.986 . S
O320 C327 1.262 . S
O321 Zn316 2.049 . S
O321 C329 1.260 . S
O322 Zn317 1.996 1_655 S
O322 C329 1.257 . S
C323 O318 1.254 . S
C323 O319 1.269 . S
C324 O325 1.249 . S
C324 O326 1.270 1_455 S
O325 Zn317 1.943 . S
O325 C324 1.249 . S
O326 Zn316 2.067 . S
O326 C324 1.270 1_655 S
C327 O320 1.262 . S
C327 O328 1.232 . S
O328 C327 1.232 . S
C329 O321 1.260 . S
C329 O322 1.257 . S
Zn330 O333 2.031 . S
Zn330 O335 2.049 . S
Zn330 O340 2.067 . S
Zn331 O332 1.962 . S
Zn331 O334 1.986 . S
Zn331 O336 1.996 . S
Zn331 O339 1.943 . S
O332 Zn331 1.962 . S
O332 C337 1.254 . S
O333 Zn330 2.031 . S
O333 C337 1.269 . S
O334 Zn331 1.986 . S
O334 C341 1.262 . S
O335 Zn330 2.049 . S
O335 C343 1.260 . S
O336 Zn331 1.996 . S
O336 C343 1.257 . S
C337 O332 1.254 . S
C337 O333 1.269 . S
C338 O339 1.249 . S
C338 O340 1.270 . S
O339 Zn331 1.943 . S
O339 C338 1.249 . S
O340 Zn330 2.067 . S
O340 C338 1.270 . S
C341 O334 1.262 . S
C341 O342 1.232 . S
O342 C341 1.232 . S
C343 O335 1.260 . S
C343 O336 1.257 . S
H344 C350 0.930 . S
H345 C353 0.930 . S
H346 C354 0.930 . S
H347 C355 0.930 . S
H348 C358 0.930 . S
H349 C359 0.930 . S
C350 H344 0.930 . S
C350 C351 1.355 . S
C350 C352 1.415 . S
C351 C350 1.355 . S
C351 C353 1.419 . S
C352 C350 1.415 . S
C352 C357 1.425 . S
C352 C359 1.409 . S
C353 H345 0.930 . S
C353 C351 1.419 . S
C353 C354 1.362 . S
C354 H346 0.930 . S
C354 C353 1.362 . S
C354 C357 1.409 . S
C355 H347 0.930 . S
C355 C356 1.355 . S
C355 C357 1.415 . S
C356 C355 1.355 . S
C356 C358 1.419 . S
C357 C352 1.425 . S
C357 C354 1.409 . S
C357 C355 1.415 . S
C358 H348 0.930 . S
C358 C356 1.419 . S
C358 C359 1.362 . S
C359 H349 0.930 . S
C359 C352 1.409 . S
C359 C358 1.362 . S
H360 C366 0.930 . S
H361 C369 0.930 . S
H362 C370 0.930 . S
H363 C371 0.930 . S
H364 C374 0.930 . S
H365 C375 0.930 . S
C366 H360 0.930 . S
C366 C367 1.355 . S
C366 C368 1.415 . S
C367 C366 1.355 . S
C367 C369 1.419 1_455 S
C368 C366 1.415 . S
C368 C373 1.425 . S
C368 C375 1.409 . S
C369 H361 0.930 . S
C369 C367 1.419 1_655 S
C369 C370 1.362 1_655 S
C370 H362 0.930 . S
C370 C369 1.362 1_455 S
C370 C373 1.409 . S
C371 H363 0.930 . S
C371 C372 1.355 . S
C371 C373 1.415 . S
C372 C371 1.355 . S
C372 C374 1.419 . S
C373 C368 1.425 . S
C373 C370 1.409 . S
C373 C371 1.415 . S
C374 H364 0.930 . S
C374 C372 1.419 . S
C374 C375 1.362 . S
C375 H365 0.930 . S
C375 C368 1.409 . S
C375 C374 1.362 . S
H376 C382 0.930 . S
H377 C385 0.930 . S
H378 C386 0.930 . S
H379 C387 0.930 . S
H380 C390 0.930 . S
H381 C391 0.930 . S
C382 H376 0.930 . S
C382 C383 1.355 . S
C382 C384 1.415 . S
C383 C382 1.355 . S
C383 C385 1.419 . S
C384 C382 1.415 . S
C384 C389 1.425 . S
C384 C391 1.409 . S
C385 H377 0.930 . S
C385 C383 1.419 . S
C385 C386 1.362 . S
C386 H378 0.930 . S
C386 C385 1.362 . S
C386 C389 1.409 . S
C387 H379 0.930 . S
C387 C388 1.355 . S
C387 C389 1.415 . S
C388 C387 1.355 . S
C388 C390 1.419 . S
C389 C384 1.425 . S
C389 C386 1.409 . S
C389 C387 1.415 . S
C390 H380 0.930 . S
C390 C388 1.419 . S
C390 C391 1.362 . S
C391 H381 0.930 . S
C391 C384 1.409 . S
C391 C390 1.362 . S
H392 C398 0.930 . S
H393 C401 0.935 . S
H394 C402 0.914 1_545 S
H395 C403 0.930 . S
H396 C406 0.930 . S
H397 C407 0.930 . S
C398 H392 0.930 . S
C398 C399 1.355 . S
C398 C400 1.415 1_455 S
C399 C398 1.355 . S
C399 C401 1.419 1_455 S
C400 C398 1.415 1_655 S
C400 C405 1.425 . S
C400 C407 1.409 . S
C401 H393 0.935 . S
C401 C399 1.419 1_655 S
C401 C402 1.377 . S
C402 H394 0.914 1_565 S
C402 C401 1.377 . S
C402 C405 1.412 . S
C403 H395 0.930 . S
C403 C404 1.354 1_545 S
C403 C405 1.415 1_545 S
C404 C403 1.354 1_565 S
C404 C406 1.435 . S
C405 C400 1.425 . S
C405 C402 1.412 . S
C405 C403 1.415 1_565 S
C406 H396 0.930 . S
C406 C404 1.435 . S
C406 C407 1.362 . S
C407 H397 0.930 . S
C407 C400 1.409 . S
C407 C406 1.362 . S
H408 C414 0.930 . S
H409 C417 0.930 . S
H410 C418 0.930 . S
H411 C419 0.930 . S
H412 C422 0.930 . S
H413 C423 0.930 . S
C414 H408 0.930 . S
C414 C415 1.355 . S
C414 C416 1.415 . S
C415 C414 1.355 . S
C415 C417 1.419 . S
C416 C414 1.415 . S
C416 C421 1.425 . S
C416 C423 1.409 . S
C417 H409 0.930 . S
C417 C415 1.419 . S
C417 C418 1.362 . S
C418 H410 0.930 . S
C418 C417 1.362 . S
C418 C421 1.409 . S
C419 H411 0.930 . S
C419 C420 1.355 . S
C419 C421 1.415 . S
C420 C419 1.355 . S
C420 C422 1.419 . S
C421 C416 1.425 . S
C421 C418 1.409 . S
C421 C419 1.415 . S
C422 H412 0.930 . S
C422 C420 1.419 . S
C422 C423 1.362 . S
C423 H413 0.930 . S
C423 C416 1.409 . S
C423 C422 1.362 . S
H424 C430 0.930 . S
H425 C433 0.930 . S
H426 C434 0.930 . S
H427 C435 0.930 . S
H428 C438 0.930 . S
H429 C439 0.930 . S
C430 H424 0.930 . S
C430 C431 1.355 . S
C430 C432 1.415 . S
C431 C430 1.355 . S
C431 C433 1.419 . S
C432 C430 1.415 . S
C432 C437 1.425 . S
C432 C439 1.409 . S
C433 H425 0.930 . S
C433 C431 1.419 . S
C433 C434 1.362 . S
C434 H426 0.930 . S
C434 C433 1.362 . S
C434 C437 1.409 . S
C435 H427 0.930 . S
C435 C436 1.355 . S
C435 C437 1.415 . S
C436 C435 1.355 . S
C436 C438 1.419 . S
C437 C432 1.425 . S
C437 C434 1.409 . S
C437 C435 1.415 . S
C438 H428 0.930 . S
C438 C436 1.419 . S
C438 C439 1.362 . S
C439 H429 0.930 . S
C439 C432 1.409 . S
C439 C438 1.362 . S
H440 C446 0.930 . S
H441 C449 0.930 . S
H442 C450 0.930 . S
H443 C451 0.930 . S
H444 C454 0.930 . S
H445 C455 0.930 . S
C446 H440 0.930 . S
C446 C447 1.355 . S
C446 C448 1.415 . S
C447 C446 1.355 . S
C447 C449 1.419 . S
C448 C446 1.415 . S
C448 C453 1.425 . S
C448 C455 1.409 . S
C449 H441 0.930 . S
C449 C447 1.419 . S
C449 C450 1.362 . S
C450 H442 0.930 . S
C450 C449 1.362 . S
C450 C453 1.409 . S
C451 H443 0.930 . S
C451 C452 1.355 . S
C451 C453 1.415 . S
C452 C451 1.355 . S
C452 C454 1.419 . S
C453 C448 1.425 . S
C453 C450 1.409 . S
C453 C451 1.415 . S
C454 H444 0.930 . S
C454 C452 1.419 . S
C454 C455 1.362 . S
C455 H445 0.930 . S
C455 C448 1.409 . S
C455 C454 1.362 . S
H456 C462 0.930 . S
H457 C465 0.930 . S
H458 C466 0.930 . S
H459 C467 0.930 . S
H460 C470 0.926 1_545 S
H461 C471 0.930 1_545 S
C462 H456 0.930 . S
C462 C463 1.355 . S
C462 C464 1.415 . S
C463 C462 1.355 . S
C463 C465 1.419 . S
C464 C462 1.415 . S
C464 C469 1.425 . S
C464 C471 1.409 . S
C465 H457 0.930 . S
C465 C463 1.419 . S
C465 C466 1.362 . S
C466 H458 0.930 . S
C466 C465 1.362 . S
C466 C469 1.409 . S
C467 H459 0.930 . S
C467 C468 1.355 . S
C467 C469 1.415 . S
C468 C467 1.355 . S
C468 C470 1.425 . S
C469 C464 1.425 . S
C469 C466 1.409 . S
C469 C467 1.415 . S
C470 H460 0.926 1_565 S
C470 C468 1.425 . S
C470 C471 1.361 . S
C471 H461 0.930 1_565 S
C471 C464 1.409 . S
C471 C470 1.361 . S
H472 C478 0.930 . S
H473 C481 0.930 . S
H474 C482 0.930 . S
H475 C483 0.930 . S
H476 C486 0.930 . S
H477 C487 0.930 . S
C478 H472 0.930 . S
C478 C479 1.355 . S
C478 C480 1.415 . S
C479 C478 1.355 . S
C479 C481 1.419 . S
C480 C478 1.415 . S
C480 C485 1.425 . S
C480 C487 1.409 . S
C481 H473 0.930 . S
C481 C479 1.419 . S
C481 C482 1.362 . S
C482 H474 0.930 . S
C482 C481 1.362 . S
C482 C485 1.409 . S
C483 H475 0.930 . S
C483 C484 1.355 . S
C483 C485 1.415 . S
C484 C483 1.355 . S
C484 C486 1.419 . S
C485 C480 1.425 . S
C485 C482 1.409 . S
C485 C483 1.415 . S
C486 H476 0.930 . S
C486 C484 1.419 . S
C486 C487 1.362 . S
C487 H477 0.930 . S
C487 C480 1.409 . S
C487 C486 1.362 . S
H488 C494 0.930 . S
H489 C497 0.930 . S
H490 C498 0.930 . S
H491 C499 0.930 . S
H492 C502 0.930 . S
H493 C503 0.930 . S
C494 H488 0.930 . S
C494 C495 1.355 . S
C494 C496 1.415 . S
C495 C494 1.355 . S
C495 C497 1.419 . S
C496 C494 1.415 . S
C496 C501 1.425 . S
C496 C503 1.409 . S
C497 H489 0.930 . S
C497 C495 1.419 . S
C497 C498 1.362 . S
C498 H490 0.930 . S
C498 C497 1.362 . S
C498 C501 1.409 . S
C499 H491 0.930 . S
C499 C500 1.355 . S
C499 C501 1.415 . S
C500 C499 1.355 . S
C500 C502 1.419 . S
C501 C496 1.425 . S
C501 C498 1.409 . S
C501 C499 1.415 . S
C502 H492 0.930 . S
C502 C500 1.419 . S
C502 C503 1.362 . S
C503 H493 0.930 . S
C503 C496 1.409 . S
C503 C502 1.362 . S
H504 C510 0.930 . S
H505 C513 0.930 . S
H506 C514 0.930 . S
H507 C515 0.930 . S
H508 C518 0.930 . S
H509 C519 0.930 . S
C510 H504 0.930 . S
C510 C511 1.355 . S
C510 C512 1.415 . S
C511 C510 1.355 . S
C511 C513 1.419 . S
C512 C510 1.415 . S
C512 C517 1.425 . S
C512 C519 1.409 . S
C513 H505 0.930 . S
C513 C511 1.419 . S
C513 C514 1.362 . S
C514 H506 0.930 . S
C514 C513 1.362 . S
C514 C517 1.409 . S
C515 H507 0.930 . S
C515 C516 1.355 . S
C515 C517 1.415 . S
C516 C515 1.355 . S
C516 C518 1.419 . S
C517 C512 1.425 . S
C517 C514 1.409 . S
C517 C515 1.415 . S
C518 H508 0.930 . S
C518 C516 1.419 . S
C518 C519 1.362 . S
C519 H509 0.930 . S
C519 C512 1.409 . S
C519 C518 1.362 . S
H520 C526 0.930 . S
H521 C529 0.930 . S
H522 C530 0.930 . S
H523 C531 0.930 . S
H524 C534 0.930 . S
H525 C535 0.930 . S
C526 H520 0.930 . S
C526 C527 1.355 . S
C526 C528 1.415 . S
C527 C526 1.355 . S
C527 C529 1.419 . S
C528 C526 1.415 . S
C528 C533 1.425 . S
C528 C535 1.409 . S
C529 H521 0.930 . S
C529 C527 1.419 . S
C529 C530 1.362 . S
C530 H522 0.930 . S
C530 C529 1.362 . S
C530 C533 1.409 . S
C531 H523 0.930 . S
C531 C532 1.355 . S
C531 C533 1.415 . S
C532 C531 1.355 . S
C532 C534 1.419 . S
C533 C528 1.425 . S
C533 C530 1.409 . S
C533 C531 1.415 . S
C534 H524 0.930 . S
C534 C532 1.419 . S
C534 C535 1.362 . S
C535 H525 0.930 . S
C535 C528 1.409 . S
C535 C534 1.362 . S
H536 C542 0.930 . S
H537 C545 0.930 . S
H538 C546 0.930 . S
H539 C547 0.930 . S
H540 C550 0.930 . S
H541 C551 0.930 . S
C542 H536 0.930 . S
C542 C543 1.355 . S
C542 C544 1.415 . S
C543 C542 1.355 . S
C543 C545 1.419 . S
C544 C542 1.415 . S
C544 C549 1.425 . S
C544 C551 1.409 . S
C545 H537 0.930 . S
C545 C543 1.419 . S
C545 C546 1.362 . S
C546 H538 0.930 . S
C546 C545 1.362 . S
C546 C549 1.409 . S
C547 H539 0.930 . S
C547 C548 1.355 . S
C547 C549 1.415 . S
C548 C547 1.355 . S
C548 C550 1.419 . S
C549 C544 1.425 . S
C549 C546 1.409 . S
C549 C547 1.415 . S
C550 H540 0.930 . S
C550 C548 1.419 . S
C550 C551 1.362 . S
C551 H541 0.930 . S
C551 C544 1.409 . S
C551 C550 1.362 . S
H552 C558 0.930 . S
H553 C561 0.930 . S
H554 C562 0.930 . S
H555 C563 0.930 . S
H556 C566 0.930 1_655 S
H557 C567 0.930 1_655 S
C558 H552 0.930 . S
C558 C559 1.355 . S
C558 C560 1.415 . S
C559 C558 1.355 . S
C559 C561 1.419 . S
C560 C558 1.415 . S
C560 C565 1.425 . S
C560 C567 1.409 . S
C561 H553 0.930 . S
C561 C559 1.419 . S
C561 C562 1.362 . S
C562 H554 0.930 . S
C562 C561 1.362 . S
C562 C565 1.409 . S
C563 H555 0.930 . S
C563 C564 1.355 . S
C563 C565 1.415 . S
C564 C563 1.355 . S
C564 C566 1.419 . S
C565 C560 1.425 . S
C565 C562 1.409 . S
C565 C563 1.415 . S
C566 H556 0.930 1_455 S
C566 C564 1.419 . S
C566 C567 1.362 . S
C567 H557 0.930 1_455 S
C567 C560 1.409 . S
C567 C566 1.362 . S
H568 C574 0.930 . S
H569 C577 0.930 . S
H570 C578 0.930 . S
H571 C579 0.930 . S
H572 C582 0.930 . S
H573 C583 0.930 . S
C574 H568 0.930 . S
C574 C575 1.355 . S
C574 C576 1.415 . S
C575 C574 1.355 . S
C575 C577 1.419 . S
C576 C574 1.415 . S
C576 C581 1.425 . S
C576 C583 1.409 . S
C577 H569 0.930 . S
C577 C575 1.419 . S
C577 C578 1.362 . S
C578 H570 0.930 . S
C578 C577 1.362 . S
C578 C581 1.409 . S
C579 H571 0.930 . S
C579 C580 1.355 . S
C579 C581 1.415 . S
C580 C579 1.355 . S
C580 C582 1.419 . S
C581 C576 1.425 . S
C581 C578 1.409 . S
C581 C579 1.415 . S
C582 H572 0.930 . S
C582 C580 1.419 . S
C582 C583 1.362 . S
C583 H573 0.930 . S
C583 C576 1.409 . S
C583 C582 1.362 . S
H584 C590 0.930 . S
H585 C593 0.930 . S
H586 C594 0.930 . S
H587 C595 0.930 . S
H588 C598 0.930 . S
H589 C599 0.930 . S
C590 H584 0.930 . S
C590 C591 1.355 1_455 S
C590 C592 1.415 . S
C591 C590 1.355 1_655 S
C591 C593 1.419 . S
C592 C590 1.415 . S
C592 C597 1.425 1_455 S
C592 C599 1.409 . S
C593 H585 0.930 . S
C593 C591 1.419 . S
C593 C594 1.362 . S
C594 H586 0.930 . S
C594 C593 1.362 . S
C594 C597 1.409 . S
C595 H587 0.930 . S
C595 C596 1.355 1_655 S
C595 C597 1.415 . S
C596 C595 1.355 1_455 S
C596 C598 1.419 . S
C597 C592 1.425 1_655 S
C597 C594 1.409 . S
C597 C595 1.415 . S
C598 H588 0.930 . S
C598 C596 1.419 . S
C598 C599 1.362 . S
C599 H589 0.930 . S
C599 C592 1.409 . S
C599 C598 1.362 . S
H600 C606 0.930 . S
H601 C609 0.930 . S
H602 C610 0.930 . S
H603 C611 0.930 . S
H604 C614 0.930 . S
H605 C615 0.930 . S
C606 H600 0.930 . S
C606 C607 1.355 . S
C606 C608 1.415 . S
C607 C606 1.355 . S
C607 C609 1.419 . S
C608 C606 1.415 . S
C608 C613 1.425 . S
C608 C615 1.409 . S
C609 H601 0.930 . S
C609 C607 1.419 . S
C609 C610 1.362 . S
C610 H602 0.930 . S
C610 C609 1.362 . S
C610 C613 1.409 . S
C611 H603 0.930 . S
C611 C612 1.355 . S
C611 C613 1.415 . S
C612 C611 1.355 . S
C612 C614 1.419 . S
C613 C608 1.425 . S
C613 C610 1.409 . S
C613 C611 1.415 . S
C614 H604 0.930 . S
C614 C612 1.419 . S
C614 C615 1.362 . S
C615 H605 0.930 . S
C615 C608 1.409 . S
C615 C614 1.362 . S
H616 C622 0.930 . S
H617 C625 0.930 . S
H618 C626 0.930 . S
H619 C627 0.930 . S
H620 C630 0.930 . S
H621 C631 0.930 . S
C622 H616 0.930 . S
C622 C623 1.355 . S
C622 C624 1.415 . S
C623 C622 1.355 . S
C623 C625 1.419 . S
C624 C622 1.415 . S
C624 C629 1.425 . S
C624 C631 1.409 . S
C625 H617 0.930 . S
C625 C623 1.419 . S
C625 C626 1.362 . S
C626 H618 0.930 . S
C626 C625 1.362 . S
C626 C629 1.409 . S
C627 H619 0.930 . S
C627 C628 1.355 . S
C627 C629 1.415 . S
C628 C627 1.355 . S
C628 C630 1.419 . S
C629 C624 1.425 . S
C629 C626 1.409 . S
C629 C627 1.415 . S
C630 H620 0.930 . S
C630 C628 1.419 . S
C630 C631 1.362 . S
C631 H621 0.930 . S
C631 C624 1.409 . S
C631 C630 1.362 . S
H632 C638 0.930 . S
H633 C641 0.930 1_545 S
H634 C642 0.930 . S
H635 C643 0.930 . S
H636 C646 0.930 . S
H637 C647 0.930 . S
C638 H632 0.930 . S
C638 C639 1.355 . S
C638 C640 1.415 . S
C639 C638 1.355 . S
C639 C641 1.419 . S
C640 C638 1.415 . S
C640 C645 1.425 . S
C640 C647 1.409 1_556 S
C641 H633 0.930 1_565 S
C641 C639 1.419 . S
C641 C642 1.362 . S
C642 H634 0.930 . S
C642 C641 1.362 . S
C642 C645 1.409 . S
C643 H635 0.930 . S
C643 C644 1.355 1_556 S
C643 C645 1.415 . S
C644 C643 1.355 1_554 S
C644 C646 1.419 . S
C645 C640 1.425 . S
C645 C642 1.409 . S
C645 C643 1.415 . S
C646 H636 0.930 . S
C646 C644 1.419 . S
C646 C647 1.362 . S
C647 H637 0.930 . S
C647 C640 1.409 1_554 S
C647 C646 1.362 . S
H648 C654 0.930 . S
H649 C657 0.930 . S
H650 C658 0.930 . S
H651 C659 0.930 . S
H652 C662 0.930 . S
H653 C663 0.930 . S
C654 H648 0.930 . S
C654 C655 1.355 . S
C654 C656 1.415 . S
C655 C654 1.355 . S
C655 C657 1.419 . S
C656 C654 1.415 . S
C656 C661 1.425 . S
C656 C663 1.409 . S
C657 H649 0.930 . S
C657 C655 1.419 . S
C657 C658 1.362 . S
C658 H650 0.930 . S
C658 C657 1.362 . S
C658 C661 1.409 . S
C659 H651 0.930 . S
C659 C660 1.355 . S
C659 C661 1.415 . S
C660 C659 1.355 . S
C660 C662 1.419 . S
C661 C656 1.425 . S
C661 C658 1.409 . S
C661 C659 1.415 . S
C662 H652 0.930 . S
C662 C660 1.419 . S
C662 C663 1.362 . S
C663 H653 0.930 . S
C663 C656 1.409 . S
C663 C662 1.362 . S
H664 C670 0.912 1_565 S
H665 C673 0.930 . S
H666 C674 0.930 . S
H667 C675 0.930 . S
H668 C678 0.930 . S
H669 C679 0.930 . S
C670 H664 0.912 1_545 S
C670 C671 1.355 . S
C670 C672 1.415 . S
C671 C670 1.355 . S
C671 C673 1.419 . S
C672 C670 1.415 . S
C672 C677 1.425 . S
C672 C679 1.409 . S
C673 H665 0.930 . S
C673 C671 1.419 . S
C673 C674 1.362 . S
C674 H666 0.930 . S
C674 C673 1.362 . S
C674 C677 1.409 . S
C675 H667 0.930 . S
C675 C676 1.355 . S
C675 C677 1.415 . S
C676 C675 1.355 . S
C676 C678 1.419 . S
C677 C672 1.425 . S
C677 C674 1.409 . S
C677 C675 1.415 . S
C678 H668 0.930 . S
C678 C676 1.419 . S
C678 C679 1.362 . S
C679 H669 0.930 . S
C679 C672 1.409 . S
C679 C678 1.362 . S
H680 C686 0.930 . S
H681 C689 0.930 . S
H682 C690 0.930 . S
H683 C691 0.930 . S
H684 C694 0.930 . S
H685 C695 0.930 . S
C686 H680 0.930 . S
C686 C687 1.355 . S
C686 C688 1.415 . S
C687 C686 1.355 . S
C687 C689 1.419 . S
C688 C686 1.415 . S
C688 C693 1.425 . S
C688 C695 1.409 . S
C689 H681 0.930 . S
C689 C687 1.419 . S
C689 C690 1.362 . S
C690 H682 0.930 . S
C690 C689 1.362 . S
C690 C693 1.409 . S
C691 H683 0.930 . S
C691 C692 1.355 . S
C691 C693 1.415 . S
C692 C691 1.355 . S
C692 C694 1.419 . S
C693 C688 1.425 . S
C693 C690 1.409 . S
C693 C691 1.415 . S
C694 H684 0.930 . S
C694 C692 1.419 . S
C694 C695 1.362 . S
C695 H685 0.930 . S
C695 C688 1.409 . S
C695 C694 1.362 . S
H696 C702 0.930 . S
H697 C705 0.939 . S
H698 C706 0.930 . S
H699 C707 0.930 . S
H700 C710 0.930 . S
H701 C711 0.930 . S
C702 H696 0.930 . S
C702 C703 1.355 . S
C702 C704 1.415 . S
C703 C702 1.355 . S
C703 C705 1.419 . S
C704 C702 1.415 . S
C704 C709 1.425 . S
C704 C711 1.409 . S
C705 H697 0.939 . S
C705 C703 1.419 . S
C705 C706 1.362 . S
C706 H698 0.930 . S
C706 C705 1.362 . S
C706 C709 1.409 . S
C707 H699 0.930 . S
C707 C708 1.355 . S
C707 C709 1.415 . S
C708 C707 1.355 . S
C708 C710 1.419 . S
C709 C704 1.425 . S
C709 C706 1.409 . S
C709 C707 1.415 . S
C710 H700 0.930 . S
C710 C708 1.419 . S
C710 C711 1.362 . S
C711 H701 0.930 . S
C711 C704 1.409 . S
C711 C710 1.362 . S
H712 C718 0.930 . S
H713 C721 0.930 . S
H714 C722 0.930 . S
H715 C723 0.930 . S
H716 C726 0.930 . S
H717 C727 0.930 . S
C718 H712 0.930 . S
C718 C719 1.355 . S
C718 C720 1.415 . S
C719 C718 1.355 . S
C719 C721 1.419 . S
C720 C718 1.415 . S
C720 C725 1.425 . S
C720 C727 1.409 . S
C721 H713 0.930 . S
C721 C719 1.419 . S
C721 C722 1.362 . S
C722 H714 0.930 . S
C722 C721 1.362 . S
C722 C725 1.409 . S
C723 H715 0.930 . S
C723 C724 1.355 . S
C723 C725 1.415 . S
C724 C723 1.355 . S
C724 C726 1.419 . S
C725 C720 1.425 . S
C725 C722 1.409 . S
C725 C723 1.415 . S
C726 H716 0.930 . S
C726 C724 1.419 . S
C726 C727 1.362 . S
C727 H717 0.930 . S
C727 C720 1.409 . S
C727 C726 1.362 . S
H728 C734 0.930 . S
H729 C737 0.930 . S
H730 C738 0.930 . S
H731 C739 0.930 . S
H732 C742 0.930 . S
H733 C743 0.930 . S
C734 H728 0.930 . S
C734 C735 1.355 . S
C734 C736 1.415 . S
C735 C734 1.355 . S
C735 C737 1.419 . S
C736 C734 1.415 . S
C736 C741 1.425 . S
C736 C743 1.409 . S
C737 H729 0.930 . S
C737 C735 1.419 . S
C737 C738 1.362 . S
C738 H730 0.930 . S
C738 C737 1.362 . S
C738 C741 1.409 . S
C739 H731 0.930 . S
C739 C740 1.355 . S
C739 C741 1.415 . S
C740 C739 1.355 . S
C740 C742 1.419 . S
C741 C736 1.425 . S
C741 C738 1.409 . S
C741 C739 1.415 . S
C742 H732 0.930 . S
C742 C740 1.419 . S
C742 C743 1.362 . S
C743 H733 0.930 . S
C743 C736 1.409 . S
C743 C742 1.362 . S
H744 C750 0.930 . S
H745 C753 0.930 . S
H746 C754 0.930 . S
H747 C755 0.930 . S
H748 C758 0.930 . S
H749 C759 0.930 . S
C750 H744 0.930 . S
C750 C751 1.355 . S
C750 C752 1.415 . S
C751 C750 1.355 . S
C751 C753 1.419 . S
C752 C750 1.415 . S
C752 C757 1.425 . S
C752 C759 1.409 . S
C753 H745 0.930 . S
C753 C751 1.419 . S
C753 C754 1.362 . S
C754 H746 0.930 . S
C754 C753 1.362 . S
C754 C757 1.409 . S
C755 H747 0.930 . S
C755 C756 1.355 . S
C755 C757 1.415 . S
C756 C755 1.355 . S
C756 C758 1.419 . S
C757 C752 1.425 . S
C757 C754 1.409 . S
C757 C755 1.415 . S
C758 H748 0.930 . S
C758 C756 1.419 . S
C758 C759 1.362 . S
C759 H749 0.930 . S
C759 C752 1.409 . S
C759 C758 1.362 . S
H760 C766 0.930 . S
H761 C769 0.930 . S
H762 C770 0.930 . S
H763 C771 0.930 . S
H764 C774 0.930 . S
H765 C775 0.930 . S
C766 H760 0.930 . S
C766 C767 1.355 . S
C766 C768 1.415 . S
C767 C766 1.355 . S
C767 C769 1.419 . S
C768 C766 1.415 . S
C768 C773 1.425 . S
C768 C775 1.409 . S
C769 H761 0.930 . S
C769 C767 1.419 . S
C769 C770 1.362 . S
C770 H762 0.930 . S
C770 C769 1.362 . S
C770 C773 1.409 . S
C771 H763 0.930 . S
C771 C772 1.355 . S
C771 C773 1.415 . S
C772 C771 1.355 . S
C772 C774 1.419 . S
C773 C768 1.425 . S
C773 C770 1.409 . S
C773 C771 1.415 . S
C774 H764 0.930 . S
C774 C772 1.419 . S
C774 C775 1.362 . S
C775 H765 0.930 . S
C775 C768 1.409 . S
C775 C774 1.362 . S
H776 C782 0.930 . S
H777 C785 0.930 . S
H778 C786 0.930 . S
H779 C787 0.930 . S
H780 C790 0.930 . S
H781 C791 0.930 . S
C782 H776 0.930 . S
C782 C783 1.355 . S
C782 C784 1.415 . S
C783 C782 1.355 . S
C783 C785 1.419 . S
C784 C782 1.415 . S
C784 C789 1.425 . S
C784 C791 1.409 . S
C785 H777 0.930 . S
C785 C783 1.419 . S
C785 C786 1.362 . S
C786 H778 0.930 . S
C786 C785 1.362 . S
C786 C789 1.409 . S
C787 H779 0.930 . S
C787 C788 1.355 . S
C787 C789 1.415 . S
C788 C787 1.355 . S
C788 C790 1.419 . S
C789 C784 1.425 . S
C789 C786 1.409 . S
C789 C787 1.415 . S
C790 H780 0.930 . S
C790 C788 1.419 . S
C790 C791 1.362 . S
C791 H781 0.930 . S
C791 C784 1.409 . S
C791 C790 1.362 . S
H792 C798 0.930 . S
H793 C801 0.930 . S
H794 C802 0.930 . S
H795 C803 0.930 . S
H796 C806 0.930 . S
H797 C807 0.930 . S
C798 H792 0.930 . S
C798 C799 1.355 . S
C798 C800 1.415 . S
C799 C798 1.355 . S
C799 C801 1.419 . S
C800 C798 1.415 . S
C800 C805 1.425 . S
C800 C807 1.409 . S
C801 H793 0.930 . S
C801 C799 1.419 . S
C801 C802 1.362 . S
C802 H794 0.930 . S
C802 C801 1.362 . S
C802 C805 1.409 . S
C803 H795 0.930 . S
C803 C804 1.355 . S
C803 C805 1.415 . S
C804 C803 1.355 . S
C804 C806 1.419 . S
C805 C800 1.425 . S
C805 C802 1.409 . S
C805 C803 1.415 . S
C806 H796 0.930 . S
C806 C804 1.419 . S
C806 C807 1.362 . S
C807 H797 0.930 . S
C807 C800 1.409 . S
C807 C806 1.362 . S
H808 C814 0.930 . S
H809 C817 0.930 1_565 S
H810 C818 0.930 1_565 S
H811 C819 0.915 1_565 S
H812 C822 0.930 . S
H813 C823 0.930 . S
C814 H808 0.930 . S
C814 C815 1.355 . S
C814 C816 1.415 . S
C815 C814 1.355 . S
C815 C817 1.419 . S
C816 C814 1.415 . S
C816 C821 1.425 . S
C816 C823 1.409 . S
C817 H809 0.930 1_545 S
C817 C815 1.419 . S
C817 C818 1.362 . S
C818 H810 0.930 1_545 S
C818 C817 1.362 . S
C818 C821 1.409 . S
C819 H811 0.915 1_545 S
C819 C820 1.355 . S
C819 C821 1.415 . S
C820 C819 1.355 . S
C820 C822 1.419 . S
C821 C816 1.425 . S
C821 C818 1.409 . S
C821 C819 1.415 . S
C822 H812 0.930 . S
C822 C820 1.419 . S
C822 C823 1.362 . S
C823 H813 0.930 . S
C823 C816 1.409 . S
C823 C822 1.362 . S
H824 C830 0.930 . S
H825 C833 0.930 . S
H826 C834 0.930 . S
H827 C835 0.930 . S
H828 C838 0.930 . S
H829 C839 0.930 . S
C830 H824 0.930 . S
C830 C831 1.355 . S
C830 C832 1.415 . S
C831 C830 1.355 . S
C831 C833 1.419 . S
C832 C830 1.415 . S
C832 C837 1.425 . S
C832 C839 1.409 . S
C833 H825 0.930 . S
C833 C831 1.419 . S
C833 C834 1.362 . S
C834 H826 0.930 . S
C834 C833 1.362 . S
C834 C837 1.409 . S
C835 H827 0.930 . S
C835 C836 1.355 . S
C835 C837 1.415 . S
C836 C835 1.355 . S
C836 C838 1.419 . S
C837 C832 1.425 . S
C837 C834 1.409 . S
C837 C835 1.415 . S
C838 H828 0.930 . S
C838 C836 1.419 . S
C838 C839 1.362 . S
C839 H829 0.930 . S
C839 C832 1.409 . S
C839 C838 1.362 . S
H840 C846 0.930 . S
H841 C849 0.930 . S
H842 C850 0.923 1_655 S
H843 C851 0.930 . S
H844 C854 0.930 . S
H845 C855 0.930 . S
C846 H840 0.930 . S
C846 C847 1.355 1_455 S
C846 C848 1.415 . S
C847 C846 1.355 1_655 S
C847 C849 1.419 . S
C848 C846 1.415 . S
C848 C853 1.425 . S
C848 C855 1.409 . S
C849 H841 0.930 . S
C849 C847 1.419 . S
C849 C850 1.356 1_655 S
C850 H842 0.923 1_455 S
C850 C849 1.356 1_455 S
C850 C853 1.422 . S
C851 H843 0.930 . S
C851 C852 1.355 . S
C851 C853 1.415 . S
C852 C851 1.355 . S
C852 C854 1.419 . S
C853 C848 1.425 . S
C853 C850 1.422 . S
C853 C851 1.415 . S
C854 H844 0.930 . S
C854 C852 1.419 . S
C854 C855 1.362 . S
C855 H845 0.930 . S
C855 C848 1.409 . S
C855 C854 1.362 . S
H856 C862 0.930 . S
H857 C865 0.930 . S
H858 C866 0.930 . S
H859 C867 0.930 . S
H860 C870 0.930 . S
H861 C871 0.930 . S
C862 H856 0.930 . S
C862 C863 1.355 . S
C862 C864 1.415 . S
C863 C862 1.355 . S
C863 C865 1.419 . S
C864 C862 1.415 . S
C864 C869 1.425 . S
C864 C871 1.409 . S
C865 H857 0.930 . S
C865 C863 1.419 . S
C865 C866 1.362 . S
C866 H858 0.930 . S
C866 C865 1.362 . S
C866 C869 1.409 . S
C867 H859 0.930 . S
C867 C868 1.355 . S
C867 C869 1.415 . S
C868 C867 1.355 . S
C868 C870 1.419 . S
C869 C864 1.425 . S
C869 C866 1.409 . S
C869 C867 1.415 . S
C870 H860 0.930 . S
C870 C868 1.419 . S
C870 C871 1.362 . S
C871 H861 0.930 . S
C871 C864 1.409 . S
C871 C870 1.362 . S
H872 C878 0.930 . S
H873 C881 0.934 . S
H874 C882 0.930 . S
H875 C883 0.930 1_556 S
H876 C886 0.930 1_556 S
H877 C887 0.930 . S
C878 H872 0.930 . S
C878 C879 1.355 . S
C878 C880 1.415 . S
C879 C878 1.355 . S
C879 C881 1.410 1_655 S
C880 C878 1.415 . S
C880 C885 1.425 . S
C880 C887 1.409 . S
C881 H873 0.934 . S
C881 C879 1.410 1_455 S
C881 C882 1.368 . S
C882 H874 0.930 . S
C882 C881 1.368 . S
C882 C885 1.409 1_455 S
C883 H875 0.930 1_554 S
C883 C884 1.355 1_454 S
C883 C885 1.415 1_455 S
C884 C883 1.355 1_656 S
C884 C886 1.419 1_556 S
C885 C880 1.425 . S
C885 C882 1.409 1_655 S
C885 C883 1.415 1_655 S
C886 H876 0.930 1_554 S
C886 C884 1.419 1_554 S
C886 C887 1.362 . S
C887 H877 0.930 . S
C887 C880 1.409 . S
C887 C886 1.362 . S
H888 C894 0.930 . S
H889 C897 0.930 . S
H890 C898 0.930 . S
H891 C899 0.930 . S
H892 C902 0.930 . S
H893 C903 0.930 . S
C894 H888 0.930 . S
C894 C895 1.355 . S
C894 C896 1.415 . S
C895 C894 1.355 . S
C895 C897 1.419 . S
C896 C894 1.415 . S
C896 C901 1.425 . S
C896 C903 1.409 . S
C897 H889 0.930 . S
C897 C895 1.419 . S
C897 C898 1.362 . S
C898 H890 0.930 . S
C898 C897 1.362 . S
C898 C901 1.409 . S
C899 H891 0.930 . S
C899 C900 1.355 . S
C899 C901 1.415 . S
C900 C899 1.355 . S
C900 C902 1.419 . S
C901 C896 1.425 . S
C901 C898 1.409 . S
C901 C899 1.415 . S
C902 H892 0.930 . S
C902 C900 1.419 . S
C902 C903 1.362 . S
C903 H893 0.930 . S
C903 C896 1.409 . S
C903 C902 1.362 . S
H904 C910 0.930 . S
H905 C913 0.930 . S
H906 C914 0.930 . S
H907 C915 0.937 1_655 S
H908 C918 0.930 . S
H909 C919 0.930 . S
C910 H904 0.930 . S
C910 C911 1.355 . S
C910 C912 1.429 . S
C911 C910 1.355 . S
C911 C913 1.419 1_455 S
C912 C910 1.429 . S
C912 C917 1.440 . S
C912 C919 1.382 1_554 S
C913 H905 0.930 . S
C913 C911 1.419 1_655 S
C913 C914 1.362 . S
C914 H906 0.930 . S
C914 C913 1.362 . S
C914 C917 1.409 1_655 S
C915 H907 0.937 1_455 S
C915 C916 1.341 1_554 S
C915 C917 1.422 . S
C916 C915 1.341 1_556 S
C916 C918 1.419 . S
C917 C912 1.440 . S
C917 C914 1.409 1_455 S
C917 C915 1.422 . S
C918 H908 0.930 . S
C918 C916 1.419 . S
C918 C919 1.362 . S
C919 H909 0.930 . S
C919 C912 1.382 1_556 S
C919 C918 1.362 . S
H920 C926 0.930 . S
H921 C929 0.930 . S
H922 C930 0.930 . S
H923 C931 0.930 . S
H924 C934 0.930 . S
H925 C935 0.930 . S
C926 H920 0.930 . S
C926 C927 1.355 . S
C926 C928 1.415 . S
C927 C926 1.355 . S
C927 C929 1.419 . S
C928 C926 1.415 . S
C928 C933 1.425 . S
C928 C935 1.409 . S
C929 H921 0.930 . S
C929 C927 1.419 . S
C929 C930 1.362 . S
C930 H922 0.930 . S
C930 C929 1.362 . S
C930 C933 1.409 . S
C931 H923 0.930 . S
C931 C932 1.355 . S
C931 C933 1.415 . S
C932 C931 1.355 . S
C932 C934 1.419 . S
C933 C928 1.425 . S
C933 C930 1.409 . S
C933 C931 1.415 . S
C934 H924 0.930 . S
C934 C932 1.419 . S
C934 C935 1.362 . S
C935 H925 0.930 . S
C935 C928 1.409 . S
C935 C934 1.362 . S
H936 C942 0.930 . S
H937 C945 0.930 . S
H938 C946 0.930 . S
H939 C947 0.930 . S
H940 C950 0.930 . S
H941 C951 0.930 . S
C942 H936 0.930 . S
C942 C943 1.355 . S
C942 C944 1.415 . S
C943 C942 1.355 . S
C943 C945 1.419 . S
C944 C942 1.415 . S
C944 C949 1.425 . S
C944 C951 1.409 . S
C945 H937 0.930 . S
C945 C943 1.419 . S
C945 C946 1.362 . S
C946 H938 0.930 . S
C946 C945 1.362 . S
C946 C949 1.409 . S
C947 H939 0.930 . S
C947 C948 1.355 . S
C947 C949 1.415 . S
C948 C947 1.355 . S
C948 C950 1.419 . S
C949 C944 1.425 . S
C949 C946 1.409 . S
C949 C947 1.415 . S
C950 H940 0.930 . S
C950 C948 1.419 . S
C950 C951 1.362 . S
C951 H941 0.930 . S
C951 C944 1.409 . S
C951 C950 1.362 . S
H952 C958 0.930 . S
H953 C961 0.930 . S
H954 C962 0.930 . S
H955 C963 0.930 . S
H956 C966 0.930 . S
H957 C967 0.930 . S
C958 H952 0.930 . S
C958 C959 1.355 . S
C958 C960 1.415 . S
C959 C958 1.355 . S
C959 C961 1.419 . S
C960 C958 1.415 . S
C960 C965 1.425 . S
C960 C967 1.409 . S
C961 H953 0.930 . S
C961 C959 1.419 . S
C961 C962 1.362 . S
C962 H954 0.930 . S
C962 C961 1.362 . S
C962 C965 1.409 . S
C963 H955 0.930 . S
C963 C964 1.355 . S
C963 C965 1.415 . S
C964 C963 1.355 . S
C964 C966 1.419 . S
C965 C960 1.425 . S
C965 C962 1.409 . S
C965 C963 1.415 . S
C966 H956 0.930 . S
C966 C964 1.419 . S
C966 C967 1.362 . S
C967 H957 0.930 . S
C967 C960 1.409 . S
C967 C966 1.362 . S
H968 C974 0.930 . S
H969 C977 0.930 . S
H970 C978 0.930 . S
H971 C979 0.930 . S
H972 C982 0.930 . S
H973 C983 0.930 . S
C974 H968 0.930 . S
C974 C975 1.355 . S
C974 C976 1.415 . S
C975 C974 1.355 . S
C975 C977 1.419 . S
C976 C974 1.415 . S
C976 C981 1.425 . S
C976 C983 1.409 . S
C977 H969 0.930 . S
C977 C975 1.419 . S
C977 C978 1.362 . S
C978 H970 0.930 . S
C978 C977 1.362 . S
C978 C981 1.409 . S
C979 H971 0.930 . S
C979 C980 1.355 . S
C979 C981 1.415 . S
C980 C979 1.355 . S
C980 C982 1.419 . S
C981 C976 1.425 . S
C981 C978 1.409 . S
C981 C979 1.415 . S
C982 H972 0.930 . S
C982 C980 1.419 . S
C982 C983 1.362 . S
C983 H973 0.930 . S
C983 C976 1.409 . S
C983 C982 1.362 . S
H984 C990 0.930 . S
H985 C993 0.930 . S
H986 C994 0.930 . S
H987 C995 0.930 . S
H988 C998 0.930 . S
H989 C999 0.930 . S
C990 H984 0.930 . S
C990 C991 1.355 . S
C990 C992 1.415 . S
C991 C990 1.355 . S
C991 C993 1.419 . S
C992 C990 1.415 . S
C992 C997 1.425 . S
C992 C999 1.409 . S
C993 H985 0.930 . S
C993 C991 1.419 . S
C993 C994 1.362 . S
C994 H986 0.930 . S
C994 C993 1.362 . S
C994 C997 1.409 . S
C995 H987 0.930 . S
C995 C996 1.355 . S
C995 C997 1.415 . S
C996 C995 1.355 . S
C996 C998 1.419 . S
C997 C992 1.425 . S
C997 C994 1.409 . S
C997 C995 1.415 . S
C998 H988 0.930 . S
C998 C996 1.419 . S
C998 C999 1.362 . S
C999 H989 0.930 . S
C999 C992 1.409 . S
C999 C998 1.362 . S
H1000 C1006 0.930 . S
H1001 C1009 0.930 . S
H1002 C1010 0.930 . S
H1003 C1011 0.930 . S
H1004 C1014 0.930 . S
H1005 C1015 0.930 . S
C1006 H1000 0.930 . S
C1006 C1007 1.355 . S
C1006 C1008 1.415 . S
C1007 C1006 1.355 . S
C1007 C1009 1.419 . S
C1008 C1006 1.415 . S
C1008 C1013 1.425 . S
C1008 C1015 1.409 . S
C1009 H1001 0.930 . S
C1009 C1007 1.419 . S
C1009 C1010 1.362 . S
C1010 H1002 0.930 . S
C1010 C1009 1.362 . S
C1010 C1013 1.409 . S
C1011 H1003 0.930 . S
C1011 C1012 1.355 . S
C1011 C1013 1.415 . S
C1012 C1011 1.355 . S
C1012 C1014 1.419 . S
C1013 C1008 1.425 . S
C1013 C1010 1.409 . S
C1013 C1011 1.415 . S
C1014 H1004 0.930 . S
C1014 C1012 1.419 . S
C1014 C1015 1.362 . S
C1015 H1005 0.930 . S
C1015 C1008 1.409 . S
C1015 C1014 1.362 . S
H1016 C1022 0.930 . S
H1017 C1025 0.930 . S
H1018 C1026 0.930 . S
H1019 C1027 0.930 . S
H1020 C1030 0.930 . S
H1021 C1031 0.930 . S
C1022 H1016 0.930 . S
C1022 C1023 1.355 . S
C1022 C1024 1.415 . S
C1023 C1022 1.355 . S
C1023 C1025 1.419 . S
C1024 C1022 1.415 . S
C1024 C1029 1.425 . S
C1024 C1031 1.409 . S
C1025 H1017 0.930 . S
C1025 C1023 1.419 . S
C1025 C1026 1.362 . S
C1026 H1018 0.930 . S
C1026 C1025 1.362 . S
C1026 C1029 1.409 . S
C1027 H1019 0.930 . S
C1027 C1028 1.355 . S
C1027 C1029 1.415 . S
C1028 C1027 1.355 . S
C1028 C1030 1.419 . S
C1029 C1024 1.425 . S
C1029 C1026 1.409 . S
C1029 C1027 1.415 . S
C1030 H1020 0.930 . S
C1030 C1028 1.419 . S
C1030 C1031 1.362 . S
C1031 H1021 0.930 . S
C1031 C1024 1.409 . S
C1031 C1030 1.362 . S
H1032 C1038 0.930 . S
H1033 C1041 0.930 . S
H1034 C1042 0.930 . S
H1035 C1043 0.930 . S
H1036 C1046 0.930 . S
H1037 C1047 0.930 . S
C1038 H1032 0.930 . S
C1038 C1039 1.355 . S
C1038 C1040 1.415 . S
C1039 C1038 1.355 . S
C1039 C1041 1.419 . S
C1040 C1038 1.415 . S
C1040 C1045 1.425 . S
C1040 C1047 1.409 . S
C1041 H1033 0.930 . S
C1041 C1039 1.419 . S
C1041 C1042 1.362 . S
C1042 H1034 0.930 . S
C1042 C1041 1.362 . S
C1042 C1045 1.409 . S
C1043 H1035 0.930 . S
C1043 C1044 1.355 . S
C1043 C1045 1.415 . S
C1044 C1043 1.355 . S
C1044 C1046 1.419 . S
C1045 C1040 1.425 . S
C1045 C1042 1.409 . S
C1045 C1043 1.415 . S
C1046 H1036 0.930 . S
C1046 C1044 1.419 . S
C1046 C1047 1.362 . S
C1047 H1037 0.930 . S
C1047 C1040 1.409 . S
C1047 C1046 1.362 . S
H1048 C1054 0.930 . S
H1049 C1057 0.930 . S
H1050 C1058 0.930 . S
H1051 C1059 0.930 . S
H1052 C1062 0.930 . S
H1053 C1063 0.930 . S
C1054 H1048 0.930 . S
C1054 C1055 1.355 . S
C1054 C1056 1.415 . S
C1055 C1054 1.355 . S
C1055 C1057 1.419 1_556 S
C1056 C1054 1.415 . S
C1056 C1061 1.425 1_556 S
C1056 C1063 1.409 . S
C1057 H1049 0.930 . S
C1057 C1055 1.419 1_554 S
C1057 C1058 1.362 . S
C1058 H1050 0.930 . S
C1058 C1057 1.362 . S
C1058 C1061 1.409 . S
C1059 H1051 0.930 . S
C1059 C1060 1.348 1_554 S
C1059 C1061 1.415 . S
C1060 C1059 1.348 1_556 S
C1060 C1062 1.428 . S
C1061 C1056 1.425 1_554 S
C1061 C1058 1.409 . S
C1061 C1059 1.415 . S
C1062 H1052 0.930 . S
C1062 C1060 1.428 . S
C1062 C1063 1.362 . S
C1063 H1053 0.930 . S
C1063 C1056 1.409 . S
C1063 C1062 1.362 . S
H1064 C1070 0.930 . S
H1065 C1073 0.930 . S
H1066 C1074 0.930 . S
H1067 C1075 0.930 . S
H1068 C1078 0.930 . S
H1069 C1079 0.930 . S
C1070 H1064 0.930 . S
C1070 C1071 1.355 . S
C1070 C1072 1.415 . S
C1071 C1070 1.355 . S
C1071 C1073 1.419 . S
C1072 C1070 1.415 . S
C1072 C1077 1.425 . S
C1072 C1079 1.409 . S
C1073 H1065 0.930 . S
C1073 C1071 1.419 . S
C1073 C1074 1.362 . S
C1074 H1066 0.930 . S
C1074 C1073 1.362 . S
C1074 C1077 1.409 . S
C1075 H1067 0.930 . S
C1075 C1076 1.355 . S
C1075 C1077 1.415 . S
C1076 C1075 1.355 . S
C1076 C1078 1.419 . S
C1077 C1072 1.425 . S
C1077 C1074 1.409 . S
C1077 C1075 1.415 . S
C1078 H1068 0.930 . S
C1078 C1076 1.419 . S
C1078 C1079 1.362 . S
C1079 H1069 0.930 . S
C1079 C1072 1.409 . S
C1079 C1078 1.362 . S
H1080 C1086 0.930 . S
H1081 C1089 0.930 . S
H1082 C1090 0.930 . S
H1083 C1091 0.930 . S
H1084 C1094 0.930 . S
H1085 C1095 0.930 . S
C1086 H1080 0.930 . S
C1086 C1087 1.355 . S
C1086 C1088 1.415 . S
C1087 C1086 1.355 . S
C1087 C1089 1.419 . S
C1088 C1086 1.415 . S
C1088 C1093 1.425 . S
C1088 C1095 1.409 . S
C1089 H1081 0.930 . S
C1089 C1087 1.419 . S
C1089 C1090 1.362 . S
C1090 H1082 0.930 . S
C1090 C1089 1.362 . S
C1090 C1093 1.409 . S
C1091 H1083 0.930 . S
C1091 C1092 1.355 . S
C1091 C1093 1.415 . S
C1092 C1091 1.355 . S
C1092 C1094 1.419 . S
C1093 C1088 1.425 . S
C1093 C1090 1.409 . S
C1093 C1091 1.415 . S
C1094 H1084 0.930 . S
C1094 C1092 1.419 . S
C1094 C1095 1.362 . S
C1095 H1085 0.930 . S
C1095 C1088 1.409 . S
C1095 C1094 1.362 . S
H1096 C1102 0.930 . S
H1097 C1105 0.930 1_545 S
H1098 C1106 0.930 . S
H1099 C1107 0.930 . S
H1100 C1110 0.930 . S
H1101 C1111 0.930 . S
C1102 H1096 0.930 . S
C1102 C1103 1.355 . S
C1102 C1104 1.415 . S
C1103 C1102 1.355 . S
C1103 C1105 1.419 . S
C1104 C1102 1.415 . S
C1104 C1109 1.425 . S
C1104 C1111 1.409 . S
C1105 H1097 0.930 1_565 S
C1105 C1103 1.419 . S
C1105 C1106 1.362 . S
C1106 H1098 0.930 . S
C1106 C1105 1.362 . S
C1106 C1109 1.409 . S
C1107 H1099 0.930 . S
C1107 C1108 1.355 . S
C1107 C1109 1.415 . S
C1108 C1107 1.355 . S
C1108 C1110 1.419 . S
C1109 C1104 1.425 . S
C1109 C1106 1.409 . S
C1109 C1107 1.415 . S
C1110 H1100 0.930 . S
C1110 C1108 1.419 . S
C1110 C1111 1.362 . S
C1111 H1101 0.930 . S
C1111 C1104 1.409 . S
C1111 C1110 1.362 . S
C356 C184 1.202 . S
C351 C62 1.164 . S
C372 C197 1.560 . S
C367 C73 1.456 1_455 S
C383 C84 1.639 . S
C388 C217 1.600 . S
C404 C231 1.279 1_565 S
C399 C49 0.993 . S
C420 C243 1.382 . S
C415 C118 1.401 . S
C436 C257 1.554 . S
C431 C137 1.344 . S
C447 C129 1.549 . S
C452 C267 1.565 . S
C468 C282 1.870 . S
C463 C106 1.849 . S
C479 C128 1.746 . S
C484 C296 1.787 . S
C500 C315 1.509 . S
C495 C104 1.289 . S
C511 C115 1.515 . S
C516 C295 1.761 . S
C532 C313 1.702 . S
C527 C139 1.584 . S
C543 C85 1.691 . S
C548 C329 1.604 . S
C559 C52 1.232 . S
C564 C323 1.226 . S
C575 C60 0.975 . S
C580 C327 1.110 . S
C591 C71 1.419 1_655 S
C596 C324 1.620 . S
C607 C40 1.700 . S
C612 C226 1.760 . S
C623 C162 1.127 . S
C628 C225 1.142 . S
C644 C189 1.005 . S
C639 C173 1.134 . S
C660 C203 1.680 . S
C655 C93 1.721 . S
C671 C51 1.423 1_545 S
C676 C240 1.478 . S
C692 C285 1.546 . S
C687 C126 1.322 . S
C708 C239 1.731 . S
C703 C107 1.725 . S
C724 C271 1.545 . S
C719 C140 1.511 . S
C740 C268 1.187 . S
C735 C161 1.153 . S
C751 C172 1.468 . S
C756 C281 1.559 . S
C767 C95 1.640 . S
C772 C245 1.599 . S
C788 C259 1.285 . S
C783 C148 1.080 . S
C799 C41 1.404 . S
C804 C215 1.382 . S
C820 C229 1.559 . S
C815 C5 1.381 . S
C836 C183 1.538 . S
C831 C19 1.568 . S
C852 C198 1.865 . S
C847 C29 1.844 . S
C863 C18 1.747 . S
C868 C310 1.793 . S
C879 C27 1.296 . S
C884 C301 1.489 1_655 S
C895 C38 1.490 . S
C900 C309 1.747 . S
C911 C7 1.640 . S
C916 C299 1.688 . S
C932 C343 1.604 . S
C927 C96 1.690 . S
C948 C337 1.228 . S
C943 C151 1.253 . S
C964 C341 1.112 . S
C959 C159 0.956 . S
C975 C170 1.348 . S
C980 C338 1.592 . S
C991 C117 1.718 . S
C996 C254 1.738 . S
C1012 C253 1.141 . S
C1007 C63 1.127 . S
C1028 C273 1.117 . S
C1023 C74 1.077 . S
C1044 C287 1.753 . S
C1039 C82 1.666 . S
C1055 C150 1.418 . S
C1060 C212 1.476 1_556 S
C1076 C201 1.546 . S
C1071 C16 1.319 . S
C1087 C30 1.686 . S
C1092 C211 1.732 . S
C1108 C187 1.548 . S
C1103 C8 1.505 . S
