# Generated by pormake.
# Topology ocu, (6,8)-cn, num edge types: 1
# Building blocks:
#     Node 0, Type 0, BuildingBlock: FUNLAD_clean_sbu_0, # of connection points: 6
#     Node 1, Type 0, BuildingBlock: FUNLAD_clean_sbu_0, # of connection points: 6
#     Node 2, Type 0, BuildingBlock: FUNLAD_clean_sbu_0, # of connection points: 6
#     Node 3, Type 0, BuildingBlock: FUNLAD_clean_sbu_0, # of connection points: 6
#     Node 4, Type 0, BuildingBlock: FUNLAD_clean_sbu_0, # of connection points: 6
#     Node 5, Type 0, BuildingBlock: FUNLAD_clean_sbu_0, # of connection points: 6
#     Node 6, Type 0, BuildingBlock: FUNLAD_clean_sbu_0, # of connection points: 6
#     Node 7, Type 0, BuildingBlock: FUNLAD_clean_sbu_0, # of connection points: 6
#     Node 8, Type 1, BuildingBlock: AJUNOK_clean_sbu_0, # of connection points: 8
#     Node 9, Type 1, BuildingBlock: AJUNOK_clean_sbu_0, # of connection points: 8
#     Node 10, Type 1, BuildingBlock: AJUNOK_clean_sbu_0, # of connection points: 8
#     Node 11, Type 1, BuildingBlock: AJUNOK_clean_sbu_0, # of connection points: 8
#     Node 12, Type 1, BuildingBlock: AJUNOK_clean_sbu_0, # of connection points: 8
#     Node 13, Type 1, BuildingBlock: AJUNOK_clean_sbu_0, # of connection points: 8
#     Edge 14, Type (0, 1), BuildingBlock: EZIPEK_clean_linker_0, # of connection points: 2
#     Edge 15, Type (0, 1), BuildingBlock: EZIPEK_clean_linker_0, # of connection points: 2
#     Edge 16, Type (0, 1), BuildingBlock: EZIPEK_clean_linker_0, # of connection points: 2
#     Edge 17, Type (0, 1), BuildingBlock: EZIPEK_clean_linker_0, # of connection points: 2
#     Edge 18, Type (0, 1), BuildingBlock: EZIPEK_clean_linker_0, # of connection points: 2
#     Edge 19, Type (0, 1), BuildingBlock: EZIPEK_clean_linker_0, # of connection points: 2
#     Edge 20, Type (0, 1), BuildingBlock: EZIPEK_clean_linker_0, # of connection points: 2
#     Edge 21, Type (0, 1), BuildingBlock: EZIPEK_clean_linker_0, # of connection points: 2
#     Edge 22, Type (0, 1), BuildingBlock: EZIPEK_clean_linker_0, # of connection points: 2
#     Edge 23, Type (0, 1), BuildingBlock: EZIPEK_clean_linker_0, # of connection points: 2
#     Edge 24, Type (0, 1), BuildingBlock: EZIPEK_clean_linker_0, # of connection points: 2
#     Edge 25, Type (0, 1), BuildingBlock: EZIPEK_clean_linker_0, # of connection points: 2
#     Edge 26, Type (0, 1), BuildingBlock: EZIPEK_clean_linker_0, # of connection points: 2
#     Edge 27, Type (0, 1), BuildingBlock: EZIPEK_clean_linker_0, # of connection points: 2
#     Edge 28, Type (0, 1), BuildingBlock: EZIPEK_clean_linker_0, # of connection points: 2
#     Edge 29, Type (0, 1), BuildingBlock: EZIPEK_clean_linker_0, # of connection points: 2
#     Edge 30, Type (0, 1), BuildingBlock: EZIPEK_clean_linker_0, # of connection points: 2
#     Edge 31, Type (0, 1), BuildingBlock: EZIPEK_clean_linker_0, # of connection points: 2
#     Edge 32, Type (0, 1), BuildingBlock: EZIPEK_clean_linker_0, # of connection points: 2
#     Edge 33, Type (0, 1), BuildingBlock: EZIPEK_clean_linker_0, # of connection points: 2
#     Edge 34, Type (0, 1), BuildingBlock: EZIPEK_clean_linker_0, # of connection points: 2
#     Edge 35, Type (0, 1), BuildingBlock: EZIPEK_clean_linker_0, # of connection points: 2
#     Edge 36, Type (0, 1), BuildingBlock: EZIPEK_clean_linker_0, # of connection points: 2
#     Edge 37, Type (0, 1), BuildingBlock: EZIPEK_clean_linker_0, # of connection points: 2
#     Edge 38, Type (0, 1), BuildingBlock: EZIPEK_clean_linker_0, # of connection points: 2
#     Edge 39, Type (0, 1), BuildingBlock: EZIPEK_clean_linker_0, # of connection points: 2
#     Edge 40, Type (0, 1), BuildingBlock: EZIPEK_clean_linker_0, # of connection points: 2
#     Edge 41, Type (0, 1), BuildingBlock: EZIPEK_clean_linker_0, # of connection points: 2
#     Edge 42, Type (0, 1), BuildingBlock: EZIPEK_clean_linker_0, # of connection points: 2
#     Edge 43, Type (0, 1), BuildingBlock: EZIPEK_clean_linker_0, # of connection points: 2
#     Edge 44, Type (0, 1), BuildingBlock: EZIPEK_clean_linker_0, # of connection points: 2
#     Edge 45, Type (0, 1), BuildingBlock: EZIPEK_clean_linker_0, # of connection points: 2
#     Edge 46, Type (0, 1), BuildingBlock: EZIPEK_clean_linker_0, # of connection points: 2
#     Edge 47, Type (0, 1), BuildingBlock: EZIPEK_clean_linker_0, # of connection points: 2
#     Edge 48, Type (0, 1), BuildingBlock: EZIPEK_clean_linker_0, # of connection points: 2
#     Edge 49, Type (0, 1), BuildingBlock: EZIPEK_clean_linker_0, # of connection points: 2
#     Edge 50, Type (0, 1), BuildingBlock: EZIPEK_clean_linker_0, # of connection points: 2
#     Edge 51, Type (0, 1), BuildingBlock: EZIPEK_clean_linker_0, # of connection points: 2
#     Edge 52, Type (0, 1), BuildingBlock: EZIPEK_clean_linker_0, # of connection points: 2
#     Edge 53, Type (0, 1), BuildingBlock: EZIPEK_clean_linker_0, # of connection points: 2
#     Edge 54, Type (0, 1), BuildingBlock: EZIPEK_clean_linker_0, # of connection points: 2
#     Edge 55, Type (0, 1), BuildingBlock: EZIPEK_clean_linker_0, # of connection points: 2
#     Edge 56, Type (0, 1), BuildingBlock: EZIPEK_clean_linker_0, # of connection points: 2
#     Edge 57, Type (0, 1), BuildingBlock: EZIPEK_clean_linker_0, # of connection points: 2
#     Edge 58, Type (0, 1), BuildingBlock: EZIPEK_clean_linker_0, # of connection points: 2
#     Edge 59, Type (0, 1), BuildingBlock: EZIPEK_clean_linker_0, # of connection points: 2
#     Edge 60, Type (0, 1), BuildingBlock: EZIPEK_clean_linker_0, # of connection points: 2
#     Edge 61, Type (0, 1), BuildingBlock: EZIPEK_clean_linker_0, # of connection points: 2
# Relax obj value: 0.321
# Max RMSD: 0.260
# Mean RMSD: 0.249
data_MOF--net-ocu--node1-FUNLAD_clean_sbu_0--node2-AJUNOK_clean_sbu_0--edge1-EZIPEK_clean_linker_0
_symmetry_space_group_name_H-M    P1
_symmetry_Int_Tables_number       1
_symmetry_cell_setting            triclinic
loop_
_symmetry_equiv_pos_as_xyz
'x, y, z'
_cell_length_a     33.017984
_cell_length_b     32.805303
_cell_length_c     28.567391
_cell_angle_alpha  91.562806
_cell_angle_beta   91.660067
_cell_angle_gamma 94.097435
loop_
_atom_site_label
_atom_site_type_symbol
_atom_site_fract_x
_atom_site_fract_y
_atom_site_fract_z
_atom_type_partial_charge
C0 C 0.20973 0.29399 0.30444 0.0
N1 N 0.17827 0.18093 0.23723 0.0
C2 C 0.15857 0.1702 0.27657 0.0
C3 C 0.12545 0.14173 0.27375 0.0
C4 C 0.11221 0.12456 0.23002 0.0
C5 C 0.13206 0.13689 0.18962 0.0
C6 C 0.16568 0.16523 0.19414 0.0
Zn7 Zn 0.2272 0.221 0.24522 0.0
C8 C 0.22687 0.28362 0.17262 0.0
N9 N 0.32888 0.30531 0.26308 0.0
C10 C 0.34441 0.31933 0.30576 0.0
C11 C 0.34636 0.31683 0.22267 0.0
C12 C 0.38055 0.34375 0.22397 0.0
C13 C 0.39763 0.35828 0.26728 0.0
C14 C 0.37949 0.34596 0.30873 0.0
Zn15 Zn 0.27987 0.26529 0.25573 0.0
O16 O 0.19315 0.2607 0.28677 0.0
C17 C 0.27982 0.20211 0.32799 0.0
O18 O 0.24716 0.30316 0.29853 0.0
H19 H 0.33399 0.3048 0.18926 0.0
H20 H 0.16886 0.18344 0.31028 0.0
H21 H 0.32985 0.30959 0.33739 0.0
O22 O 0.24724 0.19025 0.30544 0.0
O23 O 0.30008 0.23374 0.31439 0.0
H24 H 0.18192 0.17441 0.16338 0.0
O25 O 0.31342 0.22707 0.2129 0.0
O26 O 0.26113 0.18209 0.2039 0.0
O27 O 0.25848 0.29696 0.19616 0.0
O28 O 0.20785 0.25111 0.18554 0.0
C29 C 0.29806 0.19286 0.19668 0.0
H30 H 0.11052 0.13269 0.30554 0.0
H31 H 0.12219 0.12423 0.15543 0.0
H32 H 0.39398 0.35283 0.19132 0.0
H33 H 0.39223 0.3567 0.34258 0.0
C34 C 0.69149 0.29324 0.22276 0.0
N35 N 0.72583 0.17747 0.19728 0.0
C36 C 0.68522 0.16668 0.19563 0.0
C37 C 0.66828 0.13956 0.1615 0.0
C38 C 0.69276 0.12421 0.12717 0.0
C39 C 0.73463 0.13549 0.12881 0.0
C40 C 0.75081 0.16225 0.16496 0.0
Zn41 Zn 0.74221 0.2233 0.24546 0.0
C42 C 0.80511 0.28381 0.21669 0.0
N43 N 0.76194 0.32103 0.34477 0.0
C44 C 0.77161 0.35789 0.3258 0.0
C45 C 0.77415 0.31281 0.38927 0.0
C46 C 0.80201 0.34008 0.41384 0.0
C47 C 0.81691 0.37544 0.39173 0.0
C48 C 0.79946 0.38575 0.34885 0.0
Zn49 Zn 0.74678 0.27425 0.29831 0.0
O50 O 0.69915 0.25713 0.21134 0.0
C51 C 0.68502 0.21461 0.32863 0.0
O52 O 0.7068 0.30966 0.26061 0.0
H53 H 0.76598 0.2833 0.40363 0.0
H54 H 0.66509 0.18056 0.21937 0.0
H55 H 0.76179 0.36373 0.29036 0.0
O56 O 0.69797 0.19761 0.2921 0.0
O57 O 0.69892 0.25059 0.34073 0.0
H58 H 0.78283 0.17197 0.16614 0.0
O59 O 0.78706 0.23809 0.33424 0.0
O60 O 0.78538 0.18956 0.27922 0.0
O61 O 0.795 0.29806 0.25608 0.0
O62 O 0.78756 0.25024 0.20082 0.0
C63 C 0.79847 0.20428 0.31888 0.0
H64 H 0.63577 0.13183 0.16079 0.0
H65 H 0.75416 0.12439 0.10223 0.0
H66 H 0.81477 0.33183 0.44733 0.0
H67 H 0.81018 0.4132 0.33137 0.0
C68 C 0.78539 0.70629 0.31571 0.0
N69 N 0.82928 0.81949 0.26814 0.0
C70 C 0.83146 0.82504 0.31543 0.0
C71 C 0.85916 0.85389 0.33607 0.0
C72 C 0.88469 0.87776 0.30792 0.0
C73 C 0.88228 0.872 0.25913 0.0
C74 C 0.8539 0.84206 0.23963 0.0
Zn75 Zn 0.78575 0.77702 0.2461 0.0
C76 C 0.81383 0.71229 0.19062 0.0
N77 N 0.6919 0.68741 0.21682 0.0
C78 C 0.6623 0.66827 0.24225 0.0
C79 C 0.69422 0.68009 0.16994 0.0
C80 C 0.66568 0.65394 0.14635 0.0
C81 C 0.63461 0.63425 0.1711 0.0
C82 C 0.63301 0.64081 0.21977 0.0
Zn83 Zn 0.73489 0.73031 0.24079 0.0
O84 O 0.80406 0.73834 0.30083 0.0
C85 C 0.70792 0.79559 0.2977 0.0
O86 O 0.75014 0.69535 0.29895 0.0
H87 H 0.71795 0.69518 0.15018 0.0
H88 H 0.81125 0.80738 0.33744 0.0
H89 H 0.66117 0.67465 0.27952 0.0
O90 O 0.74467 0.80664 0.28987 0.0
O91 O 0.69253 0.76161 0.28053 0.0
H92 H 0.85125 0.83708 0.20205 0.0
O93 O 0.71908 0.76589 0.18237 0.0
O94 O 0.76791 0.81393 0.19087 0.0
O95 O 0.77863 0.69878 0.20204 0.0
O96 O 0.82665 0.74848 0.2028 0.0
C97 C 0.73618 0.79914 0.16871 0.0
H98 H 0.86046 0.85788 0.37391 0.0
H99 H 0.90179 0.89032 0.2368 0.0
H100 H 0.66767 0.64929 0.10878 0.0
H101 H 0.60921 0.62559 0.2396 0.0
C102 C 0.21527 0.81303 0.27158 0.0
N103 N 0.32631 0.77316 0.307 0.0
C104 C 0.33898 0.81348 0.30633 0.0
C105 C 0.36583 0.83072 0.34041 0.0
C106 C 0.37949 0.80659 0.37623 0.0
C107 C 0.3669 0.76486 0.37643 0.0
C108 C 0.33991 0.7485 0.34081 0.0
Zn109 Zn 0.28223 0.75602 0.25812 0.0
C110 C 0.21759 0.69781 0.29076 0.0
N111 N 0.18813 0.73138 0.15637 0.0
C112 C 0.15015 0.72245 0.17215 0.0
C113 C 0.19923 0.7176 0.11354 0.0
C114 C 0.17366 0.68895 0.08785 0.0
C115 C 0.13681 0.67493 0.10695 0.0
C116 C 0.12376 0.69387 0.14776 0.0
Zn117 Zn 0.2325 0.7481 0.2053 0.0
O118 O 0.25142 0.80591 0.28206 0.0
C119 C 0.29595 0.80561 0.17103 0.0
O120 O 0.19698 0.79231 0.23794 0.0
H121 H 0.22963 0.72505 0.1018 0.0
H122 H 0.32711 0.83303 0.28034 0.0
H123 H 0.14209 0.73356 0.20638 0.0
O124 O 0.31267 0.79373 0.20834 0.0
O125 O 0.25947 0.79297 0.16047 0.0
H126 H 0.329 0.71662 0.3409 0.0
O127 O 0.26923 0.70287 0.17588 0.0
O128 O 0.31379 0.70719 0.23486 0.0
O129 O 0.20528 0.70398 0.24934 0.0
O130 O 0.25028 0.71691 0.30663 0.0
C131 C 0.30081 0.69071 0.19616 0.0
H132 H 0.37497 0.86311 0.33969 0.0
H133 H 0.37707 0.7457 0.40404 0.0
H134 H 0.18422 0.67487 0.05615 0.0
H135 H 0.09524 0.68368 0.163 0.0
C136 C 0.18146 0.80758 0.7303 0.0
N137 N 0.21302 0.69169 0.70144 0.0
C138 C 0.17191 0.68414 0.69918 0.0
C139 C 0.15354 0.65659 0.66639 0.0
C140 C 0.17735 0.63669 0.63483 0.0
C141 C 0.21971 0.64508 0.6366 0.0
C142 C 0.23718 0.67301 0.67085 0.0
Zn143 Zn 0.23162 0.73626 0.75002 0.0
C144 C 0.29437 0.79644 0.71996 0.0
N145 N 0.25423 0.83208 0.851 0.0
C146 C 0.26768 0.86867 0.8338 0.0
C147 C 0.26412 0.82167 0.89552 0.0
C148 C 0.29328 0.84592 0.92205 0.0
C149 C 0.31216 0.88043 0.90176 0.0
C150 C 0.2972 0.89341 0.85872 0.0
Zn151 Zn 0.23726 0.78709 0.80277 0.0
O152 O 0.18846 0.77126 0.71927 0.0
C153 C 0.17548 0.72667 0.83381 0.0
O154 O 0.19813 0.82447 0.76719 0.0
H155 H 0.25311 0.79236 0.90838 0.0
H156 H 0.15281 0.70014 0.7223 0.0
H157 H 0.25939 0.87633 0.79839 0.0
O158 O 0.18839 0.70981 0.79717 0.0
O159 O 0.1891 0.76289 0.84555 0.0
H160 H 0.26971 0.68007 0.67266 0.0
O161 O 0.27715 0.7496 0.83648 0.0
O162 O 0.27522 0.70167 0.78069 0.0
O163 O 0.28535 0.8107 0.75981 0.0
O164 O 0.27585 0.7633 0.70423 0.0
C165 C 0.28864 0.71616 0.82027 0.0
H166 H 0.12077 0.65085 0.6656 0.0
H167 H 0.23875 0.63003 0.61229 0.0
H168 H 0.30396 0.83567 0.95566 0.0
H169 H 0.31085 0.9204 0.84266 0.0
C170 C 0.2866 0.20506 0.82288 0.0
N171 N 0.32252 0.31566 0.76468 0.0
C172 C 0.33536 0.3186 0.81045 0.0
C173 C 0.3648 0.34798 0.82578 0.0
C174 C 0.38 0.3768 0.79476 0.0
C175 C 0.36731 0.37375 0.74739 0.0
C176 C 0.33833 0.3421 0.73276 0.0
Zn177 Zn 0.27372 0.27404 0.75418 0.0
C178 C 0.28424 0.20489 0.69153 0.0
N179 N 0.17202 0.18903 0.75599 0.0
C180 C 0.17837 0.14953 0.74471 0.0
C181 C 0.13491 0.20396 0.74937 0.0
C182 C 0.10413 0.18056 0.72438 0.0
C183 C 0.11259 0.14224 0.7057 0.0
C184 C 0.14886 0.12544 0.71894 0.0
Zn185 Zn 0.22176 0.22897 0.76285 0.0
O186 O 0.29947 0.23797 0.80481 0.0
C187 C 0.2134 0.2967 0.8287 0.0
O188 O 0.25036 0.19109 0.813 0.0
H189 H 0.13063 0.23551 0.75865 0.0
H190 H 0.321 0.30023 0.83675 0.0
H191 H 0.20793 0.1382 0.75076 0.0
O192 O 0.24435 0.30813 0.80585 0.0
O193 O 0.19527 0.26217 0.8176 0.0
H194 H 0.32712 0.33995 0.69676 0.0
O195 O 0.19421 0.26673 0.71216 0.0
O196 O 0.24783 0.30877 0.70211 0.0
O197 O 0.24945 0.19596 0.70799 0.0
O198 O 0.30304 0.23911 0.70318 0.0
C199 C 0.21088 0.2976 0.6923 0.0
H200 H 0.37347 0.35009 0.86274 0.0
H201 H 0.37841 0.39618 0.72283 0.0
H202 H 0.07608 0.19399 0.71506 0.0
H203 H 0.15591 0.09563 0.70556 0.0
C204 C 0.69753 0.32744 0.75704 0.0
N205 N 0.80633 0.2854 0.80338 0.0
C206 C 0.81577 0.32648 0.80511 0.0
C207 C 0.84402 0.34397 0.8377 0.0
C208 C 0.86286 0.31923 0.86936 0.0
C209 C 0.85289 0.27686 0.86769 0.0
C210 C 0.82418 0.26033 0.83382 0.0
Zn211 Zn 0.76291 0.26752 0.75322 0.0
C212 C 0.69742 0.21108 0.78503 0.0
N213 N 0.6722 0.24325 0.6462 0.0
C214 C 0.63382 0.2354 0.66126 0.0
C215 C 0.68343 0.22925 0.60351 0.0
C216 C 0.65745 0.20131 0.57735 0.0
C217 C 0.62024 0.18794 0.5961 0.0
C218 C 0.6071 0.20737 0.63657 0.0
Zn219 Zn 0.71604 0.25963 0.69593 0.0
O220 O 0.72832 0.31484 0.77817 0.0
C221 C 0.78343 0.31344 0.6644 0.0
O222 O 0.68489 0.31038 0.71842 0.0
H223 H 0.71411 0.23585 0.59229 0.0
H224 H 0.8012 0.34613 0.78122 0.0
H225 H 0.62555 0.2469 0.6952 0.0
O226 O 0.79398 0.30714 0.70645 0.0
O227 O 0.74959 0.29729 0.64805 0.0
H228 H 0.81603 0.22778 0.83198 0.0
O229 O 0.7474 0.20971 0.67341 0.0
O230 O 0.79689 0.22023 0.72642 0.0
O231 O 0.68391 0.22049 0.74482 0.0
O232 O 0.73197 0.22682 0.79962 0.0
C233 C 0.78147 0.20079 0.69023 0.0
H234 H 0.85111 0.37678 0.83828 0.0
H235 H 0.86711 0.25709 0.892 0.0
H236 H 0.66811 0.18682 0.54594 0.0
H237 H 0.57831 0.19774 0.65153 0.0
C238 C 0.69207 0.76994 0.81852 0.0
N239 N 0.65494 0.65922 0.74507 0.0
C240 C 0.63358 0.64696 0.78271 0.0
C241 C 0.59758 0.62243 0.77614 0.0
C242 C 0.58355 0.61088 0.7305 0.0
C243 C 0.60637 0.62313 0.69233 0.0
C244 C 0.64247 0.64731 0.70052 0.0
Zn245 Zn 0.70416 0.69946 0.7535 0.0
C246 C 0.69531 0.76682 0.68692 0.0
N247 N 0.80571 0.78493 0.76336 0.0
C248 C 0.8198 0.8003 0.80606 0.0
C249 C 0.82108 0.7993 0.72293 0.0
C250 C 0.85091 0.83135 0.72433 0.0
C251 C 0.86481 0.84878 0.76765 0.0
C252 C 0.84969 0.83273 0.80906 0.0
Zn253 Zn 0.75743 0.7436 0.75757 0.0
O254 O 0.67307 0.73733 0.80186 0.0
C255 C 0.764 0.67595 0.82551 0.0
O256 O 0.72889 0.7776 0.80851 0.0
H257 H 0.80923 0.78677 0.68948 0.0
H258 H 0.64402 0.65699 0.81766 0.0
H259 H 0.80692 0.78832 0.83769 0.0
O260 O 0.72811 0.66638 0.80979 0.0
O261 O 0.78334 0.70736 0.80968 0.0
H262 H 0.66 0.65745 0.67108 0.0
O263 O 0.78675 0.71009 0.70683 0.0
O264 O 0.73574 0.66338 0.70564 0.0
O265 O 0.72978 0.77963 0.70477 0.0
O266 O 0.67996 0.73217 0.69822 0.0
C267 C 0.7707 0.67574 0.69209 0.0
H268 H 0.58033 0.61321 0.80626 0.0
H269 H 0.59609 0.61461 0.65683 0.0
H270 H 0.86221 0.84333 0.69182 0.0
H271 H 0.86005 0.84578 0.84291 0.0
Cd272 Cd 0.96547 0.97206 0.57115 0.0
Cd273 Cd 0.02477 0.02048 0.43833 0.0
C274 C 0.05158 0.93317 0.55201 0.0
N275 N 0.01318 0.92415 0.5665 0.0
C276 C 0.03398 0.86754 0.60882 0.0
C277 C 0.07445 0.88011 0.60047 0.0
C278 C 0.08328 0.91144 0.56924 0.0
C279 C 0.00342 0.89037 0.59135 0.0
H280 H 0.05847 0.96021 0.53219 0.0
H281 H 0.97256 0.88394 0.60209 0.0
C282 C 0.95054 0.94697 0.47122 0.0
C283 C 0.94245 0.04862 0.39865 0.0
C284 C 0.9114 0.07355 0.38865 0.0
C285 C 0.90558 0.1066 0.41883 0.0
C286 C 0.92876 0.11207 0.46071 0.0
C287 C 0.95929 0.08568 0.46973 0.0
N288 N 0.96645 0.05574 0.43776 0.0
H289 H 0.94827 0.02442 0.37409 0.0
H290 H 0.97835 0.09038 0.50089 0.0
C291 C 0.0721 0.93749 0.43374 0.0
N292 N 0.07709 0.97817 0.4262 0.0
C293 C 0.13376 0.96843 0.37811 0.0
C294 C 0.12742 0.92611 0.38278 0.0
C295 C 0.09722 0.91057 0.41225 0.0
C296 C 0.10801 0.99416 0.40038 0.0
H297 H 0.04726 0.92591 0.45414 0.0
H298 H 0.11074 0.02659 0.39418 0.0
C299 C 0.0441 0.05233 0.54247 0.0
C300 C 0.9465 0.95391 0.66461 0.0
N301 N 0.92504 0.02576 0.56883 0.0
C302 C 0.94021 0.06037 0.59216 0.0
C303 C 0.91457 0.09043 0.60431 0.0
C304 C 0.87311 0.08425 0.59272 0.0
C305 C 0.85847 0.04952 0.5661 0.0
C306 C 0.88528 0.01997 0.55492 0.0
C307 C 0.02888 0.03647 0.34173 0.0
O308 O 0.9308 0.93352 0.5056 0.0
O309 O 0.97981 0.97337 0.47959 0.0
O310 O 0.05981 0.06107 0.50343 0.0
O311 O 0.017 0.02285 0.54229 0.0
O312 O 0.92365 0.94135 0.62991 0.0
O313 O 0.97838 0.97619 0.65638 0.0
O314 O 0.04011 0.06346 0.37329 0.0
O315 O 0.01504 0.00162 0.35497 0.0
H316 H 0.97149 0.0631 0.6046 0.0
H317 H 0.87384 0.99117 0.53857 0.0
H318 H 0.02651 0.84319 0.63267 0.0
H319 H 0.11441 0.92157 0.56222 0.0
H320 H 0.89364 0.06854 0.35623 0.0
H321 H 0.92485 0.1376 0.48455 0.0
H322 H 0.15703 0.98118 0.35566 0.0
H323 H 0.09193 0.87795 0.4167 0.0
H324 H 0.92638 0.11686 0.62534 0.0
H325 H 0.82637 0.04397 0.55739 0.0
Cd326 Cd 0.48507 0.96339 0.06028 0.0
Cd327 Cd 0.53808 0.03472 0.92582 0.0
C328 C 0.55888 0.90773 0.03728 0.0
N329 N 0.53582 0.91889 0.07347 0.0
C330 C 0.57816 0.88621 0.12801 0.0
C331 C 0.60421 0.87697 0.09186 0.0
C332 C 0.59383 0.88705 0.04585 0.0
C333 C 0.5442 0.90791 0.11807 0.0
H334 H 0.55131 0.91684 0.00221 0.0
H335 H 0.52537 0.91736 0.14617 0.0
C336 C 0.46476 0.97034 0.9391 0.0
C337 C 0.46166 0.07014 0.87825 0.0
C338 C 0.42645 0.09004 0.87057 0.0
C339 C 0.41158 0.11413 0.90666 0.0
C340 C 0.4318 0.11629 0.95062 0.0
C341 C 0.46636 0.0944 0.95736 0.0
N342 N 0.48066 0.07223 0.92113 0.0
H343 H 0.47397 0.05279 0.84994 0.0
H344 H 0.48165 0.09525 0.99128 0.0
C345 C 0.55434 0.94817 0.87492 0.0
N346 N 0.56849 0.97427 0.91044 0.0
C347 C 0.61936 0.9294 0.93213 0.0
C348 C 0.60549 0.90221 0.89551 0.0
C349 C 0.57244 0.91162 0.86693 0.0
C350 C 0.60027 0.96564 0.93892 0.0
H351 H 0.52954 0.95605 0.85218 0.0
H352 H 0.61121 0.98738 0.96629 0.0
C353 C 0.56308 0.02743 0.04895 0.0
C354 C 0.41814 0.91043 0.08733 0.0
N355 N 0.4545 0.02068 0.08649 0.0
C356 C 0.46799 0.04504 0.12382 0.0
C357 C 0.44455 0.07614 0.13976 0.0
C358 C 0.40719 0.08168 0.11696 0.0
C359 C 0.39463 0.05685 0.07789 0.0
C360 C 0.41884 0.02613 0.06341 0.0
C361 C 0.5932 0.09304 0.88301 0.0
O362 O 0.48515 0.97655 0.97708 0.0
O363 O 0.47766 0.98822 0.903 0.0
O364 O 0.5447 0.02365 0.00946 0.0
O365 O 0.54775 0.00776 0.08279 0.0
O366 O 0.42381 0.91786 0.04442 0.0
O367 O 0.44419 0.92677 0.11719 0.0
O368 O 0.59046 0.09198 0.92729 0.0
O369 O 0.57086 0.06682 0.85856 0.0
H370 H 0.49606 0.03943 0.14217 0.0
H371 H 0.4085 0.00528 0.03502 0.0
H372 H 0.58528 0.8786 0.16384 0.0
H373 H 0.61321 0.87998 0.01727 0.0
H374 H 0.41202 0.0884 0.83594 0.0
H375 H 0.42156 0.13534 0.97881 0.0
H376 H 0.64571 0.92352 0.95369 0.0
H377 H 0.56195 0.89169 0.83752 0.0
H378 H 0.4546 0.09463 0.17047 0.0
H379 H 0.36565 0.06009 0.06013 0.0
Cd380 Cd 0.97681 0.45012 0.07966 0.0
Cd381 Cd 0.02335 0.52989 0.94357 0.0
C382 C 0.05782 0.40832 0.04877 0.0
N383 N 0.03588 0.41588 0.08727 0.0
C384 C 0.08342 0.38411 0.13636 0.0
C385 C 0.10651 0.37577 0.09727 0.0
C386 C 0.09366 0.38827 0.05305 0.0
C387 C 0.04799 0.40444 0.13055 0.0
H388 H 0.04742 0.41785 0.01482 0.0
H389 H 0.03009 0.41116 0.16054 0.0
C390 C 0.96557 0.44607 0.95167 0.0
C391 C 0.95235 0.56899 0.88521 0.0
C392 C 0.91579 0.58624 0.87511 0.0
C393 C 0.88656 0.58773 0.90959 0.0
C394 C 0.89425 0.571 0.95334 0.0
C395 C 0.93138 0.55408 0.96201 0.0
N396 N 0.95962 0.55386 0.92823 0.0
H397 H 0.97526 0.56816 0.85898 0.0
H398 H 0.93791 0.54154 0.99576 0.0
C399 C 0.06691 0.46306 0.88025 0.0
N400 N 0.06969 0.48279 0.92285 0.0
C401 C 0.12465 0.44379 0.94703 0.0
C402 C 0.12161 0.42217 0.90395 0.0
C403 C 0.09271 0.43222 0.87007 0.0
C404 C 0.09809 0.47417 0.95586 0.0
H405 H 0.04396 0.47053 0.85473 0.0
H406 H 0.0996 0.49044 0.98936 0.0
C407 C 0.04126 0.52459 0.0654 0.0
C408 C 0.92215 0.38943 0.11981 0.0
N409 N 0.94227 0.50779 0.10335 0.0
C410 C 0.95995 0.53597 0.13494 0.0
C411 C 0.94144 0.57176 0.14545 0.0
C412 C 0.90262 0.5773 0.12661 0.0
C413 C 0.88385 0.54684 0.09616 0.0
C414 C 0.9046 0.51239 0.08447 0.0
C415 C 0.07055 0.60183 0.91532 0.0
O416 O 0.9748 0.45716 0.99375 0.0
O417 O 0.97875 0.46852 0.91882 0.0
O418 O 0.02519 0.51379 0.02595 0.0
O419 O 0.03279 0.50252 0.10015 0.0
O420 O 0.92294 0.39365 0.07569 0.0
O421 O 0.94663 0.41297 0.14506 0.0
O422 O 0.06132 0.5968 0.95781 0.0
O423 O 0.05758 0.57369 0.88591 0.0
H424 H 0.9884 0.53102 0.15255 0.0
H425 H 0.89042 0.48909 0.06079 0.0
H426 H 0.09277 0.37492 0.17094 0.0
H427 H 0.11092 0.38207 0.02233 0.0
H428 H 0.91055 0.59884 0.84098 0.0
H429 H 0.87201 0.57145 0.98044 0.0
H430 H 0.14698 0.43688 0.97363 0.0
H431 H 0.08989 0.41608 0.83642 0.0
H432 H 0.95661 0.59426 0.16968 0.0
H433 H 0.85356 0.5497 0.08162 0.0
Cd434 Cd 0.48466 0.46321 0.05226 0.0
Cd435 Cd 0.51148 0.53375 0.91896 0.0
C436 C 0.57567 0.4482 0.06766 0.0
N437 N 0.54159 0.42762 0.04933 0.0
C438 C 0.56638 0.36376 0.06901 0.0
C439 C 0.60009 0.38476 0.09202 0.0
C440 C 0.60635 0.42714 0.08811 0.0
C441 C 0.53707 0.38614 0.04745 0.0
H442 H 0.57612 0.48074 0.07243 0.0
H443 H 0.50861 0.37083 0.03474 0.0
C444 C 0.45511 0.44785 0.95196 0.0
C445 C 0.42569 0.55935 0.92212 0.0
C446 C 0.3946 0.58458 0.91382 0.0
C447 C 0.40143 0.62648 0.924 0.0
C448 C 0.43764 0.64153 0.94742 0.0
C449 C 0.46865 0.61521 0.95343 0.0
N450 N 0.46216 0.57526 0.93954 0.0
H451 H 0.42266 0.52817 0.90916 0.0
H452 H 0.49871 0.62745 0.96475 0.0
C453 C 0.58171 0.50836 0.85435 0.0
N454 N 0.5711 0.50491 0.89974 0.0
C455 C 0.61759 0.45331 0.9114 0.0
C456 C 0.62485 0.45279 0.8632 0.0
C457 C 0.60823 0.482 0.83506 0.0
C458 C 0.58933 0.47917 0.92888 0.0
H459 H 0.56735 0.52945 0.83209 0.0
H460 H 0.57954 0.47632 0.96449 0.0
C461 C 0.54725 0.55504 0.01766 0.0
C462 C 0.47841 0.43813 0.1454 0.0
N463 N 0.44188 0.51264 0.07159 0.0
C464 C 0.45767 0.54168 0.10299 0.0
C465 C 0.43328 0.57061 0.12129 0.0
C466 C 0.39229 0.56913 0.10727 0.0
C467 C 0.37638 0.5387 0.07514 0.0
C468 C 0.40201 0.51013 0.05787 0.0
C469 C 0.48708 0.54315 0.82454 0.0
O470 O 0.44498 0.42635 0.98652 0.0
O471 O 0.47963 0.47856 0.96022 0.0
O472 O 0.55334 0.57219 0.9789 0.0
O473 O 0.52359 0.52274 0.0179 0.0
O474 O 0.45515 0.422 0.11261 0.0
O475 O 0.5052 0.46578 0.13493 0.0
O476 O 0.50506 0.57222 0.84937 0.0
O477 O 0.48057 0.50902 0.84386 0.0
H478 H 0.48908 0.54162 0.11467 0.0
H479 H 0.3899 0.48514 0.03517 0.0
H480 H 0.56098 0.33095 0.0716 0.0
H481 H 0.63194 0.44401 0.10598 0.0
H482 H 0.36706 0.57223 0.89543 0.0
H483 H 0.44356 0.67392 0.95536 0.0
H484 H 0.63044 0.43129 0.93404 0.0
H485 H 0.61391 0.48282 0.79792 0.0
H486 H 0.446 0.59345 0.14674 0.0
H487 H 0.34452 0.53658 0.06456 0.0
Cd488 Cd 0.97323 0.46723 0.54875 0.0
Cd489 Cd 0.03748 0.54132 0.42498 0.0
C490 C 0.03226 0.41577 0.61117 0.0
N491 N 0.02594 0.42501 0.56556 0.0
C492 C 0.08458 0.39073 0.5435 0.0
C493 C 0.09225 0.38174 0.59056 0.0
C494 C 0.06544 0.39415 0.62448 0.0
C495 C 0.05083 0.41246 0.53166 0.0
H496 H 0.01216 0.42632 0.63741 0.0
H497 H 0.04493 0.4201 0.49566 0.0
C498 C 0.96302 0.47807 0.42728 0.0
C499 C 0.97638 0.59719 0.37299 0.0
C500 C 0.94187 0.61799 0.36322 0.0
C501 C 0.91468 0.62512 0.39888 0.0
C502 C 0.92404 0.61286 0.44442 0.0
C503 C 0.9595 0.59274 0.45291 0.0
N504 N 0.98412 0.58434 0.41697 0.0
H505 H 0.99622 0.5898 0.34502 0.0
H506 H 0.96595 0.58157 0.48742 0.0
C507 C 0.0583 0.46138 0.36546 0.0
N508 N 0.06719 0.48124 0.40727 0.0
C509 C 0.11817 0.43555 0.42562 0.0
C510 C 0.11007 0.4151 0.3823 0.0
C511 C 0.07926 0.4277 0.35239 0.0
C512 C 0.09614 0.46891 0.4375 0.0
H513 H 0.03598 0.47257 0.34152 0.0
H514 H 0.10295 0.48584 0.47016 0.0
C515 C 0.04983 0.53307 0.55153 0.0
C516 C 0.90805 0.41176 0.57406 0.0
N517 N 0.93669 0.52216 0.56986 0.0
C518 C 0.94699 0.54839 0.60666 0.0
C519 C 0.91994 0.57669 0.62102 0.0
C520 C 0.88224 0.57752 0.59734 0.0
C521 C 0.87296 0.55119 0.5586 0.0
C522 C 0.90077 0.52326 0.54573 0.0
C523 C 0.10105 0.59296 0.38747 0.0
O524 O 0.98022 0.48408 0.46718 0.0
O525 O 0.97828 0.4971 0.39312 0.0
O526 O 0.03697 0.52959 0.50929 0.0
O527 O 0.02965 0.51337 0.58197 0.0
O528 O 0.9176 0.41452 0.53132 0.0
O529 O 0.92954 0.43341 0.60436 0.0
O530 O 0.09773 0.5897 0.43147 0.0
O531 O 0.07478 0.57254 0.36122 0.0
H532 H 0.97507 0.54604 0.62644 0.0
H533 H 0.89288 0.5007 0.51831 0.0
H534 H 0.10478 0.38164 0.51654 0.0
H535 H 0.0706 0.38777 0.6611 0.0
H536 H 0.93551 0.62689 0.32769 0.0
H537 H 0.90336 0.61733 0.47249 0.0
H538 H 0.14225 0.4268 0.44901 0.0
H539 H 0.07294 0.41284 0.31837 0.0
H540 H 0.92737 0.59622 0.65171 0.0
H541 H 0.84364 0.55055 0.54047 0.0
Cd542 Cd 0.46518 0.95943 0.57707 0.0
Cd543 Cd 0.52118 0.02742 0.43761 0.0
C544 C 0.54864 0.93441 0.62608 0.0
N545 N 0.52532 0.92705 0.58637 0.0
C546 C 0.56803 0.87555 0.56036 0.0
C547 C 0.59109 0.88091 0.60233 0.0
C548 C 0.582 0.9116 0.63473 0.0
C549 C 0.53485 0.89912 0.55314 0.0
H550 H 0.54015 0.95658 0.65205 0.0
H551 H 0.51537 0.89362 0.52226 0.0
C552 C 0.46374 0.94414 0.45137 0.0
C553 C 0.45539 0.07262 0.37427 0.0
C554 C 0.42119 0.09429 0.36524 0.0
C555 C 0.39266 0.09816 0.40022 0.0
C556 C 0.39825 0.07909 0.44293 0.0
C557 C 0.43286 0.05776 0.45041 0.0
N558 N 0.46082 0.0556 0.41666 0.0
H559 H 0.47819 0.07049 0.34806 0.0
H560 H 0.43831 0.04393 0.48357 0.0
C561 C 0.55853 0.96094 0.37082 0.0
N562 N 0.56433 0.97758 0.41481 0.0
C563 C 0.61799 0.93403 0.43074 0.0
C564 C 0.61204 0.91587 0.38574 0.0
C565 C 0.58182 0.92959 0.35571 0.0
C566 C 0.59331 0.96487 0.44484 0.0
H567 H 0.53537 0.97176 0.34768 0.0
H568 H 0.5972 0.97867 0.47967 0.0
C569 C 0.52643 0.03583 0.5617 0.0
C570 C 0.41135 0.89997 0.62033 0.0
N571 N 0.42602 0.01543 0.59188 0.0
C572 C 0.43382 0.03843 0.63192 0.0
C573 C 0.41091 0.07151 0.64209 0.0
C574 C 0.37924 0.08054 0.61119 0.0
C575 C 0.37142 0.05626 0.57046 0.0
C576 C 0.39532 0.02359 0.56149 0.0
C577 C 0.57425 0.09544 0.41095 0.0
O578 O 0.46904 0.96043 0.49191 0.0
O579 O 0.47817 0.96354 0.41685 0.0
O580 O 0.51574 0.01984 0.5221 0.0
O581 O 0.51387 0.01825 0.5982 0.0
O582 O 0.41048 0.90411 0.57617 0.0
O583 O 0.43732 0.92294 0.64434 0.0
O584 O 0.56736 0.08898 0.45384 0.0
O585 O 0.55656 0.0704 0.38083 0.0
H586 H 0.45745 0.03069 0.65641 0.0
H587 H 0.38895 0.00446 0.5306 0.0
H588 H 0.57375 0.85147 0.53523 0.0
H589 H 0.59879 0.91582 0.66787 0.0
H590 H 0.41755 0.10879 0.33191 0.0
H591 H 0.3767 0.08176 0.47049 0.0
H592 H 0.64149 0.92455 0.45447 0.0
H593 H 0.57684 0.9166 0.32057 0.0
H594 H 0.41686 0.08904 0.67456 0.0
H595 H 0.34629 0.06169 0.54679 0.0
C596 C 0.04032 0.10491 0.24288 0.0
C597 C 0.07841 0.09269 0.22912 0.0
C598 C 0.06769 0.02852 0.26908 0.0
C599 C 0.03503 0.0454 0.29199 0.0
N600 N 0.98027 0.08942 0.28832 0.0
N601 N 0.11992 0.03779 0.21104 0.0
C602 C 0.01758 0.08005 0.27396 0.0
C603 C 0.0887 0.05217 0.23538 0.0
N604 N 0.02841 0.14191 0.2294 0.0
N605 N 0.08053 0.99191 0.28251 0.0
H606 H 0.13538 0.05554 0.18658 0.0
H607 H 0.12821 0.00781 0.21198 0.0
H608 H 0.06408 0.97314 0.30511 0.0
H609 H 0.10738 0.98039 0.27175 0.0
H610 H 0.00262 0.15499 0.24112 0.0
H611 H 0.0453 0.15958 0.20596 0.0
H612 H 0.96496 0.11396 0.27644 0.0
H613 H 0.96338 0.0699 0.30971 0.0
C614 C 0.86734 0.1954 0.3533 0.0
C615 C 0.82571 0.18171 0.34843 0.0
C616 C 0.83572 0.12727 0.40356 0.0
C617 C 0.87808 0.13711 0.4027 0.0
N618 N 0.93541 0.17851 0.37499 0.0
N619 N 0.76954 0.13427 0.36695 0.0
C620 C 0.89425 0.17107 0.37773 0.0
C621 C 0.80956 0.14766 0.37327 0.0
N622 N 0.88115 0.23145 0.33434 0.0
N623 N 0.82082 0.09844 0.4335 0.0
H624 H 0.74921 0.14902 0.34586 0.0
H625 H 0.75685 0.10721 0.38027 0.0
H626 H 0.83967 0.0832 0.45603 0.0
H627 H 0.79002 0.09225 0.43914 0.0
H628 H 0.91009 0.24538 0.34141 0.0
H629 H 0.86279 0.24909 0.31398 0.0
H630 H 0.94904 0.19931 0.35234 0.0
H631 H 0.95625 0.16211 0.39339 0.0
C632 C 0.94805 0.89333 0.3524 0.0
C633 C 0.91291 0.90833 0.33232 0.0
C634 C 0.90588 0.95343 0.40027 0.0
C635 C 0.93817 0.9346 0.42293 0.0
N636 N 0.98435 0.88087 0.42457 0.0
N637 N 0.86651 0.96073 0.32802 0.0
C638 C 0.95857 0.9036 0.3998 0.0
C639 C 0.89494 0.94165 0.35326 0.0
N640 N 0.96981 0.86764 0.32642 0.0
N641 N 0.88413 0.98036 0.42465 0.0
H642 H 0.85855 0.95149 0.29348 0.0
H643 H 0.85372 0.98721 0.3394 0.0
H644 H 0.89224 0.99062 0.45869 0.0
H645 H 0.85748 0.99173 0.41187 0.0
H646 H -0.00229 0.85782 0.33756 0.0
H647 H 0.96141 0.85969 0.29165 0.0
H648 H -0.00255 0.8555 0.41053 0.0
H649 H 0.98964 0.88499 0.46064 0.0
C650 C 0.16402 0.8662 0.279 0.0
C651 C 0.19461 0.84379 0.30025 0.0
C652 C 0.18554 0.88143 0.37477 0.0
C653 C 0.15109 0.89808 0.35488 0.0
N654 N 0.10234 0.90065 0.29258 0.0
N655 N 0.22899 0.82584 0.37338 0.0
C656 C 0.13881 0.88854 0.30807 0.0
C657 C 0.20421 0.85034 0.34947 0.0
N658 N 0.16088 0.86878 0.23139 0.0
N659 N 0.20058 0.89537 0.4178 0.0
H660 H 0.24302 0.8014 0.35893 0.0
H661 H 0.2324 0.82695 0.40978 0.0
H662 H 0.18685 0.9173 0.43781 0.0
H663 H 0.22857 0.88793 0.43164 0.0
H664 H 0.14152 0.88792 0.21472 0.0
H665 H 0.18141 0.85649 0.20887 0.0
H666 H 0.0891 0.8926 0.25971 0.0
H667 H 0.0891 0.8926 0.25971 0.0
C668 C 0.12853 0.85705 0.71283 0.0
C669 C 0.15748 0.83046 0.69691 0.0
C670 C 0.13376 0.83818 0.61572 0.0
C671 C 0.10655 0.86622 0.63181 0.0
N672 N 0.08976 0.91393 0.69268 0.0
N673 N 0.197 0.80817 0.63171 0.0
C674 C 0.10774 0.87946 0.67949 0.0
C675 C 0.163 0.82466 0.64782 0.0
N676 N 0.11885 0.85929 0.75895 0.0
N677 N 0.13131 0.82389 0.57029 0.0
H678 H 0.22097 0.8009 0.65367 0.0
H679 H 0.20369 0.80655 0.59631 0.0
H680 H 0.1107 0.83399 0.54557 0.0
H681 H 0.14771 0.79992 0.55825 0.0
H682 H 0.09503 0.87567 0.77079 0.0
H683 H 0.1313 0.84144 0.78451 0.0
H684 H 0.07596 0.93208 0.66838 0.0
H685 H 0.09259 0.92665 0.72657 0.0
C686 C 0.08767 0.14041 0.62171 0.0
C687 C 0.08772 0.12246 0.66632 0.0
C688 C 0.05963 0.05796 0.63062 0.0
C689 C 0.05658 0.07664 0.5862 0.0
N690 N 0.05477 0.14056 0.54552 0.0
N691 N 0.06292 0.06816 0.71501 0.0
C692 C 0.06641 0.11941 0.58359 0.0
C693 C 0.06969 0.08265 0.67134 0.0
N694 N 0.10994 0.17624 0.61448 0.0
N695 N 0.05646 0.01658 0.63408 0.0
H696 H 0.07021 0.08583 0.74544 0.0
H697 H 0.04635 0.04055 0.72059 0.0
H698 H 0.05201 -0.00317 0.60536 0.0
H699 H 0.06279 0.00195 0.66507 0.0
H700 H 0.11428 0.18741 0.58107 0.0
H701 H 0.12736 0.1925 0.64064 0.0
H702 H 0.0581 0.17239 0.54464 0.0
H703 H 0.03762 0.12729 0.51728 0.0
C704 C 0.81289 0.17634 0.61643 0.0
C705 C 0.80415 0.17039 0.66458 0.0
C706 C 0.83225 0.10345 0.6605 0.0
C707 C 0.84495 0.1115 0.61454 0.0
N708 N 0.84914 0.15489 0.54822 0.0
N709 N 0.80943 0.13032 0.73394 0.0
C710 C 0.83543 0.14761 0.59216 0.0
C711 C 0.81497 0.13453 0.68706 0.0
N712 N 0.79998 0.20953 0.59387 0.0
N713 N 0.83583 0.06557 0.67832 0.0
H714 H 0.79573 0.15167 0.7545 0.0
H715 H 0.8212 0.10724 0.75334 0.0
H716 H 0.84851 0.04201 0.65988 0.0
H717 H 0.82267 0.05617 0.70926 0.0
H718 H 0.80021 0.21249 0.5577 0.0
H719 H 0.78747 0.23386 0.61084 0.0
H720 H 0.84816 0.18281 0.53194 0.0
H721 H 0.86335 0.13315 0.52852 0.0
C722 C 0.93462 0.87875 0.75894 0.0
C723 C 0.89366 0.88516 0.76743 0.0
C724 C 0.90108 0.95172 0.73165 0.0
C725 C 0.93708 0.93966 0.71175 0.0
N726 N 0.99359 0.8975 0.71326 0.0
N727 N 0.83962 0.93021 0.77176 0.0
C728 C 0.95628 0.90557 0.72883 0.0
C729 C 0.87793 0.92325 0.75835 0.0
N730 N 0.95135 0.84574 0.77762 0.0
N731 N 0.88894 0.98981 0.72343 0.0
H732 H 0.82295 0.90982 0.79251 0.0
H733 H 0.82424 0.95538 0.76192 0.0
H734 H 0.90625 0.01055 0.70368 0.0
H735 H 0.86427 0.00186 0.73925 0.0
H736 H 0.98164 0.83954 0.77454 0.0
H737 H 0.93496 0.82604 0.79944 0.0
H738 H 0.00816 0.87121 0.72053 0.0
H739 H 0.00987 0.91781 0.69227 0.0
C740 C 0.34493 0.17417 0.13317 0.0
C741 C 0.32457 0.16379 0.17475 0.0
C742 C 0.35579 0.09827 0.1757 0.0
C743 C 0.37908 0.11031 0.13684 0.0
N744 N 0.3999 0.16109 0.08137 0.0
N745 N 0.31642 0.1196 0.24075 0.0
C746 C 0.37477 0.14869 0.11625 0.0
C747 C 0.33142 0.12674 0.19736 0.0
N748 N 0.33476 0.20766 0.10919 0.0
N749 N 0.35615 0.05921 0.19125 0.0
H750 H 0.29864 0.13965 0.2583 0.0
H751 H 0.32464 0.09558 0.26127 0.0
H752 H 0.37407 0.03744 0.17684 0.0
H753 H 0.33615 0.04728 0.21578 0.0
H754 H 0.34546 0.21467 0.07623 0.0
H755 H 0.31283 0.22676 0.12051 0.0
H756 H 0.40119 0.19035 0.06803 0.0
H757 H 0.42187 0.14297 0.06807 0.0
C758 C 0.87072 0.29384 0.17281 0.0
C759 C 0.83399 0.30917 0.18813 0.0
C760 C 0.85557 0.377 0.15883 0.0
C761 C 0.89124 0.36118 0.14147 0.0
N762 N 0.9303 0.30355 0.12504 0.0
N763 N 0.78762 0.36296 0.18661 0.0
C764 C 0.89794 0.31918 0.14615 0.0
C765 C 0.82538 0.35011 0.17859 0.0
N766 N 0.88068 0.25596 0.18591 0.0
N767 N 0.8508 0.41804 0.15723 0.0
H768 H 0.76438 0.34441 0.2006 0.0
H769 H 0.77791 0.39066 0.17534 0.0
H770 H 0.87111 0.43855 0.14099 0.0
H771 H 0.82823 0.4323 0.17479 0.0
H772 H 0.90889 0.24472 0.18039 0.0
H773 H 0.86182 0.23678 0.20572 0.0
H774 H 0.93466 0.27245 0.12282 0.0
H775 H 0.95137 0.32152 0.10658 0.0
C776 C 0.68568 0.80036 0.10214 0.0
C777 C 0.71389 0.82248 0.13324 0.0
C778 C 0.67513 0.88288 0.12769 0.0
C779 C 0.64346 0.85894 0.10266 0.0
N780 N 0.61837 0.79483 0.06506 0.0
N781 N 0.74601 0.88899 0.15342 0.0
C782 C 0.64909 0.81788 0.08846 0.0
C783 C 0.71207 0.8652 0.13908 0.0
N784 N 0.69488 0.76291 0.08519 0.0
N785 N 0.66935 0.92194 0.1425 0.0
H786 H 0.77444 0.87732 0.15674 0.0
H787 H 0.74736 0.92081 0.15527 0.0
H788 H 0.64337 0.93674 0.13403 0.0
H789 H 0.68911 0.9388 0.16597 0.0
H790 H 0.67745 0.74565 0.05987 0.0
H791 H 0.72273 0.75117 0.09335 0.0
H792 H 0.61884 0.7636 0.05794 0.0
H793 H 0.59085 0.80629 0.05517 0.0
C794 C 0.13045 0.59836 0.10221 0.0
C795 C 0.11517 0.63619 0.08974 0.0
C796 C 0.05125 0.60068 0.06173 0.0
C797 C 0.0675 0.5627 0.07128 0.0
N798 N 0.12513 0.52466 0.09093 0.0
N799 N 0.06546 0.67287 0.04839 0.0
C800 C 0.10797 0.5613 0.08847 0.0
C801 C 0.07696 0.63715 0.06637 0.0
N802 N 0.16524 0.59781 0.12931 0.0
N803 N 0.01085 0.60224 0.05054 0.0
H804 H 0.08386 0.7001 0.05136 0.0
H805 H 0.03968 0.67457 0.02683 0.0
H806 H 0.99061 0.57639 0.04765 0.0
H807 H 0.99662 0.62948 0.04817 0.0
H808 H 0.17501 0.57135 0.14398 0.0
H809 H 0.18278 0.62415 0.14048 0.0
H810 H 0.15587 0.52218 0.09865 0.0
H811 H 0.10947 0.49686 0.08102 0.0
C812 C 0.38751 0.88076 0.91757 0.0
C813 C 0.35067 0.90049 0.92155 0.0
C814 C 0.38885 0.9655 0.9404 0.0
C815 C 0.42558 0.94578 0.93747 0.0
N816 N 0.46007 0.88353 0.93482 0.0
N817 N 0.31588 0.9582 0.94852 0.0
C818 C 0.42493 0.90292 0.93018 0.0
C819 C 0.35129 0.94181 0.93692 0.0
N820 N 0.38716 0.842 0.89858 0.0
N821 N 0.38977 0.00704 0.9449 0.0
H822 H 0.2879 0.94118 0.94666 0.0
H823 H 0.31476 0.98714 0.96415 0.0
H824 H 0.41663 0.02512 0.95105 0.0
H825 H 0.36416 0.02343 0.94041 0.0
H826 H 0.41341 0.8281 0.88981 0.0
H827 H 0.36068 0.82463 0.88798 0.0
H828 H 0.46079 0.85184 0.93477 0.0
H829 H 0.48817 0.89913 0.94285 0.0
C830 C 0.21349 0.36688 0.8676 0.0
C831 C 0.19598 0.32612 0.86271 0.0
C832 C 0.13488 0.34754 0.90073 0.0
C833 C 0.14876 0.38897 0.89423 0.0
N834 N 0.20155 0.43869 0.87171 0.0
N835 N 0.14997 0.27597 0.89692 0.0
C836 C 0.18834 0.39886 0.87823 0.0
C837 C 0.15933 0.31571 0.88583 0.0
N838 N 0.25461 0.37455 0.8661 0.0
N839 N 0.09822 0.33893 0.92061 0.0
H840 H 0.17053 0.25353 0.89287 0.0
H841 H 0.12456 0.2659 0.91519 0.0
H842 H 0.08158 0.3616 0.93535 0.0
H843 H 0.08376 0.30979 0.92191 0.0
H844 H 0.26935 0.4034 0.87252 0.0
H845 H 0.27422 0.35104 0.86615 0.0
H846 H 0.22833 0.4471 0.85488 0.0
H847 H 0.18439 0.46322 0.8801 0.0
C848 C 0.63052 0.18938 0.82054 0.0
C849 C 0.67212 0.18256 0.81451 0.0
C850 C 0.66302 0.12029 0.86072 0.0
C851 C 0.62054 0.12434 0.86066 0.0
N852 N 0.56282 0.16087 0.83713 0.0
N853 N 0.72718 0.13859 0.82514 0.0
C854 C 0.60398 0.15828 0.8394 0.0
C855 C 0.68832 0.14744 0.83408 0.0
N856 N 0.61692 0.22666 0.81082 0.0
N857 N 0.67928 0.09043 0.88622 0.0
H858 H 0.74682 0.15745 0.8062 0.0
H859 H 0.73905 0.111 0.83333 0.0
H860 H 0.66162 0.06887 0.9044 0.0
H861 H 0.71037 0.08888 0.8923 0.0
H862 H 0.58792 0.23503 0.81835 0.0
H863 H 0.6363 0.25094 0.80037 0.0
H864 H 0.54871 0.18223 0.81721 0.0
H865 H 0.54245 0.13993 0.85263 0.0
C866 C 0.81352 0.67091 0.8923 0.0
C867 C 0.78512 0.65036 0.85999 0.0
C868 C 0.81508 0.58549 0.87683 0.0
C869 C 0.84858 0.60804 0.89952 0.0
N870 N 0.87941 0.67172 0.93214 0.0
N871 N 0.75347 0.58575 0.82879 0.0
C872 C 0.84738 0.65054 0.90898 0.0
C873 C 0.78364 0.60679 0.85518 0.0
N874 N 0.80737 0.70975 0.90757 0.0
N875 N 0.8134 0.54369 0.87643 0.0
H876 H 0.72687 0.59814 0.8178 0.0
H877 H 0.75463 0.5555 0.81735 0.0
H878 H 0.83626 0.52753 0.89159 0.0
H879 H 0.78825 0.52488 0.86468 0.0
H880 H 0.825 0.7255 0.93395 0.0
H881 H 0.78164 0.72442 0.89731 0.0
H882 H 0.88264 0.7035 0.93512 0.0
H883 H 0.904 0.65753 0.94647 0.0
C884 C 0.21275 0.35166 0.13773 0.0
C885 C 0.20752 0.30838 0.136 0.0
C886 C 0.14291 0.31112 0.09233 0.0
C887 C 0.14397 0.35368 0.10329 0.0
N888 N 0.18077 0.41585 0.13217 0.0
N889 N 0.17973 0.2495 0.09135 0.0
C890 C 0.17952 0.37451 0.12404 0.0
C891 C 0.17636 0.28893 0.10649 0.0
N892 N 0.24987 0.37065 0.14984 0.0
N893 N 0.10889 0.29149 0.07145 0.0
H894 H 0.20543 0.23398 0.09957 0.0
H895 H 0.15983 0.234 0.06694 0.0
H896 H 0.08394 0.30674 0.06007 0.0
H897 H 0.10433 0.25984 0.06762 0.0
H898 H 0.25634 0.40215 0.14949 0.0
H899 H 0.27577 0.35454 0.15376 0.0
H900 H 0.20335 0.43218 0.15257 0.0
H901 H 0.15797 0.43372 0.12004 0.0
C902 C 0.15644 0.68619 0.90461 0.0
C903 C 0.14471 0.70303 0.86147 0.0
C904 C 0.07967 0.6616 0.86222 0.0
C905 C 0.09469 0.63922 0.90009 0.0
N906 N 0.14909 0.62873 0.95605 0.0
N907 N 0.09469 0.70808 0.79932 0.0
C908 C 0.13323 0.6516 0.92163 0.0
C909 C 0.10602 0.69123 0.84049 0.0
N910 N 0.19002 0.70292 0.92906 0.0
N911 N 0.03967 0.65566 0.84826 0.0
H912 H 0.1116 0.73238 0.7847 0.0
H913 H 0.06952 0.69698 0.77878 0.0
H914 H 0.01914 0.6356 0.8648 0.0
H915 H 0.02584 0.67351 0.82376 0.0
H916 H 0.19784 0.69485 0.96298 0.0
H917 H 0.20822 0.72746 0.91703 0.0
H918 H 0.17884 0.63348 0.96922 0.0
H919 H 0.13391 0.60266 0.96894 0.0
C920 C 0.35742 0.18316 0.83067 0.0
C921 C 0.31716 0.18127 0.84767 0.0
C922 C 0.33929 0.1364 0.90964 0.0
C923 C 0.37978 0.14211 0.89421 0.0
N924 N 0.42857 0.18334 0.85161 0.0
N925 N 0.2722 0.1625 0.91007 0.0
C926 C 0.38914 0.17013 0.85901 0.0
C927 C 0.30861 0.15968 0.88922 0.0
N928 N 0.36528 0.19413 0.78588 0.0
N929 N 0.33 0.10839 0.94282 0.0
H930 H 0.24967 0.18014 0.89694 0.0
H931 H 0.26588 0.15039 0.94261 0.0
H932 H 0.35209 0.09258 0.9599 0.0
H933 H 0.30032 0.09955 0.9516 0.0
H934 H 0.39378 0.19259 0.77138 0.0
H935 H 0.34255 0.19879 0.76119 0.0
H936 H 0.43644 0.2063 0.82829 0.0
H937 H 0.45276 0.17459 0.87248 0.0
C938 C 0.93411 0.34461 0.89106 0.0
C939 C 0.89285 0.33969 0.90331 0.0
C940 C 0.90106 0.40081 0.95438 0.0
C941 C 0.9419 0.40689 0.94056 0.0
N942 N 0.00071 0.37845 0.90852 0.0
N943 N 0.84077 0.35406 0.95693 0.0
C944 C 0.95959 0.37663 0.91308 0.0
C945 C 0.87787 0.36456 0.93912 0.0
N946 N 0.94815 0.32022 0.8565 0.0
N947 N 0.88346 0.43098 0.97865 0.0
H948 H 0.82341 0.3276 0.94552 0.0
H949 H 0.82928 0.36907 0.98571 0.0
H950 H 0.89905 0.45876 0.98845 0.0
H951 H 0.85264 0.42994 0.98565 0.0
H952 H 0.97639 0.32559 0.84163 0.0
H953 H 0.93058 0.29542 0.84121 0.0
H954 H 0.01577 0.35582 0.89145 0.0
H955 H 0.02007 0.40074 0.92601 0.0
C956 C 0.67451 0.84307 0.82193 0.0
C957 C 0.67012 0.80322 0.84071 0.0
C958 C 0.62247 0.82829 0.89751 0.0
C959 C 0.63006 0.86838 0.88077 0.0
N960 N 0.67082 0.91559 0.83516 0.0
N961 N 0.64479 0.75934 0.90129 0.0
C962 C 0.65873 0.87625 0.84588 0.0
C963 C 0.64537 0.79613 0.87997 0.0
N964 N 0.69097 0.84908 0.77915 0.0
N965 N 0.59298 0.82094 0.9294 0.0
H966 H 0.66153 0.73549 0.88956 0.0
H967 H 0.63046 0.75358 0.93267 0.0
H968 H 0.57664 0.84413 0.94363 0.0
H969 H 0.58307 0.79176 0.93958 0.0
H970 H 0.69041 0.87649 0.76163 0.0
H971 H 0.70055 0.82557 0.75837 0.0
H972 H 0.69525 0.92289 0.81388 0.0
H973 H 0.65919 0.94115 0.85085 0.0
C974 C 0.86314 0.6602 0.20474 0.0
C975 C 0.84172 0.68292 0.17216 0.0
C976 C 0.86602 0.64077 0.10824 0.0
C977 C 0.88104 0.61368 0.14166 0.0
N978 N 0.88429 0.59347 0.22252 0.0
N979 N 0.81936 0.69314 0.09266 0.0
C980 C 0.87704 0.62228 0.19023 0.0
C981 C 0.84206 0.67269 0.1237 0.0
N982 N 0.87057 0.67494 0.24952 0.0
N983 N 0.87609 0.63724 0.06234 0.0
H984 H 0.8029 0.71772 0.10291 0.0
H985 H 0.81505 0.68412 0.0575 0.0
H986 H 0.89551 0.61582 0.05033 0.0
H987 H 0.86865 0.65821 0.03731 0.0
H988 H 0.88934 0.6611 0.27335 0.0
H989 H 0.86199 0.70339 0.26094 0.0
H990 H 0.87895 0.59758 0.25804 0.0
H991 H 0.89108 0.56381 0.21334 0.0
C992 C 0.32995 0.87553 0.16241 0.0
C993 C 0.3189 0.83609 0.14259 0.0
C994 C 0.36951 0.84682 0.08222 0.0
C995 C 0.3814 0.88602 0.10276 0.0
N996 N 0.3633 0.94269 0.15165 0.0
N997 N 0.31765 0.79054 0.07497 0.0
C998 C 0.35867 0.90194 0.13969 0.0
C999 C 0.33508 0.82391 0.09944 0.0
N1000 N 0.31315 0.88763 0.20322 0.0
N1001 N 0.39245 0.83013 0.0486 0.0
H1002 H 0.29239 0.77332 0.08673 0.0
H1003 H 0.32567 0.78243 0.04115 0.0
H1004 H 0.41865 0.84496 0.03591 0.0
H1005 H 0.38756 0.79997 0.03621 0.0
H1006 H 0.32387 0.91362 0.22282 0.0
H1007 H 0.28936 0.87061 0.21848 0.0
H1008 H 0.34501 0.9568 0.17537 0.0
H1009 H 0.38244 0.96339 0.13409 0.0
C1010 C 0.67076 0.05548 0.09174 0.0
C1011 C 0.67201 0.09847 0.08914 0.0
C1012 C 0.60589 0.09422 0.04817 0.0
C1013 C 0.60273 0.05143 0.05497 0.0
N1014 N 0.63841 0.99056 0.06394 0.0
N1015 N 0.65002 0.15684 0.04953 0.0
C1016 C 0.6373 0.03173 0.07047 0.0
C1017 C 0.64284 0.11696 0.06119 0.0
N1018 N 0.69986 0.03757 0.11724 0.0
N1019 N 0.57294 0.11353 0.03287 0.0
H1020 H 0.67705 0.17366 0.05973 0.0
H1021 H 0.6314 0.17159 0.02641 0.0
H1022 H 0.54521 0.09791 0.02376 0.0
H1023 H 0.57229 0.14519 0.03206 0.0
H1024 H 0.69777 0.00667 0.125 0.0
H1025 H 0.72538 0.05415 0.13207 0.0
H1026 H 0.66491 0.9755 0.06856 0.0
H1027 H 0.61413 0.9726 0.0485 0.0
C1028 C 0.50869 0.60755 0.73362 0.0
C1029 C 0.54409 0.58711 0.72429 0.0
C1030 C 0.51031 0.52323 0.74835 0.0
C1031 C 0.48396 0.54694 0.7734 0.0
N1032 N 0.44319 0.60381 0.77149 0.0
N1033 N 0.57534 0.52399 0.7106 0.0
C1034 C 0.47731 0.58628 0.75802 0.0
C1035 C 0.54323 0.54397 0.72606 0.0
N1036 N 0.50747 0.6478 0.72327 0.0
N1037 N 0.5055 0.48174 0.74993 0.0
H1038 H 0.59931 0.53919 0.69363 0.0
H1039 H 0.57839 0.49297 0.71505 0.0
H1040 H 0.48095 0.46753 0.76687 0.0
H1041 H 0.52327 0.4621 0.7317 0.0
H1042 H 0.48376 0.66559 0.73181 0.0
H1043 H 0.53074 0.66306 0.70514 0.0
H1044 H 0.43534 0.63244 0.76116 0.0
H1045 H 0.42175 0.58771 0.79152 0.0
C1046 C 0.30352 0.66784 0.88287 0.0
C1047 C 0.31775 0.69475 0.84808 0.0
C1048 C 0.3875 0.67906 0.86469 0.0
C1049 C 0.37373 0.65422 0.90199 0.0
N1050 N 0.32009 0.6317 0.95287 0.0
N1051 N 0.37307 0.73415 0.81358 0.0
C1052 C 0.3321 0.65088 0.91319 0.0
C1053 C 0.35973 0.70317 0.84163 0.0
N1054 N 0.26286 0.65749 0.88585 0.0
N1055 N 0.42608 0.67753 0.84883 0.0
H1056 H 0.35342 0.75203 0.79533 0.0
H1057 H 0.40357 0.74445 0.8118 0.0
H1058 H 0.44713 0.65837 0.86215 0.0
H1059 H 0.43601 0.69223 0.81894 0.0
H1060 H 0.25094 0.63492 0.90754 0.0
H1061 H 0.24113 0.66912 0.86366 0.0
H1062 H 0.29074 0.63177 0.96526 0.0
H1063 H 0.34048 0.61881 0.97571 0.0
C1064 C 0.38348 0.43771 0.8451 0.0
C1065 C 0.40492 0.41175 0.81629 0.0
C1066 C 0.46391 0.42178 0.86978 0.0
C1067 C 0.4387 0.43821 0.90395 0.0
N1068 N 0.37406 0.463 0.92399 0.0
N1069 N 0.46683 0.38267 0.79667 0.0
C1070 C 0.39841 0.44707 0.8914 0.0
C1071 C 0.4461 0.40611 0.82657 0.0
N1072 N 0.34752 0.45069 0.82871 0.0
N1073 N 0.50461 0.42087 0.8786 0.0
H1074 H 0.4542 0.37227 0.76419 0.0
H1075 H 0.49546 0.37276 0.80454 0.0
H1076 H 0.51831 0.42868 0.91124 0.0
H1077 H 0.52481 0.41571 0.85216 0.0
H1078 H 0.33115 0.47182 0.84662 0.0
H1079 H 0.33635 0.44277 0.79485 0.0
H1080 H 0.34314 0.46598 0.91823 0.0
H1081 H 0.3846 0.47169 0.9577 0.0
C1082 C 0.70075 0.39899 0.79028 0.0
C1083 C 0.67735 0.36186 0.77852 0.0
C1084 C 0.62413 0.38138 0.83037 0.0
C1085 C 0.646 0.41967 0.84005 0.0
N1086 N 0.70385 0.46669 0.82764 0.0
N1087 N 0.61191 0.3238 0.77631 0.0
C1088 C 0.68407 0.42898 0.81953 0.0
C1089 C 0.63753 0.35495 0.79503 0.0
N1090 N 0.73875 0.40553 0.77293 0.0
N1091 N 0.59114 0.36946 0.85576 0.0
H1092 H 0.61993 0.30411 0.74959 0.0
H1093 H 0.58115 0.32026 0.78364 0.0
H1094 H 0.5808 0.38694 0.8832 0.0
H1095 H 0.57678 0.34012 0.8533 0.0
H1096 H 0.75967 0.42916 0.78447 0.0
H1097 H 0.74971 0.38651 0.74706 0.0
H1098 H 0.72932 0.47744 0.80986 0.0
H1099 H 0.69381 0.48813 0.85151 0.0
C1100 C 0.63618 0.3395 0.20523 0.0
C1101 C 0.66844 0.31711 0.18936 0.0
C1102 C 0.6548 0.33778 0.10879 0.0
C1103 C 0.62522 0.36314 0.12557 0.0
N1104 N 0.59401 0.3953 0.19144 0.0
N1105 N 0.71457 0.30253 0.12737 0.0
C1106 C 0.61793 0.36636 0.17433 0.0
C1107 C 0.67943 0.31815 0.14144 0.0
N1108 N 0.62135 0.33349 0.2489 0.0
N1109 N 0.65946 0.33244 0.06166 0.0
H1110 H 0.73471 0.28922 0.14993 0.0
H1111 H 0.72611 0.30664 0.09414 0.0
H1112 H 0.64373 0.3483 0.03664 0.0
H1113 H 0.67687 0.31026 0.0473 0.0
H1114 H 0.59491 0.3457 0.26021 0.0
H1115 H 0.63281 0.31282 0.27206 0.0
H1116 H 0.59157 0.40173 0.22713 0.0
H1117 H 0.57899 0.41517 0.17037 0.0
C1118 C 0.56866 0.62317 0.12648 0.0
C1119 C 0.60482 0.60717 0.14359 0.0
C1120 C 0.60419 0.5594 0.077 0.0
C1121 C 0.56656 0.57289 0.06127 0.0
N1122 N 0.51083 0.61561 0.07178 0.0
N1123 N 0.65046 0.55333 0.14312 0.0
C1124 C 0.5479 0.60401 0.08653 0.0
C1125 C 0.61991 0.57252 0.12172 0.0
N1126 N 0.55562 0.65785 0.1469 0.0
N1127 N 0.62634 0.53644 0.04804 0.0
H1128 H 0.66248 0.56285 0.17617 0.0
H1129 H 0.66063 0.52594 0.13026 0.0
H1130 H 0.61632 0.52729 0.0142 0.0
H1131 H 0.6559 0.52929 0.05636 0.0
H1132 H 0.53249 0.67418 0.1329 0.0
H1133 H 0.56928 0.67146 0.17735 0.0
H1134 H 0.49421 0.63621 0.09013 0.0
H1135 H 0.49489 0.60186 0.04287 0.0
C1136 C 0.32527 0.62018 0.19358 0.0
C1137 C 0.32375 0.65912 0.17341 0.0
C1138 C 0.36281 0.63693 0.10697 0.0
C1139 C 0.36609 0.59878 0.12825 0.0
N1140 N 0.35455 0.55435 0.19314 0.0
N1141 N 0.34777 0.70773 0.11699 0.0
C1142 C 0.34827 0.59036 0.17188 0.0
C1143 C 0.3441 0.66832 0.13152 0.0
N1144 N 0.30428 0.61163 0.23312 0.0
N1145 N 0.37771 0.64308 0.06333 0.0
H1146 H 0.33604 0.73178 0.13551 0.0
H1147 H 0.36569 0.71743 0.08946 0.0
H1148 H 0.39283 0.62113 0.04496 0.0
H1149 H 0.37251 0.66859 0.04374 0.0
H1150 H 0.29967 0.58248 0.24633 0.0
H1151 H 0.28969 0.63363 0.25194 0.0
H1152 H 0.34671 0.54814 0.22736 0.0
H1153 H 0.36976 0.53106 0.17736 0.0
C1154 C 0.42943 0.42761 0.26037 0.0
C1155 C 0.43482 0.3858 0.2665 0.0
C1156 C 0.48434 0.38538 0.20588 0.0
C1157 C 0.47372 0.42494 0.1938 0.0
N1158 N 0.4487 0.48913 0.21836 0.0
N1159 N 0.48008 0.33232 0.26365 0.0
C1160 C 0.45105 0.44827 0.22473 0.0
C1161 C 0.46806 0.36807 0.24663 0.0
N1162 N 0.40064 0.44569 0.28531 0.0
N1163 N 0.50657 0.36317 0.17636 0.0
H1164 H 0.46606 0.31905 0.29243 0.0
H1165 H 0.50552 0.3184 0.2521 0.0
H1166 H 0.51823 0.37514 0.14575 0.0
H1167 H 0.51183 0.33261 0.18113 0.0
H1168 H 0.39143 0.47481 0.27925 0.0
H1169 H 0.38548 0.43042 0.31201 0.0
H1170 H 0.43405 0.50824 0.24094 0.0
H1171 H 0.46452 0.5045 0.19232 0.0
C1172 C 0.80413 0.61005 0.68182 0.0
C1173 C 0.79502 0.64851 0.66408 0.0
C1174 C 0.84309 0.64047 0.60123 0.0
C1175 C 0.85031 0.60121 0.61774 0.0
N1176 N 0.83059 0.5444 0.66612 0.0
N1177 N 0.79925 0.69682 0.602 0.0
C1178 C 0.82836 0.5846 0.65546 0.0
C1179 C 0.81252 0.66268 0.62217 0.0
N1180 N 0.79234 0.599 0.72543 0.0
N1181 N 0.86629 0.65694 0.56666 0.0
H1182 H 0.7764 0.7133 0.61615 0.0
H1183 H 0.80811 0.70664 0.56924 0.0
H1184 H 0.88863 0.64118 0.55044 0.0
H1185 H 0.86543 0.68708 0.55637 0.0
H1186 H 0.80241 0.57361 0.74218 0.0
H1187 H 0.77587 0.61723 0.74705 0.0
H1188 H 0.8117 0.52961 0.68991 0.0
H1189 H 0.84861 0.52474 0.64813 0.0
C1190 C 0.31506 0.86228 0.6812 0.0
C1191 C 0.32323 0.82125 0.69081 0.0
C1192 C 0.38697 0.8303 0.64823 0.0
C1193 C 0.38074 0.87239 0.64342 0.0
N1194 N 0.34116 0.92988 0.65934 0.0
N1195 N 0.36881 0.76708 0.68758 0.0
C1196 C 0.34543 0.88876 0.66108 0.0
C1197 C 0.35955 0.80532 0.67504 0.0
N1198 N 0.27748 0.87551 0.68938 0.0
N1199 N 0.41901 0.8142 0.62691 0.0
H1200 H 0.34946 0.74785 0.70674 0.0
H1201 H 0.39681 0.75539 0.68198 0.0
H1202 H 0.44024 0.83189 0.60835 0.0
H1203 H 0.42303 0.78303 0.62472 0.0
H1204 H 0.26808 0.9034 0.67833 0.0
H1205 H 0.25405 0.85704 0.70316 0.0
H1206 H 0.3188 0.94449 0.67688 0.0
H1207 H 0.36171 0.95012 0.64305 0.0
C1208 C 0.16265 0.29884 0.62293 0.0
C1209 C 0.18644 0.32053 0.65897 0.0
C1210 C 0.15983 0.38378 0.63246 0.0
C1211 C 0.1289 0.36094 0.60583 0.0
N1212 N 0.10056 0.29546 0.57526 0.0
N1213 N 0.20436 0.38487 0.70093 0.0
C1214 C 0.13045 0.31807 0.60034 0.0
C1215 C 0.18463 0.36352 0.66428 0.0
N1216 N 0.1718 0.26056 0.60905 0.0
N1217 N 0.16618 0.42469 0.62615 0.0
H1218 H 0.2214 0.37131 0.72667 0.0
H1219 H 0.20042 0.41563 0.70819 0.0
H1220 H 0.15087 0.4388 0.59936 0.0
H1221 H 0.19018 0.44263 0.64241 0.0
H1222 H 0.1589 0.24589 0.57884 0.0
H1223 H 0.19569 0.24586 0.62429 0.0
H1224 H 0.09813 0.26359 0.57448 0.0
H1225 H 0.07692 0.30861 0.55758 0.0
C1226 C 0.61511 0.11141 0.59292 0.0
C1227 C 0.59889 0.1487 0.58 0.0
C1228 C 0.53488 0.11168 0.55462 0.0
C1229 C 0.5519 0.07441 0.56535 0.0
N1230 N 0.61057 0.03758 0.58384 0.0
N1231 N 0.54743 0.18385 0.53959 0.0
C1232 C 0.59286 0.07389 0.58093 0.0
C1233 C 0.56004 0.14863 0.55776 0.0
N1234 N 0.65046 0.11178 0.61918 0.0
N1235 N 0.49432 0.11201 0.5437 0.0
H1236 H 0.56546 0.21134 0.54152 0.0
H1237 H 0.52098 0.18495 0.51903 0.0
H1238 H 0.47478 0.08559 0.54222 0.0
H1239 H 0.47937 0.13869 0.54008 0.0
H1240 H 0.66095 0.08573 0.6341 0.0
H1241 H 0.66778 0.13843 0.62967 0.0
H1242 H 0.64159 0.03566 0.59021 0.0
H1243 H 0.59493 0.0094 0.57559 0.0
C1244 C 0.85181 0.43989 0.42469 0.0
C1245 C 0.85439 0.39902 0.40897 0.0
C1246 C 0.92873 0.40844 0.4127 0.0
C1247 C 0.92571 0.45078 0.42133 0.0
N1248 N 0.88445 0.50808 0.42951 0.0
N1249 N 0.8951 0.34502 0.38195 0.0
C1250 C 0.88724 0.46688 0.42581 0.0
C1251 C 0.89282 0.38318 0.40181 0.0
N1252 N 0.81544 0.45269 0.43865 0.0
N1253 N 0.96583 0.3924 0.41485 0.0
H1254 H 0.86969 0.32538 0.37303 0.0
H1255 H 0.92214 0.33396 0.3709 0.0
H1256 H 0.99295 0.41026 0.42129 0.0
H1257 H 0.9694 0.3611 0.41392 0.0
H1258 H 0.81236 0.48107 0.45487 0.0
H1259 H 0.78902 0.43318 0.43838 0.0
H1260 H 0.85703 0.52191 0.42928 0.0
H1261 H 0.90989 0.52859 0.42978 0.0
C1262 C 0.66253 0.81556 0.36331 0.0
C1263 C 0.68271 0.82529 0.3214 0.0
C1264 C 0.66409 0.89608 0.3295 0.0
C1265 C 0.63939 0.88525 0.36754 0.0
N1266 N 0.61262 0.8339 0.41954 0.0
N1267 N 0.69504 0.87274 0.25928 0.0
C1268 C 0.63801 0.84476 0.38435 0.0
C1269 C 0.68147 0.86503 0.30311 0.0
N1270 N 0.66803 0.77918 0.38393 0.0
N1271 N 0.67176 0.93631 0.31917 0.0
H1272 H 0.70613 0.85035 0.23767 0.0
H1273 H 0.69104 0.89998 0.24243 0.0
H1274 H 0.66038 0.96012 0.33857 0.0
H1275 H 0.69287 0.94621 0.29476 0.0
H1276 H 0.65773 0.77206 0.41704 0.0
H1277 H 0.68577 0.75725 0.36951 0.0
H1278 H 0.60654 0.80383 0.42947 0.0
H1279 H 0.59575 0.85475 0.43722 0.0
C1280 C 0.17119 0.68603 0.35844 0.0
C1281 C 0.19207 0.66987 0.32001 0.0
C1282 C 0.15888 0.60186 0.33295 0.0
C1283 C 0.1343 0.61907 0.36712 0.0
N1284 N 0.11311 0.67873 0.40838 0.0
N1285 N 0.20079 0.61338 0.26592 0.0
C1286 C 0.13978 0.66138 0.37939 0.0
C1287 C 0.18452 0.62804 0.30594 0.0
N1288 N 0.18035 0.72541 0.37398 0.0
N1289 N 0.15876 0.56031 0.32735 0.0
H1290 H 0.22028 0.63106 0.24534 0.0
H1291 H 0.19233 0.58458 0.25102 0.0
H1292 H 0.1413 0.54008 0.34749 0.0
H1293 H 0.17905 0.54589 0.30636 0.0
H1294 H 0.17023 0.73738 0.40532 0.0
H1295 H 0.20014 0.74554 0.35686 0.0
H1296 H 0.11255 0.71012 0.4144 0.0
H1297 H 0.08898 0.66222 0.42348 0.0
C1298 C 0.33243 0.19237 0.39109 0.0
C1299 C 0.29867 0.17574 0.36338 0.0
C1300 C 0.32084 0.1068 0.37298 0.0
C1301 C 0.3582 0.12416 0.39294 0.0
N1302 N 0.39894 0.18253 0.42582 0.0
N1303 N 0.25059 0.11716 0.35266 0.0
C1304 C 0.36349 0.16666 0.40438 0.0
C1305 C 0.28951 0.13282 0.36191 0.0
N1306 N 0.33352 0.23237 0.40595 0.0
N1307 N 0.31598 0.06576 0.36281 0.0
H1308 H 0.22625 0.13567 0.35093 0.0
H1309 H 0.24154 0.08615 0.3538 0.0
H1310 H 0.33776 0.0456 0.37191 0.0
H1311 H 0.29152 0.0521 0.34288 0.0
H1312 H 0.35576 0.24643 0.4287 0.0
H1313 H 0.30928 0.25035 0.39917 0.0
H1314 H 0.40677 0.21368 0.43054 0.0
H1315 H 0.42167 0.16436 0.43742 0.0
C1316 C 0.68375 0.81919 0.62462 0.0
C1317 C 0.66897 0.79487 0.66181 0.0
C1318 C 0.60148 0.82021 0.64962 0.0
C1319 C 0.61759 0.84887 0.6179 0.0
N1320 N 0.67447 0.87812 0.5764 0.0
N1321 N 0.61564 0.78227 0.71773 0.0
C1322 C 0.65891 0.84905 0.60553 0.0
C1323 C 0.62825 0.7978 0.67628 0.0
N1324 N 0.72076 0.81292 0.60664 0.0
N1325 N 0.56041 0.81455 0.65479 0.0
H1326 H 0.63469 0.76886 0.74123 0.0
H1327 H 0.58768 0.78765 0.73182 0.0
H1328 H 0.53945 0.83069 0.63618 0.0
H1329 H 0.54705 0.79085 0.67396 0.0
H1330 H 0.73162 0.82709 0.57686 0.0
H1331 H 0.73913 0.79076 0.61908 0.0
H1332 H 0.7053 0.8827 0.56988 0.0
H1333 H 0.65658 0.89931 0.56085 0.0
C1334 C 0.61399 0.18401 0.33781 0.0
C1335 C 0.65421 0.19144 0.35632 0.0
C1336 C 0.64135 0.13856 0.41439 0.0
C1337 C 0.60089 0.13114 0.39595 0.0
N1338 N 0.5455 0.15551 0.35023 0.0
N1339 N 0.70287 0.18395 0.41937 0.0
C1340 C 0.58624 0.15654 0.36065 0.0
C1341 C 0.66665 0.17159 0.39725 0.0
N1342 N 0.6025 0.2027 0.29786 0.0
N1343 N 0.65672 0.11245 0.44573 0.0
H1344 H 0.7225 0.2073 0.40705 0.0
H1345 H 0.71183 0.17359 0.45195 0.0
H1346 H 0.63992 0.08725 0.45839 0.0
H1347 H 0.68725 0.11362 0.45623 0.0
H1348 H 0.57539 0.19464 0.27923 0.0
H1349 H 0.62115 0.22496 0.28192 0.0
H1350 H 0.53249 0.1758 0.32786 0.0
H1351 H 0.52414 0.13729 0.36793 0.0
C1352 C 0.81549 0.63932 0.33307 0.0
C1353 C 0.80827 0.68006 0.34726 0.0
C1354 C 0.86716 0.68238 0.40208 0.0
C1355 C 0.87517 0.64232 0.38676 0.0
N1356 N 0.85046 0.57849 0.34877 0.0
N1357 N 0.81853 0.73451 0.40526 0.0
C1358 C 0.8469 0.61938 0.35621 0.0
C1359 C 0.83122 0.69948 0.38538 0.0
N1360 N 0.79525 0.62075 0.29488 0.0
N1361 N 0.89496 0.70508 0.43016 0.0
H1362 H 0.79184 0.74698 0.39394 0.0
H1363 H 0.83185 0.74858 0.43559 0.0
H1364 H 0.92171 0.6938 0.44296 0.0
H1365 H 0.89295 0.73603 0.43806 0.0
H1366 H 0.80363 0.59375 0.27913 0.0
H1367 H 0.77165 0.63308 0.27653 0.0
H1368 H 0.82818 0.55909 0.33146 0.0
H1369 H 0.87421 0.56326 0.36326 0.0
C1370 C 0.44712 0.8353 0.40489 0.0
C1371 C 0.40544 0.82763 0.41349 0.0
C1372 C 0.4041 0.8925 0.45655 0.0
C1373 C 0.44506 0.90202 0.44467 0.0
N1374 N 0.5091 0.87761 0.42238 0.0
N1375 N 0.34874 0.83997 0.46094 0.0
C1376 C 0.46785 0.87166 0.4238 0.0
C1377 C 0.38587 0.85299 0.44496 0.0
N1378 N 0.46581 0.80908 0.37609 0.0
N1379 N 0.38161 0.9221 0.47474 0.0
H1380 H 0.33502 0.81113 0.45146 0.0
H1381 H 0.33383 0.85574 0.48662 0.0
H1382 H 0.39346 0.95201 0.48106 0.0
H1383 H 0.35051 0.91795 0.47986 0.0
H1384 H 0.49473 0.81529 0.36327 0.0
H1385 H 0.45127 0.78139 0.36376 0.0
H1386 H 0.52757 0.85557 0.40999 0.0
H1387 H 0.52506 0.90324 0.43797 0.0
C1388 C 0.16105 0.31507 0.36544 0.0
C1389 C 0.18466 0.32467 0.32593 0.0
C1390 C 0.16435 0.39494 0.32943 0.0
C1391 C 0.1371 0.38415 0.3652 0.0
N1392 N 0.10571 0.33317 0.41437 0.0
N1393 N 0.20129 0.37112 0.26377 0.0
C1394 C 0.13441 0.34397 0.38258 0.0
C1395 C 0.1844 0.36394 0.30618 0.0
N1396 N 0.16505 0.279 0.38738 0.0
N1397 N 0.17177 0.43502 0.31828 0.0
H1398 H 0.21497 0.34891 0.24432 0.0
H1399 H 0.19789 0.39777 0.24548 0.0
H1400 H 0.15801 0.45889 0.3349 0.0
H1401 H 0.19457 0.44496 0.29591 0.0
H1402 H 0.15178 0.27201 0.41906 0.0
H1403 H 0.18449 0.25735 0.37591 0.0
H1404 H 0.09936 0.30327 0.42475 0.0
H1405 H 0.08607 0.35373 0.42795 0.0
C1406 C 0.32736 0.18072 0.62551 0.0
C1407 C 0.30557 0.17228 0.66679 0.0
C1408 C 0.32372 0.10105 0.66148 0.0
C1409 C 0.35081 0.11127 0.62565 0.0
N1410 N 0.38048 0.16106 0.57392 0.0
N1411 N 0.29197 0.12546 0.73 0.0
C1412 C 0.3531 0.15117 0.60747 0.0
C1413 C 0.30571 0.1326 0.68613 0.0
N1414 N 0.32254 0.21627 0.60288 0.0
N1415 N 0.31537 0.06103 0.67235 0.0
H1416 H 0.28166 0.14796 0.75177 0.0
H1417 H 0.29571 0.09834 0.74727 0.0
H1418 H 0.32821 0.03687 0.65512 0.0
H1419 H 0.29253 0.05166 0.69497 0.0
H1420 H 0.3347 0.22256 0.57041 0.0
H1421 H 0.30314 0.2379 0.6145 0.0
H1422 H 0.38676 0.19074 0.56279 0.0
H1423 H 0.39876 0.13976 0.55917 0.0
C1424 C 0.85328 0.32197 0.63229 0.0
C1425 C 0.81329 0.3355 0.63425 0.0
C1426 C 0.83382 0.39304 0.58471 0.0
C1427 C 0.87478 0.38284 0.58915 0.0
N1428 N 0.92447 0.33863 0.61796 0.0
N1429 N 0.76595 0.38576 0.61542 0.0
C1430 C 0.88471 0.34743 0.61292 0.0
C1431 C 0.80342 0.3712 0.61061 0.0
N1432 N 0.86104 0.28415 0.64778 0.0
N1433 N 0.82411 0.42384 0.55611 0.0
H1434 H 0.74311 0.371 0.63451 0.0
H1435 H 0.75839 0.41405 0.60356 0.0
H1436 H 0.84581 0.44086 0.53757 0.0
H1437 H 0.79439 0.43021 0.54761 0.0
H1438 H 0.88814 0.2706 0.64228 0.0
H1439 H 0.83913 0.26444 0.66238 0.0
H1440 H 0.93439 0.31667 0.64042 0.0
H1441 H 0.94811 0.35484 0.6015 0.0
C1442 C 0.15015 0.56561 0.61582 0.0
C1443 C 0.15598 0.60646 0.60185 0.0
C1444 C 0.09592 0.598 0.54941 0.0
C1445 C 0.08837 0.5574 0.56509 0.0
N1446 N 0.10919 0.50161 0.61125 0.0
N1447 N 0.14359 0.65776 0.54617 0.0
C1448 C 0.11624 0.54077 0.59712 0.0
C1449 C 0.13198 0.62114 0.56514 0.0
N1450 N 0.17771 0.55055 0.64627 0.0
N1451 N 0.06693 0.61609 0.52374 0.0
H1452 H 0.16992 0.67507 0.5578 0.0
H1453 H 0.12978 0.66874 0.51628 0.0
H1454 H 0.03883 0.60159 0.51384 0.0
H1455 H 0.06906 0.64693 0.51576 0.0
H1456 H 0.17754 0.5201 0.65551 0.0
H1457 H 0.20294 0.56824 0.66014 0.0
H1458 H 0.12116 0.49085 0.64224 0.0
H1459 H 0.09065 0.47992 0.59195 0.0
loop_
_geom_bond_atom_site_label_1
_geom_bond_atom_site_label_2
_geom_bond_distance
_geom_bond_site_symmetry_2
_ccdc_geom_bond_type
C0 O16 1.251 . S
C0 O18 1.254 . S
N1 C2 1.333 . S
N1 C6 1.307 . S
N1 Zn7 2.020 . S
C2 N1 1.333 . S
C2 C3 1.379 . S
C2 H20 0.952 . S
C3 C2 1.379 . S
C3 C4 1.390 . S
C3 H30 0.949 . S
C4 C3 1.390 . S
C4 C5 1.357 . S
C5 C4 1.357 . S
C5 C6 1.370 . S
C5 H31 0.950 . S
C6 N1 1.307 . S
C6 C5 1.370 . S
C6 H24 0.948 . S
Zn7 N1 2.020 . S
Zn7 O16 2.039 . S
Zn7 O22 2.034 . S
Zn7 O26 2.025 . S
Zn7 O28 2.024 . S
C8 O27 1.246 . S
C8 O28 1.249 . S
N9 C10 1.307 . S
N9 C11 1.333 . S
N9 Zn15 2.020 . S
C10 N9 1.307 . S
C10 C14 1.370 . S
C10 H21 0.948 . S
C11 N9 1.333 . S
C11 C12 1.379 . S
C11 H19 0.952 . S
C12 C11 1.379 . S
C12 C13 1.390 . S
C12 H32 0.949 . S
C13 C12 1.390 . S
C13 C14 1.357 . S
C14 C10 1.370 . S
C14 C13 1.357 . S
C14 H33 0.950 . S
Zn15 N9 2.020 . S
Zn15 O18 2.025 . S
Zn15 O23 2.024 . S
Zn15 O25 2.039 . S
Zn15 O27 2.034 . S
O16 C0 1.251 . S
O16 Zn7 2.039 . S
C17 O22 1.246 . S
C17 O23 1.249 . S
O18 C0 1.254 . S
O18 Zn15 2.025 . S
H19 C11 0.952 . S
H20 C2 0.952 . S
H21 C10 0.948 . S
O22 Zn7 2.034 . S
O22 C17 1.246 . S
O23 Zn15 2.024 . S
O23 C17 1.249 . S
H24 C6 0.948 . S
O25 Zn15 2.039 . S
O25 C29 1.251 . S
O26 Zn7 2.025 . S
O26 C29 1.254 . S
O27 C8 1.246 . S
O27 Zn15 2.034 . S
O28 Zn7 2.024 . S
O28 C8 1.249 . S
C29 O25 1.251 . S
C29 O26 1.254 . S
H30 C3 0.949 . S
H31 C5 0.950 . S
H32 C12 0.949 . S
H33 C14 0.950 . S
C34 O50 1.251 . S
C34 O52 1.254 . S
N35 C36 1.333 . S
N35 C40 1.307 . S
N35 Zn41 2.020 . S
C36 N35 1.333 . S
C36 C37 1.379 . S
C36 H54 0.952 . S
C37 C36 1.379 . S
C37 C38 1.390 . S
C37 H64 0.949 . S
C38 C37 1.390 . S
C38 C39 1.357 . S
C39 C38 1.357 . S
C39 C40 1.370 . S
C39 H65 0.950 . S
C40 N35 1.307 . S
C40 C39 1.370 . S
C40 H58 0.948 . S
Zn41 N35 2.020 . S
Zn41 O50 2.039 . S
Zn41 O56 2.034 . S
Zn41 O60 2.025 . S
Zn41 O62 2.024 . S
C42 O61 1.246 . S
C42 O62 1.249 . S
N43 C44 1.307 . S
N43 C45 1.333 . S
N43 Zn49 2.020 . S
C44 N43 1.307 . S
C44 C48 1.370 . S
C44 H55 0.948 . S
C45 N43 1.333 . S
C45 C46 1.379 . S
C45 H53 0.952 . S
C46 C45 1.379 . S
C46 C47 1.390 . S
C46 H66 0.949 . S
C47 C46 1.390 . S
C47 C48 1.357 . S
C48 C44 1.370 . S
C48 C47 1.357 . S
C48 H67 0.950 . S
Zn49 N43 2.020 . S
Zn49 O52 2.025 . S
Zn49 O57 2.024 . S
Zn49 O59 2.039 . S
Zn49 O61 2.034 . S
O50 C34 1.251 . S
O50 Zn41 2.039 . S
C51 O56 1.246 . S
C51 O57 1.249 . S
O52 C34 1.254 . S
O52 Zn49 2.025 . S
H53 C45 0.952 . S
H54 C36 0.952 . S
H55 C44 0.948 . S
O56 Zn41 2.034 . S
O56 C51 1.246 . S
O57 Zn49 2.024 . S
O57 C51 1.249 . S
H58 C40 0.948 . S
O59 Zn49 2.039 . S
O59 C63 1.251 . S
O60 Zn41 2.025 . S
O60 C63 1.254 . S
O61 C42 1.246 . S
O61 Zn49 2.034 . S
O62 Zn41 2.024 . S
O62 C42 1.249 . S
C63 O59 1.251 . S
C63 O60 1.254 . S
H64 C37 0.949 . S
H65 C39 0.950 . S
H66 C46 0.949 . S
H67 C48 0.950 . S
C68 O84 1.251 . S
C68 O86 1.254 . S
N69 C70 1.333 . S
N69 C74 1.307 . S
N69 Zn75 2.020 . S
C70 N69 1.333 . S
C70 C71 1.379 . S
C70 H88 0.952 . S
C71 C70 1.379 . S
C71 C72 1.390 . S
C71 H98 0.949 . S
C72 C71 1.390 . S
C72 C73 1.357 . S
C73 C72 1.357 . S
C73 C74 1.370 . S
C73 H99 0.950 . S
C74 N69 1.307 . S
C74 C73 1.370 . S
C74 H92 0.948 . S
Zn75 N69 2.020 . S
Zn75 O84 2.039 . S
Zn75 O90 2.034 . S
Zn75 O94 2.025 . S
Zn75 O96 2.024 . S
C76 O95 1.246 . S
C76 O96 1.249 . S
N77 C78 1.307 . S
N77 C79 1.333 . S
N77 Zn83 2.020 . S
C78 N77 1.307 . S
C78 C82 1.370 . S
C78 H89 0.948 . S
C79 N77 1.333 . S
C79 C80 1.379 . S
C79 H87 0.952 . S
C80 C79 1.379 . S
C80 C81 1.390 . S
C80 H100 0.949 . S
C81 C80 1.390 . S
C81 C82 1.357 . S
C82 C78 1.370 . S
C82 C81 1.357 . S
C82 H101 0.950 . S
Zn83 N77 2.020 . S
Zn83 O86 2.025 . S
Zn83 O91 2.024 . S
Zn83 O93 2.039 . S
Zn83 O95 2.034 . S
O84 C68 1.251 . S
O84 Zn75 2.039 . S
C85 O90 1.246 . S
C85 O91 1.249 . S
O86 C68 1.254 . S
O86 Zn83 2.025 . S
H87 C79 0.952 . S
H88 C70 0.952 . S
H89 C78 0.948 . S
O90 Zn75 2.034 . S
O90 C85 1.246 . S
O91 Zn83 2.024 . S
O91 C85 1.249 . S
H92 C74 0.948 . S
O93 Zn83 2.039 . S
O93 C97 1.251 . S
O94 Zn75 2.025 . S
O94 C97 1.254 . S
O95 C76 1.246 . S
O95 Zn83 2.034 . S
O96 Zn75 2.024 . S
O96 C76 1.249 . S
C97 O93 1.251 . S
C97 O94 1.254 . S
H98 C71 0.949 . S
H99 C73 0.950 . S
H100 C80 0.949 . S
H101 C82 0.950 . S
C102 O118 1.251 . S
C102 O120 1.254 . S
N103 C104 1.333 . S
N103 C108 1.307 . S
N103 Zn109 2.020 . S
C104 N103 1.333 . S
C104 C105 1.379 . S
C104 H122 0.952 . S
C105 C104 1.379 . S
C105 C106 1.390 . S
C105 H132 0.949 . S
C106 C105 1.390 . S
C106 C107 1.357 . S
C107 C106 1.357 . S
C107 C108 1.370 . S
C107 H133 0.950 . S
C108 N103 1.307 . S
C108 C107 1.370 . S
C108 H126 0.948 . S
Zn109 N103 2.020 . S
Zn109 O118 2.039 . S
Zn109 O124 2.034 . S
Zn109 O128 2.025 . S
Zn109 O130 2.024 . S
C110 O129 1.246 . S
C110 O130 1.249 . S
N111 C112 1.307 . S
N111 C113 1.333 . S
N111 Zn117 2.020 . S
C112 N111 1.307 . S
C112 C116 1.370 . S
C112 H123 0.948 . S
C113 N111 1.333 . S
C113 C114 1.379 . S
C113 H121 0.952 . S
C114 C113 1.379 . S
C114 C115 1.390 . S
C114 H134 0.949 . S
C115 C114 1.390 . S
C115 C116 1.357 . S
C116 C112 1.370 . S
C116 C115 1.357 . S
C116 H135 0.950 . S
Zn117 N111 2.020 . S
Zn117 O120 2.025 . S
Zn117 O125 2.024 . S
Zn117 O127 2.039 . S
Zn117 O129 2.034 . S
O118 C102 1.251 . S
O118 Zn109 2.039 . S
C119 O124 1.246 . S
C119 O125 1.249 . S
O120 C102 1.254 . S
O120 Zn117 2.025 . S
H121 C113 0.952 . S
H122 C104 0.952 . S
H123 C112 0.948 . S
O124 Zn109 2.034 . S
O124 C119 1.246 . S
O125 Zn117 2.024 . S
O125 C119 1.249 . S
H126 C108 0.948 . S
O127 Zn117 2.039 . S
O127 C131 1.251 . S
O128 Zn109 2.025 . S
O128 C131 1.254 . S
O129 C110 1.246 . S
O129 Zn117 2.034 . S
O130 Zn109 2.024 . S
O130 C110 1.249 . S
C131 O127 1.251 . S
C131 O128 1.254 . S
H132 C105 0.949 . S
H133 C107 0.950 . S
H134 C114 0.949 . S
H135 C116 0.950 . S
C136 O152 1.251 . S
C136 O154 1.254 . S
N137 C138 1.333 . S
N137 C142 1.307 . S
N137 Zn143 2.020 . S
C138 N137 1.333 . S
C138 C139 1.379 . S
C138 H156 0.952 . S
C139 C138 1.379 . S
C139 C140 1.390 . S
C139 H166 0.949 . S
C140 C139 1.390 . S
C140 C141 1.357 . S
C141 C140 1.357 . S
C141 C142 1.370 . S
C141 H167 0.950 . S
C142 N137 1.307 . S
C142 C141 1.370 . S
C142 H160 0.948 . S
Zn143 N137 2.020 . S
Zn143 O152 2.039 . S
Zn143 O158 2.034 . S
Zn143 O162 2.025 . S
Zn143 O164 2.024 . S
C144 O163 1.246 . S
C144 O164 1.249 . S
N145 C146 1.307 . S
N145 C147 1.333 . S
N145 Zn151 2.020 . S
C146 N145 1.307 . S
C146 C150 1.370 . S
C146 H157 0.948 . S
C147 N145 1.333 . S
C147 C148 1.379 . S
C147 H155 0.952 . S
C148 C147 1.379 . S
C148 C149 1.390 . S
C148 H168 0.949 . S
C149 C148 1.390 . S
C149 C150 1.357 . S
C150 C146 1.370 . S
C150 C149 1.357 . S
C150 H169 0.950 . S
Zn151 N145 2.020 . S
Zn151 O154 2.025 . S
Zn151 O159 2.024 . S
Zn151 O161 2.039 . S
Zn151 O163 2.034 . S
O152 C136 1.251 . S
O152 Zn143 2.039 . S
C153 O158 1.246 . S
C153 O159 1.249 . S
O154 C136 1.254 . S
O154 Zn151 2.025 . S
H155 C147 0.952 . S
H156 C138 0.952 . S
H157 C146 0.948 . S
O158 Zn143 2.034 . S
O158 C153 1.246 . S
O159 Zn151 2.024 . S
O159 C153 1.249 . S
H160 C142 0.948 . S
O161 Zn151 2.039 . S
O161 C165 1.251 . S
O162 Zn143 2.025 . S
O162 C165 1.254 . S
O163 C144 1.246 . S
O163 Zn151 2.034 . S
O164 Zn143 2.024 . S
O164 C144 1.249 . S
C165 O161 1.251 . S
C165 O162 1.254 . S
H166 C139 0.949 . S
H167 C141 0.950 . S
H168 C148 0.949 . S
H169 C150 0.950 . S
C170 O186 1.251 . S
C170 O188 1.254 . S
N171 C172 1.333 . S
N171 C176 1.307 . S
N171 Zn177 2.020 . S
C172 N171 1.333 . S
C172 C173 1.379 . S
C172 H190 0.952 . S
C173 C172 1.379 . S
C173 C174 1.390 . S
C173 H200 0.949 . S
C174 C173 1.390 . S
C174 C175 1.357 . S
C175 C174 1.357 . S
C175 C176 1.370 . S
C175 H201 0.950 . S
C176 N171 1.307 . S
C176 C175 1.370 . S
C176 H194 0.948 . S
Zn177 N171 2.020 . S
Zn177 O186 2.039 . S
Zn177 O192 2.034 . S
Zn177 O196 2.025 . S
Zn177 O198 2.024 . S
C178 O197 1.246 . S
C178 O198 1.249 . S
N179 C180 1.307 . S
N179 C181 1.333 . S
N179 Zn185 2.020 . S
C180 N179 1.307 . S
C180 C184 1.370 . S
C180 H191 0.948 . S
C181 N179 1.333 . S
C181 C182 1.379 . S
C181 H189 0.952 . S
C182 C181 1.379 . S
C182 C183 1.390 . S
C182 H202 0.949 . S
C183 C182 1.390 . S
C183 C184 1.357 . S
C184 C180 1.370 . S
C184 C183 1.357 . S
C184 H203 0.950 . S
Zn185 N179 2.020 . S
Zn185 O188 2.025 . S
Zn185 O193 2.024 . S
Zn185 O195 2.039 . S
Zn185 O197 2.034 . S
O186 C170 1.251 . S
O186 Zn177 2.039 . S
C187 O192 1.246 . S
C187 O193 1.249 . S
O188 C170 1.254 . S
O188 Zn185 2.025 . S
H189 C181 0.952 . S
H190 C172 0.952 . S
H191 C180 0.948 . S
O192 Zn177 2.034 . S
O192 C187 1.246 . S
O193 Zn185 2.024 . S
O193 C187 1.249 . S
H194 C176 0.948 . S
O195 Zn185 2.039 . S
O195 C199 1.251 . S
O196 Zn177 2.025 . S
O196 C199 1.254 . S
O197 C178 1.246 . S
O197 Zn185 2.034 . S
O198 Zn177 2.024 . S
O198 C178 1.249 . S
C199 O195 1.251 . S
C199 O196 1.254 . S
H200 C173 0.949 . S
H201 C175 0.950 . S
H202 C182 0.949 . S
H203 C184 0.950 . S
C204 O220 1.251 . S
C204 O222 1.254 . S
N205 C206 1.333 . S
N205 C210 1.307 . S
N205 Zn211 2.020 . S
C206 N205 1.333 . S
C206 C207 1.379 . S
C206 H224 0.952 . S
C207 C206 1.379 . S
C207 C208 1.390 . S
C207 H234 0.949 . S
C208 C207 1.390 . S
C208 C209 1.357 . S
C209 C208 1.357 . S
C209 C210 1.370 . S
C209 H235 0.950 . S
C210 N205 1.307 . S
C210 C209 1.370 . S
C210 H228 0.948 . S
Zn211 N205 2.020 . S
Zn211 O220 2.039 . S
Zn211 O226 2.034 . S
Zn211 O230 2.025 . S
Zn211 O232 2.024 . S
C212 O231 1.246 . S
C212 O232 1.249 . S
N213 C214 1.307 . S
N213 C215 1.333 . S
N213 Zn219 2.020 . S
C214 N213 1.307 . S
C214 C218 1.370 . S
C214 H225 0.948 . S
C215 N213 1.333 . S
C215 C216 1.379 . S
C215 H223 0.952 . S
C216 C215 1.379 . S
C216 C217 1.390 . S
C216 H236 0.949 . S
C217 C216 1.390 . S
C217 C218 1.357 . S
C218 C214 1.370 . S
C218 C217 1.357 . S
C218 H237 0.950 . S
Zn219 N213 2.020 . S
Zn219 O222 2.025 . S
Zn219 O227 2.024 . S
Zn219 O229 2.039 . S
Zn219 O231 2.034 . S
O220 C204 1.251 . S
O220 Zn211 2.039 . S
C221 O226 1.246 . S
C221 O227 1.249 . S
O222 C204 1.254 . S
O222 Zn219 2.025 . S
H223 C215 0.952 . S
H224 C206 0.952 . S
H225 C214 0.948 . S
O226 Zn211 2.034 . S
O226 C221 1.246 . S
O227 Zn219 2.024 . S
O227 C221 1.249 . S
H228 C210 0.948 . S
O229 Zn219 2.039 . S
O229 C233 1.251 . S
O230 Zn211 2.025 . S
O230 C233 1.254 . S
O231 C212 1.246 . S
O231 Zn219 2.034 . S
O232 Zn211 2.024 . S
O232 C212 1.249 . S
C233 O229 1.251 . S
C233 O230 1.254 . S
H234 C207 0.949 . S
H235 C209 0.950 . S
H236 C216 0.949 . S
H237 C218 0.950 . S
C238 O254 1.251 . S
C238 O256 1.254 . S
N239 C240 1.333 . S
N239 C244 1.307 . S
N239 Zn245 2.020 . S
C240 N239 1.333 . S
C240 C241 1.379 . S
C240 H258 0.952 . S
C241 C240 1.379 . S
C241 C242 1.390 . S
C241 H268 0.949 . S
C242 C241 1.390 . S
C242 C243 1.357 . S
C243 C242 1.357 . S
C243 C244 1.370 . S
C243 H269 0.950 . S
C244 N239 1.307 . S
C244 C243 1.370 . S
C244 H262 0.948 . S
Zn245 N239 2.020 . S
Zn245 O254 2.039 . S
Zn245 O260 2.034 . S
Zn245 O264 2.025 . S
Zn245 O266 2.024 . S
C246 O265 1.246 . S
C246 O266 1.249 . S
N247 C248 1.307 . S
N247 C249 1.333 . S
N247 Zn253 2.020 . S
C248 N247 1.307 . S
C248 C252 1.370 . S
C248 H259 0.948 . S
C249 N247 1.333 . S
C249 C250 1.379 . S
C249 H257 0.952 . S
C250 C249 1.379 . S
C250 C251 1.390 . S
C250 H270 0.949 . S
C251 C250 1.390 . S
C251 C252 1.357 . S
C252 C248 1.370 . S
C252 C251 1.357 . S
C252 H271 0.950 . S
Zn253 N247 2.020 . S
Zn253 O256 2.025 . S
Zn253 O261 2.024 . S
Zn253 O263 2.039 . S
Zn253 O265 2.034 . S
O254 C238 1.251 . S
O254 Zn245 2.039 . S
C255 O260 1.246 . S
C255 O261 1.249 . S
O256 C238 1.254 . S
O256 Zn253 2.025 . S
H257 C249 0.952 . S
H258 C240 0.952 . S
H259 C248 0.948 . S
O260 Zn245 2.034 . S
O260 C255 1.246 . S
O261 Zn253 2.024 . S
O261 C255 1.249 . S
H262 C244 0.948 . S
O263 Zn253 2.039 . S
O263 C267 1.251 . S
O264 Zn245 2.025 . S
O264 C267 1.254 . S
O265 C246 1.246 . S
O265 Zn253 2.034 . S
O266 Zn245 2.024 . S
O266 C246 1.249 . S
C267 O263 1.251 . S
C267 O264 1.254 . S
H268 C241 0.949 . S
H269 C243 0.950 . S
H270 C250 0.949 . S
H271 C252 0.950 . S
Cd272 N275 2.334 1_655 S
Cd272 N301 2.304 1_565 S
Cd272 O308 2.268 . S
Cd272 O311 2.273 1_665 S
Cd272 O312 2.417 . S
Cd272 O313 2.330 . S
Cd273 N288 2.304 1_455 S
Cd273 N292 2.334 1_545 S
Cd273 O309 2.273 1_445 S
Cd273 O310 2.268 . S
Cd273 O314 2.417 . S
Cd273 O315 2.330 . S
C274 N275 1.332 . S
C274 C278 1.381 . S
C274 H280 0.931 . S
N275 Cd272 2.334 1_455 S
N275 C274 1.332 . S
N275 C279 1.328 . S
C276 C277 1.396 . S
C276 C279 1.378 . S
C276 H318 0.931 . S
C277 C276 1.396 . S
C277 C278 1.382 . S
C278 C274 1.381 . S
C278 C277 1.382 . S
C278 H319 0.930 . S
C279 N275 1.328 . S
C279 C276 1.378 . S
C279 H281 0.930 . S
H280 C274 0.931 . S
H281 C279 0.930 . S
C282 O308 1.238 . S
C282 O309 1.253 . S
C283 C284 1.379 . S
C283 N288 1.337 . S
C283 H289 0.929 . S
C284 C283 1.379 . S
C284 C285 1.380 . S
C284 H320 0.929 . S
C285 C284 1.380 . S
C285 C286 1.399 . S
C286 C285 1.399 . S
C286 C287 1.376 . S
C286 H321 0.931 . S
C287 C286 1.376 . S
C287 N288 1.338 . S
C287 H290 0.930 . S
N288 Cd273 2.304 1_655 S
N288 C283 1.337 . S
N288 C287 1.338 . S
H289 C283 0.929 . S
H290 C287 0.930 . S
C291 N292 1.332 . S
C291 C295 1.381 . S
C291 H297 0.931 . S
N292 Cd273 2.334 1_565 S
N292 C291 1.332 . S
N292 C296 1.328 . S
C293 C294 1.396 . S
C293 C296 1.378 . S
C293 H322 0.931 . S
C294 C293 1.396 . S
C294 C295 1.382 . S
C295 C291 1.381 . S
C295 C294 1.382 . S
C295 H323 0.930 . S
C296 N292 1.328 . S
C296 C293 1.378 . S
C296 H298 0.930 . S
H297 C291 0.931 . S
H298 C296 0.930 . S
C299 O310 1.238 . S
C299 O311 1.253 . S
C300 O312 1.239 . S
C300 O313 1.230 . S
N301 Cd272 2.304 1_545 S
N301 C302 1.337 . S
N301 C306 1.338 . S
C302 N301 1.337 . S
C302 C303 1.379 . S
C302 H316 0.929 . S
C303 C302 1.379 . S
C303 C304 1.380 . S
C303 H324 0.929 . S
C304 C303 1.380 . S
C304 C305 1.399 . S
C305 C304 1.399 . S
C305 C306 1.376 . S
C305 H325 0.931 . S
C306 N301 1.338 . S
C306 C305 1.376 . S
C306 H317 0.930 . S
C307 O314 1.239 . S
C307 O315 1.230 . S
O308 Cd272 2.268 . S
O308 C282 1.238 . S
O309 Cd273 2.273 1_665 S
O309 C282 1.253 . S
O310 Cd273 2.268 . S
O310 C299 1.238 . S
O311 Cd272 2.273 1_445 S
O311 C299 1.253 . S
O312 Cd272 2.417 . S
O312 C300 1.239 . S
O313 Cd272 2.330 . S
O313 C300 1.230 . S
O314 Cd273 2.417 . S
O314 C307 1.239 . S
O315 Cd273 2.330 . S
O315 C307 1.230 . S
H316 C302 0.929 . S
H317 C306 0.930 . S
H318 C276 0.931 . S
H319 C278 0.930 . S
H320 C284 0.929 . S
H321 C286 0.931 . S
H322 C293 0.931 . S
H323 C295 0.930 . S
H324 C303 0.929 . S
H325 C305 0.931 . S
Cd326 N329 2.334 . S
Cd326 N355 2.304 1_565 S
Cd326 O362 2.268 1_554 S
Cd326 O365 2.273 1_565 S
Cd326 O366 2.417 . S
Cd326 O367 2.330 . S
Cd327 N342 2.304 . S
Cd327 N346 2.334 1_545 S
Cd327 O363 2.273 1_545 S
Cd327 O364 2.268 1_556 S
Cd327 O368 2.417 . S
Cd327 O369 2.330 . S
C328 N329 1.332 . S
C328 C332 1.381 . S
C328 H334 0.931 . S
N329 Cd326 2.334 . S
N329 C328 1.332 . S
N329 C333 1.328 . S
C330 C331 1.396 . S
C330 C333 1.378 . S
C330 H372 0.931 1_554 S
C331 C330 1.396 . S
C331 C332 1.382 . S
C332 C328 1.381 . S
C332 C331 1.382 . S
C332 H373 0.930 . S
C333 N329 1.328 . S
C333 C330 1.378 . S
C333 H335 0.930 1_554 S
H334 C328 0.931 . S
H335 C333 0.930 1_556 S
C336 O362 1.238 . S
C336 O363 1.253 . S
C337 C338 1.379 . S
C337 N342 1.337 . S
C337 H343 0.929 . S
C338 C337 1.379 . S
C338 C339 1.380 . S
C338 H374 0.929 . S
C339 C338 1.380 . S
C339 C340 1.399 . S
C340 C339 1.399 . S
C340 C341 1.376 . S
C340 H375 0.931 1_556 S
C341 C340 1.376 . S
C341 N342 1.338 . S
C341 H344 0.930 1_556 S
N342 Cd327 2.304 . S
N342 C337 1.337 . S
N342 C341 1.338 . S
H343 C337 0.929 . S
H344 C341 0.930 1_554 S
C345 N346 1.332 . S
C345 C349 1.381 . S
C345 H351 0.931 . S
N346 Cd327 2.334 1_565 S
N346 C345 1.332 . S
N346 C350 1.328 . S
C347 C348 1.396 . S
C347 C350 1.378 . S
C347 H376 0.931 1_556 S
C348 C347 1.396 . S
C348 C349 1.382 . S
C349 C345 1.381 . S
C349 C348 1.382 . S
C349 H377 0.930 . S
C350 N346 1.328 . S
C350 C347 1.378 . S
C350 H352 0.930 1_556 S
H351 C345 0.931 . S
H352 C350 0.930 1_554 S
C353 O364 1.238 . S
C353 O365 1.253 . S
C354 O366 1.239 . S
C354 O367 1.230 . S
N355 Cd326 2.304 1_545 S
N355 C356 1.337 . S
N355 C360 1.338 . S
C356 N355 1.337 . S
C356 C357 1.379 . S
C356 H370 0.929 . S
C357 C356 1.379 . S
C357 C358 1.380 . S
C357 H378 0.929 . S
C358 C357 1.380 . S
C358 C359 1.399 . S
C359 C358 1.399 . S
C359 C360 1.376 . S
C359 H379 0.931 1_554 S
C360 N355 1.338 . S
C360 C359 1.376 . S
C360 H371 0.930 1_554 S
C361 O368 1.239 . S
C361 O369 1.230 . S
O362 Cd326 2.268 1_556 S
O362 C336 1.238 . S
O363 Cd327 2.273 1_565 S
O363 C336 1.253 . S
O364 Cd327 2.268 1_554 S
O364 C353 1.238 . S
O365 Cd326 2.273 1_545 S
O365 C353 1.253 . S
O366 Cd326 2.417 . S
O366 C354 1.239 . S
O367 Cd326 2.330 . S
O367 C354 1.230 . S
O368 Cd327 2.417 . S
O368 C361 1.239 . S
O369 Cd327 2.330 . S
O369 C361 1.230 . S
H370 C356 0.929 . S
H371 C360 0.930 1_556 S
H372 C330 0.931 1_556 S
H373 C332 0.930 . S
H374 C338 0.929 . S
H375 C340 0.931 1_554 S
H376 C347 0.931 1_554 S
H377 C349 0.930 . S
H378 C357 0.929 . S
H379 C359 0.931 1_556 S
Cd380 N383 2.334 1_655 S
Cd380 N409 2.304 . S
Cd380 O416 2.268 1_554 S
Cd380 O419 2.273 1_655 S
Cd380 O420 2.417 . S
Cd380 O421 2.330 . S
Cd381 N396 2.304 1_455 S
Cd381 N400 2.334 . S
Cd381 O417 2.273 1_455 S
Cd381 O418 2.268 1_556 S
Cd381 O422 2.417 . S
Cd381 O423 2.330 . S
C382 N383 1.332 . S
C382 C386 1.381 . S
C382 H388 0.931 . S
N383 Cd380 2.334 1_455 S
N383 C382 1.332 . S
N383 C387 1.328 . S
C384 C385 1.396 . S
C384 C387 1.378 . S
C384 H426 0.931 1_554 S
C385 C384 1.396 . S
C385 C386 1.382 . S
C386 C382 1.381 . S
C386 C385 1.382 . S
C386 H427 0.930 . S
C387 N383 1.328 . S
C387 C384 1.378 . S
C387 H389 0.930 1_554 S
H388 C382 0.931 . S
H389 C387 0.930 1_556 S
C390 O416 1.238 . S
C390 O417 1.253 . S
C391 C392 1.379 . S
C391 N396 1.337 . S
C391 H397 0.929 . S
C392 C391 1.379 . S
C392 C393 1.380 . S
C392 H428 0.929 . S
C393 C392 1.380 . S
C393 C394 1.399 . S
C394 C393 1.399 . S
C394 C395 1.376 . S
C394 H429 0.931 1_556 S
C395 C394 1.376 . S
C395 N396 1.338 . S
C395 H398 0.930 1_556 S
N396 Cd381 2.304 1_655 S
N396 C391 1.337 . S
N396 C395 1.338 . S
H397 C391 0.929 . S
H398 C395 0.930 1_554 S
C399 N400 1.332 . S
C399 C403 1.381 . S
C399 H405 0.931 . S
N400 Cd381 2.334 . S
N400 C399 1.332 . S
N400 C404 1.328 . S
C401 C402 1.396 . S
C401 C404 1.378 . S
C401 H430 0.931 1_556 S
C402 C401 1.396 . S
C402 C403 1.382 . S
C403 C399 1.381 . S
C403 C402 1.382 . S
C403 H431 0.930 . S
C404 N400 1.328 . S
C404 C401 1.378 . S
C404 H406 0.930 1_556 S
H405 C399 0.931 . S
H406 C404 0.930 1_554 S
C407 O418 1.238 . S
C407 O419 1.253 . S
C408 O420 1.239 . S
C408 O421 1.230 . S
N409 Cd380 2.304 . S
N409 C410 1.337 . S
N409 C414 1.338 . S
C410 N409 1.337 . S
C410 C411 1.379 . S
C410 H424 0.929 . S
C411 C410 1.379 . S
C411 C412 1.380 . S
C411 H432 0.929 . S
C412 C411 1.380 . S
C412 C413 1.399 . S
C413 C412 1.399 . S
C413 C414 1.376 . S
C413 H433 0.931 1_554 S
C414 N409 1.338 . S
C414 C413 1.376 . S
C414 H425 0.930 1_554 S
C415 O422 1.239 . S
C415 O423 1.230 . S
O416 Cd380 2.268 1_556 S
O416 C390 1.238 . S
O417 Cd381 2.273 1_655 S
O417 C390 1.253 . S
O418 Cd381 2.268 1_554 S
O418 C407 1.238 . S
O419 Cd380 2.273 1_455 S
O419 C407 1.253 . S
O420 Cd380 2.417 . S
O420 C408 1.239 . S
O421 Cd380 2.330 . S
O421 C408 1.230 . S
O422 Cd381 2.417 . S
O422 C415 1.239 . S
O423 Cd381 2.330 . S
O423 C415 1.230 . S
H424 C410 0.929 . S
H425 C414 0.930 1_556 S
H426 C384 0.931 1_556 S
H427 C386 0.930 . S
H428 C392 0.929 . S
H429 C394 0.931 1_554 S
H430 C401 0.931 1_554 S
H431 C403 0.930 . S
H432 C411 0.929 . S
H433 C413 0.931 1_556 S
Cd434 N437 2.334 . S
Cd434 N463 2.304 . S
Cd434 O470 2.268 1_554 S
Cd434 O473 2.273 . S
Cd434 O474 2.417 . S
Cd434 O475 2.330 . S
Cd435 N450 2.304 . S
Cd435 N454 2.334 . S
Cd435 O471 2.273 . S
Cd435 O472 2.268 1_556 S
Cd435 O476 2.417 . S
Cd435 O477 2.330 . S
C436 N437 1.332 . S
C436 C440 1.381 . S
C436 H442 0.931 . S
N437 Cd434 2.334 . S
N437 C436 1.332 . S
N437 C441 1.328 . S
C438 C439 1.396 . S
C438 C441 1.378 . S
C438 H480 0.931 1_554 S
C439 C438 1.396 . S
C439 C440 1.382 . S
C440 C436 1.381 . S
C440 C439 1.382 . S
C440 H481 0.930 . S
C441 N437 1.328 . S
C441 C438 1.378 . S
C441 H443 0.930 1_554 S
H442 C436 0.931 . S
H443 C441 0.930 1_556 S
C444 O470 1.238 . S
C444 O471 1.253 . S
C445 C446 1.379 . S
C445 N450 1.337 . S
C445 H451 0.929 . S
C446 C445 1.379 . S
C446 C447 1.380 . S
C446 H482 0.929 . S
C447 C446 1.380 . S
C447 C448 1.399 . S
C448 C447 1.399 . S
C448 C449 1.376 . S
C448 H483 0.931 1_556 S
C449 C448 1.376 . S
C449 N450 1.338 . S
C449 H452 0.930 1_556 S
N450 Cd435 2.304 . S
N450 C445 1.337 . S
N450 C449 1.338 . S
H451 C445 0.929 . S
H452 C449 0.930 1_554 S
C453 N454 1.332 . S
C453 C457 1.381 . S
C453 H459 0.931 . S
N454 Cd435 2.334 . S
N454 C453 1.332 . S
N454 C458 1.328 . S
C455 C456 1.396 . S
C455 C458 1.378 . S
C455 H484 0.931 1_556 S
C456 C455 1.396 . S
C456 C457 1.382 . S
C457 C453 1.381 . S
C457 C456 1.382 . S
C457 H485 0.930 . S
C458 N454 1.328 . S
C458 C455 1.378 . S
C458 H460 0.930 1_556 S
H459 C453 0.931 . S
H460 C458 0.930 1_554 S
C461 O472 1.238 . S
C461 O473 1.253 . S
C462 O474 1.239 . S
C462 O475 1.230 . S
N463 Cd434 2.304 . S
N463 C464 1.337 . S
N463 C468 1.338 . S
C464 N463 1.337 . S
C464 C465 1.379 . S
C464 H478 0.929 . S
C465 C464 1.379 . S
C465 C466 1.380 . S
C465 H486 0.929 . S
C466 C465 1.380 . S
C466 C467 1.399 . S
C467 C466 1.399 . S
C467 C468 1.376 . S
C467 H487 0.931 1_554 S
C468 N463 1.338 . S
C468 C467 1.376 . S
C468 H479 0.930 1_554 S
C469 O476 1.239 . S
C469 O477 1.230 . S
O470 Cd434 2.268 1_556 S
O470 C444 1.238 . S
O471 Cd435 2.273 . S
O471 C444 1.253 . S
O472 Cd435 2.268 1_554 S
O472 C461 1.238 . S
O473 Cd434 2.273 . S
O473 C461 1.253 . S
O474 Cd434 2.417 . S
O474 C462 1.239 . S
O475 Cd434 2.330 . S
O475 C462 1.230 . S
O476 Cd435 2.417 . S
O476 C469 1.239 . S
O477 Cd435 2.330 . S
O477 C469 1.230 . S
H478 C464 0.929 . S
H479 C468 0.930 1_556 S
H480 C438 0.931 1_556 S
H481 C440 0.930 . S
H482 C446 0.929 . S
H483 C448 0.931 1_554 S
H484 C455 0.931 1_554 S
H485 C457 0.930 . S
H486 C465 0.929 . S
H487 C467 0.931 1_556 S
Cd488 N491 2.334 1_655 S
Cd488 N517 2.304 . S
Cd488 O524 2.268 . S
Cd488 O527 2.273 1_655 S
Cd488 O528 2.417 . S
Cd488 O529 2.330 . S
Cd489 N504 2.304 1_455 S
Cd489 N508 2.334 . S
Cd489 O525 2.273 1_455 S
Cd489 O526 2.268 . S
Cd489 O530 2.417 . S
Cd489 O531 2.330 . S
C490 N491 1.332 . S
C490 C494 1.381 . S
C490 H496 0.931 . S
N491 Cd488 2.334 1_455 S
N491 C490 1.332 . S
N491 C495 1.328 . S
C492 C493 1.396 . S
C492 C495 1.378 . S
C492 H534 0.931 . S
C493 C492 1.396 . S
C493 C494 1.382 . S
C494 C490 1.381 . S
C494 C493 1.382 . S
C494 H535 0.930 . S
C495 N491 1.328 . S
C495 C492 1.378 . S
C495 H497 0.930 . S
H496 C490 0.931 . S
H497 C495 0.930 . S
C498 O524 1.238 . S
C498 O525 1.253 . S
C499 C500 1.379 . S
C499 N504 1.337 . S
C499 H505 0.929 . S
C500 C499 1.379 . S
C500 C501 1.380 . S
C500 H536 0.929 . S
C501 C500 1.380 . S
C501 C502 1.399 . S
C502 C501 1.399 . S
C502 C503 1.376 . S
C502 H537 0.931 . S
C503 C502 1.376 . S
C503 N504 1.338 . S
C503 H506 0.930 . S
N504 Cd489 2.304 1_655 S
N504 C499 1.337 . S
N504 C503 1.338 . S
H505 C499 0.929 . S
H506 C503 0.930 . S
C507 N508 1.332 . S
C507 C511 1.381 . S
C507 H513 0.931 . S
N508 Cd489 2.334 . S
N508 C507 1.332 . S
N508 C512 1.328 . S
C509 C510 1.396 . S
C509 C512 1.378 . S
C509 H538 0.931 . S
C510 C509 1.396 . S
C510 C511 1.382 . S
C511 C507 1.381 . S
C511 C510 1.382 . S
C511 H539 0.930 . S
C512 N508 1.328 . S
C512 C509 1.378 . S
C512 H514 0.930 . S
H513 C507 0.931 . S
H514 C512 0.930 . S
C515 O526 1.238 . S
C515 O527 1.253 . S
C516 O528 1.239 . S
C516 O529 1.230 . S
N517 Cd488 2.304 . S
N517 C518 1.337 . S
N517 C522 1.338 . S
C518 N517 1.337 . S
C518 C519 1.379 . S
C518 H532 0.929 . S
C519 C518 1.379 . S
C519 C520 1.380 . S
C519 H540 0.929 . S
C520 C519 1.380 . S
C520 C521 1.399 . S
C521 C520 1.399 . S
C521 C522 1.376 . S
C521 H541 0.931 . S
C522 N517 1.338 . S
C522 C521 1.376 . S
C522 H533 0.930 . S
C523 O530 1.239 . S
C523 O531 1.230 . S
O524 Cd488 2.268 . S
O524 C498 1.238 . S
O525 Cd489 2.273 1_655 S
O525 C498 1.253 . S
O526 Cd489 2.268 . S
O526 C515 1.238 . S
O527 Cd488 2.273 1_455 S
O527 C515 1.253 . S
O528 Cd488 2.417 . S
O528 C516 1.239 . S
O529 Cd488 2.330 . S
O529 C516 1.230 . S
O530 Cd489 2.417 . S
O530 C523 1.239 . S
O531 Cd489 2.330 . S
O531 C523 1.230 . S
H532 C518 0.929 . S
H533 C522 0.930 . S
H534 C492 0.931 . S
H535 C494 0.930 . S
H536 C500 0.929 . S
H537 C502 0.931 . S
H538 C509 0.931 . S
H539 C511 0.930 . S
H540 C519 0.929 . S
H541 C521 0.931 . S
Cd542 N545 2.334 . S
Cd542 N571 2.304 1_565 S
Cd542 O578 2.268 . S
Cd542 O581 2.273 1_565 S
Cd542 O582 2.417 . S
Cd542 O583 2.330 . S
Cd543 N558 2.304 . S
Cd543 N562 2.334 1_545 S
Cd543 O579 2.273 1_545 S
Cd543 O580 2.268 . S
Cd543 O584 2.417 . S
Cd543 O585 2.330 . S
C544 N545 1.332 . S
C544 C548 1.381 . S
C544 H550 0.931 . S
N545 Cd542 2.334 . S
N545 C544 1.332 . S
N545 C549 1.328 . S
C546 C547 1.396 . S
C546 C549 1.378 . S
C546 H588 0.931 . S
C547 C546 1.396 . S
C547 C548 1.382 . S
C548 C544 1.381 . S
C548 C547 1.382 . S
C548 H589 0.930 . S
C549 N545 1.328 . S
C549 C546 1.378 . S
C549 H551 0.930 . S
H550 C544 0.931 . S
H551 C549 0.930 . S
C552 O578 1.238 . S
C552 O579 1.253 . S
C553 C554 1.379 . S
C553 N558 1.337 . S
C553 H559 0.929 . S
C554 C553 1.379 . S
C554 C555 1.380 . S
C554 H590 0.929 . S
C555 C554 1.380 . S
C555 C556 1.399 . S
C556 C555 1.399 . S
C556 C557 1.376 . S
C556 H591 0.931 . S
C557 C556 1.376 . S
C557 N558 1.338 . S
C557 H560 0.930 . S
N558 Cd543 2.304 . S
N558 C553 1.337 . S
N558 C557 1.338 . S
H559 C553 0.929 . S
H560 C557 0.930 . S
C561 N562 1.332 . S
C561 C565 1.381 . S
C561 H567 0.931 . S
N562 Cd543 2.334 1_565 S
N562 C561 1.332 . S
N562 C566 1.328 . S
C563 C564 1.396 . S
C563 C566 1.378 . S
C563 H592 0.931 . S
C564 C563 1.396 . S
C564 C565 1.382 . S
C565 C561 1.381 . S
C565 C564 1.382 . S
C565 H593 0.930 . S
C566 N562 1.328 . S
C566 C563 1.378 . S
C566 H568 0.930 . S
H567 C561 0.931 . S
H568 C566 0.930 . S
C569 O580 1.238 . S
C569 O581 1.253 . S
C570 O582 1.239 . S
C570 O583 1.230 . S
N571 Cd542 2.304 1_545 S
N571 C572 1.337 . S
N571 C576 1.338 . S
C572 N571 1.337 . S
C572 C573 1.379 . S
C572 H586 0.929 . S
C573 C572 1.379 . S
C573 C574 1.380 . S
C573 H594 0.929 . S
C574 C573 1.380 . S
C574 C575 1.399 . S
C575 C574 1.399 . S
C575 C576 1.376 . S
C575 H595 0.931 . S
C576 N571 1.338 . S
C576 C575 1.376 . S
C576 H587 0.930 . S
C577 O584 1.239 . S
C577 O585 1.230 . S
O578 Cd542 2.268 . S
O578 C552 1.238 . S
O579 Cd543 2.273 1_565 S
O579 C552 1.253 . S
O580 Cd543 2.268 . S
O580 C569 1.238 . S
O581 Cd542 2.273 1_545 S
O581 C569 1.253 . S
O582 Cd542 2.417 . S
O582 C570 1.239 . S
O583 Cd542 2.330 . S
O583 C570 1.230 . S
O584 Cd543 2.417 . S
O584 C577 1.239 . S
O585 Cd543 2.330 . S
O585 C577 1.230 . S
H586 C572 0.929 . S
H587 C576 0.930 . S
H588 C546 0.931 . S
H589 C548 0.930 . S
H590 C554 0.929 . S
H591 C556 0.931 . S
H592 C563 0.931 . S
H593 C565 0.930 . S
H594 C573 0.929 . S
H595 C575 0.931 . S
C596 C597 1.363 . S
C596 C602 1.379 . S
C596 N604 1.356 . S
C597 C596 1.363 . S
C597 C603 1.363 . S
C598 C599 1.363 . S
C598 C603 1.379 . S
C598 N605 1.356 . S
C599 C598 1.363 . S
C599 C602 1.363 . S
N600 C602 1.356 . S
N600 H612 0.984 . S
N600 H613 0.985 . S
N601 C603 1.356 . S
N601 H606 0.984 . S
N601 H607 0.985 . S
C602 C596 1.379 . S
C602 C599 1.363 . S
C602 N600 1.356 . S
C603 C597 1.363 . S
C603 C598 1.379 . S
C603 N601 1.356 . S
N604 C596 1.356 . S
N604 H610 0.984 . S
N604 H611 0.984 . S
N605 C598 1.356 . S
N605 H608 0.984 . S
N605 H609 0.985 . S
H606 N601 0.984 . S
H607 N601 0.985 . S
H608 N605 0.984 . S
H609 N605 0.985 . S
H610 N604 0.984 . S
H611 N604 0.984 . S
H612 N600 0.984 . S
H613 N600 0.985 . S
C614 C615 1.363 . S
C614 C620 1.379 . S
C614 N622 1.356 . S
C615 C614 1.363 . S
C615 C621 1.363 . S
C616 C617 1.363 . S
C616 C621 1.379 . S
C616 N623 1.356 . S
C617 C616 1.363 . S
C617 C620 1.363 . S
N618 C620 1.356 . S
N618 H630 0.984 . S
N618 H631 0.985 . S
N619 C621 1.356 . S
N619 H624 0.984 . S
N619 H625 0.985 . S
C620 C614 1.379 . S
C620 C617 1.363 . S
C620 N618 1.356 . S
C621 C615 1.363 . S
C621 C616 1.379 . S
C621 N619 1.356 . S
N622 C614 1.356 . S
N622 H628 0.984 . S
N622 H629 0.984 . S
N623 C616 1.356 . S
N623 H626 0.984 . S
N623 H627 0.985 . S
H624 N619 0.984 . S
H625 N619 0.985 . S
H626 N623 0.984 . S
H627 N623 0.985 . S
H628 N622 0.984 . S
H629 N622 0.984 . S
H630 N618 0.984 . S
H631 N618 0.985 . S
C632 C633 1.363 . S
C632 C638 1.379 . S
C632 N640 1.356 . S
C633 C632 1.363 . S
C633 C639 1.363 . S
C634 C635 1.363 . S
C634 C639 1.379 . S
C634 N641 1.356 . S
C635 C634 1.363 . S
C635 C638 1.363 . S
N636 C638 1.356 . S
N636 H648 0.984 1_655 S
N636 H649 0.985 1_655 S
N637 C639 1.356 . S
N637 H642 0.984 . S
N637 H643 0.985 . S
C638 C632 1.379 . S
C638 C635 1.363 . S
C638 N636 1.356 . S
C639 C633 1.363 . S
C639 C634 1.379 . S
C639 N637 1.356 . S
N640 C632 1.356 . S
N640 H646 0.984 . S
N640 H647 0.984 . S
N641 C634 1.356 . S
N641 H644 0.984 . S
N641 H645 0.985 . S
H642 N637 0.984 . S
H643 N637 0.985 . S
H644 N641 0.984 . S
H645 N641 0.985 . S
H646 N640 0.984 . S
H647 N640 0.984 . S
H648 N636 0.984 1_455 S
H649 N636 0.985 1_455 S
C650 C651 1.363 . S
C650 C656 1.379 . S
C650 N658 1.356 . S
C651 C650 1.363 . S
C651 C657 1.363 . S
C652 C653 1.363 . S
C652 C657 1.379 . S
C652 N659 1.356 . S
C653 C652 1.363 . S
C653 C656 1.363 . S
N654 C656 1.356 . S
N654 H666 0.984 . S
N654 H667 0.985 . S
N655 C657 1.356 . S
N655 H660 0.984 . S
N655 H661 0.985 . S
C656 C650 1.379 . S
C656 C653 1.363 . S
C656 N654 1.356 . S
C657 C651 1.363 . S
C657 C652 1.379 . S
C657 N655 1.356 . S
N658 C650 1.356 . S
N658 H664 0.984 . S
N658 H665 0.984 . S
N659 C652 1.356 . S
N659 H662 0.984 . S
N659 H663 0.985 . S
H660 N655 0.984 . S
H661 N655 0.985 . S
H662 N659 0.984 . S
H663 N659 0.985 . S
H664 N658 0.984 . S
H665 N658 0.984 . S
H666 N654 0.984 . S
H667 N654 0.985 . S
C668 C669 1.363 . S
C668 C674 1.379 . S
C668 N676 1.356 . S
C669 C668 1.363 . S
C669 C675 1.363 . S
C670 C671 1.363 . S
C670 C675 1.379 . S
C670 N677 1.356 . S
C671 C670 1.363 . S
C671 C674 1.363 . S
N672 C674 1.356 . S
N672 H684 0.984 . S
N672 H685 0.985 . S
N673 C675 1.356 . S
N673 H678 0.984 . S
N673 H679 0.985 . S
C674 C668 1.379 . S
C674 C671 1.363 . S
C674 N672 1.356 . S
C675 C669 1.363 . S
C675 C670 1.379 . S
C675 N673 1.356 . S
N676 C668 1.356 . S
N676 H682 0.984 . S
N676 H683 0.984 . S
N677 C670 1.356 . S
N677 H680 0.984 . S
N677 H681 0.985 . S
H678 N673 0.984 . S
H679 N673 0.985 . S
H680 N677 0.984 . S
H681 N677 0.985 . S
H682 N676 0.984 . S
H683 N676 0.984 . S
H684 N672 0.984 . S
H685 N672 0.985 . S
C686 C687 1.363 . S
C686 C692 1.379 . S
C686 N694 1.356 . S
C687 C686 1.363 . S
C687 C693 1.363 . S
C688 C689 1.363 . S
C688 C693 1.379 . S
C688 N695 1.356 . S
C689 C688 1.363 . S
C689 C692 1.363 . S
N690 C692 1.356 . S
N690 H702 0.984 . S
N690 H703 0.985 . S
N691 C693 1.356 . S
N691 H696 0.984 . S
N691 H697 0.985 . S
C692 C686 1.379 . S
C692 C689 1.363 . S
C692 N690 1.356 . S
C693 C687 1.363 . S
C693 C688 1.379 . S
C693 N691 1.356 . S
N694 C686 1.356 . S
N694 H700 0.984 . S
N694 H701 0.984 . S
N695 C688 1.356 . S
N695 H698 0.984 . S
N695 H699 0.985 . S
H696 N691 0.984 . S
H697 N691 0.985 . S
H698 N695 0.984 . S
H699 N695 0.985 . S
H700 N694 0.984 . S
H701 N694 0.984 . S
H702 N690 0.984 . S
H703 N690 0.985 . S
C704 C705 1.363 . S
C704 C710 1.379 . S
C704 N712 1.356 . S
C705 C704 1.363 . S
C705 C711 1.363 . S
C706 C707 1.363 . S
C706 C711 1.379 . S
C706 N713 1.356 . S
C707 C706 1.363 . S
C707 C710 1.363 . S
N708 C710 1.356 . S
N708 H720 0.984 . S
N708 H721 0.985 . S
N709 C711 1.356 . S
N709 H714 0.984 . S
N709 H715 0.985 . S
C710 C704 1.379 . S
C710 C707 1.363 . S
C710 N708 1.356 . S
C711 C705 1.363 . S
C711 C706 1.379 . S
C711 N709 1.356 . S
N712 C704 1.356 . S
N712 H718 0.984 . S
N712 H719 0.984 . S
N713 C706 1.356 . S
N713 H716 0.984 . S
N713 H717 0.985 . S
H714 N709 0.984 . S
H715 N709 0.985 . S
H716 N713 0.984 . S
H717 N713 0.985 . S
H718 N712 0.984 . S
H719 N712 0.984 . S
H720 N708 0.984 . S
H721 N708 0.985 . S
C722 C723 1.363 . S
C722 C728 1.379 . S
C722 N730 1.356 . S
C723 C722 1.363 . S
C723 C729 1.363 . S
C724 C725 1.363 . S
C724 C729 1.379 . S
C724 N731 1.356 . S
C725 C724 1.363 . S
C725 C728 1.363 . S
N726 C728 1.356 . S
N726 H738 0.984 . S
N726 H739 0.985 . S
N727 C729 1.356 . S
N727 H732 0.984 . S
N727 H733 0.985 . S
C728 C722 1.379 . S
C728 C725 1.363 . S
C728 N726 1.356 . S
C729 C723 1.363 . S
C729 C724 1.379 . S
C729 N727 1.356 . S
N730 C722 1.356 . S
N730 H736 0.984 . S
N730 H737 0.984 . S
N731 C724 1.356 . S
N731 H734 0.984 . S
N731 H735 0.985 . S
H732 N727 0.984 . S
H733 N727 0.985 . S
H734 N731 0.984 . S
H735 N731 0.985 . S
H736 N730 0.984 . S
H737 N730 0.984 . S
H738 N726 0.984 . S
H739 N726 0.985 . S
C740 C741 1.363 . S
C740 C746 1.379 . S
C740 N748 1.356 . S
C741 C740 1.363 . S
C741 C747 1.363 . S
C742 C743 1.363 . S
C742 C747 1.379 . S
C742 N749 1.356 . S
C743 C742 1.363 . S
C743 C746 1.363 . S
N744 C746 1.356 . S
N744 H756 0.999 . S
N744 H757 0.985 . S
N745 C747 1.356 . S
N745 H750 0.984 . S
N745 H751 0.985 . S
C746 C740 1.379 . S
C746 C743 1.363 . S
C746 N744 1.356 . S
C747 C741 1.363 . S
C747 C742 1.379 . S
C747 N745 1.356 . S
N748 C740 1.356 . S
N748 H754 0.984 . S
N748 H755 0.984 . S
N749 C742 1.356 . S
N749 H752 0.984 . S
N749 H753 0.985 . S
H750 N745 0.984 . S
H751 N745 0.985 . S
H752 N749 0.984 . S
H753 N749 0.985 . S
H754 N748 0.984 . S
H755 N748 0.984 . S
H756 N744 0.999 . S
H757 N744 0.985 . S
C758 C759 1.363 . S
C758 C764 1.379 . S
C758 N766 1.356 . S
C759 C758 1.363 . S
C759 C765 1.363 . S
C760 C761 1.363 . S
C760 C765 1.379 . S
C760 N767 1.356 . S
C761 C760 1.363 . S
C761 C764 1.363 . S
N762 C764 1.356 . S
N762 H774 0.984 . S
N762 H775 0.985 . S
N763 C765 1.356 . S
N763 H768 0.984 . S
N763 H769 0.985 . S
C764 C758 1.379 . S
C764 C761 1.363 . S
C764 N762 1.356 . S
C765 C759 1.363 . S
C765 C760 1.379 . S
C765 N763 1.356 . S
N766 C758 1.356 . S
N766 H772 0.984 . S
N766 H773 0.984 . S
N767 C760 1.356 . S
N767 H770 0.984 . S
N767 H771 0.985 . S
H768 N763 0.984 . S
H769 N763 0.985 . S
H770 N767 0.984 . S
H771 N767 0.985 . S
H772 N766 0.984 . S
H773 N766 0.984 . S
H774 N762 0.984 . S
H775 N762 0.985 . S
C776 C777 1.363 . S
C776 C782 1.379 . S
C776 N784 1.356 . S
C777 C776 1.363 . S
C777 C783 1.363 . S
C778 C779 1.363 . S
C778 C783 1.379 . S
C778 N785 1.356 . S
C779 C778 1.363 . S
C779 C782 1.363 . S
N780 C782 1.356 . S
N780 H792 0.984 . S
N780 H793 0.985 . S
N781 C783 1.356 . S
N781 H786 0.984 . S
N781 H787 0.985 . S
C782 C776 1.379 . S
C782 C779 1.363 . S
C782 N780 1.356 . S
C783 C777 1.363 . S
C783 C778 1.379 . S
C783 N781 1.356 . S
N784 C776 1.356 . S
N784 H790 0.984 . S
N784 H791 0.984 . S
N785 C778 1.356 . S
N785 H788 0.984 . S
N785 H789 0.985 . S
H786 N781 0.984 . S
H787 N781 0.985 . S
H788 N785 0.984 . S
H789 N785 0.985 . S
H790 N784 0.984 . S
H791 N784 0.984 . S
H792 N780 0.984 . S
H793 N780 0.985 . S
C794 C795 1.363 . S
C794 C800 1.379 . S
C794 N802 1.356 . S
C795 C794 1.363 . S
C795 C801 1.363 . S
C796 C797 1.363 . S
C796 C801 1.379 . S
C796 N803 1.356 . S
C797 C796 1.363 . S
C797 C800 1.363 . S
N798 C800 1.356 . S
N798 H810 0.984 . S
N798 H811 0.985 . S
N799 C801 1.356 . S
N799 H804 0.984 . S
N799 H805 0.985 1_554 S
C800 C794 1.379 . S
C800 C797 1.363 . S
C800 N798 1.356 . S
C801 C795 1.363 . S
C801 C796 1.379 . S
C801 N799 1.356 . S
N802 C794 1.356 . S
N802 H808 0.984 . S
N802 H809 0.984 . S
N803 C796 1.356 . S
N803 H806 0.984 . S
N803 H807 0.985 1_554 S
H804 N799 0.984 . S
H805 N799 0.985 1_556 S
H806 N803 0.984 . S
H807 N803 0.985 1_556 S
H808 N802 0.984 . S
H809 N802 0.984 . S
H810 N798 0.984 . S
H811 N798 0.985 . S
C812 C813 1.363 . S
C812 C818 1.379 . S
C812 N820 1.356 . S
C813 C812 1.363 . S
C813 C819 1.363 . S
C814 C815 1.363 . S
C814 C819 1.379 . S
C814 N821 1.356 . S
C815 C814 1.363 . S
C815 C818 1.363 . S
N816 C818 1.356 . S
N816 H828 0.984 . S
N816 H829 0.985 . S
N817 C819 1.356 . S
N817 H822 0.984 . S
N817 H823 0.985 1_556 S
C818 C812 1.379 . S
C818 C815 1.363 . S
C818 N816 1.356 . S
C819 C813 1.363 . S
C819 C814 1.379 . S
C819 N817 1.356 . S
N820 C812 1.356 . S
N820 H826 0.984 . S
N820 H827 0.984 . S
N821 C814 1.356 . S
N821 H824 0.984 . S
N821 H825 0.985 1_556 S
H822 N817 0.984 . S
H823 N817 0.985 1_554 S
H824 N821 0.984 . S
H825 N821 0.985 1_554 S
H826 N820 0.984 . S
H827 N820 0.984 . S
H828 N816 0.984 . S
H829 N816 0.985 . S
C830 C831 1.363 . S
C830 C836 1.379 . S
C830 N838 1.356 . S
C831 C830 1.363 . S
C831 C837 1.363 . S
C832 C833 1.363 . S
C832 C837 1.379 . S
C832 N839 1.356 . S
C833 C832 1.363 . S
C833 C836 1.363 . S
N834 C836 1.356 . S
N834 H846 0.984 . S
N834 H847 0.985 . S
N835 C837 1.356 . S
N835 H840 0.984 . S
N835 H841 0.985 . S
C836 C830 1.379 . S
C836 C833 1.363 . S
C836 N834 1.356 . S
C837 C831 1.363 . S
C837 C832 1.379 . S
C837 N835 1.356 . S
N838 C830 1.356 . S
N838 H844 0.984 . S
N838 H845 0.984 . S
N839 C832 1.356 . S
N839 H842 0.984 . S
N839 H843 0.985 . S
H840 N835 0.984 . S
H841 N835 0.985 . S
H842 N839 0.984 . S
H843 N839 0.985 . S
H844 N838 0.984 . S
H845 N838 0.984 . S
H846 N834 0.984 . S
H847 N834 0.985 . S
C848 C849 1.363 . S
C848 C854 1.379 . S
C848 N856 1.356 . S
C849 C848 1.363 . S
C849 C855 1.363 . S
C850 C851 1.363 . S
C850 C855 1.379 . S
C850 N857 1.356 . S
C851 C850 1.363 . S
C851 C854 1.363 . S
N852 C854 1.356 . S
N852 H864 0.984 . S
N852 H865 0.985 . S
N853 C855 1.356 . S
N853 H858 0.984 . S
N853 H859 0.985 . S
C854 C848 1.379 . S
C854 C851 1.363 . S
C854 N852 1.356 . S
C855 C849 1.363 . S
C855 C850 1.379 . S
C855 N853 1.356 . S
N856 C848 1.356 . S
N856 H862 0.984 . S
N856 H863 0.984 . S
N857 C850 1.356 . S
N857 H860 0.984 . S
N857 H861 0.985 . S
H858 N853 0.984 . S
H859 N853 0.985 . S
H860 N857 0.984 . S
H861 N857 0.985 . S
H862 N856 0.984 . S
H863 N856 0.984 . S
H864 N852 0.984 . S
H865 N852 0.985 . S
C866 C867 1.363 . S
C866 C872 1.379 . S
C866 N874 1.356 . S
C867 C866 1.363 . S
C867 C873 1.363 . S
C868 C869 1.363 . S
C868 C873 1.379 . S
C868 N875 1.356 . S
C869 C868 1.363 . S
C869 C872 1.363 . S
N870 C872 1.356 . S
N870 H882 0.984 . S
N870 H883 0.985 . S
N871 C873 1.356 . S
N871 H876 0.984 . S
N871 H877 0.985 . S
C872 C866 1.379 . S
C872 C869 1.363 . S
C872 N870 1.356 . S
C873 C867 1.363 . S
C873 C868 1.379 . S
C873 N871 1.356 . S
N874 C866 1.356 . S
N874 H880 0.984 . S
N874 H881 0.984 . S
N875 C868 1.356 . S
N875 H878 0.984 . S
N875 H879 0.985 . S
H876 N871 0.984 . S
H877 N871 0.985 . S
H878 N875 0.984 . S
H879 N875 0.985 . S
H880 N874 0.984 . S
H881 N874 0.984 . S
H882 N870 0.984 . S
H883 N870 0.985 . S
C884 C885 1.363 . S
C884 C890 1.379 . S
C884 N892 1.356 . S
C885 C884 1.363 . S
C885 C891 1.363 . S
C886 C887 1.363 . S
C886 C891 1.379 . S
C886 N893 1.356 . S
C887 C886 1.363 . S
C887 C890 1.363 . S
N888 C890 1.356 . S
N888 H900 0.984 . S
N888 H901 0.985 . S
N889 C891 1.356 . S
N889 H894 0.984 . S
N889 H895 0.985 . S
C890 C884 1.379 . S
C890 C887 1.363 . S
C890 N888 1.356 . S
C891 C885 1.363 . S
C891 C886 1.379 . S
C891 N889 1.356 . S
N892 C884 1.356 . S
N892 H898 0.984 . S
N892 H899 0.984 . S
N893 C886 1.356 . S
N893 H896 0.984 . S
N893 H897 0.985 . S
H894 N889 0.984 . S
H895 N889 0.985 . S
H896 N893 0.984 . S
H897 N893 0.985 . S
H898 N892 0.984 . S
H899 N892 0.984 . S
H900 N888 0.984 . S
H901 N888 0.985 . S
C902 C903 1.363 . S
C902 C908 1.379 . S
C902 N910 1.356 . S
C903 C902 1.363 . S
C903 C909 1.363 . S
C904 C905 1.363 . S
C904 C909 1.379 . S
C904 N911 1.356 . S
C905 C904 1.363 . S
C905 C908 1.363 . S
N906 C908 1.356 . S
N906 H918 0.984 . S
N906 H919 0.985 . S
N907 C909 1.356 . S
N907 H912 0.984 . S
N907 H913 0.985 . S
C908 C902 1.379 . S
C908 C905 1.363 . S
C908 N906 1.356 . S
C909 C903 1.363 . S
C909 C904 1.379 . S
C909 N907 1.356 . S
N910 C902 1.356 . S
N910 H916 0.984 . S
N910 H917 0.984 . S
N911 C904 1.356 . S
N911 H914 0.984 . S
N911 H915 0.985 . S
H912 N907 0.984 . S
H913 N907 0.985 . S
H914 N911 0.984 . S
H915 N911 0.985 . S
H916 N910 0.984 . S
H917 N910 0.984 . S
H918 N906 0.984 . S
H919 N906 0.985 . S
C920 C921 1.363 . S
C920 C926 1.379 . S
C920 N928 1.356 . S
C921 C920 1.363 . S
C921 C927 1.363 . S
C922 C923 1.363 . S
C922 C927 1.379 . S
C922 N929 1.356 . S
C923 C922 1.363 . S
C923 C926 1.363 . S
N924 C926 1.356 . S
N924 H936 0.984 . S
N924 H937 0.985 . S
N925 C927 1.356 . S
N925 H930 0.984 . S
N925 H931 0.985 . S
C926 C920 1.379 . S
C926 C923 1.363 . S
C926 N924 1.356 . S
C927 C921 1.363 . S
C927 C922 1.379 . S
C927 N925 1.356 . S
N928 C920 1.356 . S
N928 H934 0.984 . S
N928 H935 0.984 . S
N929 C922 1.356 . S
N929 H932 0.984 . S
N929 H933 0.985 . S
H930 N925 0.984 . S
H931 N925 0.985 . S
H932 N929 0.984 . S
H933 N929 0.985 . S
H934 N928 0.984 . S
H935 N928 0.984 . S
H936 N924 0.984 . S
H937 N924 0.985 . S
C938 C939 1.363 . S
C938 C944 1.379 . S
C938 N946 1.356 . S
C939 C938 1.363 . S
C939 C945 1.363 . S
C940 C941 1.363 . S
C940 C945 1.379 . S
C940 N947 1.356 . S
C941 C940 1.363 . S
C941 C944 1.363 . S
N942 C944 1.356 . S
N942 H954 0.984 . S
N942 H955 0.985 . S
N943 C945 1.356 . S
N943 H948 0.984 . S
N943 H949 0.985 1_556 S
C944 C938 1.379 . S
C944 C941 1.363 . S
C944 N942 1.356 . S
C945 C939 1.363 . S
C945 C940 1.379 . S
C945 N943 1.356 . S
N946 C938 1.356 . S
N946 H952 0.984 . S
N946 H953 0.984 . S
N947 C940 1.356 . S
N947 H950 0.984 . S
N947 H951 0.985 1_556 S
H948 N943 0.984 . S
H949 N943 0.985 1_554 S
H950 N947 0.984 . S
H951 N947 0.985 1_554 S
H952 N946 0.984 . S
H953 N946 0.984 . S
H954 N942 0.984 . S
H955 N942 0.985 . S
C956 C957 1.363 . S
C956 C962 1.379 . S
C956 N964 1.356 . S
C957 C956 1.363 . S
C957 C963 1.363 . S
C958 C959 1.363 . S
C958 C963 1.379 . S
C958 N965 1.356 . S
C959 C958 1.363 . S
C959 C962 1.363 . S
N960 C962 1.356 . S
N960 H972 0.984 . S
N960 H973 0.985 . S
N961 C963 1.356 . S
N961 H966 0.984 . S
N961 H967 0.985 . S
C962 C956 1.379 . S
C962 C959 1.363 . S
C962 N960 1.356 . S
C963 C957 1.363 . S
C963 C958 1.379 . S
C963 N961 1.356 . S
N964 C956 1.356 . S
N964 H970 0.984 . S
N964 H971 0.984 . S
N965 C958 1.356 . S
N965 H968 0.984 . S
N965 H969 0.985 . S
H966 N961 0.984 . S
H967 N961 0.985 . S
H968 N965 0.984 . S
H969 N965 0.985 . S
H970 N964 0.984 . S
H971 N964 0.984 . S
H972 N960 0.984 . S
H973 N960 0.985 . S
C974 C975 1.363 . S
C974 C980 1.379 . S
C974 N982 1.356 . S
C975 C974 1.363 . S
C975 C981 1.363 . S
C976 C977 1.363 . S
C976 C981 1.379 . S
C976 N983 1.356 . S
C977 C976 1.363 . S
C977 C980 1.363 . S
N978 C980 1.356 . S
N978 H990 0.984 . S
N978 H991 0.985 . S
N979 C981 1.356 . S
N979 H984 0.984 . S
N979 H985 0.985 . S
C980 C974 1.379 . S
C980 C977 1.363 . S
C980 N978 1.356 . S
C981 C975 1.363 . S
C981 C976 1.379 . S
C981 N979 1.356 . S
N982 C974 1.356 . S
N982 H988 0.984 . S
N982 H989 0.984 . S
N983 C976 1.356 . S
N983 H986 0.984 . S
N983 H987 0.985 . S
H984 N979 0.984 . S
H985 N979 0.985 . S
H986 N983 0.984 . S
H987 N983 0.985 . S
H988 N982 0.984 . S
H989 N982 0.984 . S
H990 N978 0.984 . S
H991 N978 0.985 . S
C992 C993 1.363 . S
C992 C998 1.379 . S
C992 N1000 1.356 . S
C993 C992 1.363 . S
C993 C999 1.363 . S
C994 C995 1.363 . S
C994 C999 1.379 . S
C994 N1001 1.356 . S
C995 C994 1.363 . S
C995 C998 1.363 . S
N996 C998 1.356 . S
N996 H1008 0.984 . S
N996 H1009 0.985 . S
N997 C999 1.356 . S
N997 H1002 0.984 . S
N997 H1003 0.985 . S
C998 C992 1.379 . S
C998 C995 1.363 . S
C998 N996 1.356 . S
C999 C993 1.363 . S
C999 C994 1.379 . S
C999 N997 1.356 . S
N1000 C992 1.356 . S
N1000 H1006 0.984 . S
N1000 H1007 0.984 . S
N1001 C994 1.356 . S
N1001 H1004 0.984 . S
N1001 H1005 0.985 . S
H1002 N997 0.984 . S
H1003 N997 0.985 . S
H1004 N1001 0.984 . S
H1005 N1001 0.985 . S
H1006 N1000 0.984 . S
H1007 N1000 0.984 . S
H1008 N996 0.984 . S
H1009 N996 0.985 . S
C1010 C1011 1.363 . S
C1010 C1016 1.379 . S
C1010 N1018 1.356 . S
C1011 C1010 1.363 . S
C1011 C1017 1.363 . S
C1012 C1013 1.363 . S
C1012 C1017 1.379 . S
C1012 N1019 1.356 . S
C1013 C1012 1.363 . S
C1013 C1016 1.363 . S
N1014 C1016 1.356 . S
N1014 H1026 0.984 . S
N1014 H1027 0.985 . S
N1015 C1017 1.356 . S
N1015 H1020 0.984 . S
N1015 H1021 0.985 . S
C1016 C1010 1.379 . S
C1016 C1013 1.363 . S
C1016 N1014 1.356 . S
C1017 C1011 1.363 . S
C1017 C1012 1.379 . S
C1017 N1015 1.356 . S
N1018 C1010 1.356 . S
N1018 H1024 0.984 . S
N1018 H1025 0.984 . S
N1019 C1012 1.356 . S
N1019 H1022 0.984 . S
N1019 H1023 0.985 1_554 S
H1020 N1015 0.984 . S
H1021 N1015 0.985 . S
H1022 N1019 0.984 . S
H1023 N1019 0.985 1_556 S
H1024 N1018 0.984 . S
H1025 N1018 0.984 . S
H1026 N1014 0.984 . S
H1027 N1014 0.985 . S
C1028 C1029 1.363 . S
C1028 C1034 1.379 . S
C1028 N1036 1.356 . S
C1029 C1028 1.363 . S
C1029 C1035 1.363 . S
C1030 C1031 1.363 . S
C1030 C1035 1.379 . S
C1030 N1037 1.356 . S
C1031 C1030 1.363 . S
C1031 C1034 1.363 . S
N1032 C1034 1.356 . S
N1032 H1044 0.984 . S
N1032 H1045 0.985 . S
N1033 C1035 1.356 . S
N1033 H1038 0.984 . S
N1033 H1039 0.985 . S
C1034 C1028 1.379 . S
C1034 C1031 1.363 . S
C1034 N1032 1.356 . S
C1035 C1029 1.363 . S
C1035 C1030 1.379 . S
C1035 N1033 1.356 . S
N1036 C1028 1.356 . S
N1036 H1042 0.984 . S
N1036 H1043 0.984 . S
N1037 C1030 1.356 . S
N1037 H1040 0.984 . S
N1037 H1041 0.985 . S
H1038 N1033 0.984 . S
H1039 N1033 0.985 . S
H1040 N1037 0.984 . S
H1041 N1037 0.985 . S
H1042 N1036 0.984 . S
H1043 N1036 0.984 . S
H1044 N1032 0.984 . S
H1045 N1032 0.985 . S
C1046 C1047 1.363 . S
C1046 C1052 1.379 . S
C1046 N1054 1.356 . S
C1047 C1046 1.363 . S
C1047 C1053 1.363 . S
C1048 C1049 1.363 . S
C1048 C1053 1.379 . S
C1048 N1055 1.356 . S
C1049 C1048 1.363 . S
C1049 C1052 1.363 . S
N1050 C1052 1.356 . S
N1050 H1062 0.984 . S
N1050 H1063 0.985 . S
N1051 C1053 1.356 . S
N1051 H1056 0.984 . S
N1051 H1057 0.985 . S
C1052 C1046 1.379 . S
C1052 C1049 1.363 . S
C1052 N1050 1.356 . S
C1053 C1047 1.363 . S
C1053 C1048 1.379 . S
C1053 N1051 1.356 . S
N1054 C1046 1.356 . S
N1054 H1060 0.984 . S
N1054 H1061 0.984 . S
N1055 C1048 1.356 . S
N1055 H1058 0.984 . S
N1055 H1059 0.985 . S
H1056 N1051 0.984 . S
H1057 N1051 0.985 . S
H1058 N1055 0.984 . S
H1059 N1055 0.985 . S
H1060 N1054 0.984 . S
H1061 N1054 0.984 . S
H1062 N1050 0.984 . S
H1063 N1050 0.985 . S
C1064 C1065 1.363 . S
C1064 C1070 1.379 . S
C1064 N1072 1.356 . S
C1065 C1064 1.363 . S
C1065 C1071 1.363 . S
C1066 C1067 1.363 . S
C1066 C1071 1.379 . S
C1066 N1073 1.356 . S
C1067 C1066 1.363 . S
C1067 C1070 1.363 . S
N1068 C1070 1.356 . S
N1068 H1080 0.984 . S
N1068 H1081 0.985 . S
N1069 C1071 1.356 . S
N1069 H1074 0.984 . S
N1069 H1075 0.985 . S
C1070 C1064 1.379 . S
C1070 C1067 1.363 . S
C1070 N1068 1.356 . S
C1071 C1065 1.363 . S
C1071 C1066 1.379 . S
C1071 N1069 1.356 . S
N1072 C1064 1.356 . S
N1072 H1078 0.984 . S
N1072 H1079 0.984 . S
N1073 C1066 1.356 . S
N1073 H1076 0.984 . S
N1073 H1077 0.985 . S
H1074 N1069 0.984 . S
H1075 N1069 0.985 . S
H1076 N1073 0.984 . S
H1077 N1073 0.985 . S
H1078 N1072 0.984 . S
H1079 N1072 0.984 . S
H1080 N1068 0.984 . S
H1081 N1068 0.985 . S
C1082 C1083 1.363 . S
C1082 C1088 1.379 . S
C1082 N1090 1.356 . S
C1083 C1082 1.363 . S
C1083 C1089 1.363 . S
C1084 C1085 1.363 . S
C1084 C1089 1.379 . S
C1084 N1091 1.356 . S
C1085 C1084 1.363 . S
C1085 C1088 1.363 . S
N1086 C1088 1.356 . S
N1086 H1098 0.984 . S
N1086 H1099 0.985 . S
N1087 C1089 1.356 . S
N1087 H1092 0.984 . S
N1087 H1093 0.985 . S
C1088 C1082 1.379 . S
C1088 C1085 1.363 . S
C1088 N1086 1.356 . S
C1089 C1083 1.363 . S
C1089 C1084 1.379 . S
C1089 N1087 1.356 . S
N1090 C1082 1.356 . S
N1090 H1096 0.984 . S
N1090 H1097 0.984 . S
N1091 C1084 1.356 . S
N1091 H1094 0.984 . S
N1091 H1095 0.985 . S
H1092 N1087 0.984 . S
H1093 N1087 0.985 . S
H1094 N1091 0.984 . S
H1095 N1091 0.985 . S
H1096 N1090 0.984 . S
H1097 N1090 0.984 . S
H1098 N1086 0.984 . S
H1099 N1086 0.985 . S
C1100 C1101 1.363 . S
C1100 C1106 1.379 . S
C1100 N1108 1.356 . S
C1101 C1100 1.363 . S
C1101 C1107 1.363 . S
C1102 C1103 1.363 . S
C1102 C1107 1.379 . S
C1102 N1109 1.356 . S
C1103 C1102 1.363 . S
C1103 C1106 1.363 . S
N1104 C1106 1.356 . S
N1104 H1116 0.984 . S
N1104 H1117 0.985 . S
N1105 C1107 1.356 . S
N1105 H1110 0.984 . S
N1105 H1111 0.985 . S
C1106 C1100 1.379 . S
C1106 C1103 1.363 . S
C1106 N1104 1.356 . S
C1107 C1101 1.363 . S
C1107 C1102 1.379 . S
C1107 N1105 1.356 . S
N1108 C1100 1.356 . S
N1108 H1114 0.984 . S
N1108 H1115 0.984 . S
N1109 C1102 1.356 . S
N1109 H1112 0.984 . S
N1109 H1113 0.985 . S
H1110 N1105 0.984 . S
H1111 N1105 0.985 . S
H1112 N1109 0.984 . S
H1113 N1109 0.985 . S
H1114 N1108 0.984 . S
H1115 N1108 0.984 . S
H1116 N1104 0.984 . S
H1117 N1104 0.985 . S
C1118 C1119 1.363 . S
C1118 C1124 1.379 . S
C1118 N1126 1.356 . S
C1119 C1118 1.363 . S
C1119 C1125 1.363 . S
C1120 C1121 1.363 . S
C1120 C1125 1.379 . S
C1120 N1127 1.356 . S
C1121 C1120 1.363 . S
C1121 C1124 1.363 . S
N1122 C1124 1.356 . S
N1122 H1134 0.984 . S
N1122 H1135 0.985 . S
N1123 C1125 1.356 . S
N1123 H1128 0.984 . S
N1123 H1129 0.985 . S
C1124 C1118 1.379 . S
C1124 C1121 1.363 . S
C1124 N1122 1.356 . S
C1125 C1119 1.363 . S
C1125 C1120 1.379 . S
C1125 N1123 1.356 . S
N1126 C1118 1.356 . S
N1126 H1132 0.984 . S
N1126 H1133 0.984 . S
N1127 C1120 1.356 . S
N1127 H1130 0.984 . S
N1127 H1131 0.985 . S
H1128 N1123 0.984 . S
H1129 N1123 0.985 . S
H1130 N1127 0.984 . S
H1131 N1127 0.985 . S
H1132 N1126 0.984 . S
H1133 N1126 0.984 . S
H1134 N1122 0.984 . S
H1135 N1122 0.985 . S
C1136 C1137 1.363 . S
C1136 C1142 1.379 . S
C1136 N1144 1.356 . S
C1137 C1136 1.363 . S
C1137 C1143 1.363 . S
C1138 C1139 1.363 . S
C1138 C1143 1.379 . S
C1138 N1145 1.356 . S
C1139 C1138 1.363 . S
C1139 C1142 1.363 . S
N1140 C1142 1.356 . S
N1140 H1152 0.984 . S
N1140 H1153 0.985 . S
N1141 C1143 1.356 . S
N1141 H1146 0.984 . S
N1141 H1147 0.985 . S
C1142 C1136 1.379 . S
C1142 C1139 1.363 . S
C1142 N1140 1.356 . S
C1143 C1137 1.363 . S
C1143 C1138 1.379 . S
C1143 N1141 1.356 . S
N1144 C1136 1.356 . S
N1144 H1150 0.984 . S
N1144 H1151 0.984 . S
N1145 C1138 1.356 . S
N1145 H1148 0.984 . S
N1145 H1149 0.985 . S
H1146 N1141 0.984 . S
H1147 N1141 0.985 . S
H1148 N1145 0.984 . S
H1149 N1145 0.985 . S
H1150 N1144 0.984 . S
H1151 N1144 0.984 . S
H1152 N1140 0.984 . S
H1153 N1140 0.985 . S
C1154 C1155 1.363 . S
C1154 C1160 1.379 . S
C1154 N1162 1.356 . S
C1155 C1154 1.363 . S
C1155 C1161 1.363 . S
C1156 C1157 1.363 . S
C1156 C1161 1.379 . S
C1156 N1163 1.356 . S
C1157 C1156 1.363 . S
C1157 C1160 1.363 . S
N1158 C1160 1.356 . S
N1158 H1170 0.984 . S
N1158 H1171 0.985 . S
N1159 C1161 1.356 . S
N1159 H1164 0.984 . S
N1159 H1165 0.985 . S
C1160 C1154 1.379 . S
C1160 C1157 1.363 . S
C1160 N1158 1.356 . S
C1161 C1155 1.363 . S
C1161 C1156 1.379 . S
C1161 N1159 1.356 . S
N1162 C1154 1.356 . S
N1162 H1168 0.984 . S
N1162 H1169 0.984 . S
N1163 C1156 1.356 . S
N1163 H1166 0.984 . S
N1163 H1167 0.985 . S
H1164 N1159 0.984 . S
H1165 N1159 0.985 . S
H1166 N1163 0.984 . S
H1167 N1163 0.985 . S
H1168 N1162 0.984 . S
H1169 N1162 0.984 . S
H1170 N1158 0.984 . S
H1171 N1158 0.985 . S
C1172 C1173 1.363 . S
C1172 C1178 1.379 . S
C1172 N1180 1.356 . S
C1173 C1172 1.363 . S
C1173 C1179 1.363 . S
C1174 C1175 1.363 . S
C1174 C1179 1.379 . S
C1174 N1181 1.356 . S
C1175 C1174 1.363 . S
C1175 C1178 1.363 . S
N1176 C1178 1.356 . S
N1176 H1188 0.984 . S
N1176 H1189 0.985 . S
N1177 C1179 1.356 . S
N1177 H1182 0.984 . S
N1177 H1183 0.985 . S
C1178 C1172 1.379 . S
C1178 C1175 1.363 . S
C1178 N1176 1.356 . S
C1179 C1173 1.363 . S
C1179 C1174 1.379 . S
C1179 N1177 1.356 . S
N1180 C1172 1.356 . S
N1180 H1186 0.984 . S
N1180 H1187 0.984 . S
N1181 C1174 1.356 . S
N1181 H1184 0.984 . S
N1181 H1185 0.985 . S
H1182 N1177 0.984 . S
H1183 N1177 0.985 . S
H1184 N1181 0.984 . S
H1185 N1181 0.985 . S
H1186 N1180 0.984 . S
H1187 N1180 0.984 . S
H1188 N1176 0.984 . S
H1189 N1176 0.985 . S
C1190 C1191 1.363 . S
C1190 C1196 1.379 . S
C1190 N1198 1.356 . S
C1191 C1190 1.363 . S
C1191 C1197 1.363 . S
C1192 C1193 1.363 . S
C1192 C1197 1.379 . S
C1192 N1199 1.356 . S
C1193 C1192 1.363 . S
C1193 C1196 1.363 . S
N1194 C1196 1.356 . S
N1194 H1206 0.984 . S
N1194 H1207 0.985 . S
N1195 C1197 1.356 . S
N1195 H1200 0.984 . S
N1195 H1201 0.985 . S
C1196 C1190 1.379 . S
C1196 C1193 1.363 . S
C1196 N1194 1.356 . S
C1197 C1191 1.363 . S
C1197 C1192 1.379 . S
C1197 N1195 1.356 . S
N1198 C1190 1.356 . S
N1198 H1204 0.984 . S
N1198 H1205 0.984 . S
N1199 C1192 1.356 . S
N1199 H1202 0.984 . S
N1199 H1203 0.985 . S
H1200 N1195 0.984 . S
H1201 N1195 0.985 . S
H1202 N1199 0.984 . S
H1203 N1199 0.985 . S
H1204 N1198 0.984 . S
H1205 N1198 0.984 . S
H1206 N1194 0.984 . S
H1207 N1194 0.985 . S
C1208 C1209 1.363 . S
C1208 C1214 1.379 . S
C1208 N1216 1.356 . S
C1209 C1208 1.363 . S
C1209 C1215 1.363 . S
C1210 C1211 1.363 . S
C1210 C1215 1.379 . S
C1210 N1217 1.356 . S
C1211 C1210 1.363 . S
C1211 C1214 1.363 . S
N1212 C1214 1.356 . S
N1212 H1224 0.984 . S
N1212 H1225 0.985 . S
N1213 C1215 1.356 . S
N1213 H1218 0.984 . S
N1213 H1219 0.985 . S
C1214 C1208 1.379 . S
C1214 C1211 1.363 . S
C1214 N1212 1.356 . S
C1215 C1209 1.363 . S
C1215 C1210 1.379 . S
C1215 N1213 1.356 . S
N1216 C1208 1.356 . S
N1216 H1222 0.984 . S
N1216 H1223 0.984 . S
N1217 C1210 1.356 . S
N1217 H1220 0.984 . S
N1217 H1221 0.985 . S
H1218 N1213 0.984 . S
H1219 N1213 0.985 . S
H1220 N1217 0.984 . S
H1221 N1217 0.985 . S
H1222 N1216 0.984 . S
H1223 N1216 0.984 . S
H1224 N1212 0.984 . S
H1225 N1212 0.985 . S
C1226 C1227 1.363 . S
C1226 C1232 1.379 . S
C1226 N1234 1.356 . S
C1227 C1226 1.363 . S
C1227 C1233 1.363 . S
C1228 C1229 1.363 . S
C1228 C1233 1.379 . S
C1228 N1235 1.356 . S
C1229 C1228 1.363 . S
C1229 C1232 1.363 . S
N1230 C1232 1.356 . S
N1230 H1242 0.984 . S
N1230 H1243 0.985 . S
N1231 C1233 1.356 . S
N1231 H1236 0.984 . S
N1231 H1237 0.985 . S
C1232 C1226 1.379 . S
C1232 C1229 1.363 . S
C1232 N1230 1.356 . S
C1233 C1227 1.363 . S
C1233 C1228 1.379 . S
C1233 N1231 1.356 . S
N1234 C1226 1.356 . S
N1234 H1240 0.984 . S
N1234 H1241 0.984 . S
N1235 C1228 1.356 . S
N1235 H1238 0.984 . S
N1235 H1239 0.985 . S
H1236 N1231 0.984 . S
H1237 N1231 0.985 . S
H1238 N1235 0.984 . S
H1239 N1235 0.985 . S
H1240 N1234 0.984 . S
H1241 N1234 0.984 . S
H1242 N1230 0.984 . S
H1243 N1230 0.985 . S
C1244 C1245 1.363 . S
C1244 C1250 1.379 . S
C1244 N1252 1.356 . S
C1245 C1244 1.363 . S
C1245 C1251 1.363 . S
C1246 C1247 1.363 . S
C1246 C1251 1.379 . S
C1246 N1253 1.356 . S
C1247 C1246 1.363 . S
C1247 C1250 1.363 . S
N1248 C1250 1.356 . S
N1248 H1260 0.984 . S
N1248 H1261 0.985 . S
N1249 C1251 1.356 . S
N1249 H1254 0.984 . S
N1249 H1255 0.985 . S
C1250 C1244 1.379 . S
C1250 C1247 1.363 . S
C1250 N1248 1.356 . S
C1251 C1245 1.363 . S
C1251 C1246 1.379 . S
C1251 N1249 1.356 . S
N1252 C1244 1.356 . S
N1252 H1258 0.984 . S
N1252 H1259 0.984 . S
N1253 C1246 1.356 . S
N1253 H1256 0.984 . S
N1253 H1257 0.985 . S
H1254 N1249 0.984 . S
H1255 N1249 0.985 . S
H1256 N1253 0.984 . S
H1257 N1253 0.985 . S
H1258 N1252 0.984 . S
H1259 N1252 0.984 . S
H1260 N1248 0.984 . S
H1261 N1248 0.985 . S
C1262 C1263 1.363 . S
C1262 C1268 1.379 . S
C1262 N1270 1.356 . S
C1263 C1262 1.363 . S
C1263 C1269 1.363 . S
C1264 C1265 1.363 . S
C1264 C1269 1.379 . S
C1264 N1271 1.356 . S
C1265 C1264 1.363 . S
C1265 C1268 1.363 . S
N1266 C1268 1.356 . S
N1266 H1278 0.984 . S
N1266 H1279 0.985 . S
N1267 C1269 1.356 . S
N1267 H1272 0.984 . S
N1267 H1273 0.985 . S
C1268 C1262 1.379 . S
C1268 C1265 1.363 . S
C1268 N1266 1.356 . S
C1269 C1263 1.363 . S
C1269 C1264 1.379 . S
C1269 N1267 1.356 . S
N1270 C1262 1.356 . S
N1270 H1276 0.984 . S
N1270 H1277 0.984 . S
N1271 C1264 1.356 . S
N1271 H1274 0.984 . S
N1271 H1275 0.985 . S
H1272 N1267 0.984 . S
H1273 N1267 0.985 . S
H1274 N1271 0.984 . S
H1275 N1271 0.985 . S
H1276 N1270 0.984 . S
H1277 N1270 0.984 . S
H1278 N1266 0.984 . S
H1279 N1266 0.985 . S
C1280 C1281 1.363 . S
C1280 C1286 1.379 . S
C1280 N1288 1.356 . S
C1281 C1280 1.363 . S
C1281 C1287 1.363 . S
C1282 C1283 1.363 . S
C1282 C1287 1.379 . S
C1282 N1289 1.356 . S
C1283 C1282 1.363 . S
C1283 C1286 1.363 . S
N1284 C1286 1.356 . S
N1284 H1296 0.984 . S
N1284 H1297 0.985 . S
N1285 C1287 1.356 . S
N1285 H1290 0.984 . S
N1285 H1291 0.985 . S
C1286 C1280 1.379 . S
C1286 C1283 1.363 . S
C1286 N1284 1.356 . S
C1287 C1281 1.363 . S
C1287 C1282 1.379 . S
C1287 N1285 1.356 . S
N1288 C1280 1.356 . S
N1288 H1294 0.984 . S
N1288 H1295 0.984 . S
N1289 C1282 1.356 . S
N1289 H1292 0.984 . S
N1289 H1293 0.985 . S
H1290 N1285 0.984 . S
H1291 N1285 0.985 . S
H1292 N1289 0.984 . S
H1293 N1289 0.985 . S
H1294 N1288 0.984 . S
H1295 N1288 0.984 . S
H1296 N1284 0.984 . S
H1297 N1284 0.985 . S
C1298 C1299 1.363 . S
C1298 C1304 1.379 . S
C1298 N1306 1.356 . S
C1299 C1298 1.363 . S
C1299 C1305 1.363 . S
C1300 C1301 1.363 . S
C1300 C1305 1.379 . S
C1300 N1307 1.356 . S
C1301 C1300 1.363 . S
C1301 C1304 1.363 . S
N1302 C1304 1.356 . S
N1302 H1314 0.984 . S
N1302 H1315 0.985 . S
N1303 C1305 1.356 . S
N1303 H1308 0.984 . S
N1303 H1309 0.985 . S
C1304 C1298 1.379 . S
C1304 C1301 1.363 . S
C1304 N1302 1.356 . S
C1305 C1299 1.363 . S
C1305 C1300 1.379 . S
C1305 N1303 1.356 . S
N1306 C1298 1.356 . S
N1306 H1312 0.984 . S
N1306 H1313 0.984 . S
N1307 C1300 1.356 . S
N1307 H1310 0.984 . S
N1307 H1311 0.985 . S
H1308 N1303 0.984 . S
H1309 N1303 0.985 . S
H1310 N1307 0.984 . S
H1311 N1307 0.985 . S
H1312 N1306 0.984 . S
H1313 N1306 0.984 . S
H1314 N1302 0.984 . S
H1315 N1302 0.985 . S
C1316 C1317 1.363 . S
C1316 C1322 1.379 . S
C1316 N1324 1.356 . S
C1317 C1316 1.363 . S
C1317 C1323 1.363 . S
C1318 C1319 1.363 . S
C1318 C1323 1.379 . S
C1318 N1325 1.356 . S
C1319 C1318 1.363 . S
C1319 C1322 1.363 . S
N1320 C1322 1.356 . S
N1320 H1332 0.984 . S
N1320 H1333 0.985 . S
N1321 C1323 1.356 . S
N1321 H1326 0.984 . S
N1321 H1327 0.985 . S
C1322 C1316 1.379 . S
C1322 C1319 1.363 . S
C1322 N1320 1.356 . S
C1323 C1317 1.363 . S
C1323 C1318 1.379 . S
C1323 N1321 1.356 . S
N1324 C1316 1.356 . S
N1324 H1330 0.984 . S
N1324 H1331 0.984 . S
N1325 C1318 1.356 . S
N1325 H1328 0.984 . S
N1325 H1329 0.985 . S
H1326 N1321 0.984 . S
H1327 N1321 0.985 . S
H1328 N1325 0.984 . S
H1329 N1325 0.985 . S
H1330 N1324 0.984 . S
H1331 N1324 0.984 . S
H1332 N1320 0.984 . S
H1333 N1320 0.985 . S
C1334 C1335 1.363 . S
C1334 C1340 1.379 . S
C1334 N1342 1.356 . S
C1335 C1334 1.363 . S
C1335 C1341 1.363 . S
C1336 C1337 1.363 . S
C1336 C1341 1.379 . S
C1336 N1343 1.356 . S
C1337 C1336 1.363 . S
C1337 C1340 1.363 . S
N1338 C1340 1.356 . S
N1338 H1350 0.984 . S
N1338 H1351 0.985 . S
N1339 C1341 1.356 . S
N1339 H1344 0.984 . S
N1339 H1345 0.985 . S
C1340 C1334 1.379 . S
C1340 C1337 1.363 . S
C1340 N1338 1.356 . S
C1341 C1335 1.363 . S
C1341 C1336 1.379 . S
C1341 N1339 1.356 . S
N1342 C1334 1.356 . S
N1342 H1348 0.984 . S
N1342 H1349 0.984 . S
N1343 C1336 1.356 . S
N1343 H1346 0.984 . S
N1343 H1347 0.985 . S
H1344 N1339 0.984 . S
H1345 N1339 0.985 . S
H1346 N1343 0.984 . S
H1347 N1343 0.985 . S
H1348 N1342 0.984 . S
H1349 N1342 0.984 . S
H1350 N1338 0.984 . S
H1351 N1338 0.985 . S
C1352 C1353 1.363 . S
C1352 C1358 1.379 . S
C1352 N1360 1.356 . S
C1353 C1352 1.363 . S
C1353 C1359 1.363 . S
C1354 C1355 1.363 . S
C1354 C1359 1.379 . S
C1354 N1361 1.356 . S
C1355 C1354 1.363 . S
C1355 C1358 1.363 . S
N1356 C1358 1.356 . S
N1356 H1368 0.984 . S
N1356 H1369 0.985 . S
N1357 C1359 1.356 . S
N1357 H1362 0.984 . S
N1357 H1363 0.985 . S
C1358 C1352 1.379 . S
C1358 C1355 1.363 . S
C1358 N1356 1.356 . S
C1359 C1353 1.363 . S
C1359 C1354 1.379 . S
C1359 N1357 1.356 . S
N1360 C1352 1.356 . S
N1360 H1366 0.984 . S
N1360 H1367 0.984 . S
N1361 C1354 1.356 . S
N1361 H1364 0.984 . S
N1361 H1365 0.985 . S
H1362 N1357 0.984 . S
H1363 N1357 0.985 . S
H1364 N1361 0.984 . S
H1365 N1361 0.985 . S
H1366 N1360 0.984 . S
H1367 N1360 0.984 . S
H1368 N1356 0.984 . S
H1369 N1356 0.985 . S
C1370 C1371 1.363 . S
C1370 C1376 1.379 . S
C1370 N1378 1.356 . S
C1371 C1370 1.363 . S
C1371 C1377 1.363 . S
C1372 C1373 1.363 . S
C1372 C1377 1.379 . S
C1372 N1379 1.356 . S
C1373 C1372 1.363 . S
C1373 C1376 1.363 . S
N1374 C1376 1.356 . S
N1374 H1386 0.984 . S
N1374 H1387 0.985 . S
N1375 C1377 1.356 . S
N1375 H1380 0.984 . S
N1375 H1381 0.985 . S
C1376 C1370 1.379 . S
C1376 C1373 1.363 . S
C1376 N1374 1.356 . S
C1377 C1371 1.363 . S
C1377 C1372 1.379 . S
C1377 N1375 1.356 . S
N1378 C1370 1.356 . S
N1378 H1384 0.984 . S
N1378 H1385 0.984 . S
N1379 C1372 1.356 . S
N1379 H1382 0.984 . S
N1379 H1383 0.985 . S
H1380 N1375 0.984 . S
H1381 N1375 0.985 . S
H1382 N1379 0.984 . S
H1383 N1379 0.985 . S
H1384 N1378 0.984 . S
H1385 N1378 0.984 . S
H1386 N1374 0.984 . S
H1387 N1374 0.985 . S
C1388 C1389 1.363 . S
C1388 C1394 1.379 . S
C1388 N1396 1.356 . S
C1389 C1388 1.363 . S
C1389 C1395 1.363 . S
C1390 C1391 1.363 . S
C1390 C1395 1.379 . S
C1390 N1397 1.356 . S
C1391 C1390 1.363 . S
C1391 C1394 1.363 . S
N1392 C1394 1.356 . S
N1392 H1404 0.984 . S
N1392 H1405 0.985 . S
N1393 C1395 1.356 . S
N1393 H1398 0.984 . S
N1393 H1399 0.985 . S
C1394 C1388 1.379 . S
C1394 C1391 1.363 . S
C1394 N1392 1.356 . S
C1395 C1389 1.363 . S
C1395 C1390 1.379 . S
C1395 N1393 1.356 . S
N1396 C1388 1.356 . S
N1396 H1402 0.984 . S
N1396 H1403 0.984 . S
N1397 C1390 1.356 . S
N1397 H1400 0.984 . S
N1397 H1401 0.985 . S
H1398 N1393 0.984 . S
H1399 N1393 0.985 . S
H1400 N1397 0.984 . S
H1401 N1397 0.985 . S
H1402 N1396 0.984 . S
H1403 N1396 0.984 . S
H1404 N1392 0.984 . S
H1405 N1392 0.985 . S
C1406 C1407 1.363 . S
C1406 C1412 1.379 . S
C1406 N1414 1.356 . S
C1407 C1406 1.363 . S
C1407 C1413 1.363 . S
C1408 C1409 1.363 . S
C1408 C1413 1.379 . S
C1408 N1415 1.356 . S
C1409 C1408 1.363 . S
C1409 C1412 1.363 . S
N1410 C1412 1.356 . S
N1410 H1422 0.984 . S
N1410 H1423 0.985 . S
N1411 C1413 1.356 . S
N1411 H1416 0.984 . S
N1411 H1417 0.985 . S
C1412 C1406 1.379 . S
C1412 C1409 1.363 . S
C1412 N1410 1.356 . S
C1413 C1407 1.363 . S
C1413 C1408 1.379 . S
C1413 N1411 1.356 . S
N1414 C1406 1.356 . S
N1414 H1420 0.984 . S
N1414 H1421 0.984 . S
N1415 C1408 1.356 . S
N1415 H1418 0.984 . S
N1415 H1419 0.985 . S
H1416 N1411 0.984 . S
H1417 N1411 0.985 . S
H1418 N1415 0.984 . S
H1419 N1415 0.985 . S
H1420 N1414 0.984 . S
H1421 N1414 0.984 . S
H1422 N1410 0.984 . S
H1423 N1410 0.985 . S
C1424 C1425 1.363 . S
C1424 C1430 1.379 . S
C1424 N1432 1.356 . S
C1425 C1424 1.363 . S
C1425 C1431 1.363 . S
C1426 C1427 1.363 . S
C1426 C1431 1.379 . S
C1426 N1433 1.356 . S
C1427 C1426 1.363 . S
C1427 C1430 1.363 . S
N1428 C1430 1.356 . S
N1428 H1440 0.984 . S
N1428 H1441 0.985 . S
N1429 C1431 1.356 . S
N1429 H1434 0.984 . S
N1429 H1435 0.985 . S
C1430 C1424 1.379 . S
C1430 C1427 1.363 . S
C1430 N1428 1.356 . S
C1431 C1425 1.363 . S
C1431 C1426 1.379 . S
C1431 N1429 1.356 . S
N1432 C1424 1.356 . S
N1432 H1438 0.984 . S
N1432 H1439 0.984 . S
N1433 C1426 1.356 . S
N1433 H1436 0.984 . S
N1433 H1437 0.985 . S
H1434 N1429 0.984 . S
H1435 N1429 0.985 . S
H1436 N1433 0.984 . S
H1437 N1433 0.985 . S
H1438 N1432 0.984 . S
H1439 N1432 0.984 . S
H1440 N1428 0.984 . S
H1441 N1428 0.985 . S
C1442 C1443 1.363 . S
C1442 C1448 1.379 . S
C1442 N1450 1.356 . S
C1443 C1442 1.363 . S
C1443 C1449 1.363 . S
C1444 C1445 1.363 . S
C1444 C1449 1.379 . S
C1444 N1451 1.356 . S
C1445 C1444 1.363 . S
C1445 C1448 1.363 . S
N1446 C1448 1.356 . S
N1446 H1458 0.984 . S
N1446 H1459 0.985 . S
N1447 C1449 1.356 . S
N1447 H1452 0.984 . S
N1447 H1453 0.985 . S
C1448 C1442 1.379 . S
C1448 C1445 1.363 . S
C1448 N1446 1.356 . S
C1449 C1443 1.363 . S
C1449 C1444 1.379 . S
C1449 N1447 1.356 . S
N1450 C1442 1.356 . S
N1450 H1456 0.984 . S
N1450 H1457 0.984 . S
N1451 C1444 1.356 . S
N1451 H1454 0.984 . S
N1451 H1455 0.985 . S
H1452 N1447 0.984 . S
H1453 N1447 0.985 . S
H1454 N1451 0.984 . S
H1455 N1451 0.985 . S
H1456 N1450 0.984 . S
H1457 N1450 0.984 . S
H1458 N1446 0.984 . S
H1459 N1446 0.985 . S
C599 C307 0.125 . S
C597 C4 0.235 . S
C617 C285 1.834 . S
C615 C63 1.965 . S
C635 C282 0.792 . S
C633 C72 0.794 . S
C651 C102 1.953 . S
C653 C294 1.815 . S
C669 C136 1.956 . S
C671 C277 1.819 . S
C689 C299 0.792 . S
C687 C183 0.794 . S
C705 C233 1.962 . S
C707 C304 1.831 . S
C723 C251 0.230 . S
C725 C300 0.127 . S
C743 C358 1.731 . S
C741 C29 1.850 . S
C759 C42 2.028 . S
C761 C408 2.021 . S
C779 C331 1.798 . S
C777 C97 1.896 . S
C797 C407 1.050 . S
C795 C115 0.995 . S
C813 C149 1.001 . S
C815 C336 1.057 . S
C833 C402 1.811 . S
C831 C187 1.914 . S
C849 C212 2.030 . S
C851 C361 2.023 . S
C867 C255 1.862 . S
C869 C393 1.743 . S
C885 C8 1.859 . S
C887 C385 1.738 . S
C903 C153 2.036 . S
C905 C415 2.030 . S
C923 C339 1.823 . S
C921 C170 1.914 . S
C941 C390 1.058 . S
C939 C208 1.002 . S
C957 C238 1.846 . S
C959 C348 1.725 . S
C975 C76 1.931 . S
C977 C412 1.835 . S
C995 C354 2.033 . S
C993 C119 2.038 . S
C1011 C38 1.009 . S
C1013 C353 1.065 . S
C1029 C242 0.235 . S
C1031 C469 0.125 . S
C1047 C165 1.965 . S
C1049 C447 1.834 . S
C1067 C444 0.792 . S
C1065 C174 0.794 . S
C1085 C456 1.815 . S
C1083 C204 1.953 . S
C1101 C34 1.956 . S
C1103 C439 1.819 . S
C1121 C461 0.792 . S
C1119 C81 0.794 . S
C1137 C131 1.962 . S
C1139 C466 1.831 . S
C1155 C13 0.230 . S
C1157 C462 0.127 . S
C1173 C267 1.850 . S
C1175 C520 1.731 . S
C1193 C570 2.021 . S
C1191 C144 2.028 . S
C1209 C199 1.896 . S
C1211 C493 1.798 . S
C1227 C217 0.995 . S
C1229 C569 1.050 . S
C1247 C498 1.057 . S
C1245 C47 1.001 . S
C1263 C85 1.914 . S
C1265 C564 1.811 . S
C1283 C523 2.023 . S
C1281 C110 2.030 . S
C1301 C555 1.743 . S
C1299 C17 1.862 . S
C1319 C547 1.738 . S
C1317 C246 1.859 . S
C1335 C51 2.036 . S
C1337 C577 2.030 . S
C1353 C68 1.914 . S
C1355 C501 1.823 . S
C1373 C552 1.058 . S
C1371 C106 1.002 . S
C1389 C0 1.847 . S
C1391 C510 1.725 . S
C1407 C178 1.932 . S
C1409 C574 1.836 . S
C1427 C516 2.033 . S
C1425 C221 2.038 . S
C1445 C515 1.065 . S
C1443 C140 1.009 . S
