# Generated by pormake.
# Topology nia, (6,6)-cn, num edge types: 1
# Building blocks:
#     Node 0, Type 0, BuildingBlock: KUMBOL_clean_sbu_0, # of connection points: 6
#     Node 1, Type 0, BuildingBlock: KUMBOL_clean_sbu_0, # of connection points: 6
#     Node 2, Type 1, BuildingBlock: MIDCAF_clean_sbu_0, # of connection points: 6
#     Node 3, Type 1, BuildingBlock: MIDCAF_clean_sbu_0, # of connection points: 6
#     Edge 4, Type (0, 1), BuildingBlock: MIFKUJ_clean_linker_0, # of connection points: 2
#     Edge 5, Type (0, 1), BuildingBlock: MIFKUJ_clean_linker_0, # of connection points: 2
#     Edge 6, Type (0, 1), BuildingBlock: MIFKUJ_clean_linker_0, # of connection points: 2
#     Edge 7, Type (0, 1), BuildingBlock: MIFKUJ_clean_linker_0, # of connection points: 2
#     Edge 8, Type (0, 1), BuildingBlock: MIFKUJ_clean_linker_0, # of connection points: 2
#     Edge 9, Type (0, 1), BuildingBlock: MIFKUJ_clean_linker_0, # of connection points: 2
#     Edge 10, Type (0, 1), BuildingBlock: MIFKUJ_clean_linker_0, # of connection points: 2
#     Edge 11, Type (0, 1), BuildingBlock: MIFKUJ_clean_linker_0, # of connection points: 2
#     Edge 12, Type (0, 1), BuildingBlock: MIFKUJ_clean_linker_0, # of connection points: 2
#     Edge 13, Type (0, 1), BuildingBlock: MIFKUJ_clean_linker_0, # of connection points: 2
#     Edge 14, Type (0, 1), BuildingBlock: MIFKUJ_clean_linker_0, # of connection points: 2
#     Edge 15, Type (0, 1), BuildingBlock: MIFKUJ_clean_linker_0, # of connection points: 2
# Relax obj value: 0.166
# Max RMSD: 0.278
# Mean RMSD: 0.202
data_MOF--net-nia--node1-KUMBOL_clean_sbu_0--node2-MIDCAF_clean_sbu_0--edge1-MIFKUJ_clean_linker_0
_symmetry_space_group_name_H-M    P1
_symmetry_Int_Tables_number       1
_symmetry_cell_setting            triclinic
loop_
_symmetry_equiv_pos_as_xyz
'x, y, z'
_cell_length_a     35.495333
_cell_length_b     35.578818
_cell_length_c     41.71867
_cell_angle_alpha  90.262581
_cell_angle_beta   89.785801
_cell_angle_gamma 137.85617
loop_
_atom_site_label
_atom_site_type_symbol
_atom_site_fract_x
_atom_site_fract_y
_atom_site_fract_z
_atom_type_partial_charge
Gd0 Gd 0.98733 0.02635 0.96923 0.0
Gd1 Gd 0.01216 0.98176 0.03907 0.0
C2 C 0.8987 0.89895 0.12721 0.0
C3 C 0.95805 0.97255 0.16735 0.0
C4 C 0.99264 0.98823 0.11312 0.0
C5 C 0.94161 0.93509 0.10429 0.0
C6 C 0.0019 0.00718 0.14491 0.0
C7 C 0.90663 0.91836 0.15856 0.0
C8 C 0.84994 0.84374 0.11826 0.0
C9 C 0.84442 0.82576 0.0871 0.0
N10 N 0.93543 0.91735 0.07387 0.0
C11 C 0.88804 0.86324 0.06513 0.0
H12 H 0.88353 0.84874 0.04119 0.0
C13 C 0.08828 0.06846 0.10011 0.0
N14 N 0.03477 0.01943 0.09122 0.0
C15 C 0.0992 0.08972 0.13112 0.0
C16 C 0.05565 0.05928 0.15353 0.0
H17 H 0.12201 0.0921 0.08281 0.0
H18 H 0.87377 0.89132 0.17638 0.0
H19 H 0.11641 0.16064 0.97134 0.0
H20 H 0.81734 0.81437 0.13559 0.0
H21 H 0.80688 0.78291 0.0801 0.0
H22 H 0.96415 0.98647 0.19185 0.0
H23 H 0.88305 0.91694 0.92333 0.0
H24 H 0.19068 0.20407 0.87862 0.0
H25 H 0.19603 0.22963 0.93494 0.0
H26 H 0.04554 0.03877 0.81619 0.0
H27 H 0.1412 0.12941 0.13777 0.0
H28 H 0.06439 0.07546 0.17766 0.0
H29 H 0.13457 0.13236 0.8346 0.0
H30 H 0.86701 0.88709 0.86672 0.0
N31 N 0.06618 0.09539 0.93644 0.0
C32 C 0.15543 0.17336 0.89455 0.0
C33 C 0.15858 0.18795 0.92631 0.0
C34 C 0.10653 0.11955 0.8836 0.0
C35 C 0.06204 0.08093 0.9054 0.0
C36 C 0.11314 0.1485 0.94693 0.0
N37 N 0.97001 0.99237 0.91662 0.0
C38 C 0.01279 0.02755 0.8953 0.0
C39 C 0.90839 0.92631 0.87453 0.0
C40 C 0.95269 0.96088 0.85265 0.0
C41 C 0.91752 0.94324 0.90648 0.0
C42 C 0.00552 0.01233 0.8628 0.0
H43 H 0.94517 0.94874 0.8277 0.0
O44 O 0.91719 0.01074 0.95728 0.0
O45 O 0.95852 0.98553 0.01676 0.0
O46 O 0.95622 0.91313 1.00078 0.0
O47 O 0.97958 0.96074 0.95308 0.0
O48 O 0.89628 0.95023 0.98422 0.0
O49 O -0.00027 0.09591 0.96436 0.0
O50 O 0.07831 0.99155 0.05205 0.0
O51 O 0.04145 0.02343 0.99194 0.0
O52 O 0.04055 0.0944 0.00792 0.0
O53 O 0.02114 0.04804 0.05545 0.0
O54 O 0.10338 0.05643 0.02407 0.0
O55 O -0.00458 0.90936 0.04031 0.0
C56 C 0.90606 0.94759 0.01339 0.0
C57 C 0.05016 0.05002 0.84118 0.0
C58 C 0.10071 0.10342 0.85161 0.0
C59 C 0.9481 0.06376 0.9552 0.0
C60 C 0.94073 0.08066 0.92574 0.0
C61 C 0.94708 0.06827 0.89562 0.0
C62 C 0.92588 0.10791 0.92733 0.0
C63 C 0.91848 0.12314 0.89886 0.0
C64 C 0.94013 0.0834 0.86753 0.0
C65 C 0.92592 0.11067 0.86905 0.0
C66 C 0.9594 0.91685 0.96901 0.0
C67 C 0.09388 0.06042 0.99523 0.0
C68 C 0.04517 0.93784 0.05129 0.0
C69 C 0.04621 0.91445 0.07988 0.0
C70 C 0.0278 0.91517 0.10939 0.0
C71 C 0.06496 0.89087 0.07801 0.0
C72 C 0.06387 0.86725 0.10554 0.0
C73 C 0.02686 0.89213 0.13661 0.0
C74 C 0.04461 0.86813 0.13475 0.0
C75 C 0.03981 0.09141 0.03969 0.0
H76 H 0.95644 0.04606 0.89354 0.0
H77 H 0.91997 0.11702 0.95044 0.0
H78 H 0.94494 0.07316 0.84451 0.0
H79 H 0.91917 0.1206 0.8468 0.0
H80 H 0.01431 0.93368 0.11151 0.0
H81 H 0.07978 0.89048 0.05539 0.0
H82 H 0.01261 0.89317 0.15923 0.0
H83 H 0.0444 0.85124 0.15639 0.0
Gd84 Gd 0.03497 0.00087 0.48034 0.0
Gd85 Gd 0.9752 0.02423 0.53736 0.0
C86 C 0.11507 0.16468 0.60658 0.0
C87 C 0.10178 0.11211 0.65109 0.0
C88 C 0.03864 0.06338 0.6052 0.0
C89 C 0.06866 0.11405 0.59066 0.0
C90 C 0.05392 0.06199 0.63607 0.0
C91 C 0.13227 0.16334 0.63633 0.0
C92 C 0.14147 0.21525 0.59288 0.0
C93 C 0.11897 0.21437 0.56527 0.0
N94 N 0.05047 0.11392 0.56199 0.0
C95 C 0.07225 0.1632 0.55074 0.0
H96 H 0.05353 0.16415 0.53094 0.0
C97 C 0.95585 0.96612 0.60664 0.0
N98 N 0.99272 0.01554 0.59004 0.0
C99 C 0.96955 0.96236 0.63691 0.0
C100 C 0.01962 0.01037 0.65139 0.0
H101 H 0.91507 0.92914 0.59708 0.0
H102 H 0.16766 0.20185 0.64864 0.0
H103 H 0.91286 0.86378 0.4882 0.0
H104 H 0.17728 0.25493 0.60434 0.0
H105 H 0.13683 0.25307 0.55553 0.0
H106 H 0.1143 0.11172 0.6746 0.0
H107 H 0.13559 0.1033 0.42904 0.0
H108 H 0.83833 0.79686 0.39584 0.0
H109 H 0.83608 0.78411 0.45427 0.0
H110 H 0.97457 0.95171 0.32563 0.0
H111 H 0.94092 0.92258 0.64927 0.0
H112 H 0.03 0.00755 0.675 0.0
H113 H 0.89026 0.85942 0.34823 0.0
H114 H 0.1476 0.12211 0.37088 0.0
N115 N 0.95777 0.9227 0.45005 0.0
C116 C 0.87209 0.83237 0.41078 0.0
C117 C 0.87067 0.82502 0.44372 0.0
C118 C 0.91775 0.88518 0.39739 0.0
C119 C 0.96071 0.93015 0.41786 0.0
C120 C 0.91428 0.87071 0.46303 0.0
N121 N 0.04989 0.02376 0.42529 0.0
C122 C 0.00787 0.98227 0.40516 0.0
C123 C 0.10782 0.08284 0.38017 0.0
C124 C 0.06366 0.04205 0.35937 0.0
C125 C 0.10074 0.07222 0.41306 0.0
C126 C 0.01353 0.99047 0.37166 0.0
H127 H 0.06947 0.04993 0.3338 0.0
O128 O 0.11434 0.02984 0.48101 0.0
O129 O 0.04125 0.02996 0.52954 0.0
O130 O 0.02434 0.09351 0.50013 0.0
O131 O 0.05757 0.075 0.46198 0.0
O132 O 0.11342 0.08376 0.50174 0.0
O133 O 0.0387 0.94305 0.47096 0.0
O134 O 0.88919 0.96392 0.55474 0.0
O135 O 0.95877 0.97795 0.49302 0.0
O136 O -0.00206 0.94272 0.52271 0.0
O137 O 0.9313 0.93549 0.54181 0.0
O138 O 0.93588 0.01783 0.49254 0.0
O139 O 0.94254 0.05351 0.55524 0.0
C140 C 0.09333 0.0753 0.53008 0.0
C141 C 0.9703 0.94622 0.35136 0.0
C142 C 0.9225 0.89373 0.3642 0.0
C143 C 0.09328 0.98247 0.47143 0.0
C144 C 0.12188 0.98501 0.44406 0.0
C145 C 0.1608 0.03372 0.42527 0.0
C146 C 0.11192 0.93942 0.43703 0.0
C147 C 0.13905 0.94208 0.41082 0.0
C148 C 0.18635 0.03577 0.39885 0.0
C149 C 0.17538 0.9902 0.39151 0.0
C150 C 0.05204 0.10531 0.47355 0.0
C151 C 0.93653 0.98732 0.47634 0.0
C152 C 0.89377 0.00286 0.56177 0.0
C153 C 0.84707 0.99032 0.57569 0.0
C154 C 0.79404 0.93439 0.57931 0.0
C155 C 0.85488 0.03373 0.58547 0.0
C156 C 0.80987 0.02125 0.59845 0.0
C157 C 0.74949 0.92186 0.59229 0.0
C158 C 0.7572 0.96483 0.60178 0.0
C159 C 0.95413 0.91853 0.54082 0.0
H160 H 0.17246 0.07083 0.43118 0.0
H161 H 0.0838 0.90243 0.45203 0.0
H162 H 0.2158 0.07336 0.38445 0.0
H163 H 0.19732 0.99356 0.37152 0.0
H164 H 0.78688 0.90021 0.57208 0.0
H165 H 0.89557 0.07705 0.58266 0.0
H166 H 0.70879 0.87862 0.59506 0.0
H167 H 0.722 0.95385 0.61211 0.0
Zn168 Zn 0.36294 0.69308 0.19759 0.0
Zn169 Zn 0.36627 0.68207 0.31578 0.0
Zn170 Zn 0.36464 0.68719 0.25599 0.0
C171 C 0.47164 0.73898 0.29692 0.0
C172 C 0.28337 0.57273 0.29627 0.0
O173 O 0.33004 0.71836 0.24383 0.0
O174 O 0.31424 0.70038 0.1918 0.0
C175 C 0.47399 0.77122 0.21022 0.0
O176 O 0.4523 0.73826 0.27053 0.0
O177 O 0.44016 0.71231 0.32102 0.0
O178 O 0.29845 0.60075 0.32146 0.0
O179 O 0.30653 0.59782 0.2692 0.0
O180 O 0.44253 0.76053 0.1885 0.0
O181 O 0.45247 0.74548 0.23733 0.0
O182 O 0.3121 0.60169 0.23607 0.0
O183 O 0.3336 0.62202 0.18478 0.0
C184 C 0.30962 0.58689 0.20718 0.0
O185 O 0.33477 0.71941 0.27795 0.0
O186 O 0.35929 0.72985 0.32854 0.0
C187 C 0.31061 0.71685 0.21714 0.0
C188 C 0.33924 0.73563 0.30687 0.0
Zn189 Zn 0.64149 0.32612 0.80993 0.0
Zn190 Zn 0.65429 0.33378 0.69247 0.0
Zn191 Zn 0.64321 0.32832 0.75179 0.0
C192 C 0.70138 0.4358 0.70961 0.0
C193 C 0.53955 0.25083 0.70334 0.0
O194 O 0.66981 0.29166 0.77004 0.0
O195 O 0.63759 0.26957 0.8196 0.0
C196 C 0.72554 0.43635 0.79725 0.0
O197 O 0.69551 0.41587 0.73722 0.0
O198 O 0.68231 0.40588 0.68482 0.0
O199 O 0.5744 0.26657 0.68217 0.0
O200 O 0.55705 0.27155 0.73189 0.0
O201 O 0.71286 0.40491 0.81967 0.0
O202 O 0.69994 0.41493 0.77011 0.0
O203 O 0.55527 0.2759 0.76597 0.0
O204 O 0.57139 0.30193 0.81682 0.0
C205 C 0.53827 0.27597 0.79332 0.0
O206 O 0.68133 0.30162 0.7372 0.0
O207 O 0.70652 0.32977 0.68683 0.0
C208 C 0.65953 0.26756 0.79692 0.0
C209 C 0.70646 0.30924 0.71138 0.0
H210 H 0.1655 0.91689 0.0841 0.0
H211 H 0.20922 0.88904 0.09842 0.0
H212 H 0.05422 0.73857 0.14216 0.0
H213 H 0.01041 0.76577 0.12767 0.0
H214 H 0.14929 0.81727 0.18399 0.0
H215 H 0.09817 0.72318 0.08248 0.0
H216 H 0.09639 0.71692 0.02353 0.0
H217 H 0.27637 0.84348 0.02151 0.0
H218 H 0.2793 0.85113 0.08046 0.0
H219 H 0.20301 0.661 0.22422 0.0
H220 H 0.1644 0.69215 0.20457 0.0
H221 H 0.33075 0.85091 0.17755 0.0
H222 H 0.36963 0.82091 0.19872 0.0
H223 H 0.23728 0.77535 0.12645 0.0
H224 H 0.2934 0.8722 0.22384 0.0
H225 H 0.30507 0.89758 0.28072 0.0
H226 H 0.12754 0.78386 0.28961 0.0
H227 H 0.1142 0.75544 0.23311 0.0
C228 C 0.14023 0.87679 0.09555 0.0
C229 C 0.08494 0.84377 0.10524 0.0
C230 C 0.16522 0.86102 0.10378 0.0
C231 C 0.13498 0.81209 0.12162 0.0
C232 C 0.0782 0.77658 0.12851 0.0
C233 C 0.05329 0.79215 0.12025 0.0
C234 C 0.16429 0.80273 0.13798 0.0
C235 C 0.16761 0.80695 0.17152 0.0
C236 C 0.19074 0.79255 0.12134 0.0
C237 C 0.18897 0.78821 0.08589 0.0
C238 C 0.13742 0.75016 0.06946 0.0
C239 C 0.13619 0.74623 0.03604 0.0
C240 C 0.18624 0.77991 0.01878 0.0
C241 C 0.23763 0.8175 0.03491 0.0
C242 C 0.23909 0.82161 0.06833 0.0
C243 C 0.23136 0.70343 0.21548 0.0
C244 C 0.2893 0.73944 0.21391 0.0
C245 C 0.2094 0.72099 0.20407 0.0
C246 C 0.24492 0.77383 0.18978 0.0
C247 C 0.30293 0.81026 0.18884 0.0
C248 C 0.32504 0.79334 0.20115 0.0
C249 C 0.22062 0.78812 0.17261 0.0
C250 C 0.21849 0.78512 0.13897 0.0
C251 C 0.19608 0.8005 0.1891 0.0
C252 C 0.20272 0.81105 0.22419 0.0
C253 C 0.25653 0.85099 0.23811 0.0
C254 C 0.26349 0.86621 0.27027 0.0
C255 C 0.21709 0.84248 0.28863 0.0
C256 C 0.16339 0.80207 0.27529 0.0
C257 C 0.15606 0.78612 0.24325 0.0
H258 H 0.22287 0.85609 0.31303 0.0
H259 H 0.1852 0.77677 0.99291 0.0
H260 H 0.0681 0.0081 0.57814 0.0
H261 H 0.13134 0.03027 0.61892 0.0
H262 H 0.26387 0.19937 0.58332 0.0
H263 H 0.19962 0.17771 0.54314 0.0
H264 H 0.22471 0.06082 0.59924 0.0
H265 H 0.32804 0.26748 0.62495 0.0
H266 H 0.32327 0.32866 0.64644 0.0
H267 H 0.20813 0.20724 0.7193 0.0
H268 H 0.21106 0.14475 0.69749 0.0
H269 H 0.49823 0.21555 0.64274 0.0
H270 H 0.4094 0.17303 0.62304 0.0
H271 H 0.3576 0.16096 0.71971 0.0
H272 H 0.44794 0.20469 0.73966 0.0
H273 H 0.34294 0.20877 0.68254 0.0
H274 H 0.29115 0.04148 0.67395 0.0
H275 H 0.3024 0.98291 0.65958 0.0
H276 H 0.31462 0.02105 0.56006 0.0
H277 H 0.30417 0.08041 0.57383 0.0
C278 C 0.11011 0.05055 0.57974 0.0
C279 C 0.12868 0.09154 0.55789 0.0
C280 C 0.14624 0.06321 0.60311 0.0
C281 C 0.2021 0.11688 0.60478 0.0
C282 C 0.22045 0.15836 0.58344 0.0
C283 C 0.18398 0.14579 0.56019 0.0
C284 C 0.24305 0.12595 0.62443 0.0
C285 C 0.25046 0.09305 0.61756 0.0
C286 C 0.2758 0.16698 0.64879 0.0
C287 C 0.26836 0.20088 0.65902 0.0
C288 C 0.30051 0.25327 0.64497 0.0
C289 C 0.2985 0.28834 0.65736 0.0
C290 C 0.26543 0.27188 0.68423 0.0
C291 C 0.2337 0.21995 0.69848 0.0
C292 C 0.23504 0.18445 0.6859 0.0
C293 C 0.4678 0.20302 0.6601 0.0
C294 C 0.48097 0.2149 0.69297 0.0
C295 C 0.41655 0.17819 0.64868 0.0
C296 C 0.37651 0.16348 0.66982 0.0
C297 C 0.38799 0.17221 0.70288 0.0
C298 C 0.43972 0.19743 0.71433 0.0
C299 C 0.32583 0.14475 0.65672 0.0
C300 C 0.31657 0.17575 0.66468 0.0
C301 C 0.29123 0.10172 0.63341 0.0
C302 C 0.29706 0.0656 0.62497 0.0
C303 C 0.29652 0.03762 0.64902 0.0
C304 C 0.30272 0.00423 0.64097 0.0
C305 C 0.30926 -0.0017 0.60893 0.0
C306 C 0.3095 0.02564 0.58486 0.0
C307 C 0.30331 0.05906 0.59277 0.0
H308 H 0.31411 0.97248 0.60276 0.0
H309 H 0.26428 0.29926 0.69395 0.0
H310 H 0.00617 0.08613 0.09969 0.0
H311 H 0.04596 0.164 0.13457 0.0
H312 H 0.16225 0.28102 0.06001 0.0
H313 H 0.12169 0.20289 0.02445 0.0
H314 H 0.20546 0.29302 0.12854 0.0
H315 H 0.07183 0.2719 0.06876 0.0
H316 H 0.97629 0.21572 0.04966 0.0
H317 H 0.91704 0.17663 0.14683 0.0
H318 H 0.01222 0.23212 0.16648 0.0
H319 H 0.34118 0.55991 0.16248 0.0
H320 H 0.28925 0.46745 0.14284 0.0
H321 H 0.15997 0.39205 0.21342 0.0
H322 H 0.21158 0.48603 0.23246 0.0
H323 H 0.11425 0.34677 0.15654 0.0
H324 H 0.24409 0.37585 0.21837 0.0
H325 H 0.33499 0.42481 0.24176 0.0
H326 H 0.39607 0.43894 0.14847 0.0
H327 H 0.30584 0.39087 0.12439 0.0
C328 C 0.03982 0.12839 0.09052 0.0
C329 C 0.06099 0.13856 0.05933 0.0
C330 C 0.06238 0.17271 0.1105 0.0
C331 C 0.10691 0.22794 0.09979 0.0
C332 C 0.12774 0.23841 0.06855 0.0
C333 C 0.10444 0.19391 0.04827 0.0
C334 C 0.13325 0.27489 0.12169 0.0
C335 C 0.18603 0.30537 0.13449 0.0
C336 C 0.10589 0.28824 0.13089 0.0
C337 C 0.04896 0.25561 0.11906 0.0
C338 C 0.03833 0.25094 0.08604 0.0
C339 C 0.98428 0.21933 0.07512 0.0
C340 C 0.94059 0.19248 0.09702 0.0
C341 C 0.95092 0.1974 0.1299 0.0
C342 C 0.00492 0.22898 0.14093 0.0
C343 C 0.30205 0.52366 0.17416 0.0
C344 C 0.2806 0.53002 0.19921 0.0
C345 C 0.27257 0.4707 0.16308 0.0
C346 C 0.22106 0.42261 0.17694 0.0
C347 C 0.1999 0.4286 0.20255 0.0
C348 C 0.22961 0.48211 0.21367 0.0
C349 C 0.18822 0.36715 0.16239 0.0
C350 C 0.13381 0.33442 0.15109 0.0
C351 C 0.21351 0.35075 0.15525 0.0
C352 C 0.26813 0.3799 0.16953 0.0
C353 C 0.27701 0.38975 0.20278 0.0
C354 C 0.32843 0.4173 0.21617 0.0
C355 C 0.3713 0.43502 0.19661 0.0
C356 C 0.3628 0.42517 0.1636 0.0
C357 C 0.31147 0.39767 0.15006 0.0
H358 H 0.41107 0.45633 0.20703 0.0
H359 H 0.89875 0.16797 0.08853 0.0
H360 H 0.89574 0.11591 0.63372 0.0
H361 H 0.90124 0.18437 0.65502 0.0
H362 H 0.74491 0.09562 0.60821 0.0
H363 H 0.73996 0.02836 0.58641 0.0
H364 H 0.81673 0.2061 0.60357 0.0
H365 H 0.7527 0.07357 0.68756 0.0
H366 H 0.76219 0.02761 0.7251 0.0
H367 H 0.90845 0.18716 0.76655 0.0
H368 H 0.90033 0.23416 0.72885 0.0
H369 H 0.65107 0.20355 0.70035 0.0
H370 H 0.69235 0.17366 0.68427 0.0
H371 H 0.85833 0.3415 0.69945 0.0
H372 H 0.81694 0.37206 0.71421 0.0
H373 H 0.80766 0.21485 0.72178 0.0
H374 H 0.86814 0.34741 0.63902 0.0
H375 H 0.8525 0.38998 0.60344 0.0
H376 H 0.7116 0.22945 0.56062 0.0
H377 H 0.72565 0.18571 0.59657 0.0
C378 C 0.86314 0.1117 0.62755 0.0
C379 C 0.817 0.06632 0.60874 0.0
C380 C 0.86613 0.15059 0.6399 0.0
C381 C 0.82306 0.14468 0.6336 0.0
C382 C 0.77855 0.10099 0.61352 0.0
C383 C 0.7755 0.06225 0.60129 0.0
C384 C 0.82168 0.18139 0.64904 0.0
C385 C 0.81545 0.20849 0.62943 0.0
C386 C 0.82114 0.18567 0.68283 0.0
C387 C 0.8264 0.15743 0.70508 0.0
C388 C 0.78724 0.0989 0.70444 0.0
C389 C 0.79231 0.07266 0.72578 0.0
C390 C 0.83602 0.10447 0.74812 0.0
C391 C 0.87473 0.1626 0.74916 0.0
C392 C 0.86995 0.18905 0.7278 0.0
C393 C 0.69627 0.2336 0.70097 0.0
C394 C 0.73103 0.28977 0.70869 0.0
C395 C 0.71977 0.21665 0.69174 0.0
C396 C 0.77827 0.25554 0.6905 0.0
C397 C 0.8131 0.31106 0.70015 0.0
C398 C 0.78956 0.32835 0.70866 0.0
C399 C 0.80183 0.2383 0.67624 0.0
C400 C 0.81137 0.2143 0.69599 0.0
C401 C 0.80583 0.23711 0.64263 0.0
C402 C 0.7974 0.26319 0.62083 0.0
C403 C 0.83333 0.32107 0.62235 0.0
C404 C 0.82486 0.34544 0.60206 0.0
C405 C 0.78093 0.3124 0.57988 0.0
C406 C 0.74549 0.25495 0.5779 0.0
C407 C 0.75367 0.23035 0.59824 0.0
H408 H 0.77447 0.33135 0.56415 0.0
H409 H 0.83977 0.08406 0.76469 0.0
H410 H 0.92732 -0.00359 0.07131 0.0
H411 H 0.86121 0.96546 0.11264 0.0
H412 H 0.72489 0.82645 0.05282 0.0
H413 H 0.79245 0.85409 0.01277 0.0
H414 H 0.78871 0.96458 0.10467 0.0
H415 H 0.64406 0.74702 0.07959 0.0
H416 H 0.62574 0.66527 0.07641 0.0
H417 H 0.71967 0.71791 0.16297 0.0
H418 H 0.74058 0.80133 0.16572 0.0
H419 H 0.53468 0.84931 0.16337 0.0
H420 H 0.61786 0.88587 0.1376 0.0
H421 H 0.63152 0.81138 0.2111 0.0
H422 H 0.54463 0.77023 0.23539 0.0
H423 H 0.63501 0.78118 0.15797 0.0
H424 H 0.7343 0.96203 0.19652 0.0
H425 H 0.7543 0.04371 0.2073 0.0
H426 H 0.75443 0.06639 0.10629 0.0
H427 H 0.7335 0.98434 0.09489 0.0
C428 C 0.88374 0.95759 0.06758 0.0
C429 C 0.86562 0.92628 0.03939 0.0
C430 C 0.84557 0.9401 0.09122 0.0
C431 C 0.78772 0.89221 0.08664 0.0
C432 C 0.76915 0.86141 0.05806 0.0
C433 C 0.80781 0.87796 0.0348 0.0
C434 C 0.74782 0.88062 0.10953 0.0
C435 C 0.75501 0.92439 0.11632 0.0
C436 C 0.70455 0.82879 0.12538 0.0
C437 C 0.69632 0.78177 0.1219 0.0
C438 C 0.6625 0.74218 0.09724 0.0
C439 C 0.65133 0.69537 0.09564 0.0
C440 C 0.67226 0.68683 0.1192 0.0
C441 C 0.70409 0.72492 0.14449 0.0
C442 C 0.71611 0.77227 0.14587 0.0
C443 C 0.55617 0.8419 0.17462 0.0
C444 C 0.53299 0.80684 0.20154 0.0
C445 C 0.60433 0.86341 0.15994 0.0
C446 C 0.63158 0.85185 0.17237 0.0
C447 C 0.61128 0.82089 0.20096 0.0
C448 C 0.56211 0.79819 0.21529 0.0
C449 C 0.67565 0.86513 0.15306 0.0
C450 C 0.6691 0.82172 0.14674 0.0
C451 C 0.72009 0.91769 0.13804 0.0
C452 C 0.73196 0.96672 0.14487 0.0
C453 C 0.73809 0.98411 0.17661 0.0
C454 C 0.74969 0.03055 0.18282 0.0
C455 C 0.75555 0.06017 0.1575 0.0
C456 C 0.74986 0.04342 0.12589 0.0
C457 C 0.73818 -0.00303 0.11954 0.0
H458 H 0.76459 0.09614 0.16237 0.0
H459 H 0.66326 0.65038 0.11807 0.0
H460 H 0.01383 0.91052 0.57348 0.0
H461 H 0.979 0.83994 0.61281 0.0
H462 H 0.80926 0.7514 0.59465 0.0
H463 H 0.84494 0.82501 0.55723 0.0
H464 H 0.81778 0.74666 0.65412 0.0
H465 H 0.87397 0.71336 0.56229 0.0
H466 H 0.9399 0.73868 0.52117 0.0
H467 H 0.04991 0.77937 0.59479 0.0
H468 H 0.9849 0.75489 0.63634 0.0
H469 H 0.65989 0.46518 0.67898 0.0
H470 H 0.71109 0.55907 0.66225 0.0
H471 H 0.85782 0.62889 0.71295 0.0
H472 H 0.8058 0.53412 0.73026 0.0
H473 H 0.87354 0.65385 0.64648 0.0
H474 H 0.8023 0.6668 0.73763 0.0
H475 H 0.72971 0.63363 0.77602 0.0
H476 H 0.6399 0.62206 0.70025 0.0
H477 H 0.71156 0.65447 0.66129 0.0
C478 C 0.96907 0.87586 0.57784 0.0
C479 C 0.93191 0.87279 0.56219 0.0
C480 C 0.94911 0.83532 0.60025 0.0
C481 C 0.89125 0.78941 0.60634 0.0
C482 C 0.85408 0.7863 0.59048 0.0
C483 C 0.87431 0.82799 0.56888 0.0
C484 C 0.86923 0.74434 0.62893 0.0
C485 C 0.82976 0.72618 0.65224 0.0
C486 C 0.88606 0.71857 0.62738 0.0
C487 C 0.92491 0.7329 0.60239 0.0
C488 C 0.91239 0.72802 0.56969 0.0
C489 C 0.94956 0.74218 0.54631 0.0
C490 C -0.00086 0.76078 0.55536 0.0
C491 C 0.01155 0.76507 0.58781 0.0
C492 C 0.97455 0.75102 0.61128 0.0
C493 C 0.70254 0.5008 0.68737 0.0
C494 C 0.72907 0.49287 0.70592 0.0
C495 C 0.73168 0.55436 0.6779 0.0
C496 C 0.78816 0.60091 0.68644 0.0
C497 C 0.81411 0.59342 0.7063 0.0
C498 C 0.78446 0.53957 0.71627 0.0
C499 C 0.82105 0.65531 0.67076 0.0
C500 C 0.86252 0.67519 0.64872 0.0
C501 C 0.80518 0.68176 0.67303 0.0
C502 C 0.76231 0.66294 0.69649 0.0
C503 C 0.76694 0.65691 0.7291 0.0
C504 C 0.72595 0.63827 0.75098 0.0
C505 C 0.68019 0.62569 0.74058 0.0
C506 C 0.67539 0.63187 0.70828 0.0
C507 C 0.71626 0.6505 0.6863 0.0
H508 H 0.64846 0.6112 0.75754 0.0
H509 H 0.02788 0.77176 0.53723 0.0
H510 H 0.16006 0.90107 0.45281 0.0
H511 H 0.18036 0.85044 0.43887 0.0
H512 H 0.1321 0.83593 0.34101 0.0
H513 H 0.11221 0.88689 0.35479 0.0
H514 H 0.10666 0.74029 0.36545 0.0
H515 H 0.25814 0.94487 0.35561 0.0
H516 H 0.31735 0.03931 0.37792 0.0
H517 H 0.37339 0.00708 0.45263 0.0
H518 H 0.31359 0.91199 0.43105 0.0
H519 H 0.26099 0.72138 0.2766 0.0
H520 H 0.21949 0.74961 0.29547 0.0
H521 H 0.31991 0.81716 0.38142 0.0
H522 H 0.36549 0.79468 0.36069 0.0
H523 H 0.31411 0.88036 0.36744 0.0
H524 H 0.1754 0.68196 0.37532 0.0
H525 H 0.11513 0.58566 0.3561 0.0
H526 H 0.03292 0.60002 0.291 0.0
H527 H 0.09297 0.69651 0.30961 0.0
C528 C 0.15156 0.88499 0.42867 0.0
C529 C 0.13495 0.89809 0.4048 0.0
C530 C 0.16331 0.85627 0.42071 0.0
C531 C 0.15813 0.83992 0.38886 0.0
C532 C 0.1361 0.84798 0.36573 0.0
C533 C 0.12498 0.87724 0.37359 0.0
C534 C 0.18497 0.82421 0.37845 0.0
C535 C 0.15195 0.77065 0.36583 0.0
C536 C 0.24397 0.86366 0.37956 0.0
C537 C 0.281 0.92124 0.39196 0.0
C538 C 0.28282 0.95784 0.37692 0.0
C539 C 0.31648 0.01146 0.38941 0.0
C540 C 0.34902 0.02914 0.41672 0.0
C541 C 0.3481 0.9933 0.43151 0.0
C542 C 0.31433 0.93955 0.41917 0.0
C543 C 0.27609 0.74475 0.29855 0.0
C544 C 0.31748 0.75698 0.31648 0.0
C545 C 0.25113 0.75937 0.30998 0.0
C546 C 0.26539 0.78431 0.34038 0.0
C547 C 0.30783 0.79782 0.35797 0.0
C548 C 0.33379 0.78469 0.34608 0.0
C549 C 0.23603 0.7959 0.35426 0.0
C550 C 0.26869 0.8491 0.3675 0.0
C551 C 0.17661 0.75551 0.3543 0.0
C552 C 0.13933 0.69689 0.34356 0.0
C553 C 0.14469 0.66472 0.35677 0.0
C554 C 0.1105 0.61004 0.34601 0.0
C555 C 0.07037 0.58681 0.32225 0.0
C556 C 0.06414 0.61812 0.30934 0.0
C557 C 0.09825 0.67283 0.32 0.0
H558 H 0.04398 0.54449 0.31392 0.0
H559 H 0.37504 0.07066 0.42637 0.0
H560 H 0.07254 0.01813 0.93493 0.0
H561 H 0.13776 0.05481 0.89198 0.0
H562 H 0.27534 0.1817 0.9561 0.0
H563 H 0.20787 0.15022 0.99762 0.0
H564 H 0.30851 0.22615 0.90454 0.0
H565 H 0.21754 0.04093 0.93154 0.0
H566 H 0.13594 0.93894 0.93989 0.0
H567 H 0.08437 0.91769 0.8424 0.0
H568 H 0.16558 0.0196 0.83353 0.0
H569 H 0.46632 0.18133 0.82734 0.0
H570 H 0.38026 0.13976 0.85293 0.0
H571 H 0.39307 0.25389 0.80144 0.0
H572 H 0.4809 0.29689 0.77654 0.0
H573 H 0.27984 0.08892 0.84016 0.0
H574 H 0.36476 0.30088 0.84616 0.0
H575 H 0.45593 0.40155 0.8458 0.0
H576 H 0.53415 0.36528 0.89189 0.0
H577 H 0.44355 0.26451 0.89226 0.0
C578 C 0.11626 0.05505 0.9396 0.0
C579 C 0.1345 0.08274 0.96918 0.0
C580 C 0.15421 0.07521 0.91513 0.0
C581 C 0.2122 0.12023 0.92064 0.0
C582 C 0.23092 0.14715 0.95076 0.0
C583 C 0.1924 0.1289 0.97466 0.0
C584 C 0.25307 0.1382 0.89549 0.0
C585 C 0.30181 0.1958 0.89057 0.0
C586 C 0.24528 0.09921 0.87691 0.0
C587 C 0.19741 0.03782 0.88195 0.0
C588 C 0.1888 0.01445 0.9119 0.0
C589 C 0.14262 0.95671 0.91672 0.0
C590 C 0.10504 0.92189 0.89168 0.0
C591 C 0.1136 0.94471 0.86174 0.0
C592 C 0.15975 0.00242 0.85678 0.0
C593 C 0.44954 0.19609 0.82066 0.0
C594 C 0.47943 0.24163 0.79983 0.0
C595 C 0.40047 0.17247 0.83533 0.0
C596 C 0.38064 0.19428 0.82956 0.0
C597 C 0.40815 0.23702 0.80666 0.0
C598 C 0.45776 0.26108 0.79214 0.0
C599 C 0.33535 0.17624 0.85026 0.0
C600 C 0.28573 0.11883 0.85405 0.0
C601 C 0.34358 0.21507 0.86903 0.0
C602 C 0.3977 0.27547 0.86909 0.0
C603 C 0.40146 0.31457 0.85627 0.0
C604 C 0.45301 0.37154 0.85597 0.0
C605 C 0.5008 0.38978 0.86878 0.0
C606 C 0.49717 0.3511 0.88189 0.0
C607 C 0.44583 0.29409 0.88205 0.0
H608 H 0.54063 0.43389 0.86857 0.0
H609 H 0.06934 0.87721 0.89548 0.0
H610 H 0.00636 0.14112 0.46497 0.0
H611 H 0.03853 0.2138 0.42794 0.0
H612 H 0.17811 0.24687 0.3999 0.0
H613 H 0.14726 0.17601 0.43758 0.0
H614 H 0.21146 0.34186 0.40841 0.0
H615 H 0.06474 0.17155 0.35049 0.0
H616 H 0.97011 0.07583 0.34135 0.0
H617 H 0.89875 0.133 0.35412 0.0
H618 H 0.99326 0.2293 0.36338 0.0
H619 H 0.29791 0.51109 0.27721 0.0
H620 H 0.24751 0.41949 0.29913 0.0
H621 H 0.13109 0.40801 0.34654 0.0
H622 H 0.182 0.49985 0.32523 0.0
H623 H 0.08481 0.29908 0.3246 0.0
H624 H 0.23413 0.46867 0.38731 0.0
H625 H 0.33035 0.56463 0.3929 0.0
H626 H 0.39772 0.50591 0.36909 0.0
H627 H 0.30172 0.40968 0.36274 0.0
C628 C 0.04425 0.16444 0.45115 0.0
C629 C 0.07385 0.15234 0.45368 0.0
C630 C 0.06222 0.20543 0.42976 0.0
C631 C 0.11009 0.23495 0.41067 0.0
C632 C 0.14072 0.2242 0.4141 0.0
C633 C 0.12275 0.1833 0.4354 0.0
C634 C 0.1289 0.27762 0.38737 0.0
C635 C 0.1839 0.33212 0.38983 0.0
C636 C 0.09288 0.26526 0.3633 0.0
C637 C 0.03598 0.20749 0.35789 0.0
C638 C 0.02883 0.16364 0.35157 0.0
C639 C 0.9752 0.10929 0.34629 0.0
C640 C 0.92833 0.09824 0.34727 0.0
C641 C 0.93508 0.14161 0.3534 0.0
C642 C 0.98869 0.19613 0.35857 0.0
C643 C 0.26007 0.48773 0.29109 0.0
C644 C 0.24361 0.5121 0.29965 0.0
C645 C 0.23143 0.43561 0.30365 0.0
C646 C 0.18599 0.40745 0.32466 0.0
C647 C 0.16588 0.42903 0.33026 0.0
C648 C 0.19499 0.48143 0.31816 0.0
C649 C 0.1671 0.36267 0.34572 0.0
C650 C 0.11222 0.30824 0.34302 0.0
C651 C 0.20326 0.3748 0.36949 0.0
C652 C 0.26087 0.43221 0.37421 0.0
C653 C 0.26948 0.47633 0.38305 0.0
C654 C 0.32395 0.53074 0.38636 0.0
C655 C 0.37014 0.5414 0.38126 0.0
C656 C 0.36191 0.4976 0.37296 0.0
C657 C 0.30749 0.44313 0.3695 0.0
H658 H 0.41229 0.58356 0.38382 0.0
H659 H 0.88678 0.05613 0.34321 0.0
H660 H 0.83241 0.09057 0.93348 0.0
H661 H 0.78712 0.11772 0.92308 0.0
H662 H 0.91443 0.23738 0.85278 0.0
H663 H 0.96092 0.21235 0.86415 0.0
H664 H 0.88111 0.27514 0.88155 0.0
H665 H 0.78865 0.09729 0.83276 0.0
H666 H 0.74026 0.00027 0.83573 0.0
H667 H 0.61309 0.95487 0.896 0.0
H668 H 0.66112 0.05182 0.89364 0.0
H669 H 0.75264 0.30098 0.77375 0.0
H670 H 0.79364 0.27289 0.79363 0.0
H671 H 0.65371 0.15619 0.85841 0.0
H672 H 0.61106 0.18166 0.83704 0.0
H673 H 0.68863 0.11536 0.83835 0.0
H674 H 0.77354 0.28874 0.8828 0.0
H675 H 0.8203 0.38511 0.88055 0.0
H676 H 0.96008 0.43904 0.83084 0.0
H677 H 0.91373 0.34276 0.83237 0.0
C678 C 0.85178 0.12413 0.91674 0.0
C679 C 0.8995 0.14867 0.89915 0.0
C680 C 0.82558 0.13916 0.91054 0.0
C681 C 0.8465 0.17833 0.88644 0.0
C682 C 0.8972 0.20666 0.87123 0.0
C683 C 0.92359 0.19212 0.87762 0.0
C684 C 0.81327 0.18582 0.87423 0.0
C685 C 0.83911 0.24025 0.87202 0.0
C686 C 0.75798 0.14015 0.86238 0.0
C687 C 0.72869 0.08178 0.86327 0.0
C688 C 0.75048 0.06662 0.84673 0.0
C689 C 0.72313 0.01168 0.84831 0.0
C690 C 0.67371 0.97147 0.86611 0.0
C691 C 0.6514 0.98607 0.88227 0.0
C692 C 0.67864 0.04097 0.8808 0.0
C693 C 0.72929 0.26726 0.79088 0.0
C694 C 0.67843 0.24297 0.80348 0.0
C695 C 0.75327 0.25209 0.80282 0.0
C696 C 0.72734 0.21348 0.82809 0.0
C697 C 0.6746 0.18632 0.83907 0.0
C698 C 0.65037 0.20099 0.82688 0.0
C699 C 0.75708 0.20484 0.84492 0.0
C700 C 0.73045 0.15022 0.84811 0.0
C701 C 0.81149 0.2503 0.85787 0.0
C702 C 0.83999 0.30847 0.85749 0.0
C703 C 0.81414 0.32111 0.87126 0.0
C704 C 0.84056 0.3757 0.87011 0.0
C705 C 0.89308 0.41815 0.85551 0.0
C706 C 0.91937 0.40611 0.84212 0.0
C707 C 0.89308 0.35155 0.84315 0.0
H708 H 0.91345 0.46038 0.85461 0.0
H709 H 0.65263 0.92897 0.86734 0.0
H710 H 0.83838 0.87804 0.46786 0.0
H711 H 0.77158 0.83811 0.42406 0.0
H712 H 0.89049 -0.00198 0.37667 0.0
H713 H 0.95844 0.03738 0.41969 0.0
H714 H 0.74369 0.89747 0.41621 0.0
H715 H 0.87528 0.98069 0.32036 0.0
H716 H 0.93935 0.99367 0.28421 0.0
H717 H 0.82916 0.81663 0.28583 0.0
H718 H 0.7654 0.80313 0.32283 0.0
H719 H 0.56325 0.85138 0.30373 0.0
H720 H 0.65568 0.89991 0.32383 0.0
H721 H 0.60291 0.74503 0.31926 0.0
H722 H 0.51022 0.69637 0.3001 0.0
H723 H 0.72257 0.84926 0.3011 0.0
H724 H 0.5824 0.76677 0.38476 0.0
H725 H 0.51171 0.75313 0.41285 0.0
H726 H 0.63609 0.92982 0.43156 0.0
H727 H 0.70732 0.94456 0.40306 0.0
C728 C 0.85156 0.90357 0.44702 0.0
C729 C 0.90437 0.96 0.4464 0.0
C730 C 0.81324 0.88093 0.42212 0.0
C731 C 0.8265 0.91471 0.39653 0.0
C732 C 0.88016 0.9706 0.39529 0.0
C733 C 0.91878 0.99312 0.42005 0.0
C734 C 0.78047 0.89526 0.37607 0.0
C735 C 0.73952 0.88749 0.39095 0.0
C736 C 0.77481 0.88236 0.34311 0.0
C737 C 0.8168 0.89127 0.32519 0.0
C738 C 0.86585 0.94491 0.31391 0.0
C739 C 0.90168 0.95224 0.29294 0.0
C740 C 0.88833 0.90598 0.28271 0.0
C741 C 0.83949 0.85243 0.29379 0.0
C742 C 0.80379 0.845 0.31499 0.0
C743 C 0.57232 0.82838 0.30598 0.0
C744 C 0.53033 0.77052 0.30018 0.0
C745 C 0.62482 0.85593 0.31755 0.0
C746 C 0.63589 0.82591 0.32309 0.0
C747 C 0.59526 0.76893 0.31492 0.0
C748 C 0.54251 0.74124 0.30398 0.0
C749 C 0.68624 0.85152 0.34135 0.0
C750 C 0.72737 0.85996 0.32626 0.0
C751 C 0.69257 0.86577 0.37406 0.0
C752 C 0.64995 0.85684 0.39145 0.0
C753 C 0.59452 0.80276 0.3946 0.0
C754 C 0.55439 0.79481 0.41064 0.0
C755 C 0.56936 0.8406 0.42389 0.0
C756 C 0.62454 0.89441 0.42122 0.0
C757 C 0.6648 0.90258 0.40513 0.0
H758 H 0.53824 0.83438 0.43631 0.0
H759 H 0.91588 0.91166 0.26626 0.0
H760 H 0.01133 0.92501 0.91723 0.0
H761 H 0.97997 0.84973 0.88392 0.0
H762 H 0.83015 0.72904 0.94177 0.0
H763 H 0.86443 0.80476 0.97691 0.0
H764 H 0.85812 0.68597 0.92994 0.0
H765 H 0.83177 0.76812 0.85071 0.0
H766 H 0.85762 0.84015 0.81553 0.0
H767 H 0.00329 0.88746 0.78326 0.0
H768 H 0.97702 0.81427 0.81736 0.0
H769 H 0.71655 0.50295 0.77947 0.0
H770 H 0.76663 0.59301 0.80387 0.0
H771 H 0.87237 0.59384 0.85557 0.0
H772 H 0.82108 0.50302 0.8321 0.0
H773 H 0.86771 0.69683 0.81119 0.0
H774 H 0.88578 0.63197 0.93167 0.0
H775 H 0.84044 0.54559 0.95978 0.0
H776 H 0.68758 0.45226 0.90795 0.0
H777 H 0.73178 0.53817 0.87989 0.0
C778 C 0.97186 0.88235 0.92294 0.0
C779 C 0.94032 0.87048 0.9497 0.0
C780 C 0.9534 0.83921 0.90348 0.0
C781 C 0.90179 0.78334 0.90954 0.0
C782 C 0.8702 0.77163 0.93642 0.0
C783 C 0.88968 0.81476 0.95657 0.0
C784 C 0.88197 0.73692 0.88898 0.0
C785 C 0.86016 0.68864 0.90399 0.0
C786 C 0.88448 0.73954 0.85499 0.0
C787 C 0.90288 0.78645 0.8368 0.0
C788 C 0.86957 0.79433 0.83634 0.0
C789 C 0.88397 0.8349 0.81635 0.0
C790 C 0.93216 0.86847 0.79725 0.0
C791 C 0.96599 0.86144 0.79803 0.0
C792 C 0.95114 0.82016 0.81747 0.0
C793 C 0.75167 0.52335 0.79524 0.0
C794 C 0.7648 0.49615 0.80424 0.0
C795 C 0.78012 0.57464 0.80926 0.0
C796 C 0.82205 0.59919 0.83229 0.0
C797 C 0.83912 0.57482 0.83854 0.0
C798 C 0.81011 0.52323 0.82499 0.0
C799 C 0.84334 0.64639 0.85226 0.0
C800 C 0.86581 0.69465 0.83718 0.0
C801 C 0.83968 0.64299 0.88613 0.0
C802 C 0.8123 0.59138 0.90348 0.0
C803 C 0.84242 0.59305 0.92641 0.0
C804 C 0.81693 0.54417 0.94231 0.0
C805 C 0.76123 0.49344 0.93558 0.0
C806 C 0.73078 0.49153 0.91307 0.0
C807 C 0.75603 0.54029 0.89717 0.0
H808 H 0.74162 0.45564 0.94786 0.0
H809 H 0.94325 0.89989 0.78182 0.0
loop_
_geom_bond_atom_site_label_1
_geom_bond_atom_site_label_2
_geom_bond_distance
_geom_bond_site_symmetry_2
_ccdc_geom_bond_type
Gd0 N31 2.661 1_655 S
Gd0 N37 2.601 . S
Gd0 O44 2.550 1_545 S
Gd0 O45 2.606 1_546 S
Gd0 O47 2.429 1_545 S
Gd0 O48 2.545 1_545 S
Gd0 O49 2.412 . S
Gd0 O51 2.362 1_655 S
Gd0 O52 2.324 1_656 S
Gd0 C59 2.828 . S
Gd1 N10 2.661 1_455 S
Gd1 N14 2.601 . S
Gd1 O45 2.362 1_455 S
Gd1 O46 2.324 1_454 S
Gd1 O50 2.545 1_565 S
Gd1 O51 2.606 1_564 S
Gd1 O53 2.429 1_565 S
Gd1 O54 2.545 1_565 S
Gd1 O55 2.412 . S
Gd1 C68 2.828 . S
C2 C5 1.417 . S
C2 C7 1.431 . S
C2 C8 1.412 . S
C3 C6 1.437 . S
C3 C7 1.317 . S
C3 H22 0.929 . S
C4 C5 1.426 . S
C4 C6 1.413 . S
C4 N14 1.359 1_655 S
C5 C2 1.417 . S
C5 C4 1.426 . S
C5 N10 1.350 . S
C6 C3 1.437 . S
C6 C4 1.413 . S
C6 C16 1.391 1_665 S
C7 C2 1.431 . S
C7 C3 1.317 . S
C7 H18 0.930 . S
C8 C2 1.412 . S
C8 C9 1.355 . S
C8 H20 0.930 . S
C9 C8 1.355 . S
C9 C11 1.402 . S
C9 H21 0.930 . S
N10 Gd1 2.661 1_655 S
N10 C5 1.350 . S
N10 C11 1.307 . S
C11 C9 1.402 . S
C11 N10 1.307 . S
C11 H12 0.930 . S
H12 C11 0.930 . S
C13 N14 1.334 1_545 S
C13 C15 1.394 . S
C13 H17 0.930 . S
N14 Gd1 2.601 . S
N14 C4 1.359 1_455 S
N14 C13 1.334 1_565 S
C15 C13 1.394 . S
C15 C16 1.359 . S
C15 H27 0.930 . S
C16 C6 1.391 1_445 S
C16 C15 1.359 . S
C16 H28 0.929 . S
H17 C13 0.930 . S
H18 C7 0.930 . S
H19 C36 0.930 . S
H20 C8 0.930 . S
H21 C9 0.930 . S
H22 C3 0.929 . S
H23 C41 0.930 . S
H24 C32 0.930 . S
H25 C33 0.930 . S
H26 C57 0.929 . S
H27 C15 0.930 . S
H28 C16 0.929 . S
H29 C58 0.930 . S
H30 C39 0.930 . S
N31 Gd0 2.661 1_455 S
N31 C35 1.350 . S
N31 C36 1.307 . S
C32 H24 0.930 . S
C32 C33 1.355 . S
C32 C34 1.412 . S
C33 H25 0.930 . S
C33 C32 1.355 . S
C33 C36 1.402 . S
C34 C32 1.412 . S
C34 C35 1.417 . S
C34 C58 1.431 . S
C35 N31 1.350 . S
C35 C34 1.417 . S
C35 C38 1.426 . S
C36 H19 0.930 . S
C36 N31 1.307 . S
C36 C33 1.402 . S
N37 Gd0 2.601 . S
N37 C38 1.359 1_655 S
N37 C41 1.334 1_545 S
C38 C35 1.426 . S
C38 N37 1.359 1_455 S
C38 C42 1.413 . S
C39 H30 0.930 . S
C39 C40 1.359 1_565 S
C39 C41 1.394 . S
C40 C39 1.359 1_545 S
C40 C42 1.391 1_655 S
C40 H43 0.929 . S
C41 H23 0.930 . S
C41 N37 1.334 1_565 S
C41 C39 1.394 . S
C42 C38 1.413 . S
C42 C40 1.391 1_455 S
C42 C57 1.437 . S
H43 C40 0.929 . S
O44 Gd0 2.550 1_565 S
O44 C59 1.247 1_565 S
O45 Gd0 2.606 1_564 S
O45 Gd1 2.362 1_655 S
O45 C56 1.284 . S
O46 Gd1 2.324 1_656 S
O46 C66 1.254 . S
O47 Gd0 2.429 1_565 S
O47 C66 1.268 . S
O48 Gd0 2.545 1_565 S
O48 C56 1.250 1_556 S
O49 Gd0 2.412 . S
O49 C59 1.252 . S
O50 Gd1 2.545 1_545 S
O50 C68 1.258 1_545 S
O51 Gd0 2.362 1_455 S
O51 Gd1 2.606 1_546 S
O51 C67 1.284 . S
O52 Gd0 2.324 1_454 S
O52 C75 1.254 . S
O53 Gd1 2.429 1_545 S
O53 C75 1.268 . S
O54 Gd1 2.545 1_545 S
O54 C67 1.250 1_554 S
O55 Gd1 2.412 . S
O55 C68 1.252 . S
C56 O45 1.284 . S
C56 O48 1.250 1_554 S
C57 H26 0.929 . S
C57 C42 1.437 . S
C57 C58 1.317 . S
C58 H29 0.930 . S
C58 C34 1.431 . S
C58 C57 1.317 . S
C59 Gd0 2.828 . S
C59 O44 1.247 1_545 S
C59 O49 1.252 . S
C59 C60 1.497 . S
C60 C59 1.497 . S
C60 C61 1.395 . S
C60 C62 1.380 . S
C61 C60 1.395 . S
C61 C64 1.398 . S
C61 H76 0.930 . S
C62 C60 1.380 . S
C62 C63 1.391 . S
C62 H77 0.930 . S
C63 C62 1.391 . S
C63 C65 1.387 . S
C64 C61 1.398 . S
C64 C65 1.380 . S
C64 H78 0.930 . S
C65 C63 1.387 . S
C65 C64 1.380 . S
C65 H79 0.930 . S
C66 O46 1.254 . S
C66 O47 1.268 . S
C67 O51 1.284 . S
C67 O54 1.250 1_556 S
C68 Gd1 2.828 . S
C68 O50 1.258 1_565 S
C68 O55 1.252 . S
C68 C69 1.497 . S
C69 C68 1.497 . S
C69 C70 1.395 . S
C69 C71 1.380 . S
C70 C69 1.395 . S
C70 C73 1.398 . S
C70 H80 0.930 . S
C71 C69 1.380 . S
C71 C72 1.391 . S
C71 H81 0.930 . S
C72 C71 1.391 . S
C72 C74 1.387 . S
C73 C70 1.398 . S
C73 C74 1.380 . S
C73 H82 0.930 . S
C74 C72 1.387 . S
C74 C73 1.380 . S
C74 H83 0.930 . S
C75 O52 1.254 . S
C75 O53 1.268 . S
H76 C61 0.930 . S
H77 C62 0.930 . S
H78 C64 0.930 . S
H79 C65 0.930 . S
H80 C70 0.930 . S
H81 C71 0.930 . S
H82 C73 0.930 . S
H83 C74 0.930 . S
Gd84 N115 2.666 1_455 S
Gd84 N121 2.597 1_565 S
Gd84 O128 2.554 1_565 S
Gd84 O129 2.600 1_565 S
Gd84 O131 2.410 1_565 S
Gd84 O132 2.550 1_565 S
Gd84 O133 2.433 . S
Gd84 O135 2.347 1_455 S
Gd84 O136 2.333 1_455 S
Gd84 C143 2.845 . S
Gd85 N94 2.661 1_655 S
Gd85 N98 2.601 1_655 S
Gd85 O129 2.362 1_655 S
Gd85 O130 2.324 1_655 S
Gd85 O134 2.545 . S
Gd85 O135 2.606 1_545 S
Gd85 O137 2.429 1_545 S
Gd85 O138 2.545 1_545 S
Gd85 O139 2.412 . S
Gd85 C152 2.828 . S
C86 C89 1.417 . S
C86 C91 1.431 . S
C86 C92 1.412 . S
C87 C90 1.437 . S
C87 C91 1.317 . S
C87 H106 0.929 . S
C88 C89 1.426 . S
C88 C90 1.413 . S
C88 N98 1.359 . S
C89 C86 1.417 . S
C89 C88 1.426 . S
C89 N94 1.350 . S
C90 C87 1.437 . S
C90 C88 1.413 . S
C90 C100 1.391 . S
C91 C86 1.431 . S
C91 C87 1.317 . S
C91 H102 0.930 . S
C92 C86 1.412 . S
C92 C93 1.355 . S
C92 H104 0.930 . S
C93 C92 1.355 . S
C93 C95 1.402 . S
C93 H105 0.930 . S
N94 Gd85 2.661 1_455 S
N94 C89 1.350 . S
N94 C95 1.307 . S
C95 C93 1.402 . S
C95 N94 1.307 . S
C95 H96 0.930 . S
H96 C95 0.930 . S
C97 N98 1.334 1_665 S
C97 C99 1.394 . S
C97 H101 0.930 . S
N98 Gd85 2.601 1_455 S
N98 C88 1.359 . S
N98 C97 1.334 1_445 S
C99 C97 1.394 . S
C99 C100 1.359 1_665 S
C99 H111 0.930 . S
C100 C90 1.391 . S
C100 C99 1.359 1_445 S
C100 H112 0.929 . S
H101 C97 0.930 . S
H102 C91 0.930 . S
H103 C120 0.930 . S
H104 C92 0.930 . S
H105 C93 0.930 . S
H106 C87 0.929 . S
H107 C125 0.930 . S
H108 C116 0.930 . S
H109 C117 0.930 . S
H110 C141 0.929 . S
H111 C99 0.930 . S
H112 C100 0.929 . S
H113 C142 0.930 . S
H114 C123 0.930 . S
N115 Gd84 2.666 1_655 S
N115 C119 1.350 . S
N115 C120 1.307 . S
C116 H108 0.930 . S
C116 C117 1.355 . S
C116 C118 1.412 . S
C117 H109 0.930 . S
C117 C116 1.355 . S
C117 C120 1.402 . S
C118 C116 1.412 . S
C118 C119 1.417 . S
C118 C142 1.431 . S
C119 N115 1.350 . S
C119 C118 1.417 . S
C119 C122 1.426 . S
C120 H103 0.930 . S
C120 N115 1.307 . S
C120 C117 1.402 . S
N121 Gd84 2.597 1_545 S
N121 C122 1.359 1_445 S
N121 C125 1.334 . S
C122 C119 1.426 . S
C122 N121 1.359 1_665 S
C122 C126 1.413 . S
C123 H114 0.930 . S
C123 C124 1.359 . S
C123 C125 1.394 . S
C124 C123 1.359 . S
C124 C126 1.391 1_445 S
C124 H127 0.929 . S
C125 H107 0.930 . S
C125 N121 1.334 . S
C125 C123 1.394 . S
C126 C122 1.413 . S
C126 C124 1.391 1_665 S
C126 C141 1.437 . S
H127 C124 0.929 . S
O128 Gd84 2.554 1_545 S
O128 C143 1.258 1_545 S
O129 Gd84 2.600 1_545 S
O129 Gd85 2.362 1_455 S
O129 C140 1.284 . S
O130 Gd85 2.324 1_455 S
O130 C150 1.254 . S
O131 Gd84 2.410 1_545 S
O131 C150 1.268 . S
O132 Gd84 2.550 1_545 S
O132 C140 1.250 . S
O133 Gd84 2.433 . S
O133 C143 1.252 . S
O134 Gd85 2.545 . S
O134 C152 1.258 . S
O135 Gd84 2.347 1_655 S
O135 Gd85 2.606 1_565 S
O135 C151 1.284 . S
O136 Gd84 2.333 1_655 S
O136 C159 1.254 . S
O137 Gd85 2.429 1_565 S
O137 C159 1.268 . S
O138 Gd85 2.545 1_565 S
O138 C151 1.250 . S
O139 Gd85 2.412 . S
O139 C152 1.252 . S
C140 O129 1.284 . S
C140 O132 1.250 . S
C141 H110 0.929 . S
C141 C126 1.437 . S
C141 C142 1.317 . S
C142 H113 0.930 . S
C142 C118 1.431 . S
C142 C141 1.317 . S
C143 Gd84 2.845 . S
C143 O128 1.258 1_565 S
C143 O133 1.252 . S
C143 C144 1.497 . S
C144 C143 1.497 . S
C144 C145 1.395 . S
C144 C146 1.380 . S
C145 C144 1.395 . S
C145 C148 1.398 . S
C145 H160 0.930 1_565 S
C146 C144 1.380 . S
C146 C147 1.391 . S
C146 H161 0.930 . S
C147 C146 1.391 . S
C147 C149 1.387 . S
C148 C145 1.398 . S
C148 C149 1.380 . S
C148 H162 0.930 . S
C149 C147 1.387 . S
C149 C148 1.380 . S
C149 H163 0.930 . S
C150 O130 1.254 . S
C150 O131 1.268 . S
C151 O135 1.284 . S
C151 O138 1.250 . S
C152 Gd85 2.828 . S
C152 O134 1.258 . S
C152 O139 1.252 . S
C152 C153 1.497 . S
C153 C152 1.497 . S
C153 C154 1.395 . S
C153 C155 1.380 . S
C154 C153 1.395 . S
C154 C157 1.398 . S
C154 H164 0.930 . S
C155 C153 1.380 . S
C155 C156 1.391 . S
C155 H165 0.930 . S
C156 C155 1.391 . S
C156 C158 1.387 . S
C157 C154 1.398 . S
C157 C158 1.380 . S
C157 H166 0.930 . S
C158 C156 1.387 . S
C158 C157 1.380 . S
C158 H167 0.930 . S
C159 O136 1.254 . S
C159 O137 1.268 . S
H160 C145 0.930 1_545 S
H161 C146 0.930 . S
H162 C148 0.930 . S
H163 C149 0.930 . S
H164 C154 0.930 . S
H165 C155 0.930 . S
H166 C157 0.930 . S
H167 C158 0.930 . S
Zn168 O174 1.920 . S
Zn168 O180 1.898 . S
Zn168 O183 1.905 . S
Zn169 O177 1.905 . S
Zn169 O178 1.898 . S
Zn169 O186 1.920 . S
Zn170 O173 2.080 . S
Zn170 O176 2.114 . S
Zn170 O179 2.120 . S
Zn170 O181 2.120 . S
Zn170 O182 2.114 . S
Zn170 O185 2.080 . S
C171 O176 1.166 . S
C171 O177 1.182 . S
C172 O178 1.167 . S
C172 O179 1.299 . S
O173 Zn170 2.080 . S
O173 C187 1.305 . S
O174 Zn168 1.920 . S
O174 C187 1.234 . S
C175 O180 1.167 . S
C175 O181 1.299 . S
O176 Zn170 2.114 . S
O176 C171 1.166 . S
O177 Zn169 1.905 . S
O177 C171 1.182 . S
O178 Zn169 1.898 . S
O178 C172 1.167 . S
O179 Zn170 2.120 . S
O179 C172 1.299 . S
O180 Zn168 1.898 . S
O180 C175 1.167 . S
O181 Zn170 2.120 . S
O181 C175 1.299 . S
O182 Zn170 2.114 . S
O182 C184 1.166 . S
O183 Zn168 1.905 . S
O183 C184 1.182 . S
C184 O182 1.166 . S
C184 O183 1.182 . S
O185 Zn170 2.080 . S
O185 C188 1.305 . S
O186 Zn169 1.920 . S
O186 C188 1.234 . S
C187 O173 1.305 . S
C187 O174 1.234 . S
C188 O185 1.305 . S
C188 O186 1.234 . S
Zn189 O195 1.920 . S
Zn189 O201 1.898 . S
Zn189 O204 1.905 . S
Zn190 O198 1.905 . S
Zn190 O199 1.898 . S
Zn190 O207 1.920 . S
Zn191 O194 2.080 . S
Zn191 O197 2.114 . S
Zn191 O200 2.120 . S
Zn191 O202 2.120 . S
Zn191 O203 2.114 . S
Zn191 O206 2.080 . S
C192 O197 1.166 . S
C192 O198 1.182 . S
C193 O199 1.167 . S
C193 O200 1.299 . S
O194 Zn191 2.080 . S
O194 C208 1.305 . S
O195 Zn189 1.920 . S
O195 C208 1.234 . S
C196 O201 1.167 . S
C196 O202 1.299 . S
O197 Zn191 2.114 . S
O197 C192 1.166 . S
O198 Zn190 1.905 . S
O198 C192 1.182 . S
O199 Zn190 1.898 . S
O199 C193 1.167 . S
O200 Zn191 2.120 . S
O200 C193 1.299 . S
O201 Zn189 1.898 . S
O201 C196 1.167 . S
O202 Zn191 2.120 . S
O202 C196 1.299 . S
O203 Zn191 2.114 . S
O203 C205 1.166 . S
O204 Zn189 1.905 . S
O204 C205 1.182 . S
C205 O203 1.166 . S
C205 O204 1.182 . S
O206 Zn191 2.080 . S
O206 C209 1.305 . S
O207 Zn190 1.920 . S
O207 C209 1.234 . S
C208 O194 1.305 . S
C208 O195 1.234 . S
C209 O206 1.305 . S
C209 O207 1.234 . S
H210 C228 0.951 . S
H211 C230 0.951 . S
H212 C232 0.950 . S
H213 C233 0.950 . S
H214 C235 0.950 . S
H215 C238 0.950 . S
H216 C239 0.950 . S
H217 C241 0.950 . S
H218 C242 0.950 . S
H219 C243 0.951 . S
H220 C245 0.951 . S
H221 C247 0.950 . S
H222 C248 0.950 . S
H223 C250 0.950 . S
H224 C253 0.950 . S
H225 C254 0.950 . S
H226 C256 0.950 . S
H227 C257 0.950 . S
C228 H210 0.951 . S
C228 C229 1.366 . S
C228 C230 1.388 . S
C229 C228 1.366 . S
C229 C233 1.385 . S
C230 H211 0.951 . S
C230 C228 1.388 . S
C230 C231 1.366 . S
C231 C230 1.366 . S
C231 C232 1.414 . S
C231 C234 1.499 . S
C232 H212 0.950 . S
C232 C231 1.414 . S
C232 C233 1.374 . S
C233 H213 0.950 . S
C233 C229 1.385 . S
C233 C232 1.374 . S
C234 C231 1.499 . S
C234 C235 1.373 . S
C234 C236 1.389 . S
C235 H214 0.950 . S
C235 C234 1.373 . S
C235 C251 1.377 . S
C236 C234 1.389 . S
C236 C237 1.524 . S
C236 C250 1.377 . S
C237 C236 1.524 . S
C237 C238 1.397 . S
C237 C242 1.363 . S
C238 H215 0.950 . S
C238 C237 1.397 . S
C238 C239 1.334 . S
C239 H216 0.950 . S
C239 C238 1.334 . S
C239 C240 1.304 . S
C240 C239 1.304 . S
C240 C241 1.540 . S
C240 H259 0.876 1_554 S
C241 H217 0.950 . S
C241 C240 1.540 . S
C241 C242 1.415 . S
C242 H218 0.950 . S
C242 C237 1.363 . S
C242 C241 1.415 . S
C243 H219 0.951 . S
C243 C244 1.366 . S
C243 C245 1.388 . S
C244 C243 1.366 . S
C244 C248 1.385 . S
C245 H220 0.951 . S
C245 C243 1.388 . S
C245 C246 1.366 . S
C246 C245 1.366 . S
C246 C247 1.414 . S
C246 C249 1.499 . S
C247 H221 0.950 . S
C247 C246 1.414 . S
C247 C248 1.374 . S
C248 H222 0.950 . S
C248 C244 1.385 . S
C248 C247 1.374 . S
C249 C246 1.499 . S
C249 C250 1.373 . S
C249 C251 1.389 . S
C250 H223 0.950 . S
C250 C236 1.377 . S
C250 C249 1.373 . S
C251 C235 1.377 . S
C251 C249 1.389 . S
C251 C252 1.524 . S
C252 C251 1.524 . S
C252 C253 1.397 . S
C252 C257 1.363 . S
C253 H224 0.950 . S
C253 C252 1.397 . S
C253 C254 1.334 . S
C254 H225 0.950 . S
C254 C253 1.334 . S
C254 C255 1.287 . S
C255 C254 1.287 . S
C255 C256 1.524 . S
C255 H258 0.999 . S
C256 H226 0.950 . S
C256 C255 1.524 . S
C256 C257 1.415 . S
C257 H227 0.950 . S
C257 C252 1.363 . S
C257 C256 1.415 . S
H258 C255 0.999 . S
H259 C240 0.876 1_556 S
H260 C278 0.951 . S
H261 C280 0.951 . S
H262 C282 0.950 . S
H263 C283 0.950 . S
H264 C285 0.950 . S
H265 C288 0.950 . S
H266 C289 0.950 . S
H267 C291 0.950 . S
H268 C292 0.950 . S
H269 C293 0.951 . S
H270 C295 0.951 . S
H271 C297 0.950 . S
H272 C298 0.950 . S
H273 C300 0.950 . S
H274 C303 0.950 . S
H275 C304 0.950 . S
H276 C306 0.950 . S
H277 C307 0.950 . S
C278 H260 0.951 . S
C278 C279 1.366 . S
C278 C280 1.388 . S
C279 C278 1.366 . S
C279 C283 1.385 . S
C280 H261 0.951 . S
C280 C278 1.388 . S
C280 C281 1.366 . S
C281 C280 1.366 . S
C281 C282 1.414 . S
C281 C284 1.499 . S
C282 H262 0.950 . S
C282 C281 1.414 . S
C282 C283 1.374 . S
C283 H263 0.950 . S
C283 C279 1.385 . S
C283 C282 1.374 . S
C284 C281 1.499 . S
C284 C285 1.373 . S
C284 C286 1.389 . S
C285 H264 0.950 . S
C285 C284 1.373 . S
C285 C301 1.377 . S
C286 C284 1.389 . S
C286 C287 1.524 . S
C286 C300 1.377 . S
C287 C286 1.524 . S
C287 C288 1.397 . S
C287 C292 1.363 . S
C288 H265 0.950 . S
C288 C287 1.397 . S
C288 C289 1.334 . S
C289 H266 0.950 . S
C289 C288 1.334 . S
C289 C290 1.287 . S
C290 C289 1.287 . S
C290 C291 1.524 . S
C290 H309 0.913 . S
C291 H267 0.950 . S
C291 C290 1.524 . S
C291 C292 1.415 . S
C292 H268 0.950 . S
C292 C287 1.363 . S
C292 C291 1.415 . S
C293 H269 0.951 . S
C293 C294 1.366 . S
C293 C295 1.388 . S
C294 C293 1.366 . S
C294 C298 1.385 . S
C295 H270 0.951 . S
C295 C293 1.388 . S
C295 C296 1.366 . S
C296 C295 1.366 . S
C296 C297 1.414 . S
C296 C299 1.499 . S
C297 H271 0.950 . S
C297 C296 1.414 . S
C297 C298 1.374 . S
C298 H272 0.950 . S
C298 C294 1.385 . S
C298 C297 1.374 . S
C299 C296 1.499 . S
C299 C300 1.373 . S
C299 C301 1.389 . S
C300 H273 0.950 . S
C300 C286 1.377 . S
C300 C299 1.373 . S
C301 C285 1.377 . S
C301 C299 1.389 . S
C301 C302 1.524 . S
C302 C301 1.524 . S
C302 C303 1.397 . S
C302 C307 1.363 . S
C303 H274 0.950 . S
C303 C302 1.397 . S
C303 C304 1.334 . S
C304 H275 0.950 . S
C304 C303 1.334 . S
C304 C305 1.287 . S
C305 C304 1.287 . S
C305 C306 1.524 . S
C305 H308 0.999 . S
C306 H276 0.950 . S
C306 C305 1.524 . S
C306 C307 1.415 . S
C307 H277 0.950 . S
C307 C302 1.363 . S
C307 C306 1.415 . S
H308 C305 0.999 . S
H309 C290 0.913 . S
H310 C328 0.951 . S
H311 C330 0.951 . S
H312 C332 0.950 . S
H313 C333 0.950 . S
H314 C335 0.950 . S
H315 C338 0.950 . S
H316 C339 0.950 . S
H317 C341 0.950 . S
H318 C342 0.950 . S
H319 C343 0.951 . S
H320 C345 0.951 . S
H321 C347 0.950 . S
H322 C348 0.950 . S
H323 C350 0.950 . S
H324 C353 0.950 . S
H325 C354 0.950 . S
H326 C356 0.950 . S
H327 C357 0.950 . S
C328 H310 0.951 . S
C328 C329 1.366 . S
C328 C330 1.388 . S
C329 C328 1.366 . S
C329 C333 1.385 . S
C330 H311 0.951 . S
C330 C328 1.388 . S
C330 C331 1.366 . S
C331 C330 1.366 . S
C331 C332 1.414 . S
C331 C334 1.499 . S
C332 H312 0.950 . S
C332 C331 1.414 . S
C332 C333 1.374 . S
C333 H313 0.950 . S
C333 C329 1.385 . S
C333 C332 1.374 . S
C334 C331 1.499 . S
C334 C335 1.373 . S
C334 C336 1.389 . S
C335 H314 0.950 . S
C335 C334 1.373 . S
C335 C351 1.377 . S
C336 C334 1.389 . S
C336 C337 1.524 . S
C336 C350 1.377 . S
C337 C336 1.524 . S
C337 C338 1.397 . S
C337 C342 1.363 . S
C338 H315 0.950 . S
C338 C337 1.397 . S
C338 C339 1.334 . S
C339 H316 0.950 . S
C339 C338 1.334 . S
C339 C340 1.287 1_455 S
C340 C339 1.287 1_655 S
C340 C341 1.524 . S
C340 H359 0.913 . S
C341 H317 0.950 . S
C341 C340 1.524 . S
C341 C342 1.415 1_655 S
C342 H318 0.950 . S
C342 C337 1.363 . S
C342 C341 1.415 1_455 S
C343 H319 0.951 . S
C343 C344 1.366 . S
C343 C345 1.388 . S
C344 C343 1.366 . S
C344 C348 1.385 . S
C345 H320 0.951 . S
C345 C343 1.388 . S
C345 C346 1.366 . S
C346 C345 1.366 . S
C346 C347 1.414 . S
C346 C349 1.499 . S
C347 H321 0.950 . S
C347 C346 1.414 . S
C347 C348 1.374 . S
C348 H322 0.950 . S
C348 C344 1.385 . S
C348 C347 1.374 . S
C349 C346 1.499 . S
C349 C350 1.373 . S
C349 C351 1.389 . S
C350 H323 0.950 . S
C350 C336 1.377 . S
C350 C349 1.373 . S
C351 C335 1.377 . S
C351 C349 1.389 . S
C351 C352 1.524 . S
C352 C351 1.524 . S
C352 C353 1.397 . S
C352 C357 1.363 . S
C353 H324 0.950 . S
C353 C352 1.397 . S
C353 C354 1.334 . S
C354 H325 0.950 . S
C354 C353 1.334 . S
C354 C355 1.287 . S
C355 C354 1.287 . S
C355 C356 1.524 . S
C355 H358 0.999 . S
C356 H326 0.950 . S
C356 C355 1.524 . S
C356 C357 1.415 . S
C357 H327 0.950 . S
C357 C352 1.363 . S
C357 C356 1.415 . S
H358 C355 0.999 . S
H359 C340 0.913 . S
H360 C378 0.951 . S
H361 C380 0.951 . S
H362 C382 0.950 . S
H363 C383 0.950 . S
H364 C385 0.950 . S
H365 C388 0.950 . S
H366 C389 0.950 . S
H367 C391 0.950 . S
H368 C392 0.950 . S
H369 C393 0.951 . S
H370 C395 0.951 . S
H371 C397 0.950 . S
H372 C398 0.950 . S
H373 C400 0.950 . S
H374 C403 0.950 . S
H375 C404 0.950 . S
H376 C406 0.950 . S
H377 C407 0.950 . S
C378 H360 0.951 . S
C378 C379 1.366 . S
C378 C380 1.388 . S
C379 C378 1.366 . S
C379 C383 1.385 . S
C380 H361 0.951 . S
C380 C378 1.388 . S
C380 C381 1.366 . S
C381 C380 1.366 . S
C381 C382 1.414 . S
C381 C384 1.499 . S
C382 H362 0.950 . S
C382 C381 1.414 . S
C382 C383 1.374 . S
C383 H363 0.950 . S
C383 C379 1.385 . S
C383 C382 1.374 . S
C384 C381 1.499 . S
C384 C385 1.373 . S
C384 C386 1.389 . S
C385 H364 0.950 . S
C385 C384 1.373 . S
C385 C401 1.377 . S
C386 C384 1.389 . S
C386 C387 1.524 . S
C386 C400 1.377 . S
C387 C386 1.524 . S
C387 C388 1.397 . S
C387 C392 1.363 . S
C388 H365 0.950 . S
C388 C387 1.397 . S
C388 C389 1.334 . S
C389 H366 0.950 . S
C389 C388 1.334 . S
C389 C390 1.287 . S
C390 C389 1.287 . S
C390 C391 1.524 . S
C390 H409 0.913 . S
C391 H367 0.950 . S
C391 C390 1.524 . S
C391 C392 1.415 . S
C392 H368 0.950 . S
C392 C387 1.363 . S
C392 C391 1.415 . S
C393 H369 0.951 . S
C393 C394 1.366 . S
C393 C395 1.388 . S
C394 C393 1.366 . S
C394 C398 1.385 . S
C395 H370 0.951 . S
C395 C393 1.388 . S
C395 C396 1.366 . S
C396 C395 1.366 . S
C396 C397 1.414 . S
C396 C399 1.499 . S
C397 H371 0.950 . S
C397 C396 1.414 . S
C397 C398 1.374 . S
C398 H372 0.950 . S
C398 C394 1.385 . S
C398 C397 1.374 . S
C399 C396 1.499 . S
C399 C400 1.373 . S
C399 C401 1.389 . S
C400 H373 0.950 . S
C400 C386 1.377 . S
C400 C399 1.373 . S
C401 C385 1.377 . S
C401 C399 1.389 . S
C401 C402 1.524 . S
C402 C401 1.524 . S
C402 C403 1.397 . S
C402 C407 1.363 . S
C403 H374 0.950 . S
C403 C402 1.397 . S
C403 C404 1.334 . S
C404 H375 0.950 . S
C404 C403 1.334 . S
C404 C405 1.287 . S
C405 C404 1.287 . S
C405 C406 1.524 . S
C405 H408 0.999 . S
C406 H376 0.950 . S
C406 C405 1.524 . S
C406 C407 1.415 . S
C407 H377 0.950 . S
C407 C402 1.363 . S
C407 C406 1.415 . S
H408 C405 0.999 . S
H409 C390 0.913 . S
H410 C428 0.951 . S
H411 C430 0.951 . S
H412 C432 0.950 . S
H413 C433 0.950 . S
H414 C435 0.950 . S
H415 C438 0.950 . S
H416 C439 0.950 . S
H417 C441 0.950 . S
H418 C442 0.950 . S
H419 C443 0.951 . S
H420 C445 0.951 . S
H421 C447 0.950 . S
H422 C448 0.950 . S
H423 C450 0.950 . S
H424 C453 0.950 . S
H425 C454 0.950 . S
H426 C456 0.950 . S
H427 C457 0.950 . S
C428 H410 0.951 . S
C428 C429 1.366 . S
C428 C430 1.388 . S
C429 C428 1.366 . S
C429 C433 1.385 . S
C430 H411 0.951 . S
C430 C428 1.388 . S
C430 C431 1.366 . S
C431 C430 1.366 . S
C431 C432 1.414 . S
C431 C434 1.499 . S
C432 H412 0.950 . S
C432 C431 1.414 . S
C432 C433 1.374 . S
C433 H413 0.950 . S
C433 C429 1.385 . S
C433 C432 1.374 . S
C434 C431 1.499 . S
C434 C435 1.373 . S
C434 C436 1.389 . S
C435 H414 0.950 . S
C435 C434 1.373 . S
C435 C451 1.377 . S
C436 C434 1.389 . S
C436 C437 1.524 . S
C436 C450 1.377 . S
C437 C436 1.524 . S
C437 C438 1.397 . S
C437 C442 1.363 . S
C438 H415 0.950 . S
C438 C437 1.397 . S
C438 C439 1.334 . S
C439 H416 0.950 . S
C439 C438 1.334 . S
C439 C440 1.287 . S
C440 C439 1.287 . S
C440 C441 1.524 . S
C440 H459 0.913 . S
C441 H417 0.950 . S
C441 C440 1.524 . S
C441 C442 1.415 . S
C442 H418 0.950 . S
C442 C437 1.363 . S
C442 C441 1.415 . S
C443 H419 0.951 . S
C443 C444 1.366 . S
C443 C445 1.388 . S
C444 C443 1.366 . S
C444 C448 1.385 . S
C445 H420 0.951 . S
C445 C443 1.388 . S
C445 C446 1.366 . S
C446 C445 1.366 . S
C446 C447 1.414 . S
C446 C449 1.499 . S
C447 H421 0.950 . S
C447 C446 1.414 . S
C447 C448 1.374 . S
C448 H422 0.950 . S
C448 C444 1.385 . S
C448 C447 1.374 . S
C449 C446 1.499 . S
C449 C450 1.373 . S
C449 C451 1.389 . S
C450 H423 0.950 . S
C450 C436 1.377 . S
C450 C449 1.373 . S
C451 C435 1.377 . S
C451 C449 1.389 . S
C451 C452 1.524 . S
C452 C451 1.524 . S
C452 C453 1.397 . S
C452 C457 1.363 . S
C453 H424 0.950 . S
C453 C452 1.397 . S
C453 C454 1.334 1_565 S
C454 H425 0.950 . S
C454 C453 1.334 1_545 S
C454 C455 1.287 . S
C455 C454 1.287 . S
C455 C456 1.524 . S
C455 H458 0.999 . S
C456 H426 0.950 . S
C456 C455 1.524 . S
C456 C457 1.415 1_545 S
C457 H427 0.950 . S
C457 C452 1.363 . S
C457 C456 1.415 1_565 S
H458 C455 0.999 . S
H459 C440 0.913 . S
H460 C478 0.951 1_455 S
H461 C480 0.951 . S
H462 C482 0.950 . S
H463 C483 0.950 . S
H464 C485 0.950 . S
H465 C488 0.950 . S
H466 C489 0.950 . S
H467 C491 0.950 . S
H468 C492 0.950 . S
H469 C493 0.951 . S
H470 C495 0.951 . S
H471 C497 0.950 . S
H472 C498 0.950 . S
H473 C500 0.950 . S
H474 C503 0.950 . S
H475 C504 0.950 . S
H476 C506 0.950 . S
H477 C507 0.950 . S
C478 H460 0.951 1_655 S
C478 C479 1.366 . S
C478 C480 1.388 . S
C479 C478 1.366 . S
C479 C483 1.385 . S
C480 H461 0.951 . S
C480 C478 1.388 . S
C480 C481 1.366 . S
C481 C480 1.366 . S
C481 C482 1.414 . S
C481 C484 1.499 . S
C482 H462 0.950 . S
C482 C481 1.414 . S
C482 C483 1.374 . S
C483 H463 0.950 . S
C483 C479 1.385 . S
C483 C482 1.374 . S
C484 C481 1.499 . S
C484 C485 1.373 . S
C484 C486 1.389 . S
C485 H464 0.950 . S
C485 C484 1.373 . S
C485 C501 1.377 . S
C486 C484 1.389 . S
C486 C487 1.524 . S
C486 C500 1.377 . S
C487 C486 1.524 . S
C487 C488 1.397 . S
C487 C492 1.363 . S
C488 H465 0.950 . S
C488 C487 1.397 . S
C488 C489 1.334 . S
C489 H466 0.950 . S
C489 C488 1.334 . S
C489 C490 1.287 1_655 S
C490 C489 1.287 1_455 S
C490 C491 1.524 . S
C490 H509 0.913 . S
C491 H467 0.950 . S
C491 C490 1.524 . S
C491 C492 1.415 1_455 S
C492 H468 0.950 . S
C492 C487 1.363 . S
C492 C491 1.415 1_655 S
C493 H469 0.951 . S
C493 C494 1.366 . S
C493 C495 1.388 . S
C494 C493 1.366 . S
C494 C498 1.385 . S
C495 H470 0.951 . S
C495 C493 1.388 . S
C495 C496 1.366 . S
C496 C495 1.366 . S
C496 C497 1.414 . S
C496 C499 1.499 . S
C497 H471 0.950 . S
C497 C496 1.414 . S
C497 C498 1.374 . S
C498 H472 0.950 . S
C498 C494 1.385 . S
C498 C497 1.374 . S
C499 C496 1.499 . S
C499 C500 1.373 . S
C499 C501 1.389 . S
C500 H473 0.950 . S
C500 C486 1.377 . S
C500 C499 1.373 . S
C501 C485 1.377 . S
C501 C499 1.389 . S
C501 C502 1.524 . S
C502 C501 1.524 . S
C502 C503 1.397 . S
C502 C507 1.363 . S
C503 H474 0.950 . S
C503 C502 1.397 . S
C503 C504 1.334 . S
C504 H475 0.950 . S
C504 C503 1.334 . S
C504 C505 1.287 . S
C505 C504 1.287 . S
C505 C506 1.524 . S
C505 H508 0.999 . S
C506 H476 0.950 . S
C506 C505 1.524 . S
C506 C507 1.415 . S
C507 H477 0.950 . S
C507 C502 1.363 . S
C507 C506 1.415 . S
H508 C505 0.999 . S
H509 C490 0.913 . S
H510 C528 0.951 . S
H511 C530 0.951 . S
H512 C532 0.950 . S
H513 C533 0.950 . S
H514 C535 0.950 . S
H515 C538 0.950 . S
H516 C539 0.950 . S
H517 C541 0.950 . S
H518 C542 0.950 . S
H519 C543 0.951 . S
H520 C545 0.951 . S
H521 C547 0.950 . S
H522 C548 0.950 . S
H523 C550 0.950 . S
H524 C553 0.950 . S
H525 C554 0.950 . S
H526 C556 0.950 . S
H527 C557 0.950 . S
C528 H510 0.951 . S
C528 C529 1.366 . S
C528 C530 1.388 . S
C529 C528 1.366 . S
C529 C533 1.385 . S
C530 H511 0.951 . S
C530 C528 1.388 . S
C530 C531 1.366 . S
C531 C530 1.366 . S
C531 C532 1.414 . S
C531 C534 1.499 . S
C532 H512 0.950 . S
C532 C531 1.414 . S
C532 C533 1.374 . S
C533 H513 0.950 . S
C533 C529 1.385 . S
C533 C532 1.374 . S
C534 C531 1.499 . S
C534 C535 1.373 . S
C534 C536 1.389 . S
C535 H514 0.950 . S
C535 C534 1.373 . S
C535 C551 1.377 . S
C536 C534 1.389 . S
C536 C537 1.524 . S
C536 C550 1.377 . S
C537 C536 1.524 . S
C537 C538 1.397 . S
C537 C542 1.363 . S
C538 H515 0.950 . S
C538 C537 1.397 . S
C538 C539 1.334 1_565 S
C539 H516 0.950 . S
C539 C538 1.334 1_545 S
C539 C540 1.287 . S
C540 C539 1.287 . S
C540 C541 1.524 1_545 S
C540 H559 0.913 . S
C541 H517 0.950 . S
C541 C540 1.524 1_565 S
C541 C542 1.415 . S
C542 H518 0.950 . S
C542 C537 1.363 . S
C542 C541 1.415 . S
C543 H519 0.951 . S
C543 C544 1.366 . S
C543 C545 1.388 . S
C544 C543 1.366 . S
C544 C548 1.385 . S
C545 H520 0.951 . S
C545 C543 1.388 . S
C545 C546 1.366 . S
C546 C545 1.366 . S
C546 C547 1.414 . S
C546 C549 1.499 . S
C547 H521 0.950 . S
C547 C546 1.414 . S
C547 C548 1.374 . S
C548 H522 0.950 . S
C548 C544 1.385 . S
C548 C547 1.374 . S
C549 C546 1.499 . S
C549 C550 1.373 . S
C549 C551 1.389 . S
C550 H523 0.950 . S
C550 C536 1.377 . S
C550 C549 1.373 . S
C551 C535 1.377 . S
C551 C549 1.389 . S
C551 C552 1.524 . S
C552 C551 1.524 . S
C552 C553 1.397 . S
C552 C557 1.363 . S
C553 H524 0.950 . S
C553 C552 1.397 . S
C553 C554 1.334 . S
C554 H525 0.950 . S
C554 C553 1.334 . S
C554 C555 1.287 . S
C555 C554 1.287 . S
C555 C556 1.524 . S
C555 H558 0.999 . S
C556 H526 0.950 . S
C556 C555 1.524 . S
C556 C557 1.415 . S
C557 H527 0.950 . S
C557 C552 1.363 . S
C557 C556 1.415 . S
H558 C555 0.999 . S
H559 C540 0.913 . S
H560 C578 0.951 . S
H561 C580 0.951 . S
H562 C582 0.950 . S
H563 C583 0.950 . S
H564 C585 0.950 . S
H565 C588 0.950 . S
H566 C589 0.950 . S
H567 C591 0.950 . S
H568 C592 0.950 . S
H569 C593 0.951 . S
H570 C595 0.951 . S
H571 C597 0.950 . S
H572 C598 0.950 . S
H573 C600 0.950 . S
H574 C603 0.950 . S
H575 C604 0.950 . S
H576 C606 0.950 . S
H577 C607 0.950 . S
C578 H560 0.951 . S
C578 C579 1.366 . S
C578 C580 1.388 . S
C579 C578 1.366 . S
C579 C583 1.385 . S
C580 H561 0.951 . S
C580 C578 1.388 . S
C580 C581 1.366 . S
C581 C580 1.366 . S
C581 C582 1.414 . S
C581 C584 1.499 . S
C582 H562 0.950 . S
C582 C581 1.414 . S
C582 C583 1.374 . S
C583 H563 0.950 . S
C583 C579 1.385 . S
C583 C582 1.374 . S
C584 C581 1.499 . S
C584 C585 1.373 . S
C584 C586 1.389 . S
C585 H564 0.950 . S
C585 C584 1.373 . S
C585 C601 1.377 . S
C586 C584 1.389 . S
C586 C587 1.524 . S
C586 C600 1.377 . S
C587 C586 1.524 . S
C587 C588 1.397 . S
C587 C592 1.363 . S
C588 H565 0.950 . S
C588 C587 1.397 . S
C588 C589 1.334 1_545 S
C589 H566 0.950 . S
C589 C588 1.334 1_565 S
C589 C590 1.287 . S
C590 C589 1.287 . S
C590 C591 1.524 . S
C590 H609 0.913 . S
C591 H567 0.950 . S
C591 C590 1.524 . S
C591 C592 1.415 1_565 S
C592 H568 0.950 . S
C592 C587 1.363 . S
C592 C591 1.415 1_545 S
C593 H569 0.951 . S
C593 C594 1.366 . S
C593 C595 1.388 . S
C594 C593 1.366 . S
C594 C598 1.385 . S
C595 H570 0.951 . S
C595 C593 1.388 . S
C595 C596 1.366 . S
C596 C595 1.366 . S
C596 C597 1.414 . S
C596 C599 1.499 . S
C597 H571 0.950 . S
C597 C596 1.414 . S
C597 C598 1.374 . S
C598 H572 0.950 . S
C598 C594 1.385 . S
C598 C597 1.374 . S
C599 C596 1.499 . S
C599 C600 1.373 . S
C599 C601 1.389 . S
C600 H573 0.950 . S
C600 C586 1.377 . S
C600 C599 1.373 . S
C601 C585 1.377 . S
C601 C599 1.389 . S
C601 C602 1.524 . S
C602 C601 1.524 . S
C602 C603 1.397 . S
C602 C607 1.363 . S
C603 H574 0.950 . S
C603 C602 1.397 . S
C603 C604 1.334 . S
C604 H575 0.950 . S
C604 C603 1.334 . S
C604 C605 1.287 . S
C605 C604 1.287 . S
C605 C606 1.524 . S
C605 H608 0.999 . S
C606 H576 0.950 . S
C606 C605 1.524 . S
C606 C607 1.415 . S
C607 H577 0.950 . S
C607 C602 1.363 . S
C607 C606 1.415 . S
H608 C605 0.999 . S
H609 C590 0.913 . S
H610 C628 0.951 . S
H611 C630 0.951 . S
H612 C632 0.950 . S
H613 C633 0.950 . S
H614 C635 0.950 . S
H615 C638 0.950 . S
H616 C639 0.950 . S
H617 C641 0.950 . S
H618 C642 0.937 . S
H619 C643 0.951 . S
H620 C645 0.951 . S
H621 C647 0.950 . S
H622 C648 0.950 . S
H623 C650 0.950 . S
H624 C653 0.950 . S
H625 C654 0.950 . S
H626 C656 0.950 . S
H627 C657 0.950 . S
C628 H610 0.951 . S
C628 C629 1.366 . S
C628 C630 1.388 . S
C629 C628 1.366 . S
C629 C633 1.385 . S
C630 H611 0.951 . S
C630 C628 1.388 . S
C630 C631 1.366 . S
C631 C630 1.366 . S
C631 C632 1.414 . S
C631 C634 1.499 . S
C632 H612 0.950 . S
C632 C631 1.414 . S
C632 C633 1.374 . S
C633 H613 0.950 . S
C633 C629 1.385 . S
C633 C632 1.374 . S
C634 C631 1.499 . S
C634 C635 1.373 . S
C634 C636 1.389 . S
C635 H614 0.950 . S
C635 C634 1.373 . S
C635 C651 1.377 . S
C636 C634 1.389 . S
C636 C637 1.524 . S
C636 C650 1.377 . S
C637 C636 1.524 . S
C637 C638 1.397 . S
C637 C642 1.386 . S
C638 H615 0.950 . S
C638 C637 1.397 . S
C638 C639 1.334 1_455 S
C639 H616 0.950 . S
C639 C638 1.334 1_655 S
C639 C640 1.287 . S
C640 C639 1.287 . S
C640 C641 1.524 . S
C640 H659 0.913 . S
C641 H617 0.950 . S
C641 C640 1.524 . S
C641 C642 1.405 1_655 S
C642 H618 0.937 . S
C642 C637 1.386 . S
C642 C641 1.405 1_455 S
C643 H619 0.951 . S
C643 C644 1.366 . S
C643 C645 1.388 . S
C644 C643 1.366 . S
C644 C648 1.385 . S
C645 H620 0.951 . S
C645 C643 1.388 . S
C645 C646 1.366 . S
C646 C645 1.366 . S
C646 C647 1.414 . S
C646 C649 1.499 . S
C647 H621 0.950 . S
C647 C646 1.414 . S
C647 C648 1.374 . S
C648 H622 0.950 . S
C648 C644 1.385 . S
C648 C647 1.374 . S
C649 C646 1.499 . S
C649 C650 1.373 . S
C649 C651 1.389 . S
C650 H623 0.950 . S
C650 C636 1.377 . S
C650 C649 1.373 . S
C651 C635 1.377 . S
C651 C649 1.389 . S
C651 C652 1.524 . S
C652 C651 1.524 . S
C652 C653 1.397 . S
C652 C657 1.363 . S
C653 H624 0.950 . S
C653 C652 1.397 . S
C653 C654 1.334 . S
C654 H625 0.950 . S
C654 C653 1.334 . S
C654 C655 1.287 . S
C655 C654 1.287 . S
C655 C656 1.524 . S
C655 H658 0.999 . S
C656 H626 0.950 . S
C656 C655 1.524 . S
C656 C657 1.415 . S
C657 H627 0.950 . S
C657 C652 1.363 . S
C657 C656 1.415 . S
H658 C655 0.999 . S
H659 C640 0.913 . S
H660 C678 0.951 . S
H661 C680 0.951 . S
H662 C682 0.950 . S
H663 C683 0.950 . S
H664 C685 0.950 . S
H665 C688 0.950 . S
H666 C689 0.950 . S
H667 C691 0.950 . S
H668 C692 0.950 . S
H669 C693 0.951 . S
H670 C695 0.951 . S
H671 C697 0.950 . S
H672 C698 0.950 . S
H673 C700 0.950 . S
H674 C703 0.950 . S
H675 C704 0.950 . S
H676 C706 0.950 . S
H677 C707 0.950 . S
C678 H660 0.951 . S
C678 C679 1.366 . S
C678 C680 1.388 . S
C679 C678 1.366 . S
C679 C683 1.385 . S
C680 H661 0.951 . S
C680 C678 1.388 . S
C680 C681 1.366 . S
C681 C680 1.366 . S
C681 C682 1.414 . S
C681 C684 1.499 . S
C682 H662 0.950 . S
C682 C681 1.414 . S
C682 C683 1.374 . S
C683 H663 0.950 . S
C683 C679 1.385 . S
C683 C682 1.374 . S
C684 C681 1.499 . S
C684 C685 1.373 . S
C684 C686 1.389 . S
C685 H664 0.950 . S
C685 C684 1.373 . S
C685 C701 1.377 . S
C686 C684 1.389 . S
C686 C687 1.524 . S
C686 C700 1.377 . S
C687 C686 1.524 . S
C687 C688 1.397 . S
C687 C692 1.363 . S
C688 H665 0.950 . S
C688 C687 1.397 . S
C688 C689 1.334 1_545 S
C689 H666 0.950 . S
C689 C688 1.334 1_565 S
C689 C690 1.287 . S
C690 C689 1.287 . S
C690 C691 1.524 . S
C690 H709 0.913 . S
C691 H667 0.950 . S
C691 C690 1.524 . S
C691 C692 1.415 1_565 S
C692 H668 0.950 . S
C692 C687 1.363 . S
C692 C691 1.415 1_545 S
C693 H669 0.951 . S
C693 C694 1.366 . S
C693 C695 1.388 . S
C694 C693 1.366 . S
C694 C698 1.385 . S
C695 H670 0.951 . S
C695 C693 1.388 . S
C695 C696 1.366 . S
C696 C695 1.366 . S
C696 C697 1.414 . S
C696 C699 1.499 . S
C697 H671 0.950 . S
C697 C696 1.414 . S
C697 C698 1.374 . S
C698 H672 0.950 . S
C698 C694 1.385 . S
C698 C697 1.374 . S
C699 C696 1.499 . S
C699 C700 1.373 . S
C699 C701 1.389 . S
C700 H673 0.950 . S
C700 C686 1.377 . S
C700 C699 1.373 . S
C701 C685 1.377 . S
C701 C699 1.389 . S
C701 C702 1.524 . S
C702 C701 1.524 . S
C702 C703 1.397 . S
C702 C707 1.363 . S
C703 H674 0.950 . S
C703 C702 1.397 . S
C703 C704 1.334 . S
C704 H675 0.950 . S
C704 C703 1.334 . S
C704 C705 1.287 . S
C705 C704 1.287 . S
C705 C706 1.524 . S
C705 H708 0.999 . S
C706 H676 0.950 . S
C706 C705 1.524 . S
C706 C707 1.415 . S
C707 H677 0.950 . S
C707 C702 1.363 . S
C707 C706 1.415 . S
H708 C705 0.999 . S
H709 C690 0.913 . S
H710 C728 0.951 . S
H711 C730 0.951 . S
H712 C732 0.950 . S
H713 C733 0.950 1_545 S
H714 C735 0.950 . S
H715 C738 0.950 . S
H716 C739 0.950 . S
H717 C741 0.950 . S
H718 C742 0.950 . S
H719 C743 0.951 . S
H720 C745 0.951 . S
H721 C747 0.950 . S
H722 C748 0.950 . S
H723 C750 0.950 . S
H724 C753 0.950 . S
H725 C754 0.950 . S
H726 C756 0.950 . S
H727 C757 0.950 . S
C728 H710 0.951 . S
C728 C729 1.366 . S
C728 C730 1.388 . S
C729 C728 1.366 . S
C729 C733 1.385 . S
C730 H711 0.951 . S
C730 C728 1.388 . S
C730 C731 1.366 . S
C731 C730 1.366 . S
C731 C732 1.414 . S
C731 C734 1.499 . S
C732 H712 0.950 . S
C732 C731 1.414 . S
C732 C733 1.374 . S
C733 H713 0.950 1_565 S
C733 C729 1.385 . S
C733 C732 1.374 . S
C734 C731 1.499 . S
C734 C735 1.373 . S
C734 C736 1.389 . S
C735 H714 0.950 . S
C735 C734 1.373 . S
C735 C751 1.377 . S
C736 C734 1.389 . S
C736 C737 1.524 . S
C736 C750 1.377 . S
C737 C736 1.524 . S
C737 C738 1.397 . S
C737 C742 1.363 . S
C738 H715 0.950 . S
C738 C737 1.397 . S
C738 C739 1.334 . S
C739 H716 0.950 . S
C739 C738 1.334 . S
C739 C740 1.287 . S
C740 C739 1.287 . S
C740 C741 1.524 . S
C740 H759 0.913 . S
C741 H717 0.950 . S
C741 C740 1.524 . S
C741 C742 1.415 . S
C742 H718 0.950 . S
C742 C737 1.363 . S
C742 C741 1.415 . S
C743 H719 0.951 . S
C743 C744 1.366 . S
C743 C745 1.388 . S
C744 C743 1.366 . S
C744 C748 1.385 . S
C745 H720 0.951 . S
C745 C743 1.388 . S
C745 C746 1.366 . S
C746 C745 1.366 . S
C746 C747 1.414 . S
C746 C749 1.499 . S
C747 H721 0.950 . S
C747 C746 1.414 . S
C747 C748 1.374 . S
C748 H722 0.950 . S
C748 C744 1.385 . S
C748 C747 1.374 . S
C749 C746 1.499 . S
C749 C750 1.373 . S
C749 C751 1.389 . S
C750 H723 0.950 . S
C750 C736 1.377 . S
C750 C749 1.373 . S
C751 C735 1.377 . S
C751 C749 1.389 . S
C751 C752 1.524 . S
C752 C751 1.524 . S
C752 C753 1.397 . S
C752 C757 1.363 . S
C753 H724 0.950 . S
C753 C752 1.397 . S
C753 C754 1.334 . S
C754 H725 0.950 . S
C754 C753 1.334 . S
C754 C755 1.287 . S
C755 C754 1.287 . S
C755 C756 1.524 . S
C755 H758 0.999 . S
C756 H726 0.950 . S
C756 C755 1.524 . S
C756 C757 1.415 . S
C757 H727 0.950 . S
C757 C752 1.363 . S
C757 C756 1.415 . S
H758 C755 0.999 . S
H759 C740 0.913 . S
H760 C778 0.951 1_455 S
H761 C780 0.951 . S
H762 C782 0.950 . S
H763 C783 0.950 . S
H764 C785 0.950 . S
H765 C788 0.950 . S
H766 C789 0.950 . S
H767 C791 0.950 1_455 S
H768 C792 0.950 . S
H769 C793 0.951 . S
H770 C795 0.951 . S
H771 C797 0.950 . S
H772 C798 0.950 . S
H773 C800 0.950 . S
H774 C803 0.950 . S
H775 C804 0.950 . S
H776 C806 0.950 . S
H777 C807 0.950 . S
C778 H760 0.951 1_655 S
C778 C779 1.366 . S
C778 C780 1.388 . S
C779 C778 1.366 . S
C779 C783 1.385 . S
C780 H761 0.951 . S
C780 C778 1.388 . S
C780 C781 1.366 . S
C781 C780 1.366 . S
C781 C782 1.414 . S
C781 C784 1.499 . S
C782 H762 0.950 . S
C782 C781 1.414 . S
C782 C783 1.374 . S
C783 H763 0.950 . S
C783 C779 1.385 . S
C783 C782 1.374 . S
C784 C781 1.499 . S
C784 C785 1.373 . S
C784 C786 1.389 . S
C785 H764 0.950 . S
C785 C784 1.373 . S
C785 C801 1.377 . S
C786 C784 1.389 . S
C786 C787 1.524 . S
C786 C800 1.377 . S
C787 C786 1.524 . S
C787 C788 1.397 . S
C787 C792 1.363 . S
C788 H765 0.950 . S
C788 C787 1.397 . S
C788 C789 1.334 . S
C789 H766 0.950 . S
C789 C788 1.334 . S
C789 C790 1.287 . S
C790 C789 1.287 . S
C790 C791 1.524 . S
C790 H809 0.913 . S
C791 H767 0.950 1_655 S
C791 C790 1.524 . S
C791 C792 1.415 . S
C792 H768 0.950 . S
C792 C787 1.363 . S
C792 C791 1.415 . S
C793 H769 0.951 . S
C793 C794 1.366 . S
C793 C795 1.388 . S
C794 C793 1.366 . S
C794 C798 1.385 . S
C795 H770 0.951 . S
C795 C793 1.388 . S
C795 C796 1.366 . S
C796 C795 1.366 . S
C796 C797 1.414 . S
C796 C799 1.499 . S
C797 H771 0.950 . S
C797 C796 1.414 . S
C797 C798 1.374 . S
C798 H772 0.950 . S
C798 C794 1.385 . S
C798 C797 1.374 . S
C799 C796 1.499 . S
C799 C800 1.373 . S
C799 C801 1.389 . S
C800 H773 0.950 . S
C800 C786 1.377 . S
C800 C799 1.373 . S
C801 C785 1.377 . S
C801 C799 1.389 . S
C801 C802 1.524 . S
C802 C801 1.524 . S
C802 C803 1.397 . S
C802 C807 1.363 . S
C803 H774 0.950 . S
C803 C802 1.397 . S
C803 C804 1.334 . S
C804 H775 0.950 . S
C804 C803 1.334 . S
C804 C805 1.287 . S
C805 C804 1.287 . S
C805 C806 1.524 . S
C805 H808 0.999 . S
C806 H776 0.950 . S
C806 C805 1.524 . S
C806 C807 1.415 . S
C807 H777 0.950 . S
C807 C802 1.363 . S
C807 C806 1.415 . S
H808 C805 0.999 . S
H809 C790 0.913 . S
C229 C72 1.136 . S
C244 C187 1.243 . S
C279 C140 1.547 . S
C294 C193 1.430 . S
C329 C75 1.529 . S
C344 C184 1.452 . S
C379 C156 1.138 . S
C394 C209 1.244 . S
C429 C56 1.548 . S
C444 C175 1.429 . S
C494 C192 1.452 . S
C479 C159 1.529 . S
C529 C147 1.135 . S
C544 C188 1.255 . S
C594 C205 1.470 . S
C579 C67 1.558 . S
C644 C172 1.398 . S
C629 C150 1.529 . S
C694 C208 1.255 . S
C679 C63 1.136 . S
C744 C171 1.471 . S
C729 C151 1.557 . S
C794 C196 1.398 . S
C779 C66 1.529 . S
