# Generated by pormake.
# Topology gar, (4,6)-cn, num edge types: 1
# Building blocks:
#     Node 0, Type 0, BuildingBlock: QUQFOY_clean_sbu_1, # of connection points: 4
#     Node 1, Type 0, BuildingBlock: QUQFOY_clean_sbu_1, # of connection points: 4
#     Node 2, Type 0, BuildingBlock: QUQFOY_clean_sbu_1, # of connection points: 4
#     Node 3, Type 0, BuildingBlock: QUQFOY_clean_sbu_1, # of connection points: 4
#     Node 4, Type 0, BuildingBlock: QUQFOY_clean_sbu_1, # of connection points: 4
#     Node 5, Type 0, BuildingBlock: QUQFOY_clean_sbu_1, # of connection points: 4
#     Node 6, Type 0, BuildingBlock: QUQFOY_clean_sbu_1, # of connection points: 4
#     Node 7, Type 0, BuildingBlock: QUQFOY_clean_sbu_1, # of connection points: 4
#     Node 8, Type 0, BuildingBlock: QUQFOY_clean_sbu_1, # of connection points: 4
#     Node 9, Type 0, BuildingBlock: QUQFOY_clean_sbu_1, # of connection points: 4
#     Node 10, Type 0, BuildingBlock: QUQFOY_clean_sbu_1, # of connection points: 4
#     Node 11, Type 0, BuildingBlock: QUQFOY_clean_sbu_1, # of connection points: 4
#     Node 12, Type 0, BuildingBlock: QUQFOY_clean_sbu_1, # of connection points: 4
#     Node 13, Type 0, BuildingBlock: QUQFOY_clean_sbu_1, # of connection points: 4
#     Node 14, Type 0, BuildingBlock: QUQFOY_clean_sbu_1, # of connection points: 4
#     Node 15, Type 0, BuildingBlock: QUQFOY_clean_sbu_1, # of connection points: 4
#     Node 16, Type 0, BuildingBlock: QUQFOY_clean_sbu_1, # of connection points: 4
#     Node 17, Type 0, BuildingBlock: QUQFOY_clean_sbu_1, # of connection points: 4
#     Node 18, Type 0, BuildingBlock: QUQFOY_clean_sbu_1, # of connection points: 4
#     Node 19, Type 0, BuildingBlock: QUQFOY_clean_sbu_1, # of connection points: 4
#     Node 20, Type 0, BuildingBlock: QUQFOY_clean_sbu_1, # of connection points: 4
#     Node 21, Type 0, BuildingBlock: QUQFOY_clean_sbu_1, # of connection points: 4
#     Node 22, Type 0, BuildingBlock: QUQFOY_clean_sbu_1, # of connection points: 4
#     Node 23, Type 0, BuildingBlock: QUQFOY_clean_sbu_1, # of connection points: 4
#     Node 24, Type 1, BuildingBlock: KUMJIN_clean_sbu_0, # of connection points: 6
#     Node 25, Type 1, BuildingBlock: KUMJIN_clean_sbu_0, # of connection points: 6
#     Node 26, Type 1, BuildingBlock: KUMJIN_clean_sbu_0, # of connection points: 6
#     Node 27, Type 1, BuildingBlock: KUMJIN_clean_sbu_0, # of connection points: 6
#     Node 28, Type 1, BuildingBlock: KUMJIN_clean_sbu_0, # of connection points: 6
#     Node 29, Type 1, BuildingBlock: KUMJIN_clean_sbu_0, # of connection points: 6
#     Node 30, Type 1, BuildingBlock: KUMJIN_clean_sbu_0, # of connection points: 6
#     Node 31, Type 1, BuildingBlock: KUMJIN_clean_sbu_0, # of connection points: 6
#     Node 32, Type 1, BuildingBlock: KUMJIN_clean_sbu_0, # of connection points: 6
#     Node 33, Type 1, BuildingBlock: KUMJIN_clean_sbu_0, # of connection points: 6
#     Node 34, Type 1, BuildingBlock: KUMJIN_clean_sbu_0, # of connection points: 6
#     Node 35, Type 1, BuildingBlock: KUMJIN_clean_sbu_0, # of connection points: 6
#     Node 36, Type 1, BuildingBlock: KUMJIN_clean_sbu_0, # of connection points: 6
#     Node 37, Type 1, BuildingBlock: KUMJIN_clean_sbu_0, # of connection points: 6
#     Node 38, Type 1, BuildingBlock: KUMJIN_clean_sbu_0, # of connection points: 6
#     Node 39, Type 1, BuildingBlock: KUMJIN_clean_sbu_0, # of connection points: 6
#     Edge 40, Type (0, 1), BuildingBlock: KIFKEQ_clean_linker_1, # of connection points: 2
#     Edge 41, Type (0, 1), BuildingBlock: KIFKEQ_clean_linker_1, # of connection points: 2
#     Edge 42, Type (0, 1), BuildingBlock: KIFKEQ_clean_linker_1, # of connection points: 2
#     Edge 43, Type (0, 1), BuildingBlock: KIFKEQ_clean_linker_1, # of connection points: 2
#     Edge 44, Type (0, 1), BuildingBlock: KIFKEQ_clean_linker_1, # of connection points: 2
#     Edge 45, Type (0, 1), BuildingBlock: KIFKEQ_clean_linker_1, # of connection points: 2
#     Edge 46, Type (0, 1), BuildingBlock: KIFKEQ_clean_linker_1, # of connection points: 2
#     Edge 47, Type (0, 1), BuildingBlock: KIFKEQ_clean_linker_1, # of connection points: 2
#     Edge 48, Type (0, 1), BuildingBlock: KIFKEQ_clean_linker_1, # of connection points: 2
#     Edge 49, Type (0, 1), BuildingBlock: KIFKEQ_clean_linker_1, # of connection points: 2
#     Edge 50, Type (0, 1), BuildingBlock: KIFKEQ_clean_linker_1, # of connection points: 2
#     Edge 51, Type (0, 1), BuildingBlock: KIFKEQ_clean_linker_1, # of connection points: 2
#     Edge 52, Type (0, 1), BuildingBlock: KIFKEQ_clean_linker_1, # of connection points: 2
#     Edge 53, Type (0, 1), BuildingBlock: KIFKEQ_clean_linker_1, # of connection points: 2
#     Edge 54, Type (0, 1), BuildingBlock: KIFKEQ_clean_linker_1, # of connection points: 2
#     Edge 55, Type (0, 1), BuildingBlock: KIFKEQ_clean_linker_1, # of connection points: 2
#     Edge 56, Type (0, 1), BuildingBlock: KIFKEQ_clean_linker_1, # of connection points: 2
#     Edge 57, Type (0, 1), BuildingBlock: KIFKEQ_clean_linker_1, # of connection points: 2
#     Edge 58, Type (0, 1), BuildingBlock: KIFKEQ_clean_linker_1, # of connection points: 2
#     Edge 59, Type (0, 1), BuildingBlock: KIFKEQ_clean_linker_1, # of connection points: 2
#     Edge 60, Type (0, 1), BuildingBlock: KIFKEQ_clean_linker_1, # of connection points: 2
#     Edge 61, Type (0, 1), BuildingBlock: KIFKEQ_clean_linker_1, # of connection points: 2
#     Edge 62, Type (0, 1), BuildingBlock: KIFKEQ_clean_linker_1, # of connection points: 2
#     Edge 63, Type (0, 1), BuildingBlock: KIFKEQ_clean_linker_1, # of connection points: 2
#     Edge 64, Type (0, 1), BuildingBlock: KIFKEQ_clean_linker_1, # of connection points: 2
#     Edge 65, Type (0, 1), BuildingBlock: KIFKEQ_clean_linker_1, # of connection points: 2
#     Edge 66, Type (0, 1), BuildingBlock: KIFKEQ_clean_linker_1, # of connection points: 2
#     Edge 67, Type (0, 1), BuildingBlock: KIFKEQ_clean_linker_1, # of connection points: 2
#     Edge 68, Type (0, 1), BuildingBlock: KIFKEQ_clean_linker_1, # of connection points: 2
#     Edge 69, Type (0, 1), BuildingBlock: KIFKEQ_clean_linker_1, # of connection points: 2
#     Edge 70, Type (0, 1), BuildingBlock: KIFKEQ_clean_linker_1, # of connection points: 2
#     Edge 71, Type (0, 1), BuildingBlock: KIFKEQ_clean_linker_1, # of connection points: 2
#     Edge 72, Type (0, 1), BuildingBlock: KIFKEQ_clean_linker_1, # of connection points: 2
#     Edge 73, Type (0, 1), BuildingBlock: KIFKEQ_clean_linker_1, # of connection points: 2
#     Edge 74, Type (0, 1), BuildingBlock: KIFKEQ_clean_linker_1, # of connection points: 2
#     Edge 75, Type (0, 1), BuildingBlock: KIFKEQ_clean_linker_1, # of connection points: 2
#     Edge 76, Type (0, 1), BuildingBlock: KIFKEQ_clean_linker_1, # of connection points: 2
#     Edge 77, Type (0, 1), BuildingBlock: KIFKEQ_clean_linker_1, # of connection points: 2
#     Edge 78, Type (0, 1), BuildingBlock: KIFKEQ_clean_linker_1, # of connection points: 2
#     Edge 79, Type (0, 1), BuildingBlock: KIFKEQ_clean_linker_1, # of connection points: 2
#     Edge 80, Type (0, 1), BuildingBlock: KIFKEQ_clean_linker_1, # of connection points: 2
#     Edge 81, Type (0, 1), BuildingBlock: KIFKEQ_clean_linker_1, # of connection points: 2
#     Edge 82, Type (0, 1), BuildingBlock: KIFKEQ_clean_linker_1, # of connection points: 2
#     Edge 83, Type (0, 1), BuildingBlock: KIFKEQ_clean_linker_1, # of connection points: 2
#     Edge 84, Type (0, 1), BuildingBlock: KIFKEQ_clean_linker_1, # of connection points: 2
#     Edge 85, Type (0, 1), BuildingBlock: KIFKEQ_clean_linker_1, # of connection points: 2
#     Edge 86, Type (0, 1), BuildingBlock: KIFKEQ_clean_linker_1, # of connection points: 2
#     Edge 87, Type (0, 1), BuildingBlock: KIFKEQ_clean_linker_1, # of connection points: 2
#     Edge 88, Type (0, 1), BuildingBlock: KIFKEQ_clean_linker_1, # of connection points: 2
#     Edge 89, Type (0, 1), BuildingBlock: KIFKEQ_clean_linker_1, # of connection points: 2
#     Edge 90, Type (0, 1), BuildingBlock: KIFKEQ_clean_linker_1, # of connection points: 2
#     Edge 91, Type (0, 1), BuildingBlock: KIFKEQ_clean_linker_1, # of connection points: 2
#     Edge 92, Type (0, 1), BuildingBlock: KIFKEQ_clean_linker_1, # of connection points: 2
#     Edge 93, Type (0, 1), BuildingBlock: KIFKEQ_clean_linker_1, # of connection points: 2
#     Edge 94, Type (0, 1), BuildingBlock: KIFKEQ_clean_linker_1, # of connection points: 2
#     Edge 95, Type (0, 1), BuildingBlock: KIFKEQ_clean_linker_1, # of connection points: 2
#     Edge 96, Type (0, 1), BuildingBlock: KIFKEQ_clean_linker_1, # of connection points: 2
#     Edge 97, Type (0, 1), BuildingBlock: KIFKEQ_clean_linker_1, # of connection points: 2
#     Edge 98, Type (0, 1), BuildingBlock: KIFKEQ_clean_linker_1, # of connection points: 2
#     Edge 99, Type (0, 1), BuildingBlock: KIFKEQ_clean_linker_1, # of connection points: 2
#     Edge 100, Type (0, 1), BuildingBlock: KIFKEQ_clean_linker_1, # of connection points: 2
#     Edge 101, Type (0, 1), BuildingBlock: KIFKEQ_clean_linker_1, # of connection points: 2
#     Edge 102, Type (0, 1), BuildingBlock: KIFKEQ_clean_linker_1, # of connection points: 2
#     Edge 103, Type (0, 1), BuildingBlock: KIFKEQ_clean_linker_1, # of connection points: 2
#     Edge 104, Type (0, 1), BuildingBlock: KIFKEQ_clean_linker_1, # of connection points: 2
#     Edge 105, Type (0, 1), BuildingBlock: KIFKEQ_clean_linker_1, # of connection points: 2
#     Edge 106, Type (0, 1), BuildingBlock: KIFKEQ_clean_linker_1, # of connection points: 2
#     Edge 107, Type (0, 1), BuildingBlock: KIFKEQ_clean_linker_1, # of connection points: 2
#     Edge 108, Type (0, 1), BuildingBlock: KIFKEQ_clean_linker_1, # of connection points: 2
#     Edge 109, Type (0, 1), BuildingBlock: KIFKEQ_clean_linker_1, # of connection points: 2
#     Edge 110, Type (0, 1), BuildingBlock: KIFKEQ_clean_linker_1, # of connection points: 2
#     Edge 111, Type (0, 1), BuildingBlock: KIFKEQ_clean_linker_1, # of connection points: 2
#     Edge 112, Type (0, 1), BuildingBlock: KIFKEQ_clean_linker_1, # of connection points: 2
#     Edge 113, Type (0, 1), BuildingBlock: KIFKEQ_clean_linker_1, # of connection points: 2
#     Edge 114, Type (0, 1), BuildingBlock: KIFKEQ_clean_linker_1, # of connection points: 2
#     Edge 115, Type (0, 1), BuildingBlock: KIFKEQ_clean_linker_1, # of connection points: 2
#     Edge 116, Type (0, 1), BuildingBlock: KIFKEQ_clean_linker_1, # of connection points: 2
#     Edge 117, Type (0, 1), BuildingBlock: KIFKEQ_clean_linker_1, # of connection points: 2
#     Edge 118, Type (0, 1), BuildingBlock: KIFKEQ_clean_linker_1, # of connection points: 2
#     Edge 119, Type (0, 1), BuildingBlock: KIFKEQ_clean_linker_1, # of connection points: 2
#     Edge 120, Type (0, 1), BuildingBlock: KIFKEQ_clean_linker_1, # of connection points: 2
#     Edge 121, Type (0, 1), BuildingBlock: KIFKEQ_clean_linker_1, # of connection points: 2
#     Edge 122, Type (0, 1), BuildingBlock: KIFKEQ_clean_linker_1, # of connection points: 2
#     Edge 123, Type (0, 1), BuildingBlock: KIFKEQ_clean_linker_1, # of connection points: 2
#     Edge 124, Type (0, 1), BuildingBlock: KIFKEQ_clean_linker_1, # of connection points: 2
#     Edge 125, Type (0, 1), BuildingBlock: KIFKEQ_clean_linker_1, # of connection points: 2
#     Edge 126, Type (0, 1), BuildingBlock: KIFKEQ_clean_linker_1, # of connection points: 2
#     Edge 127, Type (0, 1), BuildingBlock: KIFKEQ_clean_linker_1, # of connection points: 2
#     Edge 128, Type (0, 1), BuildingBlock: KIFKEQ_clean_linker_1, # of connection points: 2
#     Edge 129, Type (0, 1), BuildingBlock: KIFKEQ_clean_linker_1, # of connection points: 2
#     Edge 130, Type (0, 1), BuildingBlock: KIFKEQ_clean_linker_1, # of connection points: 2
#     Edge 131, Type (0, 1), BuildingBlock: KIFKEQ_clean_linker_1, # of connection points: 2
#     Edge 132, Type (0, 1), BuildingBlock: KIFKEQ_clean_linker_1, # of connection points: 2
#     Edge 133, Type (0, 1), BuildingBlock: KIFKEQ_clean_linker_1, # of connection points: 2
#     Edge 134, Type (0, 1), BuildingBlock: KIFKEQ_clean_linker_1, # of connection points: 2
#     Edge 135, Type (0, 1), BuildingBlock: KIFKEQ_clean_linker_1, # of connection points: 2
# Relax obj value: 0.136
# Max RMSD: 0.333
# Mean RMSD: 0.178
data_MOF--net-gar--node1-QUQFOY_clean_sbu_1--node2-KUMJIN_clean_sbu_0--edge1-KIFKEQ_clean_linker_1
_symmetry_space_group_name_H-M    P1
_symmetry_Int_Tables_number       1
_symmetry_cell_setting            triclinic
loop_
_symmetry_equiv_pos_as_xyz
'x, y, z'
_cell_length_a     63.71035
_cell_length_b     58.134095
_cell_length_c     58.224902
_cell_angle_alpha  100.47836
_cell_angle_beta   93.876344
_cell_angle_gamma 104.63068
loop_
_atom_site_label
_atom_site_type_symbol
_atom_site_fract_x
_atom_site_fract_y
_atom_site_fract_z
_atom_type_partial_charge
O0 O 0.12308 0.30211 0.40067 0.0
Cd1 Cd 0.12633 0.32698 0.37936 0.0
Cd2 Cd 0.1222 0.35488 0.41735 0.0
O3 O 0.12949 0.32918 0.43368 0.0
O4 O 0.1364 0.31002 0.35162 0.0
O5 O 0.15597 0.34534 0.37334 0.0
C6 C 0.15415 0.32742 0.35586 0.0
C7 C 0.13622 0.39525 0.43464 0.0
C8 C 0.1264 0.3074 0.42293 0.0
C9 C 0.08515 0.34073 0.37986 0.0
O10 O 0.09074 0.34789 0.40183 0.0
O11 O 0.09835 0.33375 0.36666 0.0
O12 O 0.12312 0.38051 0.44459 0.0
O13 O 0.14244 0.38691 0.41494 0.0
O14 O 0.99831 0.7211 0.67082 0.0
Cd15 Cd 1.00563 0.75522 0.69057 0.0
Cd16 Cd 0.00908 0.76487 0.65119 0.0
O17 O 0.98486 0.73307 0.64112 0.0
O18 O 0.98883 0.75351 0.71716 0.0
O19 O 0.98327 0.77285 0.68835 0.0
C20 C 0.97733 0.76509 0.70702 0.0
C21 C 0.00977 0.79502 0.63016 0.0
C22 C 0.98746 0.71592 0.65066 0.0
C23 C 0.04936 0.76916 0.68236 0.0
O24 O 0.0401 0.76278 0.66134 0.0
O25 O 0.038 0.77205 0.69919 0.0
O26 O 0.01318 0.77464 0.62094 0.0
O27 O 1.00497 0.79808 0.6515 0.0
O28 O 0.66499 0.84044 0.89324 0.0
Cd29 Cd 0.642 0.8402 0.91574 0.0
Cd30 Cd 0.62006 0.8473 0.88016 0.0
O31 O 0.64032 0.83045 0.86226 0.0
O32 O 0.64877 0.82404 0.94101 0.0
O33 O 0.61977 0.80874 0.91383 0.0
C34 C 0.63138 0.80688 0.93215 0.0
C35 C 0.58399 0.83903 0.86539 0.0
C36 C 0.65965 0.83307 0.87125 0.0
C37 C 0.63519 0.88806 0.91969 0.0
O38 O 0.6317 0.88255 0.89747 0.0
O39 O 0.63736 0.8723 0.93137 0.0
O40 O 0.59941 0.84988 0.85477 0.0
O41 O 0.58904 0.83171 0.88414 0.0
O42 O 0.49836 0.21213 0.16666 0.0
Cd43 Cd 0.50611 0.24361 0.19091 0.0
Cd44 Cd 0.515 0.2615 0.15504 0.0
O45 O 0.49344 0.22977 0.13742 0.0
O46 O 0.48646 0.2382 0.21478 0.0
O47 O 0.48647 0.26488 0.1915 0.0
C48 C 0.47785 0.2538 0.20738 0.0
C49 C 0.51899 0.29209 0.13399 0.0
C50 C 0.49198 0.21058 0.14523 0.0
C51 C 0.55151 0.25897 0.18966 0.0
O52 O 0.54514 0.25989 0.16882 0.0
O53 O 0.5379 0.2557 0.20443 0.0
O54 O 0.52477 0.27265 0.12694 0.0
O55 O 0.51037 0.29433 0.1534 0.0
O56 O 0.09132 0.77971 0.1101 0.0
Cd57 Cd 0.09551 0.81205 0.13356 0.0
Cd58 Cd 0.1177 0.83258 0.09945 0.0
O59 O 0.10821 0.79423 0.08172 0.0
O60 O 0.07407 0.80099 0.15555 0.0
O61 O 0.07185 0.83008 0.13667 0.0
C62 C 0.0637 0.8161 0.15054 0.0
C63 C 0.10733 0.86705 0.08642 0.0
C64 C 0.09818 0.77601 0.09018 0.0
C65 C 0.14453 0.83302 0.14606 0.0
O66 O 0.14485 0.83914 0.12595 0.0
O67 O 0.1263 0.8235 0.15285 0.0
O68 O 0.12263 0.85835 0.07792 0.0
O69 O 0.09748 0.85604 0.10171 0.0
O70 O 0.56839 0.77754 0.42908 0.0
Cd71 Cd 0.5489 0.77588 0.4567 0.0
Cd72 Cd 0.52219 0.79288 0.41323 0.0
O73 O 0.5499 0.78524 0.39866 0.0
O74 O 0.5644 0.7618 0.48111 0.0
O75 O 0.53346 0.74078 0.46015 0.0
C76 C 0.54948 0.74141 0.47531 0.0
C77 C 0.48828 0.78909 0.38906 0.0
C78 C 0.56691 0.78072 0.40792 0.0
C79 C 0.53841 0.82668 0.46384 0.0
O80 O 0.53032 0.82182 0.44229 0.0
O81 O 0.5449 0.81081 0.47317 0.0
O82 O 0.50555 0.8066 0.38992 0.0
O83 O 0.49011 0.77297 0.40111 0.0
O84 O 0.59977 0.27662 0.6106 0.0
Cd85 Cd 0.60456 0.30731 0.63645 0.0
Cd86 Cd 0.62757 0.3307 0.60488 0.0
O87 O 0.61924 0.29337 0.58494 0.0
O88 O 0.58133 0.29579 0.6565 0.0
O89 O 0.58219 0.327 0.63958 0.0
C90 C 0.57236 0.31223 0.65198 0.0
C91 C 0.61691 0.36463 0.59122 0.0
C92 C 0.60779 0.27441 0.59124 0.0
C93 C 0.65338 0.32822 0.65154 0.0
O94 O 0.65395 0.33697 0.63277 0.0
O95 O 0.63506 0.31649 0.65659 0.0
O96 O 0.63412 0.35811 0.58543 0.0
O97 O 0.60546 0.35199 0.60441 0.0
O98 O 0.03481 0.23753 0.93575 0.0
Cd99 Cd 0.03422 0.26081 0.91188 0.0
Cd100 Cd 0.01779 0.28647 0.95514 0.0
O101 O 0.02531 0.25597 0.96857 0.0
O102 O 0.05224 0.24928 0.88689 0.0
O103 O 0.06354 0.28505 0.91097 0.0
C104 C 0.06742 0.26921 0.89435 0.0
C105 C 0.02834 0.32846 0.97636 0.0
C106 C 0.03181 0.23826 0.95733 0.0
C107 C 0.98974 0.27372 0.90507 0.0
O108 O 0.99211 0.28135 0.92742 0.0
O109 O 1.00447 0.26511 0.89552 0.0
O110 O 0.01148 0.3127 0.98042 0.0
O111 O 0.0403 0.3203 0.96156 0.0
O112 O 0.42313 0.04125 0.27611 0.0
Cd113 Cd 0.41588 0.05014 0.31022 0.0
Cd114 Cd 0.45357 0.0518 0.31506 0.0
O115 O 0.45352 0.06947 0.28802 0.0
O116 O 0.39 0.06194 0.31062 0.0
O117 O 0.42409 0.08526 0.3229 0.0
C118 C 0.40347 0.08315 0.31844 0.0
C119 C 0.47283 0.0671 0.35037 0.0
C120 C 0.43983 0.05591 0.27122 0.0
C121 C 0.42221 1.00935 0.32092 0.0
O122 O 0.43784 0.0153 0.30886 0.0
O123 O 0.41459 0.02587 0.3314 0.0
O124 O 0.48215 0.05897 0.33277 0.0
O125 O 0.45281 0.06803 0.3473 0.0
O126 O 0.3224 0.21032 0.55325 0.0
Cd127 Cd 0.31808 0.18392 0.52291 0.0
Cd128 Cd 0.30141 0.21737 0.5031 0.0
O129 O 0.31008 0.23763 0.53846 0.0
O130 O 0.3331 0.15997 0.53216 0.0
O131 O 0.34478 0.18176 0.50598 0.0
C132 C 0.34727 0.16589 0.51805 0.0
C133 C 0.31099 0.23035 0.46749 0.0
C134 C 0.31784 0.23066 0.55609 0.0
C135 C 0.26962 0.169 0.50432 0.0
O136 O 0.27248 0.18981 0.49907 0.0
O137 O 0.28582 0.16277 0.51282 0.0
O138 O 0.29636 0.23743 0.47901 0.0
O139 O 0.32126 0.21706 0.47672 0.0
O140 O 0.17701 1.01049 0.72626 0.0
Cd141 Cd 0.20413 1.00931 0.75161 0.0
Cd142 Cd 0.16779 0.03638 0.78445 0.0
O143 O 0.15331 0.02639 0.74682 0.0
O144 O 0.22649 0.98912 0.73763 0.0
O145 O 0.2081 0.97826 0.7654 0.0
C146 C 0.22245 0.97403 0.75165 0.0
C147 C 0.14964 0.03481 0.82254 0.0
C148 C 0.15964 0.01846 0.72676 0.0
C149 C 0.21595 0.06649 0.77708 0.0
O150 O 0.19752 0.06432 0.7856 0.0
O151 O 0.22105 0.0477 0.76568 0.0
O152 O 0.14669 0.04878 0.80839 0.0
O153 O 0.16194 0.02106 0.81516 0.0
O154 O 0.33672 0.95446 0.04873 0.0
Cd155 Cd 0.33593 0.97038 0.01985 0.0
Cd156 Cd 0.33897 0.93067 1.00236 0.0
O157 O 0.32055 0.91866 0.02697 0.0
O158 O 0.32066 0.99539 0.02728 0.0
O159 O 0.30726 0.961 1.00031 0.0
C160 C 0.30483 0.981 0.01228 0.0
C161 C 0.33668 0.90908 0.9652 0.0
C162 C 0.32654 0.9323 0.04714 0.0
C163 C 0.37769 0.97041 0.00896 0.0
O164 O 0.37059 0.94937 0.01307 0.0
O165 O 0.36452 0.98312 1.00666 0.0
O166 O 0.34347 0.9016 0.98308 0.0
O167 O 0.3291 0.9279 0.9687 0.0
O168 O 0.32587 0.39623 0.07834 0.0
Cd169 Cd 0.32868 0.41971 0.05504 0.0
Cd170 Cd 0.34017 0.37939 0.02788 0.0
O171 O 0.32631 0.36206 0.05458 0.0
O172 O 0.31163 0.44309 0.06816 0.0
O173 O 0.30208 0.41866 0.03322 0.0
C174 C 0.29793 0.43483 0.04933 0.0
C175 C 0.33327 0.36106 0.98684 0.0
C176 C 0.32373 0.37345 0.07468 0.0
C177 C 0.37537 0.42825 0.04462 0.0
O178 O 0.37065 0.40526 0.03731 0.0
O179 O 0.36044 0.43847 0.05052 0.0
O180 O 0.34523 0.35406 1.00144 0.0
O181 O 0.32413 0.37762 0.99562 0.0
O182 O 0.79266 0.14937 0.07688 0.0
Cd183 Cd 0.79666 0.1239 0.05021 0.0
Cd184 Cd 0.79401 0.15579 0.02742 0.0
O185 O 0.8066 0.17849 0.05863 0.0
O186 O 0.81985 0.10986 0.05916 0.0
O187 O 0.82095 0.13278 0.03194 0.0
C188 C 0.83016 0.12072 0.04403 0.0
C189 C 0.79601 0.17208 0.99483 0.0
C190 C 0.79971 0.17174 0.07686 0.0
C191 C 0.7558 0.11284 0.02678 0.0
O192 O 0.76305 0.13492 0.02573 0.0
O193 O 0.76861 0.10112 0.03316 0.0
O194 O 0.78566 0.17908 0.0117 0.0
O195 O 0.80727 0.15691 0.99717 0.0
O196 O 0.20458 0.55654 0.21648 0.0
Cd197 Cd 0.22692 0.55508 0.24119 0.0
Cd198 Cd 0.19786 0.56051 0.26606 0.0
O199 O 0.17994 0.53868 0.23649 0.0
O200 O 0.241 0.53061 0.22967 0.0
O201 O 0.2194 0.52953 0.25878 0.0
C202 C 0.23129 0.51973 0.24512 0.0
C203 C 0.18345 0.55986 0.30049 0.0
C204 C 0.1851 0.54536 0.21772 0.0
C205 C 0.23615 0.60183 0.26514 0.0
O206 O 0.21575 0.59516 0.26608 0.0
O207 O 0.24652 0.58657 0.2581 0.0
O208 O 0.17509 0.56811 0.28405 0.0
O209 O 0.19921 0.54999 0.29655 0.0
O210 O 0.82727 0.89917 0.58269 0.0
Cd211 Cd 0.83014 0.92014 0.55749 0.0
Cd212 Cd 0.84121 0.8796 0.53249 0.0
O213 O 0.82806 0.86427 0.56061 0.0
O214 O 0.81536 0.94614 0.56858 0.0
O215 O 0.80218 0.91707 0.53697 0.0
C216 C 0.80013 0.93585 0.5514 0.0
C217 C 0.83082 0.86124 0.49203 0.0
C218 C 0.82527 0.8765 0.5802 0.0
C219 C 0.87655 0.92822 0.5459 0.0
O220 O 0.87196 0.90519 0.53899 0.0
O221 O 0.86167 0.93819 0.5524 0.0
O222 O 0.84297 0.85306 0.50535 0.0
O223 O 0.82341 0.87887 0.50196 0.0
O224 O 0.95692 0.08058 0.2348 0.0
Cd225 Cd 0.92875 0.07992 0.25578 0.0
Cd226 Cd 0.97027 0.05815 0.28597 0.0
O227 O 0.98234 0.06654 0.25249 0.0
O228 O 0.90749 0.09831 0.24071 0.0
O229 O 0.92247 0.11199 0.27657 0.0
C230 C 0.90984 0.11485 0.25956 0.0
C231 C 0.99172 0.06031 0.32494 0.0
C232 C 0.97524 0.07451 0.23476 0.0
C233 C 0.91959 0.02633 0.27048 0.0
O234 O 0.93953 0.03141 0.27977 0.0
O235 O 0.91269 0.04226 0.26115 0.0
O236 O 0.98977 0.04315 0.30673 0.0
O237 O 0.98291 0.07723 0.32114 0.0
O238 O 0.29441 0.64339 0.56954 0.0
Cd239 Cd 0.29655 0.6189 0.5407 0.0
Cd240 Cd 0.29509 0.65278 0.51983 0.0
O241 O 0.30776 0.67353 0.55209 0.0
O242 O 0.31671 0.60091 0.54932 0.0
O243 O 0.32298 0.62662 0.5247 0.0
C244 C 0.32969 0.6125 0.53653 0.0
C245 C 0.29647 0.67275 0.48917 0.0
C246 C 0.30188 0.66586 0.57029 0.0
C247 C 0.25516 0.61133 0.5186 0.0
O248 O 0.26346 0.63336 0.51802 0.0
O249 O 0.2673 0.59835 0.52373 0.0
O250 O 0.28697 0.67843 0.5072 0.0
O251 O 0.30733 0.65683 0.48918 0.0
O252 O 0.4576 0.58208 0.73814 0.0
Cd253 Cd 0.42877 0.5827 0.75791 0.0
Cd254 Cd 0.47227 0.56041 0.79021 0.0
O255 O 0.48438 0.57106 0.75748 0.0
O256 O 0.40616 0.59939 0.74148 0.0
O257 O 0.42336 0.6171 0.77561 0.0
C258 C 0.40964 0.6181 0.75859 0.0
C259 C 0.4934 0.56129 0.82941 0.0
C260 C 0.47664 0.57753 0.73906 0.0
C261 C 0.42128 0.52855 0.77308 0.0
O262 O 0.44138 0.53368 0.78202 0.0
O263 O 0.41382 0.5448 0.7647 0.0
O264 O 0.49362 0.54617 0.81021 0.0
O265 O 0.48247 0.57675 0.82654 0.0
O266 O 0.71227 0.05974 0.71313 0.0
Cd267 Cd 0.73395 0.05971 0.74035 0.0
Cd268 Cd 0.70083 0.06223 0.75903 0.0
O269 O 0.6874 0.03715 0.72959 0.0
O270 O 0.75097 0.03653 0.73219 0.0
O271 O 0.72413 0.03263 0.75539 0.0
C272 C 0.73833 0.02394 0.74459 0.0
C273 C 0.68616 0.06088 0.79297 0.0
C274 C 0.69331 0.04558 0.71184 0.0
C275 C 0.73564 0.10521 0.76232 0.0
O276 O 0.71543 0.09646 0.75575 0.0
O277 O 0.74789 0.09128 0.76292 0.0
O278 O 0.67656 0.06697 0.77572 0.0
O279 O 0.70387 0.05421 0.79038 0.0
O280 O 0.81879 0.71448 0.05612 0.0
Cd281 Cd 0.81649 0.68949 0.02559 0.0
Cd282 Cd 0.79748 0.72307 0.00938 0.0
O283 O 0.80576 0.74287 0.04489 0.0
O284 O 0.83064 0.66781 0.03985 0.0
O285 O 0.84446 0.68538 0.01182 0.0
C286 C 0.84618 0.67216 0.02701 0.0
C287 C 0.8064 0.73819 0.97473 0.0
C288 C 0.81376 0.73443 0.06124 0.0
C289 C 0.76841 0.67224 0.00806 0.0
O290 O 0.76974 0.69352 1.00448 0.0
O291 O 0.78539 0.66662 0.01524 0.0
O292 O 0.79137 0.74375 0.98664 0.0
O293 O 0.81745 0.72512 0.98318 0.0
O294 O 0.92396 0.54626 0.7819 0.0
Cd295 Cd 0.91553 0.55469 0.81561 0.0
Cd296 Cd 0.95191 0.55344 0.82424 0.0
O297 O 0.95629 0.56989 0.79644 0.0
O298 O 0.92306 0.58966 0.82959 0.0
O299 O 0.88971 0.56636 0.81408 0.0
C300 C 0.90255 0.58735 0.82405 0.0
C301 C 0.97016 0.56999 0.85986 0.0
C302 C 0.94235 0.55931 0.77878 0.0
C303 C 0.91872 0.51329 0.83037 0.0
O304 O 0.93541 0.51738 0.8195 0.0
O305 O 0.90981 0.5301 0.83637 0.0
O306 O 0.97952 0.5598 0.84343 0.0
O307 O 0.95054 0.57177 0.85554 0.0
O308 O 0.84125 0.45821 0.55401 0.0
Cd309 Cd 0.83866 0.46822 0.52217 0.0
Cd310 Cd 0.84083 0.4269 0.51273 0.0
O311 O 0.82 0.42262 0.5376 0.0
O312 O 0.82593 0.49527 0.52791 0.0
O313 O 0.80898 0.45886 0.50522 0.0
C314 C 0.80849 0.48026 0.51587 0.0
C315 C 0.83767 0.40237 0.47727 0.0
C316 C 0.82876 0.43815 0.55611 0.0
C317 C 0.87974 0.46561 0.5144 0.0
O318 O 0.8725 0.44679 0.52267 0.0
O319 O 0.8665 0.47635 0.50699 0.0
O320 O 0.84329 0.39549 0.4961 0.0
O321 O 0.83167 0.42224 0.47909 0.0
O322 O 0.67994 0.50691 0.23307 0.0
Cd323 Cd 0.70778 0.50753 0.25857 0.0
Cd324 Cd 0.67181 0.53475 0.29133 0.0
O325 O 0.65764 0.52512 0.25375 0.0
O326 O 0.72964 0.48613 0.24526 0.0
O327 O 0.71194 0.47751 0.27416 0.0
C328 C 0.72578 0.47206 0.26025 0.0
C329 C 0.65291 0.53365 0.32889 0.0
C330 C 0.66308 0.51579 0.23367 0.0
C331 C 0.7194 0.5653 0.2834 0.0
O332 O 0.70142 0.56265 0.29281 0.0
O333 O 0.72443 0.54668 0.27139 0.0
O334 O 0.65228 0.54921 0.31573 0.0
O335 O 0.66329 0.51804 0.32073 0.0
Eu336 Eu 0.04377 0.04262 0.01826 0.0
C337 C 0.11931 0.12845 0.07197 0.0
C338 C 0.12938 0.15139 0.04176 0.0
C339 C 0.13859 0.17153 0.08281 0.0
C340 C 0.11938 0.12933 0.04847 0.0
C341 C 0.12924 0.1495 0.08943 0.0
C342 C 0.13867 0.17247 0.05902 0.0
C343 C 0.12203 0.1251 0.1188 0.0
N344 N 0.11067 0.10678 0.07785 0.0
C345 C 0.11266 0.10473 0.10092 0.0
C346 C 0.13019 0.14765 0.11305 0.0
Eu347 Eu 0.09632 0.07207 0.04686 0.0
N348 N 0.11065 0.1085 0.03219 0.0
C349 C 0.11213 0.1088 0.0088 0.0
C350 C 0.13036 0.15158 0.01793 0.0
C351 C 0.12179 0.13014 1.00141 0.0
H352 H 0.10703 0.08722 0.10562 0.0
H353 H 0.12249 0.13 0.98286 0.0
H354 H 0.14637 0.18948 0.05413 0.0
H355 H 0.12323 0.12331 0.13698 0.0
H356 H 0.10523 0.09308 0.99514 0.0
H357 H 0.01937 0.98328 0.08129 0.0
H358 H 0.13794 0.16809 0.01212 0.0
H359 H 0.03239 0.02894 0.95977 0.0
H360 H 0.0358 0.02086 0.06937 0.0
H361 H 0.01573 0.99344 0.92783 0.0
H362 H 0.14625 0.18783 0.09596 0.0
H363 H 1.00373 0.94556 0.05153 0.0
H364 H 0.99427 0.92507 0.00925 0.0
H365 H 0.13772 0.16337 0.12691 0.0
H366 H 0.99342 0.92771 0.96759 0.0
N367 N 0.0301 1.00586 0.03234 0.0
C368 C 0.02894 1.00517 0.05567 0.0
C369 C 0.01104 0.96229 0.04596 0.0
C370 C 0.01149 0.963 0.02216 0.0
C371 C 0.01972 0.98352 0.06277 0.0
C372 C 0.02127 0.98529 0.01578 0.0
H373 H 1.00133 0.953 0.93716 0.0
N374 N 0.0295 1.00854 0.98681 0.0
C375 C 0.01737 0.99117 0.94584 0.0
C376 C 0.02095 0.98669 0.99235 0.0
C377 C 0.02712 1.01116 0.96396 0.0
C378 C 0.00923 0.96841 0.95119 0.0
C379 C 0.01065 0.96599 0.97466 0.0
O380 O 0.02169 0.05567 0.99727 0.0
O381 O 0.06608 0.08069 0.03211 0.0
O382 O 0.07404 0.07777 0.07669 0.0
O383 O 0.03956 0.05709 0.05756 0.0
O384 O 0.05398 0.07103 0.99665 0.0
O385 O 0.01144 0.04327 0.02869 0.0
O386 O 0.11955 0.06216 0.06954 0.0
O387 O 0.07409 0.03437 0.03275 0.0
O388 O 0.06552 0.0354 0.98867 0.0
O389 O 0.09988 0.05744 1.00719 0.0
O390 O 0.0862 0.043 0.06804 0.0
O391 O 0.12695 0.06677 0.03463 0.0
C392 C 0.06429 0.08899 0.01324 0.0
C393 C 0.98395 0.04328 0.999 0.0
C394 C 0.94781 0.0494 0.99789 0.0
C395 C 0.96834 0.05263 0.01005 0.0
C396 C 0.9425 0.03534 0.97489 0.0
C397 C 0.97866 0.02943 0.97595 0.0
C398 C 0.95786 0.0252 0.96409 0.0
C399 C 0.05256 0.06949 0.07718 0.0
C400 C 1.00627 0.05194 0.01066 0.0
C401 C 1.00139 0.94375 0.98093 0.0
C402 C 1.00185 0.94225 1.00463 0.0
C403 C 0.07598 0.02539 0.05108 0.0
C404 C 0.1564 0.06814 0.0628 0.0
C405 C 0.16935 0.0545 0.05159 0.0
C406 C 0.19113 0.05853 0.06055 0.0
C407 C 0.20009 0.07639 0.08089 0.0
C408 C 0.1653 0.08593 0.08324 0.0
C409 C 0.18714 0.09 0.09223 0.0
C410 C 0.08678 0.04442 0.98773 0.0
C411 C 0.1332 0.06112 0.05411 0.0
H412 H 0.97262 0.06359 0.02776 0.0
H413 H 0.92684 0.03297 0.96495 0.0
H414 H 0.99064 0.02265 0.96677 0.0
H415 H 0.95393 0.01485 0.94619 0.0
H416 H 0.16237 0.04042 0.03605 0.0
H417 H 0.21692 0.0795 0.08813 0.0
H418 H 0.15535 0.09629 0.09241 0.0
H419 H 0.19397 0.10351 0.10812 0.0
Eu420 Eu 0.3261 0.79833 0.23982 0.0
C421 C 0.29418 0.86891 0.31932 0.0
C422 C 0.32668 0.89467 0.34401 0.0
C423 C 0.29309 0.90712 0.34402 0.0
C424 C 0.31597 0.87337 0.32717 0.0
C425 C 0.28232 0.88546 0.32808 0.0
C426 C 0.31525 0.9117 0.35199 0.0
C427 C 0.24936 0.85615 0.30804 0.0
N428 N 0.28405 0.84729 0.30493 0.0
C429 C 0.26179 0.84018 0.30046 0.0
C430 C 0.25973 0.87908 0.32167 0.0
Eu431 Eu 0.30455 0.81883 0.29493 0.0
N432 N 0.32622 0.85601 0.31981 0.0
C433 C 0.34717 0.85877 0.32943 0.0
C434 C 0.34824 0.8977 0.35323 0.0
C435 C 0.35846 0.87957 0.34601 0.0
H436 H 0.2536 0.82179 0.29155 0.0
H437 H 0.3751 0.88157 0.35319 0.0
H438 H 0.32322 0.92809 0.36492 0.0
H439 H 0.23176 0.85046 0.30399 0.0
H440 H 0.35588 0.84555 0.32408 0.0
H441 H 0.24591 0.73875 0.19442 0.0
H442 H 0.35696 0.91368 0.36627 0.0
H443 H 0.37409 0.78424 0.24473 0.0
H444 H 0.26936 0.77371 0.22149 0.0
H445 H 0.39039 0.7523 0.22777 0.0
H446 H 0.28425 0.91999 0.35096 0.0
H447 H 0.26093 0.70648 0.17427 0.0
H448 H 0.29291 0.68999 0.16773 0.0
H449 H 0.25003 0.89122 0.3281 0.0
H450 H 0.33176 0.69324 0.17727 0.0
N451 N 0.29899 0.76288 0.21733 0.0
C452 C 0.277 0.76056 0.21293 0.0
C453 C 0.27167 0.72201 0.18642 0.0
C454 C 0.29381 0.72375 0.19136 0.0
C455 C 0.26318 0.74025 0.19763 0.0
C456 C 0.30715 0.74427 0.20756 0.0
H457 H 0.36782 0.71581 0.19997 0.0
N458 N 0.34143 0.76505 0.2296 0.0
C459 C 0.373 0.74984 0.22401 0.0
C460 C 0.32891 0.74551 0.21369 0.0
C461 C 0.36342 0.76769 0.23416 0.0
C462 C 0.36024 0.7294 0.20824 0.0
C463 C 0.33802 0.72708 0.20274 0.0
O464 O 0.35925 0.81682 0.234 0.0
O465 O 0.32938 0.8277 0.27106 0.0
O466 O 0.28501 0.82816 0.26439 0.0
O467 O 0.29557 0.81008 0.22878 0.0
O468 O 0.32835 0.83744 0.23818 0.0
O469 O 0.33449 0.79701 0.20428 0.0
O470 O 0.27798 0.79579 0.30838 0.0
O471 O 0.30868 0.78755 0.26907 0.0
O472 O 0.34774 0.79226 0.27063 0.0
O473 O 0.33534 0.80769 0.30537 0.0
O474 O 0.277 0.78889 0.27428 0.0
O475 O 0.30934 0.81021 0.32977 0.0
C476 C 0.33027 0.84495 0.26066 0.0
C477 C 0.36668 0.8229 0.19556 0.0
C478 C 0.36794 0.84894 0.16736 0.0
C479 C 0.35735 0.83796 0.18449 0.0
C480 C 0.38792 0.8448 0.1615 0.0
C481 C 0.3866 0.81886 0.18965 0.0
C482 C 0.39718 0.82981 0.17265 0.0
C483 C 0.28252 0.8213 0.24086 0.0
C484 C 0.35492 0.80891 0.21125 0.0
C485 C 0.32494 0.7073 0.18604 0.0
C486 C 0.30286 0.70553 0.18052 0.0
C487 C 0.289 0.77557 0.26528 0.0
C488 C 0.27785 0.79706 0.34872 0.0
C489 C 0.28276 0.7829 0.36397 0.0
C490 C 0.26925 0.777 0.38107 0.0
C491 C 0.25139 0.78691 0.38396 0.0
C492 C 0.25993 0.80686 0.35136 0.0
C493 C 0.2469 0.80201 0.36923 0.0
C494 C 0.34937 0.79786 0.29403 0.0
C495 C 0.28933 0.79691 0.32799 0.0
H496 H 0.34177 0.84074 0.18886 0.0
H497 H 0.39607 0.85269 0.1479 0.0
H498 H 0.39365 0.80672 0.19775 0.0
H499 H 0.41236 0.82632 0.1678 0.0
H500 H 0.2966 0.77534 0.36165 0.0
H501 H 0.24061 0.78242 0.39705 0.0
H502 H 0.2556 0.81747 0.33928 0.0
H503 H 0.2329 0.80925 0.37114 0.0
Eu504 Eu 0.59949 0.05253 0.52572 0.0
C505 C 0.52069 1.00519 0.57145 0.0
C506 C 0.50286 0.97176 0.53909 0.0
C507 C 0.49787 0.96769 0.5793 0.0
C508 C 0.51657 0.99548 0.54754 0.0
C509 C 0.51093 0.9916 0.58756 0.0
C510 C 0.49388 0.95778 0.55511 0.0
C511 C 0.52574 0.02712 0.61856 0.0
N512 N 0.53315 0.02843 0.57889 0.0
C513 C 0.5349 0.0399 0.60188 0.0
C514 C 0.51395 1.00274 0.61142 0.0
Eu515 Eu 0.54761 0.049 0.54954 0.0
N516 N 0.52513 1.00959 0.53247 0.0
C517 C 0.51982 1.00151 0.50873 0.0
C518 C 0.49815 0.96301 0.51476 0.0
C519 C 0.50651 0.97805 0.49953 0.0
H520 H 0.54385 0.05885 0.60733 0.0
H521 H 0.5027 0.97161 0.48069 0.0
H522 H 0.4834 0.9395 0.54895 0.0
H523 H 0.52768 0.03609 0.63686 0.0
H524 H 0.52608 1.0129 0.49677 0.0
H525 H 0.65146 0.12652 0.59584 0.0
H526 H 0.48774 0.94488 0.50759 0.0
H527 H 0.60038 0.04759 0.46714 0.0
H528 H 0.62761 0.08664 0.58004 0.0
H529 H 0.61392 0.07291 0.43911 0.0
H530 H 0.49034 0.95693 0.59142 0.0
H531 H 0.66305 0.15539 0.57002 0.0
H532 H 0.66357 0.16366 0.52973 0.0
H533 H 0.50671 0.99292 0.62433 0.0
H534 H 0.65331 0.14926 0.48722 0.0
N535 N 0.62343 0.09166 0.54442 0.0
C536 C 0.6316 0.09838 0.56785 0.0
C537 C 0.65199 0.13765 0.56266 0.0
C538 C 0.64477 0.13054 0.53864 0.0
C539 C 0.64556 0.12139 0.57725 0.0
C540 C 0.63025 0.10719 0.52982 0.0
H541 H 0.63495 0.11571 0.45344 0.0
N542 N 0.6111 0.07637 0.49742 0.0
C543 C 0.61653 0.08076 0.45776 0.0
C544 C 0.624 0.09931 0.50576 0.0
C545 C 0.60852 0.06658 0.47382 0.0
C546 C 0.62839 0.10486 0.46592 0.0
C547 C 0.63275 0.11426 0.49013 0.0
O548 O 0.61184 0.02902 0.49962 0.0
O549 O 0.56606 0.02708 0.52655 0.0
O550 O 0.56872 0.03942 0.5768 0.0
O551 O 0.60271 0.05177 0.56365 0.0
O552 O 0.59294 0.01506 0.53415 0.0
O553 O 0.63253 0.04809 0.53287 0.0
O554 O 0.53406 0.0778 0.56614 0.0
O555 O 0.57721 0.07471 0.54021 0.0
O556 O 0.57362 0.04727 0.49492 0.0
O557 O 0.54601 0.05848 0.51437 0.0
O558 O 0.56878 0.08326 0.57391 0.0
O559 O 0.51502 0.05116 0.53643 0.0
C560 C 0.57196 1.00888 0.53138 0.0
C561 C 0.64791 0.02255 0.50417 0.0
C562 C 0.6773 1.00344 0.5104 0.0
C563 C 0.66124 0.01423 0.51937 0.0
C564 C 0.68028 1.00177 0.48655 0.0
C565 C 0.65119 0.02055 0.48038 0.0
C566 C 0.6674 1.01039 0.47171 0.0
C567 C 0.59017 0.0443 0.57931 0.0
C568 C 0.6305 0.0333 0.51259 0.0
C569 C 0.64653 0.13763 0.49899 0.0
C570 C 0.65243 0.14579 0.52319 0.0
C571 C 0.58137 0.09117 0.55887 0.0
C572 C 0.49618 0.07449 0.56146 0.0
C573 C 0.48282 0.08548 0.5494 0.0
C574 C 0.46566 0.09272 0.5599 0.0
C575 C 0.46167 0.08842 0.58237 0.0
C576 C 0.49177 0.07003 0.58378 0.0
C577 C 0.47453 0.07691 0.59411 0.0
C578 C 0.55509 0.05354 0.49521 0.0
C579 C 0.51611 0.07087 0.55175 0.0
H580 H 0.65879 0.01558 0.53776 0.0
H581 H 0.69268 0.99374 0.47939 0.0
H582 H 0.6413 0.02705 0.46851 0.0
H583 H 0.66992 1.00906 0.45337 0.0
H584 H 0.48631 0.08928 0.53228 0.0
H585 H 0.44854 0.09389 0.59078 0.0
H586 H 0.50194 0.06185 0.59346 0.0
H587 H 0.47134 0.07367 0.61143 0.0
Eu588 Eu 0.29188 0.29935 0.77073 0.0
C589 C 0.36682 0.27075 0.81327 0.0
C590 C 0.38106 0.30551 0.84544 0.0
C591 C 0.38374 0.2657 0.85016 0.0
C592 C 0.3704 0.29528 0.82239 0.0
C593 C 0.37407 0.25583 0.82687 0.0
C594 C 0.3872 0.29049 0.85943 0.0
C595 C 0.36432 0.22321 0.79261 0.0
N596 N 0.35771 0.26182 0.79059 0.0
C597 C 0.35765 0.23876 0.77978 0.0
C598 C 0.37222 0.23165 0.81639 0.0
Eu599 Eu 0.34609 0.2896 0.7703 0.0
N600 N 0.36446 0.30941 0.8084 0.0
C601 C 0.36993 0.3341 0.81594 0.0
C602 C 0.38576 0.33063 0.85354 0.0
C603 C 0.38047 0.34502 0.83858 0.0
H604 H 0.35198 0.23232 0.76121 0.0
H605 H 0.38438 0.36454 0.84449 0.0
H606 H 0.3952 0.29799 0.87722 0.0
H607 H 0.36356 0.2048 0.7841 0.0
H608 H 0.366 0.34562 0.80482 0.0
H609 H 0.23911 0.21807 0.70853 0.0
H610 H 0.3939 0.33915 0.87111 0.0
H611 H 0.28688 0.356 0.77161 0.0
H612 H 0.25843 0.24056 0.7462 0.0
H613 H 0.27762 0.38019 0.74394 0.0
H614 H 0.3892 0.25446 0.86092 0.0
H615 H 0.23547 0.23895 0.67583 0.0
H616 H 0.24046 0.27788 0.66212 0.0
H617 H 0.3776 0.21965 0.82626 0.0
H618 H 0.25087 0.32243 0.67182 0.0
N619 N 0.26948 0.27466 0.73528 0.0
C620 C 0.25884 0.25038 0.73223 0.0
C621 C 0.24491 0.24912 0.69237 0.0
C622 C 0.25372 0.27424 0.69613 0.0
C623 C 0.24696 0.23729 0.71075 0.0
C624 C 0.26583 0.28676 0.71812 0.0
H625 H 0.26412 0.36065 0.70241 0.0
N626 N 0.28104 0.32341 0.74563 0.0
C627 C 0.2763 0.3611 0.73778 0.0
C628 C 0.27181 0.3119 0.72348 0.0
C629 C 0.28182 0.34732 0.75334 0.0
C630 C 0.26874 0.35002 0.71438 0.0
C631 C 0.2657 0.325 0.70714 0.0
O632 O 0.27934 0.32287 0.79714 0.0
O633 O 0.32422 0.30603 0.79286 0.0
O634 O 0.32292 0.25325 0.77568 0.0
O635 O 0.28825 0.25916 0.77163 0.0
O636 O 0.29652 0.28709 0.80478 0.0
O637 O 0.25856 0.28748 0.78012 0.0
O638 O 0.36276 0.27986 0.73965 0.0
O639 O 0.31755 0.29295 0.74731 0.0
O640 O 0.31677 0.33774 0.77336 0.0
O641 O 0.34952 0.32903 0.76506 0.0
O642 O 0.32822 0.262 0.73816 0.0
O643 O 0.38061 0.30768 0.76835 0.0
C644 C 0.31707 0.2971 0.81012 0.0
C645 C 0.24075 0.31534 0.80081 0.0
C646 C 0.20543 0.3105 0.81702 0.0
C647 C 0.22398 0.30202 0.81205 0.0
C648 C 0.20416 0.33244 0.81091 0.0
C649 C 0.23881 0.33715 0.79505 0.0
C650 C 0.22068 0.34561 0.80013 0.0
C651 C 0.30125 0.24497 0.77418 0.0
C652 C 0.26054 0.3069 0.79619 0.0
C653 C 0.25539 0.31262 0.68464 0.0
C654 C 0.24945 0.28725 0.67913 0.0
C655 C 0.31524 0.27395 0.73135 0.0
C656 C 0.40107 0.28593 0.74438 0.0
C657 C 0.41646 0.29556 0.72983 0.0
C658 C 0.43461 0.28615 0.72604 0.0
C659 C 0.43693 0.26681 0.73639 0.0
C660 C 0.40425 0.26712 0.75505 0.0
C661 C 0.42184 0.25739 0.75082 0.0
C662 C 0.33751 0.34484 0.76871 0.0
C663 C 0.38153 0.29507 0.74782 0.0
H664 H 0.22528 0.28517 0.8167 0.0
H665 H 0.19025 0.33948 0.81458 0.0
H666 H 0.25137 0.34781 0.78677 0.0
H667 H 0.21941 0.36253 0.79567 0.0
H668 H 0.41445 0.31034 0.7217 0.0
H669 H 0.45067 0.25923 0.73356 0.0
H670 H 0.39325 0.25999 0.76675 0.0
H671 H 0.4239 0.24266 0.75895 0.0
Eu672 Eu 0.06892 0.07912 0.5402 0.0
C673 C 0.08571 1.00096 0.46593 0.0
C674 C 0.05033 0.98631 0.44251 0.0
C675 C 0.0829 0.98374 0.42408 0.0
C676 C 0.06336 0.99741 0.46428 0.0
C677 C 0.09566 0.99353 0.44595 0.0
C678 C 0.06027 0.98012 0.42237 0.0
C679 C 0.12966 1.00304 0.47112 0.0
N680 N 0.09754 1.00992 0.48738 0.0
C681 C 0.11901 1.00982 0.4904 0.0
C682 C 0.11801 0.99522 0.44871 0.0
Eu683 Eu 0.07899 0.0227 0.51943 0.0
N684 N 0.05422 1.00323 0.4842 0.0
C685 C 0.03188 0.99689 0.48347 0.0
C686 C 0.02763 0.9808 0.44174 0.0
C687 C 0.01839 0.98571 0.4624 0.0
H688 H 0.1281 0.01556 0.50775 0.0
H689 H 1.0008 0.98119 0.46211 0.0
H690 H 0.05051 0.97179 0.40553 0.0
H691 H 0.14681 1.00371 0.4736 0.0
H692 H 0.02385 1.00072 0.49872 0.0
H693 H 0.1459 0.11539 0.59984 0.0
H694 H 0.0171 0.97221 0.42542 0.0
H695 H 0.01974 0.08707 0.54948 0.0
H696 H 0.1232 0.09569 0.56284 0.0
H697 H 1.00108 0.10341 0.58187 0.0
H698 H 0.09029 0.97814 0.40854 0.0
H699 H 0.12928 0.12946 0.63495 0.0
H700 H 0.09598 0.13545 0.65271 0.0
H701 H 0.12622 0.98972 0.43381 0.0
H702 H 0.05666 0.13223 0.6479 0.0
N703 N 0.09294 0.09769 0.57593 0.0
C704 C 0.11521 0.10172 0.57752 0.0
C705 C 0.11897 0.12065 0.61854 0.0
C706 C 0.09641 0.11758 0.61675 0.0
C707 C 0.12841 0.11286 0.59877 0.0
C708 C 0.08365 0.10591 0.59495 0.0
H709 H 0.0213 0.12058 0.62159 0.0
N710 N 0.0499 0.09361 0.57093 0.0
C711 C 0.01801 0.10344 0.58514 0.0
C712 C 0.0615 0.10388 0.59234 0.0
C713 C 0.02861 0.09408 0.5669 0.0
C714 C 0.02947 0.1131 0.60752 0.0
C715 C 0.05155 0.11374 0.61129 0.0
O716 O 0.0515 0.10122 0.52457 0.0
O717 O 0.06929 0.05322 0.50608 0.0
O718 O 0.10814 0.04955 0.51034 0.0
O719 O 0.10231 0.08651 0.52666 0.0
O720 O 0.04089 0.06353 0.51051 0.0
O721 O 0.08642 0.11512 0.53491 0.0
O722 O 0.09766 1.00049 0.5329 0.0
O723 O 0.07867 0.0482 0.55402 0.0
O724 O 0.03913 0.05284 0.54912 0.0
O725 O 0.04583 0.01615 0.53345 0.0
O726 O 0.10721 0.03835 0.54855 0.0
O727 O 0.06231 0.98723 0.52618 0.0
C728 C 0.05072 0.0524 0.49534 0.0
C729 C 0.06641 0.14348 0.52879 0.0
C730 C 0.07373 0.18173 0.51582 0.0
C731 C 0.07719 0.15881 0.51485 0.0
C732 C 0.05943 0.18941 0.53083 0.0
C733 C 0.05205 0.15115 0.54379 0.0
C734 C 0.0486 0.17411 0.54476 0.0
C735 C 0.11438 0.07347 0.5159 0.0
C736 C 0.06888 0.11883 0.5252 0.0
C737 C 0.06405 0.12467 0.63315 0.0
C738 C 0.08643 0.12652 0.63588 0.0
C739 C 0.09736 0.04848 0.56442 0.0
C740 C 0.0823 0.95838 0.52912 0.0
C741 C 0.07055 0.94262 0.54202 0.0
C742 C 0.07284 0.91917 0.53994 0.0
C743 C 0.08699 0.91131 0.52479 0.0
C744 C 0.09663 0.95072 0.51407 0.0
C745 C 0.09892 0.92715 0.51196 0.0
C746 C 0.03322 0.02887 0.54363 0.0
C747 C 0.08047 0.98319 0.53376 0.0
H748 H 0.08805 0.1528 0.50296 0.0
H749 H 0.05655 0.20711 0.5316 0.0
H750 H 0.04331 0.13937 0.5544 0.0
H751 H 0.03739 0.17996 0.55616 0.0
H752 H 0.05969 0.94869 0.55388 0.0
H753 H 0.08893 0.89312 0.52312 0.0
H754 H 0.10614 0.96291 0.50429 0.0
H755 H 0.11006 0.92121 0.5005 0.0
Eu756 Eu 0.34513 0.81788 0.75389 0.0
C757 C 0.28239 0.73994 0.79251 0.0
C758 C 0.28573 0.70242 0.76889 0.0
C759 C 0.27421 0.7028 0.80784 0.0
C760 C 0.28754 0.72754 0.77194 0.0
C761 C 0.27521 0.72755 0.81046 0.0
C762 C 0.27947 0.69027 0.7871 0.0
C763 C 0.26816 0.76428 0.83121 0.0
N764 N 0.28294 0.76369 0.79433 0.0
C765 C 0.27507 0.77566 0.81282 0.0
C766 C 0.26845 0.74018 0.83015 0.0
Eu767 Eu 0.29447 0.78165 0.76238 0.0
N768 N 0.293 0.73962 0.75437 0.0
C769 C 0.29579 0.72725 0.73293 0.0
C770 C 0.28951 0.69001 0.74732 0.0
C771 C 0.29431 0.70243 0.72919 0.0
H772 H 0.27445 0.79415 0.81346 0.0
H773 H 0.29689 0.69293 0.71228 0.0
H774 H 0.27808 0.67102 0.78507 0.0
H775 H 0.26242 0.77401 0.84607 0.0
H776 H 0.29957 0.73627 0.71856 0.0
H777 H 0.33872 0.90717 0.79932 0.0
H778 H 0.28825 0.67073 0.7443 0.0
H779 H 0.37008 0.80574 0.70652 0.0
H780 H 0.33706 0.86435 0.79516 0.0
H781 H 0.38327 0.82464 0.6735 0.0
H782 H 0.26882 0.69302 0.82148 0.0
H783 H 0.34897 0.92834 0.76696 0.0
H784 H 0.36125 0.92702 0.72697 0.0
H785 H 0.26282 0.73129 0.84429 0.0
H786 H 0.37284 0.90445 0.69243 0.0
N787 N 0.34581 0.85992 0.76004 0.0
C788 C 0.34157 0.87276 0.78057 0.0
C789 C 0.34819 0.90922 0.76485 0.0
C790 C 0.35341 0.89644 0.74428 0.0
C791 C 0.34246 0.89737 0.78315 0.0
C792 C 0.35219 0.87153 0.7424 0.0
H793 H 0.38111 0.86631 0.67233 0.0
N794 N 0.35875 0.83546 0.72244 0.0
C795 C 0.37617 0.83438 0.68714 0.0
C796 C 0.35869 0.85886 0.72295 0.0
C797 C 0.3685 0.82364 0.70567 0.0
C798 C 0.37491 0.85789 0.68655 0.0
C799 C 0.36664 0.87069 0.7049 0.0
O800 O 0.3768 0.81016 0.75402 0.0
O801 O 0.33018 0.78087 0.76306 0.0
O802 O 0.3143 0.79061 0.79761 0.0
O803 O 0.33896 0.82486 0.79164 0.0
O804 O 0.34961 0.78074 0.7365 0.0
O805 O 0.37238 0.8394 0.7804 0.0
O806 O 0.26277 0.78854 0.7661 0.0
O807 O 0.30905 0.81848 0.75275 0.0
O808 O 0.32693 0.80827 0.71772 0.0
O809 O 0.2989 0.77674 0.72405 0.0
O810 O 0.29004 0.81825 0.77971 0.0
O811 O 0.2663 0.76161 0.73657 0.0
C812 C 0.33919 0.76692 0.74943 0.0
C813 C 0.40822 0.84119 0.77077 0.0
C814 C 0.44659 0.84994 0.78493 0.0
C815 C 0.4247 0.83941 0.78688 0.0
C816 C 0.45207 0.86246 0.76679 0.0
C817 C 0.41369 0.85389 0.75274 0.0
C818 C 0.43561 0.86447 0.75078 0.0
C819 C 0.32942 0.81106 0.80544 0.0
C820 C 0.38587 0.82747 0.77201 0.0
C821 C 0.36694 0.89512 0.70621 0.0
C822 C 0.36037 0.90798 0.72588 0.0
C823 C 0.29951 0.832 0.76624 0.0
C824 C 0.23114 0.75816 0.74868 0.0
C825 C 0.21395 0.76157 0.7347 0.0
C826 C 0.19239 0.7496 0.73656 0.0
C827 C 0.188 0.73394 0.7524 0.0
C828 C 0.22677 0.74272 0.7647 0.0
C829 C 0.2052 0.7306 0.76649 0.0
C830 C 0.30994 0.78943 0.71016 0.0
C831 C 0.25312 0.77259 0.74728 0.0
H832 H 0.42055 0.82912 0.80052 0.0
H833 H 0.46903 0.87016 0.76477 0.0
H834 H 0.4012 0.8553 0.74003 0.0
H835 H 0.43984 0.87386 0.7366 0.0
H836 H 0.21732 0.77401 0.72274 0.0
H837 H 0.17132 0.72495 0.75436 0.0
H838 H 0.23988 0.7403 0.77596 0.0
H839 H 0.20178 0.71892 0.77905 0.0
Eu840 Eu 0.57734 0.04709 0.06731 0.0
C841 C 0.51186 0.06075 0.98821 0.0
C842 C 0.49232 0.02141 0.96437 0.0
C843 C 0.4752 0.05448 0.96859 0.0
C844 C 0.51114 0.03676 0.97903 0.0
C845 C 0.49421 0.07004 0.98211 0.0
C846 C 0.47418 0.03017 0.95989 0.0
C847 C 0.51653 0.11027 0.99983 0.0
N848 N 0.5305 0.0756 1.00111 0.0
C849 C 0.53349 0.10032 1.00542 0.0
C850 C 0.49661 0.09501 0.98857 0.0
Eu851 Eu 0.55952 0.05763 0.00817 0.0
N852 N 0.52924 0.02891 0.98291 0.0
C853 C 0.52988 1.00653 0.97082 0.0
C854 C 0.49245 0.99787 0.95388 0.0
C855 C 0.51142 0.99055 0.95685 0.0
H856 H 0.54901 0.11256 0.01358 0.0
H857 H 0.51202 0.97271 0.94796 0.0
H858 H 0.45961 0.01853 0.9489 0.0
H859 H 0.51897 0.12976 1.00393 0.0
H860 H 0.54453 1.00056 0.9711 0.0
H861 H 0.63326 0.13687 0.10735 0.0
H862 H 0.47828 0.98555 0.94272 0.0
H863 H 0.58688 0.99163 0.06188 0.0
H864 H 0.60056 0.10915 0.08382 0.0
H865 H 0.61467 0.97358 0.07656 0.0
H866 H 0.46147 0.06129 0.96401 0.0
H867 H 0.6618 0.121 0.12446 0.0
H868 H 0.67547 0.08544 0.12948 0.0
H869 H 0.48356 0.10281 0.98393 0.0
H870 H 0.67069 0.04138 0.12074 0.0
N871 N 0.60932 0.07678 0.08792 0.0
C872 C 0.61222 0.10139 0.09154 0.0
C873 C 0.64721 0.10845 0.11425 0.0
C874 C 0.64456 0.0834 0.11008 0.0
C875 C 0.6311 0.11746 0.1047 0.0
C876 C 0.62534 0.06776 0.09645 0.0
H877 H 0.64842 0.99983 0.10085 0.0
N878 N 0.60506 0.02827 0.07656 0.0
C879 C 0.61738 0.99311 0.08048 0.0
C880 C 0.62306 0.0429 0.09078 0.0
C881 C 0.60174 1.00352 0.07206 0.0
C882 C 0.63634 1.00797 0.09424 0.0
C883 C 0.63937 0.03312 0.09962 0.0
O884 O 0.56069 0.01405 0.07832 0.0
O885 O 0.55298 0.03544 0.03509 0.0
O886 O 0.54923 0.08188 0.03797 0.0
O887 O 0.56681 0.08136 0.07472 0.0
O888 O 0.54076 0.03949 0.06741 0.0
O889 O 0.57162 0.04936 0.10397 0.0
O890 O 0.57555 0.09089 0.99715 0.0
O891 O 0.58406 0.0693 0.04029 0.0
O892 O 0.58953 0.0241 0.03827 0.0
O893 O 0.56632 0.02094 1.0044 0.0
O894 O 0.59587 0.06562 0.0076 0.0
O895 O 0.56808 0.05513 0.97246 0.0
C896 C 0.53601 0.03314 0.04501 0.0
C897 C 0.55329 0.01389 0.11838 0.0
C898 C 0.53314 0.01387 0.15206 0.0
C899 C 0.54298 0.02583 0.13524 0.0
C900 C 0.53393 0.98998 0.15222 0.0
C901 C 0.55379 0.98988 0.11829 0.0
C902 C 0.54422 0.97803 0.13532 0.0
C903 C 0.55481 0.09004 0.06088 0.0
C904 C 0.56198 0.02596 0.09992 0.0
C905 C 0.65809 0.04861 0.11376 0.0
C906 C 0.66075 0.07368 0.11883 0.0
C907 C 0.60087 0.07174 0.02998 0.0
C908 C 0.58594 0.09072 0.95813 0.0
C909 C 0.59704 0.07872 0.94229 0.0
C910 C 0.608 0.0907 0.92623 0.0
C911 C 0.60759 0.11455 0.92548 0.0
C912 C 0.58556 0.11467 0.95765 0.0
C913 C 0.59629 0.12649 0.94119 0.0
C914 C 0.5814 0.0143 0.01622 0.0
C915 C 0.5764 0.07874 0.97621 0.0
H916 H 0.54212 0.04419 0.13496 0.0
H917 H 0.52613 0.9804 0.16502 0.0
H918 H 0.56146 0.98033 0.10505 0.0
H919 H 0.54451 0.95948 0.13523 0.0
H920 H 0.59764 0.06032 0.9428 0.0
H921 H 0.61599 0.12384 0.91281 0.0
H922 H 0.57711 0.12419 0.97003 0.0
H923 H 0.59599 0.14494 0.94073 0.0
Eu924 Eu 0.32712 0.31551 0.27709 0.0
C925 C 0.23874 0.23212 0.23 0.0
C926 C 0.2199 0.22273 0.26322 0.0
C927 C 0.2009 0.20758 0.22367 0.0
C928 C 0.23898 0.2337 0.25394 0.0
C929 C 0.21969 0.21899 0.21455 0.0
C930 C 0.20099 0.2095 0.24796 0.0
C931 C 0.23957 0.22773 0.18199 0.0
N932 N 0.2573 0.24281 0.2217 0.0
C933 C 0.25807 0.24013 0.19794 0.0
C934 C 0.22024 0.21712 0.19033 0.0
Eu935 Eu 0.28979 0.25722 0.24867 0.0
N936 N 0.25776 0.24607 0.26815 0.0
C937 C 0.25795 0.24894 0.29209 0.0
C938 C 0.22036 0.22529 0.28756 0.0
C939 C 0.23938 0.23874 0.30205 0.0
H940 H 0.27337 0.24629 0.19119 0.0
H941 H 0.23984 0.24112 0.32097 0.0
H942 H 0.18635 0.20067 0.25479 0.0
H943 H 0.24046 0.22569 0.16326 0.0
H944 H 0.27216 0.25931 0.30406 0.0
H945 H 0.37442 0.33118 0.20253 0.0
H946 H 0.20607 0.21715 0.29535 0.0
H947 H 0.3448 0.32774 0.33397 0.0
H948 H 0.34305 0.31256 0.22065 0.0
H949 H 0.37768 0.35116 0.36099 0.0
H950 H 0.18624 0.19718 0.21207 0.0
H951 H 0.40826 0.35673 0.22709 0.0
H952 H 0.42854 0.37512 0.26714 0.0
H953 H 0.20603 0.20705 0.17793 0.0
H954 H 0.42964 0.3801 0.31006 0.0
N955 N 0.35822 0.32681 0.25618 0.0
C956 C 0.35737 0.32352 0.23215 0.0
C957 C 0.39445 0.34831 0.2354 0.0
C958 C 0.39553 0.35148 0.25984 0.0
C959 C 0.37538 0.33399 0.22151 0.0
C960 C 0.37708 0.34004 0.26982 0.0
H961 H 0.41105 0.37081 0.34509 0.0
N962 N 0.36009 0.33094 0.30295 0.0
C963 C 0.37821 0.34838 0.34217 0.0
C964 C 0.378 0.34223 0.29392 0.0
C965 C 0.3598 0.33444 0.32678 0.0
C966 C 0.39693 0.35956 0.33313 0.0
C967 C 0.39696 0.35675 0.30877 0.0
O968 O 0.32265 0.34274 0.30586 0.0
O969 O 0.29161 0.29511 0.26668 0.0
O970 O 0.28653 0.28282 0.22366 0.0
O971 O 0.3138 0.31835 0.24054 0.0
O972 O 0.30224 0.30977 0.30206 0.0
O973 O 0.32662 0.35123 0.27074 0.0
O974 O 0.29227 0.22776 0.22074 0.0
O975 O 0.3245 0.27816 0.25892 0.0
O976 O 0.33338 0.28944 0.30008 0.0
O977 O 0.3028 0.25629 0.28658 0.0
O978 O 0.3153 0.26114 0.22383 0.0
O979 O 0.29414 0.22358 0.25753 0.0
C980 C 0.28535 0.30001 0.28669 0.0
C981 C 0.32346 0.38314 0.30218 0.0
C982 C 0.31129 0.41747 0.29595 0.0
C983 C 0.3136 0.39453 0.28746 0.0
C984 C 0.31938 0.42962 0.31918 0.0
C985 C 0.33133 0.39477 0.32562 0.0
C986 C 0.32943 0.41817 0.33403 0.0
C987 C 0.29891 0.30481 0.22299 0.0
C988 C 0.32462 0.35881 0.29282 0.0
C989 C 0.41507 0.36865 0.29893 0.0
C990 C 0.4144 0.3659 0.27451 0.0
C991 C 0.33148 0.27289 0.23954 0.0
C992 C 0.29706 0.18983 0.22778 0.0
C993 C 0.31151 0.18205 0.2415 0.0
C994 C 0.31572 0.15969 0.23379 0.0
C995 C 0.30506 0.14474 0.21234 0.0
C996 C 0.28675 0.17524 0.20603 0.0
C997 C 0.29065 0.15261 0.19844 0.0
C998 C 0.31963 0.2689 0.30271 0.0
C999 C 0.29457 0.21413 0.23549 0.0
H1000 H 0.30708 0.38526 0.26949 0.0
H1001 H 0.31737 0.44748 0.32589 0.0
H1002 H 0.33893 0.38584 0.33726 0.0
H1003 H 0.33544 0.42725 0.35208 0.0
H1004 H 0.31973 0.19356 0.25814 0.0
H1005 H 0.30808 0.12724 0.20629 0.0
H1006 H 0.27578 0.18133 0.19499 0.0
H1007 H 0.28262 0.14126 0.18174 0.0
Eu1008 Eu 0.57167 0.57465 0.04544 0.0
C1009 C 0.5901 0.49721 0.97077 0.0
C1010 C 0.55549 0.48364 0.94577 0.0
C1011 C 0.58852 0.47902 0.92931 0.0
C1012 C 0.56779 0.49433 0.96802 0.0
C1013 C 0.60061 0.48905 0.95152 0.0
C1014 C 0.56602 0.47641 0.92643 0.0
C1015 C 0.63401 0.49936 0.97784 0.0
N1016 N 0.60139 0.5068 0.99245 0.0
C1017 C 0.62292 0.50708 0.99636 0.0
C1018 C 0.62287 0.49054 0.95525 0.0
Eu1019 Eu 0.58143 0.51898 0.02342 0.0
N1020 N 0.55796 0.50112 0.98715 0.0
C1021 C 0.53563 0.49659 0.98511 0.0
C1022 C 0.53287 0.48005 0.94361 0.0
C1023 C 0.52291 0.4864 0.96342 0.0
H1024 H 0.63168 0.51367 0.01387 0.0
H1025 H 0.50536 0.48353 0.96202 0.0
H1026 H 0.55683 0.46828 0.90927 0.0
H1027 H 0.65112 0.50007 0.98105 0.0
H1028 H 0.52718 0.50159 0.99972 0.0
H1029 H 0.65077 0.61104 0.10145 0.0
H1030 H 0.52293 0.47204 0.92684 0.0
H1031 H 0.52249 0.58065 0.05827 0.0
H1032 H 0.62626 0.58829 0.06643 0.0
H1033 H 0.5051 0.59594 0.09216 0.0
H1034 H 0.59634 0.4728 0.91435 0.0
H1035 H 0.63623 0.6293 0.13639 0.0
H1036 H 0.60399 0.63624 0.15582 0.0
H1037 H 0.63145 0.48438 0.94094 0.0
H1038 H 0.56437 0.63094 0.15379 0.0
N1039 N 0.5971 0.59362 0.08014 0.0
C1040 C 0.61919 0.59639 0.08092 0.0
C1041 C 0.62515 0.61945 0.12075 0.0
C1042 C 0.60269 0.61668 0.12009 0.0
C1043 C 0.63341 0.6092 0.10109 0.0
C1044 C 0.5889 0.60363 0.09925 0.0
H1045 H 0.52742 0.61557 0.1304 0.0
N1046 N 0.55396 0.58896 0.07763 0.0
C1047 C 0.52239 0.5972 0.0942 0.0
C1048 C 0.56665 0.60075 0.09811 0.0
C1049 C 0.53226 0.58817 0.07514 0.0
C1050 C 0.53504 0.6083 0.1157 0.0
C1051 C 0.55752 0.6107 0.11774 0.0
O1052 O 0.55316 0.59767 0.03337 0.0
O1053 O 0.57194 0.54992 0.01029 0.0
O1054 O 0.61055 0.5459 0.01466 0.0
O1055 O 0.60456 0.58273 0.03106 0.0
O1056 O 0.54372 0.56032 0.0159 0.0
O1057 O 0.58865 0.61014 0.03839 0.0
O1058 O 0.59976 0.49673 0.03697 0.0
O1059 O 0.58054 0.54304 0.05899 0.0
O1060 O 0.54136 0.54759 0.05243 0.0
O1061 O 0.5476 0.5109 0.03595 0.0
O1062 O 0.60897 0.53364 0.05347 0.0
O1063 O 0.56479 0.48194 0.0266 0.0
C1064 C 0.55342 0.55006 0.99995 0.0
C1065 C 0.56883 0.63941 0.0341 0.0
C1066 C 0.57757 0.67666 0.01935 0.0
C1067 C 0.58107 0.65412 0.02049 0.0
C1068 C 0.562 0.68474 0.03212 0.0
C1069 C 0.55329 0.64757 0.04696 0.0
C1070 C 0.54998 0.67025 0.04598 0.0
C1071 C 0.61653 0.56976 0.0201 0.0
C1072 C 0.57041 0.61446 0.03146 0.0
C1073 C 0.57111 0.62324 0.13857 0.0
C1074 C 0.59366 0.62632 0.1397 0.0
C1075 C 0.59894 0.54275 0.06981 0.0
C1076 C 0.58609 0.4543 0.03071 0.0
C1077 C 0.57469 0.43781 0.04305 0.0
C1078 C 0.57904 0.4154 0.04197 0.0
C1079 C 0.59476 0.40917 0.02815 0.0
C1080 C 0.60203 0.44835 0.01701 0.0
C1081 C 0.60627 0.42572 0.01572 0.0
C1082 C 0.53502 0.52367 0.04609 0.0
C1083 C 0.58279 0.47845 0.03547 0.0
H1084 H 0.59271 0.64766 0.01007 0.0
H1085 H 0.559 0.70208 0.03111 0.0
H1086 H 0.54337 0.63621 0.05718 0.0
H1087 H 0.53778 0.67641 0.05558 0.0
H1088 H 0.56267 0.44263 0.054 0.0
H1089 H 0.59831 0.39179 0.02732 0.0
H1090 H 0.61141 0.46122 0.00779 0.0
H1091 H 0.61868 0.42114 1.00537 0.0
Eu1092 Eu 0.84447 0.31435 0.26576 0.0
C1093 C 0.78278 0.23669 0.30611 0.0
C1094 C 0.78634 0.19876 0.28351 0.0
C1095 C 0.77546 0.20039 0.32282 0.0
C1096 C 0.78769 0.22372 0.28572 0.0
C1097 C 0.77617 0.22501 0.32469 0.0
C1098 C 0.78058 0.18732 0.3023 0.0
C1099 C 0.76965 0.26228 0.34484 0.0
N1100 N 0.78344 0.26041 0.30738 0.0
C1101 C 0.77617 0.27302 0.32593 0.0
C1102 C 0.76988 0.23825 0.34434 0.0
Eu1103 Eu 0.79437 0.27725 0.27459 0.0
N1104 N 0.79292 0.2352 0.26771 0.0
C1105 C 0.79596 0.22234 0.24662 0.0
C1106 C 0.79036 0.18588 0.2623 0.0
C1107 C 0.79499 0.19769 0.24372 0.0
H1108 H 0.77558 0.29145 0.32614 0.0
H1109 H 0.79782 0.18781 0.2271 0.0
H1110 H 0.77959 0.16822 0.30095 0.0
H1111 H 0.7643 0.27248 0.35968 0.0
H1112 H 0.79951 0.23087 0.23189 0.0
H1113 H 0.84023 0.40449 0.31011 0.0
H1114 H 0.78954 0.16674 0.25996 0.0
H1115 H 0.86338 0.29801 0.2146 0.0
H1116 H 0.83748 0.36132 0.30638 0.0
H1117 H 0.87638 0.31609 0.18122 0.0
H1118 H 0.77056 0.19117 0.33697 0.0
H1119 H 0.85123 0.42498 0.27747 0.0
H1120 H 0.86335 0.42261 0.23732 0.0
H1121 H 0.76466 0.2299 0.35893 0.0
H1122 H 0.87307 0.39867 0.20233 0.0
N1123 N 0.84636 0.35638 0.2714 0.0
C1124 C 0.84226 0.36958 0.29176 0.0
C1125 C 0.84997 0.40578 0.27559 0.0
C1126 C 0.85481 0.39245 0.25508 0.0
C1127 C 0.8438 0.3943 0.29405 0.0
C1128 C 0.85287 0.36744 0.25347 0.0
H1129 H 0.87801 0.35908 0.18132 0.0
N1130 N 0.85675 0.33009 0.23289 0.0
C1131 C 0.8712 0.3269 0.19579 0.0
C1132 C 0.85824 0.35394 0.23368 0.0
C1133 C 0.86376 0.31669 0.21468 0.0
C1134 C 0.87209 0.35116 0.19591 0.0
C1135 C 0.86583 0.36509 0.21511 0.0
O1136 O 0.87536 0.30506 0.26593 0.0
O1137 O 0.83006 0.27677 0.27421 0.0
O1138 O 0.81528 0.28543 0.30911 0.0
O1139 O 0.83811 0.32103 0.30355 0.0
O1140 O 0.84888 0.27816 0.24715 0.0
O1141 O 0.87279 0.33651 0.29078 0.0
O1142 O 0.76259 0.28406 0.27705 0.0
O1143 O 0.8086 0.31429 0.26549 0.0
O1144 O 0.8239 0.30716 0.23123 0.0
O1145 O 0.80028 0.27185 0.2366 0.0
O1146 O 0.78926 0.31384 0.29194 0.0
O1147 O 0.76646 0.25598 0.24881 0.0
C1148 C 0.83906 0.2636 0.25974 0.0
C1149 C 0.90785 0.33504 0.28008 0.0
C1150 C 0.94631 0.34262 0.29311 0.0
C1151 C 0.92446 0.33423 0.29661 0.0
C1152 C 0.95162 0.35186 0.27299 0.0
C1153 C 0.91317 0.34434 0.25996 0.0
C1154 C 0.93504 0.35271 0.25646 0.0
C1155 C 0.82997 0.30619 0.31713 0.0
C1156 C 0.88539 0.32311 0.28287 0.0
C1157 C 0.86735 0.38983 0.21646 0.0
C1158 C 0.86183 0.40346 0.23639 0.0
C1159 C 0.79914 0.32784 0.27886 0.0
C1160 C 0.73134 0.25251 0.26114 0.0
C1161 C 0.71447 0.25042 0.24366 0.0
C1162 C 0.69284 0.2395 0.24642 0.0
C1163 C 0.68824 0.23015 0.26672 0.0
C1164 C 0.72666 0.24317 0.28137 0.0
C1165 C 0.70513 0.23194 0.28407 0.0
C1166 C 0.80892 0.28665 0.22312 0.0
C1167 C 0.75307 0.26708 0.2589 0.0
H1168 H 0.9204 0.32648 0.31189 0.0
H1169 H 0.96853 0.35803 0.26995 0.0
H1170 H 0.90054 0.34465 0.24679 0.0
H1171 H 0.93914 0.35953 0.24077 0.0
H1172 H 0.71811 0.25811 0.22826 0.0
H1173 H 0.67154 0.22226 0.26956 0.0
H1174 H 0.73945 0.24502 0.29524 0.0
H1175 H 0.70147 0.22518 0.29989 0.0
Eu1176 Eu 0.07946 0.55926 0.57184 0.0
C1177 C 0.01306 0.57124 0.49315 0.0
C1178 C 0.99059 0.53064 0.4754 0.0
C1179 C 0.97643 0.56537 0.47366 0.0
C1180 C 0.01045 0.54629 0.48774 0.0
C1181 C 0.99625 0.58098 0.48544 0.0
C1182 C 0.97356 0.54028 0.46879 0.0
C1183 C 0.02058 0.62116 0.49893 0.0
N1184 N 0.0324 0.58611 0.50451 0.0
C1185 C 0.0367 0.61079 0.50625 0.0
C1186 C 1.00014 0.60621 0.4888 0.0
Eu1187 Eu 0.06018 0.56689 0.51227 0.0
N1188 N 0.02741 0.53735 0.49371 0.0
C1189 C 0.02544 0.51295 0.48747 0.0
C1190 C 0.98849 0.50572 0.46952 0.0
C1191 C 1.00603 0.49687 0.47548 0.0
H1192 H 0.05257 0.62265 0.51386 0.0
H1193 H 1.00454 0.47758 0.47105 0.0
H1194 H 0.95826 0.52848 0.45937 0.0
H1195 H 0.02402 0.64067 0.50093 0.0
H1196 H 0.0383 0.50525 0.49227 0.0
H1197 H 0.13484 0.64999 0.6091 0.0
H1198 H 0.97348 0.49318 0.46021 0.0
H1199 H 0.08926 0.50419 0.56858 0.0
H1200 H 0.10258 0.62142 0.58546 0.0
H1201 H 0.11689 0.48697 0.58493 0.0
H1202 H 0.96338 0.57257 0.46775 0.0
H1203 H 0.16311 0.63506 0.62812 0.0
H1204 H 0.17671 0.60004 0.63537 0.0
H1205 H 0.98772 0.61429 0.48291 0.0
H1206 H 0.17212 0.55602 0.62837 0.0
N1207 N 0.11148 0.5896 0.59123 0.0
C1208 C 0.11422 0.61412 0.59391 0.0
C1209 C 0.14878 0.62216 0.61776 0.0
C1210 C 0.1463 0.59718 0.61452 0.0
C1211 C 0.13282 0.63065 0.60714 0.0
C1212 C 0.1274 0.58109 0.60071 0.0
H1213 H 0.15026 0.514 0.60932 0.0
N1214 N 0.10738 0.54113 0.58198 0.0
C1215 C 0.1196 0.50648 0.58798 0.0
C1216 C 0.1252 0.55623 0.5961 0.0
C1217 C 0.10409 0.51643 0.57851 0.0
C1218 C 0.13834 0.52179 0.60179 0.0
C1219 C 0.14131 0.54693 0.60612 0.0
O1220 O 0.06346 0.52749 0.58521 0.0
O1221 O 0.05418 0.54547 0.54023 0.0
O1222 O 0.04951 0.5919 0.5407 0.0
O1223 O 0.06864 0.59387 0.57731 0.0
O1224 O 0.04347 0.55279 0.57346 0.0
O1225 O 0.07452 0.5639 0.60898 0.0
O1226 O 0.07519 0.59681 0.49588 0.0
O1227 O 0.08531 0.58 0.54387 0.0
O1228 O 0.08997 0.53384 0.54286 0.0
O1229 O 0.07123 0.53288 0.50647 0.0
O1230 O 0.09662 0.5798 0.51141 0.0
O1231 O 0.06272 0.55907 0.47475 0.0
C1232 C 0.03783 0.54496 0.55131 0.0
C1233 C 0.05737 0.5296 0.62582 0.0
C1234 C 0.03385 0.5274 0.65664 0.0
C1235 C 0.0432 0.53922 0.63948 0.0
C1236 C 0.03912 0.50632 0.6606 0.0
C1237 C 0.06256 0.50845 0.62964 0.0
C1238 C 0.05358 0.49698 0.64719 0.0
C1239 C 0.05543 0.60123 0.56339 0.0
C1240 C 0.06521 0.54057 0.60638 0.0
C1241 C 0.15971 0.56289 0.62043 0.0
C1242 C 0.16227 0.58794 0.6245 0.0
C1243 C 0.10209 0.58484 0.53367 0.0
C1244 C 0.07807 0.59081 0.45448 0.0
C1245 C 0.09649 0.5858 0.44554 0.0
C1246 C 0.1054 0.59714 0.42797 0.0
C1247 C 0.09539 0.61308 0.41886 0.0
C1248 C 0.06807 0.60676 0.44561 0.0
C1249 C 0.07664 0.6177 0.42758 0.0
C1250 C 0.08437 0.52521 0.51995 0.0
C1251 C 0.07162 0.58217 0.47533 0.0
H1252 H 0.03884 0.55532 0.63623 0.0
H1253 H 0.03196 0.49711 0.67393 0.0
H1254 H 0.07342 0.50078 0.619 0.0
H1255 H 0.05761 0.48068 0.6502 0.0
H1256 H 0.10443 0.57389 0.45297 0.0
H1257 H 0.10192 0.6217 0.4049 0.0
H1258 H 0.05397 0.61103 0.45289 0.0
H1259 H 0.06894 0.62999 0.42061 0.0
Eu1260 Eu 0.78878 0.80188 0.27459 0.0
C1261 C 0.86457 0.77322 0.32116 0.0
C1262 C 0.88028 0.80895 0.35182 0.0
C1263 C 0.88239 0.76944 0.35811 0.0
C1264 C 0.86867 0.79793 0.32931 0.0
C1265 C 0.87202 0.7588 0.33521 0.0
C1266 C 0.88651 0.79448 0.36641 0.0
C1267 C 0.86132 0.72515 0.3019 0.0
N1268 N 0.85504 0.76363 0.29876 0.0
C1269 C 0.85452 0.74027 0.2886 0.0
C1270 C 0.86976 0.73435 0.32546 0.0
Eu1271 Eu 0.84263 0.78999 0.27738 0.0
N1272 N 0.86283 0.81146 0.31458 0.0
C1273 C 0.86968 0.83631 0.32081 0.0
C1274 C 0.88619 0.83425 0.35863 0.0
C1275 C 0.88124 0.84799 0.34285 0.0
H1276 H 0.84839 0.73319 0.27021 0.0
H1277 H 0.88612 0.86763 0.34771 0.0
H1278 H 0.89523 0.80262 0.3838 0.0
H1279 H 0.86023 0.7065 0.29391 0.0
H1280 H 0.86589 0.84759 0.30939 0.0
H1281 H 0.74854 0.72193 0.20492 0.0
H1282 H 0.89513 0.84337 0.37571 0.0
H1283 H 0.78263 0.85824 0.27966 0.0
H1284 H 0.76712 0.74308 0.24366 0.0
H1285 H 0.76981 0.88339 0.25477 0.0
H1286 H 0.88802 0.75861 0.36922 0.0
H1287 H 0.7392 0.74501 0.17594 0.0
H1288 H 0.73779 0.785 0.16679 0.0
H1289 H 0.87529 0.72271 0.33567 0.0
H1290 H 0.74351 0.82894 0.18032 0.0
N1291 N 0.76917 0.77881 0.23763 0.0
C1292 C 0.76328 0.75391 0.23176 0.0
C1293 C 0.74746 0.75465 0.19319 0.0
C1294 C 0.7523 0.77994 0.1996 0.0
C1295 C 0.75261 0.74157 0.20951 0.0
C1296 C 0.76316 0.79166 0.22229 0.0
H1297 H 0.75496 0.86561 0.21317 0.0
N1298 N 0.77593 0.82691 0.25212 0.0
C1299 C 0.76901 0.86466 0.24743 0.0
C1300 C 0.76661 0.81644 0.22979 0.0
C1301 C 0.77628 0.8504 0.26142 0.0
C1302 C 0.76069 0.85457 0.22396 0.0
C1303 C 0.75901 0.83008 0.21497 0.0
O1304 O 0.77268 0.81686 0.30352 0.0
O1305 O 0.81644 0.79851 0.29871 0.0
O1306 O 0.81906 0.75431 0.2822 0.0
O1307 O 0.78498 0.76228 0.2804 0.0
O1308 O 0.80589 0.82997 0.30648 0.0
O1309 O 0.75528 0.78334 0.28063 0.0
O1310 O 0.85931 0.77446 0.24947 0.0
O1311 O 0.81519 0.7938 0.25329 0.0
O1312 O 0.81241 0.83723 0.26766 0.0
O1313 O 0.84658 0.82996 0.27298 0.0
O1314 O 0.82591 0.76268 0.24478 0.0
O1315 O 0.87503 0.80994 0.27021 0.0
C1316 C 0.81862 0.81804 0.31381 0.0
C1317 C 0.73401 0.80702 0.30189 0.0
C1318 C 0.69937 0.80455 0.31916 0.0
C1319 C 0.71805 0.79585 0.31535 0.0
C1320 C 0.69721 0.82458 0.30984 0.0
C1321 C 0.731 0.82682 0.29277 0.0
C1322 C 0.71288 0.83559 0.29683 0.0
C1323 C 0.7975 0.74722 0.28213 0.0
C1324 C 0.7546 0.79955 0.299 0.0
C1325 C 0.74921 0.8187 0.19202 0.0
C1326 C 0.74593 0.79368 0.18432 0.0
C1327 C 0.81329 0.77478 0.2376 0.0
C1328 C 0.89773 0.78692 0.25173 0.0
C1329 C 0.91206 0.79643 0.23621 0.0
C1330 C 0.93151 0.78938 0.23349 0.0
C1331 C 0.9363 0.77256 0.24608 0.0
C1332 C 0.90312 0.77046 0.26443 0.0
C1333 C 0.92218 0.76318 0.26144 0.0
C1334 C 0.83422 0.84472 0.26934 0.0
C1335 C 0.87655 0.7928 0.25313 0.0
H1336 H 0.72012 0.78064 0.32272 0.0
H1337 H 0.68326 0.83177 0.3127 0.0
H1338 H 0.74283 0.83585 0.28277 0.0
H1339 H 0.711 0.8511 0.28987 0.0
H1340 H 0.90807 0.80909 0.22622 0.0
H1341 H 0.95105 0.76671 0.24401 0.0
H1342 H 0.89251 0.76302 0.27646 0.0
H1343 H 0.92602 0.7502 0.27106 0.0
Eu1344 Eu 0.83713 0.29682 0.74866 0.0
C1345 C 0.80009 0.36611 0.82857 0.0
C1346 C 0.83213 0.39197 0.85406 0.0
C1347 C 0.79809 0.40349 0.85406 0.0
C1348 C 0.8218 0.37064 0.8371 0.0
C1349 C 0.78783 0.38219 0.8374 0.0
C1350 C 0.82025 0.40846 0.86223 0.0
C1351 C 0.75577 0.35416 0.81396 0.0
N1352 N 0.79063 0.34543 0.81248 0.0
C1353 C 0.76861 0.33891 0.80564 0.0
C1354 C 0.76546 0.37602 0.82976 0.0
Eu1355 Eu 0.81187 0.31788 0.80215 0.0
N1356 N 0.83271 0.35403 0.82921 0.0
C1357 C 0.854 0.35769 0.8383 0.0
C1358 C 0.85402 0.39595 0.86267 0.0
C1359 C 0.86495 0.37867 0.85481 0.0
H1360 H 0.76089 0.32167 0.7939 0.0
H1361 H 0.88193 0.38156 0.86132 0.0
H1362 H 0.82794 0.42488 0.87522 0.0
H1363 H 0.73836 0.34888 0.80841 0.0
H1364 H 0.86337 0.3453 0.83233 0.0
H1365 H 0.76656 0.23975 0.68552 0.0
H1366 H 0.86257 0.41219 0.8755 0.0
H1367 H 0.88623 0.28689 0.75543 0.0
H1368 H 0.78976 0.27718 0.70943 0.0
H1369 H 0.90413 0.25412 0.74504 0.0
H1370 H 0.78896 0.41607 0.86096 0.0
H1371 H 0.77881 0.20232 0.68029 0.0
H1372 H 0.8089 0.18288 0.68629 0.0
H1373 H 0.75545 0.38773 0.83637 0.0
H1374 H 0.84674 0.18694 0.7019 0.0
N1375 N 0.81407 0.26143 0.72196 0.0
C1376 C 0.79501 0.26113 0.70931 0.0
C1377 C 0.78883 0.21873 0.69191 0.0
C1378 C 0.8093 0.21957 0.70277 0.0
C1379 C 0.78186 0.23977 0.69485 0.0
C1380 C 0.82167 0.24139 0.71795 0.0
H1381 H 0.88246 0.21353 0.72327 0.0
N1382 N 0.85437 0.26482 0.74098 0.0
C1383 C 0.88673 0.25064 0.74031 0.0
C1384 C 0.84259 0.24328 0.72747 0.0
C1385 C 0.87647 0.26912 0.74622 0.0
C1386 C 0.87444 0.22778 0.72809 0.0
C1387 C 0.85219 0.22397 0.7211 0.0
O1388 O 0.86715 0.31321 0.73605 0.0
O1389 O 0.83247 0.32742 0.77456 0.0
O1390 O 0.79584 0.33128 0.7726 0.0
O1391 O 0.80537 0.30853 0.73928 0.0
O1392 O 0.86424 0.32956 0.76675 0.0
O1393 O 0.83587 0.30723 0.71415 0.0
O1394 O 0.78371 0.29495 0.81325 0.0
O1395 O 0.81643 0.28784 0.77572 0.0
O1396 O 0.85381 0.28553 0.77968 0.0
O1397 O 0.8438 0.30769 0.81291 0.0
O1398 O 0.78432 0.28699 0.78137 0.0
O1399 O 0.81499 0.30592 0.83541 0.0
C1400 C 0.85172 0.34041 0.77822 0.0
C1401 C 0.8699 0.32382 0.69858 0.0
C1402 C 0.87266 0.34465 0.66627 0.0
C1403 C 0.86048 0.33462 0.68277 0.0
C1404 C 0.89428 0.34323 0.66517 0.0
C1405 C 0.89158 0.32258 0.69772 0.0
C1406 C 0.90368 0.33218 0.68092 0.0
C1407 C 0.79286 0.32186 0.74962 0.0
C1408 C 0.85723 0.31448 0.71632 0.0
C1409 C 0.83968 0.20198 0.70682 0.0
C1410 C 0.81817 0.1997 0.69788 0.0
C1411 C 0.79696 0.27589 0.7703 0.0
C1412 C 0.78255 0.2947 0.85333 0.0
C1413 C 0.78843 0.28227 0.86976 0.0
C1414 C 0.77471 0.2759 0.8865 0.0
C1415 C 0.75581 0.28405 0.88824 0.0
C1416 C 0.76353 0.30272 0.85471 0.0
C1417 C 0.7504 0.29772 0.87247 0.0
C1418 C 0.85638 0.29444 0.80281 0.0
C1419 C 0.79431 0.29421 0.8328 0.0
H1420 H 0.84374 0.33559 0.68353 0.0
H1421 H 0.90397 0.35112 0.65254 0.0
H1422 H 0.89912 0.31421 0.70997 0.0
H1423 H 0.9204 0.33128 0.68027 0.0
H1424 H 0.803 0.27587 0.86837 0.0
H1425 H 0.74488 0.27904 0.90105 0.0
H1426 H 0.75841 0.31193 0.8417 0.0
H1427 H 0.73555 0.30351 0.87337 0.0
Eu1428 Eu 0.82502 0.82808 0.78396 0.0
C1429 C 0.74189 0.74429 0.73782 0.0
C1430 C 0.72146 0.73839 0.77081 0.0
C1431 C 0.70313 0.72297 0.731 0.0
C1432 C 0.74129 0.74722 0.76175 0.0
C1433 C 0.72287 0.73176 0.72211 0.0
C1434 C 0.7024 0.7264 0.75532 0.0
C1435 C 0.74464 0.73526 0.68999 0.0
N1436 N 0.76135 0.75232 0.72985 0.0
C1437 C 0.76302 0.7473 0.70623 0.0
C1438 C 0.72442 0.72752 0.69795 0.0
Eu1439 Eu 0.79307 0.76642 0.75799 0.0
N1440 N 0.76025 0.75768 0.77615 0.0
C1441 C 0.76034 0.75968 0.79992 0.0
C1442 C 0.7215 0.74114 0.79515 0.0
C1443 C 0.74105 0.75188 0.80977 0.0
H1444 H 0.77878 0.75193 0.69988 0.0
H1445 H 0.74136 0.75398 0.82865 0.0
H1446 H 0.68713 0.71926 0.76196 0.0
H1447 H 0.7462 0.73142 0.67138 0.0
H1448 H 0.77506 0.76774 0.81169 0.0
H1449 H 0.8716 0.84401 0.70845 0.0
H1450 H 0.70663 0.73469 0.80279 0.0
H1451 H 0.8461 0.833 0.84085 0.0
H1452 H 0.841 0.82356 0.7264 0.0
H1453 H 0.87966 0.85401 0.86624 0.0
H1454 H 0.68842 0.71314 0.71923 0.0
H1455 H 0.90499 0.87052 0.73309 0.0
H1456 H 0.92577 0.88754 0.77296 0.0
H1457 H 0.71026 0.71773 0.68537 0.0
H1458 H 0.92827 0.88935 0.81552 0.0
N1459 N 0.85553 0.83897 0.76203 0.0
C1460 C 0.85484 0.83541 0.73799 0.0
C1461 C 0.89136 0.86159 0.74136 0.0
C1462 C 0.89274 0.86397 0.76573 0.0
C1463 C 0.87254 0.84673 0.72742 0.0
C1464 C 0.87456 0.85189 0.77569 0.0
H1465 H 0.91163 0.87625 0.85008 0.0
N1466 N 0.85893 0.83951 0.80871 0.0
C1467 C 0.87914 0.85322 0.84748 0.0
C1468 C 0.87629 0.85216 0.79965 0.0
C1469 C 0.86012 0.84043 0.83253 0.0
C1470 C 0.89705 0.86592 0.83833 0.0
C1471 C 0.8958 0.86558 0.81424 0.0
O1472 O 0.81819 0.84876 0.81665 0.0
O1473 O 0.79309 0.80077 0.78122 0.0
O1474 O 0.78938 0.79023 0.73123 0.0
O1475 O 0.81224 0.82953 0.74688 0.0
O1476 O 0.79207 0.83421 0.77465 0.0
O1477 O 0.83538 0.86743 0.79152 0.0
O1478 O 0.79889 0.73747 0.73209 0.0
O1479 O 0.82739 0.79063 0.76943 0.0
O1480 O 0.8216 0.80538 0.81221 0.0
O1481 O 0.80809 0.76458 0.79431 0.0
O1482 O 0.81857 0.77365 0.73412 0.0
O1483 O 0.79283 0.73133 0.7674 0.0
C1484 C 0.78039 0.81319 0.77672 0.0
C1485 C 0.81894 0.88989 0.81861 0.0
C1486 C 0.79689 0.91518 0.80792 0.0
C1487 C 0.80348 0.89396 0.80289 0.0
C1488 C 0.80549 0.93238 0.82879 0.0
C1489 C 0.82756 0.90692 0.83959 0.0
C1490 C 0.82077 0.92814 0.84468 0.0
C1491 C 0.79904 0.81294 0.72958 0.0
C1492 C 0.82821 0.8696 0.81204 0.0
C1493 C 0.91336 0.87867 0.80449 0.0
C1494 C 0.91189 0.87775 0.78029 0.0
C1495 C 0.83456 0.78547 0.75001 0.0
C1496 C 0.79752 0.69775 0.73842 0.0
C1497 C 0.81079 0.68876 0.75228 0.0
C1498 C 0.81449 0.66619 0.74411 0.0
C1499 C 0.80393 0.65203 0.72225 0.0
C1500 C 0.78728 0.68395 0.71635 0.0
C1501 C 0.79029 0.66094 0.70844 0.0
C1502 C 0.81658 0.78209 0.81304 0.0
C1503 C 0.79644 0.72254 0.74627 0.0
H1504 H 0.7973 0.88124 0.78631 0.0
H1505 H 0.80075 0.9492 0.83245 0.0
H1506 H 0.83994 0.90411 0.85164 0.0
H1507 H 0.8277 0.94151 0.86064 0.0
H1508 H 0.81876 0.6997 0.76925 0.0
H1509 H 0.80654 0.63442 0.71574 0.0
H1510 H 0.77714 0.691 0.70529 0.0
H1511 H 0.78235 0.65021 0.69146 0.0
Eu1512 Eu 0.54556 0.53795 0.52518 0.0
C1513 C 0.61959 0.62215 0.578 0.0
C1514 C 0.62786 0.64651 0.54849 0.0
C1515 C 0.6379 0.6654 0.58983 0.0
C1516 C 0.61886 0.62394 0.5547 0.0
C1517 C 0.62955 0.64279 0.59585 0.0
C1518 C 0.63702 0.66726 0.56619 0.0
C1519 C 0.62463 0.6168 0.62409 0.0
N1520 N 0.61202 0.59991 0.58316 0.0
C1521 C 0.61523 0.59686 0.60576 0.0
C1522 C 0.63166 0.63993 0.61915 0.0
Eu1523 Eu 0.59863 0.56609 0.55122 0.0
N1524 N 0.61062 0.60338 0.53804 0.0
C1525 C 0.61181 0.60416 0.5148 0.0
C1526 C 0.6282 0.64741 0.5247 0.0
C1527 C 0.62031 0.62606 0.50779 0.0
H1528 H 0.6105 0.57887 0.60962 0.0
H1529 H 0.62082 0.6264 0.4893 0.0
H1530 H 0.64401 0.68469 0.56174 0.0
H1531 H 0.6268 0.61425 0.64197 0.0
H1532 H 0.60598 0.58812 0.50133 0.0
H1533 H 0.5247 0.48258 0.59296 0.0
H1534 H 0.635 0.66433 0.51924 0.0
H1535 H 0.53991 0.51814 0.46544 0.0
H1536 H 0.54177 0.51868 0.57931 0.0
H1537 H 0.5241 0.48102 0.43651 0.0
H1538 H 0.64559 0.68143 0.60329 0.0
H1539 H 0.5068 0.44442 0.56475 0.0
H1540 H 0.49655 0.42202 0.52341 0.0
H1541 H 0.6393 0.6553 0.63332 0.0
H1542 H 0.497 0.42139 0.48128 0.0
N1543 N 0.53352 0.50279 0.54242 0.0
C1544 C 0.53366 0.50297 0.56609 0.0
C1545 C 0.51427 0.46057 0.55831 0.0
C1546 C 0.51433 0.46001 0.53427 0.0
C1547 C 0.52423 0.48206 0.57425 0.0
C1548 C 0.52445 0.48152 0.52665 0.0
H1549 H 0.50747 0.44291 0.44902 0.0
N1550 N 0.53532 0.50157 0.49553 0.0
C1551 C 0.52476 0.48055 0.45504 0.0
C1552 C 0.52537 0.48092 0.50273 0.0
C1553 C 0.53439 0.50164 0.47188 0.0
C1554 C 0.51527 0.45916 0.46218 0.0
C1555 C 0.51528 0.45914 0.48615 0.0
O1556 O 0.52678 0.54602 0.49604 0.0
O1557 O 0.57204 0.57257 0.52843 0.0
O1558 O 0.57602 0.57342 0.58122 0.0
O1559 O 0.54092 0.55196 0.56381 0.0
O1560 O 0.54266 0.57615 0.53904 0.0
O1561 O 0.51013 0.52921 0.523 0.0
O1562 O 0.62243 0.55327 0.57026 0.0
O1563 O 0.57618 0.52796 0.53757 0.0
O1564 O 0.56726 0.5414 0.4944 0.0
O1565 O 0.60216 0.54877 0.51262 0.0
O1566 O 0.58811 0.53811 0.57302 0.0
O1567 O 0.63095 0.56779 0.53956 0.0
C1568 C 0.56163 0.58812 0.53525 0.0
C1569 C 0.48794 0.54081 0.4948 0.0
C1570 C 0.45744 0.55811 0.50075 0.0
C1571 C 0.47761 0.55544 0.50932 0.0
C1572 C 0.44766 0.54605 0.47796 0.0
C1573 C 0.47812 0.52897 0.472 0.0
C1574 C 0.458 0.53154 0.46365 0.0
C1575 C 0.55452 0.56512 0.58274 0.0
C1576 C 0.50827 0.53613 0.50307 0.0
C1577 C 0.5049 0.4381 0.49381 0.0
C1578 C 0.50454 0.43849 0.51778 0.0
C1579 C 0.57905 0.5197 0.55626 0.0
C1580 C 0.6598 0.56597 0.56654 0.0
C1581 C 0.67375 0.55294 0.55677 0.0
C1582 C 0.69494 0.55735 0.5676 0.0
C1583 C 0.70246 0.57517 0.58823 0.0
C1584 C 0.66724 0.584 0.58707 0.0
C1585 C 0.68862 0.5886 0.59785 0.0
C1586 C 0.5883 0.54284 0.49299 0.0
C1587 C 0.63708 0.55793 0.55619 0.0
H1588 H 0.48501 0.5644 0.52707 0.0
H1589 H 0.43191 0.54772 0.47135 0.0
H1590 H 0.48587 0.51738 0.4608 0.0
H1591 H 0.45034 0.52212 0.44615 0.0
H1592 H 0.66789 0.53871 0.54109 0.0
H1593 H 0.71887 0.57851 0.59686 0.0
H1594 H 0.65653 0.59409 0.59496 0.0
H1595 H 0.69434 0.60229 0.61384 0.0
Eu1596 Eu 0.0941 0.55498 0.03422 0.0
C1597 C 0.01477 0.50792 0.08251 0.0
C1598 C 0.99478 0.47395 0.05172 0.0
C1599 C 0.99298 0.47113 0.09268 0.0
C1600 C 0.00913 0.49753 0.05884 0.0
C1601 C 1.00621 0.4951 0.09968 0.0
C1602 C 0.98729 0.46056 0.06873 0.0
C1603 C 0.02209 0.53161 0.12922 0.0
N1604 N 0.02731 0.53122 0.08871 0.0
C1605 C 0.03004 0.54361 0.11153 0.0
C1606 C 0.01045 0.50711 0.12331 0.0
Eu1607 Eu 0.04126 0.54992 0.0579 0.0
N1608 N 0.01625 0.51113 0.04284 0.0
C1609 C 0.00815 0.50288 0.01959 0.0
C1610 C 0.98759 0.46491 0.02778 0.0
C1611 C 0.99394 0.47966 0.01172 0.0
H1612 H 0.03887 0.56264 0.11602 0.0
H1613 H 0.988 0.47312 0.99322 0.0
H1614 H 0.97647 0.44235 0.06355 0.0
H1615 H 0.02485 0.54129 0.14735 0.0
H1616 H 0.01273 0.51375 1.0067 0.0
H1617 H 0.14437 0.62779 0.10537 0.0
H1618 H 0.97655 0.44693 0.02161 0.0
H1619 H 0.09777 0.5479 0.97677 0.0
H1620 H 0.11987 0.58786 0.08844 0.0
H1621 H 0.11371 0.57225 0.94825 0.0
H1622 H 0.98646 0.4609 0.10561 0.0
H1623 H 0.15811 0.65652 0.07988 0.0
H1624 H 0.16064 0.66467 0.03925 0.0
H1625 H 1.00414 0.4979 0.13701 0.0
H1626 H 0.15239 0.64959 0.99645 0.0
N1627 N 0.11886 0.59312 0.05295 0.0
C1628 C 0.12548 0.59974 0.07667 0.0
C1629 C 0.14721 0.6388 0.07214 0.0
C1630 C 0.14132 0.6316 0.04783 0.0
C1631 C 0.13955 0.62262 0.08656 0.0
C1632 C 0.12707 0.60829 0.03861 0.0
H1633 H 0.13528 0.61503 0.96239 0.0
N1634 N 0.10964 0.57693 1.00633 0.0
C1635 C 0.11614 0.58031 0.96684 0.0
C1636 C 0.12235 0.5999 0.01457 0.0
C1637 C 0.10718 0.5666 0.98295 0.0
C1638 C 0.12825 0.60447 0.97488 0.0
C1639 C 0.13183 0.61443 0.99904 0.0
O1640 O 0.10818 0.52777 0.01495 0.0
O1641 O 0.06374 0.52889 0.04131 0.0
O1642 O 0.06065 0.53744 0.08358 0.0
O1643 O 0.09514 0.55125 0.07188 0.0
O1644 O 0.07382 0.52134 0.00842 0.0
O1645 O 0.12296 0.54668 0.04994 0.0
O1646 O 0.02888 0.57942 0.07511 0.0
O1647 O 0.07122 0.57554 0.04958 0.0
O1648 O 0.07326 0.56739 0.00891 0.0
O1649 O 0.03878 0.55079 0.01948 0.0
O1650 O 0.06168 0.58536 0.08195 0.0
O1651 O 0.01048 0.55511 0.04353 0.0
C1652 C 0.0599 0.51316 0.02212 0.0
C1653 C 0.14559 0.5305 0.02421 0.0
C1654 C 0.17679 0.51298 0.02266 0.0
C1655 C 0.15699 0.51458 0.03147 0.0
C1656 C 0.18508 0.52758 1.00684 0.0
C1657 C 0.15447 0.54518 0.00873 0.0
C1658 C 0.17408 0.54367 1.00009 0.0
C1659 C 0.08197 0.54263 0.08663 0.0
C1660 C 0.12387 0.5305 0.03161 0.0
C1661 C 0.14515 0.63806 0.00811 0.0
C1662 C 0.14985 0.64665 0.03247 0.0
C1663 C 0.07518 0.59271 0.06753 0.0
C1664 C 0.99128 0.5761 0.06976 0.0
C1665 C 0.97985 0.59108 0.0612 0.0
C1666 C 0.96191 0.59594 0.07184 0.0
C1667 C 0.95534 0.58546 0.09103 0.0
C1668 C 0.98433 0.56537 0.08863 0.0
C1669 C 0.96641 0.57008 0.09922 0.0
C1670 C 0.05169 0.56126 1.00543 0.0
C1671 C 0.01146 0.5739 0.06005 0.0
H1672 H 0.15024 0.50311 0.04339 0.0
H1673 H 0.20023 0.52663 0.99981 0.0
H1674 H 0.14609 0.55756 1.00304 0.0
H1675 H 0.18071 0.55489 0.98797 0.0
H1676 H 0.98532 0.59954 0.04674 0.0
H1677 H 0.94149 0.58893 0.09946 0.0
H1678 H 0.99287 0.5537 0.09538 0.0
H1679 H 0.96119 0.56195 0.11391 0.0
H1680 H 0.01696 0.21945 0.99694 0.0
H1681 H 0.06053 0.21184 0.94443 0.0
H1682 H 0.02601 0.18597 0.01255 0.0
H1683 H 0.07062 0.18032 0.96048 0.0
H1684 H 0.07217 0.10738 0.97457 0.0
H1685 H 0.06449 0.14231 0.96311 0.0
H1686 H 0.04526 0.16396 0.03174 0.0
H1687 H 0.05255 0.12741 0.04291 0.0
C1688 C 0.02863 0.21091 0.98878 0.0
C1689 C 0.03764 0.21858 0.96896 0.0
C1690 C 0.03399 0.19153 0.99787 0.0
C1691 C 0.04892 0.17917 0.98783 0.0
C1692 C 0.05841 0.18782 0.96863 0.0
C1693 C 0.05272 0.20656 0.95934 0.0
C1694 C 0.06685 0.11983 0.98762 0.0
C1695 C 0.06373 0.11442 0.01 0.0
C1696 C 0.06237 0.14042 0.98097 0.0
C1697 C 0.05433 0.1572 0.99627 0.0
C1698 C 0.05138 0.15201 0.01904 0.0
C1699 C 0.05598 0.13107 0.02577 0.0
H1700 H 0.14889 0.81146 0.18352 0.0
H1701 H 0.18773 0.85585 0.14166 0.0
H1702 H 0.18172 0.809 0.20518 0.0
H1703 H 0.22106 0.8545 0.16438 0.0
H1704 H 0.278 0.8283 0.19514 0.0
H1705 H 0.24564 0.83227 0.17265 0.0
H1706 H 0.21061 0.82691 0.23331 0.0
H1707 H 0.24226 0.82177 0.25479 0.0
C1708 C 0.16448 0.82123 0.17919 0.0
C1709 C 0.16537 0.83406 0.16076 0.0
C1710 C 0.18358 0.8199 0.19186 0.0
C1711 C 0.20454 0.83168 0.18698 0.0
C1712 C 0.20546 0.84483 0.1687 0.0
C1713 C 0.18622 0.84587 0.15573 0.0
C1714 C 0.26338 0.82808 0.20367 0.0
C1715 C 0.26318 0.82529 0.22721 0.0
C1716 C 0.24472 0.83053 0.19077 0.0
C1717 C 0.22505 0.82999 0.20086 0.0
C1718 C 0.22503 0.82721 0.22445 0.0
C1719 C 0.24361 0.8248 0.23722 0.0
H1720 H 0.52247 0.84698 0.50397 0.0
H1721 H 0.56444 0.86582 0.45152 0.0
H1722 H 0.52717 0.89043 0.52009 0.0
H1723 H 0.57007 0.90877 0.46792 0.0
H1724 H 0.56399 0.98482 0.48558 0.0
H1725 H 0.55509 0.94107 0.47047 0.0
H1726 H 0.54882 0.92884 0.54099 0.0
H1727 H 0.55749 0.97285 0.5558 0.0
C1728 C 0.53309 0.86039 0.49621 0.0
C1729 C 0.54317 0.85279 0.47649 0.0
C1730 C 0.5358 0.88545 0.50541 0.0
C1731 C 0.54878 0.90372 0.49525 0.0
C1732 C 0.55936 0.89578 0.47601 0.0
C1733 C 0.55641 0.87093 0.46671 0.0
C1734 C 0.55994 0.97274 0.49773 0.0
C1735 C 0.56082 0.98247 0.52183 0.0
C1736 C 0.55527 0.94745 0.48915 0.0
C1737 C 0.55152 0.9308 0.50438 0.0
C1738 C 0.55147 0.94063 0.52845 0.0
C1739 C 0.55634 0.96601 0.53703 0.0
H1740 H 0.55997 0.34994 0.67793 0.0
H1741 H 0.53589 0.2749 0.64246 0.0
H1742 H 0.52464 0.34809 0.69316 0.0
H1743 H 0.50072 0.2729 0.65725 0.0
H1744 H 0.43548 0.27531 0.67854 0.0
H1745 H 0.46749 0.28548 0.6574 0.0
H1746 H 0.50552 0.32871 0.72225 0.0
H1747 H 0.47341 0.3188 0.74298 0.0
C1748 C 0.54696 0.33321 0.6731 0.0
C1749 C 0.55062 0.31248 0.65927 0.0
C1750 C 0.52678 0.33206 0.68187 0.0
C1751 C 0.50975 0.3103 0.67655 0.0
C1752 C 0.51326 0.29002 0.66163 0.0
C1753 C 0.53349 0.29106 0.65331 0.0
C1754 C 0.45053 0.28765 0.68798 0.0
C1755 C 0.45199 0.29658 0.71227 0.0
C1756 C 0.46895 0.29327 0.67599 0.0
C1757 C 0.48924 0.30779 0.68812 0.0
C1758 C 0.4902 0.31777 0.71221 0.0
C1759 C 0.47182 0.31212 0.72414 0.0
H1760 H 0.01301 0.79054 0.58374 0.0
H1761 H 0.01491 0.84366 0.64683 0.0
H1762 H 0.02511 0.82247 0.56269 0.0
H1763 H 0.02603 0.87624 0.62517 0.0
H1764 H 0.07738 0.92362 0.58732 0.0
H1765 H 0.05741 0.89543 0.60982 0.0
H1766 H 0.01788 0.85245 0.54547 0.0
H1767 H 0.03916 0.87967 0.52315 0.0
C1768 C 0.01548 0.80914 0.59296 0.0
C1769 C 0.01314 0.81463 0.61694 0.0
C1770 C 0.02221 0.82758 0.58077 0.0
C1771 C 0.0265 0.85206 0.59213 0.0
C1772 C 0.02309 0.85758 0.61593 0.0
C1773 C 0.01648 0.83896 0.62827 0.0
C1774 C 0.06449 0.90794 0.57818 0.0
C1775 C 0.06016 0.90302 0.55359 0.0
C1776 C 0.0528 0.89203 0.59102 0.0
C1777 C 0.0363 0.8713 0.57941 0.0
C1778 C 0.03101 0.86768 0.5549 0.0
C1779 C 0.04309 0.88318 0.54207 0.0
H1780 H 0.56706 0.82687 0.82002 0.0
H1781 H 0.55059 0.84606 0.89037 0.0
H1782 H 0.53087 0.8269 0.80378 0.0
H1783 H 0.51407 0.84658 0.87398 0.0
H1784 H 0.47072 0.88073 0.82396 0.0
H1785 H 0.50166 0.87452 0.84739 0.0
H1786 H 0.49103 0.80311 0.8037 0.0
H1787 H 0.46026 0.80942 0.78049 0.0
C1788 C 0.55545 0.83064 0.83196 0.0
C1789 C 0.56129 0.83606 0.85633 0.0
C1790 C 0.53478 0.83061 0.82272 0.0
C1791 C 0.5197 0.83648 0.83768 0.0
C1792 C 0.52544 0.84179 0.86217 0.0
C1793 C 0.54612 0.84129 0.87148 0.0
C1794 C 0.47498 0.86367 0.81972 0.0
C1795 C 0.46368 0.84568 0.80037 0.0
C1796 C 0.49239 0.86 0.83318 0.0
C1797 C 0.49871 0.83842 0.82713 0.0
C1798 C 0.4865 0.81995 0.80853 0.0
C1799 C 0.46906 0.82355 0.79526 0.0
H1800 H 0.48957 0.16682 0.15618 0.0
H1801 H 0.48986 0.20249 0.09714 0.0
H1802 H 0.50243 0.13566 0.1334 0.0
H1803 H 0.50112 0.1698 0.07328 0.0
H1804 H 0.55752 0.13605 0.05551 0.0
H1805 H 0.53503 0.1617 0.07232 0.0
H1806 H 0.50117 0.10363 0.10479 0.0
H1807 H 0.52542 0.07975 0.09029 0.0
C1808 C 0.49133 0.16733 0.13788 0.0
C1809 C 0.48951 0.18751 0.12873 0.0
C1810 C 0.49868 0.14928 0.12464 0.0
C1811 C 0.50349 0.15056 0.10162 0.0
C1812 C 0.49839 0.16882 0.09127 0.0
C1813 C 0.4915 0.1873 0.1048 0.0
C1814 C 0.54547 0.12927 0.06666 0.0
C1815 C 0.54321 0.10643 0.07218 0.0
C1816 C 0.53226 0.14359 0.07585 0.0
C1817 C 0.51613 0.13471 0.0899 0.0
C1818 C 0.51371 0.11139 0.09463 0.0
C1819 C 0.52755 0.09768 0.08638 0.0
H1820 H 0.16166 0.28655 0.33184 0.0
H1821 H 0.18723 0.36465 0.3482 0.0
H1822 H 0.1921 0.28291 0.30975 0.0
H1823 H 0.21753 0.36108 0.32527 0.0
H1824 H 0.28149 0.33626 0.32095 0.0
H1825 H 0.24879 0.34584 0.33283 0.0
H1826 H 0.21037 0.29139 0.27428 0.0
H1827 H 0.244 0.283 0.26107 0.0
C1828 C 0.17355 0.30299 0.3302 0.0
C1829 C 0.17212 0.32589 0.34163 0.0
C1830 C 0.19087 0.3009 0.31735 0.0
C1831 C 0.20702 0.32169 0.31547 0.0
C1832 C 0.2053 0.34472 0.32645 0.0
C1833 C 0.18806 0.34679 0.33961 0.0
C1834 C 0.26617 0.32631 0.31033 0.0
C1835 C 0.26517 0.30748 0.29093 0.0
C1836 C 0.24737 0.33212 0.31707 0.0
C1837 C 0.22694 0.31896 0.30488 0.0
C1838 C 0.22595 0.30144 0.28432 0.0
C1839 C 0.24509 0.29628 0.27699 0.0
H1840 H 0.97506 0.10224 0.19971 0.0
H1841 H 1.00457 0.04825 0.21791 0.0
H1842 H 0.99337 0.10217 0.16428 0.0
H1843 H 0.02283 0.04768 0.18251 0.0
H1844 H 0.05301 0.04276 0.11235 0.0
H1845 H 0.03588 0.04414 0.14853 0.0
H1846 H 0.01192 0.10369 0.13365 0.0
H1847 H 0.02868 0.10138 0.09705 0.0
C1848 C 0.98549 0.09021 0.19631 0.0
C1849 C 0.98794 0.07533 0.2126 0.0
C1850 C 0.99634 0.09011 0.17544 0.0
C1851 C 0.01024 0.07478 0.16896 0.0
C1852 C 0.01265 0.05996 0.18551 0.0
C1853 C 1.00202 0.06034 0.20653 0.0
C1854 C 0.04416 0.05629 0.11676 0.0
C1855 C 0.04265 0.07195 0.10105 0.0
C1856 C 0.03403 0.0572 0.13808 0.0
C1857 C 0.02173 0.07406 0.14551 0.0
C1858 C 0.0206 0.09001 0.1297 0.0
C1859 C 0.03054 0.08884 0.10819 0.0
H1860 H 0.25934 0.682 0.47539 0.0
H1861 H 0.32443 0.68537 0.45672 0.0
H1862 H 0.25325 0.70481 0.44585 0.0
H1863 H 0.31822 0.70882 0.42676 0.0
H1864 H 0.27933 0.73454 0.36478 0.0
H1865 H 0.28762 0.70606 0.38787 0.0
H1866 H 0.27685 0.75141 0.45095 0.0
H1867 H 0.26908 0.78022 0.42812 0.0
C1868 C 0.27228 0.68747 0.46471 0.0
C1869 C 0.29259 0.68274 0.46862 0.0
C1870 C 0.26873 0.70038 0.44783 0.0
C1871 C 0.28549 0.70891 0.43473 0.0
C1872 C 0.30522 0.70243 0.43702 0.0
C1873 C 0.30877 0.6892 0.45403 0.0
C1874 C 0.27901 0.73855 0.38365 0.0
C1875 C 0.27352 0.75951 0.39481 0.0
C1876 C 0.2838 0.72232 0.39671 0.0
C1877 C 0.2828 0.72677 0.42094 0.0
C1878 C 0.27754 0.74775 0.43213 0.0
C1879 C 0.27291 0.76403 0.41914 0.0
H1880 H 0.69339 0.08051 0.68708 0.0
H1881 H 0.65478 1.01139 0.69798 0.0
H1882 H 0.66366 0.08217 0.65945 0.0
H1883 H 0.62513 1.01299 0.66978 0.0
H1884 H 0.57551 0.04159 0.62254 0.0
H1885 H 0.59844 0.04397 0.65909 0.0
H1886 H 0.65406 0.04552 0.62032 0.0
H1887 H 0.63176 0.04213 0.58443 0.0
C1888 C 0.67862 0.06561 0.68337 0.0
C1889 C 0.67643 0.0454 0.69386 0.0
C1890 C 0.66153 0.06691 0.66818 0.0
C1891 C 0.64234 0.04781 0.66305 0.0
C1892 C 0.63976 0.02804 0.67411 0.0
C1893 C 0.6568 0.02687 0.68959 0.0
C1894 C 0.59251 0.0421 0.62191 0.0
C1895 C 0.60192 0.04224 0.60081 0.0
C1896 C 0.60554 0.04368 0.64268 0.0
C1897 C 0.62786 0.04571 0.64214 0.0
C1898 C 0.63691 0.04468 0.62098 0.0
C1899 C 0.62403 0.04264 0.60047 0.0
H1900 H 0.31296 0.37534 0.95061 0.0
H1901 H 0.34948 0.32495 0.96385 0.0
H1902 H 0.31155 0.36074 0.90827 0.0
H1903 H 0.34856 0.31075 0.92168 0.0
H1904 H 0.32183 0.27255 0.84461 0.0
H1905 H 0.32605 0.28783 0.88708 0.0
H1906 H 0.33205 0.36044 0.8755 0.0
H1907 H 0.32729 0.34473 0.83293 0.0
C1908 C 0.32066 0.3611 0.94454 0.0
C1909 C 0.33127 0.35133 0.96083 0.0
C1910 C 0.32008 0.35287 0.92014 0.0
C1911 C 0.33007 0.33455 0.91122 0.0
C1912 C 0.34047 0.32465 0.92761 0.0
C1913 C 0.34107 0.3329 0.95195 0.0
C1914 C 0.32465 0.29188 0.85123 0.0
C1915 C 0.3249 0.30753 0.83545 0.0
C1916 C 0.32703 0.30072 0.87565 0.0
C1917 C 0.32929 0.32549 0.88507 0.0
C1918 C 0.33005 0.34123 0.86913 0.0
C1919 C 0.32774 0.33235 0.84467 0.0
H1920 H 0.01872 0.09778 0.36039 0.0
H1921 H 0.98841 0.02083 0.34615 0.0
H1922 H 0.03465 0.09548 0.39955 0.0
H1923 H 1.00325 0.01875 0.38552 0.0
H1924 H 0.01037 0.03375 0.46959 0.0
H1925 H 0.99789 0.03539 0.42938 0.0
H1926 H 0.06295 0.07482 0.42134 0.0
H1927 H 0.07585 0.07151 0.46141 0.0
C1928 C 0.01533 0.08031 0.36547 0.0
C1929 C 1.00214 0.05946 0.34945 0.0
C1930 C 0.02463 0.07896 0.38814 0.0
C1931 C 0.02051 0.05685 0.39632 0.0
C1932 C 1.00707 0.03618 0.38036 0.0
C1933 C 0.9985 0.03737 0.35747 0.0
C1934 C 0.02235 0.042 0.45908 0.0
C1935 C 0.0445 0.05134 0.46898 0.0
C1936 C 0.01504 0.04322 0.43582 0.0
C1937 C 0.02917 0.05518 0.42138 0.0
C1938 C 0.05132 0.06526 0.43142 0.0
C1939 C 0.05887 0.06308 0.45452 0.0
H1940 H 0.27781 0.69745 0.5702 0.0
H1941 H 0.31969 0.6721 0.61534 0.0
H1942 H 0.27569 0.72937 0.60313 0.0
H1943 H 0.31804 0.70449 0.64823 0.0
H1944 H 0.33988 0.78481 0.68036 0.0
H1945 H 0.33433 0.75298 0.64571 0.0
H1946 H 0.26488 0.73405 0.64978 0.0
H1947 H 0.27052 0.76634 0.68502 0.0
C1948 C 0.28647 0.69882 0.58728 0.0
C1949 C 0.29946 0.68317 0.59048 0.0
C1950 C 0.28506 0.71675 0.60597 0.0
C1951 C 0.29701 0.71934 0.62772 0.0
C1952 C 0.30893 0.70272 0.6313 0.0
C1953 C 0.30995 0.68443 0.61269 0.0
C1954 C 0.32338 0.7749 0.67332 0.0
C1955 C 0.30569 0.77805 0.68529 0.0
C1956 C 0.32025 0.75629 0.65379 0.0
C1957 C 0.29931 0.74094 0.64584 0.0
C1958 C 0.28119 0.74568 0.65605 0.0
C1959 C 0.28439 0.76421 0.67588 0.0
H1960 H 0.66127 0.08986 0.80874 0.0
H1961 H 0.69148 0.03592 0.8274 0.0
H1962 H 0.6432 0.09039 0.84407 0.0
H1963 H 0.67288 0.03638 0.86319 0.0
H1964 H 0.65004 0.08926 0.93296 0.0
H1965 H 0.67131 0.07573 0.90204 0.0
H1966 H 0.6126 0.05014 0.85265 0.0
H1967 H 0.59158 0.06397 0.88331 0.0
C1968 C 0.66393 0.07804 0.8204 0.0
C1969 C 0.67715 0.06232 0.81524 0.0
C1970 C 0.65365 0.07836 0.84051 0.0
C1971 C 0.65627 0.06282 0.85558 0.0
C1972 C 0.67052 0.04813 0.85135 0.0
C1973 C 0.68104 0.04791 0.83109 0.0
C1974 C 0.64177 0.08008 0.9156 0.0
C1975 C 0.61958 0.07809 0.90988 0.0
C1976 C 0.65377 0.07211 0.89818 0.0
C1977 C 0.64341 0.06226 0.87525 0.0
C1978 C 0.6207 0.05775 0.87039 0.0
C1979 C 0.60881 0.06581 0.88768 0.0
H1980 H 0.29249 0.33123 0.07684 0.0
H1981 H 0.34543 0.38811 0.11852 0.0
H1982 H 0.28379 0.31459 0.11198 0.0
H1983 H 0.33804 0.37093 0.15306 0.0
H1984 H 0.31151 0.35206 0.21784 0.0
H1985 H 0.316 0.36736 0.18189 0.0
H1986 H 0.29127 0.29418 0.14096 0.0
H1987 H 0.28589 0.27922 0.17704 0.0
C1988 C 0.30254 0.33987 0.09343 0.0
C1989 C 0.31959 0.36106 0.09492 0.0
C1990 C 0.2976 0.33034 0.1137 0.0
C1991 C 0.30986 0.34152 0.1359 0.0
C1992 C 0.32752 0.36213 0.13682 0.0
C1993 C 0.33204 0.37189 0.11683 0.0
C1994 C 0.30663 0.33922 0.20118 0.0
C1995 C 0.29819 0.31427 0.20064 0.0
C1996 C 0.30954 0.34799 0.18034 0.0
C1997 C 0.30458 0.33211 0.15806 0.0
C1998 C 0.29527 0.30723 0.1575 0.0
C1999 C 0.29206 0.29852 0.17842 0.0
H2000 H 0.28551 1.00275 0.98254 0.0
H2001 H 0.27719 0.97019 0.04334 0.0
H2002 H 0.25304 0.01748 0.98894 0.0
H2003 H 0.2454 0.98525 0.05032 0.0
H2004 H 0.18552 1.0101 0.05659 0.0
H2005 H 0.20859 0.98579 0.03832 0.0
H2006 H 0.24898 0.04988 0.01953 0.0
H2007 H 0.22572 0.07383 0.03756 0.0
C2008 C 0.27628 0.99823 0.99682 0.0
C2009 C 0.28342 0.9854 0.01244 0.0
C2010 C 0.25791 1.00674 1.00062 0.0
C2011 C 0.24679 1.00266 0.02023 0.0
C2012 C 0.25334 0.98839 0.03487 0.0
C2013 C 0.27157 0.97988 0.031 0.0
C2014 C 0.19924 0.01875 0.04828 0.0
C2015 C 0.20431 0.04375 0.04871 0.0
C2016 C 0.21237 1.00493 0.03783 0.0
C2017 C 0.23062 0.01595 0.02755 0.0
C2018 C 0.23492 0.04079 0.02706 0.0
C2019 C 0.22189 0.0546 0.03766 0.0
H2020 H 0.73211 0.66292 0.97594 0.0
H2021 H 0.7554 0.64333 0.03886 0.0
H2022 H 0.69584 0.63622 0.97649 0.0
H2023 H 0.71907 0.61852 0.04095 0.0
H2024 H 0.65517 0.56194 0.03384 0.0
H2025 H 0.69177 0.58454 0.02903 0.0
H2026 H 0.66403 0.6306 0.99253 0.0
H2027 H 0.62747 0.60717 0.99694 0.0
C2028 C 0.72939 0.65291 0.98993 0.0
C2029 C 0.74663 0.65498 1.00718 0.0
C2030 C 0.70848 0.63776 0.9905 0.0
C2031 C 0.70404 0.62494 0.00885 0.0
C2032 C 0.72154 0.62726 0.02609 0.0
C2033 C 0.74253 0.64171 0.02503 0.0
C2034 C 0.65701 0.57664 0.02441 0.0
C2035 C 0.63855 0.5827 0.01557 0.0
C2036 C 0.67808 0.58998 0.02192 0.0
C2037 C 0.68133 0.60983 0.01046 0.0
C2038 C 0.66258 0.61545 1.00123 0.0
C2039 C 0.6415 0.60215 1.00389 0.0
H2040 H 0.7167 0.43529 0.28646 0.0
H2041 H 0.76027 0.45887 0.23711 0.0
H2042 H 0.73321 0.40241 0.28923 0.0
H2043 H 0.77763 0.4262 0.24027 0.0
H2044 H 0.80571 0.35861 0.24419 0.0
H2045 H 0.78914 0.39169 0.23927 0.0
H2046 H 0.75322 0.37917 0.29804 0.0
H2047 H 0.76981 0.34721 0.30285 0.0
C2048 C 0.73001 0.43376 0.27619 0.0
C2049 C 0.73673 0.45074 0.26163 0.0
C2050 C 0.73996 0.41442 0.27788 0.0
C2051 C 0.75774 0.41049 0.26536 0.0
C2052 C 0.76431 0.42747 0.25054 0.0
C2053 C 0.75415 0.44677 0.2487 0.0
C2054 C 0.79445 0.36301 0.25627 0.0
C2055 C 0.78982 0.34953 0.2743 0.0
C2056 C 0.78458 0.38239 0.2534 0.0
C2057 C 0.76905 0.38939 0.26805 0.0
C2058 C 0.76451 0.37551 0.28578 0.0
C2059 C 0.77447 0.3566 0.28877 0.0
H2060 H 0.91139 0.4505 0.53557 0.0
H2061 H 0.90097 0.50459 0.49713 0.0
H2062 H 0.95014 0.47022 0.54212 0.0
H2063 H 0.94024 0.52398 0.5031 0.0
H2064 H 1.00548 0.56696 0.55013 0.0
H2065 H 0.96669 0.54703 0.53776 0.0
H2066 H 0.98162 0.47766 0.52119 0.0
H2067 H 0.02018 0.49783 0.53406 0.0
C2068 C 0.91745 0.46635 0.52812 0.0
C2069 C 0.90325 0.47613 0.51593 0.0
C2070 C 0.93965 0.47754 0.53176 0.0
C2071 C 0.94805 0.49848 0.52299 0.0
C2072 C 0.934 0.50791 0.51016 0.0
C2073 C 0.91165 0.49679 0.50666 0.0
C2074 C 1.00031 0.54759 0.54325 0.0
C2075 C 0.01541 0.53382 0.54179 0.0
C2076 C 0.97829 0.53621 0.5362 0.0
C2077 C 0.97134 0.5109 0.52829 0.0
C2078 C 0.98663 0.49721 0.52726 0.0
C2079 C 0.00856 0.50863 0.53432 0.0
H2080 H 0.42093 0.11766 0.29539 0.0
H2081 H 0.3682 0.09431 0.33587 0.0
H2082 H 0.40062 0.14176 0.27816 0.0
H2083 H 0.34824 0.11973 0.31979 0.0
H2084 H 0.30712 0.11891 0.25131 0.0
H2085 H 0.33099 0.10778 0.27929 0.0
H2086 H 0.38161 0.17339 0.27935 0.0
H2087 H 0.35766 0.18417 0.25085 0.0
C2088 C 0.4056 0.11906 0.30175 0.0
C2089 C 0.39593 0.10435 0.31682 0.0
C2090 C 0.39392 0.13277 0.29184 0.0
C2091 C 0.37269 0.13214 0.29733 0.0
C2092 C 0.3644 0.11999 0.31492 0.0
C2093 C 0.37584 0.10576 0.32433 0.0
C2094 C 0.32344 0.13071 0.25716 0.0
C2095 C 0.3308 0.1521 0.24891 0.0
C2096 C 0.33692 0.12471 0.27352 0.0
C2097 C 0.35798 0.14003 0.28181 0.0
C2098 C 0.36539 0.1614 0.27334 0.0
C2099 C 0.35183 0.16745 0.25703 0.0
H2100 H 0.3904 0.18919 0.51785 0.0
H2101 H 0.3466 0.11895 0.51669 0.0
H2102 H 0.42182 0.17253 0.52304 0.0
H2103 H 0.37764 0.10221 0.52152 0.0
H2104 H 0.43567 0.07309 0.52128 0.0
H2105 H 0.40886 0.09149 0.50519 0.0
H2106 H 0.43775 0.15835 0.55585 0.0
H2107 H 0.46444 0.13977 0.57176 0.0
C2108 C 0.38752 0.17005 0.51806 0.0
C2109 C 0.36611 0.15531 0.51691 0.0
C2110 C 0.40547 0.16055 0.52121 0.0
C2111 C 0.4023 0.13601 0.52277 0.0
C2112 C 0.38077 0.12108 0.52018 0.0
C2113 C 0.36294 0.13068 0.51754 0.0
C2114 C 0.43648 0.09187 0.52855 0.0
C2115 C 0.45189 0.10501 0.54782 0.0
C2116 C 0.42111 0.10239 0.51948 0.0
C2117 C 0.42095 0.12633 0.5294 0.0
C2118 C 0.4374 0.13994 0.54769 0.0
C2119 C 0.4526 0.1293 0.55693 0.0
H2120 H 0.7198 0.60757 0.31463 0.0
H2121 H 0.74979 0.5837 0.25399 0.0
H2122 H 0.73832 0.64962 0.31469 0.0
H2123 H 0.76781 0.62604 0.25326 0.0
H2124 H 0.8099 0.70567 0.26386 0.0
H2125 H 0.79279 0.66318 0.26439 0.0
H2126 H 0.74244 0.6848 0.30194 0.0
H2127 H 0.75989 0.72725 0.30148 0.0
C2128 C 0.73047 0.61116 0.30125 0.0
C2129 C 0.73324 0.5915 0.28453 0.0
C2130 C 0.74108 0.63577 0.30105 0.0
C2131 C 0.75489 0.64238 0.28386 0.0
C2132 C 0.75782 0.62259 0.2672 0.0
C2133 C 0.74736 0.59786 0.2676 0.0
C2134 C 0.79532 0.70148 0.27254 0.0
C2135 C 0.7867 0.72055 0.28293 0.0
C2136 C 0.78515 0.67667 0.27262 0.0
C2137 C 0.76587 0.66944 0.28337 0.0
C2138 C 0.75729 0.68871 0.29372 0.0
C2139 C 0.76732 0.71349 0.29334 0.0
H2140 H 0.919 0.48147 0.85918 0.0
H2141 H 0.88757 0.49145 0.79509 0.0
H2142 H 0.89708 0.43881 0.851 0.0
H2143 H 0.866 0.44914 0.78672 0.0
H2144 H 0.82652 0.37195 0.78223 0.0
H2145 H 0.83845 0.41514 0.80079 0.0
H2146 H 0.90413 0.40911 0.81509 0.0
H2147 H 0.89215 0.36607 0.79701 0.0
C2148 C 0.90722 0.47445 0.84357 0.0
C2149 C 0.90509 0.48887 0.82731 0.0
C2150 C 0.89464 0.45043 0.83905 0.0
C2151 C 0.88014 0.44104 0.81824 0.0
C2152 C 0.87693 0.45619 0.80298 0.0
C2153 C 0.88944 0.48008 0.80752 0.0
C2154 C 0.84338 0.3799 0.78971 0.0
C2155 C 0.85843 0.36594 0.78897 0.0
C2156 C 0.85012 0.4044 0.8003 0.0
C2157 C 0.87196 0.41492 0.8099 0.0
C2158 C 0.88702 0.40099 0.80855 0.0
C2159 C 0.88032 0.37663 0.79792 0.0
H2160 H 0.12495 0.89474 0.05423 0.0
H2161 H 0.07639 0.89017 0.1024 0.0
H2162 H 0.1161 0.93062 0.04394 0.0
H2163 H 0.06723 0.92551 0.09194 0.0
H2164 H 0.07063 1.00467 0.08913 0.0
H2165 H 0.07756 0.96728 0.09638 0.0
H2166 H 0.09256 0.95021 0.02516 0.0
H2167 H 0.08547 0.98833 0.018 0.0
C2168 C 0.11226 0.90119 0.0626 0.0
C2169 C 0.10151 0.88909 0.07932 0.0
C2170 C 0.10701 0.92194 0.05653 0.0
C2171 C 0.09084 0.93172 0.06698 0.0
C2172 C 0.08003 0.91935 0.08354 0.0
C2173 C 0.08522 0.89866 0.08953 0.0
C2174 C 0.07495 0.99277 0.07472 0.0
C2175 C 0.07693 0.99971 0.05277 0.0
C2176 C 0.07897 0.97098 0.07892 0.0
C2177 C 0.08566 0.9549 0.0615 0.0
C2178 C 0.08756 0.96173 0.03931 0.0
C2179 C 0.08315 0.9836 0.03498 0.0
H2180 H 0.95967 0.2993 0.91794 0.0
H2181 H 0.97428 0.25354 0.85784 0.0
H2182 H 0.92873 0.30392 0.89483 0.0
H2183 H 0.94314 0.25752 0.83431 0.0
H2184 H 0.885 0.26629 0.79072 0.0
H2185 H 0.91583 0.26169 0.81369 0.0
H2186 H 0.90081 0.30715 0.87447 0.0
H2187 H 0.87035 0.31207 0.8507 0.0
C2188 C 0.95619 0.28994 0.89968 0.0
C2189 C 0.96986 0.27589 0.89014 0.0
C2190 C 0.938 0.29261 0.88598 0.0
C2191 C 0.93217 0.28117 0.86182 0.0
C2192 C 0.94606 0.26699 0.85243 0.0
C2193 C 0.96439 0.26454 0.86615 0.0
C2194 C 0.8884 0.27568 0.80886 0.0
C2195 C 0.87496 0.29011 0.8182 0.0
C2196 C 0.90647 0.27287 0.8226 0.0
C2197 C 0.91216 0.28408 0.8468 0.0
C2198 C 0.89816 0.29807 0.85623 0.0
C2199 C 0.88015 0.301 0.84234 0.0
H2200 H 0.63869 0.25008 0.59461 0.0
H2201 H 0.57309 0.2401 0.56313 0.0
H2202 H 0.63383 0.20608 0.58471 0.0
H2203 H 0.56836 0.19594 0.55245 0.0
H2204 H 0.57635 0.11657 0.52377 0.0
H2205 H 0.58335 0.16092 0.52784 0.0
H2206 H 0.60899 0.17118 0.6005 0.0
H2207 H 0.60106 0.1271 0.59669 0.0
C2208 C 0.62353 0.23859 0.58463 0.0
C2209 C 0.60659 0.24891 0.57899 0.0
C2210 C 0.6206 0.21323 0.57924 0.0
C2211 C 0.60069 0.19719 0.56772 0.0
C2212 C 0.58402 0.20758 0.56107 0.0
C2213 C 0.58679 0.23299 0.567 0.0
C2214 C 0.58381 0.12834 0.5405 0.0
C2215 C 0.58854 0.11815 0.5598 0.0
C2216 C 0.58765 0.15381 0.5429 0.0
C2217 C 0.5969 0.1699 0.5645 0.0
C2218 C 0.60209 0.15959 0.58353 0.0
C2219 C 0.59759 0.13423 0.58134 0.0
H2220 H 0.6052 0.77014 0.4212 0.0
H2221 H 0.5727 0.79082 0.36393 0.0
H2222 H 0.63722 0.77154 0.40021 0.0
H2223 H 0.60485 0.7928 0.34321 0.0
H2224 H 0.65793 0.77927 0.30112 0.0
H2225 H 0.62601 0.77039 0.32221 0.0
H2226 H 0.66767 0.79851 0.3883 0.0
H2227 H 0.69971 0.80674 0.36685 0.0
C2228 C 0.60478 0.77492 0.40408 0.0
C2229 C 0.58612 0.78029 0.39433 0.0
C2230 C 0.62333 0.77588 0.39206 0.0
C2231 C 0.62388 0.78223 0.36983 0.0
C2232 C 0.6051 0.78735 0.36002 0.0
C2233 C 0.58656 0.78636 0.37202 0.0
C2234 C 0.66031 0.78281 0.32017 0.0
C2235 C 0.68139 0.79342 0.33228 0.0
C2236 C 0.64194 0.77813 0.33234 0.0
C2237 C 0.64395 0.78419 0.3571 0.0
C2238 C 0.66527 0.79347 0.36928 0.0
C2239 C 0.68375 0.79808 0.35701 0.0
H2240 H 0.12063 0.25891 0.4059 0.0
H2241 H 0.12571 0.31178 0.47016 0.0
H2242 H 0.11151 0.22624 0.42759 0.0
H2243 H 0.11592 0.27935 0.49151 0.0
H2244 H 0.10939 0.21972 0.52958 0.0
H2245 H 0.127 0.24824 0.50609 0.0
H2246 H 0.08047 0.20791 0.44571 0.0
H2247 H 0.06368 0.17882 0.46918 0.0
C2248 C 0.1201 0.26357 0.42469 0.0
C2249 C 0.12392 0.2879 0.43634 0.0
C2250 C 0.11472 0.24486 0.43706 0.0
C2251 C 0.11299 0.25018 0.46127 0.0
C2252 C 0.11756 0.27459 0.47298 0.0
C2253 C 0.12308 0.29324 0.4607 0.0
C2254 C 0.10322 0.21696 0.51121 0.0
C2255 C 0.08509 0.19763 0.50112 0.0
C2256 C 0.11318 0.23322 0.49778 0.0
C2257 C 0.10488 0.23061 0.47417 0.0
C2258 C 0.08734 0.21039 0.4638 0.0
C2259 C 0.07758 0.19391 0.47721 0.0
H2260 H 0.58739 0.27618 0.16826 0.0
H2261 H 0.56562 0.23763 0.22292 0.0
H2262 H 0.6235 0.26907 0.17472 0.0
H2263 H 0.60127 0.23048 0.22916 0.0
H2264 H 0.65736 0.20246 0.2262 0.0
H2265 H 0.62381 0.20634 0.20627 0.0
H2266 H 0.65435 0.28231 0.20922 0.0
H2267 H 0.68791 0.2784 0.2289 0.0
C2268 C 0.5904 0.26637 0.18172 0.0
C2269 C 0.57387 0.2576 0.19526 0.0
C2270 C 0.6109 0.26218 0.18526 0.0
C2271 C 0.61487 0.24876 0.20201 0.0
C2272 C 0.59841 0.24037 0.21571 0.0
C2273 C 0.57815 0.24487 0.21247 0.0
C2274 C 0.65701 0.21979 0.22203 0.0
C2275 C 0.67487 0.24026 0.22957 0.0
C2276 C 0.63794 0.222 0.21061 0.0
C2277 C 0.63647 0.24476 0.20687 0.0
C2278 C 0.65512 0.26459 0.212 0.0
C2279 C 0.67426 0.26235 0.22332 0.0
H2280 H 0.60352 0.90765 0.90683 0.0
H2281 H 0.65692 0.91709 0.96061 0.0
H2282 H 0.59092 0.93882 0.93143 0.0
H2283 H 0.6444 0.94861 0.98531 0.0
H2284 H 0.62361 0.01898 0.01011 0.0
H2285 H 0.63873 0.98981 0.98611 0.0
H2286 H 0.57436 0.93944 0.96927 0.0
H2287 H 0.5592 0.96909 0.9933 0.0
C2288 C 0.61296 0.91706 0.92361 0.0
C2289 C 0.63124 0.91036 0.93194 0.0
C2290 C 0.60555 0.93451 0.93779 0.0
C2291 C 0.61654 0.94566 0.96028 0.0
C2292 C 0.63567 0.94009 0.968 0.0
C2293 C 0.64287 0.92228 0.95394 0.0
C2294 C 0.61285 1.00145 1.00183 0.0
C2295 C 0.59042 0.9959 1.00366 0.0
C2296 C 0.62145 0.98488 0.98798 0.0
C2297 C 0.60765 0.96259 0.97586 0.0
C2298 C 0.58521 0.95678 0.97822 0.0
C2299 C 0.57659 0.9735 0.99195 0.0
H2300 H 0.95598 0.79891 0.70058 0.0
H2301 H 0.95212 0.73596 0.73155 0.0
H2302 H 0.9211 0.80206 0.71445 0.0
H2303 H 0.91707 0.73892 0.74479 0.0
H2304 H 0.84252 0.74905 0.71871 0.0
H2305 H 0.87777 0.74247 0.71102 0.0
H2306 H 0.90964 0.80242 0.76804 0.0
H2307 H 0.87378 0.80669 0.77798 0.0
C2308 C 0.94779 0.78598 0.71052 0.0
C2309 C 0.95689 0.76765 0.71564 0.0
C2310 C 0.92803 0.78781 0.71842 0.0
C2311 C 0.91711 0.77106 0.73106 0.0
C2312 C 0.92574 0.75228 0.73553 0.0
C2313 C 0.94569 0.75071 0.72805 0.0
C2314 C 0.85698 0.76086 0.72976 0.0
C2315 C 0.85572 0.78009 0.74776 0.0
C2316 C 0.87704 0.75692 0.72536 0.0
C2317 C 0.89608 0.77258 0.73844 0.0
C2318 C 0.8949 0.7906 0.75748 0.0
C2319 C 0.87461 0.79359 0.76272 0.0
H2320 H 0.11046 0.04429 0.83588 0.0
H2321 H 0.16656 0.02622 0.86495 0.0
H2322 H 0.09572 0.0454 0.87389 0.0
H2323 H 0.15226 0.02805 0.90319 0.0
H2324 H 0.13033 0.05449 0.97714 0.0
H2325 H 0.14468 0.0516 0.93891 0.0
H2326 H 0.07901 0.02541 0.90364 0.0
H2327 H 0.06482 0.02801 0.94172 0.0
C2328 C 0.11985 0.04061 0.85031 0.0
C2329 C 0.14 0.03512 0.84654 0.0
C2330 C 0.11122 0.04115 0.8725 0.0
C2331 C 0.12249 0.03698 0.89266 0.0
C2332 C 0.14273 0.03166 0.88883 0.0
C2333 C 0.15104 0.03043 0.86647 0.0
C2334 C 0.11878 0.04786 0.96134 0.0
C2335 C 0.09606 0.04136 0.96347 0.0
C2336 C 0.12715 0.04613 0.93898 0.0
C2337 C 0.11337 0.03827 0.91716 0.0
C2338 C 0.09065 0.03182 0.91936 0.0
C2339 C 0.08232 0.03315 0.94169 0.0
H2340 H 0.8677 0.43548 0.57246 0.0
H2341 H 0.79978 0.4181 0.58422 0.0
H2342 H 0.87525 0.41107 0.6001 0.0
H2343 H 0.8076 0.394 0.61293 0.0
H2344 H 0.85147 0.37906 0.67941 0.0
H2345 H 0.83725 0.40244 0.6542 0.0
H2346 H 0.8575 0.36211 0.59386 0.0
H2347 H 0.87159 0.33857 0.61896 0.0
C2348 C 0.8546 0.42718 0.58177 0.0
C2349 C 0.83327 0.42878 0.57676 0.0
C2350 C 0.85885 0.41302 0.59723 0.0
C2351 C 0.84188 0.40061 0.60812 0.0
C2352 C 0.82077 0.40344 0.6044 0.0
C2353 C 0.81636 0.41723 0.58832 0.0
C2354 C 0.85249 0.37496 0.66068 0.0
C2355 C 0.86289 0.35744 0.65097 0.0
C2356 C 0.84428 0.38816 0.64639 0.0
C2357 C 0.84653 0.38396 0.62239 0.0
C2358 C 0.85587 0.36561 0.61249 0.0
C2359 C 0.86406 0.3524 0.62675 0.0
H2360 H 0.51408 0.09317 0.36782 0.0
H2361 H 0.45539 0.04624 0.38433 0.0
H2362 H 0.53405 0.09007 0.40402 0.0
H2363 H 0.47541 0.04162 0.41944 0.0
H2364 H 0.51331 0.05618 0.49052 0.0
H2365 H 0.49323 0.06246 0.45703 0.0
H2366 H 0.54702 0.05791 0.41649 0.0
H2367 H 0.56779 0.05235 0.45072 0.0
C2368 C 0.50549 0.08264 0.37955 0.0
C2369 C 0.48337 0.07026 0.37388 0.0
C2370 C 0.51688 0.08048 0.39988 0.0
C2371 C 0.50632 0.0653 0.4142 0.0
C2372 C 0.48388 0.05371 0.40887 0.0
C2373 C 0.47239 0.05646 0.38894 0.0
C2374 C 0.52115 0.05669 0.47462 0.0
C2375 C 0.54263 0.05462 0.47356 0.0
C2376 C 0.50942 0.06008 0.45531 0.0
C2377 C 0.51873 0.06109 0.43436 0.0
C2378 C 0.53977 0.05788 0.43279 0.0
C2379 C 0.55164 0.05457 0.45231 0.0
H2380 H 0.83204 0.72042 0.0981 0.0
H2381 H 0.7988 0.77322 0.08325 0.0
H2382 H 0.82988 0.73246 0.13958 0.0
H2383 H 0.79665 0.78549 0.12571 0.0
H2384 H 0.81662 0.81017 0.21042 0.0
H2385 H 0.81711 0.80357 0.16735 0.0
H2386 H 0.80028 0.72612 0.16349 0.0
H2387 H 0.80044 0.73277 0.20589 0.0
C2388 C 0.82439 0.73485 0.10362 0.0
C2389 C 0.81529 0.74553 0.08695 0.0
C2390 C 0.823 0.74166 0.12764 0.0
C2391 C 0.81252 0.75952 0.13617 0.0
C2392 C 0.80465 0.77148 0.11982 0.0
C2393 C 0.80591 0.76448 0.09545 0.0
C2394 C 0.81246 0.79177 0.20019 0.0
C2395 C 0.80839 0.77196 0.2116 0.0
C2396 C 0.81284 0.78796 0.17551 0.0
C2397 C 0.80925 0.7643 0.16184 0.0
C2398 C 0.80376 0.74464 0.17331 0.0
C2399 C 0.80358 0.74842 0.1977 0.0
H2400 H 0.17394 0.0158 0.68227 0.0
H2401 H 0.11902 0.0287 0.71646 0.0
H2402 H 0.15838 0.02357 0.64607 0.0
H2403 H 0.10318 0.0366 0.67987 0.0
H2404 H 0.07228 0.03562 0.60179 0.0
H2405 H 0.08551 0.02778 0.63982 0.0
H2406 H 0.15177 0.05013 0.62388 0.0
H2407 H 0.13858 0.0573 0.58645 0.0
C2408 C 0.15836 0.02008 0.68225 0.0
C2409 C 0.14813 0.02132 0.70318 0.0
C2410 C 0.14932 0.02498 0.66108 0.0
C2411 C 0.12922 0.03136 0.65906 0.0
C2412 C 0.11857 0.03192 0.67983 0.0
C2413 C 0.12783 0.02731 0.70123 0.0
C2414 C 0.08971 0.03933 0.60656 0.0
C2415 C 0.10415 0.04748 0.59038 0.0
C2416 C 0.09749 0.03461 0.62865 0.0
C2417 C 0.12012 0.03761 0.63577 0.0
C2418 C 0.1343 0.04658 0.61974 0.0
C2419 C 0.1266 0.05117 0.59792 0.0
H2420 H 0.84664 0.35842 0.46731 0.0
H2421 H 0.83436 0.41616 0.4354 0.0
H2422 H 0.84846 0.33512 0.42849 0.0
H2423 H 0.83661 0.39303 0.3968 0.0
H2424 H 0.80304 0.32959 0.33715 0.0
H2425 H 0.8087 0.35443 0.37644 0.0
H2426 H 0.86851 0.33463 0.39107 0.0
H2427 H 0.86247 0.30919 0.35113 0.0
C2428 C 0.84443 0.36615 0.45204 0.0
C2429 C 0.83951 0.38863 0.45416 0.0
C2430 C 0.8458 0.35299 0.42996 0.0
C2431 C 0.8423 0.36222 0.40987 0.0
C2432 C 0.8389 0.38541 0.41215 0.0
C2433 C 0.83742 0.39849 0.43415 0.0
C2434 C 0.81698 0.32993 0.34903 0.0
C2435 C 0.83193 0.317 0.34181 0.0
C2436 C 0.8205 0.34453 0.37125 0.0
C2437 C 0.83915 0.34655 0.38651 0.0
C2438 C 0.854 0.3332 0.37947 0.0
C2439 C 0.85049 0.31859 0.35696 0.0
H2440 H 0.4501 0.0845 0.23924 0.0
H2441 H 0.45093 0.01524 0.25563 0.0
H2442 H 0.47437 0.07857 0.20877 0.0
H2443 H 0.47552 1.0097 0.2261 0.0
H2444 H 0.54012 0.02283 0.19951 0.0
H2445 H 0.51619 0.03648 0.22696 0.0
H2446 H 0.47476 0.045 0.16902 0.0
H2447 H 0.49895 0.03162 0.14154 0.0
C2448 C 0.45492 0.06773 0.23568 0.0
C2449 C 0.44838 0.05 0.24907 0.0
C2450 C 0.4689 0.06449 0.21861 0.0
C2451 C 0.47695 0.04393 0.2156 0.0
C2452 C 0.46959 0.02579 0.22836 0.0
C2453 C 0.45526 0.02872 0.24486 0.0
C2454 C 0.52609 0.02801 0.1928 0.0
C2455 C 0.52094 0.02577 0.16862 0.0
C2456 C 0.51251 0.03583 0.20836 0.0
C2457 C 0.49354 0.04122 0.19984 0.0
C2458 C 0.48934 0.04088 0.17584 0.0
C2459 C 0.50304 0.03318 0.16023 0.0
H2460 H 0.77959 0.75612 0.9486 0.0
H2461 H 0.84024 0.73592 0.94752 0.0
H2462 H 0.78321 0.76613 0.91005 0.0
H2463 H 0.84418 0.74659 0.90877 0.0
H2464 H 0.82882 0.74394 0.82731 0.0
H2465 H 0.82813 0.73387 0.86661 0.0
H2466 H 0.8046 0.79629 0.89151 0.0
H2467 H 0.80565 0.80635 0.85275 0.0
C2468 C 0.79391 0.75413 0.9403 0.0
C2469 C 0.80968 0.74535 0.95144 0.0
C2470 C 0.79603 0.75995 0.91807 0.0
C2471 C 0.81408 0.7574 0.90613 0.0
C2472 C 0.82994 0.7486 0.91722 0.0
C2473 C 0.82775 0.74263 0.93955 0.0
C2474 C 0.82361 0.75549 0.84128 0.0
C2475 C 0.81731 0.77595 0.83687 0.0
C2476 C 0.82331 0.74983 0.86386 0.0
C2477 C 0.8161 0.7641 0.88238 0.0
C2478 C 0.81001 0.78464 0.8778 0.0
C2479 C 0.81078 0.79056 0.85553 0.0
H2480 H 0.8631 0.12129 0.07602 0.0
H2481 H 0.84452 0.11378 1.00169 0.0
H2482 H 0.89594 0.10819 0.0672 0.0
H2483 H 0.87691 0.10014 0.99295 0.0
H2484 H 0.90391 0.03234 0.99689 0.0
H2485 H 0.87858 0.05579 0.01014 0.0
H2486 H 0.93255 0.11928 0.03652 0.0
H2487 H 0.95808 0.09628 0.0225 0.0
C2488 C 0.8664 0.11731 0.05792 0.0
C2489 C 0.85145 0.11793 0.03942 0.0
C2490 C 0.88507 0.11008 0.05295 0.0
C2491 C 0.8884 0.10307 0.02951 0.0
C2492 C 0.87437 0.10561 0.01114 0.0
C2493 C 0.85599 0.11331 0.01611 0.0
C2494 C 0.91037 0.05127 1.00548 0.0
C2495 C 0.93282 0.06258 0.0084 0.0
C2496 C 0.89598 0.06454 0.01309 0.0
C2497 C 0.90395 0.08914 0.02387 0.0
C2498 C 0.92636 0.10026 0.02808 0.0
C2499 C 0.9408 0.08705 0.02021 0.0
H2500 H 0.41235 0.41467 0.05481 0.0
H2501 H 0.39109 0.47507 0.03837 0.0
H2502 H 0.45006 0.43774 0.05771 0.0
H2503 H 0.42879 0.49777 0.03886 0.0
H2504 H 0.49917 0.54174 0.05115 0.0
H2505 H 0.46174 0.52011 0.05253 0.0
H2506 H 0.48061 0.45276 0.04478 0.0
H2507 H 0.51818 0.47508 0.0452 0.0
C2508 C 0.41582 0.43291 0.05146 0.0
C2509 C 0.39861 0.44294 0.04636 0.0
C2510 C 0.43773 0.4463 0.05283 0.0
C2511 C 0.4434 0.47007 0.04827 0.0
C2512 C 0.42588 0.47996 0.04305 0.0
C2513 C 0.40394 0.4668 0.04251 0.0
C2514 C 0.49542 0.52242 0.05042 0.0
C2515 C 0.51202 0.5104 0.0485 0.0
C2516 C 0.47354 0.50963 0.0507 0.0
C2517 C 0.46721 0.48413 0.04873 0.0
C2518 C 0.48408 0.47224 0.04687 0.0
C2519 C 0.50598 0.48512 0.04687 0.0
H2520 H 0.41444 0.66217 0.79206 0.0
H2521 H 0.37887 0.62464 0.72478 0.0
H2522 H 0.39744 0.69567 0.79122 0.0
H2523 H 0.3617 0.65767 0.72392 0.0
H2524 H 0.3433 0.72855 0.71571 0.0
H2525 H 0.3589 0.69476 0.71831 0.0
H2526 H 0.37094 0.71842 0.79363 0.0
H2527 H 0.35465 0.75229 0.79077 0.0
C2528 C 0.40294 0.66072 0.77696 0.0
C2529 C 0.39856 0.63969 0.75847 0.0
C2530 C 0.39286 0.68038 0.77648 0.0
C2531 C 0.37763 0.68069 0.75741 0.0
C2532 C 0.37327 0.65951 0.73904 0.0
C2533 C 0.38328 0.63992 0.73957 0.0
C2534 C 0.34878 0.7265 0.73306 0.0
C2535 C 0.34662 0.74366 0.75294 0.0
C2536 C 0.35803 0.7066 0.73463 0.0
C2537 C 0.36672 0.70248 0.75626 0.0
C2538 C 0.36479 0.71989 0.77634 0.0
C2539 C 0.35496 0.73962 0.77476 0.0
H2540 H 0.23772 0.58823 0.55157 0.0
H2541 H 0.22223 0.62284 0.49544 0.0
H2542 H 0.20259 0.58839 0.56554 0.0
H2543 H 0.18654 0.62193 0.50867 0.0
H2544 H 0.12872 0.62978 0.53967 0.0
H2545 H 0.16859 0.63932 0.54147 0.0
H2546 H 0.16566 0.56608 0.54942 0.0
H2547 H 0.12671 0.55712 0.54716 0.0
C2548 C 0.22636 0.59491 0.54166 0.0
C2549 C 0.2322 0.60476 0.52201 0.0
C2550 C 0.20656 0.59554 0.54997 0.0
C2551 C 0.19212 0.60555 0.53842 0.0
C2552 C 0.19769 0.61475 0.5183 0.0
C2553 C 0.2177 0.61454 0.51026 0.0
C2554 C 0.1369 0.61626 0.54296 0.0
C2555 C 0.1248 0.59274 0.54372 0.0
C2556 C 0.15955 0.6216 0.54382 0.0
C2557 C 0.17006 0.60327 0.54518 0.0
C2558 C 0.15806 0.58064 0.54851 0.0
C2559 C 0.13557 0.57536 0.54724 0.0
H2560 H 0.7526 0.99233 0.71343 0.0
H2561 H 0.72716 1.00201 0.78043 0.0
H2562 H 0.75858 0.95384 0.71945 0.0
H2563 H 0.73402 0.96477 0.78708 0.0
H2564 H 0.75311 0.90721 0.80552 0.0
H2565 H 0.73044 0.92269 0.77982 0.0
H2566 H 0.78716 0.9509 0.74598 0.0
H2567 H 0.80908 0.93421 0.77073 0.0
C2568 C 0.74816 0.98602 0.7293 0.0
C2569 C 0.74003 1.00009 0.74679 0.0
C2570 C 0.75134 0.96401 0.73264 0.0
C2571 C 0.74696 0.95636 0.75379 0.0
C2572 C 0.7372 0.96975 0.77036 0.0
C2573 C 0.73364 0.99139 0.7668 0.0
C2574 C 0.7603 0.91607 0.79198 0.0
C2575 C 0.78265 0.92042 0.79024 0.0
C2576 C 0.74745 0.92475 0.77725 0.0
C2577 C 0.75716 0.93857 0.76139 0.0
C2578 C 0.77911 0.94032 0.75796 0.0
C2579 C 0.7918 0.93123 0.77237 0.0
H2580 H 0.79973 0.98097 0.54584 0.0
H2581 H 0.75736 0.91223 0.55169 0.0
H2582 H 0.76827 0.99711 0.54142 0.0
H2583 H 0.72571 0.92869 0.54912 0.0
H2584 H 0.67426 0.95601 0.50931 0.0
H2585 H 0.70297 0.93924 0.52294 0.0
H2586 H 0.74093 1.01155 0.55773 0.0
H2587 H 0.71229 0.02816 0.54297 0.0
C2588 C 0.78358 0.96944 0.54645 0.0
C2589 C 0.78086 0.94532 0.54869 0.0
C2590 C 0.76548 0.97876 0.54429 0.0
C2591 C 0.74418 0.96438 0.54503 0.0
C2592 C 0.74166 0.94029 0.54797 0.0
C2593 C 0.75978 0.93079 0.54947 0.0
C2594 C 0.68851 0.96815 0.52047 0.0
C2595 C 0.69116 0.99332 0.52502 0.0
C2596 C 0.70507 0.95858 0.52834 0.0
C2597 C 0.72478 0.97401 0.54095 0.0
C2598 C 0.7264 0.99908 0.5474 0.0
C2599 C 0.70983 1.00865 0.53936 0.0
H2600 H 0.43461 0.49038 0.78577 0.0
H2601 H 0.37601 0.50465 0.75767 0.0
H2602 H 0.41498 0.44871 0.7845 0.0
H2603 H 0.35597 0.462 0.75596 0.0
H2604 H 0.32003 0.38546 0.77064 0.0
H2605 H 0.33845 0.42789 0.77081 0.0
H2606 H 0.39971 0.40945 0.76674 0.0
H2607 H 0.38129 0.36738 0.76668 0.0
C2608 C 0.4174 0.48483 0.77921 0.0
C2609 C 0.40736 0.502 0.77196 0.0
C2610 C 0.4059 0.4602 0.77823 0.0
C2611 C 0.38336 0.45066 0.76993 0.0
C2612 C 0.37312 0.46782 0.76272 0.0
C2613 C 0.38478 0.49271 0.76361 0.0
C2614 C 0.3374 0.39022 0.7697 0.0
C2615 C 0.3487 0.37196 0.7686 0.0
C2616 C 0.34822 0.41507 0.76973 0.0
C2617 C 0.37113 0.42339 0.76901 0.0
C2618 C 0.38232 0.40496 0.7678 0.0
C2619 C 0.37149 0.38019 0.76755 0.0
H2620 H 0.26498 0.62311 0.23905 0.0
H2621 H 0.23089 0.63724 0.2995 0.0
H2622 H 0.28056 0.66634 0.24252 0.0
H2623 H 0.2477 0.68084 0.30415 0.0
H2624 H 0.2503 0.74999 0.27523 0.0
H2625 H 0.24101 0.7087 0.28103 0.0
H2626 H 0.3051 0.70277 0.2652 0.0
H2627 H 0.31451 0.74447 0.25969 0.0
C2628 C 0.26154 0.63562 0.25359 0.0
C2629 C 0.2471 0.62734 0.26918 0.0
C2630 C 0.27055 0.66026 0.25572 0.0
C2631 C 0.26548 0.67679 0.27375 0.0
C2632 C 0.25168 0.66834 0.29001 0.0
C2633 C 0.24218 0.64362 0.28745 0.0
C2634 C 0.2623 0.73975 0.27264 0.0
C2635 C 0.28281 0.74994 0.26604 0.0
C2636 C 0.25715 0.71632 0.2765 0.0
C2637 C 0.27234 0.70263 0.27344 0.0
C2638 C 0.29304 0.71297 0.26735 0.0
C2639 C 0.29828 0.73658 0.26378 0.0
H2640 H 0.56744 0.73913 0.51913 0.0
H2641 H 0.53658 0.69318 0.45267 0.0
H2642 H 0.5721 0.70353 0.5337 0.0
H2643 H 0.54144 0.65753 0.46696 0.0
H2644 H 0.56818 0.59857 0.49138 0.0
H2645 H 0.56621 0.63538 0.47741 0.0
H2646 H 0.55473 0.66752 0.54664 0.0
H2647 H 0.55739 0.63093 0.56055 0.0
C2648 C 0.56159 0.72141 0.50758 0.0
C2649 C 0.55144 0.71925 0.48471 0.0
C2650 C 0.5642 0.70079 0.51599 0.0
C2651 C 0.55727 0.67718 0.50168 0.0
C2652 C 0.54726 0.67515 0.47868 0.0
C2653 C 0.54421 0.6957 0.47047 0.0
C2654 C 0.56589 0.61379 0.5038 0.0
C2655 C 0.56371 0.61193 0.52738 0.0
C2656 C 0.56433 0.63489 0.49567 0.0
C2657 C 0.56019 0.6549 0.5107 0.0
C2658 C 0.55826 0.653 0.53439 0.0
C2659 C 0.5598 0.63188 0.54247 0.0
H2660 H 0.65989 0.29555 0.67778 0.0
H2661 H 0.69439 0.36223 0.65923 0.0
H2662 H 0.69278 0.29481 0.70106 0.0
H2663 H 0.7277 0.36167 0.68293 0.0
H2664 H 0.77963 0.36309 0.74513 0.0
H2665 H 0.74676 0.36569 0.72205 0.0
H2666 H 0.72742 0.28767 0.6993 0.0
H2667 H 0.75954 0.28527 0.72283 0.0
C2668 C 0.67448 0.31029 0.67881 0.0
C2669 C 0.67414 0.32905 0.66654 0.0
C2670 C 0.69364 0.30973 0.69211 0.0
C2671 C 0.7134 0.32811 0.69412 0.0
C2672 C 0.713 0.34717 0.68213 0.0
C2673 C 0.69382 0.34747 0.66836 0.0
C2674 C 0.76845 0.34653 0.73498 0.0
C2675 C 0.773 0.32403 0.73514 0.0
C2676 C 0.74952 0.348 0.72159 0.0
C2677 C 0.73411 0.32695 0.70829 0.0
C2678 C 0.73856 0.30445 0.70905 0.0
C2679 C 0.75748 0.30305 0.72222 0.0
H2680 H 0.99897 0.35533 0.97602 0.0
H2681 H 0.06652 0.36253 0.99858 0.0
H2682 H 1.00493 0.39926 0.9892 0.0
H2683 H 0.07231 0.40659 0.01288 0.0
H2684 H 0.06573 0.48369 0.05328 0.0
H2685 H 0.05838 0.43898 0.04427 0.0
H2686 H 0.02866 0.4367 0.97487 0.0
H2687 H 0.037 0.48106 0.98344 0.0
C2688 C 0.01504 0.36624 0.9842 0.0
C2689 C 0.03222 0.35524 0.98621 0.0
C2690 C 0.01848 0.39152 0.99172 0.0
C2691 C 0.03909 0.40669 1.00227 0.0
C2692 C 0.05618 0.39558 1.00502 0.0
C2693 C 0.05289 0.37031 0.99671 0.0
C2694 C 0.05716 0.47356 0.03631 0.0
C2695 C 0.05144 0.48605 0.01928 0.0
C2696 C 0.0532 0.44792 0.03102 0.0
C2697 C 0.04287 0.43401 0.00877 0.0
C2698 C 0.0365 0.44658 0.9922 0.0
C2699 C 0.04115 0.47209 0.99717 0.0
H2700 H 0.04888 0.85442 0.17157 0.0
H2701 H 0.0303 0.7765 0.14862 0.0
H2702 H 0.01425 0.85198 0.18863 0.0
H2703 H 0.99583 0.77395 0.16504 0.0
H2704 H 0.9304 0.7737 0.18627 0.0
H2705 H 0.96057 0.78362 0.16258 0.0
H2706 H 0.99895 0.83595 0.22259 0.0
H2707 H 0.96867 0.82606 0.24598 0.0
C2708 C 0.03722 0.83686 0.16985 0.0
C2709 C 0.04226 0.81561 0.15902 0.0
C2710 C 0.01746 0.83542 0.17964 0.0
C2711 C 1.00219 0.81276 0.17819 0.0
C2712 C 1.007 0.79172 0.16631 0.0
C2713 C 0.02686 0.79313 0.15709 0.0
C2714 C 0.94505 0.78786 0.19406 0.0
C2715 C 0.94726 0.79926 0.21783 0.0
C2716 C 0.9624 0.79341 0.18062 0.0
C2717 C 0.98231 0.81042 0.19075 0.0
C2718 C 0.98384 0.82296 0.21414 0.0
C2719 C 0.96654 0.8173 0.22757 0.0
H2720 H 0.53212 0.28813 0.09087 0.0
H2721 H 0.51584 0.33901 0.14614 0.0
H2722 H 0.54317 0.31962 0.06911 0.0
H2723 H 0.52641 0.37102 0.12347 0.0
H2724 H 0.58035 0.42238 0.0894 0.0
H2725 H 0.5609 0.39389 0.11208 0.0
H2726 H 0.52938 0.34438 0.04709 0.0
H2727 H 0.54983 0.37228 0.02473 0.0
C2728 C 0.53049 0.30603 0.09819 0.0
C2729 C 0.52314 0.31116 0.12022 0.0
C2730 C 0.53663 0.32407 0.08554 0.0
C2731 C 0.53535 0.3477 0.09441 0.0
C2732 C 0.52751 0.35288 0.11625 0.0
C2733 C 0.52137 0.33463 0.1291 0.0
C2734 C 0.56928 0.40528 0.08017 0.0
C2735 C 0.56698 0.3988 0.05553 0.0
C2736 C 0.55791 0.38924 0.09305 0.0
C2737 C 0.54391 0.36678 0.0813 0.0
C2738 C 0.54052 0.3613 0.05657 0.0
C2739 C 0.55223 0.37706 0.04378 0.0
H2740 H 0.05449 0.35967 0.4013 0.0
H2741 H 0.06616 0.31982 0.33528 0.0
H2742 H 0.01799 0.35801 0.38373 0.0
H2743 H 0.03004 0.31837 0.31791 0.0
H2744 H 0.95905 0.30228 0.29637 0.0
H2745 H 0.99084 0.29996 0.32107 0.0
H2746 H 1.00386 0.37638 0.35198 0.0
H2747 H 0.97197 0.37848 0.32727 0.0
C2748 C 0.04924 0.35048 0.38313 0.0
C2749 C 0.06315 0.33987 0.36963 0.0
C2750 C 0.02841 0.34956 0.37312 0.0
C2751 C 0.02118 0.33783 0.34959 0.0
C2752 C 0.03505 0.32709 0.33624 0.0
C2753 C 0.05583 0.32816 0.34613 0.0
C2754 C 0.9686 0.31839 0.30876 0.0
C2755 C 0.9636 0.34064 0.30988 0.0
C2756 C 0.9867 0.31711 0.3228 0.0
C2757 C 0.99991 0.33808 0.33814 0.0
C2758 C 0.99392 0.35997 0.34033 0.0
C2759 C 0.97589 0.36125 0.32614 0.0
H2760 H 0.99268 0.67543 0.66474 0.0
H2761 H 0.97981 0.70329 0.60274 0.0
H2762 H 0.00839 0.64628 0.64149 0.0
H2763 H 0.99573 0.67431 0.57968 0.0
H2764 H 0.0173 0.60764 0.54568 0.0
H2765 H 0.9954 0.63158 0.56514 0.0
H2766 H 0.04477 0.65753 0.62542 0.0
H2767 H 0.06712 0.63324 0.60573 0.0
C2768 C 0.99237 0.67466 0.64599 0.0
C2769 C 0.98589 0.69222 0.63572 0.0
C2770 C 1.0017 0.6583 0.63283 0.0
C2771 C 1.00412 0.65902 0.60922 0.0
C2772 C 0.99439 0.67383 0.59805 0.0
C2773 C 0.98507 0.69024 0.61123 0.0
C2774 C 0.02392 0.61887 0.56279 0.0
C2775 C 0.04399 0.61853 0.5742 0.0
C2776 C 0.01116 0.6324 0.57401 0.0
C2777 C 0.01819 0.64581 0.59688 0.0
C2778 C 0.03876 0.64661 0.60795 0.0
C2779 C 0.05159 0.63295 0.59668 0.0
H2780 H 0.70312 0.85303 0.8808 0.0
H2781 H 0.65327 0.80412 0.82754 0.0
H2782 H 0.73095 0.84686 0.85596 0.0
H2783 H 0.68149 0.79669 0.80293 0.0
H2784 H 0.73955 0.81151 0.75767 0.0
H2785 H 0.70857 0.81521 0.77975 0.0
H2786 H 0.74751 0.81587 0.8439 0.0
H2787 H 0.77832 0.81407 0.82223 0.0
C2788 C 0.6982 0.84063 0.86388 0.0
C2789 C 0.67619 0.82877 0.85613 0.0
C2790 C 0.71412 0.83698 0.84967 0.0
C2791 C 0.70841 0.82087 0.8277 0.0
C2792 C 0.68632 0.80925 0.81975 0.0
C2793 C 0.67025 0.81335 0.83384 0.0
C2794 C 0.74115 0.81233 0.77646 0.0
C2795 C 0.76091 0.81223 0.78842 0.0
C2796 C 0.72354 0.81426 0.78904 0.0
C2797 C 0.72578 0.8162 0.81359 0.0
C2798 C 0.74545 0.81511 0.82513 0.0
C2799 C 0.76298 0.81375 0.81274 0.0
H2800 H 0.52092 0.57878 0.73402 0.0
H2801 H 0.46183 0.57688 0.69251 0.0
H2802 H 0.53987 0.57734 0.69855 0.0
H2803 H 0.48048 0.57542 0.6573 0.0
H2804 H 0.5111 0.5516 0.59091 0.0
H2805 H 0.49417 0.5552 0.62699 0.0
H2806 H 0.55715 0.59139 0.66657 0.0
H2807 H 0.57431 0.58736 0.62987 0.0
C2808 C 0.51178 0.57813 0.71744 0.0
C2809 C 0.48939 0.578 0.71697 0.0
C2810 C 0.52286 0.57737 0.69669 0.0
C2811 C 0.51219 0.57593 0.67395 0.0
C2812 C 0.48985 0.57603 0.67369 0.0
C2813 C 0.47892 0.57714 0.6944 0.0
C2814 C 0.52163 0.56058 0.60713 0.0
C2815 C 0.54448 0.56926 0.60648 0.0
C2816 C 0.51165 0.56281 0.62836 0.0
C2817 C 0.5237 0.57386 0.6508 0.0
C2818 C 0.5467 0.58258 0.65029 0.0
C2819 C 0.55676 0.58041 0.62882 0.0
H2820 H 0.8263 0.18349 0.96452 0.0
H2821 H 0.7593 0.17904 0.97665 0.0
H2822 H 0.8226 0.207 0.9339 0.0
H2823 H 0.75573 0.20205 0.94653 0.0
H2824 H 0.77513 0.27927 0.9336 0.0
H2825 H 0.78237 0.24978 0.95599 0.0
H2826 H 0.7925 0.20469 0.8924 0.0
H2827 H 0.78495 0.2339 0.86983 0.0
C2828 C 0.81074 0.18693 0.9601 0.0
C2829 C 0.79329 0.18039 0.97314 0.0
C2830 C 0.80864 0.20022 0.94278 0.0
C2831 C 0.7891 0.2066 0.93872 0.0
C2832 C 0.77102 0.19757 0.94992 0.0
C2833 C 0.77312 0.18456 0.96709 0.0
C2834 C 0.77888 0.26308 0.92449 0.0
C2835 C 0.77935 0.25865 0.90017 0.0
C2836 C 0.78322 0.24646 0.93719 0.0
C2837 C 0.78794 0.22529 0.92561 0.0
C2838 C 0.7891 0.22113 0.90145 0.0
C2839 C 0.78469 0.23771 0.88872 0.0
H2840 H 0.14185 0.52289 0.21461 0.0
H2841 H 0.19014 0.57009 0.18266 0.0
H2842 H 0.11318 0.52571 0.18606 0.0
H2843 H 0.16144 0.57302 0.15474 0.0
H2844 H 0.11577 0.52405 0.09004 0.0
H2845 H 0.13992 0.52892 0.12565 0.0
H2846 H 0.09694 0.56138 0.16693 0.0
H2847 H 0.07291 0.55724 0.13087 0.0
C2848 C 0.14626 0.5339 0.20163 0.0
C2849 C 0.1681 0.54572 0.20025 0.0
C2850 C 0.12992 0.53592 0.18585 0.0
C2851 C 0.13552 0.54962 0.16875 0.0
C2852 C 0.15712 0.56249 0.16813 0.0
C2853 C 0.17343 0.56033 0.18368 0.0
C2854 C 0.11127 0.53172 0.10678 0.0
C2855 C 0.09257 0.54003 0.10811 0.0
C2856 C 0.12507 0.53473 0.12691 0.0
C2857 C 0.12009 0.54586 0.14843 0.0
C2858 C 0.10075 0.55286 0.15016 0.0
C2859 C 0.08694 0.55005 0.1298 0.0
H2860 H 0.81858 0.88397 0.45832 0.0
H2861 H 0.83544 0.81835 0.46652 0.0
H2862 H 0.81659 0.87184 0.41587 0.0
H2863 H 0.83401 0.80626 0.42379 0.0
H2864 H 0.81294 0.78414 0.34238 0.0
H2865 H 0.81455 0.79284 0.3855 0.0
H2866 H 0.83873 0.86954 0.38645 0.0
H2867 H 0.8355 0.8608 0.34381 0.0
C2868 C 0.82168 0.86678 0.45103 0.0
C2869 C 0.82728 0.85225 0.46594 0.0
C2870 C 0.82088 0.85991 0.42654 0.0
C2871 C 0.82568 0.83823 0.41603 0.0
C2872 C 0.83031 0.82312 0.43097 0.0
C2873 C 0.83122 0.83011 0.45557 0.0
C2874 C 0.819 0.80277 0.35198 0.0
C2875 C 0.82434 0.82179 0.33972 0.0
C2876 C 0.81987 0.80784 0.37674 0.0
C2877 C 0.8263 0.83205 0.38978 0.0
C2878 C 0.83286 0.85076 0.37731 0.0
C2879 C 0.83142 0.84574 0.35276 0.0
H2880 H 0.4897 0.58577 0.87427 0.0
H2881 H 0.52216 0.53431 0.84127 0.0
H2882 H 0.50506 0.58304 0.91294 0.0
H2883 H 0.5377 0.53145 0.88021 0.0
H2884 H 0.57485 0.54367 0.95793 0.0
H2885 H 0.56198 0.5463 0.91764 0.0
H2886 H 0.50329 0.5605 0.94217 0.0
H2887 H 0.51574 0.55744 0.9814 0.0
C2888 C 0.50018 0.57382 0.87506 0.0
C2889 C 0.50426 0.56025 0.85386 0.0
C2890 C 0.50904 0.57203 0.89767 0.0
C2891 C 0.52278 0.55667 0.90072 0.0
C2892 C 0.52739 0.54358 0.87943 0.0
C2893 C 0.51827 0.54517 0.85672 0.0
C2894 C 0.55909 0.54709 0.95475 0.0
C2895 C 0.54653 0.55014 0.97375 0.0
C2896 C 0.55157 0.54871 0.93132 0.0
C2897 C 0.53135 0.55403 0.92574 0.0
C2898 C 0.51903 0.55692 0.94488 0.0
C2899 C 0.52629 0.55493 0.96788 0.0
H2900 H 0.7882 0.16368 0.11929 0.0
H2901 H 0.80439 0.21983 0.07861 0.0
H2902 H 0.7852 0.19398 0.15289 0.0
H2903 H 0.80138 0.24998 0.11245 0.0
H2904 H 0.78036 0.2881 0.18684 0.0
H2905 H 0.77243 0.25937 0.14839 0.0
H2906 H 0.82484 0.22963 0.16874 0.0
H2907 H 0.8329 0.25808 0.20602 0.0
C2908 C 0.79087 0.18239 0.11746 0.0
C2909 C 0.79726 0.18967 0.09674 0.0
C2910 C 0.78877 0.19951 0.13645 0.0
C2911 C 0.79301 0.22397 0.13482 0.0
C2912 C 0.79783 0.23104 0.11369 0.0
C2913 C 0.80003 0.21393 0.09468 0.0
C2914 C 0.79054 0.27595 0.18245 0.0
C2915 C 0.80753 0.27545 0.19874 0.0
C2916 C 0.78584 0.25947 0.16091 0.0
C2917 C 0.79783 0.24232 0.15631 0.0
C2918 C 0.8153 0.24264 0.17231 0.0
C2919 C 0.82016 0.25918 0.19337 0.0
H2920 H 0.16293 0.59344 0.31671 0.0
H2921 H 0.18963 0.53765 0.33703 0.0
H2922 H 0.15303 0.60352 0.35575 0.0
H2923 H 0.17916 0.54774 0.3768 0.0
H2924 H 0.11114 0.55259 0.41246 0.0
H2925 H 0.1388 0.5435 0.38809 0.0
H2926 H 0.17109 0.62016 0.39895 0.0
H2927 H 0.14309 0.6293 0.42301 0.0
C2928 C 0.16668 0.5833 0.32959 0.0
C2929 C 0.17681 0.56459 0.32393 0.0
C2930 C 0.16144 0.58944 0.35209 0.0
C2931 C 0.16596 0.57682 0.36932 0.0
C2932 C 0.17602 0.55798 0.36378 0.0
C2933 C 0.18172 0.55208 0.34115 0.0
C2934 C 0.12463 0.56739 0.41032 0.0
C2935 C 0.12474 0.59165 0.41864 0.0
C2936 C 0.14059 0.56217 0.39672 0.0
C2937 C 0.15666 0.58122 0.39144 0.0
C2938 C 0.15859 0.60528 0.40272 0.0
C2939 C 0.14248 0.61051 0.41607 0.0
H2940 H 0.80453 0.82858 0.58121 0.0
H2941 H 0.83422 0.89867 0.62623 0.0
H2942 H 0.7943 0.81175 0.61586 0.0
H2943 H 0.82534 0.88198 0.66051 0.0
H2944 H 0.79512 0.85603 0.72004 0.0
H2945 H 0.79855 0.86949 0.68291 0.0
H2946 H 0.80504 0.79921 0.64959 0.0
H2947 H 0.80027 0.78555 0.68654 0.0
C2948 C 0.80909 0.84032 0.59849 0.0
C2949 C 0.82005 0.86505 0.60086 0.0
C2950 C 0.80326 0.83069 0.61845 0.0
C2951 C 0.80855 0.84549 0.64131 0.0
C2952 C 0.82011 0.87001 0.64343 0.0
C2953 C 0.82551 0.87963 0.62362 0.0
C2954 C 0.79674 0.84331 0.7046 0.0
C2955 C 0.79719 0.81967 0.70622 0.0
C2956 C 0.79907 0.8511 0.68327 0.0
C2957 C 0.80273 0.83576 0.66304 0.0
C2958 C 0.80214 0.81165 0.66449 0.0
C2959 C 0.79929 0.80371 0.68576 0.0
H2960 H 0.79198 0.48362 0.55637 0.0
H2961 H 0.77911 0.48836 0.48394 0.0
H2962 H 0.76016 0.49747 0.56588 0.0
H2963 H 0.74663 0.50227 0.4933 0.0
H2964 H 0.7211 0.56599 0.53388 0.0
H2965 H 0.74426 0.54119 0.5169 0.0
H2966 H 0.72072 0.48942 0.56038 0.0
H2967 H 0.69809 0.51479 0.57772 0.0
C2968 C 0.78191 0.48726 0.54243 0.0
C2969 C 0.78776 0.48536 0.51959 0.0
C2970 C 0.76359 0.4949 0.54776 0.0
C2971 C 0.75095 0.50096 0.53032 0.0
C2972 C 0.75625 0.49782 0.50705 0.0
C2973 C 0.77463 0.48988 0.50166 0.0
C2974 C 0.72107 0.54932 0.53972 0.0
C2975 C 0.70866 0.54247 0.55749 0.0
C2976 C 0.7339 0.53493 0.52976 0.0
C2977 C 0.7343 0.51346 0.53742 0.0
C2978 C 0.72089 0.50605 0.5544 0.0
C2979 C 0.70816 0.52054 0.56443 0.0
H2980 H 0.25576 0.12978 0.52484 0.0
H2981 H 0.23185 0.17227 0.48094 0.0
H2982 H 0.21845 0.10667 0.52632 0.0
H2983 H 0.19445 0.1485 0.4816 0.0
H2984 H 0.12924 0.1207 0.51066 0.0
H2985 H 0.16634 0.1426 0.50615 0.0
H2986 H 0.18714 0.0774 0.50638 0.0
H2987 H 0.15033 0.05596 0.51159 0.0
C2988 C 0.24257 0.13388 0.51506 0.0
C2989 C 0.24694 0.15296 0.50277 0.0
C2990 C 0.22104 0.12052 0.51585 0.0
C2991 C 0.20314 0.1256 0.50415 0.0
C2992 C 0.20761 0.14425 0.49126 0.0
C2993 C 0.22916 0.15778 0.49067 0.0
C2994 C 0.14172 0.11102 0.50962 0.0
C2995 C 0.13662 0.08641 0.51126 0.0
C2996 C 0.16306 0.12355 0.50686 0.0
C2997 C 0.18003 0.11192 0.50589 0.0
C2998 C 0.17476 0.08721 0.50729 0.0
C2999 C 0.15344 0.07469 0.50992 0.0
H3000 H 0.25989 0.96537 0.73167 0.0
H3001 H 0.21139 0.93343 0.77274 0.0
H3002 H 0.27802 0.93307 0.73368 0.0
H3003 H 0.2286 0.90079 0.7741 0.0
H3004 H 0.26722 0.84758 0.78814 0.0
H3005 H 0.24977 0.87896 0.78402 0.0
H3006 H 0.28941 0.89795 0.7296 0.0
H3007 H 0.30672 0.86517 0.73349 0.0
C3008 C 0.25282 0.95144 0.74111 0.0
C3009 C 0.23381 0.95296 0.75219 0.0
C3010 C 0.26341 0.93239 0.74226 0.0
C3011 C 0.25567 0.9132 0.75438 0.0
C3012 C 0.2363 0.91466 0.76497 0.0
C3013 C 0.22594 0.93382 0.76407 0.0
C3014 C 0.27255 0.85822 0.77511 0.0
C3015 C 0.28925 0.85307 0.76161 0.0
C3016 C 0.26207 0.8768 0.77257 0.0
C3017 C 0.26743 0.89236 0.75637 0.0
C3018 C 0.28421 0.88726 0.7426 0.0
C3019 C 0.29453 0.86808 0.74489 0.0
H3020 H 0.40858 0.94666 0.01352 0.0
H3021 H 0.3994 0.01495 1.00141 0.0
H3022 H 0.44752 0.96289 0.01648 0.0
H3023 H 0.43896 0.03104 1.00319 0.0
H3024 H 0.5059 0.05832 0.05041 0.0
H3025 H 0.46733 0.04346 0.03538 0.0
H3026 H 0.47859 0.97668 0.99854 0.0
H3027 H 0.51698 0.99141 0.01481 0.0
C3028 C 0.41491 0.96507 0.01104 0.0
C3029 C 0.40105 0.97979 0.00779 0.0
C3030 C 0.4373 0.97427 0.01237 0.0
C3031 C 0.44629 0.99828 0.01012 0.0
C3032 C 0.43238 1.01257 1.00534 0.0
C3033 C 0.40984 1.00339 1.00429 0.0
C3034 C 0.50002 0.04066 0.03884 0.0
C3035 C 0.51402 0.02599 0.03332 0.0
C3036 C 0.47808 0.03225 0.02997 0.0
C3037 C 0.46997 1.00892 0.01572 0.0
C3038 C 0.48435 0.99462 0.0097 0.0
C3039 C 0.50624 1.00303 0.01873 0.0
H3040 H 0.92085 0.62704 0.80781 0.0
H3041 H 0.86524 0.59352 0.84005 0.0
H3042 H 0.89996 0.65144 0.79196 0.0
H3043 H 0.84454 0.61897 0.8254 0.0
H3044 H 0.80738 0.62231 0.75634 0.0
H3045 H 0.83087 0.61007 0.78378 0.0
H3046 H 0.87815 0.68016 0.79357 0.0
H3047 H 0.85501 0.69191 0.76524 0.0
C3048 C 0.90463 0.62617 0.8128 0.0
C3049 C 0.89437 0.60847 0.8248 0.0
C3050 C 0.89261 0.64003 0.80365 0.0
C3051 C 0.87046 0.63645 0.80692 0.0
C3052 C 0.86143 0.62145 0.82212 0.0
C3053 C 0.87328 0.6072 0.83076 0.0
C3054 C 0.82291 0.63489 0.76416 0.0
C3055 C 0.82946 0.65795 0.75884 0.0
C3056 C 0.83613 0.62818 0.78024 0.0
C3057 C 0.85603 0.6445 0.79126 0.0
C3058 C 0.86278 0.6674 0.78551 0.0
C3059 C 0.8496 0.67405 0.76934 0.0
H3060 H 0.85884 0.65902 0.06655 0.0
H3061 H 0.87815 0.66667 0.99802 0.0
H3062 H 0.8904 0.64502 0.0755 0.0
H3063 H 0.91044 0.65239 1.00718 0.0
H3064 H 0.94318 0.59132 0.02714 0.0
H3065 H 0.91827 0.61368 0.01423 0.0
H3066 H 0.92976 0.6594 0.08372 0.0
H3067 H 0.95388 0.63644 0.09668 0.0
C3068 C 0.86988 0.65769 0.05332 0.0
C3069 C 0.86586 0.66375 0.03148 0.0
C3070 C 0.88822 0.64996 0.05861 0.0
C3071 C 0.90313 0.64787 0.0422 0.0
C3072 C 0.89924 0.6539 0.02021 0.0
C3073 C 0.88083 0.66205 0.01498 0.0
C3074 C 0.94059 0.60644 0.03944 0.0
C3075 C 0.94991 0.61186 0.06302 0.0
C3076 C 0.92648 0.61934 0.03204 0.0
C3077 C 0.92169 0.63796 0.04809 0.0
C3078 C 0.93267 0.64471 0.0711 0.0
C3079 C 0.94645 0.63162 0.07856 0.0
H3080 H 0.25025 0.08246 0.75125 0.0
H3081 H 0.21465 0.11001 0.80516 0.0
H3082 H 0.27071 0.12403 0.75057 0.0
H3083 H 0.2355 0.15132 0.80531 0.0
H3084 H 0.26122 0.22642 0.78859 0.0
H3085 H 0.24213 0.18484 0.78949 0.0
H3086 H 0.29674 0.16083 0.76412 0.0
H3087 H 0.31559 0.20279 0.76271 0.0
C3088 C 0.24701 0.09728 0.76339 0.0
C3089 C 0.23063 0.09224 0.77842 0.0
C3090 C 0.25891 0.1215 0.76303 0.0
C3091 C 0.25516 0.14201 0.77779 0.0
C3092 C 0.23902 0.13675 0.79313 0.0
C3093 C 0.22702 0.11263 0.7933 0.0
C3094 C 0.26932 0.21238 0.78322 0.0
C3095 C 0.29031 0.21864 0.77576 0.0
C3096 C 0.25828 0.1881 0.78393 0.0
C3097 C 0.26751 0.16848 0.77708 0.0
C3098 C 0.28858 0.17478 0.76951 0.0
C3099 C 0.29972 0.19923 0.76897 0.0
H3100 H 0.39707 0.98463 0.34916 0.0
H3101 H 0.41258 0.98108 0.27764 0.0
H3102 H 0.36815 0.94625 0.33619 0.0
H3103 H 0.38335 0.94365 0.26482 0.0
H3104 H 0.31452 0.88352 0.25613 0.0
H3105 H 0.33317 0.92657 0.27369 0.0
H3106 H 0.38516 0.90437 0.30715 0.0
H3107 H 0.36768 0.86225 0.28834 0.0
C3108 C 0.39432 0.97555 0.3308 0.0
C3109 C 0.40739 0.98508 0.31448 0.0
C3110 C 0.37757 0.9542 0.32339 0.0
C3111 C 0.37343 0.9429 0.29955 0.0
C3112 C 0.38611 0.9527 0.2832 0.0
C3113 C 0.40316 0.97355 0.29065 0.0
C3114 C 0.32975 0.88812 0.2676 0.0
C3115 C 0.33949 0.87004 0.27195 0.0
C3116 C 0.34013 0.91238 0.27773 0.0
C3117 C 0.35995 0.91814 0.29234 0.0
C3118 C 0.36946 0.89994 0.29656 0.0
C3119 C 0.35955 0.87607 0.28588 0.0
H3120 H 0.5761 0.36987 0.57665 0.0
H3121 H 0.64422 0.409 0.58851 0.0
H3122 H 0.56689 0.40531 0.56523 0.0
H3123 H 0.63503 0.44463 0.57814 0.0
H3124 H 0.60686 0.51182 0.58994 0.0
H3125 H 0.61568 0.47509 0.59582 0.0
H3126 H 0.57176 0.43431 0.53415 0.0
H3127 H 0.56399 0.47214 0.52702 0.0
C3128 C 0.58917 0.38601 0.5769 0.0
C3129 C 0.611 0.38627 0.58365 0.0
C3130 C 0.58387 0.40641 0.57016 0.0
C3131 C 0.60009 0.42826 0.57067 0.0
C3132 C 0.62191 0.42842 0.57746 0.0
C3133 C 0.62725 0.4078 0.58341 0.0
C3134 C 0.59896 0.49525 0.57727 0.0
C3135 C 0.58414 0.49556 0.55809 0.0
C3136 C 0.60421 0.47387 0.58076 0.0
C3137 C 0.59447 0.45122 0.56572 0.0
C3138 C 0.57957 0.4512 0.54642 0.0
C3139 C 0.57491 0.47304 0.54236 0.0
H3140 H 0.45995 0.75145 0.35655 0.0
H3141 H 0.46828 0.82564 0.39154 0.0
H3142 H 0.42593 0.75184 0.33409 0.0
H3143 H 0.43413 0.82595 0.36981 0.0
H3144 H 0.36208 0.81277 0.34201 0.0
H3145 H 0.39421 0.80939 0.36501 0.0
H3146 H 0.41226 0.76999 0.30276 0.0
H3147 H 0.38 0.77306 0.27985 0.0
C3148 C 0.45442 0.76778 0.35961 0.0
C3149 C 0.46697 0.78856 0.37582 0.0
C3150 C 0.43492 0.76809 0.34663 0.0
C3151 C 0.427 0.78896 0.34996 0.0
C3152 C 0.4394 0.80947 0.36669 0.0
C3153 C 0.45915 0.80937 0.37911 0.0
C3154 C 0.37283 0.80341 0.33303 0.0
C3155 C 0.36839 0.79388 0.30855 0.0
C3156 C 0.39145 0.80153 0.34636 0.0
C3157 C 0.4063 0.78971 0.33588 0.0
C3158 C 0.4014 0.77928 0.31165 0.0
C3159 C 0.38286 0.78134 0.29829 0.0
H3160 H 0.12948 0.75288 0.09707 0.0
H3161 H 0.06433 0.73954 0.0628 0.0
H3162 H 0.12572 0.70908 0.0898 0.0
H3163 H 0.06063 0.69551 0.05491 0.0
H3164 H 0.06849 0.61621 0.03135 0.0
H3165 H 0.07476 0.66017 0.03348 0.0
H3166 H 0.10342 0.67419 0.10555 0.0
H3167 H 0.09619 0.63041 0.10368 0.0
C3168 C 0.11462 0.74064 0.08712 0.0
C3169 C 0.09754 0.75004 0.0798 0.0
C3170 C 0.11231 0.71536 0.08325 0.0
C3171 C 0.09284 0.69835 0.07172 0.0
C3172 C 0.076 0.7078 0.06357 0.0
C3173 C 0.07818 0.73317 0.0679 0.0
C3174 C 0.07653 0.62869 0.04751 0.0
C3175 C 0.08227 0.61955 0.0672 0.0
C3176 C 0.07992 0.654 0.04883 0.0
C3177 C 0.08973 0.67113 0.06969 0.0
C3178 C 0.09604 0.66188 0.08908 0.0
C3179 C 0.09196 0.63664 0.088 0.0
H3180 H 0.10194 0.25053 0.9028 0.0
H3181 H 0.08048 0.29753 0.86276 0.0
H3182 H 0.13624 0.25657 0.88463 0.0
H3183 H 0.11434 0.30335 0.84436 0.0
H3184 H 0.16376 0.2904 0.79662 0.0
H3185 H 0.13109 0.27827 0.8159 0.0
H3186 H 0.17132 0.28955 0.88177 0.0
H3187 H 0.20428 0.30166 0.86214 0.0
C3188 C 0.10462 0.26219 0.89013 0.0
C3189 C 0.08855 0.27357 0.88414 0.0
C3190 C 0.12427 0.26569 0.87976 0.0
C3191 C 0.12806 0.28023 0.86275 0.0
C3192 C 0.11193 0.29172 0.85706 0.0
C3193 C 0.09255 0.28855 0.8677 0.0
C3194 C 0.16568 0.28969 0.81508 0.0
C3195 C 0.18663 0.29704 0.8278 0.0
C3196 C 0.14692 0.283 0.82624 0.0
C3197 C 0.14842 0.28354 0.85057 0.0
C3198 C 0.16947 0.28904 0.86304 0.0
C3199 C 0.18839 0.29584 0.85178 0.0
H3200 H 0.61693 0.75914 0.91051 0.0
H3201 H 0.6318 0.80772 0.97844 0.0
H3202 H 0.60832 0.72421 0.92961 0.0
H3203 H 0.62176 0.77346 0.99755 0.0
H3204 H 0.61542 0.71212 0.0314 0.0
H3205 H 0.63204 0.74105 0.00789 0.0
H3206 H 0.58181 0.7036 0.94981 0.0
H3207 H 0.56623 0.674 0.97313 0.0
C3208 C 0.61805 0.76222 0.92953 0.0
C3209 C 0.625 0.78588 0.94315 0.0
C3210 C 0.61315 0.74232 0.94049 0.0
C3211 C 0.61458 0.74591 0.9652 0.0
C3212 C 0.6212 0.76981 0.97858 0.0
C3213 C 0.62667 0.78953 0.96768 0.0
C3214 C 0.60837 0.70994 0.01341 0.0
C3215 C 0.58943 0.69144 1.00405 0.0
C3216 C 0.61768 0.72654 0.99999 0.0
C3217 C 0.6078 0.72523 0.97722 0.0
C3218 C 0.58981 0.70535 0.96728 0.0
C3219 C 0.58074 0.68851 0.98063 0.0
H3220 H 0.07645 0.75598 0.65111 0.0
H3221 H 0.07474 0.78526 0.72459 0.0
H3222 H 0.11397 0.75418 0.66016 0.0
H3223 H 0.11209 0.78349 0.73344 0.0
H3224 H 0.18354 0.79309 0.74147 0.0
H3225 H 0.15093 0.80167 0.72428 0.0
H3226 H 0.12871 0.72752 0.68525 0.0
H3227 H 0.16131 0.71895 0.70275 0.0
C3228 C 0.0842 0.76243 0.66909 0.0
C3229 C 0.07268 0.77074 0.6872 0.0
C3230 C 0.10559 0.76132 0.67421 0.0
C3231 C 0.11583 0.76883 0.69742 0.0
C3232 C 0.10462 0.77799 0.71532 0.0
C3233 C 0.08322 0.77886 0.71028 0.0
C3234 C 0.17182 0.77883 0.72887 0.0
C3235 C 0.17446 0.7553 0.72362 0.0
C3236 C 0.15328 0.78371 0.71908 0.0
C3237 C 0.13733 0.76517 0.70371 0.0
C3238 C 0.14084 0.74209 0.69706 0.0
C3239 C 0.15926 0.73712 0.70717 0.0
H3240 H 0.12482 0.42813 0.41282 0.0
H3241 H 0.15444 0.41918 0.47821 0.0
H3242 H 0.11535 0.46386 0.43352 0.0
H3243 H 0.1446 0.4542 0.49915 0.0
H3244 H 0.12408 0.5185 0.53309 0.0
H3245 H 0.14381 0.49419 0.50978 0.0
H3246 H 0.0871 0.46482 0.45757 0.0
H3247 H 0.06827 0.49118 0.47976 0.0
C3248 C 0.13038 0.43468 0.43144 0.0
C3249 C 0.14034 0.42116 0.44408 0.0
C3250 C 0.1245 0.45475 0.44341 0.0
C3251 C 0.12854 0.46139 0.46812 0.0
C3252 C 0.14112 0.44964 0.48018 0.0
C3253 C 0.14694 0.42962 0.4682 0.0
C3254 C 0.1159 0.50717 0.51651 0.0
C3255 C 0.09479 0.50727 0.50802 0.0
C3256 C 0.12721 0.49306 0.50316 0.0
C3257 C 0.11728 0.4779 0.4815 0.0
C3258 C 0.09567 0.47705 0.47365 0.0
C3259 C 0.08467 0.49182 0.48661 0.0
H3260 H 0.44554 0.21979 0.21932 0.0
H3261 H 0.46393 0.29476 0.21215 0.0
H3262 H 0.40976 0.22384 0.22931 0.0
H3263 H 0.42826 0.2989 0.22296 0.0
H3264 H 0.36791 0.28982 0.27207 0.0
H3265 H 0.4048 0.28625 0.26607 0.0
H3266 H 0.38 0.24095 0.19746 0.0
H3267 H 0.34383 0.24667 0.20223 0.0
C3268 C 0.44209 0.23727 0.2205 0.0
C3269 C 0.45741 0.25713 0.21536 0.0
C3270 C 0.42173 0.23949 0.22611 0.0
C3271 C 0.41677 0.26174 0.22718 0.0
C3272 C 0.43216 0.28174 0.22251 0.0
C3273 C 0.45236 0.27936 0.21631 0.0
C3274 C 0.37055 0.27984 0.25545 0.0
C3275 C 0.35341 0.26981 0.23709 0.0
C3276 C 0.39143 0.27747 0.25223 0.0
C3277 C 0.3949 0.2636 0.23125 0.0
C3278 C 0.37752 0.25204 0.2136 0.0
C3279 C 0.35695 0.25543 0.21634 0.0
H3280 H 0.64812 0.50061 0.35938 0.0
H3281 H 0.63435 0.56815 0.35362 0.0
H3282 H 0.63269 0.50197 0.39691 0.0
H3283 H 0.61943 0.56998 0.39132 0.0
H3284 H 0.57899 0.56252 0.45439 0.0
H3285 H 0.59356 0.56018 0.41641 0.0
H3286 H 0.63267 0.51508 0.43716 0.0
H3287 H 0.61822 0.51796 0.4753 0.0
C3288 C 0.64189 0.51592 0.36599 0.0
C3289 C 0.64276 0.5342 0.35261 0.0
C3290 C 0.63298 0.51684 0.38804 0.0
C3291 C 0.62438 0.53616 0.3983 0.0
C3292 C 0.62526 0.55439 0.38475 0.0
C3293 C 0.6341 0.55342 0.36271 0.0
C3294 C 0.59062 0.55195 0.45093 0.0
C3295 C 0.59711 0.54044 0.4686 0.0
C3296 C 0.59933 0.55072 0.42881 0.0
C3297 C 0.61479 0.53741 0.42259 0.0
C3298 C 0.62093 0.52553 0.44028 0.0
C3299 C 0.6126 0.52727 0.46264 0.0
H3300 H 0.31259 0.88435 0.04857 0.0
H3301 H 0.33924 0.95574 0.09285 0.0
H3302 H 0.31888 0.86591 0.08162 0.0
H3303 H 0.34493 0.93717 0.12621 0.0
H3304 H 0.38672 0.8938 0.15987 0.0
H3305 H 0.37169 0.9156 0.13389 0.0
H3306 H 0.31082 0.85891 0.12033 0.0
H3307 H 0.32623 0.8368 0.14593 0.0
C3308 C 0.31912 0.89612 0.06555 0.0
C3309 C 0.32563 0.92149 0.0681 0.0
C3310 C 0.32262 0.88553 0.08455 0.0
C3311 C 0.33252 0.90013 0.10646 0.0
C3312 C 0.33752 0.92552 0.10942 0.0
C3313 C 0.33414 0.93612 0.09037 0.0
C3314 C 0.37005 0.88624 0.15152 0.0
C3315 C 0.35768 0.86362 0.15456 0.0
C3316 C 0.36133 0.8988 0.1369 0.0
C3317 C 0.34009 0.88889 0.12504 0.0
C3318 C 0.32729 0.86684 0.12913 0.0
C3319 C 0.33602 0.8543 0.14384 0.0
H3320 H 0.95323 0.55251 0.89591 0.0
H3321 H 0.01068 0.5984 0.87599 0.0
H3322 H 0.97383 0.55249 0.93269 0.0
H3323 H 0.03117 0.59975 0.91347 0.0
H3324 H 0.06543 0.56304 0.9623 0.0
H3325 H 0.04476 0.56895 0.92809 0.0
H3326 H 0.99241 0.5776 0.96966 0.0
H3327 H 0.0128 0.57134 1.00344 0.0
C3328 C 0.97002 0.56354 0.90007 0.0
C3329 C 0.98056 0.57575 0.8837 0.0
C3330 C 0.98181 0.56345 0.92094 0.0
C3331 C 1.00408 0.57604 0.92571 0.0
C3332 C 0.01411 0.58959 0.9099 0.0
C3333 C 1.00244 0.58916 0.88877 0.0
C3334 C 0.04972 0.56661 0.96411 0.0
C3335 C 0.04065 0.56669 0.9853 0.0
C3336 C 0.0379 0.57001 0.94465 0.0
C3337 C 0.01708 0.57381 0.94642 0.0
C3338 C 0.00833 0.57445 0.96783 0.0
C3339 C 0.02002 0.57089 0.98712 0.0
H3340 H 0.28479 0.24458 0.577 0.0
H3341 H 0.35204 0.24477 0.59152 0.0
H3342 H 0.28325 0.2579 0.61922 0.0
H3343 H 0.35084 0.25927 0.63373 0.0
H3344 H 0.33979 0.30497 0.70707 0.0
H3345 H 0.34189 0.29795 0.66437 0.0
H3346 H 0.28862 0.23305 0.65451 0.0
H3347 H 0.28812 0.23887 0.69717 0.0
C3348 C 0.29949 0.24838 0.58911 0.0
C3349 C 0.31864 0.24402 0.58079 0.0
C3350 C 0.29855 0.25578 0.61334 0.0
C3351 C 0.31692 0.25975 0.62992 0.0
C3352 C 0.33644 0.2566 0.62148 0.0
C3353 C 0.33716 0.24839 0.59729 0.0
C3354 C 0.32801 0.2897 0.69568 0.0
C3355 C 0.31271 0.27332 0.7055 0.0
C3356 C 0.32943 0.28549 0.67124 0.0
C3357 C 0.31513 0.26517 0.65588 0.0
C3358 C 0.29956 0.24915 0.66569 0.0
C3359 C 0.29889 0.25276 0.69015 0.0
H3360 H 0.63654 0.54614 0.22534 0.0
H3361 H 0.66209 0.49088 0.18714 0.0
H3362 H 0.6199 0.55181 0.18853 0.0
H3363 H 0.64572 0.49632 0.15028 0.0
H3364 H 0.61347 0.50469 0.08128 0.0
H3365 H 0.62618 0.49721 0.11834 0.0
H3366 H 0.6108 0.56148 0.15444 0.0
H3367 H 0.5962 0.56746 0.11684 0.0
C3368 C 0.63847 0.53479 0.20913 0.0
C3369 C 0.65088 0.51775 0.21012 0.0
C3370 C 0.62887 0.53825 0.1874 0.0
C3371 C 0.63081 0.52477 0.16496 0.0
C3372 C 0.64305 0.50743 0.16619 0.0
C3373 C 0.65279 0.50417 0.18789 0.0
C3374 C 0.61236 0.51731 0.09696 0.0
C3375 C 0.60365 0.53718 0.0948 0.0
C3376 C 0.62022 0.51309 0.11896 0.0
C3377 C 0.62067 0.52882 0.14087 0.0
C3378 C 0.61136 0.54845 0.13886 0.0
C3379 C 0.60289 0.55224 0.11666 0.0
H3380 H 0.32442 0.91989 0.92348 0.0
H3381 H 0.35464 0.87161 0.95354 0.0
H3382 H 0.32647 0.89804 0.88417 0.0
H3383 H 0.3557 0.84916 0.91457 0.0
H3384 H 0.36304 0.81854 0.8393 0.0
H3385 H 0.36895 0.84643 0.87762 0.0
H3386 H 0.30602 0.8597 0.86263 0.0
H3387 H 0.30083 0.83278 0.82459 0.0
C3388 C 0.33136 0.90455 0.92167 0.0
C3389 C 0.33859 0.89682 0.94146 0.0
C3390 C 0.33255 0.89205 0.89923 0.0
C3391 C 0.34069 0.87147 0.89634 0.0
C3392 C 0.34927 0.86486 0.91618 0.0
C3393 C 0.3483 0.87749 0.93855 0.0
C3394 C 0.3504 0.8271 0.84472 0.0
C3395 C 0.33111 0.82293 0.8298 0.0
C3396 C 0.35381 0.84318 0.86638 0.0
C3397 C 0.33799 0.85537 0.87307 0.0
C3398 C 0.31867 0.85092 0.85792 0.0
C3399 C 0.31534 0.83492 0.83642 0.0
H3400 H 0.96877 0.5962 0.76357 0.0
H3401 H 0.93337 0.52046 0.74261 0.0
H3402 H 0.98835 0.59263 0.72909 0.0
H3403 H 0.95365 0.51635 0.7089 0.0
H3404 H 0.98986 0.51278 0.64739 0.0
H3405 H 0.96349 0.525 0.67232 0.0
H3406 H 0.01694 0.5744 0.72132 0.0
H3407 H 0.04291 0.56282 0.69571 0.0
C3408 C 0.96481 0.57896 0.75114 0.0
C3409 C 0.94957 0.55862 0.75546 0.0
C3410 C 0.97615 0.57683 0.73159 0.0
C3411 C 0.97278 0.55415 0.71639 0.0
C3412 C 0.9564 0.5342 0.71997 0.0
C3413 C 0.94474 0.53649 0.73927 0.0
C3414 C 0.99572 0.52657 0.66332 0.0
C3415 C 0.01815 0.5367 0.6701 0.0
C3416 C 0.98075 0.53351 0.67759 0.0
C3417 C 0.98809 0.55041 0.69896 0.0
C3418 C 0.01065 0.56153 0.70489 0.0
C3419 C 0.02556 0.55477 0.69046 0.0
H3420 H 0.34595 0.26043 0.45261 0.0
H3421 H 0.28261 0.2109 0.42775 0.0
H3422 H 0.35002 0.26804 0.41307 0.0
H3423 H 0.28582 0.21888 0.38846 0.0
H3424 H 0.2974 0.22624 0.31472 0.0
H3425 H 0.29714 0.21575 0.35321 0.0
H3426 H 0.34399 0.28477 0.38289 0.0
H3427 H 0.34615 0.29335 0.34409 0.0
C3428 C 0.33288 0.25113 0.43857 0.0
C3429 C 0.31397 0.23506 0.44333 0.0
C3430 C 0.33501 0.25566 0.4157 0.0
C3431 C 0.31827 0.24422 0.39674 0.0
C3432 C 0.29943 0.22795 0.40186 0.0
C3433 C 0.29736 0.22349 0.42467 0.0
C3434 C 0.30794 0.23902 0.32941 0.0
C3435 C 0.3214 0.2611 0.32598 0.0
C3436 C 0.30754 0.23318 0.35189 0.0
C3437 C 0.32008 0.24952 0.3721 0.0
C3438 C 0.33404 0.27128 0.36836 0.0
C3439 C 0.33501 0.27662 0.34576 0.0
H3440 H 0.35761 0.62354 0.5042 0.0
H3441 H 0.3523 0.59733 0.56899 0.0
H3442 H 0.39362 0.61653 0.5026 0.0
H3443 H 0.38869 0.59145 0.56812 0.0
H3444 H 0.42904 0.54243 0.53034 0.0
H3445 H 0.40123 0.56144 0.5446 0.0
H3446 H 0.43108 0.62503 0.51755 0.0
H3447 H 0.45844 0.60519 0.50247 0.0
C3448 C 0.36434 0.61665 0.51827 0.0
C3449 C 0.35204 0.61025 0.53632 0.0
C3450 C 0.3851 0.61296 0.51758 0.0
C3451 C 0.39395 0.60318 0.53515 0.0
C3452 C 0.38214 0.59848 0.55406 0.0
C3453 C 0.36129 0.60175 0.55451 0.0
C3454 C 0.43004 0.56082 0.5283 0.0
C3455 C 0.44564 0.57248 0.51543 0.0
C3456 C 0.41418 0.57181 0.53649 0.0
C3457 C 0.41375 0.59465 0.53189 0.0
C3458 C 0.43075 0.60724 0.52094 0.0
C3459 C 0.44651 0.59609 0.51257 0.0
H3460 H 0.91028 0.91517 0.52501 0.0
H3461 H 0.89487 0.97605 0.5679 0.0
H3462 H 0.94723 0.9397 0.52522 0.0
H3463 H 0.93236 1.00042 0.56955 0.0
H3464 H 0.99719 0.04603 0.55259 0.0
H3465 H 0.95982 0.02258 0.55322 0.0
H3466 H 0.98099 0.95674 0.54396 0.0
H3467 H 0.01782 0.98009 0.542 0.0
C3468 C 0.91487 0.93378 0.53477 0.0
C3469 C 0.89945 0.9435 0.54643 0.0
C3470 C 0.93634 0.94798 0.53515 0.0
C3471 C 0.94342 0.97234 0.54767 0.0
C3472 C 0.92787 0.98201 0.55938 0.0
C3473 C 0.90623 0.96789 0.55861 0.0
C3474 C 0.9939 0.02658 0.55088 0.0
C3475 C 0.01074 0.01511 0.54718 0.0
C3476 C 0.97227 1.01295 0.5513 0.0
C3477 C 0.96678 0.98736 0.54833 0.0
C3478 C 0.98395 0.97615 0.54557 0.0
C3479 C 1.0054 0.98971 0.54478 0.0
H3480 H 0.88688 0.13499 0.29465 0.0
H3481 H 0.90811 0.14513 0.22794 0.0
H3482 H 0.86976 0.1686 0.29592 0.0
H3483 H 0.89175 0.17853 0.22897 0.0
H3484 H 0.86516 0.24387 0.23136 0.0
H3485 H 0.88169 0.21139 0.23247 0.0
H3486 H 0.85041 0.19659 0.29367 0.0
H3487 H 0.83463 0.23117 0.29316 0.0
C3488 C 0.88815 0.14442 0.28018 0.0
C3489 C 0.8992 0.13655 0.26108 0.0
C3490 C 0.87805 0.16411 0.28083 0.0
C3491 C 0.87869 0.17772 0.26264 0.0
C3492 C 0.89015 0.16974 0.24379 0.0
C3493 C 0.89978 0.14988 0.24297 0.0
C3494 C 0.8615 0.23389 0.24525 0.0
C3495 C 0.8478 0.24095 0.26188 0.0
C3496 C 0.87121 0.2144 0.24583 0.0
C3497 C 0.86786 0.19963 0.26294 0.0
C3498 C 0.85404 0.20663 0.27986 0.0
C3499 C 0.84452 0.22677 0.27951 0.0
H3500 H 0.72279 0.12132 1.001 0.0
H3501 H 0.73813 0.08944 0.05934 0.0
H3502 H 0.68574 0.11724 0.01147 0.0
H3503 H 0.70152 0.08635 0.07043 0.0
H3504 H 0.62766 0.04623 0.04341 0.0
H3505 H 0.6668 0.0596 0.04908 0.0
H3506 H 0.66429 0.13205 0.04341 0.0
H3507 H 0.62426 0.11818 0.03804 0.0
C3508 C 0.71798 0.11299 0.01574 0.0
C3509 C 0.73276 0.10476 0.02887 0.0
C3510 C 0.69719 0.11143 0.02219 0.0
C3511 C 0.69116 0.10195 0.04203 0.0
C3512 C 0.70597 0.09374 0.0551 0.0
C3513 C 0.72659 0.09488 0.0484 0.0
C3514 C 0.63531 0.06514 0.04438 0.0
C3515 C 0.62318 0.08125 0.04064 0.0
C3516 C 0.65781 0.07293 0.04783 0.0
C3517 C 0.6684 0.09676 0.04646 0.0
C3518 C 0.65628 0.11354 0.04448 0.0
C3519 C 0.63359 0.1057 0.0415 0.0
H3520 H 0.22598 0.47795 0.21369 0.0
H3521 H 0.24949 0.51503 0.28563 0.0
H3522 H 0.24512 0.44688 0.21843 0.0
H3523 H 0.26886 0.48469 0.29016 0.0
H3524 H 0.32539 0.45874 0.27996 0.0
H3525 H 0.30237 0.47814 0.25903 0.0
H3526 H 0.24637 0.41734 0.25692 0.0
H3527 H 0.2694 0.3977 0.27742 0.0
C3528 C 0.23476 0.47887 0.23058 0.0
C3529 C 0.23658 0.49834 0.24937 0.0
C3530 C 0.24569 0.46148 0.23317 0.0
C3531 C 0.25868 0.46429 0.25432 0.0
C3532 C 0.25901 0.48275 0.27362 0.0
C3533 C 0.2478 0.49973 0.27119 0.0
C3534 C 0.30829 0.44942 0.27444 0.0
C3535 C 0.2987 0.42747 0.28077 0.0
C3536 C 0.29536 0.46011 0.26218 0.0
C3537 C 0.27288 0.44898 0.2568 0.0
C3538 C 0.26378 0.42582 0.26086 0.0
C3539 C 0.27677 0.41498 0.27287 0.0
H3540 H 0.27407 0.44992 0.08358 0.0
H3541 H 0.27654 0.43894 0.0087 0.0
H3542 H 0.24129 0.46394 0.07894 0.0
H3543 H 0.24492 0.45457 1.00399 0.0
H3544 H 0.18217 0.47236 0.9951 0.0
H3545 H 0.20843 0.44984 1.00284 0.0
H3546 H 0.22769 0.49544 0.07244 0.0
H3547 H 0.20023 0.51667 0.06487 0.0
C3548 C 0.2677 0.45077 0.06611 0.0
C3549 C 0.27796 0.44342 0.04649 0.0
C3550 C 0.24889 0.45895 0.06341 0.0
C3551 C 0.24011 0.46059 0.04104 0.0
C3552 C 0.25054 0.4531 0.02148 0.0
C3553 C 0.26895 0.44434 0.02414 0.0
C3554 C 0.19165 0.47701 0.01227 0.0
C3555 C 0.18924 0.49626 0.02936 0.0
C3556 C 0.20705 0.4644 0.01665 0.0
C3557 C 0.22101 0.47117 0.03804 0.0
C3558 C 0.21747 0.48948 0.05572 0.0
C3559 C 0.20169 0.50178 0.05144 0.0
H3560 H 0.9277 0.99291 0.29569 0.0
H3561 H 0.87843 0.99926 0.2447 0.0
H3562 H 0.90754 0.95143 0.29498 0.0
H3563 H 0.85811 0.95684 0.24344 0.0
H3564 H 0.81717 0.88185 0.25706 0.0
H3565 H 0.83593 0.92423 0.25708 0.0
H3566 H 0.89728 0.91116 0.27843 0.0
H3567 H 0.87853 0.86926 0.27857 0.0
C3568 C 0.91249 0.98558 0.28413 0.0
C3569 C 0.90511 1.00038 0.2703 0.0
C3570 C 0.90076 0.96112 0.28353 0.0
C3571 C 0.88081 0.9495 0.26888 0.0
C3572 C 0.87314 0.9644 0.25522 0.0
C3573 C 0.88495 0.98913 0.25591 0.0
C3574 C 0.83464 0.8879 0.26188 0.0
C3575 C 0.84586 0.87131 0.26811 0.0
C3576 C 0.84566 0.91262 0.26176 0.0
C3577 C 0.86858 0.92235 0.26808 0.0
C3578 C 0.87974 0.90551 0.27394 0.0
C3579 C 0.86878 0.88087 0.27386 0.0
H3580 H 0.76007 0.14102 0.79688 0.0
H3581 H 0.73359 0.1229 0.72358 0.0
H3582 H 0.7787 0.18206 0.79248 0.0
H3583 H 0.75274 0.16362 0.71887 0.0
H3584 H 0.75824 0.24881 0.74689 0.0
H3585 H 0.74553 0.20449 0.73941 0.0
H3586 H 0.80898 0.20157 0.76814 0.0
H3587 H 0.82154 0.2456 0.7758 0.0
C3588 C 0.75848 0.14599 0.77992 0.0
C3589 C 0.74551 0.12964 0.76062 0.0
C3590 C 0.76925 0.16902 0.77726 0.0
C3591 C 0.76723 0.17533 0.75521 0.0
C3592 C 0.75439 0.15875 0.73588 0.0
C3593 C 0.7434 0.13588 0.73864 0.0
C3594 C 0.76948 0.23848 0.75094 0.0
C3595 C 0.79067 0.2501 0.76176 0.0
C3596 C 0.76241 0.21339 0.74646 0.0
C3597 C 0.77644 0.20017 0.75338 0.0
C3598 C 0.7981 0.21175 0.76273 0.0
C3599 C 0.80517 0.23675 0.76709 0.0
loop_
_geom_bond_atom_site_label_1
_geom_bond_atom_site_label_2
_geom_bond_distance
_geom_bond_site_symmetry_2
_ccdc_geom_bond_type
O0 Cd1 2.223 . S
O0 C8 1.315 . S
Cd1 O0 2.223 . S
Cd1 O4 2.297 . S
Cd1 O5 2.439 . S
Cd1 O11 2.240 . S
Cd2 O3 2.240 . S
Cd2 O10 2.223 . S
Cd2 O12 2.297 . S
Cd2 O13 2.439 . S
O3 Cd2 2.240 . S
O3 C8 1.279 . S
O4 Cd1 2.297 . S
O4 C6 1.247 . S
O5 Cd1 2.439 . S
O5 C6 1.208 . S
C6 O4 1.247 . S
C6 O5 1.208 . S
C7 O12 1.247 . S
C7 O13 1.208 . S
C8 O0 1.315 . S
C8 O3 1.279 . S
C9 O10 1.315 . S
C9 O11 1.279 . S
O10 Cd2 2.223 . S
O10 C9 1.315 . S
O11 Cd1 2.240 . S
O11 C9 1.279 . S
O12 Cd2 2.297 . S
O12 C7 1.247 . S
O13 Cd2 2.439 . S
O13 C7 1.208 . S
O14 Cd15 2.223 . S
O14 C22 1.315 . S
Cd15 O14 2.223 . S
Cd15 O18 2.297 . S
Cd15 O19 2.439 . S
Cd15 O25 2.240 1_655 S
Cd16 O17 2.240 1_455 S
Cd16 O24 2.223 . S
Cd16 O26 2.297 . S
Cd16 O27 2.457 . S
O17 Cd16 2.240 1_655 S
O17 C22 1.279 . S
O18 Cd15 2.297 . S
O18 C20 1.247 . S
O19 Cd15 2.439 . S
O19 C20 1.208 . S
C20 O18 1.247 . S
C20 O19 1.208 . S
C21 O26 1.247 . S
C21 O27 1.229 . S
C22 O14 1.315 . S
C22 O17 1.279 . S
C23 O24 1.315 . S
C23 O25 1.279 . S
O24 Cd16 2.223 . S
O24 C23 1.315 . S
O25 Cd15 2.240 1_455 S
O25 C23 1.279 . S
O26 Cd16 2.297 . S
O26 C21 1.247 . S
O27 Cd16 2.457 . S
O27 C21 1.229 . S
O28 Cd29 2.223 . S
O28 C36 1.315 . S
Cd29 O28 2.223 . S
Cd29 O32 2.297 . S
Cd29 O33 2.439 . S
Cd29 O39 2.240 . S
Cd30 O31 2.240 . S
Cd30 O38 2.223 . S
Cd30 O40 2.297 . S
Cd30 O41 2.439 . S
O31 Cd30 2.240 . S
O31 C36 1.279 . S
O32 Cd29 2.297 . S
O32 C34 1.247 . S
O33 Cd29 2.439 . S
O33 C34 1.208 . S
C34 O32 1.247 . S
C34 O33 1.208 . S
C35 O40 1.247 . S
C35 O41 1.208 . S
C36 O28 1.315 . S
C36 O31 1.279 . S
C37 O38 1.315 . S
C37 O39 1.279 . S
O38 Cd30 2.223 . S
O38 C37 1.315 . S
O39 Cd29 2.240 . S
O39 C37 1.279 . S
O40 Cd30 2.297 . S
O40 C35 1.247 . S
O41 Cd30 2.439 . S
O41 C35 1.208 . S
O42 Cd43 2.223 . S
O42 C50 1.315 . S
Cd43 O42 2.223 . S
Cd43 O46 2.297 . S
Cd43 O47 2.439 . S
Cd43 O53 2.240 . S
Cd44 O45 2.240 . S
Cd44 O52 2.223 . S
Cd44 O54 2.297 . S
Cd44 O55 2.439 . S
O45 Cd44 2.240 . S
O45 C50 1.279 . S
O46 Cd43 2.297 . S
O46 C48 1.247 . S
O47 Cd43 2.439 . S
O47 C48 1.208 . S
C48 O46 1.247 . S
C48 O47 1.208 . S
C49 O54 1.247 . S
C49 O55 1.208 . S
C50 O42 1.315 . S
C50 O45 1.279 . S
C51 O52 1.315 . S
C51 O53 1.279 . S
O52 Cd44 2.223 . S
O52 C51 1.315 . S
O53 Cd43 2.240 . S
O53 C51 1.279 . S
O54 Cd44 2.297 . S
O54 C49 1.247 . S
O55 Cd44 2.439 . S
O55 C49 1.208 . S
O56 Cd57 2.223 . S
O56 C64 1.315 . S
Cd57 O56 2.223 . S
Cd57 O60 2.297 . S
Cd57 O61 2.439 . S
Cd57 O67 2.240 . S
Cd58 O59 2.240 . S
Cd58 O66 2.223 . S
Cd58 O68 2.297 . S
Cd58 O69 2.439 . S
O59 Cd58 2.240 . S
O59 C64 1.279 . S
O60 Cd57 2.297 . S
O60 C62 1.247 . S
O61 Cd57 2.439 . S
O61 C62 1.208 . S
C62 O60 1.247 . S
C62 O61 1.208 . S
C63 O68 1.247 . S
C63 O69 1.208 . S
C64 O56 1.315 . S
C64 O59 1.279 . S
C65 O66 1.315 . S
C65 O67 1.279 . S
O66 Cd58 2.223 . S
O66 C65 1.315 . S
O67 Cd57 2.240 . S
O67 C65 1.279 . S
O68 Cd58 2.297 . S
O68 C63 1.247 . S
O69 Cd58 2.439 . S
O69 C63 1.208 . S
O70 Cd71 2.223 . S
O70 C78 1.315 . S
Cd71 O70 2.223 . S
Cd71 O74 2.297 . S
Cd71 O75 2.439 . S
Cd71 O81 2.240 . S
Cd72 O73 2.240 . S
Cd72 O80 2.223 . S
Cd72 O82 2.297 . S
Cd72 O83 2.439 . S
O73 Cd72 2.240 . S
O73 C78 1.279 . S
O74 Cd71 2.297 . S
O74 C76 1.247 . S
O75 Cd71 2.439 . S
O75 C76 1.208 . S
C76 O74 1.247 . S
C76 O75 1.208 . S
C77 O82 1.247 . S
C77 O83 1.208 . S
C78 O70 1.315 . S
C78 O73 1.279 . S
C79 O80 1.315 . S
C79 O81 1.279 . S
O80 Cd72 2.223 . S
O80 C79 1.315 . S
O81 Cd71 2.240 . S
O81 C79 1.279 . S
O82 Cd72 2.297 . S
O82 C77 1.247 . S
O83 Cd72 2.439 . S
O83 C77 1.208 . S
O84 Cd85 2.223 . S
O84 C92 1.315 . S
Cd85 O84 2.223 . S
Cd85 O88 2.297 . S
Cd85 O89 2.439 . S
Cd85 O95 2.240 . S
Cd86 O87 2.240 . S
Cd86 O94 2.223 . S
Cd86 O96 2.297 . S
Cd86 O97 2.439 . S
O87 Cd86 2.240 . S
O87 C92 1.279 . S
O88 Cd85 2.297 . S
O88 C90 1.247 . S
O89 Cd85 2.439 . S
O89 C90 1.208 . S
C90 O88 1.247 . S
C90 O89 1.208 . S
C91 O96 1.247 . S
C91 O97 1.208 . S
C92 O84 1.315 . S
C92 O87 1.279 . S
C93 O94 1.315 . S
C93 O95 1.279 . S
O94 Cd86 2.223 . S
O94 C93 1.315 . S
O95 Cd85 2.240 . S
O95 C93 1.279 . S
O96 Cd86 2.297 . S
O96 C91 1.247 . S
O97 Cd86 2.439 . S
O97 C91 1.208 . S
O98 Cd99 2.223 . S
O98 C106 1.315 . S
Cd99 O98 2.223 . S
Cd99 O102 2.297 . S
Cd99 O103 2.439 . S
Cd99 O109 2.240 . S
Cd100 O101 2.240 . S
Cd100 O108 2.223 1_455 S
Cd100 O110 2.297 . S
Cd100 O111 2.439 . S
O101 Cd100 2.240 . S
O101 C106 1.279 . S
O102 Cd99 2.297 . S
O102 C104 1.247 . S
O103 Cd99 2.439 . S
O103 C104 1.208 . S
C104 O102 1.247 . S
C104 O103 1.208 . S
C105 O110 1.247 . S
C105 O111 1.208 . S
C106 O98 1.315 . S
C106 O101 1.279 . S
C107 O108 1.315 . S
C107 O109 1.279 1_655 S
O108 Cd100 2.223 1_655 S
O108 C107 1.315 . S
O109 Cd99 2.240 . S
O109 C107 1.279 1_455 S
O110 Cd100 2.297 . S
O110 C105 1.247 . S
O111 Cd100 2.439 . S
O111 C105 1.208 . S
O112 Cd113 2.223 . S
O112 C120 1.315 . S
Cd113 O112 2.223 . S
Cd113 O116 2.297 . S
Cd113 O117 2.439 . S
Cd113 O123 2.240 . S
Cd114 O115 2.240 . S
Cd114 O122 2.223 1_545 S
Cd114 O124 2.297 . S
Cd114 O125 2.439 . S
O115 Cd114 2.240 . S
O115 C120 1.279 . S
O116 Cd113 2.297 . S
O116 C118 1.247 . S
O117 Cd113 2.439 . S
O117 C118 1.208 . S
C118 O116 1.247 . S
C118 O117 1.208 . S
C119 O124 1.247 . S
C119 O125 1.208 . S
C120 O112 1.315 . S
C120 O115 1.279 . S
C121 O122 1.315 . S
C121 O123 1.279 1_565 S
O122 Cd114 2.223 1_565 S
O122 C121 1.315 . S
O123 Cd113 2.240 . S
O123 C121 1.279 1_545 S
O124 Cd114 2.297 . S
O124 C119 1.247 . S
O125 Cd114 2.439 . S
O125 C119 1.208 . S
O126 Cd127 2.223 . S
O126 C134 1.315 . S
Cd127 O126 2.223 . S
Cd127 O130 2.297 . S
Cd127 O131 2.439 . S
Cd127 O137 2.240 . S
Cd128 O129 2.240 . S
Cd128 O136 2.223 . S
Cd128 O138 2.297 . S
Cd128 O139 2.439 . S
O129 Cd128 2.240 . S
O129 C134 1.279 . S
O130 Cd127 2.297 . S
O130 C132 1.247 . S
O131 Cd127 2.439 . S
O131 C132 1.208 . S
C132 O130 1.247 . S
C132 O131 1.208 . S
C133 O138 1.247 . S
C133 O139 1.208 . S
C134 O126 1.315 . S
C134 O129 1.279 . S
C135 O136 1.315 . S
C135 O137 1.279 . S
O136 Cd128 2.223 . S
O136 C135 1.315 . S
O137 Cd127 2.240 . S
O137 C135 1.279 . S
O138 Cd128 2.297 . S
O138 C133 1.247 . S
O139 Cd128 2.439 . S
O139 C133 1.208 . S
O140 Cd141 2.223 1_545 S
O140 C148 1.315 1_545 S
Cd141 O140 2.223 1_565 S
Cd141 O144 2.297 . S
Cd141 O145 2.439 . S
Cd141 O151 2.240 1_565 S
Cd142 O143 2.240 1_545 S
Cd142 O150 2.223 . S
Cd142 O152 2.297 . S
Cd142 O153 2.439 1_545 S
O143 Cd142 2.240 1_565 S
O143 C148 1.279 . S
O144 Cd141 2.297 . S
O144 C146 1.247 . S
O145 Cd141 2.439 . S
O145 C146 1.208 . S
C146 O144 1.247 . S
C146 O145 1.208 . S
C147 O152 1.247 . S
C147 O153 1.208 1_545 S
C148 O140 1.315 1_565 S
C148 O143 1.279 . S
C149 O150 1.315 . S
C149 O151 1.279 . S
O150 Cd142 2.223 . S
O150 C149 1.315 . S
O151 Cd141 2.240 1_545 S
O151 C149 1.279 . S
O152 Cd142 2.297 . S
O152 C147 1.247 . S
O153 Cd142 2.439 1_565 S
O153 C147 1.208 1_565 S
O154 Cd155 2.223 . S
O154 C162 1.315 . S
Cd155 O154 2.223 . S
Cd155 O158 2.297 . S
Cd155 O159 2.439 1_554 S
Cd155 O165 2.247 . S
Cd156 O157 2.240 1_556 S
Cd156 O164 2.223 1_556 S
Cd156 O166 2.297 . S
Cd156 O167 2.439 . S
O157 Cd156 2.240 1_554 S
O157 C162 1.279 . S
O158 Cd155 2.297 . S
O158 C160 1.247 . S
O159 Cd155 2.439 1_556 S
O159 C160 1.208 1_556 S
C160 O158 1.247 . S
C160 O159 1.208 1_554 S
C161 O166 1.247 . S
C161 O167 1.208 . S
C162 O154 1.315 . S
C162 O157 1.279 . S
C163 O164 1.315 . S
C163 O165 1.284 . S
O164 Cd156 2.223 1_554 S
O164 C163 1.315 . S
O165 Cd155 2.247 . S
O165 C163 1.284 . S
O166 Cd156 2.297 . S
O166 C161 1.247 . S
O167 Cd156 2.439 . S
O167 C161 1.208 . S
O168 Cd169 2.223 . S
O168 C176 1.315 . S
Cd169 O168 2.223 . S
Cd169 O172 2.297 . S
Cd169 O173 2.439 . S
Cd169 O179 2.240 . S
Cd170 O171 2.240 . S
Cd170 O178 2.223 . S
Cd170 O180 2.297 1_554 S
Cd170 O181 2.439 1_554 S
O171 Cd170 2.240 . S
O171 C176 1.279 . S
O172 Cd169 2.297 . S
O172 C174 1.247 . S
O173 Cd169 2.439 . S
O173 C174 1.208 . S
C174 O172 1.247 . S
C174 O173 1.208 . S
C175 O180 1.247 . S
C175 O181 1.208 . S
C176 O168 1.315 . S
C176 O171 1.279 . S
C177 O178 1.315 . S
C177 O179 1.279 . S
O178 Cd170 2.223 . S
O178 C177 1.315 . S
O179 Cd169 2.240 . S
O179 C177 1.279 . S
O180 Cd170 2.297 1_556 S
O180 C175 1.247 . S
O181 Cd170 2.439 1_556 S
O181 C175 1.208 . S
O182 Cd183 2.223 . S
O182 C190 1.315 . S
Cd183 O182 2.223 . S
Cd183 O186 2.297 . S
Cd183 O187 2.439 . S
Cd183 O193 2.240 . S
Cd184 O185 2.240 . S
Cd184 O192 2.223 . S
Cd184 O194 2.297 1_554 S
Cd184 O195 2.439 1_554 S
O185 Cd184 2.240 . S
O185 C190 1.279 . S
O186 Cd183 2.297 . S
O186 C188 1.247 . S
O187 Cd183 2.439 . S
O187 C188 1.208 . S
C188 O186 1.247 . S
C188 O187 1.208 . S
C189 O194 1.247 . S
C189 O195 1.208 . S
C190 O182 1.315 . S
C190 O185 1.279 . S
C191 O192 1.315 . S
C191 O193 1.279 . S
O192 Cd184 2.223 . S
O192 C191 1.315 . S
O193 Cd183 2.240 . S
O193 C191 1.279 . S
O194 Cd184 2.297 1_556 S
O194 C189 1.247 . S
O195 Cd184 2.439 1_556 S
O195 C189 1.208 . S
O196 Cd197 2.223 . S
O196 C204 1.315 . S
Cd197 O196 2.223 . S
Cd197 O200 2.297 . S
Cd197 O201 2.439 . S
Cd197 O207 2.240 . S
Cd198 O199 2.240 . S
Cd198 O206 2.223 . S
Cd198 O208 2.297 . S
Cd198 O209 2.439 . S
O199 Cd198 2.240 . S
O199 C204 1.279 . S
O200 Cd197 2.297 . S
O200 C202 1.247 . S
O201 Cd197 2.439 . S
O201 C202 1.208 . S
C202 O200 1.247 . S
C202 O201 1.208 . S
C203 O208 1.247 . S
C203 O209 1.208 . S
C204 O196 1.315 . S
C204 O199 1.279 . S
C205 O206 1.315 . S
C205 O207 1.279 . S
O206 Cd198 2.223 . S
O206 C205 1.315 . S
O207 Cd197 2.240 . S
O207 C205 1.279 . S
O208 Cd198 2.297 . S
O208 C203 1.247 . S
O209 Cd198 2.439 . S
O209 C203 1.208 . S
O210 Cd211 2.223 . S
O210 C218 1.315 . S
Cd211 O210 2.223 . S
Cd211 O214 2.297 . S
Cd211 O215 2.439 . S
Cd211 O221 2.240 . S
Cd212 O213 2.240 . S
Cd212 O220 2.223 . S
Cd212 O222 2.297 . S
Cd212 O223 2.439 . S
O213 Cd212 2.240 . S
O213 C218 1.279 . S
O214 Cd211 2.297 . S
O214 C216 1.247 . S
O215 Cd211 2.439 . S
O215 C216 1.208 . S
C216 O214 1.247 . S
C216 O215 1.208 . S
C217 O222 1.247 . S
C217 O223 1.208 . S
C218 O210 1.315 . S
C218 O213 1.279 . S
C219 O220 1.315 . S
C219 O221 1.279 . S
O220 Cd212 2.223 . S
O220 C219 1.315 . S
O221 Cd211 2.240 . S
O221 C219 1.279 . S
O222 Cd212 2.297 . S
O222 C217 1.247 . S
O223 Cd212 2.439 . S
O223 C217 1.208 . S
O224 Cd225 2.223 . S
O224 C232 1.315 . S
Cd225 O224 2.223 . S
Cd225 O228 2.297 . S
Cd225 O229 2.439 . S
Cd225 O235 2.240 . S
Cd226 O227 2.240 . S
Cd226 O234 2.223 . S
Cd226 O236 2.297 . S
Cd226 O237 2.439 . S
O227 Cd226 2.240 . S
O227 C232 1.279 . S
O228 Cd225 2.297 . S
O228 C230 1.247 . S
O229 Cd225 2.439 . S
O229 C230 1.208 . S
C230 O228 1.247 . S
C230 O229 1.208 . S
C231 O236 1.247 . S
C231 O237 1.208 . S
C232 O224 1.315 . S
C232 O227 1.279 . S
C233 O234 1.315 . S
C233 O235 1.279 . S
O234 Cd226 2.223 . S
O234 C233 1.315 . S
O235 Cd225 2.240 . S
O235 C233 1.279 . S
O236 Cd226 2.297 . S
O236 C231 1.247 . S
O237 Cd226 2.439 . S
O237 C231 1.208 . S
O238 Cd239 2.223 . S
O238 C246 1.315 . S
Cd239 O238 2.223 . S
Cd239 O242 2.297 . S
Cd239 O243 2.439 . S
Cd239 O249 2.240 . S
Cd240 O241 2.240 . S
Cd240 O248 2.223 . S
Cd240 O250 2.297 . S
Cd240 O251 2.439 . S
O241 Cd240 2.240 . S
O241 C246 1.279 . S
O242 Cd239 2.297 . S
O242 C244 1.247 . S
O243 Cd239 2.439 . S
O243 C244 1.208 . S
C244 O242 1.247 . S
C244 O243 1.208 . S
C245 O250 1.247 . S
C245 O251 1.208 . S
C246 O238 1.315 . S
C246 O241 1.279 . S
C247 O248 1.315 . S
C247 O249 1.279 . S
O248 Cd240 2.223 . S
O248 C247 1.315 . S
O249 Cd239 2.240 . S
O249 C247 1.279 . S
O250 Cd240 2.297 . S
O250 C245 1.247 . S
O251 Cd240 2.439 . S
O251 C245 1.208 . S
O252 Cd253 2.223 . S
O252 C260 1.315 . S
Cd253 O252 2.223 . S
Cd253 O256 2.297 . S
Cd253 O257 2.439 . S
Cd253 O263 2.240 . S
Cd254 O255 2.240 . S
Cd254 O262 2.223 . S
Cd254 O264 2.297 . S
Cd254 O265 2.439 . S
O255 Cd254 2.240 . S
O255 C260 1.279 . S
O256 Cd253 2.297 . S
O256 C258 1.247 . S
O257 Cd253 2.439 . S
O257 C258 1.208 . S
C258 O256 1.247 . S
C258 O257 1.208 . S
C259 O264 1.247 . S
C259 O265 1.208 . S
C260 O252 1.315 . S
C260 O255 1.279 . S
C261 O262 1.315 . S
C261 O263 1.279 . S
O262 Cd254 2.223 . S
O262 C261 1.315 . S
O263 Cd253 2.240 . S
O263 C261 1.279 . S
O264 Cd254 2.297 . S
O264 C259 1.247 . S
O265 Cd254 2.439 . S
O265 C259 1.208 . S
O266 Cd267 2.223 . S
O266 C274 1.315 . S
Cd267 O266 2.223 . S
Cd267 O270 2.297 . S
Cd267 O271 2.439 . S
Cd267 O277 2.240 . S
Cd268 O269 2.240 . S
Cd268 O276 2.223 . S
Cd268 O278 2.297 . S
Cd268 O279 2.439 . S
O269 Cd268 2.240 . S
O269 C274 1.279 . S
O270 Cd267 2.297 . S
O270 C272 1.247 . S
O271 Cd267 2.439 . S
O271 C272 1.208 . S
C272 O270 1.247 . S
C272 O271 1.208 . S
C273 O278 1.247 . S
C273 O279 1.208 . S
C274 O266 1.315 . S
C274 O269 1.279 . S
C275 O276 1.315 . S
C275 O277 1.279 . S
O276 Cd268 2.223 . S
O276 C275 1.315 . S
O277 Cd267 2.240 . S
O277 C275 1.279 . S
O278 Cd268 2.297 . S
O278 C273 1.247 . S
O279 Cd268 2.439 . S
O279 C273 1.208 . S
O280 Cd281 2.223 . S
O280 C288 1.315 . S
Cd281 O280 2.223 . S
Cd281 O284 2.297 . S
Cd281 O285 2.419 1_554 S
Cd281 O291 2.240 1_554 S
Cd282 O283 2.229 1_556 S
Cd282 O290 2.218 1_556 S
Cd282 O292 2.311 . S
Cd282 O293 2.450 . S
O283 Cd282 2.229 1_554 S
O283 C288 1.279 . S
O284 Cd281 2.297 . S
O284 C286 1.247 . S
O285 Cd281 2.419 1_556 S
O285 C286 1.180 1_556 S
C286 O284 1.247 . S
C286 O285 1.180 1_554 S
C287 O292 1.247 . S
C287 O293 1.208 . S
C288 O280 1.315 . S
C288 O283 1.279 . S
C289 O290 1.315 . S
C289 O291 1.279 1_554 S
O290 Cd282 2.218 1_554 S
O290 C289 1.315 . S
O291 Cd281 2.240 1_556 S
O291 C289 1.279 1_556 S
O292 Cd282 2.311 . S
O292 C287 1.247 . S
O293 Cd282 2.450 . S
O293 C287 1.208 . S
O294 Cd295 2.223 . S
O294 C302 1.315 . S
Cd295 O294 2.223 . S
Cd295 O298 2.297 . S
Cd295 O299 2.439 . S
Cd295 O305 2.240 . S
Cd296 O297 2.240 . S
Cd296 O304 2.223 . S
Cd296 O306 2.297 . S
Cd296 O307 2.439 . S
O297 Cd296 2.240 . S
O297 C302 1.279 . S
O298 Cd295 2.297 . S
O298 C300 1.247 . S
O299 Cd295 2.439 . S
O299 C300 1.208 . S
C300 O298 1.247 . S
C300 O299 1.208 . S
C301 O306 1.247 . S
C301 O307 1.208 . S
C302 O294 1.315 . S
C302 O297 1.279 . S
C303 O304 1.315 . S
C303 O305 1.279 . S
O304 Cd296 2.223 . S
O304 C303 1.315 . S
O305 Cd295 2.240 . S
O305 C303 1.279 . S
O306 Cd296 2.297 . S
O306 C301 1.247 . S
O307 Cd296 2.439 . S
O307 C301 1.208 . S
O308 Cd309 2.223 . S
O308 C316 1.315 . S
Cd309 O308 2.223 . S
Cd309 O312 2.297 . S
Cd309 O313 2.439 . S
Cd309 O319 2.240 . S
Cd310 O311 2.240 . S
Cd310 O318 2.223 . S
Cd310 O320 2.297 . S
Cd310 O321 2.439 . S
O311 Cd310 2.240 . S
O311 C316 1.279 . S
O312 Cd309 2.297 . S
O312 C314 1.247 . S
O313 Cd309 2.439 . S
O313 C314 1.208 . S
C314 O312 1.247 . S
C314 O313 1.208 . S
C315 O320 1.247 . S
C315 O321 1.208 . S
C316 O308 1.315 . S
C316 O311 1.279 . S
C317 O318 1.315 . S
C317 O319 1.279 . S
O318 Cd310 2.223 . S
O318 C317 1.315 . S
O319 Cd309 2.240 . S
O319 C317 1.279 . S
O320 Cd310 2.297 . S
O320 C315 1.247 . S
O321 Cd310 2.439 . S
O321 C315 1.208 . S
O322 Cd323 2.223 . S
O322 C330 1.315 . S
Cd323 O322 2.223 . S
Cd323 O326 2.297 . S
Cd323 O327 2.439 . S
Cd323 O333 2.240 . S
Cd324 O325 2.240 . S
Cd324 O332 2.223 . S
Cd324 O334 2.297 . S
Cd324 O335 2.439 . S
O325 Cd324 2.240 . S
O325 C330 1.279 . S
O326 Cd323 2.297 . S
O326 C328 1.247 . S
O327 Cd323 2.439 . S
O327 C328 1.208 . S
C328 O326 1.247 . S
C328 O327 1.208 . S
C329 O334 1.247 . S
C329 O335 1.208 . S
C330 O322 1.315 . S
C330 O325 1.279 . S
C331 O332 1.315 . S
C331 O333 1.279 . S
O332 Cd324 2.223 . S
O332 C331 1.315 . S
O333 Cd323 2.240 . S
O333 C331 1.279 . S
O334 Cd324 2.297 . S
O334 C329 1.247 . S
O335 Cd324 2.439 . S
O335 C329 1.208 . S
Eu336 N367 2.657 1_545 S
Eu336 N374 2.609 1_544 S
Eu336 O380 2.587 1_554 S
Eu336 O381 2.612 . S
Eu336 O383 2.339 . S
Eu336 O384 2.563 . S
Eu336 O385 2.419 1_455 S
Eu336 O387 2.380 . S
Eu336 O388 2.432 1_554 S
Eu336 C400 2.848 1_454 S
C337 C340 1.429 . S
C337 C341 1.411 . S
C337 N344 1.377 . S
C338 C340 1.420 . S
C338 C342 1.423 . S
C338 C350 1.392 . S
C339 C341 1.420 . S
C339 C342 1.351 . S
C339 H362 0.931 . S
C340 C337 1.429 . S
C340 C338 1.420 . S
C340 N348 1.362 . S
C341 C337 1.411 . S
C341 C339 1.420 . S
C341 C346 1.395 . S
C342 C338 1.423 . S
C342 C339 1.351 . S
C342 H354 0.930 . S
C343 C345 1.400 . S
C343 C346 1.386 . S
C343 H355 0.930 . S
N344 C337 1.377 . S
N344 C345 1.321 . S
N344 Eu347 2.609 . S
C345 C343 1.400 . S
C345 N344 1.321 . S
C345 H352 0.930 . S
C346 C341 1.395 . S
C346 C343 1.386 . S
C346 H365 0.930 . S
Eu347 N344 2.609 . S
Eu347 N348 2.657 . S
Eu347 O381 2.380 . S
Eu347 O382 2.432 . S
Eu347 O386 2.558 . S
Eu347 O387 2.612 . S
Eu347 O389 2.351 . S
Eu347 O390 2.563 . S
Eu347 O391 2.419 . S
Eu347 C411 2.848 . S
N348 C340 1.362 . S
N348 Eu347 2.657 . S
N348 C349 1.364 . S
C349 N348 1.364 . S
C349 C351 1.396 1_554 S
C349 H356 0.916 1_554 S
C350 C338 1.392 . S
C350 C351 1.367 1_554 S
C350 H358 0.929 . S
C351 C349 1.396 1_556 S
C351 C350 1.367 1_556 S
C351 H353 0.930 . S
H352 C345 0.930 . S
H353 C351 0.930 . S
H354 C342 0.930 . S
H355 C343 0.930 . S
H356 C349 0.916 1_556 S
H357 C371 0.930 . S
H358 C350 0.929 . S
H359 C377 0.930 1_545 S
H360 C368 0.929 1_545 S
H361 C375 0.930 . S
H362 C339 0.931 . S
H363 C369 0.930 . S
H364 C402 0.930 . S
H365 C346 0.930 . S
H366 C401 0.931 . S
N367 Eu336 2.657 1_565 S
N367 C368 1.334 . S
N367 C372 1.362 . S
C368 H360 0.929 1_565 S
C368 N367 1.334 . S
C368 C371 1.413 . S
C369 H363 0.930 . S
C369 C370 1.392 . S
C369 C371 1.367 1_655 S
C370 C369 1.392 . S
C370 C372 1.420 1_655 S
C370 C402 1.423 . S
C371 H357 0.930 . S
C371 C368 1.413 . S
C371 C369 1.367 1_455 S
C372 N367 1.362 . S
C372 C370 1.420 1_455 S
C372 C376 1.429 1_554 S
H373 C378 0.930 . S
N374 Eu336 2.609 1_566 S
N374 C376 1.377 . S
N374 C377 1.321 . S
C375 H361 0.930 . S
C375 C377 1.400 . S
C375 C378 1.386 1_455 S
C376 C372 1.429 1_556 S
C376 N374 1.377 . S
C376 C379 1.411 1_455 S
C377 H359 0.930 1_565 S
C377 N374 1.321 . S
C377 C375 1.400 . S
C378 H373 0.930 . S
C378 C375 1.386 1_655 S
C378 C379 1.395 . S
C379 C376 1.411 1_655 S
C379 C378 1.395 . S
C379 C401 1.420 . S
O380 Eu336 2.587 1_556 S
O380 C400 1.232 1_455 S
O381 Eu336 2.612 . S
O381 Eu347 2.380 . S
O381 C392 1.276 . S
O382 Eu347 2.432 . S
O382 C399 1.264 . S
O383 Eu336 2.339 . S
O383 C399 1.254 . S
O384 Eu336 2.563 . S
O384 C392 1.235 . S
O385 Eu336 2.419 1_655 S
O385 C400 1.249 1_554 S
O386 Eu347 2.558 . S
O386 C411 1.257 . S
O387 Eu336 2.380 . S
O387 Eu347 2.612 . S
O387 C403 1.276 . S
O388 Eu336 2.432 1_556 S
O388 C410 1.264 . S
O389 Eu347 2.351 . S
O389 C410 1.246 1_554 S
O390 Eu347 2.563 . S
O390 C403 1.235 . S
O391 Eu347 2.419 . S
O391 C411 1.249 . S
C392 O381 1.276 . S
C392 O384 1.235 . S
C393 C395 1.393 1_556 S
C393 C397 1.395 . S
C393 C400 1.492 . S
C394 C395 1.392 . S
C394 C396 1.386 1_554 S
C395 C393 1.393 1_554 S
C395 C394 1.392 . S
C395 H412 0.930 . S
C396 C394 1.386 1_556 S
C396 C398 1.395 . S
C396 H413 0.930 . S
C397 C393 1.395 . S
C397 C398 1.379 . S
C397 H414 0.930 . S
C398 C396 1.395 . S
C398 C397 1.379 . S
C398 H415 0.930 . S
C399 O382 1.264 . S
C399 O383 1.254 . S
C400 Eu336 2.848 1_656 S
C400 O380 1.232 1_655 S
C400 O385 1.249 1_556 S
C400 C393 1.492 . S
C401 H366 0.931 . S
C401 C379 1.420 . S
C401 C402 1.351 1_556 S
C402 H364 0.930 . S
C402 C370 1.423 . S
C402 C401 1.351 1_554 S
C403 O387 1.276 . S
C403 O390 1.235 . S
C404 C405 1.393 . S
C404 C408 1.395 . S
C404 C411 1.492 . S
C405 C404 1.393 . S
C405 C406 1.392 . S
C405 H416 0.930 . S
C406 C405 1.392 . S
C406 C407 1.386 . S
C407 C406 1.386 . S
C407 C409 1.395 . S
C407 H417 0.930 . S
C408 C404 1.395 . S
C408 C409 1.379 . S
C408 H418 0.930 . S
C409 C407 1.395 . S
C409 C408 1.379 . S
C409 H419 0.930 . S
C410 O388 1.264 . S
C410 O389 1.246 1_556 S
C411 Eu347 2.848 . S
C411 O386 1.257 . S
C411 O391 1.249 . S
C411 C404 1.492 . S
H412 C395 0.930 . S
H413 C396 0.930 . S
H414 C397 0.930 . S
H415 C398 0.930 . S
H416 C405 0.930 . S
H417 C407 0.930 . S
H418 C408 0.930 . S
H419 C409 0.930 . S
Eu420 N451 2.657 . S
Eu420 N458 2.609 . S
Eu420 O464 2.558 . S
Eu420 O465 2.612 . S
Eu420 O467 2.339 . S
Eu420 O468 2.563 . S
Eu420 O469 2.419 . S
Eu420 O471 2.380 . S
Eu420 O472 2.432 . S
Eu420 C484 2.848 . S
C421 C424 1.429 . S
C421 C425 1.411 . S
C421 N428 1.377 . S
C422 C424 1.420 . S
C422 C426 1.423 . S
C422 C434 1.392 . S
C423 C425 1.420 . S
C423 C426 1.351 . S
C423 H446 0.931 . S
C424 C421 1.429 . S
C424 C422 1.420 . S
C424 N432 1.362 . S
C425 C421 1.411 . S
C425 C423 1.420 . S
C425 C430 1.395 . S
C426 C422 1.423 . S
C426 C423 1.351 . S
C426 H438 0.930 . S
C427 C429 1.400 . S
C427 C430 1.386 . S
C427 H439 0.930 . S
N428 C421 1.377 . S
N428 C429 1.321 . S
N428 Eu431 2.609 . S
C429 C427 1.400 . S
C429 N428 1.321 . S
C429 H436 0.930 . S
C430 C425 1.395 . S
C430 C427 1.386 . S
C430 H449 0.930 . S
Eu431 N428 2.609 . S
Eu431 N432 2.657 . S
Eu431 O465 2.380 . S
Eu431 O466 2.432 . S
Eu431 O470 2.558 . S
Eu431 O471 2.612 . S
Eu431 O473 2.339 . S
Eu431 O474 2.563 . S
Eu431 O475 2.419 . S
Eu431 C495 2.848 . S
N432 C424 1.362 . S
N432 Eu431 2.657 . S
N432 C433 1.334 . S
C433 N432 1.334 . S
C433 C435 1.413 . S
C433 H440 0.929 . S
C434 C422 1.392 . S
C434 C435 1.367 . S
C434 H442 0.930 . S
C435 C433 1.413 . S
C435 C434 1.367 . S
C435 H437 0.930 . S
H436 C429 0.930 . S
H437 C435 0.930 . S
H438 C426 0.930 . S
H439 C427 0.930 . S
H440 C433 0.929 . S
H441 C455 0.930 . S
H442 C434 0.930 . S
H443 C461 0.930 . S
H444 C452 0.929 . S
H445 C459 0.930 . S
H446 C423 0.931 . S
H447 C453 0.930 . S
H448 C486 0.930 . S
H449 C430 0.930 . S
H450 C485 0.931 . S
N451 Eu420 2.657 . S
N451 C452 1.334 . S
N451 C456 1.362 . S
C452 H444 0.929 . S
C452 N451 1.334 . S
C452 C455 1.413 . S
C453 H447 0.930 . S
C453 C454 1.392 . S
C453 C455 1.367 . S
C454 C453 1.392 . S
C454 C456 1.420 . S
C454 C486 1.423 . S
C455 H441 0.930 . S
C455 C452 1.413 . S
C455 C453 1.367 . S
C456 N451 1.362 . S
C456 C454 1.420 . S
C456 C460 1.429 . S
H457 C462 0.930 . S
N458 Eu420 2.609 . S
N458 C460 1.377 . S
N458 C461 1.321 . S
C459 H445 0.930 . S
C459 C461 1.400 . S
C459 C462 1.386 . S
C460 C456 1.429 . S
C460 N458 1.377 . S
C460 C463 1.411 . S
C461 H443 0.930 . S
C461 N458 1.321 . S
C461 C459 1.400 . S
C462 H457 0.930 . S
C462 C459 1.386 . S
C462 C463 1.395 . S
C463 C460 1.411 . S
C463 C462 1.395 . S
C463 C485 1.420 . S
O464 Eu420 2.558 . S
O464 C484 1.257 . S
O465 Eu420 2.612 . S
O465 Eu431 2.380 . S
O465 C476 1.276 . S
O466 Eu431 2.432 . S
O466 C483 1.264 . S
O467 Eu420 2.339 . S
O467 C483 1.254 . S
O468 Eu420 2.563 . S
O468 C476 1.235 . S
O469 Eu420 2.419 . S
O469 C484 1.249 . S
O470 Eu431 2.558 . S
O470 C495 1.257 . S
O471 Eu420 2.380 . S
O471 Eu431 2.612 . S
O471 C487 1.276 . S
O472 Eu420 2.432 . S
O472 C494 1.264 . S
O473 Eu431 2.339 . S
O473 C494 1.254 . S
O474 Eu431 2.563 . S
O474 C487 1.235 . S
O475 Eu431 2.419 . S
O475 C495 1.249 . S
C476 O465 1.276 . S
C476 O468 1.235 . S
C477 C479 1.393 . S
C477 C481 1.395 . S
C477 C484 1.492 . S
C478 C479 1.392 . S
C478 C480 1.386 . S
C479 C477 1.393 . S
C479 C478 1.392 . S
C479 H496 0.930 . S
C480 C478 1.386 . S
C480 C482 1.395 . S
C480 H497 0.930 . S
C481 C477 1.395 . S
C481 C482 1.379 . S
C481 H498 0.930 . S
C482 C480 1.395 . S
C482 C481 1.379 . S
C482 H499 0.930 . S
C483 O466 1.264 . S
C483 O467 1.254 . S
C484 Eu420 2.848 . S
C484 O464 1.257 . S
C484 O469 1.249 . S
C484 C477 1.492 . S
C485 H450 0.931 . S
C485 C463 1.420 . S
C485 C486 1.351 . S
C486 H448 0.930 . S
C486 C454 1.423 . S
C486 C485 1.351 . S
C487 O471 1.276 . S
C487 O474 1.235 . S
C488 C489 1.393 . S
C488 C492 1.395 . S
C488 C495 1.492 . S
C489 C488 1.393 . S
C489 C490 1.392 . S
C489 H500 0.930 . S
C490 C489 1.392 . S
C490 C491 1.386 . S
C491 C490 1.386 . S
C491 C493 1.395 . S
C491 H501 0.930 . S
C492 C488 1.395 . S
C492 C493 1.379 . S
C492 H502 0.930 . S
C493 C491 1.395 . S
C493 C492 1.379 . S
C493 H503 0.930 . S
C494 O472 1.264 . S
C494 O473 1.254 . S
C495 Eu431 2.848 . S
C495 O470 1.257 . S
C495 O475 1.249 . S
C495 C488 1.492 . S
H496 C479 0.930 . S
H497 C480 0.930 . S
H498 C481 0.930 . S
H499 C482 0.930 . S
H500 C489 0.930 . S
H501 C491 0.930 . S
H502 C492 0.930 . S
H503 C493 0.930 . S
Eu504 N535 2.657 . S
Eu504 N542 2.609 . S
Eu504 O548 2.558 . S
Eu504 O549 2.612 . S
Eu504 O551 2.339 . S
Eu504 O552 2.563 1_545 S
Eu504 O553 2.419 . S
Eu504 O555 2.380 . S
Eu504 O556 2.432 . S
Eu504 C568 2.848 . S
C505 C508 1.429 . S
C505 C509 1.411 . S
C505 N512 1.377 1_565 S
C506 C508 1.420 . S
C506 C510 1.423 . S
C506 C518 1.392 . S
C507 C509 1.420 . S
C507 C510 1.351 . S
C507 H530 0.931 . S
C508 C505 1.429 . S
C508 C506 1.420 . S
C508 N516 1.362 . S
C509 C505 1.411 . S
C509 C507 1.420 . S
C509 C514 1.395 . S
C510 C506 1.423 . S
C510 C507 1.351 . S
C510 H522 0.930 . S
C511 C513 1.400 . S
C511 C514 1.386 1_545 S
C511 H523 0.930 . S
N512 C505 1.377 1_545 S
N512 C513 1.321 . S
N512 Eu515 2.609 . S
C513 C511 1.400 . S
C513 N512 1.321 . S
C513 H520 0.930 . S
C514 C509 1.395 . S
C514 C511 1.386 1_565 S
C514 H533 0.930 . S
Eu515 N512 2.609 . S
Eu515 N516 2.657 1_545 S
Eu515 O549 2.380 . S
Eu515 O550 2.432 . S
Eu515 O554 2.558 . S
Eu515 O555 2.612 . S
Eu515 O557 2.339 . S
Eu515 O558 2.563 . S
Eu515 O559 2.419 . S
Eu515 C579 2.848 . S
N516 C508 1.362 . S
N516 Eu515 2.657 1_565 S
N516 C517 1.334 . S
C517 N516 1.334 . S
C517 C519 1.413 . S
C517 H524 0.929 . S
C518 C506 1.392 . S
C518 C519 1.367 . S
C518 H526 0.930 . S
C519 C517 1.413 . S
C519 C518 1.367 . S
C519 H521 0.930 . S
H520 C513 0.930 . S
H521 C519 0.930 . S
H522 C510 0.930 . S
H523 C511 0.930 . S
H524 C517 0.929 . S
H525 C539 0.930 . S
H526 C518 0.930 . S
H527 C545 0.930 . S
H528 C536 0.929 . S
H529 C543 0.930 . S
H530 C507 0.931 . S
H531 C537 0.930 . S
H532 C570 0.930 . S
H533 C514 0.930 . S
H534 C569 0.931 . S
N535 Eu504 2.657 . S
N535 C536 1.334 . S
N535 C540 1.362 . S
C536 H528 0.929 . S
C536 N535 1.334 . S
C536 C539 1.413 . S
C537 H531 0.930 . S
C537 C538 1.392 . S
C537 C539 1.367 . S
C538 C537 1.392 . S
C538 C540 1.420 . S
C538 C570 1.423 . S
C539 H525 0.930 . S
C539 C536 1.413 . S
C539 C537 1.367 . S
C540 N535 1.362 . S
C540 C538 1.420 . S
C540 C544 1.429 . S
H541 C546 0.930 . S
N542 Eu504 2.609 . S
N542 C544 1.377 . S
N542 C545 1.321 . S
C543 H529 0.930 . S
C543 C545 1.400 . S
C543 C546 1.386 . S
C544 C540 1.429 . S
C544 N542 1.377 . S
C544 C547 1.411 . S
C545 H527 0.930 . S
C545 N542 1.321 . S
C545 C543 1.400 . S
C546 H541 0.930 . S
C546 C543 1.386 . S
C546 C547 1.395 . S
C547 C544 1.411 . S
C547 C546 1.395 . S
C547 C569 1.420 . S
O548 Eu504 2.558 . S
O548 C568 1.257 . S
O549 Eu504 2.612 . S
O549 Eu515 2.380 . S
O549 C560 1.276 1_545 S
O550 Eu515 2.432 . S
O550 C567 1.264 . S
O551 Eu504 2.339 . S
O551 C567 1.254 . S
O552 Eu504 2.563 1_565 S
O552 C560 1.235 . S
O553 Eu504 2.419 . S
O553 C568 1.249 . S
O554 Eu515 2.558 . S
O554 C579 1.257 . S
O555 Eu504 2.380 . S
O555 Eu515 2.612 . S
O555 C571 1.276 . S
O556 Eu504 2.432 . S
O556 C578 1.264 . S
O557 Eu515 2.339 . S
O557 C578 1.254 . S
O558 Eu515 2.563 . S
O558 C571 1.235 . S
O559 Eu515 2.419 . S
O559 C579 1.249 . S
C560 O549 1.276 1_565 S
C560 O552 1.235 . S
C561 C563 1.393 . S
C561 C565 1.395 . S
C561 C568 1.492 . S
C562 C563 1.392 1_565 S
C562 C564 1.386 . S
C563 C561 1.393 . S
C563 C562 1.392 1_545 S
C563 H580 0.930 . S
C564 C562 1.386 . S
C564 C566 1.395 1_565 S
C564 H581 0.930 . S
C565 C561 1.395 . S
C565 C566 1.379 . S
C565 H582 0.930 . S
C566 C564 1.395 1_545 S
C566 C565 1.379 . S
C566 H583 0.930 . S
C567 O550 1.264 . S
C567 O551 1.254 . S
C568 Eu504 2.848 . S
C568 O548 1.257 . S
C568 O553 1.249 . S
C568 C561 1.492 . S
C569 H534 0.931 . S
C569 C547 1.420 . S
C569 C570 1.351 . S
C570 H532 0.930 . S
C570 C538 1.423 . S
C570 C569 1.351 . S
C571 O555 1.276 . S
C571 O558 1.235 . S
C572 C573 1.393 . S
C572 C576 1.395 . S
C572 C579 1.492 . S
C573 C572 1.393 . S
C573 C574 1.392 . S
C573 H584 0.930 . S
C574 C573 1.392 . S
C574 C575 1.386 . S
C575 C574 1.386 . S
C575 C577 1.395 . S
C575 H585 0.930 . S
C576 C572 1.395 . S
C576 C577 1.379 . S
C576 H586 0.930 . S
C577 C575 1.395 . S
C577 C576 1.379 . S
C577 H587 0.930 . S
C578 O556 1.264 . S
C578 O557 1.254 . S
C579 Eu515 2.848 . S
C579 O554 1.257 . S
C579 O559 1.249 . S
C579 C572 1.492 . S
H580 C563 0.930 . S
H581 C564 0.930 . S
H582 C565 0.930 . S
H583 C566 0.930 . S
H584 C573 0.930 . S
H585 C575 0.930 . S
H586 C576 0.930 . S
H587 C577 0.930 . S
Eu588 N619 2.657 . S
Eu588 N626 2.609 . S
Eu588 O632 2.558 . S
Eu588 O633 2.612 . S
Eu588 O635 2.339 . S
Eu588 O636 2.563 . S
Eu588 O637 2.419 . S
Eu588 O639 2.380 . S
Eu588 O640 2.432 . S
Eu588 C652 2.848 . S
C589 C592 1.429 . S
C589 C593 1.411 . S
C589 N596 1.377 . S
C590 C592 1.420 . S
C590 C594 1.423 . S
C590 C602 1.392 . S
C591 C593 1.420 . S
C591 C594 1.351 . S
C591 H614 0.931 . S
C592 C589 1.429 . S
C592 C590 1.420 . S
C592 N600 1.362 . S
C593 C589 1.411 . S
C593 C591 1.420 . S
C593 C598 1.395 . S
C594 C590 1.423 . S
C594 C591 1.351 . S
C594 H606 0.930 . S
C595 C597 1.400 . S
C595 C598 1.386 . S
C595 H607 0.930 . S
N596 C589 1.377 . S
N596 C597 1.321 . S
N596 Eu599 2.609 . S
C597 C595 1.400 . S
C597 N596 1.321 . S
C597 H604 0.930 . S
C598 C593 1.395 . S
C598 C595 1.386 . S
C598 H617 0.930 . S
Eu599 N596 2.609 . S
Eu599 N600 2.657 . S
Eu599 O633 2.380 . S
Eu599 O634 2.432 . S
Eu599 O638 2.558 . S
Eu599 O639 2.612 . S
Eu599 O641 2.339 . S
Eu599 O642 2.563 . S
Eu599 O643 2.419 . S
Eu599 C663 2.848 . S
N600 C592 1.362 . S
N600 Eu599 2.657 . S
N600 C601 1.334 . S
C601 N600 1.334 . S
C601 C603 1.413 . S
C601 H608 0.929 . S
C602 C590 1.392 . S
C602 C603 1.367 . S
C602 H610 0.930 . S
C603 C601 1.413 . S
C603 C602 1.367 . S
C603 H605 0.930 . S
H604 C597 0.930 . S
H605 C603 0.930 . S
H606 C594 0.930 . S
H607 C595 0.930 . S
H608 C601 0.929 . S
H609 C623 0.930 . S
H610 C602 0.930 . S
H611 C629 0.930 . S
H612 C620 0.929 . S
H613 C627 0.930 . S
H614 C591 0.931 . S
H615 C621 0.930 . S
H616 C654 0.930 . S
H617 C598 0.930 . S
H618 C653 0.931 . S
N619 Eu588 2.657 . S
N619 C620 1.334 . S
N619 C624 1.362 . S
C620 H612 0.929 . S
C620 N619 1.334 . S
C620 C623 1.413 . S
C621 H615 0.930 . S
C621 C622 1.392 . S
C621 C623 1.367 . S
C622 C621 1.392 . S
C622 C624 1.420 . S
C622 C654 1.423 . S
C623 H609 0.930 . S
C623 C620 1.413 . S
C623 C621 1.367 . S
C624 N619 1.362 . S
C624 C622 1.420 . S
C624 C628 1.429 . S
H625 C630 0.930 . S
N626 Eu588 2.609 . S
N626 C628 1.377 . S
N626 C629 1.321 . S
C627 H613 0.930 . S
C627 C629 1.400 . S
C627 C630 1.386 . S
C628 C624 1.429 . S
C628 N626 1.377 . S
C628 C631 1.411 . S
C629 H611 0.930 . S
C629 N626 1.321 . S
C629 C627 1.400 . S
C630 H625 0.930 . S
C630 C627 1.386 . S
C630 C631 1.395 . S
C631 C628 1.411 . S
C631 C630 1.395 . S
C631 C653 1.420 . S
O632 Eu588 2.558 . S
O632 C652 1.257 . S
O633 Eu588 2.612 . S
O633 Eu599 2.380 . S
O633 C644 1.276 . S
O634 Eu599 2.432 . S
O634 C651 1.264 . S
O635 Eu588 2.339 . S
O635 C651 1.254 . S
O636 Eu588 2.563 . S
O636 C644 1.235 . S
O637 Eu588 2.419 . S
O637 C652 1.249 . S
O638 Eu599 2.558 . S
O638 C663 1.257 . S
O639 Eu588 2.380 . S
O639 Eu599 2.612 . S
O639 C655 1.276 . S
O640 Eu588 2.432 . S
O640 C662 1.264 . S
O641 Eu599 2.339 . S
O641 C662 1.254 . S
O642 Eu599 2.563 . S
O642 C655 1.235 . S
O643 Eu599 2.419 . S
O643 C663 1.249 . S
C644 O633 1.276 . S
C644 O636 1.235 . S
C645 C647 1.393 . S
C645 C649 1.395 . S
C645 C652 1.492 . S
C646 C647 1.392 . S
C646 C648 1.386 . S
C647 C645 1.393 . S
C647 C646 1.392 . S
C647 H664 0.930 . S
C648 C646 1.386 . S
C648 C650 1.395 . S
C648 H665 0.930 . S
C649 C645 1.395 . S
C649 C650 1.379 . S
C649 H666 0.930 . S
C650 C648 1.395 . S
C650 C649 1.379 . S
C650 H667 0.930 . S
C651 O634 1.264 . S
C651 O635 1.254 . S
C652 Eu588 2.848 . S
C652 O632 1.257 . S
C652 O637 1.249 . S
C652 C645 1.492 . S
C653 H618 0.931 . S
C653 C631 1.420 . S
C653 C654 1.351 . S
C654 H616 0.930 . S
C654 C622 1.423 . S
C654 C653 1.351 . S
C655 O639 1.276 . S
C655 O642 1.235 . S
C656 C657 1.393 . S
C656 C660 1.395 . S
C656 C663 1.492 . S
C657 C656 1.393 . S
C657 C658 1.392 . S
C657 H668 0.930 . S
C658 C657 1.392 . S
C658 C659 1.386 . S
C659 C658 1.386 . S
C659 C661 1.395 . S
C659 H669 0.930 . S
C660 C656 1.395 . S
C660 C661 1.379 . S
C660 H670 0.930 . S
C661 C659 1.395 . S
C661 C660 1.379 . S
C661 H671 0.930 . S
C662 O640 1.264 . S
C662 O641 1.254 . S
C663 Eu599 2.848 . S
C663 O638 1.257 . S
C663 O643 1.249 . S
C663 C656 1.492 . S
H664 C647 0.930 . S
H665 C648 0.930 . S
H666 C649 0.930 . S
H667 C650 0.930 . S
H668 C657 0.930 . S
H669 C659 0.930 . S
H670 C660 0.930 . S
H671 C661 0.930 . S
Eu672 N703 2.657 . S
Eu672 N710 2.609 . S
Eu672 O716 2.558 . S
Eu672 O717 2.612 . S
Eu672 O719 2.339 . S
Eu672 O720 2.563 . S
Eu672 O721 2.419 . S
Eu672 O723 2.380 . S
Eu672 O724 2.432 . S
Eu672 C736 2.848 . S
C673 C676 1.429 . S
C673 C677 1.411 . S
C673 N680 1.377 . S
C674 C676 1.420 . S
C674 C678 1.423 . S
C674 C686 1.392 . S
C675 C677 1.420 . S
C675 C678 1.351 . S
C675 H698 0.931 . S
C676 C673 1.429 . S
C676 C674 1.420 . S
C676 N684 1.362 . S
C677 C673 1.411 . S
C677 C675 1.420 . S
C677 C682 1.395 . S
C678 C674 1.423 . S
C678 C675 1.351 . S
C678 H690 0.930 . S
C679 C681 1.400 . S
C679 C682 1.386 . S
C679 H691 0.930 . S
N680 C673 1.377 . S
N680 C681 1.321 . S
N680 Eu683 2.609 1_565 S
C681 C679 1.400 . S
C681 N680 1.321 . S
C681 H688 0.930 1_565 S
C682 C677 1.395 . S
C682 C679 1.386 . S
C682 H701 0.930 . S
Eu683 N680 2.609 1_545 S
Eu683 N684 2.657 1_545 S
Eu683 O717 2.380 . S
Eu683 O718 2.432 . S
Eu683 O722 2.558 1_545 S
Eu683 O723 2.612 . S
Eu683 O725 2.339 . S
Eu683 O726 2.563 . S
Eu683 O727 2.419 1_545 S
Eu683 C747 2.848 1_545 S
N684 C676 1.362 . S
N684 Eu683 2.657 1_565 S
N684 C685 1.334 . S
C685 N684 1.334 . S
C685 C687 1.413 . S
C685 H692 0.929 . S
C686 C674 1.392 . S
C686 C687 1.367 . S
C686 H694 0.930 . S
C687 C685 1.413 . S
C687 C686 1.367 . S
C687 H689 0.930 1_455 S
H688 C681 0.930 1_545 S
H689 C687 0.930 1_655 S
H690 C678 0.930 . S
H691 C679 0.930 . S
H692 C685 0.929 . S
H693 C707 0.930 . S
H694 C686 0.930 . S
H695 C713 0.930 . S
H696 C704 0.929 . S
H697 C711 0.930 1_655 S
H698 C675 0.931 . S
H699 C705 0.930 . S
H700 C738 0.930 . S
H701 C682 0.930 . S
H702 C737 0.931 . S
N703 Eu672 2.657 . S
N703 C704 1.334 . S
N703 C708 1.362 . S
C704 H696 0.929 . S
C704 N703 1.334 . S
C704 C707 1.413 . S
C705 H699 0.930 . S
C705 C706 1.392 . S
C705 C707 1.367 . S
C706 C705 1.392 . S
C706 C708 1.420 . S
C706 C738 1.423 . S
C707 H693 0.930 . S
C707 C704 1.413 . S
C707 C705 1.367 . S
C708 N703 1.362 . S
C708 C706 1.420 . S
C708 C712 1.429 . S
H709 C714 0.930 . S
N710 Eu672 2.609 . S
N710 C712 1.377 . S
N710 C713 1.321 . S
C711 H697 0.930 1_455 S
C711 C713 1.400 . S
C711 C714 1.386 . S
C712 C708 1.429 . S
C712 N710 1.377 . S
C712 C715 1.411 . S
C713 H695 0.930 . S
C713 N710 1.321 . S
C713 C711 1.400 . S
C714 H709 0.930 . S
C714 C711 1.386 . S
C714 C715 1.395 . S
C715 C712 1.411 . S
C715 C714 1.395 . S
C715 C737 1.420 . S
O716 Eu672 2.558 . S
O716 C736 1.257 . S
O717 Eu672 2.612 . S
O717 Eu683 2.380 . S
O717 C728 1.276 . S
O718 Eu683 2.432 . S
O718 C735 1.264 . S
O719 Eu672 2.339 . S
O719 C735 1.254 . S
O720 Eu672 2.563 . S
O720 C728 1.235 . S
O721 Eu672 2.419 . S
O721 C736 1.249 . S
O722 Eu683 2.558 1_565 S
O722 C747 1.257 . S
O723 Eu672 2.380 . S
O723 Eu683 2.612 . S
O723 C739 1.276 . S
O724 Eu672 2.432 . S
O724 C746 1.264 . S
O725 Eu683 2.339 . S
O725 C746 1.254 . S
O726 Eu683 2.563 . S
O726 C739 1.235 . S
O727 Eu683 2.419 1_565 S
O727 C747 1.249 . S
C728 O717 1.276 . S
C728 O720 1.235 . S
C729 C731 1.393 . S
C729 C733 1.395 . S
C729 C736 1.492 . S
C730 C731 1.392 . S
C730 C732 1.386 . S
C731 C729 1.393 . S
C731 C730 1.392 . S
C731 H748 0.930 . S
C732 C730 1.386 . S
C732 C734 1.395 . S
C732 H749 0.930 . S
C733 C729 1.395 . S
C733 C734 1.379 . S
C733 H750 0.930 . S
C734 C732 1.395 . S
C734 C733 1.379 . S
C734 H751 0.930 . S
C735 O718 1.264 . S
C735 O719 1.254 . S
C736 Eu672 2.848 . S
C736 O716 1.257 . S
C736 O721 1.249 . S
C736 C729 1.492 . S
C737 H702 0.931 . S
C737 C715 1.420 . S
C737 C738 1.351 . S
C738 H700 0.930 . S
C738 C706 1.423 . S
C738 C737 1.351 . S
C739 O723 1.276 . S
C739 O726 1.235 . S
C740 C741 1.393 . S
C740 C744 1.395 . S
C740 C747 1.492 . S
C741 C740 1.393 . S
C741 C742 1.392 . S
C741 H752 0.930 . S
C742 C741 1.392 . S
C742 C743 1.386 . S
C743 C742 1.386 . S
C743 C745 1.395 . S
C743 H753 0.930 . S
C744 C740 1.395 . S
C744 C745 1.379 . S
C744 H754 0.930 . S
C745 C743 1.395 . S
C745 C744 1.379 . S
C745 H755 0.930 . S
C746 O724 1.264 . S
C746 O725 1.254 . S
C747 Eu683 2.848 1_565 S
C747 O722 1.257 . S
C747 O727 1.249 . S
C747 C740 1.492 . S
H748 C731 0.930 . S
H749 C732 0.930 . S
H750 C733 0.930 . S
H751 C734 0.930 . S
H752 C741 0.930 . S
H753 C743 0.930 . S
H754 C744 0.930 . S
H755 C745 0.930 . S
Eu756 N787 2.657 . S
Eu756 N794 2.609 . S
Eu756 O800 2.558 . S
Eu756 O801 2.612 . S
Eu756 O803 2.339 . S
Eu756 O804 2.563 . S
Eu756 O805 2.419 . S
Eu756 O807 2.380 . S
Eu756 O808 2.432 . S
Eu756 C820 2.848 . S
C757 C760 1.429 . S
C757 C761 1.411 . S
C757 N764 1.377 . S
C758 C760 1.420 . S
C758 C762 1.423 . S
C758 C770 1.392 . S
C759 C761 1.420 . S
C759 C762 1.351 . S
C759 H782 0.931 . S
C760 C757 1.429 . S
C760 C758 1.420 . S
C760 N768 1.362 . S
C761 C757 1.411 . S
C761 C759 1.420 . S
C761 C766 1.395 . S
C762 C758 1.423 . S
C762 C759 1.351 . S
C762 H774 0.930 . S
C763 C765 1.400 . S
C763 C766 1.386 . S
C763 H775 0.930 . S
N764 C757 1.377 . S
N764 C765 1.321 . S
N764 Eu767 2.609 . S
C765 C763 1.400 . S
C765 N764 1.321 . S
C765 H772 0.930 . S
C766 C761 1.395 . S
C766 C763 1.386 . S
C766 H785 0.930 . S
Eu767 N764 2.609 . S
Eu767 N768 2.657 . S
Eu767 O801 2.380 . S
Eu767 O802 2.432 . S
Eu767 O806 2.558 . S
Eu767 O807 2.612 . S
Eu767 O809 2.339 . S
Eu767 O810 2.563 . S
Eu767 O811 2.419 . S
Eu767 C831 2.848 . S
N768 C760 1.362 . S
N768 Eu767 2.657 . S
N768 C769 1.334 . S
C769 N768 1.334 . S
C769 C771 1.413 . S
C769 H776 0.929 . S
C770 C758 1.392 . S
C770 C771 1.367 . S
C770 H778 0.930 . S
C771 C769 1.413 . S
C771 C770 1.367 . S
C771 H773 0.930 . S
H772 C765 0.930 . S
H773 C771 0.930 . S
H774 C762 0.930 . S
H775 C763 0.930 . S
H776 C769 0.929 . S
H777 C791 0.930 . S
H778 C770 0.930 . S
H779 C797 0.930 . S
H780 C788 0.929 . S
H781 C795 0.930 . S
H782 C759 0.931 . S
H783 C789 0.930 . S
H784 C822 0.930 . S
H785 C766 0.930 . S
H786 C821 0.931 . S
N787 Eu756 2.657 . S
N787 C788 1.334 . S
N787 C792 1.362 . S
C788 H780 0.929 . S
C788 N787 1.334 . S
C788 C791 1.413 . S
C789 H783 0.930 . S
C789 C790 1.392 . S
C789 C791 1.367 . S
C790 C789 1.392 . S
C790 C792 1.420 . S
C790 C822 1.423 . S
C791 H777 0.930 . S
C791 C788 1.413 . S
C791 C789 1.367 . S
C792 N787 1.362 . S
C792 C790 1.420 . S
C792 C796 1.429 . S
H793 C798 0.930 . S
N794 Eu756 2.609 . S
N794 C796 1.377 . S
N794 C797 1.321 . S
C795 H781 0.930 . S
C795 C797 1.400 . S
C795 C798 1.386 . S
C796 C792 1.429 . S
C796 N794 1.377 . S
C796 C799 1.411 . S
C797 H779 0.930 . S
C797 N794 1.321 . S
C797 C795 1.400 . S
C798 H793 0.930 . S
C798 C795 1.386 . S
C798 C799 1.395 . S
C799 C796 1.411 . S
C799 C798 1.395 . S
C799 C821 1.420 . S
O800 Eu756 2.558 . S
O800 C820 1.257 . S
O801 Eu756 2.612 . S
O801 Eu767 2.380 . S
O801 C812 1.276 . S
O802 Eu767 2.432 . S
O802 C819 1.264 . S
O803 Eu756 2.339 . S
O803 C819 1.254 . S
O804 Eu756 2.563 . S
O804 C812 1.235 . S
O805 Eu756 2.419 . S
O805 C820 1.249 . S
O806 Eu767 2.558 . S
O806 C831 1.257 . S
O807 Eu756 2.380 . S
O807 Eu767 2.612 . S
O807 C823 1.276 . S
O808 Eu756 2.432 . S
O808 C830 1.264 . S
O809 Eu767 2.339 . S
O809 C830 1.254 . S
O810 Eu767 2.563 . S
O810 C823 1.235 . S
O811 Eu767 2.419 . S
O811 C831 1.249 . S
C812 O801 1.276 . S
C812 O804 1.235 . S
C813 C815 1.393 . S
C813 C817 1.395 . S
C813 C820 1.492 . S
C814 C815 1.392 . S
C814 C816 1.386 . S
C815 C813 1.393 . S
C815 C814 1.392 . S
C815 H832 0.930 . S
C816 C814 1.386 . S
C816 C818 1.395 . S
C816 H833 0.930 . S
C817 C813 1.395 . S
C817 C818 1.379 . S
C817 H834 0.930 . S
C818 C816 1.395 . S
C818 C817 1.379 . S
C818 H835 0.930 . S
C819 O802 1.264 . S
C819 O803 1.254 . S
C820 Eu756 2.848 . S
C820 O800 1.257 . S
C820 O805 1.249 . S
C820 C813 1.492 . S
C821 H786 0.931 . S
C821 C799 1.420 . S
C821 C822 1.351 . S
C822 H784 0.930 . S
C822 C790 1.423 . S
C822 C821 1.351 . S
C823 O807 1.276 . S
C823 O810 1.235 . S
C824 C825 1.393 . S
C824 C828 1.395 . S
C824 C831 1.492 . S
C825 C824 1.393 . S
C825 C826 1.392 . S
C825 H836 0.930 . S
C826 C825 1.392 . S
C826 C827 1.386 . S
C827 C826 1.386 . S
C827 C829 1.395 . S
C827 H837 0.930 . S
C828 C824 1.395 . S
C828 C829 1.379 . S
C828 H838 0.930 . S
C829 C827 1.395 . S
C829 C828 1.379 . S
C829 H839 0.930 . S
C830 O808 1.264 . S
C830 O809 1.254 . S
C831 Eu767 2.848 . S
C831 O806 1.257 . S
C831 O811 1.249 . S
C831 C824 1.492 . S
H832 C815 0.930 . S
H833 C816 0.930 . S
H834 C817 0.930 . S
H835 C818 0.930 . S
H836 C825 0.930 . S
H837 C827 0.930 . S
H838 C828 0.930 . S
H839 C829 0.930 . S
Eu840 N871 2.657 . S
Eu840 N878 2.609 . S
Eu840 O884 2.573 . S
Eu840 O885 2.612 . S
Eu840 O887 2.339 . S
Eu840 O888 2.563 . S
Eu840 O889 2.419 . S
Eu840 O891 2.380 . S
Eu840 O892 2.432 1_545 S
Eu840 C904 2.848 . S
C841 C844 1.429 . S
C841 C845 1.411 . S
C841 N848 1.377 . S
C842 C844 1.420 . S
C842 C846 1.423 . S
C842 C854 1.392 1_545 S
C843 C845 1.420 . S
C843 C846 1.351 . S
C843 H866 0.931 . S
C844 C841 1.429 . S
C844 C842 1.420 . S
C844 N852 1.362 . S
C845 C841 1.411 . S
C845 C843 1.420 . S
C845 C850 1.395 . S
C846 C842 1.423 . S
C846 C843 1.351 . S
C846 H858 0.930 . S
C847 C849 1.400 . S
C847 C850 1.386 . S
C847 H859 0.930 . S
N848 C841 1.377 . S
N848 C849 1.321 . S
N848 Eu851 2.609 . S
C849 C847 1.400 . S
C849 N848 1.321 . S
C849 H856 0.930 . S
C850 C845 1.395 . S
C850 C847 1.386 . S
C850 H869 0.930 . S
Eu851 N848 2.609 . S
Eu851 N852 2.657 . S
Eu851 O885 2.380 1_556 S
Eu851 O886 2.432 1_556 S
Eu851 O890 2.558 . S
Eu851 O891 2.612 1_556 S
Eu851 O893 2.339 . S
Eu851 O894 2.563 1_556 S
Eu851 O895 2.419 . S
Eu851 C915 2.848 . S
N852 C844 1.362 . S
N852 Eu851 2.657 . S
N852 C853 1.334 1_545 S
C853 N852 1.334 1_565 S
C853 C855 1.413 . S
C853 H860 0.929 . S
C854 C842 1.392 1_565 S
C854 C855 1.367 . S
C854 H862 0.930 . S
C855 C853 1.413 . S
C855 C854 1.367 . S
C855 H857 0.930 . S
H856 C849 0.930 . S
H857 C855 0.930 . S
H858 C846 0.930 . S
H859 C847 0.930 . S
H860 C853 0.929 . S
H861 C875 0.930 . S
H862 C854 0.930 . S
H863 C881 0.930 . S
H864 C872 0.929 . S
H865 C879 0.930 . S
H866 C843 0.931 . S
H867 C873 0.930 . S
H868 C906 0.930 . S
H869 C850 0.930 . S
H870 C905 0.931 . S
N871 Eu840 2.657 . S
N871 C872 1.334 . S
N871 C876 1.362 . S
C872 H864 0.929 . S
C872 N871 1.334 . S
C872 C875 1.413 . S
C873 H867 0.930 . S
C873 C874 1.392 . S
C873 C875 1.367 . S
C874 C873 1.392 . S
C874 C876 1.420 . S
C874 C906 1.423 . S
C875 H861 0.930 . S
C875 C872 1.413 . S
C875 C873 1.367 . S
C876 N871 1.362 . S
C876 C874 1.420 . S
C876 C880 1.429 . S
H877 C882 0.930 . S
N878 Eu840 2.609 . S
N878 C880 1.377 . S
N878 C881 1.321 1_545 S
C879 H865 0.930 . S
C879 C881 1.400 . S
C879 C882 1.386 . S
C880 C876 1.429 . S
C880 N878 1.377 . S
C880 C883 1.411 . S
C881 H863 0.930 . S
C881 N878 1.321 1_565 S
C881 C879 1.400 . S
C882 H877 0.930 . S
C882 C879 1.386 . S
C882 C883 1.395 1_565 S
C883 C880 1.411 . S
C883 C882 1.395 1_545 S
C883 C905 1.420 . S
O884 Eu840 2.573 . S
O884 C904 1.271 . S
O885 Eu840 2.612 . S
O885 Eu851 2.380 1_554 S
O885 C896 1.276 . S
O886 Eu851 2.432 1_554 S
O886 C903 1.264 . S
O887 Eu840 2.339 . S
O887 C903 1.254 . S
O888 Eu840 2.563 . S
O888 C896 1.235 . S
O889 Eu840 2.419 . S
O889 C904 1.249 . S
O890 Eu851 2.558 . S
O890 C915 1.257 . S
O891 Eu840 2.380 . S
O891 Eu851 2.612 1_554 S
O891 C907 1.276 . S
O892 Eu840 2.432 1_565 S
O892 C914 1.260 1_565 S
O893 Eu851 2.339 . S
O893 C914 1.269 1_556 S
O894 Eu851 2.563 1_554 S
O894 C907 1.235 . S
O895 Eu851 2.419 . S
O895 C915 1.249 . S
C896 O885 1.276 . S
C896 O888 1.235 . S
C897 C899 1.393 . S
C897 C901 1.395 1_545 S
C897 C904 1.492 . S
C898 C899 1.392 . S
C898 C900 1.386 1_545 S
C899 C897 1.393 . S
C899 C898 1.392 . S
C899 H916 0.930 . S
C900 C898 1.386 1_565 S
C900 C902 1.395 . S
C900 H917 0.930 . S
C901 C897 1.395 1_565 S
C901 C902 1.379 . S
C901 H918 0.930 . S
C902 C900 1.395 . S
C902 C901 1.379 . S
C902 H919 0.930 . S
C903 O886 1.264 . S
C903 O887 1.254 . S
C904 Eu840 2.848 . S
C904 O884 1.271 . S
C904 O889 1.249 . S
C904 C897 1.492 . S
C905 H870 0.931 . S
C905 C883 1.420 . S
C905 C906 1.351 . S
C906 H868 0.930 . S
C906 C874 1.423 . S
C906 C905 1.351 . S
C907 O891 1.276 . S
C907 O894 1.235 . S
C908 C909 1.393 . S
C908 C912 1.395 . S
C908 C915 1.492 . S
C909 C908 1.393 . S
C909 C910 1.392 . S
C909 H920 0.930 . S
C910 C909 1.392 . S
C910 C911 1.386 . S
C911 C910 1.386 . S
C911 C913 1.395 . S
C911 H921 0.930 . S
C912 C908 1.395 . S
C912 C913 1.379 . S
C912 H922 0.930 . S
C913 C911 1.395 . S
C913 C912 1.379 . S
C913 H923 0.930 . S
C914 O892 1.260 1_545 S
C914 O893 1.269 1_554 S
C915 Eu851 2.848 . S
C915 O890 1.257 . S
C915 O895 1.249 . S
C915 C908 1.492 . S
H916 C899 0.930 . S
H917 C900 0.930 . S
H918 C901 0.930 . S
H919 C902 0.930 . S
H920 C909 0.930 . S
H921 C911 0.930 . S
H922 C912 0.930 . S
H923 C913 0.930 . S
Eu924 N955 2.657 . S
Eu924 N962 2.609 . S
Eu924 O968 2.558 . S
Eu924 O969 2.612 . S
Eu924 O971 2.339 . S
Eu924 O972 2.563 . S
Eu924 O973 2.419 . S
Eu924 O975 2.380 . S
Eu924 O976 2.432 . S
Eu924 C988 2.848 . S
C925 C928 1.429 . S
C925 C929 1.411 . S
C925 N932 1.377 . S
C926 C928 1.420 . S
C926 C930 1.423 . S
C926 C938 1.392 . S
C927 C929 1.420 . S
C927 C930 1.351 . S
C927 H950 0.931 . S
C928 C925 1.429 . S
C928 C926 1.420 . S
C928 N936 1.362 . S
C929 C925 1.411 . S
C929 C927 1.420 . S
C929 C934 1.395 . S
C930 C926 1.423 . S
C930 C927 1.351 . S
C930 H942 0.930 . S
C931 C933 1.400 . S
C931 C934 1.386 . S
C931 H943 0.930 . S
N932 C925 1.377 . S
N932 C933 1.321 . S
N932 Eu935 2.609 . S
C933 C931 1.400 . S
C933 N932 1.321 . S
C933 H940 0.930 . S
C934 C929 1.395 . S
C934 C931 1.386 . S
C934 H953 0.930 . S
Eu935 N932 2.609 . S
Eu935 N936 2.657 . S
Eu935 O969 2.380 . S
Eu935 O970 2.432 . S
Eu935 O974 2.558 . S
Eu935 O975 2.612 . S
Eu935 O977 2.339 . S
Eu935 O978 2.563 . S
Eu935 O979 2.419 . S
Eu935 C999 2.848 . S
N936 C928 1.362 . S
N936 Eu935 2.657 . S
N936 C937 1.334 . S
C937 N936 1.334 . S
C937 C939 1.413 . S
C937 H944 0.929 . S
C938 C926 1.392 . S
C938 C939 1.367 . S
C938 H946 0.930 . S
C939 C937 1.413 . S
C939 C938 1.367 . S
C939 H941 0.930 . S
H940 C933 0.930 . S
H941 C939 0.930 . S
H942 C930 0.930 . S
H943 C931 0.930 . S
H944 C937 0.929 . S
H945 C959 0.930 . S
H946 C938 0.930 . S
H947 C965 0.930 . S
H948 C956 0.929 . S
H949 C963 0.930 . S
H950 C927 0.931 . S
H951 C957 0.930 . S
H952 C990 0.930 . S
H953 C934 0.930 . S
H954 C989 0.931 . S
N955 Eu924 2.657 . S
N955 C956 1.334 . S
N955 C960 1.362 . S
C956 H948 0.929 . S
C956 N955 1.334 . S
C956 C959 1.413 . S
C957 H951 0.930 . S
C957 C958 1.392 . S
C957 C959 1.367 . S
C958 C957 1.392 . S
C958 C960 1.420 . S
C958 C990 1.423 . S
C959 H945 0.930 . S
C959 C956 1.413 . S
C959 C957 1.367 . S
C960 N955 1.362 . S
C960 C958 1.420 . S
C960 C964 1.429 . S
H961 C966 0.930 . S
N962 Eu924 2.609 . S
N962 C964 1.377 . S
N962 C965 1.321 . S
C963 H949 0.930 . S
C963 C965 1.400 . S
C963 C966 1.386 . S
C964 C960 1.429 . S
C964 N962 1.377 . S
C964 C967 1.411 . S
C965 H947 0.930 . S
C965 N962 1.321 . S
C965 C963 1.400 . S
C966 H961 0.930 . S
C966 C963 1.386 . S
C966 C967 1.395 . S
C967 C964 1.411 . S
C967 C966 1.395 . S
C967 C989 1.420 . S
O968 Eu924 2.558 . S
O968 C988 1.257 . S
O969 Eu924 2.612 . S
O969 Eu935 2.380 . S
O969 C980 1.276 . S
O970 Eu935 2.432 . S
O970 C987 1.264 . S
O971 Eu924 2.339 . S
O971 C987 1.254 . S
O972 Eu924 2.563 . S
O972 C980 1.235 . S
O973 Eu924 2.419 . S
O973 C988 1.249 . S
O974 Eu935 2.558 . S
O974 C999 1.257 . S
O975 Eu924 2.380 . S
O975 Eu935 2.612 . S
O975 C991 1.276 . S
O976 Eu924 2.432 . S
O976 C998 1.264 . S
O977 Eu935 2.339 . S
O977 C998 1.254 . S
O978 Eu935 2.563 . S
O978 C991 1.235 . S
O979 Eu935 2.419 . S
O979 C999 1.249 . S
C980 O969 1.276 . S
C980 O972 1.235 . S
C981 C983 1.393 . S
C981 C985 1.395 . S
C981 C988 1.492 . S
C982 C983 1.392 . S
C982 C984 1.386 . S
C983 C981 1.393 . S
C983 C982 1.392 . S
C983 H1000 0.930 . S
C984 C982 1.386 . S
C984 C986 1.395 . S
C984 H1001 0.930 . S
C985 C981 1.395 . S
C985 C986 1.379 . S
C985 H1002 0.930 . S
C986 C984 1.395 . S
C986 C985 1.379 . S
C986 H1003 0.930 . S
C987 O970 1.264 . S
C987 O971 1.254 . S
C988 Eu924 2.848 . S
C988 O968 1.257 . S
C988 O973 1.249 . S
C988 C981 1.492 . S
C989 H954 0.931 . S
C989 C967 1.420 . S
C989 C990 1.351 . S
C990 H952 0.930 . S
C990 C958 1.423 . S
C990 C989 1.351 . S
C991 O975 1.276 . S
C991 O978 1.235 . S
C992 C993 1.393 . S
C992 C996 1.395 . S
C992 C999 1.492 . S
C993 C992 1.393 . S
C993 C994 1.392 . S
C993 H1004 0.930 . S
C994 C993 1.392 . S
C994 C995 1.386 . S
C995 C994 1.386 . S
C995 C997 1.395 . S
C995 H1005 0.930 . S
C996 C992 1.395 . S
C996 C997 1.379 . S
C996 H1006 0.930 . S
C997 C995 1.395 . S
C997 C996 1.379 . S
C997 H1007 0.930 . S
C998 O976 1.264 . S
C998 O977 1.254 . S
C999 Eu935 2.848 . S
C999 O974 1.257 . S
C999 O979 1.249 . S
C999 C992 1.492 . S
H1000 C983 0.930 . S
H1001 C984 0.930 . S
H1002 C985 0.930 . S
H1003 C986 0.930 . S
H1004 C993 0.930 . S
H1005 C995 0.930 . S
H1006 C996 0.930 . S
H1007 C997 0.930 . S
Eu1008 N1039 2.657 . S
Eu1008 N1046 2.609 . S
Eu1008 O1052 2.558 . S
Eu1008 O1053 2.584 1_554 S
Eu1008 O1055 2.339 . S
Eu1008 O1056 2.563 1_554 S
Eu1008 O1057 2.419 . S
Eu1008 O1059 2.380 . S
Eu1008 O1060 2.432 . S
Eu1008 C1072 2.848 . S
C1009 C1012 1.429 . S
C1009 C1013 1.411 . S
C1009 N1016 1.377 . S
C1010 C1012 1.420 . S
C1010 C1014 1.423 . S
C1010 C1022 1.392 . S
C1011 C1013 1.420 . S
C1011 C1014 1.351 . S
C1011 H1034 0.931 . S
C1012 C1009 1.429 . S
C1012 C1010 1.420 . S
C1012 N1020 1.362 . S
C1013 C1009 1.411 . S
C1013 C1011 1.420 . S
C1013 C1018 1.395 . S
C1014 C1010 1.423 . S
C1014 C1011 1.351 . S
C1014 H1026 0.930 . S
C1015 C1017 1.400 . S
C1015 C1018 1.386 . S
C1015 H1027 0.930 . S
N1016 C1009 1.377 . S
N1016 C1017 1.321 . S
N1016 Eu1019 2.609 1_556 S
C1017 C1015 1.400 . S
C1017 N1016 1.321 . S
C1017 H1024 0.930 . S
C1018 C1013 1.395 . S
C1018 C1015 1.386 . S
C1018 H1037 0.930 . S
Eu1019 N1016 2.609 1_554 S
Eu1019 N1020 2.657 1_554 S
Eu1019 O1053 2.359 1_554 S
Eu1019 O1054 2.432 . S
Eu1019 O1058 2.558 . S
Eu1019 O1059 2.612 . S
Eu1019 O1061 2.339 . S
Eu1019 O1062 2.563 . S
Eu1019 O1063 2.419 . S
Eu1019 C1083 2.848 . S
N1020 C1012 1.362 . S
N1020 Eu1019 2.657 1_556 S
N1020 C1021 1.334 . S
C1021 N1020 1.334 . S
C1021 C1023 1.413 . S
C1021 H1028 0.929 . S
C1022 C1010 1.392 . S
C1022 C1023 1.367 . S
C1022 H1030 0.930 . S
C1023 C1021 1.413 . S
C1023 C1022 1.367 . S
C1023 H1025 0.930 . S
H1024 C1017 0.930 . S
H1025 C1023 0.930 . S
H1026 C1014 0.930 . S
H1027 C1015 0.930 . S
H1028 C1021 0.929 . S
H1029 C1043 0.930 . S
H1030 C1022 0.930 . S
H1031 C1049 0.930 . S
H1032 C1040 0.929 . S
H1033 C1047 0.930 . S
H1034 C1011 0.931 . S
H1035 C1041 0.930 . S
H1036 C1074 0.930 . S
H1037 C1018 0.930 . S
H1038 C1073 0.931 . S
N1039 Eu1008 2.657 . S
N1039 C1040 1.334 . S
N1039 C1044 1.362 . S
C1040 H1032 0.929 . S
C1040 N1039 1.334 . S
C1040 C1043 1.413 . S
C1041 H1035 0.930 . S
C1041 C1042 1.392 . S
C1041 C1043 1.367 . S
C1042 C1041 1.392 . S
C1042 C1044 1.420 . S
C1042 C1074 1.423 . S
C1043 H1029 0.930 . S
C1043 C1040 1.413 . S
C1043 C1041 1.367 . S
C1044 N1039 1.362 . S
C1044 C1042 1.420 . S
C1044 C1048 1.429 . S
H1045 C1050 0.930 . S
N1046 Eu1008 2.609 . S
N1046 C1048 1.377 . S
N1046 C1049 1.321 . S
C1047 H1033 0.930 . S
C1047 C1049 1.400 . S
C1047 C1050 1.386 . S
C1048 C1044 1.429 . S
C1048 N1046 1.377 . S
C1048 C1051 1.411 . S
C1049 H1031 0.930 . S
C1049 N1046 1.321 . S
C1049 C1047 1.400 . S
C1050 H1045 0.930 . S
C1050 C1047 1.386 . S
C1050 C1051 1.395 . S
C1051 C1048 1.411 . S
C1051 C1050 1.395 . S
C1051 C1073 1.420 . S
O1052 Eu1008 2.558 . S
O1052 C1072 1.257 . S
O1053 Eu1008 2.584 1_556 S
O1053 Eu1019 2.359 1_556 S
O1053 C1064 1.308 . S
O1054 Eu1019 2.432 . S
O1054 C1071 1.264 . S
O1055 Eu1008 2.339 . S
O1055 C1071 1.254 . S
O1056 Eu1008 2.563 1_556 S
O1056 C1064 1.235 . S
O1057 Eu1008 2.419 . S
O1057 C1072 1.249 . S
O1058 Eu1019 2.558 . S
O1058 C1083 1.257 . S
O1059 Eu1008 2.380 . S
O1059 Eu1019 2.612 . S
O1059 C1075 1.276 . S
O1060 Eu1008 2.432 . S
O1060 C1082 1.264 . S
O1061 Eu1019 2.339 . S
O1061 C1082 1.254 . S
O1062 Eu1019 2.563 . S
O1062 C1075 1.235 . S
O1063 Eu1019 2.419 . S
O1063 C1083 1.249 . S
C1064 O1053 1.308 . S
C1064 O1056 1.235 . S
C1065 C1067 1.393 . S
C1065 C1069 1.395 . S
C1065 C1072 1.492 . S
C1066 C1067 1.392 . S
C1066 C1068 1.386 . S
C1067 C1065 1.393 . S
C1067 C1066 1.392 . S
C1067 H1084 0.930 . S
C1068 C1066 1.386 . S
C1068 C1070 1.395 . S
C1068 H1085 0.930 . S
C1069 C1065 1.395 . S
C1069 C1070 1.379 . S
C1069 H1086 0.930 . S
C1070 C1068 1.395 . S
C1070 C1069 1.379 . S
C1070 H1087 0.930 . S
C1071 O1054 1.264 . S
C1071 O1055 1.254 . S
C1072 Eu1008 2.848 . S
C1072 O1052 1.257 . S
C1072 O1057 1.249 . S
C1072 C1065 1.492 . S
C1073 H1038 0.931 . S
C1073 C1051 1.420 . S
C1073 C1074 1.351 . S
C1074 H1036 0.930 . S
C1074 C1042 1.423 . S
C1074 C1073 1.351 . S
C1075 O1059 1.276 . S
C1075 O1062 1.235 . S
C1076 C1077 1.393 . S
C1076 C1080 1.395 . S
C1076 C1083 1.492 . S
C1077 C1076 1.393 . S
C1077 C1078 1.392 . S
C1077 H1088 0.930 . S
C1078 C1077 1.392 . S
C1078 C1079 1.386 . S
C1079 C1078 1.386 . S
C1079 C1081 1.395 . S
C1079 H1089 0.930 . S
C1080 C1076 1.395 . S
C1080 C1081 1.379 . S
C1080 H1090 0.930 . S
C1081 C1079 1.395 . S
C1081 C1080 1.379 . S
C1081 H1091 0.930 . S
C1082 O1060 1.264 . S
C1082 O1061 1.254 . S
C1083 Eu1019 2.848 . S
C1083 O1058 1.257 . S
C1083 O1063 1.249 . S
C1083 C1076 1.492 . S
H1084 C1067 0.930 . S
H1085 C1068 0.930 . S
H1086 C1069 0.930 . S
H1087 C1070 0.930 . S
H1088 C1077 0.930 . S
H1089 C1079 0.930 . S
H1090 C1080 0.930 . S
H1091 C1081 0.930 . S
Eu1092 N1123 2.657 . S
Eu1092 N1130 2.609 . S
Eu1092 O1136 2.558 . S
Eu1092 O1137 2.612 . S
Eu1092 O1139 2.339 . S
Eu1092 O1140 2.563 . S
Eu1092 O1141 2.419 . S
Eu1092 O1143 2.380 . S
Eu1092 O1144 2.432 . S
Eu1092 C1156 2.848 . S
C1093 C1096 1.429 . S
C1093 C1097 1.411 . S
C1093 N1100 1.377 . S
C1094 C1096 1.420 . S
C1094 C1098 1.423 . S
C1094 C1106 1.392 . S
C1095 C1097 1.420 . S
C1095 C1098 1.351 . S
C1095 H1118 0.931 . S
C1096 C1093 1.429 . S
C1096 C1094 1.420 . S
C1096 N1104 1.362 . S
C1097 C1093 1.411 . S
C1097 C1095 1.420 . S
C1097 C1102 1.395 . S
C1098 C1094 1.423 . S
C1098 C1095 1.351 . S
C1098 H1110 0.930 . S
C1099 C1101 1.400 . S
C1099 C1102 1.386 . S
C1099 H1111 0.930 . S
N1100 C1093 1.377 . S
N1100 C1101 1.321 . S
N1100 Eu1103 2.609 . S
C1101 C1099 1.400 . S
C1101 N1100 1.321 . S
C1101 H1108 0.930 . S
C1102 C1097 1.395 . S
C1102 C1099 1.386 . S
C1102 H1121 0.930 . S
Eu1103 N1100 2.609 . S
Eu1103 N1104 2.657 . S
Eu1103 O1137 2.380 . S
Eu1103 O1138 2.432 . S
Eu1103 O1142 2.558 . S
Eu1103 O1143 2.612 . S
Eu1103 O1145 2.339 . S
Eu1103 O1146 2.563 . S
Eu1103 O1147 2.419 . S
Eu1103 C1167 2.848 . S
N1104 C1096 1.362 . S
N1104 Eu1103 2.657 . S
N1104 C1105 1.334 . S
C1105 N1104 1.334 . S
C1105 C1107 1.413 . S
C1105 H1112 0.929 . S
C1106 C1094 1.392 . S
C1106 C1107 1.367 . S
C1106 H1114 0.930 . S
C1107 C1105 1.413 . S
C1107 C1106 1.367 . S
C1107 H1109 0.930 . S
H1108 C1101 0.930 . S
H1109 C1107 0.930 . S
H1110 C1098 0.930 . S
H1111 C1099 0.930 . S
H1112 C1105 0.929 . S
H1113 C1127 0.930 . S
H1114 C1106 0.930 . S
H1115 C1133 0.930 . S
H1116 C1124 0.929 . S
H1117 C1131 0.930 . S
H1118 C1095 0.931 . S
H1119 C1125 0.930 . S
H1120 C1158 0.930 . S
H1121 C1102 0.930 . S
H1122 C1157 0.931 . S
N1123 Eu1092 2.657 . S
N1123 C1124 1.334 . S
N1123 C1128 1.362 . S
C1124 H1116 0.929 . S
C1124 N1123 1.334 . S
C1124 C1127 1.413 . S
C1125 H1119 0.930 . S
C1125 C1126 1.392 . S
C1125 C1127 1.367 . S
C1126 C1125 1.392 . S
C1126 C1128 1.420 . S
C1126 C1158 1.423 . S
C1127 H1113 0.930 . S
C1127 C1124 1.413 . S
C1127 C1125 1.367 . S
C1128 N1123 1.362 . S
C1128 C1126 1.420 . S
C1128 C1132 1.429 . S
H1129 C1134 0.930 . S
N1130 Eu1092 2.609 . S
N1130 C1132 1.377 . S
N1130 C1133 1.321 . S
C1131 H1117 0.930 . S
C1131 C1133 1.400 . S
C1131 C1134 1.386 . S
C1132 C1128 1.429 . S
C1132 N1130 1.377 . S
C1132 C1135 1.411 . S
C1133 H1115 0.930 . S
C1133 N1130 1.321 . S
C1133 C1131 1.400 . S
C1134 H1129 0.930 . S
C1134 C1131 1.386 . S
C1134 C1135 1.395 . S
C1135 C1132 1.411 . S
C1135 C1134 1.395 . S
C1135 C1157 1.420 . S
O1136 Eu1092 2.558 . S
O1136 C1156 1.257 . S
O1137 Eu1092 2.612 . S
O1137 Eu1103 2.380 . S
O1137 C1148 1.276 . S
O1138 Eu1103 2.432 . S
O1138 C1155 1.264 . S
O1139 Eu1092 2.339 . S
O1139 C1155 1.254 . S
O1140 Eu1092 2.563 . S
O1140 C1148 1.235 . S
O1141 Eu1092 2.419 . S
O1141 C1156 1.249 . S
O1142 Eu1103 2.558 . S
O1142 C1167 1.257 . S
O1143 Eu1092 2.380 . S
O1143 Eu1103 2.612 . S
O1143 C1159 1.276 . S
O1144 Eu1092 2.432 . S
O1144 C1166 1.264 . S
O1145 Eu1103 2.339 . S
O1145 C1166 1.254 . S
O1146 Eu1103 2.563 . S
O1146 C1159 1.235 . S
O1147 Eu1103 2.419 . S
O1147 C1167 1.249 . S
C1148 O1137 1.276 . S
C1148 O1140 1.235 . S
C1149 C1151 1.393 . S
C1149 C1153 1.395 . S
C1149 C1156 1.492 . S
C1150 C1151 1.392 . S
C1150 C1152 1.386 . S
C1151 C1149 1.393 . S
C1151 C1150 1.392 . S
C1151 H1168 0.930 . S
C1152 C1150 1.386 . S
C1152 C1154 1.395 . S
C1152 H1169 0.930 . S
C1153 C1149 1.395 . S
C1153 C1154 1.379 . S
C1153 H1170 0.930 . S
C1154 C1152 1.395 . S
C1154 C1153 1.379 . S
C1154 H1171 0.930 . S
C1155 O1138 1.264 . S
C1155 O1139 1.254 . S
C1156 Eu1092 2.848 . S
C1156 O1136 1.257 . S
C1156 O1141 1.249 . S
C1156 C1149 1.492 . S
C1157 H1122 0.931 . S
C1157 C1135 1.420 . S
C1157 C1158 1.351 . S
C1158 H1120 0.930 . S
C1158 C1126 1.423 . S
C1158 C1157 1.351 . S
C1159 O1143 1.276 . S
C1159 O1146 1.235 . S
C1160 C1161 1.393 . S
C1160 C1164 1.395 . S
C1160 C1167 1.492 . S
C1161 C1160 1.393 . S
C1161 C1162 1.392 . S
C1161 H1172 0.930 . S
C1162 C1161 1.392 . S
C1162 C1163 1.386 . S
C1163 C1162 1.386 . S
C1163 C1165 1.395 . S
C1163 H1173 0.930 . S
C1164 C1160 1.395 . S
C1164 C1165 1.379 . S
C1164 H1174 0.930 . S
C1165 C1163 1.395 . S
C1165 C1164 1.379 . S
C1165 H1175 0.930 . S
C1166 O1144 1.264 . S
C1166 O1145 1.254 . S
C1167 Eu1103 2.848 . S
C1167 O1142 1.257 . S
C1167 O1147 1.249 . S
C1167 C1160 1.492 . S
H1168 C1151 0.930 . S
H1169 C1152 0.930 . S
H1170 C1153 0.930 . S
H1171 C1154 0.930 . S
H1172 C1161 0.930 . S
H1173 C1163 0.930 . S
H1174 C1164 0.930 . S
H1175 C1165 0.930 . S
Eu1176 N1207 2.657 . S
Eu1176 N1214 2.609 . S
Eu1176 O1220 2.558 . S
Eu1176 O1221 2.612 . S
Eu1176 O1223 2.339 . S
Eu1176 O1224 2.563 . S
Eu1176 O1225 2.419 . S
Eu1176 O1227 2.380 . S
Eu1176 O1228 2.432 . S
Eu1176 C1240 2.848 . S
C1177 C1180 1.429 . S
C1177 C1181 1.411 1_455 S
C1177 N1184 1.377 . S
C1178 C1180 1.420 1_655 S
C1178 C1182 1.423 . S
C1178 C1190 1.392 . S
C1179 C1181 1.420 . S
C1179 C1182 1.351 . S
C1179 H1202 0.931 . S
C1180 C1177 1.429 . S
C1180 C1178 1.420 1_455 S
C1180 N1188 1.362 . S
C1181 C1177 1.411 1_655 S
C1181 C1179 1.420 . S
C1181 C1186 1.395 . S
C1182 C1178 1.423 . S
C1182 C1179 1.351 . S
C1182 H1194 0.930 . S
C1183 C1185 1.400 . S
C1183 C1186 1.386 1_455 S
C1183 H1195 0.930 . S
N1184 C1177 1.377 . S
N1184 C1185 1.321 . S
N1184 Eu1187 2.609 . S
C1185 C1183 1.400 . S
C1185 N1184 1.321 . S
C1185 H1192 0.930 . S
C1186 C1181 1.395 . S
C1186 C1183 1.386 1_655 S
C1186 H1205 0.930 . S
Eu1187 N1184 2.609 . S
Eu1187 N1188 2.657 . S
Eu1187 O1221 2.380 . S
Eu1187 O1222 2.432 . S
Eu1187 O1226 2.558 . S
Eu1187 O1227 2.612 . S
Eu1187 O1229 2.339 . S
Eu1187 O1230 2.563 . S
Eu1187 O1231 2.419 . S
Eu1187 C1251 2.848 . S
N1188 C1180 1.362 . S
N1188 Eu1187 2.657 . S
N1188 C1189 1.334 . S
C1189 N1188 1.334 . S
C1189 C1191 1.419 . S
C1189 H1196 0.929 . S
C1190 C1178 1.392 . S
C1190 C1191 1.361 1_655 S
C1190 H1198 0.930 . S
C1191 C1189 1.419 . S
C1191 C1190 1.361 1_455 S
C1191 H1193 0.932 1_455 S
H1192 C1185 0.930 . S
H1193 C1191 0.932 1_655 S
H1194 C1182 0.930 . S
H1195 C1183 0.930 . S
H1196 C1189 0.929 . S
H1197 C1211 0.930 . S
H1198 C1190 0.930 . S
H1199 C1217 0.930 . S
H1200 C1208 0.929 . S
H1201 C1215 0.930 . S
H1202 C1179 0.931 . S
H1203 C1209 0.930 . S
H1204 C1242 0.930 . S
H1205 C1186 0.930 . S
H1206 C1241 0.931 . S
N1207 Eu1176 2.657 . S
N1207 C1208 1.334 . S
N1207 C1212 1.362 . S
C1208 H1200 0.929 . S
C1208 N1207 1.334 . S
C1208 C1211 1.413 . S
C1209 H1203 0.930 . S
C1209 C1210 1.392 . S
C1209 C1211 1.367 . S
C1210 C1209 1.392 . S
C1210 C1212 1.420 . S
C1210 C1242 1.423 . S
C1211 H1197 0.930 . S
C1211 C1208 1.413 . S
C1211 C1209 1.367 . S
C1212 N1207 1.362 . S
C1212 C1210 1.420 . S
C1212 C1216 1.429 . S
H1213 C1218 0.930 . S
N1214 Eu1176 2.609 . S
N1214 C1216 1.377 . S
N1214 C1217 1.321 . S
C1215 H1201 0.930 . S
C1215 C1217 1.400 . S
C1215 C1218 1.386 . S
C1216 C1212 1.429 . S
C1216 N1214 1.377 . S
C1216 C1219 1.411 . S
C1217 H1199 0.930 . S
C1217 N1214 1.321 . S
C1217 C1215 1.400 . S
C1218 H1213 0.930 . S
C1218 C1215 1.386 . S
C1218 C1219 1.395 . S
C1219 C1216 1.411 . S
C1219 C1218 1.395 . S
C1219 C1241 1.420 . S
O1220 Eu1176 2.558 . S
O1220 C1240 1.257 . S
O1221 Eu1176 2.612 . S
O1221 Eu1187 2.380 . S
O1221 C1232 1.276 . S
O1222 Eu1187 2.432 . S
O1222 C1239 1.264 . S
O1223 Eu1176 2.339 . S
O1223 C1239 1.254 . S
O1224 Eu1176 2.563 . S
O1224 C1232 1.235 . S
O1225 Eu1176 2.419 . S
O1225 C1240 1.249 . S
O1226 Eu1187 2.558 . S
O1226 C1251 1.257 . S
O1227 Eu1176 2.380 . S
O1227 Eu1187 2.612 . S
O1227 C1243 1.276 . S
O1228 Eu1176 2.432 . S
O1228 C1250 1.264 . S
O1229 Eu1187 2.339 . S
O1229 C1250 1.254 . S
O1230 Eu1187 2.563 . S
O1230 C1243 1.235 . S
O1231 Eu1187 2.419 . S
O1231 C1251 1.249 . S
C1232 O1221 1.276 . S
C1232 O1224 1.235 . S
C1233 C1235 1.393 . S
C1233 C1237 1.395 . S
C1233 C1240 1.492 . S
C1234 C1235 1.392 . S
C1234 C1236 1.386 . S
C1235 C1233 1.393 . S
C1235 C1234 1.392 . S
C1235 H1252 0.930 . S
C1236 C1234 1.386 . S
C1236 C1238 1.395 . S
C1236 H1253 0.930 . S
C1237 C1233 1.395 . S
C1237 C1238 1.379 . S
C1237 H1254 0.930 . S
C1238 C1236 1.395 . S
C1238 C1237 1.379 . S
C1238 H1255 0.930 . S
C1239 O1222 1.264 . S
C1239 O1223 1.254 . S
C1240 Eu1176 2.848 . S
C1240 O1220 1.257 . S
C1240 O1225 1.249 . S
C1240 C1233 1.492 . S
C1241 H1206 0.931 . S
C1241 C1219 1.420 . S
C1241 C1242 1.351 . S
C1242 H1204 0.930 . S
C1242 C1210 1.423 . S
C1242 C1241 1.351 . S
C1243 O1227 1.276 . S
C1243 O1230 1.235 . S
C1244 C1245 1.393 . S
C1244 C1248 1.395 . S
C1244 C1251 1.492 . S
C1245 C1244 1.393 . S
C1245 C1246 1.392 . S
C1245 H1256 0.930 . S
C1246 C1245 1.392 . S
C1246 C1247 1.386 . S
C1247 C1246 1.386 . S
C1247 C1249 1.395 . S
C1247 H1257 0.930 . S
C1248 C1244 1.395 . S
C1248 C1249 1.379 . S
C1248 H1258 0.930 . S
C1249 C1247 1.395 . S
C1249 C1248 1.379 . S
C1249 H1259 0.930 . S
C1250 O1228 1.264 . S
C1250 O1229 1.254 . S
C1251 Eu1187 2.848 . S
C1251 O1226 1.257 . S
C1251 O1231 1.249 . S
C1251 C1244 1.492 . S
H1252 C1235 0.930 . S
H1253 C1236 0.930 . S
H1254 C1237 0.930 . S
H1255 C1238 0.930 . S
H1256 C1245 0.930 . S
H1257 C1247 0.930 . S
H1258 C1248 0.930 . S
H1259 C1249 0.930 . S
Eu1260 N1291 2.657 . S
Eu1260 N1298 2.609 . S
Eu1260 O1304 2.558 . S
Eu1260 O1305 2.612 . S
Eu1260 O1307 2.339 . S
Eu1260 O1308 2.563 . S
Eu1260 O1309 2.419 . S
Eu1260 O1311 2.380 . S
Eu1260 O1312 2.432 . S
Eu1260 C1324 2.848 . S
C1261 C1264 1.429 . S
C1261 C1265 1.411 . S
C1261 N1268 1.377 . S
C1262 C1264 1.420 . S
C1262 C1266 1.423 . S
C1262 C1274 1.392 . S
C1263 C1265 1.420 . S
C1263 C1266 1.351 . S
C1263 H1286 0.931 . S
C1264 C1261 1.429 . S
C1264 C1262 1.420 . S
C1264 N1272 1.362 . S
C1265 C1261 1.411 . S
C1265 C1263 1.420 . S
C1265 C1270 1.395 . S
C1266 C1262 1.423 . S
C1266 C1263 1.351 . S
C1266 H1278 0.930 . S
C1267 C1269 1.400 . S
C1267 C1270 1.386 . S
C1267 H1279 0.930 . S
N1268 C1261 1.377 . S
N1268 C1269 1.321 . S
N1268 Eu1271 2.609 . S
C1269 C1267 1.400 . S
C1269 N1268 1.321 . S
C1269 H1276 0.930 . S
C1270 C1265 1.395 . S
C1270 C1267 1.386 . S
C1270 H1289 0.930 . S
Eu1271 N1268 2.609 . S
Eu1271 N1272 2.657 . S
Eu1271 O1305 2.380 . S
Eu1271 O1306 2.432 . S
Eu1271 O1310 2.558 . S
Eu1271 O1311 2.612 . S
Eu1271 O1313 2.339 . S
Eu1271 O1314 2.563 . S
Eu1271 O1315 2.419 . S
Eu1271 C1335 2.848 . S
N1272 C1264 1.362 . S
N1272 Eu1271 2.657 . S
N1272 C1273 1.334 . S
C1273 N1272 1.334 . S
C1273 C1275 1.413 . S
C1273 H1280 0.929 . S
C1274 C1262 1.392 . S
C1274 C1275 1.367 . S
C1274 H1282 0.930 . S
C1275 C1273 1.413 . S
C1275 C1274 1.367 . S
C1275 H1277 0.930 . S
H1276 C1269 0.930 . S
H1277 C1275 0.930 . S
H1278 C1266 0.930 . S
H1279 C1267 0.930 . S
H1280 C1273 0.929 . S
H1281 C1295 0.930 . S
H1282 C1274 0.930 . S
H1283 C1301 0.930 . S
H1284 C1292 0.929 . S
H1285 C1299 0.930 . S
H1286 C1263 0.931 . S
H1287 C1293 0.930 . S
H1288 C1326 0.930 . S
H1289 C1270 0.930 . S
H1290 C1325 0.931 . S
N1291 Eu1260 2.657 . S
N1291 C1292 1.334 . S
N1291 C1296 1.362 . S
C1292 H1284 0.929 . S
C1292 N1291 1.334 . S
C1292 C1295 1.413 . S
C1293 H1287 0.930 . S
C1293 C1294 1.392 . S
C1293 C1295 1.367 . S
C1294 C1293 1.392 . S
C1294 C1296 1.420 . S
C1294 C1326 1.423 . S
C1295 H1281 0.930 . S
C1295 C1292 1.413 . S
C1295 C1293 1.367 . S
C1296 N1291 1.362 . S
C1296 C1294 1.420 . S
C1296 C1300 1.429 . S
H1297 C1302 0.930 . S
N1298 Eu1260 2.609 . S
N1298 C1300 1.377 . S
N1298 C1301 1.321 . S
C1299 H1285 0.930 . S
C1299 C1301 1.400 . S
C1299 C1302 1.386 . S
C1300 C1296 1.429 . S
C1300 N1298 1.377 . S
C1300 C1303 1.411 . S
C1301 H1283 0.930 . S
C1301 N1298 1.321 . S
C1301 C1299 1.400 . S
C1302 H1297 0.930 . S
C1302 C1299 1.386 . S
C1302 C1303 1.395 . S
C1303 C1300 1.411 . S
C1303 C1302 1.395 . S
C1303 C1325 1.420 . S
O1304 Eu1260 2.558 . S
O1304 C1324 1.257 . S
O1305 Eu1260 2.612 . S
O1305 Eu1271 2.380 . S
O1305 C1316 1.276 . S
O1306 Eu1271 2.432 . S
O1306 C1323 1.264 . S
O1307 Eu1260 2.339 . S
O1307 C1323 1.254 . S
O1308 Eu1260 2.563 . S
O1308 C1316 1.235 . S
O1309 Eu1260 2.419 . S
O1309 C1324 1.249 . S
O1310 Eu1271 2.558 . S
O1310 C1335 1.257 . S
O1311 Eu1260 2.380 . S
O1311 Eu1271 2.612 . S
O1311 C1327 1.276 . S
O1312 Eu1260 2.432 . S
O1312 C1334 1.264 . S
O1313 Eu1271 2.339 . S
O1313 C1334 1.254 . S
O1314 Eu1271 2.563 . S
O1314 C1327 1.235 . S
O1315 Eu1271 2.419 . S
O1315 C1335 1.249 . S
C1316 O1305 1.276 . S
C1316 O1308 1.235 . S
C1317 C1319 1.393 . S
C1317 C1321 1.395 . S
C1317 C1324 1.492 . S
C1318 C1319 1.392 . S
C1318 C1320 1.386 . S
C1319 C1317 1.393 . S
C1319 C1318 1.392 . S
C1319 H1336 0.930 . S
C1320 C1318 1.386 . S
C1320 C1322 1.395 . S
C1320 H1337 0.930 . S
C1321 C1317 1.395 . S
C1321 C1322 1.379 . S
C1321 H1338 0.930 . S
C1322 C1320 1.395 . S
C1322 C1321 1.379 . S
C1322 H1339 0.930 . S
C1323 O1306 1.264 . S
C1323 O1307 1.254 . S
C1324 Eu1260 2.848 . S
C1324 O1304 1.257 . S
C1324 O1309 1.249 . S
C1324 C1317 1.492 . S
C1325 H1290 0.931 . S
C1325 C1303 1.420 . S
C1325 C1326 1.351 . S
C1326 H1288 0.930 . S
C1326 C1294 1.423 . S
C1326 C1325 1.351 . S
C1327 O1311 1.276 . S
C1327 O1314 1.235 . S
C1328 C1329 1.393 . S
C1328 C1332 1.395 . S
C1328 C1335 1.492 . S
C1329 C1328 1.393 . S
C1329 C1330 1.392 . S
C1329 H1340 0.930 . S
C1330 C1329 1.392 . S
C1330 C1331 1.386 . S
C1331 C1330 1.386 . S
C1331 C1333 1.395 . S
C1331 H1341 0.930 . S
C1332 C1328 1.395 . S
C1332 C1333 1.379 . S
C1332 H1342 0.930 . S
C1333 C1331 1.395 . S
C1333 C1332 1.379 . S
C1333 H1343 0.930 . S
C1334 O1312 1.264 . S
C1334 O1313 1.254 . S
C1335 Eu1271 2.848 . S
C1335 O1310 1.257 . S
C1335 O1315 1.249 . S
C1335 C1328 1.492 . S
H1336 C1319 0.930 . S
H1337 C1320 0.930 . S
H1338 C1321 0.930 . S
H1339 C1322 0.930 . S
H1340 C1329 0.930 . S
H1341 C1331 0.930 . S
H1342 C1332 0.930 . S
H1343 C1333 0.930 . S
Eu1344 N1375 2.657 . S
Eu1344 N1382 2.609 . S
Eu1344 O1388 2.558 . S
Eu1344 O1389 2.612 . S
Eu1344 O1391 2.339 . S
Eu1344 O1392 2.563 . S
Eu1344 O1393 2.419 . S
Eu1344 O1395 2.380 . S
Eu1344 O1396 2.432 . S
Eu1344 C1408 2.848 . S
C1345 C1348 1.429 . S
C1345 C1349 1.411 . S
C1345 N1352 1.377 . S
C1346 C1348 1.420 . S
C1346 C1350 1.423 . S
C1346 C1358 1.392 . S
C1347 C1349 1.420 . S
C1347 C1350 1.351 . S
C1347 H1370 0.931 . S
C1348 C1345 1.429 . S
C1348 C1346 1.420 . S
C1348 N1356 1.362 . S
C1349 C1345 1.411 . S
C1349 C1347 1.420 . S
C1349 C1354 1.395 . S
C1350 C1346 1.423 . S
C1350 C1347 1.351 . S
C1350 H1362 0.930 . S
C1351 C1353 1.400 . S
C1351 C1354 1.386 . S
C1351 H1363 0.930 . S
N1352 C1345 1.377 . S
N1352 C1353 1.321 . S
N1352 Eu1355 2.609 . S
C1353 C1351 1.400 . S
C1353 N1352 1.321 . S
C1353 H1360 0.930 . S
C1354 C1349 1.395 . S
C1354 C1351 1.386 . S
C1354 H1373 0.930 . S
Eu1355 N1352 2.609 . S
Eu1355 N1356 2.657 . S
Eu1355 O1389 2.380 . S
Eu1355 O1390 2.432 . S
Eu1355 O1394 2.558 . S
Eu1355 O1395 2.612 . S
Eu1355 O1397 2.339 . S
Eu1355 O1398 2.563 . S
Eu1355 O1399 2.419 . S
Eu1355 C1419 2.848 . S
N1356 C1348 1.362 . S
N1356 Eu1355 2.657 . S
N1356 C1357 1.334 . S
C1357 N1356 1.334 . S
C1357 C1359 1.413 . S
C1357 H1364 0.929 . S
C1358 C1346 1.392 . S
C1358 C1359 1.367 . S
C1358 H1366 0.930 . S
C1359 C1357 1.413 . S
C1359 C1358 1.367 . S
C1359 H1361 0.930 . S
H1360 C1353 0.930 . S
H1361 C1359 0.930 . S
H1362 C1350 0.930 . S
H1363 C1351 0.930 . S
H1364 C1357 0.929 . S
H1365 C1379 0.930 . S
H1366 C1358 0.930 . S
H1367 C1385 0.930 . S
H1368 C1376 0.929 . S
H1369 C1383 0.930 . S
H1370 C1347 0.931 . S
H1371 C1377 0.930 . S
H1372 C1410 0.930 . S
H1373 C1354 0.930 . S
H1374 C1409 0.931 . S
N1375 Eu1344 2.657 . S
N1375 C1376 1.334 . S
N1375 C1380 1.362 . S
C1376 H1368 0.929 . S
C1376 N1375 1.334 . S
C1376 C1379 1.413 . S
C1377 H1371 0.930 . S
C1377 C1378 1.392 . S
C1377 C1379 1.367 . S
C1378 C1377 1.392 . S
C1378 C1380 1.420 . S
C1378 C1410 1.423 . S
C1379 H1365 0.930 . S
C1379 C1376 1.413 . S
C1379 C1377 1.367 . S
C1380 N1375 1.362 . S
C1380 C1378 1.420 . S
C1380 C1384 1.429 . S
H1381 C1386 0.930 . S
N1382 Eu1344 2.609 . S
N1382 C1384 1.377 . S
N1382 C1385 1.321 . S
C1383 H1369 0.930 . S
C1383 C1385 1.400 . S
C1383 C1386 1.386 . S
C1384 C1380 1.429 . S
C1384 N1382 1.377 . S
C1384 C1387 1.411 . S
C1385 H1367 0.930 . S
C1385 N1382 1.321 . S
C1385 C1383 1.400 . S
C1386 H1381 0.930 . S
C1386 C1383 1.386 . S
C1386 C1387 1.395 . S
C1387 C1384 1.411 . S
C1387 C1386 1.395 . S
C1387 C1409 1.420 . S
O1388 Eu1344 2.558 . S
O1388 C1408 1.257 . S
O1389 Eu1344 2.612 . S
O1389 Eu1355 2.380 . S
O1389 C1400 1.276 . S
O1390 Eu1355 2.432 . S
O1390 C1407 1.264 . S
O1391 Eu1344 2.339 . S
O1391 C1407 1.254 . S
O1392 Eu1344 2.563 . S
O1392 C1400 1.235 . S
O1393 Eu1344 2.419 . S
O1393 C1408 1.249 . S
O1394 Eu1355 2.558 . S
O1394 C1419 1.257 . S
O1395 Eu1344 2.380 . S
O1395 Eu1355 2.612 . S
O1395 C1411 1.276 . S
O1396 Eu1344 2.432 . S
O1396 C1418 1.264 . S
O1397 Eu1355 2.339 . S
O1397 C1418 1.254 . S
O1398 Eu1355 2.563 . S
O1398 C1411 1.235 . S
O1399 Eu1355 2.419 . S
O1399 C1419 1.249 . S
C1400 O1389 1.276 . S
C1400 O1392 1.235 . S
C1401 C1403 1.393 . S
C1401 C1405 1.395 . S
C1401 C1408 1.492 . S
C1402 C1403 1.392 . S
C1402 C1404 1.386 . S
C1403 C1401 1.393 . S
C1403 C1402 1.392 . S
C1403 H1420 0.930 . S
C1404 C1402 1.386 . S
C1404 C1406 1.395 . S
C1404 H1421 0.930 . S
C1405 C1401 1.395 . S
C1405 C1406 1.379 . S
C1405 H1422 0.930 . S
C1406 C1404 1.395 . S
C1406 C1405 1.379 . S
C1406 H1423 0.930 . S
C1407 O1390 1.264 . S
C1407 O1391 1.254 . S
C1408 Eu1344 2.848 . S
C1408 O1388 1.257 . S
C1408 O1393 1.249 . S
C1408 C1401 1.492 . S
C1409 H1374 0.931 . S
C1409 C1387 1.420 . S
C1409 C1410 1.351 . S
C1410 H1372 0.930 . S
C1410 C1378 1.423 . S
C1410 C1409 1.351 . S
C1411 O1395 1.276 . S
C1411 O1398 1.235 . S
C1412 C1413 1.393 . S
C1412 C1416 1.395 . S
C1412 C1419 1.492 . S
C1413 C1412 1.393 . S
C1413 C1414 1.392 . S
C1413 H1424 0.930 . S
C1414 C1413 1.392 . S
C1414 C1415 1.386 . S
C1415 C1414 1.386 . S
C1415 C1417 1.395 . S
C1415 H1425 0.930 . S
C1416 C1412 1.395 . S
C1416 C1417 1.379 . S
C1416 H1426 0.930 . S
C1417 C1415 1.395 . S
C1417 C1416 1.379 . S
C1417 H1427 0.930 . S
C1418 O1396 1.264 . S
C1418 O1397 1.254 . S
C1419 Eu1355 2.848 . S
C1419 O1394 1.257 . S
C1419 O1399 1.249 . S
C1419 C1412 1.492 . S
H1420 C1403 0.930 . S
H1421 C1404 0.930 . S
H1422 C1405 0.930 . S
H1423 C1406 0.930 . S
H1424 C1413 0.930 . S
H1425 C1415 0.930 . S
H1426 C1416 0.930 . S
H1427 C1417 0.930 . S
Eu1428 N1459 2.657 . S
Eu1428 N1466 2.609 . S
Eu1428 O1472 2.558 . S
Eu1428 O1473 2.612 . S
Eu1428 O1475 2.339 . S
Eu1428 O1476 2.563 . S
Eu1428 O1477 2.419 . S
Eu1428 O1479 2.380 . S
Eu1428 O1480 2.432 . S
Eu1428 C1492 2.848 . S
C1429 C1432 1.429 . S
C1429 C1433 1.411 . S
C1429 N1436 1.377 . S
C1430 C1432 1.420 . S
C1430 C1434 1.423 . S
C1430 C1442 1.392 . S
C1431 C1433 1.420 . S
C1431 C1434 1.351 . S
C1431 H1454 0.931 . S
C1432 C1429 1.429 . S
C1432 C1430 1.420 . S
C1432 N1440 1.362 . S
C1433 C1429 1.411 . S
C1433 C1431 1.420 . S
C1433 C1438 1.395 . S
C1434 C1430 1.423 . S
C1434 C1431 1.351 . S
C1434 H1446 0.930 . S
C1435 C1437 1.400 . S
C1435 C1438 1.386 . S
C1435 H1447 0.930 . S
N1436 C1429 1.377 . S
N1436 C1437 1.321 . S
N1436 Eu1439 2.609 . S
C1437 C1435 1.400 . S
C1437 N1436 1.321 . S
C1437 H1444 0.930 . S
C1438 C1433 1.395 . S
C1438 C1435 1.386 . S
C1438 H1457 0.930 . S
Eu1439 N1436 2.609 . S
Eu1439 N1440 2.657 . S
Eu1439 O1473 2.380 . S
Eu1439 O1474 2.432 . S
Eu1439 O1478 2.558 . S
Eu1439 O1479 2.612 . S
Eu1439 O1481 2.339 . S
Eu1439 O1482 2.563 . S
Eu1439 O1483 2.419 . S
Eu1439 C1503 2.848 . S
N1440 C1432 1.362 . S
N1440 Eu1439 2.657 . S
N1440 C1441 1.334 . S
C1441 N1440 1.334 . S
C1441 C1443 1.413 . S
C1441 H1448 0.929 . S
C1442 C1430 1.392 . S
C1442 C1443 1.367 . S
C1442 H1450 0.930 . S
C1443 C1441 1.413 . S
C1443 C1442 1.367 . S
C1443 H1445 0.930 . S
H1444 C1437 0.930 . S
H1445 C1443 0.930 . S
H1446 C1434 0.930 . S
H1447 C1435 0.930 . S
H1448 C1441 0.929 . S
H1449 C1463 0.930 . S
H1450 C1442 0.930 . S
H1451 C1469 0.930 . S
H1452 C1460 0.929 . S
H1453 C1467 0.930 . S
H1454 C1431 0.931 . S
H1455 C1461 0.930 . S
H1456 C1494 0.930 . S
H1457 C1438 0.930 . S
H1458 C1493 0.931 . S
N1459 Eu1428 2.657 . S
N1459 C1460 1.334 . S
N1459 C1464 1.362 . S
C1460 H1452 0.929 . S
C1460 N1459 1.334 . S
C1460 C1463 1.413 . S
C1461 H1455 0.930 . S
C1461 C1462 1.392 . S
C1461 C1463 1.367 . S
C1462 C1461 1.392 . S
C1462 C1464 1.420 . S
C1462 C1494 1.423 . S
C1463 H1449 0.930 . S
C1463 C1460 1.413 . S
C1463 C1461 1.367 . S
C1464 N1459 1.362 . S
C1464 C1462 1.420 . S
C1464 C1468 1.429 . S
H1465 C1470 0.930 . S
N1466 Eu1428 2.609 . S
N1466 C1468 1.377 . S
N1466 C1469 1.321 . S
C1467 H1453 0.930 . S
C1467 C1469 1.400 . S
C1467 C1470 1.386 . S
C1468 C1464 1.429 . S
C1468 N1466 1.377 . S
C1468 C1471 1.411 . S
C1469 H1451 0.930 . S
C1469 N1466 1.321 . S
C1469 C1467 1.400 . S
C1470 H1465 0.930 . S
C1470 C1467 1.386 . S
C1470 C1471 1.395 . S
C1471 C1468 1.411 . S
C1471 C1470 1.395 . S
C1471 C1493 1.420 . S
O1472 Eu1428 2.558 . S
O1472 C1492 1.257 . S
O1473 Eu1428 2.612 . S
O1473 Eu1439 2.380 . S
O1473 C1484 1.276 . S
O1474 Eu1439 2.432 . S
O1474 C1491 1.264 . S
O1475 Eu1428 2.339 . S
O1475 C1491 1.254 . S
O1476 Eu1428 2.563 . S
O1476 C1484 1.235 . S
O1477 Eu1428 2.419 . S
O1477 C1492 1.249 . S
O1478 Eu1439 2.558 . S
O1478 C1503 1.257 . S
O1479 Eu1428 2.380 . S
O1479 Eu1439 2.612 . S
O1479 C1495 1.276 . S
O1480 Eu1428 2.432 . S
O1480 C1502 1.264 . S
O1481 Eu1439 2.339 . S
O1481 C1502 1.254 . S
O1482 Eu1439 2.563 . S
O1482 C1495 1.235 . S
O1483 Eu1439 2.419 . S
O1483 C1503 1.249 . S
C1484 O1473 1.276 . S
C1484 O1476 1.235 . S
C1485 C1487 1.393 . S
C1485 C1489 1.395 . S
C1485 C1492 1.492 . S
C1486 C1487 1.392 . S
C1486 C1488 1.386 . S
C1487 C1485 1.393 . S
C1487 C1486 1.392 . S
C1487 H1504 0.930 . S
C1488 C1486 1.386 . S
C1488 C1490 1.395 . S
C1488 H1505 0.930 . S
C1489 C1485 1.395 . S
C1489 C1490 1.379 . S
C1489 H1506 0.930 . S
C1490 C1488 1.395 . S
C1490 C1489 1.379 . S
C1490 H1507 0.930 . S
C1491 O1474 1.264 . S
C1491 O1475 1.254 . S
C1492 Eu1428 2.848 . S
C1492 O1472 1.257 . S
C1492 O1477 1.249 . S
C1492 C1485 1.492 . S
C1493 H1458 0.931 . S
C1493 C1471 1.420 . S
C1493 C1494 1.351 . S
C1494 H1456 0.930 . S
C1494 C1462 1.423 . S
C1494 C1493 1.351 . S
C1495 O1479 1.276 . S
C1495 O1482 1.235 . S
C1496 C1497 1.393 . S
C1496 C1500 1.395 . S
C1496 C1503 1.492 . S
C1497 C1496 1.393 . S
C1497 C1498 1.392 . S
C1497 H1508 0.930 . S
C1498 C1497 1.392 . S
C1498 C1499 1.386 . S
C1499 C1498 1.386 . S
C1499 C1501 1.395 . S
C1499 H1509 0.930 . S
C1500 C1496 1.395 . S
C1500 C1501 1.379 . S
C1500 H1510 0.930 . S
C1501 C1499 1.395 . S
C1501 C1500 1.379 . S
C1501 H1511 0.930 . S
C1502 O1480 1.264 . S
C1502 O1481 1.254 . S
C1503 Eu1439 2.848 . S
C1503 O1478 1.257 . S
C1503 O1483 1.249 . S
C1503 C1496 1.492 . S
H1504 C1487 0.930 . S
H1505 C1488 0.930 . S
H1506 C1489 0.930 . S
H1507 C1490 0.930 . S
H1508 C1497 0.930 . S
H1509 C1499 0.930 . S
H1510 C1500 0.930 . S
H1511 C1501 0.930 . S
Eu1512 N1543 2.657 . S
Eu1512 N1550 2.609 . S
Eu1512 O1556 2.558 . S
Eu1512 O1557 2.612 . S
Eu1512 O1559 2.339 . S
Eu1512 O1560 2.563 . S
Eu1512 O1561 2.419 . S
Eu1512 O1563 2.380 . S
Eu1512 O1564 2.432 . S
Eu1512 C1576 2.848 . S
C1513 C1516 1.429 . S
C1513 C1517 1.411 . S
C1513 N1520 1.377 . S
C1514 C1516 1.420 . S
C1514 C1518 1.423 . S
C1514 C1526 1.392 . S
C1515 C1517 1.420 . S
C1515 C1518 1.351 . S
C1515 H1538 0.931 . S
C1516 C1513 1.429 . S
C1516 C1514 1.420 . S
C1516 N1524 1.362 . S
C1517 C1513 1.411 . S
C1517 C1515 1.420 . S
C1517 C1522 1.395 . S
C1518 C1514 1.423 . S
C1518 C1515 1.351 . S
C1518 H1530 0.930 . S
C1519 C1521 1.400 . S
C1519 C1522 1.386 . S
C1519 H1531 0.930 . S
N1520 C1513 1.377 . S
N1520 C1521 1.321 . S
N1520 Eu1523 2.609 . S
C1521 C1519 1.400 . S
C1521 N1520 1.321 . S
C1521 H1528 0.930 . S
C1522 C1517 1.395 . S
C1522 C1519 1.386 . S
C1522 H1541 0.930 . S
Eu1523 N1520 2.609 . S
Eu1523 N1524 2.657 . S
Eu1523 O1557 2.380 . S
Eu1523 O1558 2.432 . S
Eu1523 O1562 2.558 . S
Eu1523 O1563 2.612 . S
Eu1523 O1565 2.339 . S
Eu1523 O1566 2.563 . S
Eu1523 O1567 2.419 . S
Eu1523 C1587 2.848 . S
N1524 C1516 1.362 . S
N1524 Eu1523 2.657 . S
N1524 C1525 1.334 . S
C1525 N1524 1.334 . S
C1525 C1527 1.413 . S
C1525 H1532 0.929 . S
C1526 C1514 1.392 . S
C1526 C1527 1.367 . S
C1526 H1534 0.930 . S
C1527 C1525 1.413 . S
C1527 C1526 1.367 . S
C1527 H1529 0.930 . S
H1528 C1521 0.930 . S
H1529 C1527 0.930 . S
H1530 C1518 0.930 . S
H1531 C1519 0.930 . S
H1532 C1525 0.929 . S
H1533 C1547 0.930 . S
H1534 C1526 0.930 . S
H1535 C1553 0.930 . S
H1536 C1544 0.929 . S
H1537 C1551 0.930 . S
H1538 C1515 0.931 . S
H1539 C1545 0.930 . S
H1540 C1578 0.930 . S
H1541 C1522 0.930 . S
H1542 C1577 0.931 . S
N1543 Eu1512 2.657 . S
N1543 C1544 1.334 . S
N1543 C1548 1.362 . S
C1544 H1536 0.929 . S
C1544 N1543 1.334 . S
C1544 C1547 1.413 . S
C1545 H1539 0.930 . S
C1545 C1546 1.392 . S
C1545 C1547 1.367 . S
C1546 C1545 1.392 . S
C1546 C1548 1.420 . S
C1546 C1578 1.423 . S
C1547 H1533 0.930 . S
C1547 C1544 1.413 . S
C1547 C1545 1.367 . S
C1548 N1543 1.362 . S
C1548 C1546 1.420 . S
C1548 C1552 1.429 . S
H1549 C1554 0.930 . S
N1550 Eu1512 2.609 . S
N1550 C1552 1.377 . S
N1550 C1553 1.321 . S
C1551 H1537 0.930 . S
C1551 C1553 1.400 . S
C1551 C1554 1.386 . S
C1552 C1548 1.429 . S
C1552 N1550 1.377 . S
C1552 C1555 1.411 . S
C1553 H1535 0.930 . S
C1553 N1550 1.321 . S
C1553 C1551 1.400 . S
C1554 H1549 0.930 . S
C1554 C1551 1.386 . S
C1554 C1555 1.395 . S
C1555 C1552 1.411 . S
C1555 C1554 1.395 . S
C1555 C1577 1.420 . S
O1556 Eu1512 2.558 . S
O1556 C1576 1.257 . S
O1557 Eu1512 2.612 . S
O1557 Eu1523 2.380 . S
O1557 C1568 1.276 . S
O1558 Eu1523 2.432 . S
O1558 C1575 1.264 . S
O1559 Eu1512 2.339 . S
O1559 C1575 1.254 . S
O1560 Eu1512 2.563 . S
O1560 C1568 1.235 . S
O1561 Eu1512 2.419 . S
O1561 C1576 1.249 . S
O1562 Eu1523 2.558 . S
O1562 C1587 1.257 . S
O1563 Eu1512 2.380 . S
O1563 Eu1523 2.612 . S
O1563 C1579 1.276 . S
O1564 Eu1512 2.432 . S
O1564 C1586 1.264 . S
O1565 Eu1523 2.339 . S
O1565 C1586 1.254 . S
O1566 Eu1523 2.563 . S
O1566 C1579 1.235 . S
O1567 Eu1523 2.419 . S
O1567 C1587 1.249 . S
C1568 O1557 1.276 . S
C1568 O1560 1.235 . S
C1569 C1571 1.393 . S
C1569 C1573 1.395 . S
C1569 C1576 1.492 . S
C1570 C1571 1.392 . S
C1570 C1572 1.386 . S
C1571 C1569 1.393 . S
C1571 C1570 1.392 . S
C1571 H1588 0.930 . S
C1572 C1570 1.386 . S
C1572 C1574 1.395 . S
C1572 H1589 0.930 . S
C1573 C1569 1.395 . S
C1573 C1574 1.379 . S
C1573 H1590 0.930 . S
C1574 C1572 1.395 . S
C1574 C1573 1.379 . S
C1574 H1591 0.930 . S
C1575 O1558 1.264 . S
C1575 O1559 1.254 . S
C1576 Eu1512 2.848 . S
C1576 O1556 1.257 . S
C1576 O1561 1.249 . S
C1576 C1569 1.492 . S
C1577 H1542 0.931 . S
C1577 C1555 1.420 . S
C1577 C1578 1.351 . S
C1578 H1540 0.930 . S
C1578 C1546 1.423 . S
C1578 C1577 1.351 . S
C1579 O1563 1.276 . S
C1579 O1566 1.235 . S
C1580 C1581 1.393 . S
C1580 C1584 1.395 . S
C1580 C1587 1.492 . S
C1581 C1580 1.393 . S
C1581 C1582 1.392 . S
C1581 H1592 0.930 . S
C1582 C1581 1.392 . S
C1582 C1583 1.386 . S
C1583 C1582 1.386 . S
C1583 C1585 1.395 . S
C1583 H1593 0.930 . S
C1584 C1580 1.395 . S
C1584 C1585 1.379 . S
C1584 H1594 0.930 . S
C1585 C1583 1.395 . S
C1585 C1584 1.379 . S
C1585 H1595 0.930 . S
C1586 O1564 1.264 . S
C1586 O1565 1.254 . S
C1587 Eu1523 2.848 . S
C1587 O1562 1.257 . S
C1587 O1567 1.249 . S
C1587 C1580 1.492 . S
H1588 C1571 0.930 . S
H1589 C1572 0.930 . S
H1590 C1573 0.930 . S
H1591 C1574 0.930 . S
H1592 C1581 0.930 . S
H1593 C1583 0.930 . S
H1594 C1584 0.930 . S
H1595 C1585 0.930 . S
Eu1596 N1627 2.657 . S
Eu1596 N1634 2.609 . S
Eu1596 O1640 2.585 . S
Eu1596 O1641 2.612 . S
Eu1596 O1643 2.339 . S
Eu1596 O1644 2.563 . S
Eu1596 O1645 2.419 . S
Eu1596 O1647 2.380 . S
Eu1596 O1648 2.421 1_554 S
Eu1596 C1660 2.848 . S
C1597 C1600 1.428 . S
C1597 C1601 1.409 . S
C1597 N1604 1.379 1_655 S
C1598 C1600 1.420 . S
C1598 C1602 1.423 . S
C1598 C1610 1.392 . S
C1599 C1601 1.420 . S
C1599 C1602 1.351 . S
C1599 H1622 0.931 . S
C1600 C1597 1.428 . S
C1600 C1598 1.420 . S
C1600 N1608 1.362 1_655 S
C1601 C1597 1.409 . S
C1601 C1599 1.420 . S
C1601 C1606 1.395 . S
C1602 C1598 1.423 . S
C1602 C1599 1.351 . S
C1602 H1614 0.930 . S
C1603 C1605 1.400 . S
C1603 C1606 1.386 1_455 S
C1603 H1615 0.930 . S
N1604 C1597 1.379 1_455 S
N1604 C1605 1.321 . S
N1604 Eu1607 2.609 . S
C1605 C1603 1.400 . S
C1605 N1604 1.321 . S
C1605 H1612 0.930 . S
C1606 C1601 1.395 . S
C1606 C1603 1.386 1_655 S
C1606 H1625 0.930 . S
Eu1607 N1604 2.609 . S
Eu1607 N1608 2.657 . S
Eu1607 O1641 2.380 . S
Eu1607 O1642 2.432 . S
Eu1607 O1646 2.558 . S
Eu1607 O1647 2.612 . S
Eu1607 O1649 2.339 . S
Eu1607 O1650 2.563 . S
Eu1607 O1651 2.419 1_455 S
Eu1607 C1671 2.848 1_455 S
N1608 C1600 1.362 1_455 S
N1608 Eu1607 2.657 . S
N1608 C1609 1.334 . S
C1609 N1608 1.334 . S
C1609 C1611 1.413 1_455 S
C1609 H1616 0.929 . S
C1610 C1598 1.392 . S
C1610 C1611 1.367 . S
C1610 H1618 0.930 . S
C1611 C1609 1.413 1_655 S
C1611 C1610 1.367 . S
C1611 H1613 0.930 1_554 S
H1612 C1605 0.930 . S
H1613 C1611 0.930 1_556 S
H1614 C1602 0.930 . S
H1615 C1603 0.930 . S
H1616 C1609 0.929 . S
H1617 C1631 0.930 . S
H1618 C1610 0.930 . S
H1619 C1637 0.930 . S
H1620 C1628 0.929 . S
H1621 C1635 0.930 . S
H1622 C1599 0.931 . S
H1623 C1629 0.930 . S
H1624 C1662 0.930 . S
H1625 C1606 0.930 . S
H1626 C1661 0.929 . S
N1627 Eu1596 2.657 . S
N1627 C1628 1.334 . S
N1627 C1632 1.362 . S
C1628 H1620 0.929 . S
C1628 N1627 1.334 . S
C1628 C1631 1.413 . S
C1629 H1623 0.930 . S
C1629 C1630 1.392 . S
C1629 C1631 1.367 . S
C1630 C1629 1.392 . S
C1630 C1632 1.420 . S
C1630 C1662 1.423 . S
C1631 H1617 0.930 . S
C1631 C1628 1.413 . S
C1631 C1629 1.367 . S
C1632 N1627 1.362 . S
C1632 C1630 1.420 . S
C1632 C1636 1.429 . S
H1633 C1638 0.930 . S
N1634 Eu1596 2.609 . S
N1634 C1636 1.377 . S
N1634 C1637 1.321 1_554 S
C1635 H1621 0.930 . S
C1635 C1637 1.400 . S
C1635 C1638 1.386 . S
C1636 C1632 1.429 . S
C1636 N1634 1.377 . S
C1636 C1639 1.411 1_554 S
C1637 H1619 0.930 . S
C1637 N1634 1.321 1_556 S
C1637 C1635 1.400 . S
C1638 H1633 0.930 . S
C1638 C1635 1.386 . S
C1638 C1639 1.395 . S
C1639 C1636 1.411 1_556 S
C1639 C1638 1.395 . S
C1639 C1661 1.420 1_556 S
O1640 Eu1596 2.585 . S
O1640 C1660 1.288 . S
O1641 Eu1596 2.612 . S
O1641 Eu1607 2.380 . S
O1641 C1652 1.276 . S
O1642 Eu1607 2.432 . S
O1642 C1659 1.264 . S
O1643 Eu1596 2.339 . S
O1643 C1659 1.254 . S
O1644 Eu1596 2.563 . S
O1644 C1652 1.235 . S
O1645 Eu1596 2.419 . S
O1645 C1660 1.249 . S
O1646 Eu1607 2.558 . S
O1646 C1671 1.257 1_455 S
O1647 Eu1596 2.380 . S
O1647 Eu1607 2.612 . S
O1647 C1663 1.276 . S
O1648 Eu1596 2.421 1_556 S
O1648 C1670 1.263 1_556 S
O1649 Eu1607 2.339 . S
O1649 C1670 1.254 . S
O1650 Eu1607 2.563 . S
O1650 C1663 1.235 . S
O1651 Eu1607 2.419 1_655 S
O1651 C1671 1.249 . S
C1652 O1641 1.276 . S
C1652 O1644 1.235 . S
C1653 C1655 1.393 . S
C1653 C1657 1.395 1_554 S
C1653 C1660 1.492 . S
C1654 C1655 1.392 . S
C1654 C1656 1.386 . S
C1655 C1653 1.393 . S
C1655 C1654 1.392 . S
C1655 H1672 0.930 . S
C1656 C1654 1.386 . S
C1656 C1658 1.395 1_554 S
C1656 H1673 0.930 1_554 S
C1657 C1653 1.395 1_556 S
C1657 C1658 1.379 . S
C1657 H1674 0.930 . S
C1658 C1656 1.395 1_556 S
C1658 C1657 1.379 . S
C1658 H1675 0.930 . S
C1659 O1642 1.264 . S
C1659 O1643 1.254 . S
C1660 Eu1596 2.848 . S
C1660 O1640 1.288 . S
C1660 O1645 1.249 . S
C1660 C1653 1.492 . S
C1661 H1626 0.929 . S
C1661 C1639 1.420 1_554 S
C1661 C1662 1.351 . S
C1662 H1624 0.930 . S
C1662 C1630 1.423 . S
C1662 C1661 1.351 . S
C1663 O1647 1.276 . S
C1663 O1650 1.235 . S
C1664 C1665 1.393 . S
C1664 C1668 1.395 . S
C1664 C1671 1.492 . S
C1665 C1664 1.393 . S
C1665 C1666 1.392 . S
C1665 H1676 0.930 . S
C1666 C1665 1.392 . S
C1666 C1667 1.386 . S
C1667 C1666 1.386 . S
C1667 C1669 1.395 . S
C1667 H1677 0.930 . S
C1668 C1664 1.395 . S
C1668 C1669 1.379 . S
C1668 H1678 0.930 . S
C1669 C1667 1.395 . S
C1669 C1668 1.379 . S
C1669 H1679 0.930 . S
C1670 O1648 1.263 1_554 S
C1670 O1649 1.254 . S
C1671 Eu1607 2.848 1_655 S
C1671 O1646 1.257 1_655 S
C1671 O1651 1.249 . S
C1671 C1664 1.492 . S
H1672 C1655 0.930 . S
H1673 C1656 0.930 1_556 S
H1674 C1657 0.930 . S
H1675 C1658 0.930 . S
H1676 C1665 0.930 . S
H1677 C1667 0.930 . S
H1678 C1668 0.930 . S
H1679 C1669 0.930 . S
H1680 C1688 0.905 1_655 S
H1681 C1693 0.950 . S
H1682 C1690 0.950 . S
H1683 C1692 0.950 . S
H1684 C1694 0.950 . S
H1685 C1696 0.950 . S
H1686 C1698 0.950 . S
H1687 C1699 0.950 . S
C1688 H1680 0.905 1_455 S
C1688 C1689 1.386 . S
C1688 C1690 1.391 . S
C1689 C1688 1.386 . S
C1689 C1693 1.393 . S
C1690 H1682 0.950 . S
C1690 C1688 1.391 . S
C1690 C1691 1.400 . S
C1691 C1690 1.400 . S
C1691 C1692 1.398 . S
C1691 C1697 1.491 . S
C1692 H1683 0.950 . S
C1692 C1691 1.398 . S
C1692 C1693 1.391 . S
C1693 H1681 0.950 . S
C1693 C1689 1.393 . S
C1693 C1692 1.391 . S
C1694 H1684 0.950 . S
C1694 C1695 1.386 1_556 S
C1694 C1696 1.391 . S
C1695 C1694 1.386 1_554 S
C1695 C1699 1.393 . S
C1696 H1685 0.950 . S
C1696 C1694 1.391 . S
C1696 C1697 1.400 . S
C1697 C1691 1.491 . S
C1697 C1696 1.400 . S
C1697 C1698 1.398 1_556 S
C1698 H1686 0.950 . S
C1698 C1697 1.398 1_554 S
C1698 C1699 1.391 . S
C1699 H1687 0.950 . S
C1699 C1695 1.393 . S
C1699 C1698 1.391 . S
H1700 C1708 0.950 . S
H1701 C1713 0.950 . S
H1702 C1710 0.950 . S
H1703 C1712 0.950 . S
H1704 C1714 0.950 . S
H1705 C1716 0.950 . S
H1706 C1718 0.950 . S
H1707 C1719 0.950 . S
C1708 H1700 0.950 . S
C1708 C1709 1.386 . S
C1708 C1710 1.391 . S
C1709 C1708 1.386 . S
C1709 C1713 1.393 . S
C1710 H1702 0.950 . S
C1710 C1708 1.391 . S
C1710 C1711 1.400 . S
C1711 C1710 1.400 . S
C1711 C1712 1.398 . S
C1711 C1717 1.491 . S
C1712 H1703 0.950 . S
C1712 C1711 1.398 . S
C1712 C1713 1.391 . S
C1713 H1701 0.950 . S
C1713 C1709 1.393 . S
C1713 C1712 1.391 . S
C1714 H1704 0.950 . S
C1714 C1715 1.386 . S
C1714 C1716 1.391 . S
C1715 C1714 1.386 . S
C1715 C1719 1.393 . S
C1716 H1705 0.950 . S
C1716 C1714 1.391 . S
C1716 C1717 1.400 . S
C1717 C1711 1.491 . S
C1717 C1716 1.400 . S
C1717 C1718 1.398 . S
C1718 H1706 0.950 . S
C1718 C1717 1.398 . S
C1718 C1719 1.391 . S
C1719 H1707 0.950 . S
C1719 C1715 1.393 . S
C1719 C1718 1.391 . S
H1720 C1728 0.950 . S
H1721 C1733 0.950 . S
H1722 C1730 0.950 . S
H1723 C1732 0.950 . S
H1724 C1734 0.950 . S
H1725 C1736 0.950 . S
H1726 C1738 0.950 . S
H1727 C1739 0.950 . S
C1728 H1720 0.950 . S
C1728 C1729 1.386 . S
C1728 C1730 1.391 . S
C1729 C1728 1.386 . S
C1729 C1733 1.393 . S
C1730 H1722 0.950 . S
C1730 C1728 1.391 . S
C1730 C1731 1.400 . S
C1731 C1730 1.400 . S
C1731 C1732 1.398 . S
C1731 C1737 1.491 . S
C1732 H1723 0.950 . S
C1732 C1731 1.398 . S
C1732 C1733 1.391 . S
C1733 H1721 0.950 . S
C1733 C1729 1.393 . S
C1733 C1732 1.391 . S
C1734 H1724 0.950 . S
C1734 C1735 1.386 . S
C1734 C1736 1.391 . S
C1735 C1734 1.386 . S
C1735 C1739 1.393 . S
C1736 H1725 0.950 . S
C1736 C1734 1.391 . S
C1736 C1737 1.400 . S
C1737 C1731 1.491 . S
C1737 C1736 1.400 . S
C1737 C1738 1.398 . S
C1738 H1726 0.950 . S
C1738 C1737 1.398 . S
C1738 C1739 1.391 . S
C1739 H1727 0.950 . S
C1739 C1735 1.393 . S
C1739 C1738 1.391 . S
H1740 C1748 0.950 . S
H1741 C1753 0.950 . S
H1742 C1750 0.950 . S
H1743 C1752 0.950 . S
H1744 C1754 0.950 . S
H1745 C1756 0.950 . S
H1746 C1758 0.950 . S
H1747 C1759 0.950 . S
C1748 H1740 0.950 . S
C1748 C1749 1.386 . S
C1748 C1750 1.391 . S
C1749 C1748 1.386 . S
C1749 C1753 1.393 . S
C1750 H1742 0.950 . S
C1750 C1748 1.391 . S
C1750 C1751 1.400 . S
C1751 C1750 1.400 . S
C1751 C1752 1.398 . S
C1751 C1757 1.491 . S
C1752 H1743 0.950 . S
C1752 C1751 1.398 . S
C1752 C1753 1.391 . S
C1753 H1741 0.950 . S
C1753 C1749 1.393 . S
C1753 C1752 1.391 . S
C1754 H1744 0.950 . S
C1754 C1755 1.386 . S
C1754 C1756 1.391 . S
C1755 C1754 1.386 . S
C1755 C1759 1.393 . S
C1756 H1745 0.950 . S
C1756 C1754 1.391 . S
C1756 C1757 1.400 . S
C1757 C1751 1.491 . S
C1757 C1756 1.400 . S
C1757 C1758 1.398 . S
C1758 H1746 0.950 . S
C1758 C1757 1.398 . S
C1758 C1759 1.391 . S
C1759 H1747 0.950 . S
C1759 C1755 1.393 . S
C1759 C1758 1.391 . S
H1760 C1768 0.950 . S
H1761 C1773 0.950 . S
H1762 C1770 0.950 . S
H1763 C1772 0.950 . S
H1764 C1774 0.950 . S
H1765 C1776 0.950 . S
H1766 C1778 0.950 . S
H1767 C1779 0.950 . S
C1768 H1760 0.950 . S
C1768 C1769 1.386 . S
C1768 C1770 1.391 . S
C1769 C1768 1.386 . S
C1769 C1773 1.393 . S
C1770 H1762 0.950 . S
C1770 C1768 1.391 . S
C1770 C1771 1.400 . S
C1771 C1770 1.400 . S
C1771 C1772 1.398 . S
C1771 C1777 1.491 . S
C1772 H1763 0.950 . S
C1772 C1771 1.398 . S
C1772 C1773 1.391 . S
C1773 H1761 0.950 . S
C1773 C1769 1.393 . S
C1773 C1772 1.391 . S
C1774 H1764 0.950 . S
C1774 C1775 1.386 . S
C1774 C1776 1.391 . S
C1775 C1774 1.386 . S
C1775 C1779 1.393 . S
C1776 H1765 0.950 . S
C1776 C1774 1.391 . S
C1776 C1777 1.400 . S
C1777 C1771 1.491 . S
C1777 C1776 1.400 . S
C1777 C1778 1.398 . S
C1778 H1766 0.950 . S
C1778 C1777 1.398 . S
C1778 C1779 1.391 . S
C1779 H1767 0.950 . S
C1779 C1775 1.393 . S
C1779 C1778 1.391 . S
H1780 C1788 0.950 . S
H1781 C1793 0.950 . S
H1782 C1790 0.950 . S
H1783 C1792 0.950 . S
H1784 C1794 0.950 . S
H1785 C1796 0.950 . S
H1786 C1798 0.950 . S
H1787 C1799 0.950 . S
C1788 H1780 0.950 . S
C1788 C1789 1.386 . S
C1788 C1790 1.391 . S
C1789 C1788 1.386 . S
C1789 C1793 1.393 . S
C1790 H1782 0.950 . S
C1790 C1788 1.391 . S
C1790 C1791 1.400 . S
C1791 C1790 1.400 . S
C1791 C1792 1.398 . S
C1791 C1797 1.491 . S
C1792 H1783 0.950 . S
C1792 C1791 1.398 . S
C1792 C1793 1.391 . S
C1793 H1781 0.950 . S
C1793 C1789 1.393 . S
C1793 C1792 1.391 . S
C1794 H1784 0.950 . S
C1794 C1795 1.386 . S
C1794 C1796 1.391 . S
C1795 C1794 1.386 . S
C1795 C1799 1.393 . S
C1796 H1785 0.950 . S
C1796 C1794 1.391 . S
C1796 C1797 1.400 . S
C1797 C1791 1.491 . S
C1797 C1796 1.400 . S
C1797 C1798 1.398 . S
C1798 H1786 0.950 . S
C1798 C1797 1.398 . S
C1798 C1799 1.391 . S
C1799 H1787 0.950 . S
C1799 C1795 1.393 . S
C1799 C1798 1.391 . S
H1800 C1808 0.950 . S
H1801 C1813 0.950 . S
H1802 C1810 0.950 . S
H1803 C1812 0.950 . S
H1804 C1814 0.950 . S
H1805 C1816 0.950 . S
H1806 C1818 0.950 . S
H1807 C1819 0.950 . S
C1808 H1800 0.950 . S
C1808 C1809 1.386 . S
C1808 C1810 1.391 . S
C1809 C1808 1.386 . S
C1809 C1813 1.393 . S
C1810 H1802 0.950 . S
C1810 C1808 1.391 . S
C1810 C1811 1.400 . S
C1811 C1810 1.400 . S
C1811 C1812 1.398 . S
C1811 C1817 1.491 . S
C1812 H1803 0.950 . S
C1812 C1811 1.398 . S
C1812 C1813 1.391 . S
C1813 H1801 0.950 . S
C1813 C1809 1.393 . S
C1813 C1812 1.391 . S
C1814 H1804 0.950 . S
C1814 C1815 1.386 . S
C1814 C1816 1.391 . S
C1815 C1814 1.386 . S
C1815 C1819 1.393 . S
C1816 H1805 0.950 . S
C1816 C1814 1.391 . S
C1816 C1817 1.400 . S
C1817 C1811 1.491 . S
C1817 C1816 1.400 . S
C1817 C1818 1.398 . S
C1818 H1806 0.950 . S
C1818 C1817 1.398 . S
C1818 C1819 1.391 . S
C1819 H1807 0.950 . S
C1819 C1815 1.393 . S
C1819 C1818 1.391 . S
H1820 C1828 0.950 . S
H1821 C1833 0.950 . S
H1822 C1830 0.950 . S
H1823 C1832 0.950 . S
H1824 C1834 0.950 . S
H1825 C1836 0.950 . S
H1826 C1838 0.950 . S
H1827 C1839 0.950 . S
C1828 H1820 0.950 . S
C1828 C1829 1.386 . S
C1828 C1830 1.391 . S
C1829 C1828 1.386 . S
C1829 C1833 1.393 . S
C1830 H1822 0.950 . S
C1830 C1828 1.391 . S
C1830 C1831 1.400 . S
C1831 C1830 1.400 . S
C1831 C1832 1.398 . S
C1831 C1837 1.491 . S
C1832 H1823 0.950 . S
C1832 C1831 1.398 . S
C1832 C1833 1.391 . S
C1833 H1821 0.950 . S
C1833 C1829 1.393 . S
C1833 C1832 1.391 . S
C1834 H1824 0.950 . S
C1834 C1835 1.386 . S
C1834 C1836 1.391 . S
C1835 C1834 1.386 . S
C1835 C1839 1.393 . S
C1836 H1825 0.950 . S
C1836 C1834 1.391 . S
C1836 C1837 1.400 . S
C1837 C1831 1.491 . S
C1837 C1836 1.400 . S
C1837 C1838 1.398 . S
C1838 H1826 0.950 . S
C1838 C1837 1.398 . S
C1838 C1839 1.391 . S
C1839 H1827 0.950 . S
C1839 C1835 1.393 . S
C1839 C1838 1.391 . S
H1840 C1848 0.950 . S
H1841 C1853 0.950 . S
H1842 C1850 0.950 . S
H1843 C1852 0.978 . S
H1844 C1854 0.950 . S
H1845 C1856 0.950 . S
H1846 C1858 0.950 . S
H1847 C1859 0.950 . S
C1848 H1840 0.950 . S
C1848 C1849 1.386 . S
C1848 C1850 1.391 . S
C1849 C1848 1.386 . S
C1849 C1853 1.393 . S
C1850 H1842 0.950 . S
C1850 C1848 1.391 . S
C1850 C1851 1.402 . S
C1851 C1850 1.402 . S
C1851 C1852 1.398 . S
C1851 C1857 1.489 1_655 S
C1852 H1843 0.978 . S
C1852 C1851 1.398 . S
C1852 C1853 1.391 . S
C1853 H1841 0.950 . S
C1853 C1849 1.393 . S
C1853 C1852 1.391 . S
C1854 H1844 0.950 . S
C1854 C1855 1.386 . S
C1854 C1856 1.391 . S
C1855 C1854 1.386 . S
C1855 C1859 1.393 . S
C1856 H1845 0.950 . S
C1856 C1854 1.391 . S
C1856 C1857 1.400 . S
C1857 C1851 1.489 1_455 S
C1857 C1856 1.400 . S
C1857 C1858 1.398 . S
C1858 H1846 0.950 . S
C1858 C1857 1.398 . S
C1858 C1859 1.391 . S
C1859 H1847 0.950 . S
C1859 C1855 1.393 . S
C1859 C1858 1.391 . S
H1860 C1868 0.950 . S
H1861 C1873 0.950 . S
H1862 C1870 0.950 . S
H1863 C1872 0.950 . S
H1864 C1874 0.950 . S
H1865 C1876 0.950 . S
H1866 C1878 0.950 . S
H1867 C1879 0.950 . S
C1868 H1860 0.950 . S
C1868 C1869 1.386 . S
C1868 C1870 1.391 . S
C1869 C1868 1.386 . S
C1869 C1873 1.393 . S
C1870 H1862 0.950 . S
C1870 C1868 1.391 . S
C1870 C1871 1.400 . S
C1871 C1870 1.400 . S
C1871 C1872 1.398 . S
C1871 C1877 1.491 . S
C1872 H1863 0.950 . S
C1872 C1871 1.398 . S
C1872 C1873 1.391 . S
C1873 H1861 0.950 . S
C1873 C1869 1.393 . S
C1873 C1872 1.391 . S
C1874 H1864 0.950 . S
C1874 C1875 1.386 . S
C1874 C1876 1.391 . S
C1875 C1874 1.386 . S
C1875 C1879 1.393 . S
C1876 H1865 0.950 . S
C1876 C1874 1.391 . S
C1876 C1877 1.400 . S
C1877 C1871 1.491 . S
C1877 C1876 1.400 . S
C1877 C1878 1.398 . S
C1878 H1866 0.950 . S
C1878 C1877 1.398 . S
C1878 C1879 1.391 . S
C1879 H1867 0.950 . S
C1879 C1875 1.393 . S
C1879 C1878 1.391 . S
H1880 C1888 0.950 . S
H1881 C1893 0.950 . S
H1882 C1890 0.950 . S
H1883 C1892 0.950 . S
H1884 C1894 0.950 . S
H1885 C1896 0.950 . S
H1886 C1898 0.950 . S
H1887 C1899 0.950 . S
C1888 H1880 0.950 . S
C1888 C1889 1.386 . S
C1888 C1890 1.391 . S
C1889 C1888 1.386 . S
C1889 C1893 1.393 . S
C1890 H1882 0.950 . S
C1890 C1888 1.391 . S
C1890 C1891 1.400 . S
C1891 C1890 1.400 . S
C1891 C1892 1.398 . S
C1891 C1897 1.491 . S
C1892 H1883 0.950 . S
C1892 C1891 1.398 . S
C1892 C1893 1.391 . S
C1893 H1881 0.950 . S
C1893 C1889 1.393 . S
C1893 C1892 1.391 . S
C1894 H1884 0.950 . S
C1894 C1895 1.386 . S
C1894 C1896 1.391 . S
C1895 C1894 1.386 . S
C1895 C1899 1.393 . S
C1896 H1885 0.950 . S
C1896 C1894 1.391 . S
C1896 C1897 1.400 . S
C1897 C1891 1.491 . S
C1897 C1896 1.400 . S
C1897 C1898 1.398 . S
C1898 H1886 0.950 . S
C1898 C1897 1.398 . S
C1898 C1899 1.391 . S
C1899 H1887 0.950 . S
C1899 C1895 1.393 . S
C1899 C1898 1.391 . S
H1900 C1908 0.950 . S
H1901 C1913 0.950 . S
H1902 C1910 0.950 . S
H1903 C1912 0.950 . S
H1904 C1914 0.950 . S
H1905 C1916 0.950 . S
H1906 C1918 0.950 . S
H1907 C1919 0.950 . S
C1908 H1900 0.950 . S
C1908 C1909 1.386 . S
C1908 C1910 1.391 . S
C1909 C1908 1.386 . S
C1909 C1913 1.393 . S
C1910 H1902 0.950 . S
C1910 C1908 1.391 . S
C1910 C1911 1.400 . S
C1911 C1910 1.400 . S
C1911 C1912 1.398 . S
C1911 C1917 1.491 . S
C1912 H1903 0.950 . S
C1912 C1911 1.398 . S
C1912 C1913 1.391 . S
C1913 H1901 0.950 . S
C1913 C1909 1.393 . S
C1913 C1912 1.391 . S
C1914 H1904 0.950 . S
C1914 C1915 1.386 . S
C1914 C1916 1.391 . S
C1915 C1914 1.386 . S
C1915 C1919 1.393 . S
C1916 H1905 0.950 . S
C1916 C1914 1.391 . S
C1916 C1917 1.400 . S
C1917 C1911 1.491 . S
C1917 C1916 1.400 . S
C1917 C1918 1.398 . S
C1918 H1906 0.950 . S
C1918 C1917 1.398 . S
C1918 C1919 1.391 . S
C1919 H1907 0.950 . S
C1919 C1915 1.393 . S
C1919 C1918 1.391 . S
H1920 C1928 0.950 . S
H1921 C1933 0.950 . S
H1922 C1930 0.950 . S
H1923 C1932 0.950 . S
H1924 C1934 0.950 . S
H1925 C1936 0.950 . S
H1926 C1938 0.950 . S
H1927 C1939 0.950 . S
C1928 H1920 0.950 . S
C1928 C1929 1.386 1_455 S
C1928 C1930 1.391 . S
C1929 C1928 1.386 1_655 S
C1929 C1933 1.393 . S
C1930 H1922 0.950 . S
C1930 C1928 1.391 . S
C1930 C1931 1.400 . S
C1931 C1930 1.400 . S
C1931 C1932 1.398 1_455 S
C1931 C1937 1.491 . S
C1932 H1923 0.950 . S
C1932 C1931 1.398 1_655 S
C1932 C1933 1.391 . S
C1933 H1921 0.950 . S
C1933 C1929 1.393 . S
C1933 C1932 1.391 . S
C1934 H1924 0.950 . S
C1934 C1935 1.386 . S
C1934 C1936 1.391 . S
C1935 C1934 1.386 . S
C1935 C1939 1.393 . S
C1936 H1925 0.950 . S
C1936 C1934 1.391 . S
C1936 C1937 1.400 . S
C1937 C1931 1.491 . S
C1937 C1936 1.400 . S
C1937 C1938 1.398 . S
C1938 H1926 0.950 . S
C1938 C1937 1.398 . S
C1938 C1939 1.391 . S
C1939 H1927 0.950 . S
C1939 C1935 1.393 . S
C1939 C1938 1.391 . S
H1940 C1948 0.950 . S
H1941 C1953 0.950 . S
H1942 C1950 0.950 . S
H1943 C1952 0.950 . S
H1944 C1954 0.950 . S
H1945 C1956 0.950 . S
H1946 C1958 0.950 . S
H1947 C1959 0.950 . S
C1948 H1940 0.950 . S
C1948 C1949 1.386 . S
C1948 C1950 1.391 . S
C1949 C1948 1.386 . S
C1949 C1953 1.393 . S
C1950 H1942 0.950 . S
C1950 C1948 1.391 . S
C1950 C1951 1.400 . S
C1951 C1950 1.400 . S
C1951 C1952 1.398 . S
C1951 C1957 1.491 . S
C1952 H1943 0.950 . S
C1952 C1951 1.398 . S
C1952 C1953 1.391 . S
C1953 H1941 0.950 . S
C1953 C1949 1.393 . S
C1953 C1952 1.391 . S
C1954 H1944 0.950 . S
C1954 C1955 1.386 . S
C1954 C1956 1.391 . S
C1955 C1954 1.386 . S
C1955 C1959 1.393 . S
C1956 H1945 0.950 . S
C1956 C1954 1.391 . S
C1956 C1957 1.400 . S
C1957 C1951 1.491 . S
C1957 C1956 1.400 . S
C1957 C1958 1.398 . S
C1958 H1946 0.950 . S
C1958 C1957 1.398 . S
C1958 C1959 1.391 . S
C1959 H1947 0.950 . S
C1959 C1955 1.393 . S
C1959 C1958 1.391 . S
H1960 C1968 0.950 . S
H1961 C1973 0.950 . S
H1962 C1970 0.950 . S
H1963 C1972 0.950 . S
H1964 C1974 0.950 . S
H1965 C1976 0.950 . S
H1966 C1978 0.950 . S
H1967 C1979 0.950 . S
C1968 H1960 0.950 . S
C1968 C1969 1.386 . S
C1968 C1970 1.391 . S
C1969 C1968 1.386 . S
C1969 C1973 1.393 . S
C1970 H1962 0.950 . S
C1970 C1968 1.391 . S
C1970 C1971 1.400 . S
C1971 C1970 1.400 . S
C1971 C1972 1.398 . S
C1971 C1977 1.491 . S
C1972 H1963 0.950 . S
C1972 C1971 1.398 . S
C1972 C1973 1.391 . S
C1973 H1961 0.950 . S
C1973 C1969 1.393 . S
C1973 C1972 1.391 . S
C1974 H1964 0.950 . S
C1974 C1975 1.386 . S
C1974 C1976 1.391 . S
C1975 C1974 1.386 . S
C1975 C1979 1.393 . S
C1976 H1965 0.950 . S
C1976 C1974 1.391 . S
C1976 C1977 1.400 . S
C1977 C1971 1.491 . S
C1977 C1976 1.400 . S
C1977 C1978 1.398 . S
C1978 H1966 0.950 . S
C1978 C1977 1.398 . S
C1978 C1979 1.391 . S
C1979 H1967 0.950 . S
C1979 C1975 1.393 . S
C1979 C1978 1.391 . S
H1980 C1988 0.950 . S
H1981 C1993 0.950 . S
H1982 C1990 0.950 . S
H1983 C1992 0.950 . S
H1984 C1994 0.950 . S
H1985 C1996 0.950 . S
H1986 C1998 0.950 . S
H1987 C1999 0.950 . S
C1988 H1980 0.950 . S
C1988 C1989 1.386 . S
C1988 C1990 1.391 . S
C1989 C1988 1.386 . S
C1989 C1993 1.393 . S
C1990 H1982 0.950 . S
C1990 C1988 1.391 . S
C1990 C1991 1.400 . S
C1991 C1990 1.400 . S
C1991 C1992 1.398 . S
C1991 C1997 1.491 . S
C1992 H1983 0.950 . S
C1992 C1991 1.398 . S
C1992 C1993 1.391 . S
C1993 H1981 0.950 . S
C1993 C1989 1.393 . S
C1993 C1992 1.391 . S
C1994 H1984 0.950 . S
C1994 C1995 1.386 . S
C1994 C1996 1.391 . S
C1995 C1994 1.386 . S
C1995 C1999 1.393 . S
C1996 H1985 0.950 . S
C1996 C1994 1.391 . S
C1996 C1997 1.400 . S
C1997 C1991 1.491 . S
C1997 C1996 1.400 . S
C1997 C1998 1.398 . S
C1998 H1986 0.950 . S
C1998 C1997 1.398 . S
C1998 C1999 1.391 . S
C1999 H1987 0.950 . S
C1999 C1995 1.393 . S
C1999 C1998 1.391 . S
H2000 C2008 0.950 1_556 S
H2001 C2013 0.950 . S
H2002 C2010 0.950 1_545 S
H2003 C2012 0.950 . S
H2004 C2014 0.950 1_565 S
H2005 C2016 0.950 . S
H2006 C2018 0.950 . S
H2007 C2019 0.950 . S
C2008 H2000 0.950 1_554 S
C2008 C2009 1.386 . S
C2008 C2010 1.391 . S
C2009 C2008 1.386 . S
C2009 C2013 1.393 . S
C2010 H2002 0.950 1_565 S
C2010 C2008 1.391 . S
C2010 C2011 1.400 . S
C2011 C2010 1.400 . S
C2011 C2012 1.398 . S
C2011 C2017 1.491 . S
C2012 H2003 0.950 . S
C2012 C2011 1.398 . S
C2012 C2013 1.391 . S
C2013 H2001 0.950 . S
C2013 C2009 1.393 . S
C2013 C2012 1.391 . S
C2014 H2004 0.950 1_545 S
C2014 C2015 1.386 . S
C2014 C2016 1.391 1_545 S
C2015 C2014 1.386 . S
C2015 C2019 1.393 . S
C2016 H2005 0.950 . S
C2016 C2014 1.391 1_565 S
C2016 C2017 1.400 . S
C2017 C2011 1.491 . S
C2017 C2016 1.400 . S
C2017 C2018 1.398 1_565 S
C2018 H2006 0.950 . S
C2018 C2017 1.398 1_545 S
C2018 C2019 1.391 . S
C2019 H2007 0.950 . S
C2019 C2015 1.393 . S
C2019 C2018 1.391 . S
H2020 C2028 0.950 . S
H2021 C2033 0.950 . S
H2022 C2030 0.950 . S
H2023 C2032 0.950 . S
H2024 C2034 0.950 . S
H2025 C2036 0.950 . S
H2026 C2038 0.950 . S
H2027 C2039 0.950 . S
C2028 H2020 0.950 . S
C2028 C2029 1.386 1_556 S
C2028 C2030 1.391 . S
C2029 C2028 1.386 1_554 S
C2029 C2033 1.393 . S
C2030 H2022 0.950 . S
C2030 C2028 1.391 . S
C2030 C2031 1.400 1_556 S
C2031 C2030 1.400 1_554 S
C2031 C2032 1.398 . S
C2031 C2037 1.491 . S
C2032 H2023 0.950 . S
C2032 C2031 1.398 . S
C2032 C2033 1.391 . S
C2033 H2021 0.950 . S
C2033 C2029 1.393 . S
C2033 C2032 1.391 . S
C2034 H2024 0.950 . S
C2034 C2035 1.386 . S
C2034 C2036 1.391 . S
C2035 C2034 1.386 . S
C2035 C2039 1.393 1_554 S
C2036 H2025 0.950 . S
C2036 C2034 1.391 . S
C2036 C2037 1.400 . S
C2037 C2031 1.491 . S
C2037 C2036 1.400 . S
C2037 C2038 1.398 1_554 S
C2038 H2026 0.950 . S
C2038 C2037 1.398 1_556 S
C2038 C2039 1.391 . S
C2039 H2027 0.950 . S
C2039 C2035 1.393 1_556 S
C2039 C2038 1.391 . S
H2040 C2048 0.950 . S
H2041 C2053 0.950 . S
H2042 C2050 0.950 . S
H2043 C2052 0.950 . S
H2044 C2054 0.950 . S
H2045 C2056 0.950 . S
H2046 C2058 0.950 . S
H2047 C2059 0.950 . S
C2048 H2040 0.950 . S
C2048 C2049 1.386 . S
C2048 C2050 1.391 . S
C2049 C2048 1.386 . S
C2049 C2053 1.393 . S
C2050 H2042 0.950 . S
C2050 C2048 1.391 . S
C2050 C2051 1.400 . S
C2051 C2050 1.400 . S
C2051 C2052 1.398 . S
C2051 C2057 1.491 . S
C2052 H2043 0.950 . S
C2052 C2051 1.398 . S
C2052 C2053 1.391 . S
C2053 H2041 0.950 . S
C2053 C2049 1.393 . S
C2053 C2052 1.391 . S
C2054 H2044 0.950 . S
C2054 C2055 1.386 . S
C2054 C2056 1.391 . S
C2055 C2054 1.386 . S
C2055 C2059 1.393 . S
C2056 H2045 0.950 . S
C2056 C2054 1.391 . S
C2056 C2057 1.400 . S
C2057 C2051 1.491 . S
C2057 C2056 1.400 . S
C2057 C2058 1.398 . S
C2058 H2046 0.950 . S
C2058 C2057 1.398 . S
C2058 C2059 1.391 . S
C2059 H2047 0.950 . S
C2059 C2055 1.393 . S
C2059 C2058 1.391 . S
H2060 C2068 0.950 . S
H2061 C2073 0.950 . S
H2062 C2070 0.950 . S
H2063 C2072 0.950 . S
H2064 C2074 0.950 . S
H2065 C2076 0.950 . S
H2066 C2078 0.950 . S
H2067 C2079 0.950 . S
C2068 H2060 0.950 . S
C2068 C2069 1.386 . S
C2068 C2070 1.391 . S
C2069 C2068 1.386 . S
C2069 C2073 1.393 . S
C2070 H2062 0.950 . S
C2070 C2068 1.391 . S
C2070 C2071 1.400 . S
C2071 C2070 1.400 . S
C2071 C2072 1.398 . S
C2071 C2077 1.491 . S
C2072 H2063 0.950 . S
C2072 C2071 1.398 . S
C2072 C2073 1.391 . S
C2073 H2061 0.950 . S
C2073 C2069 1.393 . S
C2073 C2072 1.391 . S
C2074 H2064 0.950 . S
C2074 C2075 1.386 1_655 S
C2074 C2076 1.391 . S
C2075 C2074 1.386 1_455 S
C2075 C2079 1.393 . S
C2076 H2065 0.950 . S
C2076 C2074 1.391 . S
C2076 C2077 1.400 . S
C2077 C2071 1.491 . S
C2077 C2076 1.400 . S
C2077 C2078 1.398 . S
C2078 H2066 0.950 . S
C2078 C2077 1.398 . S
C2078 C2079 1.391 1_655 S
C2079 H2067 0.950 . S
C2079 C2075 1.393 . S
C2079 C2078 1.391 1_455 S
H2080 C2088 0.950 . S
H2081 C2093 0.950 . S
H2082 C2090 0.950 . S
H2083 C2092 0.950 . S
H2084 C2094 0.950 . S
H2085 C2096 0.950 . S
H2086 C2098 0.950 . S
H2087 C2099 0.950 . S
C2088 H2080 0.950 . S
C2088 C2089 1.386 . S
C2088 C2090 1.391 . S
C2089 C2088 1.386 . S
C2089 C2093 1.393 . S
C2090 H2082 0.950 . S
C2090 C2088 1.391 . S
C2090 C2091 1.400 . S
C2091 C2090 1.400 . S
C2091 C2092 1.398 . S
C2091 C2097 1.491 . S
C2092 H2083 0.950 . S
C2092 C2091 1.398 . S
C2092 C2093 1.391 . S
C2093 H2081 0.950 . S
C2093 C2089 1.393 . S
C2093 C2092 1.391 . S
C2094 H2084 0.950 . S
C2094 C2095 1.386 . S
C2094 C2096 1.391 . S
C2095 C2094 1.386 . S
C2095 C2099 1.393 . S
C2096 H2085 0.950 . S
C2096 C2094 1.391 . S
C2096 C2097 1.400 . S
C2097 C2091 1.491 . S
C2097 C2096 1.400 . S
C2097 C2098 1.398 . S
C2098 H2086 0.950 . S
C2098 C2097 1.398 . S
C2098 C2099 1.391 . S
C2099 H2087 0.950 . S
C2099 C2095 1.393 . S
C2099 C2098 1.391 . S
H2100 C2108 0.950 . S
H2101 C2113 0.950 . S
H2102 C2110 0.950 . S
H2103 C2112 0.950 . S
H2104 C2114 0.950 . S
H2105 C2116 0.950 . S
H2106 C2118 0.950 . S
H2107 C2119 0.950 . S
C2108 H2100 0.950 . S
C2108 C2109 1.386 . S
C2108 C2110 1.391 . S
C2109 C2108 1.386 . S
C2109 C2113 1.393 . S
C2110 H2102 0.950 . S
C2110 C2108 1.391 . S
C2110 C2111 1.400 . S
C2111 C2110 1.400 . S
C2111 C2112 1.398 . S
C2111 C2117 1.491 . S
C2112 H2103 0.950 . S
C2112 C2111 1.398 . S
C2112 C2113 1.391 . S
C2113 H2101 0.950 . S
C2113 C2109 1.393 . S
C2113 C2112 1.391 . S
C2114 H2104 0.950 . S
C2114 C2115 1.386 . S
C2114 C2116 1.391 . S
C2115 C2114 1.386 . S
C2115 C2119 1.393 . S
C2116 H2105 0.950 . S
C2116 C2114 1.391 . S
C2116 C2117 1.400 . S
C2117 C2111 1.491 . S
C2117 C2116 1.400 . S
C2117 C2118 1.398 . S
C2118 H2106 0.950 . S
C2118 C2117 1.398 . S
C2118 C2119 1.391 . S
C2119 H2107 0.950 . S
C2119 C2115 1.393 . S
C2119 C2118 1.391 . S
H2120 C2128 0.950 . S
H2121 C2133 0.950 . S
H2122 C2130 0.950 . S
H2123 C2132 0.950 . S
H2124 C2134 0.950 . S
H2125 C2136 0.950 . S
H2126 C2138 0.950 . S
H2127 C2139 0.950 . S
C2128 H2120 0.950 . S
C2128 C2129 1.386 . S
C2128 C2130 1.391 . S
C2129 C2128 1.386 . S
C2129 C2133 1.393 . S
C2130 H2122 0.950 . S
C2130 C2128 1.391 . S
C2130 C2131 1.400 . S
C2131 C2130 1.400 . S
C2131 C2132 1.398 . S
C2131 C2137 1.491 . S
C2132 H2123 0.950 . S
C2132 C2131 1.398 . S
C2132 C2133 1.391 . S
C2133 H2121 0.950 . S
C2133 C2129 1.393 . S
C2133 C2132 1.391 . S
C2134 H2124 0.950 . S
C2134 C2135 1.386 . S
C2134 C2136 1.391 . S
C2135 C2134 1.386 . S
C2135 C2139 1.393 . S
C2136 H2125 0.950 . S
C2136 C2134 1.391 . S
C2136 C2137 1.400 . S
C2137 C2131 1.491 . S
C2137 C2136 1.400 . S
C2137 C2138 1.398 . S
C2138 H2126 0.950 . S
C2138 C2137 1.398 . S
C2138 C2139 1.391 . S
C2139 H2127 0.950 . S
C2139 C2135 1.393 . S
C2139 C2138 1.391 . S
H2140 C2148 0.950 . S
H2141 C2153 0.950 . S
H2142 C2150 0.950 . S
H2143 C2152 0.950 . S
H2144 C2154 0.950 . S
H2145 C2156 0.950 . S
H2146 C2158 0.950 . S
H2147 C2159 0.950 . S
C2148 H2140 0.950 . S
C2148 C2149 1.386 . S
C2148 C2150 1.391 . S
C2149 C2148 1.386 . S
C2149 C2153 1.393 . S
C2150 H2142 0.950 . S
C2150 C2148 1.391 . S
C2150 C2151 1.400 . S
C2151 C2150 1.400 . S
C2151 C2152 1.398 . S
C2151 C2157 1.491 . S
C2152 H2143 0.950 . S
C2152 C2151 1.398 . S
C2152 C2153 1.391 . S
C2153 H2141 0.950 . S
C2153 C2149 1.393 . S
C2153 C2152 1.391 . S
C2154 H2144 0.950 . S
C2154 C2155 1.386 . S
C2154 C2156 1.391 . S
C2155 C2154 1.386 . S
C2155 C2159 1.393 . S
C2156 H2145 0.950 . S
C2156 C2154 1.391 . S
C2156 C2157 1.400 . S
C2157 C2151 1.491 . S
C2157 C2156 1.400 . S
C2157 C2158 1.398 . S
C2158 H2146 0.950 . S
C2158 C2157 1.398 . S
C2158 C2159 1.391 . S
C2159 H2147 0.950 . S
C2159 C2155 1.393 . S
C2159 C2158 1.391 . S
H2160 C2168 0.950 . S
H2161 C2173 0.950 . S
H2162 C2170 0.950 . S
H2163 C2172 0.950 . S
H2164 C2174 0.950 . S
H2165 C2176 0.950 . S
H2166 C2178 0.950 . S
H2167 C2179 0.950 . S
C2168 H2160 0.950 . S
C2168 C2169 1.386 . S
C2168 C2170 1.391 . S
C2169 C2168 1.386 . S
C2169 C2173 1.393 . S
C2170 H2162 0.950 . S
C2170 C2168 1.391 . S
C2170 C2171 1.400 . S
C2171 C2170 1.400 . S
C2171 C2172 1.398 . S
C2171 C2177 1.491 . S
C2172 H2163 0.950 . S
C2172 C2171 1.398 . S
C2172 C2173 1.391 . S
C2173 H2161 0.950 . S
C2173 C2169 1.393 . S
C2173 C2172 1.391 . S
C2174 H2164 0.950 . S
C2174 C2175 1.386 . S
C2174 C2176 1.391 . S
C2175 C2174 1.386 . S
C2175 C2179 1.393 . S
C2176 H2165 0.950 . S
C2176 C2174 1.391 . S
C2176 C2177 1.400 . S
C2177 C2171 1.491 . S
C2177 C2176 1.400 . S
C2177 C2178 1.398 . S
C2178 H2166 0.950 . S
C2178 C2177 1.398 . S
C2178 C2179 1.391 . S
C2179 H2167 0.950 . S
C2179 C2175 1.393 . S
C2179 C2178 1.391 . S
H2180 C2188 0.950 . S
H2181 C2193 0.950 . S
H2182 C2190 0.950 . S
H2183 C2192 0.950 . S
H2184 C2194 0.950 . S
H2185 C2196 0.950 . S
H2186 C2198 0.950 . S
H2187 C2199 0.950 . S
C2188 H2180 0.950 . S
C2188 C2189 1.386 . S
C2188 C2190 1.391 . S
C2189 C2188 1.386 . S
C2189 C2193 1.393 . S
C2190 H2182 0.950 . S
C2190 C2188 1.391 . S
C2190 C2191 1.400 . S
C2191 C2190 1.400 . S
C2191 C2192 1.398 . S
C2191 C2197 1.491 . S
C2192 H2183 0.950 . S
C2192 C2191 1.398 . S
C2192 C2193 1.391 . S
C2193 H2181 0.950 . S
C2193 C2189 1.393 . S
C2193 C2192 1.391 . S
C2194 H2184 0.950 . S
C2194 C2195 1.386 . S
C2194 C2196 1.391 . S
C2195 C2194 1.386 . S
C2195 C2199 1.393 . S
C2196 H2185 0.950 . S
C2196 C2194 1.391 . S
C2196 C2197 1.400 . S
C2197 C2191 1.491 . S
C2197 C2196 1.400 . S
C2197 C2198 1.398 . S
C2198 H2186 0.950 . S
C2198 C2197 1.398 . S
C2198 C2199 1.391 . S
C2199 H2187 0.950 . S
C2199 C2195 1.393 . S
C2199 C2198 1.391 . S
H2200 C2208 0.950 . S
H2201 C2213 0.950 . S
H2202 C2210 0.950 . S
H2203 C2212 0.950 . S
H2204 C2214 0.950 . S
H2205 C2216 0.950 . S
H2206 C2218 0.950 . S
H2207 C2219 0.950 . S
C2208 H2200 0.950 . S
C2208 C2209 1.386 . S
C2208 C2210 1.391 . S
C2209 C2208 1.386 . S
C2209 C2213 1.393 . S
C2210 H2202 0.950 . S
C2210 C2208 1.391 . S
C2210 C2211 1.400 . S
C2211 C2210 1.400 . S
C2211 C2212 1.398 . S
C2211 C2217 1.491 . S
C2212 H2203 0.950 . S
C2212 C2211 1.398 . S
C2212 C2213 1.391 . S
C2213 H2201 0.950 . S
C2213 C2209 1.393 . S
C2213 C2212 1.391 . S
C2214 H2204 0.950 . S
C2214 C2215 1.386 . S
C2214 C2216 1.391 . S
C2215 C2214 1.386 . S
C2215 C2219 1.393 . S
C2216 H2205 0.950 . S
C2216 C2214 1.391 . S
C2216 C2217 1.400 . S
C2217 C2211 1.491 . S
C2217 C2216 1.400 . S
C2217 C2218 1.398 . S
C2218 H2206 0.950 . S
C2218 C2217 1.398 . S
C2218 C2219 1.391 . S
C2219 H2207 0.950 . S
C2219 C2215 1.393 . S
C2219 C2218 1.391 . S
H2220 C2228 0.950 . S
H2221 C2233 0.950 . S
H2222 C2230 0.950 . S
H2223 C2232 0.950 . S
H2224 C2234 0.950 . S
H2225 C2236 0.950 . S
H2226 C2238 0.950 . S
H2227 C2239 0.950 . S
C2228 H2220 0.950 . S
C2228 C2229 1.386 . S
C2228 C2230 1.391 . S
C2229 C2228 1.386 . S
C2229 C2233 1.393 . S
C2230 H2222 0.950 . S
C2230 C2228 1.391 . S
C2230 C2231 1.400 . S
C2231 C2230 1.400 . S
C2231 C2232 1.398 . S
C2231 C2237 1.491 . S
C2232 H2223 0.950 . S
C2232 C2231 1.398 . S
C2232 C2233 1.391 . S
C2233 H2221 0.950 . S
C2233 C2229 1.393 . S
C2233 C2232 1.391 . S
C2234 H2224 0.950 . S
C2234 C2235 1.386 . S
C2234 C2236 1.391 . S
C2235 C2234 1.386 . S
C2235 C2239 1.393 . S
C2236 H2225 0.950 . S
C2236 C2234 1.391 . S
C2236 C2237 1.400 . S
C2237 C2231 1.491 . S
C2237 C2236 1.400 . S
C2237 C2238 1.398 . S
C2238 H2226 0.950 . S
C2238 C2237 1.398 . S
C2238 C2239 1.391 . S
C2239 H2227 0.950 . S
C2239 C2235 1.393 . S
C2239 C2238 1.391 . S
H2240 C2248 0.950 . S
H2241 C2253 0.950 . S
H2242 C2250 0.950 . S
H2243 C2252 0.950 . S
H2244 C2254 0.950 . S
H2245 C2256 0.950 . S
H2246 C2258 0.950 . S
H2247 C2259 0.950 . S
C2248 H2240 0.950 . S
C2248 C2249 1.386 . S
C2248 C2250 1.391 . S
C2249 C2248 1.386 . S
C2249 C2253 1.393 . S
C2250 H2242 0.950 . S
C2250 C2248 1.391 . S
C2250 C2251 1.400 . S
C2251 C2250 1.400 . S
C2251 C2252 1.398 . S
C2251 C2257 1.491 . S
C2252 H2243 0.950 . S
C2252 C2251 1.398 . S
C2252 C2253 1.391 . S
C2253 H2241 0.950 . S
C2253 C2249 1.393 . S
C2253 C2252 1.391 . S
C2254 H2244 0.950 . S
C2254 C2255 1.386 . S
C2254 C2256 1.391 . S
C2255 C2254 1.386 . S
C2255 C2259 1.393 . S
C2256 H2245 0.950 . S
C2256 C2254 1.391 . S
C2256 C2257 1.400 . S
C2257 C2251 1.491 . S
C2257 C2256 1.400 . S
C2257 C2258 1.398 . S
C2258 H2246 0.950 . S
C2258 C2257 1.398 . S
C2258 C2259 1.391 . S
C2259 H2247 0.950 . S
C2259 C2255 1.393 . S
C2259 C2258 1.391 . S
H2260 C2268 0.950 . S
H2261 C2273 0.950 . S
H2262 C2270 0.950 . S
H2263 C2272 0.950 . S
H2264 C2274 0.950 . S
H2265 C2276 0.950 . S
H2266 C2278 0.950 . S
H2267 C2279 0.950 . S
C2268 H2260 0.950 . S
C2268 C2269 1.386 . S
C2268 C2270 1.391 . S
C2269 C2268 1.386 . S
C2269 C2273 1.393 . S
C2270 H2262 0.950 . S
C2270 C2268 1.391 . S
C2270 C2271 1.400 . S
C2271 C2270 1.400 . S
C2271 C2272 1.398 . S
C2271 C2277 1.491 . S
C2272 H2263 0.950 . S
C2272 C2271 1.398 . S
C2272 C2273 1.391 . S
C2273 H2261 0.950 . S
C2273 C2269 1.393 . S
C2273 C2272 1.391 . S
C2274 H2264 0.950 . S
C2274 C2275 1.386 . S
C2274 C2276 1.391 . S
C2275 C2274 1.386 . S
C2275 C2279 1.393 . S
C2276 H2265 0.950 . S
C2276 C2274 1.391 . S
C2276 C2277 1.400 . S
C2277 C2271 1.491 . S
C2277 C2276 1.400 . S
C2277 C2278 1.398 . S
C2278 H2266 0.950 . S
C2278 C2277 1.398 . S
C2278 C2279 1.391 . S
C2279 H2267 0.950 . S
C2279 C2275 1.393 . S
C2279 C2278 1.391 . S
H2280 C2288 0.950 . S
H2281 C2293 0.950 . S
H2282 C2290 0.950 . S
H2283 C2292 0.950 . S
H2284 C2294 0.950 1_544 S
H2285 C2296 0.950 . S
H2286 C2298 0.950 . S
H2287 C2299 0.950 . S
C2288 H2280 0.950 . S
C2288 C2289 1.386 . S
C2288 C2290 1.391 . S
C2289 C2288 1.386 . S
C2289 C2293 1.393 . S
C2290 H2282 0.950 . S
C2290 C2288 1.391 . S
C2290 C2291 1.400 . S
C2291 C2290 1.400 . S
C2291 C2292 1.398 . S
C2291 C2297 1.491 . S
C2292 H2283 0.950 . S
C2292 C2291 1.398 . S
C2292 C2293 1.391 . S
C2293 H2281 0.950 . S
C2293 C2289 1.393 . S
C2293 C2292 1.391 . S
C2294 H2284 0.950 1_566 S
C2294 C2295 1.386 . S
C2294 C2296 1.391 . S
C2295 C2294 1.386 . S
C2295 C2299 1.393 . S
C2296 H2285 0.950 . S
C2296 C2294 1.391 . S
C2296 C2297 1.400 . S
C2297 C2291 1.491 . S
C2297 C2296 1.400 . S
C2297 C2298 1.398 . S
C2298 H2286 0.950 . S
C2298 C2297 1.398 . S
C2298 C2299 1.391 . S
C2299 H2287 0.950 . S
C2299 C2295 1.393 . S
C2299 C2298 1.391 . S
H2300 C2308 0.950 . S
H2301 C2313 0.950 . S
H2302 C2310 0.950 . S
H2303 C2312 0.950 . S
H2304 C2314 0.950 . S
H2305 C2316 0.950 . S
H2306 C2318 0.950 . S
H2307 C2319 0.950 . S
C2308 H2300 0.950 . S
C2308 C2309 1.386 . S
C2308 C2310 1.391 . S
C2309 C2308 1.386 . S
C2309 C2313 1.393 . S
C2310 H2302 0.950 . S
C2310 C2308 1.391 . S
C2310 C2311 1.400 . S
C2311 C2310 1.400 . S
C2311 C2312 1.398 . S
C2311 C2317 1.491 . S
C2312 H2303 0.950 . S
C2312 C2311 1.398 . S
C2312 C2313 1.391 . S
C2313 H2301 0.950 . S
C2313 C2309 1.393 . S
C2313 C2312 1.391 . S
C2314 H2304 0.950 . S
C2314 C2315 1.386 . S
C2314 C2316 1.391 . S
C2315 C2314 1.386 . S
C2315 C2319 1.393 . S
C2316 H2305 0.950 . S
C2316 C2314 1.391 . S
C2316 C2317 1.400 . S
C2317 C2311 1.491 . S
C2317 C2316 1.400 . S
C2317 C2318 1.398 . S
C2318 H2306 0.950 . S
C2318 C2317 1.398 . S
C2318 C2319 1.391 . S
C2319 H2307 0.950 . S
C2319 C2315 1.393 . S
C2319 C2318 1.391 . S
H2320 C2328 0.950 . S
H2321 C2333 0.950 . S
H2322 C2330 0.950 . S
H2323 C2332 0.950 . S
H2324 C2334 0.950 . S
H2325 C2336 0.950 . S
H2326 C2338 0.950 . S
H2327 C2339 0.950 . S
C2328 H2320 0.950 . S
C2328 C2329 1.386 . S
C2328 C2330 1.391 . S
C2329 C2328 1.386 . S
C2329 C2333 1.393 . S
C2330 H2322 0.950 . S
C2330 C2328 1.391 . S
C2330 C2331 1.400 . S
C2331 C2330 1.400 . S
C2331 C2332 1.398 . S
C2331 C2337 1.491 . S
C2332 H2323 0.950 . S
C2332 C2331 1.398 . S
C2332 C2333 1.391 . S
C2333 H2321 0.950 . S
C2333 C2329 1.393 . S
C2333 C2332 1.391 . S
C2334 H2324 0.950 . S
C2334 C2335 1.386 . S
C2334 C2336 1.391 . S
C2335 C2334 1.386 . S
C2335 C2339 1.393 . S
C2336 H2325 0.950 . S
C2336 C2334 1.391 . S
C2336 C2337 1.400 . S
C2337 C2331 1.491 . S
C2337 C2336 1.400 . S
C2337 C2338 1.398 . S
C2338 H2326 0.950 . S
C2338 C2337 1.398 . S
C2338 C2339 1.391 . S
C2339 H2327 0.950 . S
C2339 C2335 1.393 . S
C2339 C2338 1.391 . S
H2340 C2348 0.950 . S
H2341 C2353 0.950 . S
H2342 C2350 0.950 . S
H2343 C2352 0.950 . S
H2344 C2354 0.950 . S
H2345 C2356 0.950 . S
H2346 C2358 0.950 . S
H2347 C2359 0.950 . S
C2348 H2340 0.950 . S
C2348 C2349 1.386 . S
C2348 C2350 1.391 . S
C2349 C2348 1.386 . S
C2349 C2353 1.393 . S
C2350 H2342 0.950 . S
C2350 C2348 1.391 . S
C2350 C2351 1.400 . S
C2351 C2350 1.400 . S
C2351 C2352 1.398 . S
C2351 C2357 1.491 . S
C2352 H2343 0.950 . S
C2352 C2351 1.398 . S
C2352 C2353 1.391 . S
C2353 H2341 0.950 . S
C2353 C2349 1.393 . S
C2353 C2352 1.391 . S
C2354 H2344 0.950 . S
C2354 C2355 1.386 . S
C2354 C2356 1.391 . S
C2355 C2354 1.386 . S
C2355 C2359 1.393 . S
C2356 H2345 0.950 . S
C2356 C2354 1.391 . S
C2356 C2357 1.400 . S
C2357 C2351 1.491 . S
C2357 C2356 1.400 . S
C2357 C2358 1.398 . S
C2358 H2346 0.950 . S
C2358 C2357 1.398 . S
C2358 C2359 1.391 . S
C2359 H2347 0.950 . S
C2359 C2355 1.393 . S
C2359 C2358 1.391 . S
H2360 C2368 0.950 . S
H2361 C2373 0.950 . S
H2362 C2370 0.950 . S
H2363 C2372 0.950 . S
H2364 C2374 0.950 . S
H2365 C2376 0.950 . S
H2366 C2378 0.950 . S
H2367 C2379 0.950 . S
C2368 H2360 0.950 . S
C2368 C2369 1.386 . S
C2368 C2370 1.391 . S
C2369 C2368 1.386 . S
C2369 C2373 1.393 . S
C2370 H2362 0.950 . S
C2370 C2368 1.391 . S
C2370 C2371 1.400 . S
C2371 C2370 1.400 . S
C2371 C2372 1.398 . S
C2371 C2377 1.491 . S
C2372 H2363 0.950 . S
C2372 C2371 1.398 . S
C2372 C2373 1.391 . S
C2373 H2361 0.950 . S
C2373 C2369 1.393 . S
C2373 C2372 1.391 . S
C2374 H2364 0.950 . S
C2374 C2375 1.386 . S
C2374 C2376 1.391 . S
C2375 C2374 1.386 . S
C2375 C2379 1.393 . S
C2376 H2365 0.950 . S
C2376 C2374 1.391 . S
C2376 C2377 1.400 . S
C2377 C2371 1.491 . S
C2377 C2376 1.400 . S
C2377 C2378 1.398 . S
C2378 H2366 0.950 . S
C2378 C2377 1.398 . S
C2378 C2379 1.391 . S
C2379 H2367 0.950 . S
C2379 C2375 1.393 . S
C2379 C2378 1.391 . S
H2380 C2388 0.950 . S
H2381 C2393 0.950 . S
H2382 C2390 0.950 . S
H2383 C2392 0.950 . S
H2384 C2394 0.950 . S
H2385 C2396 0.950 . S
H2386 C2398 0.950 . S
H2387 C2399 0.950 . S
C2388 H2380 0.950 . S
C2388 C2389 1.386 . S
C2388 C2390 1.391 . S
C2389 C2388 1.386 . S
C2389 C2393 1.393 . S
C2390 H2382 0.950 . S
C2390 C2388 1.391 . S
C2390 C2391 1.400 . S
C2391 C2390 1.400 . S
C2391 C2392 1.398 . S
C2391 C2397 1.491 . S
C2392 H2383 0.950 . S
C2392 C2391 1.398 . S
C2392 C2393 1.391 . S
C2393 H2381 0.950 . S
C2393 C2389 1.393 . S
C2393 C2392 1.391 . S
C2394 H2384 0.950 . S
C2394 C2395 1.386 . S
C2394 C2396 1.391 . S
C2395 C2394 1.386 . S
C2395 C2399 1.393 . S
C2396 H2385 0.950 . S
C2396 C2394 1.391 . S
C2396 C2397 1.400 . S
C2397 C2391 1.491 . S
C2397 C2396 1.400 . S
C2397 C2398 1.398 . S
C2398 H2386 0.950 . S
C2398 C2397 1.398 . S
C2398 C2399 1.391 . S
C2399 H2387 0.950 . S
C2399 C2395 1.393 . S
C2399 C2398 1.391 . S
H2400 C2408 0.950 . S
H2401 C2413 0.950 . S
H2402 C2410 0.950 . S
H2403 C2412 0.950 . S
H2404 C2414 0.950 . S
H2405 C2416 0.950 . S
H2406 C2418 0.950 . S
H2407 C2419 0.950 . S
C2408 H2400 0.950 . S
C2408 C2409 1.386 . S
C2408 C2410 1.391 . S
C2409 C2408 1.386 . S
C2409 C2413 1.393 1_545 S
C2410 H2402 0.950 . S
C2410 C2408 1.391 . S
C2410 C2411 1.400 . S
C2411 C2410 1.400 . S
C2411 C2412 1.398 . S
C2411 C2417 1.491 . S
C2412 H2403 0.950 . S
C2412 C2411 1.398 . S
C2412 C2413 1.391 1_545 S
C2413 H2401 0.950 . S
C2413 C2409 1.393 1_565 S
C2413 C2412 1.391 1_565 S
C2414 H2404 0.950 . S
C2414 C2415 1.386 . S
C2414 C2416 1.391 . S
C2415 C2414 1.386 . S
C2415 C2419 1.393 . S
C2416 H2405 0.950 . S
C2416 C2414 1.391 . S
C2416 C2417 1.400 . S
C2417 C2411 1.491 . S
C2417 C2416 1.400 . S
C2417 C2418 1.398 . S
C2418 H2406 0.950 . S
C2418 C2417 1.398 . S
C2418 C2419 1.391 . S
C2419 H2407 0.950 . S
C2419 C2415 1.393 . S
C2419 C2418 1.391 . S
H2420 C2428 0.950 . S
H2421 C2433 0.950 . S
H2422 C2430 0.950 . S
H2423 C2432 0.950 . S
H2424 C2434 0.950 . S
H2425 C2436 0.950 . S
H2426 C2438 0.950 . S
H2427 C2439 0.950 . S
C2428 H2420 0.950 . S
C2428 C2429 1.386 . S
C2428 C2430 1.391 . S
C2429 C2428 1.386 . S
C2429 C2433 1.393 . S
C2430 H2422 0.950 . S
C2430 C2428 1.391 . S
C2430 C2431 1.400 . S
C2431 C2430 1.400 . S
C2431 C2432 1.398 . S
C2431 C2437 1.491 . S
C2432 H2423 0.950 . S
C2432 C2431 1.398 . S
C2432 C2433 1.391 . S
C2433 H2421 0.950 . S
C2433 C2429 1.393 . S
C2433 C2432 1.391 . S
C2434 H2424 0.950 . S
C2434 C2435 1.386 . S
C2434 C2436 1.391 . S
C2435 C2434 1.386 . S
C2435 C2439 1.393 . S
C2436 H2425 0.950 . S
C2436 C2434 1.391 . S
C2436 C2437 1.400 . S
C2437 C2431 1.491 . S
C2437 C2436 1.400 . S
C2437 C2438 1.398 . S
C2438 H2426 0.950 . S
C2438 C2437 1.398 . S
C2438 C2439 1.391 . S
C2439 H2427 0.950 . S
C2439 C2435 1.393 . S
C2439 C2438 1.391 . S
H2440 C2448 0.950 . S
H2441 C2453 0.950 1_565 S
H2442 C2450 0.950 . S
H2443 C2452 0.950 1_565 S
H2444 C2454 0.950 1_565 S
H2445 C2456 0.950 1_565 S
H2446 C2458 0.950 . S
H2447 C2459 0.950 . S
C2448 H2440 0.950 . S
C2448 C2449 1.386 . S
C2448 C2450 1.391 . S
C2449 C2448 1.386 . S
C2449 C2453 1.393 . S
C2450 H2442 0.950 . S
C2450 C2448 1.391 . S
C2450 C2451 1.400 . S
C2451 C2450 1.400 . S
C2451 C2452 1.398 . S
C2451 C2457 1.491 . S
C2452 H2443 0.950 1_545 S
C2452 C2451 1.398 . S
C2452 C2453 1.391 . S
C2453 H2441 0.950 1_545 S
C2453 C2449 1.393 . S
C2453 C2452 1.391 . S
C2454 H2444 0.950 1_545 S
C2454 C2455 1.386 . S
C2454 C2456 1.391 . S
C2455 C2454 1.386 . S
C2455 C2459 1.393 . S
C2456 H2445 0.950 1_545 S
C2456 C2454 1.391 . S
C2456 C2457 1.400 . S
C2457 C2451 1.491 . S
C2457 C2456 1.400 . S
C2457 C2458 1.398 . S
C2458 H2446 0.950 . S
C2458 C2457 1.398 . S
C2458 C2459 1.391 . S
C2459 H2447 0.950 . S
C2459 C2455 1.393 . S
C2459 C2458 1.391 . S
H2460 C2468 0.950 . S
H2461 C2473 0.950 . S
H2462 C2470 0.950 . S
H2463 C2472 0.950 . S
H2464 C2474 0.950 . S
H2465 C2476 0.950 . S
H2466 C2478 0.950 . S
H2467 C2479 0.950 . S
C2468 H2460 0.950 . S
C2468 C2469 1.386 . S
C2468 C2470 1.391 . S
C2469 C2468 1.386 . S
C2469 C2473 1.393 . S
C2470 H2462 0.950 . S
C2470 C2468 1.391 . S
C2470 C2471 1.400 . S
C2471 C2470 1.400 . S
C2471 C2472 1.398 . S
C2471 C2477 1.491 . S
C2472 H2463 0.950 . S
C2472 C2471 1.398 . S
C2472 C2473 1.391 . S
C2473 H2461 0.950 . S
C2473 C2469 1.393 . S
C2473 C2472 1.391 . S
C2474 H2464 0.950 . S
C2474 C2475 1.386 . S
C2474 C2476 1.391 . S
C2475 C2474 1.386 . S
C2475 C2479 1.393 . S
C2476 H2465 0.950 . S
C2476 C2474 1.391 . S
C2476 C2477 1.400 . S
C2477 C2471 1.491 . S
C2477 C2476 1.400 . S
C2477 C2478 1.398 . S
C2478 H2466 0.950 . S
C2478 C2477 1.398 . S
C2478 C2479 1.391 . S
C2479 H2467 0.950 . S
C2479 C2475 1.393 . S
C2479 C2478 1.391 . S
H2480 C2488 0.950 . S
H2481 C2493 0.950 . S
H2482 C2490 0.950 . S
H2483 C2492 0.950 1_556 S
H2484 C2494 0.950 . S
H2485 C2496 0.950 1_556 S
H2486 C2498 0.950 . S
H2487 C2499 0.950 . S
C2488 H2480 0.950 . S
C2488 C2489 1.386 . S
C2488 C2490 1.391 . S
C2489 C2488 1.386 . S
C2489 C2493 1.393 . S
C2490 H2482 0.950 . S
C2490 C2488 1.391 . S
C2490 C2491 1.400 . S
C2491 C2490 1.400 . S
C2491 C2492 1.398 . S
C2491 C2497 1.491 . S
C2492 H2483 0.950 1_554 S
C2492 C2491 1.398 . S
C2492 C2493 1.391 . S
C2493 H2481 0.950 . S
C2493 C2489 1.393 . S
C2493 C2492 1.391 . S
C2494 H2484 0.950 . S
C2494 C2495 1.386 1_556 S
C2494 C2496 1.391 1_556 S
C2495 C2494 1.386 1_554 S
C2495 C2499 1.393 . S
C2496 H2485 0.950 1_554 S
C2496 C2494 1.391 1_554 S
C2496 C2497 1.400 . S
C2497 C2491 1.491 . S
C2497 C2496 1.400 . S
C2497 C2498 1.398 . S
C2498 H2486 0.950 . S
C2498 C2497 1.398 . S
C2498 C2499 1.391 . S
C2499 H2487 0.950 . S
C2499 C2495 1.393 . S
C2499 C2498 1.391 . S
H2500 C2508 0.950 . S
H2501 C2513 0.950 . S
H2502 C2510 0.950 . S
H2503 C2512 0.950 . S
H2504 C2514 0.950 . S
H2505 C2516 0.950 . S
H2506 C2518 0.950 . S
H2507 C2519 0.950 . S
C2508 H2500 0.950 . S
C2508 C2509 1.386 . S
C2508 C2510 1.391 . S
C2509 C2508 1.386 . S
C2509 C2513 1.393 . S
C2510 H2502 0.950 . S
C2510 C2508 1.391 . S
C2510 C2511 1.400 . S
C2511 C2510 1.400 . S
C2511 C2512 1.398 . S
C2511 C2517 1.491 . S
C2512 H2503 0.950 . S
C2512 C2511 1.398 . S
C2512 C2513 1.391 . S
C2513 H2501 0.950 . S
C2513 C2509 1.393 . S
C2513 C2512 1.391 . S
C2514 H2504 0.950 . S
C2514 C2515 1.386 . S
C2514 C2516 1.391 . S
C2515 C2514 1.386 . S
C2515 C2519 1.393 . S
C2516 H2505 0.950 . S
C2516 C2514 1.391 . S
C2516 C2517 1.400 . S
C2517 C2511 1.491 . S
C2517 C2516 1.400 . S
C2517 C2518 1.398 . S
C2518 H2506 0.950 . S
C2518 C2517 1.398 . S
C2518 C2519 1.391 . S
C2519 H2507 0.950 . S
C2519 C2515 1.393 . S
C2519 C2518 1.391 . S
H2520 C2528 0.950 . S
H2521 C2533 0.950 . S
H2522 C2530 0.950 . S
H2523 C2532 0.950 . S
H2524 C2534 0.950 . S
H2525 C2536 0.950 . S
H2526 C2538 0.950 . S
H2527 C2539 0.950 . S
C2528 H2520 0.950 . S
C2528 C2529 1.386 . S
C2528 C2530 1.391 . S
C2529 C2528 1.386 . S
C2529 C2533 1.393 . S
C2530 H2522 0.950 . S
C2530 C2528 1.391 . S
C2530 C2531 1.400 . S
C2531 C2530 1.400 . S
C2531 C2532 1.398 . S
C2531 C2537 1.491 . S
C2532 H2523 0.950 . S
C2532 C2531 1.398 . S
C2532 C2533 1.391 . S
C2533 H2521 0.950 . S
C2533 C2529 1.393 . S
C2533 C2532 1.391 . S
C2534 H2524 0.950 . S
C2534 C2535 1.386 . S
C2534 C2536 1.391 . S
C2535 C2534 1.386 . S
C2535 C2539 1.393 . S
C2536 H2525 0.950 . S
C2536 C2534 1.391 . S
C2536 C2537 1.400 . S
C2537 C2531 1.491 . S
C2537 C2536 1.400 . S
C2537 C2538 1.398 . S
C2538 H2526 0.950 . S
C2538 C2537 1.398 . S
C2538 C2539 1.391 . S
C2539 H2527 0.950 . S
C2539 C2535 1.393 . S
C2539 C2538 1.391 . S
H2540 C2548 0.950 . S
H2541 C2553 0.950 . S
H2542 C2550 0.950 . S
H2543 C2552 0.950 . S
H2544 C2554 0.950 . S
H2545 C2556 0.950 . S
H2546 C2558 0.950 . S
H2547 C2559 0.950 . S
C2548 H2540 0.950 . S
C2548 C2549 1.386 . S
C2548 C2550 1.391 . S
C2549 C2548 1.386 . S
C2549 C2553 1.393 . S
C2550 H2542 0.950 . S
C2550 C2548 1.391 . S
C2550 C2551 1.400 . S
C2551 C2550 1.400 . S
C2551 C2552 1.398 . S
C2551 C2557 1.491 . S
C2552 H2543 0.950 . S
C2552 C2551 1.398 . S
C2552 C2553 1.391 . S
C2553 H2541 0.950 . S
C2553 C2549 1.393 . S
C2553 C2552 1.391 . S
C2554 H2544 0.950 . S
C2554 C2555 1.386 . S
C2554 C2556 1.391 . S
C2555 C2554 1.386 . S
C2555 C2559 1.393 . S
C2556 H2545 0.950 . S
C2556 C2554 1.391 . S
C2556 C2557 1.400 . S
C2557 C2551 1.491 . S
C2557 C2556 1.400 . S
C2557 C2558 1.398 . S
C2558 H2546 0.950 . S
C2558 C2557 1.398 . S
C2558 C2559 1.391 . S
C2559 H2547 0.950 . S
C2559 C2555 1.393 . S
C2559 C2558 1.391 . S
H2560 C2568 0.950 . S
H2561 C2573 0.950 . S
H2562 C2570 0.950 . S
H2563 C2572 0.950 . S
H2564 C2574 0.950 . S
H2565 C2576 0.950 . S
H2566 C2578 0.950 . S
H2567 C2579 0.950 . S
C2568 H2560 0.950 . S
C2568 C2569 1.386 . S
C2568 C2570 1.391 . S
C2569 C2568 1.386 . S
C2569 C2573 1.393 . S
C2570 H2562 0.950 . S
C2570 C2568 1.391 . S
C2570 C2571 1.400 . S
C2571 C2570 1.400 . S
C2571 C2572 1.398 . S
C2571 C2577 1.491 . S
C2572 H2563 0.950 . S
C2572 C2571 1.398 . S
C2572 C2573 1.391 . S
C2573 H2561 0.950 . S
C2573 C2569 1.393 . S
C2573 C2572 1.391 . S
C2574 H2564 0.950 . S
C2574 C2575 1.386 . S
C2574 C2576 1.391 . S
C2575 C2574 1.386 . S
C2575 C2579 1.393 . S
C2576 H2565 0.950 . S
C2576 C2574 1.391 . S
C2576 C2577 1.400 . S
C2577 C2571 1.491 . S
C2577 C2576 1.400 . S
C2577 C2578 1.398 . S
C2578 H2566 0.950 . S
C2578 C2577 1.398 . S
C2578 C2579 1.391 . S
C2579 H2567 0.950 . S
C2579 C2575 1.393 . S
C2579 C2578 1.391 . S
H2580 C2588 0.950 . S
H2581 C2593 0.950 . S
H2582 C2590 0.950 . S
H2583 C2592 0.950 . S
H2584 C2594 0.950 . S
H2585 C2596 0.950 . S
H2586 C2598 0.950 . S
H2587 C2599 0.950 1_545 S
C2588 H2580 0.950 . S
C2588 C2589 1.386 . S
C2588 C2590 1.391 . S
C2589 C2588 1.386 . S
C2589 C2593 1.393 . S
C2590 H2582 0.950 . S
C2590 C2588 1.391 . S
C2590 C2591 1.400 . S
C2591 C2590 1.400 . S
C2591 C2592 1.398 . S
C2591 C2597 1.491 . S
C2592 H2583 0.950 . S
C2592 C2591 1.398 . S
C2592 C2593 1.391 . S
C2593 H2581 0.950 . S
C2593 C2589 1.393 . S
C2593 C2592 1.391 . S
C2594 H2584 0.950 . S
C2594 C2595 1.386 . S
C2594 C2596 1.391 . S
C2595 C2594 1.386 . S
C2595 C2599 1.393 . S
C2596 H2585 0.950 . S
C2596 C2594 1.391 . S
C2596 C2597 1.400 . S
C2597 C2591 1.491 . S
C2597 C2596 1.400 . S
C2597 C2598 1.398 . S
C2598 H2586 0.950 . S
C2598 C2597 1.398 . S
C2598 C2599 1.391 . S
C2599 H2587 0.950 1_565 S
C2599 C2595 1.393 . S
C2599 C2598 1.391 . S
H2600 C2608 0.950 . S
H2601 C2613 0.950 . S
H2602 C2610 0.950 . S
H2603 C2612 0.950 . S
H2604 C2614 0.950 . S
H2605 C2616 0.950 . S
H2606 C2618 0.950 . S
H2607 C2619 0.950 . S
C2608 H2600 0.950 . S
C2608 C2609 1.386 . S
C2608 C2610 1.391 . S
C2609 C2608 1.386 . S
C2609 C2613 1.393 . S
C2610 H2602 0.950 . S
C2610 C2608 1.391 . S
C2610 C2611 1.400 . S
C2611 C2610 1.400 . S
C2611 C2612 1.398 . S
C2611 C2617 1.491 . S
C2612 H2603 0.950 . S
C2612 C2611 1.398 . S
C2612 C2613 1.391 . S
C2613 H2601 0.950 . S
C2613 C2609 1.393 . S
C2613 C2612 1.391 . S
C2614 H2604 0.950 . S
C2614 C2615 1.386 . S
C2614 C2616 1.391 . S
C2615 C2614 1.386 . S
C2615 C2619 1.393 . S
C2616 H2605 0.950 . S
C2616 C2614 1.391 . S
C2616 C2617 1.400 . S
C2617 C2611 1.491 . S
C2617 C2616 1.400 . S
C2617 C2618 1.398 . S
C2618 H2606 0.950 . S
C2618 C2617 1.398 . S
C2618 C2619 1.391 . S
C2619 H2607 0.950 . S
C2619 C2615 1.393 . S
C2619 C2618 1.391 . S
H2620 C2628 0.950 . S
H2621 C2633 0.950 . S
H2622 C2630 0.950 . S
H2623 C2632 0.950 . S
H2624 C2634 0.950 . S
H2625 C2636 0.950 . S
H2626 C2638 0.950 . S
H2627 C2639 0.950 . S
C2628 H2620 0.950 . S
C2628 C2629 1.386 . S
C2628 C2630 1.391 . S
C2629 C2628 1.386 . S
C2629 C2633 1.393 . S
C2630 H2622 0.950 . S
C2630 C2628 1.391 . S
C2630 C2631 1.400 . S
C2631 C2630 1.400 . S
C2631 C2632 1.398 . S
C2631 C2637 1.491 . S
C2632 H2623 0.950 . S
C2632 C2631 1.398 . S
C2632 C2633 1.391 . S
C2633 H2621 0.950 . S
C2633 C2629 1.393 . S
C2633 C2632 1.391 . S
C2634 H2624 0.950 . S
C2634 C2635 1.386 . S
C2634 C2636 1.391 . S
C2635 C2634 1.386 . S
C2635 C2639 1.393 . S
C2636 H2625 0.950 . S
C2636 C2634 1.391 . S
C2636 C2637 1.400 . S
C2637 C2631 1.491 . S
C2637 C2636 1.400 . S
C2637 C2638 1.398 . S
C2638 H2626 0.950 . S
C2638 C2637 1.398 . S
C2638 C2639 1.391 . S
C2639 H2627 0.950 . S
C2639 C2635 1.393 . S
C2639 C2638 1.391 . S
H2640 C2648 0.950 . S
H2641 C2653 0.950 . S
H2642 C2650 0.950 . S
H2643 C2652 0.950 . S
H2644 C2654 0.950 . S
H2645 C2656 0.950 . S
H2646 C2658 0.950 . S
H2647 C2659 0.950 . S
C2648 H2640 0.950 . S
C2648 C2649 1.386 . S
C2648 C2650 1.391 . S
C2649 C2648 1.386 . S
C2649 C2653 1.393 . S
C2650 H2642 0.950 . S
C2650 C2648 1.391 . S
C2650 C2651 1.400 . S
C2651 C2650 1.400 . S
C2651 C2652 1.398 . S
C2651 C2657 1.491 . S
C2652 H2643 0.950 . S
C2652 C2651 1.398 . S
C2652 C2653 1.391 . S
C2653 H2641 0.950 . S
C2653 C2649 1.393 . S
C2653 C2652 1.391 . S
C2654 H2644 0.950 . S
C2654 C2655 1.386 . S
C2654 C2656 1.391 . S
C2655 C2654 1.386 . S
C2655 C2659 1.393 . S
C2656 H2645 0.950 . S
C2656 C2654 1.391 . S
C2656 C2657 1.400 . S
C2657 C2651 1.491 . S
C2657 C2656 1.400 . S
C2657 C2658 1.398 . S
C2658 H2646 0.950 . S
C2658 C2657 1.398 . S
C2658 C2659 1.391 . S
C2659 H2647 0.950 . S
C2659 C2655 1.393 . S
C2659 C2658 1.391 . S
H2660 C2668 0.950 . S
H2661 C2673 0.950 . S
H2662 C2670 0.950 . S
H2663 C2672 0.950 . S
H2664 C2674 0.950 . S
H2665 C2676 0.950 . S
H2666 C2678 0.950 . S
H2667 C2679 0.950 . S
C2668 H2660 0.950 . S
C2668 C2669 1.386 . S
C2668 C2670 1.391 . S
C2669 C2668 1.386 . S
C2669 C2673 1.393 . S
C2670 H2662 0.950 . S
C2670 C2668 1.391 . S
C2670 C2671 1.400 . S
C2671 C2670 1.400 . S
C2671 C2672 1.398 . S
C2671 C2677 1.491 . S
C2672 H2663 0.950 . S
C2672 C2671 1.398 . S
C2672 C2673 1.391 . S
C2673 H2661 0.950 . S
C2673 C2669 1.393 . S
C2673 C2672 1.391 . S
C2674 H2664 0.950 . S
C2674 C2675 1.386 . S
C2674 C2676 1.391 . S
C2675 C2674 1.386 . S
C2675 C2679 1.393 . S
C2676 H2665 0.950 . S
C2676 C2674 1.391 . S
C2676 C2677 1.400 . S
C2677 C2671 1.491 . S
C2677 C2676 1.400 . S
C2677 C2678 1.398 . S
C2678 H2666 0.950 . S
C2678 C2677 1.398 . S
C2678 C2679 1.391 . S
C2679 H2667 0.950 . S
C2679 C2675 1.393 . S
C2679 C2678 1.391 . S
H2680 C2688 0.950 . S
H2681 C2693 0.950 . S
H2682 C2690 0.950 . S
H2683 C2692 0.950 . S
H2684 C2694 0.950 . S
H2685 C2696 0.950 . S
H2686 C2698 0.950 1_556 S
H2687 C2699 0.950 . S
C2688 H2680 0.950 . S
C2688 C2689 1.386 . S
C2688 C2690 1.391 . S
C2689 C2688 1.386 . S
C2689 C2693 1.393 . S
C2690 H2682 0.950 . S
C2690 C2688 1.391 . S
C2690 C2691 1.400 . S
C2691 C2690 1.400 . S
C2691 C2692 1.398 1_556 S
C2691 C2697 1.491 1_556 S
C2692 H2683 0.950 . S
C2692 C2691 1.398 1_554 S
C2692 C2693 1.391 1_554 S
C2693 H2681 0.950 . S
C2693 C2689 1.393 . S
C2693 C2692 1.391 1_556 S
C2694 H2684 0.950 . S
C2694 C2695 1.386 . S
C2694 C2696 1.391 . S
C2695 C2694 1.386 . S
C2695 C2699 1.393 . S
C2696 H2685 0.950 . S
C2696 C2694 1.391 . S
C2696 C2697 1.400 . S
C2697 C2691 1.491 1_554 S
C2697 C2696 1.400 . S
C2697 C2698 1.398 . S
C2698 H2686 0.950 1_554 S
C2698 C2697 1.398 . S
C2698 C2699 1.391 . S
C2699 H2687 0.950 . S
C2699 C2695 1.393 . S
C2699 C2698 1.391 . S
H2700 C2708 0.950 . S
H2701 C2713 0.950 . S
H2702 C2710 0.950 . S
H2703 C2712 0.950 . S
H2704 C2714 0.950 . S
H2705 C2716 0.950 . S
H2706 C2718 0.950 . S
H2707 C2719 0.950 . S
C2708 H2700 0.950 . S
C2708 C2709 1.386 . S
C2708 C2710 1.391 . S
C2709 C2708 1.386 . S
C2709 C2713 1.393 . S
C2710 H2702 0.950 . S
C2710 C2708 1.391 . S
C2710 C2711 1.400 1_455 S
C2711 C2710 1.400 1_655 S
C2711 C2712 1.398 . S
C2711 C2717 1.491 . S
C2712 H2703 0.950 . S
C2712 C2711 1.398 . S
C2712 C2713 1.391 1_655 S
C2713 H2701 0.950 . S
C2713 C2709 1.393 . S
C2713 C2712 1.391 1_455 S
C2714 H2704 0.950 . S
C2714 C2715 1.386 . S
C2714 C2716 1.391 . S
C2715 C2714 1.386 . S
C2715 C2719 1.393 . S
C2716 H2705 0.950 . S
C2716 C2714 1.391 . S
C2716 C2717 1.400 . S
C2717 C2711 1.491 . S
C2717 C2716 1.400 . S
C2717 C2718 1.398 . S
C2718 H2706 0.950 . S
C2718 C2717 1.398 . S
C2718 C2719 1.391 . S
C2719 H2707 0.950 . S
C2719 C2715 1.393 . S
C2719 C2718 1.391 . S
H2720 C2728 0.950 . S
H2721 C2733 0.950 . S
H2722 C2730 0.950 . S
H2723 C2732 0.950 . S
H2724 C2734 0.950 . S
H2725 C2736 0.950 . S
H2726 C2738 0.950 . S
H2727 C2739 0.950 . S
C2728 H2720 0.950 . S
C2728 C2729 1.386 . S
C2728 C2730 1.391 . S
C2729 C2728 1.386 . S
C2729 C2733 1.393 . S
C2730 H2722 0.950 . S
C2730 C2728 1.391 . S
C2730 C2731 1.400 . S
C2731 C2730 1.400 . S
C2731 C2732 1.398 . S
C2731 C2737 1.491 . S
C2732 H2723 0.950 . S
C2732 C2731 1.398 . S
C2732 C2733 1.391 . S
C2733 H2721 0.950 . S
C2733 C2729 1.393 . S
C2733 C2732 1.391 . S
C2734 H2724 0.950 . S
C2734 C2735 1.386 . S
C2734 C2736 1.391 . S
C2735 C2734 1.386 . S
C2735 C2739 1.393 . S
C2736 H2725 0.950 . S
C2736 C2734 1.391 . S
C2736 C2737 1.400 . S
C2737 C2731 1.491 . S
C2737 C2736 1.400 . S
C2737 C2738 1.398 . S
C2738 H2726 0.950 . S
C2738 C2737 1.398 . S
C2738 C2739 1.391 . S
C2739 H2727 0.950 . S
C2739 C2735 1.393 . S
C2739 C2738 1.391 . S
H2740 C2748 0.950 . S
H2741 C2753 0.950 . S
H2742 C2750 0.950 . S
H2743 C2752 0.950 . S
H2744 C2754 0.950 . S
H2745 C2756 0.950 . S
H2746 C2758 0.950 . S
H2747 C2759 0.950 . S
C2748 H2740 0.950 . S
C2748 C2749 1.386 . S
C2748 C2750 1.391 . S
C2749 C2748 1.386 . S
C2749 C2753 1.393 . S
C2750 H2742 0.950 . S
C2750 C2748 1.391 . S
C2750 C2751 1.400 . S
C2751 C2750 1.400 . S
C2751 C2752 1.398 . S
C2751 C2757 1.491 1_455 S
C2752 H2743 0.950 . S
C2752 C2751 1.398 . S
C2752 C2753 1.391 . S
C2753 H2741 0.950 . S
C2753 C2749 1.393 . S
C2753 C2752 1.391 . S
C2754 H2744 0.950 . S
C2754 C2755 1.386 . S
C2754 C2756 1.391 . S
C2755 C2754 1.386 . S
C2755 C2759 1.393 . S
C2756 H2745 0.950 . S
C2756 C2754 1.391 . S
C2756 C2757 1.400 . S
C2757 C2751 1.491 1_655 S
C2757 C2756 1.400 . S
C2757 C2758 1.398 . S
C2758 H2746 0.950 . S
C2758 C2757 1.398 . S
C2758 C2759 1.391 . S
C2759 H2747 0.950 . S
C2759 C2755 1.393 . S
C2759 C2758 1.391 . S
H2760 C2768 0.950 . S
H2761 C2773 0.950 . S
H2762 C2770 0.950 . S
H2763 C2772 0.950 . S
H2764 C2774 0.950 . S
H2765 C2776 0.950 . S
H2766 C2778 0.950 . S
H2767 C2779 0.950 . S
C2768 H2760 0.950 . S
C2768 C2769 1.386 1_455 S
C2768 C2770 1.391 . S
C2769 C2768 1.386 1_655 S
C2769 C2773 1.393 . S
C2770 H2762 0.950 . S
C2770 C2768 1.391 . S
C2770 C2771 1.400 . S
C2771 C2770 1.400 . S
C2771 C2772 1.398 1_455 S
C2771 C2777 1.491 . S
C2772 H2763 0.950 . S
C2772 C2771 1.398 1_655 S
C2772 C2773 1.391 . S
C2773 H2761 0.950 . S
C2773 C2769 1.393 . S
C2773 C2772 1.391 . S
C2774 H2764 0.950 . S
C2774 C2775 1.386 . S
C2774 C2776 1.391 . S
C2775 C2774 1.386 . S
C2775 C2779 1.393 . S
C2776 H2765 0.950 . S
C2776 C2774 1.391 . S
C2776 C2777 1.400 . S
C2777 C2771 1.491 . S
C2777 C2776 1.400 . S
C2777 C2778 1.398 . S
C2778 H2766 0.950 . S
C2778 C2777 1.398 . S
C2778 C2779 1.391 . S
C2779 H2767 0.950 . S
C2779 C2775 1.393 . S
C2779 C2778 1.391 . S
H2780 C2788 0.950 . S
H2781 C2793 0.950 . S
H2782 C2790 0.950 . S
H2783 C2792 0.950 . S
H2784 C2794 0.950 . S
H2785 C2796 0.950 . S
H2786 C2798 0.950 . S
H2787 C2799 0.950 . S
C2788 H2780 0.950 . S
C2788 C2789 1.386 . S
C2788 C2790 1.391 . S
C2789 C2788 1.386 . S
C2789 C2793 1.393 . S
C2790 H2782 0.950 . S
C2790 C2788 1.391 . S
C2790 C2791 1.400 . S
C2791 C2790 1.400 . S
C2791 C2792 1.398 . S
C2791 C2797 1.491 . S
C2792 H2783 0.950 . S
C2792 C2791 1.398 . S
C2792 C2793 1.391 . S
C2793 H2781 0.950 . S
C2793 C2789 1.393 . S
C2793 C2792 1.391 . S
C2794 H2784 0.950 . S
C2794 C2795 1.386 . S
C2794 C2796 1.391 . S
C2795 C2794 1.386 . S
C2795 C2799 1.393 . S
C2796 H2785 0.950 . S
C2796 C2794 1.391 . S
C2796 C2797 1.400 . S
C2797 C2791 1.491 . S
C2797 C2796 1.400 . S
C2797 C2798 1.398 . S
C2798 H2786 0.950 . S
C2798 C2797 1.398 . S
C2798 C2799 1.391 . S
C2799 H2787 0.950 . S
C2799 C2795 1.393 . S
C2799 C2798 1.391 . S
H2800 C2808 0.950 . S
H2801 C2813 0.950 . S
H2802 C2810 0.950 . S
H2803 C2812 0.950 . S
H2804 C2814 0.950 . S
H2805 C2816 0.950 . S
H2806 C2818 0.950 . S
H2807 C2819 0.950 . S
C2808 H2800 0.950 . S
C2808 C2809 1.386 . S
C2808 C2810 1.391 . S
C2809 C2808 1.386 . S
C2809 C2813 1.393 . S
C2810 H2802 0.950 . S
C2810 C2808 1.391 . S
C2810 C2811 1.400 . S
C2811 C2810 1.400 . S
C2811 C2812 1.398 . S
C2811 C2817 1.491 . S
C2812 H2803 0.950 . S
C2812 C2811 1.398 . S
C2812 C2813 1.391 . S
C2813 H2801 0.950 . S
C2813 C2809 1.393 . S
C2813 C2812 1.391 . S
C2814 H2804 0.950 . S
C2814 C2815 1.386 . S
C2814 C2816 1.391 . S
C2815 C2814 1.386 . S
C2815 C2819 1.393 . S
C2816 H2805 0.950 . S
C2816 C2814 1.391 . S
C2816 C2817 1.400 . S
C2817 C2811 1.491 . S
C2817 C2816 1.400 . S
C2817 C2818 1.398 . S
C2818 H2806 0.950 . S
C2818 C2817 1.398 . S
C2818 C2819 1.391 . S
C2819 H2807 0.950 . S
C2819 C2815 1.393 . S
C2819 C2818 1.391 . S
H2820 C2828 0.950 . S
H2821 C2833 0.950 . S
H2822 C2830 0.950 . S
H2823 C2832 0.950 . S
H2824 C2834 0.950 . S
H2825 C2836 0.950 . S
H2826 C2838 0.950 . S
H2827 C2839 0.950 . S
C2828 H2820 0.950 . S
C2828 C2829 1.386 . S
C2828 C2830 1.391 . S
C2829 C2828 1.386 . S
C2829 C2833 1.393 . S
C2830 H2822 0.950 . S
C2830 C2828 1.391 . S
C2830 C2831 1.400 . S
C2831 C2830 1.400 . S
C2831 C2832 1.398 . S
C2831 C2837 1.491 . S
C2832 H2823 0.950 . S
C2832 C2831 1.398 . S
C2832 C2833 1.391 . S
C2833 H2821 0.950 . S
C2833 C2829 1.393 . S
C2833 C2832 1.391 . S
C2834 H2824 0.950 . S
C2834 C2835 1.386 . S
C2834 C2836 1.391 . S
C2835 C2834 1.386 . S
C2835 C2839 1.393 . S
C2836 H2825 0.950 . S
C2836 C2834 1.391 . S
C2836 C2837 1.400 . S
C2837 C2831 1.491 . S
C2837 C2836 1.400 . S
C2837 C2838 1.398 . S
C2838 H2826 0.950 . S
C2838 C2837 1.398 . S
C2838 C2839 1.391 . S
C2839 H2827 0.950 . S
C2839 C2835 1.393 . S
C2839 C2838 1.391 . S
H2840 C2848 0.950 . S
H2841 C2853 0.950 . S
H2842 C2850 0.950 . S
H2843 C2852 0.950 . S
H2844 C2854 0.950 . S
H2845 C2856 0.950 . S
H2846 C2858 0.950 . S
H2847 C2859 0.950 . S
C2848 H2840 0.950 . S
C2848 C2849 1.386 . S
C2848 C2850 1.391 . S
C2849 C2848 1.386 . S
C2849 C2853 1.393 . S
C2850 H2842 0.950 . S
C2850 C2848 1.391 . S
C2850 C2851 1.400 . S
C2851 C2850 1.400 . S
C2851 C2852 1.398 . S
C2851 C2857 1.491 . S
C2852 H2843 0.950 . S
C2852 C2851 1.398 . S
C2852 C2853 1.391 . S
C2853 H2841 0.950 . S
C2853 C2849 1.393 . S
C2853 C2852 1.391 . S
C2854 H2844 0.950 . S
C2854 C2855 1.386 . S
C2854 C2856 1.391 . S
C2855 C2854 1.386 . S
C2855 C2859 1.393 . S
C2856 H2845 0.950 . S
C2856 C2854 1.391 . S
C2856 C2857 1.400 . S
C2857 C2851 1.491 . S
C2857 C2856 1.400 . S
C2857 C2858 1.398 . S
C2858 H2846 0.950 . S
C2858 C2857 1.398 . S
C2858 C2859 1.391 . S
C2859 H2847 0.950 . S
C2859 C2855 1.393 . S
C2859 C2858 1.391 . S
H2860 C2868 0.950 . S
H2861 C2873 0.950 . S
H2862 C2870 0.950 . S
H2863 C2872 0.950 . S
H2864 C2874 0.950 . S
H2865 C2876 0.950 . S
H2866 C2878 0.950 . S
H2867 C2879 0.950 . S
C2868 H2860 0.950 . S
C2868 C2869 1.386 . S
C2868 C2870 1.391 . S
C2869 C2868 1.386 . S
C2869 C2873 1.393 . S
C2870 H2862 0.950 . S
C2870 C2868 1.391 . S
C2870 C2871 1.400 . S
C2871 C2870 1.400 . S
C2871 C2872 1.398 . S
C2871 C2877 1.491 . S
C2872 H2863 0.950 . S
C2872 C2871 1.398 . S
C2872 C2873 1.391 . S
C2873 H2861 0.950 . S
C2873 C2869 1.393 . S
C2873 C2872 1.391 . S
C2874 H2864 0.950 . S
C2874 C2875 1.386 . S
C2874 C2876 1.391 . S
C2875 C2874 1.386 . S
C2875 C2879 1.393 . S
C2876 H2865 0.950 . S
C2876 C2874 1.391 . S
C2876 C2877 1.400 . S
C2877 C2871 1.491 . S
C2877 C2876 1.400 . S
C2877 C2878 1.398 . S
C2878 H2866 0.950 . S
C2878 C2877 1.398 . S
C2878 C2879 1.391 . S
C2879 H2867 0.950 . S
C2879 C2875 1.393 . S
C2879 C2878 1.391 . S
H2880 C2888 0.950 . S
H2881 C2893 0.950 . S
H2882 C2890 0.950 . S
H2883 C2892 0.950 . S
H2884 C2894 0.950 . S
H2885 C2896 0.950 . S
H2886 C2898 0.950 . S
H2887 C2899 0.950 . S
C2888 H2880 0.950 . S
C2888 C2889 1.386 . S
C2888 C2890 1.391 . S
C2889 C2888 1.386 . S
C2889 C2893 1.393 . S
C2890 H2882 0.950 . S
C2890 C2888 1.391 . S
C2890 C2891 1.400 . S
C2891 C2890 1.400 . S
C2891 C2892 1.398 . S
C2891 C2897 1.491 . S
C2892 H2883 0.950 . S
C2892 C2891 1.398 . S
C2892 C2893 1.391 . S
C2893 H2881 0.950 . S
C2893 C2889 1.393 . S
C2893 C2892 1.391 . S
C2894 H2884 0.950 . S
C2894 C2895 1.386 . S
C2894 C2896 1.391 . S
C2895 C2894 1.386 . S
C2895 C2899 1.393 . S
C2896 H2885 0.950 . S
C2896 C2894 1.391 . S
C2896 C2897 1.400 . S
C2897 C2891 1.491 . S
C2897 C2896 1.400 . S
C2897 C2898 1.398 . S
C2898 H2886 0.950 . S
C2898 C2897 1.398 . S
C2898 C2899 1.391 . S
C2899 H2887 0.950 . S
C2899 C2895 1.393 . S
C2899 C2898 1.391 . S
H2900 C2908 0.950 . S
H2901 C2913 0.950 . S
H2902 C2910 0.950 . S
H2903 C2912 0.950 . S
H2904 C2914 0.950 . S
H2905 C2916 0.950 . S
H2906 C2918 0.950 . S
H2907 C2919 0.950 . S
C2908 H2900 0.950 . S
C2908 C2909 1.386 . S
C2908 C2910 1.391 . S
C2909 C2908 1.386 . S
C2909 C2913 1.393 . S
C2910 H2902 0.950 . S
C2910 C2908 1.391 . S
C2910 C2911 1.400 . S
C2911 C2910 1.400 . S
C2911 C2912 1.398 . S
C2911 C2917 1.491 . S
C2912 H2903 0.950 . S
C2912 C2911 1.398 . S
C2912 C2913 1.391 . S
C2913 H2901 0.950 . S
C2913 C2909 1.393 . S
C2913 C2912 1.391 . S
C2914 H2904 0.950 . S
C2914 C2915 1.386 . S
C2914 C2916 1.391 . S
C2915 C2914 1.386 . S
C2915 C2919 1.393 . S
C2916 H2905 0.950 . S
C2916 C2914 1.391 . S
C2916 C2917 1.400 . S
C2917 C2911 1.491 . S
C2917 C2916 1.400 . S
C2917 C2918 1.398 . S
C2918 H2906 0.950 . S
C2918 C2917 1.398 . S
C2918 C2919 1.391 . S
C2919 H2907 0.950 . S
C2919 C2915 1.393 . S
C2919 C2918 1.391 . S
H2920 C2928 0.950 . S
H2921 C2933 0.950 . S
H2922 C2930 0.950 . S
H2923 C2932 0.950 . S
H2924 C2934 0.950 . S
H2925 C2936 0.950 . S
H2926 C2938 0.950 . S
H2927 C2939 0.950 . S
C2928 H2920 0.950 . S
C2928 C2929 1.386 . S
C2928 C2930 1.391 . S
C2929 C2928 1.386 . S
C2929 C2933 1.393 . S
C2930 H2922 0.950 . S
C2930 C2928 1.391 . S
C2930 C2931 1.400 . S
C2931 C2930 1.400 . S
C2931 C2932 1.398 . S
C2931 C2937 1.491 . S
C2932 H2923 0.950 . S
C2932 C2931 1.398 . S
C2932 C2933 1.391 . S
C2933 H2921 0.950 . S
C2933 C2929 1.393 . S
C2933 C2932 1.391 . S
C2934 H2924 0.950 . S
C2934 C2935 1.386 . S
C2934 C2936 1.391 . S
C2935 C2934 1.386 . S
C2935 C2939 1.393 . S
C2936 H2925 0.950 . S
C2936 C2934 1.391 . S
C2936 C2937 1.400 . S
C2937 C2931 1.491 . S
C2937 C2936 1.400 . S
C2937 C2938 1.398 . S
C2938 H2926 0.950 . S
C2938 C2937 1.398 . S
C2938 C2939 1.391 . S
C2939 H2927 0.950 . S
C2939 C2935 1.393 . S
C2939 C2938 1.391 . S
H2940 C2948 0.950 . S
H2941 C2953 0.950 . S
H2942 C2950 0.950 . S
H2943 C2952 0.950 . S
H2944 C2954 0.950 . S
H2945 C2956 0.950 . S
H2946 C2958 0.950 . S
H2947 C2959 0.950 . S
C2948 H2940 0.950 . S
C2948 C2949 1.386 . S
C2948 C2950 1.391 . S
C2949 C2948 1.386 . S
C2949 C2953 1.393 . S
C2950 H2942 0.950 . S
C2950 C2948 1.391 . S
C2950 C2951 1.400 . S
C2951 C2950 1.400 . S
C2951 C2952 1.398 . S
C2951 C2957 1.491 . S
C2952 H2943 0.950 . S
C2952 C2951 1.398 . S
C2952 C2953 1.391 . S
C2953 H2941 0.950 . S
C2953 C2949 1.393 . S
C2953 C2952 1.391 . S
C2954 H2944 0.950 . S
C2954 C2955 1.386 . S
C2954 C2956 1.391 . S
C2955 C2954 1.386 . S
C2955 C2959 1.393 . S
C2956 H2945 0.950 . S
C2956 C2954 1.391 . S
C2956 C2957 1.400 . S
C2957 C2951 1.491 . S
C2957 C2956 1.400 . S
C2957 C2958 1.398 . S
C2958 H2946 0.950 . S
C2958 C2957 1.398 . S
C2958 C2959 1.391 . S
C2959 H2947 0.950 . S
C2959 C2955 1.393 . S
C2959 C2958 1.391 . S
H2960 C2968 0.950 . S
H2961 C2973 0.950 . S
H2962 C2970 0.950 . S
H2963 C2972 0.950 . S
H2964 C2974 0.950 . S
H2965 C2976 0.950 . S
H2966 C2978 0.950 . S
H2967 C2979 0.950 . S
C2968 H2960 0.950 . S
C2968 C2969 1.386 . S
C2968 C2970 1.391 . S
C2969 C2968 1.386 . S
C2969 C2973 1.393 . S
C2970 H2962 0.950 . S
C2970 C2968 1.391 . S
C2970 C2971 1.400 . S
C2971 C2970 1.400 . S
C2971 C2972 1.398 . S
C2971 C2977 1.491 . S
C2972 H2963 0.950 . S
C2972 C2971 1.398 . S
C2972 C2973 1.391 . S
C2973 H2961 0.950 . S
C2973 C2969 1.393 . S
C2973 C2972 1.391 . S
C2974 H2964 0.950 . S
C2974 C2975 1.386 . S
C2974 C2976 1.391 . S
C2975 C2974 1.386 . S
C2975 C2979 1.393 . S
C2976 H2965 0.950 . S
C2976 C2974 1.391 . S
C2976 C2977 1.400 . S
C2977 C2971 1.491 . S
C2977 C2976 1.400 . S
C2977 C2978 1.398 . S
C2978 H2966 0.950 . S
C2978 C2977 1.398 . S
C2978 C2979 1.391 . S
C2979 H2967 0.950 . S
C2979 C2975 1.393 . S
C2979 C2978 1.391 . S
H2980 C2988 0.950 . S
H2981 C2993 0.950 . S
H2982 C2990 0.950 . S
H2983 C2992 0.950 . S
H2984 C2994 0.950 . S
H2985 C2996 0.950 . S
H2986 C2998 0.950 . S
H2987 C2999 0.950 . S
C2988 H2980 0.950 . S
C2988 C2989 1.386 . S
C2988 C2990 1.391 . S
C2989 C2988 1.386 . S
C2989 C2993 1.393 . S
C2990 H2982 0.950 . S
C2990 C2988 1.391 . S
C2990 C2991 1.400 . S
C2991 C2990 1.400 . S
C2991 C2992 1.398 . S
C2991 C2997 1.491 . S
C2992 H2983 0.950 . S
C2992 C2991 1.398 . S
C2992 C2993 1.391 . S
C2993 H2981 0.950 . S
C2993 C2989 1.393 . S
C2993 C2992 1.391 . S
C2994 H2984 0.950 . S
C2994 C2995 1.386 . S
C2994 C2996 1.391 . S
C2995 C2994 1.386 . S
C2995 C2999 1.393 . S
C2996 H2985 0.950 . S
C2996 C2994 1.391 . S
C2996 C2997 1.400 . S
C2997 C2991 1.491 . S
C2997 C2996 1.400 . S
C2997 C2998 1.398 . S
C2998 H2986 0.950 . S
C2998 C2997 1.398 . S
C2998 C2999 1.391 . S
C2999 H2987 0.950 . S
C2999 C2995 1.393 . S
C2999 C2998 1.391 . S
H3000 C3008 0.950 . S
H3001 C3013 0.950 . S
H3002 C3010 0.950 . S
H3003 C3012 0.950 . S
H3004 C3014 0.950 . S
H3005 C3016 0.950 . S
H3006 C3018 0.950 . S
H3007 C3019 0.950 . S
C3008 H3000 0.950 . S
C3008 C3009 1.386 . S
C3008 C3010 1.391 . S
C3009 C3008 1.386 . S
C3009 C3013 1.393 . S
C3010 H3002 0.950 . S
C3010 C3008 1.391 . S
C3010 C3011 1.400 . S
C3011 C3010 1.400 . S
C3011 C3012 1.398 . S
C3011 C3017 1.491 . S
C3012 H3003 0.950 . S
C3012 C3011 1.398 . S
C3012 C3013 1.391 . S
C3013 H3001 0.950 . S
C3013 C3009 1.393 . S
C3013 C3012 1.391 . S
C3014 H3004 0.950 . S
C3014 C3015 1.386 . S
C3014 C3016 1.391 . S
C3015 C3014 1.386 . S
C3015 C3019 1.393 . S
C3016 H3005 0.950 . S
C3016 C3014 1.391 . S
C3016 C3017 1.400 . S
C3017 C3011 1.491 . S
C3017 C3016 1.400 . S
C3017 C3018 1.398 . S
C3018 H3006 0.950 . S
C3018 C3017 1.398 . S
C3018 C3019 1.391 . S
C3019 H3007 0.950 . S
C3019 C3015 1.393 . S
C3019 C3018 1.391 . S
H3020 C3028 0.950 . S
H3021 C3033 0.950 . S
H3022 C3030 0.950 . S
H3023 C3032 0.950 1_545 S
H3024 C3034 0.950 . S
H3025 C3036 0.950 . S
H3026 C3038 0.950 . S
H3027 C3039 0.950 . S
C3028 H3020 0.950 . S
C3028 C3029 1.386 . S
C3028 C3030 1.391 . S
C3029 C3028 1.386 . S
C3029 C3033 1.393 . S
C3030 H3022 0.950 . S
C3030 C3028 1.391 . S
C3030 C3031 1.400 . S
C3031 C3030 1.400 . S
C3031 C3032 1.398 . S
C3031 C3037 1.491 . S
C3032 H3023 0.950 1_565 S
C3032 C3031 1.398 . S
C3032 C3033 1.391 . S
C3033 H3021 0.950 . S
C3033 C3029 1.393 . S
C3033 C3032 1.391 . S
C3034 H3024 0.950 . S
C3034 C3035 1.386 . S
C3034 C3036 1.391 . S
C3035 C3034 1.386 . S
C3035 C3039 1.393 1_545 S
C3036 H3025 0.950 . S
C3036 C3034 1.391 . S
C3036 C3037 1.400 1_545 S
C3037 C3031 1.491 . S
C3037 C3036 1.400 1_565 S
C3037 C3038 1.398 . S
C3038 H3026 0.950 . S
C3038 C3037 1.398 . S
C3038 C3039 1.391 . S
C3039 H3027 0.950 . S
C3039 C3035 1.393 1_565 S
C3039 C3038 1.391 . S
H3040 C3048 0.950 . S
H3041 C3053 0.950 . S
H3042 C3050 0.950 . S
H3043 C3052 0.950 . S
H3044 C3054 0.950 . S
H3045 C3056 0.950 . S
H3046 C3058 0.950 . S
H3047 C3059 0.950 . S
C3048 H3040 0.950 . S
C3048 C3049 1.386 . S
C3048 C3050 1.391 . S
C3049 C3048 1.386 . S
C3049 C3053 1.393 . S
C3050 H3042 0.950 . S
C3050 C3048 1.391 . S
C3050 C3051 1.400 . S
C3051 C3050 1.400 . S
C3051 C3052 1.398 . S
C3051 C3057 1.491 . S
C3052 H3043 0.950 . S
C3052 C3051 1.398 . S
C3052 C3053 1.391 . S
C3053 H3041 0.950 . S
C3053 C3049 1.393 . S
C3053 C3052 1.391 . S
C3054 H3044 0.950 . S
C3054 C3055 1.386 . S
C3054 C3056 1.391 . S
C3055 C3054 1.386 . S
C3055 C3059 1.393 . S
C3056 H3045 0.950 . S
C3056 C3054 1.391 . S
C3056 C3057 1.400 . S
C3057 C3051 1.491 . S
C3057 C3056 1.400 . S
C3057 C3058 1.398 . S
C3058 H3046 0.950 . S
C3058 C3057 1.398 . S
C3058 C3059 1.391 . S
C3059 H3047 0.950 . S
C3059 C3055 1.393 . S
C3059 C3058 1.391 . S
H3060 C3068 0.950 . S
H3061 C3073 0.953 1_556 S
H3062 C3070 0.950 . S
H3063 C3072 0.950 1_556 S
H3064 C3074 0.950 . S
H3065 C3076 0.950 . S
H3066 C3078 0.950 . S
H3067 C3079 0.950 . S
C3068 H3060 0.950 . S
C3068 C3069 1.386 . S
C3068 C3070 1.391 . S
C3069 C3068 1.386 . S
C3069 C3073 1.391 . S
C3070 H3062 0.950 . S
C3070 C3068 1.391 . S
C3070 C3071 1.400 . S
C3071 C3070 1.400 . S
C3071 C3072 1.398 . S
C3071 C3077 1.491 . S
C3072 H3063 0.950 1_554 S
C3072 C3071 1.398 . S
C3072 C3073 1.389 . S
C3073 H3061 0.953 1_554 S
C3073 C3069 1.391 . S
C3073 C3072 1.389 . S
C3074 H3064 0.950 . S
C3074 C3075 1.386 . S
C3074 C3076 1.391 . S
C3075 C3074 1.386 . S
C3075 C3079 1.393 . S
C3076 H3065 0.950 . S
C3076 C3074 1.391 . S
C3076 C3077 1.400 . S
C3077 C3071 1.491 . S
C3077 C3076 1.400 . S
C3077 C3078 1.398 . S
C3078 H3066 0.950 . S
C3078 C3077 1.398 . S
C3078 C3079 1.391 . S
C3079 H3067 0.950 . S
C3079 C3075 1.393 . S
C3079 C3078 1.391 . S
H3080 C3088 0.950 . S
H3081 C3093 0.950 . S
H3082 C3090 0.950 . S
H3083 C3092 0.950 . S
H3084 C3094 0.950 . S
H3085 C3096 0.950 . S
H3086 C3098 0.950 . S
H3087 C3099 0.950 . S
C3088 H3080 0.950 . S
C3088 C3089 1.386 . S
C3088 C3090 1.391 . S
C3089 C3088 1.386 . S
C3089 C3093 1.393 . S
C3090 H3082 0.950 . S
C3090 C3088 1.391 . S
C3090 C3091 1.400 . S
C3091 C3090 1.400 . S
C3091 C3092 1.398 . S
C3091 C3097 1.491 . S
C3092 H3083 0.950 . S
C3092 C3091 1.398 . S
C3092 C3093 1.391 . S
C3093 H3081 0.950 . S
C3093 C3089 1.393 . S
C3093 C3092 1.391 . S
C3094 H3084 0.950 . S
C3094 C3095 1.386 . S
C3094 C3096 1.391 . S
C3095 C3094 1.386 . S
C3095 C3099 1.393 . S
C3096 H3085 0.950 . S
C3096 C3094 1.391 . S
C3096 C3097 1.400 . S
C3097 C3091 1.491 . S
C3097 C3096 1.400 . S
C3097 C3098 1.398 . S
C3098 H3086 0.950 . S
C3098 C3097 1.398 . S
C3098 C3099 1.391 . S
C3099 H3087 0.950 . S
C3099 C3095 1.393 . S
C3099 C3098 1.391 . S
H3100 C3108 0.950 . S
H3101 C3113 0.950 . S
H3102 C3110 0.950 . S
H3103 C3112 0.950 . S
H3104 C3114 0.950 . S
H3105 C3116 0.950 . S
H3106 C3118 0.950 . S
H3107 C3119 0.950 . S
C3108 H3100 0.950 . S
C3108 C3109 1.386 . S
C3108 C3110 1.391 . S
C3109 C3108 1.386 . S
C3109 C3113 1.393 . S
C3110 H3102 0.950 . S
C3110 C3108 1.391 . S
C3110 C3111 1.400 . S
C3111 C3110 1.400 . S
C3111 C3112 1.398 . S
C3111 C3117 1.491 . S
C3112 H3103 0.950 . S
C3112 C3111 1.398 . S
C3112 C3113 1.391 . S
C3113 H3101 0.950 . S
C3113 C3109 1.393 . S
C3113 C3112 1.391 . S
C3114 H3104 0.950 . S
C3114 C3115 1.386 . S
C3114 C3116 1.391 . S
C3115 C3114 1.386 . S
C3115 C3119 1.393 . S
C3116 H3105 0.950 . S
C3116 C3114 1.391 . S
C3116 C3117 1.400 . S
C3117 C3111 1.491 . S
C3117 C3116 1.400 . S
C3117 C3118 1.398 . S
C3118 H3106 0.950 . S
C3118 C3117 1.398 . S
C3118 C3119 1.391 . S
C3119 H3107 0.950 . S
C3119 C3115 1.393 . S
C3119 C3118 1.391 . S
H3120 C3128 0.950 . S
H3121 C3133 0.950 . S
H3122 C3130 0.950 . S
H3123 C3132 0.950 . S
H3124 C3134 0.950 . S
H3125 C3136 0.950 . S
H3126 C3138 0.950 . S
H3127 C3139 0.950 . S
C3128 H3120 0.950 . S
C3128 C3129 1.386 . S
C3128 C3130 1.391 . S
C3129 C3128 1.386 . S
C3129 C3133 1.393 . S
C3130 H3122 0.950 . S
C3130 C3128 1.391 . S
C3130 C3131 1.400 . S
C3131 C3130 1.400 . S
C3131 C3132 1.398 . S
C3131 C3137 1.491 . S
C3132 H3123 0.950 . S
C3132 C3131 1.398 . S
C3132 C3133 1.391 . S
C3133 H3121 0.950 . S
C3133 C3129 1.393 . S
C3133 C3132 1.391 . S
C3134 H3124 0.950 . S
C3134 C3135 1.386 . S
C3134 C3136 1.391 . S
C3135 C3134 1.386 . S
C3135 C3139 1.393 . S
C3136 H3125 0.950 . S
C3136 C3134 1.391 . S
C3136 C3137 1.400 . S
C3137 C3131 1.491 . S
C3137 C3136 1.400 . S
C3137 C3138 1.398 . S
C3138 H3126 0.950 . S
C3138 C3137 1.398 . S
C3138 C3139 1.391 . S
C3139 H3127 0.950 . S
C3139 C3135 1.393 . S
C3139 C3138 1.391 . S
H3140 C3148 0.950 . S
H3141 C3153 0.950 . S
H3142 C3150 0.950 . S
H3143 C3152 0.950 . S
H3144 C3154 0.950 . S
H3145 C3156 0.950 . S
H3146 C3158 0.950 . S
H3147 C3159 0.950 . S
C3148 H3140 0.950 . S
C3148 C3149 1.386 . S
C3148 C3150 1.391 . S
C3149 C3148 1.386 . S
C3149 C3153 1.393 . S
C3150 H3142 0.950 . S
C3150 C3148 1.391 . S
C3150 C3151 1.400 . S
C3151 C3150 1.400 . S
C3151 C3152 1.398 . S
C3151 C3157 1.491 . S
C3152 H3143 0.950 . S
C3152 C3151 1.398 . S
C3152 C3153 1.391 . S
C3153 H3141 0.950 . S
C3153 C3149 1.393 . S
C3153 C3152 1.391 . S
C3154 H3144 0.950 . S
C3154 C3155 1.386 . S
C3154 C3156 1.391 . S
C3155 C3154 1.386 . S
C3155 C3159 1.393 . S
C3156 H3145 0.950 . S
C3156 C3154 1.391 . S
C3156 C3157 1.400 . S
C3157 C3151 1.491 . S
C3157 C3156 1.400 . S
C3157 C3158 1.398 . S
C3158 H3146 0.950 . S
C3158 C3157 1.398 . S
C3158 C3159 1.391 . S
C3159 H3147 0.950 . S
C3159 C3155 1.393 . S
C3159 C3158 1.391 . S
H3160 C3168 0.950 . S
H3161 C3173 0.950 . S
H3162 C3170 0.950 . S
H3163 C3172 0.950 . S
H3164 C3174 0.950 . S
H3165 C3176 0.950 . S
H3166 C3178 0.950 . S
H3167 C3179 0.950 . S
C3168 H3160 0.950 . S
C3168 C3169 1.386 . S
C3168 C3170 1.391 . S
C3169 C3168 1.386 . S
C3169 C3173 1.393 . S
C3170 H3162 0.950 . S
C3170 C3168 1.391 . S
C3170 C3171 1.400 . S
C3171 C3170 1.400 . S
C3171 C3172 1.398 . S
C3171 C3177 1.491 . S
C3172 H3163 0.950 . S
C3172 C3171 1.398 . S
C3172 C3173 1.391 . S
C3173 H3161 0.950 . S
C3173 C3169 1.393 . S
C3173 C3172 1.391 . S
C3174 H3164 0.950 . S
C3174 C3175 1.386 . S
C3174 C3176 1.391 . S
C3175 C3174 1.386 . S
C3175 C3179 1.393 . S
C3176 H3165 0.950 . S
C3176 C3174 1.391 . S
C3176 C3177 1.400 . S
C3177 C3171 1.491 . S
C3177 C3176 1.400 . S
C3177 C3178 1.398 . S
C3178 H3166 0.950 . S
C3178 C3177 1.398 . S
C3178 C3179 1.391 . S
C3179 H3167 0.950 . S
C3179 C3175 1.393 . S
C3179 C3178 1.391 . S
H3180 C3188 0.950 . S
H3181 C3193 0.950 . S
H3182 C3190 0.950 . S
H3183 C3192 0.950 . S
H3184 C3194 0.950 . S
H3185 C3196 0.950 . S
H3186 C3198 0.950 . S
H3187 C3199 0.950 . S
C3188 H3180 0.950 . S
C3188 C3189 1.386 . S
C3188 C3190 1.391 . S
C3189 C3188 1.386 . S
C3189 C3193 1.393 . S
C3190 H3182 0.950 . S
C3190 C3188 1.391 . S
C3190 C3191 1.400 . S
C3191 C3190 1.400 . S
C3191 C3192 1.398 . S
C3191 C3197 1.491 . S
C3192 H3183 0.950 . S
C3192 C3191 1.398 . S
C3192 C3193 1.391 . S
C3193 H3181 0.950 . S
C3193 C3189 1.393 . S
C3193 C3192 1.391 . S
C3194 H3184 0.950 . S
C3194 C3195 1.386 . S
C3194 C3196 1.391 . S
C3195 C3194 1.386 . S
C3195 C3199 1.393 . S
C3196 H3185 0.950 . S
C3196 C3194 1.391 . S
C3196 C3197 1.400 . S
C3197 C3191 1.491 . S
C3197 C3196 1.400 . S
C3197 C3198 1.398 . S
C3198 H3186 0.950 . S
C3198 C3197 1.398 . S
C3198 C3199 1.391 . S
C3199 H3187 0.950 . S
C3199 C3195 1.393 . S
C3199 C3198 1.391 . S
H3200 C3208 0.950 . S
H3201 C3213 0.950 . S
H3202 C3210 0.950 . S
H3203 C3212 0.950 . S
H3204 C3214 0.950 . S
H3205 C3216 0.950 . S
H3206 C3218 0.950 . S
H3207 C3219 0.950 . S
C3208 H3200 0.950 . S
C3208 C3209 1.386 . S
C3208 C3210 1.391 . S
C3209 C3208 1.386 . S
C3209 C3213 1.393 . S
C3210 H3202 0.950 . S
C3210 C3208 1.391 . S
C3210 C3211 1.400 . S
C3211 C3210 1.400 . S
C3211 C3212 1.398 . S
C3211 C3217 1.491 . S
C3212 H3203 0.950 . S
C3212 C3211 1.398 . S
C3212 C3213 1.391 . S
C3213 H3201 0.950 . S
C3213 C3209 1.393 . S
C3213 C3212 1.391 . S
C3214 H3204 0.950 . S
C3214 C3215 1.385 1_554 S
C3214 C3216 1.391 1_554 S
C3215 C3214 1.385 1_556 S
C3215 C3219 1.393 . S
C3216 H3205 0.950 . S
C3216 C3214 1.391 1_556 S
C3216 C3217 1.400 . S
C3217 C3211 1.491 . S
C3217 C3216 1.400 . S
C3217 C3218 1.398 . S
C3218 H3206 0.950 . S
C3218 C3217 1.398 . S
C3218 C3219 1.391 . S
C3219 H3207 0.950 . S
C3219 C3215 1.393 . S
C3219 C3218 1.391 . S
H3220 C3228 0.950 . S
H3221 C3233 0.950 . S
H3222 C3230 0.950 . S
H3223 C3232 0.950 . S
H3224 C3234 0.950 . S
H3225 C3236 0.950 . S
H3226 C3238 0.950 . S
H3227 C3239 0.950 . S
C3228 H3220 0.950 . S
C3228 C3229 1.386 . S
C3228 C3230 1.391 . S
C3229 C3228 1.386 . S
C3229 C3233 1.393 . S
C3230 H3222 0.950 . S
C3230 C3228 1.391 . S
C3230 C3231 1.400 . S
C3231 C3230 1.400 . S
C3231 C3232 1.398 . S
C3231 C3237 1.491 . S
C3232 H3223 0.950 . S
C3232 C3231 1.398 . S
C3232 C3233 1.391 . S
C3233 H3221 0.950 . S
C3233 C3229 1.393 . S
C3233 C3232 1.391 . S
C3234 H3224 0.950 . S
C3234 C3235 1.386 . S
C3234 C3236 1.391 . S
C3235 C3234 1.386 . S
C3235 C3239 1.393 . S
C3236 H3225 0.950 . S
C3236 C3234 1.391 . S
C3236 C3237 1.400 . S
C3237 C3231 1.491 . S
C3237 C3236 1.400 . S
C3237 C3238 1.398 . S
C3238 H3226 0.950 . S
C3238 C3237 1.398 . S
C3238 C3239 1.391 . S
C3239 H3227 0.950 . S
C3239 C3235 1.393 . S
C3239 C3238 1.391 . S
H3240 C3248 0.950 . S
H3241 C3253 0.950 . S
H3242 C3250 0.950 . S
H3243 C3252 0.950 . S
H3244 C3254 0.950 . S
H3245 C3256 0.950 . S
H3246 C3258 0.950 . S
H3247 C3259 0.950 . S
C3248 H3240 0.950 . S
C3248 C3249 1.386 . S
C3248 C3250 1.391 . S
C3249 C3248 1.386 . S
C3249 C3253 1.393 . S
C3250 H3242 0.950 . S
C3250 C3248 1.391 . S
C3250 C3251 1.400 . S
C3251 C3250 1.400 . S
C3251 C3252 1.398 . S
C3251 C3257 1.491 . S
C3252 H3243 0.950 . S
C3252 C3251 1.398 . S
C3252 C3253 1.391 . S
C3253 H3241 0.950 . S
C3253 C3249 1.393 . S
C3253 C3252 1.391 . S
C3254 H3244 0.950 . S
C3254 C3255 1.386 . S
C3254 C3256 1.391 . S
C3255 C3254 1.386 . S
C3255 C3259 1.393 . S
C3256 H3245 0.950 . S
C3256 C3254 1.391 . S
C3256 C3257 1.400 . S
C3257 C3251 1.491 . S
C3257 C3256 1.400 . S
C3257 C3258 1.398 . S
C3258 H3246 0.950 . S
C3258 C3257 1.398 . S
C3258 C3259 1.391 . S
C3259 H3247 0.950 . S
C3259 C3255 1.393 . S
C3259 C3258 1.391 . S
H3260 C3268 0.950 . S
H3261 C3273 0.950 . S
H3262 C3270 0.950 . S
H3263 C3272 0.950 . S
H3264 C3274 0.950 . S
H3265 C3276 0.950 . S
H3266 C3278 0.950 . S
H3267 C3279 0.950 . S
C3268 H3260 0.950 . S
C3268 C3269 1.386 . S
C3268 C3270 1.391 . S
C3269 C3268 1.386 . S
C3269 C3273 1.393 . S
C3270 H3262 0.950 . S
C3270 C3268 1.391 . S
C3270 C3271 1.400 . S
C3271 C3270 1.400 . S
C3271 C3272 1.398 . S
C3271 C3277 1.491 . S
C3272 H3263 0.950 . S
C3272 C3271 1.398 . S
C3272 C3273 1.391 . S
C3273 H3261 0.950 . S
C3273 C3269 1.393 . S
C3273 C3272 1.391 . S
C3274 H3264 0.950 . S
C3274 C3275 1.386 . S
C3274 C3276 1.391 . S
C3275 C3274 1.386 . S
C3275 C3279 1.393 . S
C3276 H3265 0.950 . S
C3276 C3274 1.391 . S
C3276 C3277 1.400 . S
C3277 C3271 1.491 . S
C3277 C3276 1.400 . S
C3277 C3278 1.398 . S
C3278 H3266 0.950 . S
C3278 C3277 1.398 . S
C3278 C3279 1.391 . S
C3279 H3267 0.950 . S
C3279 C3275 1.393 . S
C3279 C3278 1.391 . S
H3280 C3288 0.950 . S
H3281 C3293 0.950 . S
H3282 C3290 0.950 . S
H3283 C3292 0.950 . S
H3284 C3294 0.950 . S
H3285 C3296 0.950 . S
H3286 C3298 0.950 . S
H3287 C3299 0.950 . S
C3288 H3280 0.950 . S
C3288 C3289 1.386 . S
C3288 C3290 1.391 . S
C3289 C3288 1.386 . S
C3289 C3293 1.393 . S
C3290 H3282 0.950 . S
C3290 C3288 1.391 . S
C3290 C3291 1.400 . S
C3291 C3290 1.400 . S
C3291 C3292 1.398 . S
C3291 C3297 1.491 . S
C3292 H3283 0.950 . S
C3292 C3291 1.398 . S
C3292 C3293 1.391 . S
C3293 H3281 0.950 . S
C3293 C3289 1.393 . S
C3293 C3292 1.391 . S
C3294 H3284 0.950 . S
C3294 C3295 1.386 . S
C3294 C3296 1.391 . S
C3295 C3294 1.386 . S
C3295 C3299 1.393 . S
C3296 H3285 0.950 . S
C3296 C3294 1.391 . S
C3296 C3297 1.400 . S
C3297 C3291 1.491 . S
C3297 C3296 1.400 . S
C3297 C3298 1.398 . S
C3298 H3286 0.950 . S
C3298 C3297 1.398 . S
C3298 C3299 1.391 . S
C3299 H3287 0.950 . S
C3299 C3295 1.393 . S
C3299 C3298 1.391 . S
H3300 C3308 0.950 . S
H3301 C3313 0.950 . S
H3302 C3310 0.950 . S
H3303 C3312 0.950 . S
H3304 C3314 0.950 . S
H3305 C3316 0.950 . S
H3306 C3318 0.950 . S
H3307 C3319 0.950 . S
C3308 H3300 0.950 . S
C3308 C3309 1.386 . S
C3308 C3310 1.391 . S
C3309 C3308 1.386 . S
C3309 C3313 1.393 . S
C3310 H3302 0.950 . S
C3310 C3308 1.391 . S
C3310 C3311 1.400 . S
C3311 C3310 1.400 . S
C3311 C3312 1.398 . S
C3311 C3317 1.491 . S
C3312 H3303 0.950 . S
C3312 C3311 1.398 . S
C3312 C3313 1.391 . S
C3313 H3301 0.950 . S
C3313 C3309 1.393 . S
C3313 C3312 1.391 . S
C3314 H3304 0.950 . S
C3314 C3315 1.386 . S
C3314 C3316 1.391 . S
C3315 C3314 1.386 . S
C3315 C3319 1.393 . S
C3316 H3305 0.950 . S
C3316 C3314 1.391 . S
C3316 C3317 1.400 . S
C3317 C3311 1.491 . S
C3317 C3316 1.400 . S
C3317 C3318 1.398 . S
C3318 H3306 0.950 . S
C3318 C3317 1.398 . S
C3318 C3319 1.391 . S
C3319 H3307 0.950 . S
C3319 C3315 1.393 . S
C3319 C3318 1.391 . S
H3320 C3328 0.950 . S
H3321 C3333 0.950 . S
H3322 C3330 0.950 . S
H3323 C3332 0.950 1_455 S
H3324 C3334 0.950 . S
H3325 C3336 0.950 . S
H3326 C3338 0.950 . S
H3327 C3339 0.950 1_554 S
C3328 H3320 0.950 . S
C3328 C3329 1.386 . S
C3328 C3330 1.391 . S
C3329 C3328 1.386 . S
C3329 C3333 1.393 . S
C3330 H3322 0.950 . S
C3330 C3328 1.391 . S
C3330 C3331 1.400 . S
C3331 C3330 1.400 . S
C3331 C3332 1.398 . S
C3331 C3337 1.491 1_655 S
C3332 H3323 0.950 1_655 S
C3332 C3331 1.398 . S
C3332 C3333 1.391 . S
C3333 H3321 0.950 . S
C3333 C3329 1.393 . S
C3333 C3332 1.391 . S
C3334 H3324 0.950 . S
C3334 C3335 1.386 . S
C3334 C3336 1.391 . S
C3335 C3334 1.386 . S
C3335 C3339 1.393 . S
C3336 H3325 0.950 . S
C3336 C3334 1.391 . S
C3336 C3337 1.400 . S
C3337 C3331 1.491 1_455 S
C3337 C3336 1.400 . S
C3337 C3338 1.398 1_455 S
C3338 H3326 0.950 . S
C3338 C3337 1.398 1_655 S
C3338 C3339 1.391 1_655 S
C3339 H3327 0.950 1_556 S
C3339 C3335 1.393 . S
C3339 C3338 1.391 1_455 S
H3340 C3348 0.950 . S
H3341 C3353 0.950 . S
H3342 C3350 0.950 . S
H3343 C3352 0.950 . S
H3344 C3354 0.950 . S
H3345 C3356 0.950 . S
H3346 C3358 0.950 . S
H3347 C3359 0.950 . S
C3348 H3340 0.950 . S
C3348 C3349 1.386 . S
C3348 C3350 1.391 . S
C3349 C3348 1.386 . S
C3349 C3353 1.393 . S
C3350 H3342 0.950 . S
C3350 C3348 1.391 . S
C3350 C3351 1.400 . S
C3351 C3350 1.400 . S
C3351 C3352 1.398 . S
C3351 C3357 1.491 . S
C3352 H3343 0.950 . S
C3352 C3351 1.398 . S
C3352 C3353 1.391 . S
C3353 H3341 0.950 . S
C3353 C3349 1.393 . S
C3353 C3352 1.391 . S
C3354 H3344 0.950 . S
C3354 C3355 1.386 . S
C3354 C3356 1.391 . S
C3355 C3354 1.386 . S
C3355 C3359 1.393 . S
C3356 H3345 0.950 . S
C3356 C3354 1.391 . S
C3356 C3357 1.400 . S
C3357 C3351 1.491 . S
C3357 C3356 1.400 . S
C3357 C3358 1.398 . S
C3358 H3346 0.950 . S
C3358 C3357 1.398 . S
C3358 C3359 1.391 . S
C3359 H3347 0.950 . S
C3359 C3355 1.393 . S
C3359 C3358 1.391 . S
H3360 C3368 0.950 . S
H3361 C3373 0.950 . S
H3362 C3370 0.950 . S
H3363 C3372 0.950 . S
H3364 C3374 0.950 . S
H3365 C3376 0.950 . S
H3366 C3378 0.950 . S
H3367 C3379 0.950 . S
C3368 H3360 0.950 . S
C3368 C3369 1.386 . S
C3368 C3370 1.391 . S
C3369 C3368 1.386 . S
C3369 C3373 1.393 . S
C3370 H3362 0.950 . S
C3370 C3368 1.391 . S
C3370 C3371 1.400 . S
C3371 C3370 1.400 . S
C3371 C3372 1.398 . S
C3371 C3377 1.491 . S
C3372 H3363 0.950 . S
C3372 C3371 1.398 . S
C3372 C3373 1.391 . S
C3373 H3361 0.950 . S
C3373 C3369 1.393 . S
C3373 C3372 1.391 . S
C3374 H3364 0.950 . S
C3374 C3375 1.386 . S
C3374 C3376 1.391 . S
C3375 C3374 1.386 . S
C3375 C3379 1.393 . S
C3376 H3365 0.950 . S
C3376 C3374 1.391 . S
C3376 C3377 1.400 . S
C3377 C3371 1.491 . S
C3377 C3376 1.400 . S
C3377 C3378 1.398 . S
C3378 H3366 0.950 . S
C3378 C3377 1.398 . S
C3378 C3379 1.391 . S
C3379 H3367 0.950 . S
C3379 C3375 1.393 . S
C3379 C3378 1.391 . S
H3380 C3388 0.950 . S
H3381 C3393 0.950 . S
H3382 C3390 0.950 . S
H3383 C3392 0.950 . S
H3384 C3394 0.950 . S
H3385 C3396 0.950 . S
H3386 C3398 0.950 . S
H3387 C3399 0.950 . S
C3388 H3380 0.950 . S
C3388 C3389 1.386 . S
C3388 C3390 1.391 . S
C3389 C3388 1.386 . S
C3389 C3393 1.393 . S
C3390 H3382 0.950 . S
C3390 C3388 1.391 . S
C3390 C3391 1.400 . S
C3391 C3390 1.400 . S
C3391 C3392 1.398 . S
C3391 C3397 1.491 . S
C3392 H3383 0.950 . S
C3392 C3391 1.398 . S
C3392 C3393 1.391 . S
C3393 H3381 0.950 . S
C3393 C3389 1.393 . S
C3393 C3392 1.391 . S
C3394 H3384 0.950 . S
C3394 C3395 1.386 . S
C3394 C3396 1.391 . S
C3395 C3394 1.386 . S
C3395 C3399 1.393 . S
C3396 H3385 0.950 . S
C3396 C3394 1.391 . S
C3396 C3397 1.400 . S
C3397 C3391 1.491 . S
C3397 C3396 1.400 . S
C3397 C3398 1.398 . S
C3398 H3386 0.950 . S
C3398 C3397 1.398 . S
C3398 C3399 1.391 . S
C3399 H3387 0.950 . S
C3399 C3395 1.393 . S
C3399 C3398 1.391 . S
H3400 C3408 0.950 . S
H3401 C3413 0.950 . S
H3402 C3410 0.950 . S
H3403 C3412 0.950 . S
H3404 C3414 0.950 . S
H3405 C3416 0.950 . S
H3406 C3418 0.949 . S
H3407 C3419 0.950 . S
C3408 H3400 0.950 . S
C3408 C3409 1.386 . S
C3408 C3410 1.391 . S
C3409 C3408 1.386 . S
C3409 C3413 1.393 . S
C3410 H3402 0.950 . S
C3410 C3408 1.391 . S
C3410 C3411 1.400 . S
C3411 C3410 1.400 . S
C3411 C3412 1.398 . S
C3411 C3417 1.491 . S
C3412 H3403 0.950 . S
C3412 C3411 1.398 . S
C3412 C3413 1.391 . S
C3413 H3401 0.950 . S
C3413 C3409 1.393 . S
C3413 C3412 1.391 . S
C3414 H3404 0.950 . S
C3414 C3415 1.386 1_655 S
C3414 C3416 1.391 . S
C3415 C3414 1.386 1_455 S
C3415 C3419 1.393 . S
C3416 H3405 0.950 . S
C3416 C3414 1.391 . S
C3416 C3417 1.400 . S
C3417 C3411 1.491 . S
C3417 C3416 1.400 . S
C3417 C3418 1.398 . S
C3418 H3406 0.949 . S
C3418 C3417 1.398 . S
C3418 C3419 1.391 1_655 S
C3419 H3407 0.950 . S
C3419 C3415 1.393 . S
C3419 C3418 1.391 1_455 S
H3420 C3428 0.950 . S
H3421 C3433 0.950 . S
H3422 C3430 0.950 . S
H3423 C3432 0.950 . S
H3424 C3434 0.950 . S
H3425 C3436 0.950 . S
H3426 C3438 0.950 . S
H3427 C3439 0.950 . S
C3428 H3420 0.950 . S
C3428 C3429 1.386 . S
C3428 C3430 1.391 . S
C3429 C3428 1.386 . S
C3429 C3433 1.393 . S
C3430 H3422 0.950 . S
C3430 C3428 1.391 . S
C3430 C3431 1.400 . S
C3431 C3430 1.400 . S
C3431 C3432 1.398 . S
C3431 C3437 1.491 . S
C3432 H3423 0.950 . S
C3432 C3431 1.398 . S
C3432 C3433 1.391 . S
C3433 H3421 0.950 . S
C3433 C3429 1.393 . S
C3433 C3432 1.391 . S
C3434 H3424 0.950 . S
C3434 C3435 1.386 . S
C3434 C3436 1.391 . S
C3435 C3434 1.386 . S
C3435 C3439 1.393 . S
C3436 H3425 0.950 . S
C3436 C3434 1.391 . S
C3436 C3437 1.400 . S
C3437 C3431 1.491 . S
C3437 C3436 1.400 . S
C3437 C3438 1.398 . S
C3438 H3426 0.950 . S
C3438 C3437 1.398 . S
C3438 C3439 1.391 . S
C3439 H3427 0.950 . S
C3439 C3435 1.393 . S
C3439 C3438 1.391 . S
H3440 C3448 0.950 . S
H3441 C3453 0.950 . S
H3442 C3450 0.950 . S
H3443 C3452 0.950 . S
H3444 C3454 0.950 . S
H3445 C3456 0.950 . S
H3446 C3458 0.950 . S
H3447 C3459 0.950 . S
C3448 H3440 0.950 . S
C3448 C3449 1.386 . S
C3448 C3450 1.391 . S
C3449 C3448 1.386 . S
C3449 C3453 1.393 . S
C3450 H3442 0.950 . S
C3450 C3448 1.391 . S
C3450 C3451 1.400 . S
C3451 C3450 1.400 . S
C3451 C3452 1.398 . S
C3451 C3457 1.491 . S
C3452 H3443 0.950 . S
C3452 C3451 1.398 . S
C3452 C3453 1.391 . S
C3453 H3441 0.950 . S
C3453 C3449 1.393 . S
C3453 C3452 1.391 . S
C3454 H3444 0.950 . S
C3454 C3455 1.386 . S
C3454 C3456 1.391 . S
C3455 C3454 1.386 . S
C3455 C3459 1.393 . S
C3456 H3445 0.950 . S
C3456 C3454 1.391 . S
C3456 C3457 1.400 . S
C3457 C3451 1.491 . S
C3457 C3456 1.400 . S
C3457 C3458 1.398 . S
C3458 H3446 0.950 . S
C3458 C3457 1.398 . S
C3458 C3459 1.391 . S
C3459 H3447 0.950 . S
C3459 C3455 1.393 . S
C3459 C3458 1.391 . S
H3460 C3468 0.950 . S
H3461 C3473 0.950 . S
H3462 C3470 0.950 . S
H3463 C3472 0.950 . S
H3464 C3474 0.950 . S
H3465 C3476 0.950 . S
H3466 C3478 0.950 . S
H3467 C3479 0.950 1_455 S
C3468 H3460 0.950 . S
C3468 C3469 1.386 . S
C3468 C3470 1.391 . S
C3469 C3468 1.386 . S
C3469 C3473 1.393 . S
C3470 H3462 0.950 . S
C3470 C3468 1.391 . S
C3470 C3471 1.400 . S
C3471 C3470 1.400 . S
C3471 C3472 1.398 . S
C3471 C3477 1.491 . S
C3472 H3463 0.950 . S
C3472 C3471 1.398 . S
C3472 C3473 1.391 . S
C3473 H3461 0.950 . S
C3473 C3469 1.393 . S
C3473 C3472 1.391 . S
C3474 H3464 0.950 . S
C3474 C3475 1.386 1_545 S
C3474 C3476 1.391 1_545 S
C3475 C3474 1.386 1_565 S
C3475 C3479 1.393 . S
C3476 H3465 0.950 . S
C3476 C3474 1.391 1_565 S
C3476 C3477 1.400 . S
C3477 C3471 1.491 . S
C3477 C3476 1.400 . S
C3477 C3478 1.398 . S
C3478 H3466 0.950 . S
C3478 C3477 1.398 . S
C3478 C3479 1.391 . S
C3479 H3467 0.950 1_655 S
C3479 C3475 1.393 . S
C3479 C3478 1.391 . S
H3480 C3488 0.950 . S
H3481 C3493 0.950 . S
H3482 C3490 0.950 . S
H3483 C3492 0.950 . S
H3484 C3494 0.950 . S
H3485 C3496 0.950 . S
H3486 C3498 0.950 . S
H3487 C3499 0.950 . S
C3488 H3480 0.950 . S
C3488 C3489 1.386 . S
C3488 C3490 1.391 . S
C3489 C3488 1.386 . S
C3489 C3493 1.393 . S
C3490 H3482 0.950 . S
C3490 C3488 1.391 . S
C3490 C3491 1.400 . S
C3491 C3490 1.400 . S
C3491 C3492 1.398 . S
C3491 C3497 1.491 . S
C3492 H3483 0.950 . S
C3492 C3491 1.398 . S
C3492 C3493 1.391 . S
C3493 H3481 0.950 . S
C3493 C3489 1.393 . S
C3493 C3492 1.391 . S
C3494 H3484 0.950 . S
C3494 C3495 1.386 . S
C3494 C3496 1.391 . S
C3495 C3494 1.386 . S
C3495 C3499 1.393 . S
C3496 H3485 0.950 . S
C3496 C3494 1.391 . S
C3496 C3497 1.400 . S
C3497 C3491 1.491 . S
C3497 C3496 1.400 . S
C3497 C3498 1.398 . S
C3498 H3486 0.950 . S
C3498 C3497 1.398 . S
C3498 C3499 1.391 . S
C3499 H3487 0.950 . S
C3499 C3495 1.393 . S
C3499 C3498 1.391 . S
H3500 C3508 0.979 . S
H3501 C3513 0.950 . S
H3502 C3510 0.950 . S
H3503 C3512 0.950 . S
H3504 C3514 0.950 . S
H3505 C3516 0.950 . S
H3506 C3518 0.950 . S
H3507 C3519 0.950 . S
C3508 H3500 0.979 . S
C3508 C3509 1.386 . S
C3508 C3510 1.391 . S
C3509 C3508 1.386 . S
C3509 C3513 1.393 . S
C3510 H3502 0.950 . S
C3510 C3508 1.391 . S
C3510 C3511 1.400 . S
C3511 C3510 1.400 . S
C3511 C3512 1.398 . S
C3511 C3517 1.491 . S
C3512 H3503 0.950 . S
C3512 C3511 1.398 . S
C3512 C3513 1.391 . S
C3513 H3501 0.950 . S
C3513 C3509 1.393 . S
C3513 C3512 1.391 . S
C3514 H3504 0.950 . S
C3514 C3515 1.386 . S
C3514 C3516 1.391 . S
C3515 C3514 1.386 . S
C3515 C3519 1.393 . S
C3516 H3505 0.950 . S
C3516 C3514 1.391 . S
C3516 C3517 1.400 . S
C3517 C3511 1.491 . S
C3517 C3516 1.400 . S
C3517 C3518 1.398 . S
C3518 H3506 0.950 . S
C3518 C3517 1.398 . S
C3518 C3519 1.391 . S
C3519 H3507 0.950 . S
C3519 C3515 1.393 . S
C3519 C3518 1.391 . S
H3520 C3528 0.950 . S
H3521 C3533 0.950 . S
H3522 C3530 0.950 . S
H3523 C3532 0.950 . S
H3524 C3534 0.950 . S
H3525 C3536 0.950 . S
H3526 C3538 0.950 . S
H3527 C3539 0.950 . S
C3528 H3520 0.950 . S
C3528 C3529 1.386 . S
C3528 C3530 1.391 . S
C3529 C3528 1.386 . S
C3529 C3533 1.393 . S
C3530 H3522 0.950 . S
C3530 C3528 1.391 . S
C3530 C3531 1.400 . S
C3531 C3530 1.400 . S
C3531 C3532 1.398 . S
C3531 C3537 1.491 . S
C3532 H3523 0.950 . S
C3532 C3531 1.398 . S
C3532 C3533 1.391 . S
C3533 H3521 0.950 . S
C3533 C3529 1.393 . S
C3533 C3532 1.391 . S
C3534 H3524 0.950 . S
C3534 C3535 1.386 . S
C3534 C3536 1.391 . S
C3535 C3534 1.386 . S
C3535 C3539 1.393 . S
C3536 H3525 0.950 . S
C3536 C3534 1.391 . S
C3536 C3537 1.400 . S
C3537 C3531 1.491 . S
C3537 C3536 1.400 . S
C3537 C3538 1.398 . S
C3538 H3526 0.950 . S
C3538 C3537 1.398 . S
C3538 C3539 1.391 . S
C3539 H3527 0.950 . S
C3539 C3535 1.393 . S
C3539 C3538 1.391 . S
H3540 C3548 0.950 . S
H3541 C3553 0.950 . S
H3542 C3550 0.950 . S
H3543 C3552 0.950 . S
H3544 C3554 0.980 . S
H3545 C3556 0.950 . S
H3546 C3558 0.950 . S
H3547 C3559 0.950 . S
C3548 H3540 0.950 . S
C3548 C3549 1.386 . S
C3548 C3550 1.391 . S
C3549 C3548 1.386 . S
C3549 C3553 1.393 . S
C3550 H3542 0.950 . S
C3550 C3548 1.391 . S
C3550 C3551 1.400 . S
C3551 C3550 1.400 . S
C3551 C3552 1.398 . S
C3551 C3557 1.491 . S
C3552 H3543 0.950 . S
C3552 C3551 1.398 . S
C3552 C3553 1.391 . S
C3553 H3541 0.950 . S
C3553 C3549 1.393 . S
C3553 C3552 1.391 . S
C3554 H3544 0.980 . S
C3554 C3555 1.386 . S
C3554 C3556 1.391 . S
C3555 C3554 1.386 . S
C3555 C3559 1.393 . S
C3556 H3545 0.950 . S
C3556 C3554 1.391 . S
C3556 C3557 1.400 . S
C3557 C3551 1.491 . S
C3557 C3556 1.400 . S
C3557 C3558 1.398 . S
C3558 H3546 0.950 . S
C3558 C3557 1.398 . S
C3558 C3559 1.391 . S
C3559 H3547 0.950 . S
C3559 C3555 1.393 . S
C3559 C3558 1.391 . S
H3560 C3568 0.950 . S
H3561 C3573 0.950 . S
H3562 C3570 0.950 . S
H3563 C3572 0.950 . S
H3564 C3574 0.950 . S
H3565 C3576 0.950 . S
H3566 C3578 0.950 . S
H3567 C3579 0.950 . S
C3568 H3560 0.950 . S
C3568 C3569 1.386 . S
C3568 C3570 1.391 . S
C3569 C3568 1.386 . S
C3569 C3573 1.393 . S
C3570 H3562 0.950 . S
C3570 C3568 1.391 . S
C3570 C3571 1.400 . S
C3571 C3570 1.400 . S
C3571 C3572 1.398 . S
C3571 C3577 1.491 . S
C3572 H3563 0.950 . S
C3572 C3571 1.398 . S
C3572 C3573 1.391 . S
C3573 H3561 0.950 . S
C3573 C3569 1.393 . S
C3573 C3572 1.391 . S
C3574 H3564 0.950 . S
C3574 C3575 1.386 . S
C3574 C3576 1.391 . S
C3575 C3574 1.386 . S
C3575 C3579 1.393 . S
C3576 H3565 0.950 . S
C3576 C3574 1.391 . S
C3576 C3577 1.400 . S
C3577 C3571 1.491 . S
C3577 C3576 1.400 . S
C3577 C3578 1.398 . S
C3578 H3566 0.950 . S
C3578 C3577 1.398 . S
C3578 C3579 1.391 . S
C3579 H3567 0.950 . S
C3579 C3575 1.393 . S
C3579 C3578 1.391 . S
H3580 C3588 0.950 . S
H3581 C3593 0.950 . S
H3582 C3590 0.950 . S
H3583 C3592 0.950 . S
H3584 C3594 0.950 . S
H3585 C3596 0.950 . S
H3586 C3598 0.950 . S
H3587 C3599 0.950 . S
C3588 H3580 0.950 . S
C3588 C3589 1.386 . S
C3588 C3590 1.391 . S
C3589 C3588 1.386 . S
C3589 C3593 1.393 . S
C3590 H3582 0.950 . S
C3590 C3588 1.391 . S
C3590 C3591 1.400 . S
C3591 C3590 1.400 . S
C3591 C3592 1.398 . S
C3591 C3597 1.491 . S
C3592 H3583 0.950 . S
C3592 C3591 1.398 . S
C3592 C3593 1.391 . S
C3593 H3581 0.950 . S
C3593 C3589 1.393 . S
C3593 C3592 1.391 . S
C3594 H3584 0.950 . S
C3594 C3595 1.386 . S
C3594 C3596 1.391 . S
C3595 C3594 1.386 . S
C3595 C3599 1.393 . S
C3596 H3585 0.950 . S
C3596 C3594 1.391 . S
C3596 C3597 1.400 . S
C3597 C3591 1.491 . S
C3597 C3596 1.400 . S
C3597 C3598 1.398 . S
C3598 H3586 0.950 . S
C3598 C3597 1.398 . S
C3598 C3599 1.391 . S
C3599 H3587 0.950 . S
C3599 C3595 1.393 . S
C3599 C3598 1.391 . S
C1689 C106 2.120 . S
C1695 C392 1.993 . S
C1709 C65 2.231 . S
C1715 C483 2.158 . S
C1729 C79 1.847 . S
C1735 C560 1.719 . S
C1755 C658 1.244 . S
C1749 C90 1.352 . S
C1769 C21 1.315 . S
C1775 C742 1.302 . S
C1795 C814 0.920 . S
C1789 C35 0.971 . S
C1815 C903 0.869 . S
C1809 C50 0.894 . S
C1829 C6 1.528 . S
C1835 C980 1.398 . S
C1855 C399 2.196 . S
C1849 C232 2.312 . S
C1869 C245 0.714 . S
C1875 C490 0.728 . S
C1895 C567 1.223 . S
C1889 C274 1.298 . S
C1915 C644 1.522 . S
C1909 C175 1.615 . S
C1929 C231 1.848 . S
C1935 C728 1.766 . S
C1955 C830 1.100 . S
C1949 C246 1.189 . S
C1975 C910 0.696 . S
C1969 C273 0.682 . S
C1995 C987 1.643 . S
C1989 C176 1.773 . S
C2015 C406 1.436 . S
C2009 C160 1.489 . S
C2029 C289 1.949 . S
C2035 C1071 1.868 . S
C2055 C1159 2.265 . S
C2049 C328 2.382 . S
C2075 C1232 0.687 . S
C2069 C317 0.679 . S
C2089 C118 1.035 . S
C2095 C994 1.190 . S
C2109 C132 1.413 . S
C2115 C574 1.477 . S
C2129 C331 2.332 . S
C2135 C1323 2.247 . S
C2155 C1400 0.943 . S
C2149 C303 1.025 . S
C2175 C403 1.610 1_565 S
C2169 C63 1.747 . S
C2195 C1418 2.587 . S
C2189 C107 2.569 . S
C2209 C92 1.663 . S
C2215 C571 1.646 . S
C2229 C78 1.925 . S
C2235 C1318 1.745 . S
C2255 C730 1.729 . S
C2249 C8 1.830 . S
C2269 C51 1.225 . S
C2275 C1162 1.146 . S
C2295 C914 1.379 1_566 S
C2289 C37 1.322 . S
C2315 C1495 1.347 . S
C2309 C20 1.467 . S
C2335 C410 2.060 . S
C2329 C147 2.133 . S
C2355 C1402 0.825 . S
C2349 C316 0.854 . S
C2369 C119 1.167 . S
C2375 C578 1.159 . S
C2389 C288 1.768 . S
C2395 C1327 1.692 . S
C2409 C148 2.328 1_545 S
C2415 C739 2.141 . S
C2435 C1155 1.144 . S
C2429 C315 1.183 . S
C2449 C120 0.960 . S
C2455 C898 0.918 . S
C2469 C287 1.632 . S
C2475 C1502 1.535 . S
C2489 C188 1.356 . S
C2495 C394 1.304 . S
C2509 C177 2.253 . S
C2515 C1082 2.215 . S
C2529 C258 2.510 . S
C2535 C812 2.417 . S
C2549 C247 0.648 . S
C2555 C1243 0.683 . S
C2575 C1486 0.828 . S
C2569 C272 0.779 1_565 S
C2589 C216 1.330 . S
C2595 C562 1.338 . S
C2615 C662 2.476 . S
C2609 C261 2.531 . S
C2635 C487 0.906 . S
C2629 C205 0.923 . S
C2649 C76 1.726 . S
C2655 C1568 1.626 . S
C2675 C1407 2.231 . S
C2669 C93 2.316 . S
C2689 C105 1.486 . S
C2695 C1652 1.369 . S
C2709 C62 1.392 . S
C2715 C1330 1.286 . S
C2729 C49 1.291 . S
C2735 C1078 1.287 . S
C2755 C1150 1.252 . S
C2749 C9 1.293 . S
C2775 C1239 0.808 . S
C2769 C22 0.831 . S
C2795 C1484 1.746 . S
C2789 C36 1.954 . S
C2815 C1575 2.133 . S
C2809 C260 2.234 . S
C2829 C189 0.674 . S
C2835 C1414 0.671 . S
C2855 C1659 1.180 . S
C2849 C204 1.225 . S
C2875 C1316 1.378 . S
C2869 C217 1.463 . S
C2895 C1064 2.000 . S
C2889 C259 2.094 . S
C2909 C190 1.241 . S
C2915 C1166 1.158 . S
C2935 C1246 0.789 . S
C2929 C203 0.773 . S
C2949 C218 1.866 . S
C2955 C1491 1.730 . S
C2975 C1582 1.434 . S
C2969 C314 1.426 . S
C2989 C135 2.043 . S
C2995 C735 1.968 . S
C3015 C823 2.167 . S
C3009 C146 2.287 . S
C3035 C896 0.685 . S
C3029 C163 0.697 . S
C3055 C1498 1.166 . S
C3049 C300 1.031 . S
C3069 C286 1.390 . S
C3075 C1666 1.468 . S
C3095 C651 2.161 . S
C3089 C149 2.231 . S
C3115 C476 0.883 . S
C3109 C121 0.965 . S
C3129 C91 1.737 . S
C3135 C1579 1.619 . S
C3155 C494 2.175 . S
C3149 C77 2.121 . S
C3169 C64 1.631 . S
C3175 C1663 1.635 . S
C3189 C104 1.555 . S
C3195 C646 1.482 . S
C3209 C34 1.459 . S
C3215 C1066 1.445 1_556 S
C3235 C826 1.083 . S
C3229 C23 1.197 . S
C3249 C7 0.961 . S
C3255 C1250 1.062 . S
C3269 C48 1.413 . S
C3275 C991 1.295 . S
C3295 C1586 2.040 . S
C3289 C329 2.105 . S
C3309 C162 0.892 . S
C3315 C478 0.882 . S
C3335 C1670 1.172 1_556 S
C3329 C301 1.130 . S
C3349 C134 1.782 . S
C3355 C655 1.724 . S
C3369 C330 2.289 . S
C3375 C1075 2.118 . S
C3395 C819 1.135 . S
C3389 C161 1.184 . S
C3409 C302 1.001 . S
C3415 C1234 0.965 . S
C3435 C998 1.510 . S
C3429 C133 1.628 . S
C3455 C1570 1.444 . S
C3449 C244 1.544 . S
C3475 C746 2.157 1_665 S
C3469 C219 2.181 . S
C3489 C230 2.206 . S
C3495 C1148 2.086 . S
C3515 C907 0.670 . S
C3509 C191 0.661 . S
C3529 C202 0.935 . S
C3535 C982 0.943 . S
C3549 C174 1.502 . S
C3555 C1654 1.492 . S
C3575 C1334 2.443 . S
C3569 C233 2.492 1_565 S
C3595 C1411 0.856 . S
C3589 C275 0.934 . S
