# Generated by pormake.
# Topology pto, (3,4)-cn, num edge types: 1
# Building blocks:
#     Node 0, Type 0, BuildingBlock: OLANEW_clean_sbu_2, # of connection points: 3
#     Node 1, Type 0, BuildingBlock: OLANEW_clean_sbu_2, # of connection points: 3
#     Node 2, Type 0, BuildingBlock: OLANEW_clean_sbu_2, # of connection points: 3
#     Node 3, Type 0, BuildingBlock: OLANEW_clean_sbu_2, # of connection points: 3
#     Node 4, Type 0, BuildingBlock: OLANEW_clean_sbu_2, # of connection points: 3
#     Node 5, Type 0, BuildingBlock: OLANEW_clean_sbu_2, # of connection points: 3
#     Node 6, Type 0, BuildingBlock: OLANEW_clean_sbu_2, # of connection points: 3
#     Node 7, Type 0, BuildingBlock: OLANEW_clean_sbu_2, # of connection points: 3
#     Node 8, Type 1, BuildingBlock: NAWXER_clean_sbu_0, # of connection points: 4
#     Node 9, Type 1, BuildingBlock: NAWXER_clean_sbu_0, # of connection points: 4
#     Node 10, Type 1, BuildingBlock: NAWXER_clean_sbu_0, # of connection points: 4
#     Node 11, Type 1, BuildingBlock: NAWXER_clean_sbu_0, # of connection points: 4
#     Node 12, Type 1, BuildingBlock: NAWXER_clean_sbu_0, # of connection points: 4
#     Node 13, Type 1, BuildingBlock: NAWXER_clean_sbu_0, # of connection points: 4
#     Edge 14, Type (0, 1), BuildingBlock: TEMPAE_clean_linker_10, # of connection points: 2
#     Edge 15, Type (0, 1), BuildingBlock: TEMPAE_clean_linker_10, # of connection points: 2
#     Edge 16, Type (0, 1), BuildingBlock: TEMPAE_clean_linker_10, # of connection points: 2
#     Edge 17, Type (0, 1), BuildingBlock: TEMPAE_clean_linker_10, # of connection points: 2
#     Edge 18, Type (0, 1), BuildingBlock: TEMPAE_clean_linker_10, # of connection points: 2
#     Edge 19, Type (0, 1), BuildingBlock: TEMPAE_clean_linker_10, # of connection points: 2
#     Edge 20, Type (0, 1), BuildingBlock: TEMPAE_clean_linker_10, # of connection points: 2
#     Edge 21, Type (0, 1), BuildingBlock: TEMPAE_clean_linker_10, # of connection points: 2
#     Edge 22, Type (0, 1), BuildingBlock: TEMPAE_clean_linker_10, # of connection points: 2
#     Edge 23, Type (0, 1), BuildingBlock: TEMPAE_clean_linker_10, # of connection points: 2
#     Edge 24, Type (0, 1), BuildingBlock: TEMPAE_clean_linker_10, # of connection points: 2
#     Edge 25, Type (0, 1), BuildingBlock: TEMPAE_clean_linker_10, # of connection points: 2
#     Edge 26, Type (0, 1), BuildingBlock: TEMPAE_clean_linker_10, # of connection points: 2
#     Edge 27, Type (0, 1), BuildingBlock: TEMPAE_clean_linker_10, # of connection points: 2
#     Edge 28, Type (0, 1), BuildingBlock: TEMPAE_clean_linker_10, # of connection points: 2
#     Edge 29, Type (0, 1), BuildingBlock: TEMPAE_clean_linker_10, # of connection points: 2
#     Edge 30, Type (0, 1), BuildingBlock: TEMPAE_clean_linker_10, # of connection points: 2
#     Edge 31, Type (0, 1), BuildingBlock: TEMPAE_clean_linker_10, # of connection points: 2
#     Edge 32, Type (0, 1), BuildingBlock: TEMPAE_clean_linker_10, # of connection points: 2
#     Edge 33, Type (0, 1), BuildingBlock: TEMPAE_clean_linker_10, # of connection points: 2
#     Edge 34, Type (0, 1), BuildingBlock: TEMPAE_clean_linker_10, # of connection points: 2
#     Edge 35, Type (0, 1), BuildingBlock: TEMPAE_clean_linker_10, # of connection points: 2
#     Edge 36, Type (0, 1), BuildingBlock: TEMPAE_clean_linker_10, # of connection points: 2
#     Edge 37, Type (0, 1), BuildingBlock: TEMPAE_clean_linker_10, # of connection points: 2
# Relax obj value: 0.012
# Max RMSD: 0.129
# Mean RMSD: 0.056
data_MOF--net-pto--node1-OLANEW_clean_sbu_2--node2-NAWXER_clean_sbu_0--edge1-TEMPAE_clean_linker_10
_symmetry_space_group_name_H-M    P1
_symmetry_Int_Tables_number       1
_symmetry_cell_setting            triclinic
loop_
_symmetry_equiv_pos_as_xyz
'x, y, z'
_cell_length_a     45.259131
_cell_length_b     44.579085
_cell_length_c     40.813125
_cell_angle_alpha  93.020886
_cell_angle_beta   90.42026
_cell_angle_gamma 103.35411
loop_
_atom_site_label
_atom_site_type_symbol
_atom_site_fract_x
_atom_site_fract_y
_atom_site_fract_z
_atom_type_partial_charge
O0 O 0.33093 0.37933 0.2743 0.0
Cd1 Cd 0.29201 0.37271 0.31636 0.0
O2 O 0.31482 0.41647 0.25162 0.0
Cd3 Cd 0.27789 0.41719 0.28564 0.0
O4 O 0.23538 0.42704 0.30307 0.0
C5 C 0.2339 0.45518 0.30572 0.0
O6 O 0.25828 0.47657 0.29978 0.0
C7 C 0.33319 0.3988 0.25222 0.0
C8 C 0.29046 0.32013 0.35131 0.0
O9 O 0.27522 0.3185 0.32443 0.0
O10 O 0.30642 0.34662 0.36165 0.0
O11 O 0.33425 0.92838 0.86366 0.0
Cd12 Cd 0.28388 0.93121 0.84312 0.0
O13 O 0.33626 0.88807 0.831 0.0
Cd14 Cd 0.28857 0.87913 0.81609 0.0
O15 O 0.24257 0.85021 0.81161 0.0
C16 C 0.23969 0.82346 0.82232 0.0
O17 O 0.26373 0.81613 0.83492 0.0
C18 C 0.34876 0.90892 0.85248 0.0
C19 C 0.28526 0.95853 0.78279 0.0
O20 O 0.28854 0.97492 0.80991 0.0
O21 O 0.28151 0.92925 0.78418 0.0
O22 O 0.85752 0.85429 0.27808 0.0
Cd23 Cd 0.84971 0.81512 0.23263 0.0
O24 O 0.81775 0.82923 0.30403 0.0
Cd25 Cd 0.79913 0.80117 0.26002 0.0
O26 O 0.76807 0.79662 0.21786 0.0
C27 C 0.74481 0.80748 0.22308 0.0
O28 O 0.74109 0.81898 0.25267 0.0
C29 C 0.84118 0.85135 0.30345 0.0
C30 C 0.87099 0.7636 0.24881 0.0
O31 O 0.88842 0.78671 0.23602 0.0
O32 O 0.84338 0.7648 0.25394 0.0
O33 O 0.79766 0.35201 0.75209 0.0
Cd34 Cd 0.75291 0.30887 0.74962 0.0
O35 O 0.8134 0.34155 0.80036 0.0
Cd36 Cd 0.76833 0.3139 0.81019 0.0
O37 O 0.72429 0.31566 0.83068 0.0
C38 C 0.72306 0.32046 0.86156 0.0
O39 O 0.74756 0.322 0.87964 0.0
C40 C 0.81781 0.35707 0.77488 0.0
C41 C 0.76272 0.25995 0.70862 0.0
O42 O 0.75246 0.28186 0.69716 0.0
O43 O 0.76821 0.26105 0.73957 0.0
O44 O 0.75115 0.77487 0.64395 0.0
Cd45 Cd 0.74816 0.7282 0.67398 0.0
O46 O 0.72465 0.79315 0.68185 0.0
Cd47 Cd 0.71526 0.75387 0.71298 0.0
O48 O 0.69023 0.73667 0.75622 0.0
C49 C 0.6617 0.73426 0.75503 0.0
O50 O 0.64919 0.73934 0.72732 0.0
C51 C 0.73914 0.79632 0.65521 0.0
C52 C 0.80215 0.70797 0.67488 0.0
O53 O 0.78098 0.6963 0.65375 0.0
O54 O 0.79796 0.72942 0.69523 0.0
O55 O 0.7901 0.27738 0.21109 0.0
Cd56 Cd 0.74834 0.23136 0.2065 0.0
O57 O 0.7591 0.30733 0.22414 0.0
Cd58 Cd 0.71746 0.27116 0.2165 0.0
O59 O 0.67199 0.25235 0.1955 0.0
C60 C 0.66961 0.24492 0.16494 0.0
O61 O 0.69454 0.24637 0.14819 0.0
C62 C 0.78591 0.304 0.21927 0.0
C63 C 0.74746 0.1962 0.26116 0.0
O64 O 0.76154 0.19069 0.23521 0.0
O65 O 0.73361 0.21824 0.26117 0.0
O66 O 0.32835 0.44595 0.78627 0.0
Cd67 Cd 0.31296 0.46973 0.73809 0.0
O68 O 0.35216 0.4234 0.74973 0.0
Cd69 Cd 0.37773 0.39086 0.7296 0.0
O70 O 0.39077 0.3549 0.6987 0.0
C71 C 0.39908 0.33216 0.71024 0.0
O72 O 0.40129 0.33073 0.74222 0.0
C73 C 0.34553 0.42767 0.77959 0.0
C74 C 0.25875 0.48936 0.74216 0.0
O75 O 0.25882 0.46152 0.7326 0.0
O76 O 0.28423 0.50764 0.75066 0.0
O77 O 0.32416 0.82987 0.22377 0.0
Cd78 Cd 0.27955 0.8332 0.25592 0.0
O79 O 0.30248 0.8364 0.17709 0.0
Cd80 Cd 0.25722 0.82886 0.19753 0.0
O81 O 0.21455 0.79519 0.20379 0.0
C82 C 0.21631 0.76727 0.19888 0.0
O83 O 0.24276 0.76158 0.19142 0.0
C84 C 0.32578 0.83342 0.19307 0.0
C85 C 0.29306 0.88228 0.30323 0.0
O86 O 0.29526 0.85511 0.30999 0.0
O87 O 0.2844 0.8862 0.27411 0.0
C88 C 0.95801 0.49458 0.23645 0.0
C89 C 0.03877 0.58766 0.22918 0.0
O90 O 0.96601 0.50814 0.26472 0.0
Zn91 Zn 0.99791 0.54883 0.28412 0.0
O92 O 0.9708 0.50626 0.211 0.0
Zn93 Zn 0.99824 0.54148 0.23233 0.0
O94 O 0.02946 0.52184 0.25926 0.0
O95 O 0.02435 0.53238 0.31205 0.0
O96 O 0.02566 0.56949 0.20566 0.0
O97 O 0.03053 0.58234 0.25874 0.0
O98 O 0.97273 0.57434 0.30385 0.0
O99 O 0.96921 0.57029 0.24981 0.0
C100 C 0.03742 0.52017 0.28922 0.0
C101 C 0.96172 0.58133 0.27733 0.0
C102 C 0.98623 0.54832 0.77255 0.0
C103 C 0.05641 0.64935 0.77995 0.0
O104 O 0.99381 0.56634 0.79792 0.0
Zn105 Zn 0.02033 0.59918 0.77644 0.0
O106 O 0.99689 0.55663 0.74453 0.0
Zn107 Zn 0.02693 0.59628 0.72511 0.0
O108 O 0.05866 0.57856 0.7069 0.0
O109 O 0.05695 0.57841 0.76094 0.0
O110 O 0.05294 0.63727 0.75055 0.0
O111 O 0.04117 0.63523 0.80282 0.0
O112 O 0.98863 0.61609 0.74757 0.0
O113 O 0.00092 0.61189 0.69564 0.0
C114 C 0.06917 0.57206 0.73394 0.0
C115 C 0.98364 0.6197 0.71724 0.0
C116 C 0.29699 0.0647 0.56927 0.0
C117 C 0.29664 0.13654 0.48329 0.0
O118 O 0.27459 0.07395 0.55803 0.0
Zn119 Zn 0.29608 0.09885 0.5247 0.0
O120 O 0.32306 0.07305 0.55608 0.0
Zn121 Zn 0.34283 0.1016 0.51708 0.0
O122 O 0.37399 0.13224 0.54094 0.0
O123 O 0.32716 0.13425 0.55375 0.0
O124 O 0.32273 0.13035 0.48715 0.0
O125 O 0.27444 0.12297 0.50002 0.0
O126 O 0.30533 0.06542 0.48894 0.0
O127 O 0.35506 0.07314 0.4856 0.0
C128 C 0.35593 0.1446 0.55773 0.0
C129 C 0.32872 0.05807 0.47629 0.0
C130 C 0.59214 0.82445 0.04764 0.0
C131 C 0.5178 0.8504 0.97361 0.0
O132 O 0.57044 0.8011 0.03954 0.0
Zn133 Zn 0.53038 0.79118 0.00873 0.0
O134 O 0.59252 0.85026 0.03568 0.0
Zn135 Zn 0.55562 0.83752 0.00952 0.0
O136 O 0.52053 0.82767 0.04563 0.0
O137 O 0.49871 0.77798 0.03944 0.0
O138 O 0.54243 0.86802 0.98475 0.0
O139 O 0.51112 0.8219 0.98058 0.0
O140 O 0.53803 0.76106 0.97613 0.0
O141 O 0.56714 0.80757 0.97131 0.0
C142 C 0.50045 0.80417 0.05421 0.0
C143 C 0.55883 0.77908 0.96123 0.0
C144 C 0.75774 0.99298 0.5369 0.0
C145 C 0.75906 0.07122 0.45786 0.0
O146 O 0.73567 0.99805 0.5204 0.0
Zn147 Zn 0.75789 0.03363 0.49916 0.0
O148 O 0.78408 0.01123 0.53524 0.0
Zn149 Zn 0.80475 0.05128 0.50911 0.0
O150 O 0.81785 0.08363 0.54296 0.0
O151 O 0.76802 0.06948 0.53758 0.0
O152 O 0.78522 0.07384 0.47161 0.0
O153 O 0.73656 0.0508 0.46689 0.0
O154 O 0.78822 0.01399 0.46902 0.0
O155 O 0.83538 0.03572 0.48514 0.0
C156 C 0.79181 0.0867 0.55176 0.0
C157 C 0.81689 0.01654 0.46624 0.0
C158 C 0.50343 0.30266 0.04539 0.0
C159 C 0.44623 0.34526 0.9645 0.0
O160 O 0.48111 0.28744 0.02772 0.0
Zn161 Zn 0.47365 0.32274 0.0054 0.0
O162 O 0.51203 0.33196 0.0433 0.0
Zn163 Zn 0.50095 0.36818 0.01697 0.0
O164 O 0.48939 0.39383 0.05199 0.0
O165 O 0.45739 0.34835 0.0445 0.0
O166 O 0.46702 0.3657 0.97981 0.0
O167 O 0.44219 0.31714 0.97144 0.0
O168 O 0.51481 0.33507 0.97854 0.0
O169 O 0.53842 0.38282 0.99398 0.0
C170 C 0.46538 0.37481 0.06006 0.0
C171 C 0.53755 0.35811 0.97652 0.0
C172 C 0.17797 0.44083 0.31625 0.0
C173 C 0.20442 0.4636 0.3112 0.0
C174 C 0.14939 0.44813 0.31732 0.0
C175 C 0.14724 0.47886 0.31297 0.0
C176 C 0.17401 0.50221 0.30966 0.0
C177 C 0.20226 0.49432 0.30895 0.0
C178 C 0.1214 0.42268 0.32136 0.0
C179 C 0.17271 0.53525 0.30487 0.0
C180 C 0.07792 0.49401 0.27046 0.0
C181 C 0.06338 0.50629 0.2964 0.0
C182 C 0.10462 0.48402 0.27581 0.0
C183 C 0.11709 0.4861 0.30798 0.0
C184 C 0.10181 0.49707 0.33456 0.0
C185 C 0.07513 0.50715 0.32845 0.0
C186 C 0.12019 0.47249 0.24674 0.0
C187 C 0.11426 0.49929 0.36923 0.0
H188 H 0.17944 0.41707 0.31832 0.0
H189 H 0.22256 0.51213 0.30527 0.0
H190 H 0.10625 0.43002 0.33983 0.0
H191 H 0.10846 0.41755 0.29774 0.0
H192 H 0.12713 0.4011 0.32897 0.0
H193 H 0.19563 0.55108 0.3056 0.0
H194 H 0.16173 0.53666 0.28078 0.0
H195 H 0.15875 0.54346 0.32407 0.0
H196 H 0.06898 0.49305 0.24562 0.0
H197 H 0.06401 0.51651 0.34866 0.0
H198 H 0.12428 0.44941 0.25106 0.0
H199 H 0.14265 0.48838 0.24352 0.0
H200 H 0.10671 0.4708 0.22358 0.0
H201 H 0.11987 0.47724 0.37524 0.0
H202 H 0.09801 0.50493 0.3875 0.0
H203 H 0.1356 0.51752 0.37157 0.0
C204 C 0.20928 0.76942 0.82569 0.0
C205 C 0.21041 0.80025 0.81921 0.0
C206 C 0.18233 0.74658 0.82098 0.0
C207 C 0.15572 0.75478 0.80988 0.0
C208 C 0.15637 0.78604 0.80448 0.0
C209 C 0.1838 0.80842 0.809 0.0
C210 C 0.18267 0.71344 0.8267 0.0
C211 C 0.12831 0.79569 0.79308 0.0
C212 C 0.10007 0.69025 0.76266 0.0
C213 C 0.0797 0.67835 0.7871 0.0
C214 C 0.12427 0.71581 0.76953 0.0
C215 C 0.12804 0.73014 0.80153 0.0
C216 C 0.10676 0.71922 0.82594 0.0
C217 C 0.08291 0.69327 0.81849 0.0
C218 C 0.14663 0.72655 0.74288 0.0
C219 C 0.1098 0.73424 0.86019 0.0
H220 H 0.2297 0.76289 0.83364 0.0
H221 H 0.18445 0.83224 0.80421 0.0
H222 H 0.16465 0.70368 0.844 0.0
H223 H 0.17781 0.69931 0.80324 0.0
H224 H 0.20486 0.71111 0.83674 0.0
H225 H 0.13183 0.82119 0.79303 0.0
H226 H 0.12182 0.78577 0.76784 0.0
H227 H 0.10896 0.78659 0.80909 0.0
H228 H 0.0978 0.67893 0.73831 0.0
H229 H 0.06714 0.68435 0.83744 0.0
H230 H 0.16923 0.72291 0.74984 0.0
H231 H 0.14933 0.75163 0.73997 0.0
H232 H 0.1395 0.71403 0.71881 0.0
H233 H 0.13017 0.72997 0.87268 0.0
H234 H 0.08964 0.72522 0.87521 0.0
H235 H 0.11301 0.75962 0.85926 0.0
C236 C 0.91288 0.73575 0.25195 0.0
C237 C 0.88235 0.73618 0.25687 0.0
C238 C 0.92381 0.70957 0.25818 0.0
C239 C 0.9037 0.68307 0.26955 0.0
C240 C 0.87301 0.68355 0.27529 0.0
C241 C 0.86269 0.71012 0.2689 0.0
C242 C 0.95674 0.71001 0.25181 0.0
C243 C 0.85091 0.65574 0.28736 0.0
C244 C 0.92791 0.60868 0.24831 0.0
C245 C 0.94283 0.6044 0.27735 0.0
C246 C 0.91375 0.63335 0.24601 0.0
C247 C 0.91461 0.65439 0.27339 0.0
C248 C 0.92816 0.64926 0.30336 0.0
C249 C 0.94207 0.62423 0.30502 0.0
C250 C 0.89929 0.63779 0.21369 0.0
C251 C 0.92944 0.67116 0.33311 0.0
H252 H 0.92828 0.75581 0.24282 0.0
H253 H 0.83907 0.71027 0.27286 0.0
H254 H 0.96771 0.70381 0.27406 0.0
H255 H 0.95826 0.69253 0.23189 0.0
H256 H 0.96975 0.73293 0.24458 0.0
H257 H 0.82834 0.6605 0.29267 0.0
H258 H 0.84782 0.6363 0.26857 0.0
H259 H 0.86003 0.64805 0.30994 0.0
H260 H 0.92813 0.59329 0.22689 0.0
H261 H 0.95356 0.6211 0.32754 0.0
H262 H 0.91264 0.65892 0.20289 0.0
H263 H 0.87597 0.64106 0.2175 0.0
H264 H 0.89812 0.6179 0.19575 0.0
H265 H 0.94493 0.69367 0.32846 0.0
H266 H 0.93771 0.66215 0.35543 0.0
H267 H 0.90668 0.67556 0.33791 0.0
C268 C 0.84431 0.40731 0.75328 0.0
C269 C 0.84499 0.3827 0.77306 0.0
C270 C 0.86861 0.43335 0.75369 0.0
C271 C 0.89453 0.43446 0.77375 0.0
C272 C 0.89587 0.40916 0.79281 0.0
C273 C 0.87088 0.3837 0.79256 0.0
C274 C 0.8661 0.4601 0.73344 0.0
C275 C 0.92348 0.40919 0.8138 0.0
C276 C 0.96473 0.49408 0.75149 0.0
C277 C 0.9644 0.51831 0.77472 0.0
C278 C 0.94291 0.46607 0.75181 0.0
C279 C 0.91976 0.46258 0.77537 0.0
C280 C 0.91967 0.48678 0.79929 0.0
C281 C 0.94228 0.51425 0.79893 0.0
C282 C 0.94422 0.4405 0.72647 0.0
C283 C 0.89499 0.48415 0.8244 0.0
H284 H 0.82425 0.40677 0.73837 0.0
H285 H 0.87155 0.36464 0.80776 0.0
H286 H 0.86761 0.48114 0.74976 0.0
H287 H 0.88522 0.46516 0.71622 0.0
H288 H 0.84443 0.45552 0.71906 0.0
H289 H 0.92181 0.38683 0.8253 0.0
H290 H 0.94423 0.41407 0.79881 0.0
H291 H 0.92633 0.42778 0.83353 0.0
H292 H 0.98204 0.49708 0.73293 0.0
H293 H 0.94189 0.53303 0.8168 0.0
H294 H 0.92438 0.43679 0.70937 0.0
H295 H 0.94302 0.41852 0.73851 0.0
H296 H 0.96527 0.44578 0.71192 0.0
H297 H 0.87268 0.48161 0.81177 0.0
H298 H 0.89876 0.50463 0.84197 0.0
H299 H 0.89366 0.46325 0.83842 0.0
C300 C 0.27601 0.26278 0.35602 0.0
C301 C 0.28977 0.29225 0.36982 0.0
C302 C 0.2757 0.23616 0.3731 0.0
C303 C 0.28921 0.2391 0.40486 0.0
C304 C 0.3028 0.2688 0.41907 0.0
C305 C 0.30305 0.29499 0.40133 0.0
C306 C 0.26127 0.20487 0.35701 0.0
C307 C 0.31723 0.27292 0.45299 0.0
C308 C 0.26785 0.17386 0.46291 0.0
C309 C 0.29327 0.16087 0.46111 0.0
C310 C 0.26591 0.19897 0.44425 0.0
C311 C 0.28981 0.21115 0.42304 0.0
C312 C 0.315 0.19742 0.42025 0.0
C313 C 0.31649 0.17257 0.43942 0.0
C314 C 0.23879 0.21313 0.44806 0.0
C315 C 0.34077 0.20948 0.39762 0.0
H316 H 0.26577 0.26045 0.33166 0.0
H317 H 0.31361 0.31767 0.41223 0.0
H318 H 0.27846 0.19078 0.35441 0.0
H319 H 0.24306 0.19236 0.37264 0.0
H320 H 0.25139 0.20655 0.33236 0.0
H321 H 0.32603 0.29763 0.46093 0.0
H322 H 0.30045 0.26206 0.47106 0.0
H323 H 0.33632 0.26118 0.45352 0.0
H324 H 0.24986 0.16504 0.47969 0.0
H325 H 0.33614 0.16258 0.43773 0.0
H326 H 0.22801 0.21408 0.42376 0.0
H327 H 0.2463 0.23723 0.45848 0.0
H328 H 0.22147 0.20006 0.46436 0.0
H329 H 0.33185 0.21035 0.37238 0.0
H330 H 0.35777 0.19504 0.39674 0.0
H331 H 0.35244 0.2334 0.40596 0.0
C332 C 0.39728 0.89121 0.8505 0.0
C333 C 0.37867 0.90805 0.86688 0.0
C334 C 0.42311 0.88569 0.86607 0.0
C335 C 0.43017 0.8968 0.899 0.0
C336 C 0.41256 0.91546 0.91494 0.0
C337 C 0.38714 0.92109 0.89856 0.0
C338 C 0.44166 0.86625 0.84796 0.0
C339 C 0.41912 0.92748 0.95015 0.0
C340 C 0.46557 0.84605 0.9512 0.0
C341 C 0.49593 0.86259 0.95408 0.0
C342 C 0.44404 0.85719 0.93365 0.0
C343 C 0.45311 0.88538 0.91803 0.0
C344 C 0.48379 0.90214 0.92055 0.0
C345 C 0.50483 0.89067 0.93885 0.0
C346 C 0.41146 0.8388 0.93202 0.0
C347 C 0.49435 0.93199 0.90375 0.0
H348 H 0.39105 0.88136 0.82587 0.0
H349 H 0.37285 0.9341 0.91139 0.0
H350 H 0.46629 0.87674 0.85139 0.0
H351 H 0.43719 0.84303 0.85805 0.0
H352 H 0.43607 0.86336 0.82126 0.0
H353 H 0.40584 0.9447 0.95761 0.0
H354 H 0.41327 0.90793 0.9665 0.0
H355 H 0.44363 0.93823 0.95404 0.0
H356 H 0.45844 0.82448 0.96317 0.0
H357 H 0.52829 0.90351 0.94094 0.0
H358 H 0.40447 0.83166 0.90613 0.0
H359 H 0.39622 0.85331 0.94163 0.0
H360 H 0.40799 0.81778 0.94631 0.0
H361 H 0.48972 0.92797 0.87695 0.0
H362 H 0.51901 0.94213 0.9079 0.0
H363 H 0.48152 0.94906 0.91282 0.0
C364 C 0.8324 0.86994 0.36054 0.0
C365 C 0.84703 0.87549 0.33056 0.0
C366 C 0.83312 0.89404 0.38425 0.0
C367 C 0.84845 0.9245 0.37758 0.0
C368 C 0.86513 0.92986 0.34842 0.0
C369 C 0.86439 0.90521 0.3253 0.0
C370 C 0.81554 0.88724 0.41536 0.0
C371 C 0.88167 0.96199 0.34034 0.0
C372 C 0.80941 0.98454 0.41394 0.0
C373 C 0.82759 0.99609 0.44177 0.0
C374 C 0.81687 0.9623 0.39209 0.0
C375 C 0.84293 0.9509 0.39852 0.0
C376 C 0.86207 0.96331 0.42593 0.0
C377 C 0.85428 0.98604 0.44718 0.0
C378 C 0.79613 0.95015 0.3628 0.0
C379 C 0.88986 0.95151 0.43371 0.0
H380 H 0.81929 0.84694 0.36495 0.0
H381 H 0.87582 0.90967 0.30221 0.0
H382 H 0.82924 0.8989 0.43702 0.0
H383 H 0.79473 0.89634 0.41423 0.0
H384 H 0.80867 0.86208 0.41901 0.0
H385 H 0.89741 0.96165 0.31964 0.0
H386 H 0.86487 0.97527 0.3334 0.0
H387 H 0.89477 0.97445 0.362 0.0
H388 H 0.78892 0.99253 0.40952 0.0
H389 H 0.86827 0.99484 0.46882 0.0
H390 H 0.78498 0.92551 0.36554 0.0
H391 H 0.80942 0.95143 0.33998 0.0
H392 H 0.77818 0.96317 0.35993 0.0
H393 H 0.88273 0.92758 0.44181 0.0
H394 H 0.90428 0.96601 0.45343 0.0
H395 H 0.90373 0.9507 0.41152 0.0
C396 C 0.67202 0.33302 0.85749 0.0
C397 C 0.69518 0.32628 0.87681 0.0
C398 C 0.64609 0.33987 0.8719 0.0
C399 C 0.64306 0.33949 0.90639 0.0
C400 C 0.66627 0.33249 0.92598 0.0
C401 C 0.69213 0.32618 0.91097 0.0
C402 C 0.62194 0.3475 0.85026 0.0
C403 C 0.66364 0.33133 0.96279 0.0
C404 C 0.58811 0.37939 0.95136 0.0
C405 C 0.56355 0.35441 0.95608 0.0
C406 C 0.61381 0.3751 0.93424 0.0
C407 C 0.61508 0.34509 0.92201 0.0
C408 C 0.59008 0.31996 0.92606 0.0
C409 C 0.56459 0.32496 0.94282 0.0
C410 C 0.6399 0.40252 0.92993 0.0
C411 C 0.59066 0.28754 0.91374 0.0
H412 H 0.67434 0.3334 0.83109 0.0
H413 H 0.7099 0.32094 0.92605 0.0
H414 H 0.6002 0.33019 0.85255 0.0
H415 H 0.61787 0.37035 0.85832 0.0
H416 H 0.62825 0.34796 0.82401 0.0
H417 H 0.68381 0.32579 0.97453 0.0
H418 H 0.66085 0.35385 0.97358 0.0
H419 H 0.64316 0.31362 0.96894 0.0
H420 H 0.58745 0.40221 0.96143 0.0
H421 H 0.54581 0.30544 0.9464 0.0
H422 H 0.64602 0.40396 0.90369 0.0
H423 H 0.66019 0.39967 0.94374 0.0
H424 H 0.63448 0.42462 0.93872 0.0
H425 H 0.59546 0.28695 0.88713 0.0
H426 H 0.56889 0.27072 0.91778 0.0
H427 H 0.60917 0.27994 0.9265 0.0
C428 C 0.29168 0.00516 0.74953 0.0
C429 C 0.28577 0.97295 0.75082 0.0
C430 C 0.29255 0.01913 0.71941 0.0
C431 C 0.28726 0.00045 0.68984 0.0
C432 C 0.28097 0.96791 0.69096 0.0
C433 C 0.28036 0.95455 0.72143 0.0
C434 C 0.29946 0.05393 0.71921 0.0
C435 C 0.27511 0.94723 0.65996 0.0
C436 C 0.26575 0.03772 0.61425 0.0
C437 C 0.29378 0.04615 0.59871 0.0
C438 C 0.26312 0.02222 0.64357 0.0
C439 C 0.28914 0.01508 0.65773 0.0
C440 C 0.31731 0.02285 0.64175 0.0
C441 C 0.31928 0.03822 0.61244 0.0
C442 C 0.23265 0.01413 0.65981 0.0
C443 C 0.3456 0.01564 0.65606 0.0
H444 H 0.29587 0.01955 0.7721 0.0
H445 H 0.27567 0.92963 0.72219 0.0
H446 H 0.32047 0.06242 0.70537 0.0
H447 H 0.28078 0.06132 0.70654 0.0
H448 H 0.30253 0.06514 0.74436 0.0
H449 H 0.26971 0.92234 0.66509 0.0
H450 H 0.25593 0.95205 0.6457 0.0
H451 H 0.29537 0.95207 0.64424 0.0
H452 H 0.24591 0.0437 0.60383 0.0
H453 H 0.34104 0.0446 0.60066 0.0
H454 H 0.23395 0.02684 0.68408 0.0
H455 H 0.2264 0.98912 0.66417 0.0
H456 H 0.21432 0.01988 0.64484 0.0
H457 H 0.35121 0.02821 0.68032 0.0
H458 H 0.3655 0.0222 0.63998 0.0
H459 H 0.34164 0.99062 0.66007 0.0
C460 C 0.69641 0.81881 0.20323 0.0
C461 C 0.72287 0.80856 0.19627 0.0
C462 C 0.67574 0.82102 0.17821 0.0
C463 C 0.68171 0.81292 0.14534 0.0
C464 C 0.70829 0.80239 0.1381 0.0
C465 C 0.72853 0.80024 0.16368 0.0
C466 C 0.64753 0.83212 0.18697 0.0
C467 C 0.71542 0.79361 0.10331 0.0
C468 C 0.61386 0.79321 0.08644 0.0
C469 C 0.61601 0.82121 0.07137 0.0
C470 C 0.63545 0.78999 0.11002 0.0
C471 C 0.65991 0.81534 0.11869 0.0
C472 C 0.66265 0.84345 0.10305 0.0
C473 C 0.64062 0.84608 0.07963 0.0
C474 C 0.63166 0.75969 0.12625 0.0
C475 C 0.68853 0.87093 0.11156 0.0
H476 H 0.69178 0.82522 0.22833 0.0
H477 H 0.74897 0.79238 0.15808 0.0
H478 H 0.64716 0.85329 0.17401 0.0
H479 H 0.62698 0.81435 0.17881 0.0
H480 H 0.64613 0.8373 0.21376 0.0
H481 H 0.73701 0.78584 0.10177 0.0
H482 H 0.69676 0.77479 0.09279 0.0
H483 H 0.71709 0.81363 0.08782 0.0
H484 H 0.59496 0.77383 0.08022 0.0
H485 H 0.64255 0.86774 0.06803 0.0
H486 H 0.62807 0.76322 0.15291 0.0
H487 H 0.65258 0.75089 0.12363 0.0
H488 H 0.61214 0.7418 0.11572 0.0
H489 H 0.68712 0.87885 0.13761 0.0
H490 H 0.68832 0.89056 0.09594 0.0
H491 H 0.71059 0.86433 0.10872 0.0
C492 C 0.76574 0.23541 0.65252 0.0
C493 C 0.76805 0.2342 0.6867 0.0
C494 C 0.77057 0.21119 0.6314 0.0
C495 C 0.77763 0.18495 0.64474 0.0
C496 C 0.78009 0.18358 0.67921 0.0
C497 C 0.77541 0.20829 0.69978 0.0
C498 C 0.76797 0.21363 0.59477 0.0
C499 C 0.78732 0.15587 0.69436 0.0
C500 C 0.76003 0.11135 0.58973 0.0
C501 C 0.78869 0.11074 0.57718 0.0
C502 C 0.75627 0.13492 0.61237 0.0
C503 C 0.78173 0.15867 0.62253 0.0
C504 C 0.81082 0.1579 0.61046 0.0
C505 C 0.81398 0.13386 0.58804 0.0
C506 C 0.72493 0.13473 0.62493 0.0
C507 C 0.83848 0.18292 0.62056 0.0
H508 H 0.76021 0.2554 0.64219 0.0
H509 H 0.7772 0.20713 0.72616 0.0
H510 H 0.78934 0.21117 0.58293 0.0
H511 H 0.74948 0.1946 0.58429 0.0
H512 H 0.76319 0.23596 0.58829 0.0
H513 H 0.78883 0.15855 0.72158 0.0
H514 H 0.76952 0.13487 0.68715 0.0
H515 H 0.80919 0.15202 0.68506 0.0
H516 H 0.74038 0.0935 0.58163 0.0
H517 H 0.83619 0.13362 0.57843 0.0
H518 H 0.71764 0.15536 0.61693 0.0
H519 H 0.72525 0.13598 0.65215 0.0
H520 H 0.70778 0.11376 0.61596 0.0
H521 H 0.83561 0.20545 0.61239 0.0
H522 H 0.85966 0.17833 0.60998 0.0
H523 H 0.84109 0.18514 0.64768 0.0
C524 C 0.37742 0.38161 0.22715 0.0
C525 C 0.35595 0.39978 0.22605 0.0
C526 C 0.39726 0.38033 0.20109 0.0
C527 C 0.39543 0.3974 0.17314 0.0
C528 C 0.37464 0.4167 0.17244 0.0
C529 C 0.35525 0.41774 0.19893 0.0
C530 C 0.41937 0.35972 0.2029 0.0
C531 C 0.37187 0.43513 0.14303 0.0
C532 C 0.45895 0.40649 0.11113 0.0
C533 C 0.4471 0.38216 0.08803 0.0
C534 C 0.44237 0.41194 0.13895 0.0
C535 C 0.41318 0.39281 0.14349 0.0
C536 C 0.40085 0.36875 0.1198 0.0
C537 C 0.41799 0.36364 0.0925 0.0
C538 C 0.45631 0.43769 0.1638 0.0
C539 C 0.36964 0.34807 0.1235 0.0
H540 H 0.37832 0.36785 0.24809 0.0
H541 H 0.33882 0.43194 0.19785 0.0
H542 H 0.41279 0.34009 0.1844 0.0
H543 H 0.44258 0.37263 0.19704 0.0
H544 H 0.42002 0.35032 0.2275 0.0
H545 H 0.35651 0.45102 0.14746 0.0
H546 H 0.3945 0.44887 0.13635 0.0
H547 H 0.36286 0.41916 0.12162 0.0
H548 H 0.48149 0.42079 0.10792 0.0
H549 H 0.40857 0.34491 0.07467 0.0
H550 H 0.45913 0.42797 0.1878 0.0
H551 H 0.44102 0.4537 0.16762 0.0
H552 H 0.47881 0.45109 0.15618 0.0
H553 H 0.36906 0.33533 0.1462 0.0
H554 H 0.36298 0.33103 0.10235 0.0
H555 H 0.35246 0.36218 0.1259 0.0
C556 C 0.83065 0.66691 0.66274 0.0
C557 C 0.83014 0.69622 0.67667 0.0
C558 C 0.85613 0.65438 0.66675 0.0
C559 C 0.88193 0.67185 0.68455 0.0
C560 C 0.88202 0.70201 0.6974 0.0
C561 C 0.85601 0.7137 0.69361 0.0
C562 C 0.85493 0.62193 0.65319 0.0
C563 C 0.90928 0.7216 0.71602 0.0
C564 C 0.93304 0.63032 0.72933 0.0
C565 C 0.95748 0.63239 0.70798 0.0
C566 C 0.9081 0.6425 0.72159 0.0
C567 C 0.90781 0.65774 0.69207 0.0
C568 C 0.93239 0.65989 0.67033 0.0
C569 C 0.95683 0.64686 0.67838 0.0
C570 C 0.88209 0.63914 0.74515 0.0
C571 C 0.93313 0.67645 0.63893 0.0
H572 H 0.81067 0.65324 0.64971 0.0
H573 H 0.85584 0.73648 0.70419 0.0
H574 H 0.87496 0.62149 0.63785 0.0
H575 H 0.8557 0.60676 0.67373 0.0
H576 H 0.834 0.61215 0.6382 0.0
H577 H 0.90685 0.74555 0.72167 0.0
H578 H 0.91244 0.71109 0.73945 0.0
H579 H 0.93017 0.72254 0.70166 0.0
H580 H 0.93326 0.61888 0.75209 0.0
H581 H 0.97574 0.64863 0.66189 0.0
H582 H 0.86043 0.62776 0.73221 0.0
H583 H 0.87987 0.66227 0.75468 0.0
H584 H 0.8852 0.62542 0.76632 0.0
H585 H 0.91274 0.66589 0.62347 0.0
H586 H 0.95371 0.67582 0.6245 0.0
H587 H 0.93255 0.70091 0.64466 0.0
C588 C 0.8068 0.36108 0.22663 0.0
C589 C 0.81195 0.33127 0.2223 0.0
C590 C 0.83102 0.38726 0.22871 0.0
C591 C 0.86121 0.3836 0.22669 0.0
C592 C 0.86664 0.35361 0.22261 0.0
C593 C 0.84194 0.32779 0.22032 0.0
C594 C 0.82428 0.41887 0.23288 0.0
C595 C 0.89854 0.3488 0.22065 0.0
C596 C 0.92168 0.45308 0.20299 0.0
C597 C 0.93394 0.46564 0.23373 0.0
C598 C 0.89826 0.42615 0.20029 0.0
C599 C 0.88702 0.41128 0.22899 0.0
C600 C 0.8997 0.4235 0.26003 0.0
C601 C 0.92289 0.45059 0.26204 0.0
C602 C 0.88517 0.41392 0.16677 0.0
C603 C 0.8885 0.40818 0.29118 0.0
H604 H 0.78373 0.36406 0.22806 0.0
H605 H 0.84615 0.30487 0.21705 0.0
H606 H 0.83521 0.43096 0.25585 0.0
H607 H 0.83394 0.43305 0.21228 0.0
H608 H 0.79953 0.41777 0.23377 0.0
H609 H 0.89893 0.32398 0.21779 0.0
H610 H 0.91027 0.36078 0.19958 0.0
H611 H 0.91173 0.35904 0.24317 0.0
H612 H 0.93005 0.46455 0.18099 0.0
H613 H 0.93235 0.46 0.28589 0.0
H614 H 0.86073 0.41419 0.16557 0.0
H615 H 0.88675 0.38958 0.16229 0.0
H616 H 0.89698 0.42768 0.1468 0.0
H617 H 0.86424 0.40838 0.29455 0.0
H618 H 0.90165 0.41983 0.31324 0.0
H619 H 0.89002 0.38366 0.28946 0.0
C620 C 0.20227 0.47985 0.73462 0.0
C621 C 0.23026 0.50042 0.74218 0.0
C622 C 0.1753 0.49029 0.7332 0.0
C623 C 0.17639 0.5221 0.73928 0.0
C624 C 0.20453 0.54294 0.74716 0.0
C625 C 0.2311 0.53184 0.74863 0.0
C626 C 0.14568 0.46733 0.72503 0.0
C627 C 0.20663 0.57704 0.75373 0.0
C628 C 0.11258 0.55536 0.7064 0.0
C629 C 0.09582 0.55801 0.73475 0.0
C630 C 0.13869 0.5434 0.70744 0.0
C631 C 0.14811 0.53366 0.73747 0.0
C632 C 0.13095 0.5357 0.76599 0.0
C633 C 0.1051 0.54793 0.76431 0.0
C634 C 0.15651 0.54171 0.67653 0.0
C635 C 0.14011 0.52533 0.79841 0.0
H636 H 0.2014 0.45554 0.72964 0.0
H637 H 0.25263 0.54792 0.75439 0.0
H638 H 0.1293 0.46814 0.74498 0.0
H639 H 0.13545 0.47348 0.70228 0.0
H640 H 0.14862 0.44332 0.72149 0.0
H641 H 0.23024 0.59019 0.75953 0.0
H642 H 0.19815 0.58666 0.73197 0.0
H643 H 0.19204 0.58071 0.77457 0.0
H644 H 0.10562 0.56313 0.68348 0.0
H645 H 0.09222 0.54973 0.78633 0.0
H646 H 0.1586 0.51767 0.67097 0.0
H647 H 0.17985 0.5563 0.68016 0.0
H648 H 0.14578 0.54955 0.655 0.0
H649 H 0.14197 0.50094 0.79568 0.0
H650 H 0.12368 0.52738 0.81802 0.0
H651 H 0.1628 0.53943 0.80638 0.0
C652 C 0.1603 0.74709 0.20562 0.0
C653 C 0.18931 0.74145 0.20142 0.0
C654 C 0.13472 0.72262 0.20835 0.0
C655 C 0.13833 0.69186 0.20713 0.0
C656 C 0.16749 0.68603 0.20253 0.0
C657 C 0.19259 0.71087 0.19961 0.0
C658 C 0.10391 0.72968 0.21302 0.0
C659 C 0.17231 0.65358 0.20142 0.0
C660 C 0.081 0.63129 0.24967 0.0
C661 C 0.06372 0.61467 0.22312 0.0
C662 C 0.10509 0.65662 0.24477 0.0
C663 C 0.11197 0.66581 0.21253 0.0
C664 C 0.09439 0.64947 0.1856 0.0
C665 C 0.07053 0.62395 0.1912 0.0
C666 C 0.12349 0.67324 0.27411 0.0
C667 C 0.10095 0.65881 0.1509 0.0
H668 H 0.15755 0.77064 0.20684 0.0
H669 H 0.21491 0.70629 0.19635 0.0
H670 H 0.08756 0.7165 0.19411 0.0
H671 H 0.09504 0.72231 0.23731 0.0
H672 H 0.10467 0.75466 0.21156 0.0
H673 H 0.19628 0.6529 0.19655 0.0
H674 H 0.16585 0.64308 0.22515 0.0
H675 H 0.15754 0.63902 0.18206 0.0
H676 H 0.07599 0.62426 0.27444 0.0
H677 H 0.05719 0.61133 0.17059 0.0
H678 H 0.12319 0.69808 0.2751 0.0
H679 H 0.14753 0.67174 0.27178 0.0
H680 H 0.11484 0.6635 0.29763 0.0
H681 H 0.10039 0.6834 0.14892 0.0
H682 H 0.08442 0.6445 0.1328 0.0
H683 H 0.12411 0.65658 0.14429 0.0
C684 C 0.7543 0.82814 0.60642 0.0
C685 C 0.74177 0.82515 0.63775 0.0
C686 C 0.75652 0.8554 0.58984 0.0
C687 C 0.74617 0.88029 0.60507 0.0
C688 C 0.73361 0.87743 0.63669 0.0
C689 C 0.73147 0.84991 0.65257 0.0
C690 C 0.76989 0.85758 0.55602 0.0
C691 C 0.72255 0.90353 0.65385 0.0
C692 C 0.77768 0.96081 0.57615 0.0
C693 C 0.75391 0.96495 0.55589 0.0
C694 C 0.77539 0.93344 0.59241 0.0
C695 C 0.74877 0.90951 0.58815 0.0
C696 C 0.72455 0.91365 0.56806 0.0
C697 C 0.72735 0.94138 0.55228 0.0
C698 C 0.80156 0.93003 0.61396 0.0
C699 C 0.69585 0.88859 0.56285 0.0
H700 H 0.76222 0.80912 0.59475 0.0
H701 H 0.72183 0.84791 0.67681 0.0
H702 H 0.75324 0.86251 0.5382 0.0
H703 H 0.79027 0.87699 0.55607 0.0
H704 H 0.77647 0.83602 0.54739 0.0
H705 H 0.71336 0.8976 0.67845 0.0
H706 H 0.74145 0.9244 0.65679 0.0
H707 H 0.70452 0.90961 0.63877 0.0
H708 H 0.79828 0.9789 0.57911 0.0
H709 H 0.70896 0.9443 0.53651 0.0
H710 H 0.81042 0.91006 0.60458 0.0
H711 H 0.79366 0.92531 0.63925 0.0
H712 H 0.82048 0.95099 0.61508 0.0
H713 H 0.7014 0.86728 0.55194 0.0
H714 H 0.67911 0.89544 0.54648 0.0
H715 H 0.68509 0.88282 0.58675 0.0
C716 C 0.63899 0.24275 0.11337 0.0
C717 C 0.63998 0.241 0.14756 0.0
C718 C 0.6126 0.24612 0.09719 0.0
C719 C 0.58644 0.24727 0.1156 0.0
C720 C 0.58629 0.24206 0.14952 0.0
C721 C 0.61319 0.23926 0.1652 0.0
C722 C 0.6138 0.25165 0.06098 0.0
C723 C 0.55858 0.24214 0.16981 0.0
C724 C 0.54514 0.30568 0.08622 0.0
C725 C 0.52152 0.28731 0.0666 0.0
C726 C 0.56561 0.29268 0.10313 0.0
C727 C 0.56225 0.26028 0.10092 0.0
C728 C 0.53738 0.2413 0.08284 0.0
C729 C 0.51735 0.25508 0.06563 0.0
C730 C 0.59179 0.3139 0.12208 0.0
C731 C 0.53266 0.20663 0.08053 0.0
H732 H 0.65946 0.24373 0.09944 0.0
H733 H 0.61359 0.23732 0.19156 0.0
H734 H 0.5931 0.2379 0.04797 0.0
H735 H 0.61474 0.27638 0.05753 0.0
H736 H 0.63403 0.24575 0.0494 0.0
H737 H 0.55982 0.23135 0.19355 0.0
H738 H 0.55674 0.26631 0.1751 0.0
H739 H 0.5376 0.22971 0.15625 0.0
H740 H 0.54841 0.33059 0.08753 0.0
H741 H 0.49909 0.2407 0.05064 0.0
H742 H 0.61362 0.31166 0.11116 0.0
H743 H 0.59207 0.30735 0.14789 0.0
H744 H 0.59061 0.33852 0.12207 0.0
H745 H 0.54929 0.20002 0.0634 0.0
H746 H 0.50945 0.19506 0.07133 0.0
H747 H 0.53649 0.19789 0.10478 0.0
C748 C 0.4051 0.27791 0.7005 0.0
C749 C 0.40193 0.30572 0.68791 0.0
C750 C 0.40282 0.25127 0.67977 0.0
C751 C 0.39724 0.25254 0.64575 0.0
C752 C 0.39638 0.28109 0.63264 0.0
C753 C 0.39875 0.30733 0.65387 0.0
C754 C 0.40418 0.22131 0.69464 0.0
C755 C 0.3906 0.28348 0.59648 0.0
C756 C 0.39845 0.18517 0.58473 0.0
C757 C 0.36737 0.17114 0.58147 0.0
C758 C 0.40881 0.21129 0.60626 0.0
C759 C 0.38755 0.22356 0.62477 0.0
C760 C 0.35628 0.20899 0.62213 0.0
C761 C 0.34663 0.18303 0.60059 0.0
C762 C 0.44233 0.22618 0.60862 0.0
C763 C 0.33282 0.22128 0.64146 0.0
H764 H 0.40787 0.27651 0.72673 0.0
H765 H 0.39671 0.32882 0.64384 0.0
H766 H 0.38095 0.20627 0.69509 0.0
H767 H 0.41827 0.20874 0.67964 0.0
H768 H 0.41354 0.22508 0.72015 0.0
H769 H 0.39456 0.30786 0.5896 0.0
H770 H 0.40538 0.27171 0.58152 0.0
H771 H 0.36669 0.27179 0.59008 0.0
H772 H 0.41464 0.17608 0.57012 0.0
H773 H 0.32258 0.17228 0.59847 0.0
H774 H 0.45019 0.22923 0.63465 0.0
H775 H 0.44659 0.24948 0.59876 0.0
H776 H 0.45613 0.21239 0.59474 0.0
H777 H 0.33849 0.22277 0.66807 0.0
H778 H 0.30953 0.2066 0.63743 0.0
H779 H 0.33284 0.24495 0.6343 0.0
C780 C 0.37866 0.82495 0.19188 0.0
C781 C 0.35397 0.83198 0.17543 0.0
C782 C 0.4044 0.82091 0.17476 0.0
C783 C 0.40544 0.82403 0.14044 0.0
C784 C 0.381 0.83199 0.12386 0.0
C785 C 0.35558 0.83586 0.14154 0.0
C786 C 0.43012 0.81256 0.19325 0.0
C787 C 0.38136 0.83571 0.08727 0.0
C788 C 0.47946 0.83764 0.09452 0.0
C789 C 0.47803 0.80834 0.07927 0.0
C790 C 0.45657 0.84284 0.11555 0.0
C791 C 0.43163 0.81816 0.12146 0.0
C792 C 0.43068 0.78826 0.1073 0.0
C793 C 0.45391 0.78369 0.08638 0.0
C794 C 0.45843 0.87502 0.13031 0.0
C795 C 0.40447 0.76134 0.11314 0.0
H796 H 0.37763 0.8219 0.21805 0.0
H797 H 0.33668 0.84139 0.12861 0.0
H798 H 0.43247 0.78927 0.18443 0.0
H799 H 0.45188 0.82905 0.18853 0.0
H800 H 0.4265 0.81256 0.22014 0.0
H801 H 0.361 0.84297 0.07829 0.0
H802 H 0.40192 0.85312 0.08075 0.0
H803 H 0.38235 0.81354 0.07414 0.0
H804 H 0.49808 0.85682 0.08932 0.0
H805 H 0.45265 0.76097 0.0748 0.0
H806 H 0.45511 0.87451 0.15719 0.0
H807 H 0.44001 0.8844 0.11974 0.0
H808 H 0.48055 0.89103 0.12564 0.0
H809 H 0.40078 0.75917 0.13983 0.0
H810 H 0.40823 0.73916 0.10233 0.0
H811 H 0.38334 0.7654 0.10215 0.0
C812 C 0.73613 0.18697 0.32025 0.0
C813 C 0.74755 0.17789 0.2904 0.0
C814 C 0.73689 0.17029 0.34837 0.0
C815 C 0.74912 0.14377 0.3465 0.0
C816 C 0.76028 0.13424 0.31634 0.0
C817 C 0.7595 0.1515 0.2887 0.0
C818 C 0.725 0.18129 0.38018 0.0
C819 C 0.77326 0.10592 0.31331 0.0
C820 C 0.77943 0.11586 0.42339 0.0
C821 C 0.75563 0.09094 0.43064 0.0
C822 C 0.7773 0.13368 0.39652 0.0
C823 C 0.75084 0.12625 0.37622 0.0
C824 C 0.72651 0.10148 0.38371 0.0
C825 C 0.72913 0.08421 0.41094 0.0
C826 C 0.80361 0.16012 0.38952 0.0
C827 C 0.69802 0.09274 0.3625 0.0
H828 H 0.72693 0.20738 0.32179 0.0
H829 H 0.76826 0.14427 0.2657 0.0
H830 H 0.70678 0.16272 0.38943 0.0
H831 H 0.74348 0.18682 0.3991 0.0
H832 H 0.71584 0.20211 0.37743 0.0
H833 H 0.78019 0.1011 0.28788 0.0
H834 H 0.79337 0.10898 0.32993 0.0
H835 H 0.75626 0.08545 0.32095 0.0
H836 H 0.79992 0.12132 0.43857 0.0
H837 H 0.71067 0.06494 0.4163 0.0
H838 H 0.79564 0.18177 0.38805 0.0
H839 H 0.81331 0.15552 0.3654 0.0
H840 H 0.82194 0.16382 0.40857 0.0
H841 H 0.68783 0.11296 0.36048 0.0
H842 H 0.68076 0.07354 0.37229 0.0
H843 H 0.70373 0.08561 0.33732 0.0
C844 C 0.3413 0.40579 0.83505 0.0
C845 C 0.35745 0.41192 0.80602 0.0
C846 C 0.35313 0.39236 0.86103 0.0
C847 C 0.38187 0.38509 0.85793 0.0
C848 C 0.39796 0.39067 0.82842 0.0
C849 C 0.38568 0.40427 0.80297 0.0
C850 C 0.33533 0.38686 0.89215 0.0
C851 C 0.42876 0.38346 0.82417 0.0
C852 C 0.43078 0.38644 0.93403 0.0
C853 C 0.42795 0.35488 0.9384 0.0
C854 C 0.4153 0.39645 0.90846 0.0
C855 C 0.39649 0.37441 0.88652 0.0
C856 C 0.39289 0.3425 0.89116 0.0
C857 C 0.40864 0.33308 0.91714 0.0
C858 C 0.41968 0.4307 0.90448 0.0
C859 C 0.37305 0.31836 0.86821 0.0
H860 H 0.31949 0.41176 0.83757 0.0
H861 H 0.39889 0.4101 0.78127 0.0
H862 H 0.33297 0.3627 0.89906 0.0
H863 H 0.34774 0.40215 0.91257 0.0
H864 H 0.31231 0.39141 0.88968 0.0
H865 H 0.43699 0.38647 0.7987 0.0
H866 H 0.44552 0.39892 0.84115 0.0
H867 H 0.42793 0.35937 0.83047 0.0
H868 H 0.44546 0.4035 0.95044 0.0
H869 H 0.40632 0.30867 0.92033 0.0
H870 H 0.39738 0.43703 0.90413 0.0
H871 H 0.43054 0.43681 0.8807 0.0
H872 H 0.43407 0.44483 0.92446 0.0
H873 H 0.34989 0.3226 0.86657 0.0
H874 H 0.3713 0.29458 0.87619 0.0
H875 H 0.38246 0.31989 0.84316 0.0
C876 C 0.29978 0.93836 0.32 0.0
C877 C 0.30005 0.9083 0.32838 0.0
C878 C 0.30572 0.9631 0.34371 0.0
C879 C 0.3119 0.95763 0.37664 0.0
C880 C 0.31255 0.92742 0.3852 0.0
C881 C 0.3067 0.90314 0.36095 0.0
C882 C 0.30497 0.99503 0.33361 0.0
C883 C 0.31889 0.92065 0.42009 0.0
C884 C 0.34976 0.02572 0.4344 0.0
C885 C 0.32473 0.03225 0.45098 0.0
C886 C 0.34597 0.0015 0.41012 0.0
C887 C 0.31648 0.9833 0.40239 0.0
C888 C 0.29117 0.98967 0.41918 0.0
C889 C 0.29559 0.01408 0.44317 0.0
C890 C 0.37347 0.99549 0.3926 0.0
C891 C 0.25938 0.9707 0.41178 0.0
H892 H 0.29479 0.94259 0.29488 0.0
H893 H 0.30697 0.87999 0.36765 0.0
H894 H 0.28663 0.00319 0.34666 0.0
H895 H 0.3267 0.01153 0.34066 0.0
H896 H 0.30107 0.99565 0.30677 0.0
H897 H 0.3195 0.8961 0.42253 0.0
H898 H 0.34096 0.93547 0.429 0.0
H899 H 0.3011 0.92617 0.43635 0.0
H900 H 0.37234 0.03966 0.44022 0.0
H901 H 0.2761 0.01886 0.45589 0.0
H902 H 0.37087 0.9977 0.36584 0.0
H903 H 0.37549 0.97153 0.39609 0.0
H904 H 0.39485 0.01169 0.4015 0.0
H905 H 0.2533 0.97223 0.38563 0.0
H906 H 0.24217 0.97841 0.4273 0.0
H907 H 0.25822 0.94603 0.41576 0.0
C908 C 0.61378 0.73464 0.78485 0.0
C909 C 0.6439 0.73147 0.7855 0.0
C910 C 0.5983 0.73779 0.81402 0.0
C911 C 0.61325 0.73753 0.84455 0.0
C912 C 0.64274 0.73183 0.84533 0.0
C913 C 0.65778 0.72896 0.81577 0.0
C914 C 0.56684 0.74378 0.8121 0.0
C915 C 0.65925 0.73092 0.8774 0.0
C916 C 0.59309 0.78901 0.91349 0.0
C917 C 0.57314 0.76784 0.93197 0.0
C918 C 0.60639 0.77929 0.88522 0.0
C919 C 0.59981 0.74752 0.8752 0.0
C920 C 0.58004 0.72589 0.89394 0.0
C921 C 0.5668 0.73633 0.92208 0.0
C922 C 0.62721 0.80316 0.86579 0.0
C923 C 0.57274 0.69183 0.88411 0.0
H924 H 0.60273 0.73632 0.76159 0.0
H925 H 0.68094 0.72616 0.8165 0.0
H926 H 0.55138 0.72912 0.8289 0.0
H927 H 0.56791 0.76822 0.82001 0.0
H928 H 0.55694 0.73938 0.78684 0.0
H929 H 0.67987 0.72168 0.87394 0.0
H930 H 0.66626 0.75463 0.88899 0.0
H931 H 0.64411 0.71655 0.89471 0.0
H932 H 0.5981 0.8134 0.92086 0.0
H933 H 0.55148 0.71982 0.9363 0.0
H934 H 0.61794 0.80265 0.84047 0.0
H935 H 0.64988 0.79776 0.86387 0.0
H936 H 0.63014 0.82692 0.87707 0.0
H937 H 0.56116 0.68768 0.85968 0.0
H938 H 0.55791 0.67787 0.90202 0.0
H939 H 0.594 0.68357 0.8819 0.0
loop_
_geom_bond_atom_site_label_1
_geom_bond_atom_site_label_2
_geom_bond_distance
_geom_bond_site_symmetry_2
_ccdc_geom_bond_type
O0 Cd1 2.300 . S
O0 C7 1.275 . S
Cd1 O0 2.300 . S
Cd1 O9 2.381 . S
Cd1 O10 2.378 . S
O2 Cd3 2.385 . S
O2 C7 1.255 . S
Cd3 O2 2.385 . S
Cd3 O4 2.317 . S
O4 Cd3 2.317 . S
O4 C5 1.232 . S
C5 O4 1.232 . S
C5 O6 1.218 . S
O6 C5 1.218 . S
C7 O0 1.275 . S
C7 O2 1.255 . S
C8 O9 1.258 . S
C8 O10 1.256 . S
O9 Cd1 2.381 . S
O9 C8 1.258 . S
O10 Cd1 2.378 . S
O10 C8 1.256 . S
O11 Cd12 2.300 . S
O11 C18 1.275 . S
Cd12 O11 2.300 . S
Cd12 O20 2.381 . S
Cd12 O21 2.378 . S
O13 Cd14 2.385 . S
O13 C18 1.255 . S
Cd14 O13 2.385 . S
Cd14 O15 2.317 . S
O15 Cd14 2.317 . S
O15 C16 1.232 . S
C16 O15 1.232 . S
C16 O17 1.218 . S
O17 C16 1.218 . S
C18 O11 1.275 . S
C18 O13 1.255 . S
C19 O20 1.258 . S
C19 O21 1.256 . S
O20 Cd12 2.381 . S
O20 C19 1.258 . S
O21 Cd12 2.378 . S
O21 C19 1.256 . S
O22 Cd23 2.300 . S
O22 C29 1.275 . S
Cd23 O22 2.300 . S
Cd23 O31 2.381 . S
Cd23 O32 2.378 . S
O24 Cd25 2.385 . S
O24 C29 1.255 . S
Cd25 O24 2.385 . S
Cd25 O26 2.317 . S
O26 Cd25 2.317 . S
O26 C27 1.232 . S
C27 O26 1.232 . S
C27 O28 1.218 . S
O28 C27 1.218 . S
C29 O22 1.275 . S
C29 O24 1.255 . S
C30 O31 1.258 . S
C30 O32 1.256 . S
O31 Cd23 2.381 . S
O31 C30 1.258 . S
O32 Cd23 2.378 . S
O32 C30 1.256 . S
O33 Cd34 2.300 . S
O33 C40 1.275 . S
Cd34 O33 2.300 . S
Cd34 O42 2.381 . S
Cd34 O43 2.378 . S
O35 Cd36 2.385 . S
O35 C40 1.255 . S
Cd36 O35 2.385 . S
Cd36 O37 2.317 . S
O37 Cd36 2.317 . S
O37 C38 1.232 . S
C38 O37 1.232 . S
C38 O39 1.218 . S
O39 C38 1.218 . S
C40 O33 1.275 . S
C40 O35 1.255 . S
C41 O42 1.258 . S
C41 O43 1.256 . S
O42 Cd34 2.381 . S
O42 C41 1.258 . S
O43 Cd34 2.378 . S
O43 C41 1.256 . S
O44 Cd45 2.300 . S
O44 C51 1.275 . S
Cd45 O44 2.300 . S
Cd45 O53 2.381 . S
Cd45 O54 2.378 . S
O46 Cd47 2.385 . S
O46 C51 1.255 . S
Cd47 O46 2.385 . S
Cd47 O48 2.317 . S
O48 Cd47 2.317 . S
O48 C49 1.232 . S
C49 O48 1.232 . S
C49 O50 1.218 . S
O50 C49 1.218 . S
C51 O44 1.275 . S
C51 O46 1.255 . S
C52 O53 1.258 . S
C52 O54 1.256 . S
O53 Cd45 2.381 . S
O53 C52 1.258 . S
O54 Cd45 2.378 . S
O54 C52 1.256 . S
O55 Cd56 2.300 . S
O55 C62 1.275 . S
Cd56 O55 2.300 . S
Cd56 O64 2.381 . S
Cd56 O65 2.378 . S
O57 Cd58 2.385 . S
O57 C62 1.255 . S
Cd58 O57 2.385 . S
Cd58 O59 2.317 . S
O59 Cd58 2.317 . S
O59 C60 1.232 . S
C60 O59 1.232 . S
C60 O61 1.218 . S
O61 C60 1.218 . S
C62 O55 1.275 . S
C62 O57 1.255 . S
C63 O64 1.258 . S
C63 O65 1.256 . S
O64 Cd56 2.381 . S
O64 C63 1.258 . S
O65 Cd56 2.378 . S
O65 C63 1.256 . S
O66 Cd67 2.300 . S
O66 C73 1.275 . S
Cd67 O66 2.300 . S
Cd67 O75 2.381 . S
Cd67 O76 2.378 . S
O68 Cd69 2.385 . S
O68 C73 1.255 . S
Cd69 O68 2.385 . S
Cd69 O70 2.317 . S
O70 Cd69 2.317 . S
O70 C71 1.232 . S
C71 O70 1.232 . S
C71 O72 1.218 . S
O72 C71 1.218 . S
C73 O66 1.275 . S
C73 O68 1.255 . S
C74 O75 1.258 . S
C74 O76 1.256 . S
O75 Cd67 2.381 . S
O75 C74 1.258 . S
O76 Cd67 2.378 . S
O76 C74 1.256 . S
O77 Cd78 2.300 . S
O77 C84 1.275 . S
Cd78 O77 2.300 . S
Cd78 O86 2.381 . S
Cd78 O87 2.378 . S
O79 Cd80 2.385 . S
O79 C84 1.255 . S
Cd80 O79 2.385 . S
Cd80 O81 2.317 . S
O81 Cd80 2.317 . S
O81 C82 1.232 . S
C82 O81 1.232 . S
C82 O83 1.218 . S
O83 C82 1.218 . S
C84 O77 1.275 . S
C84 O79 1.255 . S
C85 O86 1.258 . S
C85 O87 1.256 . S
O86 Cd78 2.381 . S
O86 C85 1.258 . S
O87 Cd78 2.378 . S
O87 C85 1.256 . S
C88 O90 1.241 1_655 S
C88 O92 1.258 1_655 S
C89 O96 1.247 . S
C89 O97 1.258 . S
O90 C88 1.241 1_455 S
O90 Zn91 2.041 . S
Zn91 O90 2.041 . S
Zn91 O95 2.035 . S
Zn91 O97 2.035 . S
Zn91 O98 2.028 . S
O92 C88 1.258 1_455 S
O92 Zn93 2.035 . S
Zn93 O92 2.035 . S
Zn93 O94 2.028 . S
Zn93 O96 2.028 . S
Zn93 O99 2.035 . S
O94 Zn93 2.028 . S
O94 C100 1.247 . S
O95 Zn91 2.035 . S
O95 C100 1.258 . S
O96 C89 1.247 . S
O96 Zn93 2.028 . S
O97 C89 1.258 . S
O97 Zn91 2.035 . S
O98 Zn91 2.028 . S
O98 C101 1.247 1_455 S
O99 Zn93 2.035 . S
O99 C101 1.258 1_455 S
C100 O94 1.247 . S
C100 O95 1.258 . S
C101 O98 1.247 1_655 S
C101 O99 1.258 1_655 S
C102 O104 1.247 . S
C102 O106 1.258 . S
C103 O110 1.247 . S
C103 O111 1.258 . S
O104 C102 1.247 . S
O104 Zn105 2.028 1_655 S
Zn105 O104 2.028 1_455 S
Zn105 O109 2.035 . S
Zn105 O111 2.035 . S
Zn105 O112 2.028 1_455 S
O106 C102 1.258 . S
O106 Zn107 2.035 1_655 S
Zn107 O106 2.035 1_455 S
Zn107 O108 2.028 . S
Zn107 O110 2.028 . S
Zn107 O113 2.035 1_455 S
O108 Zn107 2.028 . S
O108 C114 1.247 . S
O109 Zn105 2.035 . S
O109 C114 1.258 . S
O110 C103 1.247 . S
O110 Zn107 2.028 . S
O111 C103 1.258 . S
O111 Zn105 2.035 . S
O112 Zn105 2.028 1_655 S
O112 C115 1.247 . S
O113 Zn107 2.035 1_655 S
O113 C115 1.258 . S
C114 O108 1.247 . S
C114 O109 1.258 . S
C115 O112 1.247 . S
C115 O113 1.258 . S
C116 O118 1.247 . S
C116 O120 1.258 . S
C117 O124 1.247 . S
C117 O125 1.258 . S
O118 C116 1.247 . S
O118 Zn119 2.028 . S
Zn119 O118 2.028 . S
Zn119 O123 2.035 . S
Zn119 O125 2.035 . S
Zn119 O126 2.028 . S
O120 C116 1.258 . S
O120 Zn121 2.035 . S
Zn121 O120 2.035 . S
Zn121 O122 2.028 . S
Zn121 O124 2.028 . S
Zn121 O127 2.035 . S
O122 Zn121 2.028 . S
O122 C128 1.247 . S
O123 Zn119 2.035 . S
O123 C128 1.258 . S
O124 C117 1.247 . S
O124 Zn121 2.028 . S
O125 C117 1.258 . S
O125 Zn119 2.035 . S
O126 Zn119 2.028 . S
O126 C129 1.247 . S
O127 Zn121 2.035 . S
O127 C129 1.258 . S
C128 O122 1.247 . S
C128 O123 1.258 . S
C129 O126 1.247 . S
C129 O127 1.258 . S
C130 O132 1.247 . S
C130 O134 1.258 . S
C131 O138 1.247 . S
C131 O139 1.258 . S
O132 C130 1.247 . S
O132 Zn133 2.028 . S
Zn133 O132 2.028 . S
Zn133 O137 2.035 . S
Zn133 O139 2.035 1_554 S
Zn133 O140 2.028 1_554 S
O134 C130 1.258 . S
O134 Zn135 2.035 . S
Zn135 O134 2.035 . S
Zn135 O136 2.028 . S
Zn135 O138 2.028 1_554 S
Zn135 O141 2.035 1_554 S
O136 Zn135 2.028 . S
O136 C142 1.247 . S
O137 Zn133 2.035 . S
O137 C142 1.258 . S
O138 C131 1.247 . S
O138 Zn135 2.028 1_556 S
O139 C131 1.258 . S
O139 Zn133 2.035 1_556 S
O140 Zn133 2.028 1_556 S
O140 C143 1.247 . S
O141 Zn135 2.035 1_556 S
O141 C143 1.258 . S
C142 O136 1.247 . S
C142 O137 1.258 . S
C143 O140 1.247 . S
C143 O141 1.258 . S
C144 O146 1.247 . S
C144 O148 1.258 . S
C145 O152 1.247 . S
C145 O153 1.258 . S
O146 C144 1.247 . S
O146 Zn147 2.028 . S
Zn147 O146 2.028 . S
Zn147 O151 2.035 1_565 S
Zn147 O153 2.035 1_565 S
Zn147 O154 2.028 . S
O148 C144 1.258 . S
O148 Zn149 2.035 1_565 S
Zn149 O148 2.035 1_545 S
Zn149 O150 2.028 . S
Zn149 O152 2.028 . S
Zn149 O155 2.035 1_545 S
O150 Zn149 2.028 . S
O150 C156 1.247 . S
O151 Zn147 2.035 1_545 S
O151 C156 1.258 . S
O152 C145 1.247 . S
O152 Zn149 2.028 . S
O153 C145 1.258 . S
O153 Zn147 2.035 1_545 S
O154 Zn147 2.028 . S
O154 C157 1.247 . S
O155 Zn149 2.035 1_565 S
O155 C157 1.258 . S
C156 O150 1.247 . S
C156 O151 1.258 . S
C157 O154 1.247 . S
C157 O155 1.258 . S
C158 O160 1.247 . S
C158 O162 1.258 . S
C159 O166 1.247 . S
C159 O167 1.258 . S
O160 C158 1.247 . S
O160 Zn161 2.028 . S
Zn161 O160 2.028 . S
Zn161 O165 2.035 . S
Zn161 O167 2.035 1_554 S
Zn161 O168 2.028 1_554 S
O162 C158 1.258 . S
O162 Zn163 2.035 . S
Zn163 O162 2.035 . S
Zn163 O164 2.028 . S
Zn163 O166 2.028 1_554 S
Zn163 O169 2.035 1_554 S
O164 Zn163 2.028 . S
O164 C170 1.247 . S
O165 Zn161 2.035 . S
O165 C170 1.258 . S
O166 C159 1.247 . S
O166 Zn163 2.028 1_556 S
O167 C159 1.258 . S
O167 Zn161 2.035 1_556 S
O168 Zn161 2.028 1_556 S
O168 C171 1.247 . S
O169 Zn163 2.035 1_556 S
O169 C171 1.258 . S
C170 O164 1.247 . S
C170 O165 1.258 . S
C171 O168 1.247 . S
C171 O169 1.258 . S
C172 C173 1.391 . S
C172 C174 1.394 . S
C172 H188 0.931 . S
C173 C172 1.391 . S
C173 C177 1.376 . S
C174 C172 1.394 . S
C174 C175 1.369 . S
C174 C178 1.531 . S
C175 C174 1.369 . S
C175 C176 1.410 . S
C175 C183 1.503 . S
C176 C175 1.410 . S
C176 C177 1.392 . S
C176 C179 1.511 . S
C177 C173 1.376 . S
C177 C176 1.392 . S
C177 H189 0.929 . S
C178 C174 1.531 . S
C178 H190 0.960 . S
C178 H191 0.962 . S
C178 H192 0.960 . S
C179 C176 1.511 . S
C179 H193 0.961 . S
C179 H194 0.961 . S
C179 H195 0.961 . S
C180 C181 1.370 . S
C180 C182 1.363 . S
C180 H196 0.931 . S
C181 C180 1.370 . S
C181 C185 1.408 . S
C182 C180 1.363 . S
C182 C183 1.370 . S
C182 C186 1.524 . S
C183 C175 1.503 . S
C183 C182 1.370 . S
C183 C184 1.403 . S
C184 C183 1.403 . S
C184 C185 1.404 . S
C184 C187 1.539 . S
C185 C181 1.408 . S
C185 C184 1.404 . S
C185 H197 0.930 . S
C186 C182 1.524 . S
C186 H198 0.956 . S
C186 H199 0.961 . S
C186 H200 0.961 . S
C187 C184 1.539 . S
C187 H201 0.958 . S
C187 H202 0.961 . S
C187 H203 0.960 . S
H188 C172 0.931 . S
H189 C177 0.929 . S
H190 C178 0.960 . S
H191 C178 0.962 . S
H192 C178 0.960 . S
H193 C179 0.961 . S
H194 C179 0.961 . S
H195 C179 0.961 . S
H196 C180 0.931 . S
H197 C185 0.930 . S
H198 C186 0.956 . S
H199 C186 0.961 . S
H200 C186 0.961 . S
H201 C187 0.958 . S
H202 C187 0.961 . S
H203 C187 0.960 . S
C204 C205 1.391 . S
C204 C206 1.394 . S
C204 H220 0.931 . S
C205 C204 1.391 . S
C205 C209 1.376 . S
C206 C204 1.394 . S
C206 C207 1.369 . S
C206 C210 1.531 . S
C207 C206 1.369 . S
C207 C208 1.410 . S
C207 C215 1.503 . S
C208 C207 1.410 . S
C208 C209 1.392 . S
C208 C211 1.511 . S
C209 C205 1.376 . S
C209 C208 1.392 . S
C209 H221 0.929 . S
C210 C206 1.531 . S
C210 H222 0.960 . S
C210 H223 0.962 . S
C210 H224 0.960 . S
C211 C208 1.511 . S
C211 H225 0.961 . S
C211 H226 0.961 . S
C211 H227 0.961 . S
C212 C213 1.370 . S
C212 C214 1.363 . S
C212 H228 0.931 . S
C213 C212 1.370 . S
C213 C217 1.408 . S
C214 C212 1.363 . S
C214 C215 1.370 . S
C214 C218 1.524 . S
C215 C207 1.503 . S
C215 C214 1.370 . S
C215 C216 1.403 . S
C216 C215 1.403 . S
C216 C217 1.404 . S
C216 C219 1.539 . S
C217 C213 1.408 . S
C217 C216 1.404 . S
C217 H229 0.930 . S
C218 C214 1.524 . S
C218 H230 0.956 . S
C218 H231 0.961 . S
C218 H232 0.961 . S
C219 C216 1.539 . S
C219 H233 0.958 . S
C219 H234 0.961 . S
C219 H235 0.960 . S
H220 C204 0.931 . S
H221 C209 0.929 . S
H222 C210 0.960 . S
H223 C210 0.962 . S
H224 C210 0.960 . S
H225 C211 0.961 . S
H226 C211 0.961 . S
H227 C211 0.961 . S
H228 C212 0.931 . S
H229 C217 0.930 . S
H230 C218 0.956 . S
H231 C218 0.961 . S
H232 C218 0.961 . S
H233 C219 0.958 . S
H234 C219 0.961 . S
H235 C219 0.960 . S
C236 C237 1.391 . S
C236 C238 1.394 . S
C236 H252 0.931 . S
C237 C236 1.391 . S
C237 C241 1.376 . S
C238 C236 1.394 . S
C238 C239 1.369 . S
C238 C242 1.531 . S
C239 C238 1.369 . S
C239 C240 1.410 . S
C239 C247 1.503 . S
C240 C239 1.410 . S
C240 C241 1.392 . S
C240 C243 1.511 . S
C241 C237 1.376 . S
C241 C240 1.392 . S
C241 H253 0.929 . S
C242 C238 1.531 . S
C242 H254 0.960 . S
C242 H255 0.962 . S
C242 H256 0.960 . S
C243 C240 1.511 . S
C243 H257 0.961 . S
C243 H258 0.961 . S
C243 H259 0.961 . S
C244 C245 1.370 . S
C244 C246 1.363 . S
C244 H260 0.931 . S
C245 C244 1.370 . S
C245 C249 1.408 . S
C246 C244 1.363 . S
C246 C247 1.370 . S
C246 C250 1.524 . S
C247 C239 1.503 . S
C247 C246 1.370 . S
C247 C248 1.403 . S
C248 C247 1.403 . S
C248 C249 1.404 . S
C248 C251 1.539 . S
C249 C245 1.408 . S
C249 C248 1.404 . S
C249 H261 0.930 . S
C250 C246 1.524 . S
C250 H262 0.956 . S
C250 H263 0.961 . S
C250 H264 0.961 . S
C251 C248 1.539 . S
C251 H265 0.958 . S
C251 H266 0.961 . S
C251 H267 0.960 . S
H252 C236 0.931 . S
H253 C241 0.929 . S
H254 C242 0.960 . S
H255 C242 0.962 . S
H256 C242 0.960 . S
H257 C243 0.961 . S
H258 C243 0.961 . S
H259 C243 0.961 . S
H260 C244 0.931 . S
H261 C249 0.930 . S
H262 C250 0.956 . S
H263 C250 0.961 . S
H264 C250 0.961 . S
H265 C251 0.958 . S
H266 C251 0.961 . S
H267 C251 0.960 . S
C268 C269 1.391 . S
C268 C270 1.394 . S
C268 H284 0.931 . S
C269 C268 1.391 . S
C269 C273 1.376 . S
C270 C268 1.394 . S
C270 C271 1.369 . S
C270 C274 1.531 . S
C271 C270 1.369 . S
C271 C272 1.410 . S
C271 C279 1.503 . S
C272 C271 1.410 . S
C272 C273 1.392 . S
C272 C275 1.511 . S
C273 C269 1.376 . S
C273 C272 1.392 . S
C273 H285 0.929 . S
C274 C270 1.531 . S
C274 H286 0.960 . S
C274 H287 0.962 . S
C274 H288 0.960 . S
C275 C272 1.511 . S
C275 H289 0.961 . S
C275 H290 0.961 . S
C275 H291 0.961 . S
C276 C277 1.370 . S
C276 C278 1.363 . S
C276 H292 0.931 . S
C277 C276 1.370 . S
C277 C281 1.408 . S
C278 C276 1.363 . S
C278 C279 1.370 . S
C278 C282 1.524 . S
C279 C271 1.503 . S
C279 C278 1.370 . S
C279 C280 1.403 . S
C280 C279 1.403 . S
C280 C281 1.404 . S
C280 C283 1.539 . S
C281 C277 1.408 . S
C281 C280 1.404 . S
C281 H293 0.930 . S
C282 C278 1.524 . S
C282 H294 0.956 . S
C282 H295 0.961 . S
C282 H296 0.961 . S
C283 C280 1.539 . S
C283 H297 0.958 . S
C283 H298 0.961 . S
C283 H299 0.960 . S
H284 C268 0.931 . S
H285 C273 0.929 . S
H286 C274 0.960 . S
H287 C274 0.962 . S
H288 C274 0.960 . S
H289 C275 0.961 . S
H290 C275 0.961 . S
H291 C275 0.961 . S
H292 C276 0.931 . S
H293 C281 0.930 . S
H294 C282 0.956 . S
H295 C282 0.961 . S
H296 C282 0.961 . S
H297 C283 0.958 . S
H298 C283 0.961 . S
H299 C283 0.960 . S
C300 C301 1.391 . S
C300 C302 1.394 . S
C300 H316 0.931 . S
C301 C300 1.391 . S
C301 C305 1.376 . S
C302 C300 1.394 . S
C302 C303 1.369 . S
C302 C306 1.531 . S
C303 C302 1.369 . S
C303 C304 1.410 . S
C303 C311 1.503 . S
C304 C303 1.410 . S
C304 C305 1.392 . S
C304 C307 1.511 . S
C305 C301 1.376 . S
C305 C304 1.392 . S
C305 H317 0.929 . S
C306 C302 1.531 . S
C306 H318 0.960 . S
C306 H319 0.962 . S
C306 H320 0.960 . S
C307 C304 1.511 . S
C307 H321 0.961 . S
C307 H322 0.961 . S
C307 H323 0.961 . S
C308 C309 1.370 . S
C308 C310 1.363 . S
C308 H324 0.931 . S
C309 C308 1.370 . S
C309 C313 1.408 . S
C310 C308 1.363 . S
C310 C311 1.370 . S
C310 C314 1.524 . S
C311 C303 1.503 . S
C311 C310 1.370 . S
C311 C312 1.403 . S
C312 C311 1.403 . S
C312 C313 1.404 . S
C312 C315 1.539 . S
C313 C309 1.408 . S
C313 C312 1.404 . S
C313 H325 0.930 . S
C314 C310 1.524 . S
C314 H326 0.956 . S
C314 H327 0.961 . S
C314 H328 0.961 . S
C315 C312 1.539 . S
C315 H329 0.958 . S
C315 H330 0.961 . S
C315 H331 0.960 . S
H316 C300 0.931 . S
H317 C305 0.929 . S
H318 C306 0.960 . S
H319 C306 0.962 . S
H320 C306 0.960 . S
H321 C307 0.961 . S
H322 C307 0.961 . S
H323 C307 0.961 . S
H324 C308 0.931 . S
H325 C313 0.930 . S
H326 C314 0.956 . S
H327 C314 0.961 . S
H328 C314 0.961 . S
H329 C315 0.958 . S
H330 C315 0.961 . S
H331 C315 0.960 . S
C332 C333 1.391 . S
C332 C334 1.394 . S
C332 H348 0.931 . S
C333 C332 1.391 . S
C333 C337 1.376 . S
C334 C332 1.394 . S
C334 C335 1.369 . S
C334 C338 1.531 . S
C335 C334 1.369 . S
C335 C336 1.410 . S
C335 C343 1.503 . S
C336 C335 1.410 . S
C336 C337 1.392 . S
C336 C339 1.511 . S
C337 C333 1.376 . S
C337 C336 1.392 . S
C337 H349 0.929 . S
C338 C334 1.531 . S
C338 H350 0.960 . S
C338 H351 0.962 . S
C338 H352 0.960 . S
C339 C336 1.511 . S
C339 H353 0.961 . S
C339 H354 0.961 . S
C339 H355 0.961 . S
C340 C341 1.370 . S
C340 C342 1.363 . S
C340 H356 0.931 . S
C341 C340 1.370 . S
C341 C345 1.408 . S
C342 C340 1.363 . S
C342 C343 1.370 . S
C342 C346 1.524 . S
C343 C335 1.503 . S
C343 C342 1.370 . S
C343 C344 1.403 . S
C344 C343 1.403 . S
C344 C345 1.404 . S
C344 C347 1.539 . S
C345 C341 1.408 . S
C345 C344 1.404 . S
C345 H357 0.930 . S
C346 C342 1.524 . S
C346 H358 0.956 . S
C346 H359 0.961 . S
C346 H360 0.961 . S
C347 C344 1.539 . S
C347 H361 0.958 . S
C347 H362 0.961 . S
C347 H363 0.960 . S
H348 C332 0.931 . S
H349 C337 0.929 . S
H350 C338 0.960 . S
H351 C338 0.962 . S
H352 C338 0.960 . S
H353 C339 0.961 . S
H354 C339 0.961 . S
H355 C339 0.961 . S
H356 C340 0.931 . S
H357 C345 0.930 . S
H358 C346 0.956 . S
H359 C346 0.961 . S
H360 C346 0.961 . S
H361 C347 0.958 . S
H362 C347 0.961 . S
H363 C347 0.960 . S
C364 C365 1.391 . S
C364 C366 1.394 . S
C364 H380 0.931 . S
C365 C364 1.391 . S
C365 C369 1.376 . S
C366 C364 1.394 . S
C366 C367 1.369 . S
C366 C370 1.531 . S
C367 C366 1.369 . S
C367 C368 1.410 . S
C367 C375 1.503 . S
C368 C367 1.410 . S
C368 C369 1.392 . S
C368 C371 1.511 . S
C369 C365 1.376 . S
C369 C368 1.392 . S
C369 H381 0.929 . S
C370 C366 1.531 . S
C370 H382 0.960 . S
C370 H383 0.962 . S
C370 H384 0.960 . S
C371 C368 1.511 . S
C371 H385 0.961 . S
C371 H386 0.961 . S
C371 H387 0.961 . S
C372 C373 1.370 . S
C372 C374 1.363 . S
C372 H388 0.931 . S
C373 C372 1.370 . S
C373 C377 1.408 . S
C374 C372 1.363 . S
C374 C375 1.370 . S
C374 C378 1.524 . S
C375 C367 1.503 . S
C375 C374 1.370 . S
C375 C376 1.403 . S
C376 C375 1.403 . S
C376 C377 1.404 . S
C376 C379 1.539 . S
C377 C373 1.408 . S
C377 C376 1.404 . S
C377 H389 0.930 . S
C378 C374 1.524 . S
C378 H390 0.956 . S
C378 H391 0.961 . S
C378 H392 0.961 . S
C379 C376 1.539 . S
C379 H393 0.958 . S
C379 H394 0.961 . S
C379 H395 0.960 . S
H380 C364 0.931 . S
H381 C369 0.929 . S
H382 C370 0.960 . S
H383 C370 0.962 . S
H384 C370 0.960 . S
H385 C371 0.961 . S
H386 C371 0.961 . S
H387 C371 0.961 . S
H388 C372 0.931 . S
H389 C377 0.930 . S
H390 C378 0.956 . S
H391 C378 0.961 . S
H392 C378 0.961 . S
H393 C379 0.958 . S
H394 C379 0.961 . S
H395 C379 0.960 . S
C396 C397 1.391 . S
C396 C398 1.394 . S
C396 H412 0.931 . S
C397 C396 1.391 . S
C397 C401 1.376 . S
C398 C396 1.394 . S
C398 C399 1.369 . S
C398 C402 1.531 . S
C399 C398 1.369 . S
C399 C400 1.410 . S
C399 C407 1.503 . S
C400 C399 1.410 . S
C400 C401 1.392 . S
C400 C403 1.511 . S
C401 C397 1.376 . S
C401 C400 1.392 . S
C401 H413 0.929 . S
C402 C398 1.531 . S
C402 H414 0.960 . S
C402 H415 0.962 . S
C402 H416 0.960 . S
C403 C400 1.511 . S
C403 H417 0.961 . S
C403 H418 0.961 . S
C403 H419 0.961 . S
C404 C405 1.370 . S
C404 C406 1.363 . S
C404 H420 0.931 . S
C405 C404 1.370 . S
C405 C409 1.408 . S
C406 C404 1.363 . S
C406 C407 1.370 . S
C406 C410 1.524 . S
C407 C399 1.503 . S
C407 C406 1.370 . S
C407 C408 1.403 . S
C408 C407 1.403 . S
C408 C409 1.404 . S
C408 C411 1.539 . S
C409 C405 1.408 . S
C409 C408 1.404 . S
C409 H421 0.930 . S
C410 C406 1.524 . S
C410 H422 0.956 . S
C410 H423 0.961 . S
C410 H424 0.961 . S
C411 C408 1.539 . S
C411 H425 0.958 . S
C411 H426 0.961 . S
C411 H427 0.960 . S
H412 C396 0.931 . S
H413 C401 0.929 . S
H414 C402 0.960 . S
H415 C402 0.962 . S
H416 C402 0.960 . S
H417 C403 0.961 . S
H418 C403 0.961 . S
H419 C403 0.961 . S
H420 C404 0.931 . S
H421 C409 0.930 . S
H422 C410 0.956 . S
H423 C410 0.961 . S
H424 C410 0.961 . S
H425 C411 0.958 . S
H426 C411 0.961 . S
H427 C411 0.960 . S
C428 C429 1.391 . S
C428 C430 1.394 1_565 S
C428 H444 0.931 . S
C429 C428 1.391 . S
C429 C433 1.376 . S
C430 C428 1.394 1_545 S
C430 C431 1.369 . S
C430 C434 1.531 . S
C431 C430 1.369 . S
C431 C432 1.410 1_545 S
C431 C439 1.503 . S
C432 C431 1.410 1_565 S
C432 C433 1.392 . S
C432 C435 1.511 1_565 S
C433 C429 1.376 . S
C433 C432 1.392 . S
C433 H445 0.929 . S
C434 C430 1.531 . S
C434 H446 0.960 . S
C434 H447 0.962 . S
C434 H448 0.960 . S
C435 C432 1.511 1_545 S
C435 H449 0.961 1_545 S
C435 H450 0.961 . S
C435 H451 0.961 . S
C436 C437 1.370 . S
C436 C438 1.363 . S
C436 H452 0.931 . S
C437 C436 1.370 . S
C437 C441 1.408 . S
C438 C436 1.363 . S
C438 C439 1.370 . S
C438 C442 1.524 1_545 S
C439 C431 1.503 . S
C439 C438 1.370 . S
C439 C440 1.403 . S
C440 C439 1.403 . S
C440 C441 1.404 . S
C440 C443 1.539 . S
C441 C437 1.408 . S
C441 C440 1.404 . S
C441 H453 0.930 . S
C442 C438 1.524 1_565 S
C442 H454 0.956 . S
C442 H455 0.961 . S
C442 H456 0.961 . S
C443 C440 1.539 . S
C443 H457 0.958 . S
C443 H458 0.961 . S
C443 H459 0.960 . S
H444 C428 0.931 . S
H445 C433 0.929 . S
H446 C434 0.960 . S
H447 C434 0.962 . S
H448 C434 0.960 . S
H449 C435 0.961 1_565 S
H450 C435 0.961 . S
H451 C435 0.961 . S
H452 C436 0.931 . S
H453 C441 0.930 . S
H454 C442 0.956 . S
H455 C442 0.961 . S
H456 C442 0.961 . S
H457 C443 0.958 . S
H458 C443 0.961 . S
H459 C443 0.960 . S
C460 C461 1.391 . S
C460 C462 1.394 . S
C460 H476 0.931 . S
C461 C460 1.391 . S
C461 C465 1.376 . S
C462 C460 1.394 . S
C462 C463 1.369 . S
C462 C466 1.531 . S
C463 C462 1.369 . S
C463 C464 1.410 . S
C463 C471 1.503 . S
C464 C463 1.410 . S
C464 C465 1.392 . S
C464 C467 1.511 . S
C465 C461 1.376 . S
C465 C464 1.392 . S
C465 H477 0.929 . S
C466 C462 1.531 . S
C466 H478 0.960 . S
C466 H479 0.962 . S
C466 H480 0.960 . S
C467 C464 1.511 . S
C467 H481 0.961 . S
C467 H482 0.961 . S
C467 H483 0.961 . S
C468 C469 1.370 . S
C468 C470 1.363 . S
C468 H484 0.931 . S
C469 C468 1.370 . S
C469 C473 1.408 . S
C470 C468 1.363 . S
C470 C471 1.370 . S
C470 C474 1.524 . S
C471 C463 1.503 . S
C471 C470 1.370 . S
C471 C472 1.403 . S
C472 C471 1.403 . S
C472 C473 1.404 . S
C472 C475 1.539 . S
C473 C469 1.408 . S
C473 C472 1.404 . S
C473 H485 0.930 . S
C474 C470 1.524 . S
C474 H486 0.956 . S
C474 H487 0.961 . S
C474 H488 0.961 . S
C475 C472 1.539 . S
C475 H489 0.958 . S
C475 H490 0.961 . S
C475 H491 0.960 . S
H476 C460 0.931 . S
H477 C465 0.929 . S
H478 C466 0.960 . S
H479 C466 0.962 . S
H480 C466 0.960 . S
H481 C467 0.961 . S
H482 C467 0.961 . S
H483 C467 0.961 . S
H484 C468 0.931 . S
H485 C473 0.930 . S
H486 C474 0.956 . S
H487 C474 0.961 . S
H488 C474 0.961 . S
H489 C475 0.958 . S
H490 C475 0.961 . S
H491 C475 0.960 . S
C492 C493 1.391 . S
C492 C494 1.394 . S
C492 H508 0.931 . S
C493 C492 1.391 . S
C493 C497 1.376 . S
C494 C492 1.394 . S
C494 C495 1.369 . S
C494 C498 1.531 . S
C495 C494 1.369 . S
C495 C496 1.410 . S
C495 C503 1.503 . S
C496 C495 1.410 . S
C496 C497 1.392 . S
C496 C499 1.511 . S
C497 C493 1.376 . S
C497 C496 1.392 . S
C497 H509 0.929 . S
C498 C494 1.531 . S
C498 H510 0.960 . S
C498 H511 0.962 . S
C498 H512 0.960 . S
C499 C496 1.511 . S
C499 H513 0.961 . S
C499 H514 0.961 . S
C499 H515 0.961 . S
C500 C501 1.370 . S
C500 C502 1.363 . S
C500 H516 0.931 . S
C501 C500 1.370 . S
C501 C505 1.408 . S
C502 C500 1.363 . S
C502 C503 1.370 . S
C502 C506 1.524 . S
C503 C495 1.503 . S
C503 C502 1.370 . S
C503 C504 1.403 . S
C504 C503 1.403 . S
C504 C505 1.404 . S
C504 C507 1.539 . S
C505 C501 1.408 . S
C505 C504 1.404 . S
C505 H517 0.930 . S
C506 C502 1.524 . S
C506 H518 0.956 . S
C506 H519 0.961 . S
C506 H520 0.961 . S
C507 C504 1.539 . S
C507 H521 0.958 . S
C507 H522 0.961 . S
C507 H523 0.960 . S
H508 C492 0.931 . S
H509 C497 0.929 . S
H510 C498 0.960 . S
H511 C498 0.962 . S
H512 C498 0.960 . S
H513 C499 0.961 . S
H514 C499 0.961 . S
H515 C499 0.961 . S
H516 C500 0.931 . S
H517 C505 0.930 . S
H518 C506 0.956 . S
H519 C506 0.961 . S
H520 C506 0.961 . S
H521 C507 0.958 . S
H522 C507 0.961 . S
H523 C507 0.960 . S
C524 C525 1.391 . S
C524 C526 1.394 . S
C524 H540 0.931 . S
C525 C524 1.391 . S
C525 C529 1.376 . S
C526 C524 1.394 . S
C526 C527 1.369 . S
C526 C530 1.531 . S
C527 C526 1.369 . S
C527 C528 1.410 . S
C527 C535 1.503 . S
C528 C527 1.410 . S
C528 C529 1.392 . S
C528 C531 1.511 . S
C529 C525 1.376 . S
C529 C528 1.392 . S
C529 H541 0.929 . S
C530 C526 1.531 . S
C530 H542 0.960 . S
C530 H543 0.962 . S
C530 H544 0.960 . S
C531 C528 1.511 . S
C531 H545 0.961 . S
C531 H546 0.961 . S
C531 H547 0.961 . S
C532 C533 1.370 . S
C532 C534 1.363 . S
C532 H548 0.931 . S
C533 C532 1.370 . S
C533 C537 1.408 . S
C534 C532 1.363 . S
C534 C535 1.370 . S
C534 C538 1.524 . S
C535 C527 1.503 . S
C535 C534 1.370 . S
C535 C536 1.403 . S
C536 C535 1.403 . S
C536 C537 1.404 . S
C536 C539 1.539 . S
C537 C533 1.408 . S
C537 C536 1.404 . S
C537 H549 0.930 . S
C538 C534 1.524 . S
C538 H550 0.956 . S
C538 H551 0.961 . S
C538 H552 0.961 . S
C539 C536 1.539 . S
C539 H553 0.958 . S
C539 H554 0.961 . S
C539 H555 0.960 . S
H540 C524 0.931 . S
H541 C529 0.929 . S
H542 C530 0.960 . S
H543 C530 0.962 . S
H544 C530 0.960 . S
H545 C531 0.961 . S
H546 C531 0.961 . S
H547 C531 0.961 . S
H548 C532 0.931 . S
H549 C537 0.930 . S
H550 C538 0.956 . S
H551 C538 0.961 . S
H552 C538 0.961 . S
H553 C539 0.958 . S
H554 C539 0.961 . S
H555 C539 0.960 . S
C556 C557 1.391 . S
C556 C558 1.394 . S
C556 H572 0.931 . S
C557 C556 1.391 . S
C557 C561 1.376 . S
C558 C556 1.394 . S
C558 C559 1.369 . S
C558 C562 1.531 . S
C559 C558 1.369 . S
C559 C560 1.410 . S
C559 C567 1.503 . S
C560 C559 1.410 . S
C560 C561 1.392 . S
C560 C563 1.511 . S
C561 C557 1.376 . S
C561 C560 1.392 . S
C561 H573 0.929 . S
C562 C558 1.531 . S
C562 H574 0.960 . S
C562 H575 0.962 . S
C562 H576 0.960 . S
C563 C560 1.511 . S
C563 H577 0.961 . S
C563 H578 0.961 . S
C563 H579 0.961 . S
C564 C565 1.370 . S
C564 C566 1.363 . S
C564 H580 0.931 . S
C565 C564 1.370 . S
C565 C569 1.408 . S
C566 C564 1.363 . S
C566 C567 1.370 . S
C566 C570 1.524 . S
C567 C559 1.503 . S
C567 C566 1.370 . S
C567 C568 1.403 . S
C568 C567 1.403 . S
C568 C569 1.404 . S
C568 C571 1.539 . S
C569 C565 1.408 . S
C569 C568 1.404 . S
C569 H581 0.930 . S
C570 C566 1.524 . S
C570 H582 0.956 . S
C570 H583 0.961 . S
C570 H584 0.961 . S
C571 C568 1.539 . S
C571 H585 0.958 . S
C571 H586 0.961 . S
C571 H587 0.960 . S
H572 C556 0.931 . S
H573 C561 0.929 . S
H574 C562 0.960 . S
H575 C562 0.962 . S
H576 C562 0.960 . S
H577 C563 0.961 . S
H578 C563 0.961 . S
H579 C563 0.961 . S
H580 C564 0.931 . S
H581 C569 0.930 . S
H582 C570 0.956 . S
H583 C570 0.961 . S
H584 C570 0.961 . S
H585 C571 0.958 . S
H586 C571 0.961 . S
H587 C571 0.960 . S
C588 C589 1.391 . S
C588 C590 1.394 . S
C588 H604 0.931 . S
C589 C588 1.391 . S
C589 C593 1.376 . S
C590 C588 1.394 . S
C590 C591 1.369 . S
C590 C594 1.531 . S
C591 C590 1.369 . S
C591 C592 1.410 . S
C591 C599 1.503 . S
C592 C591 1.410 . S
C592 C593 1.392 . S
C592 C595 1.511 . S
C593 C589 1.376 . S
C593 C592 1.392 . S
C593 H605 0.929 . S
C594 C590 1.531 . S
C594 H606 0.960 . S
C594 H607 0.962 . S
C594 H608 0.960 . S
C595 C592 1.511 . S
C595 H609 0.961 . S
C595 H610 0.961 . S
C595 H611 0.961 . S
C596 C597 1.370 . S
C596 C598 1.363 . S
C596 H612 0.931 . S
C597 C596 1.370 . S
C597 C601 1.408 . S
C598 C596 1.363 . S
C598 C599 1.370 . S
C598 C602 1.524 . S
C599 C591 1.503 . S
C599 C598 1.370 . S
C599 C600 1.403 . S
C600 C599 1.403 . S
C600 C601 1.404 . S
C600 C603 1.539 . S
C601 C597 1.408 . S
C601 C600 1.404 . S
C601 H613 0.930 . S
C602 C598 1.524 . S
C602 H614 0.956 . S
C602 H615 0.961 . S
C602 H616 0.961 . S
C603 C600 1.539 . S
C603 H617 0.958 . S
C603 H618 0.961 . S
C603 H619 0.960 . S
H604 C588 0.931 . S
H605 C593 0.929 . S
H606 C594 0.960 . S
H607 C594 0.962 . S
H608 C594 0.960 . S
H609 C595 0.961 . S
H610 C595 0.961 . S
H611 C595 0.961 . S
H612 C596 0.931 . S
H613 C601 0.930 . S
H614 C602 0.956 . S
H615 C602 0.961 . S
H616 C602 0.961 . S
H617 C603 0.958 . S
H618 C603 0.961 . S
H619 C603 0.960 . S
C620 C621 1.391 . S
C620 C622 1.394 . S
C620 H636 0.931 . S
C621 C620 1.391 . S
C621 C625 1.376 . S
C622 C620 1.394 . S
C622 C623 1.369 . S
C622 C626 1.531 . S
C623 C622 1.369 . S
C623 C624 1.410 . S
C623 C631 1.503 . S
C624 C623 1.410 . S
C624 C625 1.392 . S
C624 C627 1.511 . S
C625 C621 1.376 . S
C625 C624 1.392 . S
C625 H637 0.929 . S
C626 C622 1.531 . S
C626 H638 0.960 . S
C626 H639 0.962 . S
C626 H640 0.960 . S
C627 C624 1.511 . S
C627 H641 0.961 . S
C627 H642 0.961 . S
C627 H643 0.961 . S
C628 C629 1.370 . S
C628 C630 1.363 . S
C628 H644 0.931 . S
C629 C628 1.370 . S
C629 C633 1.408 . S
C630 C628 1.363 . S
C630 C631 1.370 . S
C630 C634 1.524 . S
C631 C623 1.503 . S
C631 C630 1.370 . S
C631 C632 1.403 . S
C632 C631 1.403 . S
C632 C633 1.404 . S
C632 C635 1.539 . S
C633 C629 1.408 . S
C633 C632 1.404 . S
C633 H645 0.930 . S
C634 C630 1.524 . S
C634 H646 0.956 . S
C634 H647 0.961 . S
C634 H648 0.961 . S
C635 C632 1.539 . S
C635 H649 0.958 . S
C635 H650 0.961 . S
C635 H651 0.960 . S
H636 C620 0.931 . S
H637 C625 0.929 . S
H638 C626 0.960 . S
H639 C626 0.962 . S
H640 C626 0.960 . S
H641 C627 0.961 . S
H642 C627 0.961 . S
H643 C627 0.961 . S
H644 C628 0.931 . S
H645 C633 0.930 . S
H646 C634 0.956 . S
H647 C634 0.961 . S
H648 C634 0.961 . S
H649 C635 0.958 . S
H650 C635 0.961 . S
H651 C635 0.960 . S
C652 C653 1.391 . S
C652 C654 1.394 . S
C652 H668 0.931 . S
C653 C652 1.391 . S
C653 C657 1.376 . S
C654 C652 1.394 . S
C654 C655 1.369 . S
C654 C658 1.531 . S
C655 C654 1.369 . S
C655 C656 1.410 . S
C655 C663 1.503 . S
C656 C655 1.410 . S
C656 C657 1.392 . S
C656 C659 1.511 . S
C657 C653 1.376 . S
C657 C656 1.392 . S
C657 H669 0.929 . S
C658 C654 1.531 . S
C658 H670 0.960 . S
C658 H671 0.962 . S
C658 H672 0.960 . S
C659 C656 1.511 . S
C659 H673 0.961 . S
C659 H674 0.961 . S
C659 H675 0.961 . S
C660 C661 1.370 . S
C660 C662 1.363 . S
C660 H676 0.931 . S
C661 C660 1.370 . S
C661 C665 1.408 . S
C662 C660 1.363 . S
C662 C663 1.370 . S
C662 C666 1.524 . S
C663 C655 1.503 . S
C663 C662 1.370 . S
C663 C664 1.403 . S
C664 C663 1.403 . S
C664 C665 1.404 . S
C664 C667 1.539 . S
C665 C661 1.408 . S
C665 C664 1.404 . S
C665 H677 0.930 . S
C666 C662 1.524 . S
C666 H678 0.956 . S
C666 H679 0.961 . S
C666 H680 0.961 . S
C667 C664 1.539 . S
C667 H681 0.958 . S
C667 H682 0.961 . S
C667 H683 0.960 . S
H668 C652 0.931 . S
H669 C657 0.929 . S
H670 C658 0.960 . S
H671 C658 0.962 . S
H672 C658 0.960 . S
H673 C659 0.961 . S
H674 C659 0.961 . S
H675 C659 0.961 . S
H676 C660 0.931 . S
H677 C665 0.930 . S
H678 C666 0.956 . S
H679 C666 0.961 . S
H680 C666 0.961 . S
H681 C667 0.958 . S
H682 C667 0.961 . S
H683 C667 0.960 . S
C684 C685 1.391 . S
C684 C686 1.394 . S
C684 H700 0.931 . S
C685 C684 1.391 . S
C685 C689 1.376 . S
C686 C684 1.394 . S
C686 C687 1.369 . S
C686 C690 1.531 . S
C687 C686 1.369 . S
C687 C688 1.410 . S
C687 C695 1.503 . S
C688 C687 1.410 . S
C688 C689 1.392 . S
C688 C691 1.511 . S
C689 C685 1.376 . S
C689 C688 1.392 . S
C689 H701 0.929 . S
C690 C686 1.531 . S
C690 H702 0.960 . S
C690 H703 0.962 . S
C690 H704 0.960 . S
C691 C688 1.511 . S
C691 H705 0.961 . S
C691 H706 0.961 . S
C691 H707 0.961 . S
C692 C693 1.370 . S
C692 C694 1.363 . S
C692 H708 0.931 . S
C693 C692 1.370 . S
C693 C697 1.408 . S
C694 C692 1.363 . S
C694 C695 1.370 . S
C694 C698 1.524 . S
C695 C687 1.503 . S
C695 C694 1.370 . S
C695 C696 1.403 . S
C696 C695 1.403 . S
C696 C697 1.404 . S
C696 C699 1.539 . S
C697 C693 1.408 . S
C697 C696 1.404 . S
C697 H709 0.930 . S
C698 C694 1.524 . S
C698 H710 0.956 . S
C698 H711 0.961 . S
C698 H712 0.961 . S
C699 C696 1.539 . S
C699 H713 0.958 . S
C699 H714 0.961 . S
C699 H715 0.960 . S
H700 C684 0.931 . S
H701 C689 0.929 . S
H702 C690 0.960 . S
H703 C690 0.962 . S
H704 C690 0.960 . S
H705 C691 0.961 . S
H706 C691 0.961 . S
H707 C691 0.961 . S
H708 C692 0.931 . S
H709 C697 0.930 . S
H710 C698 0.956 . S
H711 C698 0.961 . S
H712 C698 0.961 . S
H713 C699 0.958 . S
H714 C699 0.961 . S
H715 C699 0.960 . S
C716 C717 1.391 . S
C716 C718 1.394 . S
C716 H732 0.931 . S
C717 C716 1.391 . S
C717 C721 1.376 . S
C718 C716 1.394 . S
C718 C719 1.369 . S
C718 C722 1.531 . S
C719 C718 1.369 . S
C719 C720 1.410 . S
C719 C727 1.503 . S
C720 C719 1.410 . S
C720 C721 1.392 . S
C720 C723 1.511 . S
C721 C717 1.376 . S
C721 C720 1.392 . S
C721 H733 0.929 . S
C722 C718 1.531 . S
C722 H734 0.960 . S
C722 H735 0.962 . S
C722 H736 0.960 . S
C723 C720 1.511 . S
C723 H737 0.961 . S
C723 H738 0.961 . S
C723 H739 0.961 . S
C724 C725 1.370 . S
C724 C726 1.363 . S
C724 H740 0.931 . S
C725 C724 1.370 . S
C725 C729 1.408 . S
C726 C724 1.363 . S
C726 C727 1.370 . S
C726 C730 1.524 . S
C727 C719 1.503 . S
C727 C726 1.370 . S
C727 C728 1.403 . S
C728 C727 1.403 . S
C728 C729 1.404 . S
C728 C731 1.539 . S
C729 C725 1.408 . S
C729 C728 1.404 . S
C729 H741 0.930 . S
C730 C726 1.524 . S
C730 H742 0.956 . S
C730 H743 0.961 . S
C730 H744 0.961 . S
C731 C728 1.539 . S
C731 H745 0.958 . S
C731 H746 0.961 . S
C731 H747 0.960 . S
H732 C716 0.931 . S
H733 C721 0.929 . S
H734 C722 0.960 . S
H735 C722 0.962 . S
H736 C722 0.960 . S
H737 C723 0.961 . S
H738 C723 0.961 . S
H739 C723 0.961 . S
H740 C724 0.931 . S
H741 C729 0.930 . S
H742 C730 0.956 . S
H743 C730 0.961 . S
H744 C730 0.961 . S
H745 C731 0.958 . S
H746 C731 0.961 . S
H747 C731 0.960 . S
C748 C749 1.391 . S
C748 C750 1.394 . S
C748 H764 0.931 . S
C749 C748 1.391 . S
C749 C753 1.376 . S
C750 C748 1.394 . S
C750 C751 1.369 . S
C750 C754 1.531 . S
C751 C750 1.369 . S
C751 C752 1.410 . S
C751 C759 1.503 . S
C752 C751 1.410 . S
C752 C753 1.392 . S
C752 C755 1.511 . S
C753 C749 1.376 . S
C753 C752 1.392 . S
C753 H765 0.929 . S
C754 C750 1.531 . S
C754 H766 0.960 . S
C754 H767 0.962 . S
C754 H768 0.960 . S
C755 C752 1.511 . S
C755 H769 0.961 . S
C755 H770 0.961 . S
C755 H771 0.961 . S
C756 C757 1.370 . S
C756 C758 1.363 . S
C756 H772 0.931 . S
C757 C756 1.370 . S
C757 C761 1.408 . S
C758 C756 1.363 . S
C758 C759 1.370 . S
C758 C762 1.524 . S
C759 C751 1.503 . S
C759 C758 1.370 . S
C759 C760 1.403 . S
C760 C759 1.403 . S
C760 C761 1.404 . S
C760 C763 1.539 . S
C761 C757 1.408 . S
C761 C760 1.404 . S
C761 H773 0.930 . S
C762 C758 1.524 . S
C762 H774 0.956 . S
C762 H775 0.961 . S
C762 H776 0.961 . S
C763 C760 1.539 . S
C763 H777 0.958 . S
C763 H778 0.961 . S
C763 H779 0.960 . S
H764 C748 0.931 . S
H765 C753 0.929 . S
H766 C754 0.960 . S
H767 C754 0.962 . S
H768 C754 0.960 . S
H769 C755 0.961 . S
H770 C755 0.961 . S
H771 C755 0.961 . S
H772 C756 0.931 . S
H773 C761 0.930 . S
H774 C762 0.956 . S
H775 C762 0.961 . S
H776 C762 0.961 . S
H777 C763 0.958 . S
H778 C763 0.961 . S
H779 C763 0.960 . S
C780 C781 1.391 . S
C780 C782 1.394 . S
C780 H796 0.931 . S
C781 C780 1.391 . S
C781 C785 1.376 . S
C782 C780 1.394 . S
C782 C783 1.369 . S
C782 C786 1.531 . S
C783 C782 1.369 . S
C783 C784 1.410 . S
C783 C791 1.503 . S
C784 C783 1.410 . S
C784 C785 1.392 . S
C784 C787 1.511 . S
C785 C781 1.376 . S
C785 C784 1.392 . S
C785 H797 0.929 . S
C786 C782 1.531 . S
C786 H798 0.960 . S
C786 H799 0.962 . S
C786 H800 0.960 . S
C787 C784 1.511 . S
C787 H801 0.961 . S
C787 H802 0.961 . S
C787 H803 0.961 . S
C788 C789 1.370 . S
C788 C790 1.363 . S
C788 H804 0.931 . S
C789 C788 1.370 . S
C789 C793 1.408 . S
C790 C788 1.363 . S
C790 C791 1.370 . S
C790 C794 1.524 . S
C791 C783 1.503 . S
C791 C790 1.370 . S
C791 C792 1.403 . S
C792 C791 1.403 . S
C792 C793 1.404 . S
C792 C795 1.539 . S
C793 C789 1.408 . S
C793 C792 1.404 . S
C793 H805 0.930 . S
C794 C790 1.524 . S
C794 H806 0.956 . S
C794 H807 0.961 . S
C794 H808 0.961 . S
C795 C792 1.539 . S
C795 H809 0.958 . S
C795 H810 0.961 . S
C795 H811 0.960 . S
H796 C780 0.931 . S
H797 C785 0.929 . S
H798 C786 0.960 . S
H799 C786 0.962 . S
H800 C786 0.960 . S
H801 C787 0.961 . S
H802 C787 0.961 . S
H803 C787 0.961 . S
H804 C788 0.931 . S
H805 C793 0.930 . S
H806 C794 0.956 . S
H807 C794 0.961 . S
H808 C794 0.961 . S
H809 C795 0.958 . S
H810 C795 0.961 . S
H811 C795 0.960 . S
C812 C813 1.391 . S
C812 C814 1.394 . S
C812 H828 0.931 . S
C813 C812 1.391 . S
C813 C817 1.376 . S
C814 C812 1.394 . S
C814 C815 1.369 . S
C814 C818 1.531 . S
C815 C814 1.369 . S
C815 C816 1.410 . S
C815 C823 1.503 . S
C816 C815 1.410 . S
C816 C817 1.392 . S
C816 C819 1.511 . S
C817 C813 1.376 . S
C817 C816 1.392 . S
C817 H829 0.929 . S
C818 C814 1.531 . S
C818 H830 0.960 . S
C818 H831 0.962 . S
C818 H832 0.960 . S
C819 C816 1.511 . S
C819 H833 0.961 . S
C819 H834 0.961 . S
C819 H835 0.961 . S
C820 C821 1.370 . S
C820 C822 1.363 . S
C820 H836 0.931 . S
C821 C820 1.370 . S
C821 C825 1.408 . S
C822 C820 1.363 . S
C822 C823 1.370 . S
C822 C826 1.524 . S
C823 C815 1.503 . S
C823 C822 1.370 . S
C823 C824 1.403 . S
C824 C823 1.403 . S
C824 C825 1.404 . S
C824 C827 1.539 . S
C825 C821 1.408 . S
C825 C824 1.404 . S
C825 H837 0.930 . S
C826 C822 1.524 . S
C826 H838 0.956 . S
C826 H839 0.961 . S
C826 H840 0.961 . S
C827 C824 1.539 . S
C827 H841 0.958 . S
C827 H842 0.961 . S
C827 H843 0.960 . S
H828 C812 0.931 . S
H829 C817 0.929 . S
H830 C818 0.960 . S
H831 C818 0.962 . S
H832 C818 0.960 . S
H833 C819 0.961 . S
H834 C819 0.961 . S
H835 C819 0.961 . S
H836 C820 0.931 . S
H837 C825 0.930 . S
H838 C826 0.956 . S
H839 C826 0.961 . S
H840 C826 0.961 . S
H841 C827 0.958 . S
H842 C827 0.961 . S
H843 C827 0.960 . S
C844 C845 1.391 . S
C844 C846 1.394 . S
C844 H860 0.931 . S
C845 C844 1.391 . S
C845 C849 1.376 . S
C846 C844 1.394 . S
C846 C847 1.369 . S
C846 C850 1.531 . S
C847 C846 1.369 . S
C847 C848 1.410 . S
C847 C855 1.503 . S
C848 C847 1.410 . S
C848 C849 1.392 . S
C848 C851 1.511 . S
C849 C845 1.376 . S
C849 C848 1.392 . S
C849 H861 0.929 . S
C850 C846 1.531 . S
C850 H862 0.960 . S
C850 H863 0.962 . S
C850 H864 0.960 . S
C851 C848 1.511 . S
C851 H865 0.961 . S
C851 H866 0.961 . S
C851 H867 0.961 . S
C852 C853 1.370 . S
C852 C854 1.363 . S
C852 H868 0.931 . S
C853 C852 1.370 . S
C853 C857 1.408 . S
C854 C852 1.363 . S
C854 C855 1.370 . S
C854 C858 1.524 . S
C855 C847 1.503 . S
C855 C854 1.370 . S
C855 C856 1.403 . S
C856 C855 1.403 . S
C856 C857 1.404 . S
C856 C859 1.539 . S
C857 C853 1.408 . S
C857 C856 1.404 . S
C857 H869 0.930 . S
C858 C854 1.524 . S
C858 H870 0.956 . S
C858 H871 0.961 . S
C858 H872 0.961 . S
C859 C856 1.539 . S
C859 H873 0.958 . S
C859 H874 0.961 . S
C859 H875 0.960 . S
H860 C844 0.931 . S
H861 C849 0.929 . S
H862 C850 0.960 . S
H863 C850 0.962 . S
H864 C850 0.960 . S
H865 C851 0.961 . S
H866 C851 0.961 . S
H867 C851 0.961 . S
H868 C852 0.931 . S
H869 C857 0.930 . S
H870 C858 0.956 . S
H871 C858 0.961 . S
H872 C858 0.961 . S
H873 C859 0.958 . S
H874 C859 0.961 . S
H875 C859 0.960 . S
C876 C877 1.391 . S
C876 C878 1.394 . S
C876 H892 0.931 . S
C877 C876 1.391 . S
C877 C881 1.376 . S
C878 C876 1.394 . S
C878 C879 1.369 . S
C878 C882 1.531 1_565 S
C879 C878 1.369 . S
C879 C880 1.410 . S
C879 C887 1.503 1_565 S
C880 C879 1.410 . S
C880 C881 1.392 . S
C880 C883 1.511 . S
C881 C877 1.376 . S
C881 C880 1.392 . S
C881 H893 0.929 . S
C882 C878 1.531 1_545 S
C882 H894 0.960 . S
C882 H895 0.962 . S
C882 H896 0.960 . S
C883 C880 1.511 . S
C883 H897 0.961 . S
C883 H898 0.961 . S
C883 H899 0.961 . S
C884 C885 1.370 . S
C884 C886 1.363 . S
C884 H900 0.931 . S
C885 C884 1.370 . S
C885 C889 1.408 . S
C886 C884 1.363 . S
C886 C887 1.370 . S
C886 C890 1.524 1_545 S
C887 C879 1.503 1_545 S
C887 C886 1.370 . S
C887 C888 1.403 . S
C888 C887 1.403 . S
C888 C889 1.404 . S
C888 C891 1.539 . S
C889 C885 1.408 . S
C889 C888 1.404 . S
C889 H901 0.930 . S
C890 C886 1.524 1_565 S
C890 H902 0.956 . S
C890 H903 0.961 . S
C890 H904 0.961 1_565 S
C891 C888 1.539 . S
C891 H905 0.958 . S
C891 H906 0.961 . S
C891 H907 0.960 . S
H892 C876 0.931 . S
H893 C881 0.929 . S
H894 C882 0.960 . S
H895 C882 0.962 . S
H896 C882 0.960 . S
H897 C883 0.961 . S
H898 C883 0.961 . S
H899 C883 0.961 . S
H900 C884 0.931 . S
H901 C889 0.930 . S
H902 C890 0.956 . S
H903 C890 0.961 . S
H904 C890 0.961 1_545 S
H905 C891 0.958 . S
H906 C891 0.961 . S
H907 C891 0.960 . S
C908 C909 1.391 . S
C908 C910 1.394 . S
C908 H924 0.931 . S
C909 C908 1.391 . S
C909 C913 1.376 . S
C910 C908 1.394 . S
C910 C911 1.369 . S
C910 C914 1.531 . S
C911 C910 1.369 . S
C911 C912 1.410 . S
C911 C919 1.503 . S
C912 C911 1.410 . S
C912 C913 1.392 . S
C912 C915 1.511 . S
C913 C909 1.376 . S
C913 C912 1.392 . S
C913 H925 0.929 . S
C914 C910 1.531 . S
C914 H926 0.960 . S
C914 H927 0.962 . S
C914 H928 0.960 . S
C915 C912 1.511 . S
C915 H929 0.961 . S
C915 H930 0.961 . S
C915 H931 0.961 . S
C916 C917 1.370 . S
C916 C918 1.363 . S
C916 H932 0.931 . S
C917 C916 1.370 . S
C917 C921 1.408 . S
C918 C916 1.363 . S
C918 C919 1.370 . S
C918 C922 1.524 . S
C919 C911 1.503 . S
C919 C918 1.370 . S
C919 C920 1.403 . S
C920 C919 1.403 . S
C920 C921 1.404 . S
C920 C923 1.539 . S
C921 C917 1.408 . S
C921 C920 1.404 . S
C921 H933 0.930 . S
C922 C918 1.524 . S
C922 H934 0.956 . S
C922 H935 0.961 . S
C922 H936 0.961 . S
C923 C920 1.539 . S
C923 H937 0.958 . S
C923 H938 0.961 . S
C923 H939 0.960 . S
H924 C908 0.931 . S
H925 C913 0.929 . S
H926 C914 0.960 . S
H927 C914 0.962 . S
H928 C914 0.960 . S
H929 C915 0.961 . S
H930 C915 0.961 . S
H931 C915 0.961 . S
H932 C916 0.931 . S
H933 C921 0.930 . S
H934 C922 0.956 . S
H935 C922 0.961 . S
H936 C922 0.961 . S
H937 C923 0.958 . S
H938 C923 0.961 . S
H939 C923 0.960 . S
C181 C100 1.662 . S
C173 C5 1.483 . S
C213 C103 1.452 . S
C205 C16 1.296 . S
C245 C101 1.732 . S
C237 C30 1.750 . S
C277 C102 1.584 . S
C269 C40 1.544 . S
C309 C117 1.432 . S
C301 C8 1.435 . S
C341 C131 1.371 . S
C333 C18 1.272 . S
C365 C29 1.680 . S
C373 C157 1.730 . S
C405 C171 1.564 . S
C397 C38 1.341 . S
C437 C116 1.409 . S
C429 C19 1.410 . S
C461 C27 1.473 . S
C469 C130 1.588 . S
C501 C156 1.541 . S
C493 C41 1.525 . S
C533 C170 1.628 . S
C525 C7 1.586 . S
C557 C52 1.560 . S
C565 C115 1.589 . S
C597 C88 1.703 . S
C589 C62 1.658 . S
C621 C74 1.400 . S
C629 C114 1.401 . S
C653 C82 1.211 . S
C661 C89 1.486 . S
C693 C144 1.803 . S
C685 C51 1.728 . S
C725 C158 1.682 . S
C717 C60 1.463 . S
C757 C128 1.440 . S
C749 C71 1.323 . S
C781 C84 1.417 . S
C789 C142 1.438 . S
C821 C145 1.669 . S
C813 C63 1.641 . S
C853 C159 1.488 . S
C845 C73 1.488 . S
C885 C129 1.490 . S
C877 C85 1.486 . S
C909 C49 1.364 . S
C917 C143 1.591 . S
