# Generated by pormake.
# Topology gar, (4,6)-cn, num edge types: 1
# Building blocks:
#     Node 0, Type 0, BuildingBlock: CEKHIL_clean_sbu_0, # of connection points: 4
#     Node 1, Type 0, BuildingBlock: CEKHIL_clean_sbu_0, # of connection points: 4
#     Node 2, Type 0, BuildingBlock: CEKHIL_clean_sbu_0, # of connection points: 4
#     Node 3, Type 0, BuildingBlock: CEKHIL_clean_sbu_0, # of connection points: 4
#     Node 4, Type 0, BuildingBlock: CEKHIL_clean_sbu_0, # of connection points: 4
#     Node 5, Type 0, BuildingBlock: CEKHIL_clean_sbu_0, # of connection points: 4
#     Node 6, Type 0, BuildingBlock: CEKHIL_clean_sbu_0, # of connection points: 4
#     Node 7, Type 0, BuildingBlock: CEKHIL_clean_sbu_0, # of connection points: 4
#     Node 8, Type 0, BuildingBlock: CEKHIL_clean_sbu_0, # of connection points: 4
#     Node 9, Type 0, BuildingBlock: CEKHIL_clean_sbu_0, # of connection points: 4
#     Node 10, Type 0, BuildingBlock: CEKHIL_clean_sbu_0, # of connection points: 4
#     Node 11, Type 0, BuildingBlock: CEKHIL_clean_sbu_0, # of connection points: 4
#     Node 12, Type 0, BuildingBlock: CEKHIL_clean_sbu_0, # of connection points: 4
#     Node 13, Type 0, BuildingBlock: CEKHIL_clean_sbu_0, # of connection points: 4
#     Node 14, Type 0, BuildingBlock: CEKHIL_clean_sbu_0, # of connection points: 4
#     Node 15, Type 0, BuildingBlock: CEKHIL_clean_sbu_0, # of connection points: 4
#     Node 16, Type 0, BuildingBlock: CEKHIL_clean_sbu_0, # of connection points: 4
#     Node 17, Type 0, BuildingBlock: CEKHIL_clean_sbu_0, # of connection points: 4
#     Node 18, Type 0, BuildingBlock: CEKHIL_clean_sbu_0, # of connection points: 4
#     Node 19, Type 0, BuildingBlock: CEKHIL_clean_sbu_0, # of connection points: 4
#     Node 20, Type 0, BuildingBlock: CEKHIL_clean_sbu_0, # of connection points: 4
#     Node 21, Type 0, BuildingBlock: CEKHIL_clean_sbu_0, # of connection points: 4
#     Node 22, Type 0, BuildingBlock: CEKHIL_clean_sbu_0, # of connection points: 4
#     Node 23, Type 0, BuildingBlock: CEKHIL_clean_sbu_0, # of connection points: 4
#     Node 24, Type 1, BuildingBlock: CUKXOW_clean_sbu_0, # of connection points: 6
#     Node 25, Type 1, BuildingBlock: CUKXOW_clean_sbu_0, # of connection points: 6
#     Node 26, Type 1, BuildingBlock: CUKXOW_clean_sbu_0, # of connection points: 6
#     Node 27, Type 1, BuildingBlock: CUKXOW_clean_sbu_0, # of connection points: 6
#     Node 28, Type 1, BuildingBlock: CUKXOW_clean_sbu_0, # of connection points: 6
#     Node 29, Type 1, BuildingBlock: CUKXOW_clean_sbu_0, # of connection points: 6
#     Node 30, Type 1, BuildingBlock: CUKXOW_clean_sbu_0, # of connection points: 6
#     Node 31, Type 1, BuildingBlock: CUKXOW_clean_sbu_0, # of connection points: 6
#     Node 32, Type 1, BuildingBlock: CUKXOW_clean_sbu_0, # of connection points: 6
#     Node 33, Type 1, BuildingBlock: CUKXOW_clean_sbu_0, # of connection points: 6
#     Node 34, Type 1, BuildingBlock: CUKXOW_clean_sbu_0, # of connection points: 6
#     Node 35, Type 1, BuildingBlock: CUKXOW_clean_sbu_0, # of connection points: 6
#     Node 36, Type 1, BuildingBlock: CUKXOW_clean_sbu_0, # of connection points: 6
#     Node 37, Type 1, BuildingBlock: CUKXOW_clean_sbu_0, # of connection points: 6
#     Node 38, Type 1, BuildingBlock: CUKXOW_clean_sbu_0, # of connection points: 6
#     Node 39, Type 1, BuildingBlock: CUKXOW_clean_sbu_0, # of connection points: 6
#     Edge 40, Type (0, 1), BuildingBlock: UVAHIK_clean_linker_0, # of connection points: 2
#     Edge 41, Type (0, 1), BuildingBlock: UVAHIK_clean_linker_0, # of connection points: 2
#     Edge 42, Type (0, 1), BuildingBlock: UVAHIK_clean_linker_0, # of connection points: 2
#     Edge 43, Type (0, 1), BuildingBlock: UVAHIK_clean_linker_0, # of connection points: 2
#     Edge 44, Type (0, 1), BuildingBlock: UVAHIK_clean_linker_0, # of connection points: 2
#     Edge 45, Type (0, 1), BuildingBlock: UVAHIK_clean_linker_0, # of connection points: 2
#     Edge 46, Type (0, 1), BuildingBlock: UVAHIK_clean_linker_0, # of connection points: 2
#     Edge 47, Type (0, 1), BuildingBlock: UVAHIK_clean_linker_0, # of connection points: 2
#     Edge 48, Type (0, 1), BuildingBlock: UVAHIK_clean_linker_0, # of connection points: 2
#     Edge 49, Type (0, 1), BuildingBlock: UVAHIK_clean_linker_0, # of connection points: 2
#     Edge 50, Type (0, 1), BuildingBlock: UVAHIK_clean_linker_0, # of connection points: 2
#     Edge 51, Type (0, 1), BuildingBlock: UVAHIK_clean_linker_0, # of connection points: 2
#     Edge 52, Type (0, 1), BuildingBlock: UVAHIK_clean_linker_0, # of connection points: 2
#     Edge 53, Type (0, 1), BuildingBlock: UVAHIK_clean_linker_0, # of connection points: 2
#     Edge 54, Type (0, 1), BuildingBlock: UVAHIK_clean_linker_0, # of connection points: 2
#     Edge 55, Type (0, 1), BuildingBlock: UVAHIK_clean_linker_0, # of connection points: 2
#     Edge 56, Type (0, 1), BuildingBlock: UVAHIK_clean_linker_0, # of connection points: 2
#     Edge 57, Type (0, 1), BuildingBlock: UVAHIK_clean_linker_0, # of connection points: 2
#     Edge 58, Type (0, 1), BuildingBlock: UVAHIK_clean_linker_0, # of connection points: 2
#     Edge 59, Type (0, 1), BuildingBlock: UVAHIK_clean_linker_0, # of connection points: 2
#     Edge 60, Type (0, 1), BuildingBlock: UVAHIK_clean_linker_0, # of connection points: 2
#     Edge 61, Type (0, 1), BuildingBlock: UVAHIK_clean_linker_0, # of connection points: 2
#     Edge 62, Type (0, 1), BuildingBlock: UVAHIK_clean_linker_0, # of connection points: 2
#     Edge 63, Type (0, 1), BuildingBlock: UVAHIK_clean_linker_0, # of connection points: 2
#     Edge 64, Type (0, 1), BuildingBlock: UVAHIK_clean_linker_0, # of connection points: 2
#     Edge 65, Type (0, 1), BuildingBlock: UVAHIK_clean_linker_0, # of connection points: 2
#     Edge 66, Type (0, 1), BuildingBlock: UVAHIK_clean_linker_0, # of connection points: 2
#     Edge 67, Type (0, 1), BuildingBlock: UVAHIK_clean_linker_0, # of connection points: 2
#     Edge 68, Type (0, 1), BuildingBlock: UVAHIK_clean_linker_0, # of connection points: 2
#     Edge 69, Type (0, 1), BuildingBlock: UVAHIK_clean_linker_0, # of connection points: 2
#     Edge 70, Type (0, 1), BuildingBlock: UVAHIK_clean_linker_0, # of connection points: 2
#     Edge 71, Type (0, 1), BuildingBlock: UVAHIK_clean_linker_0, # of connection points: 2
#     Edge 72, Type (0, 1), BuildingBlock: UVAHIK_clean_linker_0, # of connection points: 2
#     Edge 73, Type (0, 1), BuildingBlock: UVAHIK_clean_linker_0, # of connection points: 2
#     Edge 74, Type (0, 1), BuildingBlock: UVAHIK_clean_linker_0, # of connection points: 2
#     Edge 75, Type (0, 1), BuildingBlock: UVAHIK_clean_linker_0, # of connection points: 2
#     Edge 76, Type (0, 1), BuildingBlock: UVAHIK_clean_linker_0, # of connection points: 2
#     Edge 77, Type (0, 1), BuildingBlock: UVAHIK_clean_linker_0, # of connection points: 2
#     Edge 78, Type (0, 1), BuildingBlock: UVAHIK_clean_linker_0, # of connection points: 2
#     Edge 79, Type (0, 1), BuildingBlock: UVAHIK_clean_linker_0, # of connection points: 2
#     Edge 80, Type (0, 1), BuildingBlock: UVAHIK_clean_linker_0, # of connection points: 2
#     Edge 81, Type (0, 1), BuildingBlock: UVAHIK_clean_linker_0, # of connection points: 2
#     Edge 82, Type (0, 1), BuildingBlock: UVAHIK_clean_linker_0, # of connection points: 2
#     Edge 83, Type (0, 1), BuildingBlock: UVAHIK_clean_linker_0, # of connection points: 2
#     Edge 84, Type (0, 1), BuildingBlock: UVAHIK_clean_linker_0, # of connection points: 2
#     Edge 85, Type (0, 1), BuildingBlock: UVAHIK_clean_linker_0, # of connection points: 2
#     Edge 86, Type (0, 1), BuildingBlock: UVAHIK_clean_linker_0, # of connection points: 2
#     Edge 87, Type (0, 1), BuildingBlock: UVAHIK_clean_linker_0, # of connection points: 2
#     Edge 88, Type (0, 1), BuildingBlock: UVAHIK_clean_linker_0, # of connection points: 2
#     Edge 89, Type (0, 1), BuildingBlock: UVAHIK_clean_linker_0, # of connection points: 2
#     Edge 90, Type (0, 1), BuildingBlock: UVAHIK_clean_linker_0, # of connection points: 2
#     Edge 91, Type (0, 1), BuildingBlock: UVAHIK_clean_linker_0, # of connection points: 2
#     Edge 92, Type (0, 1), BuildingBlock: UVAHIK_clean_linker_0, # of connection points: 2
#     Edge 93, Type (0, 1), BuildingBlock: UVAHIK_clean_linker_0, # of connection points: 2
#     Edge 94, Type (0, 1), BuildingBlock: UVAHIK_clean_linker_0, # of connection points: 2
#     Edge 95, Type (0, 1), BuildingBlock: UVAHIK_clean_linker_0, # of connection points: 2
#     Edge 96, Type (0, 1), BuildingBlock: UVAHIK_clean_linker_0, # of connection points: 2
#     Edge 97, Type (0, 1), BuildingBlock: UVAHIK_clean_linker_0, # of connection points: 2
#     Edge 98, Type (0, 1), BuildingBlock: UVAHIK_clean_linker_0, # of connection points: 2
#     Edge 99, Type (0, 1), BuildingBlock: UVAHIK_clean_linker_0, # of connection points: 2
#     Edge 100, Type (0, 1), BuildingBlock: UVAHIK_clean_linker_0, # of connection points: 2
#     Edge 101, Type (0, 1), BuildingBlock: UVAHIK_clean_linker_0, # of connection points: 2
#     Edge 102, Type (0, 1), BuildingBlock: UVAHIK_clean_linker_0, # of connection points: 2
#     Edge 103, Type (0, 1), BuildingBlock: UVAHIK_clean_linker_0, # of connection points: 2
#     Edge 104, Type (0, 1), BuildingBlock: UVAHIK_clean_linker_0, # of connection points: 2
#     Edge 105, Type (0, 1), BuildingBlock: UVAHIK_clean_linker_0, # of connection points: 2
#     Edge 106, Type (0, 1), BuildingBlock: UVAHIK_clean_linker_0, # of connection points: 2
#     Edge 107, Type (0, 1), BuildingBlock: UVAHIK_clean_linker_0, # of connection points: 2
#     Edge 108, Type (0, 1), BuildingBlock: UVAHIK_clean_linker_0, # of connection points: 2
#     Edge 109, Type (0, 1), BuildingBlock: UVAHIK_clean_linker_0, # of connection points: 2
#     Edge 110, Type (0, 1), BuildingBlock: UVAHIK_clean_linker_0, # of connection points: 2
#     Edge 111, Type (0, 1), BuildingBlock: UVAHIK_clean_linker_0, # of connection points: 2
#     Edge 112, Type (0, 1), BuildingBlock: UVAHIK_clean_linker_0, # of connection points: 2
#     Edge 113, Type (0, 1), BuildingBlock: UVAHIK_clean_linker_0, # of connection points: 2
#     Edge 114, Type (0, 1), BuildingBlock: UVAHIK_clean_linker_0, # of connection points: 2
#     Edge 115, Type (0, 1), BuildingBlock: UVAHIK_clean_linker_0, # of connection points: 2
#     Edge 116, Type (0, 1), BuildingBlock: UVAHIK_clean_linker_0, # of connection points: 2
#     Edge 117, Type (0, 1), BuildingBlock: UVAHIK_clean_linker_0, # of connection points: 2
#     Edge 118, Type (0, 1), BuildingBlock: UVAHIK_clean_linker_0, # of connection points: 2
#     Edge 119, Type (0, 1), BuildingBlock: UVAHIK_clean_linker_0, # of connection points: 2
#     Edge 120, Type (0, 1), BuildingBlock: UVAHIK_clean_linker_0, # of connection points: 2
#     Edge 121, Type (0, 1), BuildingBlock: UVAHIK_clean_linker_0, # of connection points: 2
#     Edge 122, Type (0, 1), BuildingBlock: UVAHIK_clean_linker_0, # of connection points: 2
#     Edge 123, Type (0, 1), BuildingBlock: UVAHIK_clean_linker_0, # of connection points: 2
#     Edge 124, Type (0, 1), BuildingBlock: UVAHIK_clean_linker_0, # of connection points: 2
#     Edge 125, Type (0, 1), BuildingBlock: UVAHIK_clean_linker_0, # of connection points: 2
#     Edge 126, Type (0, 1), BuildingBlock: UVAHIK_clean_linker_0, # of connection points: 2
#     Edge 127, Type (0, 1), BuildingBlock: UVAHIK_clean_linker_0, # of connection points: 2
#     Edge 128, Type (0, 1), BuildingBlock: UVAHIK_clean_linker_0, # of connection points: 2
#     Edge 129, Type (0, 1), BuildingBlock: UVAHIK_clean_linker_0, # of connection points: 2
#     Edge 130, Type (0, 1), BuildingBlock: UVAHIK_clean_linker_0, # of connection points: 2
#     Edge 131, Type (0, 1), BuildingBlock: UVAHIK_clean_linker_0, # of connection points: 2
#     Edge 132, Type (0, 1), BuildingBlock: UVAHIK_clean_linker_0, # of connection points: 2
#     Edge 133, Type (0, 1), BuildingBlock: UVAHIK_clean_linker_0, # of connection points: 2
#     Edge 134, Type (0, 1), BuildingBlock: UVAHIK_clean_linker_0, # of connection points: 2
#     Edge 135, Type (0, 1), BuildingBlock: UVAHIK_clean_linker_0, # of connection points: 2
# Relax obj value: 0.103
# Max RMSD: 0.219
# Mean RMSD: 0.119
data_MOF--net-gar--node1-CEKHIL_clean_sbu_0--node2-CUKXOW_clean_sbu_0--edge1-UVAHIK_clean_linker_0
_symmetry_space_group_name_H-M    P1
_symmetry_Int_Tables_number       1
_symmetry_cell_setting            triclinic
loop_
_symmetry_equiv_pos_as_xyz
'x, y, z'
_cell_length_a     71.34037
_cell_length_b     69.032391
_cell_length_c     68.704251
_cell_angle_alpha  93.511404
_cell_angle_beta   95.573231
_cell_angle_gamma 99.28213
loop_
_atom_site_label
_atom_site_type_symbol
_atom_site_fract_x
_atom_site_fract_y
_atom_site_fract_z
_atom_type_partial_charge
Co0 Co 0.0328 0.27999 0.41312 0.0
O1 O 0.05765 0.27277 0.41129 0.0
O2 O 0.03297 0.26575 0.38831 0.0
C3 C 0.04321 0.31139 0.42479 0.0
O4 O 0.00576 0.28537 0.40837 0.0
Co5 Co 0.01802 0.2939 0.45169 0.0
O6 O 0.99533 0.29898 0.43489 0.0
C7 C 0.02038 0.25187 0.44326 0.0
C8 C 0.05075 0.265 0.3938 0.0
C9 C 0.99312 0.29307 0.41677 0.0
O10 O 0.02399 0.25493 0.42559 0.0
O11 O 0.01922 0.26571 0.45613 0.0
O12 O 0.04224 0.3065 0.40609 0.0
O13 O 0.03923 0.29713 0.4358 0.0
Co14 Co 0.99726 0.79848 0.61417 0.0
O15 O 0.96985 0.79546 0.61146 0.0
O16 O 0.98765 0.78604 0.63628 0.0
C17 C 0.00292 0.82978 0.60643 0.0
O18 O 0.02542 0.80001 0.62293 0.0
Co19 Co 0.02133 0.80697 0.57938 0.0
O20 O 0.0436 0.8112 0.59972 0.0
C21 C 0.99948 0.76726 0.58181 0.0
C22 C 0.97081 0.78779 0.62827 0.0
C23 C 0.04173 0.80606 0.61701 0.0
O24 O 0.99582 0.77213 0.59925 0.0
O25 O 0.00805 0.77948 0.57097 0.0
O26 O 0.99917 0.82589 0.62405 0.0
O27 O 1.00138 0.81481 0.59381 0.0
Co28 Co 0.53168 0.7767 0.91792 0.0
O29 O 0.55738 0.77142 0.9185 0.0
O30 O 0.53481 0.76331 0.89343 0.0
C31 C 0.53991 0.80798 0.9306 0.0
O32 O 0.50436 0.78039 0.91081 0.0
Co33 Co 0.51283 0.7886 0.95465 0.0
O34 O 0.49135 0.7933 0.93598 0.0
C35 C 0.51856 0.74743 0.94658 0.0
C36 C 0.55243 0.76381 0.90059 0.0
C37 C 0.4907 0.78749 0.91795 0.0
O38 O 0.52328 0.75103 0.92939 0.0
O39 O 0.51547 0.76073 0.95911 0.0
O40 O 0.5404 0.80376 0.91196 0.0
O41 O 0.53548 0.79329 0.94095 0.0
Co42 Co 0.4938 0.29447 0.11904 0.0
O43 O 0.46632 0.29015 0.11501 0.0
O44 O 0.48367 0.28279 0.14127 0.0
C45 C 0.49791 0.3251 0.10922 0.0
O46 O 0.52177 0.29762 0.12943 0.0
Co47 Co 0.52011 0.30331 0.08607 0.0
O48 O 0.54083 0.31086 0.1079 0.0
C49 C 0.49912 0.263 0.08863 0.0
C50 C 0.46693 0.2835 0.13232 0.0
C51 C 0.53824 0.30534 0.12492 0.0
O52 O 0.49417 0.26785 0.10556 0.0
O53 O 0.50807 0.27534 0.07816 0.0
O54 O 0.49395 0.32222 0.12701 0.0
O55 O 0.49807 0.30955 0.09792 0.0
Co56 Co 0.99027 0.77298 0.15637 0.0
O57 O 0.96269 0.76916 0.15354 0.0
O58 O 0.98056 0.76621 0.18095 0.0
C59 C 0.994 0.80125 0.14094 0.0
O60 O 0.01892 0.77666 0.1655 0.0
Co61 Co 0.01361 0.77409 0.12045 0.0
O62 O 0.03613 0.7826 0.14016 0.0
C63 C 0.99232 0.73642 0.13068 0.0
C64 C 0.96358 0.76586 0.17197 0.0
C65 C 0.03503 0.78116 0.15844 0.0
O66 O 0.98962 0.74428 0.14748 0.0
O67 O 0.99973 0.74622 0.11731 0.0
O68 O 0.99134 0.80164 0.15941 0.0
O69 O 0.99324 0.78399 0.13235 0.0
Co70 Co 0.53068 0.7952 0.36905 0.0
O71 O 0.55831 0.79966 0.37313 0.0
O72 O 0.54113 0.78632 0.34568 0.0
C73 C 0.52707 0.82504 0.38234 0.0
O74 O 0.50215 0.78922 0.3588 0.0
Co75 Co 0.50615 0.79569 0.40418 0.0
O76 O 0.48413 0.79225 0.38365 0.0
C77 C 0.52799 0.76372 0.39755 0.0
C78 C 0.55793 0.79216 0.35528 0.0
C79 C 0.48582 0.78906 0.36549 0.0
O80 O 0.52984 0.76837 0.37985 0.0
O81 O 0.52115 0.77428 0.41014 0.0
O82 O 0.53104 0.82314 0.3643 0.0
O83 O 0.52698 0.80953 0.39182 0.0
Co84 Co 0.48979 0.27101 0.65981 0.0
O85 O 0.46227 0.26728 0.65599 0.0
O86 O 0.47906 0.26148 0.6831 0.0
C87 C 0.49397 0.30099 0.64766 0.0
O88 O 0.51831 0.27403 0.66964 0.0
Co89 Co 0.51422 0.27664 0.62475 0.0
O90 O 0.53604 0.28352 0.64547 0.0
C91 C 0.49194 0.23765 0.63015 0.0
C92 C 0.46239 0.26205 0.67381 0.0
C93 C 0.53457 0.27988 0.66328 0.0
O94 O 0.48932 0.24328 0.64782 0.0
O95 O 0.49958 0.24937 0.6183 0.0
O96 O 0.49074 0.29943 0.66585 0.0
O97 O 0.49353 0.28462 0.63749 0.0
Co98 Co 0.03118 0.29728 0.87201 0.0
O99 O 0.05882 0.30148 0.8749 0.0
O100 O 0.04056 0.28698 0.84854 0.0
C101 C 0.02871 0.32793 0.88408 0.0
O102 O 0.00242 0.29126 0.86284 0.0
Co103 Co 0.00795 0.30025 0.90766 0.0
O104 O 0.98522 0.29634 0.88788 0.0
C105 C 0.02903 0.26737 0.90222 0.0
C106 C 0.05769 0.29309 0.8573 0.0
C107 C 0.98636 0.292 0.86979 0.0
O108 O 0.03063 0.27114 0.88424 0.0
O109 O 0.02248 0.27863 0.91442 0.0
O110 O 0.03141 0.32477 0.86577 0.0
O111 O 0.02876 0.31303 0.89446 0.0
Co112 Co 0.39689 0.07491 0.25636 0.0
O113 O 0.39883 0.1032 0.25533 0.0
O114 O 0.37309 0.08145 0.24471 0.0
C115 C 0.41017 0.07552 0.2879 0.0
O116 O 0.38834 0.04523 0.25608 0.0
Co117 Co 0.43212 0.05405 0.26343 0.0
O118 O 0.41301 0.03018 0.26562 0.0
C119 C 0.42325 0.06895 0.22485 0.0
C120 C 0.38103 0.09982 0.24791 0.0
C121 C 0.39524 0.02982 0.26079 0.0
O122 O 0.40685 0.07215 0.22958 0.0
O123 O 0.43596 0.06378 0.23697 0.0
O124 O 0.39237 0.07734 0.28407 0.0
O125 O 0.41965 0.07517 0.27284 0.0
Co126 Co 0.27958 0.14717 0.48348 0.0
O127 O 0.30646 0.14632 0.48792 0.0
O128 O 0.28344 0.12481 0.49785 0.0
C129 C 0.27923 0.15334 0.45186 0.0
O130 O 0.25054 0.14239 0.48103 0.0
Co131 Co 0.26396 0.18482 0.47133 0.0
O132 O 0.23839 0.16811 0.46965 0.0
C133 C 0.28174 0.18303 0.51158 0.0
C134 C 0.30156 0.13042 0.49671 0.0
C135 C 0.23632 0.15073 0.47527 0.0
O136 O 0.28114 0.16433 0.50858 0.0
O137 O 0.2775 0.19396 0.49798 0.0
O138 O 0.27882 0.13535 0.45662 0.0
O139 O 0.28132 0.16677 0.4661 0.0
Co140 Co 0.15152 0.99593 0.7913 0.0
O141 O 0.15217 0.96814 0.78836 0.0
O142 O 0.17623 0.9916 0.78427 0.0
C143 C 0.13782 0.99497 0.81954 0.0
O144 O 0.15666 0.02598 0.79359 0.0
Co145 Co 0.11341 0.01208 0.79178 0.0
O146 O 0.12987 0.0383 0.79753 0.0
C147 C 0.12388 0.99444 0.75506 0.0
C148 C 0.16962 0.97289 0.78423 0.0
C149 C 0.14782 0.04061 0.7964 0.0
O150 O 0.14119 0.99529 0.76283 0.0
O151 O 0.11033 0.99826 0.76482 0.0
O152 O 0.15622 0.99597 0.81994 0.0
O153 O 0.12845 0.99351 0.80239 0.0
Co154 Co 0.21875 0.89563 0.01814 0.0
O155 O 0.19145 0.89479 0.01869 0.0
O156 O 0.21345 0.92059 0.029 0.0
C157 C 0.21738 0.88175 0.98697 0.0
O158 O 0.24773 0.9031 0.01899 0.0
Co159 Co 0.237 0.85792 0.01255 0.0
O160 O 0.26093 0.87667 0.01088 0.0
C161 C 0.22333 0.86781 0.05045 0.0
C162 C 0.19542 0.91302 0.02588 0.0
C163 C 0.26222 0.8951 0.0152 0.0
O164 O 0.22123 0.8851 0.04527 0.0
O165 O 0.22737 0.85433 0.03874 0.0
O166 O 0.21642 0.90033 0.99007 0.0
O167 O 0.21736 0.87206 0.00241 0.0
Co168 Co 0.24546 0.42085 0.02959 0.0
O169 O 0.21865 0.42101 0.02493 0.0
O170 O 0.23988 0.44598 0.03947 0.0
C171 C 0.248 0.40814 0.99934 0.0
O172 O 0.27444 0.42615 0.03593 0.0
Co173 Co 0.26106 0.38135 0.02657 0.0
O174 O 0.28647 0.39841 0.02993 0.0
C175 C 0.23826 0.39059 0.05833 0.0
C176 C 0.2222 0.4389 0.03291 0.0
C177 C 0.2886 0.41685 0.03465 0.0
O178 O 0.24144 0.40898 0.05526 0.0
O179 O 0.24298 0.37714 0.04706 0.0
O180 O 0.24864 0.427 0.00257 0.0
O181 O 0.24478 0.39777 0.01398 0.0
Co182 Co 0.80107 0.16079 0.00364 0.0
O183 O 0.82878 0.16365 0.00708 0.0
O184 O 0.80908 0.13638 0.01084 0.0
C185 C 0.79907 0.1753 0.97476 0.0
O186 O 0.77212 0.15122 0.00058 0.0
Co187 Co 0.77879 0.19604 0.00067 0.0
O188 O 0.75642 0.17547 0.99147 0.0
C189 C 0.79367 0.18512 0.03983 0.0
C190 C 0.82658 0.14517 0.01056 0.0
C191 C 0.75662 0.15754 0.99477 0.0
O192 O 0.80024 0.17028 0.03226 0.0
O193 O 0.78591 0.1972 0.02963 0.0
O194 O 0.80128 0.157 0.97499 0.0
O195 O 0.79953 0.18442 0.99176 0.0
Co196 Co 0.11779 0.48663 0.28209 0.0
O197 O 0.11583 0.45811 0.28102 0.0
O198 O 0.14099 0.47881 0.27447 0.0
C199 C 0.10586 0.49005 0.31144 0.0
O200 O 0.12648 0.51629 0.2822 0.0
Co201 Co 0.08379 0.50938 0.28407 0.0
O202 O 0.10356 0.53342 0.28943 0.0
C203 C 0.08948 0.48844 0.24656 0.0
C204 C 0.13323 0.46076 0.27629 0.0
C205 C 0.12069 0.53268 0.28606 0.0
O206 O 0.10607 0.48527 0.2537 0.0
O207 O 0.07812 0.49605 0.2569 0.0
O208 O 0.12369 0.48831 0.31086 0.0
O209 O 0.09583 0.48855 0.29462 0.0
Co210 Co 0.74504 0.91969 0.52988 0.0
O211 O 0.71846 0.921 0.52961 0.0
O212 O 0.74186 0.94381 0.54422 0.0
C213 C 0.74272 0.91096 0.49769 0.0
O214 O 0.77422 0.92379 0.5324 0.0
Co215 Co 0.75917 0.88106 0.51712 0.0
O216 O 0.78343 0.89891 0.51516 0.0
C217 C 0.74389 0.88581 0.55555 0.0
C218 C 0.72364 0.93809 0.53921 0.0
C219 C 0.78707 0.91587 0.52443 0.0
O220 O 0.74386 0.90431 0.55391 0.0
O221 O 0.74814 0.87424 0.54197 0.0
O222 O 0.74499 0.92947 0.50371 0.0
O223 O 0.74134 0.89859 0.51095 0.0
Co224 Co 0.86825 0.05594 0.24098 0.0
O225 O 0.86988 0.08408 0.24285 0.0
O226 O 0.84352 0.0628 0.23292 0.0
C227 C 0.88412 0.05452 0.27066 0.0
O228 O 0.86101 0.02587 0.23817 0.0
Co229 Co 0.90529 0.03723 0.24213 0.0
O230 O 0.8875 0.01251 0.24462 0.0
C231 C 0.89265 0.05703 0.20764 0.0
C232 C 0.85171 0.08103 0.23716 0.0
C233 C 0.86941 0.01092 0.24115 0.0
O234 O 0.87595 0.05662 0.21341 0.0
O235 O 0.90674 0.05209 0.21803 0.0
O236 O 0.86603 0.05558 0.26912 0.0
O237 O 0.89213 0.05599 0.25468 0.0
Co238 Co 0.30266 0.66145 0.50216 0.0
O239 O 0.33011 0.66263 0.50309 0.0
O240 O 0.30979 0.6363 0.5083 0.0
C241 C 0.29881 0.67638 0.47371 0.0
O242 O 0.27363 0.65403 0.50159 0.0
Co243 Co 0.28455 0.69964 0.50386 0.0
O244 O 0.25997 0.68105 0.49864 0.0
C245 C 0.30364 0.68751 0.53997 0.0
C246 C 0.32736 0.64422 0.5068 0.0
C247 C 0.25877 0.6625 0.49957 0.0
O248 O 0.30482 0.67072 0.53118 0.0
O249 O 0.29807 0.70166 0.53106 0.0
O250 O 0.30014 0.65781 0.47329 0.0
O251 O 0.30166 0.68548 0.49096 0.0
Co252 Co 0.37138 0.55332 0.74493 0.0
O253 O 0.37381 0.58146 0.74904 0.0
O254 O 0.34778 0.56176 0.73513 0.0
C255 C 0.38426 0.54925 0.77539 0.0
O256 O 0.36323 0.52343 0.73948 0.0
Co257 Co 0.40741 0.53312 0.74793 0.0
O258 O 0.38851 0.50863 0.74738 0.0
C259 C 0.39928 0.55649 0.71462 0.0
C260 C 0.35616 0.5795 0.7415 0.0
C261 C 0.37072 0.50787 0.74231 0.0
O262 O 0.38197 0.5561 0.71871 0.0
O263 O 0.41205 0.55008 0.72565 0.0
O264 O 0.36634 0.55087 0.77228 0.0
O265 O 0.39387 0.55155 0.76052 0.0
Co266 Co 0.61921 0.98523 0.78258 0.0
O267 O 0.61824 0.95685 0.78176 0.0
O268 O 0.64308 0.97835 0.77581 0.0
C269 C 0.60632 0.98848 0.81143 0.0
O270 O 0.62688 0.015 0.78262 0.0
Co271 Co 0.58382 0.00607 0.78255 0.0
O272 O 0.60244 0.03106 0.78662 0.0
C273 C 0.59176 0.98555 0.74588 0.0
C274 C 0.63579 0.96012 0.77747 0.0
C275 C 0.62004 0.03104 0.78481 0.0
O276 O 0.60838 0.98333 0.75384 0.0
O277 O 0.57947 0.99241 0.75551 0.0
O278 O 0.62434 0.98731 0.8114 0.0
O279 O 0.59662 0.98633 0.79438 0.0
Co280 Co 0.77801 0.65027 0.98357 0.0
O281 O 0.80509 0.65081 0.98918 0.0
O282 O 0.78245 0.6278 0.99749 0.0
C283 C 0.77869 0.65782 0.95231 0.0
O284 O 0.74899 0.64384 0.97986 0.0
Co285 Co 0.76047 0.68691 0.97177 0.0
O286 O 0.73566 0.66872 0.96813 0.0
C287 C 0.77736 0.68487 0.01233 0.0
C288 C 0.80053 0.63451 0.99744 0.0
C289 C 0.73434 0.65127 0.97355 0.0
O290 O 0.77774 0.66638 0.00897 0.0
O291 O 0.77288 0.69587 0.99889 0.0
O292 O 0.77904 0.63975 0.95651 0.0
O293 O 0.7794 0.67055 0.96696 0.0
Co294 Co 0.89438 0.57203 0.75449 0.0
O295 O 0.8949 0.60009 0.75275 0.0
O296 O 0.8699 0.57698 0.74324 0.0
C297 C 0.90833 0.57377 0.78581 0.0
O298 O 0.88712 0.54234 0.75498 0.0
Co299 Co 0.93068 0.5528 0.7614 0.0
O300 O 0.91254 0.5284 0.76446 0.0
C301 C 0.92041 0.56669 0.72266 0.0
C302 C 0.87697 0.59561 0.74587 0.0
C303 C 0.89465 0.52739 0.75992 0.0
O304 O 0.90389 0.56924 0.72755 0.0
O305 O 0.9336 0.56222 0.73467 0.0
O306 O 0.89031 0.5748 0.78225 0.0
O307 O 0.9176 0.57356 0.77058 0.0
Co308 Co 0.71953 0.39803 0.52064 0.0
O309 O 0.6922 0.39709 0.52127 0.0
O310 O 0.71418 0.42303 0.53125 0.0
C311 C 0.71805 0.38417 0.4895 0.0
O312 O 0.74853 0.40559 0.52138 0.0
Co313 Co 0.7379 0.36042 0.51492 0.0
O314 O 0.76178 0.37922 0.51319 0.0
C315 C 0.7242 0.37017 0.55287 0.0
C316 C 0.69616 0.41543 0.52812 0.0
C317 C 0.76304 0.39764 0.51753 0.0
O318 O 0.72209 0.3875 0.54779 0.0
O319 O 0.72824 0.35676 0.54108 0.0
O320 O 0.71709 0.40273 0.49262 0.0
O321 O 0.71812 0.37444 0.50493 0.0
Co322 Co 0.65093 0.4991 0.29856 0.0
O323 O 0.6508 0.47105 0.2961 0.0
O324 O 0.6753 0.49382 0.29158 0.0
C325 C 0.63737 0.49962 0.32699 0.0
O326 O 0.65712 0.52913 0.30027 0.0
Co327 Co 0.61371 0.51712 0.29875 0.0
O328 O 0.63105 0.54284 0.30384 0.0
C329 C 0.62294 0.4971 0.26264 0.0
C330 C 0.6683 0.47527 0.2919 0.0
C331 C 0.64894 0.5443 0.3027 0.0
O332 O 0.64041 0.4981 0.27002 0.0
O333 O 0.60978 0.5017 0.27255 0.0
O334 O 0.6556 0.49939 0.32731 0.0
O335 O 0.62804 0.49818 0.30981 0.0
Tb336 Tb 0.0221 0.0539 0.01341 0.0
C337 C 0.02615 0.02141 0.97887 0.0
Tb338 Tb 0.00576 0.0083 0.01634 0.0
O339 O 0.04842 0.05135 0.03264 0.0
O340 O 0.03212 0.02723 0.0169 0.0
O341 O 0.02791 0.04026 0.98552 0.0
C342 C 0.00664 0.97423 0.03228 0.0
O343 O 0.01848 0.00636 0.98852 0.0
C344 C 0.97851 0.02882 0.00557 0.0
C345 C 1.00001 0.04117 0.04899 0.0
O346 O 0.99834 0.97599 0.01482 0.0
O347 O 0.01448 0.9915 0.04035 0.0
O348 O 0.97528 0.00988 0.00743 0.0
O349 O 0.99632 0.03401 0.0087 0.0
O350 O 0.00261 0.02276 0.04484 0.0
O351 O 0.00503 0.05577 0.0378 0.0
C352 C 0.02588 0.08851 0.99753 0.0
O353 O 0.03411 0.08547 0.01458 0.0
O354 O 0.01549 0.07222 0.98977 0.0
C355 C 0.04606 0.0322 0.02974 0.0
Tb356 Tb 0.2638 0.80242 0.27214 0.0
C357 C 0.29636 0.77539 0.27037 0.0
Tb358 Tb 0.25248 0.75775 0.262 0.0
O359 O 0.25754 0.7996 0.30279 0.0
O360 O 0.26532 0.77655 0.28662 0.0
O361 O 0.29172 0.79326 0.26935 0.0
C362 C 0.23623 0.72083 0.26663 0.0
O363 O 0.28319 0.75931 0.27031 0.0
C364 C 0.25752 0.77919 0.23177 0.0
C365 C 0.21985 0.78495 0.26302 0.0
O366 O 0.247 0.72598 0.25292 0.0
O367 O 0.23484 0.73638 0.27758 0.0
O368 O 0.25929 0.76068 0.23151 0.0
O369 O 0.25104 0.78359 0.24749 0.0
O370 O 0.22445 0.76702 0.26365 0.0
O371 O 0.23312 0.80105 0.26393 0.0
C372 C 0.27965 0.83969 0.26852 0.0
O373 O 0.2685 0.83402 0.28173 0.0
O374 O 0.28164 0.82445 0.25741 0.0
C375 C 0.25907 0.78105 0.30244 0.0
Tb376 Tb 0.52856 0.03203 0.50924 0.0
C377 C 0.52159 0.01234 0.54983 0.0
Tb378 Tb 0.48847 0.02261 0.52126 0.0
O379 O 0.52785 0.06356 0.51333 0.0
O380 O 0.51307 0.04362 0.53051 0.0
O381 O 0.53298 0.01638 0.53586 0.0
C382 C 0.45421 0.02734 0.53135 0.0
O383 O 0.50356 0.01523 0.54813 0.0
C384 C 0.50071 0.99314 0.50365 0.0
C385 C 0.49544 0.04106 0.48003 0.0
O386 O 0.45753 0.01295 0.51983 0.0
O387 O 0.47021 0.03886 0.53731 0.0
O388 O 0.48851 0.99098 0.51661 0.0
O389 O 0.50394 0.01096 0.50004 0.0
O390 O 0.48428 0.03827 0.49445 0.0
O391 O 0.51327 0.0375 0.48172 0.0
C392 C 0.56388 0.02884 0.50136 0.0
O393 O 0.55898 0.04415 0.51009 0.0
O394 O 0.54879 0.01556 0.49664 0.0
C395 C 0.51601 0.06135 0.52659 0.0
Tb396 Tb 0.26313 0.27996 0.78556 0.0
C397 C 0.27113 0.31148 0.75433 0.0
Tb398 Tb 0.25409 0.26711 0.74009 0.0
O399 O 0.29273 0.2729 0.78853 0.0
O400 O 0.27607 0.26938 0.76249 0.0
O401 O 0.26648 0.30807 0.77224 0.0
C402 C 0.25905 0.25548 0.70379 0.0
O403 O 0.2694 0.29725 0.73998 0.0
C404 C 0.22463 0.27329 0.75828 0.0
C405 C 0.24575 0.23567 0.77152 0.0
O406 O 0.2511 0.27054 0.70854 0.0
O407 O 0.26386 0.24694 0.71937 0.0
O408 O 0.2232 0.26267 0.74169 0.0
O409 O 0.24171 0.28191 0.76225 0.0
O410 O 0.24953 0.23896 0.75328 0.0
O411 O 0.24834 0.24978 0.78611 0.0
C412 C 0.2627 0.2969 0.8211 0.0
O413 O 0.25007 0.28215 0.81302 0.0
O414 O 0.27555 0.30165 0.80936 0.0
C415 C 0.29239 0.26792 0.76993 0.0
Tb416 Tb 0.00652 0.03024 0.4898 0.0
C417 C 0.97931 0.01307 0.52076 0.0
Tb418 Tb 0.02231 0.03344 0.53428 0.0
O419 O 0.00573 0.99827 0.48811 0.0
O420 O 0.02509 0.01685 0.50826 0.0
O421 O 0.98089 0.01826 0.50261 0.0
C422 C 0.03793 0.02491 0.56882 0.0
O423 O 0.99351 0.01696 0.53524 0.0
C424 C 0.01002 0.06487 0.52234 0.0
C425 C 0.04908 0.05008 0.50331 0.0
O426 O 0.02426 0.01349 0.55776 0.0
O427 O 0.04237 0.04124 0.56069 0.0
O428 O 0.02074 0.06496 0.53876 0.0
O429 O 0.00448 0.04731 0.51572 0.0
O430 O 0.04804 0.0409 0.51973 0.0
O431 O 0.03393 0.04988 0.49037 0.0
C432 C 0.99069 0.03648 0.45461 0.0
O433 O 0.00639 0.02931 0.45782 0.0
O434 O 0.9841 0.04017 0.47112 0.0
C435 C 0.01854 0.99914 0.50308 0.0
Tb436 Tb 0.28329 0.77817 0.77453 0.0
C437 C 0.25269 0.78849 0.80203 0.0
Tb438 Tb 0.24096 0.77401 0.75671 0.0
O439 O 0.28677 0.81046 0.77852 0.0
O440 O 0.26629 0.79459 0.7575 0.0
O441 O 0.26982 0.78347 0.80107 0.0
C442 C 0.20824 0.78217 0.74019 0.0
O443 O 0.23975 0.78703 0.78646 0.0
C444 C 0.25207 0.74063 0.76426 0.0
C445 C 0.27157 0.76208 0.72989 0.0
O446 O 0.20967 0.76987 0.75364 0.0
O447 O 0.22509 0.78962 0.73598 0.0
O448 O 0.2374 0.74205 0.75197 0.0
O449 O 0.2579 0.75726 0.77355 0.0
O450 O 0.25448 0.76737 0.73044 0.0
O451 O 0.28439 0.7636 0.74555 0.0
C452 C 0.31721 0.77271 0.79083 0.0
O453 O 0.31449 0.78213 0.77527 0.0
O454 O 0.3009 0.7663 0.79695 0.0
C455 C 0.27199 0.81139 0.76627 0.0
Tb456 Tb 0.4882 0.02122 0.01188 0.0
C457 C 0.52106 0.99652 0.01272 0.0
Tb458 Tb 0.53017 0.04311 0.01677 0.0
O459 O 0.49004 0.0097 0.9817 0.0
O460 O 0.5079 0.03521 0.99362 0.0
O461 O 0.50343 0.99697 0.01708 0.0
C462 C 0.56637 0.05842 0.01237 0.0
O463 O 0.5331 0.01259 0.00982 0.0
C464 C 0.51341 0.04237 0.04932 0.0
C465 C 0.49705 0.06761 0.01623 0.0
O466 O 0.56112 0.04499 0.02409 0.0
O467 O 0.55123 0.06329 0.00322 0.0
O468 O 0.52812 0.0552 0.0465 0.0
O469 O 0.51052 0.0292 0.03522 0.0
O470 O 0.51463 0.06726 0.01157 0.0
O471 O 0.48519 0.05152 0.01942 0.0
C472 C 0.45205 0.00532 0.01568 0.0
O473 O 0.45724 0.01949 0.00473 0.0
O474 O 0.46721 1.00022 0.02452 0.0
C475 C 0.50496 0.0224 0.97928 0.0
Tb476 Tb 0.23201 0.26769 0.26172 0.0
C477 C 0.26652 0.27045 0.29398 0.0
Tb478 Tb 0.27176 0.28255 0.25073 0.0
O479 O 0.23984 0.23863 0.26523 0.0
O480 O 0.25177 0.25636 0.2446 0.0
O481 O 0.24784 0.27016 0.29056 0.0
C482 C 0.30743 0.28483 0.24146 0.0
O483 O 0.27842 0.27428 0.28047 0.0
C484 C 0.25224 0.31024 0.2602 0.0
C485 C 0.23739 0.28093 0.21923 0.0
O486 O 0.29726 0.29874 0.24016 0.0
O487 O 0.29762 0.26975 0.2482 0.0
O488 O 0.26558 0.3124 0.24858 0.0
O489 O 0.25206 0.29398 0.26769 0.0
O490 O 0.25536 0.27805 0.22207 0.0
O491 O 0.22587 0.27905 0.23328 0.0
C492 C 0.19621 0.26282 0.27087 0.0
O493 O 0.20861 0.27887 0.27449 0.0
O494 O 0.20388 0.24951 0.26189 0.0
C495 C 0.25229 0.24046 0.25261 0.0
Tb496 Tb 0.50606 0.53221 0.99581 0.0
C497 C 0.47968 0.51561 0.02682 0.0
Tb498 Tb 0.52464 0.52779 0.03781 0.0
O499 O 0.4982 0.50021 0.99074 0.0
O500 O 0.52206 0.51281 0.00972 0.0
O501 O 0.48067 0.52543 0.01082 0.0
C502 C 0.53835 0.51553 0.07154 0.0
O503 O 0.49509 0.51282 0.03816 0.0
C504 C 0.51886 0.56319 0.0304 0.0
C505 C 0.55078 0.54584 0.00711 0.0
O506 O 0.52726 0.52864 0.06986 0.0
O507 O 0.54167 0.50927 0.05423 0.0
O508 O 0.53225 0.55981 0.04333 0.0
O509 O 0.50863 0.54713 0.02392 0.0
O510 O 0.55011 0.53618 0.02325 0.0
O511 O 0.53525 0.54787 0.99553 0.0
C512 C 0.49192 0.5428 0.96148 0.0
O513 O 0.50449 0.53126 0.96382 0.0
O514 O 0.48752 0.54862 0.97851 0.0
C515 C 0.51171 0.49675 0.00343 0.0
Tb516 Tb 0.78312 0.281 0.27678 0.0
C517 C 0.75289 0.29228 0.304 0.0
Tb518 Tb 0.7411 0.27816 0.2587 0.0
O519 O 0.78708 0.31328 0.2817 0.0
O520 O 0.76677 0.29835 0.26002 0.0
O521 O 0.76947 0.28599 0.30325 0.0
C522 C 0.70779 0.2856 0.24268 0.0
O523 O 0.74048 0.29208 0.28819 0.0
C524 C 0.75136 0.24425 0.26585 0.0
C525 C 0.77172 0.26656 0.23181 0.0
O526 O 0.71014 0.27652 0.25853 0.0
O527 O 0.7241 0.29037 0.23589 0.0
O528 O 0.73692 0.24619 0.25351 0.0
O529 O 0.75732 0.26068 0.27537 0.0
O530 O 0.75521 0.27308 0.23245 0.0
O531 O 0.78402 0.26666 0.24766 0.0
C532 C 0.81681 0.27467 0.29292 0.0
O533 O 0.81432 0.28538 0.27828 0.0
O534 O 0.80033 0.2673 0.29817 0.0
C535 C 0.77268 0.31492 0.26921 0.0
Tb536 Tb 0.98931 0.52267 0.51245 0.0
C537 C 0.02183 0.49726 0.51231 0.0
Tb538 Tb 0.03173 0.54399 0.51771 0.0
O539 O 0.9909 0.51194 0.48194 0.0
O540 O 0.00931 0.53677 0.49468 0.0
O541 O 0.00401 0.49775 0.51614 0.0
C542 C 0.06785 0.55958 0.51331 0.0
O543 O 0.0344 0.51337 0.51075 0.0
C544 C 0.01457 0.54281 0.54998 0.0
C545 C 0.99904 0.56915 0.51747 0.0
O546 O 0.06261 0.5482 0.52689 0.0
O547 O 0.05276 0.56222 0.50232 0.0
O548 O 0.02924 0.55584 0.54741 0.0
O549 O 0.01176 0.52986 0.53569 0.0
O550 O 0.01667 0.56859 0.51305 0.0
O551 O 0.98682 0.55316 0.52027 0.0
C552 C 0.95312 0.50709 0.51649 0.0
O553 O 0.95835 0.52099 0.50525 0.0
O554 O 0.96826 0.5021 0.5255 0.0
C555 C 0.00615 0.5244 0.47997 0.0
Tb556 Tb 0.76671 0.78149 0.28951 0.0
C557 C 0.77481 0.81312 0.25849 0.0
Tb558 Tb 0.75811 0.76868 0.24399 0.0
O559 O 0.79678 0.77567 0.29251 0.0
O560 O 0.77985 0.77096 0.2666 0.0
O561 O 0.77015 0.80968 0.27638 0.0
C562 C 0.76295 0.75751 0.20753 0.0
O563 O 0.77325 0.79892 0.24413 0.0
C564 C 0.72842 0.77442 0.26196 0.0
C565 C 0.75039 0.73694 0.27523 0.0
O566 O 0.75469 0.77229 0.21251 0.0
O567 O 0.76818 0.749 0.22298 0.0
O568 O 0.72724 0.7637 0.24548 0.0
O569 O 0.74541 0.78331 0.26601 0.0
O570 O 0.7539 0.74039 0.25695 0.0
O571 O 0.75292 0.75095 0.28989 0.0
C572 C 0.76404 0.79702 0.32514 0.0
O573 O 0.75158 0.78298 0.31561 0.0
O574 O 0.7781 0.80187 0.31481 0.0
C575 C 0.79643 0.77042 0.27394 0.0
Tb576 Tb 0.76433 0.2999 0.77217 0.0
C577 C 0.79752 0.27348 0.76993 0.0
Tb578 Tb 0.75376 0.2553 0.76142 0.0
O579 O 0.7582 0.29655 0.80275 0.0
O580 O 0.76644 0.27396 0.78621 0.0
O581 O 0.79256 0.29128 0.76961 0.0
C582 C 0.73842 0.21794 0.76547 0.0
O583 O 0.7846 0.25709 0.76902 0.0
C584 C 0.75832 0.27745 0.73168 0.0
C585 C 0.72056 0.28167 0.76378 0.0
O586 O 0.74595 0.22418 0.75 0.0
O587 O 0.73972 0.23264 0.77845 0.0
O588 O 0.76093 0.25917 0.73118 0.0
O589 O 0.75159 0.2813 0.74741 0.0
O590 O 0.72556 0.26389 0.76394 0.0
O591 O 0.73351 0.29803 0.76468 0.0
C592 C 0.77972 0.33721 0.76843 0.0
O593 O 0.76911 0.33141 0.78205 0.0
O594 O 0.78141 0.32208 0.757 0.0
C595 C 0.76017 0.2781 0.80212 0.0
Tb596 Tb 0.73498 0.76997 0.76352 0.0
C597 C 0.77259 0.769 0.79028 0.0
Tb598 Tb 0.77345 0.78194 0.74675 0.0
O599 O 0.73935 0.73924 0.76536 0.0
O600 O 0.75233 0.75662 0.74522 0.0
O601 O 0.75449 0.77139 0.78995 0.0
C602 C 0.80592 0.78122 0.73098 0.0
O603 O 0.78225 0.77077 0.77473 0.0
C604 C 0.75651 0.81139 0.75744 0.0
C605 C 0.73546 0.78298 0.72034 0.0
O606 O 0.80413 0.79248 0.74633 0.0
O607 O 0.78951 0.77077 0.72447 0.0
O608 O 0.76854 0.81228 0.74435 0.0
O609 O 0.75636 0.79534 0.76533 0.0
O610 O 0.75349 0.78037 0.72053 0.0
O611 O 0.72601 0.78167 0.73603 0.0
C612 C 0.70196 0.76919 0.77852 0.0
O613 O 0.70473 0.75764 0.7638 0.0
O614 O 0.71769 0.78111 0.78462 0.0
C615 C 0.7519 0.7404 0.75282 0.0
Tb616 Tb 0.51821 0.55193 0.51116 0.0
C617 C 0.52444 0.51455 0.48615 0.0
Tb618 Tb 0.50843 0.51075 0.52728 0.0
O619 O 0.54898 0.55062 0.51324 0.0
O620 O 0.53164 0.53438 0.53082 0.0
O621 O 0.51957 0.53228 0.48557 0.0
C622 C 0.50897 0.47759 0.54524 0.0
O623 O 0.52312 0.50418 0.50177 0.0
C624 C 0.47827 0.52554 0.51344 0.0
C625 C 0.50194 0.54836 0.55207 0.0
O626 O 0.50259 0.47846 0.52697 0.0
O627 O 0.51516 0.49527 0.55316 0.0
O628 O 0.47764 0.51139 0.52507 0.0
O629 O 0.49481 0.52833 0.50784 0.0
O630 O 0.50672 0.53058 0.55267 0.0
O631 O 0.50343 0.55875 0.53648 0.0
C632 C 0.519 0.58569 0.49399 0.0
O633 O 0.5261 0.58409 0.51188 0.0
O634 O 0.51124 0.56839 0.48602 0.0
C635 C 0.54816 0.53685 0.52528 0.0
Tb636 Tb 0.02434 0.52954 0.0089 0.0
C637 C 0.01678 0.51378 0.04999 0.0
Tb638 Tb 0.9836 0.52473 0.02005 0.0
O639 O 0.03289 0.55433 0.03118 0.0
O640 O 0.00525 0.54849 0.01674 0.0
O641 O 0.02829 0.51516 0.0359 0.0
C642 C 0.95175 0.53058 0.03534 0.0
O643 O 0.99905 0.5177 0.04741 0.0
C644 C 0.9915 0.49533 0.99834 0.0
C645 C 0.99132 0.53949 0.97859 0.0
O646 O 0.95331 0.51569 0.02348 0.0
O647 O 0.96826 0.54188 0.0389 0.0
O648 O 0.97453 0.49992 0.99801 0.0
O649 O 0.00247 0.50575 0.01186 0.0
O650 O 0.98021 0.53952 0.99306 0.0
O651 O 0.00871 0.53472 0.98107 0.0
C652 C 0.05714 0.52469 0.99511 0.0
O653 O 0.0537 0.54094 0.00346 0.0
O654 O 0.04185 0.51148 0.99398 0.0
C655 C 0.01596 0.55904 0.0303 0.0
C656 C 0.0286 0.23083 0.89873 0.0
C657 C 0.03422 0.24908 0.90961 0.0
C658 C 0.03029 0.21331 0.90761 0.0
C659 C 0.03339 0.19529 0.95753 0.0
H660 H 0.04194 0.14714 0.9304 0.0
C661 C 0.03904 0.12449 0.99728 0.0
C662 C 0.02846 0.10703 0.98768 0.0
C663 C 0.0414 0.14185 0.98757 0.0
C664 C 0.03947 0.16049 0.93814 0.0
H665 H 0.04742 0.2635 0.93761 0.0
H666 H 0.05122 0.23325 0.95271 0.0
H667 H 0.04392 0.17731 0.91328 0.0
H668 H 0.01221 0.09393 0.96043 0.0
H669 H 0.01635 0.12412 0.94353 0.0
H670 H 0.02896 0.1785 0.98236 0.0
C671 C 0.04475 0.23221 0.93768 0.0
C672 C 0.04055 0.17777 0.92831 0.0
C673 C 0.04276 0.24959 0.92897 0.0
C674 C 0.02043 0.10719 0.96821 0.0
C675 C 0.02293 0.12445 0.95846 0.0
C676 C 0.03248 0.17811 0.96737 0.0
C677 C 0.03785 0.2138 0.92742 0.0
C678 C 0.03744 0.1954 0.93786 0.0
C679 C 0.03339 0.142 0.96802 0.0
C680 C 0.03537 0.16047 0.95777 0.0
H681 H 0.02184 0.23006 0.88383 0.0
H682 H 0.02476 0.19942 0.89924 0.0
H683 H 0.03042 0.20841 0.96528 0.0
H684 H 0.04544 0.12473 0.01227 0.0
H685 H 0.04964 0.15514 0.99529 0.0
C686 C 0.05309 0.78229 0.19213 0.0
C687 C 0.05316 0.78403 0.17183 0.0
C688 C 0.0703 0.78422 0.20442 0.0
C689 C 0.10831 0.77653 0.22454 0.0
H690 H 0.15257 0.81301 0.21346 0.0
C691 C 0.18551 0.76948 0.25379 0.0
C692 C 0.19946 0.78655 0.25764 0.0
C693 C 0.16689 0.77062 0.24602 0.0
C694 C 0.14034 0.80293 0.21702 0.0
H695 H 0.07161 0.78938 0.14869 0.0
H696 H 0.10132 0.7924 0.16989 0.0
H697 H 0.12176 0.813 0.19495 0.0
H698 H 0.20432 0.81836 0.25728 0.0
H699 H 0.17175 0.82038 0.24415 0.0
H700 H 0.1269 0.76662 0.24677 0.0
C701 C 0.08803 0.78989 0.17646 0.0
C702 C 0.12266 0.80273 0.20616 0.0
C703 C 0.07089 0.788 0.16423 0.0
C704 C 0.19402 0.80488 0.25442 0.0
C705 C 0.17534 0.80603 0.24671 0.0
C706 C 0.12601 0.77679 0.23546 0.0
C707 C 0.08802 0.78795 0.19672 0.0
C708 C 0.10646 0.78928 0.2095 0.0
C709 C 0.16162 0.78886 0.24195 0.0
C710 C 0.14236 0.78977 0.23164 0.0
H711 H 0.03975 0.77929 0.19855 0.0
H712 H 0.06972 0.78285 0.21997 0.0
H713 H 0.09622 0.76589 0.22748 0.0
H714 H 0.18912 0.75508 0.25606 0.0
H715 H 0.15686 0.75704 0.24239 0.0
C716 C 0.5271 0.86165 0.38386 0.0
C717 C 0.52279 0.8434 0.39185 0.0
C718 C 0.5242 0.87898 0.39409 0.0
C719 C 0.49756 0.89671 0.43325 0.0
H720 H 0.53902 0.94116 0.44217 0.0
C721 C 0.49894 0.95724 0.49472 0.0
C722 C 0.50475 0.97683 0.49065 0.0
C723 C 0.50128 0.94175 0.48158 0.0
C724 C 0.5272 0.92899 0.43961 0.0
H725 H 0.51165 0.82898 0.41654 0.0
H726 H 0.50646 0.85886 0.43403 0.0
H727 H 0.54182 0.91297 0.41991 0.0
H728 H 0.51794 0.99565 0.46989 0.0
H729 H 0.52195 0.9686 0.44688 0.0
H730 H 0.48295 0.91248 0.45297 0.0
C731 C 0.51202 0.85992 0.41994 0.0
C732 C 0.5288 0.91287 0.42682 0.0
C733 C 0.5151 0.84276 0.40991 0.0
C734 C 0.51343 0.98066 0.47346 0.0
C735 C 0.51574 0.96516 0.46029 0.0
C736 C 0.49593 0.91278 0.44595 0.0
C737 C 0.51667 0.87825 0.41228 0.0
C738 C 0.51414 0.89639 0.42382 0.0
C739 C 0.50942 0.94551 0.46404 0.0
C740 C 0.51088 0.92896 0.44961 0.0
H741 H 0.53312 0.86258 0.37 0.0
H742 H 0.52785 0.89293 0.3878 0.0
H743 H 0.48589 0.88436 0.43098 0.0
H744 H 0.49232 0.95387 0.50792 0.0
H745 H 0.49662 0.92679 0.48515 0.0
C746 C 0.42687 0.25939 0.67243 0.0
C747 C 0.44443 0.2586 0.68332 0.0
C748 C 0.41008 0.25828 0.68155 0.0
C749 C 0.38798 0.2444 0.7266 0.0
H750 H 0.3548 0.28138 0.71115 0.0
C751 C 0.32551 0.26023 0.77022 0.0
C752 C 0.30878 0.26389 0.75959 0.0
C753 C 0.34162 0.25796 0.76071 0.0
C754 C 0.3637 0.27072 0.71547 0.0
H755 H 0.45796 0.25535 0.71229 0.0
H756 H 0.42858 0.25348 0.72829 0.0
H757 H 0.38354 0.28011 0.69515 0.0
H758 H 0.29596 0.2685 0.73078 0.0
H759 H 0.32366 0.26379 0.71399 0.0
H760 H 0.36809 0.2351 0.74702 0.0
C761 C 0.42781 0.25484 0.71263 0.0
C762 C 0.38025 0.27001 0.70627 0.0
C763 C 0.44467 0.25596 0.70347 0.0
C764 C 0.30842 0.26508 0.73925 0.0
C765 C 0.32448 0.26276 0.72971 0.0
C766 C 0.37135 0.24508 0.73579 0.0
C767 C 0.41035 0.25638 0.70183 0.0
C768 C 0.39263 0.25684 0.71168 0.0
C769 C 0.34141 0.2594 0.74033 0.0
C770 C 0.35897 0.25826 0.73034 0.0
H771 H 0.42611 0.26129 0.65686 0.0
H772 H 0.39686 0.25911 0.67268 0.0
H773 H 0.39707 0.23394 0.731 0.0
H774 H 0.32625 0.25946 0.78597 0.0
H775 H 0.35444 0.25568 0.76945 0.0
C776 C 0.00616 0.8663 0.61276 0.0
C777 C 0.00923 0.84991 0.6011 0.0
C778 C 0.01064 0.88524 0.60652 0.0
C779 C 0.00557 0.91776 0.57896 0.0
H780 H 0.05065 0.93478 0.55298 0.0
C781 C 0.00503 0.96746 0.51556 0.0
C782 C 0.02022 0.98313 0.51582 0.0
C783 C 0.00568 0.95347 0.52929 0.0
C784 C 0.03812 0.93039 0.56044 0.0
H785 H 0.02029 0.84044 0.57444 0.0
H786 H 0.02825 0.87334 0.56372 0.0
H787 H 0.04955 0.90646 0.5728 0.0
H788 H 0.0482 0.99639 0.52998 0.0
H789 H 0.04952 0.97158 0.55389 0.0
H790 H 0.9938 0.94113 0.56589 0.0
C791 C 0.02242 0.87165 0.57762 0.0
C792 C 0.03747 0.9142 0.57169 0.0
C793 C 0.01768 0.85279 0.58367 0.0
C794 C 0.03636 0.98431 0.52953 0.0
C795 C 0.03709 0.97022 0.54319 0.0
C796 C 0.00615 0.93384 0.56757 0.0
C797 C 0.01857 0.888 0.58876 0.0
C798 C 0.02095 0.90738 0.58051 0.0
C799 C 0.02163 0.95484 0.54334 0.0
C800 C 0.02218 0.93986 0.5577 0.0
H801 H 0.99967 0.86443 0.62628 0.0
H802 H 0.00756 0.89766 0.61533 0.0
H803 H 0.99261 0.91272 0.58551 0.0
H804 H 0.99239 0.96635 0.50517 0.0
H805 H 0.99372 0.94153 0.5289 0.0
C806 C 0.47463 0.78934 0.88444 0.0
C807 C 0.47336 0.788 0.90462 0.0
C808 C 0.45815 0.78808 0.87141 0.0
C809 C 0.40885 0.76518 0.86454 0.0
H810 H 0.40128 0.8041 0.82746 0.0
C811 C 0.33637 0.76468 0.82036 0.0
C812 C 0.33578 0.77178 0.80166 0.0
C813 C 0.35374 0.76574 0.83185 0.0
C814 C 0.40332 0.79288 0.83742 0.0
H815 H 0.45399 0.78466 0.92708 0.0
H816 H 0.42501 0.78195 0.90409 0.0
H817 H 0.4305 0.80885 0.85011 0.0
H818 H 0.35276 0.78469 0.77981 0.0
H819 H 0.38339 0.78588 0.79961 0.0
H820 H 0.38211 0.74882 0.85165 0.0
C821 C 0.43882 0.78415 0.89849 0.0
C822 C 0.41996 0.79573 0.85049 0.0
C823 C 0.45535 0.78582 0.91161 0.0
C824 C 0.3529 0.7792 0.79425 0.0
C825 C 0.37038 0.78003 0.80567 0.0
C826 C 0.39239 0.76213 0.85126 0.0
C827 C 0.44012 0.78507 0.87829 0.0
C828 C 0.4227 0.78204 0.86431 0.0
C829 C 0.37097 0.77366 0.82477 0.0
C830 C 0.38926 0.77609 0.83773 0.0
H831 H 0.48836 0.79112 0.87868 0.0
H832 H 0.45944 0.78877 0.85587 0.0
H833 H 0.41088 0.75425 0.87486 0.0
H834 H 0.32332 0.75896 0.82645 0.0
H835 H 0.35354 0.76101 0.84657 0.0
C836 C 0.48192 0.22829 0.08933 0.0
C837 C 0.49437 0.24225 0.08058 0.0
C838 C 0.4774 0.2088 0.08122 0.0
C839 C 0.47943 0.17793 0.03547 0.0
H840 H 0.48214 0.13604 0.0702 0.0
C841 C 0.50107 0.1039 0.01347 0.0
C842 C 0.49114 0.08681 0.02018 0.0
C843 C 0.49686 0.12232 0.01919 0.0
C844 C 0.48098 0.14755 0.06033 0.0
H845 H 0.51199 0.2466 0.0566 0.0
H846 H 0.5045 0.21284 0.0429 0.0
H847 H 0.48331 0.16965 0.08406 0.0
H848 H 0.46863 0.07547 0.03768 0.0
H849 H 0.46151 0.10773 0.04785 0.0
H850 H 0.47819 0.15592 0.0118 0.0
C851 C 0.49778 0.21694 0.05566 0.0
C852 C 0.48161 0.16678 0.06826 0.0
C853 C 0.50221 0.23632 0.06366 0.0
C854 C 0.47646 0.08839 0.03216 0.0
C855 C 0.47243 0.10682 0.03809 0.0
C856 C 0.479 0.15876 0.02757 0.0
C857 C 0.48528 0.20297 0.06426 0.0
C858 C 0.48145 0.18225 0.05592 0.0
C859 C 0.48281 0.12393 0.0319 0.0
C860 C 0.48028 0.14353 0.03996 0.0
H861 H 0.47557 0.23243 0.10233 0.0
H862 H 0.46767 0.19835 0.08814 0.0
H863 H 0.47882 0.18949 0.02557 0.0
H864 H 0.51243 0.10311 0.00421 0.0
H865 H 0.50519 0.13535 0.01438 0.0
C866 C 0.05563 0.2522 0.36026 0.0
C867 C 0.06295 0.25753 0.37994 0.0
C868 C 0.06773 0.24816 0.34632 0.0
C869 C 0.09941 0.25947 0.32051 0.0
H870 H 0.14088 0.22973 0.32835 0.0
C871 C 0.16994 0.27551 0.28607 0.0
C872 C 0.17754 0.25948 0.27852 0.0
C873 C 0.15344 0.27236 0.2956 0.0
C874 C 0.12919 0.23786 0.32584 0.0
H875 H 0.08841 0.26146 0.40072 0.0
H876 H 0.10958 0.25425 0.37632 0.0
H877 H 0.11665 0.22805 0.35141 0.0
H878 H 0.17373 0.22766 0.27434 0.0
H879 H 0.14495 0.22213 0.29145 0.0
H880 H 0.1124 0.26996 0.29547 0.0
C881 C 0.09447 0.25325 0.37171 0.0
C882 C 0.11545 0.237 0.33908 0.0
C883 C 0.08238 0.25746 0.38565 0.0
C884 C 0.16806 0.24025 0.28001 0.0
C885 C 0.15171 0.23709 0.28985 0.0
C886 C 0.11327 0.26053 0.30745 0.0
C887 C 0.08735 0.24917 0.35183 0.0
C888 C 0.10063 0.24807 0.3367 0.0
C889 C 0.14445 0.25313 0.29797 0.0
C890 C 0.12846 0.25001 0.3102 0.0
H891 H 0.04068 0.252 0.35541 0.0
H892 H 0.06186 0.24484 0.33112 0.0
H893 H 0.08823 0.26831 0.31845 0.0
H894 H 0.17704 0.29047 0.2851 0.0
H895 H 0.1482 0.28497 0.30189 0.0
C896 C 0.88759 0.04807 0.17183 0.0
C897 C 0.89595 0.06158 0.18756 0.0
C898 C 0.89554 0.04828 0.154 0.0
C899 C 0.92903 0.0743 0.12342 0.0
H900 H 0.94896 0.02537 0.11914 0.0
C901 C 0.98845 0.06357 0.07374 0.0
C902 C 0.98823 0.0446 0.06499 0.0
C903 C 0.9759 0.06667 0.08765 0.0
C904 C 0.94323 0.03896 0.11967 0.0
H905 H 0.91786 0.08686 0.19676 0.0
H906 H 0.93128 0.08774 0.1653 0.0
H907 H 0.92663 0.02981 0.14279 0.0
H908 H 0.97422 0.01413 0.06344 0.0
H909 H 0.95199 0.01956 0.08672 0.0
H910 H 0.94533 0.08338 0.10002 0.0
C911 C 0.91873 0.07697 0.16673 0.0
C912 C 0.93042 0.04148 0.13332 0.0
C913 C 0.91106 0.0765 0.18467 0.0
C914 C 0.97513 0.02886 0.07027 0.0
C915 C 0.96234 0.03201 0.08374 0.0
C916 C 0.94154 0.07162 0.10936 0.0
C917 C 0.91169 0.06222 0.15165 0.0
C918 C 0.92332 0.05918 0.13543 0.0
C919 C 0.96255 0.05091 0.09274 0.0
C920 C 0.94896 0.05394 0.10741 0.0
H921 H 0.87617 0.03624 0.17391 0.0
H922 H 0.88994 0.03673 0.14255 0.0
H923 H 0.92383 0.08816 0.12496 0.0
H924 H 0.99831 0.076 0.06983 0.0
H925 H 0.97675 0.08139 0.09445 0.0
C926 C 0.2896 0.70573 0.45786 0.0
C927 C 0.29338 0.68638 0.45596 0.0
C928 C 0.2847 0.71545 0.44131 0.0
C929 C 0.26778 0.70701 0.38778 0.0
H930 H 0.28656 0.76301 0.38837 0.0
C931 C 0.26502 0.75046 0.31809 0.0
C932 C 0.26033 0.76947 0.31988 0.0
C933 C 0.26768 0.73994 0.33464 0.0
C934 C 0.28099 0.74742 0.38803 0.0
H935 H 0.29492 0.66204 0.43507 0.0
H936 H 0.28685 0.67914 0.40608 0.0
H937 H 0.29433 0.74544 0.41691 0.0
H938 H 0.25445 0.79221 0.34041 0.0
H939 H 0.25921 0.77388 0.36943 0.0
H940 H 0.25482 0.70905 0.35862 0.0
C941 C 0.28729 0.68673 0.42042 0.0
C942 C 0.28543 0.73729 0.40446 0.0
C943 C 0.29205 0.67693 0.43705 0.0
C944 C 0.25804 0.7776 0.33857 0.0
C945 C 0.26089 0.76713 0.35519 0.0
C946 C 0.26347 0.71714 0.37127 0.0
C947 C 0.28361 0.70619 0.4223 0.0
C948 C 0.27887 0.71693 0.40463 0.0
C949 C 0.26592 0.74823 0.35345 0.0
C950 C 0.27001 0.73748 0.37119 0.0
H951 H 0.29037 0.71343 0.47221 0.0
H952 H 0.2816 0.73023 0.44349 0.0
H953 H 0.26218 0.69144 0.38739 0.0
H954 H 0.26707 0.74384 0.30393 0.0
H955 H 0.27174 0.72554 0.33276 0.0
C956 C 0.60036 0.98335 0.71107 0.0
C957 C 0.58651 0.98148 0.72437 0.0
C958 C 0.59484 0.98295 0.69081 0.0
C959 C 0.55239 0.97067 0.65286 0.0
H960 H 0.57928 0.01257 0.62594 0.0
C961 C 0.51825 1.00022 0.58337 0.0
C962 C 0.52978 0.00544 0.5684 0.0
C963 C 0.52621 0.99469 0.60121 0.0
C964 C 0.57175 1.00059 0.63312 0.0
H965 H 0.55602 0.97642 0.7267 0.0
H966 H 0.54652 0.97577 0.69184 0.0
H967 H 0.59179 0.00659 0.65895 0.0
H968 H 0.5588 0.00855 0.56048 0.0
H969 H 0.5726 0.99894 0.59155 0.0
H970 H 0.53202 0.96511 0.62726 0.0
C971 C 0.56161 0.9775 0.6968 0.0
C972 C 0.57898 0.99711 0.65206 0.0
C973 C 0.5671 0.97802 0.7169 0.0
C974 C 0.54944 0.00467 0.57165 0.0
C975 C 0.55741 0.99926 0.58953 0.0
C976 C 0.54512 0.97422 0.63399 0.0
C977 C 0.57537 0.98045 0.68347 0.0
C978 C 0.56918 0.98237 0.66236 0.0
C979 C 0.54593 0.99433 0.6046 0.0
C980 C 0.55451 0.98947 0.62401 0.0
H981 H 0.61543 0.9861 0.71634 0.0
H982 H 0.60582 0.98503 0.68095 0.0
H983 H 0.54463 0.95894 0.66017 0.0
H984 H 0.50308 1.00064 0.58143 0.0
H985 H 0.51697 0.9912 0.61256 0.0
C986 C 0.25804 0.40918 0.96546 0.0
C987 C 0.24941 0.39863 0.97999 0.0
C988 C 0.25928 0.3996 0.9472 0.0
C989 C 0.23669 0.35823 0.91343 0.0
H990 H 0.28694 0.35558 0.89751 0.0
C991 C 0.24772 0.30224 0.8519 0.0
C992 C 0.26155 0.30842 0.83943 0.0
C993 C 0.24617 0.31409 0.8687 0.0
C994 C 0.27276 0.35644 0.90151 0.0
H995 H 0.23492 0.37014 0.98688 0.0
H996 H 0.23671 0.35367 0.95493 0.0
H997 H 0.28387 0.37637 0.92664 0.0
H998 H 0.2845 0.33166 0.83443 0.0
H999 H 0.28142 0.35257 0.86321 0.0
H1000 H 0.22544 0.33858 0.88829 0.0
C1001 C 0.24263 0.36918 0.95767 0.0
C1002 C 0.27107 0.36834 0.91817 0.0
C1003 C 0.24176 0.37858 0.97595 0.0
C1004 C 0.27383 0.32648 0.84396 0.0
C1005 C 0.27212 0.33843 0.86052 0.0
C1006 C 0.23834 0.34659 0.89658 0.0
C1007 C 0.25147 0.37957 0.94323 0.0
C1008 C 0.25306 0.36904 0.92438 0.0
C1009 C 0.25826 0.33242 0.87308 0.0
C1010 C 0.25642 0.34531 0.8906 0.0
H1011 H 0.26403 0.42465 0.9683 0.0
H1012 H 0.2662 0.40781 0.93617 0.0
H1013 H 0.22265 0.35867 0.91803 0.0
H1014 H 0.23809 0.28835 0.84862 0.0
H1015 H 0.23556 0.30886 0.87825 0.0
C1016 C 0.91373 0.04781 0.28945 0.0
C1017 C 0.89497 0.05167 0.2893 0.0
C1018 C 0.92446 0.04597 0.3071 0.0
C1019 C 0.92915 0.06149 0.35918 0.0
H1020 H 0.95778 0.01862 0.36544 0.0
C1021 C 0.96345 0.04582 0.43426 0.0
C1022 C 0.98113 0.03933 0.43535 0.0
C1023 C 0.9537 0.04783 0.41613 0.0
C1024 C 0.95013 0.03086 0.36382 0.0
H1025 H 0.87262 0.0564 0.30739 0.0
H1026 H 0.89152 0.05335 0.33839 0.0
H1027 H 0.93873 0.02054 0.33434 0.0
H1028 H 0.0028 0.03021 0.41856 0.0
H1029 H 0.98591 0.03412 0.38664 0.0
H1030 H 0.94066 0.07202 0.38848 0.0
C1031 C 0.89787 0.05179 0.32481 0.0
C1032 C 0.93915 0.03188 0.34607 0.0
C1033 C 0.88704 0.05343 0.3071 0.0
C1034 C 0.98913 0.03518 0.41803 0.0
C1035 C 0.97941 0.03731 0.39982 0.0
C1036 C 0.94024 0.06058 0.37686 0.0
C1037 C 0.91671 0.04816 0.32494 0.0
C1038 C 0.92843 0.0471 0.34367 0.0
C1039 C 0.96152 0.04354 0.39868 0.0
C1040 C 0.9507 0.04514 0.37946 0.0
H1041 H 0.92022 0.04639 0.27594 0.0
H1042 H 0.93899 0.04332 0.30682 0.0
H1043 H 0.92129 0.07358 0.35756 0.0
H1044 H 0.95694 0.04905 0.44743 0.0
H1045 H 0.93983 0.05233 0.4158 0.0
C1046 C 0.29522 0.67723 0.57268 0.0
C1047 C 0.30619 0.69031 0.56163 0.0
C1048 C 0.29318 0.68264 0.59229 0.0
C1049 C 0.31177 0.71196 0.63695 0.0
H1050 H 0.26148 0.72537 0.64082 0.0
C1051 C 0.29496 0.75547 0.70628 0.0
C1052 C 0.27612 0.75299 0.71119 0.0
C1053 C 0.29922 0.74661 0.6887 0.0
C1054 C 0.27547 0.72132 0.64033 0.0
H1055 H 0.32451 0.71867 0.56266 0.0
H1056 H 0.32178 0.72762 0.59725 0.0
H1057 H 0.2688 0.71038 0.61012 0.0
H1058 H 0.24708 0.73861 0.70198 0.0
H1059 H 0.2545 0.72229 0.67202 0.0
H1060 H 0.31845 0.7222 0.66721 0.0
C1061 C 0.31459 0.71336 0.59067 0.0
C1062 C 0.27965 0.71282 0.62259 0.0
C1063 C 0.31621 0.70821 0.57095 0.0
C1064 C 0.26169 0.74113 0.69838 0.0
C1065 C 0.266 0.73183 0.68107 0.0
C1066 C 0.30747 0.72002 0.6549 0.0
C1067 C 0.3025 0.70096 0.60127 0.0
C1068 C 0.29787 0.70825 0.62068 0.0
C1069 C 0.28482 0.73455 0.67579 0.0
C1070 C 0.28929 0.7251 0.65685 0.0
H1071 H 0.28702 0.66355 0.56574 0.0
H1072 H 0.28369 0.6729 0.60019 0.0
H1073 H 0.32594 0.70858 0.63577 0.0
H1074 H 0.30639 0.76457 0.71588 0.0
H1075 H 0.31382 0.74953 0.68518 0.0
C1076 C 0.57734 0.99108 0.82849 0.0
C1077 C 0.59732 0.99295 0.82946 0.0
C1078 C 0.56845 0.99539 0.84511 0.0
C1079 C 0.57642 0.00282 0.89982 0.0
H1080 H 0.52963 0.0246 0.89251 0.0
C1081 C 0.53617 0.02816 0.96448 0.0
C1082 C 0.51641 0.02126 0.96247 0.0
C1083 C 0.54696 0.02581 0.94872 0.0
C1084 C 0.54264 0.01845 0.89479 0.0
H1085 H 0.62368 0.00085 0.84876 0.0
H1086 H 0.60821 0.00894 0.87781 0.0
H1087 H 0.54698 0.01891 0.86449 0.0
H1088 H 0.49244 0.00629 0.94244 0.0
H1089 H 0.51106 0.00261 0.91479 0.0
H1090 H 0.57205 0.00279 0.93033 0.0
C1091 C 0.59933 0.00375 0.86423 0.0
C1092 C 0.55259 0.01506 0.87868 0.0
C1093 C 0.60824 0.99921 0.84755 0.0
C1094 C 0.50763 0.01197 0.94437 0.0
C1095 C 0.51829 0.00991 0.92852 0.0
C1096 C 0.56656 0.00648 0.91602 0.0
C1097 C 0.57926 0.00198 0.86323 0.0
C1098 C 0.56946 0.00684 0.88083 0.0
C1099 C 0.53811 0.01672 0.93051 0.0
C1100 C 0.54938 0.01404 0.91363 0.0
H1101 H 0.56845 0.98612 0.81485 0.0
H1102 H 0.553 0.99329 0.84372 0.0
H1103 H 0.58921 0.99631 0.90214 0.0
H1104 H 0.54341 0.03475 0.97838 0.0
H1105 H 0.5622 0.03117 0.95075 0.0
C1106 C 0.21884 0.36532 0.07546 0.0
C1107 C 0.22973 0.38424 0.07603 0.0
C1108 C 0.21394 0.35724 0.0927 0.0
C1109 C 0.20339 0.34316 0.13161 0.0
H1110 H 0.25053 0.34669 0.16586 0.0
C1111 C 0.21422 0.29788 0.19986 0.0
C1112 C 0.23128 0.29001 0.2013 0.0
C1113 C 0.21062 0.3105 0.18531 0.0
C1114 C 0.23723 0.34563 0.15646 0.0
H1115 H 0.24253 0.41032 0.09476 0.0
H1116 H 0.23415 0.39602 0.12523 0.0
H1117 H 0.24866 0.3693 0.14022 0.0
H1118 H 0.25715 0.28794 0.18762 0.0
H1119 H 0.25075 0.30977 0.16223 0.0
H1120 H 0.19236 0.31875 0.14745 0.0
C1121 C 0.22947 0.38746 0.11136 0.0
C1122 C 0.23605 0.35878 0.142 0.0
C1123 C 0.2342 0.39566 0.09398 0.0
C1124 C 0.24395 0.29385 0.18705 0.0
C1125 C 0.24039 0.3065 0.17262 0.0
C1126 C 0.20455 0.33004 0.14623 0.0
C1127 C 0.21999 0.36787 0.1109 0.0
C1128 C 0.21936 0.35724 0.12896 0.0
C1129 C 0.22406 0.31549 0.17206 0.0
C1130 C 0.22174 0.33073 0.15826 0.0
H1131 H 0.21499 0.35631 0.06173 0.0
H1132 H 0.20676 0.34209 0.09182 0.0
H1133 H 0.19031 0.34173 0.12182 0.0
H1134 H 0.20417 0.29527 0.21064 0.0
H1135 H 0.19787 0.31718 0.18509 0.0
C1136 C 0.18472 0.94462 0.03708 0.0
C1137 C 0.18014 0.92492 0.02918 0.0
C1138 C 0.17038 0.95617 0.03895 0.0
C1139 C 0.1212 0.95947 0.01806 0.0
H1140 H 0.12144 0.99614 0.06318 0.0
C1141 C 0.05758 0.99997 0.02595 0.0
C1142 C 0.06112 0.0198 0.03339 0.0
C1143 C 0.07206 0.9885 0.02704 0.0
C1144 C 0.12124 0.98615 0.05036 0.0
H1145 H 0.15672 0.90187 0.01746 0.0
H1146 H 0.1318 0.9219 0.02072 0.0
H1147 H 0.14667 0.97604 0.06207 0.0
H1148 H 0.08276 0.04303 0.04817 0.0
H1149 H 0.10833 0.0231 0.0498 0.0
H1150 H 0.09612 0.96968 0.0061 0.0
C1151 C 0.14651 0.92854 0.02531 0.0
C1152 C 0.13573 0.97457 0.04974 0.0
C1153 C 0.16081 0.91697 0.02356 0.0
C1154 C 0.07951 0.02776 0.04244 0.0
C1155 C 0.09416 0.01627 0.04339 0.0
C1156 C 0.10684 0.97108 0.01862 0.0
C1157 C 0.15108 0.94838 0.03282 0.0
C1158 C 0.13582 0.96095 0.03362 0.0
C1159 C 0.09073 0.99655 0.03534 0.0
C1160 C 0.10648 0.9845 0.03484 0.0
H1161 H 0.19946 0.95125 0.04154 0.0
H1162 H 0.1745 0.9714 0.04466 0.0
H1163 H 0.12099 0.94951 0.0052 0.0
H1164 H 0.04368 0.99337 0.01868 0.0
H1165 H 0.06861 0.97331 0.02109 0.0
C1166 C 0.69895 0.64864 0.97393 0.0
C1167 C 0.71513 0.63944 0.97376 0.0
C1168 C 0.68106 0.6377 0.9759 0.0
C1169 C 0.65901 0.5903 0.99321 0.0
H1170 H 0.61237 0.60491 0.96926 0.0
C1171 C 0.57182 0.56144 0.98324 0.0
C1172 C 0.56962 0.55535 0.00214 0.0
C1173 C 0.58955 0.57082 0.97871 0.0
C1174 C 0.62523 0.60042 0.97586 0.0
H1175 H 0.72508 0.6114 0.97465 0.0
H1176 H 0.6938 0.59221 0.97734 0.0
H1177 H 0.64307 0.62222 0.9621 0.0
H1178 H 0.58422 0.55458 0.03121 0.0
H1179 H 0.61491 0.57147 0.02355 0.0
H1180 H 0.64121 0.56803 0.0064 0.0
C1181 C 0.69498 0.60798 0.97661 0.0
C1182 C 0.64289 0.61058 0.97198 0.0
C1183 C 0.71291 0.61896 0.97492 0.0
C1184 C 0.58549 0.55887 0.01643 0.0
C1185 C 0.60315 0.56849 0.01199 0.0
C1186 C 0.64137 0.57999 0.99689 0.0
C1187 C 0.67886 0.61725 0.97748 0.0
C1188 C 0.66003 0.60579 0.98076 0.0
C1189 C 0.60543 0.57458 0.99306 0.0
C1190 C 0.62423 0.58504 0.98845 0.0
H1191 H 0.70019 0.66442 0.97322 0.0
H1192 H 0.66909 0.64544 0.97682 0.0
H1193 H 0.67185 0.58633 0.00048 0.0
H1194 H 0.55987 0.55884 0.97186 0.0
H1195 H 0.59081 0.57499 0.96389 0.0
C1196 C 0.69962 0.46443 0.28737 0.0
C1197 C 0.67976 0.45968 0.28791 0.0
C1198 C 0.7105 0.44962 0.28412 0.0
C1199 C 0.70714 0.39893 0.26277 0.0
H1200 H 0.75282 0.39777 0.29791 0.0
C1201 C 0.7432 0.33023 0.26481 0.0
C1202 C 0.76306 0.33238 0.26894 0.0
C1203 C 0.73389 0.3465 0.26588 0.0
C1204 C 0.74033 0.39802 0.2877 0.0
H1205 H 0.65572 0.4357 0.28516 0.0
H1206 H 0.67468 0.40989 0.27918 0.0
H1207 H 0.735 0.42482 0.30193 0.0
H1208 H 0.78892 0.35339 0.27762 0.0
H1209 H 0.77285 0.38214 0.27892 0.0
H1210 H 0.71246 0.37235 0.24834 0.0
C1211 C 0.68182 0.42507 0.28133 0.0
C1212 C 0.73007 0.41351 0.29008 0.0
C1213 C 0.67099 0.43984 0.28485 0.0
C1214 C 0.77355 0.3513 0.27419 0.0
C1215 C 0.7643 0.36773 0.27507 0.0
C1216 C 0.71751 0.38358 0.26022 0.0
C1217 C 0.70171 0.42978 0.28104 0.0
C1218 C 0.71322 0.41397 0.27782 0.0
C1219 C 0.74428 0.36552 0.27104 0.0
C1220 C 0.73409 0.38272 0.27285 0.0
H1221 H 0.7068 0.47959 0.2897 0.0
H1222 H 0.72578 0.4537 0.28384 0.0
H1223 H 0.69437 0.39905 0.2529 0.0
H1224 H 0.7347 0.31588 0.26175 0.0
H1225 H 0.71845 0.344 0.26327 0.0
C1226 C 0.78384 0.43052 0.51589 0.0
C1227 C 0.7821 0.41026 0.5184 0.0
C1228 C 0.8019 0.4422 0.51631 0.0
C1229 C 0.85197 0.44554 0.5357 0.0
H1230 H 0.86399 0.47687 0.49224 0.0
C1231 C 0.92968 0.47985 0.52697 0.0
C1232 C 0.93324 0.49757 0.51797 0.0
C1233 C 0.91095 0.47026 0.52768 0.0
C1234 C 0.86086 0.46855 0.50472 0.0
H1235 H 0.79802 0.3865 0.52369 0.0
H1236 H 0.82945 0.40698 0.52493 0.0
H1237 H 0.83176 0.45863 0.49258 0.0
H1238 H 0.92006 0.51949 0.50306 0.0
H1239 H 0.8873 0.50328 0.505 0.0
H1240 H 0.88074 0.45567 0.54822 0.0
C1241 C 0.81684 0.41377 0.52245 0.0
C1242 C 0.84236 0.45802 0.50483 0.0
C1243 C 0.79883 0.40203 0.52163 0.0
C1244 C 0.9177 0.50576 0.51 0.0
C1245 C 0.89892 0.49634 0.51099 0.0
C1246 C 0.87036 0.45633 0.5358 0.0
C1247 C 0.81859 0.43394 0.51969 0.0
C1248 C 0.83782 0.44617 0.52017 0.0
C1249 C 0.89523 0.47833 0.5197 0.0
C1250 C 0.87521 0.46777 0.52015 0.0
H1251 H 0.77123 0.4373 0.51331 0.0
H1252 H 0.80285 0.45774 0.5142 0.0
H1253 H 0.84878 0.43671 0.54785 0.0
H1254 H 0.9414 0.47312 0.53311 0.0
H1255 H 0.90888 0.45626 0.53413 0.0
C1256 C 0.37723 0.13535 0.25288 0.0
C1257 C 0.36979 0.11602 0.24505 0.0
C1258 C 0.36586 0.15014 0.2522 0.0
C1259 C 0.32165 0.16376 0.22762 0.0
H1260 H 0.3217 0.1955 0.2762 0.0
C1261 C 0.27046 0.21507 0.26556 0.0
C1262 C 0.26685 0.22754 0.25073 0.0
C1263 C 0.28418 0.20282 0.26415 0.0
C1264 C 0.32152 0.18678 0.26251 0.0
H1265 H 0.34472 0.09733 0.2297 0.0
H1266 H 0.325 0.12316 0.22826 0.0
H1267 H 0.3435 0.17171 0.27445 0.0
H1268 H 0.27478 0.23697 0.22275 0.0
H1269 H 0.2987 0.21527 0.22009 0.0
H1270 H 0.29945 0.17869 0.21579 0.0
C1271 C 0.33963 0.12689 0.23497 0.0
C1272 C 0.33415 0.17325 0.26145 0.0
C1273 C 0.35093 0.11205 0.23585 0.0
C1274 C 0.27726 0.22748 0.23439 0.0
C1275 C 0.29088 0.21501 0.23284 0.0
C1276 C 0.30917 0.17748 0.22862 0.0
C1277 C 0.34682 0.14605 0.24346 0.0
C1278 C 0.33422 0.16137 0.24407 0.0
C1279 C 0.29452 0.20253 0.24773 0.0
C1280 C 0.30875 0.18896 0.24617 0.0
H1281 H 0.39168 0.13894 0.26011 0.0
H1282 H 0.37193 0.16477 0.25869 0.0
H1283 H 0.32142 0.15496 0.21397 0.0
H1284 H 0.26273 0.21485 0.27839 0.0
H1285 H 0.28646 0.19328 0.27579 0.0
C1286 C 0.33423 0.12184 0.49787 0.0
C1287 C 0.31586 0.11864 0.50402 0.0
C1288 C 0.34732 0.10964 0.50329 0.0
C1289 C 0.36153 0.0772 0.53923 0.0
H1290 H 0.38429 0.05386 0.49646 0.0
C1291 C 0.43366 0.04903 0.5458 0.0
C1292 C 0.43526 0.03236 0.53371 0.0
C1293 C 0.41645 0.05628 0.54505 0.0
C1294 C 0.37786 0.06001 0.50854 0.0
H1295 H 0.29701 0.10075 0.52134 0.0
H1296 H 0.32023 0.07961 0.53123 0.0
H1297 H 0.3598 0.07408 0.48932 0.0
H1298 H 0.41996 0.00928 0.51254 0.0
H1299 H 0.38986 0.02209 0.51108 0.0
H1300 H 0.38025 0.06372 0.5585 0.0
C1301 C 0.32431 0.09145 0.52203 0.0
C1302 C 0.36401 0.07173 0.50446 0.0
C1303 C 0.31106 0.10348 0.51633 0.0
C1304 C 0.41907 0.0222 0.52195 0.0
C1305 C 0.4019 0.02955 0.52107 0.0
C1306 C 0.37566 0.06569 0.54336 0.0
C1307 C 0.34239 0.09421 0.5152 0.0
C1308 C 0.35596 0.08066 0.51975 0.0
C1309 C 0.40066 0.04706 0.53208 0.0
C1310 C 0.38409 0.05718 0.52803 0.0
H1311 H 0.33834 0.1334 0.48838 0.0
H1312 H 0.36127 0.11214 0.49802 0.0
H1313 H 0.35549 0.08399 0.55124 0.0
H1314 H 0.44598 0.0571 0.55501 0.0
H1315 H 0.41592 0.06986 0.5536 0.0
C1316 C 0.6805 0.56687 0.30301 0.0
C1317 C 0.6605 0.56428 0.30282 0.0
C1318 C 0.69112 0.58554 0.30147 0.0
C1319 C 0.68603 0.63271 0.28159 0.0
H1320 H 0.73385 0.65315 0.31348 0.0
C1321 C 0.73568 0.70217 0.26351 0.0
C1322 C 0.74234 0.7165 0.27915 0.0
C1323 C 0.72667 0.68336 0.267 0.0
C1324 C 0.72049 0.64763 0.30451 0.0
H1325 H 0.63612 0.57956 0.30141 0.0
H1326 H 0.65462 0.61195 0.29862 0.0
H1327 H 0.71596 0.62093 0.31914 0.0
H1328 H 0.74527 0.72197 0.31084 0.0
H1329 H 0.7297 0.68901 0.31689 0.0
H1330 H 0.69049 0.65928 0.26693 0.0
C1331 C 0.66206 0.5995 0.29985 0.0
C1332 C 0.71033 0.62916 0.30765 0.0
C1333 C 0.65147 0.58092 0.30157 0.0
C1334 C 0.74029 0.71133 0.29843 0.0
C1335 C 0.73144 0.69242 0.30192 0.0
C1336 C 0.69628 0.65102 0.2783 0.0
C1337 C 0.68196 0.60199 0.2995 0.0
C1338 C 0.69293 0.62155 0.29628 0.0
C1339 C 0.72426 0.67833 0.28621 0.0
C1340 C 0.7136 0.65872 0.28972 0.0
H1341 H 0.68795 0.55442 0.30399 0.0
H1342 H 0.70643 0.58699 0.30117 0.0
H1343 H 0.67278 0.62717 0.27245 0.0
H1344 H 0.73697 0.70557 0.24847 0.0
H1345 H 0.72149 0.67275 0.2546 0.0
C1346 C 0.86285 0.50771 0.76433 0.0
C1347 C 0.88192 0.50829 0.76043 0.0
C1348 C 0.85086 0.48969 0.76514 0.0
C1349 C 0.84161 0.43914 0.74572 0.0
H1350 H 0.81904 0.42623 0.7934 0.0
C1351 C 0.80483 0.36039 0.75516 0.0
C1352 C 0.78977 0.35738 0.7669 0.0
C1353 C 0.81512 0.37922 0.75411 0.0
C1354 C 0.82485 0.42967 0.7798 0.0
H1355 H 0.9033 0.49047 0.75404 0.0
H1356 H 0.88205 0.45891 0.75476 0.0
H1357 H 0.8386 0.45846 0.7919 0.0
H1358 H 0.77327 0.37165 0.78645 0.0
H1359 H 0.79058 0.40484 0.78393 0.0
H1360 H 0.82748 0.4109 0.7332 0.0
C1361 C 0.87656 0.47246 0.75747 0.0
C1362 C 0.83618 0.4481 0.77905 0.0
C1363 C 0.88869 0.49048 0.75714 0.0
C1364 C 0.7849 0.37361 0.77735 0.0
C1365 C 0.79496 0.3926 0.776 0.0
C1366 C 0.82996 0.4209 0.74629 0.0
C1367 C 0.85759 0.47193 0.76158 0.0
C1368 C 0.84487 0.45285 0.76211 0.0
C1369 C 0.81034 0.39566 0.76446 0.0
C1370 C 0.82166 0.41572 0.76346 0.0
H1371 H 0.85727 0.52121 0.76704 0.0
H1372 H 0.83626 0.4896 0.76829 0.0
H1373 H 0.84799 0.44261 0.73241 0.0
H1374 H 0.80901 0.34808 0.74709 0.0
H1375 H 0.8271 0.38072 0.74547 0.0
C1376 C 1.00018 0.83806 0.13959 0.0
C1377 C 0.99673 0.81909 0.12993 0.0
C1378 C 1.00208 0.85472 0.12879 0.0
C1379 C 0.98781 0.87117 0.08074 0.0
H1380 H 0.0303 0.91408 0.0936 0.0
C1381 C 0.99933 0.93737 0.03264 0.0
C1382 C 0.00637 0.95594 0.04241 0.0
C1383 C 0.99884 0.92032 0.04284 0.0
C1384 C 0.01816 0.9024 0.08994 0.0
H1385 H 0.99262 0.8027 0.10143 0.0
H1386 H 0.9956 0.8317 0.08269 0.0
H1387 H 0.02777 0.88553 0.11297 0.0
H1388 H 0.01828 0.97133 0.07043 0.0
H1389 H 0.01679 0.94198 0.08826 0.0
H1390 H 0.97778 0.88814 0.05814 0.0
C1391 C 0.99689 0.83371 0.09856 0.0
C1392 C 0.01678 0.886 0.10104 0.0
C1393 C 0.99529 0.81712 0.10932 0.0
C1394 C 0.0129 0.95718 0.06246 0.0
C1395 C 0.01218 0.94026 0.07268 0.0
C1396 C 0.989 0.88769 0.06981 0.0
C1397 C 1.00024 0.85268 0.10815 0.0
C1398 C 1.00161 0.87022 0.09655 0.0
C1399 C 0.00517 0.92155 0.06306 0.0
C1400 C 0.00419 0.90359 0.07426 0.0
H1401 H 1.00135 0.84002 0.15545 0.0
H1402 H 0.0046 0.8692 0.13654 0.0
H1403 H 0.97585 0.85926 0.07706 0.0
H1404 H 0.99426 0.93602 0.01716 0.0
H1405 H 0.99361 0.90618 0.03482 0.0
C1406 C 0.96749 0.29338 0.83707 0.0
C1407 C 0.96829 0.28769 0.85641 0.0
C1408 C 0.94998 0.29065 0.82515 0.0
C1409 C 0.90284 0.26088 0.81578 0.0
H1410 H 0.88369 0.30762 0.80007 0.0
C1411 C 0.82332 0.25798 0.78704 0.0
C1412 C 0.81801 0.27246 0.77515 0.0
C1413 C 0.84241 0.25879 0.79465 0.0
C1414 C 0.88885 0.29427 0.80381 0.0
H1415 H 0.95151 0.27403 0.87811 0.0
H1416 H 0.92117 0.26854 0.857 0.0
H1417 H 0.91578 0.31062 0.81693 0.0
H1418 H 0.82871 0.29856 0.76104 0.0
H1419 H 0.8621 0.29932 0.77311 0.0
H1420 H 0.87637 0.24433 0.8023 0.0
C1421 C 0.934 0.27541 0.85122 0.0
C1422 C 0.90728 0.29609 0.81363 0.0
C1423 C 0.95135 0.27862 0.8633 0.0
C1424 C 0.83236 0.28722 0.77024 0.0
C1425 C 0.85153 0.28777 0.77743 0.0
C1426 C 0.88458 0.25897 0.80552 0.0
C1427 C 0.93308 0.28166 0.83214 0.0
C1428 C 0.91432 0.27946 0.82002 0.0
C1429 C 0.85686 0.27389 0.79023 0.0
C1430 C 0.87707 0.27568 0.79968 0.0
H1431 H 0.98027 0.30051 0.83141 0.0
H1432 H 0.94961 0.2956 0.81047 0.0
H1433 H 0.908 0.2478 0.82047 0.0
H1434 H 0.81257 0.24659 0.79137 0.0
H1435 H 0.84559 0.24798 0.80467 0.0
C1436 C 0.48248 0.21195 0.60258 0.0
C1437 C 0.48723 0.21665 0.62285 0.0
C1438 C 0.48257 0.19305 0.59434 0.0
C1439 C 0.47961 0.14194 0.59686 0.0
H1440 H 0.52313 0.14643 0.56664 0.0
C1441 C 0.50316 0.07464 0.55635 0.0
C1442 C 0.51032 0.07768 0.53823 0.0
C1443 C 0.49894 0.09044 0.56793 0.0
C1444 C 0.51079 0.14489 0.57479 0.0
H1445 H 0.49417 0.20479 0.65062 0.0
H1446 H 0.49421 0.17127 0.63599 0.0
H1447 H 0.5168 0.17528 0.58541 0.0
H1448 H 0.51804 0.09933 0.51765 0.0
H1449 H 0.51025 0.12682 0.53751 0.0
H1450 H 0.47313 0.11165 0.58561 0.0
C1451 C 0.49045 0.18244 0.62664 0.0
C1452 C 0.50732 0.16138 0.5857 0.0
C1453 C 0.49038 0.20154 0.63498 0.0
C1454 C 0.5127 0.09664 0.53165 0.0
C1455 C 0.50836 0.11239 0.54312 0.0
C1456 C 0.48298 0.12536 0.58573 0.0
C1457 C 0.48728 0.17837 0.60618 0.0
C1458 C 0.49161 0.16012 0.59661 0.0
C1459 C 0.50176 0.10959 0.56158 0.0
C1460 C 0.49845 0.12674 0.57428 0.0
H1461 H 0.47979 0.22323 0.59288 0.0
H1462 H 0.48001 0.19016 0.57854 0.0
H1463 H 0.46733 0.14075 0.6051 0.0
H1464 H 0.50133 0.06015 0.56184 0.0
H1465 H 0.49404 0.08774 0.58211 0.0
C1466 C 0.57541 0.77945 0.3284 0.0
C1467 C 0.57585 0.79048 0.34638 0.0
C1468 C 0.59237 0.77778 0.32018 0.0
C1469 C 0.64238 0.80207 0.32004 0.0
H1470 H 0.65004 0.75089 0.29905 0.0
C1471 C 0.71338 0.79022 0.28929 0.0
C1472 C 0.71187 0.77661 0.27292 0.0
C1473 C 0.69737 0.79193 0.29929 0.0
C1474 C 0.6481 0.76538 0.30456 0.0
H1475 H 0.5945 0.80858 0.3697 0.0
H1476 H 0.62403 0.80587 0.35523 0.0
H1477 H 0.6209 0.754 0.31381 0.0
H1478 H 0.69237 0.75443 0.25397 0.0
H1479 H 0.66454 0.75783 0.27074 0.0
H1480 H 0.66933 0.81359 0.31036 0.0
C1481 C 0.61057 0.79848 0.3475 0.0
C1482 C 0.63135 0.76712 0.31311 0.0
C1483 C 0.59364 0.79994 0.35585 0.0
C1484 C 0.69405 0.76496 0.26663 0.0
C1485 C 0.67808 0.76679 0.27642 0.0
C1486 C 0.65907 0.80038 0.31128 0.0
C1487 C 0.61017 0.78731 0.32961 0.0
C1488 C 0.62821 0.78549 0.32085 0.0
C1489 C 0.67945 0.78021 0.29298 0.0
C1490 C 0.66212 0.78202 0.30325 0.0
H1491 H 0.56196 0.77198 0.32072 0.0
H1492 H 0.59154 0.7692 0.30629 0.0
H1493 H 0.64035 0.81647 0.32575 0.0
H1494 H 0.72686 0.79964 0.29427 0.0
H1495 H 0.69911 0.80234 0.31204 0.0
C1496 C 0.01421 0.22805 0.46873 0.0
C1497 C 0.01711 0.23145 0.44918 0.0
C1498 C 0.01096 0.20897 0.47458 0.0
C1499 C 0.01866 0.15883 0.46166 0.0
H1500 H 0.9832 0.1458 0.50016 0.0
C1501 C 0.00595 0.08235 0.49189 0.0
C1502 C 0.00716 0.08257 0.51238 0.0
C1503 C 0.00474 0.09954 0.48255 0.0
C1504 C 0.99316 0.14926 0.48943 0.0
H1505 H 0.0188 0.21734 0.42042 0.0
H1506 H 0.01294 0.18382 0.43075 0.0
H1507 H 0.98535 0.17759 0.4861 0.0
H1508 H 0.00815 0.10083 0.53934 0.0
H1509 H 0.00593 0.13106 0.52305 0.0
H1510 H 0.02659 0.13054 0.4652 0.0
C1511 C 0.01336 0.19605 0.44151 0.0
C1512 C 0.99442 0.16743 0.4814 0.0
C1513 C 0.01667 0.21524 0.43562 0.0
C1514 C 0.00701 0.10027 0.52347 0.0
C1515 C 0.00564 0.11749 0.51415 0.0
C1516 C 0.0173 0.14059 0.46961 0.0
C1517 C 0.01044 0.19275 0.46108 0.0
C1518 C 0.00751 0.17259 0.46777 0.0
C1519 C 0.00471 0.1173 0.4936 0.0
C1520 C 0.00482 0.13582 0.48386 0.0
H1521 H 0.01455 0.24012 0.47963 0.0
H1522 H 0.00919 0.20697 0.48986 0.0
H1523 H 0.02902 0.16244 0.45136 0.0
H1524 H 0.0069 0.0692 0.4831 0.0
H1525 H 0.0041 0.09899 0.4667 0.0
C1526 C 0.55237 0.30041 0.15866 0.0
C1527 C 0.55485 0.30701 0.13996 0.0
C1528 C 0.56808 0.30079 0.17252 0.0
C1529 C 0.61904 0.32194 0.18504 0.0
H1530 H 0.62146 0.27311 0.20953 0.0
C1531 C 0.68943 0.30068 0.21691 0.0
C1532 C 0.68968 0.29036 0.23386 0.0
C1533 C 0.67231 0.3049 0.20806 0.0
C1534 C 0.62087 0.28699 0.20315 0.0
H1535 H 0.57576 0.31991 0.12146 0.0
H1536 H 0.60322 0.32039 0.14564 0.0
H1537 H 0.59259 0.27687 0.18919 0.0
H1538 H 0.6725 0.27678 0.25526 0.0
H1539 H 0.64237 0.28423 0.23977 0.0
H1540 H 0.64752 0.33188 0.19867 0.0
C1541 C 0.58907 0.31505 0.14958 0.0
C1542 C 0.60434 0.28914 0.19147 0.0
C1543 C 0.57334 0.31464 0.13568 0.0
C1544 C 0.6726 0.28465 0.24209 0.0
C1545 C 0.6554 0.28888 0.23322 0.0
C1546 C 0.63557 0.31981 0.19677 0.0
C1547 C 0.58661 0.30783 0.16801 0.0
C1548 C 0.6034 0.30647 0.18198 0.0
C1549 C 0.65508 0.29891 0.216 0.0
C1550 C 0.63681 0.30214 0.20559 0.0
H1551 H 0.53831 0.2946 0.16255 0.0
H1552 H 0.56575 0.29536 0.1867 0.0
H1553 H 0.61859 0.33557 0.17814 0.0
H1554 H 0.70246 0.30528 0.21031 0.0
H1555 H 0.67251 0.31236 0.19464 0.0
C1556 C 0.5403 0.84408 0.9284 0.0
C1557 C 0.54287 0.82822 0.9396 0.0
C1558 C 0.54124 0.86289 0.93766 0.0
C1559 C 0.55087 0.90307 0.96048 0.0
H1560 H 0.52634 0.90409 0.00843 0.0
C1561 C 0.54494 0.976 0.00282 0.0
C1562 C 0.52679 0.97719 0.00869 0.0
C1563 C 0.54939 0.9579 0.99633 0.0
C1564 C 0.5332 0.90407 0.99505 0.0
H1565 H 0.54973 0.8196 0.96893 0.0
H1566 H 0.55202 0.85237 0.98495 0.0
H1567 H 0.52946 0.87273 0.99222 0.0
H1568 H 0.49939 0.96018 0.01318 0.0
H1569 H 0.50705 0.92878 0.00165 0.0
H1570 H 0.55365 0.93446 0.96283 0.0
C1571 C 0.5486 0.85031 0.96918 0.0
C1572 C 0.53523 0.88609 0.98587 0.0
C1573 C 0.54738 0.83157 0.95999 0.0
C1574 C 0.51352 0.95981 0.0088 0.0
C1575 C 0.51794 0.94175 0.00226 0.0
C1576 C 0.54872 0.92109 0.96962 0.0
C1577 C 0.545 0.86608 0.95821 0.0
C1578 C 0.54393 0.88536 0.96838 0.0
C1579 C 0.53578 0.94066 0.99558 0.0
C1580 C 0.53964 0.92174 0.98687 0.0
H1581 H 0.53678 0.84181 0.91264 0.0
H1582 H 0.53825 0.8747 0.9288 0.0
H1583 H 0.55781 0.903 0.94714 0.0
H1584 H 0.55554 0.98911 0.00263 0.0
H1585 H 0.56336 0.95746 0.99159 0.0
C1586 C 0.95516 0.7751 0.65703 0.0
C1587 C 0.95371 0.78275 0.63856 0.0
C1588 C 0.93936 0.77228 0.66768 0.0
C1589 C 0.90812 0.78171 0.69196 0.0
H1590 H 0.85696 0.76435 0.66589 0.0
C1591 C 0.84007 0.79391 0.72707 0.0
C1592 C 0.82374 0.77948 0.72256 0.0
C1593 C 0.85657 0.79244 0.718 0.0
C1594 C 0.87115 0.76896 0.67351 0.0
H1595 H 0.93451 0.79289 0.61648 0.0
H1596 H 0.90706 0.78822 0.6351 0.0
H1597 H 0.88422 0.76385 0.64741 0.0
H1598 H 0.81197 0.75166 0.70613 0.0
H1599 H 0.8408 0.74876 0.69078 0.0
H1600 H 0.89499 0.78655 0.71816 0.0
C1601 C 0.92028 0.78414 0.6413 0.0
C1602 C 0.88677 0.76891 0.66282 0.0
C1603 C 0.93604 0.78691 0.63065 0.0
C1604 C 0.82432 0.76318 0.70955 0.0
C1605 C 0.84081 0.76156 0.70072 0.0
C1606 C 0.89247 0.78165 0.70271 0.0
C1607 C 0.92184 0.77707 0.66005 0.0
C1608 C 0.90541 0.77556 0.67184 0.0
C1609 C 0.85699 0.77637 0.70449 0.0
C1610 C 0.87379 0.77549 0.69353 0.0
H1611 H 0.96859 0.77169 0.66347 0.0
H1612 H 0.94091 0.76652 0.68195 0.0
H1613 H 0.9223 0.7871 0.6993 0.0
H1614 H 0.83991 0.80658 0.73714 0.0
H1615 H 0.86873 0.80419 0.7211 0.0
C1616 C 0.10873 0.98568 0.83623 0.0
C1617 C 0.12777 0.99529 0.83726 0.0
C1618 C 0.0984 0.98676 0.85237 0.0
C1619 C 0.09181 0.01977 0.89122 0.0
H1620 H 0.06789 0.97501 0.91666 0.0
C1621 C 0.05233 0.03132 0.95838 0.0
C1622 C 0.03656 0.01743 0.96186 0.0
C1623 C 0.0634 0.02765 0.94344 0.0
C1624 C 0.07417 0.98765 0.90951 0.0
H1625 H 0.1511 0.01333 0.85593 0.0
H1626 H 0.13259 0.01597 0.88414 0.0
H1627 H 0.08817 0.96993 0.89068 0.0
H1628 H 0.02 0.98874 0.95232 0.0
H1629 H 0.03879 0.98267 0.92521 0.0
H1630 H 0.07714 0.03747 0.90884 0.0
C1631 C 0.12592 0.00727 0.87089 0.0
C1632 C 0.08596 0.98472 0.89483 0.0
C1633 C 0.13646 0.00575 0.85484 0.0
C1634 C 0.03201 0.99975 0.94988 0.0
C1635 C 0.04292 0.99623 0.93449 0.0
C1636 C 0.0797 0.02266 0.9055 0.0
C1637 C 0.10679 0.99786 0.86967 0.0
C1638 C 0.09501 0.00081 0.88576 0.0
C1639 C 0.05883 0.01016 0.93112 0.0
C1640 C 0.07088 0.00669 0.91507 0.0
H1641 H 0.10174 0.97744 0.82284 0.0
H1642 H 0.08363 0.97953 0.85109 0.0
H1643 H 0.09833 0.03231 0.88407 0.0
H1644 H 0.05659 0.0449 0.96763 0.0
H1645 H 0.07584 0.03848 0.94189 0.0
C1646 C 0.73632 0.37608 0.5886 0.0
C1647 C 0.72354 0.36521 0.57348 0.0
C1648 C 0.73962 0.36822 0.60679 0.0
C1649 C 0.73512 0.3191 0.62758 0.0
H1650 H 0.75055 0.34998 0.67718 0.0
C1651 C 0.76215 0.28289 0.69628 0.0
C1652 C 0.75671 0.28921 0.71438 0.0
C1653 C 0.75908 0.2933 0.67966 0.0
C1654 C 0.74611 0.34105 0.66351 0.0
H1655 H 0.70327 0.33833 0.5659 0.0
H1656 H 0.70801 0.3252 0.59776 0.0
H1657 H 0.74133 0.3662 0.64808 0.0
H1658 H 0.74422 0.31174 0.72935 0.0
H1659 H 0.73834 0.32947 0.70049 0.0
H1660 H 0.73915 0.29388 0.64299 0.0
C1661 C 0.71616 0.33938 0.59554 0.0
C1662 C 0.74101 0.35044 0.64669 0.0
C1663 C 0.71315 0.34706 0.57734 0.0
C1664 C 0.74859 0.30645 0.71562 0.0
C1665 C 0.74534 0.31674 0.69901 0.0
C1666 C 0.74003 0.30972 0.64437 0.0
C1667 C 0.73006 0.3494 0.61027 0.0
C1668 C 0.73535 0.33959 0.62846 0.0
C1669 C 0.75029 0.31021 0.68067 0.0
C1670 C 0.74561 0.3205 0.66263 0.0
H1671 H 0.74482 0.38993 0.58587 0.0
H1672 H 0.75049 0.37641 0.61764 0.0
H1673 H 0.73131 0.31018 0.61382 0.0
H1674 H 0.76855 0.26974 0.69489 0.0
H1675 H 0.76351 0.28799 0.66598 0.0
C1676 C 0.40797 0.07226 0.32395 0.0
C1677 C 0.4188 0.07274 0.30789 0.0
C1678 C 0.41622 0.06949 0.34274 0.0
C1679 C 0.45731 0.05067 0.36819 0.0
H1680 H 0.44501 0.0796 0.41408 0.0
C1681 C 0.49795 0.04835 0.44482 0.0
C1682 C 0.48714 0.04677 0.4609 0.0
C1683 C 0.48974 0.05229 0.42643 0.0
C1684 C 0.44847 0.07125 0.40145 0.0
H1685 H 0.44684 0.07083 0.29905 0.0
H1686 H 0.46124 0.06623 0.3317 0.0
H1687 H 0.43031 0.08469 0.38161 0.0
H1688 H 0.4592 0.04856 0.47017 0.0
H1689 H 0.44491 0.05531 0.43814 0.0
H1690 H 0.47542 0.03721 0.38797 0.0
C1691 C 0.44629 0.06769 0.32982 0.0
C1692 C 0.44001 0.07416 0.3828 0.0
C1693 C 0.43806 0.07046 0.31107 0.0
C1694 C 0.46801 0.0497 0.45818 0.0
C1695 C 0.45981 0.05367 0.43978 0.0
C1696 C 0.46577 0.04778 0.38682 0.0
C1697 C 0.4355 0.06711 0.34593 0.0
C1698 C 0.44434 0.06393 0.36589 0.0
C1699 C 0.47049 0.05478 0.42358 0.0
C1700 C 0.4615 0.05805 0.40372 0.0
H1701 H 0.39308 0.07392 0.322 0.0
H1702 H 0.40739 0.0689 0.35472 0.0
H1703 H 0.46074 0.04225 0.3556 0.0
H1704 H 0.51273 0.04626 0.44631 0.0
H1705 H 0.49852 0.05337 0.41441 0.0
C1706 C 0.78367 0.6824 0.04864 0.0
C1707 C 0.78108 0.69388 0.03269 0.0
C1708 C 0.78501 0.69082 0.06786 0.0
C1709 C 0.76744 0.72971 0.09456 0.0
H1710 H 0.80296 0.72096 0.13821 0.0
C1711 C 0.76399 0.7637 0.17228 0.0
C1712 C 0.76672 0.75163 0.18762 0.0
C1713 C 0.76799 0.75809 0.15347 0.0
C1714 C 0.79283 0.72338 0.12619 0.0
H1715 H 0.77928 0.72353 0.02449 0.0
H1716 H 0.78147 0.73798 0.0579 0.0
H1717 H 0.80656 0.70807 0.10508 0.0
H1718 H 0.77576 0.72443 0.19564 0.0
H1719 H 0.78201 0.71422 0.16271 0.0
H1720 H 0.75318 0.74426 0.11548 0.0
C1721 C 0.7822 0.72247 0.05551 0.0
C1722 C 0.79496 0.71606 0.10727 0.0
C1723 C 0.78095 0.71414 0.03638 0.0
C1724 C 0.77354 0.73397 0.18398 0.0
C1725 C 0.77732 0.72824 0.16516 0.0
C1726 C 0.76517 0.7368 0.11344 0.0
C1727 C 0.78371 0.71079 0.07138 0.0
C1728 C 0.78223 0.71912 0.09134 0.0
C1729 C 0.77456 0.74021 0.14967 0.0
C1730 C 0.77775 0.73362 0.1295 0.0
H1731 H 0.78396 0.6668 0.0463 0.0
H1732 H 0.78613 0.68152 0.07992 0.0
H1733 H 0.75724 0.73199 0.08252 0.0
H1734 H 0.75894 0.77751 0.17485 0.0
H1735 H 0.766 0.76781 0.14192 0.0
C1736 C 0.13211 0.9992 0.72098 0.0
C1737 C 0.11934 0.99077 0.73365 0.0
C1738 C 0.12602 0.9996 0.70105 0.0
C1739 C 0.08894 0.97993 0.66064 0.0
H1740 H 0.09157 0.03435 0.64855 0.0
C1741 C 0.04133 0.0027 0.59589 0.0
C1742 C 0.04843 0.01942 0.58656 0.0
C1743 C 0.05168 0.99753 0.61259 0.0
C1744 C 0.09104 0.01902 0.65133 0.0
H1745 H 0.09095 0.97457 0.73531 0.0
H1746 H 0.08052 0.97479 0.70042 0.0
H1747 H 0.10822 0.0267 0.67885 0.0
H1748 H 0.07211 0.0434 0.58664 0.0
H1749 H 0.09055 0.03401 0.61504 0.0
H1750 H 0.07188 0.97216 0.63307 0.0
C1751 C 0.09509 0.98127 0.70588 0.0
C1752 C 0.1006 0.01467 0.66877 0.0
C1753 C 0.10102 0.98124 0.72582 0.0
C1754 C 0.06617 0.03062 0.59382 0.0
C1755 C 0.07669 0.02526 0.61019 0.0
C1756 C 0.07966 0.98424 0.64293 0.0
C1757 C 0.10726 0.99118 0.6935 0.0
C1758 C 0.0994 0.99514 0.67373 0.0
C1759 C 0.06951 0.00879 0.62 0.0
C1760 C 0.08032 0.00389 0.6382 0.0
H1761 H 0.14627 0.00672 0.72669 0.0
H1762 H 0.13564 0.00729 0.69172 0.0
H1763 H 0.08779 0.96475 0.66422 0.0
H1764 H 0.02771 0.99376 0.59043 0.0
H1765 H 0.0455 0.98493 0.61984 0.0
C1766 C 0.72029 0.35456 0.46749 0.0
C1767 C 0.72064 0.37498 0.47004 0.0
C1768 C 0.72322 0.34569 0.44943 0.0
C1769 C 0.72354 0.35371 0.39627 0.0
H1770 H 0.752 0.31038 0.39665 0.0
C1771 C 0.73095 0.30725 0.32491 0.0
C1772 C 0.74852 0.30088 0.32312 0.0
C1773 C 0.72726 0.31618 0.3427 0.0
C1774 C 0.74417 0.32257 0.3962 0.0
H1775 H 0.72427 0.4021 0.45552 0.0
H1776 H 0.72979 0.3867 0.42402 0.0
H1777 H 0.74668 0.32664 0.42749 0.0
H1778 H 0.77603 0.29911 0.33881 0.0
H1779 H 0.76975 0.31489 0.36954 0.0
H1780 H 0.7216 0.35001 0.36491 0.0
C1781 C 0.72691 0.37744 0.43591 0.0
C1782 C 0.74087 0.33176 0.41397 0.0
C1783 C 0.72385 0.38632 0.45401 0.0
C1784 C 0.76226 0.30363 0.33962 0.0
C1785 C 0.75861 0.31264 0.35735 0.0
C1786 C 0.72694 0.34456 0.37846 0.0
C1787 C 0.72675 0.35699 0.4334 0.0
C1788 C 0.73044 0.34742 0.41431 0.0
C1789 C 0.74107 0.31909 0.35918 0.0
C1790 C 0.7373 0.32883 0.37815 0.0
H1791 H 0.71772 0.34535 0.47949 0.0
H1792 H 0.72257 0.32988 0.44804 0.0
H1793 H 0.7153 0.36557 0.39587 0.0
H1794 H 0.72002 0.30541 0.31254 0.0
H1795 H 0.71348 0.32066 0.34356 0.0
C1796 C 0.44548 0.08096 0.20086 0.0
C1797 C 0.42795 0.07006 0.20438 0.0
C1798 C 0.45263 0.07858 0.18279 0.0
C1799 C 0.4414 0.05514 0.13126 0.0
H1800 H 0.49631 0.05719 0.13627 0.0
C1801 C 0.48536 0.03085 0.06824 0.0
C1802 C 0.50184 0.04436 0.06597 0.0
C1803 C 0.47479 0.0335 0.0842 0.0
C1804 C 0.48097 0.05664 0.13457 0.0
H1805 H 0.4038 0.0485 0.19155 0.0
H1806 H 0.41645 0.04387 0.15996 0.0
H1807 H 0.48057 0.06341 0.1652 0.0
H1808 H 0.52 0.07135 0.07855 0.0
H1809 H 0.50198 0.07571 0.10629 0.0
H1810 H 0.44208 0.04784 0.10043 0.0
C1811 C 0.42454 0.05467 0.171 0.0
C1812 C 0.47189 0.06039 0.15119 0.0
C1813 C 0.41721 0.05737 0.18908 0.0
C1814 C 0.50746 0.06055 0.0799 0.0
C1815 C 0.49713 0.06306 0.09585 0.0
C1816 C 0.45054 0.05116 0.11456 0.0
C1817 C 0.44271 0.06475 0.16785 0.0
C1818 C 0.45201 0.06009 0.14982 0.0
C1819 C 0.48074 0.04955 0.09832 0.0
C1820 C 0.4705 0.05219 0.116 0.0
H1821 H 0.45409 0.09078 0.21245 0.0
H1822 H 0.46633 0.08714 0.18081 0.0
H1823 H 0.4261 0.05478 0.12952 0.0
H1824 H 0.48073 0.01821 0.05783 0.0
H1825 H 0.46227 0.02278 0.08575 0.0
C1826 C 0.79006 0.65826 0.91899 0.0
C1827 C 0.77807 0.66431 0.93237 0.0
C1828 C 0.79316 0.66866 0.90234 0.0
C1829 C 0.79393 0.7188 0.88876 0.0
H1830 H 0.78815 0.69875 0.83421 0.0
C1831 C 0.77384 0.76362 0.82579 0.0
C1832 C 0.78113 0.76101 0.80776 0.0
C1833 C 0.77876 0.75269 0.84131 0.0
C1834 C 0.7903 0.70452 0.84942 0.0
H1835 H 0.75846 0.68436 0.93805 0.0
H1836 H 0.76356 0.70215 0.90909 0.0
H1837 H 0.78511 0.67564 0.8599 0.0
H1838 H 0.80009 0.74572 0.79207 0.0
H1839 H 0.8086 0.72643 0.8193 0.0
H1840 H 0.79836 0.7476 0.87845 0.0
C1841 C 0.77099 0.68986 0.9116 0.0
C1842 C 0.78848 0.69131 0.86406 0.0
C1843 C 0.76798 0.67961 0.92809 0.0
C1844 C 0.79437 0.74815 0.80589 0.0
C1845 C 0.79911 0.73697 0.82137 0.0
C1846 C 0.79578 0.73194 0.87422 0.0
C1847 C 0.78426 0.68511 0.8991 0.0
C1848 C 0.7895 0.69842 0.88376 0.0
C1849 C 0.79092 0.73878 0.83903 0.0
C1850 C 0.79323 0.72496 0.85438 0.0
H1851 H 0.79808 0.64655 0.92213 0.0
H1852 H 0.80334 0.66466 0.89275 0.0
H1853 H 0.79519 0.7246 0.90393 0.0
H1854 H 0.76359 0.77342 0.82762 0.0
H1855 H 0.77208 0.75427 0.85469 0.0
C1856 C 0.8399 0.11371 0.01348 0.0
C1857 C 0.84301 0.13423 0.01234 0.0
C1858 C 0.8551 0.1031 0.01343 0.0
C1859 C 0.90501 0.10657 0.9999 0.0
H1860 H 0.90479 0.06025 0.02907 0.0
C1861 C 0.96853 0.06236 0.00604 0.0
C1862 C 0.96368 0.04173 0.00481 0.0
C1863 C 0.95434 0.07426 0.00702 0.0
C1864 C 0.90502 0.07304 0.02068 0.0
H1865 H 0.86478 0.15971 0.01071 0.0
H1866 H 0.89133 0.14135 0.0111 0.0
H1867 H 0.87949 0.07982 0.03149 0.0
H1868 H 0.94009 0.01744 0.00341 0.0
H1869 H 0.91546 0.03803 0.00502 0.0
H1870 H 0.9307 0.09976 0.98923 0.0
C1871 C 0.87707 0.13332 0.01162 0.0
C1872 C 0.89043 0.0843 0.02204 0.0
C1873 C 0.86183 0.14392 0.01159 0.0
C1874 C 0.94433 0.03329 0.0043 0.0
C1875 C 0.93019 0.04512 0.00541 0.0
C1876 C 0.91969 0.09535 0.99863 0.0
C1877 C 0.87393 0.11269 0.01233 0.0
C1878 C 0.89005 0.10115 0.01152 0.0
C1879 C 0.93498 0.06579 0.00698 0.0
C1880 C 0.91979 0.07829 0.00884 0.0
H1881 H 0.8256 0.10571 0.01392 0.0
H1882 H 0.85193 0.08725 0.0137 0.0
H1883 H 0.90517 0.11923 0.99133 0.0
H1884 H 0.9833 0.06934 0.00669 0.0
H1885 H 0.9586 0.09011 0.00836 0.0
C1886 C 0.32362 0.41834 0.04377 0.0
C1887 C 0.3083 0.42799 0.03816 0.0
C1888 C 0.3424 0.4284 0.04566 0.0
C1889 C 0.37169 0.47873 0.04776 0.0
H1890 H 0.40978 0.44957 0.02991 0.0
C1891 C 0.44435 0.51442 0.0245 0.0
C1892 C 0.46059 0.50685 0.03169 0.0
C1893 C 0.42612 0.50543 0.02796 0.0
C1894 C 0.39934 0.45783 0.03517 0.0
H1895 H 0.3006 0.45587 0.03044 0.0
H1896 H 0.33338 0.47328 0.03295 0.0
H1897 H 0.3772 0.43273 0.03068 0.0
H1898 H 0.47051 0.48407 0.04833 0.0
H1899 H 0.43851 0.46805 0.05397 0.0
H1900 H 0.39388 0.50406 0.05124 0.0
C1901 C 0.33095 0.45807 0.03647 0.0
C1902 C 0.38064 0.44818 0.03571 0.0
C1903 C 0.31211 0.44807 0.03492 0.0
C1904 C 0.45826 0.49029 0.04269 0.0
C1905 C 0.43998 0.48107 0.04583 0.0
C1906 C 0.39035 0.48844 0.04691 0.0
C1907 C 0.34638 0.4483 0.04162 0.0
C1908 C 0.36651 0.45851 0.04192 0.0
C1909 C 0.42375 0.4885 0.03839 0.0
C1910 C 0.40431 0.47808 0.04051 0.0
H1911 H 0.32111 0.40292 0.0466 0.0
H1912 H 0.35381 0.42048 0.05016 0.0
H1913 H 0.36135 0.48712 0.05298 0.0
H1914 H 0.44569 0.52721 0.01603 0.0
H1915 H 0.41383 0.51135 0.02193 0.0
C1916 C 0.35409 0.61389 0.75344 0.0
C1917 C 0.34585 0.59649 0.74198 0.0
C1918 C 0.344 0.62949 0.75553 0.0
C1919 C 0.29454 0.64093 0.74946 0.0
H1920 H 0.32131 0.69484 0.75721 0.0
C1921 C 0.25674 0.70896 0.74767 0.0
C1922 C 0.26246 0.72376 0.76306 0.0
C1923 C 0.26678 0.69334 0.74548 0.0
C1924 C 0.31369 0.67984 0.75524 0.0
H1925 H 0.32074 0.58206 0.72318 0.0
H1926 H 0.30333 0.60964 0.72607 0.0
H1927 H 0.33911 0.66818 0.75103 0.0
H1928 H 0.2825 0.73313 0.78881 0.0
H1929 H 0.30078 0.70621 0.78452 0.0
H1930 H 0.26902 0.65287 0.75299 0.0
C1931 C 0.31741 0.61103 0.73401 0.0
C1932 C 0.32387 0.66449 0.75174 0.0
C1933 C 0.32745 0.59525 0.73217 0.0
C1934 C 0.27824 0.72238 0.77646 0.0
C1935 C 0.28854 0.70688 0.77408 0.0
C1936 C 0.28434 0.65632 0.75263 0.0
C1937 C 0.32545 0.62829 0.74595 0.0
C1938 C 0.31447 0.64477 0.74891 0.0
C1939 C 0.28291 0.69224 0.75852 0.0
C1940 C 0.29382 0.67591 0.75564 0.0
H1941 H 0.36819 0.61528 0.76137 0.0
H1942 H 0.35062 0.64226 0.76516 0.0
H1943 H 0.28678 0.62599 0.74778 0.0
H1944 H 0.24463 0.70958 0.73706 0.0
H1945 H 0.26219 0.68234 0.73329 0.0
C1946 C 0.22346 0.65991 0.50104 0.0
C1947 C 0.23938 0.65052 0.49924 0.0
C1948 C 0.20526 0.64897 0.50152 0.0
C1949 C 0.18 0.59923 0.51028 0.0
H1950 H 0.13604 0.61989 0.48784 0.0
C1951 C 0.10273 0.56785 0.52539 0.0
C1952 C 0.08772 0.56824 0.51069 0.0
C1953 C 0.12141 0.57673 0.52309 0.0
C1954 C 0.14809 0.61366 0.49397 0.0
H1955 H 0.24843 0.62207 0.49629 0.0
H1956 H 0.21651 0.60291 0.49658 0.0
H1957 H 0.16791 0.63689 0.48456 0.0
H1958 H 0.08049 0.57753 0.48179 0.0
H1959 H 0.11303 0.59239 0.47741 0.0
H1960 H 0.16009 0.5756 0.5191 0.0
C1961 C 0.2182 0.61881 0.49804 0.0
C1962 C 0.16648 0.62366 0.49236 0.0
C1963 C 0.23652 0.62981 0.49774 0.0
C1964 C 0.09178 0.57722 0.49346 0.0
C1965 C 0.11046 0.58586 0.49103 0.0
C1966 C 0.16156 0.58909 0.51172 0.0
C1967 C 0.2023 0.62826 0.49999 0.0
C1968 C 0.18273 0.61677 0.50072 0.0
C1969 C 0.12554 0.586 0.50592 0.0
C1970 C 0.14531 0.59627 0.50375 0.0
H1971 H 0.22504 0.67581 0.50245 0.0
H1972 H 0.19356 0.65686 0.5035 0.0
H1973 H 0.1921 0.5935 0.51706 0.0
H1974 H 0.09998 0.56104 0.53885 0.0
H1975 H 0.1325 0.57673 0.53502 0.0
C1976 C 0.63885 0.92415 0.77418 0.0
C1977 C 0.6473 0.9441 0.77525 0.0
C1978 C 0.64999 0.90923 0.7723 0.0
C1979 C 0.69796 0.90102 0.75885 0.0
H1980 H 0.68555 0.85189 0.78288 0.0
C1981 C 0.73935 0.83745 0.74453 0.0
C1982 C 0.74301 0.82542 0.75972 0.0
C1983 C 0.72687 0.85097 0.74631 0.0
C1984 C 0.68938 0.86558 0.77622 0.0
H1985 H 0.67417 0.96398 0.77558 0.0
H1986 H 0.69354 0.93828 0.77297 0.0
H1987 H 0.66582 0.87732 0.78663 0.0
H1988 H 0.73663 0.81824 0.78882 0.0
H1989 H 0.71523 0.84236 0.79234 0.0
H1990 H 0.72196 0.88982 0.7492 0.0
C1991 C 0.67826 0.93393 0.77294 0.0
C1992 C 0.67784 0.88013 0.77813 0.0
C1993 C 0.66713 0.94877 0.77457 0.0
C1994 C 0.73387 0.82716 0.77678 0.0
C1995 C 0.72155 0.84098 0.77873 0.0
C1996 C 0.70957 0.88663 0.75713 0.0
C1997 C 0.6699 0.9139 0.77164 0.0
C1998 C 0.68196 0.89811 0.76948 0.0
C1999 C 0.71797 0.85323 0.76355 0.0
C2000 C 0.70547 0.86862 0.7657 0.0
H2001 H 0.6236 0.92003 0.77464 0.0
H2002 H 0.6429 0.89405 0.77109 0.0
H2003 H 0.70154 0.91443 0.75164 0.0
H2004 H 0.74599 0.83625 0.73108 0.0
H2005 H 0.72416 0.85961 0.73403 0.0
C2006 C 0.69 0.94345 0.5366 0.0
C2007 C 0.70947 0.95126 0.54119 0.0
C2008 C 0.67667 0.95586 0.53324 0.0
C2009 C 0.66242 0.00231 0.54009 0.0
H2010 H 0.63946 0.99192 0.48609 0.0
C2011 C 0.5989 0.03859 0.5113 0.0
C2012 C 0.5836 0.02509 0.50141 0.0
C2013 C 0.617 0.03333 0.51471 0.0
C2014 C 0.64571 0.99503 0.50119 0.0
H2015 H 0.73006 0.97821 0.54765 0.0
H2016 H 0.70637 1.00009 0.54208 0.0
H2017 H 0.66565 0.97533 0.49767 0.0
H2018 H 0.57533 0.99605 0.48629 0.0
H2019 H 0.6067 0.98679 0.49226 0.0
H2020 H 0.6417 0.02106 0.54401 0.0
C2021 C 0.70165 0.9843 0.5409 0.0
C2022 C 0.66073 0.98562 0.50776 0.0
C2023 C 0.71512 0.9718 0.54416 0.0
C2024 C 0.58691 0.00676 0.4939 0.0
C2025 C 0.60495 0.0015 0.49728 0.0
C2026 C 0.64718 0.01161 0.53357 0.0
C2027 C 0.68251 0.97631 0.5346 0.0
C2028 C 0.66881 0.98875 0.52736 0.0
C2029 C 0.62007 0.0145 0.50821 0.0
C2030 C 0.63828 0.00757 0.51419 0.0
H2031 H 0.68516 0.92769 0.53439 0.0
H2032 H 0.6619 0.94945 0.52862 0.0
H2033 H 0.66849 0.00485 0.55529 0.0
H2034 H 0.59667 0.05285 0.51724 0.0
H2035 H 0.62842 0.04376 0.52293 0.0
C2036 C 0.3668 0.47104 0.7411 0.0
C2037 C 0.35839 0.4881 0.73995 0.0
C2038 C 0.35554 0.45241 0.73999 0.0
C2039 C 0.30766 0.42725 0.74807 0.0
H2040 H 0.32453 0.38239 0.72263 0.0
C2041 C 0.28106 0.34733 0.76547 0.0
C2042 C 0.27858 0.33211 0.75039 0.0
C2043 C 0.28885 0.36662 0.76218 0.0
C2044 C 0.31941 0.39473 0.72959 0.0
H2045 H 0.33135 0.49871 0.73637 0.0
H2046 H 0.31161 0.466 0.73434 0.0
H2047 H 0.3414 0.41547 0.71966 0.0
H2048 H 0.28205 0.32549 0.7198 0.0
H2049 H 0.29546 0.3592 0.714 0.0
H2050 H 0.28563 0.40647 0.75798 0.0
C2051 C 0.32701 0.46718 0.73627 0.0
C2052 C 0.32925 0.41373 0.72808 0.0
C2053 C 0.33833 0.48593 0.73731 0.0
C2054 C 0.2838 0.33679 0.73179 0.0
C2055 C 0.29159 0.35613 0.72849 0.0
C2056 C 0.2978 0.40822 0.74958 0.0
C2057 C 0.3355 0.45019 0.7377 0.0
C2058 C 0.32375 0.43022 0.73762 0.0
C2059 C 0.29437 0.37128 0.74369 0.0
C2060 C 0.30376 0.39167 0.74066 0.0
H2061 H 0.38218 0.47203 0.74313 0.0
H2062 H 0.36261 0.43974 0.74148 0.0
H2063 H 0.30307 0.43956 0.7557 0.0
H2064 H 0.27728 0.34434 0.78002 0.0
H2065 H 0.29104 0.37778 0.77434 0.0
C2066 C 0.1508 0.55169 0.2759 0.0
C2067 C 0.13418 0.5514 0.28545 0.0
C2068 C 0.16298 0.56944 0.27431 0.0
C2069 C 0.17761 0.61994 0.29669 0.0
H2070 H 0.1926 0.63242 0.24554 0.0
C2071 C 0.21267 0.69826 0.2827 0.0
C2072 C 0.22616 0.7008 0.2691 0.0
C2073 C 0.20254 0.6796 0.28496 0.0
C2074 C 0.18889 0.62909 0.26002 0.0
H2075 H 0.11764 0.5696 0.30122 0.0
H2076 H 0.13913 0.60052 0.29877 0.0
H2077 H 0.17317 0.60066 0.24931 0.0
H2078 H 0.23989 0.68581 0.24738 0.0
H2079 H 0.22265 0.65296 0.25171 0.0
H2080 H 0.19353 0.64806 0.30759 0.0
C2081 C 0.14263 0.58698 0.29242 0.0
C2082 C 0.17766 0.61089 0.26214 0.0
C2083 C 0.13028 0.56927 0.29374 0.0
C2084 C 0.22951 0.68425 0.25793 0.0
C2085 C 0.21951 0.66546 0.26035 0.0
C2086 C 0.18905 0.63802 0.29465 0.0
C2087 C 0.15901 0.58729 0.28251 0.0
C2088 C 0.1717 0.60622 0.28044 0.0
C2089 C 0.2058 0.66288 0.27386 0.0
C2090 C 0.19463 0.64301 0.27622 0.0
H2091 H 0.15423 0.53823 0.26927 0.0
H2092 H 0.17557 0.5692 0.26672 0.0
H2093 H 0.17348 0.61664 0.31104 0.0
H2094 H 0.20968 0.71078 0.29144 0.0
H2095 H 0.19186 0.67842 0.29519 0.0
C2096 C 0.52618 0.72711 0.39308 0.0
C2097 C 0.53298 0.74509 0.40411 0.0
C2098 C 0.52691 0.70928 0.40169 0.0
C2099 C 0.5277 0.69135 0.45121 0.0
H2100 H 0.53516 0.64209 0.42542 0.0
C2101 C 0.53044 0.6218 0.49311 0.0
C2102 C 0.52081 0.60388 0.48364 0.0
C2103 C 0.53285 0.63879 0.4829 0.0
C2104 C 0.53289 0.65573 0.43276 0.0
H2105 H 0.54743 0.7587 0.43194 0.0
H2106 H 0.54944 0.72784 0.44664 0.0
H2107 H 0.53897 0.67203 0.40784 0.0
H2108 H 0.50603 0.58959 0.45616 0.0
H2109 H 0.51005 0.61928 0.43837 0.0
H2110 H 0.5215 0.67518 0.47602 0.0
C2111 C 0.54289 0.72731 0.43168 0.0
C2112 C 0.5351 0.67286 0.42269 0.0
C2113 C 0.54193 0.74499 0.4232 0.0
C2114 C 0.51353 0.60324 0.46382 0.0
C2115 C 0.51597 0.6202 0.45359 0.0
C2116 C 0.52555 0.6743 0.46124 0.0
C2117 C 0.53461 0.70927 0.42139 0.0
C2118 C 0.53261 0.69091 0.43185 0.0
C2119 C 0.5257 0.63818 0.46299 0.0
C2120 C 0.52814 0.65628 0.45218 0.0
H2121 H 0.51906 0.72684 0.37837 0.0
H2122 H 0.52041 0.69564 0.39335 0.0
H2123 H 0.52516 0.70486 0.45857 0.0
H2124 H 0.53629 0.62265 0.50835 0.0
H2125 H 0.54059 0.65236 0.49052 0.0
C2126 C 0.55241 0.27799 0.69666 0.0
C2127 C 0.55256 0.28192 0.6768 0.0
C2128 C 0.5696 0.27946 0.70894 0.0
C2129 C 0.60829 0.27194 0.72789 0.0
H2130 H 0.65127 0.3116 0.7197 0.0
C2131 C 0.68641 0.26569 0.75428 0.0
C2132 C 0.69999 0.28291 0.75916 0.0
C2133 C 0.66754 0.26674 0.74729 0.0
C2134 C 0.63941 0.30059 0.7225 0.0
H2135 H 0.57115 0.29056 0.65446 0.0
H2136 H 0.60072 0.29276 0.67555 0.0
H2137 H 0.62015 0.31192 0.70209 0.0
H2138 H 0.70393 0.31481 0.76155 0.0
H2139 H 0.67093 0.31667 0.74988 0.0
H2140 H 0.62756 0.26077 0.74852 0.0
C2141 C 0.5874 0.28892 0.68185 0.0
C2142 C 0.62154 0.3006 0.71212 0.0
C2143 C 0.57033 0.28749 0.66965 0.0
C2144 C 0.69393 0.30123 0.75781 0.0
C2145 C 0.675 0.30229 0.75094 0.0
C2146 C 0.62617 0.27199 0.73838 0.0
C2147 C 0.58734 0.28493 0.70167 0.0
C2148 C 0.60582 0.28602 0.71432 0.0
C2149 C 0.66164 0.28506 0.74512 0.0
C2150 C 0.64209 0.2861 0.73555 0.0
H2151 H 0.53903 0.27368 0.70271 0.0
H2152 H 0.56897 0.27643 0.72416 0.0
H2153 H 0.59657 0.26043 0.72994 0.0
H2154 H 0.6905 0.25129 0.75508 0.0
H2155 H 0.65782 0.25313 0.74278 0.0
C2156 C 0.0317 0.35167 0.91334 0.0
C2157 C 0.02645 0.34728 0.89311 0.0
C2158 C 0.02933 0.36958 0.92249 0.0
C2159 C 0.99913 0.40593 0.92165 0.0
H2160 H 0.04097 0.43973 0.95367 0.0
C2161 C 0.98623 0.47521 0.96634 0.0
C2162 C 0.99692 0.48039 0.98467 0.0
C2163 C 0.99089 0.46073 0.95341 0.0
C2164 C 0.02903 0.43037 0.94505 0.0
H2165 H 0.01454 0.35815 0.86654 0.0
H2166 H 0.0096 0.38947 0.88287 0.0
H2167 H 0.04715 0.41117 0.93415 0.0
H2168 H 0.02085 0.47462 0.00399 0.0
H2169 H 0.02852 0.44865 0.98196 0.0
H2170 H 0.98072 0.42408 0.93335 0.0
C2171 C 0.01592 0.37905 0.89145 0.0
C2172 C 0.03266 0.41413 0.93369 0.0
C2173 C 0.01877 0.36123 0.88214 0.0
C2174 C 0.01246 0.47094 0.98985 0.0
C2175 C 0.01691 0.45615 0.97709 0.0
C2176 C 0.99541 0.42191 0.93332 0.0
C2177 C 0.02124 0.38335 0.91171 0.0
C2178 C 0.01772 0.40169 0.92202 0.0
C2179 C 0.00611 0.45071 0.95868 0.0
C2180 C 0.01028 0.43429 0.94538 0.0
H2181 H 0.03773 0.34123 0.92216 0.0
H2182 H 0.03339 0.37248 0.93814 0.0
H2183 H 0.98734 0.39637 0.91298 0.0
H2184 H 0.9743 0.48247 0.96192 0.0
H2185 H 0.9825 0.45745 0.93926 0.0
C2186 C 0.92819 0.76374 0.17212 0.0
C2187 C 0.94612 0.76322 0.18237 0.0
C2188 C 0.91187 0.76296 0.182 0.0
C2189 C 0.8919 0.7499 0.22834 0.0
H2190 H 0.85748 0.78591 0.21357 0.0
C2191 C 0.83014 0.76445 0.27373 0.0
C2192 C 0.81298 0.76737 0.26339 0.0
C2193 C 0.84619 0.76276 0.26387 0.0
C2194 C 0.86674 0.77553 0.21773 0.0
H2195 H 0.96083 0.76091 0.21104 0.0
H2196 H 0.9323 0.75958 0.22834 0.0
H2197 H 0.8856 0.78482 0.19646 0.0
H2198 H 0.79937 0.77144 0.23477 0.0
H2199 H 0.82692 0.76772 0.2174 0.0
H2200 H 0.87298 0.74064 0.24966 0.0
C2201 C 0.93086 0.76048 0.2126 0.0
C2202 C 0.88294 0.77492 0.20789 0.0
C2203 C 0.94724 0.76131 0.20269 0.0
C2204 C 0.81217 0.76854 0.24302 0.0
C2205 C 0.82814 0.7668 0.23314 0.0
C2206 C 0.87563 0.75046 0.23817 0.0
C2207 C 0.913 0.76162 0.20242 0.0
C2208 C 0.89573 0.76208 0.21302 0.0
C2209 C 0.84546 0.76408 0.24344 0.0
C2210 C 0.86279 0.76327 0.23297 0.0
H2211 H 0.92677 0.76511 0.15645 0.0
H2212 H 0.89833 0.7635 0.17361 0.0
H2213 H 0.90133 0.73969 0.23255 0.0
H2214 H 0.83123 0.76371 0.2895 0.0
H2215 H 0.85931 0.76096 0.27236 0.0
C2216 C 0.50809 0.34617 0.08306 0.0
C2217 C 0.50179 0.34467 0.10172 0.0
C2218 C 0.50954 0.36388 0.07436 0.0
C2219 C 0.51406 0.4167 0.08136 0.0
H2220 H 0.48776 0.41066 0.02858 0.0
C2221 C 0.52669 0.47476 0.02511 0.0
C2222 C 0.51047 0.47896 0.0141 0.0
C2223 C 0.52508 0.45927 0.03728 0.0
C2224 C 0.49498 0.41265 0.04336 0.0
H2225 H 0.49317 0.36077 0.12649 0.0
H2226 H 0.49579 0.3922 0.11103 0.0
H2227 H 0.48633 0.38242 0.04823 0.0
H2228 H 0.47995 0.47012 0.00647 0.0
H2229 H 0.47712 0.44279 0.02749 0.0
H2230 H 0.52293 0.44698 0.07627 0.0
C2231 C 0.4995 0.37946 0.10326 0.0
C2232 C 0.49428 0.39648 0.05453 0.0
C2233 C 0.498 0.36157 0.11205 0.0
C2234 C 0.4927 0.46702 0.01474 0.0
C2235 C 0.49107 0.4515 0.02685 0.0
C2236 C 0.51488 0.43293 0.07008 0.0
C2237 C 0.50472 0.38049 0.0841 0.0
C2238 C 0.50408 0.39828 0.07346 0.0
C2239 C 0.50722 0.44761 0.03837 0.0
C2240 C 0.50554 0.43094 0.05089 0.0
H2241 H 0.51137 0.33349 0.07481 0.0
H2242 H 0.51396 0.36445 0.05972 0.0
H2243 H 0.52172 0.41835 0.09593 0.0
H2244 H 0.54058 0.48361 0.02444 0.0
H2245 H 0.53782 0.4563 0.04568 0.0
C2246 C 0.95766 0.29169 0.41303 0.0
C2247 C 0.97506 0.29408 0.40478 0.0
C2248 C 0.94041 0.29006 0.40099 0.0
C2249 C 0.91881 0.30148 0.35372 0.0
H2250 H 0.88203 0.25399 0.35618 0.0
C2251 C 0.85243 0.28204 0.29716 0.0
C2252 C 0.83528 0.27402 0.30416 0.0
C2253 C 0.86976 0.28365 0.30901 0.0
C2254 C 0.89197 0.26748 0.35546 0.0
H2255 H 0.98824 0.2977 0.37779 0.0
H2256 H 0.95813 0.29545 0.35691 0.0
H2257 H 0.9112 0.26037 0.37887 0.0
H2258 H 0.82266 0.26086 0.32869 0.0
H2259 H 0.85266 0.26426 0.34963 0.0
H2260 H 0.89952 0.30901 0.33078 0.0
C2261 C 0.95782 0.29456 0.37257 0.0
C2262 C 0.90868 0.27109 0.36846 0.0
C2263 C 0.97499 0.29578 0.3845 0.0
C2264 C 0.83574 0.26701 0.32291 0.0
C2265 C 0.85299 0.2689 0.33488 0.0
C2266 C 0.90196 0.29806 0.34094 0.0
C2267 C 0.94038 0.29126 0.38065 0.0
C2268 C 0.92225 0.28807 0.36763 0.0
C2269 C 0.87021 0.27756 0.32822 0.0
C2270 C 0.88834 0.28096 0.34157 0.0
H2271 H 0.95733 0.29023 0.4286 0.0
H2272 H 0.92708 0.28762 0.40752 0.0
H2273 H 0.92908 0.31472 0.35289 0.0
H2274 H 0.85241 0.28747 0.28269 0.0
H2275 H 0.88276 0.28995 0.3032 0.0
C2276 C 1.00076 0.7402 0.55637 0.0
C2277 C 0.99418 0.74644 0.57395 0.0
C2278 C 0.99665 0.7205 0.54924 0.0
C2279 C 0.98422 0.67089 0.56568 0.0
H2280 H 0.97868 0.65628 0.50972 0.0
C2281 C 0.97936 0.59068 0.53388 0.0
C2282 C 0.99338 0.58851 0.52124 0.0
C2283 C 0.97544 0.60933 0.53921 0.0
C2284 C 0.98011 0.66017 0.52537 0.0
H2285 H 0.97757 0.73687 0.59751 0.0
H2286 H 0.97011 0.70236 0.58481 0.0
H2287 H 0.9784 0.69032 0.52143 0.0
H2288 H 0.0137 0.60396 0.50364 0.0
H2289 H 0.00657 0.63654 0.5127 0.0
H2290 H 0.9861 0.64069 0.56952 0.0
C2291 C 0.97875 0.71275 0.57675 0.0
C2292 C 0.98004 0.67964 0.5321 0.0
C2293 C 0.98298 0.73253 0.584 0.0
C2294 C 0.00285 0.60522 0.51342 0.0
C2295 C 0.99869 0.62382 0.5185 0.0
C2296 C 0.98404 0.65136 0.55893 0.0
C2297 C 0.98571 0.7065 0.55938 0.0
C2298 C 0.98273 0.68535 0.55233 0.0
C2299 C 0.98522 0.62606 0.53172 0.0
C2300 C 0.98255 0.64598 0.53873 0.0
H2301 H 0.0095 0.75045 0.54827 0.0
H2302 H 0.00261 0.71618 0.53606 0.0
H2303 H 0.98652 0.67479 0.58134 0.0
H2304 H 0.97196 0.57806 0.54027 0.0
H2305 H 0.96498 0.61072 0.54941 0.0
C2306 C 0.56095 0.74914 0.86916 0.0
C2307 C 0.5667 0.75848 0.88805 0.0
C2308 C 0.5744 0.74754 0.85591 0.0
C2309 C 0.61618 0.77619 0.84282 0.0
H2310 H 0.62999 0.72981 0.81698 0.0
C2311 C 0.68406 0.78047 0.80491 0.0
C2312 C 0.68437 0.76798 0.78813 0.0
C2313 C 0.66807 0.77857 0.81518 0.0
C2314 C 0.626 0.7429 0.82376 0.0
H2315 H 0.59108 0.77226 0.90837 0.0
H2316 H 0.61446 0.76981 0.88504 0.0
H2317 H 0.6051 0.72609 0.83937 0.0
H2318 H 0.66818 0.74409 0.76846 0.0
H2319 H 0.63981 0.74099 0.78624 0.0
H2320 H 0.6366 0.79313 0.82722 0.0
C2321 C 0.59958 0.76369 0.88059 0.0
C2322 C 0.6119 0.74073 0.83664 0.0
C2323 C 0.58622 0.76502 0.89391 0.0
C2324 C 0.66823 0.75387 0.78141 0.0
C2325 C 0.65209 0.75201 0.79166 0.0
C2326 C 0.62997 0.77839 0.82977 0.0
C2327 C 0.59367 0.75549 0.86136 0.0
C2328 C 0.60732 0.75737 0.8466 0.0
C2329 C 0.65194 0.76424 0.80877 0.0
C2330 C 0.63546 0.76178 0.82052 0.0
H2331 H 0.54598 0.7439 0.86431 0.0
H2332 H 0.56962 0.74118 0.8411 0.0
H2333 H 0.61252 0.78921 0.85013 0.0
H2334 H 0.69638 0.79144 0.81043 0.0
H2335 H 0.66863 0.78798 0.82849 0.0
C2336 C 0.39734 0.55438 0.67806 0.0
C2337 C 0.40521 0.56409 0.69625 0.0
C2338 C 0.40662 0.55807 0.66124 0.0
C2339 C 0.42797 0.57054 0.62622 0.0
H2340 H 0.48258 0.57298 0.63847 0.0
C2341 C 0.48 0.5692 0.56612 0.0
C2342 C 0.49271 0.55573 0.56875 0.0
C2343 C 0.46931 0.57401 0.58124 0.0
C2344 C 0.46737 0.57236 0.63478 0.0
H2345 H 0.42774 0.58636 0.71106 0.0
H2346 H 0.44338 0.59357 0.6817 0.0
H2347 H 0.46261 0.57489 0.66489 0.0
H2348 H 0.50457 0.53722 0.58941 0.0
H2349 H 0.48617 0.5457 0.61569 0.0
H2350 H 0.43285 0.56694 0.59598 0.0
C2351 C 0.4305 0.58264 0.68035 0.0
C2352 C 0.45589 0.57372 0.64994 0.0
C2353 C 0.42145 0.5787 0.69713 0.0
C2354 C 0.49498 0.54771 0.58695 0.0
C2355 C 0.48446 0.55264 0.60205 0.0
C2356 C 0.43952 0.56916 0.61098 0.0
C2357 C 0.4238 0.57164 0.66241 0.0
C2358 C 0.43599 0.57249 0.64593 0.0
C2359 C 0.47131 0.56563 0.59931 0.0
C2360 C 0.4593 0.5696 0.61514 0.0
H2361 H 0.38496 0.54286 0.67713 0.0
H2362 H 0.40108 0.54925 0.64772 0.0
H2363 H 0.41273 0.5697 0.62259 0.0
H2364 H 0.47775 0.57542 0.55216 0.0
H2365 H 0.45935 0.58413 0.57872 0.0
C2366 C 0.78932 0.2037 0.95777 0.0
C2367 C 0.7943 0.18481 0.95651 0.0
C2368 C 0.78482 0.21302 0.94088 0.0
C2369 C 0.77104 0.20395 0.88694 0.0
H2370 H 0.78668 0.26055 0.88828 0.0
C2371 C 0.75816 0.27375 0.83795 0.0
C2372 C 0.76179 0.2664 0.81942 0.0
C2373 C 0.7612 0.26326 0.85449 0.0
C2374 C 0.782 0.24477 0.88772 0.0
H2375 H 0.79845 0.16088 0.93636 0.0
H2376 H 0.79107 0.17739 0.90669 0.0
H2377 H 0.79453 0.2433 0.91701 0.0
H2378 H 0.77133 0.24221 0.80371 0.0
H2379 H 0.77624 0.22381 0.83241 0.0
H2380 H 0.75891 0.20554 0.85736 0.0
C2381 C 0.79027 0.18486 0.92083 0.0
C2382 C 0.78648 0.23483 0.90424 0.0
C2383 C 0.79463 0.17542 0.93784 0.0
C2384 C 0.76811 0.24816 0.81772 0.0
C2385 C 0.77095 0.23759 0.83419 0.0
C2386 C 0.76671 0.21391 0.87032 0.0
C2387 C 0.78537 0.20387 0.92213 0.0
C2388 C 0.78097 0.21428 0.90418 0.0
C2389 C 0.76779 0.24512 0.85283 0.0
C2390 C 0.77206 0.23446 0.87055 0.0
H2391 H 0.78881 0.21137 0.97189 0.0
H2392 H 0.78072 0.22741 0.94258 0.0
H2393 H 0.7663 0.1882 0.88635 0.0
H2394 H 0.75331 0.28777 0.83972 0.0
H2395 H 0.75845 0.26939 0.86862 0.0
C2396 C 0.06349 0.48244 0.21876 0.0
C2397 C 0.08309 0.48449 0.22524 0.0
C2398 C 0.05714 0.48204 0.19887 0.0
C2399 C 0.07363 0.49932 0.1528 0.0
H2400 H 0.0241 0.47076 0.13049 0.0
C2401 C 0.04353 0.50508 0.07246 0.0
C2402 C 0.02431 0.50763 0.06921 0.0
C2403 C 0.05111 0.50014 0.09067 0.0
C2404 C 0.03791 0.47893 0.13654 0.0
H2405 H 0.11133 0.48664 0.21563 0.0
H2406 H 0.10019 0.48568 0.18059 0.0
H2407 H 0.03719 0.46442 0.16318 0.0
H2408 H 0.99795 0.50665 0.08267 0.0
H2409 H 0.01121 0.49794 0.11452 0.0
H2410 H 0.07426 0.51389 0.12617 0.0
C2411 C 0.08975 0.48469 0.19108 0.0
C2412 C 0.04545 0.47528 0.15529 0.0
C2413 C 0.09615 0.48502 0.21114 0.0
C2414 C 0.01278 0.50478 0.08461 0.0
C2415 C 0.02037 0.4997 0.10285 0.0
C2416 C 0.06614 0.50286 0.13399 0.0
C2417 C 0.07017 0.48366 0.18475 0.0
C2418 C 0.06326 0.4857 0.16384 0.0
C2419 C 0.03968 0.4975 0.10614 0.0
C2420 C 0.04804 0.49294 0.12575 0.0
H2421 H 0.05299 0.48185 0.22918 0.0
H2422 H 0.04201 0.48145 0.19471 0.0
H2423 H 0.08723 0.50785 0.15896 0.0
H2424 H 0.05291 0.50712 0.061 0.0
H2425 H 0.06596 0.49834 0.09261 0.0
C2426 C 0.72701 0.88795 0.47008 0.0
C2427 C 0.74139 0.90381 0.47709 0.0
C2428 C 0.72738 0.87817 0.45188 0.0
C2429 C 0.75137 0.87881 0.40635 0.0
H2430 H 0.74127 0.82213 0.40916 0.0
C2431 C 0.77496 0.82457 0.35063 0.0
C2432 C 0.76126 0.80823 0.34314 0.0
C2433 C 0.77154 0.83675 0.36635 0.0
C2434 C 0.74391 0.83791 0.40808 0.0
H2435 H 0.76687 0.92274 0.4706 0.0
H2436 H 0.76805 0.90509 0.43876 0.0
H2437 H 0.73645 0.84363 0.4369 0.0
H2438 H 0.73345 0.79144 0.34623 0.0
H2439 H 0.72754 0.81265 0.37408 0.0
H2440 H 0.75941 0.87287 0.37763 0.0
C2441 C 0.7562 0.9005 0.44709 0.0
C2442 C 0.74107 0.85026 0.42391 0.0
C2443 C 0.75558 0.9106 0.46525 0.0
C2444 C 0.74429 0.80389 0.35191 0.0
C2445 C 0.7409 0.81602 0.36775 0.0
C2446 C 0.75434 0.86641 0.39053 0.0
C2447 C 0.74246 0.88372 0.44059 0.0
C2448 C 0.74477 0.87085 0.42325 0.0
C2449 C 0.7544 0.8327 0.3749 0.0
C2450 C 0.7507 0.84586 0.39132 0.0
H2451 H 0.71585 0.88266 0.47904 0.0
H2452 H 0.71628 0.86569 0.44703 0.0
H2453 H 0.75418 0.89459 0.40535 0.0
H2454 H 0.78815 0.82823 0.34405 0.0
H2455 H 0.78229 0.84934 0.37182 0.0
C2456 C 0.41187 0.54115 0.79649 0.0
C2457 C 0.3936 0.54641 0.79485 0.0
C2458 C 0.42167 0.5402 0.81488 0.0
C2459 C 0.42618 0.56124 0.86524 0.0
H2460 H 0.45302 0.51802 0.87675 0.0
C2461 C 0.46531 0.55448 0.94178 0.0
C2462 C 0.48196 0.54604 0.94249 0.0
C2463 C 0.45442 0.55514 0.92386 0.0
C2464 C 0.44587 0.53036 0.87368 0.0
H2465 H 0.37105 0.55441 0.81108 0.0
H2466 H 0.38839 0.55298 0.84344 0.0
H2467 H 0.43337 0.51684 0.84552 0.0
H2468 H 0.50094 0.53265 0.92515 0.0
H2469 H 0.48237 0.53441 0.89378 0.0
H2470 H 0.43902 0.57504 0.89315 0.0
C2471 C 0.39505 0.54958 0.83042 0.0
C2472 C 0.4345 0.52959 0.85585 0.0
C2473 C 0.3851 0.55025 0.81195 0.0
C2474 C 0.48807 0.53912 0.92497 0.0
C2475 C 0.47731 0.53996 0.90705 0.0
C2476 C 0.43771 0.56212 0.88303 0.0
C2477 C 0.4135 0.54473 0.83202 0.0
C2478 C 0.42462 0.54505 0.85142 0.0
C2479 C 0.4601 0.54752 0.90631 0.0
C2480 C 0.44779 0.54673 0.88742 0.0
H2481 H 0.41877 0.53809 0.78355 0.0
H2482 H 0.43593 0.53656 0.8157 0.0
H2483 H 0.4189 0.57348 0.86206 0.0
H2484 H 0.46028 0.55985 0.95513 0.0
H2485 H 0.44119 0.56093 0.92389 0.0
C2486 C 0.8093 0.18922 0.07495 0.0
C2487 C 0.7931 0.18818 0.06128 0.0
C2488 C 0.80889 0.19631 0.09458 0.0
C2489 C 0.78424 0.23017 0.12159 0.0
H2490 H 0.80047 0.20735 0.16921 0.0
C2491 C 0.763 0.25653 0.19588 0.0
C2492 C 0.77613 0.25788 0.21274 0.0
C2493 C 0.76671 0.24777 0.17808 0.0
C2494 C 0.79613 0.21408 0.15605 0.0
H2495 H 0.76345 0.19208 0.05768 0.0
H2496 H 0.76269 0.20404 0.09151 0.0
H2497 H 0.80443 0.1916 0.13717 0.0
H2498 H 0.8035 0.25077 0.22399 0.0
H2499 H 0.81013 0.23582 0.19278 0.0
H2500 H 0.776 0.25263 0.14007 0.0
C2501 C 0.77582 0.19993 0.0872 0.0
C2502 C 0.79839 0.20502 0.13772 0.0
C2503 C 0.77624 0.19296 0.06783 0.0
C2504 C 0.79309 0.25014 0.21129 0.0
C2505 C 0.79684 0.24139 0.19342 0.0
C2506 C 0.7821 0.23924 0.13978 0.0
C2507 C 0.79229 0.20243 0.10065 0.0
C2508 C 0.79203 0.21274 0.12029 0.0
C2509 C 0.78372 0.24016 0.17653 0.0
C2510 C 0.78758 0.23111 0.15728 0.0
H2511 H 0.8225 0.18572 0.07024 0.0
H2512 H 0.82178 0.19801 0.10468 0.0
H2513 H 0.77957 0.23674 0.10843 0.0
H2514 H 0.74968 0.26208 0.19641 0.0
H2515 H 0.75605 0.24674 0.16555 0.0
C2516 C 0.10853 0.49945 0.34793 0.0
C2517 C 0.09737 0.49463 0.32974 0.0
C2518 C 0.10001 0.50408 0.36486 0.0
C2519 C 0.05512 0.51913 0.38008 0.0
H2520 H 0.07138 0.50127 0.4304 0.0
C2521 C 0.00869 0.51656 0.44451 0.0
C2522 C 0.01774 0.52336 0.46329 0.0
C2523 C 0.0194 0.51449 0.42871 0.0
C2524 C 0.06681 0.50654 0.41649 0.0
H2525 H 0.06847 0.49047 0.3152 0.0
H2526 H 0.05372 0.49796 0.34441 0.0
H2527 H 0.08842 0.4949 0.40208 0.0
H2528 H 0.04517 0.53208 0.48043 0.0
H2529 H 0.064 0.52875 0.4529 0.0
H2530 H 0.03321 0.53027 0.39434 0.0
C2531 C 0.06908 0.49878 0.34573 0.0
C2532 C 0.07661 0.50294 0.40024 0.0
C2533 C 0.07756 0.49431 0.32891 0.0
C2534 C 0.03778 0.52769 0.46603 0.0
C2535 C 0.04856 0.52538 0.45029 0.0
C2536 C 0.04524 0.52255 0.39623 0.0
C2537 C 0.08014 0.50392 0.36394 0.0
C2538 C 0.07072 0.50892 0.38171 0.0
C2539 C 0.03949 0.5188 0.43141 0.0
C2540 C 0.0508 0.5161 0.41458 0.0
H2541 H 0.12384 0.49985 0.34904 0.0
H2542 H 0.10903 0.50809 0.37857 0.0
H2543 H 0.05042 0.52446 0.36624 0.0
H2544 H 0.99326 0.51281 0.44202 0.0
H2545 H 0.01196 0.5091 0.41443 0.0
C2546 C 0.74162 0.85768 0.57658 0.0
C2547 C 0.73819 0.87681 0.57352 0.0
C2548 C 0.73493 0.84802 0.59231 0.0
C2549 C 0.72138 0.85509 0.64129 0.0
H2550 H 0.70303 0.79888 0.63193 0.0
C2551 C 0.71406 0.80392 0.70434 0.0
C2552 C 0.72661 0.79031 0.70265 0.0
C2553 C 0.70884 0.81408 0.68824 0.0
C2554 C 0.70781 0.81461 0.63473 0.0
H2555 H 0.72549 0.90103 0.58503 0.0
H2556 H 0.71387 0.88395 0.61301 0.0
H2557 H 0.70669 0.81908 0.60418 0.0
H2558 H 0.74234 0.77546 0.68269 0.0
H2559 H 0.73273 0.79268 0.65442 0.0
H2560 H 0.72331 0.85034 0.6719 0.0
C2561 C 0.72166 0.87654 0.60294 0.0
C2562 C 0.71 0.82615 0.61891 0.0
C2563 C 0.72837 0.88631 0.58702 0.0
C2564 C 0.73267 0.7859 0.68434 0.0
C2565 C 0.7271 0.79569 0.66818 0.0
C2566 C 0.71902 0.84353 0.65717 0.0
C2567 C 0.7246 0.85714 0.60546 0.0
C2568 C 0.71777 0.84629 0.62203 0.0
C2569 C 0.71567 0.81032 0.67015 0.0
C2570 C 0.71311 0.82305 0.65395 0.0
H2571 H 0.74937 0.84998 0.56669 0.0
H2572 H 0.73799 0.83333 0.59422 0.0
H2573 H 0.7274 0.87056 0.64411 0.0
H2574 H 0.70929 0.80768 0.71837 0.0
H2575 H 0.70004 0.82534 0.69007 0.0
C2576 C 0.66167 0.41858 0.5303 0.0
C2577 C 0.68089 0.42749 0.53074 0.0
C2578 C 0.64718 0.43005 0.53147 0.0
C2579 C 0.63921 0.48209 0.54307 0.0
H2580 H 0.5894 0.46258 0.51471 0.0
C2581 C 0.58204 0.53155 0.52501 0.0
C2582 C 0.56319 0.52435 0.52855 0.0
C2583 C 0.59621 0.51964 0.52669 0.0
C2584 C 0.60319 0.46816 0.52285 0.0
H2585 H 0.69988 0.45554 0.53274 0.0
H2586 H 0.67481 0.47547 0.53402 0.0
H2587 H 0.6143 0.44219 0.51476 0.0
H2588 H 0.5445 0.4988 0.53619 0.0
H2589 H 0.56906 0.47781 0.53889 0.0
H2590 H 0.62814 0.50843 0.55039 0.0
C2591 C 0.67078 0.45963 0.53341 0.0
C2592 C 0.61753 0.45641 0.52299 0.0
C2593 C 0.68526 0.44816 0.53257 0.0
C2594 C 0.55887 0.50491 0.53379 0.0
C2595 C 0.57294 0.49282 0.53509 0.0
C2596 C 0.62497 0.49395 0.54262 0.0
C2597 C 0.65143 0.45081 0.53279 0.0
C2598 C 0.63585 0.46318 0.53307 0.0
C2599 C 0.5918 0.50004 0.53155 0.0
C2600 C 0.60678 0.48716 0.53249 0.0
H2601 H 0.65778 0.40269 0.52897 0.0
H2602 H 0.63263 0.42254 0.53136 0.0
H2603 H 0.65285 0.48781 0.55141 0.0
H2604 H 0.58584 0.54642 0.52078 0.0
H2605 H 0.61054 0.52562 0.52368 0.0
C2606 C 0.21363 0.11937 0.47716 0.0
C2607 C 0.21676 0.13984 0.47578 0.0
C2608 C 0.19528 0.10919 0.47849 0.0
C2609 C 0.1438 0.11384 0.47168 0.0
H2610 H 0.13914 0.0718 0.50671 0.0
C2611 C 0.08317 0.06432 0.51419 0.0
C2612 C 0.06796 0.06023 0.49915 0.0
C2613 C 0.10109 0.07383 0.51046 0.0
C2614 C 0.14014 0.08362 0.49701 0.0
H2615 H 0.20303 0.16565 0.47454 0.0
H2616 H 0.17116 0.14802 0.47748 0.0
H2617 H 0.17059 0.08901 0.50196 0.0
H2618 H 0.05961 0.06292 0.46836 0.0
H2619 H 0.0911 0.07903 0.46167 0.0
H2620 H 0.11325 0.10903 0.4675 0.0
C2621 C 0.18277 0.13971 0.47705 0.0
C2622 C 0.15824 0.09331 0.49402 0.0
C2623 C 0.20109 0.14986 0.47548 0.0
C2624 C 0.07104 0.06592 0.48028 0.0
C2625 C 0.08907 0.07526 0.47648 0.0
C2626 C 0.12565 0.10427 0.47484 0.0
C2627 C 0.17965 0.11926 0.47873 0.0
C2628 C 0.16032 0.10859 0.48137 0.0
C2629 C 0.10434 0.07928 0.49153 0.0
C2630 C 0.1236 0.08912 0.48763 0.0
H2631 H 0.22537 0.11118 0.47723 0.0
H2632 H 0.19338 0.09339 0.47933 0.0
H2633 H 0.14484 0.12535 0.46163 0.0
H2634 H 0.08122 0.06036 0.52897 0.0
H2635 H 0.11235 0.07709 0.52253 0.0
C2636 C 0.17283 0.93762 0.77788 0.0
C2637 C 0.18127 0.95758 0.77985 0.0
C2638 C 0.18371 0.92298 0.77415 0.0
C2639 C 0.23269 0.9127 0.78004 0.0
H2640 H 0.21153 0.86767 0.74349 0.0
C2641 C 0.27358 0.8478 0.76619 0.0
C2642 C 0.26257 0.82889 0.76488 0.0
C2643 C 0.26476 0.86453 0.76597 0.0
C2644 C 0.21761 0.88007 0.75385 0.0
H2645 H 0.20777 0.97786 0.77934 0.0
H2646 H 0.22689 0.95216 0.77293 0.0
H2647 H 0.19407 0.89504 0.74688 0.0
H2648 H 0.23386 0.81292 0.76406 0.0
H2649 H 0.21839 0.8416 0.76321 0.0
H2650 H 0.25599 0.89748 0.78742 0.0
C2651 C 0.21182 0.9479 0.77432 0.0
C2652 C 0.20761 0.89577 0.75576 0.0
C2653 C 0.20086 0.9626 0.7779 0.0
C2654 C 0.24265 0.82705 0.76375 0.0
C2655 C 0.2338 0.84366 0.76355 0.0
C2656 C 0.24268 0.89692 0.77819 0.0
C2657 C 0.20334 0.92792 0.77241 0.0
C2658 C 0.21486 0.91211 0.76913 0.0
C2659 C 0.24471 0.86264 0.76467 0.0
C2660 C 0.23509 0.88025 0.76532 0.0
H2661 H 0.15778 0.93324 0.7793 0.0
H2662 H 0.1768 0.90772 0.77304 0.0
H2663 H 0.23858 0.925 0.79058 0.0
H2664 H 0.28903 0.84965 0.76738 0.0
H2665 H 0.27362 0.87892 0.76681 0.0
C2666 C 0.29801 0.89946 0.01933 0.0
C2667 C 0.28128 0.9077 0.01614 0.0
C2668 C 0.31602 0.91122 0.02028 0.0
C2669 C 0.34152 0.95576 0.00318 0.0
H2670 H 0.37975 0.95314 0.04663 0.0
C2671 C 0.41665 0.00393 0.00922 0.0
C2672 C 0.43221 0.99568 0.01702 0.0
C2673 C 0.39789 0.99439 0.01006 0.0
C2674 C 0.3694 0.95387 0.03421 0.0
H2675 H 0.27041 0.93478 0.01124 0.0
H2676 H 0.30202 0.95527 0.01238 0.0
H2677 H 0.34782 0.934 0.04596 0.0
H2678 H 0.44044 0.971 0.03172 0.0
H2679 H 0.40795 0.95394 0.03249 0.0
H2680 H 0.36316 0.97489 0.99089 0.0
C2681 C 0.30107 0.9397 0.01435 0.0
C2682 C 0.35104 0.94297 0.03393 0.0
C2683 C 0.28301 0.92799 0.01379 0.0
C2684 C 0.4287 0.97777 0.02571 0.0
C2685 C 0.40999 0.96807 0.02627 0.0
C2686 C 0.36 0.96641 0.00326 0.0
C2687 C 0.31775 0.93144 0.0177 0.0
C2688 C 0.33695 0.94372 0.01837 0.0
C2689 C 0.39426 0.9762 0.01845 0.0
C2690 C 0.37428 0.96553 0.01872 0.0
H2691 H 0.2972 0.8839 0.02128 0.0
H2692 H 0.32863 0.90444 0.02275 0.0
H2693 H 0.33096 0.95646 0.99091 0.0
H2694 H 0.41898 0.0178 0.00252 0.0
H2695 H 0.38625 0.00137 0.00419 0.0
C2696 C 0.84466 0.60534 0.73963 0.0
C2697 C 0.86462 0.61086 0.74311 0.0
C2698 C 0.83272 0.61957 0.73915 0.0
C2699 C 0.83255 0.67217 0.75529 0.0
H2700 H 0.78384 0.66312 0.72292 0.0
C2701 C 0.78413 0.73168 0.74805 0.0
C2702 C 0.76465 0.72573 0.74979 0.0
C2703 C 0.79633 0.71785 0.74636 0.0
C2704 C 0.79735 0.66579 0.73214 0.0
H2705 H 0.88769 0.63579 0.74807 0.0
H2706 H 0.86696 0.66067 0.74653 0.0
H2707 H 0.80539 0.63919 0.72063 0.0
H2708 H 0.7427 0.7005 0.75153 0.0
H2709 H 0.76395 0.67612 0.74816 0.0
H2710 H 0.82454 0.69898 0.7665 0.0
C2711 C 0.86043 0.64529 0.74474 0.0
C2712 C 0.80973 0.65203 0.73089 0.0
C2713 C 0.87238 0.63102 0.74542 0.0
C2714 C 0.75762 0.70552 0.74992 0.0
C2715 C 0.76976 0.69159 0.74793 0.0
C2716 C 0.82026 0.68602 0.75635 0.0
C2717 C 0.84038 0.63979 0.74193 0.0
C2718 C 0.82749 0.65492 0.74256 0.0
C2719 C 0.78932 0.69762 0.74626 0.0
C2720 C 0.80246 0.68295 0.74488 0.0
H2721 H 0.83816 0.58995 0.73793 0.0
H2722 H 0.81742 0.61461 0.73726 0.0
H2723 H 0.84585 0.67482 0.76484 0.0
H2724 H 0.7902 0.74703 0.74886 0.0
H2725 H 0.81131 0.72302 0.74515 0.0
C2726 C 0.83374 0.62714 0.99991 0.0
C2727 C 0.81522 0.62362 0.00566 0.0
C2728 C 0.84721 0.6157 0.00633 0.0
C2729 C 0.8625 0.58583 0.04402 0.0
H2730 H 0.88322 0.55826 0.00238 0.0
C2731 C 0.93355 0.55469 0.04991 0.0
C2732 C 0.93355 0.53669 0.03922 0.0
C2733 C 0.91688 0.56295 0.04954 0.0
C2734 C 0.87739 0.56567 0.01417 0.0
H2735 H 0.79649 0.60605 0.02335 0.0
H2736 H 0.82039 0.58634 0.03503 0.0
H2737 H 0.85912 0.57869 0.99414 0.0
H2738 H 0.91594 0.51234 0.02121 0.0
H2739 H 0.88686 0.5269 0.02037 0.0
H2740 H 0.88147 0.57339 0.06404 0.0
C2741 C 0.82428 0.5978 0.02536 0.0
C2742 C 0.86377 0.57747 0.00945 0.0
C2743 C 0.81065 0.60899 0.01861 0.0
C2744 C 0.91631 0.52627 0.02953 0.0
C2745 C 0.89972 0.53461 0.02899 0.0
C2746 C 0.87647 0.57428 0.04877 0.0
C2747 C 0.84252 0.60082 0.01893 0.0
C2748 C 0.85634 0.58777 0.0243 0.0
C2749 C 0.90007 0.55338 0.03831 0.0
C2750 C 0.88407 0.56416 0.03385 0.0
H2751 H 0.83764 0.6383 0.98993 0.0
H2752 H 0.86126 0.61831 0.00128 0.0
H2753 H 0.85691 0.5937 0.05568 0.0
H2754 H 0.94669 0.56301 0.05749 0.0
H2755 H 0.91754 0.57747 0.05677 0.0
C2756 C 0.14894 0.07716 0.79596 0.0
C2757 C 0.15866 0.06099 0.797 0.0
C2758 C 0.1589 0.09615 0.79471 0.0
C2759 C 0.20642 0.12749 0.80344 0.0
H2760 H 0.18581 0.15752 0.76308 0.0
C2761 C 0.23524 0.21015 0.79471 0.0
C2762 C 0.23741 0.21531 0.77545 0.0
C2763 C 0.22641 0.1912 0.79818 0.0
C2764 C 0.19179 0.1493 0.77437 0.0
H2765 H 0.18668 0.05239 0.79828 0.0
H2766 H 0.20406 0.08563 0.79629 0.0
H2767 H 0.16887 0.12489 0.76812 0.0
H2768 H 0.23215 0.20436 0.74476 0.0
H2769 H 0.2167 0.17153 0.75084 0.0
H2770 H 0.22939 0.152 0.80963 0.0
C2771 C 0.18869 0.08352 0.7964 0.0
C2772 C 0.18199 0.13069 0.77739 0.0
C2773 C 0.1787 0.06446 0.79746 0.0
C2774 C 0.23077 0.20097 0.7598 0.0
C2775 C 0.22179 0.18215 0.76325 0.0
C2776 C 0.21613 0.14626 0.80058 0.0
C2777 C 0.17886 0.09952 0.79465 0.0
C2778 C 0.18921 0.11952 0.7919 0.0
C2779 C 0.21935 0.17709 0.78245 0.0
C2780 C 0.20898 0.15731 0.7859 0.0
H2781 H 0.13353 0.07513 0.7956 0.0
H2782 H 0.15094 0.10822 0.79363 0.0
H2783 H 0.21229 0.11927 0.8148 0.0
H2784 H 0.24019 0.22078 0.80713 0.0
H2785 H 0.22465 0.18776 0.81313 0.0
C2786 C 0.38851 0.99294 0.25731 0.0
C2787 C 0.38202 0.0109 0.26067 0.0
C2788 C 0.37611 0.97505 0.25736 0.0
C2789 C 0.33504 0.9512 0.27841 0.0
H2790 H 0.32787 0.91316 0.2333 0.0
C2791 C 0.28441 0.87619 0.27693 0.0
C2792 C 0.2897 0.85989 0.26698 0.0
C2793 C 0.29436 0.89522 0.27549 0.0
C2794 C 0.3299 0.92341 0.2462 0.0
H2795 H 0.35751 0.02419 0.26698 0.0
H2796 H 0.33598 0.99277 0.26771 0.0
H2797 H 0.34818 0.94497 0.23239 0.0
H2798 H 0.30961 0.85055 0.248 0.0
H2799 H 0.32749 0.88329 0.24623 0.0
H2800 H 0.31767 0.92946 0.29272 0.0
C2801 C 0.3506 0.99266 0.26475 0.0
C2802 C 0.34143 0.94171 0.24555 0.0
C2803 C 0.36289 0.01059 0.26423 0.0
C2804 C 0.30511 0.86289 0.25567 0.0
C2805 C 0.31527 0.88178 0.25454 0.0
C2806 C 0.32381 0.9327 0.27925 0.0
C2807 C 0.3571 0.97475 0.26122 0.0
C2808 C 0.34419 0.95572 0.26167 0.0
C2809 C 0.31004 0.89829 0.26435 0.0
C2810 C 0.32119 0.91844 0.2632 0.0
H2811 H 0.40315 0.9927 0.25447 0.0
H2812 H 0.38145 0.96141 0.25469 0.0
H2813 H 0.33707 0.96175 0.29108 0.0
H2814 H 0.27251 0.87425 0.28569 0.0
H2815 H 0.28963 0.90749 0.28301 0.0
C2816 C 0.49889 0.33807 0.6495 0.0
C2817 C 0.49708 0.3199 0.63849 0.0
C2818 C 0.50087 0.35567 0.64014 0.0
C2819 C 0.48908 0.37456 0.59267 0.0
H2820 H 0.52918 0.41889 0.60981 0.0
C2821 C 0.50331 0.44091 0.54595 0.0
C2822 C 0.5085 0.45965 0.55588 0.0
C2823 C 0.50244 0.42404 0.55637 0.0
C2824 C 0.51771 0.40678 0.60497 0.0
H2825 H 0.49623 0.30596 0.60913 0.0
H2826 H 0.49943 0.33646 0.59297 0.0
H2827 H 0.5263 0.38953 0.62816 0.0
H2828 H 0.51687 0.47559 0.58437 0.0
H2829 H 0.51477 0.44633 0.60259 0.0
H2830 H 0.48014 0.39171 0.56977 0.0
C2831 C 0.49927 0.33716 0.60875 0.0
C2832 C 0.51612 0.38996 0.61549 0.0
C2833 C 0.49755 0.31969 0.61807 0.0
C2834 C 0.51291 0.46128 0.57634 0.0
C2835 C 0.51183 0.44447 0.58677 0.0
C2836 C 0.49051 0.39141 0.5823 0.0
C2837 C 0.50078 0.35531 0.61963 0.0
C2838 C 0.50191 0.37363 0.60931 0.0
C2839 C 0.50652 0.4256 0.57695 0.0
C2840 C 0.50495 0.4077 0.58818 0.0
H2841 H 0.49859 0.33866 0.66525 0.0
H2842 H 0.50199 0.36952 0.64884 0.0
H2843 H 0.47783 0.36224 0.58773 0.0
H2844 H 0.49995 0.43928 0.53016 0.0
H2845 H 0.49865 0.40977 0.54824 0.0
C2846 C 0.4671 0.79233 0.33315 0.0
C2847 C 0.468 0.78496 0.35179 0.0
C2848 C 0.4496 0.79 0.32124 0.0
C2849 C 0.4022 0.75982 0.31114 0.0
H2850 H 0.3834 0.80753 0.29809 0.0
C2851 C 0.32226 0.75925 0.28642 0.0
C2852 C 0.31685 0.77402 0.27498 0.0
C2853 C 0.34149 0.75953 0.29314 0.0
C2854 C 0.38845 0.79395 0.30109 0.0
H2855 H 0.45151 0.76867 0.37219 0.0
H2856 H 0.42125 0.76396 0.35112 0.0
H2857 H 0.4158 0.80957 0.31385 0.0
H2858 H 0.32746 0.80007 0.26073 0.0
H2859 H 0.36102 0.79998 0.27138 0.0
H2860 H 0.3752 0.74403 0.29813 0.0
C2861 C 0.43395 0.77179 0.34585 0.0
C2862 C 0.40708 0.7952 0.31026 0.0
C2863 C 0.45126 0.77456 0.35792 0.0
C2864 C 0.33118 0.78855 0.26964 0.0
C2865 C 0.35046 0.78859 0.27597 0.0
C2866 C 0.38372 0.7585 0.30157 0.0
C2867 C 0.43285 0.77976 0.32755 0.0
C2868 C 0.414 0.77819 0.31572 0.0
C2869 C 0.35593 0.77438 0.28827 0.0
C2870 C 0.37634 0.77558 0.29678 0.0
H2871 H 0.47975 0.80051 0.32811 0.0
H2872 H 0.44911 0.79629 0.30718 0.0
H2873 H 0.40725 0.74645 0.3151 0.0
H2874 H 0.31154 0.748 0.29103 0.0
H2875 H 0.34485 0.7485 0.30282 0.0
C2876 C 0.99981 0.70288 0.13495 0.0
C2877 C 0.98784 0.71496 0.12635 0.0
C2878 C 0.99937 0.6837 0.12672 0.0
C2879 C 0.98664 0.65594 0.07812 0.0
H2880 H 1.00156 0.61265 0.10584 0.0
C2881 C 0.99354 0.58233 0.03727 0.0
C2882 C 0.01037 0.57497 0.04265 0.0
C2883 C 0.98849 0.59773 0.04874 0.0
C2884 C 0.99741 0.62464 0.09792 0.0
H2885 H 0.9652 0.71634 0.10343 0.0
H2886 H 0.96352 0.68257 0.08976 0.0
H2887 H 0.99558 0.64199 0.12441 0.0
H2888 H 0.03502 0.57768 0.06429 0.0
H2889 H 0.02627 0.6047 0.08433 0.0
H2890 H 0.98858 0.63869 0.05168 0.0
C2891 C 0.97374 0.68793 0.10239 0.0
C2892 C 0.994 0.64148 0.10855 0.0
C2893 C 0.97444 0.70717 0.11039 0.0
C2894 C 0.02196 0.58311 0.05982 0.0
C2895 C 0.01687 0.59845 0.07137 0.0
C2896 C 0.98986 0.63908 0.06754 0.0
C2897 C 0.98683 0.67626 0.10982 0.0
C2898 C 0.98878 0.65748 0.09878 0.0
C2899 C 1.00017 0.60607 0.06585 0.0
C2900 C 0.99551 0.62334 0.07729 0.0
H2901 H 0.01053 0.70878 0.14702 0.0
H2902 H 0.00977 0.67529 0.13281 0.0
H2903 H 0.98314 0.66806 0.06999 0.0
H2904 H 0.98439 0.57637 0.02404 0.0
H2905 H 0.97547 0.60317 0.04417 0.0
C2906 C 0.07392 0.2797 0.82971 0.0
C2907 C 0.07514 0.29088 0.84772 0.0
C2908 C 0.09045 0.27774 0.82077 0.0
C2909 C 0.14055 0.30149 0.81906 0.0
H2910 H 0.14666 0.25039 0.7964 0.0
C2911 C 0.21033 0.28872 0.78635 0.0
C2912 C 0.20831 0.27556 0.76957 0.0
C2913 C 0.19458 0.29054 0.79671 0.0
C2914 C 0.14514 0.26485 0.80239 0.0
H2915 H 0.09474 0.30887 0.87039 0.0
H2916 H 0.12348 0.30558 0.85474 0.0
H2917 H 0.11816 0.25374 0.81229 0.0
H2918 H 0.18816 0.25426 0.75029 0.0
H2919 H 0.16077 0.25781 0.76779 0.0
H2920 H 0.16731 0.31273 0.80883 0.0
C2921 C 0.10976 0.29834 0.84749 0.0
C2922 C 0.12875 0.26674 0.81156 0.0
C2923 C 0.09327 0.30013 0.85652 0.0
C2924 C 0.19023 0.26444 0.76326 0.0
C2925 C 0.17451 0.26636 0.77345 0.0
C2926 C 0.15688 0.29965 0.80971 0.0
C2927 C 0.10859 0.28709 0.82952 0.0
C2928 C 0.12619 0.28509 0.81995 0.0
C2929 C 0.1764 0.27937 0.79039 0.0
C2930 C 0.15937 0.28131 0.80111 0.0
H2931 H 0.0602 0.2724 0.82251 0.0
H2932 H 0.08901 0.26911 0.80683 0.0
H2933 H 0.13896 0.31589 0.8252 0.0
H2934 H 0.22404 0.29767 0.79141 0.0
H2935 H 0.19672 0.3006 0.80976 0.0
C2936 C 0.51102 0.72289 0.97101 0.0
C2937 C 0.51721 0.72715 0.95269 0.0
C2938 C 0.51122 0.70438 0.97783 0.0
C2939 C 0.52768 0.67055 0.99404 0.0
H2940 H 0.50606 0.62132 0.96392 0.0
C2941 C 0.53574 0.59578 0.02296 0.0
C2942 C 0.51902 0.5817 0.02106 0.0
C2943 C 0.53624 0.61295 0.01322 0.0
C2944 C 0.51213 0.63499 0.97245 0.0
H2945 H 0.52766 0.71493 0.92676 0.0
H2946 H 0.52795 0.68231 0.93884 0.0
H2947 H 0.50502 0.65255 0.949 0.0
H2948 H 0.48961 0.57451 0.00819 0.0
H2949 H 0.49041 0.60462 0.99104 0.0
H2950 H 0.53446 0.65323 0.0176 0.0
C2951 C 0.523 0.69349 0.94782 0.0
C2952 C 0.51168 0.65277 0.96388 0.0
C2953 C 0.52286 0.71214 0.94097 0.0
C2954 C 0.50275 0.58506 0.00949 0.0
C2955 C 0.50324 0.60221 0.99969 0.0
C2956 C 0.52824 0.65284 0.00253 0.0
C2957 C 0.51758 0.68966 0.96651 0.0
C2958 C 0.51917 0.67069 0.97475 0.0
C2959 C 0.51999 0.61632 0.00149 0.0
C2960 C 0.52027 0.63492 0.99192 0.0
H2961 H 0.50632 0.73397 0.98035 0.0
H2962 H 0.50661 0.70164 0.99212 0.0
H2963 H 0.53377 0.68419 0.00263 0.0
H2964 H 0.54852 0.59337 0.03168 0.0
H2965 H 0.54938 0.62352 0.01473 0.0
C2966 C 0.07647 0.80459 0.62398 0.0
C2967 C 0.05896 0.80661 0.63085 0.0
C2968 C 0.09246 0.80393 0.63719 0.0
C2969 C 0.10582 0.79461 0.68894 0.0
H2970 H 0.15666 0.81422 0.67581 0.0
C2971 C 0.19078 0.80499 0.72224 0.0
C2972 C 0.19045 0.78708 0.73087 0.0
C2973 C 0.17429 0.80929 0.71205 0.0
C2974 C 0.14259 0.80897 0.67997 0.0
H2975 H 0.04455 0.81044 0.65685 0.0
H2976 H 0.07261 0.81018 0.67991 0.0
H2977 H 0.12914 0.81929 0.65443 0.0
H2978 H 0.17281 0.7598 0.73625 0.0
H2979 H 0.1441 0.76674 0.71755 0.0
H2980 H 0.11929 0.78502 0.71492 0.0
C2981 C 0.07391 0.80833 0.66436 0.0
C2982 C 0.12676 0.81157 0.66745 0.0
C2983 C 0.05785 0.8086 0.65115 0.0
C2984 C 0.1733 0.77373 0.7297 0.0
C2985 C 0.15686 0.77781 0.71909 0.0
C2986 C 0.12166 0.79233 0.70165 0.0
C2987 C 0.09136 0.80568 0.65756 0.0
C2988 C 0.10817 0.80413 0.67159 0.0
C2989 C 0.15723 0.79554 0.70987 0.0
C2990 C 0.14027 0.7992 0.69718 0.0
H2991 H 0.07768 0.80288 0.60839 0.0
H2992 H 0.10553 0.8015 0.63136 0.0
H2993 H 0.09175 0.78847 0.69254 0.0
H2994 H 0.20385 0.81564 0.72327 0.0
H2995 H 0.17501 0.82332 0.70568 0.0
C2996 C 0.04991 0.33625 0.45335 0.0
C2997 C 0.04597 0.33198 0.43297 0.0
C2998 C 0.05055 0.35531 0.46164 0.0
C2999 C 0.02928 0.3985 0.45306 0.0
H3000 H 0.06565 0.42314 0.49674 0.0
C3001 C 0.01306 0.46099 0.50391 0.0
C3002 C 0.02713 0.47798 0.5069 0.0
C3003 C 0.01718 0.44351 0.49541 0.0
C3004 C 0.05547 0.41645 0.48449 0.0
H3005 H 0.04035 0.34432 0.40517 0.0
H3006 H 0.04123 0.3778 0.41977 0.0
H3007 H 0.07084 0.39274 0.47932 0.0
H3008 H 0.05691 0.48956 0.50444 0.0
H3009 H 0.0641 0.45886 0.48983 0.0
H3010 H 0.01372 0.42197 0.4584 0.0
C3011 C 0.04384 0.36633 0.42927 0.0
C3012 C 0.0584 0.39909 0.47459 0.0
C3013 C 0.04342 0.34725 0.42092 0.0
C3014 C 0.04572 0.47675 0.50231 0.0
C3015 C 0.04987 0.45919 0.49395 0.0
C3016 C 0.02625 0.41572 0.46308 0.0
C3017 C 0.04708 0.37042 0.44974 0.0
C3018 C 0.04522 0.38986 0.45891 0.0
C3019 C 0.03548 0.44261 0.4899 0.0
C3020 C 0.03917 0.4247 0.47904 0.0
H3021 H 0.05202 0.32475 0.46297 0.0
H3022 H 0.0529 0.358 0.47746 0.0
H3023 H 0.01878 0.39159 0.44118 0.0
H3024 H 0.9986 0.46136 0.50729 0.0
H3025 H 0.00592 0.43079 0.49274 0.0
C3026 C 0.4499 0.26885 0.1594 0.0
C3027 C 0.44964 0.27925 0.14244 0.0
C3028 C 0.43459 0.26755 0.17075 0.0
C3029 C 0.40176 0.29661 0.18676 0.0
H3030 H 0.36872 0.24925 0.19804 0.0
C3031 C 0.33264 0.2999 0.22191 0.0
C3032 C 0.32586 0.28496 0.23362 0.0
C3033 C 0.34885 0.29883 0.21236 0.0
C3034 C 0.37806 0.2626 0.19542 0.0
H3035 H 0.43297 0.29573 0.12358 0.0
H3036 H 0.40644 0.29387 0.14379 0.0
H3037 H 0.39443 0.24676 0.17742 0.0
H3038 H 0.33097 0.25765 0.24539 0.0
H3039 H 0.3599 0.25618 0.22944 0.0
H3040 H 0.38608 0.31256 0.20507 0.0
C3041 C 0.4184 0.2866 0.1481 0.0
C3042 C 0.39263 0.26112 0.18347 0.0
C3043 C 0.4335 0.28756 0.13654 0.0
C3044 C 0.33597 0.26934 0.23636 0.0
C3045 C 0.3524 0.26842 0.22706 0.0
C3046 C 0.3875 0.29809 0.199 0.0
C3047 C 0.41905 0.27695 0.16547 0.0
C3048 C 0.40428 0.27816 0.17879 0.0
C3049 C 0.35881 0.28294 0.2146 0.0
C3050 C 0.37519 0.28115 0.20317 0.0
H3051 H 0.46219 0.26229 0.16423 0.0
H3052 H 0.4353 0.26007 0.18415 0.0
H3053 H 0.41087 0.3099 0.18352 0.0
H3054 H 0.32497 0.31201 0.21945 0.0
H3055 H 0.35309 0.31011 0.20263 0.0
C3056 C 0.63514 0.49572 0.36295 0.0
C3057 C 0.62736 0.50082 0.34477 0.0
C3058 C 0.62435 0.49486 0.379 0.0
C3059 C 0.57371 0.49078 0.38987 0.0
H3060 H 0.59575 0.50857 0.44302 0.0
C3061 C 0.53017 0.51382 0.45089 0.0
C3062 C 0.53407 0.50752 0.46968 0.0
C3063 C 0.54127 0.50982 0.43595 0.0
C3064 C 0.58946 0.50328 0.42827 0.0
H3065 H 0.60266 0.51003 0.32945 0.0
H3066 H 0.58432 0.50931 0.35732 0.0
H3067 H 0.61647 0.50877 0.41664 0.0
H3068 H 0.55248 0.49188 0.48755 0.0
H3069 H 0.57214 0.48517 0.4614 0.0
H3070 H 0.54664 0.48611 0.40139 0.0
C3071 C 0.59837 0.50519 0.35916 0.0
C3072 C 0.60132 0.50338 0.41316 0.0
C3073 C 0.609 0.50582 0.34318 0.0
C3074 C 0.54897 0.49666 0.47311 0.0
C3075 C 0.56034 0.493 0.45824 0.0
C3076 C 0.56189 0.49091 0.4049 0.0
C3077 C 0.60566 0.49924 0.37717 0.0
C3078 C 0.59352 0.49754 0.39368 0.0
C3079 C 0.55674 0.49978 0.4396 0.0
C3080 C 0.56958 0.49749 0.42418 0.0
H3081 H 0.64925 0.49171 0.36455 0.0
H3082 H 0.63042 0.49019 0.39264 0.0
H3083 H 0.56724 0.48561 0.37518 0.0
H3084 H 0.51885 0.52231 0.44787 0.0
H3085 H 0.53827 0.51536 0.42176 0.0
C3086 C 0.23532 0.87432 0.08617 0.0
C3087 C 0.22276 0.86306 0.07113 0.0
C3088 C 0.23862 0.86685 0.10454 0.0
C3089 C 0.23436 0.81824 0.12645 0.0
H3090 H 0.24966 0.85029 0.17539 0.0
C3091 C 0.26127 0.7837 0.19622 0.0
C3092 C 0.25597 0.79056 0.21419 0.0
C3093 C 0.2582 0.7937 0.17932 0.0
C3094 C 0.24524 0.84103 0.16192 0.0
H3095 H 0.20285 0.83588 0.06385 0.0
H3096 H 0.20753 0.82343 0.09604 0.0
H3097 H 0.24035 0.86572 0.14584 0.0
H3098 H 0.24378 0.81363 0.22865 0.0
H3099 H 0.23783 0.83059 0.19929 0.0
H3100 H 0.23841 0.79346 0.14254 0.0
C3101 C 0.21555 0.83762 0.09362 0.0
C3102 C 0.24011 0.84997 0.14482 0.0
C3103 C 0.21257 0.84489 0.07522 0.0
C3104 C 0.24803 0.80792 0.21502 0.0
C3105 C 0.24474 0.81777 0.19812 0.0
C3106 C 0.23926 0.8093 0.14352 0.0
C3107 C 0.22925 0.84805 0.10831 0.0
C3108 C 0.23451 0.8387 0.12681 0.0
C3109 C 0.24953 0.81069 0.17991 0.0
C3110 C 0.2448 0.82051 0.16156 0.0
H3111 H 0.24364 0.88821 0.08326 0.0
H3112 H 0.24934 0.87536 0.11534 0.0
H3113 H 0.23062 0.80899 0.11288 0.0
H3114 H 0.26754 0.77045 0.19515 0.0
H3115 H 0.26254 0.78798 0.16575 0.0
C3116 C 0.90682 0.5713 0.82198 0.0
C3117 C 0.9173 0.57123 0.80569 0.0
C3118 C 0.9153 0.56865 0.84069 0.0
C3119 C 0.95549 0.5486 0.8658 0.0
H3120 H 0.94545 0.57979 0.9113 0.0
C3121 C 0.99476 0.54465 0.94302 0.0
C3122 C 0.98383 0.54477 0.95899 0.0
C3123 C 0.98722 0.54867 0.92438 0.0
C3124 C 0.94826 0.57079 0.89879 0.0
H3125 H 0.94496 0.56842 0.7963 0.0
H3126 H 0.95974 0.56387 0.82886 0.0
H3127 H 0.93102 0.58503 0.87881 0.0
H3128 H 0.95635 0.54938 0.96775 0.0
H3129 H 0.94322 0.55611 0.93538 0.0
H3130 H 0.97257 0.53421 0.88576 0.0
C3131 C 0.94491 0.56577 0.8272 0.0
C3132 C 0.93997 0.57381 0.88014 0.0
C3133 C 0.93646 0.5685 0.80853 0.0
C3134 C 0.96527 0.54924 0.95587 0.0
C3135 C 0.95773 0.55322 0.93726 0.0
C3136 C 0.96374 0.54554 0.88446 0.0
C3137 C 0.93444 0.56579 0.84353 0.0
C3138 C 0.94343 0.56272 0.8634 0.0
C3139 C 0.96854 0.55289 0.92121 0.0
C3140 C 0.96019 0.55655 0.90124 0.0
H3141 H 0.89202 0.57332 0.82029 0.0
H3142 H 0.90674 0.56851 0.85288 0.0
H3143 H 0.95826 0.53959 0.85328 0.0
H3144 H 0.00911 0.54128 0.94484 0.0
H3145 H 0.99607 0.54854 0.91245 0.0
C3146 C 0.28693 0.21285 0.53516 0.0
C3147 C 0.28592 0.19237 0.53182 0.0
C3148 C 0.28788 0.2215 0.55414 0.0
C3149 C 0.29689 0.21484 0.60652 0.0
H3150 H 0.2555 0.24442 0.61145 0.0
C3151 C 0.26997 0.23175 0.6807 0.0
C3152 C 0.26349 0.24966 0.68411 0.0
C3153 C 0.27491 0.22631 0.66228 0.0
C3154 C 0.26739 0.23658 0.61036 0.0
H3155 H 0.28673 0.16518 0.54593 0.0
H3156 H 0.28839 0.18044 0.57924 0.0
H3157 H 0.26179 0.23245 0.57914 0.0
H3158 H 0.25739 0.27615 0.67132 0.0
H3159 H 0.2665 0.26691 0.6391 0.0
H3160 H 0.30253 0.21899 0.63776 0.0
C3161 C 0.28837 0.18969 0.56705 0.0
C3162 C 0.27095 0.22968 0.59183 0.0
C3163 C 0.28733 0.18096 0.54799 0.0
C3164 C 0.26215 0.26215 0.66891 0.0
C3165 C 0.26734 0.25682 0.6505 0.0
C3166 C 0.29348 0.22197 0.62509 0.0
C3167 C 0.28796 0.20991 0.57018 0.0
C3168 C 0.28554 0.21852 0.58978 0.0
C3169 C 0.27372 0.23879 0.64696 0.0
C3170 C 0.27846 0.23263 0.62723 0.0
H3171 H 0.28621 0.22217 0.52309 0.0
H3172 H 0.28785 0.23718 0.55625 0.0
H3173 H 0.30831 0.20638 0.60525 0.0
H3174 H 0.27112 0.22188 0.69226 0.0
H3175 H 0.27937 0.21215 0.65999 0.0
C3176 C 0.59963 0.47977 0.23559 0.0
C3177 C 0.61743 0.49154 0.24159 0.0
C3178 C 0.59211 0.47777 0.21594 0.0
C3179 C 0.57279 0.49123 0.17987 0.0
H3180 H 0.60109 0.49334 0.13445 0.0
C3181 C 0.54362 0.51894 0.10801 0.0
C3182 C 0.54678 0.50961 0.09021 0.0
C3183 C 0.55228 0.5141 0.12573 0.0
C3184 C 0.59293 0.4925 0.14696 0.0
H3185 H 0.64195 0.50945 0.23175 0.0
H3186 H 0.62855 0.50656 0.1973 0.0
H3187 H 0.61699 0.48796 0.16635 0.0
H3188 H 0.56113 0.48768 0.07684 0.0
H3189 H 0.57615 0.47898 0.10796 0.0
H3190 H 0.54875 0.49564 0.16063 0.0
C3191 C 0.62053 0.4985 0.2077 0.0
C3192 C 0.6021 0.48962 0.16527 0.0
C3193 C 0.62823 0.50019 0.22741 0.0
C3194 C 0.55854 0.49513 0.09041 0.0
C3195 C 0.56721 0.49025 0.10819 0.0
C3196 C 0.56366 0.49402 0.16164 0.0
C3197 C 0.60202 0.48791 0.2019 0.0
C3198 C 0.59218 0.48919 0.182 0.0
C3199 C 0.56423 0.49974 0.12606 0.0
C3200 C 0.57368 0.49505 0.14503 0.0
H3201 H 0.59113 0.47277 0.24627 0.0
H3202 H 0.5781 0.46899 0.21192 0.0
H3203 H 0.56472 0.49133 0.19243 0.0
H3204 H 0.53469 0.53022 0.10823 0.0
H3205 H 0.54991 0.52193 0.13918 0.0
C3206 C 0.22294 0.88363 0.95133 0.0
C3207 C 0.22006 0.87247 0.96754 0.0
C3208 C 0.22606 0.87464 0.93329 0.0
C3209 C 0.22278 0.85031 0.89386 0.0
H3210 H 0.25235 0.80786 0.89474 0.0
C3211 C 0.23044 0.80292 0.82305 0.0
C3212 C 0.24824 0.79708 0.82116 0.0
C3213 C 0.22672 0.81202 0.84077 0.0
C3214 C 0.2442 0.81979 0.89414 0.0
H3215 H 0.2178 0.843 0.97735 0.0
H3216 H 0.22278 0.82735 0.94605 0.0
H3217 H 0.24698 0.82443 0.92541 0.0
H3218 H 0.27608 0.79636 0.83667 0.0
H3219 H 0.26972 0.81234 0.86727 0.0
H3220 H 0.22051 0.846 0.8625 0.0
C3221 C 0.22311 0.84311 0.94724 0.0
C3222 C 0.24087 0.82917 0.91183 0.0
C3223 C 0.2201 0.8521 0.96522 0.0
C3224 C 0.26214 0.80047 0.83754 0.0
C3225 C 0.25845 0.80961 0.8552 0.0
C3226 C 0.22616 0.84095 0.87613 0.0
C3227 C 0.2263 0.85424 0.93102 0.0
C3228 C 0.23006 0.84452 0.91199 0.0
C3229 C 0.24071 0.81559 0.8571 0.0
C3230 C 0.23692 0.82553 0.87599 0.0
H3231 H 0.22306 0.89937 0.95264 0.0
H3232 H 0.22865 0.88376 0.92124 0.0
H3233 H 0.21424 0.86192 0.89333 0.0
H3234 H 0.21937 0.80062 0.81079 0.0
H3235 H 0.21279 0.81612 0.84168 0.0
C3236 C 0.91542 0.55362 0.6874 0.0
C3237 C 0.92474 0.56789 0.70212 0.0
C3238 C 0.92304 0.55138 0.66943 0.0
C3239 C 0.97012 0.5623 0.64967 0.0
H3240 H 0.94129 0.54394 0.59934 0.0
C3241 C 0.00638 0.56204 0.57884 0.0
C3242 C 0.00237 0.54487 0.56605 0.0
C3243 C 0.99552 0.56448 0.59438 0.0
C3244 C 0.9495 0.54892 0.61335 0.0
H3245 H 0.94852 0.59174 0.70932 0.0
H3246 H 0.96114 0.58879 0.67778 0.0
H3247 H 0.92435 0.55019 0.62789 0.0
H3248 H 0.98368 0.5168 0.55951 0.0
H3249 H 0.96427 0.5212 0.58666 0.0
H3250 H 0.9952 0.56135 0.63517 0.0
C3251 C 0.9484 0.57875 0.68014 0.0
C3252 C 0.93981 0.55251 0.62974 0.0
C3253 C 0.941 0.58071 0.69813 0.0
C3254 C 0.98695 0.53027 0.56897 0.0
C3255 C 0.97587 0.5328 0.58451 0.0
C3256 C 0.97972 0.55892 0.63334 0.0
C3257 C 0.94007 0.56349 0.66584 0.0
C3258 C 0.95001 0.55948 0.64812 0.0
C3259 C 0.98024 0.54985 0.59756 0.0
C3260 C 0.96959 0.55237 0.61494 0.0
H3261 H 0.90308 0.54328 0.6903 0.0
H3262 H 0.91622 0.53942 0.65889 0.0
H3263 H 0.97857 0.56696 0.6636 0.0
H3264 H 0.01805 0.57367 0.57693 0.0
H3265 H 0.9991 0.5779 0.60396 0.0
C3266 C 0.26232 0.16935 0.42633 0.0
C3267 C 0.27696 0.15882 0.43169 0.0
C3268 C 0.26334 0.18071 0.41034 0.0
C3269 C 0.28635 0.19298 0.3666 0.0
H3270 H 0.27934 0.24586 0.38335 0.0
C3271 C 0.29007 0.25433 0.31351 0.0
C3272 C 0.27371 0.26334 0.31256 0.0
C3273 C 0.29421 0.24315 0.32915 0.0
C3274 C 0.28136 0.23119 0.37846 0.0
H3275 H 0.30345 0.15055 0.42401 0.0
H3276 H 0.30525 0.17052 0.3956 0.0
H3277 H 0.27748 0.22052 0.40657 0.0
H3278 H 0.24983 0.26917 0.32794 0.0
H3279 H 0.2571 0.24988 0.35522 0.0
H3280 H 0.28955 0.20354 0.33825 0.0
C3281 C 0.29294 0.16986 0.40376 0.0
C3282 C 0.28023 0.21668 0.3917 0.0
C3283 C 0.29185 0.15835 0.41984 0.0
C3284 C 0.2625 0.26235 0.32827 0.0
C3285 C 0.26672 0.25134 0.34394 0.0
C3286 C 0.28738 0.20752 0.35326 0.0
C3287 C 0.27918 0.1819 0.39959 0.0
C3288 C 0.28216 0.19734 0.38574 0.0
C3289 C 0.28219 0.24102 0.34416 0.0
C3290 C 0.28438 0.22663 0.35896 0.0
H3291 H 0.25075 0.16991 0.43532 0.0
H3292 H 0.25235 0.18956 0.40712 0.0
H3293 H 0.28799 0.17817 0.36175 0.0
H3294 H 0.29891 0.25472 0.30153 0.0
H3295 H 0.30635 0.23554 0.3291 0.0
C3296 C 0.36157 0.64084 0.50347 0.0
C3297 C 0.34337 0.6327 0.50829 0.0
C3298 C 0.37645 0.62977 0.50395 0.0
C3299 C 0.39262 0.58639 0.52521 0.0
H3300 H 0.42462 0.58764 0.48265 0.0
C3301 C 0.44544 0.53177 0.51818 0.0
C3302 C 0.4631 0.53803 0.51113 0.0
C3303 C 0.43124 0.54362 0.5176 0.0
C3304 C 0.41605 0.58729 0.49483 0.0
H3305 H 0.32672 0.60649 0.51763 0.0
H3306 H 0.3527 0.58726 0.51871 0.0
H3307 H 0.39939 0.6077 0.48249 0.0
H3308 H 0.47952 0.56175 0.49789 0.0
H3309 H 0.45497 0.58275 0.49709 0.0
H3310 H 0.40935 0.56629 0.53778 0.0
C3311 C 0.35548 0.60225 0.51456 0.0
C3312 C 0.4015 0.5988 0.4947 0.0
C3313 C 0.34054 0.61327 0.51388 0.0
C3314 C 0.46609 0.55642 0.50324 0.0
C3315 C 0.45191 0.56844 0.50279 0.0
C3316 C 0.40726 0.57503 0.52544 0.0
C3317 C 0.37363 0.6103 0.50947 0.0
C3318 C 0.38947 0.59839 0.50981 0.0
C3319 C 0.43428 0.56228 0.51012 0.0
C3320 C 0.41911 0.5751 0.51015 0.0
H3321 H 0.36429 0.65575 0.49906 0.0
H3322 H 0.39025 0.63654 0.50015 0.0
H3323 H 0.3839 0.58594 0.53728 0.0
H3324 H 0.44257 0.51765 0.52432 0.0
H3325 H 0.4178 0.53802 0.52297 0.0
C3326 C 0.81379 0.94134 0.54149 0.0
C3327 C 0.80703 0.92641 0.52645 0.0
C3328 C 0.83297 0.9505 0.54371 0.0
C3329 C 0.88037 0.94342 0.52848 0.0
H3330 H 0.89457 0.99952 0.54251 0.0
C3331 C 0.94918 0.99002 0.50953 0.0
C3332 C 0.96063 0.00231 0.52467 0.0
C3333 C 0.93119 0.98019 0.51261 0.0
C3334 C 0.89079 0.98379 0.53887 0.0
H3335 H 0.81488 0.90995 0.50146 0.0
H3336 H 0.84788 0.92626 0.50483 0.0
H3337 H 0.86122 0.98378 0.54198 0.0
H3338 H 0.96235 0.01392 0.55493 0.0
H3339 H 0.93031 0.99704 0.56015 0.0
H3340 H 0.90979 0.94373 0.52435 0.0
C3341 C 0.83871 0.93047 0.51544 0.0
C3342 C 0.87172 0.97474 0.53858 0.0
C3343 C 0.81969 0.92118 0.5134 0.0
C3344 C 0.9538 0.00448 0.54305 0.0
C3345 C 0.93552 0.99494 0.546 0.0
C3346 C 0.89931 0.95252 0.52848 0.0
C3347 C 0.84571 0.94505 0.53078 0.0
C3348 C 0.8662 0.9545 0.53296 0.0
C3349 C 0.92411 0.9827 0.53077 0.0
C3350 C 0.90462 0.97282 0.53332 0.0
H3351 H 0.80438 0.94565 0.55182 0.0
H3352 H 0.83787 0.96157 0.55576 0.0
H3353 H 0.87681 0.92772 0.52464 0.0
H3354 H 0.95416 0.98795 0.49526 0.0
H3355 H 0.92261 0.97092 0.50061 0.0
C3356 C 0.85051 0.11703 0.23858 0.0
C3357 C 0.84082 0.09753 0.2375 0.0
C3358 C 0.84075 0.13282 0.24131 0.0
C3359 C 0.79191 0.14584 0.2395 0.0
H3360 H 0.81848 0.19198 0.27187 0.0
C3361 C 0.75937 0.21637 0.24561 0.0
C3362 C 0.76213 0.22785 0.26356 0.0
C3363 C 0.76922 0.20074 0.24279 0.0
C3364 C 0.81074 0.17914 0.263 0.0
H3365 H 0.81323 0.07925 0.23811 0.0
H3366 H 0.79621 0.10672 0.24339 0.0
H3367 H 0.83465 0.16405 0.26613 0.0
H3368 H 0.77728 0.232 0.29272 0.0
H3369 H 0.79425 0.20412 0.28811 0.0
H3370 H 0.76774 0.16051 0.23706 0.0
C3371 C 0.81129 0.10993 0.2417 0.0
C3372 C 0.82015 0.16319 0.25941 0.0
C3373 C 0.82104 0.09413 0.23868 0.0
C3374 C 0.77504 0.22345 0.2787 0.0
C3375 C 0.78477 0.20751 0.27599 0.0
C3376 C 0.78245 0.16166 0.24328 0.0
C3377 C 0.82107 0.12951 0.24333 0.0
C3378 C 0.81093 0.14638 0.24745 0.0
C3379 C 0.78186 0.19586 0.258 0.0
C3380 C 0.79179 0.17865 0.25488 0.0
H3381 H 0.86575 0.12013 0.2376 0.0
H3382 H 0.8487 0.14763 0.24195 0.0
H3383 H 0.78434 0.1333 0.23009 0.0
H3384 H 0.74973 0.21962 0.23353 0.0
H3385 H 0.767 0.19259 0.22855 0.0
C3386 C 0.72138 0.14957 0.98418 0.0
C3387 C 0.73796 0.14407 0.9935 0.0
C3388 C 0.70344 0.13808 0.98475 0.0
C3389 C 0.67759 0.10306 0.01494 0.0
H3390 H 0.63873 0.09499 0.97034 0.0
C3391 C 0.60168 0.05935 0.01919 0.0
C3392 C 0.58631 0.06663 0.00955 0.0
C3393 C 0.62054 0.06716 0.01643 0.0
C3394 C 0.64933 0.09727 0.98302 0.0
H3395 H 0.74861 0.12172 0.01024 0.0
H3396 H 0.7172 0.10167 0.01127 0.0
H3397 H 0.67103 0.1111 0.9665 0.0
H3398 H 0.57853 0.08772 0.98947 0.0
H3399 H 0.61132 0.10165 0.98497 0.0
H3400 H 0.65584 0.08974 0.03162 0.0
C3401 C 0.71815 0.11498 0.00361 0.0
C3402 C 0.66789 0.10646 0.98078 0.0
C3403 C 0.73617 0.1264 0.00288 0.0
C3404 C 0.59011 0.0818 0.99707 0.0
C3405 C 0.60894 0.08967 0.99437 0.0
C3406 C 0.65899 0.09398 0.01722 0.0
C3407 C 0.70154 0.12084 0.99478 0.0
C3408 C 0.6822 0.10967 0.99676 0.0
C3409 C 0.62444 0.08247 0.00401 0.0
C3410 C 0.64453 0.09117 0.00135 0.0
H3411 H 0.72219 0.16304 0.97678 0.0
H3412 H 0.69095 0.14313 0.97793 0.0
H3413 H 0.6882 0.10554 0.02762 0.0
H3414 H 0.59914 0.04757 0.02882 0.0
H3415 H 0.63205 0.06104 0.0239 0.0
C3416 C 0.16407 0.44839 0.27344 0.0
C3417 C 0.14421 0.4443 0.27408 0.0
C3418 C 0.17477 0.43316 0.27207 0.0
C3419 C 0.17291 0.37922 0.27784 0.0
H3420 H 0.21759 0.38765 0.24961 0.0
C3421 C 0.22817 0.32519 0.27821 0.0
C3422 C 0.238 0.32356 0.26161 0.0
C3423 C 0.21573 0.33897 0.27961 0.0
C3424 C 0.20503 0.38478 0.25733 0.0
H3425 H 0.11999 0.42084 0.27365 0.0
H3426 H 0.13852 0.39415 0.27046 0.0
H3427 H 0.19772 0.41277 0.2514 0.0
H3428 H 0.24172 0.33416 0.23299 0.0
H3429 H 0.21963 0.35734 0.23492 0.0
H3430 H 0.1799 0.35076 0.28299 0.0
C3431 C 0.14597 0.40919 0.27153 0.0
C3432 C 0.19373 0.39949 0.25868 0.0
C3433 C 0.13527 0.42451 0.27319 0.0
C3434 C 0.23461 0.33536 0.24615 0.0
C3435 C 0.22199 0.3488 0.24735 0.0
C3436 C 0.18413 0.36433 0.27626 0.0
C3437 C 0.16593 0.41328 0.27095 0.0
C3438 C 0.17756 0.39708 0.26909 0.0
C3439 C 0.21267 0.35122 0.26428 0.0
C3440 C 0.20041 0.36689 0.266 0.0
H3441 H 0.17149 0.46346 0.27435 0.0
H3442 H 0.1901 0.43709 0.27218 0.0
H3443 H 0.16074 0.37678 0.28617 0.0
H3444 H 0.23057 0.31628 0.29036 0.0
H3445 H 0.20899 0.34039 0.29295 0.0
C3446 C 0.18775 0.44117 0.02874 0.0
C3447 C 0.20675 0.45072 0.03302 0.0
C3448 C 0.17298 0.45197 0.02614 0.0
C3449 C 0.16311 0.49958 0.01118 0.0
H3450 H 0.11325 0.47952 0.02674 0.0
C3451 C 0.09266 0.53379 0.00069 0.0
C3452 C 0.07635 0.51994 0.99368 0.0
C3453 C 0.11037 0.52774 0.00453 0.0
C3454 C 0.1271 0.48524 0.02226 0.0
H3455 H 0.22518 0.47911 0.03865 0.0
H3456 H 0.19907 0.49822 0.03421 0.0
H3457 H 0.14078 0.46521 0.03869 0.0
H3458 H 0.06598 0.48943 0.98334 0.0
H3459 H 0.09683 0.47891 0.99011 0.0
H3460 H 0.14909 0.51976 0.9948 0.0
C3461 C 0.19574 0.48229 0.03271 0.0
C3462 C 0.14286 0.47709 0.02911 0.0
C3463 C 0.21063 0.47139 0.03543 0.0
C3464 C 0.07831 0.50039 0.98884 0.0
C3465 C 0.09591 0.49434 0.99282 0.0
C3466 C 0.14727 0.50796 0.00449 0.0
C3467 C 0.17678 0.47265 0.02776 0.0
C3468 C 0.16093 0.4837 0.02315 0.0
C3469 C 0.11185 0.50778 0.00151 0.0
C3470 C 0.12907 0.50039 0.00952 0.0
H3471 H 0.18429 0.42525 0.02681 0.0
H3472 H 0.15861 0.44404 0.02204 0.0
H3473 H 0.17683 0.50493 0.00625 0.0
H3474 H 0.09148 0.54897 0.00455 0.0
H3475 H 0.12252 0.53835 0.01118 0.0
C3476 C 0.83771 0.98788 0.23816 0.0
C3477 C 0.85781 0.99088 0.24059 0.0
C3478 C 0.82708 0.96891 0.23813 0.0
C3479 C 0.83138 0.91594 0.23185 0.0
H3480 H 0.78754 0.90792 0.2614 0.0
C3481 C 0.78734 0.83845 0.23595 0.0
C3482 C 0.78207 0.83377 0.25453 0.0
C3483 C 0.79485 0.85784 0.23258 0.0
C3484 C 0.79979 0.90989 0.25312 0.0
H3485 H 0.8824 0.97605 0.24478 0.0
H3486 H 0.86399 0.94335 0.2449 0.0
H3487 H 0.80411 0.94128 0.2586 0.0
H3488 H 0.7804 0.84604 0.28406 0.0
H3489 H 0.79367 0.8796 0.27825 0.0
H3490 H 0.82755 0.88458 0.22696 0.0
C3491 C 0.85638 0.95555 0.24274 0.0
C3492 C 0.80915 0.92905 0.25132 0.0
C3493 C 0.86696 0.97442 0.24282 0.0
C3494 C 0.78424 0.84903 0.26954 0.0
C3495 C 0.79174 0.86838 0.26617 0.0
C3496 C 0.82203 0.89681 0.23364 0.0
C3497 C 0.83631 0.95251 0.24043 0.0
C3498 C 0.82527 0.9323 0.24093 0.0
C3499 C 0.79729 0.87303 0.2477 0.0
C3500 C 0.80628 0.8935 0.24454 0.0
H3501 H 0.83017 1.00019 0.2364 0.0
H3502 H 0.81163 0.96707 0.23617 0.0
H3503 H 0.84357 0.9179 0.2235 0.0
H3504 H 0.78582 0.82712 0.22401 0.0
H3505 H 0.79874 0.86092 0.2181 0.0
C3506 C 0.6527 0.05079 0.78336 0.0
C3507 C 0.63297 0.05015 0.78416 0.0
C3508 C 0.66474 0.06862 0.78171 0.0
C3509 C 0.66733 0.12289 0.78841 0.0
H3510 H 0.70841 0.12381 0.75524 0.0
C3511 C 0.72382 0.18366 0.75172 0.0
C3512 C 0.72847 0.19783 0.76773 0.0
C3513 C 0.71294 0.16523 0.75385 0.0
C3514 C 0.69692 0.12386 0.76444 0.0
H3515 H 0.61053 0.06797 0.78396 0.0
H3516 H 0.6314 0.09891 0.7808 0.0
H3517 H 0.68755 0.0928 0.75856 0.0
H3518 H 0.72613 0.20365 0.79867 0.0
H3519 H 0.70769 0.1715 0.80255 0.0
H3520 H 0.67625 0.15399 0.79381 0.0
C3521 C 0.63767 0.08568 0.78177 0.0
C3522 C 0.68509 0.10601 0.76656 0.0
C3523 C 0.62565 0.06786 0.7835 0.0
C3524 C 0.72261 0.19305 0.78602 0.0
C3525 C 0.71189 0.17466 0.78819 0.0
C3526 C 0.6791 0.14072 0.78623 0.0
C3527 C 0.65737 0.0863 0.78075 0.0
C3528 C 0.67012 0.10528 0.77858 0.0
C3529 C 0.7066 0.1606 0.77207 0.0
C3530 C 0.6941 0.14147 0.77426 0.0
H3531 H 0.6589 0.03748 0.7839 0.0
H3532 H 0.67986 0.06854 0.78131 0.0
H3533 H 0.65612 0.12293 0.79795 0.0
H3534 H 0.72811 0.18701 0.73744 0.0
H3535 H 0.70903 0.15487 0.74107 0.0
loop_
_geom_bond_atom_site_label_1
_geom_bond_atom_site_label_2
_geom_bond_distance
_geom_bond_site_symmetry_2
_ccdc_geom_bond_type
Co0 O1 2.216 . S
Co0 O2 2.091 . S
Co0 O4 2.004 1_455 S
Co0 O10 2.021 . S
Co0 O12 2.137 . S
Co0 O13 2.244 . S
O1 Co0 2.216 . S
O1 C8 1.247 . S
O2 Co0 2.091 . S
O2 C8 1.261 . S
C3 O12 1.247 . S
C3 O13 1.272 . S
O4 Co0 2.004 1_655 S
O4 C9 1.259 . S
Co5 O6 2.061 . S
Co5 O11 2.052 1_655 S
Co5 O13 2.135 1_655 S
O6 Co5 2.061 . S
O6 C9 1.235 . S
C7 O10 1.238 . S
C7 O11 1.241 . S
C8 O1 1.247 . S
C8 O2 1.261 . S
C9 O4 1.259 . S
C9 O6 1.235 . S
O10 Co0 2.021 . S
O10 C7 1.238 . S
O11 Co5 2.052 1_455 S
O11 C7 1.241 . S
O12 Co0 2.137 . S
O12 C3 1.247 . S
O13 Co0 2.244 . S
O13 C3 1.272 . S
O13 Co5 2.135 1_455 S
Co14 O15 2.216 . S
Co14 O16 2.091 . S
Co14 O18 2.004 1_655 S
Co14 O24 2.021 . S
Co14 O26 2.137 . S
Co14 O27 2.244 1_655 S
O15 Co14 2.216 . S
O15 C22 1.247 . S
O16 Co14 2.091 . S
O16 C22 1.261 . S
C17 O26 1.247 1_455 S
C17 O27 1.272 . S
O18 Co14 2.004 1_455 S
O18 C23 1.259 . S
Co19 O20 2.061 . S
Co19 O25 2.052 . S
Co19 O27 2.135 . S
O20 Co19 2.061 . S
O20 C23 1.235 . S
C21 O24 1.253 . S
C21 O25 1.222 1_655 S
C22 O15 1.247 . S
C22 O16 1.261 . S
C23 O18 1.259 . S
C23 O20 1.235 . S
O24 Co14 2.021 . S
O24 C21 1.253 . S
O25 Co19 2.052 . S
O25 C21 1.222 1_455 S
O26 Co14 2.137 . S
O26 C17 1.247 1_655 S
O27 Co14 2.244 1_455 S
O27 C17 1.272 . S
O27 Co19 2.135 . S
Co28 O29 2.216 . S
Co28 O30 2.091 . S
Co28 O32 2.004 . S
Co28 O38 2.021 . S
Co28 O40 2.137 . S
Co28 O41 2.244 . S
O29 Co28 2.216 . S
O29 C36 1.247 . S
O30 Co28 2.091 . S
O30 C36 1.261 . S
C31 O40 1.247 . S
C31 O41 1.272 . S
O32 Co28 2.004 . S
O32 C37 1.259 . S
Co33 O34 2.061 . S
Co33 O39 2.052 . S
Co33 O41 2.135 . S
O34 Co33 2.061 . S
O34 C37 1.235 . S
C35 O38 1.238 . S
C35 O39 1.241 . S
C36 O29 1.247 . S
C36 O30 1.261 . S
C37 O32 1.259 . S
C37 O34 1.235 . S
O38 Co28 2.021 . S
O38 C35 1.238 . S
O39 Co33 2.052 . S
O39 C35 1.241 . S
O40 Co28 2.137 . S
O40 C31 1.247 . S
O41 Co28 2.244 . S
O41 C31 1.272 . S
O41 Co33 2.135 . S
Co42 O43 2.216 . S
Co42 O44 2.091 . S
Co42 O46 2.004 . S
Co42 O52 2.021 . S
Co42 O54 2.137 . S
Co42 O55 2.244 . S
O43 Co42 2.216 . S
O43 C50 1.247 . S
O44 Co42 2.091 . S
O44 C50 1.261 . S
C45 O54 1.247 . S
C45 O55 1.272 . S
O46 Co42 2.004 . S
O46 C51 1.259 . S
Co47 O48 2.061 . S
Co47 O53 2.052 . S
Co47 O55 2.135 . S
O48 Co47 2.061 . S
O48 C51 1.235 . S
C49 O52 1.238 . S
C49 O53 1.241 . S
C50 O43 1.247 . S
C50 O44 1.261 . S
C51 O46 1.259 . S
C51 O48 1.235 . S
O52 Co42 2.021 . S
O52 C49 1.238 . S
O53 Co47 2.052 . S
O53 C49 1.241 . S
O54 Co42 2.137 . S
O54 C45 1.247 . S
O55 Co42 2.244 . S
O55 C45 1.272 . S
O55 Co47 2.135 . S
Co56 O57 2.216 1_455 S
Co56 O58 2.091 1_455 S
Co56 O60 2.004 . S
Co56 O66 2.021 . S
Co56 O68 2.137 . S
Co56 O69 2.244 . S
O57 Co56 2.216 1_655 S
O57 C64 1.247 . S
O58 Co56 2.091 1_655 S
O58 C64 1.261 . S
C59 O68 1.247 . S
C59 O69 1.272 . S
O60 Co56 2.004 . S
O60 C65 1.259 . S
Co61 O62 2.061 . S
Co61 O67 2.052 . S
Co61 O69 2.135 . S
O62 Co61 2.061 . S
O62 C65 1.235 . S
C63 O66 1.238 . S
C63 O67 1.241 . S
C64 O57 1.247 . S
C64 O58 1.261 . S
C65 O60 1.259 . S
C65 O62 1.235 . S
O66 Co56 2.021 . S
O66 C63 1.238 . S
O67 Co61 2.052 . S
O67 C63 1.241 . S
O68 Co56 2.137 . S
O68 C59 1.247 . S
O69 Co56 2.244 . S
O69 C59 1.272 . S
O69 Co61 2.135 . S
Co70 O71 2.216 . S
Co70 O72 2.091 . S
Co70 O74 2.004 . S
Co70 O80 2.021 . S
Co70 O82 2.137 . S
Co70 O83 2.244 . S
O71 Co70 2.216 . S
O71 C78 1.247 . S
O72 Co70 2.091 . S
O72 C78 1.261 . S
C73 O82 1.247 . S
C73 O83 1.272 . S
O74 Co70 2.004 . S
O74 C79 1.259 . S
Co75 O76 2.061 . S
Co75 O81 2.052 . S
Co75 O83 2.135 . S
O76 Co75 2.061 . S
O76 C79 1.235 . S
C77 O80 1.238 . S
C77 O81 1.241 . S
C78 O71 1.247 . S
C78 O72 1.261 . S
C79 O74 1.259 . S
C79 O76 1.235 . S
O80 Co70 2.021 . S
O80 C77 1.238 . S
O81 Co75 2.052 . S
O81 C77 1.241 . S
O82 Co70 2.137 . S
O82 C73 1.247 . S
O83 Co70 2.244 . S
O83 C73 1.272 . S
O83 Co75 2.135 . S
Co84 O85 2.216 . S
Co84 O86 2.091 . S
Co84 O88 2.004 . S
Co84 O94 2.021 . S
Co84 O96 2.137 . S
Co84 O97 2.244 . S
O85 Co84 2.216 . S
O85 C92 1.247 . S
O86 Co84 2.091 . S
O86 C92 1.261 . S
C87 O96 1.247 . S
C87 O97 1.272 . S
O88 Co84 2.004 . S
O88 C93 1.259 . S
Co89 O90 2.061 . S
Co89 O95 2.052 . S
Co89 O97 2.135 . S
O90 Co89 2.061 . S
O90 C93 1.235 . S
C91 O94 1.238 . S
C91 O95 1.241 . S
C92 O85 1.247 . S
C92 O86 1.261 . S
C93 O88 1.259 . S
C93 O90 1.235 . S
O94 Co84 2.021 . S
O94 C91 1.238 . S
O95 Co89 2.052 . S
O95 C91 1.241 . S
O96 Co84 2.137 . S
O96 C87 1.247 . S
O97 Co84 2.244 . S
O97 C87 1.272 . S
O97 Co89 2.135 . S
Co98 O99 2.216 . S
Co98 O100 2.091 . S
Co98 O102 2.004 1_455 S
Co98 O108 2.021 . S
Co98 O110 2.137 . S
Co98 O111 2.244 . S
O99 Co98 2.216 . S
O99 C106 1.247 . S
O100 Co98 2.091 . S
O100 C106 1.261 . S
C101 O110 1.247 . S
C101 O111 1.272 . S
O102 Co98 2.004 1_655 S
O102 C107 1.259 . S
Co103 O104 2.061 . S
Co103 O109 2.052 . S
Co103 O111 2.135 1_655 S
O104 Co103 2.061 . S
O104 C107 1.235 . S
C105 O108 1.238 . S
C105 O109 1.241 1_455 S
C106 O99 1.247 . S
C106 O100 1.261 . S
C107 O102 1.259 . S
C107 O104 1.235 . S
O108 Co98 2.021 . S
O108 C105 1.238 . S
O109 Co103 2.052 . S
O109 C105 1.241 1_655 S
O110 Co98 2.137 . S
O110 C101 1.247 . S
O111 Co98 2.244 . S
O111 C101 1.272 . S
O111 Co103 2.135 1_455 S
Co112 O113 2.216 . S
Co112 O114 2.091 . S
Co112 O116 2.004 . S
Co112 O122 2.021 . S
Co112 O124 2.137 . S
Co112 O125 2.244 . S
O113 Co112 2.216 . S
O113 C120 1.247 . S
O114 Co112 2.091 . S
O114 C120 1.261 . S
C115 O124 1.247 . S
C115 O125 1.272 . S
O116 Co112 2.004 . S
O116 C121 1.259 . S
Co117 O118 2.061 . S
Co117 O123 2.052 . S
Co117 O125 2.135 . S
O118 Co117 2.061 . S
O118 C121 1.235 . S
C119 O122 1.238 . S
C119 O123 1.241 . S
C120 O113 1.247 . S
C120 O114 1.261 . S
C121 O116 1.259 . S
C121 O118 1.235 . S
O122 Co112 2.021 . S
O122 C119 1.238 . S
O123 Co117 2.052 . S
O123 C119 1.241 . S
O124 Co112 2.137 . S
O124 C115 1.247 . S
O125 Co112 2.244 . S
O125 C115 1.272 . S
O125 Co117 2.135 . S
Co126 O127 2.216 . S
Co126 O128 2.091 . S
Co126 O130 2.004 . S
Co126 O136 2.021 . S
Co126 O138 2.137 . S
Co126 O139 2.244 . S
O127 Co126 2.216 . S
O127 C134 1.247 . S
O128 Co126 2.091 . S
O128 C134 1.261 . S
C129 O138 1.247 . S
C129 O139 1.272 . S
O130 Co126 2.004 . S
O130 C135 1.259 . S
Co131 O132 2.061 . S
Co131 O137 2.052 . S
Co131 O139 2.135 . S
O132 Co131 2.061 . S
O132 C135 1.235 . S
C133 O136 1.238 . S
C133 O137 1.241 . S
C134 O127 1.247 . S
C134 O128 1.261 . S
C135 O130 1.259 . S
C135 O132 1.235 . S
O136 Co126 2.021 . S
O136 C133 1.238 . S
O137 Co131 2.052 . S
O137 C133 1.241 . S
O138 Co126 2.137 . S
O138 C129 1.247 . S
O139 Co126 2.244 . S
O139 C129 1.272 . S
O139 Co131 2.135 . S
Co140 O141 2.216 . S
Co140 O142 2.091 . S
Co140 O144 2.004 1_565 S
Co140 O150 2.021 . S
Co140 O152 2.137 . S
Co140 O153 2.244 1_565 S
O141 Co140 2.216 . S
O141 C148 1.247 . S
O142 Co140 2.091 . S
O142 C148 1.261 . S
C143 O152 1.243 1_545 S
C143 O153 1.275 . S
O144 Co140 2.004 1_545 S
O144 C149 1.259 . S
Co145 O146 2.061 . S
Co145 O151 2.052 . S
Co145 O153 2.135 . S
O146 Co145 2.061 . S
O146 C149 1.235 . S
C147 O150 1.238 1_545 S
C147 O151 1.240 . S
C148 O141 1.247 . S
C148 O142 1.261 . S
C149 O144 1.259 . S
C149 O146 1.235 . S
O150 Co140 2.021 . S
O150 C147 1.238 1_565 S
O151 Co145 2.052 . S
O151 C147 1.240 . S
O152 Co140 2.137 . S
O152 C143 1.243 1_565 S
O153 Co140 2.244 1_545 S
O153 C143 1.275 . S
O153 Co145 2.135 . S
Co154 O155 2.216 . S
Co154 O156 2.091 . S
Co154 O158 2.004 . S
Co154 O164 2.021 . S
Co154 O166 2.137 1_554 S
Co154 O167 2.244 . S
O155 Co154 2.216 . S
O155 C162 1.247 . S
O156 Co154 2.091 . S
O156 C162 1.261 . S
C157 O166 1.247 . S
C157 O167 1.272 1_556 S
O158 Co154 2.004 . S
O158 C163 1.259 . S
Co159 O160 2.061 . S
Co159 O165 2.052 . S
Co159 O167 2.135 . S
O160 Co159 2.061 . S
O160 C163 1.235 . S
C161 O164 1.238 . S
C161 O165 1.241 . S
C162 O155 1.247 . S
C162 O156 1.261 . S
C163 O158 1.259 . S
C163 O160 1.235 . S
O164 Co154 2.021 . S
O164 C161 1.238 . S
O165 Co159 2.052 . S
O165 C161 1.241 . S
O166 Co154 2.137 1_556 S
O166 C157 1.247 . S
O167 Co154 2.244 . S
O167 C157 1.272 1_554 S
O167 Co159 2.135 . S
Co168 O169 2.216 . S
Co168 O170 2.091 . S
Co168 O172 2.004 . S
Co168 O178 2.021 . S
Co168 O180 2.137 1_554 S
Co168 O181 2.244 . S
O169 Co168 2.216 . S
O169 C176 1.247 . S
O170 Co168 2.091 . S
O170 C176 1.261 . S
C171 O180 1.247 . S
C171 O181 1.272 1_556 S
O172 Co168 2.004 . S
O172 C177 1.259 . S
Co173 O174 2.061 . S
Co173 O179 2.052 . S
Co173 O181 2.135 . S
O174 Co173 2.061 . S
O174 C177 1.235 . S
C175 O178 1.238 . S
C175 O179 1.241 . S
C176 O169 1.247 . S
C176 O170 1.261 . S
C177 O172 1.259 . S
C177 O174 1.235 . S
O178 Co168 2.021 . S
O178 C175 1.238 . S
O179 Co173 2.052 . S
O179 C175 1.241 . S
O180 Co168 2.137 1_556 S
O180 C171 1.247 . S
O181 Co168 2.244 . S
O181 C171 1.272 1_554 S
O181 Co173 2.135 . S
Co182 O183 2.216 1_556 S
Co182 O184 2.091 1_556 S
Co182 O186 2.004 . S
Co182 O192 2.021 1_556 S
Co182 O194 2.137 . S
Co182 O195 2.244 . S
O183 Co182 2.216 1_554 S
O183 C190 1.248 . S
O184 Co182 2.091 1_554 S
O184 C190 1.262 . S
C185 O194 1.247 . S
C185 O195 1.272 . S
O186 Co182 2.004 . S
O186 C191 1.259 . S
Co187 O188 2.065 . S
Co187 O193 2.043 1_556 S
Co187 O195 2.141 . S
O188 Co187 2.065 . S
O188 C191 1.241 . S
C189 O192 1.238 . S
C189 O193 1.241 . S
C190 O183 1.248 . S
C190 O184 1.262 . S
C191 O186 1.259 . S
C191 O188 1.241 . S
O192 Co182 2.021 1_554 S
O192 C189 1.238 . S
O193 Co187 2.043 1_554 S
O193 C189 1.241 . S
O194 Co182 2.137 . S
O194 C185 1.247 . S
O195 Co182 2.244 . S
O195 C185 1.272 . S
O195 Co187 2.141 . S
Co196 O197 2.216 . S
Co196 O198 2.091 . S
Co196 O200 2.004 . S
Co196 O206 2.021 . S
Co196 O208 2.137 . S
Co196 O209 2.244 . S
O197 Co196 2.216 . S
O197 C204 1.247 . S
O198 Co196 2.091 . S
O198 C204 1.261 . S
C199 O208 1.247 . S
C199 O209 1.272 . S
O200 Co196 2.004 . S
O200 C205 1.259 . S
Co201 O202 2.061 . S
Co201 O207 2.052 . S
Co201 O209 2.135 . S
O202 Co201 2.061 . S
O202 C205 1.235 . S
C203 O206 1.238 . S
C203 O207 1.241 . S
C204 O197 1.247 . S
C204 O198 1.261 . S
C205 O200 1.259 . S
C205 O202 1.235 . S
O206 Co196 2.021 . S
O206 C203 1.238 . S
O207 Co201 2.052 . S
O207 C203 1.241 . S
O208 Co196 2.137 . S
O208 C199 1.247 . S
O209 Co196 2.244 . S
O209 C199 1.272 . S
O209 Co201 2.135 . S
Co210 O211 2.216 . S
Co210 O212 2.091 . S
Co210 O214 2.004 . S
Co210 O220 2.021 . S
Co210 O222 2.137 . S
Co210 O223 2.244 . S
O211 Co210 2.216 . S
O211 C218 1.247 . S
O212 Co210 2.091 . S
O212 C218 1.261 . S
C213 O222 1.247 . S
C213 O223 1.272 . S
O214 Co210 2.004 . S
O214 C219 1.259 . S
Co215 O216 2.061 . S
Co215 O221 2.052 . S
Co215 O223 2.135 . S
O216 Co215 2.061 . S
O216 C219 1.235 . S
C217 O220 1.238 . S
C217 O221 1.241 . S
C218 O211 1.247 . S
C218 O212 1.261 . S
C219 O214 1.259 . S
C219 O216 1.235 . S
O220 Co210 2.021 . S
O220 C217 1.238 . S
O221 Co215 2.052 . S
O221 C217 1.241 . S
O222 Co210 2.137 . S
O222 C213 1.247 . S
O223 Co210 2.244 . S
O223 C213 1.272 . S
O223 Co215 2.135 . S
Co224 O225 2.216 . S
Co224 O226 2.091 . S
Co224 O228 2.004 . S
Co224 O234 2.021 . S
Co224 O236 2.137 . S
Co224 O237 2.244 . S
O225 Co224 2.216 . S
O225 C232 1.247 . S
O226 Co224 2.091 . S
O226 C232 1.261 . S
C227 O236 1.247 . S
C227 O237 1.272 . S
O228 Co224 2.004 . S
O228 C233 1.259 . S
Co229 O230 2.061 . S
Co229 O235 2.052 . S
Co229 O237 2.135 . S
O230 Co229 2.061 . S
O230 C233 1.235 . S
C231 O234 1.238 . S
C231 O235 1.241 . S
C232 O225 1.247 . S
C232 O226 1.261 . S
C233 O228 1.259 . S
C233 O230 1.235 . S
O234 Co224 2.021 . S
O234 C231 1.238 . S
O235 Co229 2.052 . S
O235 C231 1.241 . S
O236 Co224 2.137 . S
O236 C227 1.247 . S
O237 Co224 2.244 . S
O237 C227 1.272 . S
O237 Co229 2.135 . S
Co238 O239 2.216 . S
Co238 O240 2.091 . S
Co238 O242 2.004 . S
Co238 O248 2.021 . S
Co238 O250 2.137 . S
Co238 O251 2.244 . S
O239 Co238 2.216 . S
O239 C246 1.247 . S
O240 Co238 2.091 . S
O240 C246 1.261 . S
C241 O250 1.247 . S
C241 O251 1.272 . S
O242 Co238 2.004 . S
O242 C247 1.259 . S
Co243 O244 2.061 . S
Co243 O249 2.052 . S
Co243 O251 2.135 . S
O244 Co243 2.061 . S
O244 C247 1.235 . S
C245 O248 1.238 . S
C245 O249 1.241 . S
C246 O239 1.247 . S
C246 O240 1.261 . S
C247 O242 1.259 . S
C247 O244 1.235 . S
O248 Co238 2.021 . S
O248 C245 1.238 . S
O249 Co243 2.052 . S
O249 C245 1.241 . S
O250 Co238 2.137 . S
O250 C241 1.247 . S
O251 Co238 2.244 . S
O251 C241 1.272 . S
O251 Co243 2.135 . S
Co252 O253 2.216 . S
Co252 O254 2.091 . S
Co252 O256 2.004 . S
Co252 O262 2.021 . S
Co252 O264 2.137 . S
Co252 O265 2.244 . S
O253 Co252 2.216 . S
O253 C260 1.247 . S
O254 Co252 2.091 . S
O254 C260 1.261 . S
C255 O264 1.247 . S
C255 O265 1.272 . S
O256 Co252 2.004 . S
O256 C261 1.259 . S
Co257 O258 2.061 . S
Co257 O263 2.052 . S
Co257 O265 2.135 . S
O258 Co257 2.061 . S
O258 C261 1.235 . S
C259 O262 1.238 . S
C259 O263 1.241 . S
C260 O253 1.247 . S
C260 O254 1.261 . S
C261 O256 1.259 . S
C261 O258 1.235 . S
O262 Co252 2.021 . S
O262 C259 1.238 . S
O263 Co257 2.052 . S
O263 C259 1.241 . S
O264 Co252 2.137 . S
O264 C255 1.247 . S
O265 Co252 2.244 . S
O265 C255 1.272 . S
O265 Co257 2.135 . S
Co266 O267 2.216 1_545 S
Co266 O268 2.091 1_545 S
Co266 O270 2.004 . S
Co266 O276 2.021 . S
Co266 O278 2.137 . S
Co266 O279 2.244 . S
O267 Co266 2.216 1_565 S
O267 C274 1.247 . S
O268 Co266 2.091 1_565 S
O268 C274 1.261 . S
C269 O278 1.247 . S
C269 O279 1.272 . S
O270 Co266 2.004 . S
O270 C275 1.259 . S
Co271 O272 2.061 . S
Co271 O277 2.052 . S
Co271 O279 2.135 . S
O272 Co271 2.061 . S
O272 C275 1.235 . S
C273 O276 1.238 . S
C273 O277 1.241 . S
C274 O267 1.247 . S
C274 O268 1.261 . S
C275 O270 1.259 . S
C275 O272 1.235 . S
O276 Co266 2.021 . S
O276 C273 1.238 . S
O277 Co271 2.052 . S
O277 C273 1.241 . S
O278 Co266 2.137 . S
O278 C269 1.247 . S
O279 Co266 2.244 . S
O279 C269 1.272 . S
O279 Co271 2.135 . S
Co280 O281 2.216 . S
Co280 O282 2.091 . S
Co280 O284 2.004 1_554 S
Co280 O290 2.021 . S
Co280 O292 2.137 1_554 S
Co280 O293 2.244 1_554 S
O281 Co280 2.216 . S
O281 C288 1.247 . S
O282 Co280 2.091 . S
O282 C288 1.261 . S
C283 O292 1.247 . S
C283 O293 1.272 . S
O284 Co280 2.004 1_556 S
O284 C289 1.259 1_556 S
Co285 O286 2.061 . S
Co285 O291 2.052 . S
Co285 O293 2.135 1_554 S
O286 Co285 2.061 . S
O286 C289 1.235 . S
C287 O290 1.238 . S
C287 O291 1.241 . S
C288 O281 1.247 . S
C288 O282 1.261 . S
C289 O284 1.259 1_554 S
C289 O286 1.235 . S
O290 Co280 2.021 . S
O290 C287 1.238 . S
O291 Co285 2.052 . S
O291 C287 1.241 . S
O292 Co280 2.137 1_556 S
O292 C283 1.247 . S
O293 Co280 2.244 1_556 S
O293 C283 1.272 . S
O293 Co285 2.135 1_556 S
Co294 O295 2.216 . S
Co294 O296 2.091 . S
Co294 O298 2.004 . S
Co294 O304 2.021 . S
Co294 O306 2.137 . S
Co294 O307 2.244 . S
O295 Co294 2.216 . S
O295 C302 1.247 . S
O296 Co294 2.091 . S
O296 C302 1.261 . S
C297 O306 1.247 . S
C297 O307 1.272 . S
O298 Co294 2.004 . S
O298 C303 1.259 . S
Co299 O300 2.061 . S
Co299 O305 2.052 . S
Co299 O307 2.135 . S
O300 Co299 2.061 . S
O300 C303 1.235 . S
C301 O304 1.238 . S
C301 O305 1.241 . S
C302 O295 1.247 . S
C302 O296 1.261 . S
C303 O298 1.259 . S
C303 O300 1.235 . S
O304 Co294 2.021 . S
O304 C301 1.238 . S
O305 Co299 2.052 . S
O305 C301 1.241 . S
O306 Co294 2.137 . S
O306 C297 1.247 . S
O307 Co294 2.244 . S
O307 C297 1.272 . S
O307 Co299 2.135 . S
Co308 O309 2.216 . S
Co308 O310 2.091 . S
Co308 O312 2.004 . S
Co308 O318 2.021 . S
Co308 O320 2.137 . S
Co308 O321 2.244 . S
O309 Co308 2.216 . S
O309 C316 1.247 . S
O310 Co308 2.091 . S
O310 C316 1.261 . S
C311 O320 1.247 . S
C311 O321 1.272 . S
O312 Co308 2.004 . S
O312 C317 1.259 . S
Co313 O314 2.061 . S
Co313 O319 2.052 . S
Co313 O321 2.135 . S
O314 Co313 2.061 . S
O314 C317 1.235 . S
C315 O318 1.238 . S
C315 O319 1.241 . S
C316 O309 1.247 . S
C316 O310 1.261 . S
C317 O312 1.259 . S
C317 O314 1.235 . S
O318 Co308 2.021 . S
O318 C315 1.238 . S
O319 Co313 2.052 . S
O319 C315 1.241 . S
O320 Co308 2.137 . S
O320 C311 1.247 . S
O321 Co308 2.244 . S
O321 C311 1.272 . S
O321 Co313 2.135 . S
Co322 O323 2.216 . S
Co322 O324 2.091 . S
Co322 O326 2.004 . S
Co322 O332 2.021 . S
Co322 O334 2.137 . S
Co322 O335 2.244 . S
O323 Co322 2.216 . S
O323 C330 1.247 . S
O324 Co322 2.091 . S
O324 C330 1.261 . S
C325 O334 1.247 . S
C325 O335 1.272 . S
O326 Co322 2.004 . S
O326 C331 1.259 . S
Co327 O328 2.061 . S
Co327 O333 2.052 . S
Co327 O335 2.135 . S
O328 Co327 2.061 . S
O328 C331 1.235 . S
C329 O332 1.238 . S
C329 O333 1.241 . S
C330 O323 1.247 . S
C330 O324 1.261 . S
C331 O326 1.259 . S
C331 O328 1.235 . S
O332 Co322 2.021 . S
O332 C329 1.238 . S
O333 Co327 2.052 . S
O333 C329 1.241 . S
O334 Co322 2.137 . S
O334 C325 1.247 . S
O335 Co322 2.244 . S
O335 C325 1.272 . S
O335 Co327 2.135 . S
Tb336 O339 2.453 . S
Tb336 O340 2.596 . S
Tb336 O341 2.374 1_554 S
Tb336 O349 2.343 1_455 S
Tb336 O351 2.353 . S
Tb336 O353 2.427 . S
Tb336 O354 2.513 1_554 S
C337 O341 1.251 . S
C337 O343 1.263 . S
Tb338 O340 2.343 1_655 S
Tb338 O343 2.353 1_654 S
Tb338 O346 2.427 1_645 S
Tb338 O347 2.513 1_645 S
Tb338 O348 2.453 . S
Tb338 O349 2.596 . S
Tb338 O350 2.374 . S
O339 Tb336 2.453 . S
O339 C355 1.245 . S
O340 Tb336 2.596 . S
O340 Tb338 2.343 1_455 S
O340 C355 1.259 . S
O341 Tb336 2.374 1_556 S
O341 C337 1.251 . S
C342 O346 1.275 . S
C342 O347 1.246 . S
O343 C337 1.263 . S
O343 Tb338 2.353 1_456 S
C344 O348 1.245 . S
C344 O349 1.259 . S
C345 O350 1.244 1_455 S
C345 O351 1.295 . S
O346 Tb338 2.427 1_465 S
O346 C342 1.275 . S
O347 Tb338 2.513 1_465 S
O347 C342 1.246 . S
O348 Tb338 2.453 . S
O348 C344 1.245 . S
O349 Tb336 2.343 1_655 S
O349 Tb338 2.596 . S
O349 C344 1.259 . S
O350 Tb338 2.374 . S
O350 C345 1.244 1_655 S
O351 Tb336 2.353 . S
O351 C345 1.295 . S
C352 O353 1.275 . S
C352 O354 1.246 1_554 S
O353 Tb336 2.427 . S
O353 C352 1.275 . S
O354 Tb336 2.513 1_556 S
O354 C352 1.246 1_556 S
C355 O339 1.245 . S
C355 O340 1.259 . S
Tb356 O359 2.453 . S
Tb356 O360 2.596 . S
Tb356 O361 2.374 . S
Tb356 O369 2.343 . S
Tb356 O371 2.353 . S
Tb356 O373 2.427 . S
Tb356 O374 2.513 . S
C357 O361 1.251 . S
C357 O363 1.263 . S
Tb358 O360 2.343 . S
Tb358 O363 2.353 . S
Tb358 O366 2.427 . S
Tb358 O367 2.513 . S
Tb358 O368 2.453 . S
Tb358 O369 2.596 . S
Tb358 O370 2.374 . S
O359 Tb356 2.453 . S
O359 C375 1.245 . S
O360 Tb356 2.596 . S
O360 Tb358 2.343 . S
O360 C375 1.259 . S
O361 Tb356 2.374 . S
O361 C357 1.251 . S
C362 O366 1.275 . S
C362 O367 1.246 . S
O363 C357 1.263 . S
O363 Tb358 2.353 . S
C364 O368 1.245 . S
C364 O369 1.259 . S
C365 O370 1.250 . S
C365 O371 1.263 . S
O366 Tb358 2.427 . S
O366 C362 1.275 . S
O367 Tb358 2.513 . S
O367 C362 1.246 . S
O368 Tb358 2.453 . S
O368 C364 1.245 . S
O369 Tb356 2.343 . S
O369 Tb358 2.596 . S
O369 C364 1.259 . S
O370 Tb358 2.374 . S
O370 C365 1.250 . S
O371 Tb356 2.353 . S
O371 C365 1.263 . S
C372 O373 1.275 . S
C372 O374 1.246 . S
O373 Tb356 2.427 . S
O373 C372 1.275 . S
O374 Tb356 2.513 . S
O374 C372 1.246 . S
C375 O359 1.245 . S
C375 O360 1.259 . S
Tb376 O379 2.453 . S
Tb376 O380 2.596 . S
Tb376 O381 2.374 . S
Tb376 O389 2.343 . S
Tb376 O391 2.353 . S
Tb376 O393 2.427 . S
Tb376 O394 2.513 . S
C377 O381 1.251 . S
C377 O383 1.263 . S
Tb378 O380 2.343 . S
Tb378 O383 2.353 . S
Tb378 O386 2.427 . S
Tb378 O387 2.513 . S
Tb378 O388 2.453 1_545 S
Tb378 O389 2.596 . S
Tb378 O390 2.374 . S
O379 Tb376 2.453 . S
O379 C395 1.245 . S
O380 Tb376 2.596 . S
O380 Tb378 2.343 . S
O380 C395 1.259 . S
O381 Tb376 2.374 . S
O381 C377 1.251 . S
C382 O386 1.275 . S
C382 O387 1.246 . S
O383 C377 1.263 . S
O383 Tb378 2.353 . S
C384 O388 1.245 . S
C384 O389 1.259 1_565 S
C385 O390 1.250 . S
C385 O391 1.263 . S
O386 Tb378 2.427 . S
O386 C382 1.275 . S
O387 Tb378 2.513 . S
O387 C382 1.246 . S
O388 Tb378 2.453 1_565 S
O388 C384 1.245 . S
O389 Tb376 2.343 . S
O389 Tb378 2.596 . S
O389 C384 1.259 1_545 S
O390 Tb378 2.374 . S
O390 C385 1.250 . S
O391 Tb376 2.353 . S
O391 C385 1.263 . S
C392 O393 1.275 . S
C392 O394 1.246 . S
O393 Tb376 2.427 . S
O393 C392 1.275 . S
O394 Tb376 2.513 . S
O394 C392 1.246 . S
C395 O379 1.245 . S
C395 O380 1.259 . S
Tb396 O399 2.453 . S
Tb396 O400 2.596 . S
Tb396 O401 2.374 . S
Tb396 O409 2.343 . S
Tb396 O411 2.353 . S
Tb396 O413 2.427 . S
Tb396 O414 2.513 . S
C397 O401 1.251 . S
C397 O403 1.263 . S
Tb398 O400 2.343 . S
Tb398 O403 2.353 . S
Tb398 O406 2.427 . S
Tb398 O407 2.513 . S
Tb398 O408 2.453 . S
Tb398 O409 2.596 . S
Tb398 O410 2.374 . S
O399 Tb396 2.453 . S
O399 C415 1.245 . S
O400 Tb396 2.596 . S
O400 Tb398 2.343 . S
O400 C415 1.259 . S
O401 Tb396 2.374 . S
O401 C397 1.251 . S
C402 O406 1.275 . S
C402 O407 1.246 . S
O403 C397 1.263 . S
O403 Tb398 2.353 . S
C404 O408 1.245 . S
C404 O409 1.259 . S
C405 O410 1.250 . S
C405 O411 1.263 . S
O406 Tb398 2.427 . S
O406 C402 1.275 . S
O407 Tb398 2.513 . S
O407 C402 1.246 . S
O408 Tb398 2.453 . S
O408 C404 1.245 . S
O409 Tb396 2.343 . S
O409 Tb398 2.596 . S
O409 C404 1.259 . S
O410 Tb398 2.374 . S
O410 C405 1.250 . S
O411 Tb396 2.353 . S
O411 C405 1.263 . S
C412 O413 1.275 . S
C412 O414 1.246 . S
O413 Tb396 2.427 . S
O413 C412 1.275 . S
O414 Tb396 2.513 . S
O414 C412 1.246 . S
C415 O399 1.245 . S
C415 O400 1.259 . S
Tb416 O419 2.453 1_545 S
Tb416 O420 2.596 . S
Tb416 O421 2.374 1_455 S
Tb416 O429 2.343 . S
Tb416 O431 2.353 . S
Tb416 O433 2.427 . S
Tb416 O434 2.513 1_455 S
C417 O421 1.251 . S
C417 O423 1.263 . S
Tb418 O420 2.343 . S
Tb418 O423 2.353 1_455 S
Tb418 O426 2.427 . S
Tb418 O427 2.513 . S
Tb418 O428 2.453 . S
Tb418 O429 2.596 . S
Tb418 O430 2.374 . S
O419 Tb416 2.453 1_565 S
O419 C435 1.245 . S
O420 Tb416 2.596 . S
O420 Tb418 2.343 . S
O420 C435 1.259 1_545 S
O421 Tb416 2.374 1_655 S
O421 C417 1.251 . S
C422 O426 1.275 . S
C422 O427 1.246 . S
O423 C417 1.263 . S
O423 Tb418 2.353 1_655 S
C424 O428 1.245 . S
C424 O429 1.259 . S
C425 O430 1.250 . S
C425 O431 1.263 . S
O426 Tb418 2.427 . S
O426 C422 1.275 . S
O427 Tb418 2.513 . S
O427 C422 1.246 . S
O428 Tb418 2.453 . S
O428 C424 1.245 . S
O429 Tb416 2.343 . S
O429 Tb418 2.596 . S
O429 C424 1.259 . S
O430 Tb418 2.374 . S
O430 C425 1.250 . S
O431 Tb416 2.353 . S
O431 C425 1.263 . S
C432 O433 1.275 1_655 S
C432 O434 1.246 . S
O433 Tb416 2.427 . S
O433 C432 1.275 1_455 S
O434 Tb416 2.513 1_655 S
O434 C432 1.246 . S
C435 O419 1.245 . S
C435 O420 1.259 1_565 S
Tb436 O439 2.453 . S
Tb436 O440 2.596 . S
Tb436 O441 2.374 . S
Tb436 O449 2.343 . S
Tb436 O451 2.353 . S
Tb436 O453 2.427 . S
Tb436 O454 2.513 . S
C437 O441 1.251 . S
C437 O443 1.263 . S
Tb438 O440 2.343 . S
Tb438 O443 2.353 . S
Tb438 O446 2.427 . S
Tb438 O447 2.513 . S
Tb438 O448 2.453 . S
Tb438 O449 2.596 . S
Tb438 O450 2.374 . S
O439 Tb436 2.453 . S
O439 C455 1.245 . S
O440 Tb436 2.596 . S
O440 Tb438 2.343 . S
O440 C455 1.259 . S
O441 Tb436 2.374 . S
O441 C437 1.251 . S
C442 O446 1.275 . S
C442 O447 1.246 . S
O443 C437 1.263 . S
O443 Tb438 2.353 . S
C444 O448 1.245 . S
C444 O449 1.259 . S
C445 O450 1.250 . S
C445 O451 1.263 . S
O446 Tb438 2.427 . S
O446 C442 1.275 . S
O447 Tb438 2.513 . S
O447 C442 1.246 . S
O448 Tb438 2.453 . S
O448 C444 1.245 . S
O449 Tb436 2.343 . S
O449 Tb438 2.596 . S
O449 C444 1.259 . S
O450 Tb438 2.374 . S
O450 C445 1.250 . S
O451 Tb436 2.353 . S
O451 C445 1.263 . S
C452 O453 1.275 . S
C452 O454 1.246 . S
O453 Tb436 2.427 . S
O453 C452 1.275 . S
O454 Tb436 2.513 . S
O454 C452 1.246 . S
C455 O439 1.245 . S
C455 O440 1.259 . S
Tb456 O459 2.453 . S
Tb456 O460 2.596 . S
Tb456 O461 2.374 1_545 S
Tb456 O469 2.343 1_556 S
Tb456 O471 2.353 1_556 S
Tb456 O473 2.427 1_556 S
Tb456 O474 2.513 1_556 S
C457 O461 1.251 1_554 S
C457 O463 1.256 1_565 S
Tb458 O460 2.343 1_554 S
Tb458 O463 2.375 . S
Tb458 O466 2.427 . S
Tb458 O467 2.513 . S
Tb458 O468 2.453 . S
Tb458 O469 2.596 . S
Tb458 O470 2.374 . S
O459 Tb456 2.453 . S
O459 C475 1.245 . S
O460 Tb456 2.596 . S
O460 Tb458 2.343 1_556 S
O460 C475 1.259 . S
O461 Tb456 2.374 1_565 S
O461 C457 1.251 1_556 S
C462 O466 1.275 . S
C462 O467 1.246 . S
O463 C457 1.256 1_545 S
O463 Tb458 2.375 . S
C464 O468 1.245 . S
C464 O469 1.259 . S
C465 O470 1.250 . S
C465 O471 1.263 . S
O466 Tb458 2.427 . S
O466 C462 1.275 . S
O467 Tb458 2.513 . S
O467 C462 1.246 . S
O468 Tb458 2.453 . S
O468 C464 1.245 . S
O469 Tb456 2.343 1_554 S
O469 Tb458 2.596 . S
O469 C464 1.259 . S
O470 Tb458 2.374 . S
O470 C465 1.250 . S
O471 Tb456 2.353 1_554 S
O471 C465 1.263 . S
C472 O473 1.275 . S
C472 O474 1.246 . S
O473 Tb456 2.427 1_554 S
O473 C472 1.275 . S
O474 Tb456 2.513 1_554 S
O474 C472 1.246 . S
C475 O459 1.245 . S
C475 O460 1.259 . S
Tb476 O479 2.453 . S
Tb476 O480 2.596 . S
Tb476 O481 2.374 . S
Tb476 O489 2.343 . S
Tb476 O491 2.353 . S
Tb476 O493 2.427 . S
Tb476 O494 2.513 . S
C477 O481 1.251 . S
C477 O483 1.263 . S
Tb478 O480 2.343 . S
Tb478 O483 2.353 . S
Tb478 O486 2.427 . S
Tb478 O487 2.513 . S
Tb478 O488 2.453 . S
Tb478 O489 2.596 . S
Tb478 O490 2.374 . S
O479 Tb476 2.453 . S
O479 C495 1.245 . S
O480 Tb476 2.596 . S
O480 Tb478 2.343 . S
O480 C495 1.259 . S
O481 Tb476 2.374 . S
O481 C477 1.251 . S
C482 O486 1.275 . S
C482 O487 1.246 . S
O483 C477 1.263 . S
O483 Tb478 2.353 . S
C484 O488 1.245 . S
C484 O489 1.259 . S
C485 O490 1.250 . S
C485 O491 1.263 . S
O486 Tb478 2.427 . S
O486 C482 1.275 . S
O487 Tb478 2.513 . S
O487 C482 1.246 . S
O488 Tb478 2.453 . S
O488 C484 1.245 . S
O489 Tb476 2.343 . S
O489 Tb478 2.596 . S
O489 C484 1.259 . S
O490 Tb478 2.374 . S
O490 C485 1.250 . S
O491 Tb476 2.353 . S
O491 C485 1.263 . S
C492 O493 1.275 . S
C492 O494 1.246 . S
O493 Tb476 2.427 . S
O493 C492 1.275 . S
O494 Tb476 2.513 . S
O494 C492 1.246 . S
C495 O479 1.245 . S
C495 O480 1.259 . S
Tb496 O499 2.453 1_556 S
Tb496 O500 2.596 1_556 S
Tb496 O501 2.374 1_556 S
Tb496 O509 2.328 1_556 S
Tb496 O511 2.353 . S
Tb496 O513 2.427 . S
Tb496 O514 2.513 . S
C497 O501 1.251 . S
C497 O503 1.263 . S
Tb498 O500 2.343 . S
Tb498 O503 2.353 . S
Tb498 O506 2.427 . S
Tb498 O507 2.513 . S
Tb498 O508 2.453 . S
Tb498 O509 2.638 . S
Tb498 O510 2.374 . S
O499 Tb496 2.453 1_554 S
O499 C515 1.245 . S
O500 Tb496 2.596 1_554 S
O500 Tb498 2.343 . S
O500 C515 1.259 . S
O501 Tb496 2.374 1_554 S
O501 C497 1.251 . S
C502 O506 1.275 . S
C502 O507 1.246 . S
O503 C497 1.263 . S
O503 Tb498 2.353 . S
C504 O508 1.245 . S
C504 O509 1.263 . S
C505 O510 1.250 . S
C505 O511 1.263 1_554 S
O506 Tb498 2.427 . S
O506 C502 1.275 . S
O507 Tb498 2.513 . S
O507 C502 1.246 . S
O508 Tb498 2.453 . S
O508 C504 1.245 . S
O509 Tb496 2.328 1_554 S
O509 Tb498 2.638 . S
O509 C504 1.263 . S
O510 Tb498 2.374 . S
O510 C505 1.250 . S
O511 Tb496 2.353 . S
O511 C505 1.263 1_556 S
C512 O513 1.275 . S
C512 O514 1.246 . S
O513 Tb496 2.427 . S
O513 C512 1.275 . S
O514 Tb496 2.513 . S
O514 C512 1.246 . S
C515 O499 1.245 . S
C515 O500 1.259 . S
Tb516 O519 2.453 . S
Tb516 O520 2.596 . S
Tb516 O521 2.374 . S
Tb516 O529 2.343 . S
Tb516 O531 2.353 . S
Tb516 O533 2.427 . S
Tb516 O534 2.513 . S
C517 O521 1.251 . S
C517 O523 1.263 . S
Tb518 O520 2.343 . S
Tb518 O523 2.353 . S
Tb518 O526 2.427 . S
Tb518 O527 2.513 . S
Tb518 O528 2.453 . S
Tb518 O529 2.596 . S
Tb518 O530 2.374 . S
O519 Tb516 2.453 . S
O519 C535 1.245 . S
O520 Tb516 2.596 . S
O520 Tb518 2.343 . S
O520 C535 1.259 . S
O521 Tb516 2.374 . S
O521 C517 1.251 . S
C522 O526 1.275 . S
C522 O527 1.246 . S
O523 C517 1.263 . S
O523 Tb518 2.353 . S
C524 O528 1.245 . S
C524 O529 1.259 . S
C525 O530 1.250 . S
C525 O531 1.263 . S
O526 Tb518 2.427 . S
O526 C522 1.275 . S
O527 Tb518 2.513 . S
O527 C522 1.246 . S
O528 Tb518 2.453 . S
O528 C524 1.245 . S
O529 Tb516 2.343 . S
O529 Tb518 2.596 . S
O529 C524 1.259 . S
O530 Tb518 2.374 . S
O530 C525 1.250 . S
O531 Tb516 2.353 . S
O531 C525 1.263 . S
C532 O533 1.275 . S
C532 O534 1.246 . S
O533 Tb516 2.427 . S
O533 C532 1.275 . S
O534 Tb516 2.513 . S
O534 C532 1.246 . S
C535 O519 1.245 . S
C535 O520 1.259 . S
Tb536 O539 2.424 1_655 S
Tb536 O540 2.596 1_655 S
Tb536 O541 2.374 . S
Tb536 O549 2.343 . S
Tb536 O551 2.353 . S
Tb536 O553 2.427 . S
Tb536 O554 2.513 . S
C537 O541 1.251 1_455 S
C537 O543 1.263 . S
Tb538 O540 2.343 . S
Tb538 O543 2.353 . S
Tb538 O546 2.427 . S
Tb538 O547 2.513 . S
Tb538 O548 2.453 . S
Tb538 O549 2.596 1_455 S
Tb538 O550 2.374 . S
O539 Tb536 2.424 1_455 S
O539 C555 1.289 . S
O540 Tb536 2.596 1_455 S
O540 Tb538 2.343 . S
O540 C555 1.259 . S
O541 Tb536 2.374 . S
O541 C537 1.251 1_655 S
C542 O546 1.275 . S
C542 O547 1.246 . S
O543 C537 1.263 . S
O543 Tb538 2.353 . S
C544 O548 1.245 1_655 S
C544 O549 1.259 . S
C545 O550 1.250 . S
C545 O551 1.263 1_455 S
O546 Tb538 2.427 . S
O546 C542 1.275 . S
O547 Tb538 2.513 . S
O547 C542 1.246 . S
O548 Tb538 2.453 . S
O548 C544 1.245 1_455 S
O549 Tb536 2.343 . S
O549 Tb538 2.596 1_655 S
O549 C544 1.259 . S
O550 Tb538 2.374 . S
O550 C545 1.250 . S
O551 Tb536 2.353 . S
O551 C545 1.263 1_655 S
C552 O553 1.275 . S
C552 O554 1.246 . S
O553 Tb536 2.427 . S
O553 C552 1.275 . S
O554 Tb536 2.513 . S
O554 C552 1.246 . S
C555 O539 1.289 . S
C555 O540 1.259 . S
Tb556 O559 2.453 . S
Tb556 O560 2.596 . S
Tb556 O561 2.374 . S
Tb556 O569 2.343 . S
Tb556 O571 2.353 . S
Tb556 O573 2.427 . S
Tb556 O574 2.513 . S
C557 O561 1.251 . S
C557 O563 1.263 . S
Tb558 O560 2.343 . S
Tb558 O563 2.353 . S
Tb558 O566 2.427 . S
Tb558 O567 2.513 . S
Tb558 O568 2.453 . S
Tb558 O569 2.596 . S
Tb558 O570 2.374 . S
O559 Tb556 2.453 . S
O559 C575 1.245 . S
O560 Tb556 2.596 . S
O560 Tb558 2.343 . S
O560 C575 1.259 . S
O561 Tb556 2.374 . S
O561 C557 1.251 . S
C562 O566 1.275 . S
C562 O567 1.246 . S
O563 C557 1.263 . S
O563 Tb558 2.353 . S
C564 O568 1.245 . S
C564 O569 1.259 . S
C565 O570 1.250 . S
C565 O571 1.263 . S
O566 Tb558 2.427 . S
O566 C562 1.275 . S
O567 Tb558 2.513 . S
O567 C562 1.246 . S
O568 Tb558 2.453 . S
O568 C564 1.245 . S
O569 Tb556 2.343 . S
O569 Tb558 2.596 . S
O569 C564 1.259 . S
O570 Tb558 2.374 . S
O570 C565 1.250 . S
O571 Tb556 2.353 . S
O571 C565 1.263 . S
C572 O573 1.275 . S
C572 O574 1.246 . S
O573 Tb556 2.427 . S
O573 C572 1.275 . S
O574 Tb556 2.513 . S
O574 C572 1.246 . S
C575 O559 1.245 . S
C575 O560 1.259 . S
Tb576 O579 2.453 . S
Tb576 O580 2.596 . S
Tb576 O581 2.374 . S
Tb576 O589 2.343 . S
Tb576 O591 2.353 . S
Tb576 O593 2.427 . S
Tb576 O594 2.513 . S
C577 O581 1.251 . S
C577 O583 1.263 . S
Tb578 O580 2.343 . S
Tb578 O583 2.353 . S
Tb578 O586 2.427 . S
Tb578 O587 2.513 . S
Tb578 O588 2.453 . S
Tb578 O589 2.596 . S
Tb578 O590 2.374 . S
O579 Tb576 2.453 . S
O579 C595 1.245 . S
O580 Tb576 2.596 . S
O580 Tb578 2.343 . S
O580 C595 1.259 . S
O581 Tb576 2.374 . S
O581 C577 1.251 . S
C582 O586 1.275 . S
C582 O587 1.246 . S
O583 C577 1.263 . S
O583 Tb578 2.353 . S
C584 O588 1.245 . S
C584 O589 1.259 . S
C585 O590 1.250 . S
C585 O591 1.263 . S
O586 Tb578 2.427 . S
O586 C582 1.275 . S
O587 Tb578 2.513 . S
O587 C582 1.246 . S
O588 Tb578 2.453 . S
O588 C584 1.245 . S
O589 Tb576 2.343 . S
O589 Tb578 2.596 . S
O589 C584 1.259 . S
O590 Tb578 2.374 . S
O590 C585 1.250 . S
O591 Tb576 2.353 . S
O591 C585 1.263 . S
C592 O593 1.275 . S
C592 O594 1.246 . S
O593 Tb576 2.427 . S
O593 C592 1.275 . S
O594 Tb576 2.513 . S
O594 C592 1.246 . S
C595 O579 1.245 . S
C595 O580 1.259 . S
Tb596 O599 2.453 . S
Tb596 O600 2.596 . S
Tb596 O601 2.374 . S
Tb596 O609 2.343 . S
Tb596 O611 2.353 . S
Tb596 O613 2.427 . S
Tb596 O614 2.513 . S
C597 O601 1.251 . S
C597 O603 1.263 . S
Tb598 O600 2.343 . S
Tb598 O603 2.353 . S
Tb598 O606 2.427 . S
Tb598 O607 2.513 . S
Tb598 O608 2.453 . S
Tb598 O609 2.596 . S
Tb598 O610 2.374 . S
O599 Tb596 2.453 . S
O599 C615 1.245 . S
O600 Tb596 2.596 . S
O600 Tb598 2.343 . S
O600 C615 1.259 . S
O601 Tb596 2.374 . S
O601 C597 1.251 . S
C602 O606 1.275 . S
C602 O607 1.246 . S
O603 C597 1.263 . S
O603 Tb598 2.353 . S
C604 O608 1.245 . S
C604 O609 1.259 . S
C605 O610 1.250 . S
C605 O611 1.263 . S
O606 Tb598 2.427 . S
O606 C602 1.275 . S
O607 Tb598 2.513 . S
O607 C602 1.246 . S
O608 Tb598 2.453 . S
O608 C604 1.245 . S
O609 Tb596 2.343 . S
O609 Tb598 2.596 . S
O609 C604 1.259 . S
O610 Tb598 2.374 . S
O610 C605 1.250 . S
O611 Tb596 2.353 . S
O611 C605 1.263 . S
C612 O613 1.275 . S
C612 O614 1.246 . S
O613 Tb596 2.427 . S
O613 C612 1.275 . S
O614 Tb596 2.513 . S
O614 C612 1.246 . S
C615 O599 1.245 . S
C615 O600 1.259 . S
Tb616 O619 2.453 . S
Tb616 O620 2.596 . S
Tb616 O621 2.374 . S
Tb616 O629 2.343 . S
Tb616 O631 2.353 . S
Tb616 O633 2.427 . S
Tb616 O634 2.513 . S
C617 O621 1.251 . S
C617 O623 1.263 . S
Tb618 O620 2.343 . S
Tb618 O623 2.353 . S
Tb618 O626 2.427 . S
Tb618 O627 2.513 . S
Tb618 O628 2.453 . S
Tb618 O629 2.596 . S
Tb618 O630 2.374 . S
O619 Tb616 2.453 . S
O619 C635 1.245 . S
O620 Tb616 2.596 . S
O620 Tb618 2.343 . S
O620 C635 1.259 . S
O621 Tb616 2.374 . S
O621 C617 1.251 . S
C622 O626 1.275 . S
C622 O627 1.246 . S
O623 C617 1.263 . S
O623 Tb618 2.353 . S
C624 O628 1.245 . S
C624 O629 1.259 . S
C625 O630 1.250 . S
C625 O631 1.263 . S
O626 Tb618 2.427 . S
O626 C622 1.275 . S
O627 Tb618 2.513 . S
O627 C622 1.246 . S
O628 Tb618 2.453 . S
O628 C624 1.245 . S
O629 Tb616 2.343 . S
O629 Tb618 2.596 . S
O629 C624 1.259 . S
O630 Tb618 2.374 . S
O630 C625 1.250 . S
O631 Tb616 2.353 . S
O631 C625 1.263 . S
C632 O633 1.275 . S
C632 O634 1.246 . S
O633 Tb616 2.427 . S
O633 C632 1.275 . S
O634 Tb616 2.513 . S
O634 C632 1.246 . S
C635 O619 1.245 . S
C635 O620 1.259 . S
Tb636 O639 2.453 . S
Tb636 O640 2.596 . S
Tb636 O641 2.374 . S
Tb636 O649 2.343 . S
Tb636 O651 2.353 1_554 S
Tb636 O653 2.427 1_554 S
Tb636 O654 2.513 . S
C637 O641 1.251 . S
C637 O643 1.263 1_455 S
Tb638 O640 2.343 1_655 S
Tb638 O643 2.353 . S
Tb638 O646 2.427 . S
Tb638 O647 2.513 . S
Tb638 O648 2.453 . S
Tb638 O649 2.596 1_655 S
Tb638 O650 2.374 1_554 S
O639 Tb636 2.453 . S
O639 C655 1.245 . S
O640 Tb636 2.596 . S
O640 Tb638 2.343 1_455 S
O640 C655 1.259 . S
O641 Tb636 2.374 . S
O641 C637 1.251 . S
C642 O646 1.275 . S
C642 O647 1.246 . S
O643 C637 1.263 1_655 S
O643 Tb638 2.353 . S
C644 O648 1.239 . S
C644 O649 1.262 1_655 S
C645 O650 1.250 . S
C645 O651 1.263 1_655 S
O646 Tb638 2.427 . S
O646 C642 1.275 . S
O647 Tb638 2.513 . S
O647 C642 1.246 . S
O648 Tb638 2.453 . S
O648 C644 1.239 . S
O649 Tb636 2.343 . S
O649 Tb638 2.596 1_455 S
O649 C644 1.262 1_455 S
O650 Tb638 2.374 1_556 S
O650 C645 1.250 . S
O651 Tb636 2.353 1_556 S
O651 C645 1.263 1_455 S
C652 O653 1.275 1_554 S
C652 O654 1.246 . S
O653 Tb636 2.427 1_556 S
O653 C652 1.275 1_556 S
O654 Tb636 2.513 . S
O654 C652 1.246 . S
C655 O639 1.245 . S
C655 O640 1.259 . S
C656 C657 1.349 . S
C656 C658 1.327 . S
C656 H681 0.950 . S
C657 C656 1.349 . S
C657 C673 1.349 1_455 S
C658 C656 1.327 . S
C658 C677 1.429 . S
C658 H682 0.950 . S
C659 C676 1.574 . S
C659 C678 1.368 1_655 S
C659 H683 0.949 . S
H660 C664 0.949 . S
C661 C662 1.335 1_654 S
C661 C663 1.325 1_554 S
C661 H684 0.962 . S
C662 C661 1.335 1_456 S
C662 C674 1.349 . S
C663 C661 1.325 1_556 S
C663 C679 1.406 1_655 S
C663 H685 0.978 . S
C664 H660 0.949 . S
C664 C672 1.574 . S
C664 C680 1.368 . S
H665 C673 0.950 . S
H666 C671 0.950 . S
H667 C672 0.949 . S
H668 C674 0.950 . S
H669 C675 0.950 . S
H670 C676 0.949 . S
C671 H666 0.950 . S
C671 C673 1.327 . S
C671 C677 1.429 1_655 S
C672 C664 1.574 . S
C672 H667 0.949 . S
C672 C678 1.368 . S
C673 C657 1.349 1_655 S
C673 H665 0.950 . S
C673 C671 1.327 . S
C674 C662 1.349 . S
C674 H668 0.950 . S
C674 C675 1.327 . S
C675 H669 0.950 . S
C675 C674 1.327 . S
C675 C679 1.429 . S
C676 C659 1.574 . S
C676 H670 0.949 . S
C676 C680 1.368 1_655 S
C677 C658 1.429 . S
C677 C671 1.429 1_455 S
C677 C678 1.523 . S
C678 C659 1.368 1_455 S
C678 C672 1.368 . S
C678 C677 1.523 . S
C679 C663 1.406 1_455 S
C679 C675 1.429 . S
C679 C680 1.523 . S
C680 C664 1.368 . S
C680 C676 1.368 1_455 S
C680 C679 1.523 . S
H681 C656 0.950 . S
H682 C658 0.950 . S
H683 C659 0.949 . S
H684 C661 0.962 . S
H685 C663 0.978 . S
C686 C687 1.349 . S
C686 C688 1.327 . S
C686 H711 0.950 . S
C687 C686 1.349 . S
C687 C703 1.349 . S
C688 C686 1.327 . S
C688 C707 1.429 . S
C688 H712 0.950 . S
C689 C706 1.574 . S
C689 C708 1.368 . S
C689 H713 0.949 . S
H690 C694 0.949 . S
C691 C692 1.349 . S
C691 C693 1.327 . S
C691 H714 0.950 . S
C692 C691 1.349 . S
C692 C704 1.349 . S
C693 C691 1.327 . S
C693 C709 1.429 . S
C693 H715 0.950 . S
C694 H690 0.949 . S
C694 C702 1.574 . S
C694 C710 1.368 . S
H695 C703 0.950 . S
H696 C701 0.950 . S
H697 C702 0.949 . S
H698 C704 0.950 . S
H699 C705 0.950 . S
H700 C706 0.949 . S
C701 H696 0.950 . S
C701 C703 1.327 . S
C701 C707 1.429 . S
C702 C694 1.574 . S
C702 H697 0.949 . S
C702 C708 1.368 . S
C703 C687 1.349 . S
C703 H695 0.950 . S
C703 C701 1.327 . S
C704 C692 1.349 . S
C704 H698 0.950 . S
C704 C705 1.327 . S
C705 H699 0.950 . S
C705 C704 1.327 . S
C705 C709 1.429 . S
C706 C689 1.574 . S
C706 H700 0.949 . S
C706 C710 1.368 . S
C707 C688 1.429 . S
C707 C701 1.429 . S
C707 C708 1.523 . S
C708 C689 1.368 . S
C708 C702 1.368 . S
C708 C707 1.523 . S
C709 C693 1.429 . S
C709 C705 1.429 . S
C709 C710 1.523 . S
C710 C694 1.368 . S
C710 C706 1.368 . S
C710 C709 1.523 . S
H711 C686 0.950 . S
H712 C688 0.950 . S
H713 C689 0.949 . S
H714 C691 0.950 . S
H715 C693 0.950 . S
C716 C717 1.349 . S
C716 C718 1.327 . S
C716 H741 0.950 . S
C717 C716 1.349 . S
C717 C733 1.349 . S
C718 C716 1.327 . S
C718 C737 1.429 . S
C718 H742 0.950 . S
C719 C736 1.574 . S
C719 C738 1.368 . S
C719 H743 0.949 . S
H720 C724 0.949 . S
C721 C722 1.349 . S
C721 C723 1.327 . S
C721 H744 0.950 . S
C722 C721 1.349 . S
C722 C734 1.349 . S
C723 C721 1.327 . S
C723 C739 1.429 . S
C723 H745 0.950 . S
C724 H720 0.949 . S
C724 C732 1.574 . S
C724 C740 1.368 . S
H725 C733 0.950 . S
H726 C731 0.950 . S
H727 C732 0.949 . S
H728 C734 0.950 . S
H729 C735 0.950 . S
H730 C736 0.949 . S
C731 H726 0.950 . S
C731 C733 1.327 . S
C731 C737 1.429 . S
C732 C724 1.574 . S
C732 H727 0.949 . S
C732 C738 1.368 . S
C733 C717 1.349 . S
C733 H725 0.950 . S
C733 C731 1.327 . S
C734 C722 1.349 . S
C734 H728 0.950 . S
C734 C735 1.327 . S
C735 H729 0.950 . S
C735 C734 1.327 . S
C735 C739 1.429 . S
C736 C719 1.574 . S
C736 H730 0.949 . S
C736 C740 1.368 . S
C737 C718 1.429 . S
C737 C731 1.429 . S
C737 C738 1.523 . S
C738 C719 1.368 . S
C738 C732 1.368 . S
C738 C737 1.523 . S
C739 C723 1.429 . S
C739 C735 1.429 . S
C739 C740 1.523 . S
C740 C724 1.368 . S
C740 C736 1.368 . S
C740 C739 1.523 . S
H741 C716 0.950 . S
H742 C718 0.950 . S
H743 C719 0.949 . S
H744 C721 0.950 . S
H745 C723 0.950 . S
C746 C747 1.349 . S
C746 C748 1.327 . S
C746 H771 0.950 . S
C747 C746 1.349 . S
C747 C763 1.349 . S
C748 C746 1.327 . S
C748 C767 1.429 . S
C748 H772 0.950 . S
C749 C766 1.574 . S
C749 C768 1.368 . S
C749 H773 0.949 . S
H750 C754 0.949 . S
C751 C752 1.349 . S
C751 C753 1.327 . S
C751 H774 0.950 . S
C752 C751 1.349 . S
C752 C764 1.349 . S
C753 C751 1.327 . S
C753 C769 1.429 . S
C753 H775 0.950 . S
C754 H750 0.949 . S
C754 C762 1.574 . S
C754 C770 1.368 . S
H755 C763 0.950 . S
H756 C761 0.950 . S
H757 C762 0.949 . S
H758 C764 0.950 . S
H759 C765 0.950 . S
H760 C766 0.949 . S
C761 H756 0.950 . S
C761 C763 1.327 . S
C761 C767 1.429 . S
C762 C754 1.574 . S
C762 H757 0.949 . S
C762 C768 1.368 . S
C763 C747 1.349 . S
C763 H755 0.950 . S
C763 C761 1.327 . S
C764 C752 1.349 . S
C764 H758 0.950 . S
C764 C765 1.327 . S
C765 H759 0.950 . S
C765 C764 1.327 . S
C765 C769 1.429 . S
C766 C749 1.574 . S
C766 H760 0.949 . S
C766 C770 1.368 . S
C767 C748 1.429 . S
C767 C761 1.429 . S
C767 C768 1.523 . S
C768 C749 1.368 . S
C768 C762 1.368 . S
C768 C767 1.523 . S
C769 C753 1.429 . S
C769 C765 1.429 . S
C769 C770 1.523 . S
C770 C754 1.368 . S
C770 C766 1.368 . S
C770 C769 1.523 . S
H771 C746 0.950 . S
H772 C748 0.950 . S
H773 C749 0.949 . S
H774 C751 0.950 . S
H775 C753 0.950 . S
C776 C777 1.349 . S
C776 C778 1.327 . S
C776 H801 0.950 . S
C777 C776 1.349 . S
C777 C793 1.349 1_455 S
C778 C776 1.327 . S
C778 C797 1.429 . S
C778 H802 0.950 . S
C779 C796 1.574 . S
C779 C798 1.368 1_655 S
C779 H803 0.949 . S
H780 C784 0.949 . S
C781 C782 1.360 . S
C781 C783 1.331 1_455 S
C781 H804 0.938 1_455 S
C782 C781 1.360 . S
C782 C794 1.349 . S
C783 C781 1.331 1_655 S
C783 C799 1.412 1_655 S
C783 H805 0.966 . S
C784 H780 0.949 . S
C784 C792 1.574 . S
C784 C800 1.368 . S
H785 C793 0.950 . S
H786 C791 0.950 . S
H787 C792 0.949 . S
H788 C794 0.950 . S
H789 C795 0.950 . S
H790 C796 0.949 . S
C791 H786 0.950 . S
C791 C793 1.327 . S
C791 C797 1.429 1_655 S
C792 C784 1.574 . S
C792 H787 0.949 . S
C792 C798 1.368 . S
C793 C777 1.349 1_655 S
C793 H785 0.950 . S
C793 C791 1.327 . S
C794 C782 1.349 . S
C794 H788 0.950 . S
C794 C795 1.327 . S
C795 H789 0.950 . S
C795 C794 1.327 . S
C795 C799 1.429 . S
C796 C779 1.574 . S
C796 H790 0.949 . S
C796 C800 1.368 1_655 S
C797 C778 1.429 . S
C797 C791 1.429 1_455 S
C797 C798 1.523 . S
C798 C779 1.368 1_455 S
C798 C792 1.368 . S
C798 C797 1.523 . S
C799 C783 1.412 1_455 S
C799 C795 1.429 . S
C799 C800 1.523 . S
C800 C784 1.368 . S
C800 C796 1.368 1_455 S
C800 C799 1.523 . S
H801 C776 0.950 . S
H802 C778 0.950 . S
H803 C779 0.949 . S
H804 C781 0.938 1_655 S
H805 C783 0.966 . S
C806 C807 1.349 . S
C806 C808 1.327 . S
C806 H831 0.950 . S
C807 C806 1.349 . S
C807 C823 1.349 . S
C808 C806 1.327 . S
C808 C827 1.429 . S
C808 H832 0.950 . S
C809 C826 1.574 . S
C809 C828 1.368 . S
C809 H833 0.949 . S
H810 C814 0.949 . S
C811 C812 1.349 . S
C811 C813 1.327 . S
C811 H834 0.950 . S
C812 C811 1.349 . S
C812 C824 1.349 . S
C813 C811 1.327 . S
C813 C829 1.429 . S
C813 H835 0.950 . S
C814 H810 0.949 . S
C814 C822 1.574 . S
C814 C830 1.368 . S
H815 C823 0.950 . S
H816 C821 0.950 . S
H817 C822 0.949 . S
H818 C824 0.950 . S
H819 C825 0.950 . S
H820 C826 0.949 . S
C821 H816 0.950 . S
C821 C823 1.327 . S
C821 C827 1.429 . S
C822 C814 1.574 . S
C822 H817 0.949 . S
C822 C828 1.368 . S
C823 C807 1.349 . S
C823 H815 0.950 . S
C823 C821 1.327 . S
C824 C812 1.349 . S
C824 H818 0.950 . S
C824 C825 1.327 . S
C825 H819 0.950 . S
C825 C824 1.327 . S
C825 C829 1.429 . S
C826 C809 1.574 . S
C826 H820 0.949 . S
C826 C830 1.368 . S
C827 C808 1.429 . S
C827 C821 1.429 . S
C827 C828 1.523 . S
C828 C809 1.368 . S
C828 C822 1.368 . S
C828 C827 1.523 . S
C829 C813 1.429 . S
C829 C825 1.429 . S
C829 C830 1.523 . S
C830 C814 1.368 . S
C830 C826 1.368 . S
C830 C829 1.523 . S
H831 C806 0.950 . S
H832 C808 0.950 . S
H833 C809 0.949 . S
H834 C811 0.950 . S
H835 C813 0.950 . S
C836 C837 1.349 . S
C836 C838 1.327 . S
C836 H861 0.950 . S
C837 C836 1.349 . S
C837 C853 1.349 . S
C838 C836 1.327 . S
C838 C857 1.429 . S
C838 H862 0.950 . S
C839 C856 1.574 . S
C839 C858 1.368 . S
C839 H863 0.949 . S
H840 C844 0.949 . S
C841 C842 1.349 . S
C841 C843 1.327 . S
C841 H864 0.950 . S
C842 C841 1.349 . S
C842 C854 1.349 . S
C843 C841 1.327 . S
C843 C859 1.429 . S
C843 H865 0.950 . S
C844 H840 0.949 . S
C844 C852 1.574 . S
C844 C860 1.368 . S
H845 C853 0.950 . S
H846 C851 0.950 . S
H847 C852 0.949 . S
H848 C854 0.950 . S
H849 C855 0.950 . S
H850 C856 0.949 . S
C851 H846 0.950 . S
C851 C853 1.327 . S
C851 C857 1.429 . S
C852 C844 1.574 . S
C852 H847 0.949 . S
C852 C858 1.368 . S
C853 C837 1.349 . S
C853 H845 0.950 . S
C853 C851 1.327 . S
C854 C842 1.349 . S
C854 H848 0.950 . S
C854 C855 1.327 . S
C855 H849 0.950 . S
C855 C854 1.327 . S
C855 C859 1.429 . S
C856 C839 1.574 . S
C856 H850 0.949 . S
C856 C860 1.368 . S
C857 C838 1.429 . S
C857 C851 1.429 . S
C857 C858 1.523 . S
C858 C839 1.368 . S
C858 C852 1.368 . S
C858 C857 1.523 . S
C859 C843 1.429 . S
C859 C855 1.429 . S
C859 C860 1.523 . S
C860 C844 1.368 . S
C860 C856 1.368 . S
C860 C859 1.523 . S
H861 C836 0.950 . S
H862 C838 0.950 . S
H863 C839 0.949 . S
H864 C841 0.950 . S
H865 C843 0.950 . S
C866 C867 1.349 . S
C866 C868 1.327 . S
C866 H891 0.950 . S
C867 C866 1.349 . S
C867 C883 1.349 . S
C868 C866 1.327 . S
C868 C887 1.429 . S
C868 H892 0.950 . S
C869 C886 1.574 . S
C869 C888 1.368 . S
C869 H893 0.949 . S
H870 C874 0.949 . S
C871 C872 1.349 . S
C871 C873 1.327 . S
C871 H894 0.950 . S
C872 C871 1.349 . S
C872 C884 1.349 . S
C873 C871 1.327 . S
C873 C889 1.429 . S
C873 H895 0.950 . S
C874 H870 0.949 . S
C874 C882 1.574 . S
C874 C890 1.368 . S
H875 C883 0.950 . S
H876 C881 0.950 . S
H877 C882 0.949 . S
H878 C884 0.950 . S
H879 C885 0.950 . S
H880 C886 0.949 . S
C881 H876 0.950 . S
C881 C883 1.327 . S
C881 C887 1.429 . S
C882 C874 1.574 . S
C882 H877 0.949 . S
C882 C888 1.368 . S
C883 C867 1.349 . S
C883 H875 0.950 . S
C883 C881 1.327 . S
C884 C872 1.349 . S
C884 H878 0.950 . S
C884 C885 1.327 . S
C885 H879 0.950 . S
C885 C884 1.327 . S
C885 C889 1.429 . S
C886 C869 1.574 . S
C886 H880 0.949 . S
C886 C890 1.368 . S
C887 C868 1.429 . S
C887 C881 1.429 . S
C887 C888 1.523 . S
C888 C869 1.368 . S
C888 C882 1.368 . S
C888 C887 1.523 . S
C889 C873 1.429 . S
C889 C885 1.429 . S
C889 C890 1.523 . S
C890 C874 1.368 . S
C890 C886 1.368 . S
C890 C889 1.523 . S
H891 C866 0.950 . S
H892 C868 0.950 . S
H893 C869 0.949 . S
H894 C871 0.950 . S
H895 C873 0.950 . S
C896 C897 1.349 . S
C896 C898 1.327 . S
C896 H921 0.950 . S
C897 C896 1.349 . S
C897 C913 1.349 . S
C898 C896 1.327 . S
C898 C917 1.429 . S
C898 H922 0.950 . S
C899 C916 1.574 . S
C899 C918 1.368 . S
C899 H923 0.949 . S
H900 C904 0.949 . S
C901 C902 1.351 . S
C901 C903 1.333 . S
C901 H924 0.942 1_655 S
C902 C901 1.351 . S
C902 C914 1.349 . S
C903 C901 1.333 . S
C903 C919 1.429 . S
C903 H925 0.950 . S
C904 H900 0.949 . S
C904 C912 1.574 . S
C904 C920 1.368 . S
H905 C913 0.950 . S
H906 C911 0.950 . S
H907 C912 0.949 . S
H908 C914 0.950 . S
H909 C915 0.950 . S
H910 C916 0.949 . S
C911 H906 0.950 . S
C911 C913 1.327 . S
C911 C917 1.429 . S
C912 C904 1.574 . S
C912 H907 0.949 . S
C912 C918 1.368 . S
C913 C897 1.349 . S
C913 H905 0.950 . S
C913 C911 1.327 . S
C914 C902 1.349 . S
C914 H908 0.950 . S
C914 C915 1.327 . S
C915 H909 0.950 . S
C915 C914 1.327 . S
C915 C919 1.429 . S
C916 C899 1.574 . S
C916 H910 0.949 . S
C916 C920 1.368 . S
C917 C898 1.429 . S
C917 C911 1.429 . S
C917 C918 1.523 . S
C918 C899 1.368 . S
C918 C912 1.368 . S
C918 C917 1.523 . S
C919 C903 1.429 . S
C919 C915 1.429 . S
C919 C920 1.523 . S
C920 C904 1.368 . S
C920 C916 1.368 . S
C920 C919 1.523 . S
H921 C896 0.950 . S
H922 C898 0.950 . S
H923 C899 0.949 . S
H924 C901 0.942 1_455 S
H925 C903 0.950 . S
C926 C927 1.349 . S
C926 C928 1.327 . S
C926 H951 0.950 . S
C927 C926 1.349 . S
C927 C943 1.349 . S
C928 C926 1.327 . S
C928 C947 1.429 . S
C928 H952 0.950 . S
C929 C946 1.574 . S
C929 C948 1.368 . S
C929 H953 0.949 . S
H930 C934 0.949 . S
C931 C932 1.349 . S
C931 C933 1.327 . S
C931 H954 0.950 . S
C932 C931 1.349 . S
C932 C944 1.349 . S
C933 C931 1.327 . S
C933 C949 1.429 . S
C933 H955 0.950 . S
C934 H930 0.949 . S
C934 C942 1.574 . S
C934 C950 1.368 . S
H935 C943 0.950 . S
H936 C941 0.950 . S
H937 C942 0.949 . S
H938 C944 0.950 . S
H939 C945 0.950 . S
H940 C946 0.949 . S
C941 H936 0.950 . S
C941 C943 1.327 . S
C941 C947 1.429 . S
C942 C934 1.574 . S
C942 H937 0.949 . S
C942 C948 1.368 . S
C943 C927 1.349 . S
C943 H935 0.950 . S
C943 C941 1.327 . S
C944 C932 1.349 . S
C944 H938 0.950 . S
C944 C945 1.327 . S
C945 H939 0.950 . S
C945 C944 1.327 . S
C945 C949 1.429 . S
C946 C929 1.574 . S
C946 H940 0.949 . S
C946 C950 1.368 . S
C947 C928 1.429 . S
C947 C941 1.429 . S
C947 C948 1.523 . S
C948 C929 1.368 . S
C948 C942 1.368 . S
C948 C947 1.523 . S
C949 C933 1.429 . S
C949 C945 1.429 . S
C949 C950 1.523 . S
C950 C934 1.368 . S
C950 C946 1.368 . S
C950 C949 1.523 . S
H951 C926 0.950 . S
H952 C928 0.950 . S
H953 C929 0.949 . S
H954 C931 0.950 . S
H955 C933 0.950 . S
C956 C957 1.349 . S
C956 C958 1.327 . S
C956 H981 0.950 . S
C957 C956 1.349 . S
C957 C973 1.349 1_545 S
C958 C956 1.327 . S
C958 C977 1.429 . S
C958 H982 0.950 . S
C959 C976 1.570 1_565 S
C959 C978 1.354 1_565 S
C959 H983 0.965 . S
H960 C964 0.949 . S
C961 C962 1.349 . S
C961 C963 1.327 . S
C961 H984 0.950 1_545 S
C962 C961 1.349 . S
C962 C974 1.349 . S
C963 C961 1.327 . S
C963 C979 1.429 . S
C963 H985 0.950 1_545 S
C964 H960 0.949 . S
C964 C972 1.574 . S
C964 C980 1.368 . S
H965 C973 0.950 . S
H966 C971 0.950 . S
H967 C972 0.949 . S
H968 C974 0.950 . S
H969 C975 0.950 . S
H970 C976 0.949 1_565 S
C971 H966 0.950 . S
C971 C973 1.327 . S
C971 C977 1.429 1_565 S
C972 C964 1.574 . S
C972 H967 0.949 . S
C972 C978 1.368 . S
C973 C957 1.349 1_565 S
C973 H965 0.950 . S
C973 C971 1.327 . S
C974 C962 1.349 . S
C974 H968 0.950 . S
C974 C975 1.327 . S
C975 H969 0.950 . S
C975 C974 1.327 . S
C975 C979 1.429 . S
C976 C959 1.570 1_545 S
C976 H970 0.949 1_545 S
C976 C980 1.368 . S
C977 C958 1.429 . S
C977 C971 1.429 1_545 S
C977 C978 1.523 . S
C978 C959 1.354 1_545 S
C978 C972 1.368 . S
C978 C977 1.523 . S
C979 C963 1.429 . S
C979 C975 1.429 . S
C979 C980 1.523 . S
C980 C964 1.368 . S
C980 C976 1.368 . S
C980 C979 1.523 . S
H981 C956 0.950 . S
H982 C958 0.950 . S
H983 C959 0.965 . S
H984 C961 0.950 1_565 S
H985 C963 0.950 1_565 S
C986 C987 1.349 . S
C986 C988 1.327 . S
C986 H1011 0.950 . S
C987 C986 1.349 . S
C987 C1003 1.349 . S
C988 C986 1.327 . S
C988 C1007 1.429 . S
C988 H1012 0.950 . S
C989 C1006 1.574 . S
C989 C1008 1.368 . S
C989 H1013 0.949 . S
H990 C994 0.949 . S
C991 C992 1.349 . S
C991 C993 1.327 . S
C991 H1014 0.950 . S
C992 C991 1.349 . S
C992 C1004 1.349 . S
C993 C991 1.327 . S
C993 C1009 1.429 . S
C993 H1015 0.950 . S
C994 H990 0.949 . S
C994 C1002 1.574 . S
C994 C1010 1.368 . S
H995 C1003 0.950 . S
H996 C1001 0.950 . S
H997 C1002 0.949 . S
H998 C1004 0.950 . S
H999 C1005 0.950 . S
H1000 C1006 0.949 . S
C1001 H996 0.950 . S
C1001 C1003 1.327 . S
C1001 C1007 1.429 . S
C1002 C994 1.574 . S
C1002 H997 0.949 . S
C1002 C1008 1.368 . S
C1003 C987 1.349 . S
C1003 H995 0.950 . S
C1003 C1001 1.327 . S
C1004 C992 1.349 . S
C1004 H998 0.950 . S
C1004 C1005 1.327 . S
C1005 H999 0.950 . S
C1005 C1004 1.327 . S
C1005 C1009 1.429 . S
C1006 C989 1.574 . S
C1006 H1000 0.949 . S
C1006 C1010 1.368 . S
C1007 C988 1.429 . S
C1007 C1001 1.429 . S
C1007 C1008 1.523 . S
C1008 C989 1.368 . S
C1008 C1002 1.368 . S
C1008 C1007 1.523 . S
C1009 C993 1.429 . S
C1009 C1005 1.429 . S
C1009 C1010 1.523 . S
C1010 C994 1.368 . S
C1010 C1006 1.368 . S
C1010 C1009 1.523 . S
H1011 C986 0.950 . S
H1012 C988 0.950 . S
H1013 C989 0.949 . S
H1014 C991 0.950 . S
H1015 C993 0.950 . S
C1016 C1017 1.349 . S
C1016 C1018 1.327 . S
C1016 H1041 0.950 . S
C1017 C1016 1.349 . S
C1017 C1033 1.349 . S
C1018 C1016 1.327 . S
C1018 C1037 1.429 . S
C1018 H1042 0.950 . S
C1019 C1036 1.574 . S
C1019 C1038 1.368 . S
C1019 H1043 0.949 . S
H1020 C1024 0.949 . S
C1021 C1022 1.349 . S
C1021 C1023 1.327 . S
C1021 H1044 0.950 . S
C1022 C1021 1.349 . S
C1022 C1034 1.349 . S
C1023 C1021 1.327 . S
C1023 C1039 1.429 . S
C1023 H1045 0.950 . S
C1024 H1020 0.949 . S
C1024 C1032 1.574 . S
C1024 C1040 1.368 . S
H1025 C1033 0.950 . S
H1026 C1031 0.950 . S
H1027 C1032 0.949 . S
H1028 C1034 0.950 1_455 S
H1029 C1035 0.950 . S
H1030 C1036 0.949 . S
C1031 H1026 0.950 . S
C1031 C1033 1.327 . S
C1031 C1037 1.429 . S
C1032 C1024 1.574 . S
C1032 H1027 0.949 . S
C1032 C1038 1.368 . S
C1033 C1017 1.349 . S
C1033 H1025 0.950 . S
C1033 C1031 1.327 . S
C1034 C1022 1.349 . S
C1034 H1028 0.950 1_655 S
C1034 C1035 1.327 . S
C1035 H1029 0.950 . S
C1035 C1034 1.327 . S
C1035 C1039 1.429 . S
C1036 C1019 1.574 . S
C1036 H1030 0.949 . S
C1036 C1040 1.368 . S
C1037 C1018 1.429 . S
C1037 C1031 1.429 . S
C1037 C1038 1.523 . S
C1038 C1019 1.368 . S
C1038 C1032 1.368 . S
C1038 C1037 1.523 . S
C1039 C1023 1.429 . S
C1039 C1035 1.429 . S
C1039 C1040 1.523 . S
C1040 C1024 1.368 . S
C1040 C1036 1.368 . S
C1040 C1039 1.523 . S
H1041 C1016 0.950 . S
H1042 C1018 0.950 . S
H1043 C1019 0.949 . S
H1044 C1021 0.950 . S
H1045 C1023 0.950 . S
C1046 C1047 1.349 . S
C1046 C1048 1.327 . S
C1046 H1071 0.950 . S
C1047 C1046 1.349 . S
C1047 C1063 1.349 . S
C1048 C1046 1.327 . S
C1048 C1067 1.429 . S
C1048 H1072 0.950 . S
C1049 C1066 1.574 . S
C1049 C1068 1.368 . S
C1049 H1073 0.949 . S
H1050 C1054 0.949 . S
C1051 C1052 1.349 . S
C1051 C1053 1.327 . S
C1051 H1074 0.950 . S
C1052 C1051 1.349 . S
C1052 C1064 1.349 . S
C1053 C1051 1.327 . S
C1053 C1069 1.429 . S
C1053 H1075 0.950 . S
C1054 H1050 0.949 . S
C1054 C1062 1.574 . S
C1054 C1070 1.368 . S
H1055 C1063 0.950 . S
H1056 C1061 0.950 . S
H1057 C1062 0.949 . S
H1058 C1064 0.950 . S
H1059 C1065 0.950 . S
H1060 C1066 0.949 . S
C1061 H1056 0.950 . S
C1061 C1063 1.327 . S
C1061 C1067 1.429 . S
C1062 C1054 1.574 . S
C1062 H1057 0.949 . S
C1062 C1068 1.368 . S
C1063 C1047 1.349 . S
C1063 H1055 0.950 . S
C1063 C1061 1.327 . S
C1064 C1052 1.349 . S
C1064 H1058 0.950 . S
C1064 C1065 1.327 . S
C1065 H1059 0.950 . S
C1065 C1064 1.327 . S
C1065 C1069 1.429 . S
C1066 C1049 1.574 . S
C1066 H1060 0.949 . S
C1066 C1070 1.368 . S
C1067 C1048 1.429 . S
C1067 C1061 1.429 . S
C1067 C1068 1.523 . S
C1068 C1049 1.368 . S
C1068 C1062 1.368 . S
C1068 C1067 1.523 . S
C1069 C1053 1.429 . S
C1069 C1065 1.429 . S
C1069 C1070 1.523 . S
C1070 C1054 1.368 . S
C1070 C1066 1.368 . S
C1070 C1069 1.523 . S
H1071 C1046 0.950 . S
H1072 C1048 0.950 . S
H1073 C1049 0.949 . S
H1074 C1051 0.950 . S
H1075 C1053 0.950 . S
C1076 C1077 1.349 . S
C1076 C1078 1.327 . S
C1076 H1101 0.950 . S
C1077 C1076 1.349 . S
C1077 C1093 1.349 . S
C1078 C1076 1.327 . S
C1078 C1097 1.429 . S
C1078 H1102 0.950 . S
C1079 C1096 1.574 . S
C1079 C1098 1.368 . S
C1079 H1103 0.949 . S
H1080 C1084 0.949 . S
C1081 C1082 1.349 . S
C1081 C1083 1.327 . S
C1081 H1104 0.950 . S
C1082 C1081 1.349 . S
C1082 C1094 1.349 . S
C1083 C1081 1.327 . S
C1083 C1099 1.429 . S
C1083 H1105 0.950 . S
C1084 H1080 0.949 . S
C1084 C1092 1.574 . S
C1084 C1100 1.368 . S
H1085 C1093 0.950 1_565 S
H1086 C1091 0.950 1_565 S
H1087 C1092 0.949 . S
H1088 C1094 0.950 . S
H1089 C1095 0.950 . S
H1090 C1096 0.949 . S
C1091 H1086 0.950 1_545 S
C1091 C1093 1.327 . S
C1091 C1097 1.429 . S
C1092 C1084 1.574 . S
C1092 H1087 0.949 . S
C1092 C1098 1.368 . S
C1093 C1077 1.349 . S
C1093 H1085 0.950 1_545 S
C1093 C1091 1.327 . S
C1094 C1082 1.349 . S
C1094 H1088 0.950 . S
C1094 C1095 1.327 . S
C1095 H1089 0.950 . S
C1095 C1094 1.327 . S
C1095 C1099 1.429 . S
C1096 C1079 1.574 . S
C1096 H1090 0.949 . S
C1096 C1100 1.368 . S
C1097 C1078 1.429 . S
C1097 C1091 1.429 . S
C1097 C1098 1.523 . S
C1098 C1079 1.368 . S
C1098 C1092 1.368 . S
C1098 C1097 1.523 . S
C1099 C1083 1.429 . S
C1099 C1095 1.429 . S
C1099 C1100 1.523 . S
C1100 C1084 1.368 . S
C1100 C1096 1.368 . S
C1100 C1099 1.523 . S
H1101 C1076 0.950 . S
H1102 C1078 0.950 . S
H1103 C1079 0.949 . S
H1104 C1081 0.950 . S
H1105 C1083 0.950 . S
C1106 C1107 1.349 . S
C1106 C1108 1.327 . S
C1106 H1131 0.950 . S
C1107 C1106 1.349 . S
C1107 C1123 1.349 . S
C1108 C1106 1.327 . S
C1108 C1127 1.429 . S
C1108 H1132 0.950 . S
C1109 C1126 1.574 . S
C1109 C1128 1.368 . S
C1109 H1133 0.949 . S
H1110 C1114 0.949 . S
C1111 C1112 1.349 . S
C1111 C1113 1.327 . S
C1111 H1134 0.950 . S
C1112 C1111 1.349 . S
C1112 C1124 1.349 . S
C1113 C1111 1.327 . S
C1113 C1129 1.429 . S
C1113 H1135 0.950 . S
C1114 H1110 0.949 . S
C1114 C1122 1.574 . S
C1114 C1130 1.368 . S
H1115 C1123 0.950 . S
H1116 C1121 0.950 . S
H1117 C1122 0.949 . S
H1118 C1124 0.950 . S
H1119 C1125 0.950 . S
H1120 C1126 0.949 . S
C1121 H1116 0.950 . S
C1121 C1123 1.327 . S
C1121 C1127 1.429 . S
C1122 C1114 1.574 . S
C1122 H1117 0.949 . S
C1122 C1128 1.368 . S
C1123 C1107 1.349 . S
C1123 H1115 0.950 . S
C1123 C1121 1.327 . S
C1124 C1112 1.349 . S
C1124 H1118 0.950 . S
C1124 C1125 1.327 . S
C1125 H1119 0.950 . S
C1125 C1124 1.327 . S
C1125 C1129 1.429 . S
C1126 C1109 1.574 . S
C1126 H1120 0.949 . S
C1126 C1130 1.368 . S
C1127 C1108 1.429 . S
C1127 C1121 1.429 . S
C1127 C1128 1.523 . S
C1128 C1109 1.368 . S
C1128 C1122 1.368 . S
C1128 C1127 1.523 . S
C1129 C1113 1.429 . S
C1129 C1125 1.429 . S
C1129 C1130 1.523 . S
C1130 C1114 1.368 . S
C1130 C1126 1.368 . S
C1130 C1129 1.523 . S
H1131 C1106 0.950 . S
H1132 C1108 0.950 . S
H1133 C1109 0.949 . S
H1134 C1111 0.950 . S
H1135 C1113 0.950 . S
C1136 C1137 1.349 . S
C1136 C1138 1.327 . S
C1136 H1161 0.950 . S
C1137 C1136 1.349 . S
C1137 C1153 1.349 . S
C1138 C1136 1.327 . S
C1138 C1157 1.429 . S
C1138 H1162 0.950 . S
C1139 C1156 1.574 . S
C1139 C1158 1.368 . S
C1139 H1163 0.949 . S
H1140 C1144 0.949 . S
C1141 C1142 1.349 1_565 S
C1141 C1143 1.327 . S
C1141 H1164 0.950 . S
C1142 C1141 1.349 1_545 S
C1142 C1154 1.349 . S
C1143 C1141 1.327 . S
C1143 C1159 1.429 . S
C1143 H1165 0.950 . S
C1144 H1140 0.949 . S
C1144 C1152 1.574 . S
C1144 C1160 1.368 . S
H1145 C1153 0.950 . S
H1146 C1151 0.950 . S
H1147 C1152 0.949 . S
H1148 C1154 0.950 . S
H1149 C1155 0.950 . S
H1150 C1156 0.949 . S
C1151 H1146 0.950 . S
C1151 C1153 1.327 . S
C1151 C1157 1.429 . S
C1152 C1144 1.574 . S
C1152 H1147 0.949 . S
C1152 C1158 1.368 . S
C1153 C1137 1.349 . S
C1153 H1145 0.950 . S
C1153 C1151 1.327 . S
C1154 C1142 1.349 . S
C1154 H1148 0.950 . S
C1154 C1155 1.327 . S
C1155 H1149 0.950 . S
C1155 C1154 1.327 . S
C1155 C1159 1.429 1_545 S
C1156 C1139 1.574 . S
C1156 H1150 0.949 . S
C1156 C1160 1.368 . S
C1157 C1138 1.429 . S
C1157 C1151 1.429 . S
C1157 C1158 1.523 . S
C1158 C1139 1.368 . S
C1158 C1152 1.368 . S
C1158 C1157 1.523 . S
C1159 C1143 1.429 . S
C1159 C1155 1.429 1_565 S
C1159 C1160 1.523 . S
C1160 C1144 1.368 . S
C1160 C1156 1.368 . S
C1160 C1159 1.523 . S
H1161 C1136 0.950 . S
H1162 C1138 0.950 . S
H1163 C1139 0.949 . S
H1164 C1141 0.950 . S
H1165 C1143 0.950 . S
C1166 C1167 1.349 . S
C1166 C1168 1.327 . S
C1166 H1191 0.950 . S
C1167 C1166 1.349 . S
C1167 C1183 1.349 1_554 S
C1168 C1166 1.327 . S
C1168 C1187 1.429 . S
C1168 H1192 0.950 . S
C1169 C1186 1.574 . S
C1169 C1188 1.368 1_556 S
C1169 H1193 0.949 . S
H1170 C1174 0.949 . S
C1171 C1172 1.334 1_556 S
C1171 C1173 1.336 . S
C1171 H1194 0.959 . S
C1172 C1171 1.334 1_554 S
C1172 C1184 1.349 . S
C1173 C1171 1.336 . S
C1173 C1189 1.429 1_556 S
C1173 H1195 0.950 . S
C1174 H1170 0.949 . S
C1174 C1182 1.574 . S
C1174 C1190 1.368 . S
H1175 C1183 0.950 . S
H1176 C1181 0.950 . S
H1177 C1182 0.949 . S
H1178 C1184 0.950 . S
H1179 C1185 0.950 . S
H1180 C1186 0.949 . S
C1181 H1176 0.950 . S
C1181 C1183 1.327 . S
C1181 C1187 1.429 1_556 S
C1182 C1174 1.574 . S
C1182 H1177 0.949 . S
C1182 C1188 1.368 . S
C1183 C1167 1.349 1_556 S
C1183 H1175 0.950 . S
C1183 C1181 1.327 . S
C1184 C1172 1.349 . S
C1184 H1178 0.950 . S
C1184 C1185 1.327 . S
C1185 H1179 0.950 . S
C1185 C1184 1.327 . S
C1185 C1189 1.429 . S
C1186 C1169 1.574 . S
C1186 H1180 0.949 . S
C1186 C1190 1.368 1_556 S
C1187 C1168 1.429 . S
C1187 C1181 1.429 1_554 S
C1187 C1188 1.523 . S
C1188 C1169 1.368 1_554 S
C1188 C1182 1.368 . S
C1188 C1187 1.523 . S
C1189 C1173 1.429 1_554 S
C1189 C1185 1.429 . S
C1189 C1190 1.523 . S
C1190 C1174 1.368 . S
C1190 C1186 1.368 1_554 S
C1190 C1189 1.523 . S
H1191 C1166 0.950 . S
H1192 C1168 0.950 . S
H1193 C1169 0.949 . S
H1194 C1171 0.959 . S
H1195 C1173 0.950 . S
C1196 C1197 1.349 . S
C1196 C1198 1.327 . S
C1196 H1221 0.950 . S
C1197 C1196 1.349 . S
C1197 C1213 1.349 . S
C1198 C1196 1.327 . S
C1198 C1217 1.429 . S
C1198 H1222 0.950 . S
C1199 C1216 1.574 . S
C1199 C1218 1.368 . S
C1199 H1223 0.949 . S
H1200 C1204 0.949 . S
C1201 C1202 1.349 . S
C1201 C1203 1.327 . S
C1201 H1224 0.950 . S
C1202 C1201 1.349 . S
C1202 C1214 1.349 . S
C1203 C1201 1.327 . S
C1203 C1219 1.429 . S
C1203 H1225 0.950 . S
C1204 H1200 0.949 . S
C1204 C1212 1.574 . S
C1204 C1220 1.368 . S
H1205 C1213 0.950 . S
H1206 C1211 0.950 . S
H1207 C1212 0.949 . S
H1208 C1214 0.950 . S
H1209 C1215 0.950 . S
H1210 C1216 0.949 . S
C1211 H1206 0.950 . S
C1211 C1213 1.327 . S
C1211 C1217 1.429 . S
C1212 C1204 1.574 . S
C1212 H1207 0.949 . S
C1212 C1218 1.368 . S
C1213 C1197 1.349 . S
C1213 H1205 0.950 . S
C1213 C1211 1.327 . S
C1214 C1202 1.349 . S
C1214 H1208 0.950 . S
C1214 C1215 1.327 . S
C1215 H1209 0.950 . S
C1215 C1214 1.327 . S
C1215 C1219 1.429 . S
C1216 C1199 1.574 . S
C1216 H1210 0.949 . S
C1216 C1220 1.368 . S
C1217 C1198 1.429 . S
C1217 C1211 1.429 . S
C1217 C1218 1.523 . S
C1218 C1199 1.368 . S
C1218 C1212 1.368 . S
C1218 C1217 1.523 . S
C1219 C1203 1.429 . S
C1219 C1215 1.429 . S
C1219 C1220 1.523 . S
C1220 C1204 1.368 . S
C1220 C1216 1.368 . S
C1220 C1219 1.523 . S
H1221 C1196 0.950 . S
H1222 C1198 0.950 . S
H1223 C1199 0.949 . S
H1224 C1201 0.950 . S
H1225 C1203 0.950 . S
C1226 C1227 1.349 . S
C1226 C1228 1.327 . S
C1226 H1251 0.950 . S
C1227 C1226 1.349 . S
C1227 C1243 1.349 . S
C1228 C1226 1.327 . S
C1228 C1247 1.429 . S
C1228 H1252 0.950 . S
C1229 C1246 1.574 . S
C1229 C1248 1.368 . S
C1229 H1253 0.949 . S
H1230 C1234 0.949 . S
C1231 C1232 1.349 . S
C1231 C1233 1.327 . S
C1231 H1254 0.950 . S
C1232 C1231 1.349 . S
C1232 C1244 1.349 . S
C1233 C1231 1.327 . S
C1233 C1249 1.429 . S
C1233 H1255 0.950 . S
C1234 H1230 0.949 . S
C1234 C1242 1.574 . S
C1234 C1250 1.368 . S
H1235 C1243 0.950 . S
H1236 C1241 0.950 . S
H1237 C1242 0.949 . S
H1238 C1244 0.950 . S
H1239 C1245 0.950 . S
H1240 C1246 0.949 . S
C1241 H1236 0.950 . S
C1241 C1243 1.327 . S
C1241 C1247 1.429 . S
C1242 C1234 1.574 . S
C1242 H1237 0.949 . S
C1242 C1248 1.368 . S
C1243 C1227 1.349 . S
C1243 H1235 0.950 . S
C1243 C1241 1.327 . S
C1244 C1232 1.349 . S
C1244 H1238 0.950 . S
C1244 C1245 1.327 . S
C1245 H1239 0.950 . S
C1245 C1244 1.327 . S
C1245 C1249 1.429 . S
C1246 C1229 1.574 . S
C1246 H1240 0.949 . S
C1246 C1250 1.368 . S
C1247 C1228 1.429 . S
C1247 C1241 1.429 . S
C1247 C1248 1.523 . S
C1248 C1229 1.368 . S
C1248 C1242 1.368 . S
C1248 C1247 1.523 . S
C1249 C1233 1.429 . S
C1249 C1245 1.429 . S
C1249 C1250 1.523 . S
C1250 C1234 1.368 . S
C1250 C1246 1.368 . S
C1250 C1249 1.523 . S
H1251 C1226 0.950 . S
H1252 C1228 0.950 . S
H1253 C1229 0.949 . S
H1254 C1231 0.950 . S
H1255 C1233 0.950 . S
C1256 C1257 1.349 . S
C1256 C1258 1.327 . S
C1256 H1281 0.950 . S
C1257 C1256 1.349 . S
C1257 C1273 1.349 . S
C1258 C1256 1.327 . S
C1258 C1277 1.429 . S
C1258 H1282 0.950 . S
C1259 C1276 1.574 . S
C1259 C1278 1.368 . S
C1259 H1283 0.949 . S
H1260 C1264 0.949 . S
C1261 C1262 1.349 . S
C1261 C1263 1.327 . S
C1261 H1284 0.950 . S
C1262 C1261 1.349 . S
C1262 C1274 1.349 . S
C1263 C1261 1.327 . S
C1263 C1279 1.429 . S
C1263 H1285 0.950 . S
C1264 H1260 0.949 . S
C1264 C1272 1.574 . S
C1264 C1280 1.368 . S
H1265 C1273 0.950 . S
H1266 C1271 0.950 . S
H1267 C1272 0.949 . S
H1268 C1274 0.950 . S
H1269 C1275 0.950 . S
H1270 C1276 0.949 . S
C1271 H1266 0.950 . S
C1271 C1273 1.327 . S
C1271 C1277 1.429 . S
C1272 C1264 1.574 . S
C1272 H1267 0.949 . S
C1272 C1278 1.368 . S
C1273 C1257 1.349 . S
C1273 H1265 0.950 . S
C1273 C1271 1.327 . S
C1274 C1262 1.349 . S
C1274 H1268 0.950 . S
C1274 C1275 1.327 . S
C1275 H1269 0.950 . S
C1275 C1274 1.327 . S
C1275 C1279 1.429 . S
C1276 C1259 1.574 . S
C1276 H1270 0.949 . S
C1276 C1280 1.368 . S
C1277 C1258 1.429 . S
C1277 C1271 1.429 . S
C1277 C1278 1.523 . S
C1278 C1259 1.368 . S
C1278 C1272 1.368 . S
C1278 C1277 1.523 . S
C1279 C1263 1.429 . S
C1279 C1275 1.429 . S
C1279 C1280 1.523 . S
C1280 C1264 1.368 . S
C1280 C1276 1.368 . S
C1280 C1279 1.523 . S
H1281 C1256 0.950 . S
H1282 C1258 0.950 . S
H1283 C1259 0.949 . S
H1284 C1261 0.950 . S
H1285 C1263 0.950 . S
C1286 C1287 1.349 . S
C1286 C1288 1.327 . S
C1286 H1311 0.950 . S
C1287 C1286 1.349 . S
C1287 C1303 1.349 . S
C1288 C1286 1.327 . S
C1288 C1307 1.429 . S
C1288 H1312 0.950 . S
C1289 C1306 1.574 . S
C1289 C1308 1.368 . S
C1289 H1313 0.949 . S
H1290 C1294 0.949 . S
C1291 C1292 1.349 . S
C1291 C1293 1.327 . S
C1291 H1314 0.950 . S
C1292 C1291 1.349 . S
C1292 C1304 1.349 . S
C1293 C1291 1.327 . S
C1293 C1309 1.429 . S
C1293 H1315 0.950 . S
C1294 H1290 0.949 . S
C1294 C1302 1.574 . S
C1294 C1310 1.368 . S
H1295 C1303 0.950 . S
H1296 C1301 0.950 . S
H1297 C1302 0.949 . S
H1298 C1304 0.950 . S
H1299 C1305 0.950 . S
H1300 C1306 0.949 . S
C1301 H1296 0.950 . S
C1301 C1303 1.327 . S
C1301 C1307 1.429 . S
C1302 C1294 1.574 . S
C1302 H1297 0.949 . S
C1302 C1308 1.368 . S
C1303 C1287 1.349 . S
C1303 H1295 0.950 . S
C1303 C1301 1.327 . S
C1304 C1292 1.349 . S
C1304 H1298 0.950 . S
C1304 C1305 1.327 . S
C1305 H1299 0.950 . S
C1305 C1304 1.327 . S
C1305 C1309 1.429 . S
C1306 C1289 1.574 . S
C1306 H1300 0.949 . S
C1306 C1310 1.368 . S
C1307 C1288 1.429 . S
C1307 C1301 1.429 . S
C1307 C1308 1.523 . S
C1308 C1289 1.368 . S
C1308 C1302 1.368 . S
C1308 C1307 1.523 . S
C1309 C1293 1.429 . S
C1309 C1305 1.429 . S
C1309 C1310 1.523 . S
C1310 C1294 1.368 . S
C1310 C1306 1.368 . S
C1310 C1309 1.523 . S
H1311 C1286 0.950 . S
H1312 C1288 0.950 . S
H1313 C1289 0.949 . S
H1314 C1291 0.950 . S
H1315 C1293 0.950 . S
C1316 C1317 1.349 . S
C1316 C1318 1.327 . S
C1316 H1341 0.950 . S
C1317 C1316 1.349 . S
C1317 C1333 1.349 . S
C1318 C1316 1.327 . S
C1318 C1337 1.429 . S
C1318 H1342 0.950 . S
C1319 C1336 1.574 . S
C1319 C1338 1.368 . S
C1319 H1343 0.949 . S
H1320 C1324 0.949 . S
C1321 C1322 1.349 . S
C1321 C1323 1.327 . S
C1321 H1344 0.950 . S
C1322 C1321 1.349 . S
C1322 C1334 1.349 . S
C1323 C1321 1.327 . S
C1323 C1339 1.429 . S
C1323 H1345 0.950 . S
C1324 H1320 0.949 . S
C1324 C1332 1.574 . S
C1324 C1340 1.368 . S
H1325 C1333 0.950 . S
H1326 C1331 0.950 . S
H1327 C1332 0.949 . S
H1328 C1334 0.950 . S
H1329 C1335 0.950 . S
H1330 C1336 0.949 . S
C1331 H1326 0.950 . S
C1331 C1333 1.327 . S
C1331 C1337 1.429 . S
C1332 C1324 1.574 . S
C1332 H1327 0.949 . S
C1332 C1338 1.368 . S
C1333 C1317 1.349 . S
C1333 H1325 0.950 . S
C1333 C1331 1.327 . S
C1334 C1322 1.349 . S
C1334 H1328 0.950 . S
C1334 C1335 1.327 . S
C1335 H1329 0.950 . S
C1335 C1334 1.327 . S
C1335 C1339 1.429 . S
C1336 C1319 1.574 . S
C1336 H1330 0.949 . S
C1336 C1340 1.368 . S
C1337 C1318 1.429 . S
C1337 C1331 1.429 . S
C1337 C1338 1.523 . S
C1338 C1319 1.368 . S
C1338 C1332 1.368 . S
C1338 C1337 1.523 . S
C1339 C1323 1.429 . S
C1339 C1335 1.429 . S
C1339 C1340 1.523 . S
C1340 C1324 1.368 . S
C1340 C1336 1.368 . S
C1340 C1339 1.523 . S
H1341 C1316 0.950 . S
H1342 C1318 0.950 . S
H1343 C1319 0.949 . S
H1344 C1321 0.950 . S
H1345 C1323 0.950 . S
C1346 C1347 1.349 . S
C1346 C1348 1.327 . S
C1346 H1371 0.950 . S
C1347 C1346 1.349 . S
C1347 C1363 1.349 . S
C1348 C1346 1.327 . S
C1348 C1367 1.429 . S
C1348 H1372 0.950 . S
C1349 C1366 1.574 . S
C1349 C1368 1.368 . S
C1349 H1373 0.949 . S
H1350 C1354 0.949 . S
C1351 C1352 1.349 . S
C1351 C1353 1.327 . S
C1351 H1374 0.950 . S
C1352 C1351 1.349 . S
C1352 C1364 1.349 . S
C1353 C1351 1.327 . S
C1353 C1369 1.429 . S
C1353 H1375 0.950 . S
C1354 H1350 0.949 . S
C1354 C1362 1.574 . S
C1354 C1370 1.368 . S
H1355 C1363 0.950 . S
H1356 C1361 0.950 . S
H1357 C1362 0.949 . S
H1358 C1364 0.950 . S
H1359 C1365 0.950 . S
H1360 C1366 0.949 . S
C1361 H1356 0.950 . S
C1361 C1363 1.327 . S
C1361 C1367 1.429 . S
C1362 C1354 1.574 . S
C1362 H1357 0.949 . S
C1362 C1368 1.368 . S
C1363 C1347 1.349 . S
C1363 H1355 0.950 . S
C1363 C1361 1.327 . S
C1364 C1352 1.349 . S
C1364 H1358 0.950 . S
C1364 C1365 1.327 . S
C1365 H1359 0.950 . S
C1365 C1364 1.327 . S
C1365 C1369 1.429 . S
C1366 C1349 1.574 . S
C1366 H1360 0.949 . S
C1366 C1370 1.368 . S
C1367 C1348 1.429 . S
C1367 C1361 1.429 . S
C1367 C1368 1.523 . S
C1368 C1349 1.368 . S
C1368 C1362 1.368 . S
C1368 C1367 1.523 . S
C1369 C1353 1.429 . S
C1369 C1365 1.429 . S
C1369 C1370 1.523 . S
C1370 C1354 1.368 . S
C1370 C1366 1.368 . S
C1370 C1369 1.523 . S
H1371 C1346 0.950 . S
H1372 C1348 0.950 . S
H1373 C1349 0.949 . S
H1374 C1351 0.950 . S
H1375 C1353 0.950 . S
C1376 C1377 1.349 . S
C1376 C1378 1.327 . S
C1376 H1401 0.950 . S
C1377 C1376 1.349 . S
C1377 C1393 1.349 1_455 S
C1378 C1376 1.327 . S
C1378 C1397 1.429 . S
C1378 H1402 0.950 . S
C1379 C1396 1.574 . S
C1379 C1398 1.368 1_655 S
C1379 H1403 0.949 . S
H1380 C1384 0.949 . S
C1381 C1382 1.349 1_655 S
C1381 C1383 1.327 . S
C1381 H1404 0.950 . S
C1382 C1381 1.349 1_455 S
C1382 C1394 1.349 . S
C1383 C1381 1.327 . S
C1383 C1399 1.429 1_655 S
C1383 H1405 0.950 . S
C1384 H1380 0.949 . S
C1384 C1392 1.574 . S
C1384 C1400 1.368 . S
H1385 C1393 0.950 . S
H1386 C1391 0.950 . S
H1387 C1392 0.949 . S
H1388 C1394 0.950 . S
H1389 C1395 0.950 . S
H1390 C1396 0.949 . S
C1391 H1386 0.950 . S
C1391 C1393 1.327 . S
C1391 C1397 1.429 1_655 S
C1392 C1384 1.574 . S
C1392 H1387 0.949 . S
C1392 C1398 1.368 . S
C1393 C1377 1.349 1_655 S
C1393 H1385 0.950 . S
C1393 C1391 1.327 . S
C1394 C1382 1.349 . S
C1394 H1388 0.950 . S
C1394 C1395 1.327 . S
C1395 H1389 0.950 . S
C1395 C1394 1.327 . S
C1395 C1399 1.429 . S
C1396 C1379 1.574 . S
C1396 H1390 0.949 . S
C1396 C1400 1.368 1_655 S
C1397 C1378 1.429 . S
C1397 C1391 1.429 1_455 S
C1397 C1398 1.523 . S
C1398 C1379 1.368 1_455 S
C1398 C1392 1.368 . S
C1398 C1397 1.523 . S
C1399 C1383 1.429 1_455 S
C1399 C1395 1.429 . S
C1399 C1400 1.523 . S
C1400 C1384 1.368 . S
C1400 C1396 1.368 1_455 S
C1400 C1399 1.523 . S
H1401 C1376 0.950 . S
H1402 C1378 0.950 . S
H1403 C1379 0.949 . S
H1404 C1381 0.950 . S
H1405 C1383 0.950 . S
C1406 C1407 1.349 . S
C1406 C1408 1.327 . S
C1406 H1431 0.950 . S
C1407 C1406 1.349 . S
C1407 C1423 1.349 . S
C1408 C1406 1.327 . S
C1408 C1427 1.429 . S
C1408 H1432 0.950 . S
C1409 C1426 1.574 . S
C1409 C1428 1.368 . S
C1409 H1433 0.949 . S
H1410 C1414 0.949 . S
C1411 C1412 1.349 . S
C1411 C1413 1.327 . S
C1411 H1434 0.950 . S
C1412 C1411 1.349 . S
C1412 C1424 1.349 . S
C1413 C1411 1.327 . S
C1413 C1429 1.429 . S
C1413 H1435 0.950 . S
C1414 H1410 0.949 . S
C1414 C1422 1.574 . S
C1414 C1430 1.368 . S
H1415 C1423 0.950 . S
H1416 C1421 0.950 . S
H1417 C1422 0.949 . S
H1418 C1424 0.950 . S
H1419 C1425 0.950 . S
H1420 C1426 0.949 . S
C1421 H1416 0.950 . S
C1421 C1423 1.327 . S
C1421 C1427 1.429 . S
C1422 C1414 1.574 . S
C1422 H1417 0.949 . S
C1422 C1428 1.368 . S
C1423 C1407 1.349 . S
C1423 H1415 0.950 . S
C1423 C1421 1.327 . S
C1424 C1412 1.349 . S
C1424 H1418 0.950 . S
C1424 C1425 1.327 . S
C1425 H1419 0.950 . S
C1425 C1424 1.327 . S
C1425 C1429 1.429 . S
C1426 C1409 1.574 . S
C1426 H1420 0.949 . S
C1426 C1430 1.368 . S
C1427 C1408 1.429 . S
C1427 C1421 1.429 . S
C1427 C1428 1.523 . S
C1428 C1409 1.368 . S
C1428 C1422 1.368 . S
C1428 C1427 1.523 . S
C1429 C1413 1.429 . S
C1429 C1425 1.429 . S
C1429 C1430 1.523 . S
C1430 C1414 1.368 . S
C1430 C1426 1.368 . S
C1430 C1429 1.523 . S
H1431 C1406 0.950 . S
H1432 C1408 0.950 . S
H1433 C1409 0.949 . S
H1434 C1411 0.950 . S
H1435 C1413 0.950 . S
C1436 C1437 1.349 . S
C1436 C1438 1.327 . S
C1436 H1461 0.950 . S
C1437 C1436 1.349 . S
C1437 C1453 1.349 . S
C1438 C1436 1.327 . S
C1438 C1457 1.429 . S
C1438 H1462 0.950 . S
C1439 C1456 1.574 . S
C1439 C1458 1.368 . S
C1439 H1463 0.949 . S
H1440 C1444 0.949 . S
C1441 C1442 1.349 . S
C1441 C1443 1.327 . S
C1441 H1464 0.950 . S
C1442 C1441 1.349 . S
C1442 C1454 1.349 . S
C1443 C1441 1.327 . S
C1443 C1459 1.429 . S
C1443 H1465 0.950 . S
C1444 H1440 0.949 . S
C1444 C1452 1.574 . S
C1444 C1460 1.368 . S
H1445 C1453 0.950 . S
H1446 C1451 0.950 . S
H1447 C1452 0.949 . S
H1448 C1454 0.950 . S
H1449 C1455 0.950 . S
H1450 C1456 0.949 . S
C1451 H1446 0.950 . S
C1451 C1453 1.327 . S
C1451 C1457 1.429 . S
C1452 C1444 1.574 . S
C1452 H1447 0.949 . S
C1452 C1458 1.368 . S
C1453 C1437 1.349 . S
C1453 H1445 0.950 . S
C1453 C1451 1.327 . S
C1454 C1442 1.349 . S
C1454 H1448 0.950 . S
C1454 C1455 1.327 . S
C1455 H1449 0.950 . S
C1455 C1454 1.327 . S
C1455 C1459 1.429 . S
C1456 C1439 1.574 . S
C1456 H1450 0.949 . S
C1456 C1460 1.368 . S
C1457 C1438 1.429 . S
C1457 C1451 1.429 . S
C1457 C1458 1.523 . S
C1458 C1439 1.368 . S
C1458 C1452 1.368 . S
C1458 C1457 1.523 . S
C1459 C1443 1.429 . S
C1459 C1455 1.429 . S
C1459 C1460 1.523 . S
C1460 C1444 1.368 . S
C1460 C1456 1.368 . S
C1460 C1459 1.523 . S
H1461 C1436 0.950 . S
H1462 C1438 0.950 . S
H1463 C1439 0.949 . S
H1464 C1441 0.950 . S
H1465 C1443 0.950 . S
C1466 C1467 1.349 . S
C1466 C1468 1.327 . S
C1466 H1491 0.950 . S
C1467 C1466 1.349 . S
C1467 C1483 1.349 . S
C1468 C1466 1.327 . S
C1468 C1487 1.429 . S
C1468 H1492 0.950 . S
C1469 C1486 1.574 . S
C1469 C1488 1.368 . S
C1469 H1493 0.949 . S
H1470 C1474 0.949 . S
C1471 C1472 1.349 . S
C1471 C1473 1.327 . S
C1471 H1494 0.950 . S
C1472 C1471 1.349 . S
C1472 C1484 1.349 . S
C1473 C1471 1.327 . S
C1473 C1489 1.429 . S
C1473 H1495 0.950 . S
C1474 H1470 0.949 . S
C1474 C1482 1.574 . S
C1474 C1490 1.368 . S
H1475 C1483 0.950 . S
H1476 C1481 0.950 . S
H1477 C1482 0.949 . S
H1478 C1484 0.950 . S
H1479 C1485 0.950 . S
H1480 C1486 0.949 . S
C1481 H1476 0.950 . S
C1481 C1483 1.327 . S
C1481 C1487 1.429 . S
C1482 C1474 1.574 . S
C1482 H1477 0.949 . S
C1482 C1488 1.368 . S
C1483 C1467 1.349 . S
C1483 H1475 0.950 . S
C1483 C1481 1.327 . S
C1484 C1472 1.349 . S
C1484 H1478 0.950 . S
C1484 C1485 1.327 . S
C1485 H1479 0.950 . S
C1485 C1484 1.327 . S
C1485 C1489 1.429 . S
C1486 C1469 1.574 . S
C1486 H1480 0.949 . S
C1486 C1490 1.368 . S
C1487 C1468 1.429 . S
C1487 C1481 1.429 . S
C1487 C1488 1.523 . S
C1488 C1469 1.368 . S
C1488 C1482 1.368 . S
C1488 C1487 1.523 . S
C1489 C1473 1.429 . S
C1489 C1485 1.429 . S
C1489 C1490 1.523 . S
C1490 C1474 1.368 . S
C1490 C1486 1.368 . S
C1490 C1489 1.523 . S
H1491 C1466 0.950 . S
H1492 C1468 0.950 . S
H1493 C1469 0.949 . S
H1494 C1471 0.950 . S
H1495 C1473 0.950 . S
C1496 C1497 1.349 . S
C1496 C1498 1.327 . S
C1496 H1521 0.950 . S
C1497 C1496 1.349 . S
C1497 C1513 1.349 . S
C1498 C1496 1.327 . S
C1498 C1517 1.429 . S
C1498 H1522 0.950 . S
C1499 C1516 1.574 . S
C1499 C1518 1.368 . S
C1499 H1523 0.949 . S
H1500 C1504 0.949 . S
C1501 C1502 1.349 . S
C1501 C1503 1.327 . S
C1501 H1524 0.950 . S
C1502 C1501 1.349 . S
C1502 C1514 1.349 . S
C1503 C1501 1.327 . S
C1503 C1519 1.429 . S
C1503 H1525 0.950 . S
C1504 H1500 0.949 . S
C1504 C1512 1.574 . S
C1504 C1520 1.368 . S
H1505 C1513 0.950 . S
H1506 C1511 0.950 . S
H1507 C1512 0.949 . S
H1508 C1514 0.950 . S
H1509 C1515 0.950 . S
H1510 C1516 0.949 . S
C1511 H1506 0.950 . S
C1511 C1513 1.327 . S
C1511 C1517 1.429 . S
C1512 C1504 1.574 . S
C1512 H1507 0.949 . S
C1512 C1518 1.368 . S
C1513 C1497 1.349 . S
C1513 H1505 0.950 . S
C1513 C1511 1.327 . S
C1514 C1502 1.349 . S
C1514 H1508 0.950 . S
C1514 C1515 1.327 . S
C1515 H1509 0.950 . S
C1515 C1514 1.327 . S
C1515 C1519 1.429 . S
C1516 C1499 1.574 . S
C1516 H1510 0.949 . S
C1516 C1520 1.368 . S
C1517 C1498 1.429 . S
C1517 C1511 1.429 . S
C1517 C1518 1.523 . S
C1518 C1499 1.368 . S
C1518 C1512 1.368 . S
C1518 C1517 1.523 . S
C1519 C1503 1.429 . S
C1519 C1515 1.429 . S
C1519 C1520 1.523 . S
C1520 C1504 1.368 . S
C1520 C1516 1.368 . S
C1520 C1519 1.523 . S
H1521 C1496 0.950 . S
H1522 C1498 0.950 . S
H1523 C1499 0.949 . S
H1524 C1501 0.950 . S
H1525 C1503 0.950 . S
C1526 C1527 1.349 . S
C1526 C1528 1.327 . S
C1526 H1551 0.950 . S
C1527 C1526 1.349 . S
C1527 C1543 1.349 . S
C1528 C1526 1.327 . S
C1528 C1547 1.429 . S
C1528 H1552 0.950 . S
C1529 C1546 1.574 . S
C1529 C1548 1.368 . S
C1529 H1553 0.949 . S
H1530 C1534 0.949 . S
C1531 C1532 1.349 . S
C1531 C1533 1.327 . S
C1531 H1554 0.950 . S
C1532 C1531 1.349 . S
C1532 C1544 1.349 . S
C1533 C1531 1.327 . S
C1533 C1549 1.429 . S
C1533 H1555 0.950 . S
C1534 H1530 0.949 . S
C1534 C1542 1.574 . S
C1534 C1550 1.368 . S
H1535 C1543 0.950 . S
H1536 C1541 0.950 . S
H1537 C1542 0.949 . S
H1538 C1544 0.950 . S
H1539 C1545 0.950 . S
H1540 C1546 0.949 . S
C1541 H1536 0.950 . S
C1541 C1543 1.327 . S
C1541 C1547 1.429 . S
C1542 C1534 1.574 . S
C1542 H1537 0.949 . S
C1542 C1548 1.368 . S
C1543 C1527 1.349 . S
C1543 H1535 0.950 . S
C1543 C1541 1.327 . S
C1544 C1532 1.349 . S
C1544 H1538 0.950 . S
C1544 C1545 1.327 . S
C1545 H1539 0.950 . S
C1545 C1544 1.327 . S
C1545 C1549 1.429 . S
C1546 C1529 1.574 . S
C1546 H1540 0.949 . S
C1546 C1550 1.368 . S
C1547 C1528 1.429 . S
C1547 C1541 1.429 . S
C1547 C1548 1.523 . S
C1548 C1529 1.368 . S
C1548 C1542 1.368 . S
C1548 C1547 1.523 . S
C1549 C1533 1.429 . S
C1549 C1545 1.429 . S
C1549 C1550 1.523 . S
C1550 C1534 1.368 . S
C1550 C1546 1.368 . S
C1550 C1549 1.523 . S
H1551 C1526 0.950 . S
H1552 C1528 0.950 . S
H1553 C1529 0.949 . S
H1554 C1531 0.950 . S
H1555 C1533 0.950 . S
C1556 C1557 1.349 . S
C1556 C1558 1.327 . S
C1556 H1581 0.950 . S
C1557 C1556 1.349 . S
C1557 C1573 1.349 . S
C1558 C1556 1.327 . S
C1558 C1577 1.429 . S
C1558 H1582 0.950 . S
C1559 C1576 1.574 . S
C1559 C1578 1.368 . S
C1559 H1583 0.949 . S
H1560 C1564 0.949 . S
C1561 C1562 1.349 . S
C1561 C1563 1.327 . S
C1561 H1584 0.950 1_556 S
C1562 C1561 1.349 . S
C1562 C1574 1.349 . S
C1563 C1561 1.327 . S
C1563 C1579 1.429 . S
C1563 H1585 0.950 . S
C1564 H1560 0.949 . S
C1564 C1572 1.574 . S
C1564 C1580 1.368 . S
H1565 C1573 0.950 . S
H1566 C1571 0.950 . S
H1567 C1572 0.949 . S
H1568 C1574 0.950 . S
H1569 C1575 0.950 . S
H1570 C1576 0.949 . S
C1571 H1566 0.950 . S
C1571 C1573 1.327 . S
C1571 C1577 1.429 . S
C1572 C1564 1.574 . S
C1572 H1567 0.949 . S
C1572 C1578 1.368 . S
C1573 C1557 1.349 . S
C1573 H1565 0.950 . S
C1573 C1571 1.327 . S
C1574 C1562 1.349 . S
C1574 H1568 0.950 . S
C1574 C1575 1.327 . S
C1575 H1569 0.950 . S
C1575 C1574 1.327 . S
C1575 C1579 1.429 . S
C1576 C1559 1.574 . S
C1576 H1570 0.949 . S
C1576 C1580 1.368 . S
C1577 C1558 1.429 . S
C1577 C1571 1.429 . S
C1577 C1578 1.523 . S
C1578 C1559 1.368 . S
C1578 C1572 1.368 . S
C1578 C1577 1.523 . S
C1579 C1563 1.429 . S
C1579 C1575 1.429 . S
C1579 C1580 1.523 . S
C1580 C1564 1.368 . S
C1580 C1576 1.368 . S
C1580 C1579 1.523 . S
H1581 C1556 0.950 . S
H1582 C1558 0.950 . S
H1583 C1559 0.949 . S
H1584 C1561 0.950 1_554 S
H1585 C1563 0.950 . S
C1586 C1587 1.349 . S
C1586 C1588 1.327 . S
C1586 H1611 0.950 . S
C1587 C1586 1.349 . S
C1587 C1603 1.349 . S
C1588 C1586 1.327 . S
C1588 C1607 1.429 . S
C1588 H1612 0.950 . S
C1589 C1606 1.574 . S
C1589 C1608 1.368 . S
C1589 H1613 0.949 . S
H1590 C1594 0.949 . S
C1591 C1592 1.349 . S
C1591 C1593 1.327 . S
C1591 H1614 0.950 . S
C1592 C1591 1.349 . S
C1592 C1604 1.349 . S
C1593 C1591 1.327 . S
C1593 C1609 1.429 . S
C1593 H1615 0.950 . S
C1594 H1590 0.949 . S
C1594 C1602 1.574 . S
C1594 C1610 1.368 . S
H1595 C1603 0.950 . S
H1596 C1601 0.950 . S
H1597 C1602 0.949 . S
H1598 C1604 0.950 . S
H1599 C1605 0.950 . S
H1600 C1606 0.949 . S
C1601 H1596 0.950 . S
C1601 C1603 1.327 . S
C1601 C1607 1.429 . S
C1602 C1594 1.574 . S
C1602 H1597 0.949 . S
C1602 C1608 1.368 . S
C1603 C1587 1.349 . S
C1603 H1595 0.950 . S
C1603 C1601 1.327 . S
C1604 C1592 1.349 . S
C1604 H1598 0.950 . S
C1604 C1605 1.327 . S
C1605 H1599 0.950 . S
C1605 C1604 1.327 . S
C1605 C1609 1.429 . S
C1606 C1589 1.574 . S
C1606 H1600 0.949 . S
C1606 C1610 1.368 . S
C1607 C1588 1.429 . S
C1607 C1601 1.429 . S
C1607 C1608 1.523 . S
C1608 C1589 1.368 . S
C1608 C1602 1.368 . S
C1608 C1607 1.523 . S
C1609 C1593 1.429 . S
C1609 C1605 1.429 . S
C1609 C1610 1.523 . S
C1610 C1594 1.368 . S
C1610 C1606 1.368 . S
C1610 C1609 1.523 . S
H1611 C1586 0.950 . S
H1612 C1588 0.950 . S
H1613 C1589 0.949 . S
H1614 C1591 0.950 . S
H1615 C1593 0.950 . S
C1616 C1617 1.349 1_565 S
C1616 C1618 1.327 . S
C1616 H1641 0.950 . S
C1617 C1616 1.349 1_545 S
C1617 C1633 1.349 . S
C1618 C1616 1.327 . S
C1618 C1637 1.429 1_565 S
C1618 H1642 0.950 . S
C1619 C1636 1.574 . S
C1619 C1638 1.368 . S
C1619 H1643 0.949 . S
H1620 C1624 0.955 . S
C1621 C1622 1.349 . S
C1621 C1623 1.327 . S
C1621 H1644 0.950 . S
C1622 C1621 1.349 . S
C1622 C1634 1.349 . S
C1623 C1621 1.327 . S
C1623 C1639 1.429 . S
C1623 H1645 0.950 . S
C1624 H1620 0.955 . S
C1624 C1632 1.577 . S
C1624 C1640 1.359 1_565 S
H1625 C1633 0.950 . S
H1626 C1631 0.950 . S
H1627 C1632 0.949 . S
H1628 C1634 0.951 1_565 S
H1629 C1635 0.950 1_565 S
H1630 C1636 0.949 . S
C1631 H1626 0.950 . S
C1631 C1633 1.327 . S
C1631 C1637 1.429 . S
C1632 C1624 1.577 . S
C1632 H1627 0.949 . S
C1632 C1638 1.368 1_565 S
C1633 C1617 1.349 . S
C1633 H1625 0.950 . S
C1633 C1631 1.327 . S
C1634 C1622 1.349 . S
C1634 H1628 0.951 1_545 S
C1634 C1635 1.327 . S
C1635 H1629 0.950 1_545 S
C1635 C1634 1.327 . S
C1635 C1639 1.429 . S
C1636 C1619 1.574 . S
C1636 H1630 0.949 . S
C1636 C1640 1.368 . S
C1637 C1618 1.429 1_545 S
C1637 C1631 1.429 . S
C1637 C1638 1.523 . S
C1638 C1619 1.368 . S
C1638 C1632 1.368 1_545 S
C1638 C1637 1.523 . S
C1639 C1623 1.429 . S
C1639 C1635 1.429 . S
C1639 C1640 1.523 . S
C1640 C1624 1.359 1_545 S
C1640 C1636 1.368 . S
C1640 C1639 1.523 . S
H1641 C1616 0.950 . S
H1642 C1618 0.950 . S
H1643 C1619 0.949 . S
H1644 C1621 0.950 . S
H1645 C1623 0.950 . S
C1646 C1647 1.349 . S
C1646 C1648 1.327 . S
C1646 H1671 0.950 . S
C1647 C1646 1.349 . S
C1647 C1663 1.349 . S
C1648 C1646 1.327 . S
C1648 C1667 1.429 . S
C1648 H1672 0.950 . S
C1649 C1666 1.574 . S
C1649 C1668 1.368 . S
C1649 H1673 0.949 . S
H1650 C1654 0.949 . S
C1651 C1652 1.349 . S
C1651 C1653 1.327 . S
C1651 H1674 0.950 . S
C1652 C1651 1.349 . S
C1652 C1664 1.349 . S
C1653 C1651 1.327 . S
C1653 C1669 1.429 . S
C1653 H1675 0.950 . S
C1654 H1650 0.949 . S
C1654 C1662 1.574 . S
C1654 C1670 1.368 . S
H1655 C1663 0.950 . S
H1656 C1661 0.950 . S
H1657 C1662 0.949 . S
H1658 C1664 0.950 . S
H1659 C1665 0.950 . S
H1660 C1666 0.949 . S
C1661 H1656 0.950 . S
C1661 C1663 1.327 . S
C1661 C1667 1.429 . S
C1662 C1654 1.574 . S
C1662 H1657 0.949 . S
C1662 C1668 1.368 . S
C1663 C1647 1.349 . S
C1663 H1655 0.950 . S
C1663 C1661 1.327 . S
C1664 C1652 1.349 . S
C1664 H1658 0.950 . S
C1664 C1665 1.327 . S
C1665 H1659 0.950 . S
C1665 C1664 1.327 . S
C1665 C1669 1.429 . S
C1666 C1649 1.574 . S
C1666 H1660 0.949 . S
C1666 C1670 1.368 . S
C1667 C1648 1.429 . S
C1667 C1661 1.429 . S
C1667 C1668 1.523 . S
C1668 C1649 1.368 . S
C1668 C1662 1.368 . S
C1668 C1667 1.523 . S
C1669 C1653 1.429 . S
C1669 C1665 1.429 . S
C1669 C1670 1.523 . S
C1670 C1654 1.368 . S
C1670 C1666 1.368 . S
C1670 C1669 1.523 . S
H1671 C1646 0.950 . S
H1672 C1648 0.950 . S
H1673 C1649 0.949 . S
H1674 C1651 0.950 . S
H1675 C1653 0.950 . S
C1676 C1677 1.349 . S
C1676 C1678 1.327 . S
C1676 H1701 0.950 . S
C1677 C1676 1.349 . S
C1677 C1693 1.349 . S
C1678 C1676 1.327 . S
C1678 C1697 1.429 . S
C1678 H1702 0.950 . S
C1679 C1696 1.574 . S
C1679 C1698 1.368 . S
C1679 H1703 0.949 . S
H1680 C1684 0.949 . S
C1681 C1682 1.349 . S
C1681 C1683 1.327 . S
C1681 H1704 0.950 . S
C1682 C1681 1.349 . S
C1682 C1694 1.349 . S
C1683 C1681 1.327 . S
C1683 C1699 1.429 . S
C1683 H1705 0.950 . S
C1684 H1680 0.949 . S
C1684 C1692 1.574 . S
C1684 C1700 1.368 . S
H1685 C1693 0.950 . S
H1686 C1691 0.950 . S
H1687 C1692 0.949 . S
H1688 C1694 0.950 . S
H1689 C1695 0.950 . S
H1690 C1696 0.949 . S
C1691 H1686 0.950 . S
C1691 C1693 1.327 . S
C1691 C1697 1.429 . S
C1692 C1684 1.574 . S
C1692 H1687 0.949 . S
C1692 C1698 1.368 . S
C1693 C1677 1.349 . S
C1693 H1685 0.950 . S
C1693 C1691 1.327 . S
C1694 C1682 1.349 . S
C1694 H1688 0.950 . S
C1694 C1695 1.327 . S
C1695 H1689 0.950 . S
C1695 C1694 1.327 . S
C1695 C1699 1.429 . S
C1696 C1679 1.574 . S
C1696 H1690 0.949 . S
C1696 C1700 1.368 . S
C1697 C1678 1.429 . S
C1697 C1691 1.429 . S
C1697 C1698 1.523 . S
C1698 C1679 1.368 . S
C1698 C1692 1.368 . S
C1698 C1697 1.523 . S
C1699 C1683 1.429 . S
C1699 C1695 1.429 . S
C1699 C1700 1.523 . S
C1700 C1684 1.368 . S
C1700 C1696 1.368 . S
C1700 C1699 1.523 . S
H1701 C1676 0.950 . S
H1702 C1678 0.950 . S
H1703 C1679 0.949 . S
H1704 C1681 0.950 . S
H1705 C1683 0.950 . S
C1706 C1707 1.349 . S
C1706 C1708 1.327 . S
C1706 H1731 0.950 . S
C1707 C1706 1.349 . S
C1707 C1723 1.349 . S
C1708 C1706 1.327 . S
C1708 C1727 1.429 . S
C1708 H1732 0.950 . S
C1709 C1726 1.574 . S
C1709 C1728 1.368 . S
C1709 H1733 0.949 . S
H1710 C1714 0.949 . S
C1711 C1712 1.349 . S
C1711 C1713 1.327 . S
C1711 H1734 0.950 . S
C1712 C1711 1.349 . S
C1712 C1724 1.349 . S
C1713 C1711 1.327 . S
C1713 C1729 1.429 . S
C1713 H1735 0.950 . S
C1714 H1710 0.949 . S
C1714 C1722 1.574 . S
C1714 C1730 1.368 . S
H1715 C1723 0.950 . S
H1716 C1721 0.950 . S
H1717 C1722 0.949 . S
H1718 C1724 0.950 . S
H1719 C1725 0.950 . S
H1720 C1726 0.949 . S
C1721 H1716 0.950 . S
C1721 C1723 1.327 . S
C1721 C1727 1.429 . S
C1722 C1714 1.574 . S
C1722 H1717 0.949 . S
C1722 C1728 1.368 . S
C1723 C1707 1.349 . S
C1723 H1715 0.950 . S
C1723 C1721 1.327 . S
C1724 C1712 1.349 . S
C1724 H1718 0.950 . S
C1724 C1725 1.327 . S
C1725 H1719 0.950 . S
C1725 C1724 1.327 . S
C1725 C1729 1.429 . S
C1726 C1709 1.574 . S
C1726 H1720 0.949 . S
C1726 C1730 1.368 . S
C1727 C1708 1.429 . S
C1727 C1721 1.429 . S
C1727 C1728 1.523 . S
C1728 C1709 1.368 . S
C1728 C1722 1.368 . S
C1728 C1727 1.523 . S
C1729 C1713 1.429 . S
C1729 C1725 1.429 . S
C1729 C1730 1.523 . S
C1730 C1714 1.368 . S
C1730 C1726 1.368 . S
C1730 C1729 1.523 . S
H1731 C1706 0.950 . S
H1732 C1708 0.950 . S
H1733 C1709 0.949 . S
H1734 C1711 0.950 . S
H1735 C1713 0.950 . S
C1736 C1737 1.349 1_545 S
C1736 C1738 1.327 . S
C1736 H1761 0.950 . S
C1737 C1736 1.349 1_565 S
C1737 C1753 1.349 . S
C1738 C1736 1.327 . S
C1738 C1757 1.429 . S
C1738 H1762 0.950 . S
C1739 C1756 1.574 . S
C1739 C1758 1.368 1_565 S
C1739 H1763 0.949 . S
H1740 C1744 0.949 . S
C1741 C1742 1.349 . S
C1741 C1743 1.328 1_545 S
C1741 H1764 0.950 1_545 S
C1742 C1741 1.349 . S
C1742 C1754 1.349 . S
C1743 C1741 1.328 1_565 S
C1743 C1759 1.431 1_565 S
C1743 H1765 0.946 . S
C1744 H1740 0.949 . S
C1744 C1752 1.574 . S
C1744 C1760 1.368 . S
H1745 C1753 0.950 . S
H1746 C1751 0.950 . S
H1747 C1752 0.949 . S
H1748 C1754 0.950 . S
H1749 C1755 0.950 . S
H1750 C1756 0.949 . S
C1751 H1746 0.950 . S
C1751 C1753 1.327 . S
C1751 C1757 1.429 1_565 S
C1752 C1744 1.574 . S
C1752 H1747 0.949 . S
C1752 C1758 1.368 . S
C1753 C1737 1.349 . S
C1753 H1745 0.950 . S
C1753 C1751 1.327 . S
C1754 C1742 1.349 . S
C1754 H1748 0.950 . S
C1754 C1755 1.327 . S
C1755 H1749 0.950 . S
C1755 C1754 1.327 . S
C1755 C1759 1.429 . S
C1756 C1739 1.574 . S
C1756 H1750 0.949 . S
C1756 C1760 1.368 1_565 S
C1757 C1738 1.429 . S
C1757 C1751 1.429 1_545 S
C1757 C1758 1.523 . S
C1758 C1739 1.368 1_545 S
C1758 C1752 1.368 . S
C1758 C1757 1.523 . S
C1759 C1743 1.431 1_545 S
C1759 C1755 1.429 . S
C1759 C1760 1.523 . S
C1760 C1744 1.368 . S
C1760 C1756 1.368 1_545 S
C1760 C1759 1.523 . S
H1761 C1736 0.950 . S
H1762 C1738 0.950 . S
H1763 C1739 0.949 . S
H1764 C1741 0.950 1_565 S
H1765 C1743 0.946 . S
C1766 C1767 1.349 . S
C1766 C1768 1.327 . S
C1766 H1791 0.950 . S
C1767 C1766 1.349 . S
C1767 C1783 1.349 . S
C1768 C1766 1.327 . S
C1768 C1787 1.429 . S
C1768 H1792 0.950 . S
C1769 C1786 1.574 . S
C1769 C1788 1.368 . S
C1769 H1793 0.949 . S
H1770 C1774 0.949 . S
C1771 C1772 1.349 . S
C1771 C1773 1.327 . S
C1771 H1794 0.950 . S
C1772 C1771 1.349 . S
C1772 C1784 1.349 . S
C1773 C1771 1.327 . S
C1773 C1789 1.429 . S
C1773 H1795 0.950 . S
C1774 H1770 0.949 . S
C1774 C1782 1.574 . S
C1774 C1790 1.368 . S
H1775 C1783 0.950 . S
H1776 C1781 0.950 . S
H1777 C1782 0.949 . S
H1778 C1784 0.950 . S
H1779 C1785 0.950 . S
H1780 C1786 0.949 . S
C1781 H1776 0.950 . S
C1781 C1783 1.327 . S
C1781 C1787 1.429 . S
C1782 C1774 1.574 . S
C1782 H1777 0.949 . S
C1782 C1788 1.368 . S
C1783 C1767 1.349 . S
C1783 H1775 0.950 . S
C1783 C1781 1.327 . S
C1784 C1772 1.349 . S
C1784 H1778 0.950 . S
C1784 C1785 1.327 . S
C1785 H1779 0.950 . S
C1785 C1784 1.327 . S
C1785 C1789 1.429 . S
C1786 C1769 1.574 . S
C1786 H1780 0.949 . S
C1786 C1790 1.368 . S
C1787 C1768 1.429 . S
C1787 C1781 1.429 . S
C1787 C1788 1.523 . S
C1788 C1769 1.368 . S
C1788 C1782 1.368 . S
C1788 C1787 1.523 . S
C1789 C1773 1.429 . S
C1789 C1785 1.429 . S
C1789 C1790 1.523 . S
C1790 C1774 1.368 . S
C1790 C1786 1.368 . S
C1790 C1789 1.523 . S
H1791 C1766 0.950 . S
H1792 C1768 0.950 . S
H1793 C1769 0.949 . S
H1794 C1771 0.950 . S
H1795 C1773 0.950 . S
C1796 C1797 1.349 . S
C1796 C1798 1.327 . S
C1796 H1821 0.950 . S
C1797 C1796 1.349 . S
C1797 C1813 1.349 . S
C1798 C1796 1.327 . S
C1798 C1817 1.429 . S
C1798 H1822 0.950 . S
C1799 C1816 1.574 . S
C1799 C1818 1.368 . S
C1799 H1823 0.949 . S
H1800 C1804 0.949 . S
C1801 C1802 1.349 . S
C1801 C1803 1.327 . S
C1801 H1824 0.978 . S
C1802 C1801 1.349 . S
C1802 C1814 1.349 . S
C1803 C1801 1.327 . S
C1803 C1819 1.429 . S
C1803 H1825 0.950 . S
C1804 H1800 0.949 . S
C1804 C1812 1.574 . S
C1804 C1820 1.368 . S
H1805 C1813 0.950 . S
H1806 C1811 0.950 . S
H1807 C1812 0.949 . S
H1808 C1814 0.950 . S
H1809 C1815 0.950 . S
H1810 C1816 0.949 . S
C1811 H1806 0.950 . S
C1811 C1813 1.327 . S
C1811 C1817 1.429 . S
C1812 C1804 1.574 . S
C1812 H1807 0.949 . S
C1812 C1818 1.368 . S
C1813 C1797 1.349 . S
C1813 H1805 0.950 . S
C1813 C1811 1.327 . S
C1814 C1802 1.349 . S
C1814 H1808 0.950 . S
C1814 C1815 1.327 . S
C1815 H1809 0.950 . S
C1815 C1814 1.327 . S
C1815 C1819 1.429 . S
C1816 C1799 1.574 . S
C1816 H1810 0.949 . S
C1816 C1820 1.368 . S
C1817 C1798 1.429 . S
C1817 C1811 1.429 . S
C1817 C1818 1.523 . S
C1818 C1799 1.368 . S
C1818 C1812 1.368 . S
C1818 C1817 1.523 . S
C1819 C1803 1.429 . S
C1819 C1815 1.429 . S
C1819 C1820 1.523 . S
C1820 C1804 1.368 . S
C1820 C1816 1.368 . S
C1820 C1819 1.523 . S
H1821 C1796 0.950 . S
H1822 C1798 0.950 . S
H1823 C1799 0.949 . S
H1824 C1801 0.978 . S
H1825 C1803 0.950 . S
C1826 C1827 1.349 . S
C1826 C1828 1.327 . S
C1826 H1851 0.950 . S
C1827 C1826 1.349 . S
C1827 C1843 1.349 . S
C1828 C1826 1.327 . S
C1828 C1847 1.429 . S
C1828 H1852 0.950 . S
C1829 C1846 1.574 . S
C1829 C1848 1.368 . S
C1829 H1853 0.949 . S
H1830 C1834 0.949 . S
C1831 C1832 1.349 . S
C1831 C1833 1.327 . S
C1831 H1854 0.950 . S
C1832 C1831 1.349 . S
C1832 C1844 1.349 . S
C1833 C1831 1.327 . S
C1833 C1849 1.429 . S
C1833 H1855 0.950 . S
C1834 H1830 0.949 . S
C1834 C1842 1.574 . S
C1834 C1850 1.368 . S
H1835 C1843 0.950 . S
H1836 C1841 0.950 . S
H1837 C1842 0.949 . S
H1838 C1844 0.950 . S
H1839 C1845 0.950 . S
H1840 C1846 0.949 . S
C1841 H1836 0.950 . S
C1841 C1843 1.327 . S
C1841 C1847 1.429 . S
C1842 C1834 1.574 . S
C1842 H1837 0.949 . S
C1842 C1848 1.368 . S
C1843 C1827 1.349 . S
C1843 H1835 0.950 . S
C1843 C1841 1.327 . S
C1844 C1832 1.349 . S
C1844 H1838 0.950 . S
C1844 C1845 1.327 . S
C1845 H1839 0.950 . S
C1845 C1844 1.327 . S
C1845 C1849 1.429 . S
C1846 C1829 1.574 . S
C1846 H1840 0.949 . S
C1846 C1850 1.368 . S
C1847 C1828 1.429 . S
C1847 C1841 1.429 . S
C1847 C1848 1.523 . S
C1848 C1829 1.368 . S
C1848 C1842 1.368 . S
C1848 C1847 1.523 . S
C1849 C1833 1.429 . S
C1849 C1845 1.429 . S
C1849 C1850 1.523 . S
C1850 C1834 1.368 . S
C1850 C1846 1.368 . S
C1850 C1849 1.523 . S
H1851 C1826 0.950 . S
H1852 C1828 0.950 . S
H1853 C1829 0.949 . S
H1854 C1831 0.950 . S
H1855 C1833 0.950 . S
C1856 C1857 1.349 . S
C1856 C1858 1.327 . S
C1856 H1881 0.950 . S
C1857 C1856 1.349 . S
C1857 C1873 1.349 1_554 S
C1858 C1856 1.327 . S
C1858 C1877 1.429 . S
C1858 H1882 0.950 . S
C1859 C1876 1.574 . S
C1859 C1878 1.368 1_556 S
C1859 H1883 0.949 . S
H1860 C1864 0.949 . S
C1861 C1862 1.349 1_556 S
C1861 C1863 1.327 . S
C1861 H1884 0.950 . S
C1862 C1861 1.349 1_554 S
C1862 C1874 1.349 . S
C1863 C1861 1.327 . S
C1863 C1879 1.429 1_556 S
C1863 H1885 0.950 . S
C1864 H1860 0.949 . S
C1864 C1872 1.574 . S
C1864 C1880 1.368 . S
H1865 C1873 0.950 . S
H1866 C1871 0.950 . S
H1867 C1872 0.949 . S
H1868 C1874 0.950 . S
H1869 C1875 0.950 . S
H1870 C1876 0.949 . S
C1871 H1866 0.950 . S
C1871 C1873 1.327 . S
C1871 C1877 1.429 1_556 S
C1872 C1864 1.574 . S
C1872 H1867 0.949 . S
C1872 C1878 1.368 . S
C1873 C1857 1.349 1_556 S
C1873 H1865 0.950 . S
C1873 C1871 1.327 . S
C1874 C1862 1.349 . S
C1874 H1868 0.950 . S
C1874 C1875 1.327 . S
C1875 H1869 0.950 . S
C1875 C1874 1.327 . S
C1875 C1879 1.429 . S
C1876 C1859 1.574 . S
C1876 H1870 0.949 . S
C1876 C1880 1.368 1_556 S
C1877 C1858 1.429 . S
C1877 C1871 1.429 1_554 S
C1877 C1878 1.523 . S
C1878 C1859 1.368 1_554 S
C1878 C1872 1.368 . S
C1878 C1877 1.523 . S
C1879 C1863 1.429 1_554 S
C1879 C1875 1.429 . S
C1879 C1880 1.523 . S
C1880 C1864 1.368 . S
C1880 C1876 1.368 1_554 S
C1880 C1879 1.523 . S
H1881 C1856 0.950 . S
H1882 C1858 0.950 . S
H1883 C1859 0.949 . S
H1884 C1861 0.950 . S
H1885 C1863 0.950 . S
C1886 C1887 1.349 . S
C1886 C1888 1.327 . S
C1886 H1911 0.950 . S
C1887 C1886 1.349 . S
C1887 C1903 1.349 . S
C1888 C1886 1.327 . S
C1888 C1907 1.429 . S
C1888 H1912 0.950 . S
C1889 C1906 1.574 . S
C1889 C1908 1.368 . S
C1889 H1913 0.936 1_554 S
H1890 C1894 0.949 . S
C1891 C1892 1.349 . S
C1891 C1893 1.327 . S
C1891 H1914 0.950 1_554 S
C1892 C1891 1.349 . S
C1892 C1904 1.349 . S
C1893 C1891 1.327 . S
C1893 C1909 1.429 . S
C1893 H1915 0.950 1_554 S
C1894 H1890 0.949 . S
C1894 C1902 1.574 . S
C1894 C1910 1.368 . S
H1895 C1903 0.950 . S
H1896 C1901 0.965 . S
H1897 C1902 0.949 . S
H1898 C1904 0.950 . S
H1899 C1905 0.950 . S
H1900 C1906 0.949 1_556 S
C1901 H1896 0.965 . S
C1901 C1903 1.327 . S
C1901 C1907 1.429 . S
C1902 C1894 1.574 . S
C1902 H1897 0.949 . S
C1902 C1908 1.368 . S
C1903 C1887 1.349 . S
C1903 H1895 0.950 . S
C1903 C1901 1.327 . S
C1904 C1892 1.349 . S
C1904 H1898 0.950 . S
C1904 C1905 1.327 . S
C1905 H1899 0.950 . S
C1905 C1904 1.327 . S
C1905 C1909 1.429 . S
C1906 C1889 1.574 . S
C1906 H1900 0.949 1_554 S
C1906 C1910 1.368 . S
C1907 C1888 1.429 . S
C1907 C1901 1.429 . S
C1907 C1908 1.523 . S
C1908 C1889 1.368 . S
C1908 C1902 1.368 . S
C1908 C1907 1.523 . S
C1909 C1893 1.429 . S
C1909 C1905 1.429 . S
C1909 C1910 1.523 . S
C1910 C1894 1.368 . S
C1910 C1906 1.368 . S
C1910 C1909 1.523 . S
H1911 C1886 0.950 . S
H1912 C1888 0.950 . S
H1913 C1889 0.936 1_556 S
H1914 C1891 0.950 1_556 S
H1915 C1893 0.950 1_556 S
C1916 C1917 1.349 . S
C1916 C1918 1.327 . S
C1916 H1941 0.950 . S
C1917 C1916 1.349 . S
C1917 C1933 1.349 . S
C1918 C1916 1.327 . S
C1918 C1937 1.429 . S
C1918 H1942 0.950 . S
C1919 C1936 1.574 . S
C1919 C1938 1.368 . S
C1919 H1943 0.949 . S
H1920 C1924 0.949 . S
C1921 C1922 1.349 . S
C1921 C1923 1.327 . S
C1921 H1944 0.950 . S
C1922 C1921 1.349 . S
C1922 C1934 1.349 . S
C1923 C1921 1.327 . S
C1923 C1939 1.429 . S
C1923 H1945 0.950 . S
C1924 H1920 0.949 . S
C1924 C1932 1.574 . S
C1924 C1940 1.368 . S
H1925 C1933 0.950 . S
H1926 C1931 0.950 . S
H1927 C1932 0.949 . S
H1928 C1934 0.950 . S
H1929 C1935 0.950 . S
H1930 C1936 0.949 . S
C1931 H1926 0.950 . S
C1931 C1933 1.327 . S
C1931 C1937 1.429 . S
C1932 C1924 1.574 . S
C1932 H1927 0.949 . S
C1932 C1938 1.368 . S
C1933 C1917 1.349 . S
C1933 H1925 0.950 . S
C1933 C1931 1.327 . S
C1934 C1922 1.349 . S
C1934 H1928 0.950 . S
C1934 C1935 1.327 . S
C1935 H1929 0.950 . S
C1935 C1934 1.327 . S
C1935 C1939 1.429 . S
C1936 C1919 1.574 . S
C1936 H1930 0.949 . S
C1936 C1940 1.368 . S
C1937 C1918 1.429 . S
C1937 C1931 1.429 . S
C1937 C1938 1.523 . S
C1938 C1919 1.368 . S
C1938 C1932 1.368 . S
C1938 C1937 1.523 . S
C1939 C1923 1.429 . S
C1939 C1935 1.429 . S
C1939 C1940 1.523 . S
C1940 C1924 1.368 . S
C1940 C1936 1.368 . S
C1940 C1939 1.523 . S
H1941 C1916 0.950 . S
H1942 C1918 0.950 . S
H1943 C1919 0.949 . S
H1944 C1921 0.950 . S
H1945 C1923 0.950 . S
C1946 C1947 1.349 . S
C1946 C1948 1.327 . S
C1946 H1971 0.950 . S
C1947 C1946 1.349 . S
C1947 C1963 1.349 . S
C1948 C1946 1.327 . S
C1948 C1967 1.429 . S
C1948 H1972 0.950 . S
C1949 C1966 1.574 . S
C1949 C1968 1.368 . S
C1949 H1973 0.949 . S
H1950 C1954 0.949 . S
C1951 C1952 1.349 . S
C1951 C1953 1.327 . S
C1951 H1974 0.950 . S
C1952 C1951 1.349 . S
C1952 C1964 1.349 . S
C1953 C1951 1.327 . S
C1953 C1969 1.429 . S
C1953 H1975 0.950 . S
C1954 H1950 0.949 . S
C1954 C1962 1.574 . S
C1954 C1970 1.368 . S
H1955 C1963 0.950 . S
H1956 C1961 0.950 . S
H1957 C1962 0.949 . S
H1958 C1964 0.950 . S
H1959 C1965 0.950 . S
H1960 C1966 0.949 . S
C1961 H1956 0.950 . S
C1961 C1963 1.327 . S
C1961 C1967 1.429 . S
C1962 C1954 1.574 . S
C1962 H1957 0.949 . S
C1962 C1968 1.368 . S
C1963 C1947 1.349 . S
C1963 H1955 0.950 . S
C1963 C1961 1.327 . S
C1964 C1952 1.349 . S
C1964 H1958 0.950 . S
C1964 C1965 1.327 . S
C1965 H1959 0.950 . S
C1965 C1964 1.327 . S
C1965 C1969 1.429 . S
C1966 C1949 1.574 . S
C1966 H1960 0.949 . S
C1966 C1970 1.368 . S
C1967 C1948 1.429 . S
C1967 C1961 1.429 . S
C1967 C1968 1.523 . S
C1968 C1949 1.368 . S
C1968 C1962 1.368 . S
C1968 C1967 1.523 . S
C1969 C1953 1.429 . S
C1969 C1965 1.429 . S
C1969 C1970 1.523 . S
C1970 C1954 1.368 . S
C1970 C1966 1.368 . S
C1970 C1969 1.523 . S
H1971 C1946 0.950 . S
H1972 C1948 0.950 . S
H1973 C1949 0.949 . S
H1974 C1951 0.950 . S
H1975 C1953 0.950 . S
C1976 C1977 1.349 . S
C1976 C1978 1.327 . S
C1976 H2001 0.950 . S
C1977 C1976 1.349 . S
C1977 C1993 1.349 . S
C1978 C1976 1.327 . S
C1978 C1997 1.429 . S
C1978 H2002 0.950 . S
C1979 C1996 1.574 . S
C1979 C1998 1.368 . S
C1979 H2003 0.949 . S
H1980 C1984 0.949 . S
C1981 C1982 1.349 . S
C1981 C1983 1.327 . S
C1981 H2004 0.950 . S
C1982 C1981 1.349 . S
C1982 C1994 1.349 . S
C1983 C1981 1.327 . S
C1983 C1999 1.429 . S
C1983 H2005 0.950 . S
C1984 H1980 0.949 . S
C1984 C1992 1.574 . S
C1984 C2000 1.368 . S
H1985 C1993 0.950 . S
H1986 C1991 0.950 . S
H1987 C1992 0.949 . S
H1988 C1994 0.950 . S
H1989 C1995 0.950 . S
H1990 C1996 0.949 . S
C1991 H1986 0.950 . S
C1991 C1993 1.327 . S
C1991 C1997 1.429 . S
C1992 C1984 1.574 . S
C1992 H1987 0.949 . S
C1992 C1998 1.368 . S
C1993 C1977 1.349 . S
C1993 H1985 0.950 . S
C1993 C1991 1.327 . S
C1994 C1982 1.349 . S
C1994 H1988 0.950 . S
C1994 C1995 1.327 . S
C1995 H1989 0.950 . S
C1995 C1994 1.327 . S
C1995 C1999 1.429 . S
C1996 C1979 1.574 . S
C1996 H1990 0.949 . S
C1996 C2000 1.368 . S
C1997 C1978 1.429 . S
C1997 C1991 1.429 . S
C1997 C1998 1.523 . S
C1998 C1979 1.368 . S
C1998 C1992 1.368 . S
C1998 C1997 1.523 . S
C1999 C1983 1.429 . S
C1999 C1995 1.429 . S
C1999 C2000 1.523 . S
C2000 C1984 1.368 . S
C2000 C1996 1.368 . S
C2000 C1999 1.523 . S
H2001 C1976 0.950 . S
H2002 C1978 0.950 . S
H2003 C1979 0.949 . S
H2004 C1981 0.950 . S
H2005 C1983 0.950 . S
C2006 C2007 1.349 . S
C2006 C2008 1.327 . S
C2006 H2031 0.950 . S
C2007 C2006 1.349 . S
C2007 C2023 1.349 . S
C2008 C2006 1.327 . S
C2008 C2027 1.429 . S
C2008 H2032 0.950 . S
C2009 C2026 1.574 . S
C2009 C2028 1.368 . S
C2009 H2033 0.949 . S
H2010 C2014 0.949 . S
C2011 C2012 1.347 1_545 S
C2011 C2013 1.315 1_545 S
C2011 H2034 0.965 . S
C2012 C2011 1.347 1_565 S
C2012 C2024 1.349 . S
C2013 C2011 1.315 1_565 S
C2013 C2029 1.429 . S
C2013 H2035 0.950 . S
C2014 H2010 0.949 . S
C2014 C2022 1.574 . S
C2014 C2030 1.368 . S
H2015 C2023 0.950 . S
H2016 C2021 0.950 . S
H2017 C2022 0.949 . S
H2018 C2024 0.950 . S
H2019 C2025 0.950 . S
H2020 C2026 0.949 . S
C2021 H2016 0.950 . S
C2021 C2023 1.327 . S
C2021 C2027 1.429 . S
C2022 C2014 1.574 . S
C2022 H2017 0.949 . S
C2022 C2028 1.368 . S
C2023 C2007 1.349 . S
C2023 H2015 0.950 . S
C2023 C2021 1.327 . S
C2024 C2012 1.349 . S
C2024 H2018 0.950 . S
C2024 C2025 1.327 . S
C2025 H2019 0.950 . S
C2025 C2024 1.327 . S
C2025 C2029 1.429 . S
C2026 C2009 1.574 . S
C2026 H2020 0.949 . S
C2026 C2030 1.368 . S
C2027 C2008 1.429 . S
C2027 C2021 1.429 . S
C2027 C2028 1.523 . S
C2028 C2009 1.368 . S
C2028 C2022 1.368 . S
C2028 C2027 1.523 . S
C2029 C2013 1.429 . S
C2029 C2025 1.429 . S
C2029 C2030 1.523 . S
C2030 C2014 1.368 . S
C2030 C2026 1.368 . S
C2030 C2029 1.523 . S
H2031 C2006 0.950 . S
H2032 C2008 0.950 . S
H2033 C2009 0.949 . S
H2034 C2011 0.965 . S
H2035 C2013 0.950 . S
C2036 C2037 1.349 . S
C2036 C2038 1.327 . S
C2036 H2061 0.950 . S
C2037 C2036 1.349 . S
C2037 C2053 1.349 . S
C2038 C2036 1.327 . S
C2038 C2057 1.429 . S
C2038 H2062 0.950 . S
C2039 C2056 1.574 . S
C2039 C2058 1.368 . S
C2039 H2063 0.949 . S
H2040 C2044 0.949 . S
C2041 C2042 1.349 . S
C2041 C2043 1.327 . S
C2041 H2064 0.950 . S
C2042 C2041 1.349 . S
C2042 C2054 1.349 . S
C2043 C2041 1.327 . S
C2043 C2059 1.429 . S
C2043 H2065 0.950 . S
C2044 H2040 0.949 . S
C2044 C2052 1.574 . S
C2044 C2060 1.368 . S
H2045 C2053 0.950 . S
H2046 C2051 0.950 . S
H2047 C2052 0.949 . S
H2048 C2054 0.950 . S
H2049 C2055 0.950 . S
H2050 C2056 0.949 . S
C2051 H2046 0.950 . S
C2051 C2053 1.327 . S
C2051 C2057 1.429 . S
C2052 C2044 1.574 . S
C2052 H2047 0.949 . S
C2052 C2058 1.368 . S
C2053 C2037 1.349 . S
C2053 H2045 0.950 . S
C2053 C2051 1.327 . S
C2054 C2042 1.349 . S
C2054 H2048 0.950 . S
C2054 C2055 1.327 . S
C2055 H2049 0.950 . S
C2055 C2054 1.327 . S
C2055 C2059 1.429 . S
C2056 C2039 1.574 . S
C2056 H2050 0.949 . S
C2056 C2060 1.368 . S
C2057 C2038 1.429 . S
C2057 C2051 1.429 . S
C2057 C2058 1.523 . S
C2058 C2039 1.368 . S
C2058 C2052 1.368 . S
C2058 C2057 1.523 . S
C2059 C2043 1.429 . S
C2059 C2055 1.429 . S
C2059 C2060 1.523 . S
C2060 C2044 1.368 . S
C2060 C2056 1.368 . S
C2060 C2059 1.523 . S
H2061 C2036 0.950 . S
H2062 C2038 0.950 . S
H2063 C2039 0.949 . S
H2064 C2041 0.950 . S
H2065 C2043 0.950 . S
C2066 C2067 1.349 . S
C2066 C2068 1.327 . S
C2066 H2091 0.950 . S
C2067 C2066 1.349 . S
C2067 C2083 1.349 . S
C2068 C2066 1.327 . S
C2068 C2087 1.429 . S
C2068 H2092 0.950 . S
C2069 C2086 1.574 . S
C2069 C2088 1.368 . S
C2069 H2093 0.949 . S
H2070 C2074 0.949 . S
C2071 C2072 1.349 . S
C2071 C2073 1.327 . S
C2071 H2094 0.950 . S
C2072 C2071 1.349 . S
C2072 C2084 1.349 . S
C2073 C2071 1.327 . S
C2073 C2089 1.429 . S
C2073 H2095 0.950 . S
C2074 H2070 0.949 . S
C2074 C2082 1.574 . S
C2074 C2090 1.368 . S
H2075 C2083 0.950 . S
H2076 C2081 0.950 . S
H2077 C2082 0.949 . S
H2078 C2084 0.950 . S
H2079 C2085 0.950 . S
H2080 C2086 0.949 . S
C2081 H2076 0.950 . S
C2081 C2083 1.327 . S
C2081 C2087 1.429 . S
C2082 C2074 1.574 . S
C2082 H2077 0.949 . S
C2082 C2088 1.368 . S
C2083 C2067 1.349 . S
C2083 H2075 0.950 . S
C2083 C2081 1.327 . S
C2084 C2072 1.349 . S
C2084 H2078 0.950 . S
C2084 C2085 1.327 . S
C2085 H2079 0.950 . S
C2085 C2084 1.327 . S
C2085 C2089 1.429 . S
C2086 C2069 1.574 . S
C2086 H2080 0.949 . S
C2086 C2090 1.368 . S
C2087 C2068 1.429 . S
C2087 C2081 1.429 . S
C2087 C2088 1.523 . S
C2088 C2069 1.368 . S
C2088 C2082 1.368 . S
C2088 C2087 1.523 . S
C2089 C2073 1.429 . S
C2089 C2085 1.429 . S
C2089 C2090 1.523 . S
C2090 C2074 1.368 . S
C2090 C2086 1.368 . S
C2090 C2089 1.523 . S
H2091 C2066 0.950 . S
H2092 C2068 0.950 . S
H2093 C2069 0.949 . S
H2094 C2071 0.950 . S
H2095 C2073 0.950 . S
C2096 C2097 1.349 . S
C2096 C2098 1.327 . S
C2096 H2121 0.950 . S
C2097 C2096 1.349 . S
C2097 C2113 1.349 . S
C2098 C2096 1.327 . S
C2098 C2117 1.429 . S
C2098 H2122 0.950 . S
C2099 C2116 1.574 . S
C2099 C2118 1.368 . S
C2099 H2123 0.949 . S
H2100 C2104 0.949 . S
C2101 C2102 1.349 . S
C2101 C2103 1.327 . S
C2101 H2124 0.950 . S
C2102 C2101 1.349 . S
C2102 C2114 1.349 . S
C2103 C2101 1.327 . S
C2103 C2119 1.429 . S
C2103 H2125 0.950 . S
C2104 H2100 0.949 . S
C2104 C2112 1.574 . S
C2104 C2120 1.368 . S
H2105 C2113 0.950 . S
H2106 C2111 0.950 . S
H2107 C2112 0.949 . S
H2108 C2114 0.950 . S
H2109 C2115 0.950 . S
H2110 C2116 0.949 . S
C2111 H2106 0.950 . S
C2111 C2113 1.327 . S
C2111 C2117 1.429 . S
C2112 C2104 1.574 . S
C2112 H2107 0.949 . S
C2112 C2118 1.368 . S
C2113 C2097 1.349 . S
C2113 H2105 0.950 . S
C2113 C2111 1.327 . S
C2114 C2102 1.349 . S
C2114 H2108 0.950 . S
C2114 C2115 1.327 . S
C2115 H2109 0.950 . S
C2115 C2114 1.327 . S
C2115 C2119 1.429 . S
C2116 C2099 1.574 . S
C2116 H2110 0.949 . S
C2116 C2120 1.368 . S
C2117 C2098 1.429 . S
C2117 C2111 1.429 . S
C2117 C2118 1.523 . S
C2118 C2099 1.368 . S
C2118 C2112 1.368 . S
C2118 C2117 1.523 . S
C2119 C2103 1.429 . S
C2119 C2115 1.429 . S
C2119 C2120 1.523 . S
C2120 C2104 1.368 . S
C2120 C2116 1.368 . S
C2120 C2119 1.523 . S
H2121 C2096 0.950 . S
H2122 C2098 0.950 . S
H2123 C2099 0.949 . S
H2124 C2101 0.950 . S
H2125 C2103 0.950 . S
C2126 C2127 1.349 . S
C2126 C2128 1.327 . S
C2126 H2151 0.950 . S
C2127 C2126 1.349 . S
C2127 C2143 1.349 . S
C2128 C2126 1.327 . S
C2128 C2147 1.429 . S
C2128 H2152 0.950 . S
C2129 C2146 1.574 . S
C2129 C2148 1.368 . S
C2129 H2153 0.949 . S
H2130 C2134 0.949 . S
C2131 C2132 1.349 . S
C2131 C2133 1.327 . S
C2131 H2154 0.950 . S
C2132 C2131 1.349 . S
C2132 C2144 1.349 . S
C2133 C2131 1.327 . S
C2133 C2149 1.429 . S
C2133 H2155 0.950 . S
C2134 H2130 0.949 . S
C2134 C2142 1.574 . S
C2134 C2150 1.368 . S
H2135 C2143 0.950 . S
H2136 C2141 0.950 . S
H2137 C2142 0.949 . S
H2138 C2144 0.950 . S
H2139 C2145 0.950 . S
H2140 C2146 0.949 . S
C2141 H2136 0.950 . S
C2141 C2143 1.327 . S
C2141 C2147 1.429 . S
C2142 C2134 1.574 . S
C2142 H2137 0.949 . S
C2142 C2148 1.368 . S
C2143 C2127 1.349 . S
C2143 H2135 0.950 . S
C2143 C2141 1.327 . S
C2144 C2132 1.349 . S
C2144 H2138 0.950 . S
C2144 C2145 1.327 . S
C2145 H2139 0.950 . S
C2145 C2144 1.327 . S
C2145 C2149 1.429 . S
C2146 C2129 1.574 . S
C2146 H2140 0.949 . S
C2146 C2150 1.368 . S
C2147 C2128 1.429 . S
C2147 C2141 1.429 . S
C2147 C2148 1.523 . S
C2148 C2129 1.368 . S
C2148 C2142 1.368 . S
C2148 C2147 1.523 . S
C2149 C2133 1.429 . S
C2149 C2145 1.429 . S
C2149 C2150 1.523 . S
C2150 C2134 1.368 . S
C2150 C2146 1.368 . S
C2150 C2149 1.523 . S
H2151 C2126 0.950 . S
H2152 C2128 0.950 . S
H2153 C2129 0.949 . S
H2154 C2131 0.950 . S
H2155 C2133 0.950 . S
C2156 C2157 1.349 . S
C2156 C2158 1.327 . S
C2156 H2181 0.950 . S
C2157 C2156 1.349 . S
C2157 C2173 1.349 1_455 S
C2158 C2156 1.327 . S
C2158 C2177 1.429 . S
C2158 H2182 0.950 . S
C2159 C2176 1.574 . S
C2159 C2178 1.368 1_655 S
C2159 H2183 0.949 . S
H2160 C2164 0.949 . S
C2161 C2162 1.349 1_655 S
C2161 C2163 1.327 . S
C2161 H2184 0.950 . S
C2162 C2161 1.349 1_455 S
C2162 C2174 1.349 . S
C2163 C2161 1.327 . S
C2163 C2179 1.429 1_655 S
C2163 H2185 0.950 . S
C2164 H2160 0.949 . S
C2164 C2172 1.574 . S
C2164 C2180 1.368 . S
H2165 C2173 0.950 . S
H2166 C2171 0.950 . S
H2167 C2172 0.949 . S
H2168 C2174 0.950 1_554 S
H2169 C2175 0.950 . S
H2170 C2176 0.949 . S
C2171 H2166 0.950 . S
C2171 C2173 1.327 . S
C2171 C2177 1.429 1_655 S
C2172 C2164 1.574 . S
C2172 H2167 0.949 . S
C2172 C2178 1.368 . S
C2173 C2157 1.349 1_655 S
C2173 H2165 0.950 . S
C2173 C2171 1.327 . S
C2174 C2162 1.349 . S
C2174 H2168 0.950 1_556 S
C2174 C2175 1.327 . S
C2175 H2169 0.950 . S
C2175 C2174 1.327 . S
C2175 C2179 1.429 . S
C2176 C2159 1.574 . S
C2176 H2170 0.949 . S
C2176 C2180 1.368 1_655 S
C2177 C2158 1.429 . S
C2177 C2171 1.429 1_455 S
C2177 C2178 1.523 . S
C2178 C2159 1.368 1_455 S
C2178 C2172 1.368 . S
C2178 C2177 1.523 . S
C2179 C2163 1.429 1_455 S
C2179 C2175 1.429 . S
C2179 C2180 1.523 . S
C2180 C2164 1.368 . S
C2180 C2176 1.368 1_455 S
C2180 C2179 1.523 . S
H2181 C2156 0.950 . S
H2182 C2158 0.950 . S
H2183 C2159 0.949 . S
H2184 C2161 0.950 . S
H2185 C2163 0.950 . S
C2186 C2187 1.349 . S
C2186 C2188 1.327 . S
C2186 H2211 0.950 . S
C2187 C2186 1.349 . S
C2187 C2203 1.349 . S
C2188 C2186 1.327 . S
C2188 C2207 1.429 . S
C2188 H2212 0.950 . S
C2189 C2206 1.574 . S
C2189 C2208 1.368 . S
C2189 H2213 0.949 . S
H2190 C2194 0.949 . S
C2191 C2192 1.349 . S
C2191 C2193 1.327 . S
C2191 H2214 0.950 . S
C2192 C2191 1.349 . S
C2192 C2204 1.349 . S
C2193 C2191 1.327 . S
C2193 C2209 1.429 . S
C2193 H2215 0.950 . S
C2194 H2190 0.949 . S
C2194 C2202 1.574 . S
C2194 C2210 1.368 . S
H2195 C2203 0.950 . S
H2196 C2201 0.950 . S
H2197 C2202 0.949 . S
H2198 C2204 0.950 . S
H2199 C2205 0.950 . S
H2200 C2206 0.949 . S
C2201 H2196 0.950 . S
C2201 C2203 1.327 . S
C2201 C2207 1.429 . S
C2202 C2194 1.574 . S
C2202 H2197 0.949 . S
C2202 C2208 1.368 . S
C2203 C2187 1.349 . S
C2203 H2195 0.950 . S
C2203 C2201 1.327 . S
C2204 C2192 1.349 . S
C2204 H2198 0.950 . S
C2204 C2205 1.327 . S
C2205 H2199 0.950 . S
C2205 C2204 1.327 . S
C2205 C2209 1.429 . S
C2206 C2189 1.574 . S
C2206 H2200 0.949 . S
C2206 C2210 1.368 . S
C2207 C2188 1.429 . S
C2207 C2201 1.429 . S
C2207 C2208 1.523 . S
C2208 C2189 1.368 . S
C2208 C2202 1.368 . S
C2208 C2207 1.523 . S
C2209 C2193 1.429 . S
C2209 C2205 1.429 . S
C2209 C2210 1.523 . S
C2210 C2194 1.368 . S
C2210 C2206 1.368 . S
C2210 C2209 1.523 . S
H2211 C2186 0.950 . S
H2212 C2188 0.950 . S
H2213 C2189 0.949 . S
H2214 C2191 0.950 . S
H2215 C2193 0.950 . S
C2216 C2217 1.349 . S
C2216 C2218 1.327 . S
C2216 H2241 0.950 . S
C2217 C2216 1.349 . S
C2217 C2233 1.349 . S
C2218 C2216 1.327 . S
C2218 C2237 1.429 . S
C2218 H2242 0.950 . S
C2219 C2236 1.574 . S
C2219 C2238 1.368 . S
C2219 H2243 0.949 . S
H2220 C2224 0.949 . S
C2221 C2222 1.349 . S
C2221 C2223 1.327 . S
C2221 H2244 0.950 . S
C2222 C2221 1.349 . S
C2222 C2234 1.349 . S
C2223 C2221 1.327 . S
C2223 C2239 1.429 . S
C2223 H2245 0.950 . S
C2224 H2220 0.949 . S
C2224 C2232 1.574 . S
C2224 C2240 1.368 . S
H2225 C2233 0.950 . S
H2226 C2231 0.950 . S
H2227 C2232 0.949 . S
H2228 C2234 0.950 . S
H2229 C2235 0.950 . S
H2230 C2236 0.949 . S
C2231 H2226 0.950 . S
C2231 C2233 1.327 . S
C2231 C2237 1.429 . S
C2232 C2224 1.574 . S
C2232 H2227 0.949 . S
C2232 C2238 1.368 . S
C2233 C2217 1.349 . S
C2233 H2225 0.950 . S
C2233 C2231 1.327 . S
C2234 C2222 1.349 . S
C2234 H2228 0.950 . S
C2234 C2235 1.327 . S
C2235 H2229 0.950 . S
C2235 C2234 1.327 . S
C2235 C2239 1.429 . S
C2236 C2219 1.574 . S
C2236 H2230 0.949 . S
C2236 C2240 1.368 . S
C2237 C2218 1.429 . S
C2237 C2231 1.429 . S
C2237 C2238 1.523 . S
C2238 C2219 1.368 . S
C2238 C2232 1.368 . S
C2238 C2237 1.523 . S
C2239 C2223 1.429 . S
C2239 C2235 1.429 . S
C2239 C2240 1.523 . S
C2240 C2224 1.368 . S
C2240 C2236 1.368 . S
C2240 C2239 1.523 . S
H2241 C2216 0.950 . S
H2242 C2218 0.950 . S
H2243 C2219 0.949 . S
H2244 C2221 0.950 . S
H2245 C2223 0.950 . S
C2246 C2247 1.349 . S
C2246 C2248 1.327 . S
C2246 H2271 0.950 . S
C2247 C2246 1.349 . S
C2247 C2263 1.349 . S
C2248 C2246 1.327 . S
C2248 C2267 1.429 . S
C2248 H2272 0.950 . S
C2249 C2266 1.574 . S
C2249 C2268 1.368 . S
C2249 H2273 0.949 . S
H2250 C2254 0.949 . S
C2251 C2252 1.349 . S
C2251 C2253 1.327 . S
C2251 H2274 0.950 . S
C2252 C2251 1.349 . S
C2252 C2264 1.349 . S
C2253 C2251 1.327 . S
C2253 C2269 1.429 . S
C2253 H2275 0.950 . S
C2254 H2250 0.949 . S
C2254 C2262 1.574 . S
C2254 C2270 1.368 . S
H2255 C2263 0.950 . S
H2256 C2261 0.950 . S
H2257 C2262 0.949 . S
H2258 C2264 0.950 . S
H2259 C2265 0.950 . S
H2260 C2266 0.949 . S
C2261 H2256 0.950 . S
C2261 C2263 1.327 . S
C2261 C2267 1.429 . S
C2262 C2254 1.574 . S
C2262 H2257 0.949 . S
C2262 C2268 1.368 . S
C2263 C2247 1.349 . S
C2263 H2255 0.950 . S
C2263 C2261 1.327 . S
C2264 C2252 1.349 . S
C2264 H2258 0.950 . S
C2264 C2265 1.327 . S
C2265 H2259 0.950 . S
C2265 C2264 1.327 . S
C2265 C2269 1.429 . S
C2266 C2249 1.574 . S
C2266 H2260 0.949 . S
C2266 C2270 1.368 . S
C2267 C2248 1.429 . S
C2267 C2261 1.429 . S
C2267 C2268 1.523 . S
C2268 C2249 1.368 . S
C2268 C2262 1.368 . S
C2268 C2267 1.523 . S
C2269 C2253 1.429 . S
C2269 C2265 1.429 . S
C2269 C2270 1.523 . S
C2270 C2254 1.368 . S
C2270 C2266 1.368 . S
C2270 C2269 1.523 . S
H2271 C2246 0.950 . S
H2272 C2248 0.950 . S
H2273 C2249 0.949 . S
H2274 C2251 0.950 . S
H2275 C2253 0.950 . S
C2276 C2277 1.349 1_455 S
C2276 C2278 1.327 . S
C2276 H2301 0.950 . S
C2277 C2276 1.349 1_655 S
C2277 C2293 1.349 . S
C2278 C2276 1.327 . S
C2278 C2297 1.429 1_455 S
C2278 H2302 0.950 . S
C2279 C2296 1.574 . S
C2279 C2298 1.368 . S
C2279 H2303 0.949 . S
H2280 C2284 0.949 . S
C2281 C2282 1.354 . S
C2281 C2283 1.327 . S
C2281 H2304 0.950 . S
C2282 C2281 1.354 . S
C2282 C2294 1.346 1_655 S
C2283 C2281 1.327 . S
C2283 C2299 1.429 . S
C2283 H2305 0.950 . S
C2284 H2280 0.949 . S
C2284 C2292 1.574 . S
C2284 C2300 1.368 1_455 S
H2285 C2293 0.950 . S
H2286 C2291 0.950 . S
H2287 C2292 0.949 . S
H2288 C2294 0.950 . S
H2289 C2295 0.950 . S
H2290 C2296 0.949 . S
C2291 H2286 0.950 . S
C2291 C2293 1.327 . S
C2291 C2297 1.429 . S
C2292 C2284 1.574 . S
C2292 H2287 0.949 . S
C2292 C2298 1.368 1_455 S
C2293 C2277 1.349 . S
C2293 H2285 0.950 . S
C2293 C2291 1.327 . S
C2294 C2282 1.346 1_455 S
C2294 H2288 0.950 . S
C2294 C2295 1.327 . S
C2295 H2289 0.950 . S
C2295 C2294 1.327 . S
C2295 C2299 1.429 1_455 S
C2296 C2279 1.574 . S
C2296 H2290 0.949 . S
C2296 C2300 1.368 . S
C2297 C2278 1.429 1_655 S
C2297 C2291 1.429 . S
C2297 C2298 1.523 . S
C2298 C2279 1.368 . S
C2298 C2292 1.368 1_655 S
C2298 C2297 1.523 . S
C2299 C2283 1.429 . S
C2299 C2295 1.429 1_655 S
C2299 C2300 1.523 . S
C2300 C2284 1.368 1_655 S
C2300 C2296 1.368 . S
C2300 C2299 1.523 . S
H2301 C2276 0.950 . S
H2302 C2278 0.950 . S
H2303 C2279 0.949 . S
H2304 C2281 0.950 . S
H2305 C2283 0.950 . S
C2306 C2307 1.349 . S
C2306 C2308 1.327 . S
C2306 H2331 0.950 . S
C2307 C2306 1.349 . S
C2307 C2323 1.349 . S
C2308 C2306 1.327 . S
C2308 C2327 1.429 . S
C2308 H2332 0.950 . S
C2309 C2326 1.574 . S
C2309 C2328 1.368 . S
C2309 H2333 0.949 . S
H2310 C2314 0.949 . S
C2311 C2312 1.349 . S
C2311 C2313 1.327 . S
C2311 H2334 0.950 . S
C2312 C2311 1.349 . S
C2312 C2324 1.349 . S
C2313 C2311 1.327 . S
C2313 C2329 1.429 . S
C2313 H2335 0.950 . S
C2314 H2310 0.949 . S
C2314 C2322 1.574 . S
C2314 C2330 1.368 . S
H2315 C2323 0.950 . S
H2316 C2321 0.950 . S
H2317 C2322 0.949 . S
H2318 C2324 0.950 . S
H2319 C2325 0.950 . S
H2320 C2326 0.949 . S
C2321 H2316 0.950 . S
C2321 C2323 1.327 . S
C2321 C2327 1.429 . S
C2322 C2314 1.574 . S
C2322 H2317 0.949 . S
C2322 C2328 1.368 . S
C2323 C2307 1.349 . S
C2323 H2315 0.950 . S
C2323 C2321 1.327 . S
C2324 C2312 1.349 . S
C2324 H2318 0.950 . S
C2324 C2325 1.327 . S
C2325 H2319 0.950 . S
C2325 C2324 1.327 . S
C2325 C2329 1.429 . S
C2326 C2309 1.574 . S
C2326 H2320 0.949 . S
C2326 C2330 1.368 . S
C2327 C2308 1.429 . S
C2327 C2321 1.429 . S
C2327 C2328 1.523 . S
C2328 C2309 1.368 . S
C2328 C2322 1.368 . S
C2328 C2327 1.523 . S
C2329 C2313 1.429 . S
C2329 C2325 1.429 . S
C2329 C2330 1.523 . S
C2330 C2314 1.368 . S
C2330 C2326 1.368 . S
C2330 C2329 1.523 . S
H2331 C2306 0.950 . S
H2332 C2308 0.950 . S
H2333 C2309 0.949 . S
H2334 C2311 0.950 . S
H2335 C2313 0.950 . S
C2336 C2337 1.349 . S
C2336 C2338 1.327 . S
C2336 H2361 0.950 . S
C2337 C2336 1.349 . S
C2337 C2353 1.349 . S
C2338 C2336 1.327 . S
C2338 C2357 1.429 . S
C2338 H2362 0.950 . S
C2339 C2356 1.574 . S
C2339 C2358 1.368 . S
C2339 H2363 0.949 . S
H2340 C2344 0.949 . S
C2341 C2342 1.349 . S
C2341 C2343 1.327 . S
C2341 H2364 0.950 . S
C2342 C2341 1.349 . S
C2342 C2354 1.349 . S
C2343 C2341 1.327 . S
C2343 C2359 1.429 . S
C2343 H2365 0.950 . S
C2344 H2340 0.949 . S
C2344 C2352 1.574 . S
C2344 C2360 1.368 . S
H2345 C2353 0.950 . S
H2346 C2351 0.950 . S
H2347 C2352 0.949 . S
H2348 C2354 0.950 . S
H2349 C2355 0.950 . S
H2350 C2356 0.949 . S
C2351 H2346 0.950 . S
C2351 C2353 1.327 . S
C2351 C2357 1.429 . S
C2352 C2344 1.574 . S
C2352 H2347 0.949 . S
C2352 C2358 1.368 . S
C2353 C2337 1.349 . S
C2353 H2345 0.950 . S
C2353 C2351 1.327 . S
C2354 C2342 1.349 . S
C2354 H2348 0.950 . S
C2354 C2355 1.327 . S
C2355 H2349 0.950 . S
C2355 C2354 1.327 . S
C2355 C2359 1.429 . S
C2356 C2339 1.574 . S
C2356 H2350 0.949 . S
C2356 C2360 1.368 . S
C2357 C2338 1.429 . S
C2357 C2351 1.429 . S
C2357 C2358 1.523 . S
C2358 C2339 1.368 . S
C2358 C2352 1.368 . S
C2358 C2357 1.523 . S
C2359 C2343 1.429 . S
C2359 C2355 1.429 . S
C2359 C2360 1.523 . S
C2360 C2344 1.368 . S
C2360 C2356 1.368 . S
C2360 C2359 1.523 . S
H2361 C2336 0.950 . S
H2362 C2338 0.950 . S
H2363 C2339 0.949 . S
H2364 C2341 0.950 . S
H2365 C2343 0.950 . S
C2366 C2367 1.349 . S
C2366 C2368 1.327 . S
C2366 H2391 0.950 . S
C2367 C2366 1.349 . S
C2367 C2383 1.349 . S
C2368 C2366 1.327 . S
C2368 C2387 1.429 . S
C2368 H2392 0.950 . S
C2369 C2386 1.574 . S
C2369 C2388 1.368 . S
C2369 H2393 0.949 . S
H2370 C2374 0.949 . S
C2371 C2372 1.349 . S
C2371 C2373 1.327 . S
C2371 H2394 0.950 . S
C2372 C2371 1.349 . S
C2372 C2384 1.349 . S
C2373 C2371 1.327 . S
C2373 C2389 1.429 . S
C2373 H2395 0.950 . S
C2374 H2370 0.949 . S
C2374 C2382 1.574 . S
C2374 C2390 1.368 . S
H2375 C2383 0.950 . S
H2376 C2381 0.950 . S
H2377 C2382 0.949 . S
H2378 C2384 0.950 . S
H2379 C2385 0.950 . S
H2380 C2386 0.949 . S
C2381 H2376 0.950 . S
C2381 C2383 1.327 . S
C2381 C2387 1.429 . S
C2382 C2374 1.574 . S
C2382 H2377 0.949 . S
C2382 C2388 1.368 . S
C2383 C2367 1.349 . S
C2383 H2375 0.950 . S
C2383 C2381 1.327 . S
C2384 C2372 1.349 . S
C2384 H2378 0.950 . S
C2384 C2385 1.327 . S
C2385 H2379 0.950 . S
C2385 C2384 1.327 . S
C2385 C2389 1.429 . S
C2386 C2369 1.574 . S
C2386 H2380 0.949 . S
C2386 C2390 1.368 . S
C2387 C2368 1.429 . S
C2387 C2381 1.429 . S
C2387 C2388 1.523 . S
C2388 C2369 1.368 . S
C2388 C2382 1.368 . S
C2388 C2387 1.523 . S
C2389 C2373 1.429 . S
C2389 C2385 1.429 . S
C2389 C2390 1.523 . S
C2390 C2374 1.368 . S
C2390 C2386 1.368 . S
C2390 C2389 1.523 . S
H2391 C2366 0.950 . S
H2392 C2368 0.950 . S
H2393 C2369 0.949 . S
H2394 C2371 0.950 . S
H2395 C2373 0.950 . S
C2396 C2397 1.349 . S
C2396 C2398 1.327 . S
C2396 H2421 0.950 . S
C2397 C2396 1.349 . S
C2397 C2413 1.349 . S
C2398 C2396 1.327 . S
C2398 C2417 1.429 . S
C2398 H2422 0.950 . S
C2399 C2416 1.574 . S
C2399 C2418 1.368 . S
C2399 H2423 0.949 . S
H2400 C2404 0.949 . S
C2401 C2402 1.349 . S
C2401 C2403 1.327 . S
C2401 H2424 0.950 . S
C2402 C2401 1.349 . S
C2402 C2414 1.349 . S
C2403 C2401 1.327 . S
C2403 C2419 1.429 . S
C2403 H2425 0.950 . S
C2404 H2400 0.949 . S
C2404 C2412 1.574 . S
C2404 C2420 1.368 . S
H2405 C2413 0.950 . S
H2406 C2411 0.950 . S
H2407 C2412 0.949 . S
H2408 C2414 0.950 . S
H2409 C2415 0.950 . S
H2410 C2416 0.949 . S
C2411 H2406 0.950 . S
C2411 C2413 1.327 . S
C2411 C2417 1.429 . S
C2412 C2404 1.574 . S
C2412 H2407 0.949 . S
C2412 C2418 1.368 . S
C2413 C2397 1.349 . S
C2413 H2405 0.950 . S
C2413 C2411 1.327 . S
C2414 C2402 1.349 . S
C2414 H2408 0.950 . S
C2414 C2415 1.327 . S
C2415 H2409 0.950 . S
C2415 C2414 1.327 . S
C2415 C2419 1.429 . S
C2416 C2399 1.574 . S
C2416 H2410 0.949 . S
C2416 C2420 1.368 . S
C2417 C2398 1.429 . S
C2417 C2411 1.429 . S
C2417 C2418 1.523 . S
C2418 C2399 1.368 . S
C2418 C2412 1.368 . S
C2418 C2417 1.523 . S
C2419 C2403 1.429 . S
C2419 C2415 1.429 . S
C2419 C2420 1.523 . S
C2420 C2404 1.368 . S
C2420 C2416 1.368 . S
C2420 C2419 1.523 . S
H2421 C2396 0.950 . S
H2422 C2398 0.950 . S
H2423 C2399 0.949 . S
H2424 C2401 0.950 . S
H2425 C2403 0.950 . S
C2426 C2427 1.349 . S
C2426 C2428 1.327 . S
C2426 H2451 0.950 . S
C2427 C2426 1.349 . S
C2427 C2443 1.349 . S
C2428 C2426 1.327 . S
C2428 C2447 1.429 . S
C2428 H2452 0.950 . S
C2429 C2446 1.574 . S
C2429 C2448 1.368 . S
C2429 H2453 0.949 . S
H2430 C2434 0.949 . S
C2431 C2432 1.349 . S
C2431 C2433 1.327 . S
C2431 H2454 0.950 . S
C2432 C2431 1.349 . S
C2432 C2444 1.349 . S
C2433 C2431 1.327 . S
C2433 C2449 1.429 . S
C2433 H2455 0.950 . S
C2434 H2430 0.949 . S
C2434 C2442 1.574 . S
C2434 C2450 1.368 . S
H2435 C2443 0.950 . S
H2436 C2441 0.950 . S
H2437 C2442 0.949 . S
H2438 C2444 0.950 . S
H2439 C2445 0.950 . S
H2440 C2446 0.949 . S
C2441 H2436 0.950 . S
C2441 C2443 1.327 . S
C2441 C2447 1.429 . S
C2442 C2434 1.574 . S
C2442 H2437 0.949 . S
C2442 C2448 1.368 . S
C2443 C2427 1.349 . S
C2443 H2435 0.950 . S
C2443 C2441 1.327 . S
C2444 C2432 1.349 . S
C2444 H2438 0.950 . S
C2444 C2445 1.327 . S
C2445 H2439 0.950 . S
C2445 C2444 1.327 . S
C2445 C2449 1.429 . S
C2446 C2429 1.574 . S
C2446 H2440 0.949 . S
C2446 C2450 1.368 . S
C2447 C2428 1.429 . S
C2447 C2441 1.429 . S
C2447 C2448 1.523 . S
C2448 C2429 1.368 . S
C2448 C2442 1.368 . S
C2448 C2447 1.523 . S
C2449 C2433 1.429 . S
C2449 C2445 1.429 . S
C2449 C2450 1.523 . S
C2450 C2434 1.368 . S
C2450 C2446 1.368 . S
C2450 C2449 1.523 . S
H2451 C2426 0.950 . S
H2452 C2428 0.950 . S
H2453 C2429 0.949 . S
H2454 C2431 0.950 . S
H2455 C2433 0.950 . S
C2456 C2457 1.349 . S
C2456 C2458 1.327 . S
C2456 H2481 0.950 . S
C2457 C2456 1.349 . S
C2457 C2473 1.349 . S
C2458 C2456 1.327 . S
C2458 C2477 1.429 . S
C2458 H2482 0.950 . S
C2459 C2476 1.574 . S
C2459 C2478 1.368 . S
C2459 H2483 0.949 . S
H2460 C2464 0.949 . S
C2461 C2462 1.349 . S
C2461 C2463 1.327 . S
C2461 H2484 0.950 . S
C2462 C2461 1.349 . S
C2462 C2474 1.349 . S
C2463 C2461 1.327 . S
C2463 C2479 1.429 . S
C2463 H2485 0.950 . S
C2464 H2460 0.949 . S
C2464 C2472 1.574 . S
C2464 C2480 1.368 . S
H2465 C2473 0.950 . S
H2466 C2471 0.950 . S
H2467 C2472 0.949 . S
H2468 C2474 0.950 . S
H2469 C2475 0.950 . S
H2470 C2476 0.949 . S
C2471 H2466 0.950 . S
C2471 C2473 1.327 . S
C2471 C2477 1.429 . S
C2472 C2464 1.574 . S
C2472 H2467 0.949 . S
C2472 C2478 1.368 . S
C2473 C2457 1.349 . S
C2473 H2465 0.950 . S
C2473 C2471 1.327 . S
C2474 C2462 1.349 . S
C2474 H2468 0.950 . S
C2474 C2475 1.327 . S
C2475 H2469 0.950 . S
C2475 C2474 1.327 . S
C2475 C2479 1.429 . S
C2476 C2459 1.574 . S
C2476 H2470 0.949 . S
C2476 C2480 1.368 . S
C2477 C2458 1.429 . S
C2477 C2471 1.429 . S
C2477 C2478 1.523 . S
C2478 C2459 1.368 . S
C2478 C2472 1.368 . S
C2478 C2477 1.523 . S
C2479 C2463 1.429 . S
C2479 C2475 1.429 . S
C2479 C2480 1.523 . S
C2480 C2464 1.368 . S
C2480 C2476 1.368 . S
C2480 C2479 1.523 . S
H2481 C2456 0.950 . S
H2482 C2458 0.950 . S
H2483 C2459 0.949 . S
H2484 C2461 0.950 . S
H2485 C2463 0.950 . S
C2486 C2487 1.349 . S
C2486 C2488 1.327 . S
C2486 H2511 0.950 . S
C2487 C2486 1.349 . S
C2487 C2503 1.349 . S
C2488 C2486 1.327 . S
C2488 C2507 1.429 . S
C2488 H2512 0.950 . S
C2489 C2506 1.574 . S
C2489 C2508 1.368 . S
C2489 H2513 0.949 . S
H2490 C2494 0.949 . S
C2491 C2492 1.349 . S
C2491 C2493 1.327 . S
C2491 H2514 0.950 . S
C2492 C2491 1.349 . S
C2492 C2504 1.349 . S
C2493 C2491 1.327 . S
C2493 C2509 1.429 . S
C2493 H2515 0.950 . S
C2494 H2490 0.949 . S
C2494 C2502 1.574 . S
C2494 C2510 1.368 . S
H2495 C2503 0.950 . S
H2496 C2501 0.950 . S
H2497 C2502 0.949 . S
H2498 C2504 0.950 . S
H2499 C2505 0.950 . S
H2500 C2506 0.949 . S
C2501 H2496 0.950 . S
C2501 C2503 1.327 . S
C2501 C2507 1.429 . S
C2502 C2494 1.574 . S
C2502 H2497 0.949 . S
C2502 C2508 1.368 . S
C2503 C2487 1.349 . S
C2503 H2495 0.950 . S
C2503 C2501 1.327 . S
C2504 C2492 1.349 . S
C2504 H2498 0.950 . S
C2504 C2505 1.327 . S
C2505 H2499 0.950 . S
C2505 C2504 1.327 . S
C2505 C2509 1.429 . S
C2506 C2489 1.574 . S
C2506 H2500 0.949 . S
C2506 C2510 1.368 . S
C2507 C2488 1.429 . S
C2507 C2501 1.429 . S
C2507 C2508 1.523 . S
C2508 C2489 1.368 . S
C2508 C2502 1.368 . S
C2508 C2507 1.523 . S
C2509 C2493 1.429 . S
C2509 C2505 1.429 . S
C2509 C2510 1.523 . S
C2510 C2494 1.368 . S
C2510 C2506 1.368 . S
C2510 C2509 1.523 . S
H2511 C2486 0.950 . S
H2512 C2488 0.950 . S
H2513 C2489 0.949 . S
H2514 C2491 0.950 . S
H2515 C2493 0.950 . S
C2516 C2517 1.349 . S
C2516 C2518 1.327 . S
C2516 H2541 0.950 . S
C2517 C2516 1.349 . S
C2517 C2533 1.349 . S
C2518 C2516 1.327 . S
C2518 C2537 1.429 . S
C2518 H2542 0.950 . S
C2519 C2536 1.574 . S
C2519 C2538 1.368 . S
C2519 H2543 0.949 . S
H2520 C2524 0.949 . S
C2521 C2522 1.349 . S
C2521 C2523 1.327 . S
C2521 H2544 0.950 . S
C2522 C2521 1.349 . S
C2522 C2534 1.349 . S
C2523 C2521 1.327 . S
C2523 C2539 1.429 . S
C2523 H2545 0.950 . S
C2524 H2520 0.949 . S
C2524 C2532 1.574 . S
C2524 C2540 1.368 . S
H2525 C2533 0.950 . S
H2526 C2531 0.950 . S
H2527 C2532 0.949 . S
H2528 C2534 0.950 . S
H2529 C2535 0.950 . S
H2530 C2536 0.949 . S
C2531 H2526 0.950 . S
C2531 C2533 1.327 . S
C2531 C2537 1.429 . S
C2532 C2524 1.574 . S
C2532 H2527 0.949 . S
C2532 C2538 1.368 . S
C2533 C2517 1.349 . S
C2533 H2525 0.950 . S
C2533 C2531 1.327 . S
C2534 C2522 1.349 . S
C2534 H2528 0.950 . S
C2534 C2535 1.327 . S
C2535 H2529 0.950 . S
C2535 C2534 1.327 . S
C2535 C2539 1.429 . S
C2536 C2519 1.574 . S
C2536 H2530 0.949 . S
C2536 C2540 1.368 . S
C2537 C2518 1.429 . S
C2537 C2531 1.429 . S
C2537 C2538 1.523 . S
C2538 C2519 1.368 . S
C2538 C2532 1.368 . S
C2538 C2537 1.523 . S
C2539 C2523 1.429 . S
C2539 C2535 1.429 . S
C2539 C2540 1.523 . S
C2540 C2524 1.368 . S
C2540 C2536 1.368 . S
C2540 C2539 1.523 . S
H2541 C2516 0.950 . S
H2542 C2518 0.950 . S
H2543 C2519 0.949 . S
H2544 C2521 0.950 . S
H2545 C2523 0.950 . S
C2546 C2547 1.349 . S
C2546 C2548 1.327 . S
C2546 H2571 0.950 . S
C2547 C2546 1.349 . S
C2547 C2563 1.349 . S
C2548 C2546 1.327 . S
C2548 C2567 1.429 . S
C2548 H2572 0.950 . S
C2549 C2566 1.574 . S
C2549 C2568 1.368 . S
C2549 H2573 0.949 . S
H2550 C2554 0.949 . S
C2551 C2552 1.349 . S
C2551 C2553 1.327 . S
C2551 H2574 0.950 . S
C2552 C2551 1.349 . S
C2552 C2564 1.349 . S
C2553 C2551 1.327 . S
C2553 C2569 1.429 . S
C2553 H2575 0.950 . S
C2554 H2550 0.949 . S
C2554 C2562 1.574 . S
C2554 C2570 1.368 . S
H2555 C2563 0.950 . S
H2556 C2561 0.950 . S
H2557 C2562 0.949 . S
H2558 C2564 0.950 . S
H2559 C2565 0.950 . S
H2560 C2566 0.949 . S
C2561 H2556 0.950 . S
C2561 C2563 1.327 . S
C2561 C2567 1.429 . S
C2562 C2554 1.574 . S
C2562 H2557 0.949 . S
C2562 C2568 1.368 . S
C2563 C2547 1.349 . S
C2563 H2555 0.950 . S
C2563 C2561 1.327 . S
C2564 C2552 1.349 . S
C2564 H2558 0.950 . S
C2564 C2565 1.327 . S
C2565 H2559 0.950 . S
C2565 C2564 1.327 . S
C2565 C2569 1.429 . S
C2566 C2549 1.574 . S
C2566 H2560 0.949 . S
C2566 C2570 1.368 . S
C2567 C2548 1.429 . S
C2567 C2561 1.429 . S
C2567 C2568 1.523 . S
C2568 C2549 1.368 . S
C2568 C2562 1.368 . S
C2568 C2567 1.523 . S
C2569 C2553 1.429 . S
C2569 C2565 1.429 . S
C2569 C2570 1.523 . S
C2570 C2554 1.368 . S
C2570 C2566 1.368 . S
C2570 C2569 1.523 . S
H2571 C2546 0.950 . S
H2572 C2548 0.950 . S
H2573 C2549 0.949 . S
H2574 C2551 0.950 . S
H2575 C2553 0.950 . S
C2576 C2577 1.349 . S
C2576 C2578 1.327 . S
C2576 H2601 0.950 . S
C2577 C2576 1.349 . S
C2577 C2593 1.349 . S
C2578 C2576 1.327 . S
C2578 C2597 1.429 . S
C2578 H2602 0.950 . S
C2579 C2596 1.574 . S
C2579 C2598 1.368 . S
C2579 H2603 0.949 . S
H2580 C2584 0.949 . S
C2581 C2582 1.349 . S
C2581 C2583 1.327 . S
C2581 H2604 0.950 . S
C2582 C2581 1.349 . S
C2582 C2594 1.349 . S
C2583 C2581 1.327 . S
C2583 C2599 1.429 . S
C2583 H2605 0.950 . S
C2584 H2580 0.949 . S
C2584 C2592 1.574 . S
C2584 C2600 1.368 . S
H2585 C2593 0.950 . S
H2586 C2591 0.950 . S
H2587 C2592 0.949 . S
H2588 C2594 0.950 . S
H2589 C2595 0.950 . S
H2590 C2596 0.949 . S
C2591 H2586 0.950 . S
C2591 C2593 1.327 . S
C2591 C2597 1.429 . S
C2592 C2584 1.574 . S
C2592 H2587 0.949 . S
C2592 C2598 1.368 . S
C2593 C2577 1.349 . S
C2593 H2585 0.950 . S
C2593 C2591 1.327 . S
C2594 C2582 1.349 . S
C2594 H2588 0.950 . S
C2594 C2595 1.327 . S
C2595 H2589 0.950 . S
C2595 C2594 1.327 . S
C2595 C2599 1.429 . S
C2596 C2579 1.574 . S
C2596 H2590 0.949 . S
C2596 C2600 1.368 . S
C2597 C2578 1.429 . S
C2597 C2591 1.429 . S
C2597 C2598 1.523 . S
C2598 C2579 1.368 . S
C2598 C2592 1.368 . S
C2598 C2597 1.523 . S
C2599 C2583 1.429 . S
C2599 C2595 1.429 . S
C2599 C2600 1.523 . S
C2600 C2584 1.368 . S
C2600 C2596 1.368 . S
C2600 C2599 1.523 . S
H2601 C2576 0.950 . S
H2602 C2578 0.950 . S
H2603 C2579 0.949 . S
H2604 C2581 0.950 . S
H2605 C2583 0.950 . S
C2606 C2607 1.349 . S
C2606 C2608 1.327 . S
C2606 H2631 0.950 . S
C2607 C2606 1.349 . S
C2607 C2623 1.349 . S
C2608 C2606 1.327 . S
C2608 C2627 1.429 . S
C2608 H2632 0.950 . S
C2609 C2626 1.574 . S
C2609 C2628 1.368 . S
C2609 H2633 0.949 . S
H2610 C2614 0.949 . S
C2611 C2612 1.349 . S
C2611 C2613 1.327 . S
C2611 H2634 0.950 . S
C2612 C2611 1.349 . S
C2612 C2624 1.349 . S
C2613 C2611 1.327 . S
C2613 C2629 1.429 . S
C2613 H2635 0.950 . S
C2614 H2610 0.949 . S
C2614 C2622 1.574 . S
C2614 C2630 1.368 . S
H2615 C2623 0.950 . S
H2616 C2621 0.950 . S
H2617 C2622 0.949 . S
H2618 C2624 0.950 . S
H2619 C2625 0.950 . S
H2620 C2626 0.949 . S
C2621 H2616 0.950 . S
C2621 C2623 1.327 . S
C2621 C2627 1.429 . S
C2622 C2614 1.574 . S
C2622 H2617 0.949 . S
C2622 C2628 1.368 . S
C2623 C2607 1.349 . S
C2623 H2615 0.950 . S
C2623 C2621 1.327 . S
C2624 C2612 1.349 . S
C2624 H2618 0.950 . S
C2624 C2625 1.327 . S
C2625 H2619 0.950 . S
C2625 C2624 1.327 . S
C2625 C2629 1.429 . S
C2626 C2609 1.574 . S
C2626 H2620 0.949 . S
C2626 C2630 1.368 . S
C2627 C2608 1.429 . S
C2627 C2621 1.429 . S
C2627 C2628 1.523 . S
C2628 C2609 1.368 . S
C2628 C2622 1.368 . S
C2628 C2627 1.523 . S
C2629 C2613 1.429 . S
C2629 C2625 1.429 . S
C2629 C2630 1.523 . S
C2630 C2614 1.368 . S
C2630 C2626 1.368 . S
C2630 C2629 1.523 . S
H2631 C2606 0.950 . S
H2632 C2608 0.950 . S
H2633 C2609 0.949 . S
H2634 C2611 0.950 . S
H2635 C2613 0.950 . S
C2636 C2637 1.349 . S
C2636 C2638 1.327 . S
C2636 H2661 0.950 . S
C2637 C2636 1.349 . S
C2637 C2653 1.349 . S
C2638 C2636 1.327 . S
C2638 C2657 1.429 . S
C2638 H2662 0.950 . S
C2639 C2656 1.574 . S
C2639 C2658 1.368 . S
C2639 H2663 0.949 . S
H2640 C2644 0.949 . S
C2641 C2642 1.349 . S
C2641 C2643 1.327 . S
C2641 H2664 0.950 . S
C2642 C2641 1.349 . S
C2642 C2654 1.349 . S
C2643 C2641 1.327 . S
C2643 C2659 1.429 . S
C2643 H2665 0.950 . S
C2644 H2640 0.949 . S
C2644 C2652 1.574 . S
C2644 C2660 1.368 . S
H2645 C2653 0.950 . S
H2646 C2651 0.950 . S
H2647 C2652 0.949 . S
H2648 C2654 0.950 . S
H2649 C2655 0.950 . S
H2650 C2656 0.949 . S
C2651 H2646 0.950 . S
C2651 C2653 1.327 . S
C2651 C2657 1.429 . S
C2652 C2644 1.574 . S
C2652 H2647 0.949 . S
C2652 C2658 1.368 . S
C2653 C2637 1.349 . S
C2653 H2645 0.950 . S
C2653 C2651 1.327 . S
C2654 C2642 1.349 . S
C2654 H2648 0.950 . S
C2654 C2655 1.327 . S
C2655 H2649 0.950 . S
C2655 C2654 1.327 . S
C2655 C2659 1.429 . S
C2656 C2639 1.574 . S
C2656 H2650 0.949 . S
C2656 C2660 1.368 . S
C2657 C2638 1.429 . S
C2657 C2651 1.429 . S
C2657 C2658 1.523 . S
C2658 C2639 1.368 . S
C2658 C2652 1.368 . S
C2658 C2657 1.523 . S
C2659 C2643 1.429 . S
C2659 C2655 1.429 . S
C2659 C2660 1.523 . S
C2660 C2644 1.368 . S
C2660 C2656 1.368 . S
C2660 C2659 1.523 . S
H2661 C2636 0.950 . S
H2662 C2638 0.950 . S
H2663 C2639 0.949 . S
H2664 C2641 0.950 . S
H2665 C2643 0.950 . S
C2666 C2667 1.349 . S
C2666 C2668 1.327 . S
C2666 H2691 0.950 . S
C2667 C2666 1.349 . S
C2667 C2683 1.349 . S
C2668 C2666 1.327 . S
C2668 C2687 1.429 . S
C2668 H2692 0.950 . S
C2669 C2686 1.574 . S
C2669 C2688 1.368 . S
C2669 H2693 0.952 1_554 S
H2670 C2674 0.949 . S
C2671 C2672 1.349 . S
C2671 C2673 1.336 . S
C2671 H2694 0.950 1_554 S
C2672 C2671 1.349 . S
C2672 C2684 1.349 1_545 S
C2673 C2671 1.336 . S
C2673 C2689 1.414 1_545 S
C2673 H2695 0.956 1_554 S
C2674 H2670 0.949 . S
C2674 C2682 1.574 . S
C2674 C2690 1.368 . S
H2675 C2683 0.950 . S
H2676 C2681 0.950 . S
H2677 C2682 0.949 . S
H2678 C2684 0.950 . S
H2679 C2685 0.950 . S
H2680 C2686 0.949 1_556 S
C2681 H2676 0.950 . S
C2681 C2683 1.327 . S
C2681 C2687 1.429 . S
C2682 C2674 1.574 . S
C2682 H2677 0.949 . S
C2682 C2688 1.368 . S
C2683 C2667 1.349 . S
C2683 H2675 0.950 . S
C2683 C2681 1.327 . S
C2684 C2672 1.349 1_565 S
C2684 H2678 0.950 . S
C2684 C2685 1.327 . S
C2685 H2679 0.950 . S
C2685 C2684 1.327 . S
C2685 C2689 1.429 . S
C2686 C2669 1.574 . S
C2686 H2680 0.949 1_554 S
C2686 C2690 1.368 . S
C2687 C2668 1.429 . S
C2687 C2681 1.429 . S
C2687 C2688 1.523 . S
C2688 C2669 1.368 . S
C2688 C2682 1.368 . S
C2688 C2687 1.523 . S
C2689 C2673 1.414 1_565 S
C2689 C2685 1.429 . S
C2689 C2690 1.523 . S
C2690 C2674 1.368 . S
C2690 C2686 1.368 . S
C2690 C2689 1.523 . S
H2691 C2666 0.950 . S
H2692 C2668 0.950 . S
H2693 C2669 0.952 1_556 S
H2694 C2671 0.950 1_556 S
H2695 C2673 0.956 1_556 S
C2696 C2697 1.349 . S
C2696 C2698 1.327 . S
C2696 H2721 0.950 . S
C2697 C2696 1.349 . S
C2697 C2713 1.349 . S
C2698 C2696 1.327 . S
C2698 C2717 1.429 . S
C2698 H2722 0.950 . S
C2699 C2716 1.574 . S
C2699 C2718 1.368 . S
C2699 H2723 0.949 . S
H2700 C2704 0.949 . S
C2701 C2702 1.349 . S
C2701 C2703 1.327 . S
C2701 H2724 0.950 . S
C2702 C2701 1.349 . S
C2702 C2714 1.349 . S
C2703 C2701 1.327 . S
C2703 C2719 1.429 . S
C2703 H2725 0.950 . S
C2704 H2700 0.949 . S
C2704 C2712 1.574 . S
C2704 C2720 1.368 . S
H2705 C2713 0.950 . S
H2706 C2711 0.950 . S
H2707 C2712 0.949 . S
H2708 C2714 0.950 . S
H2709 C2715 0.950 . S
H2710 C2716 0.949 . S
C2711 H2706 0.950 . S
C2711 C2713 1.327 . S
C2711 C2717 1.429 . S
C2712 C2704 1.574 . S
C2712 H2707 0.949 . S
C2712 C2718 1.368 . S
C2713 C2697 1.349 . S
C2713 H2705 0.950 . S
C2713 C2711 1.327 . S
C2714 C2702 1.349 . S
C2714 H2708 0.950 . S
C2714 C2715 1.327 . S
C2715 H2709 0.950 . S
C2715 C2714 1.327 . S
C2715 C2719 1.429 . S
C2716 C2699 1.574 . S
C2716 H2710 0.949 . S
C2716 C2720 1.368 . S
C2717 C2698 1.429 . S
C2717 C2711 1.429 . S
C2717 C2718 1.523 . S
C2718 C2699 1.368 . S
C2718 C2712 1.368 . S
C2718 C2717 1.523 . S
C2719 C2703 1.429 . S
C2719 C2715 1.429 . S
C2719 C2720 1.523 . S
C2720 C2704 1.368 . S
C2720 C2716 1.368 . S
C2720 C2719 1.523 . S
H2721 C2696 0.950 . S
H2722 C2698 0.950 . S
H2723 C2699 0.949 . S
H2724 C2701 0.950 . S
H2725 C2703 0.950 . S
C2726 C2727 1.349 1_556 S
C2726 C2728 1.332 . S
C2726 H2751 0.950 . S
C2727 C2726 1.349 1_554 S
C2727 C2743 1.349 . S
C2728 C2726 1.332 . S
C2728 C2747 1.401 1_556 S
C2728 H2752 0.975 . S
C2729 C2746 1.574 . S
C2729 C2748 1.368 . S
C2729 H2753 0.949 . S
H2730 C2734 0.952 . S
C2731 C2732 1.349 . S
C2731 C2733 1.327 . S
C2731 H2754 0.950 . S
C2732 C2731 1.349 . S
C2732 C2744 1.349 . S
C2733 C2731 1.327 . S
C2733 C2749 1.429 . S
C2733 H2755 0.950 . S
C2734 H2730 0.952 . S
C2734 C2742 1.574 . S
C2734 C2750 1.368 . S
H2735 C2743 0.950 . S
H2736 C2741 0.950 . S
H2737 C2742 0.949 1_556 S
H2738 C2744 0.950 . S
H2739 C2745 0.950 . S
H2740 C2746 0.949 . S
C2741 H2736 0.950 . S
C2741 C2743 1.327 . S
C2741 C2747 1.429 . S
C2742 C2734 1.574 . S
C2742 H2737 0.949 1_554 S
C2742 C2748 1.368 . S
C2743 C2727 1.349 . S
C2743 H2735 0.950 . S
C2743 C2741 1.327 . S
C2744 C2732 1.349 . S
C2744 H2738 0.950 . S
C2744 C2745 1.327 . S
C2745 H2739 0.950 . S
C2745 C2744 1.327 . S
C2745 C2749 1.429 . S
C2746 C2729 1.574 . S
C2746 H2740 0.949 . S
C2746 C2750 1.368 . S
C2747 C2728 1.401 1_554 S
C2747 C2741 1.429 . S
C2747 C2748 1.523 . S
C2748 C2729 1.368 . S
C2748 C2742 1.368 . S
C2748 C2747 1.523 . S
C2749 C2733 1.429 . S
C2749 C2745 1.429 . S
C2749 C2750 1.523 . S
C2750 C2734 1.368 . S
C2750 C2746 1.368 . S
C2750 C2749 1.523 . S
H2751 C2726 0.950 . S
H2752 C2728 0.975 . S
H2753 C2729 0.949 . S
H2754 C2731 0.950 . S
H2755 C2733 0.950 . S
C2756 C2757 1.349 . S
C2756 C2758 1.327 . S
C2756 H2781 0.950 . S
C2757 C2756 1.349 . S
C2757 C2773 1.349 . S
C2758 C2756 1.327 . S
C2758 C2777 1.429 . S
C2758 H2782 0.950 . S
C2759 C2776 1.574 . S
C2759 C2778 1.368 . S
C2759 H2783 0.949 . S
H2760 C2764 0.949 . S
C2761 C2762 1.349 . S
C2761 C2763 1.327 . S
C2761 H2784 0.950 . S
C2762 C2761 1.349 . S
C2762 C2774 1.349 . S
C2763 C2761 1.327 . S
C2763 C2779 1.429 . S
C2763 H2785 0.950 . S
C2764 H2760 0.949 . S
C2764 C2772 1.574 . S
C2764 C2780 1.368 . S
H2765 C2773 0.950 . S
H2766 C2771 0.950 . S
H2767 C2772 0.949 . S
H2768 C2774 0.950 . S
H2769 C2775 0.950 . S
H2770 C2776 0.949 . S
C2771 H2766 0.950 . S
C2771 C2773 1.327 . S
C2771 C2777 1.429 . S
C2772 C2764 1.574 . S
C2772 H2767 0.949 . S
C2772 C2778 1.368 . S
C2773 C2757 1.349 . S
C2773 H2765 0.950 . S
C2773 C2771 1.327 . S
C2774 C2762 1.349 . S
C2774 H2768 0.950 . S
C2774 C2775 1.327 . S
C2775 H2769 0.950 . S
C2775 C2774 1.327 . S
C2775 C2779 1.429 . S
C2776 C2759 1.574 . S
C2776 H2770 0.949 . S
C2776 C2780 1.368 . S
C2777 C2758 1.429 . S
C2777 C2771 1.429 . S
C2777 C2778 1.523 . S
C2778 C2759 1.368 . S
C2778 C2772 1.368 . S
C2778 C2777 1.523 . S
C2779 C2763 1.429 . S
C2779 C2775 1.429 . S
C2779 C2780 1.523 . S
C2780 C2764 1.368 . S
C2780 C2776 1.368 . S
C2780 C2779 1.523 . S
H2781 C2756 0.950 . S
H2782 C2758 0.950 . S
H2783 C2759 0.949 . S
H2784 C2761 0.950 . S
H2785 C2763 0.950 . S
C2786 C2787 1.349 . S
C2786 C2788 1.327 . S
C2786 H2811 0.950 . S
C2787 C2786 1.349 . S
C2787 C2803 1.349 . S
C2788 C2786 1.327 . S
C2788 C2807 1.429 . S
C2788 H2812 0.950 . S
C2789 C2806 1.574 . S
C2789 C2808 1.368 . S
C2789 H2813 0.949 . S
H2790 C2794 0.949 . S
C2791 C2792 1.349 . S
C2791 C2793 1.327 . S
C2791 H2814 0.950 . S
C2792 C2791 1.349 . S
C2792 C2804 1.349 . S
C2793 C2791 1.327 . S
C2793 C2809 1.429 . S
C2793 H2815 0.950 . S
C2794 H2790 0.949 . S
C2794 C2802 1.574 . S
C2794 C2810 1.368 . S
H2795 C2803 0.950 . S
H2796 C2801 0.950 . S
H2797 C2802 0.949 . S
H2798 C2804 0.950 . S
H2799 C2805 0.950 . S
H2800 C2806 0.949 . S
C2801 H2796 0.950 . S
C2801 C2803 1.327 . S
C2801 C2807 1.429 . S
C2802 C2794 1.574 . S
C2802 H2797 0.949 . S
C2802 C2808 1.368 . S
C2803 C2787 1.349 . S
C2803 H2795 0.950 . S
C2803 C2801 1.327 . S
C2804 C2792 1.349 . S
C2804 H2798 0.950 . S
C2804 C2805 1.327 . S
C2805 H2799 0.950 . S
C2805 C2804 1.327 . S
C2805 C2809 1.429 . S
C2806 C2789 1.574 . S
C2806 H2800 0.949 . S
C2806 C2810 1.368 . S
C2807 C2788 1.429 . S
C2807 C2801 1.429 . S
C2807 C2808 1.523 . S
C2808 C2789 1.368 . S
C2808 C2802 1.368 . S
C2808 C2807 1.523 . S
C2809 C2793 1.429 . S
C2809 C2805 1.429 . S
C2809 C2810 1.523 . S
C2810 C2794 1.368 . S
C2810 C2806 1.368 . S
C2810 C2809 1.523 . S
H2811 C2786 0.950 . S
H2812 C2788 0.950 . S
H2813 C2789 0.949 . S
H2814 C2791 0.950 . S
H2815 C2793 0.950 . S
C2816 C2817 1.349 . S
C2816 C2818 1.327 . S
C2816 H2841 0.950 . S
C2817 C2816 1.349 . S
C2817 C2833 1.349 . S
C2818 C2816 1.327 . S
C2818 C2837 1.429 . S
C2818 H2842 0.950 . S
C2819 C2836 1.574 . S
C2819 C2838 1.368 . S
C2819 H2843 0.949 . S
H2820 C2824 0.949 . S
C2821 C2822 1.349 . S
C2821 C2823 1.327 . S
C2821 H2844 0.950 . S
C2822 C2821 1.349 . S
C2822 C2834 1.349 . S
C2823 C2821 1.327 . S
C2823 C2839 1.429 . S
C2823 H2845 0.950 . S
C2824 H2820 0.949 . S
C2824 C2832 1.574 . S
C2824 C2840 1.368 . S
H2825 C2833 0.950 . S
H2826 C2831 0.950 . S
H2827 C2832 0.949 . S
H2828 C2834 0.950 . S
H2829 C2835 0.950 . S
H2830 C2836 0.949 . S
C2831 H2826 0.950 . S
C2831 C2833 1.327 . S
C2831 C2837 1.429 . S
C2832 C2824 1.574 . S
C2832 H2827 0.949 . S
C2832 C2838 1.368 . S
C2833 C2817 1.349 . S
C2833 H2825 0.950 . S
C2833 C2831 1.327 . S
C2834 C2822 1.349 . S
C2834 H2828 0.950 . S
C2834 C2835 1.327 . S
C2835 H2829 0.950 . S
C2835 C2834 1.327 . S
C2835 C2839 1.429 . S
C2836 C2819 1.574 . S
C2836 H2830 0.949 . S
C2836 C2840 1.368 . S
C2837 C2818 1.429 . S
C2837 C2831 1.429 . S
C2837 C2838 1.523 . S
C2838 C2819 1.368 . S
C2838 C2832 1.368 . S
C2838 C2837 1.523 . S
C2839 C2823 1.429 . S
C2839 C2835 1.429 . S
C2839 C2840 1.523 . S
C2840 C2824 1.368 . S
C2840 C2836 1.368 . S
C2840 C2839 1.523 . S
H2841 C2816 0.950 . S
H2842 C2818 0.950 . S
H2843 C2819 0.949 . S
H2844 C2821 0.950 . S
H2845 C2823 0.950 . S
C2846 C2847 1.349 . S
C2846 C2848 1.327 . S
C2846 H2871 0.950 . S
C2847 C2846 1.349 . S
C2847 C2863 1.349 . S
C2848 C2846 1.327 . S
C2848 C2867 1.429 . S
C2848 H2872 0.950 . S
C2849 C2866 1.574 . S
C2849 C2868 1.368 . S
C2849 H2873 0.949 . S
H2850 C2854 0.949 . S
C2851 C2852 1.349 . S
C2851 C2853 1.327 . S
C2851 H2874 0.950 . S
C2852 C2851 1.349 . S
C2852 C2864 1.349 . S
C2853 C2851 1.327 . S
C2853 C2869 1.429 . S
C2853 H2875 0.950 . S
C2854 H2850 0.949 . S
C2854 C2862 1.574 . S
C2854 C2870 1.368 . S
H2855 C2863 0.950 . S
H2856 C2861 0.950 . S
H2857 C2862 0.949 . S
H2858 C2864 0.950 . S
H2859 C2865 0.950 . S
H2860 C2866 0.949 . S
C2861 H2856 0.950 . S
C2861 C2863 1.327 . S
C2861 C2867 1.429 . S
C2862 C2854 1.574 . S
C2862 H2857 0.949 . S
C2862 C2868 1.368 . S
C2863 C2847 1.349 . S
C2863 H2855 0.950 . S
C2863 C2861 1.327 . S
C2864 C2852 1.349 . S
C2864 H2858 0.950 . S
C2864 C2865 1.327 . S
C2865 H2859 0.950 . S
C2865 C2864 1.327 . S
C2865 C2869 1.429 . S
C2866 C2849 1.574 . S
C2866 H2860 0.949 . S
C2866 C2870 1.368 . S
C2867 C2848 1.429 . S
C2867 C2861 1.429 . S
C2867 C2868 1.523 . S
C2868 C2849 1.368 . S
C2868 C2862 1.368 . S
C2868 C2867 1.523 . S
C2869 C2853 1.429 . S
C2869 C2865 1.429 . S
C2869 C2870 1.523 . S
C2870 C2854 1.368 . S
C2870 C2866 1.368 . S
C2870 C2869 1.523 . S
H2871 C2846 0.950 . S
H2872 C2848 0.950 . S
H2873 C2849 0.949 . S
H2874 C2851 0.950 . S
H2875 C2853 0.950 . S
C2876 C2877 1.349 1_655 S
C2876 C2878 1.327 . S
C2876 H2901 0.950 . S
C2877 C2876 1.349 1_455 S
C2877 C2893 1.349 . S
C2878 C2876 1.327 . S
C2878 C2897 1.429 1_655 S
C2878 H2902 0.950 . S
C2879 C2896 1.574 . S
C2879 C2898 1.368 . S
C2879 H2903 0.949 . S
H2880 C2884 0.949 . S
C2881 C2882 1.349 . S
C2881 C2883 1.327 . S
C2881 H2904 0.950 . S
C2882 C2881 1.349 . S
C2882 C2894 1.349 1_455 S
C2883 C2881 1.327 . S
C2883 C2899 1.429 . S
C2883 H2905 0.950 . S
C2884 H2880 0.949 . S
C2884 C2892 1.574 . S
C2884 C2900 1.368 1_655 S
H2885 C2893 0.950 . S
H2886 C2891 0.950 . S
H2887 C2892 0.949 . S
H2888 C2894 0.950 . S
H2889 C2895 0.950 . S
H2890 C2896 0.949 . S
C2891 H2886 0.950 . S
C2891 C2893 1.327 . S
C2891 C2897 1.429 . S
C2892 C2884 1.574 . S
C2892 H2887 0.949 . S
C2892 C2898 1.368 1_655 S
C2893 C2877 1.349 . S
C2893 H2885 0.950 . S
C2893 C2891 1.327 . S
C2894 C2882 1.349 1_655 S
C2894 H2888 0.950 . S
C2894 C2895 1.327 . S
C2895 H2889 0.950 . S
C2895 C2894 1.327 . S
C2895 C2899 1.429 1_655 S
C2896 C2879 1.574 . S
C2896 H2890 0.949 . S
C2896 C2900 1.368 . S
C2897 C2878 1.429 1_455 S
C2897 C2891 1.429 . S
C2897 C2898 1.523 . S
C2898 C2879 1.368 . S
C2898 C2892 1.368 1_455 S
C2898 C2897 1.523 . S
C2899 C2883 1.429 . S
C2899 C2895 1.429 1_455 S
C2899 C2900 1.523 . S
C2900 C2884 1.368 1_455 S
C2900 C2896 1.368 . S
C2900 C2899 1.523 . S
H2901 C2876 0.950 . S
H2902 C2878 0.950 . S
H2903 C2879 0.949 . S
H2904 C2881 0.950 . S
H2905 C2883 0.950 . S
C2906 C2907 1.349 . S
C2906 C2908 1.327 . S
C2906 H2931 0.950 . S
C2907 C2906 1.349 . S
C2907 C2923 1.349 . S
C2908 C2906 1.327 . S
C2908 C2927 1.429 . S
C2908 H2932 0.950 . S
C2909 C2926 1.574 . S
C2909 C2928 1.368 . S
C2909 H2933 0.949 . S
H2910 C2914 0.949 . S
C2911 C2912 1.349 . S
C2911 C2913 1.327 . S
C2911 H2934 0.950 . S
C2912 C2911 1.349 . S
C2912 C2924 1.349 . S
C2913 C2911 1.327 . S
C2913 C2929 1.429 . S
C2913 H2935 0.950 . S
C2914 H2910 0.949 . S
C2914 C2922 1.574 . S
C2914 C2930 1.368 . S
H2915 C2923 0.950 . S
H2916 C2921 0.950 . S
H2917 C2922 0.949 . S
H2918 C2924 0.950 . S
H2919 C2925 0.950 . S
H2920 C2926 0.949 . S
C2921 H2916 0.950 . S
C2921 C2923 1.327 . S
C2921 C2927 1.429 . S
C2922 C2914 1.574 . S
C2922 H2917 0.949 . S
C2922 C2928 1.368 . S
C2923 C2907 1.349 . S
C2923 H2915 0.950 . S
C2923 C2921 1.327 . S
C2924 C2912 1.349 . S
C2924 H2918 0.950 . S
C2924 C2925 1.327 . S
C2925 H2919 0.950 . S
C2925 C2924 1.327 . S
C2925 C2929 1.429 . S
C2926 C2909 1.574 . S
C2926 H2920 0.949 . S
C2926 C2930 1.368 . S
C2927 C2908 1.429 . S
C2927 C2921 1.429 . S
C2927 C2928 1.523 . S
C2928 C2909 1.368 . S
C2928 C2922 1.368 . S
C2928 C2927 1.523 . S
C2929 C2913 1.429 . S
C2929 C2925 1.429 . S
C2929 C2930 1.523 . S
C2930 C2914 1.368 . S
C2930 C2926 1.368 . S
C2930 C2929 1.523 . S
H2931 C2906 0.950 . S
H2932 C2908 0.950 . S
H2933 C2909 0.949 . S
H2934 C2911 0.950 . S
H2935 C2913 0.950 . S
C2936 C2937 1.349 . S
C2936 C2938 1.327 . S
C2936 H2961 0.950 . S
C2937 C2936 1.349 . S
C2937 C2953 1.349 . S
C2938 C2936 1.327 . S
C2938 C2957 1.429 . S
C2938 H2962 0.950 . S
C2939 C2956 1.574 . S
C2939 C2958 1.368 . S
C2939 H2963 0.949 . S
H2940 C2944 0.949 . S
C2941 C2942 1.349 . S
C2941 C2943 1.327 . S
C2941 H2964 0.950 1_556 S
C2942 C2941 1.349 . S
C2942 C2954 1.349 . S
C2943 C2941 1.327 . S
C2943 C2959 1.429 . S
C2943 H2965 0.950 . S
C2944 H2940 0.949 . S
C2944 C2952 1.574 . S
C2944 C2960 1.368 . S
H2945 C2953 0.950 . S
H2946 C2951 0.950 . S
H2947 C2952 0.949 . S
H2948 C2954 0.950 . S
H2949 C2955 0.950 . S
H2950 C2956 0.949 . S
C2951 H2946 0.950 . S
C2951 C2953 1.327 . S
C2951 C2957 1.429 . S
C2952 C2944 1.574 . S
C2952 H2947 0.949 . S
C2952 C2958 1.368 . S
C2953 C2937 1.349 . S
C2953 H2945 0.950 . S
C2953 C2951 1.327 . S
C2954 C2942 1.349 . S
C2954 H2948 0.950 . S
C2954 C2955 1.327 . S
C2955 H2949 0.950 . S
C2955 C2954 1.327 . S
C2955 C2959 1.429 . S
C2956 C2939 1.574 . S
C2956 H2950 0.949 . S
C2956 C2960 1.368 . S
C2957 C2938 1.429 . S
C2957 C2951 1.429 . S
C2957 C2958 1.523 . S
C2958 C2939 1.368 . S
C2958 C2952 1.368 . S
C2958 C2957 1.523 . S
C2959 C2943 1.429 . S
C2959 C2955 1.429 . S
C2959 C2960 1.523 . S
C2960 C2944 1.368 . S
C2960 C2956 1.368 . S
C2960 C2959 1.523 . S
H2961 C2936 0.950 . S
H2962 C2938 0.950 . S
H2963 C2939 0.949 . S
H2964 C2941 0.950 1_554 S
H2965 C2943 0.950 . S
C2966 C2967 1.349 . S
C2966 C2968 1.327 . S
C2966 H2991 0.950 . S
C2967 C2966 1.349 . S
C2967 C2983 1.349 . S
C2968 C2966 1.327 . S
C2968 C2987 1.429 . S
C2968 H2992 0.950 . S
C2969 C2986 1.574 . S
C2969 C2988 1.368 . S
C2969 H2993 0.949 . S
H2970 C2974 0.949 . S
C2971 C2972 1.349 . S
C2971 C2973 1.327 . S
C2971 H2994 0.950 . S
C2972 C2971 1.349 . S
C2972 C2984 1.349 . S
C2973 C2971 1.327 . S
C2973 C2989 1.429 . S
C2973 H2995 0.950 . S
C2974 H2970 0.949 . S
C2974 C2982 1.574 . S
C2974 C2990 1.368 . S
H2975 C2983 0.950 . S
H2976 C2981 0.950 . S
H2977 C2982 0.949 . S
H2978 C2984 0.950 . S
H2979 C2985 0.950 . S
H2980 C2986 0.949 . S
C2981 H2976 0.950 . S
C2981 C2983 1.327 . S
C2981 C2987 1.429 . S
C2982 C2974 1.574 . S
C2982 H2977 0.949 . S
C2982 C2988 1.368 . S
C2983 C2967 1.349 . S
C2983 H2975 0.950 . S
C2983 C2981 1.327 . S
C2984 C2972 1.349 . S
C2984 H2978 0.950 . S
C2984 C2985 1.327 . S
C2985 H2979 0.950 . S
C2985 C2984 1.327 . S
C2985 C2989 1.429 . S
C2986 C2969 1.574 . S
C2986 H2980 0.949 . S
C2986 C2990 1.368 . S
C2987 C2968 1.429 . S
C2987 C2981 1.429 . S
C2987 C2988 1.523 . S
C2988 C2969 1.368 . S
C2988 C2982 1.368 . S
C2988 C2987 1.523 . S
C2989 C2973 1.429 . S
C2989 C2985 1.429 . S
C2989 C2990 1.523 . S
C2990 C2974 1.368 . S
C2990 C2986 1.368 . S
C2990 C2989 1.523 . S
H2991 C2966 0.950 . S
H2992 C2968 0.950 . S
H2993 C2969 0.949 . S
H2994 C2971 0.950 . S
H2995 C2973 0.950 . S
C2996 C2997 1.349 . S
C2996 C2998 1.327 . S
C2996 H3021 0.950 . S
C2997 C2996 1.349 . S
C2997 C3013 1.349 . S
C2998 C2996 1.327 . S
C2998 C3017 1.429 . S
C2998 H3022 0.950 . S
C2999 C3016 1.574 . S
C2999 C3018 1.368 . S
C2999 H3023 0.949 . S
H3000 C3004 0.949 . S
C3001 C3002 1.349 . S
C3001 C3003 1.327 . S
C3001 H3024 0.950 . S
C3002 C3001 1.349 . S
C3002 C3014 1.349 . S
C3003 C3001 1.327 . S
C3003 C3019 1.429 . S
C3003 H3025 0.950 . S
C3004 H3000 0.949 . S
C3004 C3012 1.574 . S
C3004 C3020 1.368 . S
H3005 C3013 0.950 . S
H3006 C3011 0.950 . S
H3007 C3012 0.949 . S
H3008 C3014 0.950 . S
H3009 C3015 0.950 . S
H3010 C3016 0.949 . S
C3011 H3006 0.950 . S
C3011 C3013 1.327 . S
C3011 C3017 1.429 . S
C3012 C3004 1.574 . S
C3012 H3007 0.949 . S
C3012 C3018 1.368 . S
C3013 C2997 1.349 . S
C3013 H3005 0.950 . S
C3013 C3011 1.327 . S
C3014 C3002 1.349 . S
C3014 H3008 0.950 . S
C3014 C3015 1.327 . S
C3015 H3009 0.950 . S
C3015 C3014 1.327 . S
C3015 C3019 1.429 . S
C3016 C2999 1.574 . S
C3016 H3010 0.949 . S
C3016 C3020 1.368 . S
C3017 C2998 1.429 . S
C3017 C3011 1.429 . S
C3017 C3018 1.523 . S
C3018 C2999 1.368 . S
C3018 C3012 1.368 . S
C3018 C3017 1.523 . S
C3019 C3003 1.429 . S
C3019 C3015 1.429 . S
C3019 C3020 1.523 . S
C3020 C3004 1.368 . S
C3020 C3016 1.368 . S
C3020 C3019 1.523 . S
H3021 C2996 0.950 . S
H3022 C2998 0.950 . S
H3023 C2999 0.949 . S
H3024 C3001 0.950 . S
H3025 C3003 0.950 . S
C3026 C3027 1.349 . S
C3026 C3028 1.327 . S
C3026 H3051 0.950 . S
C3027 C3026 1.349 . S
C3027 C3043 1.349 . S
C3028 C3026 1.327 . S
C3028 C3047 1.429 . S
C3028 H3052 0.950 . S
C3029 C3046 1.574 . S
C3029 C3048 1.368 . S
C3029 H3053 0.949 . S
H3030 C3034 0.949 . S
C3031 C3032 1.349 . S
C3031 C3033 1.327 . S
C3031 H3054 0.950 . S
C3032 C3031 1.349 . S
C3032 C3044 1.349 . S
C3033 C3031 1.327 . S
C3033 C3049 1.429 . S
C3033 H3055 0.950 . S
C3034 H3030 0.949 . S
C3034 C3042 1.574 . S
C3034 C3050 1.368 . S
H3035 C3043 0.950 . S
H3036 C3041 0.950 . S
H3037 C3042 0.949 . S
H3038 C3044 0.950 . S
H3039 C3045 0.950 . S
H3040 C3046 0.949 . S
C3041 H3036 0.950 . S
C3041 C3043 1.327 . S
C3041 C3047 1.429 . S
C3042 C3034 1.574 . S
C3042 H3037 0.949 . S
C3042 C3048 1.368 . S
C3043 C3027 1.349 . S
C3043 H3035 0.950 . S
C3043 C3041 1.327 . S
C3044 C3032 1.349 . S
C3044 H3038 0.950 . S
C3044 C3045 1.327 . S
C3045 H3039 0.950 . S
C3045 C3044 1.327 . S
C3045 C3049 1.429 . S
C3046 C3029 1.574 . S
C3046 H3040 0.949 . S
C3046 C3050 1.368 . S
C3047 C3028 1.429 . S
C3047 C3041 1.429 . S
C3047 C3048 1.523 . S
C3048 C3029 1.368 . S
C3048 C3042 1.368 . S
C3048 C3047 1.523 . S
C3049 C3033 1.429 . S
C3049 C3045 1.429 . S
C3049 C3050 1.523 . S
C3050 C3034 1.368 . S
C3050 C3046 1.368 . S
C3050 C3049 1.523 . S
H3051 C3026 0.950 . S
H3052 C3028 0.950 . S
H3053 C3029 0.949 . S
H3054 C3031 0.950 . S
H3055 C3033 0.950 . S
C3056 C3057 1.349 . S
C3056 C3058 1.327 . S
C3056 H3081 0.950 . S
C3057 C3056 1.349 . S
C3057 C3073 1.349 . S
C3058 C3056 1.327 . S
C3058 C3077 1.429 . S
C3058 H3082 0.950 . S
C3059 C3076 1.574 . S
C3059 C3078 1.368 . S
C3059 H3083 0.949 . S
H3060 C3064 0.949 . S
C3061 C3062 1.349 . S
C3061 C3063 1.327 . S
C3061 H3084 0.950 . S
C3062 C3061 1.349 . S
C3062 C3074 1.349 . S
C3063 C3061 1.327 . S
C3063 C3079 1.429 . S
C3063 H3085 0.950 . S
C3064 H3060 0.949 . S
C3064 C3072 1.574 . S
C3064 C3080 1.368 . S
H3065 C3073 0.950 . S
H3066 C3071 0.950 . S
H3067 C3072 0.949 . S
H3068 C3074 0.950 . S
H3069 C3075 0.950 . S
H3070 C3076 0.949 . S
C3071 H3066 0.950 . S
C3071 C3073 1.327 . S
C3071 C3077 1.429 . S
C3072 C3064 1.574 . S
C3072 H3067 0.949 . S
C3072 C3078 1.368 . S
C3073 C3057 1.349 . S
C3073 H3065 0.950 . S
C3073 C3071 1.327 . S
C3074 C3062 1.349 . S
C3074 H3068 0.950 . S
C3074 C3075 1.327 . S
C3075 H3069 0.950 . S
C3075 C3074 1.327 . S
C3075 C3079 1.429 . S
C3076 C3059 1.574 . S
C3076 H3070 0.949 . S
C3076 C3080 1.368 . S
C3077 C3058 1.429 . S
C3077 C3071 1.429 . S
C3077 C3078 1.523 . S
C3078 C3059 1.368 . S
C3078 C3072 1.368 . S
C3078 C3077 1.523 . S
C3079 C3063 1.429 . S
C3079 C3075 1.429 . S
C3079 C3080 1.523 . S
C3080 C3064 1.368 . S
C3080 C3076 1.368 . S
C3080 C3079 1.523 . S
H3081 C3056 0.950 . S
H3082 C3058 0.950 . S
H3083 C3059 0.949 . S
H3084 C3061 0.950 . S
H3085 C3063 0.950 . S
C3086 C3087 1.349 . S
C3086 C3088 1.327 . S
C3086 H3111 0.950 . S
C3087 C3086 1.349 . S
C3087 C3103 1.349 . S
C3088 C3086 1.327 . S
C3088 C3107 1.429 . S
C3088 H3112 0.950 . S
C3089 C3106 1.574 . S
C3089 C3108 1.368 . S
C3089 H3113 0.949 . S
H3090 C3094 0.949 . S
C3091 C3092 1.349 . S
C3091 C3093 1.327 . S
C3091 H3114 0.950 . S
C3092 C3091 1.349 . S
C3092 C3104 1.349 . S
C3093 C3091 1.327 . S
C3093 C3109 1.429 . S
C3093 H3115 0.950 . S
C3094 H3090 0.949 . S
C3094 C3102 1.574 . S
C3094 C3110 1.368 . S
H3095 C3103 0.950 . S
H3096 C3101 0.950 . S
H3097 C3102 0.949 . S
H3098 C3104 0.950 . S
H3099 C3105 0.950 . S
H3100 C3106 0.949 . S
C3101 H3096 0.950 . S
C3101 C3103 1.327 . S
C3101 C3107 1.429 . S
C3102 C3094 1.574 . S
C3102 H3097 0.949 . S
C3102 C3108 1.368 . S
C3103 C3087 1.349 . S
C3103 H3095 0.950 . S
C3103 C3101 1.327 . S
C3104 C3092 1.349 . S
C3104 H3098 0.950 . S
C3104 C3105 1.327 . S
C3105 H3099 0.950 . S
C3105 C3104 1.327 . S
C3105 C3109 1.429 . S
C3106 C3089 1.574 . S
C3106 H3100 0.949 . S
C3106 C3110 1.368 . S
C3107 C3088 1.429 . S
C3107 C3101 1.429 . S
C3107 C3108 1.523 . S
C3108 C3089 1.368 . S
C3108 C3102 1.368 . S
C3108 C3107 1.523 . S
C3109 C3093 1.429 . S
C3109 C3105 1.429 . S
C3109 C3110 1.523 . S
C3110 C3094 1.368 . S
C3110 C3106 1.368 . S
C3110 C3109 1.523 . S
H3111 C3086 0.950 . S
H3112 C3088 0.950 . S
H3113 C3089 0.949 . S
H3114 C3091 0.950 . S
H3115 C3093 0.950 . S
C3116 C3117 1.349 . S
C3116 C3118 1.327 . S
C3116 H3141 0.950 . S
C3117 C3116 1.349 . S
C3117 C3133 1.349 . S
C3118 C3116 1.327 . S
C3118 C3137 1.429 . S
C3118 H3142 0.950 . S
C3119 C3136 1.574 . S
C3119 C3138 1.368 . S
C3119 H3143 0.949 . S
H3120 C3124 0.949 . S
C3121 C3122 1.349 . S
C3121 C3123 1.327 . S
C3121 H3144 0.950 1_655 S
C3122 C3121 1.349 . S
C3122 C3134 1.349 . S
C3123 C3121 1.327 . S
C3123 C3139 1.429 . S
C3123 H3145 0.950 . S
C3124 H3120 0.949 . S
C3124 C3132 1.574 . S
C3124 C3140 1.368 . S
H3125 C3133 0.950 . S
H3126 C3131 0.950 . S
H3127 C3132 0.949 . S
H3128 C3134 0.950 . S
H3129 C3135 0.950 . S
H3130 C3136 0.949 . S
C3131 H3126 0.950 . S
C3131 C3133 1.327 . S
C3131 C3137 1.429 . S
C3132 C3124 1.574 . S
C3132 H3127 0.949 . S
C3132 C3138 1.368 . S
C3133 C3117 1.349 . S
C3133 H3125 0.950 . S
C3133 C3131 1.327 . S
C3134 C3122 1.349 . S
C3134 H3128 0.950 . S
C3134 C3135 1.327 . S
C3135 H3129 0.950 . S
C3135 C3134 1.327 . S
C3135 C3139 1.429 . S
C3136 C3119 1.574 . S
C3136 H3130 0.949 . S
C3136 C3140 1.368 . S
C3137 C3118 1.429 . S
C3137 C3131 1.429 . S
C3137 C3138 1.523 . S
C3138 C3119 1.368 . S
C3138 C3132 1.368 . S
C3138 C3137 1.523 . S
C3139 C3123 1.429 . S
C3139 C3135 1.429 . S
C3139 C3140 1.523 . S
C3140 C3124 1.368 . S
C3140 C3136 1.368 . S
C3140 C3139 1.523 . S
H3141 C3116 0.950 . S
H3142 C3118 0.950 . S
H3143 C3119 0.949 . S
H3144 C3121 0.950 1_455 S
H3145 C3123 0.950 . S
C3146 C3147 1.349 . S
C3146 C3148 1.327 . S
C3146 H3171 0.950 . S
C3147 C3146 1.349 . S
C3147 C3163 1.349 . S
C3148 C3146 1.327 . S
C3148 C3167 1.429 . S
C3148 H3172 0.950 . S
C3149 C3166 1.574 . S
C3149 C3168 1.368 . S
C3149 H3173 0.949 . S
H3150 C3154 0.949 . S
C3151 C3152 1.349 . S
C3151 C3153 1.327 . S
C3151 H3174 0.950 . S
C3152 C3151 1.349 . S
C3152 C3164 1.349 . S
C3153 C3151 1.327 . S
C3153 C3169 1.429 . S
C3153 H3175 0.950 . S
C3154 H3150 0.949 . S
C3154 C3162 1.574 . S
C3154 C3170 1.368 . S
H3155 C3163 0.950 . S
H3156 C3161 0.950 . S
H3157 C3162 0.949 . S
H3158 C3164 0.950 . S
H3159 C3165 0.950 . S
H3160 C3166 0.949 . S
C3161 H3156 0.950 . S
C3161 C3163 1.327 . S
C3161 C3167 1.429 . S
C3162 C3154 1.574 . S
C3162 H3157 0.949 . S
C3162 C3168 1.368 . S
C3163 C3147 1.349 . S
C3163 H3155 0.950 . S
C3163 C3161 1.327 . S
C3164 C3152 1.349 . S
C3164 H3158 0.950 . S
C3164 C3165 1.327 . S
C3165 H3159 0.950 . S
C3165 C3164 1.327 . S
C3165 C3169 1.429 . S
C3166 C3149 1.574 . S
C3166 H3160 0.949 . S
C3166 C3170 1.368 . S
C3167 C3148 1.429 . S
C3167 C3161 1.429 . S
C3167 C3168 1.523 . S
C3168 C3149 1.368 . S
C3168 C3162 1.368 . S
C3168 C3167 1.523 . S
C3169 C3153 1.429 . S
C3169 C3165 1.429 . S
C3169 C3170 1.523 . S
C3170 C3154 1.368 . S
C3170 C3166 1.368 . S
C3170 C3169 1.523 . S
H3171 C3146 0.950 . S
H3172 C3148 0.950 . S
H3173 C3149 0.949 . S
H3174 C3151 0.950 . S
H3175 C3153 0.950 . S
C3176 C3177 1.349 . S
C3176 C3178 1.327 . S
C3176 H3201 0.950 . S
C3177 C3176 1.349 . S
C3177 C3193 1.349 . S
C3178 C3176 1.327 . S
C3178 C3197 1.429 . S
C3178 H3202 0.950 . S
C3179 C3196 1.574 . S
C3179 C3198 1.368 . S
C3179 H3203 0.949 . S
H3180 C3184 0.949 . S
C3181 C3182 1.349 . S
C3181 C3183 1.327 . S
C3181 H3204 0.950 . S
C3182 C3181 1.349 . S
C3182 C3194 1.349 . S
C3183 C3181 1.327 . S
C3183 C3199 1.429 . S
C3183 H3205 0.950 . S
C3184 H3180 0.949 . S
C3184 C3192 1.574 . S
C3184 C3200 1.368 . S
H3185 C3193 0.950 . S
H3186 C3191 0.950 . S
H3187 C3192 0.949 . S
H3188 C3194 0.950 . S
H3189 C3195 0.950 . S
H3190 C3196 0.949 . S
C3191 H3186 0.950 . S
C3191 C3193 1.327 . S
C3191 C3197 1.429 . S
C3192 C3184 1.574 . S
C3192 H3187 0.949 . S
C3192 C3198 1.368 . S
C3193 C3177 1.349 . S
C3193 H3185 0.950 . S
C3193 C3191 1.327 . S
C3194 C3182 1.349 . S
C3194 H3188 0.950 . S
C3194 C3195 1.327 . S
C3195 H3189 0.950 . S
C3195 C3194 1.327 . S
C3195 C3199 1.429 . S
C3196 C3179 1.574 . S
C3196 H3190 0.949 . S
C3196 C3200 1.368 . S
C3197 C3178 1.429 . S
C3197 C3191 1.429 . S
C3197 C3198 1.523 . S
C3198 C3179 1.368 . S
C3198 C3192 1.368 . S
C3198 C3197 1.523 . S
C3199 C3183 1.429 . S
C3199 C3195 1.429 . S
C3199 C3200 1.523 . S
C3200 C3184 1.368 . S
C3200 C3196 1.368 . S
C3200 C3199 1.523 . S
H3201 C3176 0.950 . S
H3202 C3178 0.950 . S
H3203 C3179 0.949 . S
H3204 C3181 0.950 . S
H3205 C3183 0.950 . S
C3206 C3207 1.349 . S
C3206 C3208 1.327 . S
C3206 H3231 0.950 . S
C3207 C3206 1.349 . S
C3207 C3223 1.349 . S
C3208 C3206 1.327 . S
C3208 C3227 1.429 . S
C3208 H3232 0.950 . S
C3209 C3226 1.574 . S
C3209 C3228 1.368 . S
C3209 H3233 0.949 . S
H3210 C3214 0.949 . S
C3211 C3212 1.349 . S
C3211 C3213 1.327 . S
C3211 H3234 0.950 . S
C3212 C3211 1.349 . S
C3212 C3224 1.349 . S
C3213 C3211 1.327 . S
C3213 C3229 1.429 . S
C3213 H3235 0.950 . S
C3214 H3210 0.949 . S
C3214 C3222 1.574 . S
C3214 C3230 1.368 . S
H3215 C3223 0.950 . S
H3216 C3221 0.950 . S
H3217 C3222 0.949 . S
H3218 C3224 0.950 . S
H3219 C3225 0.950 . S
H3220 C3226 0.949 . S
C3221 H3216 0.950 . S
C3221 C3223 1.327 . S
C3221 C3227 1.429 . S
C3222 C3214 1.574 . S
C3222 H3217 0.949 . S
C3222 C3228 1.368 . S
C3223 C3207 1.349 . S
C3223 H3215 0.950 . S
C3223 C3221 1.327 . S
C3224 C3212 1.349 . S
C3224 H3218 0.950 . S
C3224 C3225 1.327 . S
C3225 H3219 0.950 . S
C3225 C3224 1.327 . S
C3225 C3229 1.429 . S
C3226 C3209 1.574 . S
C3226 H3220 0.949 . S
C3226 C3230 1.368 . S
C3227 C3208 1.429 . S
C3227 C3221 1.429 . S
C3227 C3228 1.523 . S
C3228 C3209 1.368 . S
C3228 C3222 1.368 . S
C3228 C3227 1.523 . S
C3229 C3213 1.429 . S
C3229 C3225 1.429 . S
C3229 C3230 1.523 . S
C3230 C3214 1.368 . S
C3230 C3226 1.368 . S
C3230 C3229 1.523 . S
H3231 C3206 0.950 . S
H3232 C3208 0.950 . S
H3233 C3209 0.949 . S
H3234 C3211 0.950 . S
H3235 C3213 0.950 . S
C3236 C3237 1.349 . S
C3236 C3238 1.327 . S
C3236 H3261 0.950 . S
C3237 C3236 1.349 . S
C3237 C3253 1.349 . S
C3238 C3236 1.327 . S
C3238 C3257 1.429 . S
C3238 H3262 0.950 . S
C3239 C3256 1.574 . S
C3239 C3258 1.368 . S
C3239 H3263 0.949 . S
H3240 C3244 0.949 . S
C3241 C3242 1.349 . S
C3241 C3243 1.327 . S
C3241 H3264 0.950 1_655 S
C3242 C3241 1.349 . S
C3242 C3254 1.349 . S
C3243 C3241 1.327 . S
C3243 C3259 1.429 . S
C3243 H3265 0.950 . S
C3244 H3240 0.949 . S
C3244 C3252 1.574 . S
C3244 C3260 1.368 . S
H3245 C3253 0.950 . S
H3246 C3251 0.950 . S
H3247 C3252 0.949 . S
H3248 C3254 0.950 . S
H3249 C3255 0.950 . S
H3250 C3256 0.949 . S
C3251 H3246 0.950 . S
C3251 C3253 1.327 . S
C3251 C3257 1.429 . S
C3252 C3244 1.574 . S
C3252 H3247 0.949 . S
C3252 C3258 1.368 . S
C3253 C3237 1.349 . S
C3253 H3245 0.950 . S
C3253 C3251 1.327 . S
C3254 C3242 1.349 . S
C3254 H3248 0.950 . S
C3254 C3255 1.327 . S
C3255 H3249 0.950 . S
C3255 C3254 1.327 . S
C3255 C3259 1.429 . S
C3256 C3239 1.574 . S
C3256 H3250 0.949 . S
C3256 C3260 1.368 . S
C3257 C3238 1.429 . S
C3257 C3251 1.429 . S
C3257 C3258 1.523 . S
C3258 C3239 1.368 . S
C3258 C3252 1.368 . S
C3258 C3257 1.523 . S
C3259 C3243 1.429 . S
C3259 C3255 1.429 . S
C3259 C3260 1.523 . S
C3260 C3244 1.368 . S
C3260 C3256 1.368 . S
C3260 C3259 1.523 . S
H3261 C3236 0.950 . S
H3262 C3238 0.950 . S
H3263 C3239 0.949 . S
H3264 C3241 0.950 1_455 S
H3265 C3243 0.950 . S
C3266 C3267 1.349 . S
C3266 C3268 1.327 . S
C3266 H3291 0.950 . S
C3267 C3266 1.349 . S
C3267 C3283 1.349 . S
C3268 C3266 1.327 . S
C3268 C3287 1.429 . S
C3268 H3292 0.950 . S
C3269 C3286 1.574 . S
C3269 C3288 1.368 . S
C3269 H3293 0.949 . S
H3270 C3274 0.949 . S
C3271 C3272 1.349 . S
C3271 C3273 1.327 . S
C3271 H3294 0.950 . S
C3272 C3271 1.349 . S
C3272 C3284 1.349 . S
C3273 C3271 1.327 . S
C3273 C3289 1.429 . S
C3273 H3295 0.950 . S
C3274 H3270 0.949 . S
C3274 C3282 1.574 . S
C3274 C3290 1.368 . S
H3275 C3283 0.950 . S
H3276 C3281 0.950 . S
H3277 C3282 0.949 . S
H3278 C3284 0.950 . S
H3279 C3285 0.950 . S
H3280 C3286 0.949 . S
C3281 H3276 0.950 . S
C3281 C3283 1.327 . S
C3281 C3287 1.429 . S
C3282 C3274 1.574 . S
C3282 H3277 0.949 . S
C3282 C3288 1.368 . S
C3283 C3267 1.349 . S
C3283 H3275 0.950 . S
C3283 C3281 1.327 . S
C3284 C3272 1.349 . S
C3284 H3278 0.950 . S
C3284 C3285 1.327 . S
C3285 H3279 0.950 . S
C3285 C3284 1.327 . S
C3285 C3289 1.429 . S
C3286 C3269 1.574 . S
C3286 H3280 0.949 . S
C3286 C3290 1.368 . S
C3287 C3268 1.429 . S
C3287 C3281 1.429 . S
C3287 C3288 1.523 . S
C3288 C3269 1.368 . S
C3288 C3282 1.368 . S
C3288 C3287 1.523 . S
C3289 C3273 1.429 . S
C3289 C3285 1.429 . S
C3289 C3290 1.523 . S
C3290 C3274 1.368 . S
C3290 C3286 1.368 . S
C3290 C3289 1.523 . S
H3291 C3266 0.950 . S
H3292 C3268 0.950 . S
H3293 C3269 0.949 . S
H3294 C3271 0.950 . S
H3295 C3273 0.950 . S
C3296 C3297 1.349 . S
C3296 C3298 1.327 . S
C3296 H3321 0.950 . S
C3297 C3296 1.349 . S
C3297 C3313 1.349 . S
C3298 C3296 1.327 . S
C3298 C3317 1.429 . S
C3298 H3322 0.950 . S
C3299 C3316 1.574 . S
C3299 C3318 1.368 . S
C3299 H3323 0.949 . S
H3300 C3304 0.949 . S
C3301 C3302 1.349 . S
C3301 C3303 1.327 . S
C3301 H3324 0.950 . S
C3302 C3301 1.349 . S
C3302 C3314 1.349 . S
C3303 C3301 1.327 . S
C3303 C3319 1.429 . S
C3303 H3325 0.950 . S
C3304 H3300 0.949 . S
C3304 C3312 1.574 . S
C3304 C3320 1.368 . S
H3305 C3313 0.950 . S
H3306 C3311 0.950 . S
H3307 C3312 0.949 . S
H3308 C3314 0.950 . S
H3309 C3315 0.950 . S
H3310 C3316 0.949 . S
C3311 H3306 0.950 . S
C3311 C3313 1.327 . S
C3311 C3317 1.429 . S
C3312 C3304 1.574 . S
C3312 H3307 0.949 . S
C3312 C3318 1.368 . S
C3313 C3297 1.349 . S
C3313 H3305 0.950 . S
C3313 C3311 1.327 . S
C3314 C3302 1.349 . S
C3314 H3308 0.950 . S
C3314 C3315 1.327 . S
C3315 H3309 0.950 . S
C3315 C3314 1.327 . S
C3315 C3319 1.429 . S
C3316 C3299 1.574 . S
C3316 H3310 0.949 . S
C3316 C3320 1.368 . S
C3317 C3298 1.429 . S
C3317 C3311 1.429 . S
C3317 C3318 1.523 . S
C3318 C3299 1.368 . S
C3318 C3312 1.368 . S
C3318 C3317 1.523 . S
C3319 C3303 1.429 . S
C3319 C3315 1.429 . S
C3319 C3320 1.523 . S
C3320 C3304 1.368 . S
C3320 C3316 1.368 . S
C3320 C3319 1.523 . S
H3321 C3296 0.950 . S
H3322 C3298 0.950 . S
H3323 C3299 0.949 . S
H3324 C3301 0.950 . S
H3325 C3303 0.950 . S
C3326 C3327 1.349 . S
C3326 C3328 1.327 . S
C3326 H3351 0.950 . S
C3327 C3326 1.349 . S
C3327 C3343 1.349 . S
C3328 C3326 1.327 . S
C3328 C3347 1.429 . S
C3328 H3352 0.950 . S
C3329 C3346 1.574 . S
C3329 C3348 1.368 . S
C3329 H3353 0.949 . S
H3330 C3334 0.949 . S
C3331 C3332 1.350 . S
C3331 C3333 1.327 . S
C3331 H3354 0.950 . S
C3332 C3331 1.350 . S
C3332 C3344 1.351 . S
C3333 C3331 1.327 . S
C3333 C3349 1.429 . S
C3333 H3355 0.950 . S
C3334 H3330 0.949 . S
C3334 C3342 1.574 . S
C3334 C3350 1.368 . S
H3335 C3343 0.950 . S
H3336 C3341 0.950 . S
H3337 C3342 0.949 . S
H3338 C3344 0.950 . S
H3339 C3345 0.950 . S
H3340 C3346 0.949 . S
C3341 H3336 0.950 . S
C3341 C3343 1.327 . S
C3341 C3347 1.429 . S
C3342 C3334 1.574 . S
C3342 H3337 0.949 . S
C3342 C3348 1.368 . S
C3343 C3327 1.349 . S
C3343 H3335 0.950 . S
C3343 C3341 1.327 . S
C3344 C3332 1.351 . S
C3344 H3338 0.950 . S
C3344 C3345 1.327 . S
C3345 H3339 0.950 . S
C3345 C3344 1.327 . S
C3345 C3349 1.429 . S
C3346 C3329 1.574 . S
C3346 H3340 0.949 . S
C3346 C3350 1.368 . S
C3347 C3328 1.429 . S
C3347 C3341 1.429 . S
C3347 C3348 1.523 . S
C3348 C3329 1.368 . S
C3348 C3342 1.368 . S
C3348 C3347 1.523 . S
C3349 C3333 1.429 . S
C3349 C3345 1.429 . S
C3349 C3350 1.523 . S
C3350 C3334 1.368 . S
C3350 C3346 1.368 . S
C3350 C3349 1.523 . S
H3351 C3326 0.950 . S
H3352 C3328 0.950 . S
H3353 C3329 0.949 . S
H3354 C3331 0.950 . S
H3355 C3333 0.950 . S
C3356 C3357 1.349 . S
C3356 C3358 1.327 . S
C3356 H3381 0.950 . S
C3357 C3356 1.349 . S
C3357 C3373 1.349 . S
C3358 C3356 1.327 . S
C3358 C3377 1.429 . S
C3358 H3382 0.950 . S
C3359 C3376 1.574 . S
C3359 C3378 1.368 . S
C3359 H3383 0.949 . S
H3360 C3364 0.949 . S
C3361 C3362 1.349 . S
C3361 C3363 1.327 . S
C3361 H3384 0.950 . S
C3362 C3361 1.349 . S
C3362 C3374 1.349 . S
C3363 C3361 1.327 . S
C3363 C3379 1.429 . S
C3363 H3385 0.950 . S
C3364 H3360 0.949 . S
C3364 C3372 1.574 . S
C3364 C3380 1.368 . S
H3365 C3373 0.950 . S
H3366 C3371 0.950 . S
H3367 C3372 0.949 . S
H3368 C3374 0.950 . S
H3369 C3375 0.950 . S
H3370 C3376 0.949 . S
C3371 H3366 0.950 . S
C3371 C3373 1.327 . S
C3371 C3377 1.429 . S
C3372 C3364 1.574 . S
C3372 H3367 0.949 . S
C3372 C3378 1.368 . S
C3373 C3357 1.349 . S
C3373 H3365 0.950 . S
C3373 C3371 1.327 . S
C3374 C3362 1.349 . S
C3374 H3368 0.950 . S
C3374 C3375 1.327 . S
C3375 H3369 0.950 . S
C3375 C3374 1.327 . S
C3375 C3379 1.429 . S
C3376 C3359 1.574 . S
C3376 H3370 0.949 . S
C3376 C3380 1.368 . S
C3377 C3358 1.429 . S
C3377 C3371 1.429 . S
C3377 C3378 1.523 . S
C3378 C3359 1.368 . S
C3378 C3372 1.368 . S
C3378 C3377 1.523 . S
C3379 C3363 1.429 . S
C3379 C3375 1.429 . S
C3379 C3380 1.523 . S
C3380 C3364 1.368 . S
C3380 C3376 1.368 . S
C3380 C3379 1.523 . S
H3381 C3356 0.950 . S
H3382 C3358 0.950 . S
H3383 C3359 0.949 . S
H3384 C3361 0.950 . S
H3385 C3363 0.950 . S
C3386 C3387 1.349 . S
C3386 C3388 1.327 . S
C3386 H3411 0.950 . S
C3387 C3386 1.349 . S
C3387 C3403 1.349 1_556 S
C3388 C3386 1.327 . S
C3388 C3407 1.479 . S
C3388 H3412 0.950 . S
C3389 C3406 1.574 . S
C3389 C3408 1.395 . S
C3389 H3413 0.949 . S
H3390 C3394 0.949 . S
C3391 C3392 1.349 . S
C3391 C3393 1.327 . S
C3391 H3414 0.950 . S
C3392 C3391 1.349 . S
C3392 C3404 1.349 1_554 S
C3393 C3391 1.327 . S
C3393 C3409 1.429 . S
C3393 H3415 0.950 . S
C3394 H3390 0.949 . S
C3394 C3402 1.574 . S
C3394 C3410 1.368 1_556 S
H3395 C3403 0.950 . S
H3396 C3401 0.950 . S
H3397 C3402 0.949 . S
H3398 C3404 0.950 . S
H3399 C3405 0.950 . S
H3400 C3406 0.949 . S
C3401 H3396 0.950 . S
C3401 C3403 1.327 . S
C3401 C3407 1.391 1_554 S
C3402 C3394 1.574 . S
C3402 H3397 0.949 . S
C3402 C3408 1.346 1_556 S
C3403 C3387 1.349 1_554 S
C3403 H3395 0.950 . S
C3403 C3401 1.327 . S
C3404 C3392 1.349 1_556 S
C3404 H3398 0.950 . S
C3404 C3405 1.327 . S
C3405 H3399 0.950 . S
C3405 C3404 1.327 . S
C3405 C3409 1.429 1_556 S
C3406 C3389 1.574 . S
C3406 H3400 0.949 . S
C3406 C3410 1.368 . S
C3407 C3388 1.479 . S
C3407 C3401 1.391 1_556 S
C3407 C3408 1.509 1_556 S
C3408 C3389 1.395 . S
C3408 C3402 1.346 1_554 S
C3408 C3407 1.509 1_554 S
C3409 C3393 1.429 . S
C3409 C3405 1.429 1_554 S
C3409 C3410 1.523 . S
C3410 C3394 1.368 1_554 S
C3410 C3406 1.368 . S
C3410 C3409 1.523 . S
H3411 C3386 0.950 . S
H3412 C3388 0.950 . S
H3413 C3389 0.949 . S
H3414 C3391 0.950 . S
H3415 C3393 0.950 . S
C3416 C3417 1.349 . S
C3416 C3418 1.327 . S
C3416 H3441 0.950 . S
C3417 C3416 1.349 . S
C3417 C3433 1.349 . S
C3418 C3416 1.327 . S
C3418 C3437 1.429 . S
C3418 H3442 0.950 . S
C3419 C3436 1.574 . S
C3419 C3438 1.368 . S
C3419 H3443 0.949 . S
H3420 C3424 0.949 . S
C3421 C3422 1.349 . S
C3421 C3423 1.327 . S
C3421 H3444 0.950 . S
C3422 C3421 1.349 . S
C3422 C3434 1.349 . S
C3423 C3421 1.327 . S
C3423 C3439 1.429 . S
C3423 H3445 0.950 . S
C3424 H3420 0.949 . S
C3424 C3432 1.574 . S
C3424 C3440 1.368 . S
H3425 C3433 0.950 . S
H3426 C3431 0.950 . S
H3427 C3432 0.949 . S
H3428 C3434 0.950 . S
H3429 C3435 0.950 . S
H3430 C3436 0.949 . S
C3431 H3426 0.950 . S
C3431 C3433 1.327 . S
C3431 C3437 1.429 . S
C3432 C3424 1.574 . S
C3432 H3427 0.949 . S
C3432 C3438 1.368 . S
C3433 C3417 1.349 . S
C3433 H3425 0.950 . S
C3433 C3431 1.327 . S
C3434 C3422 1.349 . S
C3434 H3428 0.950 . S
C3434 C3435 1.327 . S
C3435 H3429 0.950 . S
C3435 C3434 1.327 . S
C3435 C3439 1.429 . S
C3436 C3419 1.574 . S
C3436 H3430 0.949 . S
C3436 C3440 1.368 . S
C3437 C3418 1.429 . S
C3437 C3431 1.429 . S
C3437 C3438 1.523 . S
C3438 C3419 1.368 . S
C3438 C3432 1.368 . S
C3438 C3437 1.523 . S
C3439 C3423 1.429 . S
C3439 C3435 1.429 . S
C3439 C3440 1.523 . S
C3440 C3424 1.368 . S
C3440 C3436 1.368 . S
C3440 C3439 1.523 . S
H3441 C3416 0.950 . S
H3442 C3418 0.950 . S
H3443 C3419 0.949 . S
H3444 C3421 0.950 . S
H3445 C3423 0.950 . S
C3446 C3447 1.349 . S
C3446 C3448 1.327 . S
C3446 H3471 0.950 . S
C3447 C3446 1.349 . S
C3447 C3463 1.349 . S
C3448 C3446 1.327 . S
C3448 C3467 1.429 . S
C3448 H3472 0.950 . S
C3449 C3466 1.574 . S
C3449 C3468 1.368 . S
C3449 H3473 0.949 . S
H3450 C3454 0.948 1_556 S
C3451 C3452 1.348 . S
C3451 C3453 1.327 . S
C3451 H3474 0.950 . S
C3452 C3451 1.348 . S
C3452 C3464 1.349 1_554 S
C3453 C3451 1.327 . S
C3453 C3469 1.429 . S
C3453 H3475 0.950 . S
C3454 H3450 0.948 1_554 S
C3454 C3462 1.574 . S
C3454 C3470 1.368 . S
H3455 C3463 0.950 . S
H3456 C3461 0.950 . S
H3457 C3462 0.949 . S
H3458 C3464 0.950 . S
H3459 C3465 0.950 . S
H3460 C3466 0.949 . S
C3461 H3456 0.950 . S
C3461 C3463 1.327 . S
C3461 C3467 1.429 . S
C3462 C3454 1.574 . S
C3462 H3457 0.949 . S
C3462 C3468 1.368 . S
C3463 C3447 1.349 . S
C3463 H3455 0.950 . S
C3463 C3461 1.327 . S
C3464 C3452 1.349 1_556 S
C3464 H3458 0.950 . S
C3464 C3465 1.327 . S
C3465 H3459 0.950 . S
C3465 C3464 1.327 . S
C3465 C3469 1.429 1_556 S
C3466 C3449 1.574 . S
C3466 H3460 0.949 . S
C3466 C3470 1.368 . S
C3467 C3448 1.429 . S
C3467 C3461 1.429 . S
C3467 C3468 1.523 . S
C3468 C3449 1.368 . S
C3468 C3462 1.368 . S
C3468 C3467 1.523 . S
C3469 C3453 1.429 . S
C3469 C3465 1.429 1_554 S
C3469 C3470 1.523 . S
C3470 C3454 1.368 . S
C3470 C3466 1.368 . S
C3470 C3469 1.523 . S
H3471 C3446 0.950 . S
H3472 C3448 0.950 . S
H3473 C3449 0.949 . S
H3474 C3451 0.950 . S
H3475 C3453 0.950 . S
C3476 C3477 1.349 . S
C3476 C3478 1.327 . S
C3476 H3501 0.936 1_565 S
C3477 C3476 1.349 . S
C3477 C3493 1.349 . S
C3478 C3476 1.327 . S
C3478 C3497 1.429 . S
C3478 H3502 0.950 . S
C3479 C3496 1.574 . S
C3479 C3498 1.368 . S
C3479 H3503 0.949 . S
H3480 C3484 0.949 . S
C3481 C3482 1.349 . S
C3481 C3483 1.327 . S
C3481 H3504 0.950 . S
C3482 C3481 1.349 . S
C3482 C3494 1.349 . S
C3483 C3481 1.327 . S
C3483 C3499 1.429 . S
C3483 H3505 0.950 . S
C3484 H3480 0.949 . S
C3484 C3492 1.574 . S
C3484 C3500 1.368 . S
H3485 C3493 0.950 . S
H3486 C3491 0.950 . S
H3487 C3492 0.949 . S
H3488 C3494 0.950 . S
H3489 C3495 0.950 . S
H3490 C3496 0.949 . S
C3491 H3486 0.950 . S
C3491 C3493 1.327 . S
C3491 C3497 1.429 . S
C3492 C3484 1.574 . S
C3492 H3487 0.949 . S
C3492 C3498 1.368 . S
C3493 C3477 1.349 . S
C3493 H3485 0.950 . S
C3493 C3491 1.327 . S
C3494 C3482 1.349 . S
C3494 H3488 0.950 . S
C3494 C3495 1.327 . S
C3495 H3489 0.950 . S
C3495 C3494 1.327 . S
C3495 C3499 1.429 . S
C3496 C3479 1.574 . S
C3496 H3490 0.949 . S
C3496 C3500 1.368 . S
C3497 C3478 1.429 . S
C3497 C3491 1.429 . S
C3497 C3498 1.523 . S
C3498 C3479 1.368 . S
C3498 C3492 1.368 . S
C3498 C3497 1.523 . S
C3499 C3483 1.429 . S
C3499 C3495 1.429 . S
C3499 C3500 1.523 . S
C3500 C3484 1.368 . S
C3500 C3496 1.368 . S
C3500 C3499 1.523 . S
H3501 C3476 0.936 1_545 S
H3502 C3478 0.950 . S
H3503 C3479 0.949 . S
H3504 C3481 0.950 . S
H3505 C3483 0.950 . S
C3506 C3507 1.349 . S
C3506 C3508 1.327 . S
C3506 H3531 0.950 . S
C3507 C3506 1.349 . S
C3507 C3523 1.349 . S
C3508 C3506 1.327 . S
C3508 C3527 1.429 . S
C3508 H3532 0.950 . S
C3509 C3526 1.574 . S
C3509 C3528 1.368 . S
C3509 H3533 0.949 . S
H3510 C3514 0.949 . S
C3511 C3512 1.349 . S
C3511 C3513 1.327 . S
C3511 H3534 0.950 . S
C3512 C3511 1.349 . S
C3512 C3524 1.349 . S
C3513 C3511 1.327 . S
C3513 C3529 1.429 . S
C3513 H3535 0.950 . S
C3514 H3510 0.949 . S
C3514 C3522 1.574 . S
C3514 C3530 1.368 . S
H3515 C3523 0.950 . S
H3516 C3521 0.950 . S
H3517 C3522 0.949 . S
H3518 C3524 0.950 . S
H3519 C3525 0.950 . S
H3520 C3526 0.949 . S
C3521 H3516 0.950 . S
C3521 C3523 1.327 . S
C3521 C3527 1.429 . S
C3522 C3514 1.574 . S
C3522 H3517 0.949 . S
C3522 C3528 1.368 . S
C3523 C3507 1.349 . S
C3523 H3515 0.950 . S
C3523 C3521 1.327 . S
C3524 C3512 1.349 . S
C3524 H3518 0.950 . S
C3524 C3525 1.327 . S
C3525 H3519 0.950 . S
C3525 C3524 1.327 . S
C3525 C3529 1.429 . S
C3526 C3509 1.574 . S
C3526 H3520 0.949 . S
C3526 C3530 1.368 . S
C3527 C3508 1.429 . S
C3527 C3521 1.429 . S
C3527 C3528 1.523 . S
C3528 C3509 1.368 . S
C3528 C3522 1.368 . S
C3528 C3527 1.523 . S
C3529 C3513 1.429 . S
C3529 C3525 1.429 . S
C3529 C3530 1.523 . S
C3530 C3514 1.368 . S
C3530 C3526 1.368 . S
C3530 C3529 1.523 . S
H3531 C3506 0.950 . S
H3532 C3508 0.950 . S
H3533 C3509 0.949 . S
H3534 C3511 0.950 . S
H3535 C3513 0.950 . S
C657 C105 1.176 . S
C662 C352 1.170 1_556 S
C687 C65 1.233 . S
C692 C365 1.223 . S
C717 C73 1.265 . S
C722 C384 1.244 . S
C752 C415 1.967 . S
C747 C92 2.003 . S
C777 C17 1.860 . S
C782 C435 1.825 . S
C812 C452 0.727 . S
C807 C37 0.727 . S
C842 C465 1.503 . S
C837 C49 1.459 . S
C867 C8 0.899 . S
C872 C492 0.887 . S
C902 C345 1.097 1_655 S
C897 C231 1.103 . S
C927 C241 1.382 . S
C932 C375 1.353 . S
C962 C377 1.684 . S
C957 C273 1.677 . S
C992 C412 0.745 . S
C987 C171 0.745 . S
C1017 C227 1.023 . S
C1022 C432 1.014 . S
C1052 C445 1.787 . S
C1047 C245 1.732 . S
C1082 C475 1.173 . S
C1077 C269 1.199 . S
C1112 C485 1.141 . S
C1107 C175 1.138 . S
C1142 C355 1.566 . S
C1137 C162 1.591 . S
C1167 C289 1.860 . S
C1172 C505 1.849 . S
C1202 C535 1.596 . S
C1197 C330 1.603 . S
C1232 C552 1.098 . S
C1227 C317 1.109 . S
C1257 C120 1.950 . S
C1262 C495 1.935 . S
C1287 C134 1.205 . S
C1292 C382 1.179 . S
C1317 C331 1.873 . S
C1322 C565 1.865 . S
C1352 C592 0.789 . S
C1347 C303 0.792 . S
C1382 C342 1.199 . S
C1377 C59 1.235 . S
C1412 C577 1.260 . S
C1407 C107 1.267 . S
C1437 C91 1.274 . S
C1442 C395 1.292 . S
C1467 C78 2.052 . S
C1472 C564 2.007 . S
C1502 C424 1.867 . S
C1497 C7 1.864 . S
C1527 C51 0.767 . S
C1532 C522 0.766 . S
C1562 C457 1.527 1_556 S
C1557 C31 1.536 . S
C1592 C602 0.919 . S
C1587 C22 0.935 . S
C1622 C337 1.160 . S
C1617 C143 1.174 . S
C1652 C584 1.402 . S
C1647 C315 1.383 . S
C1677 C115 1.765 . S
C1682 C385 1.721 . S
C1707 C287 0.794 . S
C1712 C562 0.799 . S
C1737 C147 1.045 1_565 S
C1742 C422 1.065 . S
C1772 C517 1.816 . S
C1767 C311 1.821 . S
C1797 C119 1.205 . S
C1802 C464 1.215 . S
C1827 C283 1.196 . S
C1832 C597 1.175 . S
C1857 C190 1.633 . S
C1862 C344 1.602 . S
C1887 C177 1.890 . S
C1892 C497 1.884 . S
C1917 C260 1.632 . S
C1922 C444 1.628 . S
C1947 C247 1.159 . S
C1952 C542 1.145 . S
C1982 C604 1.966 . S
C1977 C274 1.992 . S
C2007 C218 1.228 . S
C2012 C392 1.204 1_565 S
C2042 C397 1.902 . S
C2037 C261 1.905 . S
C2072 C362 0.830 . S
C2067 C205 0.838 . S
C2097 C77 1.176 . S
C2102 C632 1.170 . S
C2132 C585 1.223 . S
C2127 C93 1.233 . S
C2157 C101 1.265 . S
C2162 C644 1.246 1_456 S
C2187 C64 2.003 . S
C2192 C575 1.967 . S
C2217 C45 1.861 . S
C2222 C515 1.825 . S
C2252 C532 0.727 . S
C2247 C9 0.726 . S
C2282 C545 1.500 1_655 S
C2277 C21 1.459 . S
C2312 C612 0.887 . S
C2307 C36 0.899 . S
C2342 C625 1.122 . S
C2337 C259 1.103 . S
C2367 C185 1.382 . S
C2372 C595 1.357 . S
C2402 C637 1.684 . S
C2397 C203 1.677 . S
C2432 C572 0.745 . S
C2427 C213 0.745 . S
C2462 C512 1.014 . S
C2457 C255 1.023 . S
C2487 C189 1.732 . S
C2492 C525 1.782 . S
C2522 C555 1.173 . S
C2517 C199 1.199 . S
C2547 C217 1.138 . S
C2552 C605 1.141 . S
C2582 C635 1.566 . S
C2577 C316 1.591 . S
C2607 C135 1.860 . S
C2612 C425 1.849 . S
C2642 C455 1.596 . S
C2637 C148 1.608 . S
C2672 C472 1.098 . S
C2667 C163 1.109 . S
C2702 C615 1.935 . S
C2697 C302 1.950 . S
C2727 C288 1.205 . S
C2732 C642 1.179 . S
C2762 C405 1.865 . S
C2757 C149 1.868 . S
C2792 C372 0.789 . S
C2787 C121 0.792 1_565 S
C2817 C87 1.235 . S
C2822 C622 1.199 . S
C2852 C357 1.260 . S
C2847 C79 1.267 . S
C2877 C63 1.274 . S
C2882 C655 1.292 . S
C2907 C106 2.052 . S
C2912 C404 2.007 . S
C2937 C35 1.863 . S
C2942 C504 1.867 1_556 S
C2972 C442 0.766 . S
C2967 C23 0.766 . S
C2997 C3 1.536 . S
C3002 C537 1.527 . S
C3027 C50 0.934 . S
C3032 C482 0.919 . S
C3062 C617 1.160 . S
C3057 C325 1.174 . S
C3087 C161 1.383 . S
C3092 C364 1.402 . S
C3122 C645 1.722 . S
C3117 C297 1.765 . S
C3147 C133 0.794 . S
C3152 C402 0.799 . S
C3177 C329 1.045 . S
C3182 C502 1.067 . S
C3212 C437 1.816 . S
C3207 C157 1.821 . S
C3237 C301 1.205 . S
C3242 C544 1.215 . S
C3272 C477 1.175 . S
C3267 C129 1.196 . S
C3302 C624 1.602 . S
C3297 C246 1.633 . S
C3332 C417 1.880 1_565 S
C3327 C219 1.890 . S
C3357 C232 1.632 . S
C3362 C524 1.628 . S
C3392 C462 1.145 . S
C3387 C191 1.158 . S
C3417 C204 1.992 . S
C3422 C484 1.966 . S
C3447 C176 1.228 . S
C3452 C652 1.204 . S
C3482 C557 1.902 . S
C3477 C233 1.905 1_565 S
C3512 C582 0.830 . S
C3507 C275 0.838 . S
