# Generated by pormake.
# Topology eea, (3,6)-cn, num edge types: 1
# Building blocks:
#     Node 0, Type 0, BuildingBlock: WUSLED_clean_sbu_0, # of connection points: 3
#     Node 1, Type 0, BuildingBlock: WUSLED_clean_sbu_0, # of connection points: 3
#     Node 2, Type 0, BuildingBlock: WUSLED_clean_sbu_0, # of connection points: 3
#     Node 3, Type 0, BuildingBlock: WUSLED_clean_sbu_0, # of connection points: 3
#     Node 4, Type 0, BuildingBlock: WUSLED_clean_sbu_0, # of connection points: 3
#     Node 5, Type 0, BuildingBlock: WUSLED_clean_sbu_0, # of connection points: 3
#     Node 6, Type 0, BuildingBlock: WUSLED_clean_sbu_0, # of connection points: 3
#     Node 7, Type 0, BuildingBlock: WUSLED_clean_sbu_0, # of connection points: 3
#     Node 8, Type 0, BuildingBlock: WUSLED_clean_sbu_0, # of connection points: 3
#     Node 9, Type 0, BuildingBlock: WUSLED_clean_sbu_0, # of connection points: 3
#     Node 10, Type 0, BuildingBlock: WUSLED_clean_sbu_0, # of connection points: 3
#     Node 11, Type 0, BuildingBlock: WUSLED_clean_sbu_0, # of connection points: 3
#     Node 12, Type 0, BuildingBlock: WUSLED_clean_sbu_0, # of connection points: 3
#     Node 13, Type 0, BuildingBlock: WUSLED_clean_sbu_0, # of connection points: 3
#     Node 14, Type 0, BuildingBlock: WUSLED_clean_sbu_0, # of connection points: 3
#     Node 15, Type 0, BuildingBlock: WUSLED_clean_sbu_0, # of connection points: 3
#     Node 16, Type 0, BuildingBlock: WUSLED_clean_sbu_0, # of connection points: 3
#     Node 17, Type 0, BuildingBlock: WUSLED_clean_sbu_0, # of connection points: 3
#     Node 18, Type 1, BuildingBlock: KUMJIN_clean_sbu_0, # of connection points: 6
#     Node 19, Type 1, BuildingBlock: KUMJIN_clean_sbu_0, # of connection points: 6
#     Node 20, Type 1, BuildingBlock: KUMJIN_clean_sbu_0, # of connection points: 6
#     Node 21, Type 1, BuildingBlock: KUMJIN_clean_sbu_0, # of connection points: 6
#     Node 22, Type 1, BuildingBlock: KUMJIN_clean_sbu_0, # of connection points: 6
#     Node 23, Type 1, BuildingBlock: KUMJIN_clean_sbu_0, # of connection points: 6
#     Node 24, Type 1, BuildingBlock: KUMJIN_clean_sbu_0, # of connection points: 6
#     Node 25, Type 1, BuildingBlock: KUMJIN_clean_sbu_0, # of connection points: 6
#     Node 26, Type 1, BuildingBlock: KUMJIN_clean_sbu_0, # of connection points: 6
#     Edge 27, Type (0, 1), BuildingBlock: ZUJKAS_clean_linker_0, # of connection points: 2
#     Edge 28, Type (0, 1), BuildingBlock: ZUJKAS_clean_linker_0, # of connection points: 2
#     Edge 29, Type (0, 1), BuildingBlock: ZUJKAS_clean_linker_0, # of connection points: 2
#     Edge 30, Type (0, 1), BuildingBlock: ZUJKAS_clean_linker_0, # of connection points: 2
#     Edge 31, Type (0, 1), BuildingBlock: ZUJKAS_clean_linker_0, # of connection points: 2
#     Edge 32, Type (0, 1), BuildingBlock: ZUJKAS_clean_linker_0, # of connection points: 2
#     Edge 33, Type (0, 1), BuildingBlock: ZUJKAS_clean_linker_0, # of connection points: 2
#     Edge 34, Type (0, 1), BuildingBlock: ZUJKAS_clean_linker_0, # of connection points: 2
#     Edge 35, Type (0, 1), BuildingBlock: ZUJKAS_clean_linker_0, # of connection points: 2
#     Edge 36, Type (0, 1), BuildingBlock: ZUJKAS_clean_linker_0, # of connection points: 2
#     Edge 37, Type (0, 1), BuildingBlock: ZUJKAS_clean_linker_0, # of connection points: 2
#     Edge 38, Type (0, 1), BuildingBlock: ZUJKAS_clean_linker_0, # of connection points: 2
#     Edge 39, Type (0, 1), BuildingBlock: ZUJKAS_clean_linker_0, # of connection points: 2
#     Edge 40, Type (0, 1), BuildingBlock: ZUJKAS_clean_linker_0, # of connection points: 2
#     Edge 41, Type (0, 1), BuildingBlock: ZUJKAS_clean_linker_0, # of connection points: 2
#     Edge 42, Type (0, 1), BuildingBlock: ZUJKAS_clean_linker_0, # of connection points: 2
#     Edge 43, Type (0, 1), BuildingBlock: ZUJKAS_clean_linker_0, # of connection points: 2
#     Edge 44, Type (0, 1), BuildingBlock: ZUJKAS_clean_linker_0, # of connection points: 2
#     Edge 45, Type (0, 1), BuildingBlock: ZUJKAS_clean_linker_0, # of connection points: 2
#     Edge 46, Type (0, 1), BuildingBlock: ZUJKAS_clean_linker_0, # of connection points: 2
#     Edge 47, Type (0, 1), BuildingBlock: ZUJKAS_clean_linker_0, # of connection points: 2
#     Edge 48, Type (0, 1), BuildingBlock: ZUJKAS_clean_linker_0, # of connection points: 2
#     Edge 49, Type (0, 1), BuildingBlock: ZUJKAS_clean_linker_0, # of connection points: 2
#     Edge 50, Type (0, 1), BuildingBlock: ZUJKAS_clean_linker_0, # of connection points: 2
#     Edge 51, Type (0, 1), BuildingBlock: ZUJKAS_clean_linker_0, # of connection points: 2
#     Edge 52, Type (0, 1), BuildingBlock: ZUJKAS_clean_linker_0, # of connection points: 2
#     Edge 53, Type (0, 1), BuildingBlock: ZUJKAS_clean_linker_0, # of connection points: 2
#     Edge 54, Type (0, 1), BuildingBlock: ZUJKAS_clean_linker_0, # of connection points: 2
#     Edge 55, Type (0, 1), BuildingBlock: ZUJKAS_clean_linker_0, # of connection points: 2
#     Edge 56, Type (0, 1), BuildingBlock: ZUJKAS_clean_linker_0, # of connection points: 2
#     Edge 57, Type (0, 1), BuildingBlock: ZUJKAS_clean_linker_0, # of connection points: 2
#     Edge 58, Type (0, 1), BuildingBlock: ZUJKAS_clean_linker_0, # of connection points: 2
#     Edge 59, Type (0, 1), BuildingBlock: ZUJKAS_clean_linker_0, # of connection points: 2
#     Edge 60, Type (0, 1), BuildingBlock: ZUJKAS_clean_linker_0, # of connection points: 2
#     Edge 61, Type (0, 1), BuildingBlock: ZUJKAS_clean_linker_0, # of connection points: 2
#     Edge 62, Type (0, 1), BuildingBlock: ZUJKAS_clean_linker_0, # of connection points: 2
#     Edge 63, Type (0, 1), BuildingBlock: ZUJKAS_clean_linker_0, # of connection points: 2
#     Edge 64, Type (0, 1), BuildingBlock: ZUJKAS_clean_linker_0, # of connection points: 2
#     Edge 65, Type (0, 1), BuildingBlock: ZUJKAS_clean_linker_0, # of connection points: 2
#     Edge 66, Type (0, 1), BuildingBlock: ZUJKAS_clean_linker_0, # of connection points: 2
#     Edge 67, Type (0, 1), BuildingBlock: ZUJKAS_clean_linker_0, # of connection points: 2
#     Edge 68, Type (0, 1), BuildingBlock: ZUJKAS_clean_linker_0, # of connection points: 2
#     Edge 69, Type (0, 1), BuildingBlock: ZUJKAS_clean_linker_0, # of connection points: 2
#     Edge 70, Type (0, 1), BuildingBlock: ZUJKAS_clean_linker_0, # of connection points: 2
#     Edge 71, Type (0, 1), BuildingBlock: ZUJKAS_clean_linker_0, # of connection points: 2
#     Edge 72, Type (0, 1), BuildingBlock: ZUJKAS_clean_linker_0, # of connection points: 2
#     Edge 73, Type (0, 1), BuildingBlock: ZUJKAS_clean_linker_0, # of connection points: 2
#     Edge 74, Type (0, 1), BuildingBlock: ZUJKAS_clean_linker_0, # of connection points: 2
#     Edge 75, Type (0, 1), BuildingBlock: ZUJKAS_clean_linker_0, # of connection points: 2
#     Edge 76, Type (0, 1), BuildingBlock: ZUJKAS_clean_linker_0, # of connection points: 2
#     Edge 77, Type (0, 1), BuildingBlock: ZUJKAS_clean_linker_0, # of connection points: 2
#     Edge 78, Type (0, 1), BuildingBlock: ZUJKAS_clean_linker_0, # of connection points: 2
#     Edge 79, Type (0, 1), BuildingBlock: ZUJKAS_clean_linker_0, # of connection points: 2
#     Edge 80, Type (0, 1), BuildingBlock: ZUJKAS_clean_linker_0, # of connection points: 2
# Relax obj value: 0.010
# Max RMSD: 0.097
# Mean RMSD: 0.055
data_MOF--net-eea--node1-WUSLED_clean_sbu_0--node2-KUMJIN_clean_sbu_0--edge1-ZUJKAS_clean_linker_0
_symmetry_space_group_name_H-M    P1
_symmetry_Int_Tables_number       1
_symmetry_cell_setting            triclinic
loop_
_symmetry_equiv_pos_as_xyz
'x, y, z'
_cell_length_a     82.995701
_cell_length_b     84.501693
_cell_length_c     109.49908
_cell_angle_alpha  89.887454
_cell_angle_beta   90.227164
_cell_angle_gamma 119.98328
loop_
_atom_site_label
_atom_site_type_symbol
_atom_site_fract_x
_atom_site_fract_y
_atom_site_fract_z
_atom_type_partial_charge
C0 C 0.2213 0.14381 0.41367 0.0
C1 C 0.22179 0.15693 0.42174 0.0
C2 C 0.21605 0.17241 0.40483 0.0
C3 C 0.21919 0.17111 0.41736 0.0
C4 C 0.21585 0.15932 0.39681 0.0
C5 C 0.21844 0.14519 0.40119 0.0
U6 U 0.23414 0.11866 0.43787 0.0
O7 O 0.21968 0.0893 0.44232 0.0
O8 O 0.24829 0.10274 0.43545 0.0
C9 C 0.23341 0.08719 0.43833 0.0
C10 C 0.22337 0.12839 0.418 0.0
C11 C 0.22822 0.07134 0.43013 0.0
C12 C 0.20796 0.03897 0.4257 0.0
C13 C 0.21241 0.05443 0.43276 0.0
C14 C 0.23502 0.05696 0.41314 0.0
C15 C 0.21931 0.03997 0.41587 0.0
C16 C 0.23945 0.07245 0.42019 0.0
C17 C 0.25229 0.1403 0.46951 0.0
C18 C 0.26174 0.1266 0.48553 0.0
C19 C 0.2632 0.15556 0.48909 0.0
C20 C 0.25643 0.15501 0.47729 0.0
C21 C 0.26596 0.14138 0.49339 0.0
C22 C 0.25495 0.12606 0.47369 0.0
C23 C 0.24538 0.14025 0.45708 0.0
O24 O 0.2405 0.13186 0.41978 0.0
O25 O 0.21189 0.11828 0.42667 0.0
O26 O 0.22785 0.1281 0.45499 0.0
O27 O 0.25646 0.14158 0.44811 0.0
H28 H 0.22399 0.15609 0.43143 0.0
H29 H 0.21928 0.18084 0.42382 0.0
H30 H 0.21382 0.16005 0.38709 0.0
H31 H 0.2181 0.13524 0.39481 0.0
H32 H 0.19561 0.02621 0.42798 0.0
H33 H 0.20357 0.05308 0.44041 0.0
H34 H 0.24422 0.05823 0.40575 0.0
H35 H 0.25185 0.0852 0.41795 0.0
H36 H 0.26351 0.11535 0.48856 0.0
H37 H 0.26656 0.16729 0.49477 0.0
H38 H 0.25454 0.16616 0.47419 0.0
H39 H 0.25178 0.11456 0.46781 0.0
C40 C 0.94159 0.14653 0.41261 0.0
C41 C 0.95007 0.16385 0.41812 0.0
C42 C 0.97537 0.17546 0.4032 0.0
C43 C 0.96678 0.17818 0.41345 0.0
C44 C 0.96679 0.15799 0.39782 0.0
C45 C 0.95013 0.14374 0.40247 0.0
U46 U 0.90229 0.12148 0.43648 0.0
O47 O 0.87203 0.10546 0.43343 0.0
O48 O 0.88674 0.0921 0.44095 0.0
C49 C 0.87083 0.09005 0.437 0.0
C50 C 0.9237 0.13123 0.417 0.0
C51 C 0.85923 0.07374 0.42943 0.0
C52 C 0.84972 0.05792 0.40986 0.0
C53 C 0.86159 0.07354 0.41675 0.0
C54 C 0.83324 0.04259 0.42828 0.0
C55 C 0.83525 0.04229 0.41554 0.0
C56 C 0.84508 0.05811 0.43512 0.0
C57 C 0.90515 0.14329 0.46805 0.0
C58 C 0.88284 0.12883 0.48454 0.0
C59 C 0.9087 0.15958 0.48708 0.0
C60 C 0.91486 0.15894 0.47531 0.0
C61 C 0.89263 0.14452 0.49191 0.0
C62 C 0.88905 0.12822 0.47273 0.0
C63 C 0.91224 0.14307 0.45572 0.0
O64 O 0.92471 0.12125 0.42587 0.0
O65 O 0.91002 0.13467 0.41842 0.0
O66 O 0.90277 0.14433 0.4465 0.0
O67 O 0.91753 0.13097 0.4539 0.0
H68 H 0.94374 0.16631 0.42599 0.0
H69 H 0.97304 0.19135 0.41794 0.0
H70 H 0.97276 0.15538 0.38983 0.0
H71 H 0.94379 0.1305 0.39804 0.0
H72 H 0.85163 0.05825 0.40007 0.0
H73 H 0.87244 0.08548 0.41217 0.0
H74 H 0.82255 0.03074 0.43302 0.0
H75 H 0.84306 0.05795 0.4449 0.0
H76 H 0.87052 0.11691 0.48797 0.0
H77 H 0.91643 0.172 0.49234 0.0
H78 H 0.92727 0.17075 0.47185 0.0
H79 H 0.88137 0.11598 0.46727 0.0
C80 C 0.87176 0.80084 0.41231 0.0
C81 C 0.85354 0.7893 0.41648 0.0
C82 C 0.84181 0.80486 0.40335 0.0
C83 C 0.83873 0.79129 0.41205 0.0
C84 C 0.86018 0.81656 0.39941 0.0
C85 C 0.87492 0.81454 0.40383 0.0
U86 U 0.89896 0.78768 0.43532 0.0
O87 O 0.91533 0.7742 0.43169 0.0
O88 O 0.92915 0.80205 0.43908 0.0
C89 C 0.93118 0.78862 0.43483 0.0
C90 C 0.88763 0.79862 0.41624 0.0
C91 C 0.94741 0.79378 0.42678 0.0
C92 C 0.96127 0.79504 0.40691 0.0
C93 C 0.94564 0.79102 0.41407 0.0
C94 C 0.98064 0.80489 0.42502 0.0
C95 C 0.97901 0.80195 0.4123 0.0
C96 C 0.96506 0.80086 0.43213 0.0
C97 C 0.87727 0.76927 0.46749 0.0
C98 C 0.88692 0.75504 0.48311 0.0
C99 C 0.86254 0.76196 0.48749 0.0
C100 C 0.86435 0.76919 0.47574 0.0
C101 C 0.87364 0.75459 0.49133 0.0
C102 C 0.88868 0.76227 0.47128 0.0
C103 C 0.87793 0.77625 0.45499 0.0
O104 O 0.89844 0.80975 0.42483 0.0
O105 O 0.88436 0.7818 0.41763 0.0
O106 O 0.87645 0.76547 0.44589 0.0
O107 O 0.89028 0.79347 0.45299 0.0
H108 H 0.85072 0.7786 0.42303 0.0
H109 H 0.8248 0.78193 0.41524 0.0
H110 H 0.86323 0.82739 0.39293 0.0
H111 H 0.88885 0.82365 0.40051 0.0
H112 H 0.95946 0.79277 0.39715 0.0
H113 H 0.93217 0.78559 0.40969 0.0
H114 H 0.99391 0.80987 0.42958 0.0
H115 H 0.96677 0.80299 0.44191 0.0
H116 H 0.89563 0.7494 0.48571 0.0
H117 H 0.85243 0.7622 0.49359 0.0
H118 H 0.85546 0.77458 0.47303 0.0
H119 H 0.89876 0.7622 0.46506 0.0
C120 C 0.07727 0.21435 0.61911 0.0
C121 C 0.06033 0.19824 0.61672 0.0
C122 C 0.04309 0.20959 0.62837 0.0
C123 C 0.04349 0.19593 0.62125 0.0
C124 C 0.06001 0.22578 0.63063 0.0
C125 C 0.07684 0.22808 0.62612 0.0
U126 U 0.11849 0.22656 0.59682 0.0
O127 O 0.14849 0.24021 0.60089 0.0
O128 O 0.13418 0.21214 0.59391 0.0
C129 C 0.14972 0.22562 0.59839 0.0
C130 C 0.09541 0.2161 0.61548 0.0
C131 C 0.16041 0.22072 0.60709 0.0
C132 C 0.18263 0.22871 0.62389 0.0
C133 C 0.17088 0.23245 0.61671 0.0
C134 C 0.1735 0.20126 0.6122 0.0
C135 C 0.18431 0.21319 0.62164 0.0
C136 C 0.16179 0.20502 0.60501 0.0
C137 C 0.117 0.24552 0.56448 0.0
C138 C 0.13838 0.25227 0.54747 0.0
C139 C 0.11417 0.2602 0.54609 0.0
C140 C 0.10805 0.25306 0.55778 0.0
C141 C 0.12947 0.26001 0.54076 0.0
C142 C 0.13223 0.24512 0.55925 0.0
C143 C 0.10993 0.23818 0.5768 0.0
O144 O 0.09506 0.2048 0.6071 0.0
O145 O 0.10963 0.23274 0.61426 0.0
O146 O 0.11891 0.24886 0.58607 0.0
O147 O 0.10484 0.22096 0.57878 0.0
H148 H 0.06008 0.18724 0.61151 0.0
H149 H 0.03076 0.18336 0.61919 0.0
H150 H 0.06037 0.23651 0.63622 0.0
H151 H 0.08961 0.24051 0.62837 0.0
H152 H 0.19054 0.23811 0.63117 0.0
H153 H 0.17035 0.24476 0.61856 0.0
H154 H 0.17457 0.18931 0.61006 0.0
H155 H 0.1542 0.19586 0.59755 0.0
H156 H 0.15029 0.252 0.54372 0.0
H157 H 0.10672 0.26571 0.54117 0.0
H158 H 0.0962 0.25341 0.56161 0.0
H159 H 0.13936 0.23937 0.56427 0.0
C160 C 0.79762 0.86949 0.61895 0.0
C161 C 0.79578 0.85563 0.61104 0.0
C162 C 0.80339 0.84117 0.6277 0.0
C163 C 0.79864 0.84159 0.61537 0.0
C164 C 0.80508 0.85509 0.63556 0.0
C165 C 0.80224 0.86908 0.63122 0.0
U166 U 0.78254 0.89303 0.59499 0.0
O167 O 0.76713 0.90774 0.59774 0.0
O168 O 0.79542 0.92216 0.59028 0.0
C169 C 0.78132 0.92352 0.59445 0.0
C170 C 0.7948 0.88448 0.61469 0.0
C171 C 0.78587 0.93914 0.6026 0.0
C172 C 0.80599 0.96205 0.61744 0.0
C173 C 0.80162 0.9467 0.61024 0.0
C174 C 0.77871 0.96221 0.60969 0.0
C175 C 0.79463 0.97005 0.6172 0.0
C176 C 0.77443 0.94696 0.60246 0.0
C177 C 0.76343 0.87018 0.56377 0.0
C178 C 0.75798 0.88469 0.54624 0.0
C179 C 0.74655 0.85212 0.54604 0.0
C180 C 0.75398 0.85333 0.55772 0.0
C181 C 0.74844 0.86777 0.54014 0.0
C182 C 0.76536 0.88587 0.55798 0.0
C183 C 0.77118 0.87095 0.57604 0.0
O184 O 0.80572 0.89463 0.60581 0.0
O185 O 0.77741 0.88037 0.61321 0.0
O186 O 0.76035 0.86928 0.58525 0.0
O187 O 0.78861 0.88369 0.57777 0.0
H188 H 0.7922 0.85572 0.60152 0.0
H189 H 0.79739 0.83121 0.60903 0.0
H190 H 0.80839 0.85507 0.64514 0.0
H191 H 0.80362 0.87961 0.63748 0.0
H192 H 0.81823 0.96762 0.62322 0.0
H193 H 0.81062 0.94084 0.61058 0.0
H194 H 0.76978 0.96812 0.60916 0.0
H195 H 0.76224 0.94138 0.59661 0.0
H196 H 0.75952 0.89697 0.54203 0.0
H197 H 0.73953 0.83893 0.54157 0.0
H198 H 0.75239 0.84108 0.56202 0.0
H199 H 0.77255 0.89901 0.56253 0.0
C200 C 0.07632 0.86283 0.61912 0.0
C201 C 0.05902 0.86081 0.61566 0.0
C202 C 0.04257 0.83411 0.6289 0.0
C203 C 0.04239 0.84663 0.62047 0.0
C204 C 0.05985 0.83604 0.63224 0.0
C205 C 0.07648 0.85023 0.62746 0.0
U206 U 0.11606 0.88947 0.59571 0.0
O207 O 0.13136 0.9189 0.59146 0.0
O208 O 0.14631 0.90572 0.5989 0.0
C209 C 0.14734 0.92108 0.59537 0.0
C210 C 0.09419 0.87877 0.61497 0.0
C211 C 0.15885 0.93737 0.60296 0.0
C212 C 0.16467 0.95557 0.62141 0.0
C213 C 0.15327 0.93972 0.61458 0.0
C214 C 0.18728 0.96671 0.60508 0.0
C215 C 0.18181 0.96935 0.6167 0.0
C216 C 0.17593 0.95094 0.59831 0.0
C217 C 0.11382 0.8676 0.56417 0.0
C218 C 0.13302 0.88266 0.54637 0.0
C219 C 0.11332 0.84976 0.54661 0.0
C220 C 0.10716 0.85073 0.55831 0.0
C221 C 0.12633 0.86569 0.54045 0.0
C222 C 0.12686 0.8836 0.55815 0.0
C223 C 0.10665 0.86799 0.57645 0.0
O224 O 0.10842 0.87612 0.61374 0.0
O225 O 0.09332 0.88909 0.60627 0.0
O226 O 0.1012 0.87999 0.57817 0.0
O227 O 0.11603 0.8668 0.58575 0.0
H228 H 0.0583 0.87034 0.60936 0.0
H229 H 0.02936 0.84549 0.61757 0.0
H230 H 0.06061 0.82686 0.63884 0.0
H231 H 0.08953 0.85155 0.63051 0.0
H232 H 0.15993 0.95716 0.63027 0.0
H233 H 0.14011 0.92939 0.61834 0.0
H234 H 0.20048 0.97676 0.60122 0.0
H235 H 0.18055 0.94935 0.58939 0.0
H236 H 0.14317 0.89519 0.54198 0.0
H237 H 0.10761 0.83649 0.5423 0.0
H238 H 0.09704 0.83823 0.56277 0.0
H239 H 0.13223 0.89678 0.56252 0.0
C240 C 0.88508 0.47515 0.74719 0.0
C241 C 0.89908 0.49353 0.74842 0.0
C242 C 0.87955 0.50354 0.7381 0.0
C243 C 0.89636 0.50756 0.74389 0.0
C244 C 0.86546 0.48511 0.73711 0.0
C245 C 0.86824 0.47111 0.74156 0.0
U246 U 0.90013 0.45115 0.77085 0.0
O247 O 0.88691 0.42202 0.77566 0.0
O248 O 0.91518 0.43611 0.76819 0.0
C249 C 0.90102 0.42049 0.77175 0.0
C250 C 0.88783 0.45995 0.75131 0.0
C251 C 0.89636 0.40455 0.76396 0.0
C252 C 0.88245 0.38622 0.74572 0.0
C253 C 0.88696 0.40175 0.75279 0.0
C254 C 0.89685 0.37632 0.7609 0.0
C255 C 0.88724 0.37323 0.74974 0.0
C256 C 0.90132 0.39179 0.76792 0.0
C257 C 0.91917 0.47384 0.80207 0.0
C258 C 0.92762 0.45991 0.8185 0.0
C259 C 0.93224 0.49037 0.821 0.0
C260 C 0.92512 0.48949 0.80927 0.0
C261 C 0.93357 0.47559 0.8258 0.0
C262 C 0.92047 0.45904 0.80673 0.0
C263 C 0.91161 0.47329 0.78978 0.0
O264 O 0.90512 0.4636 0.7526 0.0
O265 O 0.87686 0.44965 0.76011 0.0
O266 O 0.89415 0.46067 0.78803 0.0
O267 O 0.92243 0.4748 0.78059 0.0
H268 H 0.91223 0.49709 0.75274 0.0
H269 H 0.90762 0.52153 0.74472 0.0
H270 H 0.8522 0.48144 0.73293 0.0
H271 H 0.85721 0.45705 0.74054 0.0
H272 H 0.87494 0.38423 0.73723 0.0
H273 H 0.88301 0.41148 0.74958 0.0
H274 H 0.90108 0.36685 0.76418 0.0
H275 H 0.90867 0.39377 0.77649 0.0
H276 H 0.92825 0.4482 0.82192 0.0
H277 H 0.93697 0.50278 0.82625 0.0
H278 H 0.92428 0.50107 0.8058 0.0
H279 H 0.91591 0.44682 0.80129 0.0
C280 C 0.60605 0.48121 0.7455 0.0
C281 C 0.62187 0.49073 0.75296 0.0
C282 C 0.63973 0.50986 0.73569 0.0
C283 C 0.63853 0.50489 0.74811 0.0
C284 C 0.6237 0.50046 0.72836 0.0
C285 C 0.60712 0.48633 0.7332 0.0
U286 U 0.56772 0.45491 0.76979 0.0
O287 O 0.53742 0.43828 0.76717 0.0
O288 O 0.55299 0.42549 0.77416 0.0
C289 C 0.53678 0.42304 0.77055 0.0
C290 C 0.58857 0.46544 0.75005 0.0
C291 C 0.5252 0.4067 0.76301 0.0
C292 C 0.51585 0.39075 0.74348 0.0
C293 C 0.52771 0.40638 0.75035 0.0
C294 C 0.49905 0.37564 0.76186 0.0
C295 C 0.50122 0.37523 0.74915 0.0
C296 C 0.51089 0.39117 0.76868 0.0
C297 C 0.57085 0.47652 0.80147 0.0
C298 C 0.54886 0.46184 0.81811 0.0
C299 C 0.57446 0.49276 0.82053 0.0
C300 C 0.5805 0.49221 0.80871 0.0
C301 C 0.55859 0.47758 0.82544 0.0
C302 C 0.55495 0.46131 0.80624 0.0
C303 C 0.5777 0.47646 0.78905 0.0
O304 O 0.59011 0.4555 0.75873 0.0
O305 O 0.57448 0.4682 0.75169 0.0
O306 O 0.56779 0.4774 0.77998 0.0
O307 O 0.58337 0.4647 0.78705 0.0
H308 H 0.62146 0.48707 0.76248 0.0
H309 H 0.65057 0.51165 0.75403 0.0
H310 H 0.6239 0.50407 0.71885 0.0
H311 H 0.59511 0.47923 0.72727 0.0
H312 H 0.51787 0.39097 0.7337 0.0
H313 H 0.53868 0.41824 0.74578 0.0
H314 H 0.48822 0.36388 0.76659 0.0
H315 H 0.50876 0.39111 0.77845 0.0
H316 H 0.53669 0.44984 0.82159 0.0
H317 H 0.58213 0.50522 0.82577 0.0
H318 H 0.59274 0.50412 0.80518 0.0
H319 H 0.5473 0.44905 0.8008 0.0
C320 C 0.53731 0.1323 0.74538 0.0
C321 C 0.51984 0.12296 0.75106 0.0
C322 C 0.50742 0.1367 0.73686 0.0
C323 C 0.50503 0.12511 0.74683 0.0
C324 C 0.52504 0.14608 0.73131 0.0
C325 C 0.53976 0.14389 0.73552 0.0
U326 U 0.56485 0.11943 0.76835 0.0
O327 O 0.58114 0.1059 0.76464 0.0
O328 O 0.59514 0.13392 0.77174 0.0
C329 C 0.59709 0.12047 0.76744 0.0
C330 C 0.55314 0.13002 0.74928 0.0
C331 C 0.61301 0.12558 0.75908 0.0
C332 C 0.62605 0.12334 0.73963 0.0
C333 C 0.61058 0.11938 0.74693 0.0
C334 C 0.64659 0.14005 0.7564 0.0
C335 C 0.64429 0.13363 0.7443 0.0
C336 C 0.63117 0.13605 0.76367 0.0
C337 C 0.5447 0.10185 0.80088 0.0
C338 C 0.55226 0.08483 0.81563 0.0
C339 C 0.53409 0.09855 0.82194 0.0
C340 C 0.53518 0.1053 0.8101 0.0
C341 C 0.54251 0.08812 0.82489 0.0
C342 C 0.55337 0.09165 0.80375 0.0
C343 C 0.54457 0.10844 0.78835 0.0
O344 O 0.56409 0.14129 0.75776 0.0
O345 O 0.54971 0.11319 0.75084 0.0
O346 O 0.54269 0.09747 0.77927 0.0
O347 O 0.55668 0.12565 0.78608 0.0
H348 H 0.51764 0.11397 0.75872 0.0
H349 H 0.49177 0.11783 0.75144 0.0
H350 H 0.5274 0.15488 0.72352 0.0
H351 H 0.55309 0.15117 0.73097 0.0
H352 H 0.62371 0.11834 0.73033 0.0
H353 H 0.59675 0.11129 0.74311 0.0
H354 H 0.66033 0.14775 0.76041 0.0
H355 H 0.63344 0.14085 0.77303 0.0
H356 H 0.55911 0.07705 0.81757 0.0
H357 H 0.5262 0.10114 0.8287 0.0
H358 H 0.52829 0.11303 0.80809 0.0
H359 H 0.56085 0.08883 0.7968 0.0
C360 C 0.74283 0.54451 0.95247 0.0
C361 C 0.73595 0.55548 0.94778 0.0
C362 C 0.70857 0.5402 0.96098 0.0
C363 C 0.719 0.55337 0.95201 0.0
C364 C 0.71552 0.52916 0.96551 0.0
C365 C 0.73241 0.53131 0.9613 0.0
U366 U 0.78411 0.55799 0.93007 0.0
O367 O 0.81404 0.57124 0.93433 0.0
O368 O 0.79965 0.54353 0.92669 0.0
C369 C 0.81526 0.55687 0.93118 0.0
C370 C 0.76104 0.54684 0.94873 0.0
C371 C 0.82614 0.55155 0.93928 0.0
C372 C 0.83924 0.5506 0.95908 0.0
C373 C 0.82766 0.55469 0.95195 0.0
C374 C 0.84767 0.53995 0.94104 0.0
C375 C 0.84951 0.54326 0.95371 0.0
C376 C 0.83615 0.54404 0.93395 0.0
C377 C 0.78388 0.57682 0.89752 0.0
C378 C 0.78193 0.5723 0.87541 0.0
C379 C 0.80343 0.60199 0.88378 0.0
C380 C 0.79767 0.59516 0.89563 0.0
C381 C 0.79549 0.59072 0.87348 0.0
C382 C 0.77617 0.56549 0.88724 0.0
C383 C 0.77613 0.56984 0.90992 0.0
O384 O 0.7607 0.53583 0.94015 0.0
O385 O 0.77488 0.56369 0.94751 0.0
O386 O 0.78475 0.5804 0.91933 0.0
O387 O 0.77023 0.55249 0.91211 0.0
H388 H 0.74371 0.56575 0.94093 0.0
H389 H 0.71403 0.56198 0.94819 0.0
H390 H 0.70812 0.51908 0.97253 0.0
H391 H 0.73748 0.52275 0.9651 0.0
H392 H 0.84012 0.55317 0.96882 0.0
H393 H 0.82008 0.56048 0.9563 0.0
H394 H 0.85554 0.53465 0.93648 0.0
H395 H 0.83535 0.54164 0.92419 0.0
H396 H 0.77565 0.56311 0.86775 0.0
H397 H 0.81371 0.6163 0.8827 0.0
H398 H 0.80374 0.60441 0.90328 0.0
H399 H 0.76536 0.55136 0.88832 0.0
C400 C 0.46377 0.20301 0.95283 0.0
C401 C 0.46228 0.18939 0.94482 0.0
C402 C 0.46917 0.17443 0.96152 0.0
C403 C 0.46496 0.17522 0.94912 0.0
C404 C 0.47043 0.18806 0.96949 0.0
C405 C 0.46777 0.20219 0.96518 0.0
U406 U 0.45 0.22711 0.92855 0.0
O407 O 0.43527 0.24251 0.93074 0.0
O408 O 0.46378 0.25629 0.92367 0.0
C409 C 0.44969 0.25805 0.92732 0.0
C410 C 0.4614 0.21828 0.94852 0.0
C411 C 0.45436 0.27403 0.93508 0.0
C412 C 0.46223 0.28955 0.95474 0.0
C413 C 0.45823 0.27424 0.94759 0.0
C414 C 0.4587 0.30458 0.93692 0.0
C415 C 0.46239 0.30488 0.9495 0.0
C416 C 0.45472 0.28932 0.92981 0.0
C417 C 0.43163 0.20438 0.89726 0.0
C418 C 0.4234 0.21826 0.88067 0.0
C419 C 0.4191 0.1879 0.87823 0.0
C420 C 0.42598 0.1888 0.89004 0.0
C421 C 0.41775 0.20263 0.87335 0.0
C422 C 0.43029 0.21913 0.89252 0.0
C423 C 0.43882 0.20489 0.90967 0.0
O424 O 0.47266 0.22835 0.93976 0.0
O425 O 0.44416 0.21451 0.94683 0.0
O426 O 0.4278 0.20359 0.91867 0.0
O427 O 0.45629 0.21734 0.91159 0.0
H428 H 0.45919 0.1898 0.93524 0.0
H429 H 0.46405 0.16508 0.9427 0.0
H430 H 0.47332 0.18775 0.97911 0.0
H431 H 0.46888 0.21253 0.97151 0.0
H432 H 0.46486 0.28924 0.96441 0.0
H433 H 0.45801 0.26253 0.95182 0.0
H434 H 0.45903 0.31622 0.93251 0.0
H435 H 0.45186 0.28945 0.92015 0.0
H436 H 0.42273 0.22992 0.87718 0.0
H437 H 0.4146 0.17553 0.87298 0.0
H438 H 0.42683 0.17724 0.89357 0.0
H439 H 0.43462 0.2313 0.89796 0.0
C440 C 0.7422 0.19764 0.95244 0.0
C441 C 0.73394 0.18026 0.94702 0.0
C442 C 0.70818 0.16874 0.96158 0.0
C443 C 0.71711 0.16594 0.95156 0.0
C444 C 0.71654 0.18626 0.96688 0.0
C445 C 0.73332 0.2005 0.96236 0.0
U446 U 0.78207 0.22279 0.92896 0.0
O447 O 0.79803 0.25219 0.92473 0.0
O448 O 0.81232 0.23845 0.93232 0.0
C449 C 0.8138 0.25398 0.92874 0.0
C450 C 0.76023 0.21292 0.94822 0.0
C451 C 0.82554 0.2702 0.93634 0.0
C452 C 0.831 0.28933 0.95426 0.0
C453 C 0.81944 0.27345 0.94751 0.0
C454 C 0.85481 0.29867 0.9388 0.0
C455 C 0.84882 0.30224 0.94993 0.0
C456 C 0.84332 0.28288 0.9321 0.0
C457 C 0.7802 0.20146 0.89734 0.0
C458 C 0.79555 0.21649 0.87835 0.0
C459 C 0.78402 0.18414 0.88097 0.0
C460 C 0.77771 0.18494 0.89267 0.0
C461 C 0.79296 0.19987 0.87361 0.0
C462 C 0.7893 0.21729 0.89011 0.0
C463 C 0.77264 0.20157 0.90957 0.0
O464 O 0.77386 0.20939 0.94692 0.0
O465 O 0.75951 0.22308 0.93937 0.0
O466 O 0.76728 0.21363 0.91138 0.0
O467 O 0.78156 0.19988 0.91897 0.0
H468 H 0.74053 0.17775 0.93933 0.0
H469 H 0.71101 0.15272 0.94715 0.0
H470 H 0.71032 0.18893 0.9747 0.0
H471 H 0.73949 0.21378 0.96672 0.0
H472 H 0.82586 0.29165 0.96275 0.0
H473 H 0.80574 0.26382 0.95094 0.0
H474 H 0.86852 0.30804 0.93527 0.0
H475 H 0.84833 0.28059 0.92354 0.0
H476 H 0.80256 0.22891 0.87302 0.0
H477 H 0.78155 0.17107 0.87759 0.0
H478 H 0.77065 0.17253 0.89804 0.0
H479 H 0.79149 0.23025 0.89351 0.0
C480 C 0.55299 0.80895 0.07944 0.0
C481 C 0.55468 0.82271 0.0874 0.0
C482 C 0.54732 0.83736 0.07072 0.0
C483 C 0.55187 0.8368 0.08308 0.0
C484 C 0.54586 0.82358 0.06281 0.0
C485 C 0.54865 0.80955 0.06714 0.0
U486 U 0.56753 0.7852 0.10354 0.0
O487 O 0.55401 0.75611 0.10854 0.0
O488 O 0.58225 0.76981 0.10104 0.0
C489 C 0.56798 0.75432 0.10466 0.0
C490 C 0.5555 0.79378 0.08375 0.0
C491 C 0.56306 0.73828 0.09692 0.0
C492 C 0.54967 0.72039 0.07845 0.0
C493 C 0.55437 0.73596 0.08551 0.0
C494 C 0.56241 0.70945 0.0941 0.0
C495 C 0.55355 0.70687 0.0827 0.0
C496 C 0.56709 0.72497 0.10112 0.0
C497 C 0.58711 0.80814 0.13465 0.0
C498 C 0.58844 0.79341 0.15347 0.0
C499 C 0.60776 0.82618 0.1512 0.0
C500 C 0.60045 0.82505 0.13949 0.0
C501 C 0.60181 0.81039 0.15837 0.0
C502 C 0.58122 0.79228 0.1417 0.0
C503 C 0.57942 0.80752 0.12235 0.0
O504 O 0.57279 0.79758 0.08522 0.0
O505 O 0.54452 0.78385 0.09268 0.0
O506 O 0.56185 0.7952 0.1206 0.0
O507 O 0.59013 0.80886 0.11314 0.0
H508 H 0.55803 0.82248 0.09695 0.0
H509 H 0.55295 0.84705 0.08946 0.0
H510 H 0.54272 0.82372 0.05322 0.0
H511 H 0.54739 0.79909 0.06085 0.0
H512 H 0.54273 0.71879 0.06976 0.0
H513 H 0.55115 0.74612 0.08212 0.0
H514 H 0.56593 0.69954 0.09758 0.0
H515 H 0.57388 0.72658 0.10987 0.0
H516 H 0.58372 0.78097 0.15869 0.0
H517 H 0.61785 0.83949 0.15472 0.0
H518 H 0.60516 0.83745 0.13422 0.0
H519 H 0.57101 0.77904 0.13813 0.0
C520 C 0.2748 0.81261 0.07971 0.0
C521 C 0.28234 0.83022 0.08468 0.0
C522 C 0.30866 0.84177 0.07058 0.0
C523 C 0.29908 0.84467 0.08014 0.0
C524 C 0.30107 0.82401 0.06576 0.0
C525 C 0.28436 0.80964 0.07027 0.0
U526 U 0.23536 0.78721 0.10336 0.0
O527 O 0.20509 0.77132 0.1003 0.0
O528 O 0.21971 0.75779 0.10768 0.0
C529 C 0.20382 0.75585 0.10379 0.0
C530 C 0.25685 0.79719 0.08392 0.0
C531 C 0.19217 0.73963 0.09615 0.0
C532 C 0.1833 0.72368 0.07662 0.0
C533 C 0.19514 0.73922 0.08357 0.0
C534 C 0.16558 0.70884 0.09478 0.0
C535 C 0.16824 0.70832 0.08212 0.0
C536 C 0.17739 0.7243 0.10168 0.0
C537 C 0.23852 0.80891 0.13505 0.0
C538 C 0.21561 0.79514 0.15129 0.0
C539 C 0.24301 0.82475 0.15439 0.0
C540 C 0.24906 0.82404 0.1426 0.0
C541 C 0.22622 0.81031 0.15894 0.0
C542 C 0.22172 0.79444 0.13946 0.0
C543 C 0.24546 0.80865 0.12268 0.0
O544 O 0.25775 0.787 0.09268 0.0
O545 O 0.24314 0.80057 0.08536 0.0
O546 O 0.23596 0.81001 0.11351 0.0
O547 O 0.25062 0.79648 0.12079 0.0
H548 H 0.27525 0.83283 0.09201 0.0
H549 H 0.30458 0.85808 0.08419 0.0
H550 H 0.30784 0.82125 0.0583 0.0
H551 H 0.27877 0.79618 0.06627 0.0
H552 H 0.18571 0.72383 0.06689 0.0
H553 H 0.20648 0.75094 0.07912 0.0
H554 H 0.15441 0.69722 0.0994 0.0
H555 H 0.1749 0.7243 0.11139 0.0
H556 H 0.20271 0.78368 0.1545 0.0
H557 H 0.25141 0.83679 0.15988 0.0
H558 H 0.26203 0.83539 0.13935 0.0
H559 H 0.21339 0.7826 0.13377 0.0
C560 C 0.20155 0.46113 0.07785 0.0
C561 C 0.19269 0.4676 0.08565 0.0
C562 C 0.1722 0.46622 0.06901 0.0
C563 C 0.17817 0.4701 0.08128 0.0
C564 C 0.18093 0.45942 0.06135 0.0
C565 C 0.19541 0.45694 0.06571 0.0
U566 U 0.23033 0.45043 0.10123 0.0
O567 O 0.24595 0.43599 0.09807 0.0
O568 O 0.26072 0.4647 0.10382 0.0
C569 C 0.26214 0.45059 0.10027 0.0
C570 C 0.21768 0.45936 0.08184 0.0
C571 C 0.27746 0.45422 0.09175 0.0
C572 C 0.29897 0.47153 0.07534 0.0
C573 C 0.28367 0.46787 0.08273 0.0
C574 C 0.30187 0.4478 0.08575 0.0
C575 C 0.30836 0.46158 0.07678 0.0
C576 C 0.28665 0.44419 0.09311 0.0
C577 C 0.21125 0.43493 0.13422 0.0
C578 C 0.21981 0.41911 0.14931 0.0
C579 C 0.20015 0.43138 0.15517 0.0
C580 C 0.20109 0.43785 0.14326 0.0
C581 C 0.20938 0.4218 0.15838 0.0
C582 C 0.22076 0.42563 0.13735 0.0
C583 C 0.21082 0.44098 0.12158 0.0
O584 O 0.22907 0.47132 0.08987 0.0
O585 O 0.21446 0.44271 0.08393 0.0
O586 O 0.20839 0.42942 0.11278 0.0
O587 O 0.2231 0.45797 0.11884 0.0
H588 H 0.19715 0.47095 0.09507 0.0
H589 H 0.17192 0.47549 0.08745 0.0
H590 H 0.17655 0.45592 0.05194 0.0
H591 H 0.20198 0.4519 0.05952 0.0
H592 H 0.3034 0.4821 0.06846 0.0
H593 H 0.2768 0.4758 0.08147 0.0
H594 H 0.30884 0.44004 0.08733 0.0
H595 H 0.28223 0.43369 0.10006 0.0
H596 H 0.22729 0.412 0.15144 0.0
H597 H 0.19173 0.4335 0.16178 0.0
H598 H 0.19355 0.44488 0.14104 0.0
H599 H 0.22872 0.42323 0.13054 0.0
C600 C 0.41069 0.87995 0.28584 0.0
C601 C 0.39365 0.86397 0.28344 0.0
C602 C 0.3767 0.87545 0.29528 0.0
C603 C 0.3769 0.86178 0.28806 0.0
C604 C 0.39373 0.89151 0.29757 0.0
C605 C 0.41047 0.89369 0.29297 0.0
U606 U 0.4516 0.89235 0.26327 0.0
O607 O 0.48158 0.9053 0.26721 0.0
O608 O 0.46675 0.87758 0.2596 0.0
C609 C 0.48252 0.89079 0.26399 0.0
C610 C 0.42872 0.88156 0.28204 0.0
C611 C 0.49331 0.88531 0.27205 0.0
C612 C 0.50579 0.88361 0.29192 0.0
C613 C 0.49432 0.88783 0.28477 0.0
C614 C 0.51512 0.87404 0.27376 0.0
C615 C 0.51646 0.87675 0.2865 0.0
C616 C 0.50371 0.87826 0.26666 0.0
C617 C 0.45014 0.91225 0.23132 0.0
C618 C 0.47127 0.91874 0.21419 0.0
C619 C 0.4473 0.92704 0.21299 0.0
C620 C 0.44128 0.91996 0.22471 0.0
C621 C 0.46242 0.92661 0.20754 0.0
C622 C 0.46521 0.91166 0.22599 0.0
C623 C 0.44309 0.90481 0.24363 0.0
O624 O 0.42814 0.87045 0.27344 0.0
O625 O 0.44309 0.89814 0.28099 0.0
O626 O 0.45239 0.91518 0.25295 0.0
O627 O 0.43759 0.88745 0.2454 0.0
H628 H 0.39324 0.85296 0.27814 0.0
H629 H 0.36409 0.84931 0.28596 0.0
H630 H 0.39423 0.90224 0.30323 0.0
H631 H 0.42332 0.90602 0.29523 0.0
H632 H 0.50627 0.8857 0.3017 0.0
H633 H 0.48642 0.89324 0.28917 0.0
H634 H 0.5233 0.86911 0.26918 0.0
H635 H 0.50329 0.87633 0.25686 0.0
H636 H 0.48304 0.9183 0.21036 0.0
H637 H 0.4399 0.93265 0.20812 0.0
H638 H 0.42955 0.92045 0.2286 0.0
H639 H 0.47227 0.90577 0.23094 0.0
C640 C 0.13026 0.53602 0.28588 0.0
C641 C 0.12505 0.52051 0.27863 0.0
C642 C 0.13493 0.50708 0.29472 0.0
C643 C 0.12737 0.50616 0.28301 0.0
C644 C 0.14017 0.52275 0.30188 0.0
C645 C 0.13784 0.53704 0.2975 0.0
U646 U 0.11633 0.5602 0.26172 0.0
O647 O 0.1016 0.57557 0.26411 0.0
O648 O 0.13007 0.58942 0.25697 0.0
C649 C 0.11599 0.59113 0.26069 0.0
C650 C 0.1279 0.55127 0.28157 0.0
C651 C 0.12067 0.60707 0.26848 0.0
C652 C 0.12853 0.62251 0.28816 0.0
C653 C 0.12453 0.60722 0.28098 0.0
C654 C 0.12504 0.63761 0.27036 0.0
C655 C 0.12871 0.63787 0.28294 0.0
C656 C 0.12105 0.62238 0.26323 0.0
C657 C 0.09766 0.53832 0.23014 0.0
C658 C 0.10194 0.54002 0.20805 0.0
C659 C 0.0723 0.5334 0.21645 0.0
C660 C 0.07927 0.53449 0.22827 0.0
C661 C 0.08351 0.53607 0.20617 0.0
C662 C 0.10889 0.54106 0.21988 0.0
C663 C 0.10497 0.53849 0.24259 0.0
O664 O 0.13909 0.56129 0.27276 0.0
O665 O 0.11065 0.54753 0.27994 0.0
O666 O 0.09413 0.53671 0.25184 0.0
O667 O 0.12253 0.55066 0.24459 0.0
H668 H 0.11914 0.51948 0.26963 0.0
H669 H 0.12301 0.49424 0.2773 0.0
H670 H 0.14631 0.52411 0.31083 0.0
H671 H 0.14201 0.54894 0.3032 0.0
H672 H 0.13116 0.62218 0.29783 0.0
H673 H 0.1243 0.5955 0.28519 0.0
H674 H 0.12539 0.64928 0.26598 0.0
H675 H 0.11821 0.62254 0.25358 0.0
H676 H 0.11107 0.54238 0.20038 0.0
H677 H 0.05796 0.53004 0.21537 0.0
H678 H 0.07011 0.53207 0.23594 0.0
H679 H 0.12306 0.54387 0.22099 0.0
C680 C 0.40927 0.53207 0.28589 0.0
C681 C 0.4014 0.51444 0.28089 0.0
C682 C 0.37542 0.50319 0.29527 0.0
C683 C 0.38466 0.50014 0.28555 0.0
C684 C 0.38336 0.52097 0.30012 0.0
C685 C 0.40006 0.53519 0.29548 0.0
U686 U 0.44863 0.55712 0.26209 0.0
O687 O 0.46445 0.58649 0.25773 0.0
O688 O 0.47895 0.57284 0.26512 0.0
C689 C 0.48032 0.58834 0.26158 0.0
C690 C 0.42724 0.54735 0.28157 0.0
C691 C 0.49214 0.60459 0.26912 0.0
C692 C 0.49852 0.62286 0.2876 0.0
C693 C 0.48688 0.60702 0.28083 0.0
C694 C 0.52073 0.63385 0.27104 0.0
C695 C 0.51558 0.63656 0.28274 0.0
C696 C 0.50915 0.61809 0.26433 0.0
C697 C 0.44549 0.53547 0.23044 0.0
C698 C 0.46771 0.55002 0.21391 0.0
C699 C 0.44204 0.51916 0.21143 0.0
C700 C 0.43587 0.51977 0.22321 0.0
C701 C 0.45801 0.53428 0.20657 0.0
C702 C 0.46149 0.55061 0.22573 0.0
C703 C 0.43843 0.53566 0.24278 0.0
O704 O 0.44084 0.54381 0.28011 0.0
O705 O 0.42636 0.55752 0.27279 0.0
O706 O 0.43334 0.54789 0.24468 0.0
O707 O 0.44783 0.5342 0.25197 0.0
H708 H 0.40823 0.51172 0.27345 0.0
H709 H 0.37889 0.48671 0.28147 0.0
H710 H 0.37688 0.52385 0.30769 0.0
H711 H 0.40592 0.54867 0.29951 0.0
H712 H 0.49401 0.62451 0.29654 0.0
H713 H 0.47378 0.59675 0.2847 0.0
H714 H 0.53386 0.64384 0.26706 0.0
H715 H 0.51351 0.61644 0.25533 0.0
H716 H 0.47995 0.56199 0.21046 0.0
H717 H 0.43438 0.5067 0.20619 0.0
H718 H 0.42353 0.50791 0.22669 0.0
H719 H 0.46912 0.56288 0.23116 0.0
Eu720 Eu 0.50064 0.99442 1.00072 0.0
C721 C 0.53924 0.05971 0.03729 0.0
C722 C 0.57189 0.06886 0.03635 0.0
C723 C 0.56274 0.0914 0.04093 0.0
C724 C 0.55298 0.05534 0.03529 0.0
C725 C 0.54394 0.0777 0.04039 0.0
C726 C 0.5767 0.08699 0.03891 0.0
C727 C 0.51119 0.06695 0.0432 0.0
N728 N 0.52124 0.04613 0.03682 0.0
C729 C 0.50725 0.04931 0.04015 0.0
C730 C 0.52961 0.08127 0.04319 0.0
Eu731 Eu 0.51555 0.01681 0.031 0.0
N732 N 0.54786 0.03767 0.03294 0.0
C733 C 0.56092 0.03237 0.03241 0.0
C734 C 0.58539 0.06367 0.03515 0.0
C735 C 0.57986 0.0453 0.03332 0.0
H736 H 0.49298 0.03829 0.0401 0.0
H737 H 0.59017 0.04109 0.03258 0.0
H738 H 0.59115 0.09759 0.03964 0.0
H739 H 0.50004 0.0695 0.04555 0.0
H740 H 0.55685 0.01824 0.03096 0.0
H741 H 0.42673 0.97333 0.99858 0.0
H742 H 0.60005 0.07364 0.03593 0.0
H743 H 0.52148 0.97123 0.99188 0.0
H744 H 0.46023 0.99497 1.00054 0.0
H745 H 0.51304 0.93953 0.98662 0.0
H746 H 0.56664 0.10534 0.04319 0.0
H747 H 0.41543 0.9405 0.99527 0.0
H748 H 0.42284 0.91538 0.9921 0.0
H749 H 0.53264 0.09492 0.0456 0.0
H750 H 0.44633 0.90613 0.98889 0.0
N751 N 0.46808 0.97463 0.99875 0.0
C752 C 0.45563 0.98072 0.99914 0.0
C753 C 0.43022 0.94993 0.99624 0.0
C754 C 0.44307 0.94387 0.99532 0.0
C755 C 0.43654 0.96846 0.99804 0.0
C756 C 0.46218 0.95677 0.9965 0.0
H757 H 0.47999 0.9151 0.98662 0.0
N758 N 0.49356 0.96459 0.9951 0.0
C759 C 0.5023 0.94271 0.9889 0.0
C760 C 0.47534 0.95157 0.99465 0.0
C761 C 0.50703 0.96062 0.99185 0.0
C762 C 0.48363 0.92895 0.98896 0.0
C763 C 0.46985 0.93334 0.99165 0.0
O764 O 0.51486 0.99951 0.98311 0.0
O765 O 0.52312 0.01728 1.01141 0.0
O766 O 0.51261 0.03655 0.01842 0.0
O767 O 0.4926 0.01646 1.00359 0.0
O768 O 0.53156 1.0044 0.9992 0.0
O769 O 0.49235 0.00512 0.9852 0.0
O770 O 0.50082 0.01005 0.04847 0.0
O771 O 0.49319 0.99388 0.02029 0.0
O772 O 0.5038 0.97489 0.01342 0.0
O773 O 0.52421 0.99526 0.02798 0.0
O774 O 0.48454 0.00652 0.03251 0.0
O775 O 0.52529 0.00751 0.04657 0.0
C776 C 0.53728 0.01766 1.0069 0.0
C777 C 0.49712 0.99683 0.96547 0.0
C778 C 0.49793 0.99999 0.94313 0.0
C779 C 0.50466 0.0075 0.95485 0.0
C780 C 0.48343 0.98169 0.94235 0.0
C781 C 0.48278 0.97866 0.96435 0.0
C782 C 0.47599 0.97117 0.95286 0.0
C783 C 0.50093 0.0326 1.00914 0.0
C784 C 0.50426 0.00467 0.97767 0.0
C785 C 0.45083 0.92025 0.99107 0.0
C786 C 0.43746 0.92551 0.99289 0.0
C787 C 0.47894 0.99335 0.02475 0.0
C788 C 0.51883 0.01456 0.06625 0.0
C789 C 0.51174 1.00375 0.07687 0.0
C790 C 0.5173 0.01171 0.08859 0.0
C791 C 0.5302 0.03054 0.08943 0.0
C792 C 0.53169 0.03324 0.06741 0.0
C793 C 0.53733 0.04115 0.07893 0.0
C794 C 0.51572 0.979 0.02259 0.0
C795 C 0.51253 0.00643 0.05401 0.0
H796 H 0.51587 0.0215 0.95572 0.0
H797 H 0.4776 0.97553 0.93358 0.0
H798 H 0.47678 0.97028 0.97237 0.0
H799 H 0.46483 0.95715 0.95209 0.0
H800 H 0.50171 0.98932 0.07602 0.0
H801 H 0.53497 0.03705 0.09825 0.0
H802 H 0.53735 0.04173 0.05941 0.0
H803 H 0.54729 0.05559 0.07973 0.0
Eu804 Eu 0.02137 0.50941 1.00148 0.0
C805 C 0.95136 0.48251 0.03469 0.0
C806 C 0.94274 0.50584 0.03254 0.0
C807 C 0.91895 0.47441 0.03659 0.0
C808 C 0.95634 0.50049 0.0325 0.0
C809 C 0.93268 0.46933 0.03705 0.0
C810 C 0.92397 0.49264 0.03432 0.0
C811 C 0.94276 0.44748 0.04112 0.0
N812 N 0.96497 0.47809 0.03513 0.0
C813 C 0.96109 0.46105 0.03873 0.0
C814 C 0.92844 0.45157 0.04012 0.0
Eu815 Eu 0.99552 0.50149 0.03044 0.0
N816 N 0.97461 0.51291 0.0309 0.0
C817 C 0.98037 0.53111 0.03022 0.0
C818 C 0.94846 0.52437 0.03111 0.0
C819 C 0.9674 0.53709 0.03012 0.0
H820 H 0.97212 0.45782 0.03942 0.0
H821 H 0.97201 0.55149 0.02924 0.0
H822 H 0.9133 0.49646 0.03425 0.0
H823 H 0.93968 0.43388 0.04369 0.0
H824 H 0.99493 0.5411 0.02937 0.0
H825 H 0.04454 0.45914 1.00244 0.0
H826 H 0.93845 0.52903 0.03103 0.0
H827 H 0.04494 0.55309 0.99254 0.0
H828 H 0.02175 0.46969 1.00241 0.0
H829 H 0.07741 0.57694 0.98828 0.0
H830 H 0.90449 0.46445 0.03825 0.0
H831 H 0.07813 0.48148 1.00067 0.0
H832 H 0.10339 0.51403 0.9975 0.0
H833 H 0.91426 0.44105 0.04199 0.0
H834 H 0.11235 0.54609 0.99359 0.0
N835 N 0.04217 0.49786 1.00096 0.0
C836 C 0.03632 0.47963 1.00158 0.0
C837 C 0.06817 0.48622 1.00064 0.0
C838 C 0.07399 0.50477 0.99926 0.0
C839 C 0.04922 0.47357 1.00161 0.0
C840 C 0.06045 0.51022 0.99937 0.0
H841 H 0.10273 0.56962 0.98992 0.0
N842 N 0.05197 0.53272 0.99679 0.0
C843 C 0.07427 0.56331 0.99083 0.0
C844 C 0.06552 0.52823 0.99722 0.0
C845 C 0.05592 0.54979 0.99321 0.0
C846 C 0.08853 0.55914 0.99181 0.0
C847 C 0.08422 0.54135 0.99485 0.0
O848 O 0.01717 0.51782 0.9834 0.0
O849 O 0.99702 0.5085 1.0107 0.0
O850 O 0.97677 0.47892 0.01733 0.0
O851 O 0.99881 0.47934 1.00396 0.0
O852 O 0.01124 0.52969 0.99863 0.0
O853 O 0.01246 0.49047 0.98607 0.0
O854 O 1.00004 0.49321 0.04847 0.0
O855 O 0.01985 0.50244 0.02121 0.0
O856 O 0.04009 0.53203 0.0146 0.0
O857 O 0.01802 0.53156 0.02797 0.0
O858 O 1.00578 0.48129 0.03332 0.0
O859 O 1.00396 0.5203 0.04591 0.0
C860 C 0.99704 0.52201 1.00576 0.0
C861 C 0.02213 0.50353 0.96648 0.0
C862 C 0.02036 0.50051 0.9442 0.0
C863 C 0.01186 0.49952 0.95554 0.0
C864 C 0.03934 0.50573 0.94407 0.0
C865 C 0.04098 0.50862 0.96609 0.0
C866 C 0.04952 0.50973 0.95493 0.0
C867 C 0.98175 0.4714 1.0086 0.0
C868 C 0.01302 0.50236 0.97822 0.0
C869 C 0.09788 0.53618 0.99526 0.0
C870 C 0.09277 0.51792 0.99748 0.0
C871 C 0.01993 0.48899 0.02615 0.0
C872 C 0.99458 0.50697 0.06547 0.0
C873 C 1.00481 0.51069 0.0764 0.0
C874 C 0.99623 0.50917 0.08778 0.0
C875 C 0.97719 0.50376 0.08797 0.0
C876 C 0.97568 0.50169 0.0659 0.0
C877 C 0.96705 0.50008 0.07711 0.0
C878 C 0.03508 0.53955 0.02332 0.0
C879 C 1.00376 0.50851 0.05371 0.0
H880 H 0.99723 0.4954 0.95589 0.0
H881 H 0.04643 0.50697 0.93553 0.0
H882 H 0.04907 0.51172 0.9744 0.0
H883 H 0.06411 0.51375 0.95469 0.0
H884 H 0.01948 0.51497 0.076 0.0
H885 H 0.97003 0.50211 0.09653 0.0
H886 H 0.9676 0.49879 0.05759 0.0
H887 H 0.95242 0.4959 0.07738 0.0
Eu888 Eu 0.51621 0.50217 0.03096 0.0
C889 C 0.47581 0.529 0.99534 0.0
C890 C 0.44333 0.50579 0.99684 0.0
C891 C 0.45186 0.5372 0.99234 0.0
C892 C 0.46234 0.51108 0.99748 0.0
C893 C 0.47074 0.5422 0.99246 0.0
C894 C 0.43817 0.51902 0.99454 0.0
C895 C 0.50327 0.56392 0.9891 0.0
N896 N 0.4939 0.53334 0.99545 0.0
C897 C 0.50759 0.55033 0.99198 0.0
C898 C 0.48478 0.55991 0.98949 0.0
Eu899 Eu 0.50029 0.50996 1.00104 0.0
N900 N 0.46782 0.49863 0.99956 0.0
C901 C 0.45497 0.48044 1.00016 0.0
C902 C 0.43008 0.48729 0.99821 0.0
C903 C 0.43594 0.47453 0.99968 0.0
H904 H 0.52191 0.55351 0.99176 0.0
H905 H 0.42582 0.46014 1.0005 0.0
H906 H 0.42364 0.51525 0.99414 0.0
H907 H 0.51419 0.57748 0.98662 0.0
H908 H 0.45925 0.47042 1.00137 0.0
H909 H 0.59013 0.55367 0.03249 0.0
H910 H 0.41533 0.48267 0.99784 0.0
H911 H 0.49559 0.45847 0.03976 0.0
H912 H 0.55661 0.54241 0.03082 0.0
H913 H 0.50418 0.43506 0.04479 0.0
H914 H 0.44768 0.54718 0.99027 0.0
H915 H 0.60152 0.53196 0.0356 0.0
H916 H 0.59422 0.49956 0.03866 0.0
H917 H 0.48146 0.57045 0.98724 0.0
H918 H 0.57083 0.46723 0.04193 0.0
N919 N 0.54881 0.51435 0.03254 0.0
C920 C 0.56124 0.53267 0.03212 0.0
C921 C 0.58672 0.52685 0.03475 0.0
C922 C 0.57391 0.50817 0.03568 0.0
C923 C 0.58035 0.53917 0.03306 0.0
C924 C 0.55478 0.50229 0.03466 0.0
H925 H 0.53724 0.44311 0.04444 0.0
N926 N 0.52344 0.47927 0.0363 0.0
C927 C 0.51486 0.4488 0.04244 0.0
C928 C 0.54167 0.48416 0.03656 0.0
C929 C 0.51005 0.46206 0.03963 0.0
C930 C 0.53353 0.45338 0.0422 0.0
C931 C 0.54724 0.47132 0.03944 0.0
O932 O 0.50263 0.49328 0.04876 0.0
O933 O 0.49339 0.50302 0.02071 0.0
O934 O 0.50368 0.5326 0.01372 0.0
O935 O 0.52421 0.53211 0.02814 0.0
O936 O 0.48532 0.4818 0.03289 0.0
O937 O 0.5249 0.52108 0.04641 0.0
O938 O 0.51409 0.5181 0.98327 0.0
O939 O 0.52307 0.50906 1.01133 0.0
O940 O 0.51274 0.47959 0.01815 0.0
O941 O 0.49182 0.47994 1.00402 0.0
O942 O 0.53125 0.5302 0.99912 0.0
O943 O 0.49078 0.49086 0.98569 0.0
C944 C 0.47937 0.48949 0.02535 0.0
C945 C 0.52092 0.50824 0.06614 0.0
C946 C 0.52157 0.51179 0.08841 0.0
C947 C 0.51409 0.5121 0.07684 0.0
C948 C 0.53579 0.50733 0.08902 0.0
C949 C 0.53513 0.50392 0.06705 0.0
C950 C 0.54247 0.50344 0.07842 0.0
C951 C 0.51569 0.5401 0.02283 0.0
C952 C 0.51332 0.50891 0.05408 0.0
C953 C 0.56627 0.47692 0.03985 0.0
C954 C 0.57958 0.49532 0.03799 0.0
C955 C 0.53715 0.52256 1.00672 0.0
C956 C 0.49559 0.50365 0.96588 0.0
C957 C 0.50254 0.49979 0.95524 0.0
C958 C 0.49556 0.50056 0.94359 0.0
C959 C 0.48166 0.50545 0.94285 0.0
C960 C 0.48172 0.50841 0.96484 0.0
C961 C 0.47483 0.50933 0.95338 0.0
C962 C 0.50049 0.472 1.00916 0.0
C963 C 0.5028 0.5026 0.978 0.0
H964 H 0.50322 0.5156 0.07613 0.0
H965 H 0.54164 0.50662 0.09772 0.0
H966 H 0.54056 0.50094 0.05896 0.0
H967 H 0.55339 0.50001 0.07904 0.0
H968 H 0.51315 0.49594 0.95607 0.0
H969 H 0.47619 0.50653 0.93408 0.0
H970 H 0.4762 0.51141 0.97288 0.0
H971 H 0.46417 0.5131 0.95265 0.0
Eu972 Eu 0.16775 0.32808 0.33419 0.0
C973 C 0.20712 0.39366 0.3705 0.0
C974 C 0.2397 0.40265 0.36908 0.0
C975 C 0.23084 0.42536 0.37382 0.0
C976 C 0.22073 0.38917 0.36832 0.0
C977 C 0.212 0.41171 0.37356 0.0
C978 C 0.24467 0.42084 0.37156 0.0
C979 C 0.17939 0.40112 0.37688 0.0
N980 N 0.18909 0.38014 0.37026 0.0
C981 C 0.17526 0.38342 0.37381 0.0
C982 C 0.19783 0.41539 0.3766 0.0
Eu983 Eu 0.18304 0.35072 0.36439 0.0
N984 N 0.21543 0.37144 0.36606 0.0
C985 C 0.2284 0.36604 0.36539 0.0
C986 C 0.25308 0.39735 0.36765 0.0
C987 C 0.24739 0.37891 0.36598 0.0
H988 H 0.16098 0.37245 0.37394 0.0
H989 H 0.25762 0.37461 0.3651 0.0
H990 H 0.25917 0.43142 0.37206 0.0
H991 H 0.16836 0.40376 0.37942 0.0
H992 H 0.22424 0.35186 0.36403 0.0
H993 H 0.09327 0.30472 0.33328 0.0
H994 H 0.2678 0.4073 0.36811 0.0
H995 H 0.18954 0.306 0.32486 0.0
H996 H 0.12669 0.3273 0.33432 0.0
H997 H 0.18193 0.27455 0.31957 0.0
H998 H 0.23488 0.43936 0.37603 0.0
H999 H 0.08286 0.27194 0.3305 0.0
H1000 H 0.09125 0.2476 0.32679 0.0
H1001 H 0.201 0.42908 0.37901 0.0
H1002 H 0.11538 0.23939 0.32295 0.0
N1003 N 0.13531 0.30754 0.33249 0.0
C1004 C 0.12244 0.31309 0.33305 0.0
C1005 C 0.0976 0.28181 0.33094 0.0
C1006 C 0.11088 0.27637 0.32961 0.0
C1007 C 0.10342 0.3003 0.33248 0.0
C1008 C 0.12988 0.28976 0.33034 0.0
H1009 H 0.14921 0.24939 0.32002 0.0
N1010 N 0.16147 0.29855 0.32846 0.0
C1011 C 0.17096 0.27732 0.32204 0.0
C1012 C 0.1434 0.28512 0.32823 0.0
C1013 C 0.17522 0.29509 0.32499 0.0
C1014 C 0.15248 0.26315 0.32234 0.0
C1015 C 0.13839 0.26699 0.32529 0.0
O1016 O 0.18205 0.33404 0.31658 0.0
O1017 O 0.19022 0.35113 0.34474 0.0
O1018 O 0.17943 0.37014 0.35188 0.0
O1019 O 0.15927 0.34978 0.33719 0.0
O1020 O 0.19872 0.33841 0.33245 0.0
O1021 O 0.15838 0.33788 0.31872 0.0
O1022 O 0.16847 0.34408 0.38192 0.0
O1023 O 0.16053 0.32769 0.35383 0.0
O1024 O 0.1712 0.30866 0.34681 0.0
O1025 O 0.19165 0.32915 0.3613 0.0
O1026 O 0.1521 0.34051 0.36609 0.0
O1027 O 0.1928 0.34133 0.37989 0.0
C1028 C 0.20441 0.35169 0.34013 0.0
C1029 C 0.164 0.33042 0.29894 0.0
C1030 C 0.1652 0.33364 0.2766 0.0
C1031 C 0.17145 0.34123 0.28836 0.0
C1032 C 0.15128 0.31513 0.27572 0.0
C1033 C 0.15023 0.31204 0.29774 0.0
C1034 C 0.14391 0.30447 0.28619 0.0
C1035 C 0.16758 0.36598 0.34266 0.0
C1036 C 0.17074 0.33834 0.31117 0.0
C1037 C 0.11951 0.25343 0.32507 0.0
C1038 C 0.10578 0.25811 0.32725 0.0
C1039 C 0.14637 0.32725 0.35839 0.0
C1040 C 0.18654 0.34836 0.39963 0.0
C1041 C 0.17937 0.3375 0.41022 0.0
C1042 C 0.18503 0.34534 0.42196 0.0
C1043 C 0.19812 0.36411 0.42285 0.0
C1044 C 0.19957 0.367 0.40083 0.0
C1045 C 0.20532 0.37478 0.41238 0.0
C1046 C 0.18315 0.31285 0.35596 0.0
C1047 C 0.18014 0.34032 0.38738 0.0
H1048 H 0.18223 0.3554 0.28929 0.0
H1049 H 0.14583 0.30888 0.26692 0.0
H1050 H 0.14432 0.30354 0.30572 0.0
H1051 H 0.1332 0.29028 0.28535 0.0
H1052 H 0.1692 0.32312 0.40931 0.0
H1053 H 0.20298 0.37053 0.43169 0.0
H1054 H 0.20528 0.37553 0.39285 0.0
H1055 H 0.21541 0.38918 0.41322 0.0
Eu1056 Eu 0.68813 0.84359 0.33489 0.0
C1057 C 0.61841 0.81578 0.36833 0.0
C1058 C 0.60954 0.83896 0.36634 0.0
C1059 C 0.58594 0.80744 0.37034 0.0
C1060 C 0.62324 0.83373 0.3662 0.0
C1061 C 0.59977 0.8025 0.37072 0.0
C1062 C 0.59082 0.82564 0.36812 0.0
C1063 C 0.61011 0.78082 0.3747 0.0
N1064 N 0.63211 0.8115 0.36873 0.0
C1065 C 0.62839 0.79449 0.37229 0.0
C1066 C 0.5957 0.78477 0.37376 0.0
Eu1067 Eu 0.66257 0.83506 0.36399 0.0
N1068 N 0.64148 0.84626 0.36462 0.0
C1069 C 0.64712 0.86445 0.36406 0.0
C1070 C 0.61514 0.85747 0.365 0.0
C1071 C 0.63404 0.8703 0.36405 0.0
H1072 H 0.6395 0.79137 0.37292 0.0
H1073 H 0.63856 0.88469 0.36325 0.0
H1074 H 0.58007 0.82936 0.36813 0.0
H1075 H 0.60716 0.76725 0.37725 0.0
H1076 H 0.66166 0.87452 0.36324 0.0
H1077 H 0.71271 0.79445 0.33459 0.0
H1078 H 0.60504 0.86203 0.365 0.0
H1079 H 0.71076 0.88752 0.32635 0.0
H1080 H 0.68948 0.80441 0.33547 0.0
H1081 H 0.74289 0.91184 0.32179 0.0
H1082 H 0.57151 0.7974 0.37202 0.0
H1083 H 0.74606 0.81727 0.3321 0.0
H1084 H 0.77075 0.85001 0.32903 0.0
H1085 H 0.58155 0.77417 0.37566 0.0
H1086 H 0.77899 0.88197 0.32557 0.0
N1087 N 0.70944 0.8327 0.33391 0.0
C1088 C 0.70395 0.81455 0.33441 0.0
C1089 C 0.73591 0.82174 0.33256 0.0
C1090 C 0.74134 0.84023 0.33145 0.0
C1091 C 0.7171 0.80882 0.33391 0.0
C1092 C 0.72757 0.84534 0.33206 0.0
H1093 H 0.76866 0.9051 0.32267 0.0
N1094 N 0.71842 0.86744 0.33007 0.0
C1095 C 0.7401 0.89826 0.32417 0.0
C1096 C 0.73222 0.86328 0.33011 0.0
C1097 C 0.72193 0.88447 0.32673 0.0
C1098 C 0.75461 0.89441 0.32471 0.0
C1099 C 0.75074 0.87668 0.32751 0.0
O1100 O 0.68315 0.85187 0.31698 0.0
O1101 O 0.6637 0.84225 0.34431 0.0
O1102 O 0.64386 0.81251 0.35084 0.0
O1103 O 0.6659 0.81338 0.33727 0.0
O1104 O 0.67776 0.86372 0.33241 0.0
O1105 O 0.67959 0.8249 0.31934 0.0
O1106 O 0.66709 0.82663 0.38198 0.0
O1107 O 0.6869 0.8363 0.35455 0.0
O1108 O 0.70696 0.86599 0.3481 0.0
O1109 O 0.68494 0.86521 0.36164 0.0
O1110 O 0.67306 0.815 0.36659 0.0
O1111 O 0.67112 0.85377 0.37952 0.0
C1112 C 0.66358 0.8558 0.33954 0.0
C1113 C 0.6886 0.83841 0.2998 0.0
C1114 C 0.68669 0.83596 0.27749 0.0
C1115 C 0.67816 0.83425 0.28892 0.0
C1116 C 0.70588 0.84203 0.2772 0.0
C1117 C 0.70764 0.8443 0.29925 0.0
C1118 C 0.71621 0.84612 0.288 0.0
C1119 C 0.64887 0.80522 0.34197 0.0
C1120 C 0.67952 0.83667 0.31164 0.0
C1121 C 0.76465 0.87184 0.32744 0.0
C1122 C 0.75996 0.85364 0.32941 0.0
C1123 C 0.68712 0.82282 0.35936 0.0
C1124 C 0.6615 0.84026 0.39901 0.0
C1125 C 0.67139 0.8433 0.41005 0.0
C1126 C 0.66252 0.84146 0.42136 0.0
C1127 C 0.64365 0.83666 0.42138 0.0
C1128 C 0.64273 0.8355 0.39929 0.0
C1129 C 0.63388 0.83373 0.41043 0.0
C1130 C 0.70196 0.87334 0.35694 0.0
C1131 C 0.67082 0.8419 0.38729 0.0
H1132 H 0.66339 0.82948 0.2894 0.0
H1133 H 0.71302 0.84388 0.26861 0.0
H1134 H 0.71587 0.84753 0.3075 0.0
H1135 H 0.73095 0.85079 0.28764 0.0
H1136 H 0.68586 0.84681 0.40981 0.0
H1137 H 0.63648 0.83541 0.42988 0.0
H1138 H 0.63493 0.83318 0.39092 0.0
H1139 H 0.6194 0.8301 0.41058 0.0
Eu1140 Eu 0.18322 0.83535 0.36406 0.0
C1141 C 0.14266 0.86222 0.32839 0.0
C1142 C 0.11018 0.83883 0.32938 0.0
C1143 C 0.11865 0.87023 0.32491 0.0
C1144 C 0.1292 0.84424 0.33039 0.0
C1145 C 0.13756 0.87536 0.32537 0.0
C1146 C 0.10498 0.85198 0.3269 0.0
C1147 C 0.17014 0.89727 0.32244 0.0
N1148 N 0.16076 0.86666 0.32873 0.0
C1149 C 0.17448 0.88372 0.3254 0.0
C1150 C 0.15161 0.89314 0.32257 0.0
Eu1151 Eu 0.16717 0.84327 0.33426 0.0
N1152 N 0.13471 0.83187 0.33268 0.0
C1153 C 0.12191 0.81366 0.33328 0.0
C1154 C 0.09699 0.82028 0.33052 0.0
C1155 C 0.1029 0.80763 0.33238 0.0
H1156 H 0.18883 0.88699 0.32535 0.0
H1157 H 0.09281 0.79322 0.33309 0.0
H1158 H 0.09043 0.84811 0.32623 0.0
H1159 H 0.18108 0.91088 0.32008 0.0
H1160 H 0.12622 0.8037 0.33471 0.0
H1161 H 0.25763 0.8854 0.36456 0.0
H1162 H 0.08227 0.81555 0.32965 0.0
H1163 H 0.16182 0.79172 0.37319 0.0
H1164 H 0.22416 0.875 0.36381 0.0
H1165 H 0.16971 0.7678 0.37809 0.0
H1166 H 0.11445 0.88015 0.32272 0.0
H1167 H 0.26827 0.86295 0.36697 0.0
H1168 H 0.26013 0.83037 0.37044 0.0
H1169 H 0.14826 0.90363 0.32022 0.0
H1170 H 0.23621 0.79837 0.37422 0.0
N1171 N 0.21572 0.8468 0.36547 0.0
C1172 C 0.22851 0.86501 0.36493 0.0
C1173 C 0.25351 0.85828 0.36666 0.0
C1174 C 0.24033 0.83975 0.36797 0.0
C1175 C 0.24756 0.87099 0.36533 0.0
C1176 C 0.22129 0.83439 0.36742 0.0
H1177 H 0.20248 0.77497 0.3773 0.0
N1178 N 0.18978 0.81201 0.36946 0.0
C1179 C 0.18057 0.7814 0.37564 0.0
C1180 C 0.20788 0.81642 0.3695 0.0
C1181 C 0.17616 0.79497 0.3729 0.0
C1182 C 0.19908 0.78549 0.37516 0.0
C1183 C 0.21305 0.80325 0.37223 0.0
O1184 O 0.16935 0.82701 0.3818 0.0
O1185 O 0.16032 0.83631 0.35393 0.0
O1186 O 0.17068 0.86584 0.34707 0.0
O1187 O 0.19154 0.86536 0.36121 0.0
O1188 O 0.15236 0.81501 0.36602 0.0
O1189 O 0.19283 0.8542 0.37956 0.0
O1190 O 0.18109 0.8515 0.31653 0.0
O1191 O 0.19 0.84233 0.34442 0.0
O1192 O 0.17968 0.81278 0.35126 0.0
O1193 O 0.15876 0.81324 0.33717 0.0
O1194 O 0.19806 0.86357 0.33229 0.0
O1195 O 0.15768 0.82429 0.31883 0.0
C1196 C 0.14633 0.82272 0.35856 0.0
C1197 C 0.18787 0.84101 0.39925 0.0
C1198 C 0.18678 0.84218 0.4216 0.0
C1199 C 0.18024 0.84377 0.40998 0.0
C1200 C 0.20117 0.83796 0.42222 0.0
C1201 C 0.20214 0.83678 0.40016 0.0
C1202 C 0.20875 0.83529 0.41158 0.0
C1203 C 0.1829 0.87334 0.35609 0.0
C1204 C 0.18074 0.84238 0.38717 0.0
C1205 C 0.23196 0.80833 0.37227 0.0
C1206 C 0.24557 0.82655 0.37012 0.0
C1207 C 0.20402 0.85586 0.33978 0.0
C1208 C 0.16281 0.83722 0.29903 0.0
C1209 C 0.16961 0.83301 0.28846 0.0
C1210 C 0.16288 0.83398 0.27676 0.0
C1211 C 0.1494 0.83943 0.2759 0.0
C1212 C 0.14934 0.8425 0.29788 0.0
C1213 C 0.14273 0.84363 0.28637 0.0
C1214 C 0.1674 0.80525 0.34229 0.0
C1215 C 0.16982 0.83605 0.3112 0.0
H1216 H 0.16908 0.84686 0.40927 0.0
H1217 H 0.20677 0.83692 0.43094 0.0
H1218 H 0.20819 0.83465 0.39204 0.0
H1219 H 0.21983 0.83209 0.41221 0.0
H1220 H 0.1799 0.82876 0.28938 0.0
H1221 H 0.14416 0.84069 0.2671 0.0
H1222 H 0.14395 0.84576 0.30587 0.0
H1223 H 0.13239 0.84781 0.28556 0.0
Eu1224 Eu 0.83361 0.66092 0.66718 0.0
C1225 C 0.87352 0.72611 0.70361 0.0
C1226 C 0.90599 0.73463 0.70235 0.0
C1227 C 0.89756 0.75769 0.70694 0.0
C1228 C 0.88696 0.72135 0.70154 0.0
C1229 C 0.87865 0.74424 0.70662 0.0
C1230 C 0.91121 0.75289 0.70479 0.0
C1231 C 0.84609 0.73413 0.70975 0.0
N1232 N 0.85541 0.71278 0.70331 0.0
C1233 C 0.84172 0.71633 0.70675 0.0
C1234 C 0.86462 0.7482 0.70953 0.0
Eu1235 Eu 0.84897 0.68321 0.69752 0.0
N1236 N 0.88143 0.70356 0.69929 0.0
C1237 C 0.89421 0.6979 0.69867 0.0
C1238 C 0.91918 0.72907 0.70099 0.0
C1239 C 0.91325 0.71058 0.69933 0.0
H1240 H 0.82737 0.70549 0.70683 0.0
H1241 H 0.92333 0.70608 0.6985 0.0
H1242 H 0.92576 0.76332 0.70533 0.0
H1243 H 0.83518 0.73698 0.7122 0.0
H1244 H 0.88986 0.68369 0.69731 0.0
H1245 H 0.75918 0.6378 0.66643 0.0
H1246 H 0.93394 0.73886 0.7015 0.0
H1247 H 0.85524 0.63893 0.65742 0.0
H1248 H 0.79261 0.66026 0.66758 0.0
H1249 H 0.84753 0.6076 0.65169 0.0
H1250 H 0.90178 0.77174 0.70911 0.0
H1251 H 0.74865 0.60508 0.66327 0.0
H1252 H 0.75693 0.58075 0.65916 0.0
H1253 H 0.86798 0.76197 0.71189 0.0
H1254 H 0.78098 0.57252 0.65506 0.0
N1255 N 0.80114 0.64048 0.66545 0.0
C1256 C 0.78832 0.64608 0.66616 0.0
C1257 C 0.7634 0.61489 0.66377 0.0
C1258 C 0.77664 0.60941 0.66229 0.0
C1259 C 0.76929 0.63336 0.66552 0.0
C1260 C 0.79565 0.62273 0.66311 0.0
H1261 H 0.81478 0.5825 0.65202 0.0
N1262 N 0.8272 0.63147 0.66113 0.0
C1263 C 0.8366 0.61034 0.6543 0.0
C1264 C 0.80912 0.61808 0.66086 0.0
C1265 C 0.84091 0.62805 0.65751 0.0
C1266 C 0.8181 0.5962 0.65453 0.0
C1267 C 0.80405 0.60002 0.65766 0.0
O1268 O 0.84756 0.66679 0.64943 0.0
O1269 O 0.85616 0.68369 0.67787 0.0
O1270 O 0.84573 0.70284 0.68499 0.0
O1271 O 0.82514 0.68256 0.67046 0.0
O1272 O 0.86457 0.67118 0.66536 0.0
O1273 O 0.82459 0.67158 0.65202 0.0
O1274 O 0.83464 0.67716 0.71512 0.0
O1275 O 0.82645 0.66035 0.68686 0.0
O1276 O 0.83708 0.64129 0.67959 0.0
O1277 O 0.85723 0.66139 0.69439 0.0
O1278 O 0.81802 0.67298 0.69927 0.0
O1279 O 0.85829 0.67329 0.71296 0.0
C1280 C 0.87031 0.68426 0.67321 0.0
C1281 C 0.8292 0.66388 0.63208 0.0
C1282 C 0.82848 0.66747 0.60986 0.0
C1283 C 0.8359 0.67483 0.62149 0.0
C1284 C 0.81454 0.64897 0.60906 0.0
C1285 C 0.81528 0.64553 0.63097 0.0
C1286 C 0.80806 0.63813 0.61953 0.0
C1287 C 0.83376 0.6988 0.67586 0.0
C1288 C 0.83653 0.67165 0.64427 0.0
C1289 C 0.78516 0.58652 0.65737 0.0
C1290 C 0.77147 0.5912 0.6597 0.0
C1291 C 0.81229 0.6598 0.6915 0.0
C1292 C 0.8527 0.68075 0.73275 0.0
C1293 C 0.84623 0.66966 0.74329 0.0
C1294 C 0.85275 0.6772 0.75502 0.0
C1295 C 0.86563 0.69603 0.75594 0.0
C1296 C 0.86561 0.6994 0.73399 0.0
C1297 C 0.87198 0.70697 0.74552 0.0
C1298 C 0.84882 0.64524 0.68885 0.0
C1299 C 0.84593 0.67283 0.72051 0.0
H1300 H 0.84657 0.68906 0.62233 0.0
H1301 H 0.80874 0.64278 0.6003 0.0
H1302 H 0.80996 0.63693 0.63895 0.0
H1303 H 0.79735 0.62392 0.61876 0.0
H1304 H 0.83637 0.6552 0.74232 0.0
H1305 H 0.87068 0.70241 0.76477 0.0
H1306 H 0.87076 0.70811 0.72604 0.0
H1307 H 0.88188 0.72142 0.74639 0.0
Eu1308 Eu 0.35447 0.1759 0.66882 0.0
C1309 C 0.28459 0.14935 0.70219 0.0
C1310 C 0.27612 0.17278 0.7 0.0
C1311 C 0.25225 0.14143 0.70419 0.0
C1312 C 0.28965 0.16733 0.69993 0.0
C1313 C 0.26591 0.13626 0.70464 0.0
C1314 C 0.25734 0.15966 0.70186 0.0
C1315 C 0.27587 0.11434 0.70878 0.0
N1316 N 0.29814 0.14486 0.70264 0.0
C1317 C 0.29421 0.12783 0.7063 0.0
C1318 C 0.26161 0.11851 0.70778 0.0
Eu1319 Eu 0.32871 0.16809 0.69781 0.0
N1320 N 0.30792 0.17966 0.69828 0.0
C1321 C 0.31377 0.19788 0.69757 0.0
C1322 C 0.28193 0.19132 0.69852 0.0
C1323 C 0.30088 0.20395 0.69749 0.0
H1324 H 0.30519 0.12453 0.70699 0.0
H1325 H 0.30556 0.21837 0.69658 0.0
H1326 H 0.24673 0.16355 0.70181 0.0
H1327 H 0.27275 0.10075 0.71141 0.0
H1328 H 0.32834 0.20781 0.6967 0.0
H1329 H 0.3776 0.1256 0.66988 0.0
H1330 H 0.27197 0.19605 0.69845 0.0
H1331 H 0.37806 0.21951 0.65973 0.0
H1332 H 0.3548 0.13616 0.66971 0.0
H1333 H 0.41057 0.24334 0.65551 0.0
H1334 H 0.23778 0.13154 0.70592 0.0
H1335 H 0.41122 0.14796 0.66831 0.0
H1336 H 0.43652 0.18052 0.66525 0.0
H1337 H 0.24742 0.10806 0.70973 0.0
H1338 H 0.44551 0.21257 0.66125 0.0
N1339 N 0.37526 0.16433 0.66836 0.0
C1340 C 0.36939 0.1461 0.66895 0.0
C1341 C 0.40126 0.15269 0.66821 0.0
C1342 C 0.40709 0.17125 0.66684 0.0
C1343 C 0.38229 0.14003 0.66907 0.0
C1344 C 0.39356 0.17669 0.66685 0.0
H1345 H 0.43589 0.23606 0.65737 0.0
N1346 N 0.38509 0.19918 0.66414 0.0
C1347 C 0.40742 0.22973 0.65813 0.0
C1348 C 0.39864 0.1947 0.66467 0.0
C1349 C 0.38905 0.21623 0.66048 0.0
C1350 C 0.42168 0.22558 0.65922 0.0
C1351 C 0.41735 0.20781 0.66234 0.0
O1352 O 0.35016 0.18425 0.65074 0.0
O1353 O 0.33018 0.17502 0.67807 0.0
O1354 O 0.30989 0.14543 0.68476 0.0
O1355 O 0.33183 0.14587 0.67128 0.0
O1356 O 0.34431 0.19616 0.66595 0.0
O1357 O 0.34578 0.15701 0.65338 0.0
O1358 O 0.33314 0.15983 0.71589 0.0
O1359 O 0.35293 0.16887 0.68854 0.0
O1360 O 0.37328 0.1985 0.68191 0.0
O1361 O 0.35127 0.19812 0.69529 0.0
O1362 O 0.33876 0.14774 0.70065 0.0
O1363 O 0.33764 0.1871 0.71319 0.0
C1364 C 0.33015 0.1885 0.67312 0.0
C1365 C 0.35539 0.1702 0.6338 0.0
C1366 C 0.35375 0.16731 0.61151 0.0
C1367 C 0.34513 0.16605 0.62285 0.0
C1368 C 0.37284 0.17293 0.6114 0.0
C1369 C 0.37434 0.17566 0.63343 0.0
C1370 C 0.38299 0.17703 0.62228 0.0
C1371 C 0.3148 0.13793 0.67598 0.0
C1372 C 0.3462 0.16886 0.64554 0.0
C1373 C 0.43102 0.20265 0.66288 0.0
C1374 C 0.4259 0.1844 0.66515 0.0
C1375 C 0.3529 0.15535 0.69347 0.0
C1376 C 0.32828 0.17414 0.73284 0.0
C1377 C 0.33864 0.178 0.74373 0.0
C1378 C 0.33029 0.17697 0.75513 0.0
C1379 C 0.31134 0.1719 0.75537 0.0
C1380 C 0.30948 0.1692 0.73333 0.0
C1381 C 0.30107 0.16808 0.74456 0.0
C1382 C 0.36832 0.20604 0.69065 0.0
C1383 C 0.33725 0.1753 0.72105 0.0
H1384 H 0.33043 0.16163 0.62319 0.0
H1385 H 0.38004 0.17441 0.60288 0.0
H1386 H 0.38243 0.17887 0.64175 0.0
H1387 H 0.39766 0.18136 0.62205 0.0
H1388 H 0.35324 0.18202 0.74329 0.0
H1389 H 0.30434 0.17064 0.76395 0.0
H1390 H 0.30131 0.16621 0.72506 0.0
H1391 H 0.28651 0.16417 0.74488 0.0
Eu1392 Eu 0.84949 0.16858 0.69713 0.0
C1393 C 0.80841 0.19524 0.66189 0.0
C1394 C 0.77601 0.17188 0.66353 0.0
C1395 C 0.78427 0.20324 0.65911 0.0
C1396 C 0.79506 0.17728 0.66404 0.0
C1397 C 0.80319 0.20837 0.65913 0.0
C1398 C 0.7707 0.18502 0.66133 0.0
C1399 C 0.83564 0.23026 0.65567 0.0
N1400 N 0.82653 0.1997 0.66192 0.0
C1401 C 0.84011 0.21674 0.65844 0.0
C1402 C 0.81711 0.22612 0.65616 0.0
Eu1403 Eu 0.8332 0.17646 0.66735 0.0
N1404 N 0.80068 0.16492 0.66604 0.0
C1405 C 0.78793 0.14671 0.66667 0.0
C1406 C 0.76287 0.15335 0.66492 0.0
C1407 C 0.76887 0.14068 0.66631 0.0
H1408 H 0.85446 0.22002 0.65816 0.0
H1409 H 0.75883 0.12628 0.66717 0.0
H1410 H 0.75614 0.18116 0.66102 0.0
H1411 H 0.84648 0.24386 0.65319 0.0
H1412 H 0.79231 0.13675 0.66782 0.0
H1413 H 0.92388 0.21867 0.69754 0.0
H1414 H 0.7481 0.14865 0.66465 0.0
H1415 H 0.82813 0.12496 0.70624 0.0
H1416 H 0.8904 0.20824 0.69683 0.0
H1417 H 0.83605 0.10106 0.71116 0.0
H1418 H 0.77998 0.21316 0.65713 0.0
H1419 H 0.93455 0.19624 0.69994 0.0
H1420 H 0.92644 0.16367 0.70342 0.0
H1421 H 0.81368 0.2366 0.65398 0.0
H1422 H 0.90255 0.13166 0.70722 0.0
N1423 N 0.88199 0.18005 0.6985 0.0
C1424 C 0.89477 0.19826 0.69794 0.0
C1425 C 0.91978 0.19156 0.69965 0.0
C1426 C 0.90662 0.17302 0.70097 0.0
C1427 C 0.91382 0.20426 0.69833 0.0
C1428 C 0.88757 0.16765 0.70044 0.0
H1429 H 0.86883 0.10825 0.71034 0.0
N1430 N 0.85608 0.14525 0.70249 0.0
C1431 C 0.84691 0.11466 0.70869 0.0
C1432 C 0.87418 0.14968 0.70252 0.0
C1433 C 0.84247 0.12821 0.70594 0.0
C1434 C 0.86542 0.11876 0.70819 0.0
C1435 C 0.87937 0.13652 0.70525 0.0
O1436 O 0.83562 0.16028 0.71487 0.0
O1437 O 0.82658 0.1695 0.68703 0.0
O1438 O 0.83688 0.1991 0.68016 0.0
O1439 O 0.85775 0.19859 0.6943 0.0
O1440 O 0.81862 0.14826 0.69917 0.0
O1441 O 0.85916 0.18744 0.71263 0.0
O1442 O 0.84696 0.18473 0.64958 0.0
O1443 O 0.85611 0.17562 0.67747 0.0
O1444 O 0.84593 0.14603 0.68428 0.0
O1445 O 0.82494 0.14647 0.67023 0.0
O1446 O 0.86406 0.1968 0.66529 0.0
O1447 O 0.82367 0.15745 0.65194 0.0
C1448 C 0.8126 0.15597 0.69171 0.0
C1449 C 0.85406 0.17428 0.73235 0.0
C1450 C 0.85399 0.17701 0.75466 0.0
C1451 C 0.84727 0.17825 0.74302 0.0
C1452 C 0.86745 0.17153 0.75535 0.0
C1453 C 0.86753 0.16897 0.73334 0.0
C1454 C 0.87414 0.16758 0.74478 0.0
C1455 C 0.84909 0.20657 0.68918 0.0
C1456 C 0.84701 0.17565 0.72024 0.0
C1457 C 0.89828 0.14161 0.70527 0.0
C1458 C 0.91188 0.15984 0.70311 0.0
C1459 C 0.87009 0.18916 0.6728 0.0
C1460 C 0.82857 0.17031 0.63214 0.0
C1461 C 0.83559 0.16646 0.62153 0.0
C1462 C 0.82872 0.16731 0.60985 0.0
C1463 C 0.81487 0.17226 0.60905 0.0
C1464 C 0.81475 0.17514 0.63105 0.0
C1465 C 0.80798 0.17612 0.61957 0.0
C1466 C 0.83371 0.13855 0.67527 0.0
C1467 C 0.83571 0.16924 0.64428 0.0
H1468 H 0.83698 0.18253 0.74222 0.0
H1469 H 0.87268 0.17004 0.7641 0.0
H1470 H 0.87291 0.16589 0.72527 0.0
H1471 H 0.88447 0.16337 0.74547 0.0
H1472 H 0.84616 0.16257 0.6224 0.0
H1473 H 0.8095 0.17341 0.60027 0.0
H1474 H 0.80919 0.17813 0.63908 0.0
H1475 H 0.79736 0.17994 0.6188 0.0
H1476 H 0.34009 0.84125 0.0633 0.0
H1477 H 0.36862 0.86621 0.05456 0.0
H1478 H 0.34587 0.90208 0.05745 0.0
H1479 H 0.31728 0.8772 0.06615 0.0
H1480 H 0.37414 0.88656 0.03357 0.0
H1481 H 0.39603 0.93167 0.07421 0.0
H1482 H 0.37805 0.90796 0.07485 0.0
H1483 H 0.37291 0.92491 0.0691 0.0
C1484 C 0.34109 0.85442 0.06205 0.0
C1485 C 0.32632 0.85716 0.06551 0.0
C1486 C 0.35748 0.86872 0.05707 0.0
C1487 C 0.35957 0.88615 0.05549 0.0
C1488 C 0.34482 0.88891 0.05883 0.0
H1489 H 0.44629 0.99169 0.02981 0.0
H1490 H 0.41699 0.96497 0.03603 0.0
C1491 C 0.32844 0.87463 0.06383 0.0
C1492 C 0.37706 0.90136 0.05019 0.0
H1493 H 0.4126 0.94466 0.05589 0.0
C1494 C 0.38261 0.89924 0.03847 0.0
C1495 C 0.38819 0.9179 0.05657 0.0
C1496 C 0.38363 0.92074 0.06942 0.0
C1497 C 0.39864 0.91336 0.03285 0.0
C1498 C 0.40962 0.93002 0.03918 0.0
C1499 C 0.40415 0.932 0.05095 0.0
C1500 C 0.42675 0.9457 0.03385 0.0
C1501 C 0.40331 0.91051 0.02005 0.0
C1502 C 0.442 0.94385 0.03028 0.0
C1503 C 0.45874 0.95915 0.02658 0.0
C1504 C 0.46057 0.97662 0.02643 0.0
C1505 C 0.44519 0.97837 0.02971 0.0
C1506 C 0.42847 0.9631 0.03331 0.0
H1507 H 0.3911 0.89925 0.01532 0.0
H1508 H 0.40841 0.92315 0.01458 0.0
H1509 H 0.41445 0.90689 0.0204 0.0
H1510 H 0.44128 0.93072 0.03087 0.0
H1511 H 0.47047 0.95741 0.02441 0.0
H1512 H 0.14005 0.46018 0.08044 0.0
H1513 H 0.11529 0.46491 0.07221 0.0
H1514 H 0.14528 0.48418 0.03837 0.0
H1515 H 0.17013 0.47967 0.04653 0.0
H1516 H 0.11609 0.49623 0.06361 0.0
H1517 H 0.09411 0.44457 0.02668 0.0
H1518 H 0.10913 0.44581 0.03906 0.0
H1519 H 0.1184 0.46145 0.02644 0.0
C1520 C 0.14148 0.46555 0.07127 0.0
C1521 C 0.15711 0.46937 0.06414 0.0
C1522 C 0.12723 0.46817 0.06655 0.0
C1523 C 0.1282 0.4746 0.05457 0.0
C1524 C 0.14393 0.47877 0.04752 0.0
H1525 H 0.05672 0.51612 0.02634 0.0
H1526 H 0.08369 0.5133 0.03237 0.0
C1527 C 0.15816 0.47615 0.05222 0.0
C1528 C 0.11287 0.47713 0.04952 0.0
H1529 H 0.08039 0.46335 0.02663 0.0
C1530 C 0.1083 0.48904 0.05552 0.0
C1531 C 0.10255 0.46765 0.03902 0.0
C1532 C 0.10613 0.45402 0.03247 0.0
C1533 C 0.09382 0.49178 0.0513 0.0
C1534 C 0.08372 0.48255 0.04067 0.0
C1535 C 0.08824 0.47059 0.03469 0.0
C1536 C 0.0677 0.48427 0.03605 0.0
C1537 C 0.08912 0.50416 0.05847 0.0
C1538 C 0.04981 0.46882 0.03566 0.0
C1539 C 0.03445 0.47039 0.03207 0.0
C1540 C 0.03666 0.48737 0.02858 0.0
C1541 C 0.05461 0.50279 0.02874 0.0
C1542 C 0.07001 0.50123 0.03234 0.0
H1543 H 0.09519 0.50683 0.06781 0.0
H1544 H 0.0948 0.51747 0.05368 0.0
H1545 H 0.07382 0.49816 0.05922 0.0
H1546 H 0.04764 0.45559 0.03845 0.0
H1547 H 0.02075 0.45832 0.03216 0.0
H1548 H 0.55635 0.70395 0.05787 0.0
H1549 H 0.54861 0.6764 0.04607 0.0
H1550 H 0.53208 0.64449 0.07916 0.0
H1551 H 0.53915 0.67172 0.09093 0.0
H1552 H 0.56364 0.65395 0.04799 0.0
H1553 H 0.48794 0.61437 0.05687 0.0
H1554 H 0.50176 0.63852 0.06002 0.0
H1555 H 0.50148 0.6221 0.07064 0.0
C1556 C 0.55077 0.69101 0.06261 0.0
C1557 C 0.54837 0.69009 0.07537 0.0
C1558 C 0.54647 0.67529 0.05586 0.0
C1559 C 0.53952 0.6583 0.0617 0.0
C1560 C 0.53707 0.65734 0.07441 0.0
H1561 H 0.54218 0.56187 0.03956 0.0
H1562 H 0.54793 0.59098 0.04791 0.0
C1563 C 0.54136 0.67301 0.08115 0.0
C1564 C 0.53554 0.64169 0.05463 0.0
H1565 H 0.50179 0.59759 0.04893 0.0
C1566 C 0.55007 0.64168 0.04809 0.0
C1567 C 0.51776 0.62575 0.0546 0.0
C1568 C 0.50129 0.62519 0.06081 0.0
C1569 C 0.54748 0.62599 0.04193 0.0
C1570 C 0.52998 0.60975 0.04247 0.0
C1571 C 0.51527 0.60996 0.04862 0.0
C1572 C 0.52677 0.59226 0.03704 0.0
C1573 C 0.56353 0.62699 0.03485 0.0
C1574 C 0.51266 0.58299 0.02833 0.0
C1575 C 0.5092 0.56619 0.02359 0.0
C1576 C 0.51975 0.55825 0.02749 0.0
C1577 C 0.53385 0.56757 0.03624 0.0
C1578 C 0.53727 0.58434 0.04099 0.0
H1579 H 0.57374 0.64128 0.03225 0.0
H1580 H 0.57087 0.62178 0.04063 0.0
H1581 H 0.55861 0.61855 0.02644 0.0
H1582 H 0.50425 0.58873 0.02523 0.0
H1583 H 0.49803 0.5593 0.01702 0.0
H1584 H 0.87105 0.33668 0.94076 0.0
H1585 H 0.89263 0.36443 0.95179 0.0
H1586 H 0.87587 0.33497 0.98584 0.0
H1587 H 0.85461 0.3069 0.9748 0.0
H1588 H 0.88667 0.38371 0.96959 0.0
H1589 H 0.93235 0.35821 0.98721 0.0
H1590 H 0.91519 0.34649 0.97542 0.0
H1591 H 0.90824 0.3443 0.99115 0.0
C1592 C 0.87205 0.33599 0.95059 0.0
C1593 C 0.86119 0.31941 0.95685 0.0
C1594 C 0.88433 0.35195 0.9569 0.0
C1595 C 0.88616 0.35179 0.96964 0.0
C1596 C 0.87501 0.3354 0.97599 0.0
H1597 H 0.94422 0.45223 0.01332 0.0
H1598 H 0.92083 0.42303 1.00462 0.0
C1599 C 0.86268 0.31938 0.96967 0.0
C1600 C 0.89974 0.36883 0.97618 0.0
H1601 H 0.93899 0.38746 0.99394 0.0
C1602 C 0.89807 0.3845 0.97495 0.0
C1603 C 0.9148 0.36998 0.98304 0.0
C1604 C 0.91793 0.35392 0.98423 0.0
C1605 C 0.91097 0.40123 0.98038 0.0
C1606 C 0.92584 0.4023 0.98743 0.0
C1607 C 0.92752 0.38663 0.98864 0.0
C1608 C 0.94017 0.41971 0.99321 0.0
C1609 C 0.90886 0.41774 0.97819 0.0
C1610 C 0.959 0.42737 0.99005 0.0
C1611 C 0.9725 0.44399 0.99514 0.0
C1612 C 0.96751 0.45332 1.0036 0.0
C1613 C 0.94867 0.44544 1.00692 0.0
C1614 C 0.93518 0.42879 1.00184 0.0
H1615 H 0.8998 0.41583 0.97018 0.0
H1616 H 0.90239 0.42008 0.98633 0.0
H1617 H 0.92259 0.43016 0.97669 0.0
H1618 H 0.96323 0.42063 0.98345 0.0
H1619 H 0.98684 0.44957 0.99236 0.0
H1620 H 0.67644 0.50852 0.967 0.0
H1621 H 0.64773 0.50523 0.97555 0.0
H1622 H 0.6713 0.56367 0.97455 0.0
H1623 H 0.70012 0.56713 0.96609 0.0
H1624 H 0.64197 0.51893 0.9971 0.0
H1625 H 0.62158 0.54572 0.95728 0.0
H1626 H 0.6393 0.53933 0.95638 0.0
H1627 H 0.64465 0.561 0.96281 0.0
C1628 C 0.67559 0.52072 0.96862 0.0
C1629 C 0.6907 0.53812 0.96579 0.0
C1630 C 0.65909 0.51879 0.97349 0.0
C1631 C 0.65718 0.53416 0.97557 0.0
C1632 C 0.67222 0.55155 0.97279 0.0
H1633 H 0.56964 0.55318 1.00163 0.0
H1634 H 0.59903 0.5556 0.99526 0.0
C1635 C 0.68873 0.5535 0.96792 0.0
C1636 C 0.63962 0.53203 0.98086 0.0
H1637 H 0.60439 0.54105 0.97548 0.0
C1638 C 0.6337 0.52369 0.99236 0.0
C1639 C 0.62875 0.53818 0.97468 0.0
C1640 C 0.63375 0.5464 0.96206 0.0
C1641 C 0.61757 0.52182 0.99797 0.0
C1642 C 0.6068 0.52818 0.99185 0.0
C1643 C 0.61264 0.5363 0.98028 0.0
C1644 C 0.58951 0.52675 0.99718 0.0
C1645 C 0.6126 0.51359 1.01057 0.0
C1646 C 0.57432 0.50978 1.00064 0.0
C1647 C 0.55754 0.50845 1.00447 0.0
C1648 C 0.55557 0.52403 1.00482 0.0
C1649 C 0.57084 0.54099 1.00158 0.0
C1650 C 0.58762 0.54236 0.99789 0.0
H1651 H 0.6248 0.51436 0.01536 0.0
H1652 H 0.60704 0.52064 0.0162 0.0
H1653 H 0.60177 0.49897 1.00984 0.0
H1654 H 0.57512 0.49743 0.9999 0.0
H1655 H 0.54589 0.49511 1.0066 0.0
H1656 H 0.49526 0.17714 0.97816 0.0
H1657 H 0.50008 0.15275 0.98607 0.0
H1658 H 0.45534 0.11366 0.96337 0.0
H1659 H 0.45027 0.13795 0.95547 0.0
H1660 H 0.47516 0.12102 0.99856 0.0
H1661 H 0.49786 0.10413 0.95529 0.0
H1662 H 0.49687 0.12483 0.95722 0.0
H1663 H 0.47595 0.10352 0.95433 0.0
C1664 C 0.48634 0.16335 0.97488 0.0
C1665 C 0.47236 0.15956 0.96615 0.0
C1666 C 0.4892 0.14942 0.97938 0.0
C1667 C 0.47824 0.1314 0.97521 0.0
C1668 C 0.46424 0.12752 0.96653 0.0
H1669 H 0.4747 0.02903 0.99235 0.0
H1670 H 0.46888 0.05284 0.98454 0.0
C1671 C 0.46136 0.14145 0.96202 0.0
C1672 C 0.48123 0.11665 0.98019 0.0
H1673 H 0.49286 0.08457 0.97214 0.0
C1674 C 0.47909 0.11309 0.99279 0.0
C1675 C 0.48632 0.10627 0.97266 0.0
C1676 C 0.48956 0.10993 0.95914 0.0
C1677 C 0.48164 0.09928 0.99804 0.0
C1678 C 0.48681 0.08896 0.99051 0.0
C1679 C 0.48888 0.09247 0.9779 0.0
C1680 C 0.49019 0.07448 0.99553 0.0
C1681 C 0.47838 0.09562 1.01155 0.0
C1682 C 0.50423 0.07872 1.00425 0.0
C1683 C 0.50761 0.06512 1.00876 0.0
C1684 C 0.49704 0.04697 1.00461 0.0
C1685 C 0.48307 0.04281 0.99581 0.0
C1686 C 0.47972 0.05642 0.99131 0.0
H1687 H 0.46975 0.10111 0.01533 0.0
H1688 H 0.4714 0.08075 0.01351 0.0
H1689 H 0.49196 0.10238 0.0164 0.0
H1690 H 0.51281 0.09262 1.00743 0.0
H1691 H 0.51872 0.06893 0.01533 0.0
H1692 H 0.69804 0.13258 0.96465 0.0
H1693 H 0.66919 0.10796 0.97333 0.0
H1694 H 0.64945 0.14581 0.9792 0.0
H1695 H 0.67791 0.17032 0.97016 0.0
H1696 H 0.65451 0.10489 0.99648 0.0
H1697 H 0.6056 0.10432 0.96157 0.0
H1698 H 0.63044 0.11606 0.95926 0.0
H1699 H 0.62011 0.12629 0.9684 0.0
C1700 C 0.68745 0.13564 0.96759 0.0
C1701 C 0.69037 0.15351 0.96663 0.0
C1702 C 0.671 0.12154 0.97266 0.0
C1703 C 0.65698 0.12491 0.97681 0.0
C1704 C 0.65986 0.14273 0.97589 0.0
H1705 H 0.5462 0.05371 1.00769 0.0
H1706 H 0.57582 0.08049 1.00184 0.0
C1707 C 0.67629 0.15682 0.97083 0.0
C1708 C 0.63956 0.1099 0.9823 0.0
H1709 H 0.59219 0.08611 0.97916 0.0
C1710 C 0.64089 0.10077 0.99267 0.0
C1711 C 0.62172 0.10452 0.9774 0.0
C1712 C 0.61932 0.11317 0.96598 0.0
C1713 C 0.62496 0.08657 0.99828 0.0
C1714 C 0.60714 0.08109 0.99332 0.0
C1715 C 0.6058 0.09035 0.98303 0.0
C1716 C 0.58981 0.06518 0.99819 0.0
C1717 C 0.62736 0.0777 1.00958 0.0
C1718 C 0.58778 0.04765 0.99823 0.0
C1719 C 0.57093 0.03239 1.00166 0.0
C1720 C 0.55571 0.03428 1.00516 0.0
C1721 C 0.55779 0.05185 1.00533 0.0
C1722 C 0.57469 0.06715 1.00188 0.0
H1723 H 0.6406 0.08696 0.01439 0.0
H1724 H 0.61566 0.07366 0.01602 0.0
H1725 H 0.62775 0.06524 1.00691 0.0
H1726 H 0.59902 0.04565 0.99516 0.0
H1727 H 0.56961 0.01898 1.00125 0.0
H1728 H 0.85614 0.51459 0.95146 0.0
H1729 H 0.8793 0.50993 0.96218 0.0
H1730 H 0.89564 0.55851 0.98346 0.0
H1731 H 0.87268 0.5635 0.97262 0.0
H1732 H 0.91761 0.53409 0.96224 0.0
H1733 H 0.89003 0.52082 1.00954 0.0
H1734 H 0.876 0.51928 0.99645 0.0
H1735 H 0.89241 0.54121 1.00266 0.0
C1736 C 0.86462 0.52433 0.95842 0.0
C1737 C 0.86252 0.53951 0.96108 0.0
C1738 C 0.87781 0.52156 0.96461 0.0
C1739 C 0.88915 0.53375 0.97373 0.0
C1740 C 0.88684 0.54869 0.97664 0.0
H1741 H 0.99643 0.55258 0.99919 0.0
H1742 H 0.9697 0.55515 0.99223 0.0
C1743 C 0.87365 0.55152 0.97041 0.0
C1744 C 0.90421 0.53149 0.97951 0.0
H1745 H 0.92041 0.52507 1.00684 0.0
C1746 C 0.91815 0.53206 0.97199 0.0
C1747 C 0.9049 0.52871 0.99223 0.0
C1748 C 0.88997 0.52729 1.00071 0.0
C1749 C 0.93288 0.53026 0.97682 0.0
C1750 C 0.93383 0.52792 0.98955 0.0
C1751 C 0.91973 0.527 0.99709 0.0
C1752 C 0.94956 0.52663 0.99506 0.0
C1753 C 0.94737 0.53082 0.96827 0.0
C1754 C 0.94706 0.5098 0.99921 0.0
C1755 C 0.96236 0.50829 1.00314 0.0
C1756 C 0.98036 0.52366 1.00321 0.0
C1757 C 0.9827 0.54056 0.99936 0.0
C1758 C 0.96746 0.54204 0.99538 0.0
H1759 H 0.94294 0.52945 0.95856 0.0
H1760 H 0.96048 0.54405 0.96938 0.0
H1761 H 0.95039 0.51973 0.9705 0.0
H1762 H 0.93339 0.49771 0.99899 0.0
H1763 H 0.96016 0.495 1.00576 0.0
H1764 H 0.44524 0.32539 0.94825 0.0
H1765 H 0.45245 0.35282 0.95986 0.0
H1766 H 0.49489 0.34837 0.97981 0.0
H1767 H 0.48819 0.32118 0.96793 0.0
H1768 H 0.45125 0.35766 0.98496 0.0
H1769 H 0.52294 0.40097 0.96714 0.0
H1770 H 0.50645 0.37955 0.96014 0.0
H1771 H 0.51834 0.37974 0.97393 0.0
C1772 C 0.45626 0.33032 0.95501 0.0
C1773 C 0.46627 0.32114 0.95704 0.0
C1774 C 0.46027 0.34595 0.96171 0.0
C1775 C 0.47441 0.35285 0.97058 0.0
C1776 C 0.48415 0.34351 0.97286 0.0
H1777 H 0.51851 0.45295 0.01444 0.0
H1778 H 0.51191 0.42337 1.00621 0.0
C1779 C 0.48015 0.32784 0.96615 0.0
C1780 C 0.4788 0.36978 0.97739 0.0
H1781 H 0.51281 0.41412 0.98207 0.0
C1782 C 0.46473 0.36999 0.98435 0.0
C1783 C 0.49642 0.38586 0.97665 0.0
C1784 C 0.51189 0.38667 0.96899 0.0
C1785 C 0.46775 0.38582 0.99053 0.0
C1786 C 0.48522 0.40202 0.98955 0.0
C1787 C 0.49943 0.4017 0.98282 0.0
C1788 C 0.48877 0.41963 0.99496 0.0
C1789 C 0.45223 0.385 0.99814 0.0
C1790 C 0.47807 0.42748 0.99132 0.0
C1791 C 0.48172 0.44432 0.99606 0.0
C1792 C 0.49626 0.45379 1.00451 0.0
C1793 C 0.50702 0.44594 1.00811 0.0
C1794 C 0.50334 0.42906 1.00336 0.0
H1795 H 0.44216 0.37077 1.00094 0.0
H1796 H 0.45774 0.39358 1.00646 0.0
H1797 H 0.44455 0.39016 0.99265 0.0
H1798 H 0.46705 0.42071 0.98464 0.0
H1799 H 0.47321 0.44995 0.99299 0.0
H1800 H 0.13031 0.68753 0.08418 0.0
H1801 H 0.10905 0.65973 0.07305 0.0
H1802 H 0.15493 0.66409 0.05207 0.0
H1803 H 0.17645 0.69172 0.06343 0.0
H1804 H 0.10126 0.654 0.04809 0.0
H1805 H 0.13067 0.61178 0.06529 0.0
H1806 H 0.13614 0.6333 0.07217 0.0
H1807 H 0.1471 0.6329 0.05815 0.0
C1808 C 0.13596 0.68252 0.07729 0.0
C1809 C 0.15519 0.69183 0.07483 0.0
C1810 C 0.12374 0.66665 0.07086 0.0
C1811 C 0.13038 0.65959 0.06185 0.0
C1812 C 0.14949 0.66905 0.05914 0.0
H1813 H 0.07262 0.55894 0.01861 0.0
H1814 H 0.09578 0.58851 0.02703 0.0
C1815 C 0.16176 0.68498 0.06556 0.0
C1816 C 0.11721 0.64238 0.05533 0.0
H1817 H 0.10648 0.59813 0.05073 0.0
C1818 C 0.10242 0.64179 0.04866 0.0
C1819 C 0.11872 0.62644 0.05601 0.0
C1820 C 0.1339 0.62598 0.06337 0.0
C1821 C 0.08918 0.62578 0.04265 0.0
C1822 C 0.09047 0.60972 0.04354 0.0
C1823 C 0.10544 0.61039 0.05004 0.0
C1824 C 0.0762 0.59197 0.03808 0.0
C1825 C 0.07408 0.62632 0.03527 0.0
C1826 C 0.05744 0.58389 0.04152 0.0
C1827 C 0.0441 0.56703 0.03663 0.0
C1828 C 0.04921 0.55774 0.02822 0.0
C1829 C 0.06806 0.56579 0.02487 0.0
C1830 C 0.08139 0.58268 0.02975 0.0
H1831 H 0.07821 0.64048 0.03244 0.0
H1832 H 0.0706 0.61767 0.02697 0.0
H1833 H 0.06136 0.6211 0.04093 0.0
H1834 H 0.05311 0.59049 0.04816 0.0
H1835 H 0.02979 0.56125 0.03954 0.0
H1836 H 0.33693 0.49511 0.06935 0.0
H1837 H 0.36493 0.50167 0.05795 0.0
H1838 H 0.3462 0.44408 0.05624 0.0
H1839 H 0.31793 0.43736 0.06718 0.0
H1840 H 0.39227 0.49481 0.06447 0.0
H1841 H 0.36099 0.45849 0.02124 0.0
H1842 H 0.34793 0.46316 0.03237 0.0
H1843 H 0.35136 0.44387 0.03427 0.0
C1844 C 0.33855 0.48379 0.06633 0.0
C1845 C 0.32505 0.46567 0.06923 0.0
C1846 C 0.35467 0.48759 0.05987 0.0
C1847 C 0.35766 0.47338 0.05604 0.0
C1848 C 0.34414 0.4553 0.05882 0.0
H1849 H 0.44707 0.45884 0.03078 0.0
H1850 H 0.41753 0.45633 0.03699 0.0
C1851 C 0.32803 0.45148 0.06526 0.0
C1852 C 0.37534 0.47744 0.04981 0.0
H1853 H 0.39266 0.46628 0.025 0.0
C1854 C 0.39235 0.48878 0.05575 0.0
C1855 C 0.37555 0.46964 0.0384 0.0
C1856 C 0.35799 0.45827 0.03114 0.0
C1857 C 0.40937 0.49185 0.0509 0.0
C1858 C 0.4095 0.48355 0.0397 0.0
C1859 C 0.39257 0.47261 0.03359 0.0
C1860 C 0.4269 0.48506 0.03468 0.0
C1861 C 0.42704 0.50334 0.05805 0.0
C1862 C 0.44189 0.50198 0.03097 0.0
C1863 C 0.45879 0.50341 0.02737 0.0
C1864 C 0.46094 0.48792 0.0273 0.0
C1865 C 0.44575 0.47096 0.03065 0.0
C1866 C 0.42887 0.46951 0.03419 0.0
H1867 H 0.4242 0.50602 0.06751 0.0
H1868 H 0.43553 0.49655 0.0585 0.0
H1869 H 0.43541 0.51668 0.05339 0.0
H1870 H 0.44065 0.51414 0.03113 0.0
H1871 H 0.47033 0.51673 0.02505 0.0
H1872 H 0.56634 0.87395 0.07644 0.0
H1873 H 0.56085 0.89803 0.0686 0.0
H1874 H 0.51582 0.85846 0.04629 0.0
H1875 H 0.52077 0.83426 0.05437 0.0
H1876 H 0.56237 0.9096 0.04462 0.0
H1877 H 0.49175 0.88395 0.06359 0.0
H1878 H 0.50687 0.87561 0.06869 0.0
H1879 H 0.49394 0.86733 0.05468 0.0
C1880 C 0.55508 0.87031 0.07001 0.0
C1881 C 0.54397 0.85211 0.06608 0.0
C1882 C 0.55205 0.88413 0.06546 0.0
C1883 C 0.53776 0.88004 0.05697 0.0
C1884 C 0.52671 0.86192 0.05299 0.0
H1885 H 0.49761 0.9425 0.01684 0.0
H1886 H 0.5037 0.91894 0.02484 0.0
C1887 C 0.52972 0.84812 0.05752 0.0
C1888 C 0.5347 0.89476 0.05202 0.0
H1889 H 0.50211 0.908 0.04906 0.0
C1890 C 0.54924 0.90932 0.04566 0.0
C1891 C 0.51755 0.89437 0.05334 0.0
C1892 C 0.50168 0.87958 0.06054 0.0
C1893 C 0.54695 0.92326 0.04037 0.0
C1894 C 0.52976 0.92281 0.04164 0.0
C1895 C 0.51525 0.9083 0.04804 0.0
C1896 C 0.52655 0.93733 0.03649 0.0
C1897 C 0.56282 0.93811 0.03321 0.0
C1898 C 0.53728 0.95551 0.04042 0.0
C1899 C 0.53392 0.96906 0.0358 0.0
C1900 C 0.51968 0.96471 0.02717 0.0
C1901 C 0.50889 0.94644 0.0233 0.0
C1902 C 0.51227 0.93291 0.02793 0.0
H1903 H 0.57299 0.93394 0.03036 0.0
H1904 H 0.55764 0.94183 0.02494 0.0
H1905 H 0.57026 0.95047 0.03901 0.0
H1906 H 0.5481 0.9592 0.04721 0.0
H1907 H 0.54244 0.98293 0.03908 0.0
H1908 H 0.98554 0.21169 0.40058 0.0
H1909 H 0.01415 0.23638 0.39172 0.0
H1910 H 0.03387 0.19869 0.38515 0.0
H1911 H 1.00541 0.17395 0.39406 0.0
H1912 H 0.05062 0.25001 0.39894 0.0
H1913 H 0.04096 0.2227 0.35178 0.0
H1914 H 0.02236 0.21382 0.36282 0.0
H1915 H 0.03982 0.20717 0.36342 0.0
C1916 C 0.99599 0.20863 0.39733 0.0
C1917 C 0.99302 0.19072 0.39801 0.0
C1918 C 0.01232 0.22278 0.39218 0.0
C1919 C 0.02607 0.21938 0.38752 0.0
C1920 C 0.0233 0.2016 0.38835 0.0
H1921 H 0.13748 0.29116 0.35786 0.0
H1922 H 0.10798 0.26453 0.36418 0.0
C1923 C 1.00698 0.18745 0.39349 0.0
C1924 C 0.04355 0.23459 0.38222 0.0
H1925 H 0.07011 0.24891 0.3563 0.0
C1926 C 0.05481 0.24977 0.3896 0.0
C1927 C 0.04916 0.23429 0.37004 0.0
C1928 C 0.03739 0.21871 0.3615 0.0
C1929 C 0.07151 0.2645 0.38522 0.0
C1930 C 0.07702 0.26432 0.37301 0.0
C1931 C 0.06589 0.24908 0.36564 0.0
C1932 C 0.09416 0.28 0.36779 0.0
C1933 C 0.08332 0.28002 0.39382 0.0
C1934 C 0.096 0.29743 0.36724 0.0
C1935 C 0.11276 0.31258 0.36359 0.0
C1936 C 0.12798 0.31063 0.3602 0.0
C1937 C 0.12591 0.29306 0.36021 0.0
C1938 C 0.10909 0.27785 0.36389 0.0
H1939 H 0.07989 0.27589 0.40353 0.0
H1940 H 0.09835 0.28502 0.39241 0.0
H1941 H 0.08076 0.29151 0.39207 0.0
H1942 H 0.08459 0.2994 0.36996 0.0
H1943 H 0.114 0.32597 0.36371 0.0
H1944 H 0.83673 0.81271 0.37975 0.0
H1945 H 0.81154 0.81664 0.37153 0.0
H1946 H 0.78541 0.80449 0.40689 0.0
H1947 H 0.81092 0.80115 0.41532 0.0
H1948 H 0.77417 0.79253 0.36994 0.0
H1949 H 0.78669 0.85195 0.39825 0.0
H1950 H 0.80335 0.84422 0.39715 0.0
H1951 H 0.78352 0.83264 0.40702 0.0
C1952 C 0.82579 0.81112 0.38586 0.0
C1953 C 0.82606 0.80678 0.39827 0.0
C1954 C 0.81128 0.81324 0.38109 0.0
C1955 C 0.79667 0.81117 0.3886 0.0
C1956 C 0.79669 0.80654 0.40094 0.0
H1957 H 0.688 0.7923 0.36571 0.0
H1958 H 0.71489 0.78967 0.37197 0.0
C1959 C 0.81121 0.80441 0.40573 0.0
C1960 C 0.78129 0.81353 0.38343 0.0
H1961 H 0.75867 0.83779 0.38665 0.0
C1962 C 0.77084 0.80249 0.37357 0.0
C1963 C 0.77706 0.82671 0.38799 0.0
C1964 C 0.78834 0.83969 0.3981 0.0
C1965 C 0.75609 0.80395 0.36836 0.0
C1966 C 0.75139 0.81665 0.37324 0.0
C1967 C 0.76213 0.82798 0.38291 0.0
C1968 C 0.73514 0.81809 0.3687 0.0
C1969 C 0.74584 0.79194 0.3576 0.0
C1970 C 0.73734 0.83501 0.36496 0.0
C1971 C 0.72188 0.83656 0.3615 0.0
C1972 C 0.7039 0.82119 0.3616 0.0
C1973 C 0.70173 0.8043 0.3653 0.0
C1974 C 0.71713 0.80276 0.36882 0.0
H1975 H 0.75479 0.78799 0.35245 0.0
H1976 H 0.73361 0.77922 0.36096 0.0
H1977 H 0.74085 0.79882 0.35126 0.0
H1978 H 0.75102 0.84709 0.36488 0.0
H1979 H 0.72397 0.84987 0.35904 0.0
H1980 H 0.22261 0.03677 0.39111 0.0
H1981 H 0.21596 0.00931 0.37961 0.0
H1982 H 0.19981 0.97789 0.41291 0.0
H1983 H 0.20659 0.00521 0.42448 0.0
H1984 H 0.23143 0.98693 0.38202 0.0
H1985 H 0.1555 0.94759 0.39038 0.0
H1986 H 0.16931 0.97182 0.39327 0.0
H1987 H 0.16902 0.9557 0.40415 0.0
C1988 C 0.2177 0.02404 0.39601 0.0
C1989 C 0.21502 0.02324 0.40874 0.0
C1990 C 0.21383 0.00833 0.3894 0.0
C1991 C 0.20707 0.99146 0.39536 0.0
C1992 C 0.20455 0.99064 0.40806 0.0
H1993 H 0.2093 0.89472 0.37297 0.0
H1994 H 0.2152 0.92377 0.38152 0.0
C1995 C 0.20843 0.00631 0.41467 0.0
C1996 C 0.2032 0.9748 0.38839 0.0
H1997 H 0.16929 0.9309 0.38235 0.0
C1998 C 0.2178 0.97472 0.38201 0.0
C1999 C 0.18536 0.95895 0.3882 0.0
C2000 C 0.16884 0.95851 0.39426 0.0
C2001 C 0.21521 0.95905 0.37581 0.0
C2002 C 0.1976 0.9429 0.37616 0.0
C2003 C 0.18284 0.94319 0.38218 0.0
C2004 C 0.1943 0.92545 0.37061 0.0
C2005 C 0.23135 0.95999 0.36889 0.0
C2006 C 0.18026 0.91641 0.36181 0.0
C2007 C 0.17669 0.89962 0.35696 0.0
C2008 C 0.18707 0.89149 0.36084 0.0
C2009 C 0.2011 0.90059 0.36967 0.0
C2010 C 0.20462 0.91732 0.37453 0.0
H2011 H 0.24171 0.97428 0.36639 0.0
H2012 H 0.23847 0.95462 0.37474 0.0
H2013 H 0.22657 0.95166 0.36042 0.0
H2014 H 0.172 0.92232 0.35873 0.0
H2015 H 0.16559 0.89291 0.35033 0.0
H2016 H 0.53578 0.67157 0.27397 0.0
H2017 H 0.55759 0.6992 0.285 0.0
H2018 H 0.54508 0.66839 0.31848 0.0
H2019 H 0.52367 0.64045 0.30739 0.0
H2020 H 0.55268 0.71722 0.30386 0.0
H2021 H 0.6015 0.69351 0.3177 0.0
H2022 H 0.58339 0.68161 0.3065 0.0
H2023 H 0.57794 0.6788 0.32251 0.0
C2024 C 0.53778 0.67056 0.28366 0.0
C2025 C 0.52807 0.65364 0.28973 0.0
C2026 C 0.55019 0.68646 0.28998 0.0
C2027 C 0.55329 0.6859 0.30255 0.0
C2028 C 0.54326 0.66915 0.30874 0.0
H2029 H 0.61155 0.78526 0.34724 0.0
H2030 H 0.58827 0.75612 0.33845 0.0
C2031 C 0.53082 0.6532 0.3024 0.0
C2032 C 0.567 0.7029 0.30907 0.0
H2033 H 0.60748 0.72201 0.32559 0.0
C2034 C 0.56464 0.71825 0.30864 0.0
C2035 C 0.58278 0.70438 0.31517 0.0
C2036 C 0.58672 0.68877 0.31543 0.0
C2037 C 0.57753 0.73494 0.31411 0.0
C2038 C 0.5931 0.7363 0.32044 0.0
C2039 C 0.59549 0.72097 0.32086 0.0
C2040 C 0.60742 0.75367 0.3263 0.0
C2041 C 0.57462 0.75111 0.31271 0.0
C2042 C 0.62616 0.76179 0.32279 0.0
C2043 C 0.63963 0.77834 0.32798 0.0
C2044 C 0.6347 0.78718 0.33687 0.0
C2045 C 0.61596 0.77885 0.34052 0.0
C2046 C 0.60252 0.76224 0.33537 0.0
H2047 H 0.56516 0.74927 0.30496 0.0
H2048 H 0.56822 0.75268 0.32116 0.0
H2049 H 0.58804 0.76391 0.31124 0.0
H2050 H 0.63035 0.75545 0.31586 0.0
H2051 H 0.65388 0.78427 0.32493 0.0
H2052 H 0.3654 0.90085 0.29774 0.0
H2053 H 0.3366 0.89669 0.30673 0.0
H2054 H 0.31846 0.83997 0.31351 0.0
H2055 H 0.34748 0.84413 0.3049 0.0
H2056 H 0.30045 0.87377 0.2993 0.0
H2057 H 0.31009 0.85643 0.34668 0.0
H2058 H 0.32884 0.86625 0.33576 0.0
H2059 H 0.31186 0.84232 0.33512 0.0
C2060 C 0.35543 0.88753 0.30129 0.0
C2061 C 0.35891 0.87286 0.3006 0.0
C2062 C 0.33888 0.88515 0.30638 0.0
C2063 C 0.32541 0.86809 0.31101 0.0
C2064 C 0.32874 0.85337 0.31025 0.0
H2065 H 0.21322 0.8287 0.3401 0.0
H2066 H 0.24287 0.83137 0.33381 0.0
C2067 C 0.34529 0.85572 0.30515 0.0
C2068 C 0.30764 0.86562 0.31615 0.0
H2069 H 0.28077 0.85348 0.34193 0.0
C2070 C 0.29622 0.86939 0.30864 0.0
C2071 C 0.30196 0.85977 0.32832 0.0
C2072 C 0.31388 0.8561 0.337 0.0
C2073 C 0.27932 0.8674 0.31289 0.0
C2074 C 0.27376 0.86181 0.3251 0.0
C2075 C 0.28504 0.8578 0.33259 0.0
C2076 C 0.25645 0.86042 0.3302 0.0
C2077 C 0.2674 0.87102 0.30417 0.0
C2078 C 0.2544 0.87593 0.33071 0.0
C2079 C 0.23755 0.87443 0.33435 0.0
C2080 C 0.22246 0.85746 0.33779 0.0
C2081 C 0.2247 0.84202 0.33773 0.0
C2082 C 0.24162 0.84353 0.33407 0.0
H2083 H 0.27099 0.87034 0.29449 0.0
H2084 H 0.2524 0.86105 0.30553 0.0
H2085 H 0.26964 0.88492 0.30585 0.0
H2086 H 0.26572 0.88916 0.32799 0.0
H2087 H 0.23618 0.88653 0.33425 0.0
H2088 H 0.12873 0.49312 0.31797 0.0
H2089 H 0.13419 0.46922 0.32605 0.0
H2090 H 0.15148 0.46205 0.2904 0.0
H2091 H 0.14669 0.48643 0.28232 0.0
H2092 H 0.11869 0.43305 0.31984 0.0
H2093 H 0.19486 0.4694 0.31189 0.0
H2094 H 0.1813 0.48067 0.31092 0.0
H2095 H 0.18136 0.46691 0.29843 0.0
C2096 C 0.1339 0.48663 0.31185 0.0
C2097 C 0.13745 0.49188 0.2995 0.0
C2098 C 0.13688 0.47285 0.31648 0.0
C2099 C 0.14355 0.46403 0.30889 0.0
C2100 C 0.14669 0.4689 0.29649 0.0
H2101 H 0.14181 0.36222 0.32543 0.0
H2102 H 0.13581 0.38578 0.31744 0.0
C2103 C 0.14372 0.48271 0.29185 0.0
C2104 C 0.14707 0.44968 0.31398 0.0
H2105 H 0.18099 0.43848 0.31827 0.0
C2106 C 0.13232 0.43425 0.31951 0.0
C2107 C 0.16492 0.45136 0.31373 0.0
C2108 C 0.18157 0.46805 0.30853 0.0
C2109 C 0.13485 0.42036 0.32464 0.0
C2110 C 0.15257 0.42177 0.32403 0.0
C2111 C 0.16738 0.43732 0.31865 0.0
C2112 C 0.15608 0.40735 0.329 0.0
C2113 C 0.11861 0.40451 0.33087 0.0
C2114 C 0.16984 0.41167 0.33795 0.0
C2115 C 0.17347 0.39825 0.34247 0.0
C2116 C 0.16342 0.38017 0.33813 0.0
C2117 C 0.14973 0.37592 0.32909 0.0
C2118 C 0.14617 0.38937 0.32455 0.0
H2119 H 0.10784 0.40796 0.33358 0.0
H2120 H 0.11205 0.39277 0.32447 0.0
H2121 H 0.12319 0.40016 0.33913 0.0
H2122 H 0.17779 0.42548 0.34146 0.0
H2123 H 0.18434 0.40214 0.34924 0.0
H2124 H 0.34449 0.5043 0.30295 0.0
H2125 H 0.31617 0.47978 0.31219 0.0
H2126 H 0.3375 0.44287 0.30826 0.0
H2127 H 0.36614 0.46746 0.29937 0.0
H2128 H 0.29007 0.44657 0.3028 0.0
H2129 H 0.32246 0.43602 0.34406 0.0
H2130 H 0.33461 0.45579 0.33433 0.0
H2131 H 0.33264 0.43435 0.33004 0.0
C2132 C 0.3433 0.49103 0.30418 0.0
C2133 C 0.35776 0.48798 0.30047 0.0
C2134 C 0.32701 0.47698 0.30941 0.0
C2135 C 0.32477 0.45952 0.31116 0.0
C2136 C 0.33901 0.4563 0.30728 0.0
H2137 H 0.23697 0.35355 0.33434 0.0
H2138 H 0.26619 0.38055 0.32826 0.0
C2139 C 0.35532 0.47035 0.30203 0.0
C2140 C 0.30735 0.44459 0.31672 0.0
H2141 H 0.29084 0.41365 0.34016 0.0
C2142 C 0.29024 0.43948 0.31103 0.0
C2143 C 0.3075 0.43533 0.32749 0.0
C2144 C 0.32526 0.44074 0.33442 0.0
C2145 C 0.27341 0.42505 0.31555 0.0
C2146 C 0.2736 0.41561 0.32621 0.0
C2147 C 0.29067 0.42087 0.33201 0.0
C2148 C 0.25634 0.39962 0.33106 0.0
C2149 C 0.25564 0.4196 0.30862 0.0
C2150 C 0.2412 0.40137 0.33502 0.0
C2151 C 0.22447 0.38592 0.3385 0.0
C2152 C 0.22267 0.36847 0.33827 0.0
C2153 C 0.23803 0.36685 0.33471 0.0
C2154 C 0.25473 0.38227 0.33124 0.0
H2155 H 0.25837 0.42546 0.29925 0.0
H2156 H 0.247 0.40451 0.30792 0.0
H2157 H 0.24748 0.42469 0.31356 0.0
H2158 H 0.24219 0.41464 0.33515 0.0
H2159 H 0.2128 0.38759 0.341 0.0
H2160 H 0.52366 0.8485 0.28385 0.0
H2161 H 0.54658 0.84365 0.29474 0.0
H2162 H 0.56153 0.89114 0.31689 0.0
H2163 H 0.5388 0.8963 0.30591 0.0
H2164 H 0.58463 0.86772 0.29556 0.0
H2165 H 0.55545 0.85279 0.34241 0.0
H2166 H 0.54189 0.85178 0.32919 0.0
H2167 H 0.55804 0.87344 0.33586 0.0
C2168 C 0.53178 0.85795 0.29104 0.0
C2169 C 0.52935 0.87287 0.29391 0.0
C2170 C 0.54484 0.85507 0.29732 0.0
C2171 C 0.55571 0.8669 0.30674 0.0
C2172 C 0.55307 0.88158 0.30984 0.0
H2173 H 0.6626 0.88623 0.33316 0.0
H2174 H 0.6358 0.88852 0.32604 0.0
C2175 C 0.54002 0.88451 0.30353 0.0
C2176 C 0.57064 0.86456 0.31266 0.0
H2177 H 0.58615 0.85762 0.34011 0.0
C2178 C 0.58488 0.86544 0.30529 0.0
C2179 C 0.57096 0.86144 0.32537 0.0
C2180 C 0.5557 0.85963 0.33368 0.0
C2181 C 0.59955 0.86367 0.31027 0.0
C2182 C 0.60014 0.86104 0.32299 0.0
C2183 C 0.58574 0.85977 0.33037 0.0
C2184 C 0.61587 0.85989 0.32866 0.0
C2185 C 0.61436 0.86459 0.30187 0.0
C2186 C 0.6135 0.8431 0.33278 0.0
C2187 C 0.62886 0.84174 0.3368 0.0
C2188 C 0.64678 0.85725 0.33699 0.0
C2189 C 0.64894 0.87411 0.33322 0.0
C2190 C 0.63366 0.87543 0.32915 0.0
H2191 H 0.61015 0.86328 0.29211 0.0
H2192 H 0.62732 0.87791 0.30311 0.0
H2193 H 0.61756 0.85362 0.30412 0.0
H2194 H 0.59991 0.83091 0.33243 0.0
H2195 H 0.62679 0.82849 0.33938 0.0
H2196 H 0.11151 0.65832 0.28176 0.0
H2197 H 0.11878 0.68578 0.29335 0.0
H2198 H 0.16133 0.68137 0.3132 0.0
H2199 H 0.15456 0.65415 0.30134 0.0
H2200 H 0.11778 0.69075 0.31844 0.0
H2201 H 0.18933 0.73387 0.30033 0.0
H2202 H 0.17275 0.71241 0.29342 0.0
H2203 H 0.18475 0.71268 0.30718 0.0
C2204 C 0.12257 0.66326 0.28849 0.0
C2205 C 0.13259 0.6541 0.2905 0.0
C2206 C 0.1266 0.6789 0.29518 0.0
C2207 C 0.1408 0.68582 0.30401 0.0
C2208 C 0.15055 0.67649 0.30627 0.0
H2209 H 0.18527 0.78609 0.34761 0.0
H2210 H 0.17852 0.75644 0.33945 0.0
C2211 C 0.14651 0.6608 0.29957 0.0
C2212 C 0.14526 0.70279 0.31078 0.0
H2213 H 0.17933 0.74715 0.31525 0.0
C2214 C 0.13126 0.70307 0.31777 0.0
C2215 C 0.16288 0.71885 0.30994 0.0
C2216 C 0.17828 0.71959 0.30224 0.0
C2217 C 0.13434 0.71895 0.32389 0.0
C2218 C 0.15181 0.73513 0.32282 0.0
C2219 C 0.16595 0.73475 0.31606 0.0
C2220 C 0.15542 0.75278 0.32819 0.0
C2221 C 0.11889 0.71823 0.33153 0.0
C2222 C 0.14479 0.76068 0.32452 0.0
C2223 C 0.14853 0.77756 0.32921 0.0
C2224 C 0.16308 0.78702 0.33766 0.0
C2225 C 0.17378 0.7791 0.34129 0.0
C2226 C 0.17001 0.76218 0.33658 0.0
H2227 H 0.10878 0.70402 0.33436 0.0
H2228 H 0.12447 0.72683 0.33983 0.0
H2229 H 0.11123 0.72344 0.32606 0.0
H2230 H 0.13375 0.7539 0.31785 0.0
H2231 H 0.14007 0.78325 0.32612 0.0
H2232 H 0.79754 0.02069 0.4184 0.0
H2233 H 0.77621 0.99286 0.40733 0.0
H2234 H 0.82145 0.99869 0.38493 0.0
H2235 H 0.84307 0.02637 0.39621 0.0
H2236 H 0.76736 0.98751 0.38237 0.0
H2237 H 0.79877 0.94618 0.3978 0.0
H2238 H 0.80402 0.96742 0.40503 0.0
H2239 H 0.81456 0.9676 0.3907 0.0
C2240 C 0.80305 0.016 0.4112 0.0
C2241 C 0.82213 0.02574 0.40832 0.0
C2242 C 0.79077 1.00012 0.40481 0.0
C2243 C 0.79723 0.99347 0.39541 0.0
C2244 C 0.81617 1.00334 0.3923 0.0
H2245 H 0.73936 0.89321 0.35183 0.0
H2246 H 0.76245 0.9228 0.36025 0.0
C2247 C 0.82849 0.01929 0.39868 0.0
C2248 C 0.78402 0.97626 0.38891 0.0
H2249 H 0.77394 0.93233 0.38371 0.0
C2250 C 0.76882 0.97545 0.38265 0.0
C2251 C 0.78592 0.96052 0.38922 0.0
C2252 C 0.80159 0.96032 0.39612 0.0
C2253 C 0.75555 0.95942 0.37668 0.0
C2254 C 0.75723 0.94355 0.3772 0.0
C2255 C 0.7726 0.94445 0.3833 0.0
C2256 C 0.74298 0.92577 0.37175 0.0
C2257 C 0.74001 0.95976 0.3697 0.0
C2258 C 0.72431 0.91739 0.37546 0.0
C2259 C 0.711 0.90053 0.37055 0.0
C2260 C 0.71606 0.89151 0.36189 0.0
C2261 C 0.73483 0.89984 0.3583 0.0
C2262 C 0.74812 0.91675 0.36318 0.0
H2263 H 0.74381 0.97389 0.36701 0.0
H2264 H 0.73629 0.9512 0.36135 0.0
H2265 H 0.72752 0.95433 0.37561 0.0
H2266 H 0.72003 0.92377 0.38229 0.0
H2267 H 0.69676 0.89453 0.37365 0.0
H2268 H 0.98103 0.78206 0.39302 0.0
H2269 H 0.00882 0.78691 0.38204 0.0
H2270 H 0.04268 0.83477 0.40382 0.0
H2271 H 0.01503 0.83023 0.4147 0.0
H2272 H 0.0371 0.81774 0.36846 0.0
H2273 H 0.06563 0.80167 0.40962 0.0
H2274 H 0.04169 0.79623 0.40854 0.0
H2275 H 0.0597 0.81923 0.4117 0.0
C2276 C 0.99432 0.7938 0.39537 0.0
C2277 C 0.9957 0.80562 0.40489 0.0
C2278 C 0.01024 0.79651 0.38909 0.0
C2279 C 0.02791 0.81104 0.39222 0.0
C2280 C 0.02927 0.82325 0.40139 0.0
H2281 H 0.13661 0.84954 0.35765 0.0
H2282 H 0.1072 0.84693 0.36447 0.0
C2283 C 0.0134 0.82058 0.40764 0.0
C2284 C 0.045 0.81304 0.38626 0.0
H2285 H 0.08485 0.81179 0.39218 0.0
C2286 C 0.04758 0.81652 0.37365 0.0
C2287 C 0.05858 0.81119 0.39299 0.0
C2288 C 0.05627 0.80672 0.40644 0.0
C2289 C 0.06348 0.81842 0.36765 0.0
C2290 C 0.07713 0.81679 0.37442 0.0
C2291 C 0.07445 0.81317 0.387 0.0
C2292 C 0.09401 0.81807 0.36865 0.0
C2293 C 0.06532 0.82148 0.35405 0.0
C2294 C 0.09635 0.80273 0.36857 0.0
C2295 C 0.11304 0.80417 0.36459 0.0
C2296 C 0.12783 0.821 0.36061 0.0
C2297 C 0.12534 0.8363 0.36037 0.0
C2298 C 0.10854 0.83482 0.36431 0.0
H2299 H 0.05287 0.82109 0.34993 0.0
H2300 H 0.07768 0.83495 0.35201 0.0
H2301 H 0.06742 0.81081 0.34968 0.0
H2302 H 0.08541 0.7897 0.37193 0.0
H2303 H 0.11462 0.79221 0.365 0.0
H2304 H 0.19099 0.16968 0.38739 0.0
H2305 H 0.18623 0.19395 0.37917 0.0
H2306 H 0.22828 0.23271 0.40358 0.0
H2307 H 0.23357 0.2086 0.41161 0.0
H2308 H 0.17538 0.21611 0.39117 0.0
H2309 H 0.24517 0.25784 0.37036 0.0
H2310 H 0.23652 0.23461 0.37535 0.0
H2311 H 0.24548 0.2529 0.38629 0.0
C2312 C 0.19942 0.18341 0.39092 0.0
C2313 C 0.21281 0.18718 0.4001 0.0
C2314 C 0.19658 0.19725 0.38626 0.0
C2315 C 0.20709 0.21522 0.39061 0.0
C2316 C 0.22024 0.21902 0.39991 0.0
H2317 H 0.20921 0.31673 0.37299 0.0
H2318 H 0.21467 0.293 0.38139 0.0
C2319 C 0.2231 0.20516 0.4046 0.0
C2320 C 0.20402 0.22985 0.38551 0.0
H2321 H 0.22537 0.27052 0.37017 0.0
C2322 C 0.18629 0.22798 0.38655 0.0
C2323 C 0.21827 0.24536 0.3795 0.0
C2324 C 0.2374 0.24779 0.37769 0.0
C2325 C 0.18249 0.24131 0.38189 0.0
C2326 C 0.19671 0.25676 0.3758 0.0
C2327 C 0.21447 0.25866 0.37481 0.0
C2328 C 0.19348 0.27116 0.37045 0.0
C2329 C 0.16339 0.2389 0.38379 0.0
C2330 C 0.17995 0.26688 0.36135 0.0
C2331 C 0.1767 0.28041 0.35655 0.0
C2332 C 0.18709 0.2986 0.36065 0.0
C2333 C 0.2009 0.3029 0.3696 0.0
C2334 C 0.20408 0.28934 0.37442 0.0
H2335 H 0.1559 0.22925 0.39137 0.0
H2336 H 0.16424 0.25216 0.38582 0.0
H2337 H 0.15503 0.23325 0.37534 0.0
H2338 H 0.17184 0.25303 0.35795 0.0
H2339 H 0.16587 0.27653 0.34975 0.0
H2340 H 0.66585 0.54232 0.74621 0.0
H2341 H 0.6948 0.56639 0.73728 0.0
H2342 H 0.68319 0.53504 0.70415 0.0
H2343 H 0.65437 0.51082 0.71302 0.0
H2344 H 0.72566 0.56507 0.72837 0.0
H2345 H 0.69277 0.58472 0.69162 0.0
H2346 H 0.67982 0.57072 0.70443 0.0
H2347 H 0.68578 0.56088 0.69193 0.0
C2348 C 0.66948 0.54044 0.73706 0.0
C2349 C 0.65759 0.52459 0.73034 0.0
C2350 C 0.68603 0.55428 0.73193 0.0
C2351 C 0.69108 0.5527 0.71995 0.0
C2352 C 0.67943 0.53681 0.71329 0.0
H2353 H 0.80354 0.6238 0.69042 0.0
H2354 H 0.77395 0.59685 0.69612 0.0
C2355 C 0.66289 0.52295 0.7184 0.0
C2356 C 0.70863 0.56759 0.71451 0.0
H2357 H 0.72561 0.5988 0.69125 0.0
C2358 C 0.72565 0.57241 0.72024 0.0
C2359 C 0.70864 0.57728 0.70394 0.0
C2360 C 0.69078 0.5733 0.69766 0.0
C2361 C 0.74262 0.58662 0.71571 0.0
C2362 C 0.74265 0.59618 0.70505 0.0
C2363 C 0.72563 0.59135 0.69932 0.0
C2364 C 0.76004 0.61208 0.70028 0.0
C2365 C 0.76032 0.59167 0.72261 0.0
C2366 C 0.76186 0.62952 0.70019 0.0
C2367 C 0.77867 0.64487 0.6968 0.0
C2368 C 0.79394 0.64311 0.69324 0.0
C2369 C 0.79194 0.62558 0.69292 0.0
C2370 C 0.77509 0.61018 0.69632 0.0
H2371 H 0.7575 0.58573 0.73195 0.0
H2372 H 0.76826 0.58639 0.7176 0.0
H2373 H 0.76921 0.60674 0.72335 0.0
H2374 H 0.75048 0.63136 0.70317 0.0
H2375 H 0.77988 0.65823 0.69724 0.0
H2376 H 0.47049 0.11046 0.73437 0.0
H2377 H 0.44505 0.11407 0.72613 0.0
H2378 H 0.48304 0.17144 0.72035 0.0
H2379 H 0.50851 0.16801 0.72865 0.0
H2380 H 0.43102 0.13581 0.73408 0.0
H2381 H 0.4582 0.15565 0.68698 0.0
H2382 H 0.46745 0.14588 0.69765 0.0
H2383 H 0.47417 0.16963 0.69869 0.0
C2384 C 0.47346 0.12389 0.73143 0.0
C2385 C 0.49167 0.13891 0.73213 0.0
C2386 C 0.45888 0.12591 0.72664 0.0
C2387 C 0.46214 0.14295 0.72236 0.0
C2388 C 0.48022 0.15804 0.72325 0.0
H2389 H 0.38972 0.18238 0.69393 0.0
H2390 H 0.41643 0.17941 0.70044 0.0
C2391 C 0.4948 0.15604 0.72803 0.0
C2392 C 0.44652 0.14504 0.71735 0.0
H2393 H 0.43168 0.15804 0.69201 0.0
C2394 C 0.43115 0.14058 0.72486 0.0
C2395 C 0.44668 0.15139 0.70533 0.0
C2396 C 0.46242 0.15576 0.69664 0.0
C2397 C 0.41611 0.14249 0.72078 0.0
C2398 C 0.41619 0.14869 0.70873 0.0
C2399 C 0.4316 0.15327 0.70123 0.0
C2400 C 0.40028 0.1503 0.70379 0.0
C2401 C 0.40044 0.13822 0.72952 0.0
C2402 C 0.38239 0.13488 0.70312 0.0
C2403 C 0.36717 0.13655 0.69936 0.0
C2404 C 0.36953 0.15361 0.69593 0.0
C2405 C 0.38751 0.16899 0.69627 0.0
C2406 C 0.40277 0.16731 0.70006 0.0
H2407 H 0.40477 0.13855 0.73917 0.0
H2408 H 0.39534 0.14805 0.72844 0.0
H2409 H 0.3887 0.1243 0.7276 0.0
H2410 H 0.38014 0.12155 0.70571 0.0
H2411 H 0.35346 0.1245 0.69926 0.0
H2412 H 0.87446 0.33841 0.75813 0.0
H2413 H 0.86781 0.31125 0.74641 0.0
H2414 H 0.88121 0.34247 0.71307 0.0
H2415 H 0.88853 0.36995 0.7248 0.0
H2416 H 0.84219 0.29315 0.72809 0.0
H2417 H 0.91416 0.31931 0.71117 0.0
H2418 H 0.90879 0.33034 0.7233 0.0
H2419 H 0.90432 0.3335 0.70768 0.0
C2420 C 0.8762 0.3396 0.74832 0.0
C2421 C 0.88226 0.35648 0.74244 0.0
C2422 C 0.87224 0.32399 0.74161 0.0
C2423 C 0.87428 0.32485 0.72887 0.0
C2424 C 0.87987 0.34154 0.72291 0.0
H2425 H 0.83146 0.22591 0.68364 0.0
H2426 H 0.83747 0.25503 0.69229 0.0
C2427 C 0.88385 0.3572 0.72963 0.0
C2428 C 0.87056 0.30821 0.72193 0.0
H2429 H 0.89118 0.29033 0.70399 0.0
C2430 C 0.85287 0.29255 0.72276 0.0
C2431 C 0.88457 0.30737 0.7151 0.0
C2432 C 0.90408 0.32345 0.71431 0.0
C2433 C 0.84883 0.27608 0.71703 0.0
C2434 C 0.86278 0.2753 0.7101 0.0
C2435 C 0.88045 0.29098 0.70921 0.0
C2436 C 0.85965 0.25808 0.70427 0.0
C2437 C 0.82986 0.2595 0.71881 0.0
C2438 C 0.8705 0.25036 0.70781 0.0
C2439 C 0.86726 0.23382 0.70277 0.0
C2440 C 0.85313 0.22463 0.69401 0.0
C2441 C 0.84253 0.2326 0.69029 0.0
C2442 C 0.84582 0.24919 0.69533 0.0
H2443 H 0.82236 0.2612 0.72662 0.0
H2444 H 0.82137 0.25727 0.71045 0.0
H2445 H 0.83095 0.24708 0.72039 0.0
H2446 H 0.88129 0.25698 0.71467 0.0
H2447 H 0.87575 0.22816 0.70586 0.0
H2448 H 0.2021 1.00439 0.608 0.0
H2449 H 0.22368 0.03199 0.61916 0.0
H2450 H 0.21045 1.00108 0.65262 0.0
H2451 H 0.1893 0.97317 0.64142 0.0
H2452 H 0.21851 0.05002 0.63789 0.0
H2453 H 0.26686 0.026 0.6523 0.0
H2454 H 0.24892 0.01417 0.64098 0.0
H2455 H 0.24319 0.01138 0.65695 0.0
C2456 C 0.20389 1.00336 0.61772 0.0
C2457 C 0.19408 0.98641 0.62375 0.0
C2458 C 0.21616 0.01923 0.62411 0.0
C2459 C 0.21901 0.01863 0.63672 0.0
C2460 C 0.20884 1.00187 0.64286 0.0
H2461 H 0.27744 0.11829 0.68122 0.0
H2462 H 0.254 0.08913 0.67252 0.0
C2463 C 0.19654 0.98593 0.63646 0.0
C2464 C 0.23263 0.0356 0.6433 0.0
H2465 H 0.2729 0.05458 0.66005 0.0
C2466 C 0.23037 0.051 0.64276 0.0
C2467 C 0.24829 0.03701 0.64953 0.0
C2468 C 0.25213 0.02134 0.64991 0.0
C2469 C 0.24326 0.06768 0.64825 0.0
C2470 C 0.25871 0.06898 0.65469 0.0
C2471 C 0.26098 0.05358 0.65523 0.0
C2472 C 0.27309 0.08636 0.6605 0.0
C2473 C 0.24048 0.08392 0.64673 0.0
C2474 C 0.29183 0.0943 0.65702 0.0
C2475 C 0.30537 0.11086 0.66216 0.0
C2476 C 0.30052 0.11989 0.67095 0.0
C2477 C 0.28178 0.11174 0.67457 0.0
C2478 C 0.26826 0.09512 0.66947 0.0
H2479 H 0.23107 0.08207 0.63894 0.0
H2480 H 0.23409 0.08563 0.65514 0.0
H2481 H 0.25395 0.09665 0.64523 0.0
H2482 H 0.29596 0.08782 0.65016 0.0
H2483 H 0.31962 0.11664 0.65913 0.0
H2484 H 0.03141 0.23472 0.63059 0.0
H2485 H 1.00253 0.23038 0.63956 0.0
H2486 H 0.98498 0.17388 0.64669 0.0
H2487 H 0.01409 0.17823 0.63811 0.0
H2488 H 0.96643 0.20712 0.63225 0.0
H2489 H 0.97657 0.1906 0.67974 0.0
H2490 H 0.99526 0.20041 0.66877 0.0
H2491 H 0.97843 0.17643 0.66828 0.0
C2492 C 0.02155 0.22142 0.63421 0.0
C2493 C 0.02523 0.20686 0.63364 0.0
C2494 C 1.00495 0.21893 0.63928 0.0
C2495 C 0.99164 0.20188 0.64401 0.0
C2496 C 0.99515 0.18727 0.64336 0.0
H2497 H 0.87941 0.16209 0.67314 0.0
H2498 H 0.90911 0.16487 0.66686 0.0
C2499 C 0.01174 0.18973 0.63827 0.0
C2500 C 0.97383 0.1993 0.64915 0.0
H2501 H 0.94712 0.18734 0.675 0.0
C2502 C 0.96227 0.20285 0.64161 0.0
C2503 C 0.96826 0.19361 0.66136 0.0
C2504 C 0.98033 0.19018 0.67006 0.0
C2505 C 0.94536 0.20079 0.64587 0.0
C2506 C 0.93991 0.19534 0.65811 0.0
C2507 C 0.95131 0.19155 0.66564 0.0
C2508 C 0.92258 0.1939 0.66322 0.0
C2509 C 0.93329 0.20419 0.63714 0.0
C2510 C 0.92047 0.20936 0.6637 0.0
C2511 C 0.9036 0.20781 0.66735 0.0
C2512 C 0.88855 0.19083 0.6708 0.0
C2513 C 0.89086 0.17542 0.67076 0.0
C2514 C 0.9078 0.17699 0.6671 0.0
H2515 H 0.93687 0.20348 0.62746 0.0
H2516 H 0.91834 0.19412 0.63854 0.0
H2517 H 0.93539 0.21805 0.63878 0.0
H2518 H 0.93175 0.22261 0.66096 0.0
H2519 H 0.90217 0.21988 0.66723 0.0
H2520 H 0.78403 0.80452 0.62214 0.0
H2521 H 0.78891 0.78025 0.63038 0.0
H2522 H 0.83471 0.81987 0.65214 0.0
H2523 H 0.83011 0.84421 0.64388 0.0
H2524 H 0.82077 0.77638 0.62962 0.0
H2525 H 0.80162 0.78141 0.67738 0.0
H2526 H 0.79626 0.7917 0.6647 0.0
H2527 H 0.81934 0.80263 0.67105 0.0
C2528 C 0.79524 0.80811 0.62861 0.0
C2529 C 0.80657 0.82635 0.63241 0.0
C2530 C 0.79795 0.79419 0.63335 0.0
C2531 C 0.81195 0.79818 0.64205 0.0
C2532 C 0.82352 0.81639 0.64567 0.0
H2533 H 0.85206 0.73529 0.68168 0.0
H2534 H 0.84654 0.75909 0.67342 0.0
C2535 C 0.82085 0.8303 0.64094 0.0
C2536 C 0.81465 0.78337 0.64722 0.0
H2537 H 0.81473 0.76246 0.67397 0.0
C2538 C 0.81935 0.77325 0.6393 0.0
C2539 C 0.81284 0.77934 0.65986 0.0
C2540 C 0.80708 0.78921 0.66875 0.0
C2541 C 0.82266 0.75949 0.64372 0.0
C2542 C 0.82087 0.75548 0.65637 0.0
C2543 C 0.81613 0.76556 0.66428 0.0
C2544 C 0.82387 0.74086 0.66159 0.0
C2545 C 0.82852 0.74969 0.63483 0.0
C2546 C 0.81272 0.72262 0.65788 0.0
C2547 C 0.81578 0.70895 0.66263 0.0
C2548 C 0.82998 0.7132 0.67127 0.0
C2549 C 0.84089 0.73145 0.67514 0.0
C2550 C 0.83781 0.74512 0.67038 0.0
H2551 H 0.834 0.75753 0.62622 0.0
H2552 H 0.83935 0.74723 0.63889 0.0
H2553 H 0.81629 0.73627 0.63249 0.0
H2554 H 0.80161 0.71893 0.65131 0.0
H2555 H 0.80702 0.69506 0.65947 0.0
H2556 H 0.01216 0.83623 0.63653 0.0
H2557 H 0.98346 0.8122 0.64575 0.0
H2558 H 1.00404 0.77454 0.64294 0.0
H2559 H 0.03274 0.79845 0.63371 0.0
H2560 H 0.95717 0.77913 0.6367 0.0
H2561 H 0.98838 0.76838 0.67845 0.0
H2562 H 1.00104 0.78787 0.66857 0.0
H2563 H 0.99865 0.76613 0.66465 0.0
C2564 C 0.01057 0.82281 0.63781 0.0
C2565 C 0.02488 0.81936 0.63439 0.0
C2566 C 0.99416 0.80909 0.64316 0.0
C2567 C 0.99167 0.7916 0.64529 0.0
C2568 C 1.0058 0.78803 0.64174 0.0
H2569 H 0.90287 0.68596 0.66765 0.0
H2570 H 0.93232 0.71296 0.6619 0.0
C2571 C 0.02222 0.80175 0.63641 0.0
C2572 C 0.97405 0.77695 0.65083 0.0
H2573 H 0.95682 0.74593 0.6742 0.0
C2574 C 0.95709 0.77201 0.64497 0.0
C2575 C 0.97388 0.76763 0.66165 0.0
C2576 C 0.99144 0.77287 0.66877 0.0
C2577 C 0.94011 0.75766 0.64936 0.0
C2578 C 0.93999 0.74811 0.66004 0.0
C2579 C 0.9569 0.75323 0.66602 0.0
C2580 C 0.92259 0.73212 0.66471 0.0
C2581 C 0.92251 0.75239 0.64227 0.0
C2582 C 0.90744 0.73392 0.66855 0.0
C2583 C 0.89058 0.71847 0.67185 0.0
C2584 C 0.88867 0.70098 0.67155 0.0
C2585 C 0.90402 0.6993 0.66808 0.0
C2586 C 0.92085 0.71471 0.6648 0.0
H2587 H 0.92547 0.75839 0.63295 0.0
H2588 H 0.91384 0.73731 0.64147 0.0
H2589 H 0.91427 0.75744 0.64717 0.0
H2590 H 0.90851 0.74723 0.66874 0.0
H2591 H 0.87891 0.72019 0.67426 0.0
H2592 H 0.17981 0.18047 0.63008 0.0
H2593 H 0.20251 0.17505 0.64087 0.0
H2594 H 0.24223 0.23274 0.63987 0.0
H2595 H 0.21968 0.23827 0.62911 0.0
H2596 H 0.23639 0.18159 0.63338 0.0
H2597 H 0.24533 0.22151 0.67539 0.0
H2598 H 0.2265 0.21564 0.66475 0.0
H2599 H 0.24927 0.23477 0.66177 0.0
C2600 C 0.19336 0.19203 0.63217 0.0
C2601 C 0.19781 0.20984 0.62874 0.0
C2602 C 0.20632 0.18891 0.6384 0.0
C2603 C 0.22404 0.2035 0.64141 0.0
C2604 C 0.22852 0.22128 0.638 0.0
H2605 H 0.32927 0.21909 0.66696 0.0
H2606 H 0.30241 0.22161 0.66026 0.0
C2607 C 0.21556 0.22442 0.63181 0.0
C2608 C 0.23816 0.20006 0.64752 0.0
H2609 H 0.26829 0.21283 0.67176 0.0
C2610 C 0.24319 0.18825 0.64185 0.0
C2611 C 0.24707 0.20871 0.6586 0.0
C2612 C 0.24165 0.22072 0.66555 0.0
C2613 C 0.25732 0.18543 0.64667 0.0
C2614 C 0.26655 0.19444 0.65758 0.0
C2615 C 0.26126 0.20594 0.66339 0.0
C2616 C 0.28243 0.19292 0.66267 0.0
C2617 C 0.26275 0.17337 0.63977 0.0
C2618 C 0.28013 0.17603 0.66655 0.0
C2619 C 0.29549 0.17459 0.67039 0.0
C2620 C 0.31342 0.19006 0.67059 0.0
C2621 C 0.3156 0.20699 0.667 0.0
C2622 C 0.30026 0.20844 0.66319 0.0
H2623 H 0.2571 0.17057 0.63032 0.0
H2624 H 0.27812 0.17973 0.63933 0.0
H2625 H 0.25719 0.1601 0.6446 0.0
H2626 H 0.26649 0.1639 0.6664 0.0
H2627 H 0.2934 0.16129 0.67288 0.0
H2628 H 0.82898 1.00044 0.62035 0.0
H2629 H 0.83669 0.02847 0.63151 0.0
H2630 H 0.77906 0.00581 0.64137 0.0
H2631 H 0.77129 0.97763 0.63043 0.0
H2632 H 0.82234 0.05185 0.62677 0.0
H2633 H 0.80667 0.02501 0.67413 0.0
H2634 H 0.80996 0.01277 0.66177 0.0
H2635 H 0.78822 0.0124 0.66337 0.0
C2636 C 0.81799 1.00129 0.62507 0.0
C2637 C 0.79951 0.98675 0.62451 0.0
C2638 C 0.82241 0.01737 0.63139 0.0
C2639 C 0.8085 0.01918 0.63739 0.0
C2640 C 0.79008 0.00463 0.63697 0.0
H2641 H 0.80746 0.11726 0.65828 0.0
H2642 H 0.802 0.08849 0.64943 0.0
C2643 C 0.78563 0.98859 0.63061 0.0
C2644 C 0.81305 0.03662 0.64354 0.0
H2645 H 0.81153 0.05501 0.67101 0.0
C2646 C 0.82008 0.05256 0.63645 0.0
C2647 C 0.81027 0.03758 0.6562 0.0
C2648 C 0.80353 0.02108 0.66436 0.0
C2649 C 0.82394 0.06931 0.64161 0.0
C2650 C 0.82051 0.07013 0.65418 0.0
C2651 C 0.81398 0.05432 0.66135 0.0
C2652 C 0.82345 0.08728 0.65997 0.0
C2653 C 0.83175 0.08605 0.63358 0.0
C2654 C 0.83702 0.09595 0.66908 0.0
C2655 C 0.84024 0.11248 0.67418 0.0
C2656 C 0.82976 0.12055 0.67036 0.0
C2657 C 0.81587 0.11155 0.66143 0.0
C2658 C 0.81275 0.09509 0.65631 0.0
H2659 H 0.83778 0.08418 0.62504 0.0
H2660 H 0.82042 0.0888 0.63103 0.0
H2661 H 0.84266 0.09822 0.63848 0.0
H2662 H 0.84542 0.09013 0.67206 0.0
H2663 H 0.85117 0.11908 0.68093 0.0
H2664 H 0.50906 0.35877 0.73018 0.0
H2665 H 0.48732 0.33111 0.71889 0.0
H2666 H 0.44199 0.32631 0.74073 0.0
H2667 H 0.46343 0.35407 0.7518 0.0
H2668 H 0.46417 0.29566 0.72831 0.0
H2669 H 0.42211 0.32183 0.70589 0.0
H2670 H 0.44457 0.33675 0.71269 0.0
H2671 H 0.42422 0.32521 0.72213 0.0
C2672 C 0.49442 0.35198 0.73246 0.0
C2673 C 0.48805 0.35871 0.74193 0.0
C2674 C 0.48202 0.33609 0.72605 0.0
C2675 C 0.46295 0.32671 0.72884 0.0
C2676 C 0.45656 0.33344 0.73824 0.0
H2677 H 0.36329 0.2276 0.70714 0.0
H2678 H 0.3868 0.25669 0.71589 0.0
C2679 C 0.46892 0.34924 0.74467 0.0
C2680 C 0.44978 0.30955 0.72229 0.0
H2681 H 0.40976 0.28963 0.70532 0.0
C2682 C 0.45237 0.29438 0.72317 0.0
C2683 C 0.43434 0.30784 0.71562 0.0
C2684 C 0.43119 0.32381 0.71391 0.0
C2685 C 0.43963 0.27742 0.71794 0.0
C2686 C 0.42404 0.27564 0.71138 0.0
C2687 C 0.42164 0.29092 0.71035 0.0
C2688 C 0.4098 0.25797 0.70582 0.0
C2689 C 0.44264 0.2614 0.71988 0.0
C2690 C 0.41476 0.24901 0.69708 0.0
C2691 C 0.40133 0.23224 0.69211 0.0
C2692 C 0.38254 0.22415 0.69561 0.0
C2693 C 0.37758 0.23334 0.7042 0.0
C2694 C 0.39103 0.25005 0.70921 0.0
H2695 H 0.45211 0.26368 0.72772 0.0
H2696 H 0.42925 0.24864 0.72154 0.0
H2697 H 0.44907 0.25943 0.71159 0.0
H2698 H 0.42905 0.25498 0.69409 0.0
H2699 H 0.40576 0.22555 0.68562 0.0
H2700 H 0.67837 0.16508 0.74314 0.0
H2701 H 0.70607 0.17024 0.73202 0.0
H2702 H 0.67579 0.1156 0.71744 0.0
H2703 H 0.64803 0.1103 0.72857 0.0
H2704 H 0.72533 0.15235 0.73469 0.0
H2705 H 0.70041 0.14477 0.68688 0.0
H2706 H 0.68811 0.14759 0.6995 0.0
H2707 H 0.68562 0.12558 0.69633 0.0
C2708 C 0.67754 0.15415 0.73755 0.0
C2709 C 0.66087 0.13725 0.7368 0.0
C2710 C 0.69342 0.15716 0.73113 0.0
C2711 C 0.69305 0.14342 0.72372 0.0
C2712 C 0.67638 0.12661 0.72282 0.0
H2713 H 0.78045 0.12546 0.6976 0.0
H2714 H 0.75118 0.12319 0.70426 0.0
C2715 C 0.66047 0.12359 0.72923 0.0
C2716 C 0.71041 0.1463 0.71762 0.0
H2717 H 0.72895 0.14473 0.69003 0.0
C2718 C 0.72612 0.15085 0.72491 0.0
C2719 C 0.71158 0.14442 0.70483 0.0
C2720 C 0.6956 0.1405 0.6964 0.0
C2721 C 0.74267 0.15306 0.71984 0.0
C2722 C 0.74363 0.15068 0.70715 0.0
C2723 C 0.72813 0.14648 0.69978 0.0
C2724 C 0.76051 0.15183 0.7016 0.0
C2725 C 0.75903 0.15762 0.72808 0.0
C2726 C 0.77536 0.16865 0.69768 0.0
C2727 C 0.79212 0.16998 0.69386 0.0
C2728 C 0.79423 0.15446 0.69381 0.0
C2729 C 0.77914 0.13758 0.69741 0.0
C2730 C 0.76242 0.13626 0.70121 0.0
H2731 H 0.7563 0.15957 0.73773 0.0
H2732 H 0.76239 0.14646 0.7277 0.0
H2733 H 0.77145 0.17029 0.72485 0.0
H2734 H 0.7742 0.18086 0.698 0.0
H2735 H 0.80361 0.18325 0.6914 0.0
H2736 H 0.86134 0.50311 0.71696 0.0
H2737 H 0.85649 0.52731 0.70869 0.0
H2738 H 0.88688 0.56211 0.73897 0.0
H2739 H 0.89139 0.53782 0.74755 0.0
H2740 H 0.83899 0.54574 0.72124 0.0
H2741 H 0.91221 0.59297 0.70746 0.0
H2742 H 0.90334 0.56892 0.71017 0.0
H2743 H 0.90868 0.58425 0.72281 0.0
C2744 C 0.86685 0.51581 0.72197 0.0
C2745 C 0.87676 0.51842 0.73296 0.0
C2746 C 0.86415 0.52968 0.71717 0.0
C2747 C 0.87148 0.54656 0.72315 0.0
C2748 C 0.88136 0.54928 0.73411 0.0
H2749 H 0.87313 0.64812 0.70693 0.0
H2750 H 0.87812 0.62405 0.71521 0.0
C2751 C 0.88397 0.53537 0.73897 0.0
C2752 C 0.86847 0.56118 0.71802 0.0
H2753 H 0.89099 0.60368 0.70514 0.0
C2754 C 0.85033 0.5584 0.71768 0.0
C2755 C 0.8833 0.5777 0.71346 0.0
C2756 C 0.90299 0.5812 0.71338 0.0
C2757 C 0.84665 0.57183 0.71308 0.0
C2758 C 0.86146 0.58831 0.70835 0.0
C2759 C 0.87962 0.59106 0.70872 0.0
C2760 C 0.85847 0.60294 0.7031 0.0
C2761 C 0.827 0.56842 0.71369 0.0
C2762 C 0.84596 0.59923 0.69339 0.0
C2763 C 0.8429 0.61294 0.68871 0.0
C2764 C 0.85256 0.6308 0.69347 0.0
C2765 C 0.86541 0.63456 0.70301 0.0
C2766 C 0.86832 0.6208 0.70776 0.0
H2767 H 0.81871 0.55805 0.72073 0.0
H2768 H 0.8268 0.58118 0.71577 0.0
H2769 H 0.82007 0.56316 0.70474 0.0
H2770 H 0.83851 0.5857 0.68942 0.0
H2771 H 0.83277 0.60944 0.68147 0.0
H2772 H 0.46532 0.95793 0.19793 0.0
H2773 H 0.47436 0.97011 0.17729 0.0
H2774 H 0.48369 0.92575 0.16811 0.0
H2775 H 0.47412 0.91314 0.18872 0.0
H2776 H 0.50797 0.98153 0.16526 0.0
H2777 H 0.44974 0.92421 0.1402 0.0
H2778 H 0.44929 0.92704 0.15651 0.0
H2779 H 0.46292 0.91797 0.15016 0.0
C2780 C 0.46908 0.9506 0.19151 0.0
C2781 C 0.46879 0.93441 0.19502 0.0
C2782 C 0.47437 0.95767 0.1797 0.0
C2783 C 0.47943 0.94872 0.17103 0.0
C2784 C 0.4795 0.93274 0.17453 0.0
H2785 H 0.51316 0.97806 0.09419 0.0
H2786 H 0.50416 0.96204 0.11393 0.0
C2787 C 0.47424 0.92565 0.18639 0.0
C2788 C 0.48498 0.95649 0.15847 0.0
H2789 H 0.47256 0.94827 0.1283 0.0
C2790 C 0.50023 0.97423 0.15718 0.0
C2791 C 0.47501 0.94694 0.14789 0.0
C2792 C 0.45823 0.92804 0.14869 0.0
C2793 C 0.50571 0.98269 0.14568 0.0
C2794 C 0.4954 0.97338 0.13512 0.0
C2795 C 0.48042 0.95546 0.13636 0.0
C2796 C 0.49965 0.98233 0.12285 0.0
C2797 C 0.52268 1.00149 0.14497 0.0
C2798 C 0.49946 0.99871 0.12111 0.0
C2799 C 0.50463 0.00786 0.1099 0.0
C2800 C 0.50991 1.00078 0.10005 0.0
C2801 C 0.50916 0.98388 0.10158 0.0
C2802 C 0.50409 0.97475 0.11287 0.0
H2803 H 0.53211 1.00422 0.1529 0.0
H2804 H 0.53062 1.00321 0.13645 0.0
H2805 H 0.51825 0.01189 0.14505 0.0
H2806 H 0.49553 1.00458 0.1285 0.0
H2807 H 0.50466 0.02064 0.10897 0.0
H2808 H 0.08959 0.52039 0.18606 0.0
H2809 H 0.0768 0.5173 0.16548 0.0
H2810 H 0.04666 0.54386 0.17717 0.0
H2811 H 0.05993 0.54765 0.19765 0.0
H2812 H 0.04015 0.49877 0.15828 0.0
H2813 H 0.07173 0.57207 0.14631 0.0
H2814 H 0.07957 0.56425 0.15915 0.0
H2815 H 0.05899 0.56615 0.16037 0.0
C2816 C 0.08051 0.52589 0.18422 0.0
C2817 C 0.0759 0.53437 0.19355 0.0
C2818 C 0.0731 0.52398 0.17245 0.0
C2819 C 0.06098 0.53058 0.16971 0.0
C2820 C 0.05627 0.53898 0.17899 0.0
H2821 H 0.99396 0.52701 0.10802 0.0
H2822 H 0.01015 0.5319 0.12754 0.0
C2823 C 0.0637 0.54093 0.19075 0.0
C2824 C 0.05269 0.52802 0.15728 0.0
H2825 H 0.0478 0.55092 0.13308 0.0
C2826 C 0.04195 0.51018 0.15272 0.0
C2827 C 0.05503 0.54291 0.15003 0.0
C2828 C 0.0671 0.56244 0.15415 0.0
C2829 C 0.03306 0.50678 0.14129 0.0
C2830 C 0.03522 0.52166 0.1341 0.0
C2831 C 0.04613 0.53952 0.1386 0.0
C2832 C 0.02582 0.51896 0.12205 0.0
C2833 C 0.02093 0.48725 0.13719 0.0
C2834 C 0.02946 0.51033 0.11237 0.0
C2835 C 0.02008 0.50735 0.1012 0.0
C2836 C 1.00692 0.51304 0.09945 0.0
C2837 C 1.00371 0.52212 0.10909 0.0
C2838 C 0.01307 0.52507 0.12024 0.0
H2839 H 0.01706 0.4775 0.14493 0.0
H2840 H 1.00801 0.48529 0.13276 0.0
H2841 H 0.02864 0.48381 0.13044 0.0
H2842 H 0.03951 0.50582 0.11346 0.0
H2843 H 0.02285 0.50024 0.09402 0.0
H2844 H 0.4939 0.54789 0.19845 0.0
H2845 H 0.50426 0.54565 0.17794 0.0
H2846 H 0.44724 0.51597 0.1657 0.0
H2847 H 0.4368 0.51868 0.18602 0.0
H2848 H 0.49619 0.51445 0.16521 0.0
H2849 H 0.47114 0.55429 0.13909 0.0
H2850 H 0.47272 0.55495 0.15555 0.0
H2851 H 0.45341 0.53609 0.14799 0.0
C2852 C 0.48355 0.54117 0.19135 0.0
C2853 C 0.46448 0.53349 0.19395 0.0
C2854 C 0.48951 0.53979 0.17963 0.0
C2855 C 0.47657 0.53086 0.17019 0.0
C2856 C 0.45754 0.52325 0.17273 0.0
H2857 H 0.48546 0.50079 0.09502 0.0
H2858 H 0.47442 0.5057 0.11465 0.0
C2859 C 0.45158 0.5246 0.18444 0.0
C2860 C 0.48293 0.52873 0.15787 0.0
H2861 H 0.48184 0.53763 0.12745 0.0
C2862 C 0.49314 0.51963 0.15698 0.0
C2863 C 0.47885 0.53535 0.14707 0.0
C2864 C 0.46858 0.54586 0.14744 0.0
C2865 C 0.49916 0.51675 0.14563 0.0
C2866 C 0.49518 0.52345 0.13483 0.0
C2867 C 0.48489 0.53248 0.1357 0.0
C2868 C 0.50188 0.52143 0.12262 0.0
C2869 C 0.50938 0.50618 0.14529 0.0
C2870 C 0.52099 0.52911 0.1204 0.0
C2871 C 0.52732 0.52637 0.10921 0.0
C2872 C 0.5147 0.51595 0.0999 0.0
C2873 C 0.49558 0.50892 0.10195 0.0
C2874 C 0.48924 0.51165 0.11319 0.0
H2875 H 0.50683 0.49779 0.15365 0.0
H2876 H 0.50518 0.49704 0.1372 0.0
H2877 H 0.52455 0.51591 0.1447 0.0
H2878 H 0.53106 0.53713 0.12738 0.0
H2879 H 0.54216 0.53236 0.10787 0.0
H2880 H 0.92767 0.49034 0.84646 0.0
H2881 H 0.9416 0.49361 0.86668 0.0
H2882 H 0.97023 0.46603 0.85398 0.0
H2883 H 0.95689 0.46327 0.8336 0.0
H2884 H 0.93964 0.46754 0.8831 0.0
H2885 H 0.01244 0.51324 0.86825 0.0
H2886 H 0.9927 0.50832 0.8587 0.0
H2887 H 1.00061 0.49208 0.85999 0.0
C2888 C 0.93708 0.48512 0.84791 0.0
C2889 C 0.94129 0.47671 0.83832 0.0
C2890 C 0.94492 0.48688 0.85952 0.0
C2891 C 0.95721 0.48035 0.86181 0.0
C2892 C 0.96107 0.4715 0.85237 0.0
H2893 H 0.02217 0.48155 0.92448 0.0
H2894 H 1.00606 0.47613 0.90488 0.0
C2895 C 0.95324 0.46975 0.84075 0.0
C2896 C 0.96604 0.48288 0.87405 0.0
H2897 H 1.00814 0.50243 0.88862 0.0
C2898 C 0.95461 0.47522 0.88432 0.0
C2899 C 0.98558 0.49295 0.87565 0.0
C2900 C 0.99857 0.50228 0.86509 0.0
C2901 C 0.96221 0.47704 0.8961 0.0
C2902 C 0.98176 0.48703 0.89767 0.0
C2903 C 0.99316 0.49472 0.88741 0.0
C2904 C 0.99076 0.48966 0.90986 0.0
C2905 C 0.94928 0.46792 0.90671 0.0
C2906 C 0.98755 0.4991 0.91921 0.0
C2907 C 0.99684 0.50232 0.93044 0.0
C2908 C 0.00965 0.49628 0.93252 0.0
C2909 C 0.01263 0.48664 0.92316 0.0
C2910 C 1.00336 0.48344 0.91196 0.0
H2911 H 0.9353 0.4571 0.90362 0.0
H2912 H 0.95507 0.46176 0.91307 0.0
H2913 H 0.94754 0.47828 0.91183 0.0
H2914 H 0.97819 0.50437 0.91773 0.0
H2915 H 0.99439 0.51001 0.93736 0.0
H2916 H 0.58004 0.49319 0.84589 0.0
H2917 H 0.56983 0.49565 0.86635 0.0
H2918 H 0.51269 0.46627 0.85433 0.0
H2919 H 0.52278 0.46387 0.83379 0.0
H2920 H 0.55016 0.51244 0.87336 0.0
H2921 H 0.51084 0.43892 0.88545 0.0
H2922 H 0.52666 0.44748 0.8727 0.0
H2923 H 0.50361 0.44423 0.8713 0.0
C2924 C 0.56528 0.48727 0.84756 0.0
C2925 C 0.55226 0.47833 0.83811 0.0
C2926 C 0.55946 0.48861 0.85931 0.0
C2927 C 0.54047 0.48095 0.86198 0.0
C2928 C 0.52741 0.47194 0.85261 0.0
H2929 H 0.4755 0.48111 0.92359 0.0
H2930 H 0.48715 0.47647 0.90426 0.0
C2931 C 0.53321 0.47058 0.84084 0.0
C2932 C 0.53444 0.48309 0.8744 0.0
H2933 H 0.50729 0.45926 0.8987 0.0
C2934 C 0.5409 0.5008 0.87894 0.0
C2935 C 0.52234 0.46792 0.8817 0.0
C2936 C 0.51558 0.44856 0.87761 0.0
C2937 C 0.53523 0.50378 0.8904 0.0
C2938 C 0.52301 0.48861 0.89766 0.0
C2939 C 0.51667 0.47089 0.89316 0.0
C2940 C 0.51608 0.49088 0.90973 0.0
C2941 C 0.54191 0.52315 0.89444 0.0
C2942 C 0.5284 0.50017 0.91941 0.0
C2943 C 0.52176 0.50295 0.93051 0.0
C2944 C 0.50265 0.49647 0.93217 0.0
C2945 C 0.49033 0.48662 0.92258 0.0
C2946 C 0.49696 0.48384 0.91152 0.0
H2947 H 0.54742 0.53292 0.88669 0.0
H2948 H 0.53051 0.52432 0.89882 0.0
H2949 H 0.55327 0.52725 0.90123 0.0
H2950 H 0.54318 0.50543 0.91835 0.0
H2951 H 0.53167 0.51062 0.93766 0.0
H2952 H 0.54353 0.1043 0.84689 0.0
H2953 H 0.53851 0.09101 0.86734 0.0
H2954 H 0.53219 0.04123 0.85209 0.0
H2955 H 0.53701 0.05433 0.83158 0.0
H2956 H 0.50738 0.06019 0.87604 0.0
H2957 H 0.56914 0.0515 0.87979 0.0
H2958 H 0.56709 0.06568 0.86824 0.0
H2959 H 0.55534 0.04128 0.86636 0.0
C2960 C 0.54107 0.09051 0.84785 0.0
C2961 C 0.54067 0.08042 0.8375 0.0
C2962 C 0.53828 0.08295 0.85959 0.0
C2963 C 0.53519 0.06518 0.86133 0.0
C2964 C 0.53497 0.05512 0.85106 0.0
H2965 H 0.50503 0.98885 0.92129 0.0
H2966 H 0.51459 0.00559 0.90203 0.0
C2967 C 0.53774 0.06266 0.83929 0.0
C2968 C 0.53128 0.05688 0.8738 0.0
H2969 H 0.54584 0.03689 0.89501 0.0
C2970 C 0.5159 0.05525 0.88023 0.0
C2971 C 0.54234 0.05038 0.8793 0.0
C2972 C 0.55951 0.05243 0.87314 0.0
C2973 C 0.51095 0.04682 0.89179 0.0
C2974 C 0.52191 0.04016 0.89725 0.0
C2975 C 0.53743 0.04199 0.89087 0.0
C2976 C 0.51699 0.03048 0.90927 0.0
C2977 C 0.4936 0.04454 0.89783 0.0
C2978 C 0.51557 0.03897 0.91994 0.0
C2979 C 0.5099 0.02932 0.93101 0.0
C2980 C 0.5056 0.01097 0.93169 0.0
C2981 C 0.5078 1.0028 0.92109 0.0
C2982 C 0.51343 0.01242 0.91006 0.0
H2983 H 0.48433 0.04614 0.89121 0.0
H2984 H 0.48565 0.03092 0.90222 0.0
H2985 H 0.49758 0.05513 0.90499 0.0
H2986 H 0.51866 0.05302 0.91967 0.0
H2987 H 0.50836 0.03607 0.93894 0.0
H2988 H 0.14145 0.24684 0.52191 0.0
H2989 H 0.15133 0.25982 0.50139 0.0
H2990 H 0.14163 0.30387 0.51076 0.0
H2991 H 0.13223 0.29133 0.53128 0.0
H2992 H 0.13105 0.26706 0.48332 0.0
H2993 H 0.19468 0.33066 0.49726 0.0
H2994 H 0.18287 0.3112 0.50729 0.0
H2995 H 0.1742 0.32675 0.50529 0.0
C2996 C 0.14166 0.25943 0.51966 0.0
C2997 C 0.13603 0.26802 0.52831 0.0
C2998 C 0.14718 0.26676 0.50788 0.0
C2999 C 0.14743 0.28295 0.50454 0.0
C3000 C 0.14184 0.29153 0.51314 0.0
H3001 H 0.173 0.35446 0.44256 0.0
H3002 H 0.16346 0.33803 0.46194 0.0
C3003 C 0.13627 0.28421 0.52487 0.0
C3004 C 0.15322 0.29083 0.49203 0.0
H3005 H 0.18405 0.32969 0.47691 0.0
C3006 C 0.14275 0.28069 0.48188 0.0
C3007 C 0.1685 0.3086 0.49014 0.0
C3008 C 0.18084 0.3199 0.50055 0.0
C3009 C 0.14668 0.28811 0.46999 0.0
C3010 C 0.16173 0.30606 0.46814 0.0
C3011 C 0.17245 0.31599 0.47828 0.0
C3012 C 0.16632 0.31519 0.45591 0.0
C3013 C 0.13422 0.27691 0.4596 0.0
C3014 C 0.17096 0.30781 0.44592 0.0
C3015 C 0.17636 0.3172 0.43473 0.0
C3016 C 0.17751 0.3343 0.43336 0.0
C3017 C 0.1725 0.34144 0.44332 0.0
C3018 C 0.167 0.33203 0.45443 0.0
H3019 H 0.1207 0.26561 0.46294 0.0
H3020 H 0.13146 0.28555 0.45326 0.0
H3021 H 0.14118 0.27077 0.4544 0.0
H3022 H 0.17094 0.29504 0.44686 0.0
H3023 H 0.18033 0.31142 0.4273 0.0
H3024 H 0.71466 0.84124 0.53143 0.0
H3025 H 0.70186 0.83825 0.51086 0.0
H3026 H 0.75088 0.88814 0.50012 0.0
H3027 H 0.76401 0.89103 0.52064 0.0
H3028 H 0.69439 0.8631 0.49815 0.0
H3029 H 0.74598 0.85134 0.47357 0.0
H3030 H 0.74319 0.84916 0.48994 0.0
H3031 H 0.75549 0.87138 0.48304 0.0
C3032 C 0.72283 0.8515 0.52467 0.0
C3033 C 0.74044 0.86631 0.52769 0.0
C3034 C 0.71544 0.84982 0.51293 0.0
C3035 C 0.72551 0.86282 0.50389 0.0
C3036 C 0.74298 0.87778 0.50689 0.0
H3037 H 0.69798 0.86862 0.42714 0.0
H3038 H 0.7138 0.8745 0.44698 0.0
C3039 C 0.75038 0.87951 0.51866 0.0
C3040 C 0.71747 0.8608 0.49144 0.0
H3041 H 0.72337 0.85332 0.46153 0.0
C3042 C 0.70073 0.86098 0.49014 0.0
C3043 C 0.72582 0.85815 0.48099 0.0
C3044 C 0.74354 0.85734 0.48189 0.0
C3045 C 0.69211 0.85857 0.47869 0.0
C3046 C 0.70021 0.85547 0.46826 0.0
C3047 C 0.71714 0.85564 0.46952 0.0
C3048 C 0.69099 0.85151 0.45607 0.0
C3049 C 0.67451 0.85961 0.47784 0.0
C3050 C 0.67312 0.83635 0.45448 0.0
C3051 C 0.66408 0.83295 0.44318 0.0
C3052 C 0.67275 0.84455 0.43315 0.0
C3053 C 0.69093 0.85937 0.43464 0.0
C3054 C 0.69996 0.8628 0.44599 0.0
H3055 H 0.67321 0.86727 0.48566 0.0
H3056 H 0.67399 0.86628 0.46922 0.0
H3057 H 0.66232 0.84557 0.47803 0.0
H3058 H 0.66611 0.82714 0.46201 0.0
H3059 H 0.65026 0.82118 0.44229 0.0
H3060 H 0.13259 0.88836 0.52074 0.0
H3061 H 0.1417 0.8853 0.49998 0.0
H3062 H 0.14363 0.83727 0.51095 0.0
H3063 H 0.13466 0.84025 0.53166 0.0
H3064 H 0.17296 0.88493 0.49123 0.0
H3065 H 0.10942 0.81896 0.48126 0.0
H3066 H 0.11109 0.83303 0.49412 0.0
H3067 H 0.12107 0.81842 0.49496 0.0
C3068 C 0.1351 0.87722 0.51877 0.0
C3069 C 0.13268 0.86445 0.52789 0.0
C3070 C 0.14021 0.87544 0.50687 0.0
C3071 C 0.14296 0.86082 0.5038 0.0
C3072 C 0.14108 0.84837 0.51297 0.0
H3073 H 0.1782 0.82203 0.44264 0.0
H3074 H 0.16726 0.82752 0.46199 0.0
C3075 C 0.13595 0.85011 0.52484 0.0
C3076 C 0.148 0.85862 0.4911 0.0
H3077 H 0.13473 0.82822 0.46743 0.0
C3078 C 0.1645 0.87262 0.48597 0.0
C3079 C 0.13694 0.84258 0.48419 0.0
C3080 C 0.11855 0.82746 0.48885 0.0
C3081 C 0.17061 0.8707 0.47437 0.0
C3082 C 0.15978 0.85445 0.4676 0.0
C3083 C 0.14307 0.84064 0.47262 0.0
C3084 C 0.16598 0.8511 0.4556 0.0
C3085 C 0.18896 0.8858 0.46964 0.0
C3086 C 0.16857 0.86229 0.44542 0.0
C3087 C 0.17492 0.85921 0.43429 0.0
C3088 C 0.17881 0.84487 0.43312 0.0
C3089 C 0.17569 0.8334 0.44325 0.0
C3090 C 0.16931 0.83645 0.45432 0.0
H3091 H 0.19743 0.8955 0.47698 0.0
H3092 H 0.19715 0.8801 0.46547 0.0
H3093 H 0.18633 0.89358 0.4625 0.0
H3094 H 0.16576 0.87347 0.44609 0.0
H3095 H 0.1772 0.86834 0.42671 0.0
H3096 H 0.63801 0.83097 0.16593 0.0
H3097 H 0.65053 0.83387 0.18657 0.0
H3098 H 0.59559 0.79611 0.19991 0.0
H3099 H 0.58299 0.79303 0.17923 0.0
H3100 H 0.64268 0.84629 0.20721 0.0
H3101 H 0.62555 0.77444 0.21388 0.0
H3102 H 0.62429 0.78335 0.19914 0.0
H3103 H 0.60586 0.77687 0.21002 0.0
C3104 C 0.62857 0.82328 0.17325 0.0
C3105 C 0.60949 0.81173 0.1709 0.0
C3106 C 0.63576 0.82491 0.18505 0.0
C3107 C 0.62407 0.81503 0.1948 0.0
C3108 C 0.60499 0.80354 0.19251 0.0
H3109 H 0.65888 0.84331 0.27134 0.0
H3110 H 0.64235 0.83749 0.25183 0.0
C3111 C 0.59779 0.80181 0.18068 0.0
C3112 C 0.63187 0.81723 0.20736 0.0
H3113 H 0.6373 0.79396 0.23111 0.0
C3114 C 0.64149 0.83484 0.21244 0.0
C3115 C 0.63047 0.80232 0.21416 0.0
C3116 C 0.62114 0.7832 0.209 0.0
C3117 C 0.64978 0.83797 0.22407 0.0
C3118 C 0.64809 0.82302 0.23096 0.0
C3119 C 0.63844 0.80539 0.2259 0.0
C3120 C 0.65711 0.82551 0.24314 0.0
C3121 C 0.6608 0.85736 0.22868 0.0
C3122 C 0.67036 0.82003 0.24496 0.0
C3123 C 0.67961 0.82306 0.25616 0.0
C3124 C 0.67585 0.83166 0.26584 0.0
C3125 C 0.66211 0.83661 0.26413 0.0
C3126 C 0.6528 0.8335 0.25291 0.0
H3127 H 0.66467 0.86746 0.22116 0.0
H3128 H 0.65224 0.85988 0.23531 0.0
H3129 H 0.6737 0.85978 0.2334 0.0
H3130 H 0.67381 0.81369 0.23761 0.0
H3131 H 0.68978 0.81869 0.2572 0.0
H3132 H 0.19067 0.79923 0.16687 0.0
H3133 H 0.18073 0.80204 0.1874 0.0
H3134 H 0.23733 0.82632 0.2002 0.0
H3135 H 0.24738 0.82343 0.17978 0.0
H3136 H 0.18423 0.7881 0.21007 0.0
H3137 H 0.2226 0.86395 0.21038 0.0
H3138 H 0.21873 0.85085 0.19659 0.0
H3139 H 0.23668 0.85385 0.20714 0.0
C3140 C 0.20101 0.80501 0.17406 0.0
C3141 C 0.21989 0.81126 0.17158 0.0
C3142 C 0.1953 0.80668 0.1858 0.0
C3143 C 0.20832 0.81471 0.19532 0.0
C3144 C 0.22708 0.8205 0.19296 0.0
H3145 H 0.19875 0.84295 0.27099 0.0
H3146 H 0.21002 0.83712 0.25178 0.0
C3147 C 0.2328 0.81884 0.18124 0.0
C3148 C 0.20229 0.81703 0.20769 0.0
H3149 H 0.20795 0.84923 0.2288 0.0
C3150 C 0.18939 0.80146 0.21416 0.0
C3151 C 0.20908 0.83447 0.21307 0.0
C3152 C 0.22241 0.85177 0.20642 0.0
C3153 C 0.18324 0.80284 0.22587 0.0
C3154 C 0.18986 0.8203 0.2312 0.0
C3155 C 0.20291 0.83584 0.22477 0.0
C3156 C 0.1829 0.82282 0.24318 0.0
C3157 C 0.16994 0.78553 0.23252 0.0
C3158 C 0.16391 0.81674 0.24479 0.0
C3159 C 0.15743 0.81995 0.25577 0.0
C3160 C 0.16978 0.8295 0.26541 0.0
C3161 C 0.18879 0.83538 0.26384 0.0
C3162 C 0.19528 0.83217 0.25282 0.0
H3163 H 0.17076 0.7736 0.22905 0.0
H3164 H 0.17279 0.78682 0.24249 0.0
H3165 H 0.15551 0.78271 0.23104 0.0
H3166 H 0.15409 0.80982 0.23745 0.0
H3167 H 0.14268 0.81503 0.25666 0.0
H3168 H 0.20874 0.43757 0.18022 0.0
H3169 H 0.20381 0.42444 0.20072 0.0
H3170 H 0.20099 0.3759 0.18591 0.0
H3171 H 0.20571 0.38882 0.16534 0.0
H3172 H 0.17347 0.39273 0.20919 0.0
H3173 H 0.2375 0.38815 0.21417 0.0
H3174 H 0.23484 0.40173 0.20244 0.0
H3175 H 0.2244 0.37741 0.20059 0.0
C3176 C 0.20707 0.42408 0.18128 0.0
C3177 C 0.20762 0.41429 0.17104 0.0
C3178 C 0.20433 0.41663 0.19305 0.0
C3179 C 0.20224 0.39925 0.19494 0.0
C3180 C 0.20298 0.3895 0.18477 0.0
H3181 H 0.17369 0.32326 0.25495 0.0
H3182 H 0.18321 0.34014 0.23573 0.0
C3183 C 0.2057 0.39694 0.17298 0.0
C3184 C 0.19835 0.39099 0.20742 0.0
H3185 H 0.2139 0.37247 0.22906 0.0
C3186 C 0.18241 0.38845 0.21358 0.0
C3187 C 0.20997 0.38537 0.21318 0.0
C3188 C 0.22773 0.38844 0.20732 0.0
C3189 C 0.17746 0.37996 0.22512 0.0
C3190 C 0.18898 0.37416 0.23083 0.0
C3191 C 0.20506 0.37691 0.22473 0.0
C3192 C 0.18411 0.36443 0.24284 0.0
C3193 C 0.15956 0.37669 0.23087 0.0
C3194 C 0.18187 0.37256 0.25342 0.0
C3195 C 0.17625 0.36284 0.26447 0.0
C3196 C 0.1728 0.34476 0.2652 0.0
C3197 C 0.17581 0.33698 0.2547 0.0
C3198 C 0.1814 0.34669 0.24369 0.0
H3199 H 0.15016 0.37778 0.22409 0.0
H3200 H 0.15205 0.36298 0.23519 0.0
H3201 H 0.16277 0.38711 0.23805 0.0
H3202 H 0.18427 0.38639 0.25311 0.0
H3203 H 0.17407 0.36929 0.27233 0.0
H3204 H 0.83025 0.61564 0.86484 0.0
H3205 H 0.83874 0.62851 0.84426 0.0
H3206 H 0.78173 0.59538 0.83262 0.0
H3207 H 0.773 0.5829 0.85324 0.0
H3208 H 0.83523 0.61125 0.82187 0.0
H3209 H 0.79372 0.64628 0.82173 0.0
H3210 H 0.79847 0.63759 0.83553 0.0
H3211 H 0.78064 0.62231 0.82515 0.0
C3212 C 0.81945 0.61121 0.85796 0.0
C3213 C 0.80089 0.59825 0.8608 0.0
C3214 C 0.82436 0.61851 0.84615 0.0
C3215 C 0.81085 0.61316 0.83689 0.0
C3216 C 0.79238 0.60002 0.83963 0.0
H3217 H 0.81735 0.64982 0.7609 0.0
H3218 H 0.8068 0.6328 0.78016 0.0
C3219 C 0.78745 0.5927 0.85143 0.0
C3220 C 0.81613 0.6212 0.82438 0.0
H3221 H 0.80833 0.64647 0.80319 0.0
C3222 C 0.82936 0.61897 0.8178 0.0
C3223 C 0.8084 0.63119 0.81899 0.0
C3224 C 0.79464 0.63466 0.82573 0.0
C3225 C 0.83499 0.62634 0.80601 0.0
C3226 C 0.82749 0.63659 0.80069 0.0
C3227 C 0.81406 0.63859 0.80721 0.0
C3228 C 0.83401 0.64606 0.78867 0.0
C3229 C 0.84873 0.62283 0.79928 0.0
C3230 C 0.85281 0.65919 0.78697 0.0
C3231 C 0.85889 0.66883 0.77596 0.0
C3232 C 0.8463 0.66577 0.76636 0.0
C3233 C 0.82749 0.65242 0.76801 0.0
C3234 C 0.8214 0.64276 0.77906 0.0
H3235 H 0.84854 0.61036 0.80274 0.0
H3236 H 0.84579 0.62125 0.78932 0.0
H3237 H 0.86296 0.63456 0.80071 0.0
H3238 H 0.8628 0.6623 0.79427 0.0
H3239 H 0.87351 0.67883 0.77502 0.0
H3240 H 0.42427 0.18803 0.85286 0.0
H3241 H 0.41106 0.18502 0.83242 0.0
H3242 H 0.38124 0.21162 0.84471 0.0
H3243 H 0.39424 0.21453 0.86522 0.0
H3244 H 0.37367 0.16652 0.82575 0.0
H3245 H 0.40643 0.23991 0.81356 0.0
H3246 H 0.4145 0.23185 0.82616 0.0
H3247 H 0.3942 0.2341 0.82783 0.0
C3248 C 0.41487 0.19322 0.85125 0.0
C3249 C 0.41033 0.20152 0.86074 0.0
C3250 C 0.40741 0.19157 0.83953 0.0
C3251 C 0.39535 0.1983 0.83697 0.0
C3252 C 0.39084 0.20668 0.84638 0.0
H3253 H 0.32875 0.19568 0.77512 0.0
H3254 H 0.34496 0.20064 0.79464 0.0
C3255 C 0.3983 0.20834 0.85812 0.0
C3256 C 0.38686 0.19581 0.82461 0.0
H3257 H 0.38255 0.2189 0.80031 0.0
C3258 C 0.37572 0.17797 0.82015 0.0
C3259 C 0.38951 0.21076 0.81731 0.0
C3260 C 0.40194 0.23025 0.82138 0.0
C3261 C 0.36678 0.17465 0.80873 0.0
C3262 C 0.36934 0.1896 0.80145 0.0
C3263 C 0.3806 0.20745 0.80588 0.0
C3264 C 0.36001 0.18697 0.78937 0.0
C3265 C 0.3542 0.15514 0.80475 0.0
C3266 C 0.36333 0.17793 0.77979 0.0
C3267 C 0.35393 0.17492 0.76862 0.0
C3268 C 0.34109 0.18097 0.76677 0.0
C3269 C 0.33825 0.1905 0.77628 0.0
C3270 C 0.34762 0.19348 0.78743 0.0
H3271 H 0.35005 0.14548 0.81256 0.0
H3272 H 0.34143 0.1535 0.80027 0.0
H3273 H 0.36167 0.15128 0.79807 0.0
H3274 H 0.3731 0.17309 0.78098 0.0
H3275 H 0.35643 0.16747 0.76154 0.0
H3276 H 0.80984 0.18077 0.86601 0.0
H3277 H 0.81941 0.17827 0.84535 0.0
H3278 H 0.79992 0.21376 0.83193 0.0
H3279 H 0.79035 0.21638 0.85261 0.0
H3280 H 0.79879 0.16484 0.82467 0.0
H3281 H 0.85187 0.23769 0.81776 0.0
H3282 H 0.84206 0.22855 0.83254 0.0
H3283 H 0.82926 0.23401 0.82167 0.0
C3284 C 0.80755 0.18804 0.85868 0.0
C3285 C 0.79934 0.19882 0.86102 0.0
C3286 C 0.81309 0.18663 0.84685 0.0
C3287 C 0.81064 0.196 0.83706 0.0
C3288 C 0.80239 0.20673 0.83934 0.0
H3289 H 0.81818 0.16836 0.76043 0.0
H3290 H 0.80688 0.17361 0.77981 0.0
C3291 C 0.7969 0.20821 0.8512 0.0
C3292 C 0.81631 0.19409 0.82446 0.0
H3293 H 0.8446 0.21816 0.80063 0.0
C3294 C 0.80878 0.17651 0.81941 0.0
C3295 C 0.82949 0.20929 0.8176 0.0
C3296 C 0.83879 0.22844 0.82269 0.0
C3297 C 0.81407 0.17369 0.80777 0.0
C3298 C 0.82702 0.18891 0.80083 0.0
C3299 C 0.83453 0.2065 0.80587 0.0
C3300 C 0.83384 0.18677 0.78868 0.0
C3301 C 0.8062 0.15437 0.80321 0.0
C3302 C 0.85286 0.19308 0.78698 0.0
C3303 C 0.85938 0.19033 0.77587 0.0
C3304 C 0.84706 0.18119 0.76613 0.0
C3305 C 0.82809 0.17546 0.76769 0.0
C3306 C 0.82156 0.17826 0.77884 0.0
H3307 H 0.80013 0.14424 0.81073 0.0
H3308 H 0.79498 0.15134 0.79648 0.0
H3309 H 0.81707 0.15256 0.79861 0.0
H3310 H 0.86266 0.19984 0.79437 0.0
H3311 H 0.87413 0.19529 0.77495 0.0
H3312 H 0.29165 0.13183 0.50076 0.0
H3313 H 0.30474 0.13438 0.52121 0.0
H3314 H 0.27112 0.1562 0.53479 0.0
H3315 H 0.25748 0.1531 0.5145 0.0
H3316 H 0.32494 0.16565 0.53473 0.0
H3317 H 0.2614 0.11717 0.56003 0.0
H3318 H 0.26242 0.11783 0.54356 0.0
H3319 H 0.2591 0.13435 0.55182 0.0
C3320 C 0.28676 0.13684 0.50814 0.0
C3321 C 0.27346 0.14223 0.50595 0.0
C3322 C 0.29436 0.13841 0.51982 0.0
C3323 C 0.28876 0.14526 0.5296 0.0
C3324 C 0.27542 0.15055 0.52747 0.0
H3325 H 0.32683 0.17564 0.60479 0.0
H3326 H 0.31071 0.16986 0.58509 0.0
C3327 C 0.2678 0.14898 0.5158 0.0
C3328 C 0.29756 0.14775 0.54185 0.0
H3329 H 0.28824 0.13618 0.572 0.0
C3330 C 0.31692 0.1591 0.54286 0.0
C3331 C 0.28709 0.13929 0.55249 0.0
C3332 C 0.26638 0.12634 0.55195 0.0
C3333 C 0.32605 0.16243 0.55419 0.0
C3334 C 0.31559 0.15398 0.56482 0.0
C3335 C 0.29623 0.14267 0.56385 0.0
C3336 C 0.32462 0.1566 0.57699 0.0
C3337 C 0.34679 0.17529 0.55474 0.0
C3338 C 0.33743 0.15065 0.57909 0.0
C3339 C 0.34656 0.15381 0.59035 0.0
C3340 C 0.34308 0.16298 0.5998 0.0
C3341 C 0.32979 0.16843 0.59778 0.0
C3342 C 0.32062 0.16522 0.5865 0.0
H3343 H 0.35198 0.18402 0.54647 0.0
H3344 H 0.35065 0.18424 0.56291 0.0
H3345 H 0.35396 0.1672 0.55538 0.0
H3346 H 0.34043 0.14361 0.57198 0.0
H3347 H 0.35637 0.14904 0.59164 0.0
H3348 H 0.91392 0.15984 0.51247 0.0
H3349 H 0.90357 0.16228 0.5329 0.0
H3350 H 0.84657 0.1336 0.52058 0.0
H3351 H 0.85679 0.1312 0.50008 0.0
H3352 H 0.88424 0.17937 0.53992 0.0
H3353 H 0.84392 0.10575 0.5516 0.0
H3354 H 0.85989 0.11428 0.53892 0.0
H3355 H 0.83697 0.11137 0.53745 0.0
C3356 C 0.89916 0.15407 0.51406 0.0
C3357 C 0.88621 0.14532 0.50455 0.0
C3358 C 0.89326 0.15541 0.5258 0.0
C3359 C 0.87427 0.14792 0.52837 0.0
C3360 C 0.86128 0.13912 0.51893 0.0
H3361 H 0.80885 0.14814 0.5897 0.0
H3362 H 0.82067 0.14358 0.57042 0.0
C3363 C 0.86716 0.13776 0.50718 0.0
C3364 C 0.86815 0.15002 0.54078 0.0
H3365 H 0.84049 0.12614 0.56489 0.0
C3366 C 0.87479 0.16772 0.54542 0.0
C3367 C 0.85581 0.13484 0.54799 0.0
C3368 C 0.84885 0.11548 0.54381 0.0
C3369 C 0.86905 0.17066 0.55686 0.0
C3370 C 0.85657 0.15549 0.56402 0.0
C3371 C 0.85006 0.13778 0.55943 0.0
C3372 C 0.84954 0.15772 0.57606 0.0
C3373 C 0.87593 0.19004 0.56099 0.0
C3374 C 0.86174 0.16685 0.58582 0.0
C3375 C 0.85502 0.1696 0.59689 0.0
C3376 C 0.83591 0.16325 0.59845 0.0
C3377 C 0.82369 0.15356 0.58878 0.0
C3378 C 0.83041 0.15081 0.57775 0.0
H3379 H 0.88164 0.19988 0.55329 0.0
H3380 H 0.86459 0.19134 0.56534 0.0
H3381 H 0.8872 0.19392 0.56783 0.0
H3382 H 0.87652 0.17199 0.58485 0.0
H3383 H 0.86485 0.17714 0.6041 0.0
H3384 H 0.84079 0.73271 0.50315 0.0
H3385 H 0.83608 0.71964 0.52361 0.0
H3386 H 0.89535 0.74362 0.52817 0.0
H3387 H 0.90024 0.75716 0.5077 0.0
H3388 H 0.84702 0.6952 0.53278 0.0
H3389 H 0.87964 0.76004 0.55926 0.0
H3390 H 0.87294 0.75897 0.54344 0.0
H3391 H 0.89359 0.75829 0.5474 0.0
C3392 C 0.85288 0.73543 0.50852 0.0
C3393 C 0.87093 0.74619 0.50376 0.0
C3394 C 0.85014 0.72782 0.52023 0.0
C3395 C 0.86535 0.73084 0.52755 0.0
C3396 C 0.8834 0.74135 0.5228 0.0
H3397 H 0.86438 0.69177 0.60264 0.0
H3398 H 0.87457 0.70757 0.58289 0.0
C3399 C 0.88616 0.74893 0.51103 0.0
C3400 C 0.86205 0.72251 0.53998 0.0
H3401 H 0.86798 0.73266 0.57051 0.0
C3402 C 0.85167 0.70341 0.54102 0.0
C3403 C 0.86823 0.73318 0.55077 0.0
C3404 C 0.87911 0.75377 0.55025 0.0
C3405 C 0.84715 0.6947 0.55247 0.0
C3406 C 0.85274 0.70536 0.56328 0.0
C3407 C 0.86359 0.72447 0.56226 0.0
C3408 C 0.84674 0.69687 0.57563 0.0
C3409 C 0.83654 0.67409 0.55286 0.0
C3410 C 0.82773 0.68614 0.57834 0.0
C3411 C 0.82191 0.67712 0.58956 0.0
C3412 C 0.83494 0.67873 0.59847 0.0
C3413 C 0.85398 0.69024 0.59601 0.0
C3414 C 0.85982 0.69922 0.58469 0.0
H3415 H 0.83843 0.66813 0.54432 0.0
H3416 H 0.84101 0.66885 0.56071 0.0
H3417 H 0.82148 0.66924 0.55382 0.0
H3418 H 0.81733 0.68454 0.57169 0.0
H3419 H 0.80713 0.66871 0.59124 0.0
loop_
_geom_bond_atom_site_label_1
_geom_bond_atom_site_label_2
_geom_bond_distance
_geom_bond_site_symmetry_2
_ccdc_geom_bond_type
C0 C1 1.264 . S
C0 C5 1.479 . S
C0 C10 1.465 . S
C1 C0 1.264 . S
C1 C3 1.339 . S
C1 H28 0.931 . S
C2 C3 1.395 . S
C2 C4 1.320 . S
C3 C1 1.339 . S
C3 C2 1.395 . S
C3 H29 0.929 . S
C4 C2 1.320 . S
C4 C5 1.405 . S
C4 H30 0.930 . S
C5 C0 1.479 . S
C5 C4 1.405 . S
C5 H31 0.931 . S
U6 O7 2.454 . S
U6 O8 2.458 . S
U6 C9 2.984 . S
U6 C10 2.847 . S
U6 C23 2.882 . S
U6 O24 2.441 . S
U6 O25 2.420 . S
U6 O26 2.455 . S
U6 O27 2.449 . S
O7 U6 2.454 . S
O7 C9 1.353 . S
O8 U6 2.458 . S
O8 C9 1.286 . S
C9 U6 2.984 . S
C9 O7 1.353 . S
C9 O8 1.286 . S
C9 C11 1.363 . S
C10 C0 1.465 . S
C10 U6 2.847 . S
C10 O24 1.249 . S
C10 O25 1.202 . S
C11 C9 1.363 . S
C11 C13 1.408 . S
C11 C16 1.342 . S
C12 C13 1.310 . S
C12 C15 1.461 . S
C12 H32 0.932 . S
C13 C11 1.408 . S
C13 C12 1.310 . S
C13 H33 0.930 . S
C14 C15 1.474 . S
C14 C16 1.285 . S
C14 H34 0.929 . S
C15 C12 1.461 . S
C15 C14 1.474 . S
C16 C11 1.342 . S
C16 C14 1.285 . S
C16 H35 0.930 . S
C17 C20 1.424 . S
C17 C22 1.245 . S
C17 C23 1.428 . S
C18 C21 1.260 . S
C18 C22 1.477 . S
C18 H36 0.932 . S
C19 C20 1.384 . S
C19 C21 1.479 . S
C19 H37 0.929 . S
C20 C17 1.424 . S
C20 C19 1.384 . S
C20 H38 0.928 . S
C21 C18 1.260 . S
C21 C19 1.479 . S
C22 C17 1.245 . S
C22 C18 1.477 . S
C22 H39 0.932 . S
C23 U6 2.882 . S
C23 C17 1.428 . S
C23 O26 1.301 . S
C23 O27 1.282 . S
O24 U6 2.441 . S
O24 C10 1.249 . S
O25 U6 2.420 . S
O25 C10 1.202 . S
O26 U6 2.455 . S
O26 C23 1.301 . S
O27 U6 2.449 . S
O27 C23 1.282 . S
H28 C1 0.931 . S
H29 C3 0.929 . S
H30 C4 0.930 . S
H31 C5 0.931 . S
H32 C12 0.932 . S
H33 C13 0.930 . S
H34 C14 0.929 . S
H35 C16 0.930 . S
H36 C18 0.932 . S
H37 C19 0.929 . S
H38 C20 0.928 . S
H39 C22 0.932 . S
C40 C41 1.264 . S
C40 C45 1.479 . S
C40 C50 1.465 . S
C41 C40 1.264 . S
C41 C43 1.339 . S
C41 H68 0.931 . S
C42 C43 1.395 . S
C42 C44 1.320 . S
C43 C41 1.339 . S
C43 C42 1.395 . S
C43 H69 0.929 . S
C44 C42 1.320 . S
C44 C45 1.405 . S
C44 H70 0.930 . S
C45 C40 1.479 . S
C45 C44 1.405 . S
C45 H71 0.931 . S
U46 O47 2.454 . S
U46 O48 2.458 . S
U46 C49 2.984 . S
U46 C50 2.847 . S
U46 C63 2.882 . S
U46 O64 2.441 . S
U46 O65 2.420 . S
U46 O66 2.455 . S
U46 O67 2.449 . S
O47 U46 2.454 . S
O47 C49 1.353 . S
O48 U46 2.458 . S
O48 C49 1.286 . S
C49 U46 2.984 . S
C49 O47 1.353 . S
C49 O48 1.286 . S
C49 C51 1.363 . S
C50 C40 1.465 . S
C50 U46 2.847 . S
C50 O64 1.249 . S
C50 O65 1.202 . S
C51 C49 1.363 . S
C51 C53 1.408 . S
C51 C56 1.342 . S
C52 C53 1.310 . S
C52 C55 1.461 . S
C52 H72 0.932 . S
C53 C51 1.408 . S
C53 C52 1.310 . S
C53 H73 0.930 . S
C54 C55 1.474 . S
C54 C56 1.285 . S
C54 H74 0.929 . S
C55 C52 1.461 . S
C55 C54 1.474 . S
C56 C51 1.342 . S
C56 C54 1.285 . S
C56 H75 0.930 . S
C57 C60 1.424 . S
C57 C62 1.245 . S
C57 C63 1.428 . S
C58 C61 1.260 . S
C58 C62 1.477 . S
C58 H76 0.932 . S
C59 C60 1.384 . S
C59 C61 1.479 . S
C59 H77 0.929 . S
C60 C57 1.424 . S
C60 C59 1.384 . S
C60 H78 0.928 . S
C61 C58 1.260 . S
C61 C59 1.479 . S
C62 C57 1.245 . S
C62 C58 1.477 . S
C62 H79 0.932 . S
C63 U46 2.882 . S
C63 C57 1.428 . S
C63 O66 1.301 . S
C63 O67 1.282 . S
O64 U46 2.441 . S
O64 C50 1.249 . S
O65 U46 2.420 . S
O65 C50 1.202 . S
O66 U46 2.455 . S
O66 C63 1.301 . S
O67 U46 2.449 . S
O67 C63 1.282 . S
H68 C41 0.931 . S
H69 C43 0.929 . S
H70 C44 0.930 . S
H71 C45 0.931 . S
H72 C52 0.932 . S
H73 C53 0.930 . S
H74 C54 0.929 . S
H75 C56 0.930 . S
H76 C58 0.932 . S
H77 C59 0.929 . S
H78 C60 0.928 . S
H79 C62 0.932 . S
C80 C81 1.264 . S
C80 C85 1.479 . S
C80 C90 1.465 . S
C81 C80 1.264 . S
C81 C83 1.339 . S
C81 H108 0.931 . S
C82 C83 1.395 . S
C82 C84 1.320 . S
C83 C81 1.339 . S
C83 C82 1.395 . S
C83 H109 0.929 . S
C84 C82 1.320 . S
C84 C85 1.405 . S
C84 H110 0.930 . S
C85 C80 1.479 . S
C85 C84 1.405 . S
C85 H111 0.931 . S
U86 O87 2.454 . S
U86 O88 2.458 . S
U86 C89 2.984 . S
U86 C90 2.847 . S
U86 C103 2.882 . S
U86 O104 2.441 . S
U86 O105 2.420 . S
U86 O106 2.455 . S
U86 O107 2.449 . S
O87 U86 2.454 . S
O87 C89 1.353 . S
O88 U86 2.458 . S
O88 C89 1.286 . S
C89 U86 2.984 . S
C89 O87 1.353 . S
C89 O88 1.286 . S
C89 C91 1.363 . S
C90 C80 1.465 . S
C90 U86 2.847 . S
C90 O104 1.249 . S
C90 O105 1.202 . S
C91 C89 1.363 . S
C91 C93 1.408 . S
C91 C96 1.342 . S
C92 C93 1.310 . S
C92 C95 1.461 . S
C92 H112 0.932 . S
C93 C91 1.408 . S
C93 C92 1.310 . S
C93 H113 0.930 . S
C94 C95 1.474 . S
C94 C96 1.285 . S
C94 H114 0.929 . S
C95 C92 1.461 . S
C95 C94 1.474 . S
C96 C91 1.342 . S
C96 C94 1.285 . S
C96 H115 0.930 . S
C97 C100 1.424 . S
C97 C102 1.245 . S
C97 C103 1.428 . S
C98 C101 1.260 . S
C98 C102 1.477 . S
C98 H116 0.932 . S
C99 C100 1.384 . S
C99 C101 1.479 . S
C99 H117 0.929 . S
C100 C97 1.424 . S
C100 C99 1.384 . S
C100 H118 0.928 . S
C101 C98 1.260 . S
C101 C99 1.479 . S
C102 C97 1.245 . S
C102 C98 1.477 . S
C102 H119 0.932 . S
C103 U86 2.882 . S
C103 C97 1.428 . S
C103 O106 1.301 . S
C103 O107 1.282 . S
O104 U86 2.441 . S
O104 C90 1.249 . S
O105 U86 2.420 . S
O105 C90 1.202 . S
O106 U86 2.455 . S
O106 C103 1.301 . S
O107 U86 2.449 . S
O107 C103 1.282 . S
H108 C81 0.931 . S
H109 C83 0.929 . S
H110 C84 0.930 . S
H111 C85 0.931 . S
H112 C92 0.932 . S
H113 C93 0.930 . S
H114 C94 0.929 . S
H115 C96 0.930 . S
H116 C98 0.932 . S
H117 C99 0.929 . S
H118 C100 0.928 . S
H119 C102 0.932 . S
C120 C121 1.264 . S
C120 C125 1.479 . S
C120 C130 1.465 . S
C121 C120 1.264 . S
C121 C123 1.339 . S
C121 H148 0.931 . S
C122 C123 1.395 . S
C122 C124 1.320 . S
C123 C121 1.339 . S
C123 C122 1.395 . S
C123 H149 0.929 . S
C124 C122 1.320 . S
C124 C125 1.405 . S
C124 H150 0.930 . S
C125 C120 1.479 . S
C125 C124 1.405 . S
C125 H151 0.931 . S
U126 O127 2.454 . S
U126 O128 2.458 . S
U126 C129 2.984 . S
U126 C130 2.847 . S
U126 C143 2.882 . S
U126 O144 2.441 . S
U126 O145 2.420 . S
U126 O146 2.455 . S
U126 O147 2.449 . S
O127 U126 2.454 . S
O127 C129 1.353 . S
O128 U126 2.458 . S
O128 C129 1.286 . S
C129 U126 2.984 . S
C129 O127 1.353 . S
C129 O128 1.286 . S
C129 C131 1.363 . S
C130 C120 1.465 . S
C130 U126 2.847 . S
C130 O144 1.249 . S
C130 O145 1.202 . S
C131 C129 1.363 . S
C131 C133 1.408 . S
C131 C136 1.342 . S
C132 C133 1.310 . S
C132 C135 1.461 . S
C132 H152 0.932 . S
C133 C131 1.408 . S
C133 C132 1.310 . S
C133 H153 0.930 . S
C134 C135 1.474 . S
C134 C136 1.285 . S
C134 H154 0.929 . S
C135 C132 1.461 . S
C135 C134 1.474 . S
C136 C131 1.342 . S
C136 C134 1.285 . S
C136 H155 0.930 . S
C137 C140 1.424 . S
C137 C142 1.245 . S
C137 C143 1.428 . S
C138 C141 1.260 . S
C138 C142 1.477 . S
C138 H156 0.932 . S
C139 C140 1.384 . S
C139 C141 1.479 . S
C139 H157 0.929 . S
C140 C137 1.424 . S
C140 C139 1.384 . S
C140 H158 0.928 . S
C141 C138 1.260 . S
C141 C139 1.479 . S
C142 C137 1.245 . S
C142 C138 1.477 . S
C142 H159 0.932 . S
C143 U126 2.882 . S
C143 C137 1.428 . S
C143 O146 1.301 . S
C143 O147 1.282 . S
O144 U126 2.441 . S
O144 C130 1.249 . S
O145 U126 2.420 . S
O145 C130 1.202 . S
O146 U126 2.455 . S
O146 C143 1.301 . S
O147 U126 2.449 . S
O147 C143 1.282 . S
H148 C121 0.931 . S
H149 C123 0.929 . S
H150 C124 0.930 . S
H151 C125 0.931 . S
H152 C132 0.932 . S
H153 C133 0.930 . S
H154 C134 0.929 . S
H155 C136 0.930 . S
H156 C138 0.932 . S
H157 C139 0.929 . S
H158 C140 0.928 . S
H159 C142 0.932 . S
C160 C161 1.264 . S
C160 C165 1.479 . S
C160 C170 1.465 . S
C161 C160 1.264 . S
C161 C163 1.339 . S
C161 H188 0.931 . S
C162 C163 1.395 . S
C162 C164 1.320 . S
C163 C161 1.339 . S
C163 C162 1.395 . S
C163 H189 0.929 . S
C164 C162 1.320 . S
C164 C165 1.405 . S
C164 H190 0.930 . S
C165 C160 1.479 . S
C165 C164 1.405 . S
C165 H191 0.931 . S
U166 O167 2.454 . S
U166 O168 2.458 . S
U166 C169 2.984 . S
U166 C170 2.847 . S
U166 C183 2.882 . S
U166 O184 2.441 . S
U166 O185 2.420 . S
U166 O186 2.455 . S
U166 O187 2.449 . S
O167 U166 2.454 . S
O167 C169 1.353 . S
O168 U166 2.458 . S
O168 C169 1.286 . S
C169 U166 2.984 . S
C169 O167 1.353 . S
C169 O168 1.286 . S
C169 C171 1.363 . S
C170 C160 1.465 . S
C170 U166 2.847 . S
C170 O184 1.249 . S
C170 O185 1.202 . S
C171 C169 1.363 . S
C171 C173 1.408 . S
C171 C176 1.342 . S
C172 C173 1.310 . S
C172 C175 1.461 . S
C172 H192 0.932 . S
C173 C171 1.408 . S
C173 C172 1.310 . S
C173 H193 0.930 . S
C174 C175 1.474 . S
C174 C176 1.285 . S
C174 H194 0.929 . S
C175 C172 1.461 . S
C175 C174 1.474 . S
C176 C171 1.342 . S
C176 C174 1.285 . S
C176 H195 0.930 . S
C177 C180 1.424 . S
C177 C182 1.245 . S
C177 C183 1.428 . S
C178 C181 1.260 . S
C178 C182 1.477 . S
C178 H196 0.932 . S
C179 C180 1.384 . S
C179 C181 1.479 . S
C179 H197 0.929 . S
C180 C177 1.424 . S
C180 C179 1.384 . S
C180 H198 0.928 . S
C181 C178 1.260 . S
C181 C179 1.479 . S
C182 C177 1.245 . S
C182 C178 1.477 . S
C182 H199 0.932 . S
C183 U166 2.882 . S
C183 C177 1.428 . S
C183 O186 1.301 . S
C183 O187 1.282 . S
O184 U166 2.441 . S
O184 C170 1.249 . S
O185 U166 2.420 . S
O185 C170 1.202 . S
O186 U166 2.455 . S
O186 C183 1.301 . S
O187 U166 2.449 . S
O187 C183 1.282 . S
H188 C161 0.931 . S
H189 C163 0.929 . S
H190 C164 0.930 . S
H191 C165 0.931 . S
H192 C172 0.932 . S
H193 C173 0.930 . S
H194 C174 0.929 . S
H195 C176 0.930 . S
H196 C178 0.932 . S
H197 C179 0.929 . S
H198 C180 0.928 . S
H199 C182 0.932 . S
C200 C201 1.264 . S
C200 C205 1.479 . S
C200 C210 1.465 . S
C201 C200 1.264 . S
C201 C203 1.339 . S
C201 H228 0.931 . S
C202 C203 1.395 . S
C202 C204 1.320 . S
C203 C201 1.339 . S
C203 C202 1.395 . S
C203 H229 0.929 . S
C204 C202 1.320 . S
C204 C205 1.405 . S
C204 H230 0.930 . S
C205 C200 1.479 . S
C205 C204 1.405 . S
C205 H231 0.931 . S
U206 O207 2.454 . S
U206 O208 2.458 . S
U206 C209 2.984 . S
U206 C210 2.847 . S
U206 C223 2.882 . S
U206 O224 2.441 . S
U206 O225 2.420 . S
U206 O226 2.455 . S
U206 O227 2.449 . S
O207 U206 2.454 . S
O207 C209 1.353 . S
O208 U206 2.458 . S
O208 C209 1.286 . S
C209 U206 2.984 . S
C209 O207 1.353 . S
C209 O208 1.286 . S
C209 C211 1.363 . S
C210 C200 1.465 . S
C210 U206 2.847 . S
C210 O224 1.249 . S
C210 O225 1.202 . S
C211 C209 1.363 . S
C211 C213 1.408 . S
C211 C216 1.342 . S
C212 C213 1.310 . S
C212 C215 1.461 . S
C212 H232 0.932 . S
C213 C211 1.408 . S
C213 C212 1.310 . S
C213 H233 0.930 . S
C214 C215 1.474 . S
C214 C216 1.285 . S
C214 H234 0.929 . S
C215 C212 1.461 . S
C215 C214 1.474 . S
C216 C211 1.342 . S
C216 C214 1.285 . S
C216 H235 0.930 . S
C217 C220 1.424 . S
C217 C222 1.245 . S
C217 C223 1.428 . S
C218 C221 1.260 . S
C218 C222 1.477 . S
C218 H236 0.932 . S
C219 C220 1.384 . S
C219 C221 1.479 . S
C219 H237 0.929 . S
C220 C217 1.424 . S
C220 C219 1.384 . S
C220 H238 0.928 . S
C221 C218 1.260 . S
C221 C219 1.479 . S
C222 C217 1.245 . S
C222 C218 1.477 . S
C222 H239 0.932 . S
C223 U206 2.882 . S
C223 C217 1.428 . S
C223 O226 1.301 . S
C223 O227 1.282 . S
O224 U206 2.441 . S
O224 C210 1.249 . S
O225 U206 2.420 . S
O225 C210 1.202 . S
O226 U206 2.455 . S
O226 C223 1.301 . S
O227 U206 2.449 . S
O227 C223 1.282 . S
H228 C201 0.931 . S
H229 C203 0.929 . S
H230 C204 0.930 . S
H231 C205 0.931 . S
H232 C212 0.932 . S
H233 C213 0.930 . S
H234 C214 0.929 . S
H235 C216 0.930 . S
H236 C218 0.932 . S
H237 C219 0.929 . S
H238 C220 0.928 . S
H239 C222 0.932 . S
C240 C241 1.264 . S
C240 C245 1.479 . S
C240 C250 1.465 . S
C241 C240 1.264 . S
C241 C243 1.339 . S
C241 H268 0.931 . S
C242 C243 1.395 . S
C242 C244 1.320 . S
C243 C241 1.339 . S
C243 C242 1.395 . S
C243 H269 0.929 . S
C244 C242 1.320 . S
C244 C245 1.405 . S
C244 H270 0.930 . S
C245 C240 1.479 . S
C245 C244 1.405 . S
C245 H271 0.931 . S
U246 O247 2.454 . S
U246 O248 2.458 . S
U246 C249 2.984 . S
U246 C250 2.847 . S
U246 C263 2.882 . S
U246 O264 2.441 . S
U246 O265 2.420 . S
U246 O266 2.455 . S
U246 O267 2.449 . S
O247 U246 2.454 . S
O247 C249 1.353 . S
O248 U246 2.458 . S
O248 C249 1.286 . S
C249 U246 2.984 . S
C249 O247 1.353 . S
C249 O248 1.286 . S
C249 C251 1.363 . S
C250 C240 1.465 . S
C250 U246 2.847 . S
C250 O264 1.249 . S
C250 O265 1.202 . S
C251 C249 1.363 . S
C251 C253 1.408 . S
C251 C256 1.342 . S
C252 C253 1.310 . S
C252 C255 1.461 . S
C252 H272 0.932 . S
C253 C251 1.408 . S
C253 C252 1.310 . S
C253 H273 0.930 . S
C254 C255 1.474 . S
C254 C256 1.285 . S
C254 H274 0.929 . S
C255 C252 1.461 . S
C255 C254 1.474 . S
C256 C251 1.342 . S
C256 C254 1.285 . S
C256 H275 0.930 . S
C257 C260 1.424 . S
C257 C262 1.245 . S
C257 C263 1.428 . S
C258 C261 1.260 . S
C258 C262 1.477 . S
C258 H276 0.932 . S
C259 C260 1.384 . S
C259 C261 1.479 . S
C259 H277 0.929 . S
C260 C257 1.424 . S
C260 C259 1.384 . S
C260 H278 0.928 . S
C261 C258 1.260 . S
C261 C259 1.479 . S
C262 C257 1.245 . S
C262 C258 1.477 . S
C262 H279 0.932 . S
C263 U246 2.882 . S
C263 C257 1.428 . S
C263 O266 1.301 . S
C263 O267 1.282 . S
O264 U246 2.441 . S
O264 C250 1.249 . S
O265 U246 2.420 . S
O265 C250 1.202 . S
O266 U246 2.455 . S
O266 C263 1.301 . S
O267 U246 2.449 . S
O267 C263 1.282 . S
H268 C241 0.931 . S
H269 C243 0.929 . S
H270 C244 0.930 . S
H271 C245 0.931 . S
H272 C252 0.932 . S
H273 C253 0.930 . S
H274 C254 0.929 . S
H275 C256 0.930 . S
H276 C258 0.932 . S
H277 C259 0.929 . S
H278 C260 0.928 . S
H279 C262 0.932 . S
C280 C281 1.264 . S
C280 C285 1.479 . S
C280 C290 1.465 . S
C281 C280 1.264 . S
C281 C283 1.339 . S
C281 H308 0.931 . S
C282 C283 1.395 . S
C282 C284 1.320 . S
C283 C281 1.339 . S
C283 C282 1.395 . S
C283 H309 0.929 . S
C284 C282 1.320 . S
C284 C285 1.405 . S
C284 H310 0.930 . S
C285 C280 1.479 . S
C285 C284 1.405 . S
C285 H311 0.931 . S
U286 O287 2.454 . S
U286 O288 2.458 . S
U286 C289 2.984 . S
U286 C290 2.847 . S
U286 C303 2.882 . S
U286 O304 2.441 . S
U286 O305 2.420 . S
U286 O306 2.455 . S
U286 O307 2.449 . S
O287 U286 2.454 . S
O287 C289 1.353 . S
O288 U286 2.458 . S
O288 C289 1.286 . S
C289 U286 2.984 . S
C289 O287 1.353 . S
C289 O288 1.286 . S
C289 C291 1.363 . S
C290 C280 1.465 . S
C290 U286 2.847 . S
C290 O304 1.249 . S
C290 O305 1.202 . S
C291 C289 1.363 . S
C291 C293 1.408 . S
C291 C296 1.342 . S
C292 C293 1.310 . S
C292 C295 1.461 . S
C292 H312 0.932 . S
C293 C291 1.408 . S
C293 C292 1.310 . S
C293 H313 0.930 . S
C294 C295 1.474 . S
C294 C296 1.285 . S
C294 H314 0.929 . S
C295 C292 1.461 . S
C295 C294 1.474 . S
C296 C291 1.342 . S
C296 C294 1.285 . S
C296 H315 0.930 . S
C297 C300 1.424 . S
C297 C302 1.245 . S
C297 C303 1.428 . S
C298 C301 1.260 . S
C298 C302 1.477 . S
C298 H316 0.932 . S
C299 C300 1.384 . S
C299 C301 1.479 . S
C299 H317 0.929 . S
C300 C297 1.424 . S
C300 C299 1.384 . S
C300 H318 0.928 . S
C301 C298 1.260 . S
C301 C299 1.479 . S
C302 C297 1.245 . S
C302 C298 1.477 . S
C302 H319 0.932 . S
C303 U286 2.882 . S
C303 C297 1.428 . S
C303 O306 1.301 . S
C303 O307 1.282 . S
O304 U286 2.441 . S
O304 C290 1.249 . S
O305 U286 2.420 . S
O305 C290 1.202 . S
O306 U286 2.455 . S
O306 C303 1.301 . S
O307 U286 2.449 . S
O307 C303 1.282 . S
H308 C281 0.931 . S
H309 C283 0.929 . S
H310 C284 0.930 . S
H311 C285 0.931 . S
H312 C292 0.932 . S
H313 C293 0.930 . S
H314 C294 0.929 . S
H315 C296 0.930 . S
H316 C298 0.932 . S
H317 C299 0.929 . S
H318 C300 0.928 . S
H319 C302 0.932 . S
C320 C321 1.264 . S
C320 C325 1.479 . S
C320 C330 1.465 . S
C321 C320 1.264 . S
C321 C323 1.339 . S
C321 H348 0.931 . S
C322 C323 1.395 . S
C322 C324 1.320 . S
C323 C321 1.339 . S
C323 C322 1.395 . S
C323 H349 0.929 . S
C324 C322 1.320 . S
C324 C325 1.405 . S
C324 H350 0.930 . S
C325 C320 1.479 . S
C325 C324 1.405 . S
C325 H351 0.931 . S
U326 O327 2.454 . S
U326 O328 2.458 . S
U326 C329 2.984 . S
U326 C330 2.847 . S
U326 C343 2.882 . S
U326 O344 2.441 . S
U326 O345 2.420 . S
U326 O346 2.455 . S
U326 O347 2.449 . S
O327 U326 2.454 . S
O327 C329 1.353 . S
O328 U326 2.458 . S
O328 C329 1.286 . S
C329 U326 2.984 . S
C329 O327 1.353 . S
C329 O328 1.286 . S
C329 C331 1.363 . S
C330 C320 1.465 . S
C330 U326 2.847 . S
C330 O344 1.249 . S
C330 O345 1.202 . S
C331 C329 1.363 . S
C331 C333 1.408 . S
C331 C336 1.342 . S
C332 C333 1.310 . S
C332 C335 1.461 . S
C332 H352 0.932 . S
C333 C331 1.408 . S
C333 C332 1.310 . S
C333 H353 0.930 . S
C334 C335 1.474 . S
C334 C336 1.285 . S
C334 H354 0.929 . S
C335 C332 1.461 . S
C335 C334 1.474 . S
C336 C331 1.342 . S
C336 C334 1.285 . S
C336 H355 0.930 . S
C337 C340 1.424 . S
C337 C342 1.245 . S
C337 C343 1.428 . S
C338 C341 1.260 . S
C338 C342 1.477 . S
C338 H356 0.932 . S
C339 C340 1.384 . S
C339 C341 1.479 . S
C339 H357 0.929 . S
C340 C337 1.424 . S
C340 C339 1.384 . S
C340 H358 0.928 . S
C341 C338 1.260 . S
C341 C339 1.479 . S
C342 C337 1.245 . S
C342 C338 1.477 . S
C342 H359 0.932 . S
C343 U326 2.882 . S
C343 C337 1.428 . S
C343 O346 1.301 . S
C343 O347 1.282 . S
O344 U326 2.441 . S
O344 C330 1.249 . S
O345 U326 2.420 . S
O345 C330 1.202 . S
O346 U326 2.455 . S
O346 C343 1.301 . S
O347 U326 2.449 . S
O347 C343 1.282 . S
H348 C321 0.931 . S
H349 C323 0.929 . S
H350 C324 0.930 . S
H351 C325 0.931 . S
H352 C332 0.932 . S
H353 C333 0.930 . S
H354 C334 0.929 . S
H355 C336 0.930 . S
H356 C338 0.932 . S
H357 C339 0.929 . S
H358 C340 0.928 . S
H359 C342 0.932 . S
C360 C361 1.264 . S
C360 C365 1.479 . S
C360 C370 1.465 . S
C361 C360 1.264 . S
C361 C363 1.339 . S
C361 H388 0.931 . S
C362 C363 1.395 . S
C362 C364 1.320 . S
C363 C361 1.339 . S
C363 C362 1.395 . S
C363 H389 0.929 . S
C364 C362 1.320 . S
C364 C365 1.405 . S
C364 H390 0.930 . S
C365 C360 1.479 . S
C365 C364 1.405 . S
C365 H391 0.931 . S
U366 O367 2.454 . S
U366 O368 2.458 . S
U366 C369 2.984 . S
U366 C370 2.847 . S
U366 C383 2.882 . S
U366 O384 2.441 . S
U366 O385 2.420 . S
U366 O386 2.455 . S
U366 O387 2.449 . S
O367 U366 2.454 . S
O367 C369 1.353 . S
O368 U366 2.458 . S
O368 C369 1.286 . S
C369 U366 2.984 . S
C369 O367 1.353 . S
C369 O368 1.286 . S
C369 C371 1.363 . S
C370 C360 1.465 . S
C370 U366 2.847 . S
C370 O384 1.249 . S
C370 O385 1.202 . S
C371 C369 1.363 . S
C371 C373 1.408 . S
C371 C376 1.342 . S
C372 C373 1.310 . S
C372 C375 1.461 . S
C372 H392 0.932 . S
C373 C371 1.408 . S
C373 C372 1.310 . S
C373 H393 0.930 . S
C374 C375 1.474 . S
C374 C376 1.285 . S
C374 H394 0.929 . S
C375 C372 1.461 . S
C375 C374 1.474 . S
C376 C371 1.342 . S
C376 C374 1.285 . S
C376 H395 0.930 . S
C377 C380 1.424 . S
C377 C382 1.245 . S
C377 C383 1.428 . S
C378 C381 1.260 . S
C378 C382 1.477 . S
C378 H396 0.932 . S
C379 C380 1.384 . S
C379 C381 1.479 . S
C379 H397 0.929 . S
C380 C377 1.424 . S
C380 C379 1.384 . S
C380 H398 0.928 . S
C381 C378 1.260 . S
C381 C379 1.479 . S
C382 C377 1.245 . S
C382 C378 1.477 . S
C382 H399 0.932 . S
C383 U366 2.882 . S
C383 C377 1.428 . S
C383 O386 1.301 . S
C383 O387 1.282 . S
O384 U366 2.441 . S
O384 C370 1.249 . S
O385 U366 2.420 . S
O385 C370 1.202 . S
O386 U366 2.455 . S
O386 C383 1.301 . S
O387 U366 2.449 . S
O387 C383 1.282 . S
H388 C361 0.931 . S
H389 C363 0.929 . S
H390 C364 0.930 . S
H391 C365 0.931 . S
H392 C372 0.932 . S
H393 C373 0.930 . S
H394 C374 0.929 . S
H395 C376 0.930 . S
H396 C378 0.932 . S
H397 C379 0.929 . S
H398 C380 0.928 . S
H399 C382 0.932 . S
C400 C401 1.264 . S
C400 C405 1.479 . S
C400 C410 1.465 . S
C401 C400 1.264 . S
C401 C403 1.339 . S
C401 H428 0.931 . S
C402 C403 1.395 . S
C402 C404 1.320 . S
C403 C401 1.339 . S
C403 C402 1.395 . S
C403 H429 0.929 . S
C404 C402 1.320 . S
C404 C405 1.405 . S
C404 H430 0.930 . S
C405 C400 1.479 . S
C405 C404 1.405 . S
C405 H431 0.931 . S
U406 O407 2.454 . S
U406 O408 2.458 . S
U406 C409 2.984 . S
U406 C410 2.847 . S
U406 C423 2.882 . S
U406 O424 2.441 . S
U406 O425 2.420 . S
U406 O426 2.455 . S
U406 O427 2.449 . S
O407 U406 2.454 . S
O407 C409 1.353 . S
O408 U406 2.458 . S
O408 C409 1.286 . S
C409 U406 2.984 . S
C409 O407 1.353 . S
C409 O408 1.286 . S
C409 C411 1.363 . S
C410 C400 1.465 . S
C410 U406 2.847 . S
C410 O424 1.249 . S
C410 O425 1.202 . S
C411 C409 1.363 . S
C411 C413 1.408 . S
C411 C416 1.342 . S
C412 C413 1.310 . S
C412 C415 1.461 . S
C412 H432 0.932 . S
C413 C411 1.408 . S
C413 C412 1.310 . S
C413 H433 0.930 . S
C414 C415 1.474 . S
C414 C416 1.285 . S
C414 H434 0.929 . S
C415 C412 1.461 . S
C415 C414 1.474 . S
C416 C411 1.342 . S
C416 C414 1.285 . S
C416 H435 0.930 . S
C417 C420 1.424 . S
C417 C422 1.245 . S
C417 C423 1.428 . S
C418 C421 1.260 . S
C418 C422 1.477 . S
C418 H436 0.932 . S
C419 C420 1.384 . S
C419 C421 1.479 . S
C419 H437 0.929 . S
C420 C417 1.424 . S
C420 C419 1.384 . S
C420 H438 0.928 . S
C421 C418 1.260 . S
C421 C419 1.479 . S
C422 C417 1.245 . S
C422 C418 1.477 . S
C422 H439 0.932 . S
C423 U406 2.882 . S
C423 C417 1.428 . S
C423 O426 1.301 . S
C423 O427 1.282 . S
O424 U406 2.441 . S
O424 C410 1.249 . S
O425 U406 2.420 . S
O425 C410 1.202 . S
O426 U406 2.455 . S
O426 C423 1.301 . S
O427 U406 2.449 . S
O427 C423 1.282 . S
H428 C401 0.931 . S
H429 C403 0.929 . S
H430 C404 0.930 . S
H431 C405 0.931 . S
H432 C412 0.932 . S
H433 C413 0.930 . S
H434 C414 0.929 . S
H435 C416 0.930 . S
H436 C418 0.932 . S
H437 C419 0.929 . S
H438 C420 0.928 . S
H439 C422 0.932 . S
C440 C441 1.264 . S
C440 C445 1.479 . S
C440 C450 1.465 . S
C441 C440 1.264 . S
C441 C443 1.339 . S
C441 H468 0.931 . S
C442 C443 1.395 . S
C442 C444 1.320 . S
C443 C441 1.339 . S
C443 C442 1.395 . S
C443 H469 0.929 . S
C444 C442 1.320 . S
C444 C445 1.405 . S
C444 H470 0.930 . S
C445 C440 1.479 . S
C445 C444 1.405 . S
C445 H471 0.931 . S
U446 O447 2.454 . S
U446 O448 2.458 . S
U446 C449 2.984 . S
U446 C450 2.847 . S
U446 C463 2.882 . S
U446 O464 2.441 . S
U446 O465 2.420 . S
U446 O466 2.455 . S
U446 O467 2.449 . S
O447 U446 2.454 . S
O447 C449 1.353 . S
O448 U446 2.458 . S
O448 C449 1.286 . S
C449 U446 2.984 . S
C449 O447 1.353 . S
C449 O448 1.286 . S
C449 C451 1.363 . S
C450 C440 1.465 . S
C450 U446 2.847 . S
C450 O464 1.249 . S
C450 O465 1.202 . S
C451 C449 1.363 . S
C451 C453 1.408 . S
C451 C456 1.342 . S
C452 C453 1.310 . S
C452 C455 1.461 . S
C452 H472 0.932 . S
C453 C451 1.408 . S
C453 C452 1.310 . S
C453 H473 0.930 . S
C454 C455 1.474 . S
C454 C456 1.285 . S
C454 H474 0.929 . S
C455 C452 1.461 . S
C455 C454 1.474 . S
C456 C451 1.342 . S
C456 C454 1.285 . S
C456 H475 0.930 . S
C457 C460 1.424 . S
C457 C462 1.245 . S
C457 C463 1.428 . S
C458 C461 1.260 . S
C458 C462 1.477 . S
C458 H476 0.932 . S
C459 C460 1.384 . S
C459 C461 1.479 . S
C459 H477 0.929 . S
C460 C457 1.424 . S
C460 C459 1.384 . S
C460 H478 0.928 . S
C461 C458 1.260 . S
C461 C459 1.479 . S
C462 C457 1.245 . S
C462 C458 1.477 . S
C462 H479 0.932 . S
C463 U446 2.882 . S
C463 C457 1.428 . S
C463 O466 1.301 . S
C463 O467 1.282 . S
O464 U446 2.441 . S
O464 C450 1.249 . S
O465 U446 2.420 . S
O465 C450 1.202 . S
O466 U446 2.455 . S
O466 C463 1.301 . S
O467 U446 2.449 . S
O467 C463 1.282 . S
H468 C441 0.931 . S
H469 C443 0.929 . S
H470 C444 0.930 . S
H471 C445 0.931 . S
H472 C452 0.932 . S
H473 C453 0.930 . S
H474 C454 0.929 . S
H475 C456 0.930 . S
H476 C458 0.932 . S
H477 C459 0.929 . S
H478 C460 0.928 . S
H479 C462 0.932 . S
C480 C481 1.264 . S
C480 C485 1.479 . S
C480 C490 1.465 . S
C481 C480 1.264 . S
C481 C483 1.339 . S
C481 H508 0.931 . S
C482 C483 1.395 . S
C482 C484 1.320 . S
C483 C481 1.339 . S
C483 C482 1.395 . S
C483 H509 0.929 . S
C484 C482 1.320 . S
C484 C485 1.405 . S
C484 H510 0.930 . S
C485 C480 1.479 . S
C485 C484 1.405 . S
C485 H511 0.931 . S
U486 O487 2.454 . S
U486 O488 2.458 . S
U486 C489 2.984 . S
U486 C490 2.847 . S
U486 C503 2.882 . S
U486 O504 2.441 . S
U486 O505 2.420 . S
U486 O506 2.455 . S
U486 O507 2.449 . S
O487 U486 2.454 . S
O487 C489 1.353 . S
O488 U486 2.458 . S
O488 C489 1.286 . S
C489 U486 2.984 . S
C489 O487 1.353 . S
C489 O488 1.286 . S
C489 C491 1.363 . S
C490 C480 1.465 . S
C490 U486 2.847 . S
C490 O504 1.249 . S
C490 O505 1.202 . S
C491 C489 1.363 . S
C491 C493 1.408 . S
C491 C496 1.342 . S
C492 C493 1.310 . S
C492 C495 1.461 . S
C492 H512 0.932 . S
C493 C491 1.408 . S
C493 C492 1.310 . S
C493 H513 0.930 . S
C494 C495 1.474 . S
C494 C496 1.285 . S
C494 H514 0.929 . S
C495 C492 1.461 . S
C495 C494 1.474 . S
C496 C491 1.342 . S
C496 C494 1.285 . S
C496 H515 0.930 . S
C497 C500 1.424 . S
C497 C502 1.245 . S
C497 C503 1.428 . S
C498 C501 1.260 . S
C498 C502 1.477 . S
C498 H516 0.932 . S
C499 C500 1.384 . S
C499 C501 1.479 . S
C499 H517 0.929 . S
C500 C497 1.424 . S
C500 C499 1.384 . S
C500 H518 0.928 . S
C501 C498 1.260 . S
C501 C499 1.479 . S
C502 C497 1.245 . S
C502 C498 1.477 . S
C502 H519 0.932 . S
C503 U486 2.882 . S
C503 C497 1.428 . S
C503 O506 1.301 . S
C503 O507 1.282 . S
O504 U486 2.441 . S
O504 C490 1.249 . S
O505 U486 2.420 . S
O505 C490 1.202 . S
O506 U486 2.455 . S
O506 C503 1.301 . S
O507 U486 2.449 . S
O507 C503 1.282 . S
H508 C481 0.931 . S
H509 C483 0.929 . S
H510 C484 0.930 . S
H511 C485 0.931 . S
H512 C492 0.932 . S
H513 C493 0.930 . S
H514 C494 0.929 . S
H515 C496 0.930 . S
H516 C498 0.932 . S
H517 C499 0.929 . S
H518 C500 0.928 . S
H519 C502 0.932 . S
C520 C521 1.264 . S
C520 C525 1.479 . S
C520 C530 1.465 . S
C521 C520 1.264 . S
C521 C523 1.339 . S
C521 H548 0.931 . S
C522 C523 1.395 . S
C522 C524 1.320 . S
C523 C521 1.339 . S
C523 C522 1.395 . S
C523 H549 0.929 . S
C524 C522 1.320 . S
C524 C525 1.405 . S
C524 H550 0.930 . S
C525 C520 1.479 . S
C525 C524 1.405 . S
C525 H551 0.931 . S
U526 O527 2.454 . S
U526 O528 2.458 . S
U526 C529 2.984 . S
U526 C530 2.847 . S
U526 C543 2.882 . S
U526 O544 2.441 . S
U526 O545 2.420 . S
U526 O546 2.455 . S
U526 O547 2.449 . S
O527 U526 2.454 . S
O527 C529 1.353 . S
O528 U526 2.458 . S
O528 C529 1.286 . S
C529 U526 2.984 . S
C529 O527 1.353 . S
C529 O528 1.286 . S
C529 C531 1.363 . S
C530 C520 1.465 . S
C530 U526 2.847 . S
C530 O544 1.249 . S
C530 O545 1.202 . S
C531 C529 1.363 . S
C531 C533 1.408 . S
C531 C536 1.342 . S
C532 C533 1.310 . S
C532 C535 1.461 . S
C532 H552 0.932 . S
C533 C531 1.408 . S
C533 C532 1.310 . S
C533 H553 0.930 . S
C534 C535 1.474 . S
C534 C536 1.285 . S
C534 H554 0.929 . S
C535 C532 1.461 . S
C535 C534 1.474 . S
C536 C531 1.342 . S
C536 C534 1.285 . S
C536 H555 0.930 . S
C537 C540 1.424 . S
C537 C542 1.245 . S
C537 C543 1.428 . S
C538 C541 1.260 . S
C538 C542 1.477 . S
C538 H556 0.932 . S
C539 C540 1.384 . S
C539 C541 1.479 . S
C539 H557 0.929 . S
C540 C537 1.424 . S
C540 C539 1.384 . S
C540 H558 0.928 . S
C541 C538 1.260 . S
C541 C539 1.479 . S
C542 C537 1.245 . S
C542 C538 1.477 . S
C542 H559 0.932 . S
C543 U526 2.882 . S
C543 C537 1.428 . S
C543 O546 1.301 . S
C543 O547 1.282 . S
O544 U526 2.441 . S
O544 C530 1.249 . S
O545 U526 2.420 . S
O545 C530 1.202 . S
O546 U526 2.455 . S
O546 C543 1.301 . S
O547 U526 2.449 . S
O547 C543 1.282 . S
H548 C521 0.931 . S
H549 C523 0.929 . S
H550 C524 0.930 . S
H551 C525 0.931 . S
H552 C532 0.932 . S
H553 C533 0.930 . S
H554 C534 0.929 . S
H555 C536 0.930 . S
H556 C538 0.932 . S
H557 C539 0.929 . S
H558 C540 0.928 . S
H559 C542 0.932 . S
C560 C561 1.264 . S
C560 C565 1.479 . S
C560 C570 1.465 . S
C561 C560 1.264 . S
C561 C563 1.339 . S
C561 H588 0.931 . S
C562 C563 1.395 . S
C562 C564 1.320 . S
C563 C561 1.339 . S
C563 C562 1.395 . S
C563 H589 0.929 . S
C564 C562 1.320 . S
C564 C565 1.405 . S
C564 H590 0.930 . S
C565 C560 1.479 . S
C565 C564 1.405 . S
C565 H591 0.931 . S
U566 O567 2.454 . S
U566 O568 2.458 . S
U566 C569 2.984 . S
U566 C570 2.847 . S
U566 C583 2.882 . S
U566 O584 2.441 . S
U566 O585 2.420 . S
U566 O586 2.455 . S
U566 O587 2.449 . S
O567 U566 2.454 . S
O567 C569 1.353 . S
O568 U566 2.458 . S
O568 C569 1.286 . S
C569 U566 2.984 . S
C569 O567 1.353 . S
C569 O568 1.286 . S
C569 C571 1.363 . S
C570 C560 1.465 . S
C570 U566 2.847 . S
C570 O584 1.249 . S
C570 O585 1.202 . S
C571 C569 1.363 . S
C571 C573 1.408 . S
C571 C576 1.342 . S
C572 C573 1.310 . S
C572 C575 1.461 . S
C572 H592 0.932 . S
C573 C571 1.408 . S
C573 C572 1.310 . S
C573 H593 0.930 . S
C574 C575 1.474 . S
C574 C576 1.285 . S
C574 H594 0.929 . S
C575 C572 1.461 . S
C575 C574 1.474 . S
C576 C571 1.342 . S
C576 C574 1.285 . S
C576 H595 0.930 . S
C577 C580 1.424 . S
C577 C582 1.245 . S
C577 C583 1.428 . S
C578 C581 1.260 . S
C578 C582 1.477 . S
C578 H596 0.932 . S
C579 C580 1.384 . S
C579 C581 1.479 . S
C579 H597 0.929 . S
C580 C577 1.424 . S
C580 C579 1.384 . S
C580 H598 0.928 . S
C581 C578 1.260 . S
C581 C579 1.479 . S
C582 C577 1.245 . S
C582 C578 1.477 . S
C582 H599 0.932 . S
C583 U566 2.882 . S
C583 C577 1.428 . S
C583 O586 1.301 . S
C583 O587 1.282 . S
O584 U566 2.441 . S
O584 C570 1.249 . S
O585 U566 2.420 . S
O585 C570 1.202 . S
O586 U566 2.455 . S
O586 C583 1.301 . S
O587 U566 2.449 . S
O587 C583 1.282 . S
H588 C561 0.931 . S
H589 C563 0.929 . S
H590 C564 0.930 . S
H591 C565 0.931 . S
H592 C572 0.932 . S
H593 C573 0.930 . S
H594 C574 0.929 . S
H595 C576 0.930 . S
H596 C578 0.932 . S
H597 C579 0.929 . S
H598 C580 0.928 . S
H599 C582 0.932 . S
C600 C601 1.264 . S
C600 C605 1.479 . S
C600 C610 1.465 . S
C601 C600 1.264 . S
C601 C603 1.339 . S
C601 H628 0.931 . S
C602 C603 1.395 . S
C602 C604 1.320 . S
C603 C601 1.339 . S
C603 C602 1.395 . S
C603 H629 0.929 . S
C604 C602 1.320 . S
C604 C605 1.405 . S
C604 H630 0.930 . S
C605 C600 1.479 . S
C605 C604 1.405 . S
C605 H631 0.931 . S
U606 O607 2.454 . S
U606 O608 2.458 . S
U606 C609 2.984 . S
U606 C610 2.847 . S
U606 C623 2.882 . S
U606 O624 2.441 . S
U606 O625 2.420 . S
U606 O626 2.455 . S
U606 O627 2.449 . S
O607 U606 2.454 . S
O607 C609 1.353 . S
O608 U606 2.458 . S
O608 C609 1.286 . S
C609 U606 2.984 . S
C609 O607 1.353 . S
C609 O608 1.286 . S
C609 C611 1.363 . S
C610 C600 1.465 . S
C610 U606 2.847 . S
C610 O624 1.249 . S
C610 O625 1.202 . S
C611 C609 1.363 . S
C611 C613 1.408 . S
C611 C616 1.342 . S
C612 C613 1.310 . S
C612 C615 1.461 . S
C612 H632 0.932 . S
C613 C611 1.408 . S
C613 C612 1.310 . S
C613 H633 0.930 . S
C614 C615 1.474 . S
C614 C616 1.285 . S
C614 H634 0.929 . S
C615 C612 1.461 . S
C615 C614 1.474 . S
C616 C611 1.342 . S
C616 C614 1.285 . S
C616 H635 0.930 . S
C617 C620 1.424 . S
C617 C622 1.245 . S
C617 C623 1.428 . S
C618 C621 1.260 . S
C618 C622 1.477 . S
C618 H636 0.932 . S
C619 C620 1.384 . S
C619 C621 1.479 . S
C619 H637 0.929 . S
C620 C617 1.424 . S
C620 C619 1.384 . S
C620 H638 0.928 . S
C621 C618 1.260 . S
C621 C619 1.479 . S
C622 C617 1.245 . S
C622 C618 1.477 . S
C622 H639 0.932 . S
C623 U606 2.882 . S
C623 C617 1.428 . S
C623 O626 1.301 . S
C623 O627 1.282 . S
O624 U606 2.441 . S
O624 C610 1.249 . S
O625 U606 2.420 . S
O625 C610 1.202 . S
O626 U606 2.455 . S
O626 C623 1.301 . S
O627 U606 2.449 . S
O627 C623 1.282 . S
H628 C601 0.931 . S
H629 C603 0.929 . S
H630 C604 0.930 . S
H631 C605 0.931 . S
H632 C612 0.932 . S
H633 C613 0.930 . S
H634 C614 0.929 . S
H635 C616 0.930 . S
H636 C618 0.932 . S
H637 C619 0.929 . S
H638 C620 0.928 . S
H639 C622 0.932 . S
C640 C641 1.264 . S
C640 C645 1.479 . S
C640 C650 1.465 . S
C641 C640 1.264 . S
C641 C643 1.339 . S
C641 H668 0.931 . S
C642 C643 1.395 . S
C642 C644 1.320 . S
C643 C641 1.339 . S
C643 C642 1.395 . S
C643 H669 0.929 . S
C644 C642 1.320 . S
C644 C645 1.405 . S
C644 H670 0.930 . S
C645 C640 1.479 . S
C645 C644 1.405 . S
C645 H671 0.931 . S
U646 O647 2.454 . S
U646 O648 2.458 . S
U646 C649 2.984 . S
U646 C650 2.847 . S
U646 C663 2.882 . S
U646 O664 2.441 . S
U646 O665 2.420 . S
U646 O666 2.455 . S
U646 O667 2.449 . S
O647 U646 2.454 . S
O647 C649 1.353 . S
O648 U646 2.458 . S
O648 C649 1.286 . S
C649 U646 2.984 . S
C649 O647 1.353 . S
C649 O648 1.286 . S
C649 C651 1.363 . S
C650 C640 1.465 . S
C650 U646 2.847 . S
C650 O664 1.249 . S
C650 O665 1.202 . S
C651 C649 1.363 . S
C651 C653 1.408 . S
C651 C656 1.342 . S
C652 C653 1.310 . S
C652 C655 1.461 . S
C652 H672 0.932 . S
C653 C651 1.408 . S
C653 C652 1.310 . S
C653 H673 0.930 . S
C654 C655 1.474 . S
C654 C656 1.285 . S
C654 H674 0.929 . S
C655 C652 1.461 . S
C655 C654 1.474 . S
C656 C651 1.342 . S
C656 C654 1.285 . S
C656 H675 0.930 . S
C657 C660 1.424 . S
C657 C662 1.245 . S
C657 C663 1.428 . S
C658 C661 1.260 . S
C658 C662 1.477 . S
C658 H676 0.932 . S
C659 C660 1.384 . S
C659 C661 1.479 . S
C659 H677 0.929 . S
C660 C657 1.424 . S
C660 C659 1.384 . S
C660 H678 0.928 . S
C661 C658 1.260 . S
C661 C659 1.479 . S
C662 C657 1.245 . S
C662 C658 1.477 . S
C662 H679 0.932 . S
C663 U646 2.882 . S
C663 C657 1.428 . S
C663 O666 1.301 . S
C663 O667 1.282 . S
O664 U646 2.441 . S
O664 C650 1.249 . S
O665 U646 2.420 . S
O665 C650 1.202 . S
O666 U646 2.455 . S
O666 C663 1.301 . S
O667 U646 2.449 . S
O667 C663 1.282 . S
H668 C641 0.931 . S
H669 C643 0.929 . S
H670 C644 0.930 . S
H671 C645 0.931 . S
H672 C652 0.932 . S
H673 C653 0.930 . S
H674 C654 0.929 . S
H675 C656 0.930 . S
H676 C658 0.932 . S
H677 C659 0.929 . S
H678 C660 0.928 . S
H679 C662 0.932 . S
C680 C681 1.264 . S
C680 C685 1.479 . S
C680 C690 1.465 . S
C681 C680 1.264 . S
C681 C683 1.339 . S
C681 H708 0.931 . S
C682 C683 1.395 . S
C682 C684 1.320 . S
C683 C681 1.339 . S
C683 C682 1.395 . S
C683 H709 0.929 . S
C684 C682 1.320 . S
C684 C685 1.405 . S
C684 H710 0.930 . S
C685 C680 1.479 . S
C685 C684 1.405 . S
C685 H711 0.931 . S
U686 O687 2.454 . S
U686 O688 2.458 . S
U686 C689 2.984 . S
U686 C690 2.847 . S
U686 C703 2.882 . S
U686 O704 2.441 . S
U686 O705 2.420 . S
U686 O706 2.455 . S
U686 O707 2.449 . S
O687 U686 2.454 . S
O687 C689 1.353 . S
O688 U686 2.458 . S
O688 C689 1.286 . S
C689 U686 2.984 . S
C689 O687 1.353 . S
C689 O688 1.286 . S
C689 C691 1.363 . S
C690 C680 1.465 . S
C690 U686 2.847 . S
C690 O704 1.249 . S
C690 O705 1.202 . S
C691 C689 1.363 . S
C691 C693 1.408 . S
C691 C696 1.342 . S
C692 C693 1.310 . S
C692 C695 1.461 . S
C692 H712 0.932 . S
C693 C691 1.408 . S
C693 C692 1.310 . S
C693 H713 0.930 . S
C694 C695 1.474 . S
C694 C696 1.285 . S
C694 H714 0.929 . S
C695 C692 1.461 . S
C695 C694 1.474 . S
C696 C691 1.342 . S
C696 C694 1.285 . S
C696 H715 0.930 . S
C697 C700 1.424 . S
C697 C702 1.245 . S
C697 C703 1.428 . S
C698 C701 1.260 . S
C698 C702 1.477 . S
C698 H716 0.932 . S
C699 C700 1.384 . S
C699 C701 1.479 . S
C699 H717 0.929 . S
C700 C697 1.424 . S
C700 C699 1.384 . S
C700 H718 0.928 . S
C701 C698 1.260 . S
C701 C699 1.479 . S
C702 C697 1.245 . S
C702 C698 1.477 . S
C702 H719 0.932 . S
C703 U686 2.882 . S
C703 C697 1.428 . S
C703 O706 1.301 . S
C703 O707 1.282 . S
O704 U686 2.441 . S
O704 C690 1.249 . S
O705 U686 2.420 . S
O705 C690 1.202 . S
O706 U686 2.455 . S
O706 C703 1.301 . S
O707 U686 2.449 . S
O707 C703 1.282 . S
H708 C681 0.931 . S
H709 C683 0.929 . S
H710 C684 0.930 . S
H711 C685 0.931 . S
H712 C692 0.932 . S
H713 C693 0.930 . S
H714 C694 0.929 . S
H715 C696 0.930 . S
H716 C698 0.932 . S
H717 C699 0.929 . S
H718 C700 0.928 . S
H719 C702 0.932 . S
Eu720 N751 2.657 . S
Eu720 N758 2.609 . S
Eu720 O764 2.558 . S
Eu720 O765 2.597 1_566 S
Eu720 O767 2.339 1_565 S
Eu720 O768 2.563 1_565 S
Eu720 O769 2.419 . S
Eu720 O771 2.380 1_556 S
Eu720 O772 2.481 . S
Eu720 C784 2.848 . S
C721 C724 1.429 . S
C721 C725 1.411 . S
C721 N728 1.377 . S
C722 C724 1.420 . S
C722 C726 1.423 . S
C722 C734 1.392 . S
C723 C725 1.420 . S
C723 C726 1.351 . S
C723 H746 0.931 . S
C724 C721 1.429 . S
C724 C722 1.420 . S
C724 N732 1.362 . S
C725 C721 1.411 . S
C725 C723 1.420 . S
C725 C730 1.395 . S
C726 C722 1.423 . S
C726 C723 1.351 . S
C726 H738 0.930 . S
C727 C729 1.400 . S
C727 C730 1.386 . S
C727 H739 0.930 . S
N728 C721 1.377 . S
N728 C729 1.321 . S
N728 Eu731 2.609 . S
C729 C727 1.400 . S
C729 N728 1.321 . S
C729 H736 0.930 . S
C730 C725 1.395 . S
C730 C727 1.386 . S
C730 H749 0.930 . S
Eu731 N728 2.609 . S
Eu731 N732 2.657 . S
Eu731 O765 2.405 . S
Eu731 O766 2.432 . S
Eu731 O770 2.558 . S
Eu731 O771 2.612 1_545 S
Eu731 O773 2.339 1_545 S
Eu731 O774 2.563 1_545 S
Eu731 O775 2.419 . S
Eu731 C795 2.848 . S
N732 C724 1.362 . S
N732 Eu731 2.657 . S
N732 C733 1.334 . S
C733 N732 1.334 . S
C733 C735 1.413 . S
C733 H740 0.929 . S
C734 C722 1.392 . S
C734 C735 1.367 . S
C734 H742 0.930 . S
C735 C733 1.413 . S
C735 C734 1.367 . S
C735 H737 0.930 . S
H736 C729 0.930 . S
H737 C735 0.930 . S
H738 C726 0.930 . S
H739 C727 0.930 . S
H740 C733 0.929 . S
H741 C755 0.930 . S
H742 C734 0.930 . S
H743 C761 0.930 . S
H744 C752 0.929 . S
H745 C759 0.930 . S
H746 C723 0.931 . S
H747 C753 0.930 . S
H748 C786 0.930 . S
H749 C730 0.930 . S
H750 C785 0.931 . S
N751 Eu720 2.657 . S
N751 C752 1.334 . S
N751 C756 1.362 . S
C752 H744 0.929 . S
C752 N751 1.334 . S
C752 C755 1.413 . S
C753 H747 0.930 . S
C753 C754 1.392 . S
C753 C755 1.367 . S
C754 C753 1.392 . S
C754 C756 1.420 . S
C754 C786 1.423 . S
C755 H741 0.930 . S
C755 C752 1.413 . S
C755 C753 1.367 . S
C756 N751 1.362 . S
C756 C754 1.420 . S
C756 C760 1.429 . S
H757 C762 0.930 . S
N758 Eu720 2.609 . S
N758 C760 1.377 . S
N758 C761 1.321 . S
C759 H745 0.930 . S
C759 C761 1.400 . S
C759 C762 1.386 . S
C760 C756 1.429 . S
C760 N758 1.377 . S
C760 C763 1.411 . S
C761 H743 0.930 . S
C761 N758 1.321 . S
C761 C759 1.400 . S
C762 H757 0.930 . S
C762 C759 1.386 . S
C762 C763 1.395 . S
C763 C760 1.411 . S
C763 C762 1.395 . S
C763 C785 1.420 . S
O764 Eu720 2.558 . S
O764 C784 1.257 . S
O765 Eu720 2.597 1_544 S
O765 Eu731 2.405 . S
O765 C776 1.256 1_554 S
O766 Eu731 2.432 . S
O766 C783 1.264 1_554 S
O767 Eu720 2.339 1_545 S
O767 C783 1.254 . S
O768 Eu720 2.563 1_545 S
O768 C776 1.235 . S
O769 Eu720 2.419 . S
O769 C784 1.249 . S
O770 Eu731 2.558 . S
O770 C795 1.257 . S
O771 Eu720 2.380 1_554 S
O771 Eu731 2.612 1_565 S
O771 C787 1.276 . S
O772 Eu720 2.481 . S
O772 C794 1.178 1_556 S
O773 Eu731 2.339 1_565 S
O773 C794 1.254 . S
O774 Eu731 2.563 1_565 S
O774 C787 1.235 . S
O775 Eu731 2.419 . S
O775 C795 1.249 . S
C776 O765 1.256 1_556 S
C776 O768 1.235 . S
C777 C779 1.393 1_565 S
C777 C781 1.395 . S
C777 C784 1.492 . S
C778 C779 1.392 . S
C778 C780 1.386 1_545 S
C779 C777 1.393 1_545 S
C779 C778 1.392 . S
C779 H796 0.930 . S
C780 C778 1.386 1_565 S
C780 C782 1.395 . S
C780 H797 0.931 . S
C781 C777 1.395 . S
C781 C782 1.379 . S
C781 H798 0.930 . S
C782 C780 1.395 . S
C782 C781 1.379 . S
C782 H799 0.930 . S
C783 O766 1.264 1_556 S
C783 O767 1.254 . S
C784 Eu720 2.848 . S
C784 O764 1.257 . S
C784 O769 1.249 . S
C784 C777 1.492 . S
C785 H750 0.931 . S
C785 C763 1.420 . S
C785 C786 1.351 . S
C786 H748 0.930 . S
C786 C754 1.423 . S
C786 C785 1.351 . S
C787 O771 1.276 . S
C787 O774 1.235 . S
C788 C789 1.393 1_545 S
C788 C792 1.395 . S
C788 C795 1.492 . S
C789 C788 1.393 1_565 S
C789 C790 1.392 . S
C789 H800 0.930 . S
C790 C789 1.392 . S
C790 C791 1.386 1_565 S
C791 C790 1.386 1_545 S
C791 C793 1.395 . S
C791 H801 0.930 . S
C792 C788 1.395 . S
C792 C793 1.379 . S
C792 H802 0.930 . S
C793 C791 1.395 . S
C793 C792 1.379 . S
C793 H803 0.930 . S
C794 O772 1.178 1_554 S
C794 O773 1.254 . S
C795 Eu731 2.848 . S
C795 O770 1.257 . S
C795 O775 1.249 . S
C795 C788 1.492 . S
H796 C779 0.930 . S
H797 C780 0.931 . S
H798 C781 0.930 . S
H799 C782 0.930 . S
H800 C789 0.930 . S
H801 C791 0.930 . S
H802 C792 0.930 . S
H803 C793 0.930 . S
Eu804 N835 2.657 . S
Eu804 N842 2.609 . S
Eu804 O848 2.558 . S
Eu804 O849 2.604 1_456 S
Eu804 O851 2.339 1_455 S
Eu804 O852 2.563 1_455 S
Eu804 O853 2.419 . S
Eu804 O855 2.380 1_556 S
Eu804 O856 2.430 . S
Eu804 C868 2.848 . S
C805 C808 1.429 . S
C805 C809 1.411 . S
C805 N812 1.377 . S
C806 C808 1.420 . S
C806 C810 1.423 . S
C806 C818 1.392 . S
C807 C809 1.420 . S
C807 C810 1.351 . S
C807 H830 0.931 . S
C808 C805 1.429 . S
C808 C806 1.420 . S
C808 N816 1.362 . S
C809 C805 1.411 . S
C809 C807 1.420 . S
C809 C814 1.395 . S
C810 C806 1.423 . S
C810 C807 1.351 . S
C810 H822 0.930 . S
C811 C813 1.400 . S
C811 C814 1.386 . S
C811 H823 0.930 . S
N812 C805 1.377 . S
N812 C813 1.321 . S
N812 Eu815 2.609 . S
C813 C811 1.400 . S
C813 N812 1.321 . S
C813 H820 0.930 . S
C814 C809 1.395 . S
C814 C811 1.386 . S
C814 H833 0.930 . S
Eu815 N812 2.609 . S
Eu815 N816 2.657 . S
Eu815 O849 2.395 . S
Eu815 O850 2.432 . S
Eu815 O854 2.558 . S
Eu815 O855 2.612 1_655 S
Eu815 O857 2.339 1_655 S
Eu815 O858 2.563 1_655 S
Eu815 O859 2.419 . S
Eu815 C879 2.848 . S
N816 C808 1.362 . S
N816 Eu815 2.657 . S
N816 C817 1.334 . S
C817 N816 1.334 . S
C817 C819 1.413 . S
C817 H824 0.929 . S
C818 C806 1.392 . S
C818 C819 1.367 . S
C818 H826 0.930 . S
C819 C817 1.413 . S
C819 C818 1.367 . S
C819 H821 0.930 . S
H820 C813 0.930 . S
H821 C819 0.930 . S
H822 C810 0.930 . S
H823 C811 0.930 . S
H824 C817 0.929 . S
H825 C839 0.930 . S
H826 C818 0.930 . S
H827 C845 0.930 . S
H828 C836 0.929 . S
H829 C843 0.930 . S
H830 C807 0.931 . S
H831 C837 0.930 . S
H832 C870 0.930 . S
H833 C814 0.930 . S
H834 C869 0.931 . S
N835 Eu804 2.657 . S
N835 C836 1.334 . S
N835 C840 1.362 . S
C836 H828 0.929 . S
C836 N835 1.334 . S
C836 C839 1.413 . S
C837 H831 0.930 . S
C837 C838 1.392 . S
C837 C839 1.367 . S
C838 C837 1.392 . S
C838 C840 1.420 . S
C838 C870 1.423 . S
C839 H825 0.930 . S
C839 C836 1.413 . S
C839 C837 1.367 . S
C840 N835 1.362 . S
C840 C838 1.420 . S
C840 C844 1.429 . S
H841 C846 0.930 . S
N842 Eu804 2.609 . S
N842 C844 1.377 . S
N842 C845 1.321 . S
C843 H829 0.930 . S
C843 C845 1.400 . S
C843 C846 1.386 . S
C844 C840 1.429 . S
C844 N842 1.377 . S
C844 C847 1.411 . S
C845 H827 0.930 . S
C845 N842 1.321 . S
C845 C843 1.400 . S
C846 H841 0.930 . S
C846 C843 1.386 . S
C846 C847 1.395 . S
C847 C844 1.411 . S
C847 C846 1.395 . S
C847 C869 1.420 . S
O848 Eu804 2.558 . S
O848 C868 1.257 . S
O849 Eu804 2.604 1_654 S
O849 Eu815 2.395 . S
O849 C860 1.264 1_554 S
O850 Eu815 2.432 . S
O850 C867 1.264 1_554 S
O851 Eu804 2.339 1_655 S
O851 C867 1.254 . S
O852 Eu804 2.563 1_655 S
O852 C860 1.235 . S
O853 Eu804 2.419 . S
O853 C868 1.249 . S
O854 Eu815 2.558 . S
O854 C879 1.257 . S
O855 Eu804 2.380 1_554 S
O855 Eu815 2.612 1_455 S
O855 C871 1.276 . S
O856 Eu804 2.430 . S
O856 C878 1.268 1_556 S
O857 Eu815 2.339 1_455 S
O857 C878 1.254 . S
O858 Eu815 2.563 1_455 S
O858 C871 1.235 . S
O859 Eu815 2.419 . S
O859 C879 1.249 . S
C860 O849 1.264 1_556 S
C860 O852 1.235 . S
C861 C863 1.393 1_455 S
C861 C865 1.395 . S
C861 C868 1.492 . S
C862 C863 1.392 . S
C862 C864 1.386 1_655 S
C863 C861 1.393 1_655 S
C863 C862 1.392 . S
C863 H880 0.930 . S
C864 C862 1.386 1_455 S
C864 C866 1.395 . S
C864 H881 0.930 . S
C865 C861 1.395 . S
C865 C866 1.379 . S
C865 H882 0.930 . S
C866 C864 1.395 . S
C866 C865 1.379 . S
C866 H883 0.930 . S
C867 O850 1.264 1_556 S
C867 O851 1.254 . S
C868 Eu804 2.848 . S
C868 O848 1.257 . S
C868 O853 1.249 . S
C868 C861 1.492 . S
C869 H834 0.931 . S
C869 C847 1.420 . S
C869 C870 1.351 . S
C870 H832 0.930 . S
C870 C838 1.423 . S
C870 C869 1.351 . S
C871 O855 1.276 . S
C871 O858 1.235 . S
C872 C873 1.393 1_655 S
C872 C876 1.395 . S
C872 C879 1.492 . S
C873 C872 1.393 1_455 S
C873 C874 1.392 . S
C873 H884 0.930 . S
C874 C873 1.392 . S
C874 C875 1.386 1_455 S
C875 C874 1.386 1_655 S
C875 C877 1.395 . S
C875 H885 0.930 . S
C876 C872 1.395 . S
C876 C877 1.379 . S
C876 H886 0.930 . S
C877 C875 1.395 . S
C877 C876 1.379 . S
C877 H887 0.930 . S
C878 O856 1.268 1_554 S
C878 O857 1.254 . S
C879 Eu815 2.848 . S
C879 O854 1.257 . S
C879 O859 1.249 . S
C879 C872 1.492 . S
H880 C863 0.930 . S
H881 C864 0.930 . S
H882 C865 0.930 . S
H883 C866 0.930 . S
H884 C873 0.930 . S
H885 C875 0.930 . S
H886 C876 0.930 . S
H887 C877 0.930 . S
Eu888 N919 2.657 . S
Eu888 N926 2.609 . S
Eu888 O932 2.558 . S
Eu888 O933 2.612 . S
Eu888 O935 2.339 . S
Eu888 O936 2.563 . S
Eu888 O937 2.419 . S
Eu888 O939 2.369 1_554 S
Eu888 O940 2.432 . S
Eu888 C952 2.848 . S
C889 C892 1.429 . S
C889 C893 1.411 . S
C889 N896 1.377 . S
C890 C892 1.420 . S
C890 C894 1.423 . S
C890 C902 1.392 . S
C891 C893 1.420 . S
C891 C894 1.351 . S
C891 H914 0.931 . S
C892 C889 1.429 . S
C892 C890 1.420 . S
C892 N900 1.362 . S
C893 C889 1.411 . S
C893 C891 1.420 . S
C893 C898 1.395 . S
C894 C890 1.423 . S
C894 C891 1.351 . S
C894 H906 0.930 . S
C895 C897 1.400 . S
C895 C898 1.386 . S
C895 H907 0.930 . S
N896 C889 1.377 . S
N896 C897 1.321 . S
N896 Eu899 2.609 . S
C897 C895 1.400 . S
C897 N896 1.321 . S
C897 H904 0.930 . S
C898 C893 1.395 . S
C898 C895 1.386 . S
C898 H917 0.930 . S
Eu899 N896 2.609 . S
Eu899 N900 2.657 . S
Eu899 O933 2.380 1_556 S
Eu899 O934 2.432 . S
Eu899 O938 2.558 . S
Eu899 O939 2.619 . S
Eu899 O941 2.339 . S
Eu899 O942 2.563 . S
Eu899 O943 2.419 . S
Eu899 C963 2.848 . S
N900 C892 1.362 . S
N900 Eu899 2.657 . S
N900 C901 1.334 . S
C901 N900 1.334 . S
C901 C903 1.413 . S
C901 H908 0.929 . S
C902 C890 1.392 . S
C902 C903 1.367 . S
C902 H910 0.930 . S
C903 C901 1.413 . S
C903 C902 1.367 . S
C903 H905 0.930 . S
H904 C897 0.930 . S
H905 C903 0.930 . S
H906 C894 0.930 . S
H907 C895 0.930 . S
H908 C901 0.929 . S
H909 C923 0.930 . S
H910 C902 0.930 . S
H911 C929 0.930 . S
H912 C920 0.929 . S
H913 C927 0.930 . S
H914 C891 0.931 . S
H915 C921 0.930 . S
H916 C954 0.930 . S
H917 C898 0.930 . S
H918 C953 0.931 . S
N919 Eu888 2.657 . S
N919 C920 1.334 . S
N919 C924 1.362 . S
C920 H912 0.929 . S
C920 N919 1.334 . S
C920 C923 1.413 . S
C921 H915 0.930 . S
C921 C922 1.392 . S
C921 C923 1.367 . S
C922 C921 1.392 . S
C922 C924 1.420 . S
C922 C954 1.423 . S
C923 H909 0.930 . S
C923 C920 1.413 . S
C923 C921 1.367 . S
C924 N919 1.362 . S
C924 C922 1.420 . S
C924 C928 1.429 . S
H925 C930 0.930 . S
N926 Eu888 2.609 . S
N926 C928 1.377 . S
N926 C929 1.321 . S
C927 H913 0.930 . S
C927 C929 1.400 . S
C927 C930 1.386 . S
C928 C924 1.429 . S
C928 N926 1.377 . S
C928 C931 1.411 . S
C929 H911 0.930 . S
C929 N926 1.321 . S
C929 C927 1.400 . S
C930 H925 0.930 . S
C930 C927 1.386 . S
C930 C931 1.395 . S
C931 C928 1.411 . S
C931 C930 1.395 . S
C931 C953 1.420 . S
O932 Eu888 2.558 . S
O932 C952 1.257 . S
O933 Eu888 2.612 . S
O933 Eu899 2.380 1_554 S
O933 C944 1.276 . S
O934 Eu899 2.432 . S
O934 C951 1.264 1_556 S
O935 Eu888 2.339 . S
O935 C951 1.254 . S
O936 Eu888 2.563 . S
O936 C944 1.235 . S
O937 Eu888 2.419 . S
O937 C952 1.249 . S
O938 Eu899 2.558 . S
O938 C963 1.257 . S
O939 Eu888 2.369 1_556 S
O939 Eu899 2.619 . S
O939 C955 1.285 . S
O940 Eu888 2.432 . S
O940 C962 1.264 1_554 S
O941 Eu899 2.339 . S
O941 C962 1.254 . S
O942 Eu899 2.563 . S
O942 C955 1.235 . S
O943 Eu899 2.419 . S
O943 C963 1.249 . S
C944 O933 1.276 . S
C944 O936 1.235 . S
C945 C947 1.393 . S
C945 C949 1.395 . S
C945 C952 1.492 . S
C946 C947 1.392 . S
C946 C948 1.386 . S
C947 C945 1.393 . S
C947 C946 1.392 . S
C947 H964 0.930 . S
C948 C946 1.386 . S
C948 C950 1.395 . S
C948 H965 0.930 . S
C949 C945 1.395 . S
C949 C950 1.379 . S
C949 H966 0.930 . S
C950 C948 1.395 . S
C950 C949 1.379 . S
C950 H967 0.930 . S
C951 O934 1.264 1_554 S
C951 O935 1.254 . S
C952 Eu888 2.848 . S
C952 O932 1.257 . S
C952 O937 1.249 . S
C952 C945 1.492 . S
C953 H918 0.931 . S
C953 C931 1.420 . S
C953 C954 1.351 . S
C954 H916 0.930 . S
C954 C922 1.423 . S
C954 C953 1.351 . S
C955 O939 1.285 . S
C955 O942 1.235 . S
C956 C957 1.393 . S
C956 C960 1.395 . S
C956 C963 1.492 . S
C957 C956 1.393 . S
C957 C958 1.392 . S
C957 H968 0.930 . S
C958 C957 1.392 . S
C958 C959 1.386 . S
C959 C958 1.386 . S
C959 C961 1.395 . S
C959 H969 0.930 . S
C960 C956 1.395 . S
C960 C961 1.379 . S
C960 H970 0.930 . S
C961 C959 1.395 . S
C961 C960 1.379 . S
C961 H971 0.930 . S
C962 O940 1.264 1_556 S
C962 O941 1.254 . S
C963 Eu899 2.848 . S
C963 O938 1.257 . S
C963 O943 1.249 . S
C963 C956 1.492 . S
H964 C947 0.930 . S
H965 C948 0.930 . S
H966 C949 0.930 . S
H967 C950 0.930 . S
H968 C957 0.930 . S
H969 C959 0.930 . S
H970 C960 0.930 . S
H971 C961 0.930 . S
Eu972 N1003 2.657 . S
Eu972 N1010 2.609 . S
Eu972 O1016 2.558 . S
Eu972 O1017 2.612 . S
Eu972 O1019 2.339 . S
Eu972 O1020 2.563 . S
Eu972 O1021 2.419 . S
Eu972 O1023 2.380 . S
Eu972 O1024 2.432 . S
Eu972 C1036 2.848 . S
C973 C976 1.429 . S
C973 C977 1.411 . S
C973 N980 1.377 . S
C974 C976 1.420 . S
C974 C978 1.423 . S
C974 C986 1.392 . S
C975 C977 1.420 . S
C975 C978 1.351 . S
C975 H998 0.931 . S
C976 C973 1.429 . S
C976 C974 1.420 . S
C976 N984 1.362 . S
C977 C973 1.411 . S
C977 C975 1.420 . S
C977 C982 1.395 . S
C978 C974 1.423 . S
C978 C975 1.351 . S
C978 H990 0.930 . S
C979 C981 1.400 . S
C979 C982 1.386 . S
C979 H991 0.930 . S
N980 C973 1.377 . S
N980 C981 1.321 . S
N980 Eu983 2.609 . S
C981 C979 1.400 . S
C981 N980 1.321 . S
C981 H988 0.930 . S
C982 C977 1.395 . S
C982 C979 1.386 . S
C982 H1001 0.930 . S
Eu983 N980 2.609 . S
Eu983 N984 2.657 . S
Eu983 O1017 2.380 . S
Eu983 O1018 2.432 . S
Eu983 O1022 2.558 . S
Eu983 O1023 2.612 . S
Eu983 O1025 2.339 . S
Eu983 O1026 2.563 . S
Eu983 O1027 2.419 . S
Eu983 C1047 2.848 . S
N984 C976 1.362 . S
N984 Eu983 2.657 . S
N984 C985 1.334 . S
C985 N984 1.334 . S
C985 C987 1.413 . S
C985 H992 0.929 . S
C986 C974 1.392 . S
C986 C987 1.367 . S
C986 H994 0.930 . S
C987 C985 1.413 . S
C987 C986 1.367 . S
C987 H989 0.930 . S
H988 C981 0.930 . S
H989 C987 0.930 . S
H990 C978 0.930 . S
H991 C979 0.930 . S
H992 C985 0.929 . S
H993 C1007 0.930 . S
H994 C986 0.930 . S
H995 C1013 0.930 . S
H996 C1004 0.929 . S
H997 C1011 0.930 . S
H998 C975 0.931 . S
H999 C1005 0.930 . S
H1000 C1038 0.930 . S
H1001 C982 0.930 . S
H1002 C1037 0.931 . S
N1003 Eu972 2.657 . S
N1003 C1004 1.334 . S
N1003 C1008 1.362 . S
C1004 H996 0.929 . S
C1004 N1003 1.334 . S
C1004 C1007 1.413 . S
C1005 H999 0.930 . S
C1005 C1006 1.392 . S
C1005 C1007 1.367 . S
C1006 C1005 1.392 . S
C1006 C1008 1.420 . S
C1006 C1038 1.423 . S
C1007 H993 0.930 . S
C1007 C1004 1.413 . S
C1007 C1005 1.367 . S
C1008 N1003 1.362 . S
C1008 C1006 1.420 . S
C1008 C1012 1.429 . S
H1009 C1014 0.930 . S
N1010 Eu972 2.609 . S
N1010 C1012 1.377 . S
N1010 C1013 1.321 . S
C1011 H997 0.930 . S
C1011 C1013 1.400 . S
C1011 C1014 1.386 . S
C1012 C1008 1.429 . S
C1012 N1010 1.377 . S
C1012 C1015 1.411 . S
C1013 H995 0.930 . S
C1013 N1010 1.321 . S
C1013 C1011 1.400 . S
C1014 H1009 0.930 . S
C1014 C1011 1.386 . S
C1014 C1015 1.395 . S
C1015 C1012 1.411 . S
C1015 C1014 1.395 . S
C1015 C1037 1.420 . S
O1016 Eu972 2.558 . S
O1016 C1036 1.257 . S
O1017 Eu972 2.612 . S
O1017 Eu983 2.380 . S
O1017 C1028 1.276 . S
O1018 Eu983 2.432 . S
O1018 C1035 1.264 . S
O1019 Eu972 2.339 . S
O1019 C1035 1.254 . S
O1020 Eu972 2.563 . S
O1020 C1028 1.235 . S
O1021 Eu972 2.419 . S
O1021 C1036 1.249 . S
O1022 Eu983 2.558 . S
O1022 C1047 1.257 . S
O1023 Eu972 2.380 . S
O1023 Eu983 2.612 . S
O1023 C1039 1.276 . S
O1024 Eu972 2.432 . S
O1024 C1046 1.264 . S
O1025 Eu983 2.339 . S
O1025 C1046 1.254 . S
O1026 Eu983 2.563 . S
O1026 C1039 1.235 . S
O1027 Eu983 2.419 . S
O1027 C1047 1.249 . S
C1028 O1017 1.276 . S
C1028 O1020 1.235 . S
C1029 C1031 1.393 . S
C1029 C1033 1.395 . S
C1029 C1036 1.492 . S
C1030 C1031 1.392 . S
C1030 C1032 1.386 . S
C1031 C1029 1.393 . S
C1031 C1030 1.392 . S
C1031 H1048 0.930 . S
C1032 C1030 1.386 . S
C1032 C1034 1.395 . S
C1032 H1049 0.930 . S
C1033 C1029 1.395 . S
C1033 C1034 1.379 . S
C1033 H1050 0.930 . S
C1034 C1032 1.395 . S
C1034 C1033 1.379 . S
C1034 H1051 0.930 . S
C1035 O1018 1.264 . S
C1035 O1019 1.254 . S
C1036 Eu972 2.848 . S
C1036 O1016 1.257 . S
C1036 O1021 1.249 . S
C1036 C1029 1.492 . S
C1037 H1002 0.931 . S
C1037 C1015 1.420 . S
C1037 C1038 1.351 . S
C1038 H1000 0.930 . S
C1038 C1006 1.423 . S
C1038 C1037 1.351 . S
C1039 O1023 1.276 . S
C1039 O1026 1.235 . S
C1040 C1041 1.393 . S
C1040 C1044 1.395 . S
C1040 C1047 1.492 . S
C1041 C1040 1.393 . S
C1041 C1042 1.392 . S
C1041 H1052 0.930 . S
C1042 C1041 1.392 . S
C1042 C1043 1.386 . S
C1043 C1042 1.386 . S
C1043 C1045 1.395 . S
C1043 H1053 0.930 . S
C1044 C1040 1.395 . S
C1044 C1045 1.379 . S
C1044 H1054 0.930 . S
C1045 C1043 1.395 . S
C1045 C1044 1.379 . S
C1045 H1055 0.930 . S
C1046 O1024 1.264 . S
C1046 O1025 1.254 . S
C1047 Eu983 2.848 . S
C1047 O1022 1.257 . S
C1047 O1027 1.249 . S
C1047 C1040 1.492 . S
H1048 C1031 0.930 . S
H1049 C1032 0.930 . S
H1050 C1033 0.930 . S
H1051 C1034 0.930 . S
H1052 C1041 0.930 . S
H1053 C1043 0.930 . S
H1054 C1044 0.930 . S
H1055 C1045 0.930 . S
Eu1056 N1087 2.657 . S
Eu1056 N1094 2.609 . S
Eu1056 O1100 2.558 . S
Eu1056 O1101 2.612 . S
Eu1056 O1103 2.339 . S
Eu1056 O1104 2.563 . S
Eu1056 O1105 2.419 . S
Eu1056 O1107 2.380 . S
Eu1056 O1108 2.432 . S
Eu1056 C1120 2.848 . S
C1057 C1060 1.429 . S
C1057 C1061 1.411 . S
C1057 N1064 1.377 . S
C1058 C1060 1.420 . S
C1058 C1062 1.423 . S
C1058 C1070 1.392 . S
C1059 C1061 1.420 . S
C1059 C1062 1.351 . S
C1059 H1082 0.931 . S
C1060 C1057 1.429 . S
C1060 C1058 1.420 . S
C1060 N1068 1.362 . S
C1061 C1057 1.411 . S
C1061 C1059 1.420 . S
C1061 C1066 1.395 . S
C1062 C1058 1.423 . S
C1062 C1059 1.351 . S
C1062 H1074 0.930 . S
C1063 C1065 1.400 . S
C1063 C1066 1.386 . S
C1063 H1075 0.930 . S
N1064 C1057 1.377 . S
N1064 C1065 1.321 . S
N1064 Eu1067 2.609 . S
C1065 C1063 1.400 . S
C1065 N1064 1.321 . S
C1065 H1072 0.930 . S
C1066 C1061 1.395 . S
C1066 C1063 1.386 . S
C1066 H1085 0.930 . S
Eu1067 N1064 2.609 . S
Eu1067 N1068 2.657 . S
Eu1067 O1101 2.380 . S
Eu1067 O1102 2.432 . S
Eu1067 O1106 2.558 . S
Eu1067 O1107 2.612 . S
Eu1067 O1109 2.339 . S
Eu1067 O1110 2.563 . S
Eu1067 O1111 2.419 . S
Eu1067 C1131 2.848 . S
N1068 C1060 1.362 . S
N1068 Eu1067 2.657 . S
N1068 C1069 1.334 . S
C1069 N1068 1.334 . S
C1069 C1071 1.413 . S
C1069 H1076 0.929 . S
C1070 C1058 1.392 . S
C1070 C1071 1.367 . S
C1070 H1078 0.930 . S
C1071 C1069 1.413 . S
C1071 C1070 1.367 . S
C1071 H1073 0.930 . S
H1072 C1065 0.930 . S
H1073 C1071 0.930 . S
H1074 C1062 0.930 . S
H1075 C1063 0.930 . S
H1076 C1069 0.929 . S
H1077 C1091 0.930 . S
H1078 C1070 0.930 . S
H1079 C1097 0.930 . S
H1080 C1088 0.929 . S
H1081 C1095 0.930 . S
H1082 C1059 0.931 . S
H1083 C1089 0.930 . S
H1084 C1122 0.930 . S
H1085 C1066 0.930 . S
H1086 C1121 0.931 . S
N1087 Eu1056 2.657 . S
N1087 C1088 1.334 . S
N1087 C1092 1.362 . S
C1088 H1080 0.929 . S
C1088 N1087 1.334 . S
C1088 C1091 1.413 . S
C1089 H1083 0.930 . S
C1089 C1090 1.392 . S
C1089 C1091 1.367 . S
C1090 C1089 1.392 . S
C1090 C1092 1.420 . S
C1090 C1122 1.423 . S
C1091 H1077 0.930 . S
C1091 C1088 1.413 . S
C1091 C1089 1.367 . S
C1092 N1087 1.362 . S
C1092 C1090 1.420 . S
C1092 C1096 1.429 . S
H1093 C1098 0.930 . S
N1094 Eu1056 2.609 . S
N1094 C1096 1.377 . S
N1094 C1097 1.321 . S
C1095 H1081 0.930 . S
C1095 C1097 1.400 . S
C1095 C1098 1.386 . S
C1096 C1092 1.429 . S
C1096 N1094 1.377 . S
C1096 C1099 1.411 . S
C1097 H1079 0.930 . S
C1097 N1094 1.321 . S
C1097 C1095 1.400 . S
C1098 H1093 0.930 . S
C1098 C1095 1.386 . S
C1098 C1099 1.395 . S
C1099 C1096 1.411 . S
C1099 C1098 1.395 . S
C1099 C1121 1.420 . S
O1100 Eu1056 2.558 . S
O1100 C1120 1.257 . S
O1101 Eu1056 2.612 . S
O1101 Eu1067 2.380 . S
O1101 C1112 1.276 . S
O1102 Eu1067 2.432 . S
O1102 C1119 1.264 . S
O1103 Eu1056 2.339 . S
O1103 C1119 1.254 . S
O1104 Eu1056 2.563 . S
O1104 C1112 1.235 . S
O1105 Eu1056 2.419 . S
O1105 C1120 1.249 . S
O1106 Eu1067 2.558 . S
O1106 C1131 1.257 . S
O1107 Eu1056 2.380 . S
O1107 Eu1067 2.612 . S
O1107 C1123 1.276 . S
O1108 Eu1056 2.432 . S
O1108 C1130 1.264 . S
O1109 Eu1067 2.339 . S
O1109 C1130 1.254 . S
O1110 Eu1067 2.563 . S
O1110 C1123 1.235 . S
O1111 Eu1067 2.419 . S
O1111 C1131 1.249 . S
C1112 O1101 1.276 . S
C1112 O1104 1.235 . S
C1113 C1115 1.393 . S
C1113 C1117 1.395 . S
C1113 C1120 1.492 . S
C1114 C1115 1.392 . S
C1114 C1116 1.386 . S
C1115 C1113 1.393 . S
C1115 C1114 1.392 . S
C1115 H1132 0.930 . S
C1116 C1114 1.386 . S
C1116 C1118 1.395 . S
C1116 H1133 0.930 . S
C1117 C1113 1.395 . S
C1117 C1118 1.379 . S
C1117 H1134 0.930 . S
C1118 C1116 1.395 . S
C1118 C1117 1.379 . S
C1118 H1135 0.930 . S
C1119 O1102 1.264 . S
C1119 O1103 1.254 . S
C1120 Eu1056 2.848 . S
C1120 O1100 1.257 . S
C1120 O1105 1.249 . S
C1120 C1113 1.492 . S
C1121 H1086 0.931 . S
C1121 C1099 1.420 . S
C1121 C1122 1.351 . S
C1122 H1084 0.930 . S
C1122 C1090 1.423 . S
C1122 C1121 1.351 . S
C1123 O1107 1.276 . S
C1123 O1110 1.235 . S
C1124 C1125 1.393 . S
C1124 C1128 1.395 . S
C1124 C1131 1.492 . S
C1125 C1124 1.393 . S
C1125 C1126 1.392 . S
C1125 H1136 0.930 . S
C1126 C1125 1.392 . S
C1126 C1127 1.386 . S
C1127 C1126 1.386 . S
C1127 C1129 1.395 . S
C1127 H1137 0.930 . S
C1128 C1124 1.395 . S
C1128 C1129 1.379 . S
C1128 H1138 0.930 . S
C1129 C1127 1.395 . S
C1129 C1128 1.379 . S
C1129 H1139 0.930 . S
C1130 O1108 1.264 . S
C1130 O1109 1.254 . S
C1131 Eu1067 2.848 . S
C1131 O1106 1.257 . S
C1131 O1111 1.249 . S
C1131 C1124 1.492 . S
H1132 C1115 0.930 . S
H1133 C1116 0.930 . S
H1134 C1117 0.930 . S
H1135 C1118 0.930 . S
H1136 C1125 0.930 . S
H1137 C1127 0.930 . S
H1138 C1128 0.930 . S
H1139 C1129 0.930 . S
Eu1140 N1171 2.657 . S
Eu1140 N1178 2.609 . S
Eu1140 O1184 2.558 . S
Eu1140 O1185 2.612 . S
Eu1140 O1187 2.339 . S
Eu1140 O1188 2.563 . S
Eu1140 O1189 2.419 . S
Eu1140 O1191 2.380 . S
Eu1140 O1192 2.432 . S
Eu1140 C1204 2.848 . S
C1141 C1144 1.429 . S
C1141 C1145 1.411 . S
C1141 N1148 1.377 . S
C1142 C1144 1.420 . S
C1142 C1146 1.423 . S
C1142 C1154 1.392 . S
C1143 C1145 1.420 . S
C1143 C1146 1.351 . S
C1143 H1166 0.931 . S
C1144 C1141 1.429 . S
C1144 C1142 1.420 . S
C1144 N1152 1.362 . S
C1145 C1141 1.411 . S
C1145 C1143 1.420 . S
C1145 C1150 1.395 . S
C1146 C1142 1.423 . S
C1146 C1143 1.351 . S
C1146 H1158 0.930 . S
C1147 C1149 1.400 . S
C1147 C1150 1.386 . S
C1147 H1159 0.930 . S
N1148 C1141 1.377 . S
N1148 C1149 1.321 . S
N1148 Eu1151 2.609 . S
C1149 C1147 1.400 . S
C1149 N1148 1.321 . S
C1149 H1156 0.930 . S
C1150 C1145 1.395 . S
C1150 C1147 1.386 . S
C1150 H1169 0.930 . S
Eu1151 N1148 2.609 . S
Eu1151 N1152 2.657 . S
Eu1151 O1185 2.380 . S
Eu1151 O1186 2.432 . S
Eu1151 O1190 2.558 . S
Eu1151 O1191 2.612 . S
Eu1151 O1193 2.339 . S
Eu1151 O1194 2.563 . S
Eu1151 O1195 2.419 . S
Eu1151 C1215 2.848 . S
N1152 C1144 1.362 . S
N1152 Eu1151 2.657 . S
N1152 C1153 1.334 . S
C1153 N1152 1.334 . S
C1153 C1155 1.413 . S
C1153 H1160 0.929 . S
C1154 C1142 1.392 . S
C1154 C1155 1.367 . S
C1154 H1162 0.930 . S
C1155 C1153 1.413 . S
C1155 C1154 1.367 . S
C1155 H1157 0.930 . S
H1156 C1149 0.930 . S
H1157 C1155 0.930 . S
H1158 C1146 0.930 . S
H1159 C1147 0.930 . S
H1160 C1153 0.929 . S
H1161 C1175 0.930 . S
H1162 C1154 0.930 . S
H1163 C1181 0.930 . S
H1164 C1172 0.929 . S
H1165 C1179 0.930 . S
H1166 C1143 0.931 . S
H1167 C1173 0.930 . S
H1168 C1206 0.930 . S
H1169 C1150 0.930 . S
H1170 C1205 0.931 . S
N1171 Eu1140 2.657 . S
N1171 C1172 1.334 . S
N1171 C1176 1.362 . S
C1172 H1164 0.929 . S
C1172 N1171 1.334 . S
C1172 C1175 1.413 . S
C1173 H1167 0.930 . S
C1173 C1174 1.392 . S
C1173 C1175 1.367 . S
C1174 C1173 1.392 . S
C1174 C1176 1.420 . S
C1174 C1206 1.423 . S
C1175 H1161 0.930 . S
C1175 C1172 1.413 . S
C1175 C1173 1.367 . S
C1176 N1171 1.362 . S
C1176 C1174 1.420 . S
C1176 C1180 1.429 . S
H1177 C1182 0.930 . S
N1178 Eu1140 2.609 . S
N1178 C1180 1.377 . S
N1178 C1181 1.321 . S
C1179 H1165 0.930 . S
C1179 C1181 1.400 . S
C1179 C1182 1.386 . S
C1180 C1176 1.429 . S
C1180 N1178 1.377 . S
C1180 C1183 1.411 . S
C1181 H1163 0.930 . S
C1181 N1178 1.321 . S
C1181 C1179 1.400 . S
C1182 H1177 0.930 . S
C1182 C1179 1.386 . S
C1182 C1183 1.395 . S
C1183 C1180 1.411 . S
C1183 C1182 1.395 . S
C1183 C1205 1.420 . S
O1184 Eu1140 2.558 . S
O1184 C1204 1.257 . S
O1185 Eu1140 2.612 . S
O1185 Eu1151 2.380 . S
O1185 C1196 1.276 . S
O1186 Eu1151 2.432 . S
O1186 C1203 1.264 . S
O1187 Eu1140 2.339 . S
O1187 C1203 1.254 . S
O1188 Eu1140 2.563 . S
O1188 C1196 1.235 . S
O1189 Eu1140 2.419 . S
O1189 C1204 1.249 . S
O1190 Eu1151 2.558 . S
O1190 C1215 1.257 . S
O1191 Eu1140 2.380 . S
O1191 Eu1151 2.612 . S
O1191 C1207 1.276 . S
O1192 Eu1140 2.432 . S
O1192 C1214 1.264 . S
O1193 Eu1151 2.339 . S
O1193 C1214 1.254 . S
O1194 Eu1151 2.563 . S
O1194 C1207 1.235 . S
O1195 Eu1151 2.419 . S
O1195 C1215 1.249 . S
C1196 O1185 1.276 . S
C1196 O1188 1.235 . S
C1197 C1199 1.393 . S
C1197 C1201 1.395 . S
C1197 C1204 1.492 . S
C1198 C1199 1.392 . S
C1198 C1200 1.386 . S
C1199 C1197 1.393 . S
C1199 C1198 1.392 . S
C1199 H1216 0.930 . S
C1200 C1198 1.386 . S
C1200 C1202 1.395 . S
C1200 H1217 0.930 . S
C1201 C1197 1.395 . S
C1201 C1202 1.379 . S
C1201 H1218 0.930 . S
C1202 C1200 1.395 . S
C1202 C1201 1.379 . S
C1202 H1219 0.930 . S
C1203 O1186 1.264 . S
C1203 O1187 1.254 . S
C1204 Eu1140 2.848 . S
C1204 O1184 1.257 . S
C1204 O1189 1.249 . S
C1204 C1197 1.492 . S
C1205 H1170 0.931 . S
C1205 C1183 1.420 . S
C1205 C1206 1.351 . S
C1206 H1168 0.930 . S
C1206 C1174 1.423 . S
C1206 C1205 1.351 . S
C1207 O1191 1.276 . S
C1207 O1194 1.235 . S
C1208 C1209 1.393 . S
C1208 C1212 1.395 . S
C1208 C1215 1.492 . S
C1209 C1208 1.393 . S
C1209 C1210 1.392 . S
C1209 H1220 0.930 . S
C1210 C1209 1.392 . S
C1210 C1211 1.386 . S
C1211 C1210 1.386 . S
C1211 C1213 1.395 . S
C1211 H1221 0.930 . S
C1212 C1208 1.395 . S
C1212 C1213 1.379 . S
C1212 H1222 0.930 . S
C1213 C1211 1.395 . S
C1213 C1212 1.379 . S
C1213 H1223 0.930 . S
C1214 O1192 1.264 . S
C1214 O1193 1.254 . S
C1215 Eu1151 2.848 . S
C1215 O1190 1.257 . S
C1215 O1195 1.249 . S
C1215 C1208 1.492 . S
H1216 C1199 0.930 . S
H1217 C1200 0.930 . S
H1218 C1201 0.930 . S
H1219 C1202 0.930 . S
H1220 C1209 0.930 . S
H1221 C1211 0.930 . S
H1222 C1212 0.930 . S
H1223 C1213 0.930 . S
Eu1224 N1255 2.657 . S
Eu1224 N1262 2.609 . S
Eu1224 O1268 2.558 . S
Eu1224 O1269 2.612 . S
Eu1224 O1271 2.339 . S
Eu1224 O1272 2.563 . S
Eu1224 O1273 2.419 . S
Eu1224 O1275 2.380 . S
Eu1224 O1276 2.432 . S
Eu1224 C1288 2.848 . S
C1225 C1228 1.429 . S
C1225 C1229 1.411 . S
C1225 N1232 1.377 . S
C1226 C1228 1.420 . S
C1226 C1230 1.423 . S
C1226 C1238 1.392 . S
C1227 C1229 1.420 . S
C1227 C1230 1.351 . S
C1227 H1250 0.931 . S
C1228 C1225 1.429 . S
C1228 C1226 1.420 . S
C1228 N1236 1.362 . S
C1229 C1225 1.411 . S
C1229 C1227 1.420 . S
C1229 C1234 1.395 . S
C1230 C1226 1.423 . S
C1230 C1227 1.351 . S
C1230 H1242 0.930 . S
C1231 C1233 1.400 . S
C1231 C1234 1.386 . S
C1231 H1243 0.930 . S
N1232 C1225 1.377 . S
N1232 C1233 1.321 . S
N1232 Eu1235 2.609 . S
C1233 C1231 1.400 . S
C1233 N1232 1.321 . S
C1233 H1240 0.930 . S
C1234 C1229 1.395 . S
C1234 C1231 1.386 . S
C1234 H1253 0.930 . S
Eu1235 N1232 2.609 . S
Eu1235 N1236 2.657 . S
Eu1235 O1269 2.380 . S
Eu1235 O1270 2.432 . S
Eu1235 O1274 2.558 . S
Eu1235 O1275 2.612 . S
Eu1235 O1277 2.339 . S
Eu1235 O1278 2.563 . S
Eu1235 O1279 2.419 . S
Eu1235 C1299 2.848 . S
N1236 C1228 1.362 . S
N1236 Eu1235 2.657 . S
N1236 C1237 1.334 . S
C1237 N1236 1.334 . S
C1237 C1239 1.413 . S
C1237 H1244 0.929 . S
C1238 C1226 1.392 . S
C1238 C1239 1.367 . S
C1238 H1246 0.930 . S
C1239 C1237 1.413 . S
C1239 C1238 1.367 . S
C1239 H1241 0.930 . S
H1240 C1233 0.930 . S
H1241 C1239 0.930 . S
H1242 C1230 0.930 . S
H1243 C1231 0.930 . S
H1244 C1237 0.929 . S
H1245 C1259 0.930 . S
H1246 C1238 0.930 . S
H1247 C1265 0.930 . S
H1248 C1256 0.929 . S
H1249 C1263 0.930 . S
H1250 C1227 0.931 . S
H1251 C1257 0.930 . S
H1252 C1290 0.930 . S
H1253 C1234 0.930 . S
H1254 C1289 0.931 . S
N1255 Eu1224 2.657 . S
N1255 C1256 1.334 . S
N1255 C1260 1.362 . S
C1256 H1248 0.929 . S
C1256 N1255 1.334 . S
C1256 C1259 1.413 . S
C1257 H1251 0.930 . S
C1257 C1258 1.392 . S
C1257 C1259 1.367 . S
C1258 C1257 1.392 . S
C1258 C1260 1.420 . S
C1258 C1290 1.423 . S
C1259 H1245 0.930 . S
C1259 C1256 1.413 . S
C1259 C1257 1.367 . S
C1260 N1255 1.362 . S
C1260 C1258 1.420 . S
C1260 C1264 1.429 . S
H1261 C1266 0.930 . S
N1262 Eu1224 2.609 . S
N1262 C1264 1.377 . S
N1262 C1265 1.321 . S
C1263 H1249 0.930 . S
C1263 C1265 1.400 . S
C1263 C1266 1.386 . S
C1264 C1260 1.429 . S
C1264 N1262 1.377 . S
C1264 C1267 1.411 . S
C1265 H1247 0.930 . S
C1265 N1262 1.321 . S
C1265 C1263 1.400 . S
C1266 H1261 0.930 . S
C1266 C1263 1.386 . S
C1266 C1267 1.395 . S
C1267 C1264 1.411 . S
C1267 C1266 1.395 . S
C1267 C1289 1.420 . S
O1268 Eu1224 2.558 . S
O1268 C1288 1.257 . S
O1269 Eu1224 2.612 . S
O1269 Eu1235 2.380 . S
O1269 C1280 1.276 . S
O1270 Eu1235 2.432 . S
O1270 C1287 1.264 . S
O1271 Eu1224 2.339 . S
O1271 C1287 1.254 . S
O1272 Eu1224 2.563 . S
O1272 C1280 1.235 . S
O1273 Eu1224 2.419 . S
O1273 C1288 1.249 . S
O1274 Eu1235 2.558 . S
O1274 C1299 1.257 . S
O1275 Eu1224 2.380 . S
O1275 Eu1235 2.612 . S
O1275 C1291 1.276 . S
O1276 Eu1224 2.432 . S
O1276 C1298 1.264 . S
O1277 Eu1235 2.339 . S
O1277 C1298 1.254 . S
O1278 Eu1235 2.563 . S
O1278 C1291 1.235 . S
O1279 Eu1235 2.419 . S
O1279 C1299 1.249 . S
C1280 O1269 1.276 . S
C1280 O1272 1.235 . S
C1281 C1283 1.393 . S
C1281 C1285 1.395 . S
C1281 C1288 1.492 . S
C1282 C1283 1.392 . S
C1282 C1284 1.386 . S
C1283 C1281 1.393 . S
C1283 C1282 1.392 . S
C1283 H1300 0.930 . S
C1284 C1282 1.386 . S
C1284 C1286 1.395 . S
C1284 H1301 0.930 . S
C1285 C1281 1.395 . S
C1285 C1286 1.379 . S
C1285 H1302 0.930 . S
C1286 C1284 1.395 . S
C1286 C1285 1.379 . S
C1286 H1303 0.930 . S
C1287 O1270 1.264 . S
C1287 O1271 1.254 . S
C1288 Eu1224 2.848 . S
C1288 O1268 1.257 . S
C1288 O1273 1.249 . S
C1288 C1281 1.492 . S
C1289 H1254 0.931 . S
C1289 C1267 1.420 . S
C1289 C1290 1.351 . S
C1290 H1252 0.930 . S
C1290 C1258 1.423 . S
C1290 C1289 1.351 . S
C1291 O1275 1.276 . S
C1291 O1278 1.235 . S
C1292 C1293 1.393 . S
C1292 C1296 1.395 . S
C1292 C1299 1.492 . S
C1293 C1292 1.393 . S
C1293 C1294 1.392 . S
C1293 H1304 0.930 . S
C1294 C1293 1.392 . S
C1294 C1295 1.386 . S
C1295 C1294 1.386 . S
C1295 C1297 1.395 . S
C1295 H1305 0.930 . S
C1296 C1292 1.395 . S
C1296 C1297 1.379 . S
C1296 H1306 0.930 . S
C1297 C1295 1.395 . S
C1297 C1296 1.379 . S
C1297 H1307 0.930 . S
C1298 O1276 1.264 . S
C1298 O1277 1.254 . S
C1299 Eu1235 2.848 . S
C1299 O1274 1.257 . S
C1299 O1279 1.249 . S
C1299 C1292 1.492 . S
H1300 C1283 0.930 . S
H1301 C1284 0.930 . S
H1302 C1285 0.930 . S
H1303 C1286 0.930 . S
H1304 C1293 0.930 . S
H1305 C1295 0.930 . S
H1306 C1296 0.930 . S
H1307 C1297 0.930 . S
Eu1308 N1339 2.657 . S
Eu1308 N1346 2.609 . S
Eu1308 O1352 2.558 . S
Eu1308 O1353 2.612 . S
Eu1308 O1355 2.339 . S
Eu1308 O1356 2.563 . S
Eu1308 O1357 2.419 . S
Eu1308 O1359 2.380 . S
Eu1308 O1360 2.432 . S
Eu1308 C1372 2.848 . S
C1309 C1312 1.429 . S
C1309 C1313 1.411 . S
C1309 N1316 1.377 . S
C1310 C1312 1.420 . S
C1310 C1314 1.423 . S
C1310 C1322 1.392 . S
C1311 C1313 1.420 . S
C1311 C1314 1.351 . S
C1311 H1334 0.931 . S
C1312 C1309 1.429 . S
C1312 C1310 1.420 . S
C1312 N1320 1.362 . S
C1313 C1309 1.411 . S
C1313 C1311 1.420 . S
C1313 C1318 1.395 . S
C1314 C1310 1.423 . S
C1314 C1311 1.351 . S
C1314 H1326 0.930 . S
C1315 C1317 1.400 . S
C1315 C1318 1.386 . S
C1315 H1327 0.930 . S
N1316 C1309 1.377 . S
N1316 C1317 1.321 . S
N1316 Eu1319 2.609 . S
C1317 C1315 1.400 . S
C1317 N1316 1.321 . S
C1317 H1324 0.930 . S
C1318 C1313 1.395 . S
C1318 C1315 1.386 . S
C1318 H1337 0.930 . S
Eu1319 N1316 2.609 . S
Eu1319 N1320 2.657 . S
Eu1319 O1353 2.380 . S
Eu1319 O1354 2.432 . S
Eu1319 O1358 2.558 . S
Eu1319 O1359 2.612 . S
Eu1319 O1361 2.339 . S
Eu1319 O1362 2.563 . S
Eu1319 O1363 2.419 . S
Eu1319 C1383 2.848 . S
N1320 C1312 1.362 . S
N1320 Eu1319 2.657 . S
N1320 C1321 1.334 . S
C1321 N1320 1.334 . S
C1321 C1323 1.413 . S
C1321 H1328 0.929 . S
C1322 C1310 1.392 . S
C1322 C1323 1.367 . S
C1322 H1330 0.930 . S
C1323 C1321 1.413 . S
C1323 C1322 1.367 . S
C1323 H1325 0.930 . S
H1324 C1317 0.930 . S
H1325 C1323 0.930 . S
H1326 C1314 0.930 . S
H1327 C1315 0.930 . S
H1328 C1321 0.929 . S
H1329 C1343 0.930 . S
H1330 C1322 0.930 . S
H1331 C1349 0.930 . S
H1332 C1340 0.929 . S
H1333 C1347 0.930 . S
H1334 C1311 0.931 . S
H1335 C1341 0.930 . S
H1336 C1374 0.930 . S
H1337 C1318 0.930 . S
H1338 C1373 0.931 . S
N1339 Eu1308 2.657 . S
N1339 C1340 1.334 . S
N1339 C1344 1.362 . S
C1340 H1332 0.929 . S
C1340 N1339 1.334 . S
C1340 C1343 1.413 . S
C1341 H1335 0.930 . S
C1341 C1342 1.392 . S
C1341 C1343 1.367 . S
C1342 C1341 1.392 . S
C1342 C1344 1.420 . S
C1342 C1374 1.423 . S
C1343 H1329 0.930 . S
C1343 C1340 1.413 . S
C1343 C1341 1.367 . S
C1344 N1339 1.362 . S
C1344 C1342 1.420 . S
C1344 C1348 1.429 . S
H1345 C1350 0.930 . S
N1346 Eu1308 2.609 . S
N1346 C1348 1.377 . S
N1346 C1349 1.321 . S
C1347 H1333 0.930 . S
C1347 C1349 1.400 . S
C1347 C1350 1.386 . S
C1348 C1344 1.429 . S
C1348 N1346 1.377 . S
C1348 C1351 1.411 . S
C1349 H1331 0.930 . S
C1349 N1346 1.321 . S
C1349 C1347 1.400 . S
C1350 H1345 0.930 . S
C1350 C1347 1.386 . S
C1350 C1351 1.395 . S
C1351 C1348 1.411 . S
C1351 C1350 1.395 . S
C1351 C1373 1.420 . S
O1352 Eu1308 2.558 . S
O1352 C1372 1.257 . S
O1353 Eu1308 2.612 . S
O1353 Eu1319 2.380 . S
O1353 C1364 1.276 . S
O1354 Eu1319 2.432 . S
O1354 C1371 1.264 . S
O1355 Eu1308 2.339 . S
O1355 C1371 1.254 . S
O1356 Eu1308 2.563 . S
O1356 C1364 1.235 . S
O1357 Eu1308 2.419 . S
O1357 C1372 1.249 . S
O1358 Eu1319 2.558 . S
O1358 C1383 1.257 . S
O1359 Eu1308 2.380 . S
O1359 Eu1319 2.612 . S
O1359 C1375 1.276 . S
O1360 Eu1308 2.432 . S
O1360 C1382 1.264 . S
O1361 Eu1319 2.339 . S
O1361 C1382 1.254 . S
O1362 Eu1319 2.563 . S
O1362 C1375 1.235 . S
O1363 Eu1319 2.419 . S
O1363 C1383 1.249 . S
C1364 O1353 1.276 . S
C1364 O1356 1.235 . S
C1365 C1367 1.393 . S
C1365 C1369 1.395 . S
C1365 C1372 1.492 . S
C1366 C1367 1.392 . S
C1366 C1368 1.386 . S
C1367 C1365 1.393 . S
C1367 C1366 1.392 . S
C1367 H1384 0.930 . S
C1368 C1366 1.386 . S
C1368 C1370 1.395 . S
C1368 H1385 0.930 . S
C1369 C1365 1.395 . S
C1369 C1370 1.379 . S
C1369 H1386 0.930 . S
C1370 C1368 1.395 . S
C1370 C1369 1.379 . S
C1370 H1387 0.930 . S
C1371 O1354 1.264 . S
C1371 O1355 1.254 . S
C1372 Eu1308 2.848 . S
C1372 O1352 1.257 . S
C1372 O1357 1.249 . S
C1372 C1365 1.492 . S
C1373 H1338 0.931 . S
C1373 C1351 1.420 . S
C1373 C1374 1.351 . S
C1374 H1336 0.930 . S
C1374 C1342 1.423 . S
C1374 C1373 1.351 . S
C1375 O1359 1.276 . S
C1375 O1362 1.235 . S
C1376 C1377 1.393 . S
C1376 C1380 1.395 . S
C1376 C1383 1.492 . S
C1377 C1376 1.393 . S
C1377 C1378 1.392 . S
C1377 H1388 0.930 . S
C1378 C1377 1.392 . S
C1378 C1379 1.386 . S
C1379 C1378 1.386 . S
C1379 C1381 1.395 . S
C1379 H1389 0.930 . S
C1380 C1376 1.395 . S
C1380 C1381 1.379 . S
C1380 H1390 0.930 . S
C1381 C1379 1.395 . S
C1381 C1380 1.379 . S
C1381 H1391 0.930 . S
C1382 O1360 1.264 . S
C1382 O1361 1.254 . S
C1383 Eu1319 2.848 . S
C1383 O1358 1.257 . S
C1383 O1363 1.249 . S
C1383 C1376 1.492 . S
H1384 C1367 0.930 . S
H1385 C1368 0.930 . S
H1386 C1369 0.930 . S
H1387 C1370 0.930 . S
H1388 C1377 0.930 . S
H1389 C1379 0.930 . S
H1390 C1380 0.930 . S
H1391 C1381 0.930 . S
Eu1392 N1423 2.657 . S
Eu1392 N1430 2.609 . S
Eu1392 O1436 2.558 . S
Eu1392 O1437 2.612 . S
Eu1392 O1439 2.339 . S
Eu1392 O1440 2.563 . S
Eu1392 O1441 2.419 . S
Eu1392 O1443 2.380 . S
Eu1392 O1444 2.432 . S
Eu1392 C1456 2.848 . S
C1393 C1396 1.429 . S
C1393 C1397 1.411 . S
C1393 N1400 1.377 . S
C1394 C1396 1.420 . S
C1394 C1398 1.423 . S
C1394 C1406 1.392 . S
C1395 C1397 1.420 . S
C1395 C1398 1.351 . S
C1395 H1418 0.931 . S
C1396 C1393 1.429 . S
C1396 C1394 1.420 . S
C1396 N1404 1.362 . S
C1397 C1393 1.411 . S
C1397 C1395 1.420 . S
C1397 C1402 1.395 . S
C1398 C1394 1.423 . S
C1398 C1395 1.351 . S
C1398 H1410 0.930 . S
C1399 C1401 1.400 . S
C1399 C1402 1.386 . S
C1399 H1411 0.930 . S
N1400 C1393 1.377 . S
N1400 C1401 1.321 . S
N1400 Eu1403 2.609 . S
C1401 C1399 1.400 . S
C1401 N1400 1.321 . S
C1401 H1408 0.930 . S
C1402 C1397 1.395 . S
C1402 C1399 1.386 . S
C1402 H1421 0.930 . S
Eu1403 N1400 2.609 . S
Eu1403 N1404 2.657 . S
Eu1403 O1437 2.380 . S
Eu1403 O1438 2.432 . S
Eu1403 O1442 2.558 . S
Eu1403 O1443 2.612 . S
Eu1403 O1445 2.339 . S
Eu1403 O1446 2.563 . S
Eu1403 O1447 2.419 . S
Eu1403 C1467 2.848 . S
N1404 C1396 1.362 . S
N1404 Eu1403 2.657 . S
N1404 C1405 1.334 . S
C1405 N1404 1.334 . S
C1405 C1407 1.413 . S
C1405 H1412 0.929 . S
C1406 C1394 1.392 . S
C1406 C1407 1.367 . S
C1406 H1414 0.930 . S
C1407 C1405 1.413 . S
C1407 C1406 1.367 . S
C1407 H1409 0.930 . S
H1408 C1401 0.930 . S
H1409 C1407 0.930 . S
H1410 C1398 0.930 . S
H1411 C1399 0.930 . S
H1412 C1405 0.929 . S
H1413 C1427 0.930 . S
H1414 C1406 0.930 . S
H1415 C1433 0.930 . S
H1416 C1424 0.929 . S
H1417 C1431 0.930 . S
H1418 C1395 0.931 . S
H1419 C1425 0.930 . S
H1420 C1458 0.930 . S
H1421 C1402 0.930 . S
H1422 C1457 0.931 . S
N1423 Eu1392 2.657 . S
N1423 C1424 1.334 . S
N1423 C1428 1.362 . S
C1424 H1416 0.929 . S
C1424 N1423 1.334 . S
C1424 C1427 1.413 . S
C1425 H1419 0.930 . S
C1425 C1426 1.392 . S
C1425 C1427 1.367 . S
C1426 C1425 1.392 . S
C1426 C1428 1.420 . S
C1426 C1458 1.423 . S
C1427 H1413 0.930 . S
C1427 C1424 1.413 . S
C1427 C1425 1.367 . S
C1428 N1423 1.362 . S
C1428 C1426 1.420 . S
C1428 C1432 1.429 . S
H1429 C1434 0.930 . S
N1430 Eu1392 2.609 . S
N1430 C1432 1.377 . S
N1430 C1433 1.321 . S
C1431 H1417 0.930 . S
C1431 C1433 1.400 . S
C1431 C1434 1.386 . S
C1432 C1428 1.429 . S
C1432 N1430 1.377 . S
C1432 C1435 1.411 . S
C1433 H1415 0.930 . S
C1433 N1430 1.321 . S
C1433 C1431 1.400 . S
C1434 H1429 0.930 . S
C1434 C1431 1.386 . S
C1434 C1435 1.395 . S
C1435 C1432 1.411 . S
C1435 C1434 1.395 . S
C1435 C1457 1.420 . S
O1436 Eu1392 2.558 . S
O1436 C1456 1.257 . S
O1437 Eu1392 2.612 . S
O1437 Eu1403 2.380 . S
O1437 C1448 1.276 . S
O1438 Eu1403 2.432 . S
O1438 C1455 1.264 . S
O1439 Eu1392 2.339 . S
O1439 C1455 1.254 . S
O1440 Eu1392 2.563 . S
O1440 C1448 1.235 . S
O1441 Eu1392 2.419 . S
O1441 C1456 1.249 . S
O1442 Eu1403 2.558 . S
O1442 C1467 1.257 . S
O1443 Eu1392 2.380 . S
O1443 Eu1403 2.612 . S
O1443 C1459 1.276 . S
O1444 Eu1392 2.432 . S
O1444 C1466 1.264 . S
O1445 Eu1403 2.339 . S
O1445 C1466 1.254 . S
O1446 Eu1403 2.563 . S
O1446 C1459 1.235 . S
O1447 Eu1403 2.419 . S
O1447 C1467 1.249 . S
C1448 O1437 1.276 . S
C1448 O1440 1.235 . S
C1449 C1451 1.393 . S
C1449 C1453 1.395 . S
C1449 C1456 1.492 . S
C1450 C1451 1.392 . S
C1450 C1452 1.386 . S
C1451 C1449 1.393 . S
C1451 C1450 1.392 . S
C1451 H1468 0.930 . S
C1452 C1450 1.386 . S
C1452 C1454 1.395 . S
C1452 H1469 0.930 . S
C1453 C1449 1.395 . S
C1453 C1454 1.379 . S
C1453 H1470 0.930 . S
C1454 C1452 1.395 . S
C1454 C1453 1.379 . S
C1454 H1471 0.930 . S
C1455 O1438 1.264 . S
C1455 O1439 1.254 . S
C1456 Eu1392 2.848 . S
C1456 O1436 1.257 . S
C1456 O1441 1.249 . S
C1456 C1449 1.492 . S
C1457 H1422 0.931 . S
C1457 C1435 1.420 . S
C1457 C1458 1.351 . S
C1458 H1420 0.930 . S
C1458 C1426 1.423 . S
C1458 C1457 1.351 . S
C1459 O1443 1.276 . S
C1459 O1446 1.235 . S
C1460 C1461 1.393 . S
C1460 C1464 1.395 . S
C1460 C1467 1.492 . S
C1461 C1460 1.393 . S
C1461 C1462 1.392 . S
C1461 H1472 0.930 . S
C1462 C1461 1.392 . S
C1462 C1463 1.386 . S
C1463 C1462 1.386 . S
C1463 C1465 1.395 . S
C1463 H1473 0.930 . S
C1464 C1460 1.395 . S
C1464 C1465 1.379 . S
C1464 H1474 0.930 . S
C1465 C1463 1.395 . S
C1465 C1464 1.379 . S
C1465 H1475 0.930 . S
C1466 O1444 1.264 . S
C1466 O1445 1.254 . S
C1467 Eu1403 2.848 . S
C1467 O1442 1.257 . S
C1467 O1447 1.249 . S
C1467 C1460 1.492 . S
H1468 C1451 0.930 . S
H1469 C1452 0.930 . S
H1470 C1453 0.930 . S
H1471 C1454 0.930 . S
H1472 C1461 0.930 . S
H1473 C1463 0.930 . S
H1474 C1464 0.930 . S
H1475 C1465 0.930 . S
H1476 C1484 0.929 . S
H1477 C1486 0.930 . S
H1478 C1488 0.930 . S
H1479 C1491 0.929 . S
H1480 C1494 0.930 . S
H1481 C1496 0.960 . S
H1482 C1496 0.960 . S
H1483 C1496 0.960 . S
C1484 H1476 0.929 . S
C1484 C1485 1.377 . S
C1484 C1486 1.384 . S
C1485 C1484 1.377 . S
C1485 C1491 1.390 . S
C1486 H1477 0.930 . S
C1486 C1484 1.384 . S
C1486 C1487 1.372 . S
C1487 C1486 1.372 . S
C1487 C1488 1.400 . S
C1487 C1492 1.490 . S
C1488 H1478 0.930 . S
C1488 C1487 1.400 . S
C1488 C1491 1.386 . S
H1489 C1505 0.930 . S
H1490 C1506 0.931 . S
C1491 H1479 0.929 . S
C1491 C1485 1.390 . S
C1491 C1488 1.386 . S
C1492 C1487 1.490 . S
C1492 C1494 1.395 . S
C1492 C1495 1.403 . S
H1493 C1499 0.930 . S
C1494 H1480 0.930 . S
C1494 C1492 1.395 . S
C1494 C1497 1.403 . S
C1495 C1492 1.403 . S
C1495 C1496 1.524 . S
C1495 C1499 1.400 . S
C1496 H1481 0.960 . S
C1496 H1482 0.960 . S
C1496 H1483 0.960 . S
C1496 C1495 1.524 . S
C1497 C1494 1.403 . S
C1497 C1498 1.392 . S
C1497 C1501 1.495 . S
C1498 C1497 1.392 . S
C1498 C1499 1.385 . S
C1498 C1500 1.478 . S
C1499 H1493 0.930 . S
C1499 C1495 1.400 . S
C1499 C1498 1.385 . S
C1500 C1498 1.478 . S
C1500 C1502 1.381 . S
C1500 C1506 1.383 . S
C1501 C1497 1.495 . S
C1501 H1507 0.959 . S
C1501 H1508 0.961 . S
C1501 H1509 0.960 . S
C1502 C1500 1.381 . S
C1502 C1503 1.394 . S
C1502 H1510 0.930 . S
C1503 C1502 1.394 . S
C1503 C1504 1.383 . S
C1503 H1511 0.929 . S
C1504 C1503 1.383 . S
C1504 C1505 1.377 . S
C1505 H1489 0.930 . S
C1505 C1504 1.377 . S
C1505 C1506 1.379 . S
C1506 H1490 0.931 . S
C1506 C1500 1.383 . S
C1506 C1505 1.379 . S
H1507 C1501 0.959 . S
H1508 C1501 0.961 . S
H1509 C1501 0.960 . S
H1510 C1502 0.930 . S
H1511 C1503 0.929 . S
H1512 C1520 0.929 . S
H1513 C1522 0.930 . S
H1514 C1524 0.930 . S
H1515 C1527 0.929 . S
H1516 C1530 0.930 . S
H1517 C1532 0.960 . S
H1518 C1532 0.960 . S
H1519 C1532 0.960 . S
C1520 H1512 0.929 . S
C1520 C1521 1.377 . S
C1520 C1522 1.384 . S
C1521 C1520 1.377 . S
C1521 C1527 1.390 . S
C1522 H1513 0.930 . S
C1522 C1520 1.384 . S
C1522 C1523 1.372 . S
C1523 C1522 1.372 . S
C1523 C1524 1.400 . S
C1523 C1528 1.490 . S
C1524 H1514 0.930 . S
C1524 C1523 1.400 . S
C1524 C1527 1.386 . S
H1525 C1541 0.930 . S
H1526 C1542 0.931 . S
C1527 H1515 0.929 . S
C1527 C1521 1.390 . S
C1527 C1524 1.386 . S
C1528 C1523 1.490 . S
C1528 C1530 1.395 . S
C1528 C1531 1.403 . S
H1529 C1535 0.930 . S
C1530 H1516 0.930 . S
C1530 C1528 1.395 . S
C1530 C1533 1.403 . S
C1531 C1528 1.403 . S
C1531 C1532 1.524 . S
C1531 C1535 1.400 . S
C1532 H1517 0.960 . S
C1532 H1518 0.960 . S
C1532 H1519 0.960 . S
C1532 C1531 1.524 . S
C1533 C1530 1.403 . S
C1533 C1534 1.392 . S
C1533 C1537 1.495 . S
C1534 C1533 1.392 . S
C1534 C1535 1.385 . S
C1534 C1536 1.478 . S
C1535 H1529 0.930 . S
C1535 C1531 1.400 . S
C1535 C1534 1.385 . S
C1536 C1534 1.478 . S
C1536 C1538 1.381 . S
C1536 C1542 1.383 . S
C1537 C1533 1.495 . S
C1537 H1543 0.959 . S
C1537 H1544 0.961 . S
C1537 H1545 0.960 . S
C1538 C1536 1.381 . S
C1538 C1539 1.394 . S
C1538 H1546 0.930 . S
C1539 C1538 1.394 . S
C1539 C1540 1.383 . S
C1539 H1547 0.929 . S
C1540 C1539 1.383 . S
C1540 C1541 1.377 . S
C1541 H1525 0.930 . S
C1541 C1540 1.377 . S
C1541 C1542 1.379 . S
C1542 H1526 0.931 . S
C1542 C1536 1.383 . S
C1542 C1541 1.379 . S
H1543 C1537 0.959 . S
H1544 C1537 0.961 . S
H1545 C1537 0.960 . S
H1546 C1538 0.930 . S
H1547 C1539 0.929 . S
H1548 C1556 0.929 . S
H1549 C1558 0.930 . S
H1550 C1560 0.930 . S
H1551 C1563 0.929 . S
H1552 C1566 0.930 . S
H1553 C1568 0.960 . S
H1554 C1568 0.960 . S
H1555 C1568 0.960 . S
C1556 H1548 0.929 . S
C1556 C1557 1.377 . S
C1556 C1558 1.384 . S
C1557 C1556 1.377 . S
C1557 C1563 1.390 . S
C1558 H1549 0.930 . S
C1558 C1556 1.384 . S
C1558 C1559 1.372 . S
C1559 C1558 1.372 . S
C1559 C1560 1.400 . S
C1559 C1564 1.490 . S
C1560 H1550 0.930 . S
C1560 C1559 1.400 . S
C1560 C1563 1.386 . S
H1561 C1577 0.930 . S
H1562 C1578 0.931 . S
C1563 H1551 0.929 . S
C1563 C1557 1.390 . S
C1563 C1560 1.386 . S
C1564 C1559 1.490 . S
C1564 C1566 1.395 . S
C1564 C1567 1.403 . S
H1565 C1571 0.930 . S
C1566 H1552 0.930 . S
C1566 C1564 1.395 . S
C1566 C1569 1.403 . S
C1567 C1564 1.403 . S
C1567 C1568 1.524 . S
C1567 C1571 1.400 . S
C1568 H1553 0.960 . S
C1568 H1554 0.960 . S
C1568 H1555 0.960 . S
C1568 C1567 1.524 . S
C1569 C1566 1.403 . S
C1569 C1570 1.392 . S
C1569 C1573 1.495 . S
C1570 C1569 1.392 . S
C1570 C1571 1.385 . S
C1570 C1572 1.478 . S
C1571 H1565 0.930 . S
C1571 C1567 1.400 . S
C1571 C1570 1.385 . S
C1572 C1570 1.478 . S
C1572 C1574 1.381 . S
C1572 C1578 1.383 . S
C1573 C1569 1.495 . S
C1573 H1579 0.959 . S
C1573 H1580 0.961 . S
C1573 H1581 0.960 . S
C1574 C1572 1.381 . S
C1574 C1575 1.394 . S
C1574 H1582 0.930 . S
C1575 C1574 1.394 . S
C1575 C1576 1.383 . S
C1575 H1583 0.929 1_554 S
C1576 C1575 1.383 . S
C1576 C1577 1.377 . S
C1577 H1561 0.930 . S
C1577 C1576 1.377 . S
C1577 C1578 1.379 . S
C1578 H1562 0.931 . S
C1578 C1572 1.383 . S
C1578 C1577 1.379 . S
H1579 C1573 0.959 . S
H1580 C1573 0.961 . S
H1581 C1573 0.960 . S
H1582 C1574 0.930 . S
H1583 C1575 0.929 1_556 S
H1584 C1592 0.929 . S
H1585 C1594 0.930 . S
H1586 C1596 0.930 . S
H1587 C1599 0.929 . S
H1588 C1602 0.930 . S
H1589 C1604 0.960 . S
H1590 C1604 0.960 . S
H1591 C1604 0.960 . S
C1592 H1584 0.929 . S
C1592 C1593 1.377 . S
C1592 C1594 1.384 . S
C1593 C1592 1.377 . S
C1593 C1599 1.390 . S
C1594 H1585 0.930 . S
C1594 C1592 1.384 . S
C1594 C1595 1.372 . S
C1595 C1594 1.372 . S
C1595 C1596 1.400 . S
C1595 C1600 1.490 . S
C1596 H1586 0.930 . S
C1596 C1595 1.400 . S
C1596 C1599 1.386 . S
H1597 C1613 0.930 1_554 S
H1598 C1614 0.931 . S
C1599 H1587 0.929 . S
C1599 C1593 1.390 . S
C1599 C1596 1.386 . S
C1600 C1595 1.490 . S
C1600 C1602 1.395 . S
C1600 C1603 1.403 . S
H1601 C1607 0.930 . S
C1602 H1588 0.930 . S
C1602 C1600 1.395 . S
C1602 C1605 1.403 . S
C1603 C1600 1.403 . S
C1603 C1604 1.524 . S
C1603 C1607 1.400 . S
C1604 H1589 0.960 . S
C1604 H1590 0.960 . S
C1604 H1591 0.960 . S
C1604 C1603 1.524 . S
C1605 C1602 1.403 . S
C1605 C1606 1.392 . S
C1605 C1609 1.495 . S
C1606 C1605 1.392 . S
C1606 C1607 1.385 . S
C1606 C1608 1.478 . S
C1607 H1601 0.930 . S
C1607 C1603 1.400 . S
C1607 C1606 1.385 . S
C1608 C1606 1.478 . S
C1608 C1610 1.381 . S
C1608 C1614 1.383 . S
C1609 C1605 1.495 . S
C1609 H1615 0.959 . S
C1609 H1616 0.961 . S
C1609 H1617 0.960 . S
C1610 C1608 1.381 . S
C1610 C1611 1.394 . S
C1610 H1618 0.930 . S
C1611 C1610 1.394 . S
C1611 C1612 1.383 . S
C1611 H1619 0.929 . S
C1612 C1611 1.383 . S
C1612 C1613 1.377 . S
C1613 H1597 0.930 1_556 S
C1613 C1612 1.377 . S
C1613 C1614 1.379 . S
C1614 H1598 0.931 . S
C1614 C1608 1.383 . S
C1614 C1613 1.379 . S
H1615 C1609 0.959 . S
H1616 C1609 0.961 . S
H1617 C1609 0.960 . S
H1618 C1610 0.930 . S
H1619 C1611 0.929 . S
H1620 C1628 0.929 . S
H1621 C1630 0.930 . S
H1622 C1632 0.930 . S
H1623 C1635 0.929 . S
H1624 C1638 0.930 . S
H1625 C1640 0.960 . S
H1626 C1640 0.960 . S
H1627 C1640 0.960 . S
C1628 H1620 0.929 . S
C1628 C1629 1.377 . S
C1628 C1630 1.384 . S
C1629 C1628 1.377 . S
C1629 C1635 1.390 . S
C1630 H1621 0.930 . S
C1630 C1628 1.384 . S
C1630 C1631 1.372 . S
C1631 C1630 1.372 . S
C1631 C1632 1.400 . S
C1631 C1636 1.490 . S
C1632 H1622 0.930 . S
C1632 C1631 1.400 . S
C1632 C1635 1.386 . S
H1633 C1649 0.930 . S
H1634 C1650 0.931 . S
C1635 H1623 0.929 . S
C1635 C1629 1.390 . S
C1635 C1632 1.386 . S
C1636 C1631 1.490 . S
C1636 C1638 1.395 . S
C1636 C1639 1.403 . S
H1637 C1643 0.930 . S
C1638 H1624 0.930 . S
C1638 C1636 1.395 . S
C1638 C1641 1.403 . S
C1639 C1636 1.403 . S
C1639 C1640 1.524 . S
C1639 C1643 1.400 . S
C1640 H1625 0.960 . S
C1640 H1626 0.960 . S
C1640 H1627 0.960 . S
C1640 C1639 1.524 . S
C1641 C1638 1.403 . S
C1641 C1642 1.392 . S
C1641 C1645 1.495 . S
C1642 C1641 1.392 . S
C1642 C1643 1.385 . S
C1642 C1644 1.478 . S
C1643 H1637 0.930 . S
C1643 C1639 1.400 . S
C1643 C1642 1.385 . S
C1644 C1642 1.478 . S
C1644 C1646 1.381 . S
C1644 C1650 1.383 . S
C1645 C1641 1.495 . S
C1645 H1651 0.959 . S
C1645 H1652 0.953 1_556 S
C1645 H1653 0.960 . S
C1646 C1644 1.381 . S
C1646 C1647 1.394 . S
C1646 H1654 0.930 . S
C1647 C1646 1.394 . S
C1647 C1648 1.383 . S
C1647 H1655 0.929 . S
C1648 C1647 1.383 . S
C1648 C1649 1.377 . S
C1649 H1633 0.930 . S
C1649 C1648 1.377 . S
C1649 C1650 1.379 . S
C1650 H1634 0.931 . S
C1650 C1644 1.383 . S
C1650 C1649 1.379 . S
H1651 C1645 0.959 . S
H1652 C1645 0.953 1_554 S
H1653 C1645 0.960 . S
H1654 C1646 0.930 . S
H1655 C1647 0.929 . S
H1656 C1664 0.929 . S
H1657 C1666 0.930 . S
H1658 C1668 0.930 . S
H1659 C1671 0.929 . S
H1660 C1674 0.930 . S
H1661 C1676 0.960 . S
H1662 C1676 0.960 . S
H1663 C1676 0.960 . S
C1664 H1656 0.929 . S
C1664 C1665 1.377 . S
C1664 C1666 1.384 . S
C1665 C1664 1.377 . S
C1665 C1671 1.390 . S
C1666 H1657 0.930 . S
C1666 C1664 1.384 . S
C1666 C1667 1.372 . S
C1667 C1666 1.372 . S
C1667 C1668 1.400 . S
C1667 C1672 1.490 . S
C1668 H1658 0.930 . S
C1668 C1667 1.400 . S
C1668 C1671 1.386 . S
H1669 C1685 0.930 . S
H1670 C1686 0.931 . S
C1671 H1659 0.929 . S
C1671 C1665 1.390 . S
C1671 C1668 1.386 . S
C1672 C1667 1.490 . S
C1672 C1674 1.395 . S
C1672 C1675 1.403 . S
H1673 C1679 0.930 . S
C1674 H1660 0.930 . S
C1674 C1672 1.395 . S
C1674 C1677 1.403 . S
C1675 C1672 1.403 . S
C1675 C1676 1.524 . S
C1675 C1679 1.400 . S
C1676 H1661 0.960 . S
C1676 H1662 0.960 . S
C1676 H1663 0.960 . S
C1676 C1675 1.524 . S
C1677 C1674 1.403 . S
C1677 C1678 1.392 . S
C1677 C1681 1.406 1_556 S
C1678 C1677 1.392 . S
C1678 C1679 1.385 . S
C1678 C1680 1.478 . S
C1679 H1673 0.930 . S
C1679 C1675 1.400 . S
C1679 C1678 1.385 . S
C1680 C1678 1.478 . S
C1680 C1682 1.381 . S
C1680 C1686 1.383 . S
C1681 C1677 1.406 1_554 S
C1681 H1687 0.998 . S
C1681 H1688 0.999 . S
C1681 H1689 0.983 . S
C1682 C1680 1.381 . S
C1682 C1683 1.394 . S
C1682 H1690 0.930 . S
C1683 C1682 1.394 . S
C1683 C1684 1.383 . S
C1683 H1691 0.929 . S
C1684 C1683 1.383 . S
C1684 C1685 1.377 . S
C1685 H1669 0.930 . S
C1685 C1684 1.377 . S
C1685 C1686 1.379 . S
C1686 H1670 0.931 . S
C1686 C1680 1.383 . S
C1686 C1685 1.379 . S
H1687 C1681 0.998 . S
H1688 C1681 0.999 . S
H1689 C1681 0.983 . S
H1690 C1682 0.930 . S
H1691 C1683 0.929 . S
H1692 C1700 0.929 . S
H1693 C1702 0.930 . S
H1694 C1704 0.930 . S
H1695 C1707 0.929 . S
H1696 C1710 0.930 . S
H1697 C1712 0.960 . S
H1698 C1712 0.960 . S
H1699 C1712 0.960 . S
C1700 H1692 0.929 . S
C1700 C1701 1.377 . S
C1700 C1702 1.384 . S
C1701 C1700 1.377 . S
C1701 C1707 1.390 . S
C1702 H1693 0.930 . S
C1702 C1700 1.384 . S
C1702 C1703 1.372 . S
C1703 C1702 1.372 . S
C1703 C1704 1.400 . S
C1703 C1708 1.490 . S
C1704 H1694 0.930 . S
C1704 C1703 1.400 . S
C1704 C1707 1.386 . S
H1705 C1721 0.930 1_554 S
H1706 C1722 0.931 . S
C1707 H1695 0.929 . S
C1707 C1701 1.390 . S
C1707 C1704 1.386 . S
C1708 C1703 1.490 . S
C1708 C1710 1.395 . S
C1708 C1711 1.403 . S
H1709 C1715 0.930 . S
C1710 H1696 0.930 . S
C1710 C1708 1.395 . S
C1710 C1713 1.403 . S
C1711 C1708 1.403 . S
C1711 C1712 1.524 . S
C1711 C1715 1.400 . S
C1712 H1697 0.960 . S
C1712 H1698 0.960 . S
C1712 H1699 0.960 . S
C1712 C1711 1.524 . S
C1713 C1710 1.403 . S
C1713 C1714 1.392 . S
C1713 C1717 1.495 . S
C1714 C1713 1.392 . S
C1714 C1715 1.385 . S
C1714 C1716 1.478 . S
C1715 H1709 0.930 . S
C1715 C1711 1.400 . S
C1715 C1714 1.385 . S
C1716 C1714 1.478 . S
C1716 C1718 1.381 . S
C1716 C1722 1.383 . S
C1717 C1713 1.495 . S
C1717 H1723 0.959 . S
C1717 H1724 0.961 . S
C1717 H1725 0.960 . S
C1718 C1716 1.381 . S
C1718 C1719 1.394 . S
C1718 H1726 0.930 . S
C1719 C1718 1.394 . S
C1719 C1720 1.383 . S
C1719 H1727 0.929 . S
C1720 C1719 1.383 . S
C1720 C1721 1.377 . S
C1721 H1705 0.930 1_556 S
C1721 C1720 1.377 . S
C1721 C1722 1.379 . S
C1722 H1706 0.931 . S
C1722 C1716 1.383 . S
C1722 C1721 1.379 . S
H1723 C1717 0.959 . S
H1724 C1717 0.961 . S
H1725 C1717 0.960 . S
H1726 C1718 0.930 . S
H1727 C1719 0.929 . S
H1728 C1736 0.929 . S
H1729 C1738 0.930 . S
H1730 C1740 0.930 . S
H1731 C1743 0.929 . S
H1732 C1746 0.930 . S
H1733 C1748 0.960 . S
H1734 C1748 0.960 . S
H1735 C1748 0.960 . S
C1736 H1728 0.929 . S
C1736 C1737 1.377 . S
C1736 C1738 1.384 . S
C1737 C1736 1.377 . S
C1737 C1743 1.390 . S
C1738 H1729 0.930 . S
C1738 C1736 1.384 . S
C1738 C1739 1.372 . S
C1739 C1738 1.372 . S
C1739 C1740 1.400 . S
C1739 C1744 1.490 . S
C1740 H1730 0.930 . S
C1740 C1739 1.400 . S
C1740 C1743 1.386 . S
H1741 C1757 0.930 1_554 S
H1742 C1758 0.931 . S
C1743 H1731 0.929 . S
C1743 C1737 1.390 . S
C1743 C1740 1.386 . S
C1744 C1739 1.490 . S
C1744 C1746 1.395 . S
C1744 C1747 1.403 . S
H1745 C1751 0.930 . S
C1746 H1732 0.930 . S
C1746 C1744 1.395 . S
C1746 C1749 1.403 . S
C1747 C1744 1.403 . S
C1747 C1748 1.524 . S
C1747 C1751 1.400 . S
C1748 H1733 0.960 . S
C1748 H1734 0.960 . S
C1748 H1735 0.960 . S
C1748 C1747 1.524 . S
C1749 C1746 1.403 . S
C1749 C1750 1.392 . S
C1749 C1753 1.495 . S
C1750 C1749 1.392 . S
C1750 C1751 1.385 . S
C1750 C1752 1.478 . S
C1751 H1745 0.930 . S
C1751 C1747 1.400 . S
C1751 C1750 1.385 . S
C1752 C1750 1.478 . S
C1752 C1754 1.381 . S
C1752 C1758 1.383 . S
C1753 C1749 1.495 . S
C1753 H1759 0.959 . S
C1753 H1760 0.961 . S
C1753 H1761 0.960 . S
C1754 C1752 1.381 . S
C1754 C1755 1.394 . S
C1754 H1762 0.930 . S
C1755 C1754 1.394 . S
C1755 C1756 1.383 . S
C1755 H1763 0.929 . S
C1756 C1755 1.383 . S
C1756 C1757 1.377 . S
C1757 H1741 0.930 1_556 S
C1757 C1756 1.377 . S
C1757 C1758 1.379 . S
C1758 H1742 0.931 . S
C1758 C1752 1.383 . S
C1758 C1757 1.379 . S
H1759 C1753 0.959 . S
H1760 C1753 0.961 . S
H1761 C1753 0.960 . S
H1762 C1754 0.930 . S
H1763 C1755 0.929 . S
H1764 C1772 0.929 . S
H1765 C1774 0.930 . S
H1766 C1776 0.930 . S
H1767 C1779 0.929 . S
H1768 C1782 0.930 . S
H1769 C1784 0.960 . S
H1770 C1784 0.960 . S
H1771 C1784 0.960 . S
C1772 H1764 0.929 . S
C1772 C1773 1.377 . S
C1772 C1774 1.384 . S
C1773 C1772 1.377 . S
C1773 C1779 1.390 . S
C1774 H1765 0.930 . S
C1774 C1772 1.384 . S
C1774 C1775 1.372 . S
C1775 C1774 1.372 . S
C1775 C1776 1.400 . S
C1775 C1780 1.490 . S
C1776 H1766 0.930 . S
C1776 C1775 1.400 . S
C1776 C1779 1.386 . S
H1777 C1793 0.930 1_554 S
H1778 C1794 0.931 . S
C1779 H1767 0.929 . S
C1779 C1773 1.390 . S
C1779 C1776 1.386 . S
C1780 C1775 1.490 . S
C1780 C1782 1.395 . S
C1780 C1783 1.403 . S
H1781 C1787 0.930 . S
C1782 H1768 0.930 . S
C1782 C1780 1.395 . S
C1782 C1785 1.403 . S
C1783 C1780 1.403 . S
C1783 C1784 1.524 . S
C1783 C1787 1.400 . S
C1784 H1769 0.960 . S
C1784 H1770 0.960 . S
C1784 H1771 0.960 . S
C1784 C1783 1.524 . S
C1785 C1782 1.403 . S
C1785 C1786 1.392 . S
C1785 C1789 1.495 . S
C1786 C1785 1.392 . S
C1786 C1787 1.385 . S
C1786 C1788 1.478 . S
C1787 H1781 0.930 . S
C1787 C1783 1.400 . S
C1787 C1786 1.385 . S
C1788 C1786 1.478 . S
C1788 C1790 1.381 . S
C1788 C1794 1.383 . S
C1789 C1785 1.495 . S
C1789 H1795 0.959 . S
C1789 H1796 0.961 . S
C1789 H1797 0.960 . S
C1790 C1788 1.381 . S
C1790 C1791 1.394 . S
C1790 H1798 0.930 . S
C1791 C1790 1.394 . S
C1791 C1792 1.383 . S
C1791 H1799 0.929 . S
C1792 C1791 1.383 . S
C1792 C1793 1.377 . S
C1793 H1777 0.930 1_556 S
C1793 C1792 1.377 . S
C1793 C1794 1.379 . S
C1794 H1778 0.931 . S
C1794 C1788 1.383 . S
C1794 C1793 1.379 . S
H1795 C1789 0.959 . S
H1796 C1789 0.961 . S
H1797 C1789 0.960 . S
H1798 C1790 0.930 . S
H1799 C1791 0.929 . S
H1800 C1808 0.929 . S
H1801 C1810 0.930 . S
H1802 C1812 0.930 . S
H1803 C1815 0.929 . S
H1804 C1818 0.930 . S
H1805 C1820 0.960 . S
H1806 C1820 0.960 . S
H1807 C1820 0.960 . S
C1808 H1800 0.929 . S
C1808 C1809 1.377 . S
C1808 C1810 1.384 . S
C1809 C1808 1.377 . S
C1809 C1815 1.390 . S
C1810 H1801 0.930 . S
C1810 C1808 1.384 . S
C1810 C1811 1.372 . S
C1811 C1810 1.372 . S
C1811 C1812 1.400 . S
C1811 C1816 1.490 . S
C1812 H1802 0.930 . S
C1812 C1811 1.400 . S
C1812 C1815 1.386 . S
H1813 C1829 0.930 . S
H1814 C1830 0.931 . S
C1815 H1803 0.929 . S
C1815 C1809 1.390 . S
C1815 C1812 1.386 . S
C1816 C1811 1.490 . S
C1816 C1818 1.395 . S
C1816 C1819 1.403 . S
H1817 C1823 0.930 . S
C1818 H1804 0.930 . S
C1818 C1816 1.395 . S
C1818 C1821 1.403 . S
C1819 C1816 1.403 . S
C1819 C1820 1.524 . S
C1819 C1823 1.400 . S
C1820 H1805 0.960 . S
C1820 H1806 0.960 . S
C1820 H1807 0.960 . S
C1820 C1819 1.524 . S
C1821 C1818 1.403 . S
C1821 C1822 1.392 . S
C1821 C1825 1.495 . S
C1822 C1821 1.392 . S
C1822 C1823 1.385 . S
C1822 C1824 1.478 . S
C1823 H1817 0.930 . S
C1823 C1819 1.400 . S
C1823 C1822 1.385 . S
C1824 C1822 1.478 . S
C1824 C1826 1.381 . S
C1824 C1830 1.383 . S
C1825 C1821 1.495 . S
C1825 H1831 0.959 . S
C1825 H1832 0.961 . S
C1825 H1833 0.960 . S
C1826 C1824 1.381 . S
C1826 C1827 1.394 . S
C1826 H1834 0.930 . S
C1827 C1826 1.394 . S
C1827 C1828 1.383 . S
C1827 H1835 0.929 . S
C1828 C1827 1.383 . S
C1828 C1829 1.377 . S
C1829 H1813 0.930 . S
C1829 C1828 1.377 . S
C1829 C1830 1.379 . S
C1830 H1814 0.931 . S
C1830 C1824 1.383 . S
C1830 C1829 1.379 . S
H1831 C1825 0.959 . S
H1832 C1825 0.961 . S
H1833 C1825 0.960 . S
H1834 C1826 0.930 . S
H1835 C1827 0.929 . S
H1836 C1844 0.929 . S
H1837 C1846 0.930 . S
H1838 C1848 0.930 . S
H1839 C1851 0.929 . S
H1840 C1854 0.930 . S
H1841 C1856 0.960 . S
H1842 C1856 0.960 . S
H1843 C1856 0.960 . S
C1844 H1836 0.929 . S
C1844 C1845 1.377 . S
C1844 C1846 1.384 . S
C1845 C1844 1.377 . S
C1845 C1851 1.390 . S
C1846 H1837 0.930 . S
C1846 C1844 1.384 . S
C1846 C1847 1.372 . S
C1847 C1846 1.372 . S
C1847 C1848 1.400 . S
C1847 C1852 1.490 . S
C1848 H1838 0.930 . S
C1848 C1847 1.400 . S
C1848 C1851 1.386 . S
H1849 C1865 0.930 . S
H1850 C1866 0.931 . S
C1851 H1839 0.929 . S
C1851 C1845 1.390 . S
C1851 C1848 1.386 . S
C1852 C1847 1.490 . S
C1852 C1854 1.395 . S
C1852 C1855 1.403 . S
H1853 C1859 0.930 . S
C1854 H1840 0.930 . S
C1854 C1852 1.395 . S
C1854 C1857 1.403 . S
C1855 C1852 1.403 . S
C1855 C1856 1.524 . S
C1855 C1859 1.400 . S
C1856 H1841 0.960 . S
C1856 H1842 0.960 . S
C1856 H1843 0.960 . S
C1856 C1855 1.524 . S
C1857 C1854 1.403 . S
C1857 C1858 1.392 . S
C1857 C1861 1.495 . S
C1858 C1857 1.392 . S
C1858 C1859 1.385 . S
C1858 C1860 1.478 . S
C1859 H1853 0.930 . S
C1859 C1855 1.400 . S
C1859 C1858 1.385 . S
C1860 C1858 1.478 . S
C1860 C1862 1.381 . S
C1860 C1866 1.383 . S
C1861 C1857 1.495 . S
C1861 H1867 0.959 . S
C1861 H1868 0.961 . S
C1861 H1869 0.960 . S
C1862 C1860 1.381 . S
C1862 C1863 1.394 . S
C1862 H1870 0.930 . S
C1863 C1862 1.394 . S
C1863 C1864 1.383 . S
C1863 H1871 0.929 . S
C1864 C1863 1.383 . S
C1864 C1865 1.377 . S
C1865 H1849 0.930 . S
C1865 C1864 1.377 . S
C1865 C1866 1.379 . S
C1866 H1850 0.931 . S
C1866 C1860 1.383 . S
C1866 C1865 1.379 . S
H1867 C1861 0.959 . S
H1868 C1861 0.961 . S
H1869 C1861 0.960 . S
H1870 C1862 0.930 . S
H1871 C1863 0.929 . S
H1872 C1880 0.929 . S
H1873 C1882 0.930 . S
H1874 C1884 0.930 . S
H1875 C1887 0.929 . S
H1876 C1890 0.930 . S
H1877 C1892 0.960 . S
H1878 C1892 0.960 . S
H1879 C1892 0.960 . S
C1880 H1872 0.929 . S
C1880 C1881 1.377 . S
C1880 C1882 1.384 . S
C1881 C1880 1.377 . S
C1881 C1887 1.390 . S
C1882 H1873 0.930 . S
C1882 C1880 1.384 . S
C1882 C1883 1.372 . S
C1883 C1882 1.372 . S
C1883 C1884 1.400 . S
C1883 C1888 1.490 . S
C1884 H1874 0.930 . S
C1884 C1883 1.400 . S
C1884 C1887 1.386 . S
H1885 C1901 0.930 . S
H1886 C1902 0.931 . S
C1887 H1875 0.929 . S
C1887 C1881 1.390 . S
C1887 C1884 1.386 . S
C1888 C1883 1.490 . S
C1888 C1890 1.395 . S
C1888 C1891 1.403 . S
H1889 C1895 0.930 . S
C1890 H1876 0.930 . S
C1890 C1888 1.395 . S
C1890 C1893 1.403 . S
C1891 C1888 1.403 . S
C1891 C1892 1.524 . S
C1891 C1895 1.400 . S
C1892 H1877 0.960 . S
C1892 H1878 0.960 . S
C1892 H1879 0.960 . S
C1892 C1891 1.524 . S
C1893 C1890 1.403 . S
C1893 C1894 1.392 . S
C1893 C1897 1.495 . S
C1894 C1893 1.392 . S
C1894 C1895 1.385 . S
C1894 C1896 1.478 . S
C1895 H1889 0.930 . S
C1895 C1891 1.400 . S
C1895 C1894 1.385 . S
C1896 C1894 1.478 . S
C1896 C1898 1.381 . S
C1896 C1902 1.383 . S
C1897 C1893 1.495 . S
C1897 H1903 0.959 . S
C1897 H1904 0.961 . S
C1897 H1905 0.960 . S
C1898 C1896 1.381 . S
C1898 C1899 1.394 . S
C1898 H1906 0.930 . S
C1899 C1898 1.394 . S
C1899 C1900 1.383 . S
C1899 H1907 0.929 . S
C1900 C1899 1.383 . S
C1900 C1901 1.377 . S
C1901 H1885 0.930 . S
C1901 C1900 1.377 . S
C1901 C1902 1.379 . S
C1902 H1886 0.931 . S
C1902 C1896 1.383 . S
C1902 C1901 1.379 . S
H1903 C1897 0.959 . S
H1904 C1897 0.961 . S
H1905 C1897 0.960 . S
H1906 C1898 0.930 . S
H1907 C1899 0.929 . S
H1908 C1916 0.929 . S
H1909 C1918 0.930 . S
H1910 C1920 0.930 . S
H1911 C1923 0.929 . S
H1912 C1926 0.930 . S
H1913 C1928 0.960 . S
H1914 C1928 0.960 . S
H1915 C1928 0.960 . S
C1916 H1908 0.929 . S
C1916 C1917 1.377 . S
C1916 C1918 1.384 1_655 S
C1917 C1916 1.377 . S
C1917 C1923 1.390 . S
C1918 H1909 0.930 . S
C1918 C1916 1.384 1_455 S
C1918 C1919 1.372 . S
C1919 C1918 1.372 . S
C1919 C1920 1.400 . S
C1919 C1924 1.490 . S
C1920 H1910 0.930 . S
C1920 C1919 1.400 . S
C1920 C1923 1.386 1_455 S
H1921 C1937 0.930 . S
H1922 C1938 0.931 . S
C1923 H1911 0.929 . S
C1923 C1917 1.390 . S
C1923 C1920 1.386 1_655 S
C1924 C1919 1.490 . S
C1924 C1926 1.395 . S
C1924 C1927 1.403 . S
H1925 C1931 0.930 . S
C1926 H1912 0.930 . S
C1926 C1924 1.395 . S
C1926 C1929 1.403 . S
C1927 C1924 1.403 . S
C1927 C1928 1.524 . S
C1927 C1931 1.400 . S
C1928 H1913 0.960 . S
C1928 H1914 0.960 . S
C1928 H1915 0.960 . S
C1928 C1927 1.524 . S
C1929 C1926 1.403 . S
C1929 C1930 1.392 . S
C1929 C1933 1.495 . S
C1930 C1929 1.392 . S
C1930 C1931 1.385 . S
C1930 C1932 1.478 . S
C1931 H1925 0.930 . S
C1931 C1927 1.400 . S
C1931 C1930 1.385 . S
C1932 C1930 1.478 . S
C1932 C1934 1.381 . S
C1932 C1938 1.383 . S
C1933 C1929 1.495 . S
C1933 H1939 0.959 . S
C1933 H1940 0.961 . S
C1933 H1941 0.960 . S
C1934 C1932 1.381 . S
C1934 C1935 1.394 . S
C1934 H1942 0.930 . S
C1935 C1934 1.394 . S
C1935 C1936 1.383 . S
C1935 H1943 0.929 . S
C1936 C1935 1.383 . S
C1936 C1937 1.377 . S
C1937 H1921 0.930 . S
C1937 C1936 1.377 . S
C1937 C1938 1.379 . S
C1938 H1922 0.931 . S
C1938 C1932 1.383 . S
C1938 C1937 1.379 . S
H1939 C1933 0.959 . S
H1940 C1933 0.961 . S
H1941 C1933 0.960 . S
H1942 C1934 0.930 . S
H1943 C1935 0.929 . S
H1944 C1952 0.929 . S
H1945 C1954 0.930 . S
H1946 C1956 0.930 . S
H1947 C1959 0.929 . S
H1948 C1962 0.930 . S
H1949 C1964 0.960 . S
H1950 C1964 0.960 . S
H1951 C1964 0.960 . S
C1952 H1944 0.929 . S
C1952 C1953 1.377 . S
C1952 C1954 1.384 . S
C1953 C1952 1.377 . S
C1953 C1959 1.390 . S
C1954 H1945 0.930 . S
C1954 C1952 1.384 . S
C1954 C1955 1.372 . S
C1955 C1954 1.372 . S
C1955 C1956 1.400 . S
C1955 C1960 1.490 . S
C1956 H1946 0.930 . S
C1956 C1955 1.400 . S
C1956 C1959 1.386 . S
H1957 C1973 0.930 . S
H1958 C1974 0.931 . S
C1959 H1947 0.929 . S
C1959 C1953 1.390 . S
C1959 C1956 1.386 . S
C1960 C1955 1.490 . S
C1960 C1962 1.395 . S
C1960 C1963 1.403 . S
H1961 C1967 0.930 . S
C1962 H1948 0.930 . S
C1962 C1960 1.395 . S
C1962 C1965 1.403 . S
C1963 C1960 1.403 . S
C1963 C1964 1.524 . S
C1963 C1967 1.400 . S
C1964 H1949 0.960 . S
C1964 H1950 0.960 . S
C1964 H1951 0.960 . S
C1964 C1963 1.524 . S
C1965 C1962 1.403 . S
C1965 C1966 1.392 . S
C1965 C1969 1.495 . S
C1966 C1965 1.392 . S
C1966 C1967 1.385 . S
C1966 C1968 1.478 . S
C1967 H1961 0.930 . S
C1967 C1963 1.400 . S
C1967 C1966 1.385 . S
C1968 C1966 1.478 . S
C1968 C1970 1.381 . S
C1968 C1974 1.383 . S
C1969 C1965 1.495 . S
C1969 H1975 0.959 . S
C1969 H1976 0.961 . S
C1969 H1977 0.960 . S
C1970 C1968 1.381 . S
C1970 C1971 1.394 . S
C1970 H1978 0.930 . S
C1971 C1970 1.394 . S
C1971 C1972 1.383 . S
C1971 H1979 0.929 . S
C1972 C1971 1.383 . S
C1972 C1973 1.377 . S
C1973 H1957 0.930 . S
C1973 C1972 1.377 . S
C1973 C1974 1.379 . S
C1974 H1958 0.931 . S
C1974 C1968 1.383 . S
C1974 C1973 1.379 . S
H1975 C1969 0.959 . S
H1976 C1969 0.961 . S
H1977 C1969 0.960 . S
H1978 C1970 0.930 . S
H1979 C1971 0.929 . S
H1980 C1988 0.929 . S
H1981 C1990 0.930 . S
H1982 C1992 0.930 . S
H1983 C1995 0.929 . S
H1984 C1998 0.930 . S
H1985 C2000 0.960 . S
H1986 C2000 0.960 . S
H1987 C2000 0.960 . S
C1988 H1980 0.929 . S
C1988 C1989 1.377 . S
C1988 C1990 1.384 . S
C1989 C1988 1.377 . S
C1989 C1995 1.390 . S
C1990 H1981 0.930 . S
C1990 C1988 1.384 . S
C1990 C1991 1.372 1_545 S
C1991 C1990 1.372 1_565 S
C1991 C1992 1.400 . S
C1991 C1996 1.490 . S
C1992 H1982 0.930 . S
C1992 C1991 1.400 . S
C1992 C1995 1.386 1_565 S
H1993 C2009 0.930 . S
H1994 C2010 0.931 . S
C1995 H1983 0.929 . S
C1995 C1989 1.390 . S
C1995 C1992 1.386 1_545 S
C1996 C1991 1.490 . S
C1996 C1998 1.395 . S
C1996 C1999 1.403 . S
H1997 C2003 0.930 . S
C1998 H1984 0.930 . S
C1998 C1996 1.395 . S
C1998 C2001 1.403 . S
C1999 C1996 1.403 . S
C1999 C2000 1.524 . S
C1999 C2003 1.400 . S
C2000 H1985 0.960 . S
C2000 H1986 0.960 . S
C2000 H1987 0.960 . S
C2000 C1999 1.524 . S
C2001 C1998 1.403 . S
C2001 C2002 1.392 . S
C2001 C2005 1.495 . S
C2002 C2001 1.392 . S
C2002 C2003 1.385 . S
C2002 C2004 1.478 . S
C2003 H1997 0.930 . S
C2003 C1999 1.400 . S
C2003 C2002 1.385 . S
C2004 C2002 1.478 . S
C2004 C2006 1.381 . S
C2004 C2010 1.383 . S
C2005 C2001 1.495 . S
C2005 H2011 0.959 . S
C2005 H2012 0.961 . S
C2005 H2013 0.960 . S
C2006 C2004 1.381 . S
C2006 C2007 1.394 . S
C2006 H2014 0.930 . S
C2007 C2006 1.394 . S
C2007 C2008 1.383 . S
C2007 H2015 0.929 . S
C2008 C2007 1.383 . S
C2008 C2009 1.377 . S
C2009 H1993 0.930 . S
C2009 C2008 1.377 . S
C2009 C2010 1.379 . S
C2010 H1994 0.931 . S
C2010 C2004 1.383 . S
C2010 C2009 1.379 . S
H2011 C2005 0.959 . S
H2012 C2005 0.961 . S
H2013 C2005 0.960 . S
H2014 C2006 0.930 . S
H2015 C2007 0.929 . S
H2016 C2024 0.929 . S
H2017 C2026 0.930 . S
H2018 C2028 0.930 . S
H2019 C2031 0.929 . S
H2020 C2034 0.930 . S
H2021 C2036 0.960 . S
H2022 C2036 0.960 . S
H2023 C2036 0.960 . S
C2024 H2016 0.929 . S
C2024 C2025 1.377 . S
C2024 C2026 1.384 . S
C2025 C2024 1.377 . S
C2025 C2031 1.390 . S
C2026 H2017 0.930 . S
C2026 C2024 1.384 . S
C2026 C2027 1.372 . S
C2027 C2026 1.372 . S
C2027 C2028 1.400 . S
C2027 C2032 1.490 . S
C2028 H2018 0.930 . S
C2028 C2027 1.400 . S
C2028 C2031 1.386 . S
H2029 C2045 0.930 . S
H2030 C2046 0.931 . S
C2031 H2019 0.929 . S
C2031 C2025 1.390 . S
C2031 C2028 1.386 . S
C2032 C2027 1.490 . S
C2032 C2034 1.395 . S
C2032 C2035 1.403 . S
H2033 C2039 0.930 . S
C2034 H2020 0.930 . S
C2034 C2032 1.395 . S
C2034 C2037 1.403 . S
C2035 C2032 1.403 . S
C2035 C2036 1.524 . S
C2035 C2039 1.400 . S
C2036 H2021 0.960 . S
C2036 H2022 0.960 . S
C2036 H2023 0.960 . S
C2036 C2035 1.524 . S
C2037 C2034 1.403 . S
C2037 C2038 1.392 . S
C2037 C2041 1.495 . S
C2038 C2037 1.392 . S
C2038 C2039 1.385 . S
C2038 C2040 1.478 . S
C2039 H2033 0.930 . S
C2039 C2035 1.400 . S
C2039 C2038 1.385 . S
C2040 C2038 1.478 . S
C2040 C2042 1.381 . S
C2040 C2046 1.383 . S
C2041 C2037 1.495 . S
C2041 H2047 0.959 . S
C2041 H2048 0.961 . S
C2041 H2049 0.960 . S
C2042 C2040 1.381 . S
C2042 C2043 1.394 . S
C2042 H2050 0.930 . S
C2043 C2042 1.394 . S
C2043 C2044 1.383 . S
C2043 H2051 0.929 . S
C2044 C2043 1.383 . S
C2044 C2045 1.377 . S
C2045 H2029 0.930 . S
C2045 C2044 1.377 . S
C2045 C2046 1.379 . S
C2046 H2030 0.931 . S
C2046 C2040 1.383 . S
C2046 C2045 1.379 . S
H2047 C2041 0.959 . S
H2048 C2041 0.961 . S
H2049 C2041 0.960 . S
H2050 C2042 0.930 . S
H2051 C2043 0.929 . S
H2052 C2060 0.929 . S
H2053 C2062 0.930 . S
H2054 C2064 0.930 . S
H2055 C2067 0.929 . S
H2056 C2070 0.930 . S
H2057 C2072 0.960 . S
H2058 C2072 0.960 . S
H2059 C2072 0.960 . S
C2060 H2052 0.929 . S
C2060 C2061 1.377 . S
C2060 C2062 1.384 . S
C2061 C2060 1.377 . S
C2061 C2067 1.390 . S
C2062 H2053 0.930 . S
C2062 C2060 1.384 . S
C2062 C2063 1.372 . S
C2063 C2062 1.372 . S
C2063 C2064 1.400 . S
C2063 C2068 1.490 . S
C2064 H2054 0.930 . S
C2064 C2063 1.400 . S
C2064 C2067 1.386 . S
H2065 C2081 0.930 . S
H2066 C2082 0.931 . S
C2067 H2055 0.929 . S
C2067 C2061 1.390 . S
C2067 C2064 1.386 . S
C2068 C2063 1.490 . S
C2068 C2070 1.395 . S
C2068 C2071 1.403 . S
H2069 C2075 0.930 . S
C2070 H2056 0.930 . S
C2070 C2068 1.395 . S
C2070 C2073 1.403 . S
C2071 C2068 1.403 . S
C2071 C2072 1.524 . S
C2071 C2075 1.400 . S
C2072 H2057 0.960 . S
C2072 H2058 0.960 . S
C2072 H2059 0.960 . S
C2072 C2071 1.524 . S
C2073 C2070 1.403 . S
C2073 C2074 1.392 . S
C2073 C2077 1.495 . S
C2074 C2073 1.392 . S
C2074 C2075 1.385 . S
C2074 C2076 1.478 . S
C2075 H2069 0.930 . S
C2075 C2071 1.400 . S
C2075 C2074 1.385 . S
C2076 C2074 1.478 . S
C2076 C2078 1.381 . S
C2076 C2082 1.383 . S
C2077 C2073 1.495 . S
C2077 H2083 0.959 . S
C2077 H2084 0.961 . S
C2077 H2085 0.960 . S
C2078 C2076 1.381 . S
C2078 C2079 1.394 . S
C2078 H2086 0.930 . S
C2079 C2078 1.394 . S
C2079 C2080 1.383 . S
C2079 H2087 0.929 . S
C2080 C2079 1.383 . S
C2080 C2081 1.377 . S
C2081 H2065 0.930 . S
C2081 C2080 1.377 . S
C2081 C2082 1.379 . S
C2082 H2066 0.931 . S
C2082 C2076 1.383 . S
C2082 C2081 1.379 . S
H2083 C2077 0.959 . S
H2084 C2077 0.961 . S
H2085 C2077 0.960 . S
H2086 C2078 0.930 . S
H2087 C2079 0.929 . S
H2088 C2096 0.929 . S
H2089 C2098 0.930 . S
H2090 C2100 0.930 . S
H2091 C2103 0.929 . S
H2092 C2106 0.930 . S
H2093 C2108 0.960 . S
H2094 C2108 0.960 . S
H2095 C2108 0.960 . S
C2096 H2088 0.929 . S
C2096 C2097 1.377 . S
C2096 C2098 1.384 . S
C2097 C2096 1.377 . S
C2097 C2103 1.390 . S
C2098 H2089 0.930 . S
C2098 C2096 1.384 . S
C2098 C2099 1.372 . S
C2099 C2098 1.372 . S
C2099 C2100 1.400 . S
C2099 C2104 1.490 . S
C2100 H2090 0.930 . S
C2100 C2099 1.400 . S
C2100 C2103 1.386 . S
H2101 C2117 0.930 . S
H2102 C2118 0.931 . S
C2103 H2091 0.929 . S
C2103 C2097 1.390 . S
C2103 C2100 1.386 . S
C2104 C2099 1.490 . S
C2104 C2106 1.395 . S
C2104 C2107 1.403 . S
H2105 C2111 0.930 . S
C2106 H2092 0.930 . S
C2106 C2104 1.395 . S
C2106 C2109 1.403 . S
C2107 C2104 1.403 . S
C2107 C2108 1.524 . S
C2107 C2111 1.400 . S
C2108 H2093 0.960 . S
C2108 H2094 0.960 . S
C2108 H2095 0.960 . S
C2108 C2107 1.524 . S
C2109 C2106 1.403 . S
C2109 C2110 1.392 . S
C2109 C2113 1.495 . S
C2110 C2109 1.392 . S
C2110 C2111 1.385 . S
C2110 C2112 1.478 . S
C2111 H2105 0.930 . S
C2111 C2107 1.400 . S
C2111 C2110 1.385 . S
C2112 C2110 1.478 . S
C2112 C2114 1.381 . S
C2112 C2118 1.383 . S
C2113 C2109 1.495 . S
C2113 H2119 0.959 . S
C2113 H2120 0.961 . S
C2113 H2121 0.960 . S
C2114 C2112 1.381 . S
C2114 C2115 1.394 . S
C2114 H2122 0.930 . S
C2115 C2114 1.394 . S
C2115 C2116 1.383 . S
C2115 H2123 0.929 . S
C2116 C2115 1.383 . S
C2116 C2117 1.377 . S
C2117 H2101 0.930 . S
C2117 C2116 1.377 . S
C2117 C2118 1.379 . S
C2118 H2102 0.931 . S
C2118 C2112 1.383 . S
C2118 C2117 1.379 . S
H2119 C2113 0.959 . S
H2120 C2113 0.961 . S
H2121 C2113 0.960 . S
H2122 C2114 0.930 . S
H2123 C2115 0.929 . S
H2124 C2132 0.929 . S
H2125 C2134 0.930 . S
H2126 C2136 0.930 . S
H2127 C2139 0.929 . S
H2128 C2142 0.930 . S
H2129 C2144 0.960 . S
H2130 C2144 0.960 . S
H2131 C2144 0.960 . S
C2132 H2124 0.929 . S
C2132 C2133 1.377 . S
C2132 C2134 1.384 . S
C2133 C2132 1.377 . S
C2133 C2139 1.390 . S
C2134 H2125 0.930 . S
C2134 C2132 1.384 . S
C2134 C2135 1.372 . S
C2135 C2134 1.372 . S
C2135 C2136 1.400 . S
C2135 C2140 1.490 . S
C2136 H2126 0.930 . S
C2136 C2135 1.400 . S
C2136 C2139 1.386 . S
H2137 C2153 0.930 . S
H2138 C2154 0.931 . S
C2139 H2127 0.929 . S
C2139 C2133 1.390 . S
C2139 C2136 1.386 . S
C2140 C2135 1.490 . S
C2140 C2142 1.395 . S
C2140 C2143 1.403 . S
H2141 C2147 0.930 . S
C2142 H2128 0.930 . S
C2142 C2140 1.395 . S
C2142 C2145 1.403 . S
C2143 C2140 1.403 . S
C2143 C2144 1.524 . S
C2143 C2147 1.400 . S
C2144 H2129 0.960 . S
C2144 H2130 0.960 . S
C2144 H2131 0.960 . S
C2144 C2143 1.524 . S
C2145 C2142 1.403 . S
C2145 C2146 1.392 . S
C2145 C2149 1.495 . S
C2146 C2145 1.392 . S
C2146 C2147 1.385 . S
C2146 C2148 1.478 . S
C2147 H2141 0.930 . S
C2147 C2143 1.400 . S
C2147 C2146 1.385 . S
C2148 C2146 1.478 . S
C2148 C2150 1.381 . S
C2148 C2154 1.383 . S
C2149 C2145 1.495 . S
C2149 H2155 0.959 . S
C2149 H2156 0.961 . S
C2149 H2157 0.960 . S
C2150 C2148 1.381 . S
C2150 C2151 1.394 . S
C2150 H2158 0.930 . S
C2151 C2150 1.394 . S
C2151 C2152 1.383 . S
C2151 H2159 0.929 . S
C2152 C2151 1.383 . S
C2152 C2153 1.377 . S
C2153 H2137 0.930 . S
C2153 C2152 1.377 . S
C2153 C2154 1.379 . S
C2154 H2138 0.931 . S
C2154 C2148 1.383 . S
C2154 C2153 1.379 . S
H2155 C2149 0.959 . S
H2156 C2149 0.961 . S
H2157 C2149 0.960 . S
H2158 C2150 0.930 . S
H2159 C2151 0.929 . S
H2160 C2168 0.929 . S
H2161 C2170 0.930 . S
H2162 C2172 0.930 . S
H2163 C2175 0.929 . S
H2164 C2178 0.930 . S
H2165 C2180 0.960 . S
H2166 C2180 0.960 . S
H2167 C2180 0.960 . S
C2168 H2160 0.929 . S
C2168 C2169 1.377 . S
C2168 C2170 1.384 . S
C2169 C2168 1.377 . S
C2169 C2175 1.390 . S
C2170 H2161 0.930 . S
C2170 C2168 1.384 . S
C2170 C2171 1.372 . S
C2171 C2170 1.372 . S
C2171 C2172 1.400 . S
C2171 C2176 1.490 . S
C2172 H2162 0.930 . S
C2172 C2171 1.400 . S
C2172 C2175 1.386 . S
H2173 C2189 0.930 . S
H2174 C2190 0.931 . S
C2175 H2163 0.929 . S
C2175 C2169 1.390 . S
C2175 C2172 1.386 . S
C2176 C2171 1.490 . S
C2176 C2178 1.395 . S
C2176 C2179 1.403 . S
H2177 C2183 0.930 . S
C2178 H2164 0.930 . S
C2178 C2176 1.395 . S
C2178 C2181 1.403 . S
C2179 C2176 1.403 . S
C2179 C2180 1.524 . S
C2179 C2183 1.400 . S
C2180 H2165 0.960 . S
C2180 H2166 0.960 . S
C2180 H2167 0.960 . S
C2180 C2179 1.524 . S
C2181 C2178 1.403 . S
C2181 C2182 1.392 . S
C2181 C2185 1.495 . S
C2182 C2181 1.392 . S
C2182 C2183 1.385 . S
C2182 C2184 1.478 . S
C2183 H2177 0.930 . S
C2183 C2179 1.400 . S
C2183 C2182 1.385 . S
C2184 C2182 1.478 . S
C2184 C2186 1.381 . S
C2184 C2190 1.383 . S
C2185 C2181 1.495 . S
C2185 H2191 0.959 . S
C2185 H2192 0.961 . S
C2185 H2193 0.960 . S
C2186 C2184 1.381 . S
C2186 C2187 1.394 . S
C2186 H2194 0.930 . S
C2187 C2186 1.394 . S
C2187 C2188 1.383 . S
C2187 H2195 0.929 . S
C2188 C2187 1.383 . S
C2188 C2189 1.377 . S
C2189 H2173 0.930 . S
C2189 C2188 1.377 . S
C2189 C2190 1.379 . S
C2190 H2174 0.931 . S
C2190 C2184 1.383 . S
C2190 C2189 1.379 . S
H2191 C2185 0.959 . S
H2192 C2185 0.961 . S
H2193 C2185 0.960 . S
H2194 C2186 0.930 . S
H2195 C2187 0.929 . S
H2196 C2204 0.929 . S
H2197 C2206 0.930 . S
H2198 C2208 0.930 . S
H2199 C2211 0.929 . S
H2200 C2214 0.930 . S
H2201 C2216 0.960 . S
H2202 C2216 0.960 . S
H2203 C2216 0.960 . S
C2204 H2196 0.929 . S
C2204 C2205 1.377 . S
C2204 C2206 1.384 . S
C2205 C2204 1.377 . S
C2205 C2211 1.390 . S
C2206 H2197 0.930 . S
C2206 C2204 1.384 . S
C2206 C2207 1.372 . S
C2207 C2206 1.372 . S
C2207 C2208 1.400 . S
C2207 C2212 1.490 . S
C2208 H2198 0.930 . S
C2208 C2207 1.400 . S
C2208 C2211 1.386 . S
H2209 C2225 0.930 . S
H2210 C2226 0.931 . S
C2211 H2199 0.929 . S
C2211 C2205 1.390 . S
C2211 C2208 1.386 . S
C2212 C2207 1.490 . S
C2212 C2214 1.395 . S
C2212 C2215 1.403 . S
H2213 C2219 0.930 . S
C2214 H2200 0.930 . S
C2214 C2212 1.395 . S
C2214 C2217 1.403 . S
C2215 C2212 1.403 . S
C2215 C2216 1.524 . S
C2215 C2219 1.400 . S
C2216 H2201 0.960 . S
C2216 H2202 0.960 . S
C2216 H2203 0.960 . S
C2216 C2215 1.524 . S
C2217 C2214 1.403 . S
C2217 C2218 1.392 . S
C2217 C2221 1.495 . S
C2218 C2217 1.392 . S
C2218 C2219 1.385 . S
C2218 C2220 1.478 . S
C2219 H2213 0.930 . S
C2219 C2215 1.400 . S
C2219 C2218 1.385 . S
C2220 C2218 1.478 . S
C2220 C2222 1.381 . S
C2220 C2226 1.383 . S
C2221 C2217 1.495 . S
C2221 H2227 0.959 . S
C2221 H2228 0.961 . S
C2221 H2229 0.960 . S
C2222 C2220 1.381 . S
C2222 C2223 1.394 . S
C2222 H2230 0.930 . S
C2223 C2222 1.394 . S
C2223 C2224 1.383 . S
C2223 H2231 0.929 . S
C2224 C2223 1.383 . S
C2224 C2225 1.377 . S
C2225 H2209 0.930 . S
C2225 C2224 1.377 . S
C2225 C2226 1.379 . S
C2226 H2210 0.931 . S
C2226 C2220 1.383 . S
C2226 C2225 1.379 . S
H2227 C2221 0.959 . S
H2228 C2221 0.961 . S
H2229 C2221 0.960 . S
H2230 C2222 0.930 . S
H2231 C2223 0.929 . S
H2232 C2240 0.929 . S
H2233 C2242 0.930 . S
H2234 C2244 0.907 1_565 S
H2235 C2247 0.929 . S
H2236 C2250 0.930 . S
H2237 C2252 0.960 . S
H2238 C2252 0.960 . S
H2239 C2252 0.960 . S
C2240 H2232 0.929 . S
C2240 C2241 1.377 . S
C2240 C2242 1.384 1_545 S
C2241 C2240 1.377 . S
C2241 C2247 1.390 . S
C2242 H2233 0.930 . S
C2242 C2240 1.384 1_565 S
C2242 C2243 1.372 . S
C2243 C2242 1.372 . S
C2243 C2244 1.381 1_565 S
C2243 C2248 1.490 . S
C2244 H2234 0.907 1_545 S
C2244 C2243 1.381 1_545 S
C2244 C2247 1.430 . S
H2245 C2261 0.930 . S
H2246 C2262 0.931 . S
C2247 H2235 0.929 . S
C2247 C2241 1.390 . S
C2247 C2244 1.430 . S
C2248 C2243 1.490 . S
C2248 C2250 1.395 . S
C2248 C2251 1.403 . S
H2249 C2255 0.930 . S
C2250 H2236 0.930 . S
C2250 C2248 1.395 . S
C2250 C2253 1.403 . S
C2251 C2248 1.403 . S
C2251 C2252 1.524 . S
C2251 C2255 1.400 . S
C2252 H2237 0.960 . S
C2252 H2238 0.960 . S
C2252 H2239 0.960 . S
C2252 C2251 1.524 . S
C2253 C2250 1.403 . S
C2253 C2254 1.392 . S
C2253 C2257 1.495 . S
C2254 C2253 1.392 . S
C2254 C2255 1.385 . S
C2254 C2256 1.478 . S
C2255 H2249 0.930 . S
C2255 C2251 1.400 . S
C2255 C2254 1.385 . S
C2256 C2254 1.478 . S
C2256 C2258 1.381 . S
C2256 C2262 1.383 . S
C2257 C2253 1.495 . S
C2257 H2263 0.959 . S
C2257 H2264 0.961 . S
C2257 H2265 0.960 . S
C2258 C2256 1.381 . S
C2258 C2259 1.394 . S
C2258 H2266 0.930 . S
C2259 C2258 1.394 . S
C2259 C2260 1.383 . S
C2259 H2267 0.929 . S
C2260 C2259 1.383 . S
C2260 C2261 1.377 . S
C2261 H2245 0.930 . S
C2261 C2260 1.377 . S
C2261 C2262 1.379 . S
C2262 H2246 0.931 . S
C2262 C2256 1.383 . S
C2262 C2261 1.379 . S
H2263 C2257 0.959 . S
H2264 C2257 0.961 . S
H2265 C2257 0.960 . S
H2266 C2258 0.930 . S
H2267 C2259 0.929 . S
H2268 C2276 0.929 . S
H2269 C2278 0.930 . S
H2270 C2280 0.930 . S
H2271 C2283 0.929 . S
H2272 C2286 0.930 . S
H2273 C2288 0.960 . S
H2274 C2288 0.960 . S
H2275 C2288 0.960 . S
C2276 H2268 0.929 . S
C2276 C2277 1.377 . S
C2276 C2278 1.384 1_655 S
C2277 C2276 1.377 . S
C2277 C2283 1.390 1_655 S
C2278 H2269 0.930 . S
C2278 C2276 1.384 1_455 S
C2278 C2279 1.372 . S
C2279 C2278 1.372 . S
C2279 C2280 1.400 . S
C2279 C2284 1.490 . S
C2280 H2270 0.930 . S
C2280 C2279 1.400 . S
C2280 C2283 1.386 . S
H2281 C2297 0.930 . S
H2282 C2298 0.931 . S
C2283 H2271 0.929 . S
C2283 C2277 1.390 1_455 S
C2283 C2280 1.386 . S
C2284 C2279 1.490 . S
C2284 C2286 1.395 . S
C2284 C2287 1.403 . S
H2285 C2291 0.930 . S
C2286 H2272 0.930 . S
C2286 C2284 1.395 . S
C2286 C2289 1.403 . S
C2287 C2284 1.403 . S
C2287 C2288 1.524 . S
C2287 C2291 1.400 . S
C2288 H2273 0.960 . S
C2288 H2274 0.960 . S
C2288 H2275 0.960 . S
C2288 C2287 1.524 . S
C2289 C2286 1.403 . S
C2289 C2290 1.392 . S
C2289 C2293 1.495 . S
C2290 C2289 1.392 . S
C2290 C2291 1.385 . S
C2290 C2292 1.478 . S
C2291 H2285 0.930 . S
C2291 C2287 1.400 . S
C2291 C2290 1.385 . S
C2292 C2290 1.478 . S
C2292 C2294 1.381 . S
C2292 C2298 1.383 . S
C2293 C2289 1.495 . S
C2293 H2299 0.959 . S
C2293 H2300 0.961 . S
C2293 H2301 0.960 . S
C2294 C2292 1.381 . S
C2294 C2295 1.394 . S
C2294 H2302 0.930 . S
C2295 C2294 1.394 . S
C2295 C2296 1.383 . S
C2295 H2303 0.929 . S
C2296 C2295 1.383 . S
C2296 C2297 1.377 . S
C2297 H2281 0.930 . S
C2297 C2296 1.377 . S
C2297 C2298 1.379 . S
C2298 H2282 0.931 . S
C2298 C2292 1.383 . S
C2298 C2297 1.379 . S
H2299 C2293 0.959 . S
H2300 C2293 0.961 . S
H2301 C2293 0.960 . S
H2302 C2294 0.930 . S
H2303 C2295 0.929 . S
H2304 C2312 0.929 . S
H2305 C2314 0.930 . S
H2306 C2316 0.930 . S
H2307 C2319 0.929 . S
H2308 C2322 0.930 . S
H2309 C2324 0.960 . S
H2310 C2324 0.960 . S
H2311 C2324 0.960 . S
C2312 H2304 0.929 . S
C2312 C2313 1.377 . S
C2312 C2314 1.384 . S
C2313 C2312 1.377 . S
C2313 C2319 1.390 . S
C2314 H2305 0.930 . S
C2314 C2312 1.384 . S
C2314 C2315 1.372 . S
C2315 C2314 1.372 . S
C2315 C2316 1.400 . S
C2315 C2320 1.490 . S
C2316 H2306 0.930 . S
C2316 C2315 1.400 . S
C2316 C2319 1.386 . S
H2317 C2333 0.930 . S
H2318 C2334 0.931 . S
C2319 H2307 0.929 . S
C2319 C2313 1.390 . S
C2319 C2316 1.386 . S
C2320 C2315 1.490 . S
C2320 C2322 1.395 . S
C2320 C2323 1.403 . S
H2321 C2327 0.930 . S
C2322 H2308 0.930 . S
C2322 C2320 1.395 . S
C2322 C2325 1.403 . S
C2323 C2320 1.403 . S
C2323 C2324 1.524 . S
C2323 C2327 1.400 . S
C2324 H2309 0.960 . S
C2324 H2310 0.960 . S
C2324 H2311 0.960 . S
C2324 C2323 1.524 . S
C2325 C2322 1.403 . S
C2325 C2326 1.392 . S
C2325 C2329 1.495 . S
C2326 C2325 1.392 . S
C2326 C2327 1.385 . S
C2326 C2328 1.478 . S
C2327 H2321 0.930 . S
C2327 C2323 1.400 . S
C2327 C2326 1.385 . S
C2328 C2326 1.478 . S
C2328 C2330 1.381 . S
C2328 C2334 1.383 . S
C2329 C2325 1.495 . S
C2329 H2335 0.959 . S
C2329 H2336 0.961 . S
C2329 H2337 0.960 . S
C2330 C2328 1.381 . S
C2330 C2331 1.394 . S
C2330 H2338 0.930 . S
C2331 C2330 1.394 . S
C2331 C2332 1.383 . S
C2331 H2339 0.929 . S
C2332 C2331 1.383 . S
C2332 C2333 1.377 . S
C2333 H2317 0.930 . S
C2333 C2332 1.377 . S
C2333 C2334 1.379 . S
C2334 H2318 0.931 . S
C2334 C2328 1.383 . S
C2334 C2333 1.379 . S
H2335 C2329 0.959 . S
H2336 C2329 0.961 . S
H2337 C2329 0.960 . S
H2338 C2330 0.930 . S
H2339 C2331 0.929 . S
H2340 C2348 0.929 . S
H2341 C2350 0.930 . S
H2342 C2352 0.930 . S
H2343 C2355 0.929 . S
H2344 C2358 0.930 . S
H2345 C2360 0.960 . S
H2346 C2360 0.960 . S
H2347 C2360 0.960 . S
C2348 H2340 0.929 . S
C2348 C2349 1.377 . S
C2348 C2350 1.384 . S
C2349 C2348 1.377 . S
C2349 C2355 1.390 . S
C2350 H2341 0.930 . S
C2350 C2348 1.384 . S
C2350 C2351 1.372 . S
C2351 C2350 1.372 . S
C2351 C2352 1.400 . S
C2351 C2356 1.490 . S
C2352 H2342 0.930 . S
C2352 C2351 1.400 . S
C2352 C2355 1.386 . S
H2353 C2369 0.930 . S
H2354 C2370 0.931 . S
C2355 H2343 0.929 . S
C2355 C2349 1.390 . S
C2355 C2352 1.386 . S
C2356 C2351 1.490 . S
C2356 C2358 1.395 . S
C2356 C2359 1.403 . S
H2357 C2363 0.930 . S
C2358 H2344 0.930 . S
C2358 C2356 1.395 . S
C2358 C2361 1.403 . S
C2359 C2356 1.403 . S
C2359 C2360 1.524 . S
C2359 C2363 1.400 . S
C2360 H2345 0.960 . S
C2360 H2346 0.960 . S
C2360 H2347 0.960 . S
C2360 C2359 1.524 . S
C2361 C2358 1.403 . S
C2361 C2362 1.392 . S
C2361 C2365 1.495 . S
C2362 C2361 1.392 . S
C2362 C2363 1.385 . S
C2362 C2364 1.478 . S
C2363 H2357 0.930 . S
C2363 C2359 1.400 . S
C2363 C2362 1.385 . S
C2364 C2362 1.478 . S
C2364 C2366 1.381 . S
C2364 C2370 1.383 . S
C2365 C2361 1.495 . S
C2365 H2371 0.959 . S
C2365 H2372 0.961 . S
C2365 H2373 0.960 . S
C2366 C2364 1.381 . S
C2366 C2367 1.394 . S
C2366 H2374 0.930 . S
C2367 C2366 1.394 . S
C2367 C2368 1.383 . S
C2367 H2375 0.929 . S
C2368 C2367 1.383 . S
C2368 C2369 1.377 . S
C2369 H2353 0.930 . S
C2369 C2368 1.377 . S
C2369 C2370 1.379 . S
C2370 H2354 0.931 . S
C2370 C2364 1.383 . S
C2370 C2369 1.379 . S
H2371 C2365 0.959 . S
H2372 C2365 0.961 . S
H2373 C2365 0.960 . S
H2374 C2366 0.930 . S
H2375 C2367 0.929 . S
H2376 C2384 0.929 . S
H2377 C2386 0.930 . S
H2378 C2388 0.930 . S
H2379 C2391 0.929 . S
H2380 C2394 0.930 . S
H2381 C2396 0.960 . S
H2382 C2396 0.960 . S
H2383 C2396 0.960 . S
C2384 H2376 0.929 . S
C2384 C2385 1.377 . S
C2384 C2386 1.384 . S
C2385 C2384 1.377 . S
C2385 C2391 1.390 . S
C2386 H2377 0.930 . S
C2386 C2384 1.384 . S
C2386 C2387 1.372 . S
C2387 C2386 1.372 . S
C2387 C2388 1.400 . S
C2387 C2392 1.490 . S
C2388 H2378 0.930 . S
C2388 C2387 1.400 . S
C2388 C2391 1.386 . S
H2389 C2405 0.930 . S
H2390 C2406 0.931 . S
C2391 H2379 0.929 . S
C2391 C2385 1.390 . S
C2391 C2388 1.386 . S
C2392 C2387 1.490 . S
C2392 C2394 1.395 . S
C2392 C2395 1.403 . S
H2393 C2399 0.930 . S
C2394 H2380 0.930 . S
C2394 C2392 1.395 . S
C2394 C2397 1.403 . S
C2395 C2392 1.403 . S
C2395 C2396 1.524 . S
C2395 C2399 1.400 . S
C2396 H2381 0.960 . S
C2396 H2382 0.960 . S
C2396 H2383 0.960 . S
C2396 C2395 1.524 . S
C2397 C2394 1.403 . S
C2397 C2398 1.392 . S
C2397 C2401 1.495 . S
C2398 C2397 1.392 . S
C2398 C2399 1.385 . S
C2398 C2400 1.478 . S
C2399 H2393 0.930 . S
C2399 C2395 1.400 . S
C2399 C2398 1.385 . S
C2400 C2398 1.478 . S
C2400 C2402 1.381 . S
C2400 C2406 1.383 . S
C2401 C2397 1.495 . S
C2401 H2407 0.959 . S
C2401 H2408 0.961 . S
C2401 H2409 0.960 . S
C2402 C2400 1.381 . S
C2402 C2403 1.394 . S
C2402 H2410 0.930 . S
C2403 C2402 1.394 . S
C2403 C2404 1.383 . S
C2403 H2411 0.929 . S
C2404 C2403 1.383 . S
C2404 C2405 1.377 . S
C2405 H2389 0.930 . S
C2405 C2404 1.377 . S
C2405 C2406 1.379 . S
C2406 H2390 0.931 . S
C2406 C2400 1.383 . S
C2406 C2405 1.379 . S
H2407 C2401 0.959 . S
H2408 C2401 0.961 . S
H2409 C2401 0.960 . S
H2410 C2402 0.930 . S
H2411 C2403 0.929 . S
H2412 C2420 0.929 . S
H2413 C2422 0.930 . S
H2414 C2424 0.930 . S
H2415 C2427 0.929 . S
H2416 C2430 0.930 . S
H2417 C2432 0.960 . S
H2418 C2432 0.960 . S
H2419 C2432 0.960 . S
C2420 H2412 0.929 . S
C2420 C2421 1.377 . S
C2420 C2422 1.384 . S
C2421 C2420 1.377 . S
C2421 C2427 1.390 . S
C2422 H2413 0.930 . S
C2422 C2420 1.384 . S
C2422 C2423 1.372 . S
C2423 C2422 1.372 . S
C2423 C2424 1.400 . S
C2423 C2428 1.490 . S
C2424 H2414 0.930 . S
C2424 C2423 1.400 . S
C2424 C2427 1.386 . S
H2425 C2441 0.930 . S
H2426 C2442 0.931 . S
C2427 H2415 0.929 . S
C2427 C2421 1.390 . S
C2427 C2424 1.386 . S
C2428 C2423 1.490 . S
C2428 C2430 1.395 . S
C2428 C2431 1.403 . S
H2429 C2435 0.930 . S
C2430 H2416 0.930 . S
C2430 C2428 1.395 . S
C2430 C2433 1.403 . S
C2431 C2428 1.403 . S
C2431 C2432 1.524 . S
C2431 C2435 1.400 . S
C2432 H2417 0.960 . S
C2432 H2418 0.960 . S
C2432 H2419 0.960 . S
C2432 C2431 1.524 . S
C2433 C2430 1.403 . S
C2433 C2434 1.392 . S
C2433 C2437 1.495 . S
C2434 C2433 1.392 . S
C2434 C2435 1.385 . S
C2434 C2436 1.478 . S
C2435 H2429 0.930 . S
C2435 C2431 1.400 . S
C2435 C2434 1.385 . S
C2436 C2434 1.478 . S
C2436 C2438 1.381 . S
C2436 C2442 1.383 . S
C2437 C2433 1.495 . S
C2437 H2443 0.959 . S
C2437 H2444 0.961 . S
C2437 H2445 0.960 . S
C2438 C2436 1.381 . S
C2438 C2439 1.394 . S
C2438 H2446 0.930 . S
C2439 C2438 1.394 . S
C2439 C2440 1.383 . S
C2439 H2447 0.929 . S
C2440 C2439 1.383 . S
C2440 C2441 1.377 . S
C2441 H2425 0.930 . S
C2441 C2440 1.377 . S
C2441 C2442 1.379 . S
C2442 H2426 0.931 . S
C2442 C2436 1.383 . S
C2442 C2441 1.379 . S
H2443 C2437 0.959 . S
H2444 C2437 0.961 . S
H2445 C2437 0.960 . S
H2446 C2438 0.930 . S
H2447 C2439 0.929 . S
H2448 C2456 0.929 . S
H2449 C2458 0.930 . S
H2450 C2460 0.923 . S
H2451 C2463 0.929 . S
H2452 C2466 0.930 . S
H2453 C2468 0.960 . S
H2454 C2468 0.960 . S
H2455 C2468 0.960 . S
C2456 H2448 0.929 . S
C2456 C2457 1.377 . S
C2456 C2458 1.384 1_565 S
C2457 C2456 1.377 . S
C2457 C2463 1.390 . S
C2458 H2449 0.930 . S
C2458 C2456 1.384 1_545 S
C2458 C2459 1.372 . S
C2459 C2458 1.372 . S
C2459 C2460 1.400 1_545 S
C2459 C2464 1.490 . S
C2460 H2450 0.923 . S
C2460 C2459 1.400 1_565 S
C2460 C2463 1.386 . S
H2461 C2477 0.930 . S
H2462 C2478 0.931 . S
C2463 H2451 0.929 . S
C2463 C2457 1.390 . S
C2463 C2460 1.386 . S
C2464 C2459 1.490 . S
C2464 C2466 1.395 . S
C2464 C2467 1.403 . S
H2465 C2471 0.930 . S
C2466 H2452 0.930 . S
C2466 C2464 1.395 . S
C2466 C2469 1.403 . S
C2467 C2464 1.403 . S
C2467 C2468 1.524 . S
C2467 C2471 1.400 . S
C2468 H2453 0.960 . S
C2468 H2454 0.960 . S
C2468 H2455 0.960 . S
C2468 C2467 1.524 . S
C2469 C2466 1.403 . S
C2469 C2470 1.392 . S
C2469 C2473 1.495 . S
C2470 C2469 1.392 . S
C2470 C2471 1.385 . S
C2470 C2472 1.478 . S
C2471 H2465 0.930 . S
C2471 C2467 1.400 . S
C2471 C2470 1.385 . S
C2472 C2470 1.478 . S
C2472 C2474 1.381 . S
C2472 C2478 1.383 . S
C2473 C2469 1.495 . S
C2473 H2479 0.959 . S
C2473 H2480 0.961 . S
C2473 H2481 0.960 . S
C2474 C2472 1.381 . S
C2474 C2475 1.394 . S
C2474 H2482 0.930 . S
C2475 C2474 1.394 . S
C2475 C2476 1.383 . S
C2475 H2483 0.929 . S
C2476 C2475 1.383 . S
C2476 C2477 1.377 . S
C2477 H2461 0.930 . S
C2477 C2476 1.377 . S
C2477 C2478 1.379 . S
C2478 H2462 0.931 . S
C2478 C2472 1.383 . S
C2478 C2477 1.379 . S
H2479 C2473 0.959 . S
H2480 C2473 0.961 . S
H2481 C2473 0.960 . S
H2482 C2474 0.930 . S
H2483 C2475 0.929 . S
H2484 C2492 0.929 . S
H2485 C2494 0.956 . S
H2486 C2496 0.930 . S
H2487 C2499 0.929 . S
H2488 C2502 0.930 . S
H2489 C2504 0.960 . S
H2490 C2504 0.960 . S
H2491 C2504 0.960 . S
C2492 H2484 0.929 . S
C2492 C2493 1.377 . S
C2492 C2494 1.335 1_455 S
C2493 C2492 1.377 . S
C2493 C2499 1.390 . S
C2494 H2485 0.956 . S
C2494 C2492 1.335 1_655 S
C2494 C2495 1.398 . S
C2495 C2494 1.398 . S
C2495 C2496 1.400 . S
C2495 C2500 1.490 . S
C2496 H2486 0.930 . S
C2496 C2495 1.400 . S
C2496 C2499 1.386 1_655 S
H2497 C2513 0.930 . S
H2498 C2514 0.931 . S
C2499 H2487 0.929 . S
C2499 C2493 1.390 . S
C2499 C2496 1.386 1_455 S
C2500 C2495 1.490 . S
C2500 C2502 1.395 . S
C2500 C2503 1.403 . S
H2501 C2507 0.930 . S
C2502 H2488 0.930 . S
C2502 C2500 1.395 . S
C2502 C2505 1.403 . S
C2503 C2500 1.403 . S
C2503 C2504 1.524 . S
C2503 C2507 1.400 . S
C2504 H2489 0.960 . S
C2504 H2490 0.960 . S
C2504 H2491 0.960 . S
C2504 C2503 1.524 . S
C2505 C2502 1.403 . S
C2505 C2506 1.392 . S
C2505 C2509 1.495 . S
C2506 C2505 1.392 . S
C2506 C2507 1.385 . S
C2506 C2508 1.478 . S
C2507 H2501 0.930 . S
C2507 C2503 1.400 . S
C2507 C2506 1.385 . S
C2508 C2506 1.478 . S
C2508 C2510 1.381 . S
C2508 C2514 1.383 . S
C2509 C2505 1.495 . S
C2509 H2515 0.959 . S
C2509 H2516 0.961 . S
C2509 H2517 0.960 . S
C2510 C2508 1.381 . S
C2510 C2511 1.394 . S
C2510 H2518 0.930 . S
C2511 C2510 1.394 . S
C2511 C2512 1.383 . S
C2511 H2519 0.929 . S
C2512 C2511 1.383 . S
C2512 C2513 1.377 . S
C2513 H2497 0.930 . S
C2513 C2512 1.377 . S
C2513 C2514 1.379 . S
C2514 H2498 0.931 . S
C2514 C2508 1.383 . S
C2514 C2513 1.379 . S
H2515 C2509 0.959 . S
H2516 C2509 0.961 . S
H2517 C2509 0.960 . S
H2518 C2510 0.930 . S
H2519 C2511 0.929 . S
H2520 C2528 0.929 . S
H2521 C2530 0.930 . S
H2522 C2532 0.930 . S
H2523 C2535 0.929 . S
H2524 C2538 0.930 . S
H2525 C2540 0.960 . S
H2526 C2540 0.960 . S
H2527 C2540 0.960 . S
C2528 H2520 0.929 . S
C2528 C2529 1.377 . S
C2528 C2530 1.384 . S
C2529 C2528 1.377 . S
C2529 C2535 1.390 . S
C2530 H2521 0.930 . S
C2530 C2528 1.384 . S
C2530 C2531 1.372 . S
C2531 C2530 1.372 . S
C2531 C2532 1.400 . S
C2531 C2536 1.490 . S
C2532 H2522 0.930 . S
C2532 C2531 1.400 . S
C2532 C2535 1.386 . S
H2533 C2549 0.930 . S
H2534 C2550 0.931 . S
C2535 H2523 0.929 . S
C2535 C2529 1.390 . S
C2535 C2532 1.386 . S
C2536 C2531 1.490 . S
C2536 C2538 1.395 . S
C2536 C2539 1.403 . S
H2537 C2543 0.930 . S
C2538 H2524 0.930 . S
C2538 C2536 1.395 . S
C2538 C2541 1.403 . S
C2539 C2536 1.403 . S
C2539 C2540 1.524 . S
C2539 C2543 1.400 . S
C2540 H2525 0.960 . S
C2540 H2526 0.960 . S
C2540 H2527 0.960 . S
C2540 C2539 1.524 . S
C2541 C2538 1.403 . S
C2541 C2542 1.392 . S
C2541 C2545 1.495 . S
C2542 C2541 1.392 . S
C2542 C2543 1.385 . S
C2542 C2544 1.478 . S
C2543 H2537 0.930 . S
C2543 C2539 1.400 . S
C2543 C2542 1.385 . S
C2544 C2542 1.478 . S
C2544 C2546 1.381 . S
C2544 C2550 1.383 . S
C2545 C2541 1.495 . S
C2545 H2551 0.959 . S
C2545 H2552 0.961 . S
C2545 H2553 0.960 . S
C2546 C2544 1.381 . S
C2546 C2547 1.394 . S
C2546 H2554 0.930 . S
C2547 C2546 1.394 . S
C2547 C2548 1.383 . S
C2547 H2555 0.929 . S
C2548 C2547 1.383 . S
C2548 C2549 1.377 . S
C2549 H2533 0.930 . S
C2549 C2548 1.377 . S
C2549 C2550 1.379 . S
C2550 H2534 0.931 . S
C2550 C2544 1.383 . S
C2550 C2549 1.379 . S
H2551 C2545 0.959 . S
H2552 C2545 0.961 . S
H2553 C2545 0.960 . S
H2554 C2546 0.930 . S
H2555 C2547 0.929 . S
H2556 C2564 0.929 . S
H2557 C2566 0.930 . S
H2558 C2568 0.924 . S
H2559 C2571 0.929 . S
H2560 C2574 0.930 . S
H2561 C2576 0.960 . S
H2562 C2576 0.960 . S
H2563 C2576 0.960 . S
C2564 H2556 0.929 . S
C2564 C2565 1.377 . S
C2564 C2566 1.384 1_455 S
C2565 C2564 1.377 . S
C2565 C2571 1.390 . S
C2566 H2557 0.930 . S
C2566 C2564 1.384 1_655 S
C2566 C2567 1.372 . S
C2567 C2566 1.372 . S
C2567 C2568 1.420 . S
C2567 C2572 1.490 . S
C2568 H2558 0.924 . S
C2568 C2567 1.420 . S
C2568 C2571 1.371 1_655 S
H2569 C2585 0.930 . S
H2570 C2586 0.931 . S
C2571 H2559 0.929 . S
C2571 C2565 1.390 . S
C2571 C2568 1.371 1_455 S
C2572 C2567 1.490 . S
C2572 C2574 1.395 . S
C2572 C2575 1.403 . S
H2573 C2579 0.930 . S
C2574 H2560 0.930 . S
C2574 C2572 1.395 . S
C2574 C2577 1.403 . S
C2575 C2572 1.403 . S
C2575 C2576 1.524 . S
C2575 C2579 1.400 . S
C2576 H2561 0.960 . S
C2576 H2562 0.960 . S
C2576 H2563 0.960 . S
C2576 C2575 1.524 . S
C2577 C2574 1.403 . S
C2577 C2578 1.392 . S
C2577 C2581 1.495 . S
C2578 C2577 1.392 . S
C2578 C2579 1.385 . S
C2578 C2580 1.478 . S
C2579 H2573 0.930 . S
C2579 C2575 1.400 . S
C2579 C2578 1.385 . S
C2580 C2578 1.478 . S
C2580 C2582 1.381 . S
C2580 C2586 1.383 . S
C2581 C2577 1.495 . S
C2581 H2587 0.959 . S
C2581 H2588 0.961 . S
C2581 H2589 0.960 . S
C2582 C2580 1.381 . S
C2582 C2583 1.394 . S
C2582 H2590 0.930 . S
C2583 C2582 1.394 . S
C2583 C2584 1.383 . S
C2583 H2591 0.929 . S
C2584 C2583 1.383 . S
C2584 C2585 1.377 . S
C2585 H2569 0.930 . S
C2585 C2584 1.377 . S
C2585 C2586 1.379 . S
C2586 H2570 0.931 . S
C2586 C2580 1.383 . S
C2586 C2585 1.379 . S
H2587 C2581 0.959 . S
H2588 C2581 0.961 . S
H2589 C2581 0.960 . S
H2590 C2582 0.930 . S
H2591 C2583 0.929 . S
H2592 C2600 0.929 . S
H2593 C2602 0.930 . S
H2594 C2604 0.930 . S
H2595 C2607 0.929 . S
H2596 C2610 0.930 . S
H2597 C2612 0.960 . S
H2598 C2612 0.960 . S
H2599 C2612 0.960 . S
C2600 H2592 0.929 . S
C2600 C2601 1.377 . S
C2600 C2602 1.384 . S
C2601 C2600 1.377 . S
C2601 C2607 1.390 . S
C2602 H2593 0.930 . S
C2602 C2600 1.384 . S
C2602 C2603 1.372 . S
C2603 C2602 1.372 . S
C2603 C2604 1.400 . S
C2603 C2608 1.490 . S
C2604 H2594 0.930 . S
C2604 C2603 1.400 . S
C2604 C2607 1.386 . S
H2605 C2621 0.930 . S
H2606 C2622 0.931 . S
C2607 H2595 0.929 . S
C2607 C2601 1.390 . S
C2607 C2604 1.386 . S
C2608 C2603 1.490 . S
C2608 C2610 1.395 . S
C2608 C2611 1.403 . S
H2609 C2615 0.930 . S
C2610 H2596 0.930 . S
C2610 C2608 1.395 . S
C2610 C2613 1.403 . S
C2611 C2608 1.403 . S
C2611 C2612 1.524 . S
C2611 C2615 1.400 . S
C2612 H2597 0.960 . S
C2612 H2598 0.960 . S
C2612 H2599 0.960 . S
C2612 C2611 1.524 . S
C2613 C2610 1.403 . S
C2613 C2614 1.392 . S
C2613 C2617 1.495 . S
C2614 C2613 1.392 . S
C2614 C2615 1.385 . S
C2614 C2616 1.478 . S
C2615 H2609 0.930 . S
C2615 C2611 1.400 . S
C2615 C2614 1.385 . S
C2616 C2614 1.478 . S
C2616 C2618 1.381 . S
C2616 C2622 1.383 . S
C2617 C2613 1.495 . S
C2617 H2623 0.959 . S
C2617 H2624 0.961 . S
C2617 H2625 0.960 . S
C2618 C2616 1.381 . S
C2618 C2619 1.394 . S
C2618 H2626 0.930 . S
C2619 C2618 1.394 . S
C2619 C2620 1.383 . S
C2619 H2627 0.929 . S
C2620 C2619 1.383 . S
C2620 C2621 1.377 . S
C2621 H2605 0.930 . S
C2621 C2620 1.377 . S
C2621 C2622 1.379 . S
C2622 H2606 0.931 . S
C2622 C2616 1.383 . S
C2622 C2621 1.379 . S
H2623 C2617 0.959 . S
H2624 C2617 0.961 . S
H2625 C2617 0.960 . S
H2626 C2618 0.930 . S
H2627 C2619 0.929 . S
H2628 C2636 0.929 . S
H2629 C2638 0.930 . S
H2630 C2640 0.933 1_545 S
H2631 C2643 0.929 . S
H2632 C2646 0.930 . S
H2633 C2648 0.960 . S
H2634 C2648 0.960 . S
H2635 C2648 0.960 . S
C2636 H2628 0.929 . S
C2636 C2637 1.377 . S
C2636 C2638 1.384 1_565 S
C2637 C2636 1.377 . S
C2637 C2643 1.390 . S
C2638 H2629 0.930 . S
C2638 C2636 1.384 1_545 S
C2638 C2639 1.372 . S
C2639 C2638 1.372 . S
C2639 C2640 1.400 1_545 S
C2639 C2644 1.490 . S
C2640 H2630 0.933 1_565 S
C2640 C2639 1.400 1_565 S
C2640 C2643 1.383 . S
H2641 C2657 0.930 . S
H2642 C2658 0.931 . S
C2643 H2631 0.929 . S
C2643 C2637 1.390 . S
C2643 C2640 1.383 . S
C2644 C2639 1.490 . S
C2644 C2646 1.395 . S
C2644 C2647 1.403 . S
H2645 C2651 0.930 . S
C2646 H2632 0.930 . S
C2646 C2644 1.395 . S
C2646 C2649 1.403 . S
C2647 C2644 1.403 . S
C2647 C2648 1.524 . S
C2647 C2651 1.400 . S
C2648 H2633 0.960 . S
C2648 H2634 0.960 . S
C2648 H2635 0.960 . S
C2648 C2647 1.524 . S
C2649 C2646 1.403 . S
C2649 C2650 1.392 . S
C2649 C2653 1.495 . S
C2650 C2649 1.392 . S
C2650 C2651 1.385 . S
C2650 C2652 1.478 . S
C2651 H2645 0.930 . S
C2651 C2647 1.400 . S
C2651 C2650 1.385 . S
C2652 C2650 1.478 . S
C2652 C2654 1.381 . S
C2652 C2658 1.383 . S
C2653 C2649 1.495 . S
C2653 H2659 0.959 . S
C2653 H2660 0.961 . S
C2653 H2661 0.960 . S
C2654 C2652 1.381 . S
C2654 C2655 1.394 . S
C2654 H2662 0.930 . S
C2655 C2654 1.394 . S
C2655 C2656 1.383 . S
C2655 H2663 0.929 . S
C2656 C2655 1.383 . S
C2656 C2657 1.377 . S
C2657 H2641 0.930 . S
C2657 C2656 1.377 . S
C2657 C2658 1.379 . S
C2658 H2642 0.931 . S
C2658 C2652 1.383 . S
C2658 C2657 1.379 . S
H2659 C2653 0.959 . S
H2660 C2653 0.961 . S
H2661 C2653 0.960 . S
H2662 C2654 0.930 . S
H2663 C2655 0.929 . S
H2664 C2672 0.929 . S
H2665 C2674 0.930 . S
H2666 C2676 0.930 . S
H2667 C2679 0.929 . S
H2668 C2682 0.930 . S
H2669 C2684 0.960 . S
H2670 C2684 0.960 . S
H2671 C2684 0.960 . S
C2672 H2664 0.929 . S
C2672 C2673 1.377 . S
C2672 C2674 1.384 . S
C2673 C2672 1.377 . S
C2673 C2679 1.390 . S
C2674 H2665 0.930 . S
C2674 C2672 1.384 . S
C2674 C2675 1.372 . S
C2675 C2674 1.372 . S
C2675 C2676 1.400 . S
C2675 C2680 1.490 . S
C2676 H2666 0.930 . S
C2676 C2675 1.400 . S
C2676 C2679 1.386 . S
H2677 C2693 0.930 . S
H2678 C2694 0.931 . S
C2679 H2667 0.929 . S
C2679 C2673 1.390 . S
C2679 C2676 1.386 . S
C2680 C2675 1.490 . S
C2680 C2682 1.395 . S
C2680 C2683 1.403 . S
H2681 C2687 0.930 . S
C2682 H2668 0.930 . S
C2682 C2680 1.395 . S
C2682 C2685 1.403 . S
C2683 C2680 1.403 . S
C2683 C2684 1.524 . S
C2683 C2687 1.400 . S
C2684 H2669 0.960 . S
C2684 H2670 0.960 . S
C2684 H2671 0.960 . S
C2684 C2683 1.524 . S
C2685 C2682 1.403 . S
C2685 C2686 1.392 . S
C2685 C2689 1.495 . S
C2686 C2685 1.392 . S
C2686 C2687 1.385 . S
C2686 C2688 1.478 . S
C2687 H2681 0.930 . S
C2687 C2683 1.400 . S
C2687 C2686 1.385 . S
C2688 C2686 1.478 . S
C2688 C2690 1.381 . S
C2688 C2694 1.383 . S
C2689 C2685 1.495 . S
C2689 H2695 0.959 . S
C2689 H2696 0.961 . S
C2689 H2697 0.960 . S
C2690 C2688 1.381 . S
C2690 C2691 1.394 . S
C2690 H2698 0.930 . S
C2691 C2690 1.394 . S
C2691 C2692 1.383 . S
C2691 H2699 0.929 . S
C2692 C2691 1.383 . S
C2692 C2693 1.377 . S
C2693 H2677 0.930 . S
C2693 C2692 1.377 . S
C2693 C2694 1.379 . S
C2694 H2678 0.931 . S
C2694 C2688 1.383 . S
C2694 C2693 1.379 . S
H2695 C2689 0.959 . S
H2696 C2689 0.961 . S
H2697 C2689 0.960 . S
H2698 C2690 0.930 . S
H2699 C2691 0.929 . S
H2700 C2708 0.929 . S
H2701 C2710 0.930 . S
H2702 C2712 0.930 . S
H2703 C2715 0.929 . S
H2704 C2718 0.930 . S
H2705 C2720 0.960 . S
H2706 C2720 0.960 . S
H2707 C2720 0.960 . S
C2708 H2700 0.929 . S
C2708 C2709 1.377 . S
C2708 C2710 1.384 . S
C2709 C2708 1.377 . S
C2709 C2715 1.390 . S
C2710 H2701 0.930 . S
C2710 C2708 1.384 . S
C2710 C2711 1.372 . S
C2711 C2710 1.372 . S
C2711 C2712 1.400 . S
C2711 C2716 1.490 . S
C2712 H2702 0.930 . S
C2712 C2711 1.400 . S
C2712 C2715 1.386 . S
H2713 C2729 0.930 . S
H2714 C2730 0.931 . S
C2715 H2703 0.929 . S
C2715 C2709 1.390 . S
C2715 C2712 1.386 . S
C2716 C2711 1.490 . S
C2716 C2718 1.395 . S
C2716 C2719 1.403 . S
H2717 C2723 0.930 . S
C2718 H2704 0.930 . S
C2718 C2716 1.395 . S
C2718 C2721 1.403 . S
C2719 C2716 1.403 . S
C2719 C2720 1.524 . S
C2719 C2723 1.400 . S
C2720 H2705 0.960 . S
C2720 H2706 0.960 . S
C2720 H2707 0.960 . S
C2720 C2719 1.524 . S
C2721 C2718 1.403 . S
C2721 C2722 1.392 . S
C2721 C2725 1.495 . S
C2722 C2721 1.392 . S
C2722 C2723 1.385 . S
C2722 C2724 1.478 . S
C2723 H2717 0.930 . S
C2723 C2719 1.400 . S
C2723 C2722 1.385 . S
C2724 C2722 1.478 . S
C2724 C2726 1.381 . S
C2724 C2730 1.383 . S
C2725 C2721 1.495 . S
C2725 H2731 0.959 . S
C2725 H2732 0.961 . S
C2725 H2733 0.960 . S
C2726 C2724 1.381 . S
C2726 C2727 1.394 . S
C2726 H2734 0.930 . S
C2727 C2726 1.394 . S
C2727 C2728 1.383 . S
C2727 H2735 0.929 . S
C2728 C2727 1.383 . S
C2728 C2729 1.377 . S
C2729 H2713 0.930 . S
C2729 C2728 1.377 . S
C2729 C2730 1.379 . S
C2730 H2714 0.931 . S
C2730 C2724 1.383 . S
C2730 C2729 1.379 . S
H2731 C2725 0.959 . S
H2732 C2725 0.961 . S
H2733 C2725 0.960 . S
H2734 C2726 0.930 . S
H2735 C2727 0.929 . S
H2736 C2744 0.929 . S
H2737 C2746 0.930 . S
H2738 C2748 0.930 . S
H2739 C2751 0.929 . S
H2740 C2754 0.930 . S
H2741 C2756 0.960 . S
H2742 C2756 0.960 . S
H2743 C2756 0.960 . S
C2744 H2736 0.929 . S
C2744 C2745 1.377 . S
C2744 C2746 1.384 . S
C2745 C2744 1.377 . S
C2745 C2751 1.390 . S
C2746 H2737 0.930 . S
C2746 C2744 1.384 . S
C2746 C2747 1.372 . S
C2747 C2746 1.372 . S
C2747 C2748 1.400 . S
C2747 C2752 1.490 . S
C2748 H2738 0.930 . S
C2748 C2747 1.400 . S
C2748 C2751 1.386 . S
H2749 C2765 0.930 . S
H2750 C2766 0.931 . S
C2751 H2739 0.929 . S
C2751 C2745 1.390 . S
C2751 C2748 1.386 . S
C2752 C2747 1.490 . S
C2752 C2754 1.395 . S
C2752 C2755 1.403 . S
H2753 C2759 0.930 . S
C2754 H2740 0.930 . S
C2754 C2752 1.395 . S
C2754 C2757 1.403 . S
C2755 C2752 1.403 . S
C2755 C2756 1.524 . S
C2755 C2759 1.400 . S
C2756 H2741 0.960 . S
C2756 H2742 0.960 . S
C2756 H2743 0.960 . S
C2756 C2755 1.524 . S
C2757 C2754 1.403 . S
C2757 C2758 1.392 . S
C2757 C2761 1.495 . S
C2758 C2757 1.392 . S
C2758 C2759 1.385 . S
C2758 C2760 1.478 . S
C2759 H2753 0.930 . S
C2759 C2755 1.400 . S
C2759 C2758 1.385 . S
C2760 C2758 1.478 . S
C2760 C2762 1.381 . S
C2760 C2766 1.383 . S
C2761 C2757 1.495 . S
C2761 H2767 0.959 . S
C2761 H2768 0.961 . S
C2761 H2769 0.960 . S
C2762 C2760 1.381 . S
C2762 C2763 1.394 . S
C2762 H2770 0.930 . S
C2763 C2762 1.394 . S
C2763 C2764 1.383 . S
C2763 H2771 0.929 . S
C2764 C2763 1.383 . S
C2764 C2765 1.377 . S
C2765 H2749 0.930 . S
C2765 C2764 1.377 . S
C2765 C2766 1.379 . S
C2766 H2750 0.931 . S
C2766 C2760 1.383 . S
C2766 C2765 1.379 . S
H2767 C2761 0.959 . S
H2768 C2761 0.961 . S
H2769 C2761 0.960 . S
H2770 C2762 0.930 . S
H2771 C2763 0.929 . S
H2772 C2780 0.929 . S
H2773 C2782 0.930 . S
H2774 C2784 0.930 . S
H2775 C2787 0.929 . S
H2776 C2790 0.930 . S
H2777 C2792 0.960 . S
H2778 C2792 0.960 . S
H2779 C2792 0.960 . S
C2780 H2772 0.929 . S
C2780 C2781 1.377 . S
C2780 C2782 1.384 . S
C2781 C2780 1.377 . S
C2781 C2787 1.390 . S
C2782 H2773 0.930 . S
C2782 C2780 1.384 . S
C2782 C2783 1.372 . S
C2783 C2782 1.372 . S
C2783 C2784 1.400 . S
C2783 C2788 1.490 . S
C2784 H2774 0.930 . S
C2784 C2783 1.400 . S
C2784 C2787 1.386 . S
H2785 C2801 0.930 . S
H2786 C2802 0.931 . S
C2787 H2775 0.929 . S
C2787 C2781 1.390 . S
C2787 C2784 1.386 . S
C2788 C2783 1.490 . S
C2788 C2790 1.395 . S
C2788 C2791 1.403 . S
H2789 C2795 0.930 . S
C2790 H2776 0.930 . S
C2790 C2788 1.395 . S
C2790 C2793 1.403 . S
C2791 C2788 1.403 . S
C2791 C2792 1.524 . S
C2791 C2795 1.400 . S
C2792 H2777 0.960 . S
C2792 H2778 0.960 . S
C2792 H2779 0.960 . S
C2792 C2791 1.524 . S
C2793 C2790 1.403 . S
C2793 C2794 1.392 . S
C2793 C2797 1.495 . S
C2794 C2793 1.392 . S
C2794 C2795 1.385 . S
C2794 C2796 1.478 . S
C2795 H2789 0.930 . S
C2795 C2791 1.400 . S
C2795 C2794 1.385 . S
C2796 C2794 1.478 . S
C2796 C2798 1.381 . S
C2796 C2802 1.383 . S
C2797 C2793 1.495 . S
C2797 H2803 0.959 . S
C2797 H2804 0.954 1_565 S
C2797 H2805 0.960 . S
C2798 C2796 1.381 . S
C2798 C2799 1.394 . S
C2798 H2806 0.930 . S
C2799 C2798 1.394 . S
C2799 C2800 1.383 . S
C2799 H2807 0.929 . S
C2800 C2799 1.383 . S
C2800 C2801 1.377 . S
C2801 H2785 0.930 . S
C2801 C2800 1.377 . S
C2801 C2802 1.379 . S
C2802 H2786 0.931 . S
C2802 C2796 1.383 . S
C2802 C2801 1.379 . S
H2803 C2797 0.959 . S
H2804 C2797 0.954 1_545 S
H2805 C2797 0.960 . S
H2806 C2798 0.930 . S
H2807 C2799 0.929 . S
H2808 C2816 0.929 . S
H2809 C2818 0.930 . S
H2810 C2820 0.930 . S
H2811 C2823 0.929 . S
H2812 C2826 0.930 . S
H2813 C2828 0.960 . S
H2814 C2828 0.960 . S
H2815 C2828 0.960 . S
C2816 H2808 0.929 . S
C2816 C2817 1.377 . S
C2816 C2818 1.384 . S
C2817 C2816 1.377 . S
C2817 C2823 1.390 . S
C2818 H2809 0.930 . S
C2818 C2816 1.384 . S
C2818 C2819 1.372 . S
C2819 C2818 1.372 . S
C2819 C2820 1.400 . S
C2819 C2824 1.490 . S
C2820 H2810 0.930 . S
C2820 C2819 1.400 . S
C2820 C2823 1.386 . S
H2821 C2837 0.930 1_655 S
H2822 C2838 0.931 . S
C2823 H2811 0.929 . S
C2823 C2817 1.390 . S
C2823 C2820 1.386 . S
C2824 C2819 1.490 . S
C2824 C2826 1.395 . S
C2824 C2827 1.403 . S
H2825 C2831 0.930 . S
C2826 H2812 0.930 . S
C2826 C2824 1.395 . S
C2826 C2829 1.403 . S
C2827 C2824 1.403 . S
C2827 C2828 1.524 . S
C2827 C2831 1.400 . S
C2828 H2813 0.960 . S
C2828 H2814 0.960 . S
C2828 H2815 0.960 . S
C2828 C2827 1.524 . S
C2829 C2826 1.403 . S
C2829 C2830 1.392 . S
C2829 C2833 1.495 . S
C2830 C2829 1.392 . S
C2830 C2831 1.385 . S
C2830 C2832 1.478 . S
C2831 H2825 0.930 . S
C2831 C2827 1.400 . S
C2831 C2830 1.385 . S
C2832 C2830 1.478 . S
C2832 C2834 1.381 . S
C2832 C2838 1.383 . S
C2833 C2829 1.495 . S
C2833 H2839 0.959 . S
C2833 H2840 0.961 . S
C2833 H2841 0.960 . S
C2834 C2832 1.381 . S
C2834 C2835 1.394 . S
C2834 H2842 0.930 . S
C2835 C2834 1.394 . S
C2835 C2836 1.383 . S
C2835 H2843 0.929 . S
C2836 C2835 1.383 . S
C2836 C2837 1.377 . S
C2837 H2821 0.930 1_455 S
C2837 C2836 1.377 . S
C2837 C2838 1.379 . S
C2838 H2822 0.931 . S
C2838 C2832 1.383 . S
C2838 C2837 1.379 . S
H2839 C2833 0.959 . S
H2840 C2833 0.961 . S
H2841 C2833 0.960 . S
H2842 C2834 0.930 . S
H2843 C2835 0.929 . S
H2844 C2852 0.929 . S
H2845 C2854 0.930 . S
H2846 C2856 0.930 . S
H2847 C2859 0.929 . S
H2848 C2862 0.930 . S
H2849 C2864 0.960 . S
H2850 C2864 0.960 . S
H2851 C2864 0.960 . S
C2852 H2844 0.929 . S
C2852 C2853 1.377 . S
C2852 C2854 1.384 . S
C2853 C2852 1.377 . S
C2853 C2859 1.390 . S
C2854 H2845 0.930 . S
C2854 C2852 1.384 . S
C2854 C2855 1.372 . S
C2855 C2854 1.372 . S
C2855 C2856 1.400 . S
C2855 C2860 1.490 . S
C2856 H2846 0.930 . S
C2856 C2855 1.400 . S
C2856 C2859 1.386 . S
H2857 C2873 0.930 . S
H2858 C2874 0.931 . S
C2859 H2847 0.929 . S
C2859 C2853 1.390 . S
C2859 C2856 1.386 . S
C2860 C2855 1.490 . S
C2860 C2862 1.395 . S
C2860 C2863 1.403 . S
H2861 C2867 0.930 . S
C2862 H2848 0.930 . S
C2862 C2860 1.395 . S
C2862 C2865 1.403 . S
C2863 C2860 1.403 . S
C2863 C2864 1.524 . S
C2863 C2867 1.400 . S
C2864 H2849 0.960 . S
C2864 H2850 0.960 . S
C2864 H2851 0.960 . S
C2864 C2863 1.524 . S
C2865 C2862 1.403 . S
C2865 C2866 1.392 . S
C2865 C2869 1.495 . S
C2866 C2865 1.392 . S
C2866 C2867 1.385 . S
C2866 C2868 1.478 . S
C2867 H2861 0.930 . S
C2867 C2863 1.400 . S
C2867 C2866 1.385 . S
C2868 C2866 1.478 . S
C2868 C2870 1.381 . S
C2868 C2874 1.383 . S
C2869 C2865 1.495 . S
C2869 H2875 0.959 . S
C2869 H2876 0.961 . S
C2869 H2877 0.960 . S
C2870 C2868 1.381 . S
C2870 C2871 1.394 . S
C2870 H2878 0.930 . S
C2871 C2870 1.394 . S
C2871 C2872 1.383 . S
C2871 H2879 0.929 . S
C2872 C2871 1.383 . S
C2872 C2873 1.377 . S
C2873 H2857 0.930 . S
C2873 C2872 1.377 . S
C2873 C2874 1.379 . S
C2874 H2858 0.931 . S
C2874 C2868 1.383 . S
C2874 C2873 1.379 . S
H2875 C2869 0.959 . S
H2876 C2869 0.961 . S
H2877 C2869 0.960 . S
H2878 C2870 0.930 . S
H2879 C2871 0.929 . S
H2880 C2888 0.929 . S
H2881 C2890 0.930 . S
H2882 C2892 0.930 . S
H2883 C2895 0.929 . S
H2884 C2898 0.930 . S
H2885 C2900 0.960 1_455 S
H2886 C2900 0.960 . S
H2887 C2900 0.960 . S
C2888 H2880 0.929 . S
C2888 C2889 1.377 . S
C2888 C2890 1.384 . S
C2889 C2888 1.377 . S
C2889 C2895 1.390 . S
C2890 H2881 0.930 . S
C2890 C2888 1.384 . S
C2890 C2891 1.372 . S
C2891 C2890 1.372 . S
C2891 C2892 1.400 . S
C2891 C2896 1.490 . S
C2892 H2882 0.930 . S
C2892 C2891 1.400 . S
C2892 C2895 1.386 . S
H2893 C2909 0.930 . S
H2894 C2910 0.931 . S
C2895 H2883 0.929 . S
C2895 C2889 1.390 . S
C2895 C2892 1.386 . S
C2896 C2891 1.490 . S
C2896 C2898 1.395 . S
C2896 C2899 1.403 . S
H2897 C2903 0.930 . S
C2898 H2884 0.930 . S
C2898 C2896 1.395 . S
C2898 C2901 1.403 . S
C2899 C2896 1.403 . S
C2899 C2900 1.524 . S
C2899 C2903 1.400 . S
C2900 H2885 0.960 1_655 S
C2900 H2886 0.960 . S
C2900 H2887 0.960 . S
C2900 C2899 1.524 . S
C2901 C2898 1.403 . S
C2901 C2902 1.392 . S
C2901 C2905 1.495 . S
C2902 C2901 1.392 . S
C2902 C2903 1.385 . S
C2902 C2904 1.478 . S
C2903 H2897 0.930 . S
C2903 C2899 1.400 . S
C2903 C2902 1.385 . S
C2904 C2902 1.478 . S
C2904 C2906 1.381 . S
C2904 C2910 1.383 . S
C2905 C2901 1.495 . S
C2905 H2911 0.959 . S
C2905 H2912 0.961 . S
C2905 H2913 0.960 . S
C2906 C2904 1.381 . S
C2906 C2907 1.394 . S
C2906 H2914 0.930 . S
C2907 C2906 1.394 . S
C2907 C2908 1.383 . S
C2907 H2915 0.929 . S
C2908 C2907 1.383 . S
C2908 C2909 1.377 . S
C2909 H2893 0.930 . S
C2909 C2908 1.377 . S
C2909 C2910 1.379 . S
C2910 H2894 0.931 . S
C2910 C2904 1.383 . S
C2910 C2909 1.379 . S
H2911 C2905 0.959 . S
H2912 C2905 0.961 . S
H2913 C2905 0.960 . S
H2914 C2906 0.930 . S
H2915 C2907 0.929 . S
H2916 C2924 0.929 . S
H2917 C2926 0.930 . S
H2918 C2928 0.930 . S
H2919 C2931 0.929 . S
H2920 C2934 0.930 . S
H2921 C2936 0.960 . S
H2922 C2936 0.960 . S
H2923 C2936 0.960 . S
C2924 H2916 0.929 . S
C2924 C2925 1.377 . S
C2924 C2926 1.384 . S
C2925 C2924 1.377 . S
C2925 C2931 1.390 . S
C2926 H2917 0.930 . S
C2926 C2924 1.384 . S
C2926 C2927 1.372 . S
C2927 C2926 1.372 . S
C2927 C2928 1.400 . S
C2927 C2932 1.490 . S
C2928 H2918 0.930 . S
C2928 C2927 1.400 . S
C2928 C2931 1.386 . S
H2929 C2945 0.930 . S
H2930 C2946 0.931 . S
C2931 H2919 0.929 . S
C2931 C2925 1.390 . S
C2931 C2928 1.386 . S
C2932 C2927 1.490 . S
C2932 C2934 1.395 . S
C2932 C2935 1.403 . S
H2933 C2939 0.930 . S
C2934 H2920 0.930 . S
C2934 C2932 1.395 . S
C2934 C2937 1.403 . S
C2935 C2932 1.403 . S
C2935 C2936 1.524 . S
C2935 C2939 1.400 . S
C2936 H2921 0.960 . S
C2936 H2922 0.960 . S
C2936 H2923 0.960 . S
C2936 C2935 1.524 . S
C2937 C2934 1.403 . S
C2937 C2938 1.392 . S
C2937 C2941 1.495 . S
C2938 C2937 1.392 . S
C2938 C2939 1.385 . S
C2938 C2940 1.478 . S
C2939 H2933 0.930 . S
C2939 C2935 1.400 . S
C2939 C2938 1.385 . S
C2940 C2938 1.478 . S
C2940 C2942 1.381 . S
C2940 C2946 1.383 . S
C2941 C2937 1.495 . S
C2941 H2947 0.959 . S
C2941 H2948 0.961 . S
C2941 H2949 0.960 . S
C2942 C2940 1.381 . S
C2942 C2943 1.394 . S
C2942 H2950 0.930 . S
C2943 C2942 1.394 . S
C2943 C2944 1.383 . S
C2943 H2951 0.929 . S
C2944 C2943 1.383 . S
C2944 C2945 1.377 . S
C2945 H2929 0.930 . S
C2945 C2944 1.377 . S
C2945 C2946 1.379 . S
C2946 H2930 0.931 . S
C2946 C2940 1.383 . S
C2946 C2945 1.379 . S
H2947 C2941 0.959 . S
H2948 C2941 0.961 . S
H2949 C2941 0.960 . S
H2950 C2942 0.930 . S
H2951 C2943 0.929 . S
H2952 C2960 0.929 . S
H2953 C2962 0.930 . S
H2954 C2964 0.930 . S
H2955 C2967 0.929 . S
H2956 C2970 0.930 . S
H2957 C2972 0.960 . S
H2958 C2972 0.960 . S
H2959 C2972 0.960 . S
C2960 H2952 0.929 . S
C2960 C2961 1.377 . S
C2960 C2962 1.384 . S
C2961 C2960 1.377 . S
C2961 C2967 1.390 . S
C2962 H2953 0.930 . S
C2962 C2960 1.384 . S
C2962 C2963 1.372 . S
C2963 C2962 1.372 . S
C2963 C2964 1.400 . S
C2963 C2968 1.490 . S
C2964 H2954 0.930 . S
C2964 C2963 1.400 . S
C2964 C2967 1.386 . S
H2965 C2981 0.930 . S
H2966 C2982 0.931 . S
C2967 H2955 0.929 . S
C2967 C2961 1.390 . S
C2967 C2964 1.386 . S
C2968 C2963 1.490 . S
C2968 C2970 1.395 . S
C2968 C2971 1.403 . S
H2969 C2975 0.930 . S
C2970 H2956 0.930 . S
C2970 C2968 1.395 . S
C2970 C2973 1.403 . S
C2971 C2968 1.403 . S
C2971 C2972 1.524 . S
C2971 C2975 1.400 . S
C2972 H2957 0.960 . S
C2972 H2958 0.960 . S
C2972 H2959 0.960 . S
C2972 C2971 1.524 . S
C2973 C2970 1.403 . S
C2973 C2974 1.392 . S
C2973 C2977 1.495 . S
C2974 C2973 1.392 . S
C2974 C2975 1.385 . S
C2974 C2976 1.478 . S
C2975 H2969 0.930 . S
C2975 C2971 1.400 . S
C2975 C2974 1.385 . S
C2976 C2974 1.478 . S
C2976 C2978 1.381 . S
C2976 C2982 1.383 . S
C2977 C2973 1.495 . S
C2977 H2983 0.959 . S
C2977 H2984 0.961 . S
C2977 H2985 0.960 . S
C2978 C2976 1.381 . S
C2978 C2979 1.394 . S
C2978 H2986 0.930 . S
C2979 C2978 1.394 . S
C2979 C2980 1.383 . S
C2979 H2987 0.929 . S
C2980 C2979 1.383 . S
C2980 C2981 1.377 . S
C2981 H2965 0.930 . S
C2981 C2980 1.377 . S
C2981 C2982 1.379 . S
C2982 H2966 0.931 . S
C2982 C2976 1.383 . S
C2982 C2981 1.379 . S
H2983 C2977 0.959 . S
H2984 C2977 0.961 . S
H2985 C2977 0.960 . S
H2986 C2978 0.930 . S
H2987 C2979 0.929 . S
H2988 C2996 0.929 . S
H2989 C2998 0.930 . S
H2990 C3000 0.930 . S
H2991 C3003 0.929 . S
H2992 C3006 0.930 . S
H2993 C3008 0.960 . S
H2994 C3008 0.960 . S
H2995 C3008 0.960 . S
C2996 H2988 0.929 . S
C2996 C2997 1.377 . S
C2996 C2998 1.384 . S
C2997 C2996 1.377 . S
C2997 C3003 1.390 . S
C2998 H2989 0.930 . S
C2998 C2996 1.384 . S
C2998 C2999 1.372 . S
C2999 C2998 1.372 . S
C2999 C3000 1.400 . S
C2999 C3004 1.490 . S
C3000 H2990 0.930 . S
C3000 C2999 1.400 . S
C3000 C3003 1.386 . S
H3001 C3017 0.930 . S
H3002 C3018 0.931 . S
C3003 H2991 0.929 . S
C3003 C2997 1.390 . S
C3003 C3000 1.386 . S
C3004 C2999 1.490 . S
C3004 C3006 1.395 . S
C3004 C3007 1.403 . S
H3005 C3011 0.930 . S
C3006 H2992 0.930 . S
C3006 C3004 1.395 . S
C3006 C3009 1.403 . S
C3007 C3004 1.403 . S
C3007 C3008 1.524 . S
C3007 C3011 1.400 . S
C3008 H2993 0.960 . S
C3008 H2994 0.960 . S
C3008 H2995 0.960 . S
C3008 C3007 1.524 . S
C3009 C3006 1.403 . S
C3009 C3010 1.392 . S
C3009 C3013 1.495 . S
C3010 C3009 1.392 . S
C3010 C3011 1.385 . S
C3010 C3012 1.478 . S
C3011 H3005 0.930 . S
C3011 C3007 1.400 . S
C3011 C3010 1.385 . S
C3012 C3010 1.478 . S
C3012 C3014 1.381 . S
C3012 C3018 1.383 . S
C3013 C3009 1.495 . S
C3013 H3019 0.959 . S
C3013 H3020 0.961 . S
C3013 H3021 0.960 . S
C3014 C3012 1.381 . S
C3014 C3015 1.394 . S
C3014 H3022 0.930 . S
C3015 C3014 1.394 . S
C3015 C3016 1.383 . S
C3015 H3023 0.929 . S
C3016 C3015 1.383 . S
C3016 C3017 1.377 . S
C3017 H3001 0.930 . S
C3017 C3016 1.377 . S
C3017 C3018 1.379 . S
C3018 H3002 0.931 . S
C3018 C3012 1.383 . S
C3018 C3017 1.379 . S
H3019 C3013 0.959 . S
H3020 C3013 0.961 . S
H3021 C3013 0.960 . S
H3022 C3014 0.930 . S
H3023 C3015 0.929 . S
H3024 C3032 0.929 . S
H3025 C3034 0.930 . S
H3026 C3036 0.930 . S
H3027 C3039 0.929 . S
H3028 C3042 0.930 . S
H3029 C3044 0.960 . S
H3030 C3044 0.960 . S
H3031 C3044 0.960 . S
C3032 H3024 0.929 . S
C3032 C3033 1.377 . S
C3032 C3034 1.384 . S
C3033 C3032 1.377 . S
C3033 C3039 1.390 . S
C3034 H3025 0.930 . S
C3034 C3032 1.384 . S
C3034 C3035 1.372 . S
C3035 C3034 1.372 . S
C3035 C3036 1.400 . S
C3035 C3040 1.490 . S
C3036 H3026 0.930 . S
C3036 C3035 1.400 . S
C3036 C3039 1.386 . S
H3037 C3053 0.930 . S
H3038 C3054 0.931 . S
C3039 H3027 0.929 . S
C3039 C3033 1.390 . S
C3039 C3036 1.386 . S
C3040 C3035 1.490 . S
C3040 C3042 1.395 . S
C3040 C3043 1.403 . S
H3041 C3047 0.930 . S
C3042 H3028 0.930 . S
C3042 C3040 1.395 . S
C3042 C3045 1.403 . S
C3043 C3040 1.403 . S
C3043 C3044 1.524 . S
C3043 C3047 1.400 . S
C3044 H3029 0.960 . S
C3044 H3030 0.960 . S
C3044 H3031 0.960 . S
C3044 C3043 1.524 . S
C3045 C3042 1.403 . S
C3045 C3046 1.392 . S
C3045 C3049 1.495 . S
C3046 C3045 1.392 . S
C3046 C3047 1.385 . S
C3046 C3048 1.478 . S
C3047 H3041 0.930 . S
C3047 C3043 1.400 . S
C3047 C3046 1.385 . S
C3048 C3046 1.478 . S
C3048 C3050 1.381 . S
C3048 C3054 1.383 . S
C3049 C3045 1.495 . S
C3049 H3055 0.959 . S
C3049 H3056 0.961 . S
C3049 H3057 0.960 . S
C3050 C3048 1.381 . S
C3050 C3051 1.394 . S
C3050 H3058 0.930 . S
C3051 C3050 1.394 . S
C3051 C3052 1.383 . S
C3051 H3059 0.929 . S
C3052 C3051 1.383 . S
C3052 C3053 1.377 . S
C3053 H3037 0.930 . S
C3053 C3052 1.377 . S
C3053 C3054 1.379 . S
C3054 H3038 0.931 . S
C3054 C3048 1.383 . S
C3054 C3053 1.379 . S
H3055 C3049 0.959 . S
H3056 C3049 0.961 . S
H3057 C3049 0.960 . S
H3058 C3050 0.930 . S
H3059 C3051 0.929 . S
H3060 C3068 0.929 . S
H3061 C3070 0.930 . S
H3062 C3072 0.930 . S
H3063 C3075 0.929 . S
H3064 C3078 0.930 . S
H3065 C3080 0.960 . S
H3066 C3080 0.960 . S
H3067 C3080 0.960 . S
C3068 H3060 0.929 . S
C3068 C3069 1.377 . S
C3068 C3070 1.384 . S
C3069 C3068 1.377 . S
C3069 C3075 1.390 . S
C3070 H3061 0.930 . S
C3070 C3068 1.384 . S
C3070 C3071 1.372 . S
C3071 C3070 1.372 . S
C3071 C3072 1.400 . S
C3071 C3076 1.490 . S
C3072 H3062 0.930 . S
C3072 C3071 1.400 . S
C3072 C3075 1.386 . S
H3073 C3089 0.930 . S
H3074 C3090 0.931 . S
C3075 H3063 0.929 . S
C3075 C3069 1.390 . S
C3075 C3072 1.386 . S
C3076 C3071 1.490 . S
C3076 C3078 1.395 . S
C3076 C3079 1.403 . S
H3077 C3083 0.930 . S
C3078 H3064 0.930 . S
C3078 C3076 1.395 . S
C3078 C3081 1.403 . S
C3079 C3076 1.403 . S
C3079 C3080 1.524 . S
C3079 C3083 1.400 . S
C3080 H3065 0.960 . S
C3080 H3066 0.960 . S
C3080 H3067 0.960 . S
C3080 C3079 1.524 . S
C3081 C3078 1.403 . S
C3081 C3082 1.392 . S
C3081 C3085 1.495 . S
C3082 C3081 1.392 . S
C3082 C3083 1.385 . S
C3082 C3084 1.478 . S
C3083 H3077 0.930 . S
C3083 C3079 1.400 . S
C3083 C3082 1.385 . S
C3084 C3082 1.478 . S
C3084 C3086 1.381 . S
C3084 C3090 1.383 . S
C3085 C3081 1.495 . S
C3085 H3091 0.959 . S
C3085 H3092 0.961 . S
C3085 H3093 0.960 . S
C3086 C3084 1.381 . S
C3086 C3087 1.394 . S
C3086 H3094 0.930 . S
C3087 C3086 1.394 . S
C3087 C3088 1.383 . S
C3087 H3095 0.929 . S
C3088 C3087 1.383 . S
C3088 C3089 1.377 . S
C3089 H3073 0.930 . S
C3089 C3088 1.377 . S
C3089 C3090 1.379 . S
C3090 H3074 0.931 . S
C3090 C3084 1.383 . S
C3090 C3089 1.379 . S
H3091 C3085 0.959 . S
H3092 C3085 0.961 . S
H3093 C3085 0.960 . S
H3094 C3086 0.930 . S
H3095 C3087 0.929 . S
H3096 C3104 0.929 . S
H3097 C3106 0.930 . S
H3098 C3108 0.930 . S
H3099 C3111 0.929 . S
H3100 C3114 0.930 . S
H3101 C3116 0.960 . S
H3102 C3116 0.960 . S
H3103 C3116 0.960 . S
C3104 H3096 0.929 . S
C3104 C3105 1.377 . S
C3104 C3106 1.384 . S
C3105 C3104 1.377 . S
C3105 C3111 1.390 . S
C3106 H3097 0.930 . S
C3106 C3104 1.384 . S
C3106 C3107 1.372 . S
C3107 C3106 1.372 . S
C3107 C3108 1.400 . S
C3107 C3112 1.490 . S
C3108 H3098 0.930 . S
C3108 C3107 1.400 . S
C3108 C3111 1.386 . S
H3109 C3125 0.930 . S
H3110 C3126 0.931 . S
C3111 H3099 0.929 . S
C3111 C3105 1.390 . S
C3111 C3108 1.386 . S
C3112 C3107 1.490 . S
C3112 C3114 1.395 . S
C3112 C3115 1.403 . S
H3113 C3119 0.930 . S
C3114 H3100 0.930 . S
C3114 C3112 1.395 . S
C3114 C3117 1.403 . S
C3115 C3112 1.403 . S
C3115 C3116 1.524 . S
C3115 C3119 1.400 . S
C3116 H3101 0.960 . S
C3116 H3102 0.960 . S
C3116 H3103 0.960 . S
C3116 C3115 1.524 . S
C3117 C3114 1.403 . S
C3117 C3118 1.392 . S
C3117 C3121 1.495 . S
C3118 C3117 1.392 . S
C3118 C3119 1.385 . S
C3118 C3120 1.478 . S
C3119 H3113 0.930 . S
C3119 C3115 1.400 . S
C3119 C3118 1.385 . S
C3120 C3118 1.478 . S
C3120 C3122 1.381 . S
C3120 C3126 1.383 . S
C3121 C3117 1.495 . S
C3121 H3127 0.959 . S
C3121 H3128 0.961 . S
C3121 H3129 0.960 . S
C3122 C3120 1.381 . S
C3122 C3123 1.394 . S
C3122 H3130 0.930 . S
C3123 C3122 1.394 . S
C3123 C3124 1.383 . S
C3123 H3131 0.929 . S
C3124 C3123 1.383 . S
C3124 C3125 1.377 . S
C3125 H3109 0.930 . S
C3125 C3124 1.377 . S
C3125 C3126 1.379 . S
C3126 H3110 0.931 . S
C3126 C3120 1.383 . S
C3126 C3125 1.379 . S
H3127 C3121 0.959 . S
H3128 C3121 0.961 . S
H3129 C3121 0.960 . S
H3130 C3122 0.930 . S
H3131 C3123 0.929 . S
H3132 C3140 0.929 . S
H3133 C3142 0.930 . S
H3134 C3144 0.930 . S
H3135 C3147 0.929 . S
H3136 C3150 0.930 . S
H3137 C3152 0.960 . S
H3138 C3152 0.960 . S
H3139 C3152 0.960 . S
C3140 H3132 0.929 . S
C3140 C3141 1.377 . S
C3140 C3142 1.384 . S
C3141 C3140 1.377 . S
C3141 C3147 1.390 . S
C3142 H3133 0.930 . S
C3142 C3140 1.384 . S
C3142 C3143 1.372 . S
C3143 C3142 1.372 . S
C3143 C3144 1.400 . S
C3143 C3148 1.490 . S
C3144 H3134 0.930 . S
C3144 C3143 1.400 . S
C3144 C3147 1.386 . S
H3145 C3161 0.930 . S
H3146 C3162 0.931 . S
C3147 H3135 0.929 . S
C3147 C3141 1.390 . S
C3147 C3144 1.386 . S
C3148 C3143 1.490 . S
C3148 C3150 1.395 . S
C3148 C3151 1.403 . S
H3149 C3155 0.930 . S
C3150 H3136 0.930 . S
C3150 C3148 1.395 . S
C3150 C3153 1.403 . S
C3151 C3148 1.403 . S
C3151 C3152 1.524 . S
C3151 C3155 1.400 . S
C3152 H3137 0.960 . S
C3152 H3138 0.960 . S
C3152 H3139 0.960 . S
C3152 C3151 1.524 . S
C3153 C3150 1.403 . S
C3153 C3154 1.392 . S
C3153 C3157 1.495 . S
C3154 C3153 1.392 . S
C3154 C3155 1.385 . S
C3154 C3156 1.478 . S
C3155 H3149 0.930 . S
C3155 C3151 1.400 . S
C3155 C3154 1.385 . S
C3156 C3154 1.478 . S
C3156 C3158 1.381 . S
C3156 C3162 1.383 . S
C3157 C3153 1.495 . S
C3157 H3163 0.959 . S
C3157 H3164 0.961 . S
C3157 H3165 0.960 . S
C3158 C3156 1.381 . S
C3158 C3159 1.394 . S
C3158 H3166 0.930 . S
C3159 C3158 1.394 . S
C3159 C3160 1.383 . S
C3159 H3167 0.929 . S
C3160 C3159 1.383 . S
C3160 C3161 1.377 . S
C3161 H3145 0.930 . S
C3161 C3160 1.377 . S
C3161 C3162 1.379 . S
C3162 H3146 0.931 . S
C3162 C3156 1.383 . S
C3162 C3161 1.379 . S
H3163 C3157 0.959 . S
H3164 C3157 0.961 . S
H3165 C3157 0.960 . S
H3166 C3158 0.930 . S
H3167 C3159 0.929 . S
H3168 C3176 0.929 . S
H3169 C3178 0.930 . S
H3170 C3180 0.930 . S
H3171 C3183 0.929 . S
H3172 C3186 0.930 . S
H3173 C3188 0.960 . S
H3174 C3188 0.960 . S
H3175 C3188 0.960 . S
C3176 H3168 0.929 . S
C3176 C3177 1.377 . S
C3176 C3178 1.384 . S
C3177 C3176 1.377 . S
C3177 C3183 1.390 . S
C3178 H3169 0.930 . S
C3178 C3176 1.384 . S
C3178 C3179 1.372 . S
C3179 C3178 1.372 . S
C3179 C3180 1.400 . S
C3179 C3184 1.490 . S
C3180 H3170 0.930 . S
C3180 C3179 1.400 . S
C3180 C3183 1.386 . S
H3181 C3197 0.930 . S
H3182 C3198 0.931 . S
C3183 H3171 0.929 . S
C3183 C3177 1.390 . S
C3183 C3180 1.386 . S
C3184 C3179 1.490 . S
C3184 C3186 1.395 . S
C3184 C3187 1.403 . S
H3185 C3191 0.930 . S
C3186 H3172 0.930 . S
C3186 C3184 1.395 . S
C3186 C3189 1.403 . S
C3187 C3184 1.403 . S
C3187 C3188 1.524 . S
C3187 C3191 1.400 . S
C3188 H3173 0.960 . S
C3188 H3174 0.960 . S
C3188 H3175 0.960 . S
C3188 C3187 1.524 . S
C3189 C3186 1.403 . S
C3189 C3190 1.392 . S
C3189 C3193 1.495 . S
C3190 C3189 1.392 . S
C3190 C3191 1.385 . S
C3190 C3192 1.478 . S
C3191 H3185 0.930 . S
C3191 C3187 1.400 . S
C3191 C3190 1.385 . S
C3192 C3190 1.478 . S
C3192 C3194 1.381 . S
C3192 C3198 1.383 . S
C3193 C3189 1.495 . S
C3193 H3199 0.959 . S
C3193 H3200 0.961 . S
C3193 H3201 0.960 . S
C3194 C3192 1.381 . S
C3194 C3195 1.394 . S
C3194 H3202 0.930 . S
C3195 C3194 1.394 . S
C3195 C3196 1.383 . S
C3195 H3203 0.929 . S
C3196 C3195 1.383 . S
C3196 C3197 1.377 . S
C3197 H3181 0.930 . S
C3197 C3196 1.377 . S
C3197 C3198 1.379 . S
C3198 H3182 0.931 . S
C3198 C3192 1.383 . S
C3198 C3197 1.379 . S
H3199 C3193 0.959 . S
H3200 C3193 0.961 . S
H3201 C3193 0.960 . S
H3202 C3194 0.930 . S
H3203 C3195 0.929 . S
H3204 C3212 0.929 . S
H3205 C3214 0.930 . S
H3206 C3216 0.930 . S
H3207 C3219 0.929 . S
H3208 C3222 0.930 . S
H3209 C3224 0.960 . S
H3210 C3224 0.960 . S
H3211 C3224 0.960 . S
C3212 H3204 0.929 . S
C3212 C3213 1.377 . S
C3212 C3214 1.384 . S
C3213 C3212 1.377 . S
C3213 C3219 1.390 . S
C3214 H3205 0.930 . S
C3214 C3212 1.384 . S
C3214 C3215 1.372 . S
C3215 C3214 1.372 . S
C3215 C3216 1.400 . S
C3215 C3220 1.490 . S
C3216 H3206 0.930 . S
C3216 C3215 1.400 . S
C3216 C3219 1.386 . S
H3217 C3233 0.930 . S
H3218 C3234 0.931 . S
C3219 H3207 0.929 . S
C3219 C3213 1.390 . S
C3219 C3216 1.386 . S
C3220 C3215 1.490 . S
C3220 C3222 1.395 . S
C3220 C3223 1.403 . S
H3221 C3227 0.930 . S
C3222 H3208 0.930 . S
C3222 C3220 1.395 . S
C3222 C3225 1.403 . S
C3223 C3220 1.403 . S
C3223 C3224 1.524 . S
C3223 C3227 1.400 . S
C3224 H3209 0.960 . S
C3224 H3210 0.960 . S
C3224 H3211 0.960 . S
C3224 C3223 1.524 . S
C3225 C3222 1.403 . S
C3225 C3226 1.392 . S
C3225 C3229 1.495 . S
C3226 C3225 1.392 . S
C3226 C3227 1.385 . S
C3226 C3228 1.478 . S
C3227 H3221 0.930 . S
C3227 C3223 1.400 . S
C3227 C3226 1.385 . S
C3228 C3226 1.478 . S
C3228 C3230 1.381 . S
C3228 C3234 1.383 . S
C3229 C3225 1.495 . S
C3229 H3235 0.959 . S
C3229 H3236 0.961 . S
C3229 H3237 0.960 . S
C3230 C3228 1.381 . S
C3230 C3231 1.394 . S
C3230 H3238 0.930 . S
C3231 C3230 1.394 . S
C3231 C3232 1.383 . S
C3231 H3239 0.929 . S
C3232 C3231 1.383 . S
C3232 C3233 1.377 . S
C3233 H3217 0.930 . S
C3233 C3232 1.377 . S
C3233 C3234 1.379 . S
C3234 H3218 0.931 . S
C3234 C3228 1.383 . S
C3234 C3233 1.379 . S
H3235 C3229 0.959 . S
H3236 C3229 0.961 . S
H3237 C3229 0.960 . S
H3238 C3230 0.930 . S
H3239 C3231 0.929 . S
H3240 C3248 0.929 . S
H3241 C3250 0.930 . S
H3242 C3252 0.930 . S
H3243 C3255 0.929 . S
H3244 C3258 0.930 . S
H3245 C3260 0.960 . S
H3246 C3260 0.960 . S
H3247 C3260 0.960 . S
C3248 H3240 0.929 . S
C3248 C3249 1.377 . S
C3248 C3250 1.384 . S
C3249 C3248 1.377 . S
C3249 C3255 1.390 . S
C3250 H3241 0.930 . S
C3250 C3248 1.384 . S
C3250 C3251 1.372 . S
C3251 C3250 1.372 . S
C3251 C3252 1.400 . S
C3251 C3256 1.490 . S
C3252 H3242 0.930 . S
C3252 C3251 1.400 . S
C3252 C3255 1.386 . S
H3253 C3269 0.930 . S
H3254 C3270 0.931 . S
C3255 H3243 0.929 . S
C3255 C3249 1.390 . S
C3255 C3252 1.386 . S
C3256 C3251 1.490 . S
C3256 C3258 1.395 . S
C3256 C3259 1.403 . S
H3257 C3263 0.930 . S
C3258 H3244 0.930 . S
C3258 C3256 1.395 . S
C3258 C3261 1.403 . S
C3259 C3256 1.403 . S
C3259 C3260 1.524 . S
C3259 C3263 1.400 . S
C3260 H3245 0.960 . S
C3260 H3246 0.960 . S
C3260 H3247 0.960 . S
C3260 C3259 1.524 . S
C3261 C3258 1.403 . S
C3261 C3262 1.392 . S
C3261 C3265 1.495 . S
C3262 C3261 1.392 . S
C3262 C3263 1.385 . S
C3262 C3264 1.478 . S
C3263 H3257 0.930 . S
C3263 C3259 1.400 . S
C3263 C3262 1.385 . S
C3264 C3262 1.478 . S
C3264 C3266 1.381 . S
C3264 C3270 1.383 . S
C3265 C3261 1.495 . S
C3265 H3271 0.959 . S
C3265 H3272 0.961 . S
C3265 H3273 0.960 . S
C3266 C3264 1.381 . S
C3266 C3267 1.394 . S
C3266 H3274 0.930 . S
C3267 C3266 1.394 . S
C3267 C3268 1.383 . S
C3267 H3275 0.929 . S
C3268 C3267 1.383 . S
C3268 C3269 1.377 . S
C3269 H3253 0.930 . S
C3269 C3268 1.377 . S
C3269 C3270 1.379 . S
C3270 H3254 0.931 . S
C3270 C3264 1.383 . S
C3270 C3269 1.379 . S
H3271 C3265 0.959 . S
H3272 C3265 0.961 . S
H3273 C3265 0.960 . S
H3274 C3266 0.930 . S
H3275 C3267 0.929 . S
H3276 C3284 0.929 . S
H3277 C3286 0.930 . S
H3278 C3288 0.930 . S
H3279 C3291 0.929 . S
H3280 C3294 0.930 . S
H3281 C3296 0.960 . S
H3282 C3296 0.960 . S
H3283 C3296 0.960 . S
C3284 H3276 0.929 . S
C3284 C3285 1.377 . S
C3284 C3286 1.384 . S
C3285 C3284 1.377 . S
C3285 C3291 1.390 . S
C3286 H3277 0.930 . S
C3286 C3284 1.384 . S
C3286 C3287 1.372 . S
C3287 C3286 1.372 . S
C3287 C3288 1.400 . S
C3287 C3292 1.490 . S
C3288 H3278 0.930 . S
C3288 C3287 1.400 . S
C3288 C3291 1.386 . S
H3289 C3305 0.930 . S
H3290 C3306 0.931 . S
C3291 H3279 0.929 . S
C3291 C3285 1.390 . S
C3291 C3288 1.386 . S
C3292 C3287 1.490 . S
C3292 C3294 1.395 . S
C3292 C3295 1.403 . S
H3293 C3299 0.930 . S
C3294 H3280 0.930 . S
C3294 C3292 1.395 . S
C3294 C3297 1.403 . S
C3295 C3292 1.403 . S
C3295 C3296 1.524 . S
C3295 C3299 1.400 . S
C3296 H3281 0.960 . S
C3296 H3282 0.960 . S
C3296 H3283 0.960 . S
C3296 C3295 1.524 . S
C3297 C3294 1.403 . S
C3297 C3298 1.392 . S
C3297 C3301 1.495 . S
C3298 C3297 1.392 . S
C3298 C3299 1.385 . S
C3298 C3300 1.478 . S
C3299 H3293 0.930 . S
C3299 C3295 1.400 . S
C3299 C3298 1.385 . S
C3300 C3298 1.478 . S
C3300 C3302 1.381 . S
C3300 C3306 1.383 . S
C3301 C3297 1.495 . S
C3301 H3307 0.959 . S
C3301 H3308 0.961 . S
C3301 H3309 0.960 . S
C3302 C3300 1.381 . S
C3302 C3303 1.394 . S
C3302 H3310 0.930 . S
C3303 C3302 1.394 . S
C3303 C3304 1.383 . S
C3303 H3311 0.929 . S
C3304 C3303 1.383 . S
C3304 C3305 1.377 . S
C3305 H3289 0.930 . S
C3305 C3304 1.377 . S
C3305 C3306 1.379 . S
C3306 H3290 0.931 . S
C3306 C3300 1.383 . S
C3306 C3305 1.379 . S
H3307 C3301 0.959 . S
H3308 C3301 0.961 . S
H3309 C3301 0.960 . S
H3310 C3302 0.930 . S
H3311 C3303 0.929 . S
H3312 C3320 0.929 . S
H3313 C3322 0.930 . S
H3314 C3324 0.930 . S
H3315 C3327 0.929 . S
H3316 C3330 0.930 . S
H3317 C3332 0.960 . S
H3318 C3332 0.960 . S
H3319 C3332 0.960 . S
C3320 H3312 0.929 . S
C3320 C3321 1.377 . S
C3320 C3322 1.384 . S
C3321 C3320 1.377 . S
C3321 C3327 1.390 . S
C3322 H3313 0.930 . S
C3322 C3320 1.384 . S
C3322 C3323 1.372 . S
C3323 C3322 1.372 . S
C3323 C3324 1.400 . S
C3323 C3328 1.490 . S
C3324 H3314 0.930 . S
C3324 C3323 1.400 . S
C3324 C3327 1.386 . S
H3325 C3341 0.930 . S
H3326 C3342 0.931 . S
C3327 H3315 0.929 . S
C3327 C3321 1.390 . S
C3327 C3324 1.386 . S
C3328 C3323 1.490 . S
C3328 C3330 1.395 . S
C3328 C3331 1.403 . S
H3329 C3335 0.930 . S
C3330 H3316 0.930 . S
C3330 C3328 1.395 . S
C3330 C3333 1.403 . S
C3331 C3328 1.403 . S
C3331 C3332 1.524 . S
C3331 C3335 1.400 . S
C3332 H3317 0.960 . S
C3332 H3318 0.960 . S
C3332 H3319 0.960 . S
C3332 C3331 1.524 . S
C3333 C3330 1.403 . S
C3333 C3334 1.392 . S
C3333 C3337 1.495 . S
C3334 C3333 1.392 . S
C3334 C3335 1.385 . S
C3334 C3336 1.478 . S
C3335 H3329 0.930 . S
C3335 C3331 1.400 . S
C3335 C3334 1.385 . S
C3336 C3334 1.478 . S
C3336 C3338 1.381 . S
C3336 C3342 1.383 . S
C3337 C3333 1.495 . S
C3337 H3343 0.959 . S
C3337 H3344 0.961 . S
C3337 H3345 0.960 . S
C3338 C3336 1.381 . S
C3338 C3339 1.394 . S
C3338 H3346 0.930 . S
C3339 C3338 1.394 . S
C3339 C3340 1.383 . S
C3339 H3347 0.929 . S
C3340 C3339 1.383 . S
C3340 C3341 1.377 . S
C3341 H3325 0.930 . S
C3341 C3340 1.377 . S
C3341 C3342 1.379 . S
C3342 H3326 0.931 . S
C3342 C3336 1.383 . S
C3342 C3341 1.379 . S
H3343 C3337 0.959 . S
H3344 C3337 0.961 . S
H3345 C3337 0.960 . S
H3346 C3338 0.930 . S
H3347 C3339 0.929 . S
H3348 C3356 0.929 . S
H3349 C3358 0.930 . S
H3350 C3360 0.930 . S
H3351 C3363 0.929 . S
H3352 C3366 0.930 . S
H3353 C3368 0.960 . S
H3354 C3368 0.960 . S
H3355 C3368 0.960 . S
C3356 H3348 0.929 . S
C3356 C3357 1.377 . S
C3356 C3358 1.384 . S
C3357 C3356 1.377 . S
C3357 C3363 1.390 . S
C3358 H3349 0.930 . S
C3358 C3356 1.384 . S
C3358 C3359 1.372 . S
C3359 C3358 1.372 . S
C3359 C3360 1.400 . S
C3359 C3364 1.490 . S
C3360 H3350 0.930 . S
C3360 C3359 1.400 . S
C3360 C3363 1.386 . S
H3361 C3377 0.930 . S
H3362 C3378 0.931 . S
C3363 H3351 0.929 . S
C3363 C3357 1.390 . S
C3363 C3360 1.386 . S
C3364 C3359 1.490 . S
C3364 C3366 1.395 . S
C3364 C3367 1.403 . S
H3365 C3371 0.930 . S
C3366 H3352 0.930 . S
C3366 C3364 1.395 . S
C3366 C3369 1.403 . S
C3367 C3364 1.403 . S
C3367 C3368 1.524 . S
C3367 C3371 1.400 . S
C3368 H3353 0.960 . S
C3368 H3354 0.960 . S
C3368 H3355 0.960 . S
C3368 C3367 1.524 . S
C3369 C3366 1.403 . S
C3369 C3370 1.392 . S
C3369 C3373 1.495 . S
C3370 C3369 1.392 . S
C3370 C3371 1.385 . S
C3370 C3372 1.478 . S
C3371 H3365 0.930 . S
C3371 C3367 1.400 . S
C3371 C3370 1.385 . S
C3372 C3370 1.478 . S
C3372 C3374 1.381 . S
C3372 C3378 1.383 . S
C3373 C3369 1.495 . S
C3373 H3379 0.959 . S
C3373 H3380 0.961 . S
C3373 H3381 0.960 . S
C3374 C3372 1.381 . S
C3374 C3375 1.394 . S
C3374 H3382 0.930 . S
C3375 C3374 1.394 . S
C3375 C3376 1.383 . S
C3375 H3383 0.929 . S
C3376 C3375 1.383 . S
C3376 C3377 1.377 . S
C3377 H3361 0.930 . S
C3377 C3376 1.377 . S
C3377 C3378 1.379 . S
C3378 H3362 0.931 . S
C3378 C3372 1.383 . S
C3378 C3377 1.379 . S
H3379 C3373 0.959 . S
H3380 C3373 0.961 . S
H3381 C3373 0.960 . S
H3382 C3374 0.930 . S
H3383 C3375 0.929 . S
H3384 C3392 0.929 . S
H3385 C3394 0.930 . S
H3386 C3396 0.930 . S
H3387 C3399 0.929 . S
H3388 C3402 0.930 . S
H3389 C3404 0.960 . S
H3390 C3404 0.960 . S
H3391 C3404 0.960 . S
C3392 H3384 0.929 . S
C3392 C3393 1.377 . S
C3392 C3394 1.384 . S
C3393 C3392 1.377 . S
C3393 C3399 1.390 . S
C3394 H3385 0.930 . S
C3394 C3392 1.384 . S
C3394 C3395 1.372 . S
C3395 C3394 1.372 . S
C3395 C3396 1.400 . S
C3395 C3400 1.490 . S
C3396 H3386 0.930 . S
C3396 C3395 1.400 . S
C3396 C3399 1.386 . S
H3397 C3413 0.930 . S
H3398 C3414 0.931 . S
C3399 H3387 0.929 . S
C3399 C3393 1.390 . S
C3399 C3396 1.386 . S
C3400 C3395 1.490 . S
C3400 C3402 1.395 . S
C3400 C3403 1.403 . S
H3401 C3407 0.930 . S
C3402 H3388 0.930 . S
C3402 C3400 1.395 . S
C3402 C3405 1.403 . S
C3403 C3400 1.403 . S
C3403 C3404 1.524 . S
C3403 C3407 1.400 . S
C3404 H3389 0.960 . S
C3404 H3390 0.960 . S
C3404 H3391 0.960 . S
C3404 C3403 1.524 . S
C3405 C3402 1.403 . S
C3405 C3406 1.392 . S
C3405 C3409 1.495 . S
C3406 C3405 1.392 . S
C3406 C3407 1.385 . S
C3406 C3408 1.478 . S
C3407 H3401 0.930 . S
C3407 C3403 1.400 . S
C3407 C3406 1.385 . S
C3408 C3406 1.478 . S
C3408 C3410 1.381 . S
C3408 C3414 1.383 . S
C3409 C3405 1.495 . S
C3409 H3415 0.959 . S
C3409 H3416 0.961 . S
C3409 H3417 0.960 . S
C3410 C3408 1.381 . S
C3410 C3411 1.394 . S
C3410 H3418 0.930 . S
C3411 C3410 1.394 . S
C3411 C3412 1.383 . S
C3411 H3419 0.929 . S
C3412 C3411 1.383 . S
C3412 C3413 1.377 . S
C3413 H3397 0.930 . S
C3413 C3412 1.377 . S
C3413 C3414 1.379 . S
C3414 H3398 0.931 . S
C3414 C3408 1.383 . S
C3414 C3413 1.379 . S
H3415 C3409 0.959 . S
H3416 C3409 0.961 . S
H3417 C3409 0.960 . S
H3418 C3410 0.930 . S
H3419 C3411 0.929 . S
C1485 C522 1.422 . S
C1504 C787 1.378 . S
C1521 C562 1.428 . S
C1540 C871 1.350 . S
C1557 C495 1.454 . S
C1576 C951 1.389 . S
C1593 C455 1.403 . S
C1612 C867 1.390 . S
C1648 C955 1.319 . S
C1629 C362 1.355 . S
C1665 C402 1.388 . S
C1684 C783 1.333 . S
C1720 C776 1.369 . S
C1701 C442 1.427 . S
C1756 C860 1.307 . S
C1737 C375 1.404 . S
C1773 C415 1.455 . S
C1792 C962 1.391 . S
C1809 C535 1.405 . S
C1828 C878 1.341 . S
C1845 C575 1.329 . S
C1864 C944 1.262 . S
C1900 C794 1.349 . S
C1881 C482 1.390 . S
C1936 C1039 1.314 . S
C1917 C42 1.420 . S
C1953 C82 1.429 . S
C1972 C1123 1.367 . S
C1989 C15 1.456 . S
C2008 C1203 1.403 . S
C2025 C695 1.403 . S
C2044 C1119 1.387 . S
C2061 C602 1.352 . S
C2080 C1207 1.272 . S
C2097 C642 1.387 . S
C2116 C1035 1.319 . S
C2133 C682 1.427 . S
C2152 C1028 1.373 . S
C2169 C615 1.404 . S
C2188 C1112 1.309 . S
C2224 C1214 1.389 . S
C2205 C655 1.456 . S
C2241 C55 1.404 . S
C2260 C1130 1.343 . S
C2296 C1196 1.295 . S
C2277 C95 1.330 . S
C2313 C2 1.393 . S
C2332 C1046 1.397 . S
C2368 C1291 1.334 . S
C2349 C282 1.421 . S
C2385 C322 1.427 . S
C2404 C1375 1.333 . S
C2440 C1455 1.440 . S
C2421 C255 1.454 . S
C2476 C1371 1.389 . S
C2457 C215 1.403 . S
C2512 C1459 1.250 . S
C2493 C122 1.351 . S
C2529 C162 1.387 . S
C2548 C1287 1.336 . S
C2565 C202 1.425 . S
C2584 C1280 1.352 . S
C2601 C135 1.405 . S
C2620 C1364 1.311 . S
C2656 C1466 1.435 . S
C2637 C175 1.457 . S
C2673 C295 1.407 . S
C2692 C1382 1.389 . S
C2709 C335 1.328 . S
C2728 C1448 1.225 . S
C2745 C242 1.394 . S
C2764 C1298 1.374 . S
C2781 C621 1.383 . S
C2800 C790 1.230 . S
C2836 C874 1.359 . S
C2817 C661 1.494 . S
C2853 C701 1.456 . S
C2872 C946 1.299 . S
C2889 C261 1.500 . S
C2908 C862 1.411 . S
C2925 C301 1.444 . S
C2944 C958 1.269 . S
C2980 C778 1.275 . S
C2961 C341 1.384 . S
C2997 C141 1.380 . S
C3016 C1042 1.316 . S
C3033 C181 1.493 . S
C3052 C1126 1.307 . S
C3069 C221 1.455 . S
C3088 C1198 1.326 . S
C3105 C501 1.503 . S
C3124 C1114 1.350 . S
C3160 C1210 1.345 . S
C3141 C541 1.440 . S
C3177 C581 1.383 . S
C3196 C1030 1.257 . S
C3213 C381 1.380 . S
C3232 C1294 1.265 . S
C3249 C421 1.494 . S
C3268 C1378 1.306 . S
C3304 C1450 1.303 . S
C3285 C461 1.461 . S
C3321 C21 1.501 . S
C3340 C1366 1.327 . S
C3357 C61 1.444 . S
C3376 C1462 1.271 . S
C3393 C101 1.383 . S
C3412 C1282 1.238 . S
