# Generated by pormake.
# Topology myd, (4,6)-cn, num edge types: 1
# Building blocks:
#     Node 0, Type 0, BuildingBlock: NAWXER_clean_sbu_0, # of connection points: 4
#     Node 1, Type 0, BuildingBlock: NAWXER_clean_sbu_0, # of connection points: 4
#     Node 2, Type 0, BuildingBlock: NAWXER_clean_sbu_0, # of connection points: 4
#     Node 3, Type 0, BuildingBlock: NAWXER_clean_sbu_0, # of connection points: 4
#     Node 4, Type 0, BuildingBlock: NAWXER_clean_sbu_0, # of connection points: 4
#     Node 5, Type 0, BuildingBlock: NAWXER_clean_sbu_0, # of connection points: 4
#     Node 6, Type 0, BuildingBlock: NAWXER_clean_sbu_0, # of connection points: 4
#     Node 7, Type 0, BuildingBlock: NAWXER_clean_sbu_0, # of connection points: 4
#     Node 8, Type 0, BuildingBlock: NAWXER_clean_sbu_0, # of connection points: 4
#     Node 9, Type 0, BuildingBlock: NAWXER_clean_sbu_0, # of connection points: 4
#     Node 10, Type 0, BuildingBlock: NAWXER_clean_sbu_0, # of connection points: 4
#     Node 11, Type 0, BuildingBlock: NAWXER_clean_sbu_0, # of connection points: 4
#     Node 12, Type 1, BuildingBlock: LEVNOQ01_clean_sbu_1, # of connection points: 6
#     Node 13, Type 1, BuildingBlock: LEVNOQ01_clean_sbu_1, # of connection points: 6
#     Node 14, Type 1, BuildingBlock: LEVNOQ01_clean_sbu_1, # of connection points: 6
#     Node 15, Type 1, BuildingBlock: LEVNOQ01_clean_sbu_1, # of connection points: 6
#     Node 16, Type 1, BuildingBlock: LEVNOQ01_clean_sbu_1, # of connection points: 6
#     Node 17, Type 1, BuildingBlock: LEVNOQ01_clean_sbu_1, # of connection points: 6
#     Node 18, Type 1, BuildingBlock: LEVNOQ01_clean_sbu_1, # of connection points: 6
#     Node 19, Type 1, BuildingBlock: LEVNOQ01_clean_sbu_1, # of connection points: 6
#     Edge 20, Type (0, 1), BuildingBlock: OJICUG_clean_linker_0, # of connection points: 2
#     Edge 21, Type (0, 1), BuildingBlock: OJICUG_clean_linker_0, # of connection points: 2
#     Edge 22, Type (0, 1), BuildingBlock: OJICUG_clean_linker_0, # of connection points: 2
#     Edge 23, Type (0, 1), BuildingBlock: OJICUG_clean_linker_0, # of connection points: 2
#     Edge 24, Type (0, 1), BuildingBlock: OJICUG_clean_linker_0, # of connection points: 2
#     Edge 25, Type (0, 1), BuildingBlock: OJICUG_clean_linker_0, # of connection points: 2
#     Edge 26, Type (0, 1), BuildingBlock: OJICUG_clean_linker_0, # of connection points: 2
#     Edge 27, Type (0, 1), BuildingBlock: OJICUG_clean_linker_0, # of connection points: 2
#     Edge 28, Type (0, 1), BuildingBlock: OJICUG_clean_linker_0, # of connection points: 2
#     Edge 29, Type (0, 1), BuildingBlock: OJICUG_clean_linker_0, # of connection points: 2
#     Edge 30, Type (0, 1), BuildingBlock: OJICUG_clean_linker_0, # of connection points: 2
#     Edge 31, Type (0, 1), BuildingBlock: OJICUG_clean_linker_0, # of connection points: 2
#     Edge 32, Type (0, 1), BuildingBlock: OJICUG_clean_linker_0, # of connection points: 2
#     Edge 33, Type (0, 1), BuildingBlock: OJICUG_clean_linker_0, # of connection points: 2
#     Edge 34, Type (0, 1), BuildingBlock: OJICUG_clean_linker_0, # of connection points: 2
#     Edge 35, Type (0, 1), BuildingBlock: OJICUG_clean_linker_0, # of connection points: 2
#     Edge 36, Type (0, 1), BuildingBlock: OJICUG_clean_linker_0, # of connection points: 2
#     Edge 37, Type (0, 1), BuildingBlock: OJICUG_clean_linker_0, # of connection points: 2
#     Edge 38, Type (0, 1), BuildingBlock: OJICUG_clean_linker_0, # of connection points: 2
#     Edge 39, Type (0, 1), BuildingBlock: OJICUG_clean_linker_0, # of connection points: 2
#     Edge 40, Type (0, 1), BuildingBlock: OJICUG_clean_linker_0, # of connection points: 2
#     Edge 41, Type (0, 1), BuildingBlock: OJICUG_clean_linker_0, # of connection points: 2
#     Edge 42, Type (0, 1), BuildingBlock: OJICUG_clean_linker_0, # of connection points: 2
#     Edge 43, Type (0, 1), BuildingBlock: OJICUG_clean_linker_0, # of connection points: 2
#     Edge 44, Type (0, 1), BuildingBlock: OJICUG_clean_linker_0, # of connection points: 2
#     Edge 45, Type (0, 1), BuildingBlock: OJICUG_clean_linker_0, # of connection points: 2
#     Edge 46, Type (0, 1), BuildingBlock: OJICUG_clean_linker_0, # of connection points: 2
#     Edge 47, Type (0, 1), BuildingBlock: OJICUG_clean_linker_0, # of connection points: 2
#     Edge 48, Type (0, 1), BuildingBlock: OJICUG_clean_linker_0, # of connection points: 2
#     Edge 49, Type (0, 1), BuildingBlock: OJICUG_clean_linker_0, # of connection points: 2
#     Edge 50, Type (0, 1), BuildingBlock: OJICUG_clean_linker_0, # of connection points: 2
#     Edge 51, Type (0, 1), BuildingBlock: OJICUG_clean_linker_0, # of connection points: 2
#     Edge 52, Type (0, 1), BuildingBlock: OJICUG_clean_linker_0, # of connection points: 2
#     Edge 53, Type (0, 1), BuildingBlock: OJICUG_clean_linker_0, # of connection points: 2
#     Edge 54, Type (0, 1), BuildingBlock: OJICUG_clean_linker_0, # of connection points: 2
#     Edge 55, Type (0, 1), BuildingBlock: OJICUG_clean_linker_0, # of connection points: 2
#     Edge 56, Type (0, 1), BuildingBlock: OJICUG_clean_linker_0, # of connection points: 2
#     Edge 57, Type (0, 1), BuildingBlock: OJICUG_clean_linker_0, # of connection points: 2
#     Edge 58, Type (0, 1), BuildingBlock: OJICUG_clean_linker_0, # of connection points: 2
#     Edge 59, Type (0, 1), BuildingBlock: OJICUG_clean_linker_0, # of connection points: 2
#     Edge 60, Type (0, 1), BuildingBlock: OJICUG_clean_linker_0, # of connection points: 2
#     Edge 61, Type (0, 1), BuildingBlock: OJICUG_clean_linker_0, # of connection points: 2
#     Edge 62, Type (0, 1), BuildingBlock: OJICUG_clean_linker_0, # of connection points: 2
#     Edge 63, Type (0, 1), BuildingBlock: OJICUG_clean_linker_0, # of connection points: 2
#     Edge 64, Type (0, 1), BuildingBlock: OJICUG_clean_linker_0, # of connection points: 2
#     Edge 65, Type (0, 1), BuildingBlock: OJICUG_clean_linker_0, # of connection points: 2
#     Edge 66, Type (0, 1), BuildingBlock: OJICUG_clean_linker_0, # of connection points: 2
#     Edge 67, Type (0, 1), BuildingBlock: OJICUG_clean_linker_0, # of connection points: 2
# Relax obj value: 0.219
# Max RMSD: 0.190
# Mean RMSD: 0.135
data_MOF--net-myd--node1-NAWXER_clean_sbu_0--node2-LEVNOQ01_clean_sbu_1--edge1-OJICUG_clean_linker_0
_symmetry_space_group_name_H-M    P1
_symmetry_Int_Tables_number       1
_symmetry_cell_setting            triclinic
loop_
_symmetry_equiv_pos_as_xyz
'x, y, z'
_cell_length_a     32.965629
_cell_length_b     33.523609
_cell_length_c     32.739018
_cell_angle_alpha  90.237245
_cell_angle_beta   91.684684
_cell_angle_gamma 91.815673
loop_
_atom_site_label
_atom_site_type_symbol
_atom_site_fract_x
_atom_site_fract_y
_atom_site_fract_z
_atom_type_partial_charge
C0 C 0.96609 0.21163 0.23105 0.0
C1 C 0.98178 0.3184 0.33342 0.0
O2 O 0.00272 0.21784 0.24435 0.0
Zn3 Zn 0.03673 0.25559 0.28697 0.0
O4 O 0.9379 0.23337 0.24331 0.0
Zn5 Zn 0.97212 0.26419 0.2825 0.0
O6 O 0.00797 0.30148 0.24486 0.0
O7 O 0.07292 0.28762 0.25199 0.0
O8 O 0.94892 0.30447 0.31681 0.0
O9 O 0.01537 0.30188 0.32586 0.0
O10 O 0.05726 0.21423 0.32416 0.0
O11 O 0.99051 0.21745 0.32242 0.0
C12 C 0.04503 0.30844 0.23601 0.0
C13 C 0.02278 0.20022 0.33475 0.0
C14 C 0.98739 0.81258 0.24084 0.0
C15 C 0.9776 0.70283 0.1418 0.0
O16 O 0.02089 0.79913 0.22898 0.0
Zn17 Zn 0.0448 0.75575 0.19168 0.0
O18 O 0.95392 0.79497 0.23003 0.0
Zn19 Zn 0.97769 0.75534 0.1936 0.0
O20 O 0.0059 0.71519 0.23358 0.0
O21 O 0.07275 0.71953 0.23038 0.0
O22 O 0.94685 0.71737 0.15856 0.0
O23 O 0.01352 0.71529 0.15205 0.0
O24 O 0.07103 0.79192 0.15285 0.0
O25 O 0.00385 0.7936 0.14982 0.0
C26 C 0.04087 0.70339 0.24506 0.0
C27 C 0.0384 0.8056 0.13717 0.0
C28 C 0.33448 0.04105 0.185 0.0
C29 C 0.2332 0.03321 0.29245 0.0
O30 O 0.32657 0.00571 0.19792 0.0
Zn31 Zn 0.28986 0.97575 0.24173 0.0
O32 O 0.31918 0.07093 0.2023 0.0
Zn33 Zn 0.28486 0.04004 0.23966 0.0
O34 O 0.32646 0.01877 0.28533 0.0
O35 O 0.32726 0.95299 0.28157 0.0
O36 O 0.24426 0.06501 0.27413 0.0
O37 O 0.24776 -0.00017 0.28212 0.0
O38 O 0.25593 0.9415 0.20541 0.0
O39 O 0.2484 0.00633 0.19615 0.0
C40 C 0.33908 0.98546 0.29906 0.0
C41 C 0.24063 0.97005 0.18534 0.0
C42 C 0.74381 0.52913 0.18937 0.0
C43 C 0.64655 0.53164 0.30175 0.0
O44 O 0.73107 0.49524 0.20242 0.0
Zn45 Zn 0.69265 0.46939 0.2463 0.0
O46 O 0.73231 0.56104 0.20626 0.0
Zn47 Zn 0.69522 0.53493 0.24572 0.0
O48 O 0.73669 0.50746 0.28624 0.0
O49 O 0.73054 0.44148 0.2821 0.0
O50 O 0.66071 0.56272 0.28409 0.0
O51 O 0.65646 0.49701 0.28985 0.0
O52 O 0.65325 0.44172 0.21033 0.0
O53 O 0.65116 0.50758 0.20622 0.0
C54 C 0.74729 0.47285 0.29789 0.0
C55 C 0.63795 0.47289 0.19498 0.0
C56 C 0.18528 0.34192 0.03951 0.0
C57 C 0.29839 0.24894 0.0352 0.0
O58 O 0.19636 0.33276 0.0036 0.0
Zn59 Zn 0.24024 0.298 0.97452 0.0
O60 O 0.20503 0.32943 0.0707 0.0
Zn61 Zn 0.24283 0.29627 0.04085 0.0
O62 O 0.28349 0.33881 0.01419 0.0
O63 O 0.27573 0.33567 0.94693 0.0
O64 O 0.28215 0.26049 0.06789 0.0
O65 O 0.28464 0.26069 0.00053 0.0
O66 O 0.20463 0.26073 0.9437 0.0
O67 O 0.20107 0.25501 0.01098 0.0
C68 C 0.29401 0.35023 0.97862 0.0
C69 C 0.18884 0.24469 0.97486 0.0
C70 C 0.19103 0.75622 0.52699 0.0
C71 C 0.30595 0.66432 0.54415 0.0
O72 O 0.20635 0.74303 0.49433 0.0
Zn73 Zn 0.25252 0.70588 0.47383 0.0
O74 O 0.20697 0.74727 0.56164 0.0
Zn75 Zn 0.24901 0.71144 0.54063 0.0
O76 O 0.28907 0.7521 0.51247 0.0
O77 O 0.28939 0.74243 0.44547 0.0
O78 O 0.28758 0.67982 0.57378 0.0
O79 O 0.29473 0.67176 0.50736 0.0
O80 O 0.21804 0.66559 0.44593 0.0
O81 O 0.21145 0.66637 0.51307 0.0
C82 C 0.30252 0.76111 0.47736 0.0
C83 C 0.20141 0.65196 0.47788 0.0
C84 C 0.68298 0.8413 0.54154 0.0
C85 C 0.79049 0.74165 0.53905 0.0
O86 O 0.69456 0.83178 0.50591 0.0
Zn87 Zn 0.73665 0.79407 0.47765 0.0
O88 O 0.7008 0.82726 0.5732 0.0
Zn89 Zn 0.73694 0.79202 0.54379 0.0
O90 O 0.78027 0.83322 0.51874 0.0
O91 O 0.77503 0.8306 0.45136 0.0
O92 O 0.77372 0.75382 0.57118 0.0
O93 O 0.77848 0.75435 0.50413 0.0
O94 O 0.6985 0.75914 0.44632 0.0
O95 O 0.69173 0.75474 0.51312 0.0
C96 C 0.79261 0.84455 0.48376 0.0
C97 C 0.67934 0.74549 0.47674 0.0
C98 C 0.55783 0.81463 0.73922 0.0
C99 C 0.53598 0.70933 0.84222 0.0
O100 O 0.52073 0.80515 0.7459 0.0
Zn101 Zn 0.48512 0.76618 0.78256 0.0
O102 O 0.58625 0.79751 0.7589 0.0
Zn103 Zn 0.5504 0.76363 0.79257 0.0
O104 O 0.52429 0.72343 0.74842 0.0
O105 O 0.45815 0.73174 0.74095 0.0
O106 O 0.57038 0.72416 0.83236 0.0
O107 O 0.50348 0.72349 0.82658 0.0
O108 O 0.45545 0.80406 0.81425 0.0
O109 O 0.52169 0.80873 0.82724 0.0
C110 C 0.48991 0.71348 0.73166 0.0
C111 C 0.48586 0.82128 0.83243 0.0
C112 C 0.53595 0.20087 0.74164 0.0
C113 C 0.53681 0.30476 0.63398 0.0
O114 O 0.50165 0.21403 0.72986 0.0
Zn115 Zn 0.47512 0.25548 0.69037 0.0
O116 O 0.56854 0.21622 0.72756 0.0
Zn117 Zn 0.54255 0.25435 0.68882 0.0
O118 O 0.51969 0.29776 0.72656 0.0
O119 O 0.45273 0.29571 0.72757 0.0
O120 O 0.56924 0.29067 0.64975 0.0
O121 O 0.50219 0.29318 0.64681 0.0
O122 O 0.44414 0.21803 0.65434 0.0
O123 O 0.51082 0.21508 0.64856 0.0
C124 C 0.48674 0.31209 0.73878 0.0
C125 C 0.47489 0.20327 0.6377 0.0
C126 C 0.73193 0.47052 0.69519 0.0
C127 C 0.84174 0.48088 0.79907 0.0
O128 O 0.74428 0.50606 0.70438 0.0
Zn129 Zn 0.78762 0.53751 0.74221 0.0
O130 O 0.74761 0.44069 0.71288 0.0
Zn131 Zn 0.7875 0.47238 0.74604 0.0
O132 O 0.75134 0.5013 0.78848 0.0
O133 O 0.75298 0.56669 0.7791 0.0
O134 O 0.82631 0.44852 0.78406 0.0
O135 O 0.83045 0.51442 0.78488 0.0
O136 O 0.82077 0.5636 0.7004 0.0
O137 O 0.82259 0.49778 0.69893 0.0
C138 C 0.7408 0.53617 0.79891 0.0
C139 C 0.83222 0.53171 0.68353 0.0
C140 C 0.25296 0.03135 0.70054 0.0
C141 C 0.14838 0.03613 0.80633 0.0
O142 O 0.23696 0.99794 0.71124 0.0
Zn143 Zn 0.19463 0.97304 0.75155 0.0
O144 O 0.24355 0.06328 0.71882 0.0
Zn145 Zn 0.20177 0.03867 0.75459 0.0
O146 O 0.23613 0.00739 0.79763 0.0
O147 O 0.22797 0.94198 0.79043 0.0
O148 O 0.16774 0.06692 0.79334 0.0
O149 O 0.15578 0.00161 0.79209 0.0
O150 O 0.15603 0.94975 0.71143 0.0
O151 O 0.1584 0.01587 0.71094 0.0
C152 C 0.24365 0.97212 0.80956 0.0
C153 C 0.14389 0.98262 0.6967 0.0
C154 C 0.70036 0.15435 0.97486 0.0
C155 C 0.80724 0.25862 0.98086 0.0
O156 O 0.71049 0.16723 0.01063 0.0
Zn157 Zn 0.74849 0.21018 0.04043 0.0
O158 O 0.71701 0.16936 0.94353 0.0
Zn159 Zn 0.75201 0.20837 0.97309 0.0
O160 O 0.79343 0.17194 0.00529 0.0
O161 O 0.78572 0.1756 0.07211 0.0
O162 O 0.79129 0.24521 0.9474 0.0
O163 O 0.7925 0.24821 0.015 0.0
O164 O 0.70791 0.24734 0.06234 0.0
O165 O 0.70707 0.24557 0.99499 0.0
C166 C 0.80441 0.16216 0.04155 0.0
C167 C 0.69222 0.25799 0.02816 0.0
O168 O 0.04053 0.09342 0.14614 0.0
Mg169 Mg 0.08186 0.08041 0.10231 0.0
O170 O 0.99484 0.06982 0.10177 0.0
Mg171 Mg 0.02886 0.04547 0.04449 0.0
O172 O 0.08947 0.02557 0.07674 0.0
O173 O 0.12673 0.05146 0.12982 0.0
O174 O 0.0576 0.029 0.98139 0.0
O175 O 0.01681 0.9808 0.06324 0.0
Mg176 Mg 0.96447 0.99863 0.98234 0.0
O177 O 0.96455 0.04843 0.01916 0.0
O178 O 0.00714 0.01253 0.9372 0.0
O179 O 0.97789 0.94668 0.0184 0.0
O180 O 0.90942 0.0288 0.9842 0.0
C181 C 0.08089 0.13142 0.03128 0.0
C182 C 0.00393 0.0866 0.13593 0.0
C183 C 0.11957 0.02361 0.10311 0.0
C184 C 0.04419 0.02217 0.94474 0.0
C185 C 0.00053 0.94799 0.05054 0.0
C186 C 0.92713 0.0542 0.00897 0.0
O187 O 0.10166 0.12464 0.06338 0.0
O188 O 0.04915 0.11 0.02175 0.0
O189 O 0.9602 0.42959 0.1544 0.0
Mg190 Mg 0.91931 0.42438 0.10457 0.0
O191 O -0.001 0.43692 0.10211 0.0
Mg192 Mg 0.96079 0.46151 0.04533 0.0
O193 O 0.8971 0.47508 0.07749 0.0
O194 O 0.86454 0.43774 0.12419 0.0
O195 O 0.92977 0.4801 0.98234 0.0
O196 O 0.97433 0.52626 0.06499 0.0
Mg197 Mg 0.02521 0.50686 0.98404 0.0
O198 O 0.02379 0.4571 0.01949 0.0
O199 O 0.97874 0.49733 0.93942 0.0
O200 O 0.0165 0.55693 0.02275 0.0
O201 O 0.0782 0.47371 0.98507 0.0
C202 C 0.92467 0.36847 0.03617 0.0
C203 C 0.99508 0.42926 0.13988 0.0
C204 C 0.8665 0.46901 0.10156 0.0
C205 C 0.9418 0.48888 0.94642 0.0
C206 C 0.99351 0.55753 0.05326 0.0
C207 C 0.06042 0.44948 0.00973 0.0
O208 O 0.91367 0.36996 0.07276 0.0
O209 O 0.94266 0.3984 0.02033 0.0
O210 O 0.14113 0.96595 0.44286 0.0
Mg211 Mg 0.0902 0.9294 0.42656 0.0
O212 O 0.09127 0.9997 0.4193 0.0
Mg213 Mg 0.03534 0.96335 0.45093 0.0
O214 O 0.06347 0.89825 0.47222 0.0
O215 O 0.11312 0.87542 0.43361 0.0
O216 O 0.97326 0.93351 0.47286 0.0
O217 O 0.05999 0.97975 0.51564 0.0
Mg218 Mg 0.982 0.02221 0.49315 0.0
O219 O 0.01117 0.02756 0.43816 0.0
O220 O 0.93288 0.9812 0.49198 0.0
O221 O 0.0208 0.02246 0.54574 0.0
O222 O 0.97221 0.07455 0.46405 0.0
C223 C 0.03012 0.92942 0.35924 0.0
C224 C 0.12946 0.99604 0.42376 0.0
C225 C 0.0901 0.8713 0.46434 0.0
C226 C 0.9385 0.94494 0.48391 0.0
C227 C 0.05125 0.00034 0.54673 0.0
C228 C 0.99531 0.06265 0.43561 0.0
O229 O 0.06797 0.92654 0.36501 0.0
O230 O 0.00906 0.94168 0.38824 0.0
O231 O 0.90621 0.65597 0.44409 0.0
Mg232 Mg 0.91442 0.61072 0.40185 0.0
O233 O 0.92476 0.61122 0.48905 0.0
Mg234 Mg 0.95338 0.55616 0.45333 0.0
O235 O 0.97161 0.59072 0.392 0.0
O236 O 0.93805 0.63332 0.35114 0.0
O237 O 0.97524 0.49677 0.42138 0.0
O238 O 0.01875 0.57772 0.4714 0.0
Mg239 Mg 0.99664 0.49621 0.51591 0.0
O240 O 0.94408 0.52727 0.51592 0.0
O241 O 0.99305 0.45327 0.46932 0.0
O242 O 0.04794 0.5356 0.51437 0.0
O243 O 0.96267 0.4879 0.56724 0.0
C244 C 0.86412 0.53816 0.40304 0.0
C245 C 0.91013 0.64527 0.48078 0.0
C246 C 0.9701 0.61366 0.35981 0.0
C247 C 0.98567 0.46169 0.43223 0.0
C248 C 0.04962 0.5666 0.49229 0.0
C249 C 0.93702 0.51211 0.55145 0.0
O250 O 0.86664 0.57164 0.38575 0.0
O251 O 0.89034 0.52854 0.4303 0.0
O252 O 0.4678 0.92725 0.65331 0.0
Mg253 Mg 0.42413 0.92523 0.60589 0.0
O254 O 0.50431 0.93728 0.59974 0.0
Mg255 Mg 0.46261 0.9619 0.54501 0.0
O256 O 0.4016 0.97697 0.58129 0.0
O257 O 0.3726 0.9408 0.63112 0.0
O258 O 0.42841 0.98091 0.48323 0.0
O259 O 0.47743 0.02654 0.56328 0.0
Mg260 Mg 0.52454 0.00722 0.47963 0.0
O261 O 0.52343 0.95772 0.51536 0.0
O262 O 0.47557 0.99729 0.43787 0.0
O263 O 0.51658 0.05774 0.51861 0.0
O264 O 0.57717 0.97285 0.4798 0.0
C265 C 0.4206 0.87052 0.53647 0.0
C266 C 0.50204 0.92846 0.63745 0.0
C267 C 0.37322 0.97177 0.60808 0.0
C268 C 0.43891 0.98944 0.44665 0.0
C269 C 0.49517 0.0581 0.55034 0.0
C270 C 0.5597 0.94929 0.5053 0.0
O271 O 0.41097 0.8723 0.57345 0.0
O272 O 0.44153 0.89883 0.52097 0.0
O273 O 0.55828 0.61839 0.59131 0.0
Mg274 Mg 0.5949 0.58426 0.55026 0.0
O275 O 0.5121 0.56971 0.59733 0.0
Mg276 Mg 0.53061 0.54419 0.53653 0.0
O277 O 0.59472 0.52666 0.5655 0.0
O278 O 0.64944 0.56774 0.57392 0.0
O279 O 0.55338 0.52246 0.47345 0.0
O280 O 0.52168 0.48021 0.5589 0.0
Mg281 Mg 0.46515 0.50108 0.47973 0.0
O282 O 0.4626 0.5488 0.51949 0.0
O283 O 0.50083 0.52055 0.42997 0.0
O284 O 0.48323 0.44777 0.51233 0.0
O285 O 0.408 0.52508 0.48531 0.0
C286 C 0.56914 0.61731 0.48536 0.0
C287 C 0.52697 0.60365 0.60827 0.0
C288 C 0.6322 0.53292 0.57762 0.0
C289 C 0.53881 0.52299 0.43694 0.0
C290 C 0.50615 0.44776 0.54436 0.0
C291 C 0.42435 0.55145 0.50996 0.0
O292 O 0.59676 0.59242 0.48625 0.0
O293 O 0.54015 0.61102 0.50982 0.0
O294 O 0.64496 0.46442 0.9403 0.0
Mg295 Mg 0.59278 0.42931 0.92508 0.0
O296 O 0.59604 0.50051 0.91844 0.0
Mg297 Mg 0.53897 0.4658 0.94847 0.0
O298 O 0.56537 0.40028 0.97184 0.0
O299 O 0.61443 0.37507 0.93405 0.0
O300 O 0.47611 0.43583 0.97023 0.0
O301 O 0.5656 0.48125 0.01207 0.0
Mg302 Mg 0.48853 0.51599 0.98461 0.0
O303 O 0.51904 0.53316 0.93251 0.0
O304 O 0.43411 0.48523 0.97515 0.0
O305 O 0.51598 0.5094 0.04317 0.0
O306 O 0.48275 0.57364 0.9715 0.0
C307 C 0.53296 0.42883 0.85746 0.0
C308 C 0.63403 0.49588 0.92327 0.0
C309 C 0.59152 0.37254 0.965 0.0
C310 C 0.44003 0.44838 0.97365 0.0
C311 C 0.55029 0.4938 0.04461 0.0
C312 C 0.50431 0.56832 0.93983 0.0
O313 O 0.57054 0.42443 0.86377 0.0
O314 O 0.51231 0.44356 0.8856 0.0
O315 O 0.40188 0.15207 0.93715 0.0
Mg316 Mg 0.40855 0.10389 0.89783 0.0
O317 O 0.42641 0.11315 0.98515 0.0
Mg318 Mg 0.45321 0.05587 0.95292 0.0
O319 O 0.46682 0.0864 0.888 0.0
O320 O 0.4287 0.12125 0.84339 0.0
O321 O 0.47573 0.99561 0.92376 0.0
O322 O 0.51865 0.07886 0.96699 0.0
Mg323 Mg 0.49589 0.99716 0.01758 0.0
O324 O 0.44708 0.03259 0.01835 0.0
O325 O 0.48135 0.95197 0.9744 0.0
O326 O 0.54831 0.03423 0.00709 0.0
O327 O 0.46586 0.99734 0.07246 0.0
C328 C 0.36018 0.03173 0.9117 0.0
C329 C 0.40986 0.1456 0.9744 0.0
C330 C 0.46279 0.10566 0.85347 0.0
C331 C 0.47844 0.95965 0.93659 0.0
C332 C 0.55002 0.06578 0.98567 0.0
C333 C 0.44093 0.02154 0.05555 0.0
O334 O 0.36032 0.06284 0.89023 0.0
O335 O 0.38946 0.02524 0.93676 0.0
C336 C 0.97929 0.14353 0.35924 0.0
C337 C 0.01815 0.16207 0.35758 0.0
H338 H 0.94219 0.09676 0.38428 0.0
C339 C 0.05108 0.14329 0.377 0.0
H340 H 0.95327 0.15632 0.34385 0.0
C341 C 0.04455 0.10816 0.39972 0.0
C342 C 0.00511 0.09134 0.40303 0.0
H343 H 0.08145 0.15645 0.37589 0.0
H344 H 0.06978 0.09562 0.41669 0.0
C345 C 0.97289 0.10889 0.38182 0.0
C346 C 0.94984 0.38183 0.35636 0.0
C347 C 0.98255 0.35577 0.35807 0.0
H348 H 0.92584 0.43698 0.37746 0.0
C349 C 0.0175 0.36708 0.38151 0.0
H350 H 0.92269 0.37428 0.33817 0.0
C351 C 0.01916 0.40273 0.40386 0.0
C352 C 0.98642 0.4285 0.40251 0.0
H353 H 0.04342 0.34803 0.3832 0.0
H354 H 0.04586 0.40986 0.42293 0.0
C355 C 0.95189 0.41805 0.37816 0.0
C356 C 0.04969 0.87776 0.12649 0.0
C357 C 0.0382 0.8403 0.11008 0.0
H358 H 0.04447 0.941 0.12183 0.0
C359 C 0.01499 0.83821 0.07342 0.0
H360 H 0.06602 0.88009 0.15567 0.0
C361 C 0.00277 0.87306 0.05383 0.0
C362 C 0.01268 0.91067 0.07116 0.0
H363 H 0.00467 0.80952 0.06099 0.0
H364 H 0.98482 0.87048 0.02565 0.0
C365 C 0.03673 0.91256 0.10744 0.0
C366 C 0.00337 0.6662 0.08314 0.0
C367 C 0.97438 0.66881 0.11355 0.0
H368 H 0.0326 0.62899 0.04078 0.0
C369 C 0.94949 0.63543 0.12209 0.0
H370 H 0.02304 0.69165 0.07621 0.0
C371 C 0.95551 0.59912 0.1023 0.0
C372 C 0.98629 0.59593 0.07356 0.0
H373 H 0.9274 0.63666 0.14589 0.0
H374 H 0.93671 0.57338 0.11023 0.0
C375 C 0.0092 0.63019 0.06326 0.0
C376 C 0.39135 0.07023 0.1436 0.0
C377 C 0.35692 0.04489 0.14676 0.0
H378 H 0.44578 0.08273 0.11064 0.0
C379 C 0.34657 0.01823 0.11456 0.0
H380 H 0.40003 0.09084 0.16812 0.0
C381 C 0.37179 0.01448 0.08139 0.0
C382 C 0.40822 0.03686 0.08013 0.0
H383 H 0.32024 0.99827 0.11636 0.0
H384 H 0.36468 0.99145 0.05873 0.0
C385 C 0.41724 0.06579 0.11064 0.0
C386 C 0.62081 0.45036 0.12453 0.0
C387 C 0.60992 0.471 0.1596 0.0
H388 H 0.61146 0.44301 0.06005 0.0
C389 C 0.57809 0.49781 0.15723 0.0
H390 H 0.64605 0.43042 0.12554 0.0
C391 C 0.55822 0.50495 0.11992 0.0
C392 C 0.57067 0.48612 0.08426 0.0
H393 H 0.56984 0.51457 0.18395 0.0
H394 H 0.53414 0.52619 0.11879 0.0
C395 C 0.6016 0.45821 0.08702 0.0
C396 C 0.36366 0.95299 0.36417 0.0
C397 C 0.3643 0.98566 0.33726 0.0
H398 H 0.38572 0.92917 0.42137 0.0
C399 C 0.38688 0.02035 0.34868 0.0
H400 H 0.34599 0.92609 0.35644 0.0
C401 C 0.40935 0.02203 0.38546 0.0
C402 C 0.40898 0.9895 0.41227 0.0
H403 H 0.38776 0.04611 0.32881 0.0
H404 H 0.42775 0.04863 0.39266 0.0
C405 C 0.38562 0.95502 0.40162 0.0
C406 C 0.62915 0.5087 0.37101 0.0
C407 C 0.62074 0.53372 0.33767 0.0
H408 H 0.61002 0.4862 0.42873 0.0
C409 C 0.58558 0.55624 0.33755 0.0
H410 H 0.65603 0.49089 0.37167 0.0
C411 C 0.55843 0.55241 0.36968 0.0
C412 C 0.56677 0.52688 0.40272 0.0
H413 H 0.5783 0.57539 0.31197 0.0
H414 H 0.53106 0.56948 0.36883 0.0
C415 C 0.6028 0.50582 0.40351 0.0
C416 C 0.11359 0.35328 0.01874 0.0
C417 C 0.14802 0.36497 0.04284 0.0
H418 H 0.05729 0.37083 0.99069 0.0
C419 C 0.14853 0.40188 0.06315 0.0
H420 H 0.11261 0.32499 0.00267 0.0
C421 C 0.11699 0.42835 0.0558 0.0
C422 C 0.08424 0.41779 0.02891 0.0
H423 H 0.17486 0.41171 0.08151 0.0
H424 H 0.11977 0.45823 0.06853 0.0
C425 C 0.08179 0.37935 0.01207 0.0
C426 C 0.1602 0.59733 0.50773 0.0
C427 C 0.16587 0.62455 0.47579 0.0
H428 H 0.11895 0.55817 0.5384 0.0
C429 C 0.13353 0.63172 0.4483 0.0
H430 H 0.18465 0.59182 0.52964 0.0
C431 C 0.09546 0.61331 0.45396 0.0
C432 C 0.08936 0.58718 0.48695 0.0
H433 H 0.13697 0.65335 0.42404 0.0
H434 H 0.07075 0.61985 0.43276 0.0
C435 C 0.12243 0.57862 0.51311 0.0
C436 C 0.85752 0.86737 0.4511 0.0
C437 C 0.8294 0.87102 0.48231 0.0
H438 H 0.91526 0.88694 0.42798 0.0
C439 C 0.83859 0.89769 0.51473 0.0
H440 H 0.85151 0.8466 0.42606 0.0
C441 C 0.87462 0.92079 0.51563 0.0
C442 C 0.90296 0.91693 0.48479 0.0
H443 H 0.81769 0.90092 0.53938 0.0
H444 H 0.88035 0.9418 0.54052 0.0
C445 C 0.89427 0.88984 0.45258 0.0
C446 C 0.3306 0.59578 0.55285 0.0
C447 C 0.33965 0.63677 0.54996 0.0
H448 H 0.35073 0.53654 0.5423 0.0
C449 C 0.37922 0.64945 0.53983 0.0
H450 H 0.30009 0.58526 0.5595 0.0
C451 C 0.40851 0.62153 0.53039 0.0
C452 C 0.39812 0.58061 0.52961 0.0
H453 H 0.38653 0.68095 0.53619 0.0
H454 H 0.43796 0.63205 0.52032 0.0
C455 C 0.35945 0.56797 0.54249 0.0
C456 C 0.55446 0.6399 0.86419 0.0
C457 C 0.5318 0.67435 0.86948 0.0
H458 H 0.56228 0.57849 0.88115 0.0
C459 C 0.50018 0.67318 0.8972 0.0
H460 H 0.57831 0.63962 0.84213 0.0
C461 C 0.49138 0.63868 0.91935 0.0
C462 C 0.51342 0.60383 0.91395 0.0
H463 H 0.4818 0.69904 0.90144 0.0
H464 H 0.46679 0.63932 0.94055 0.0
C465 C 0.54501 0.6048 0.886 0.0
C466 C 0.45826 0.85605 0.89269 0.0
C467 C 0.48099 0.85745 0.85726 0.0
H468 H 0.44028 0.88754 0.94596 0.0
C469 C 0.50112 0.89337 0.84664 0.0
H470 H 0.44271 0.8286 0.90151 0.0
C471 C 0.49884 0.92744 0.8713 0.0
C472 C 0.47752 0.9256 0.90771 0.0
H473 H 0.51882 0.89498 0.81936 0.0
H474 H 0.51504 0.95463 0.86281 0.0
C475 C 0.45704 0.88968 0.91803 0.0
C476 C 0.50676 0.33817 0.57333 0.0
C477 C 0.53684 0.3381 0.60474 0.0
H478 H 0.47335 0.37261 0.52964 0.0
C479 C 0.55886 0.37357 0.614 0.0
H480 H 0.48895 0.31121 0.56605 0.0
C481 C 0.54913 0.40901 0.59396 0.0
C482 C 0.51746 0.4096 0.56401 0.0
H483 H 0.58146 0.37456 0.63873 0.0
H484 H 0.56573 0.43619 0.60277 0.0
C485 C 0.49741 0.37344 0.55291 0.0
C486 C 0.49988 0.16775 0.57786 0.0
C487 C 0.4718 0.16934 0.60927 0.0
H488 H 0.52982 0.1314 0.53506 0.0
C489 C 0.44932 0.13482 0.61931 0.0
H490 H 0.51788 0.19407 0.56994 0.0
C491 C 0.45688 0.09861 0.60003 0.0
C492 C 0.48684 0.09652 0.57026 0.0
H493 H 0.42816 0.13519 0.644 0.0
H494 H 0.43991 0.07211 0.60919 0.0
C495 C 0.50723 0.13176 0.55841 0.0
C496 C 0.84977 0.49775 0.61928 0.0
C497 C 0.85379 0.53185 0.64449 0.0
H498 H 0.87248 0.46564 0.56869 0.0
C499 C 0.88 0.56344 0.63295 0.0
H500 H 0.8292 0.4732 0.62677 0.0
C501 C 0.90462 0.55908 0.59895 0.0
C502 C 0.9027 0.5234 0.57607 0.0
H503 H 0.88346 0.59014 0.65163 0.0
H504 H 0.92728 0.58215 0.59252 0.0
C505 C 0.87404 0.49355 0.58558 0.0
C506 C 0.11706 0.95478 0.62987 0.0
C507 C 0.11642 0.98408 0.66051 0.0
H508 H 0.09763 0.93759 0.56915 0.0
C509 C 0.09357 0.01828 0.65379 0.0
H510 H 0.13484 0.92841 0.63409 0.0
C511 C 0.07246 0.02362 0.61682 0.0
C512 C 0.07429 0.99513 0.58553 0.0
H513 H 0.09268 0.04143 0.67692 0.0
H514 H 0.05534 0.05041 0.61248 0.0
C515 C 0.09639 0.96042 0.59252 0.0
C516 C 0.89159 0.51626 0.84627 0.0
C517 C 0.86869 0.48133 0.83605 0.0
H518 H 0.93214 0.54601 0.88961 0.0
C519 C 0.86842 0.44937 0.86373 0.0
H520 H 0.89223 0.54156 0.82579 0.0
C521 C 0.89043 0.45259 0.90101 0.0
C522 C 0.9134 0.48747 0.91084 0.0
H523 H 0.85068 0.42228 0.85697 0.0
H524 H 0.89059 0.42745 0.92149 0.0
C525 C 0.91402 0.51909 0.883 0.0
C526 C 0.08631 0.01013 0.83938 0.0
C527 C 0.11934 0.03768 0.83988 0.0
H528 H 0.03727 0.98352 0.87194 0.0
C529 C 0.12754 0.06081 0.87526 0.0
H530 H 0.07952 0.99159 0.8127 0.0
C531 C 0.10381 0.05532 0.90996 0.0
C532 C 0.07119 0.02712 0.90949 0.0
H533 H 0.15327 0.08174 0.87672 0.0
H534 H 0.11079 0.0732 0.93701 0.0
C535 C 0.06235 0.00521 0.8735 0.0
C536 C 0.64861 0.90415 0.56009 0.0
C537 C 0.6464 0.8654 0.54384 0.0
H538 H 0.62159 0.96162 0.56055 0.0
C539 C 0.61108 0.8525 0.52171 0.0
H540 H 0.67572 0.91491 0.57668 0.0
C541 C 0.57991 0.87887 0.51307 0.0
C542 C 0.58388 0.91869 0.52597 0.0
H543 H 0.60892 0.82274 0.5086 0.0
H544 H 0.55456 0.86912 0.49328 0.0
C545 C 0.61767 0.93076 0.55085 0.0
C546 C 0.63374 0.13224 0.94318 0.0
C547 C 0.66542 0.12617 0.97176 0.0
H548 H 0.57169 0.11844 0.92581 0.0
C549 C 0.65967 0.09858 0.00339 0.0
H550 H 0.63724 0.15398 0.91904 0.0
C551 C 0.62235 0.07861 0.00754 0.0
C552 C 0.5898 0.08624 0.98042 0.0
H553 H 0.68361 0.09377 0.02609 0.0
H554 H 0.61865 0.05822 0.03284 0.0
C555 C 0.59606 0.11257 0.94763 0.0
C556 C 0.33959 0.40501 0.00625 0.0
C557 C 0.33047 0.37653 0.97554 0.0
H558 H 0.38176 0.45003 0.02951 0.0
C559 C 0.35882 0.37032 0.94504 0.0
H560 H 0.31848 0.41004 0.03037 0.0
C561 C 0.39585 0.39213 0.94554 0.0
C562 C 0.40447 0.42099 0.97599 0.0
H563 H 0.35279 0.34794 0.92149 0.0
H564 H 0.41714 0.38731 0.92156 0.0
C565 C 0.37592 0.42747 0.00607 0.0
C566 C 0.8392 0.09932 0.06149 0.0
C567 C 0.84111 0.13809 0.04563 0.0
H568 H 0.86593 0.04162 0.06195 0.0
C569 C 0.87569 0.1505 0.02417 0.0
H570 H 0.81254 0.08872 0.07725 0.0
C571 C 0.90655 0.12414 0.01642 0.0
C572 C 0.90274 0.08442 0.02876 0.0
H573 H 0.87734 0.17966 0.01031 0.0
H574 H 0.9313 0.13378 0.99736 0.0
C575 C 0.86964 0.07245 0.0526 0.0
C576 C 0.9505 0.1765 0.16473 0.0
C577 C 0.9574 0.17502 0.20714 0.0
H578 H 0.95789 0.14642 0.10761 0.0
C579 C 0.96707 0.13859 0.22544 0.0
H580 H 0.94358 0.20447 0.15003 0.0
C581 C 0.97537 0.10559 0.20137 0.0
C582 C 0.97408 0.10863 0.15869 0.0
H583 H 0.97271 0.13697 0.25817 0.0
H584 H 0.98794 0.0796 0.21599 0.0
C585 C 0.95838 0.14312 0.14054 0.0
C586 C 0.0428 0.38106 0.23018 0.0
C587 C 0.05347 0.3448 0.21238 0.0
H588 H 0.01593 0.43765 0.22033 0.0
C589 C 0.05648 0.34247 0.16979 0.0
H590 H 0.03976 0.38332 0.26299 0.0
C591 C 0.04358 0.37414 0.14522 0.0
C592 C 0.02648 0.40773 0.16316 0.0
H593 H 0.0639 0.31459 0.15539 0.0
H594 H 0.04167 0.36982 0.11239 0.0
C595 C 0.02904 0.41219 0.20577 0.0
C596 C 0.02326 0.87612 0.25931 0.0
C597 C 0.98995 0.84969 0.26526 0.0
H598 H 0.06156 0.92317 0.28435 0.0
C599 C 0.96419 0.85659 0.2977 0.0
H600 H 0.04315 0.8721 0.23393 0.0
C601 C 0.9746 0.88662 0.32653 0.0
C602 C 0.01087 0.90966 0.32302 0.0
H603 H 0.93824 0.83679 0.30272 0.0
H604 H 0.95655 0.88904 0.35349 0.0
C605 C 0.03369 0.90567 0.28795 0.0
C606 C 0.05083 0.67697 0.31551 0.0
C607 C 0.04155 0.66979 0.27398 0.0
H608 H 0.0358 0.66225 0.3771 0.0
C609 C 0.01893 0.635 0.26277 0.0
H610 H 0.06746 0.70401 0.32493 0.0
C611 C 0.00087 0.61114 0.29251 0.0
C612 C 0.0052 0.62165 0.33395 0.0
H613 H 0.01078 0.62919 0.23092 0.0
H614 H 0.97911 0.58784 0.28279 0.0
C615 C 0.03277 0.65289 0.34542 0.0
C616 C 0.17416 0.94665 0.15621 0.0
C617 C 0.21289 0.96344 0.15002 0.0
H618 H 0.1109 0.95324 0.14367 0.0
C619 C 0.2194 0.98698 0.11528 0.0
H620 H 0.16858 0.92835 0.18279 0.0
C621 C 0.18653 0.9997 0.09167 0.0
C622 C 0.14709 0.99035 0.10383 0.0
H623 H 0.24903 0.00047 0.11001 0.0
H624 H 0.19182 0.0228 0.06916 0.0
C625 C 0.14104 0.96054 0.13332 0.0
C626 C 0.76365 0.50236 0.12261 0.0
C627 C 0.77252 0.5287 0.15545 0.0
H628 H 0.78753 0.46362 0.0777 0.0
C629 C 0.81241 0.54414 0.16097 0.0
H630 H 0.73317 0.48976 0.11788 0.0
C631 C 0.84371 0.52923 0.13749 0.0
C632 C 0.83537 0.49886 0.10829 0.0
H633 H 0.8202 0.56387 0.18649 0.0
H634 H 0.87486 0.53765 0.14587 0.0
C635 C 0.79476 0.48756 0.0993 0.0
C636 C 0.17061 0.05034 0.33126 0.0
C637 C 0.20912 0.03365 0.3298 0.0
H638 H 0.11445 0.05189 0.36315 0.0
C639 C 0.22337 0.01168 0.36334 0.0
H640 H 0.15906 0.0675 0.30576 0.0
C641 C 0.1987 0.00365 0.39624 0.0
C642 C 0.15847 0.01638 0.39609 0.0
H643 H 0.25312 0.99878 0.36316 0.0
H644 H 0.21025 0.98452 0.42021 0.0
C645 C 0.14524 0.0415 0.36418 0.0
C646 C 0.77142 0.4776 0.36988 0.0
C647 C 0.78026 0.47159 0.32858 0.0
H648 H 0.79217 0.50356 0.42733 0.0
C649 C 0.81961 0.47981 0.31539 0.0
H650 H 0.74076 0.47253 0.3802 0.0
C651 C 0.84858 0.49758 0.342 0.0
C652 C 0.83854 0.50749 0.3821 0.0
H653 H 0.82658 0.47682 0.28338 0.0
H654 H 0.87759 0.50725 0.33005 0.0
C655 C 0.80057 0.49556 0.3967 0.0
C656 C 0.11646 0.22558 0.98146 0.0
C657 C 0.15579 0.21464 0.97137 0.0
H658 H 0.06027 0.20676 0.00828 0.0
C659 C 0.16564 0.17441 0.97213 0.0
H660 H 0.10868 0.25669 0.98176 0.0
C661 C 0.13807 0.14606 0.98705 0.0
C662 C 0.10037 0.15761 0.00142 0.0
H663 H 0.19616 0.16557 0.96569 0.0
H664 H 0.14795 0.11581 0.9915 0.0
C665 C 0.08877 0.19713 0.99657 0.0
C666 C 0.12659 0.77141 0.48997 0.0
C667 C 0.15459 0.78098 0.52208 0.0
H668 H 0.08183 0.79279 0.44749 0.0
C669 C 0.15139 0.81763 0.54252 0.0
H670 H 0.1281 0.74325 0.47376 0.0
C671 C 0.12417 0.84609 0.52751 0.0
C672 C 0.09976 0.83807 0.49215 0.0
H673 H 0.1727 0.82592 0.56714 0.0
H674 H 0.12592 0.87588 0.54047 0.0
C675 C 0.09953 0.79958 0.47522 0.0
C676 C 0.86264 0.73508 0.52329 0.0
C677 C 0.82756 0.71788 0.54018 0.0
H678 H 0.91768 0.72506 0.49228 0.0
C679 C 0.82576 0.67649 0.54689 0.0
H680 H 0.86455 0.76688 0.51737 0.0
C681 C 0.85676 0.65237 0.53285 0.0
C682 C 0.88943 0.6694 0.51143 0.0
H683 H 0.79871 0.66244 0.55911 0.0
H684 H 0.85267 0.62022 0.53443 0.0
C685 C 0.89319 0.71114 0.50903 0.0
C686 C 0.32334 0.83069 0.48979 0.0
C687 C 0.3339 0.79285 0.47635 0.0
H688 H 0.34359 0.88501 0.51912 0.0
C689 C 0.37507 0.78294 0.47638 0.0
H690 H 0.29171 0.83838 0.49132 0.0
C691 C 0.40499 0.80949 0.4931 0.0
C692 C 0.39358 0.84593 0.50964 0.0
H693 H 0.38356 0.7533 0.46732 0.0
H694 H 0.43617 0.80039 0.4959 0.0
C695 C 0.35295 0.85706 0.50614 0.0
C696 C 0.51168 0.64659 0.7119 0.0
C697 C 0.48904 0.6803 0.70224 0.0
H698 H 0.54089 0.59515 0.68912 0.0
C699 C 0.47344 0.68501 0.66231 0.0
H700 H 0.52411 0.64255 0.74258 0.0
C701 C 0.48362 0.65814 0.63164 0.0
C702 C 0.50875 0.62615 0.64101 0.0
H703 H 0.45641 0.71108 0.65418 0.0
H704 H 0.47389 0.6636 0.60032 0.0
C705 C 0.52133 0.61958 0.6815 0.0
C706 C 0.55771 0.88681 0.727 0.0
C707 C 0.56509 0.84861 0.71175 0.0
H708 H 0.53168 0.94342 0.7145 0.0
C709 C 0.56291 0.84222 0.66931 0.0
H710 H 0.55872 0.89227 0.75963 0.0
C711 C 0.54862 0.87207 0.64316 0.0
C712 C 0.53504 0.908 0.65944 0.0
H713 H 0.56749 0.81274 0.6569 0.0
H714 H 0.54284 0.8648 0.61118 0.0
C715 C 0.54225 0.91615 0.70114 0.0
C716 C 0.52488 0.37426 0.75804 0.0
C717 C 0.49068 0.34891 0.76378 0.0
H718 H 0.56451 0.42032 0.78299 0.0
C719 C 0.46524 0.35661 0.79633 0.0
H720 H 0.54468 0.36964 0.73269 0.0
C721 C 0.47652 0.3865 0.82514 0.0
C722 C 0.51331 0.40869 0.82153 0.0
H723 H 0.43868 0.33761 0.80133 0.0
H724 H 0.45852 0.38961 0.85205 0.0
C725 C 0.53615 0.40363 0.78663 0.0
C726 C 0.51102 0.13262 0.75659 0.0
C727 C 0.53484 0.16616 0.76939 0.0
H728 H 0.47009 0.08539 0.77431 0.0
C729 C 0.54419 0.17111 0.81127 0.0
H730 H 0.50273 0.12849 0.72452 0.0
C731 C 0.52559 0.14593 0.84003 0.0
C732 C 0.49726 0.11581 0.82714 0.0
H733 H 0.56167 0.19719 0.822 0.0
H734 H 0.52908 0.15352 0.87216 0.0
C735 C 0.49236 0.10776 0.78516 0.0
C736 C 0.71984 0.47832 0.62195 0.0
C737 C 0.70414 0.46653 0.65961 0.0
H738 H 0.70877 0.5095 0.56596 0.0
C739 C 0.66219 0.46782 0.66522 0.0
H740 H 0.75226 0.47838 0.61736 0.0
C741 C 0.63711 0.48527 0.63545 0.0
C742 C 0.65408 0.50218 0.60039 0.0
H743 H 0.64967 0.45988 0.69443 0.0
H744 H 0.60559 0.48981 0.64215 0.0
C745 C 0.69509 0.49656 0.59275 0.0
C746 C 0.32159 0.04568 0.67121 0.0
C747 C 0.28156 0.03046 0.66648 0.0
H748 H 0.38346 0.03941 0.65391 0.0
C749 C 0.27163 0.00501 0.63313 0.0
H750 H 0.33015 0.06493 0.6969 0.0
C751 C 0.30188 0.99081 0.60838 0.0
C752 C 0.34271 0.00175 0.61643 0.0
H753 H 0.24095 0.99277 0.62881 0.0
H754 H 0.2939 0.96749 0.58628 0.0
C755 C 0.35206 0.03127 0.64632 0.0
C756 C 0.73127 0.51822 0.87074 0.0
C757 C 0.71743 0.53908 0.83624 0.0
H758 H 0.71598 0.48977 0.92654 0.0
C759 C 0.67802 0.55353 0.83523 0.0
H760 H 0.76161 0.50658 0.87198 0.0
C761 C 0.65132 0.54311 0.86633 0.0
C762 C 0.66398 0.51855 0.89881 0.0
H763 H 0.66666 0.56925 0.80864 0.0
H764 H 0.61995 0.55092 0.86265 0.0
C765 C 0.70501 0.5085 0.90196 0.0
C766 C 0.25842 0.99327 0.88021 0.0
C767 C 0.26887 0.96918 0.84709 0.0
H768 H 0.28054 0.03234 0.9283 0.0
C769 C 0.30865 0.95591 0.84511 0.0
H770 H 0.2279 0.00419 0.88204 0.0
C771 C 0.33877 0.97154 0.87236 0.0
C772 C 0.3292 0.00078 0.90118 0.0
H773 H 0.31751 0.93797 0.81946 0.0
H774 H 0.3702 0.96511 0.86706 0.0
C775 C 0.28849 0.00937 0.90682 0.0
C776 C 0.61364 0.71833 0.5025 0.0
C777 C 0.64245 0.71942 0.47156 0.0
H778 H 0.56479 0.68551 0.52971 0.0
C779 C 0.63747 0.69276 0.43856 0.0
H780 H 0.61611 0.73927 0.52783 0.0
C781 C 0.60771 0.66201 0.43955 0.0
C782 C 0.58241 0.65785 0.47333 0.0
H783 H 0.65883 0.6933 0.41404 0.0
H784 H 0.6076 0.63889 0.41631 0.0
C785 C 0.58355 0.68804 0.50315 0.0
C786 C 0.65489 0.32092 0.04294 0.0
C787 C 0.65599 0.28318 0.02431 0.0
H788 H 0.63117 0.37971 0.03905 0.0
C789 C 0.62617 0.27286 0.99413 0.0
H790 H 0.67777 0.32988 0.06587 0.0
C791 C 0.59909 0.30107 0.97934 0.0
C792 C 0.60119 0.34038 0.99424 0.0
H793 H 0.62624 0.24393 0.9792 0.0
H794 H 0.57986 0.29342 0.95286 0.0
C795 C 0.62772 0.34937 0.02786 0.0
C796 C 0.36789 0.24001 0.01211 0.0
C797 C 0.33536 0.22519 0.03497 0.0
H798 H 0.41833 0.22588 0.97568 0.0
C799 C 0.33464 0.18493 0.04671 0.0
H800 H 0.36897 0.27093 0.00248 0.0
C801 C 0.3635 0.15899 0.03159 0.0
C802 C 0.39284 0.17315 0.0043 0.0
H803 H 0.30951 0.1727 0.06376 0.0
H804 H 0.35986 0.12728 0.03732 0.0
C805 C 0.39626 0.21426 0.99683 0.0
C806 C 0.87432 0.27087 0.01381 0.0
C807 C 0.84597 0.28154 0.98314 0.0
H808 H 0.92347 0.29018 0.05376 0.0
C809 C 0.85152 0.31779 0.96267 0.0
H810 H 0.87028 0.24341 0.03063 0.0
C811 C 0.88219 0.345 0.97646 0.0
C812 C 0.90728 0.3359 0.01052 0.0
H813 H 0.82972 0.32684 0.93938 0.0
H814 H 0.88289 0.37474 0.96395 0.0
C815 C 0.90485 0.29768 0.02722 0.0
loop_
_geom_bond_atom_site_label_1
_geom_bond_atom_site_label_2
_geom_bond_distance
_geom_bond_site_symmetry_2
_ccdc_geom_bond_type
C0 O2 1.247 . S
C0 O4 1.258 . S
C1 O8 1.247 1_455 S
C1 O9 1.258 . S
O2 C0 1.247 . S
O2 Zn3 2.028 . S
Zn3 O2 2.028 . S
Zn3 O7 2.035 . S
Zn3 O9 2.035 . S
Zn3 O10 2.028 . S
O4 C0 1.258 . S
O4 Zn5 2.035 1_455 S
Zn5 O4 2.035 1_655 S
Zn5 O6 2.028 . S
Zn5 O8 2.028 . S
Zn5 O11 2.035 1_655 S
O6 Zn5 2.028 . S
O6 C12 1.247 1_655 S
O7 Zn3 2.035 . S
O7 C12 1.258 . S
O8 C1 1.247 1_655 S
O8 Zn5 2.028 . S
O9 C1 1.258 . S
O9 Zn3 2.035 . S
O10 Zn3 2.028 . S
O10 C13 1.247 . S
O11 Zn5 2.035 1_455 S
O11 C13 1.258 . S
C12 O6 1.247 1_455 S
C12 O7 1.258 . S
C13 O10 1.247 . S
C13 O11 1.258 . S
C14 O16 1.247 . S
C14 O18 1.258 1_455 S
C15 O22 1.247 1_455 S
C15 O23 1.258 . S
O16 C14 1.247 . S
O16 Zn17 2.028 . S
Zn17 O16 2.028 . S
Zn17 O21 2.035 . S
Zn17 O23 2.035 . S
Zn17 O24 2.028 . S
O18 C14 1.258 1_655 S
O18 Zn19 2.035 . S
Zn19 O18 2.035 . S
Zn19 O20 2.028 . S
Zn19 O22 2.028 . S
Zn19 O25 2.035 . S
O20 Zn19 2.028 . S
O20 C26 1.247 1_655 S
O21 Zn17 2.035 . S
O21 C26 1.258 . S
O22 C15 1.247 1_655 S
O22 Zn19 2.028 . S
O23 C15 1.258 . S
O23 Zn17 2.035 . S
O24 Zn17 2.028 . S
O24 C27 1.247 . S
O25 Zn19 2.035 . S
O25 C27 1.258 1_655 S
C26 O20 1.247 1_455 S
C26 O21 1.258 . S
C27 O24 1.247 . S
C27 O25 1.258 1_455 S
C28 O30 1.247 1_545 S
C28 O32 1.258 . S
C29 O36 1.247 1_565 S
C29 O37 1.258 . S
O30 C28 1.247 1_565 S
O30 Zn31 2.028 . S
Zn31 O30 2.028 . S
Zn31 O35 2.035 . S
Zn31 O37 2.035 . S
Zn31 O38 2.028 . S
O32 C28 1.258 . S
O32 Zn33 2.035 . S
Zn33 O32 2.035 . S
Zn33 O34 2.028 . S
Zn33 O36 2.028 . S
Zn33 O39 2.035 . S
O34 Zn33 2.028 . S
O34 C40 1.247 1_545 S
O35 Zn31 2.035 . S
O35 C40 1.258 . S
O36 C29 1.247 1_545 S
O36 Zn33 2.028 . S
O37 C29 1.258 . S
O37 Zn31 2.035 . S
O38 Zn31 2.028 . S
O38 C41 1.247 1_565 S
O39 Zn33 2.035 . S
O39 C41 1.258 . S
C40 O34 1.247 1_565 S
C40 O35 1.258 . S
C41 O38 1.247 1_545 S
C41 O39 1.258 . S
C42 O44 1.247 . S
C42 O46 1.258 . S
C43 O50 1.247 . S
C43 O51 1.258 . S
O44 C42 1.247 . S
O44 Zn45 2.028 . S
Zn45 O44 2.028 . S
Zn45 O49 2.035 . S
Zn45 O51 2.035 . S
Zn45 O52 2.028 . S
O46 C42 1.258 . S
O46 Zn47 2.035 . S
Zn47 O46 2.035 . S
Zn47 O48 2.028 . S
Zn47 O50 2.028 . S
Zn47 O53 2.035 . S
O48 Zn47 2.028 . S
O48 C54 1.247 . S
O49 Zn45 2.035 . S
O49 C54 1.258 . S
O50 C43 1.247 . S
O50 Zn47 2.028 . S
O51 C43 1.258 . S
O51 Zn45 2.035 . S
O52 Zn45 2.028 . S
O52 C55 1.247 . S
O53 Zn47 2.035 . S
O53 C55 1.258 . S
C54 O48 1.247 . S
C54 O49 1.258 . S
C55 O52 1.247 . S
C55 O53 1.258 . S
C56 O58 1.232 1_554 S
C56 O60 1.258 . S
C57 O64 1.247 . S
C57 O65 1.258 1_554 S
O58 C56 1.232 1_556 S
O58 Zn59 2.033 . S
Zn59 O58 2.033 . S
Zn59 O63 2.035 . S
Zn59 O65 2.035 . S
Zn59 O66 2.030 . S
O60 C56 1.258 . S
O60 Zn61 2.035 . S
Zn61 O60 2.035 . S
Zn61 O62 2.028 . S
Zn61 O64 2.028 . S
Zn61 O67 2.035 . S
O62 Zn61 2.028 . S
O62 C68 1.247 . S
O63 Zn59 2.035 . S
O63 C68 1.258 1_556 S
O64 C57 1.247 . S
O64 Zn61 2.028 . S
O65 C57 1.258 1_556 S
O65 Zn59 2.035 . S
O66 Zn59 2.030 . S
O66 C69 1.240 1_556 S
O67 Zn61 2.035 . S
O67 C69 1.258 . S
C68 O62 1.247 . S
C68 O63 1.258 1_554 S
C69 O66 1.240 1_554 S
C69 O67 1.258 . S
C70 O72 1.247 . S
C70 O74 1.258 . S
C71 O78 1.247 . S
C71 O79 1.258 . S
O72 C70 1.247 . S
O72 Zn73 2.028 . S
Zn73 O72 2.028 . S
Zn73 O77 2.035 . S
Zn73 O79 2.035 . S
Zn73 O80 2.028 . S
O74 C70 1.258 . S
O74 Zn75 2.035 . S
Zn75 O74 2.035 . S
Zn75 O76 2.028 . S
Zn75 O78 2.028 . S
Zn75 O81 2.035 . S
O76 Zn75 2.028 . S
O76 C82 1.247 . S
O77 Zn73 2.035 . S
O77 C82 1.258 . S
O78 C71 1.247 . S
O78 Zn75 2.028 . S
O79 C71 1.258 . S
O79 Zn73 2.035 . S
O80 Zn73 2.028 . S
O80 C83 1.247 . S
O81 Zn75 2.035 . S
O81 C83 1.258 . S
C82 O76 1.247 . S
C82 O77 1.258 . S
C83 O80 1.247 . S
C83 O81 1.258 . S
C84 O86 1.247 . S
C84 O88 1.258 . S
C85 O92 1.247 . S
C85 O93 1.258 . S
O86 C84 1.247 . S
O86 Zn87 2.028 . S
Zn87 O86 2.028 . S
Zn87 O91 2.035 . S
Zn87 O93 2.035 . S
Zn87 O94 2.028 . S
O88 C84 1.258 . S
O88 Zn89 2.035 . S
Zn89 O88 2.035 . S
Zn89 O90 2.028 . S
Zn89 O92 2.028 . S
Zn89 O95 2.035 . S
O90 Zn89 2.028 . S
O90 C96 1.247 . S
O91 Zn87 2.035 . S
O91 C96 1.258 . S
O92 C85 1.247 . S
O92 Zn89 2.028 . S
O93 C85 1.258 . S
O93 Zn87 2.035 . S
O94 Zn87 2.028 . S
O94 C97 1.247 . S
O95 Zn89 2.035 . S
O95 C97 1.258 . S
C96 O90 1.247 . S
C96 O91 1.258 . S
C97 O94 1.247 . S
C97 O95 1.258 . S
C98 O100 1.247 . S
C98 O102 1.258 . S
C99 O106 1.247 . S
C99 O107 1.258 . S
O100 C98 1.247 . S
O100 Zn101 2.028 . S
Zn101 O100 2.028 . S
Zn101 O105 2.035 . S
Zn101 O107 2.035 . S
Zn101 O108 2.028 . S
O102 C98 1.258 . S
O102 Zn103 2.035 . S
Zn103 O102 2.035 . S
Zn103 O104 2.028 . S
Zn103 O106 2.028 . S
Zn103 O109 2.035 . S
O104 Zn103 2.028 . S
O104 C110 1.247 . S
O105 Zn101 2.035 . S
O105 C110 1.258 . S
O106 C99 1.247 . S
O106 Zn103 2.028 . S
O107 C99 1.258 . S
O107 Zn101 2.035 . S
O108 Zn101 2.028 . S
O108 C111 1.247 . S
O109 Zn103 2.035 . S
O109 C111 1.258 . S
C110 O104 1.247 . S
C110 O105 1.258 . S
C111 O108 1.247 . S
C111 O109 1.258 . S
C112 O114 1.247 . S
C112 O116 1.258 . S
C113 O120 1.247 . S
C113 O121 1.258 . S
O114 C112 1.247 . S
O114 Zn115 2.028 . S
Zn115 O114 2.028 . S
Zn115 O119 2.035 . S
Zn115 O121 2.035 . S
Zn115 O122 2.028 . S
O116 C112 1.258 . S
O116 Zn117 2.035 . S
Zn117 O116 2.035 . S
Zn117 O118 2.028 . S
Zn117 O120 2.028 . S
Zn117 O123 2.035 . S
O118 Zn117 2.028 . S
O118 C124 1.247 . S
O119 Zn115 2.035 . S
O119 C124 1.258 . S
O120 C113 1.247 . S
O120 Zn117 2.028 . S
O121 C113 1.258 . S
O121 Zn115 2.035 . S
O122 Zn115 2.028 . S
O122 C125 1.247 . S
O123 Zn117 2.035 . S
O123 C125 1.258 . S
C124 O118 1.247 . S
C124 O119 1.258 . S
C125 O122 1.247 . S
C125 O123 1.258 . S
C126 O128 1.247 . S
C126 O130 1.258 . S
C127 O134 1.247 . S
C127 O135 1.258 . S
O128 C126 1.247 . S
O128 Zn129 2.028 . S
Zn129 O128 2.028 . S
Zn129 O133 2.035 . S
Zn129 O135 2.035 . S
Zn129 O136 2.028 . S
O130 C126 1.258 . S
O130 Zn131 2.035 . S
Zn131 O130 2.035 . S
Zn131 O132 2.028 . S
Zn131 O134 2.028 . S
Zn131 O137 2.035 . S
O132 Zn131 2.028 . S
O132 C138 1.247 . S
O133 Zn129 2.035 . S
O133 C138 1.258 . S
O134 C127 1.247 . S
O134 Zn131 2.028 . S
O135 C127 1.258 . S
O135 Zn129 2.035 . S
O136 Zn129 2.028 . S
O136 C139 1.247 . S
O137 Zn131 2.035 . S
O137 C139 1.258 . S
C138 O132 1.247 . S
C138 O133 1.258 . S
C139 O136 1.247 . S
C139 O137 1.258 . S
C140 O142 1.247 . S
C140 O144 1.258 1_565 S
C141 O148 1.247 . S
C141 O149 1.258 1_545 S
O142 C140 1.247 . S
O142 Zn143 2.028 . S
Zn143 O142 2.028 . S
Zn143 O147 2.035 . S
Zn143 O149 2.035 . S
Zn143 O150 2.028 . S
O144 C140 1.258 1_545 S
O144 Zn145 2.035 . S
Zn145 O144 2.035 . S
Zn145 O146 2.028 . S
Zn145 O148 2.028 . S
Zn145 O151 2.035 . S
O146 Zn145 2.028 . S
O146 C152 1.247 . S
O147 Zn143 2.035 . S
O147 C152 1.258 1_565 S
O148 C141 1.247 . S
O148 Zn145 2.028 . S
O149 C141 1.258 1_565 S
O149 Zn143 2.035 . S
O150 Zn143 2.028 . S
O150 C153 1.247 . S
O151 Zn145 2.035 . S
O151 C153 1.258 1_545 S
C152 O146 1.247 . S
C152 O147 1.258 1_545 S
C153 O150 1.247 . S
C153 O151 1.258 1_565 S
C154 O156 1.247 . S
C154 O158 1.258 1_554 S
C155 O162 1.247 . S
C155 O163 1.258 . S
O156 C154 1.247 . S
O156 Zn157 2.028 . S
Zn157 O156 2.028 . S
Zn157 O161 2.035 . S
Zn157 O163 2.035 . S
Zn157 O164 2.028 . S
O158 C154 1.258 1_556 S
O158 Zn159 2.035 . S
Zn159 O158 2.035 . S
Zn159 O160 2.028 1_556 S
Zn159 O162 2.028 1_556 S
Zn159 O165 2.035 . S
O160 Zn159 2.028 1_554 S
O160 C166 1.247 . S
O161 Zn157 2.035 . S
O161 C166 1.258 . S
O162 C155 1.247 . S
O162 Zn159 2.028 1_554 S
O163 C155 1.258 . S
O163 Zn157 2.035 . S
O164 Zn157 2.028 . S
O164 C167 1.247 . S
O165 Zn159 2.035 . S
O165 C167 1.258 1_556 S
C166 O160 1.247 . S
C166 O161 1.258 . S
C167 O164 1.247 . S
C167 O165 1.258 1_554 S
O168 Mg169 1.990 . S
O168 C182 1.253 . S
Mg169 O168 1.990 . S
Mg169 O172 2.180 . S
Mg169 O173 2.117 . S
Mg169 O187 2.030 . S
O170 Mg171 2.072 . S
O170 C182 1.260 . S
Mg171 O170 2.072 . S
Mg171 O172 2.099 . S
Mg171 O174 2.079 1_554 S
Mg171 O175 2.072 . S
Mg171 O177 2.099 1_455 S
Mg171 O188 2.079 . S
O172 Mg169 2.180 . S
O172 Mg171 2.099 . S
O172 C183 1.279 . S
O173 Mg169 2.117 . S
O173 C183 1.250 . S
O174 Mg171 2.079 1_556 S
O174 C184 1.264 . S
O175 Mg171 2.072 . S
O175 C185 1.274 1_545 S
Mg176 O177 2.180 1_556 S
Mg176 O178 2.030 1_645 S
Mg176 O179 1.990 1_546 S
Mg176 O180 2.117 . S
O177 Mg171 2.099 1_655 S
O177 Mg176 2.180 1_554 S
O177 C186 1.279 . S
O178 Mg176 2.030 1_465 S
O178 C184 1.248 1_565 S
O179 Mg176 1.990 1_564 S
O179 C185 1.237 1_655 S
O180 Mg176 2.117 . S
O180 C186 1.250 1_556 S
C181 O187 1.248 . S
C181 O188 1.264 . S
C182 O168 1.253 . S
C182 O170 1.260 . S
C183 O172 1.279 . S
C183 O173 1.250 . S
C184 O174 1.264 . S
C184 O178 1.248 1_545 S
C185 O175 1.274 1_565 S
C185 O179 1.237 1_455 S
C186 O177 1.279 . S
C186 O180 1.250 1_554 S
O187 Mg169 2.030 . S
O187 C181 1.248 . S
O188 Mg171 2.079 . S
O188 C181 1.264 . S
O189 Mg190 1.990 . S
O189 C203 1.253 . S
Mg190 O189 1.990 . S
Mg190 O193 2.180 . S
Mg190 O194 2.117 . S
Mg190 O208 2.030 . S
O191 Mg192 2.072 . S
O191 C203 1.260 . S
Mg192 O191 2.072 . S
Mg192 O193 2.099 . S
Mg192 O195 2.079 1_554 S
Mg192 O196 2.072 . S
Mg192 O198 2.100 . S
Mg192 O209 2.079 . S
O193 Mg190 2.180 . S
O193 Mg192 2.099 . S
O193 C204 1.279 . S
O194 Mg190 2.117 . S
O194 C204 1.250 . S
O195 Mg192 2.079 1_556 S
O195 C205 1.264 . S
O196 Mg192 2.072 . S
O196 C206 1.260 . S
Mg197 O198 2.180 1_456 S
Mg197 O199 2.030 1_455 S
Mg197 O200 1.990 1_556 S
Mg197 O201 2.122 . S
O198 Mg192 2.100 . S
O198 Mg197 2.180 1_654 S
O198 C207 1.278 1_655 S
O199 Mg197 2.030 1_655 S
O199 C205 1.248 . S
O200 Mg197 1.990 1_554 S
O200 C206 1.253 1_455 S
O201 Mg197 2.122 . S
O201 C207 1.245 1_556 S
C202 O208 1.248 . S
C202 O209 1.264 . S
C203 O189 1.253 . S
C203 O191 1.260 . S
C204 O193 1.279 . S
C204 O194 1.250 . S
C205 O195 1.264 . S
C205 O199 1.248 . S
C206 O196 1.260 . S
C206 O200 1.253 1_655 S
C207 O198 1.278 1_455 S
C207 O201 1.245 1_554 S
O208 Mg190 2.030 . S
O208 C202 1.248 . S
O209 Mg192 2.079 . S
O209 C202 1.264 . S
O210 Mg211 1.990 . S
O210 C224 1.253 . S
Mg211 O210 1.990 . S
Mg211 O214 2.180 . S
Mg211 O215 2.117 . S
Mg211 O229 2.030 . S
O212 Mg213 2.072 . S
O212 C224 1.260 . S
Mg213 O212 2.072 . S
Mg213 O214 2.099 . S
Mg213 O216 2.079 1_455 S
Mg213 O217 2.072 . S
Mg213 O219 2.099 1_565 S
Mg213 O230 2.079 . S
O214 Mg211 2.180 . S
O214 Mg213 2.099 . S
O214 C225 1.279 . S
O215 Mg211 2.117 . S
O215 C225 1.250 . S
O216 Mg213 2.079 1_655 S
O216 C226 1.264 . S
O217 Mg213 2.072 . S
O217 C227 1.260 . S
Mg218 O219 2.180 1_655 S
Mg218 O220 2.030 1_545 S
Mg218 O221 1.990 1_655 S
Mg218 O222 2.117 1_655 S
O219 Mg213 2.099 1_545 S
O219 Mg218 2.180 1_455 S
O219 C228 1.279 . S
O220 Mg218 2.030 1_565 S
O220 C226 1.248 . S
O221 Mg218 1.990 1_455 S
O221 C227 1.253 1_545 S
O222 Mg218 2.117 1_455 S
O222 C228 1.250 . S
C223 O229 1.248 . S
C223 O230 1.264 . S
C224 O210 1.253 . S
C224 O212 1.260 . S
C225 O214 1.279 . S
C225 O215 1.250 . S
C226 O216 1.264 . S
C226 O220 1.248 . S
C227 O217 1.260 . S
C227 O221 1.253 1_565 S
C228 O219 1.279 . S
C228 O222 1.250 . S
O229 Mg211 2.030 . S
O229 C223 1.248 . S
O230 Mg213 2.079 . S
O230 C223 1.264 . S
O231 Mg232 1.990 . S
O231 C245 1.253 . S
Mg232 O231 1.990 . S
Mg232 O235 2.180 . S
Mg232 O236 2.117 . S
Mg232 O250 2.030 . S
O233 Mg234 2.072 . S
O233 C245 1.260 . S
Mg234 O233 2.072 . S
Mg234 O235 2.099 . S
Mg234 O237 2.079 . S
Mg234 O238 2.072 . S
Mg234 O240 2.099 . S
Mg234 O251 2.079 . S
O235 Mg232 2.180 . S
O235 Mg234 2.099 . S
O235 C246 1.279 . S
O236 Mg232 2.117 . S
O236 C246 1.250 . S
O237 Mg234 2.079 . S
O237 C247 1.264 . S
O238 Mg234 2.072 . S
O238 C248 1.260 1_655 S
Mg239 O240 2.180 . S
Mg239 O241 2.030 1_655 S
Mg239 O242 1.990 1_655 S
Mg239 O243 2.117 . S
O240 Mg234 2.099 . S
O240 Mg239 2.180 . S
O240 C249 1.279 . S
O241 Mg239 2.030 1_455 S
O241 C247 1.248 1_455 S
O242 Mg239 1.990 1_455 S
O242 C248 1.253 . S
O243 Mg239 2.117 . S
O243 C249 1.250 . S
C244 O250 1.248 . S
C244 O251 1.264 . S
C245 O231 1.253 . S
C245 O233 1.260 . S
C246 O235 1.279 . S
C246 O236 1.250 . S
C247 O237 1.264 . S
C247 O241 1.248 1_655 S
C248 O238 1.260 1_455 S
C248 O242 1.253 . S
C249 O240 1.279 . S
C249 O243 1.250 . S
O250 Mg232 2.030 . S
O250 C244 1.248 . S
O251 Mg234 2.079 . S
O251 C244 1.264 . S
O252 Mg253 1.990 . S
O252 C266 1.253 . S
Mg253 O252 1.990 . S
Mg253 O256 2.180 . S
Mg253 O257 2.117 . S
Mg253 O271 2.030 . S
O254 Mg255 2.072 . S
O254 C266 1.260 . S
Mg255 O254 2.072 . S
Mg255 O256 2.099 . S
Mg255 O258 2.079 . S
Mg255 O259 2.072 1_565 S
Mg255 O261 2.099 . S
Mg255 O272 2.079 . S
O256 Mg253 2.180 . S
O256 Mg255 2.099 . S
O256 C267 1.279 . S
O257 Mg253 2.117 . S
O257 C267 1.250 . S
O258 Mg255 2.079 . S
O258 C268 1.264 1_565 S
O259 Mg255 2.072 1_545 S
O259 C269 1.260 . S
Mg260 O261 2.180 1_545 S
Mg260 O262 2.030 . S
Mg260 O263 1.990 . S
Mg260 O264 2.117 1_545 S
O261 Mg255 2.099 . S
O261 Mg260 2.180 1_565 S
O261 C270 1.279 . S
O262 Mg260 2.030 . S
O262 C268 1.248 . S
O263 Mg260 1.990 . S
O263 C269 1.253 . S
O264 Mg260 2.117 1_565 S
O264 C270 1.250 . S
C265 O271 1.248 . S
C265 O272 1.264 . S
C266 O252 1.253 . S
C266 O254 1.260 . S
C267 O256 1.279 . S
C267 O257 1.250 . S
C268 O258 1.264 1_545 S
C268 O262 1.248 . S
C269 O259 1.260 . S
C269 O263 1.253 . S
C270 O261 1.279 . S
C270 O264 1.250 . S
O271 Mg253 2.030 . S
O271 C265 1.248 . S
O272 Mg255 2.079 . S
O272 C265 1.264 . S
O273 Mg274 1.990 . S
O273 C287 1.253 . S
Mg274 O273 1.990 . S
Mg274 O277 2.180 . S
Mg274 O278 2.117 . S
Mg274 O292 2.030 . S
O275 Mg276 2.072 . S
O275 C287 1.260 . S
Mg276 O275 2.072 . S
Mg276 O277 2.099 . S
Mg276 O279 2.079 . S
Mg276 O280 2.072 . S
Mg276 O282 2.099 . S
Mg276 O293 2.079 . S
O277 Mg274 2.180 . S
O277 Mg276 2.099 . S
O277 C288 1.279 . S
O278 Mg274 2.117 . S
O278 C288 1.250 . S
O279 Mg276 2.079 . S
O279 C289 1.264 . S
O280 Mg276 2.072 . S
O280 C290 1.260 . S
Mg281 O282 2.180 . S
Mg281 O283 2.030 . S
Mg281 O284 1.990 . S
Mg281 O285 2.117 . S
O282 Mg276 2.099 . S
O282 Mg281 2.180 . S
O282 C291 1.279 . S
O283 Mg281 2.030 . S
O283 C289 1.248 . S
O284 Mg281 1.990 . S
O284 C290 1.253 . S
O285 Mg281 2.117 . S
O285 C291 1.250 . S
C286 O292 1.248 . S
C286 O293 1.264 . S
C287 O273 1.253 . S
C287 O275 1.260 . S
C288 O277 1.279 . S
C288 O278 1.250 . S
C289 O279 1.264 . S
C289 O283 1.248 . S
C290 O280 1.260 . S
C290 O284 1.253 . S
C291 O282 1.279 . S
C291 O285 1.250 . S
O292 Mg274 2.030 . S
O292 C286 1.248 . S
O293 Mg276 2.079 . S
O293 C286 1.264 . S
O294 Mg295 1.990 . S
O294 C308 1.253 . S
Mg295 O294 1.990 . S
Mg295 O298 2.180 . S
Mg295 O299 2.117 . S
Mg295 O313 2.030 . S
O296 Mg297 2.072 . S
O296 C308 1.260 . S
Mg297 O296 2.072 . S
Mg297 O298 2.099 . S
Mg297 O300 2.079 . S
Mg297 O301 2.072 . S
Mg297 O303 2.099 . S
Mg297 O314 2.079 . S
O298 Mg295 2.180 . S
O298 Mg297 2.099 . S
O298 C309 1.279 . S
O299 Mg295 2.117 . S
O299 C309 1.250 . S
O300 Mg297 2.079 . S
O300 C310 1.264 . S
O301 Mg297 2.072 . S
O301 C311 1.260 1_556 S
Mg302 O303 2.180 . S
Mg302 O304 2.030 1_556 S
Mg302 O305 1.990 1_556 S
Mg302 O306 2.117 . S
O303 Mg297 2.099 . S
O303 Mg302 2.180 . S
O303 C312 1.279 . S
O304 Mg302 2.030 1_554 S
O304 C310 1.248 1_554 S
O305 Mg302 1.990 1_554 S
O305 C311 1.253 . S
O306 Mg302 2.117 . S
O306 C312 1.250 . S
C307 O313 1.248 . S
C307 O314 1.264 . S
C308 O294 1.253 . S
C308 O296 1.260 . S
C309 O298 1.279 . S
C309 O299 1.250 . S
C310 O300 1.264 . S
C310 O304 1.248 1_556 S
C311 O301 1.260 1_554 S
C311 O305 1.253 . S
C312 O303 1.279 . S
C312 O306 1.250 . S
O313 Mg295 2.030 . S
O313 C307 1.248 . S
O314 Mg297 2.079 . S
O314 C307 1.264 . S
O315 Mg316 1.990 . S
O315 C329 1.253 . S
Mg316 O315 1.990 . S
Mg316 O319 2.180 . S
Mg316 O320 2.117 . S
Mg316 O334 2.030 . S
O317 Mg318 2.072 . S
O317 C329 1.260 . S
Mg318 O317 2.072 . S
Mg318 O319 2.099 . S
Mg318 O321 2.079 . S
Mg318 O322 2.072 . S
Mg318 O324 2.099 . S
Mg318 O335 2.079 . S
O319 Mg316 2.180 . S
O319 Mg318 2.099 . S
O319 C330 1.279 . S
O320 Mg316 2.117 . S
O320 C330 1.250 . S
O321 Mg318 2.079 . S
O321 C331 1.264 1_545 S
O322 Mg318 2.072 . S
O322 C332 1.260 . S
Mg323 O324 2.180 1_564 S
Mg323 O325 2.030 1_554 S
Mg323 O326 1.990 1_565 S
Mg323 O327 2.117 1_565 S
O324 Mg318 2.099 . S
O324 Mg323 2.180 1_546 S
O324 C333 1.279 1_556 S
O325 Mg323 2.030 1_556 S
O325 C331 1.248 . S
O326 Mg323 1.990 1_545 S
O326 C332 1.253 1_554 S
O327 Mg323 2.117 1_545 S
O327 C333 1.250 . S
C328 O334 1.248 . S
C328 O335 1.264 . S
C329 O315 1.253 . S
C329 O317 1.260 . S
C330 O319 1.279 . S
C330 O320 1.250 . S
C331 O321 1.264 1_565 S
C331 O325 1.248 . S
C332 O322 1.260 . S
C332 O326 1.253 1_556 S
C333 O324 1.279 1_554 S
C333 O327 1.250 . S
O334 Mg316 2.030 . S
O334 C328 1.248 . S
O335 Mg318 2.079 . S
O335 C328 1.264 . S
C336 C337 1.387 . S
C336 H340 0.950 1_455 S
C336 C345 1.390 . S
C337 C336 1.387 . S
C337 C339 1.387 . S
H338 C345 0.950 1_655 S
C339 C337 1.387 . S
C339 C341 1.390 . S
C339 H343 0.950 . S
H340 C336 0.950 1_655 S
C341 C339 1.390 . S
C341 C342 1.387 . S
C341 H344 0.950 . S
C342 C341 1.387 . S
C342 C345 1.387 . S
H343 C339 0.950 . S
H344 C341 0.950 . S
C345 C336 1.390 . S
C345 H338 0.950 1_455 S
C345 C342 1.387 . S
C346 C347 1.387 1_655 S
C346 H350 0.950 . S
C346 C355 1.390 . S
C347 C346 1.387 1_455 S
C347 C349 1.387 . S
H348 C355 0.950 . S
C349 C347 1.387 . S
C349 C351 1.390 . S
C349 H353 0.950 . S
H350 C346 0.950 . S
C351 C349 1.390 . S
C351 C352 1.387 . S
C351 H354 0.950 . S
C352 C351 1.387 . S
C352 C355 1.387 1_455 S
H353 C349 0.950 . S
H354 C351 0.950 . S
C355 C346 1.390 . S
C355 H348 0.950 . S
C355 C352 1.387 1_655 S
C356 C357 1.387 . S
C356 H360 0.950 . S
C356 C365 1.390 . S
C357 C356 1.387 . S
C357 C359 1.387 . S
H358 C365 0.950 . S
C359 C357 1.387 . S
C359 C361 1.390 . S
C359 H363 0.950 . S
H360 C356 0.950 . S
C361 C359 1.390 . S
C361 C362 1.387 . S
C361 H364 0.950 1_455 S
C362 C361 1.387 . S
C362 C365 1.387 . S
H363 C359 0.950 . S
H364 C361 0.950 1_655 S
C365 C356 1.390 . S
C365 H358 0.950 . S
C365 C362 1.387 . S
C366 C367 1.387 1_455 S
C366 H370 0.950 . S
C366 C375 1.390 . S
C367 C366 1.387 1_655 S
C367 C369 1.387 . S
H368 C375 0.950 . S
C369 C367 1.387 . S
C369 C371 1.390 . S
C369 H373 0.950 . S
H370 C366 0.950 . S
C371 C369 1.390 . S
C371 C372 1.387 . S
C371 H374 0.950 . S
C372 C371 1.387 . S
C372 C375 1.387 1_655 S
H373 C369 0.950 . S
H374 C371 0.950 . S
C375 C366 1.390 . S
C375 H368 0.950 . S
C375 C372 1.387 1_455 S
C376 C377 1.387 . S
C376 H380 0.950 . S
C376 C385 1.390 . S
C377 C376 1.387 . S
C377 C379 1.387 1_545 S
H378 C385 0.950 . S
C379 C377 1.387 1_565 S
C379 C381 1.390 . S
C379 H383 0.950 . S
H380 C376 0.950 . S
C381 C379 1.390 . S
C381 C382 1.387 1_565 S
C381 H384 0.950 . S
C382 C381 1.387 1_545 S
C382 C385 1.387 . S
H383 C379 0.950 . S
H384 C381 0.950 . S
C385 C376 1.390 . S
C385 H378 0.950 . S
C385 C382 1.387 . S
C386 C387 1.387 . S
C386 H390 0.950 . S
C386 C395 1.390 . S
C387 C386 1.387 . S
C387 C389 1.387 . S
H388 C395 0.950 . S
C389 C387 1.387 . S
C389 C391 1.390 . S
C389 H393 0.950 . S
H390 C386 0.950 . S
C391 C389 1.390 . S
C391 C392 1.387 . S
C391 H394 0.950 . S
C392 C391 1.387 . S
C392 C395 1.387 . S
H393 C389 0.950 . S
H394 C391 0.950 . S
C395 C386 1.390 . S
C395 H388 0.950 . S
C395 C392 1.387 . S
C396 C397 1.387 . S
C396 H400 0.950 . S
C396 C405 1.390 . S
C397 C396 1.387 . S
C397 C399 1.387 1_565 S
H398 C405 0.950 . S
C399 C397 1.387 1_545 S
C399 C401 1.390 . S
C399 H403 0.950 . S
H400 C396 0.950 . S
C401 C399 1.390 . S
C401 C402 1.387 . S
C401 H404 0.950 . S
C402 C401 1.387 . S
C402 C405 1.387 1_545 S
H403 C399 0.950 . S
H404 C401 0.950 . S
C405 C396 1.390 . S
C405 H398 0.950 . S
C405 C402 1.387 1_565 S
C406 C407 1.387 . S
C406 H410 0.950 . S
C406 C415 1.390 . S
C407 C406 1.387 . S
C407 C409 1.387 . S
H408 C415 0.950 . S
C409 C407 1.387 . S
C409 C411 1.390 . S
C409 H413 0.950 . S
H410 C406 0.950 . S
C411 C409 1.390 . S
C411 C412 1.387 . S
C411 H414 0.950 . S
C412 C411 1.387 . S
C412 C415 1.387 . S
H413 C409 0.950 . S
H414 C411 0.950 . S
C415 C406 1.390 . S
C415 H408 0.950 . S
C415 C412 1.387 . S
C416 C417 1.387 1_556 S
C416 H420 0.950 . S
C416 C425 1.390 . S
C417 C416 1.387 1_554 S
C417 C419 1.387 . S
H418 C425 0.950 . S
C419 C417 1.387 . S
C419 C421 1.390 . S
C419 H423 0.950 . S
H420 C416 0.950 . S
C421 C419 1.390 . S
C421 C422 1.387 . S
C421 H424 0.950 . S
C422 C421 1.387 . S
C422 C425 1.387 1_554 S
H423 C419 0.950 . S
H424 C421 0.950 . S
C425 C416 1.390 . S
C425 H418 0.950 . S
C425 C422 1.387 1_556 S
C426 C427 1.387 . S
C426 H430 0.950 . S
C426 C435 1.390 . S
C427 C426 1.387 . S
C427 C429 1.387 . S
H428 C435 0.950 . S
C429 C427 1.387 . S
C429 C431 1.390 . S
C429 H433 0.950 . S
H430 C426 0.950 . S
C431 C429 1.390 . S
C431 C432 1.387 . S
C431 H434 0.950 . S
C432 C431 1.387 . S
C432 C435 1.387 . S
H433 C429 0.950 . S
H434 C431 0.950 . S
C435 C426 1.390 . S
C435 H428 0.950 . S
C435 C432 1.387 . S
C436 C437 1.387 . S
C436 H440 0.950 . S
C436 C445 1.390 . S
C437 C436 1.387 . S
C437 C439 1.387 . S
H438 C445 0.950 . S
C439 C437 1.387 . S
C439 C441 1.390 . S
C439 H443 0.950 . S
H440 C436 0.950 . S
C441 C439 1.390 . S
C441 C442 1.387 . S
C441 H444 0.950 . S
C442 C441 1.387 . S
C442 C445 1.387 . S
H443 C439 0.950 . S
H444 C441 0.950 . S
C445 C436 1.390 . S
C445 H438 0.950 . S
C445 C442 1.387 . S
C446 C447 1.387 . S
C446 H450 0.950 . S
C446 C455 1.390 . S
C447 C446 1.387 . S
C447 C449 1.387 . S
H448 C455 0.950 . S
C449 C447 1.387 . S
C449 C451 1.390 . S
C449 H453 0.950 . S
H450 C446 0.950 . S
C451 C449 1.390 . S
C451 C452 1.387 . S
C451 H454 0.950 . S
C452 C451 1.387 . S
C452 C455 1.387 . S
H453 C449 0.950 . S
H454 C451 0.950 . S
C455 C446 1.390 . S
C455 H448 0.950 . S
C455 C452 1.387 . S
C456 C457 1.387 . S
C456 H460 0.950 . S
C456 C465 1.390 . S
C457 C456 1.387 . S
C457 C459 1.387 . S
H458 C465 0.950 . S
C459 C457 1.387 . S
C459 C461 1.390 . S
C459 H463 0.950 . S
H460 C456 0.950 . S
C461 C459 1.390 . S
C461 C462 1.387 . S
C461 H464 0.950 . S
C462 C461 1.387 . S
C462 C465 1.387 . S
H463 C459 0.950 . S
H464 C461 0.950 . S
C465 C456 1.390 . S
C465 H458 0.950 . S
C465 C462 1.387 . S
C466 C467 1.387 . S
C466 H470 0.950 . S
C466 C475 1.390 . S
C467 C466 1.387 . S
C467 C469 1.387 . S
H468 C475 0.950 . S
C469 C467 1.387 . S
C469 C471 1.390 . S
C469 H473 0.950 . S
H470 C466 0.950 . S
C471 C469 1.390 . S
C471 C472 1.387 . S
C471 H474 0.950 . S
C472 C471 1.387 . S
C472 C475 1.387 . S
H473 C469 0.950 . S
H474 C471 0.950 . S
C475 C466 1.390 . S
C475 H468 0.950 . S
C475 C472 1.387 . S
C476 C477 1.387 . S
C476 H480 0.950 . S
C476 C485 1.390 . S
C477 C476 1.387 . S
C477 C479 1.387 . S
H478 C485 0.950 . S
C479 C477 1.387 . S
C479 C481 1.390 . S
C479 H483 0.950 . S
H480 C476 0.950 . S
C481 C479 1.390 . S
C481 C482 1.387 . S
C481 H484 0.950 . S
C482 C481 1.387 . S
C482 C485 1.387 . S
H483 C479 0.950 . S
H484 C481 0.950 . S
C485 C476 1.390 . S
C485 H478 0.950 . S
C485 C482 1.387 . S
C486 C487 1.387 . S
C486 H490 0.950 . S
C486 C495 1.390 . S
C487 C486 1.387 . S
C487 C489 1.387 . S
H488 C495 0.950 . S
C489 C487 1.387 . S
C489 C491 1.390 . S
C489 H493 0.950 . S
H490 C486 0.950 . S
C491 C489 1.390 . S
C491 C492 1.387 . S
C491 H494 0.950 . S
C492 C491 1.387 . S
C492 C495 1.387 . S
H493 C489 0.950 . S
H494 C491 0.950 . S
C495 C486 1.390 . S
C495 H488 0.950 . S
C495 C492 1.387 . S
C496 C497 1.387 . S
C496 H500 0.950 . S
C496 C505 1.390 . S
C497 C496 1.387 . S
C497 C499 1.387 . S
H498 C505 0.950 . S
C499 C497 1.387 . S
C499 C501 1.390 . S
C499 H503 0.950 . S
H500 C496 0.950 . S
C501 C499 1.390 . S
C501 C502 1.387 . S
C501 H504 0.950 . S
C502 C501 1.387 . S
C502 C505 1.387 . S
H503 C499 0.950 . S
H504 C501 0.950 . S
C505 C496 1.390 . S
C505 H498 0.950 . S
C505 C502 1.387 . S
C506 C507 1.387 . S
C506 H510 0.950 . S
C506 C515 1.390 . S
C507 C506 1.387 . S
C507 C509 1.387 1_565 S
H508 C515 0.950 . S
C509 C507 1.387 1_545 S
C509 C511 1.390 . S
C509 H513 0.950 . S
H510 C506 0.950 . S
C511 C509 1.390 . S
C511 C512 1.387 1_545 S
C511 H514 0.950 . S
C512 C511 1.387 1_565 S
C512 C515 1.387 . S
H513 C509 0.950 . S
H514 C511 0.950 . S
C515 C506 1.390 . S
C515 H508 0.950 . S
C515 C512 1.387 . S
C516 C517 1.387 . S
C516 H520 0.950 . S
C516 C525 1.390 . S
C517 C516 1.387 . S
C517 C519 1.387 . S
H518 C525 0.950 . S
C519 C517 1.387 . S
C519 C521 1.390 . S
C519 H523 0.950 . S
H520 C516 0.950 . S
C521 C519 1.390 . S
C521 C522 1.387 . S
C521 H524 0.950 . S
C522 C521 1.387 . S
C522 C525 1.387 . S
H523 C519 0.950 . S
H524 C521 0.950 . S
C525 C516 1.390 . S
C525 H518 0.950 . S
C525 C522 1.387 . S
C526 C527 1.387 1_565 S
C526 H530 0.950 . S
C526 C535 1.390 . S
C527 C526 1.387 1_545 S
C527 C529 1.387 . S
H528 C535 0.950 . S
C529 C527 1.387 . S
C529 C531 1.390 . S
C529 H533 0.950 . S
H530 C526 0.950 . S
C531 C529 1.390 . S
C531 C532 1.387 . S
C531 H534 0.950 . S
C532 C531 1.387 . S
C532 C535 1.387 1_545 S
H533 C529 0.950 . S
H534 C531 0.950 . S
C535 C526 1.390 . S
C535 H528 0.950 . S
C535 C532 1.387 1_565 S
C536 C537 1.387 . S
C536 H540 0.950 . S
C536 C545 1.390 . S
C537 C536 1.387 . S
C537 C539 1.387 . S
H538 C545 0.950 . S
C539 C537 1.387 . S
C539 C541 1.390 . S
C539 H543 0.950 . S
H540 C536 0.950 . S
C541 C539 1.390 . S
C541 C542 1.387 . S
C541 H544 0.950 . S
C542 C541 1.387 . S
C542 C545 1.387 . S
H543 C539 0.950 . S
H544 C541 0.950 . S
C545 C536 1.390 . S
C545 H538 0.950 . S
C545 C542 1.387 . S
C546 C547 1.387 1_556 S
C546 H550 0.950 . S
C546 C555 1.390 . S
C547 C546 1.387 1_554 S
C547 C549 1.387 . S
H548 C555 0.950 . S
C549 C547 1.387 . S
C549 C551 1.390 . S
C549 H553 0.950 . S
H550 C546 0.950 . S
C551 C549 1.390 . S
C551 C552 1.387 1_554 S
C551 H554 0.950 . S
C552 C551 1.387 1_556 S
C552 C555 1.387 . S
H553 C549 0.950 . S
H554 C551 0.950 . S
C555 C546 1.390 . S
C555 H548 0.950 . S
C555 C552 1.387 . S
C556 C557 1.387 . S
C556 H560 0.950 . S
C556 C565 1.390 . S
C557 C556 1.387 . S
C557 C559 1.387 1_554 S
H558 C565 0.950 . S
C559 C557 1.387 1_556 S
C559 C561 1.390 . S
C559 H563 0.950 . S
H560 C556 0.950 . S
C561 C559 1.390 . S
C561 C562 1.387 1_556 S
C561 H564 0.950 . S
C562 C561 1.387 1_554 S
C562 C565 1.387 . S
H563 C559 0.950 . S
H564 C561 0.950 . S
C565 C556 1.390 . S
C565 H558 0.950 . S
C565 C562 1.387 . S
C566 C567 1.387 . S
C566 H570 0.950 . S
C566 C575 1.390 . S
C567 C566 1.387 . S
C567 C569 1.363 1_554 S
H568 C575 0.950 . S
C569 C567 1.363 1_556 S
C569 C571 1.397 . S
C569 H573 0.968 . S
H570 C566 0.950 . S
C571 C569 1.397 . S
C571 C572 1.387 1_556 S
C571 H574 0.950 . S
C572 C571 1.387 1_554 S
C572 C575 1.387 . S
H573 C569 0.968 . S
H574 C571 0.950 . S
C575 C566 1.390 . S
C575 H568 0.950 . S
C575 C572 1.387 . S
C576 C577 1.387 . S
C576 H580 0.950 . S
C576 C585 1.390 . S
C577 C576 1.387 . S
C577 C579 1.387 . S
H578 C585 0.950 1_655 S
C579 C577 1.387 . S
C579 C581 1.390 . S
C579 H583 0.950 . S
H580 C576 0.950 . S
C581 C579 1.390 . S
C581 C582 1.387 . S
C581 H584 0.950 . S
C582 C581 1.387 . S
C582 C585 1.387 . S
H583 C579 0.950 . S
H584 C581 0.950 . S
C585 C576 1.390 . S
C585 H578 0.950 1_455 S
C585 C582 1.387 . S
C586 C587 1.387 1_655 S
C586 H590 0.950 . S
C586 C595 1.390 . S
C587 C586 1.387 1_455 S
C587 C589 1.387 . S
H588 C595 0.950 . S
C589 C587 1.387 . S
C589 C591 1.390 . S
C589 H593 0.950 . S
H590 C586 0.950 . S
C591 C589 1.390 . S
C591 C592 1.387 1_455 S
C591 H594 0.950 . S
C592 C591 1.387 1_655 S
C592 C595 1.387 . S
H593 C589 0.950 . S
H594 C591 0.950 . S
C595 C586 1.390 . S
C595 H588 0.950 . S
C595 C592 1.387 . S
C596 C597 1.387 . S
C596 H600 0.950 . S
C596 C605 1.390 . S
C597 C596 1.387 . S
C597 C599 1.387 1_455 S
H598 C605 0.950 . S
C599 C597 1.387 1_655 S
C599 C601 1.390 . S
C599 H603 0.950 . S
H600 C596 0.950 . S
C601 C599 1.390 . S
C601 C602 1.387 1_655 S
C601 H604 0.950 . S
C602 C601 1.387 1_455 S
C602 C605 1.387 . S
H603 C599 0.950 . S
H604 C601 0.950 . S
C605 C596 1.390 . S
C605 H598 0.950 . S
C605 C602 1.387 . S
C606 C607 1.388 . S
C606 H610 0.950 . S
C606 C615 1.390 . S
C607 C606 1.388 . S
C607 C609 1.387 . S
H608 C615 0.950 . S
C609 C607 1.387 . S
C609 C611 1.390 . S
C609 H613 0.950 . S
H610 C606 0.950 . S
C611 C609 1.390 . S
C611 C612 1.387 . S
C611 H614 0.950 . S
C612 C611 1.387 . S
C612 C615 1.387 . S
H613 C609 0.950 . S
H614 C611 0.950 . S
C615 C606 1.390 . S
C615 H608 0.950 . S
C615 C612 1.387 . S
C616 C617 1.387 1_565 S
C616 H620 0.950 . S
C616 C625 1.390 . S
C617 C616 1.387 1_545 S
C617 C619 1.387 . S
H618 C625 0.950 . S
C619 C617 1.387 . S
C619 C621 1.390 . S
C619 H623 0.950 . S
H620 C616 0.950 . S
C621 C619 1.390 . S
C621 C622 1.387 . S
C621 H624 0.950 . S
C622 C621 1.387 . S
C622 C625 1.387 1_545 S
H623 C619 0.950 . S
H624 C621 0.950 . S
C625 C616 1.390 . S
C625 H618 0.950 . S
C625 C622 1.387 1_565 S
C626 C627 1.387 . S
C626 H630 0.950 . S
C626 C635 1.390 . S
C627 C626 1.387 . S
C627 C629 1.387 . S
H628 C635 0.950 . S
C629 C627 1.387 . S
C629 C631 1.390 . S
C629 H633 0.950 . S
H630 C626 0.950 . S
C631 C629 1.390 . S
C631 C632 1.387 . S
C631 H634 0.950 . S
C632 C631 1.387 . S
C632 C635 1.387 . S
H633 C629 0.950 . S
H634 C631 0.950 . S
C635 C626 1.390 . S
C635 H628 0.950 . S
C635 C632 1.387 . S
C636 C637 1.387 1_545 S
C636 H640 0.950 . S
C636 C645 1.390 . S
C637 C636 1.387 1_565 S
C637 C639 1.387 . S
H638 C645 0.950 . S
C639 C637 1.387 . S
C639 C641 1.390 . S
C639 H643 0.950 . S
H640 C636 0.950 . S
C641 C639 1.390 . S
C641 C642 1.387 . S
C641 H644 0.950 . S
C642 C641 1.387 . S
C642 C645 1.387 1_565 S
H643 C639 0.950 . S
H644 C641 0.950 . S
C645 C636 1.390 . S
C645 H638 0.950 . S
C645 C642 1.387 1_545 S
C646 C647 1.387 . S
C646 H650 0.950 . S
C646 C655 1.390 . S
C647 C646 1.387 . S
C647 C649 1.387 . S
H648 C655 0.950 . S
C649 C647 1.387 . S
C649 C651 1.390 . S
C649 H653 0.950 . S
H650 C646 0.950 . S
C651 C649 1.390 . S
C651 C652 1.387 . S
C651 H654 0.950 . S
C652 C651 1.387 . S
C652 C655 1.387 . S
H653 C649 0.950 . S
H654 C651 0.950 . S
C655 C646 1.390 . S
C655 H648 0.950 . S
C655 C652 1.387 . S
C656 C657 1.387 . S
C656 H660 0.950 1_554 S
C656 C665 1.390 1_554 S
C657 C656 1.387 . S
C657 C659 1.387 . S
H658 C665 0.950 . S
C659 C657 1.387 . S
C659 C661 1.390 . S
C659 H663 0.950 . S
H660 C656 0.950 1_556 S
C661 C659 1.390 . S
C661 C662 1.387 . S
C661 H664 0.950 . S
C662 C661 1.387 . S
C662 C665 1.387 1_554 S
H663 C659 0.950 . S
H664 C661 0.950 . S
C665 C656 1.390 1_556 S
C665 H658 0.950 . S
C665 C662 1.387 1_556 S
C666 C667 1.387 . S
C666 H670 0.950 . S
C666 C675 1.390 . S
C667 C666 1.387 . S
C667 C669 1.387 . S
H668 C675 0.950 . S
C669 C667 1.387 . S
C669 C671 1.390 . S
C669 H673 0.950 . S
H670 C666 0.950 . S
C671 C669 1.390 . S
C671 C672 1.387 . S
C671 H674 0.950 . S
C672 C671 1.387 . S
C672 C675 1.387 . S
H673 C669 0.950 . S
H674 C671 0.950 . S
C675 C666 1.390 . S
C675 H668 0.950 . S
C675 C672 1.387 . S
C676 C677 1.387 . S
C676 H680 0.950 . S
C676 C685 1.390 . S
C677 C676 1.387 . S
C677 C679 1.387 . S
H678 C685 0.950 . S
C679 C677 1.387 . S
C679 C681 1.390 . S
C679 H683 0.950 . S
H680 C676 0.950 . S
C681 C679 1.390 . S
C681 C682 1.387 . S
C681 H684 0.950 . S
C682 C681 1.387 . S
C682 C685 1.387 . S
H683 C679 0.950 . S
H684 C681 0.950 . S
C685 C676 1.390 . S
C685 H678 0.950 . S
C685 C682 1.387 . S
C686 C687 1.387 . S
C686 H690 0.950 . S
C686 C695 1.390 . S
C687 C686 1.387 . S
C687 C689 1.387 . S
H688 C695 0.950 . S
C689 C687 1.387 . S
C689 C691 1.390 . S
C689 H693 0.950 . S
H690 C686 0.950 . S
C691 C689 1.390 . S
C691 C692 1.387 . S
C691 H694 0.950 . S
C692 C691 1.387 . S
C692 C695 1.387 . S
H693 C689 0.950 . S
H694 C691 0.950 . S
C695 C686 1.390 . S
C695 H688 0.950 . S
C695 C692 1.387 . S
C696 C697 1.387 . S
C696 H700 0.950 . S
C696 C705 1.390 . S
C697 C696 1.387 . S
C697 C699 1.387 . S
H698 C705 0.950 . S
C699 C697 1.387 . S
C699 C701 1.390 . S
C699 H703 0.950 . S
H700 C696 0.950 . S
C701 C699 1.390 . S
C701 C702 1.387 . S
C701 H704 0.950 . S
C702 C701 1.387 . S
C702 C705 1.387 . S
H703 C699 0.950 . S
H704 C701 0.950 . S
C705 C696 1.390 . S
C705 H698 0.950 . S
C705 C702 1.387 . S
C706 C707 1.387 . S
C706 H710 0.950 . S
C706 C715 1.390 . S
C707 C706 1.387 . S
C707 C709 1.387 . S
H708 C715 0.950 . S
C709 C707 1.387 . S
C709 C711 1.390 . S
C709 H713 0.950 . S
H710 C706 0.950 . S
C711 C709 1.390 . S
C711 C712 1.387 . S
C711 H714 0.950 . S
C712 C711 1.387 . S
C712 C715 1.387 . S
H713 C709 0.950 . S
H714 C711 0.950 . S
C715 C706 1.390 . S
C715 H708 0.950 . S
C715 C712 1.387 . S
C716 C717 1.387 . S
C716 H720 0.950 . S
C716 C725 1.390 . S
C717 C716 1.387 . S
C717 C719 1.387 . S
H718 C725 0.950 . S
C719 C717 1.387 . S
C719 C721 1.390 . S
C719 H723 0.950 . S
H720 C716 0.950 . S
C721 C719 1.390 . S
C721 C722 1.387 . S
C721 H724 0.950 . S
C722 C721 1.387 . S
C722 C725 1.387 . S
H723 C719 0.950 . S
H724 C721 0.950 . S
C725 C716 1.390 . S
C725 H718 0.950 . S
C725 C722 1.387 . S
C726 C727 1.387 . S
C726 H730 0.950 . S
C726 C735 1.390 . S
C727 C726 1.387 . S
C727 C729 1.387 . S
H728 C735 0.950 . S
C729 C727 1.387 . S
C729 C731 1.390 . S
C729 H733 0.950 . S
H730 C726 0.950 . S
C731 C729 1.390 . S
C731 C732 1.387 . S
C731 H734 0.950 . S
C732 C731 1.387 . S
C732 C735 1.387 . S
H733 C729 0.950 . S
H734 C731 0.950 . S
C735 C726 1.390 . S
C735 H728 0.950 . S
C735 C732 1.387 . S
C736 C737 1.387 . S
C736 H740 0.950 . S
C736 C745 1.390 . S
C737 C736 1.387 . S
C737 C739 1.387 . S
H738 C745 0.950 . S
C739 C737 1.387 . S
C739 C741 1.390 . S
C739 H743 0.950 . S
H740 C736 0.950 . S
C741 C739 1.390 . S
C741 C742 1.387 . S
C741 H744 0.950 . S
C742 C741 1.387 . S
C742 C745 1.387 . S
H743 C739 0.950 . S
H744 C741 0.950 . S
C745 C736 1.390 . S
C745 H738 0.950 . S
C745 C742 1.387 . S
C746 C747 1.387 1_545 S
C746 H750 0.950 . S
C746 C755 1.390 . S
C747 C746 1.387 1_565 S
C747 C749 1.387 . S
H748 C755 0.950 . S
C749 C747 1.387 . S
C749 C751 1.390 . S
C749 H753 0.950 . S
H750 C746 0.950 . S
C751 C749 1.390 . S
C751 C752 1.387 . S
C751 H754 0.950 . S
C752 C751 1.387 . S
C752 C755 1.387 1_565 S
H753 C749 0.950 . S
H754 C751 0.950 . S
C755 C746 1.390 . S
C755 H748 0.950 . S
C755 C752 1.387 1_545 S
C756 C757 1.387 . S
C756 H760 0.950 . S
C756 C765 1.390 . S
C757 C756 1.387 . S
C757 C759 1.387 . S
H758 C765 0.950 . S
C759 C757 1.387 . S
C759 C761 1.390 . S
C759 H763 0.950 . S
H760 C756 0.950 . S
C761 C759 1.390 . S
C761 C762 1.387 . S
C761 H764 0.950 . S
C762 C761 1.387 . S
C762 C765 1.387 . S
H763 C759 0.950 . S
H764 C761 0.950 . S
C765 C756 1.390 . S
C765 H758 0.950 . S
C765 C762 1.387 . S
C766 C767 1.387 . S
C766 H770 0.950 . S
C766 C775 1.390 . S
C767 C766 1.387 . S
C767 C769 1.387 1_545 S
H768 C775 0.950 . S
C769 C767 1.387 1_565 S
C769 C771 1.390 . S
C769 H773 0.950 . S
H770 C766 0.950 . S
C771 C769 1.390 . S
C771 C772 1.387 1_565 S
C771 H774 0.950 . S
C772 C771 1.387 1_545 S
C772 C775 1.387 . S
H773 C769 0.950 . S
H774 C771 0.950 . S
C775 C766 1.390 . S
C775 H768 0.950 . S
C775 C772 1.387 . S
C776 C777 1.387 . S
C776 H780 0.950 . S
C776 C785 1.390 . S
C777 C776 1.387 . S
C777 C779 1.387 . S
H778 C785 0.950 . S
C779 C777 1.387 . S
C779 C781 1.390 . S
C779 H783 0.950 . S
H780 C776 0.950 . S
C781 C779 1.390 . S
C781 C782 1.387 . S
C781 H784 0.950 . S
C782 C781 1.387 . S
C782 C785 1.387 . S
H783 C779 0.950 . S
H784 C781 0.950 . S
C785 C776 1.390 . S
C785 H778 0.950 . S
C785 C782 1.387 . S
C786 C787 1.387 . S
C786 H790 0.950 . S
C786 C795 1.390 . S
C787 C786 1.387 . S
C787 C789 1.387 1_554 S
H788 C795 0.950 . S
C789 C787 1.387 1_556 S
C789 C791 1.390 . S
C789 H793 0.950 . S
H790 C786 0.950 . S
C791 C789 1.390 . S
C791 C792 1.387 . S
C791 H794 0.950 . S
C792 C791 1.387 . S
C792 C795 1.387 1_556 S
H793 C789 0.950 . S
H794 C791 0.950 . S
C795 C786 1.390 . S
C795 H788 0.950 . S
C795 C792 1.387 1_554 S
C796 C797 1.387 1_556 S
C796 H800 0.950 . S
C796 C805 1.390 . S
C797 C796 1.387 1_554 S
C797 C799 1.387 . S
H798 C805 0.950 . S
C799 C797 1.387 . S
C799 C801 1.390 . S
C799 H803 0.950 . S
H800 C796 0.950 . S
C801 C799 1.390 . S
C801 C802 1.387 1_554 S
C801 H804 0.950 . S
C802 C801 1.387 1_556 S
C802 C805 1.387 . S
H803 C799 0.950 . S
H804 C801 0.950 . S
C805 C796 1.390 . S
C805 H798 0.950 . S
C805 C802 1.387 . S
C806 C807 1.387 . S
C806 H810 0.950 . S
C806 C815 1.390 . S
C807 C806 1.387 . S
C807 C809 1.393 . S
H808 C815 0.950 . S
C809 C807 1.393 . S
C809 C811 1.389 1_554 S
C809 H813 0.946 1_554 S
H810 C806 0.950 . S
C811 C809 1.389 1_556 S
C811 C812 1.387 1_556 S
C811 H814 0.950 . S
C812 C811 1.387 1_554 S
C812 C815 1.387 . S
H813 C809 0.946 1_556 S
H814 C811 0.950 . S
C815 C806 1.390 . S
C815 H808 0.950 . S
C815 C812 1.387 . S
C337 C13 1.818 . S
C342 C228 1.652 . S
C352 C247 1.704 1_455 S
C347 C1 1.753 . S
C362 C185 1.663 . S
C357 C27 1.620 . S
C367 C15 1.533 1_655 S
C372 C206 1.538 . S
C377 C28 1.521 . S
C382 C333 1.375 . S
C387 C55 1.467 . S
C392 C311 1.486 . S
C402 C268 1.693 . S
C397 C40 1.749 . S
C407 C43 1.581 . S
C412 C289 1.540 . S
C422 C207 1.484 . S
C417 C56 1.598 . S
C432 C248 1.499 . S
C427 C83 1.507 . S
C437 C96 1.684 . S
C442 C226 1.640 . S
C447 C71 1.592 . S
C452 C291 1.467 . S
C462 C312 1.648 . S
C457 C99 1.817 . S
C472 C331 1.705 . S
C467 C111 1.754 . S
C477 C113 1.622 . S
C482 C290 1.659 . S
C492 C269 1.538 . S
C487 C125 1.533 . S
C497 C139 1.523 . S
C502 C249 1.379 . S
C507 C153 1.468 . S
C512 C227 1.486 . S
C522 C205 1.696 . S
C517 C127 1.752 . S
C527 C141 1.581 . S
C532 C184 1.541 . S
C542 C270 1.480 . S
C537 C84 1.597 . S
C552 C332 1.499 . S
C547 C154 1.506 . S
C557 C68 1.685 . S
C562 C310 1.643 1_554 S
C567 C166 1.590 . S
C572 C186 1.466 . S
C582 C182 1.230 . S
C577 C0 1.380 . S
C587 C12 1.299 . S
C592 C203 1.257 . S
C602 C223 1.250 . S
C597 C14 1.410 . S
C612 C246 1.381 . S
C607 C26 1.739 1_655 S
C617 C41 1.302 . S
C622 C183 0.956 . S
C627 C42 1.734 . S
C632 C204 1.293 . S
C642 C224 1.217 . S
C637 C29 1.310 . S
C647 C54 1.230 . S
C652 C244 1.137 . S
C657 C69 1.252 . S
C662 C181 1.090 . S
C672 C225 1.358 . S
C667 C70 1.709 . S
C677 C85 1.557 . S
C682 C245 1.499 . S
C687 C82 1.267 . S
C692 C265 1.116 . S
C702 C287 1.234 . S
C697 C110 1.381 . S
C707 C98 1.300 . S
C712 C266 1.257 . S
C717 C124 1.410 . S
C722 C307 1.250 . S
C727 C112 1.738 . S
C732 C330 1.385 . S
C737 C126 1.301 . S
C742 C288 0.960 . S
C752 C267 1.290 . S
C747 C140 1.735 . S
C757 C138 1.309 . S
C762 C308 1.217 . S
C772 C328 1.139 . S
C767 C152 1.228 . S
C782 C286 1.093 . S
C777 C97 1.250 . S
C792 C309 1.357 . S
C787 C167 1.710 . S
C802 C329 1.499 . S
C797 C57 1.557 . S
C807 C155 1.266 . S
C812 C202 1.118 . S
