# Generated by pormake.
# Topology ocu, (6,8)-cn, num edge types: 1
# Building blocks:
#     Node 0, Type 0, BuildingBlock: VOLQOD_clean_sbu_1, # of connection points: 6
#     Node 1, Type 0, BuildingBlock: VOLQOD_clean_sbu_1, # of connection points: 6
#     Node 2, Type 0, BuildingBlock: VOLQOD_clean_sbu_1, # of connection points: 6
#     Node 3, Type 0, BuildingBlock: VOLQOD_clean_sbu_1, # of connection points: 6
#     Node 4, Type 0, BuildingBlock: VOLQOD_clean_sbu_1, # of connection points: 6
#     Node 5, Type 0, BuildingBlock: VOLQOD_clean_sbu_1, # of connection points: 6
#     Node 6, Type 0, BuildingBlock: VOLQOD_clean_sbu_1, # of connection points: 6
#     Node 7, Type 0, BuildingBlock: VOLQOD_clean_sbu_1, # of connection points: 6
#     Node 8, Type 1, BuildingBlock: GIZVER_clean_sbu_0, # of connection points: 8
#     Node 9, Type 1, BuildingBlock: GIZVER_clean_sbu_0, # of connection points: 8
#     Node 10, Type 1, BuildingBlock: GIZVER_clean_sbu_0, # of connection points: 8
#     Node 11, Type 1, BuildingBlock: GIZVER_clean_sbu_0, # of connection points: 8
#     Node 12, Type 1, BuildingBlock: GIZVER_clean_sbu_0, # of connection points: 8
#     Node 13, Type 1, BuildingBlock: GIZVER_clean_sbu_0, # of connection points: 8
#     Edge 14, Type (0, 1), BuildingBlock: CIFDUS_clean_linker_0, # of connection points: 2
#     Edge 15, Type (0, 1), BuildingBlock: CIFDUS_clean_linker_0, # of connection points: 2
#     Edge 16, Type (0, 1), BuildingBlock: CIFDUS_clean_linker_0, # of connection points: 2
#     Edge 17, Type (0, 1), BuildingBlock: CIFDUS_clean_linker_0, # of connection points: 2
#     Edge 18, Type (0, 1), BuildingBlock: CIFDUS_clean_linker_0, # of connection points: 2
#     Edge 19, Type (0, 1), BuildingBlock: CIFDUS_clean_linker_0, # of connection points: 2
#     Edge 20, Type (0, 1), BuildingBlock: CIFDUS_clean_linker_0, # of connection points: 2
#     Edge 21, Type (0, 1), BuildingBlock: CIFDUS_clean_linker_0, # of connection points: 2
#     Edge 22, Type (0, 1), BuildingBlock: CIFDUS_clean_linker_0, # of connection points: 2
#     Edge 23, Type (0, 1), BuildingBlock: CIFDUS_clean_linker_0, # of connection points: 2
#     Edge 24, Type (0, 1), BuildingBlock: CIFDUS_clean_linker_0, # of connection points: 2
#     Edge 25, Type (0, 1), BuildingBlock: CIFDUS_clean_linker_0, # of connection points: 2
#     Edge 26, Type (0, 1), BuildingBlock: CIFDUS_clean_linker_0, # of connection points: 2
#     Edge 27, Type (0, 1), BuildingBlock: CIFDUS_clean_linker_0, # of connection points: 2
#     Edge 28, Type (0, 1), BuildingBlock: CIFDUS_clean_linker_0, # of connection points: 2
#     Edge 29, Type (0, 1), BuildingBlock: CIFDUS_clean_linker_0, # of connection points: 2
#     Edge 30, Type (0, 1), BuildingBlock: CIFDUS_clean_linker_0, # of connection points: 2
#     Edge 31, Type (0, 1), BuildingBlock: CIFDUS_clean_linker_0, # of connection points: 2
#     Edge 32, Type (0, 1), BuildingBlock: CIFDUS_clean_linker_0, # of connection points: 2
#     Edge 33, Type (0, 1), BuildingBlock: CIFDUS_clean_linker_0, # of connection points: 2
#     Edge 34, Type (0, 1), BuildingBlock: CIFDUS_clean_linker_0, # of connection points: 2
#     Edge 35, Type (0, 1), BuildingBlock: CIFDUS_clean_linker_0, # of connection points: 2
#     Edge 36, Type (0, 1), BuildingBlock: CIFDUS_clean_linker_0, # of connection points: 2
#     Edge 37, Type (0, 1), BuildingBlock: CIFDUS_clean_linker_0, # of connection points: 2
#     Edge 38, Type (0, 1), BuildingBlock: CIFDUS_clean_linker_0, # of connection points: 2
#     Edge 39, Type (0, 1), BuildingBlock: CIFDUS_clean_linker_0, # of connection points: 2
#     Edge 40, Type (0, 1), BuildingBlock: CIFDUS_clean_linker_0, # of connection points: 2
#     Edge 41, Type (0, 1), BuildingBlock: CIFDUS_clean_linker_0, # of connection points: 2
#     Edge 42, Type (0, 1), BuildingBlock: CIFDUS_clean_linker_0, # of connection points: 2
#     Edge 43, Type (0, 1), BuildingBlock: CIFDUS_clean_linker_0, # of connection points: 2
#     Edge 44, Type (0, 1), BuildingBlock: CIFDUS_clean_linker_0, # of connection points: 2
#     Edge 45, Type (0, 1), BuildingBlock: CIFDUS_clean_linker_0, # of connection points: 2
#     Edge 46, Type (0, 1), BuildingBlock: CIFDUS_clean_linker_0, # of connection points: 2
#     Edge 47, Type (0, 1), BuildingBlock: CIFDUS_clean_linker_0, # of connection points: 2
#     Edge 48, Type (0, 1), BuildingBlock: CIFDUS_clean_linker_0, # of connection points: 2
#     Edge 49, Type (0, 1), BuildingBlock: CIFDUS_clean_linker_0, # of connection points: 2
#     Edge 50, Type (0, 1), BuildingBlock: CIFDUS_clean_linker_0, # of connection points: 2
#     Edge 51, Type (0, 1), BuildingBlock: CIFDUS_clean_linker_0, # of connection points: 2
#     Edge 52, Type (0, 1), BuildingBlock: CIFDUS_clean_linker_0, # of connection points: 2
#     Edge 53, Type (0, 1), BuildingBlock: CIFDUS_clean_linker_0, # of connection points: 2
#     Edge 54, Type (0, 1), BuildingBlock: CIFDUS_clean_linker_0, # of connection points: 2
#     Edge 55, Type (0, 1), BuildingBlock: CIFDUS_clean_linker_0, # of connection points: 2
#     Edge 56, Type (0, 1), BuildingBlock: CIFDUS_clean_linker_0, # of connection points: 2
#     Edge 57, Type (0, 1), BuildingBlock: CIFDUS_clean_linker_0, # of connection points: 2
#     Edge 58, Type (0, 1), BuildingBlock: CIFDUS_clean_linker_0, # of connection points: 2
#     Edge 59, Type (0, 1), BuildingBlock: CIFDUS_clean_linker_0, # of connection points: 2
#     Edge 60, Type (0, 1), BuildingBlock: CIFDUS_clean_linker_0, # of connection points: 2
#     Edge 61, Type (0, 1), BuildingBlock: CIFDUS_clean_linker_0, # of connection points: 2
# Relax obj value: 0.256
# Max RMSD: 0.361
# Mean RMSD: 0.248
data_MOF--net-ocu--node1-VOLQOD_clean_sbu_1--node2-GIZVER_clean_sbu_0--edge1-CIFDUS_clean_linker_0
_symmetry_space_group_name_H-M    P1
_symmetry_Int_Tables_number       1
_symmetry_cell_setting            triclinic
loop_
_symmetry_equiv_pos_as_xyz
'x, y, z'
_cell_length_a     37.605445
_cell_length_b     39.301564
_cell_length_c     27.540523
_cell_angle_alpha  89.779109
_cell_angle_beta   90.506705
_cell_angle_gamma 102.21879
loop_
_atom_site_label
_atom_site_type_symbol
_atom_site_fract_x
_atom_site_fract_y
_atom_site_fract_z
_atom_type_partial_charge
O0 O 0.33092 0.32099 0.29413 0.0
Zn1 Zn 0.28956 0.28358 0.32071 0.0
O2 O 0.26062 0.25674 0.26675 0.0
Zn3 Zn 0.20986 0.26022 0.26966 0.0
Zn4 Zn 0.28021 0.27481 0.20418 0.0
Zn5 Zn 0.2615 0.20734 0.27042 0.0
O6 O 0.17562 0.21403 0.28003 0.0
O7 O 0.21206 0.17648 0.28313 0.0
O8 O 0.25731 0.30905 0.36089 0.0
O9 O 0.20337 0.29067 0.32531 0.0
O10 O 0.19441 0.28312 0.20999 0.0
O11 O 0.24387 0.29417 0.16433 0.0
O12 O 0.29987 0.23874 0.1665 0.0
O13 O 0.31252 0.25119 0.36383 0.0
O14 O 0.28486 0.19081 0.21123 0.0
O15 O 0.29193 0.20041 0.32704 0.0
C16 C 0.3388 0.3308 0.25066 0.0
C17 C 0.18047 0.18319 0.2857 0.0
C18 C 0.21091 0.29579 0.17174 0.0
C19 C 0.22327 0.30854 0.35772 0.0
C20 C 0.29965 0.20661 0.17362 0.0
C21 C 0.31021 0.21839 0.36065 0.0
O22 O 0.32124 0.31545 0.21451 0.0
O23 O 0.73327 0.20525 0.16478 0.0
Zn24 Zn 0.77032 0.23154 0.21582 0.0
O25 O 0.74596 0.25536 0.26466 0.0
Zn26 Zn 0.75862 0.30487 0.25805 0.0
Zn27 Zn 0.6944 0.2435 0.25401 0.0
Zn28 Zn 0.75729 0.24375 0.33122 0.0
O29 O 0.7757 0.32903 0.3202 0.0
O30 O 0.78048 0.28621 0.37107 0.0
O31 O 0.81031 0.26797 0.18288 0.0
O32 O 0.79942 0.31711 0.2132 0.0
O33 O 0.71825 0.32422 0.23097 0.0
O34 O 0.67003 0.28327 0.24834 0.0
O35 O 0.67159 0.21221 0.30492 0.0
O36 O 0.79608 0.1977 0.25101 0.0
O37 O 0.71274 0.21445 0.36398 0.0
O38 O 0.79351 0.21355 0.3284 0.0
C39 C 0.69908 0.20403 0.16099 0.0
C40 C 0.78464 0.3185 0.36127 0.0
C41 C 0.68401 0.31341 0.23256 0.0
C42 C 0.81769 0.30117 0.18626 0.0
C43 C 0.68093 0.20316 0.34652 0.0
C44 C 0.80497 0.19586 0.29569 0.0
O45 O 0.68235 0.21814 0.19228 0.0
O46 O 0.6919 0.70585 0.25922 0.0
Zn47 Zn 0.7324 0.73938 0.29613 0.0
O48 O 0.76752 0.76647 0.24883 0.0
Zn49 Zn 0.81634 0.7602 0.26135 0.0
Zn50 Zn 0.75499 0.75251 0.18174 0.0
Zn51 Zn 0.7689 0.81596 0.25404 0.0
O52 O 0.84919 0.80377 0.28479 0.0
O53 O 0.81843 0.84489 0.26936 0.0
O54 O 0.75863 0.70944 0.33996 0.0
O55 O 0.81558 0.72592 0.31427 0.0
O56 O 0.83793 0.74107 0.20369 0.0
O57 O 0.79394 0.73235 0.1479 0.0
O58 O 0.7373 0.78993 0.14289 0.0
O59 O 0.70946 0.77304 0.33787 0.0
O60 O 0.74646 0.83359 0.19547 0.0
O61 O 0.73855 0.82443 0.30967 0.0
C62 C 0.68857 0.69931 0.21381 0.0
C63 C 0.84691 0.83557 0.28474 0.0
C64 C 0.8257 0.73004 0.16212 0.0
C65 C 0.79221 0.7078 0.34219 0.0
C66 C 0.73458 0.82061 0.15467 0.0
C67 C 0.71626 0.80637 0.33898 0.0
O68 O 0.71154 0.71492 0.18338 0.0
O69 O 0.30133 0.77352 0.33286 0.0
Zn70 Zn 0.2684 0.74007 0.28478 0.0
O71 O 0.24037 0.76558 0.24131 0.0
Zn72 Zn 0.18864 0.74964 0.25052 0.0
Zn73 Zn 0.25102 0.81436 0.25761 0.0
Zn74 Zn 0.25134 0.76035 0.17229 0.0
O75 O 0.1646 0.72695 0.19084 0.0
O76 O 0.20666 0.73561 0.13334 0.0
O77 O 0.23384 0.70229 0.32208 0.0
O78 O 0.18017 0.71174 0.2985 0.0
O79 O 0.16343 0.78599 0.27634 0.0
O80 O 0.20867 0.83205 0.28244 0.0
O81 O 0.27523 0.84303 0.20362 0.0
O82 O 0.29895 0.71432 0.24346 0.0
O83 O 0.27711 0.80644 0.14289 0.0
O84 O 0.28711 0.72915 0.16777 0.0
C85 C 0.30504 0.80647 0.33697 0.0
C86 C 0.1744 0.72277 0.14761 0.0
C87 C 0.17549 0.81752 0.28858 0.0
C88 C 0.19916 0.69483 0.32333 0.0
C89 C 0.28519 0.83689 0.16119 0.0
C90 C 0.30329 0.71267 0.19766 0.0
O91 O 0.28743 0.82347 0.31018 0.0
O92 O 0.24551 0.70153 0.66589 0.0
Zn93 Zn 0.27948 0.73203 0.71371 0.0
O94 O 0.25307 0.75182 0.76513 0.0
Zn95 Zn 0.26883 0.80159 0.76924 0.0
Zn96 Zn 0.20188 0.74074 0.74819 0.0
Zn97 Zn 0.26123 0.73464 0.83016 0.0
O98 O 0.29447 0.81858 0.83153 0.0
O99 O 0.28989 0.77128 0.87665 0.0
O100 O 0.31507 0.77008 0.67856 0.0
O101 O 0.30701 0.81588 0.72087 0.0
O102 O 0.229 0.8265 0.7537 0.0
O103 O 0.18237 0.78367 0.73421 0.0
O104 O 0.17429 0.71145 0.80031 0.0
O105 O 0.30897 0.70069 0.74443 0.0
O106 O 0.21461 0.70545 0.85758 0.0
O107 O 0.29476 0.70296 0.82258 0.0
C108 C 0.21097 0.69537 0.6617 0.0
C109 C 0.30204 0.80379 0.87026 0.0
C110 C 0.19645 0.81598 0.73864 0.0
C111 C 0.32323 0.8025 0.68814 0.0
C112 C 0.18233 0.69822 0.84012 0.0
C113 C 0.31187 0.69199 0.78854 0.0
O114 O 0.19194 0.70966 0.68996 0.0
O115 O 0.20184 0.19118 0.76029 0.0
Zn116 Zn 0.24068 0.22604 0.79741 0.0
O117 O 0.27267 0.25686 0.75044 0.0
Zn118 Zn 0.323 0.25486 0.76086 0.0
Zn119 Zn 0.26014 0.24415 0.68271 0.0
Zn120 Zn 0.26912 0.3048 0.75918 0.0
O121 O 0.35399 0.30047 0.77995 0.0
O122 O 0.31631 0.33679 0.77642 0.0
O123 O 0.2711 0.19978 0.84086 0.0
O124 O 0.32705 0.22403 0.81665 0.0
O125 O 0.34366 0.23435 0.70384 0.0
O126 O 0.29894 0.22346 0.64912 0.0
O127 O 0.24238 0.28218 0.64421 0.0
O128 O 0.21333 0.25507 0.83995 0.0
O129 O 0.24628 0.3221 0.70168 0.0
O130 O 0.23579 0.30858 0.81323 0.0
C131 C 0.19594 0.18802 0.71464 0.0
C132 C 0.34761 0.33071 0.78509 0.0
C133 C 0.331 0.22194 0.66309 0.0
C134 C 0.30565 0.20367 0.8445 0.0
C135 C 0.23669 0.31124 0.65915 0.0
C136 C 0.21512 0.2879 0.84156 0.0
O137 O 0.21654 0.20665 0.68412 0.0
O138 O 0.79852 0.27515 0.83196 0.0
Zn139 Zn 0.76614 0.23831 0.7882 0.0
O140 O 0.73892 0.26094 0.73934 0.0
Zn141 Zn 0.68667 0.24424 0.74387 0.0
Zn142 Zn 0.74848 0.31025 0.75042 0.0
Zn143 Zn 0.7539 0.25386 0.67292 0.0
O144 O 0.66639 0.21684 0.68329 0.0
O145 O 0.71363 0.22323 0.63375 0.0
O146 O 0.73079 0.20264 0.82853 0.0
O147 O 0.67845 0.20713 0.79343 0.0
O148 O 0.66017 0.28204 0.76746 0.0
O149 O 0.70473 0.32904 0.76402 0.0
O150 O 0.7775 0.3362 0.69773 0.0
O151 O 0.79839 0.21047 0.75342 0.0
O152 O 0.78075 0.29819 0.63968 0.0
O153 O 0.79065 0.225 0.67655 0.0
C154 C 0.79952 0.30778 0.83534 0.0
C155 C 0.68078 0.20922 0.644 0.0
C156 C 0.67187 0.31482 0.77285 0.0
C157 C 0.69638 0.19279 0.82367 0.0
C158 C 0.78935 0.32893 0.65691 0.0
C159 C 0.80537 0.20891 0.70836 0.0
O160 O 0.78041 0.32263 0.80754 0.0
O161 O 0.82274 0.81432 0.79052 0.0
Zn162 Zn 0.78415 0.77366 0.81663 0.0
O163 O 0.75543 0.74757 0.76203 0.0
Zn164 Zn 0.70489 0.75132 0.76388 0.0
Zn165 Zn 0.77545 0.76586 0.69987 0.0
Zn166 Zn 0.75573 0.69815 0.76491 0.0
O167 O 0.67012 0.70519 0.76953 0.0
O168 O 0.706 0.6673 0.77472 0.0
O169 O 0.75027 0.7948 0.86067 0.0
O170 O 0.69704 0.77838 0.82218 0.0
O171 O 0.69082 0.77595 0.70543 0.0
O172 O 0.73868 0.78219 0.65716 0.0
O173 O 0.79894 0.73145 0.66482 0.0
O174 O 0.81025 0.74095 0.85561 0.0
O175 O 0.78008 0.68255 0.70643 0.0
O176 O 0.78633 0.69011 0.82097 0.0
C177 C 0.82991 0.8249 0.74712 0.0
C178 C 0.67442 0.67417 0.77485 0.0
C179 C 0.70653 0.78598 0.66559 0.0
C180 C 0.71618 0.79398 0.85694 0.0
C181 C 0.79755 0.69907 0.67114 0.0
C182 C 0.80683 0.70793 0.8528 0.0
O183 O 0.81357 0.80855 0.71087 0.0
Co184 Co 0.04471 0.94589 0.50992 0.0
Co185 Co 0.04813 0.97252 0.59444 0.0
Co186 Co 0.00289 0.01215 0.52389 0.0
O187 O 0.0458 0.99115 0.53429 0.0
H188 H 0.06836 0.00734 0.52745 0.0
O189 O 0.96019 0.03344 0.5136 0.0
Co190 Co 0.96338 0.08088 0.53026 0.0
Co191 Co 0.95774 0.04676 0.45005 0.0
H192 H 0.93758 0.01836 0.52322 0.0
O193 O 0.0917 0.96906 0.62061 0.0
O194 O 0.05311 0.92846 0.57635 0.0
O195 O 0.00628 0.96824 0.63476 0.0
O196 O 0.97184 0.98356 0.57579 0.0
O197 O 0.02377 0.04843 0.57192 0.0
O198 O 0.96255 0.12376 0.5475 0.0
O199 O 0.91571 0.07719 0.54302 0.0
O200 O 0.01452 0.09068 0.52361 0.0
O201 O 0.03419 0.04022 0.4717 0.0
O202 O 0.99848 0.04626 0.40902 0.0
O203 O 0.95563 0.09271 0.46039 0.0
O204 O 0.91471 0.05006 0.42246 0.0
C205 C 0.08086 0.92227 0.47724 0.0
C206 C 0.97653 0.94402 0.48389 0.0
C207 C 0.9754 0.97031 0.61769 0.0
C208 C 0.08175 0.93739 0.60443 0.0
C209 C 0.92855 0.10968 0.5547 0.0
C210 C 0.03158 0.0802 0.55894 0.0
C211 C 0.02986 0.04832 0.42733 0.0
C212 C 0.92652 0.0827 0.43325 0.0
O213 O 0.04757 0.90566 0.48435 0.0
O214 O 0.09234 0.95315 0.49602 0.0
O215 O 0.98191 0.97644 0.47516 0.0
O216 O 0.99403 0.9331 0.51815 0.0
Co217 Co 0.55486 0.93696 0.99449 0.0
Co218 Co 0.54857 0.96051 0.07996 0.0
Co219 Co 0.50779 0.00218 0.00657 0.0
O220 O 0.55037 0.98142 0.01974 0.0
H221 H 0.57286 0.99855 0.01695 0.0
O222 O 0.46473 0.02255 0.99477 0.0
Co223 Co 0.46111 0.06701 0.02054 0.0
Co224 Co 0.4631 0.04167 0.93498 0.0
H225 H 0.44236 0.00547 0.99908 0.0
O226 O 0.5909 0.96455 0.11196 0.0
O227 O 0.56335 0.92069 0.06226 0.0
O228 O 0.5035 0.95054 0.11427 0.0
O229 O 0.47498 0.97358 0.05562 0.0
O230 O 0.52651 0.03882 0.0552 0.0
O231 O 0.45278 0.1065 0.04511 0.0
O232 O 0.41264 0.05604 0.03166 0.0
O233 O 0.51359 0.0841 0.01603 0.0
O234 O 0.54017 0.03118 0.95654 0.0
O235 O 0.50661 0.04888 0.89812 0.0
O236 O 0.45133 0.08307 0.95331 0.0
O237 O 0.41897 0.03952 0.90699 0.0
C238 C 0.59714 0.91558 0.97111 0.0
C239 C 0.48057 0.93343 0.96983 0.0
C240 C 0.47474 0.95648 0.095 0.0
C241 C 0.59076 0.93506 0.09053 0.0
C242 C 0.41971 0.08807 0.04741 0.0
C243 C 0.53529 0.07071 0.04258 0.0
C244 C 0.53707 0.04571 0.91554 0.0
C245 C 0.42233 0.06994 0.92715 0.0
O246 O 0.5638 0.89763 0.97082 0.0
O247 O 0.6038 0.94783 0.98605 0.0
O248 O 0.48938 0.96549 0.9579 0.0
O249 O 0.50197 0.91979 0.99665 0.0
Co250 Co 0.04907 0.42914 0.98014 0.0
Co251 Co 0.05298 0.45605 0.0666 0.0
Co252 Co 0.00183 0.49431 -0.00038 0.0
O253 O 0.04644 0.47411 0.00508 0.0
H254 H 0.06801 0.49128 0.99696 0.0
O255 O 0.95774 0.51519 0.9948 0.0
Co256 Co 0.95976 0.5628 0.01481 0.0
Co257 Co 0.95154 0.53015 0.93167 0.0
H258 H 0.93592 0.49939 0.00558 0.0
O259 O 0.09841 0.44903 0.08864 0.0
O260 O 0.05582 0.41207 0.04617 0.0
O261 O 0.01101 0.44648 0.10698 0.0
O262 O 0.97458 0.46469 0.05272 0.0
O263 O 0.0249 0.53143 0.04643 0.0
O264 O 0.95805 0.60519 0.03443 0.0
O265 O 0.912 0.5582 0.03094 0.0
O266 O 0.01059 0.57422 0.00308 0.0
O267 O 0.02911 0.52419 0.94653 0.0
O268 O 0.99171 0.53458 0.88797 0.0
O269 O 0.94792 0.57522 0.94745 0.0
O270 O 0.906 0.53368 0.91053 0.0
C271 C 0.0898 0.40615 0.9554 0.0
C272 C 0.97518 0.42451 0.9608 0.0
C273 C 0.9797 0.44886 0.09189 0.0
C274 C 0.08609 0.41832 0.07061 0.0
C275 C 0.92393 0.59119 0.04109 0.0
C276 C 0.0307 0.56363 0.0347 0.0
C277 C 0.02353 0.53671 0.90499 0.0
C278 C 0.91596 0.56522 0.92706 0.0
O279 O 0.05619 0.38897 0.95622 0.0
O280 O 0.0976 0.43848 0.9701 0.0
O281 O 0.97801 0.45707 0.95269 0.0
O282 O 0.99863 0.41356 0.98649 0.0
Co283 Co 0.53998 0.44096 3e-05 0.0
Co284 Co 0.55311 0.47354 0.08078 0.0
Co285 Co 0.5042 0.51136 0.01848 0.0
O286 O 0.54631 0.4886 0.0199 0.0
H287 H 0.56852 0.50328 0.00819 0.0
O288 O 0.46197 0.53369 0.01509 0.0
Co289 Co 0.46619 0.58166 0.02886 0.0
Co290 Co 0.4556 0.54415 0.95101 0.0
H291 H 0.43996 0.51913 0.02758 0.0
O292 O 0.59895 0.4736 0.09772 0.0
O293 O 0.55634 0.42892 0.0658 0.0
O294 O 0.5158 0.4712 0.12898 0.0
O295 O 0.47716 0.48452 0.07439 0.0
O296 O 0.53012 0.54783 0.06363 0.0
O297 O 0.46577 0.6256 0.04359 0.0
O298 O 0.41894 0.57902 0.04359 0.0
O299 O 0.51702 0.5904 0.01882 0.0
O300 O 0.53154 0.53818 0.96294 0.0
O301 O 0.49199 0.54006 0.90367 0.0
O302 O 0.45694 0.59071 0.95903 0.0
O303 O 0.41166 0.5481 0.92851 0.0
C304 C 0.56979 0.41082 0.96471 0.0
C305 C 0.47219 0.44301 0.98487 0.0
C306 C 0.4838 0.47285 0.1161 0.0
C307 C 0.5883 0.44108 0.08545 0.0
C308 C 0.43183 0.61196 0.05251 0.0
C309 C 0.53603 0.57989 0.05191 0.0
C310 C 0.52441 0.54296 0.91846 0.0
C311 C 0.42659 0.58083 0.9346 0.0
O312 O 0.53718 0.39786 0.9799 0.0
O313 O 0.58516 0.44307 0.97529 0.0
O314 O 0.4782 0.47515 0.97376 0.0
O315 O 0.49104 0.43286 0.01844 0.0
Co316 Co 0.07715 0.46389 0.52958 0.0
Co317 Co 0.05463 0.46003 0.4422 0.0
Co318 Co 0.00563 0.50235 0.50302 0.0
O319 O 0.02989 0.46173 0.49943 0.0
H320 H 0.01312 0.43987 0.50534 0.0
O321 O 0.98269 0.5434 0.50732 0.0
Co322 Co 0.93508 0.54484 0.48408 0.0
Co323 Co 0.96624 0.54831 0.56974 0.0
H324 H 0.99981 0.5646 0.4991 0.0
O325 O 0.05614 0.41771 0.41829 0.0
O326 O 0.098 0.45219 0.46643 0.0
O327 O 0.06629 0.50096 0.40402 0.0
O328 O 0.03691 0.53105 0.45216 0.0
O329 O 0.96899 0.47985 0.45371 0.0
O330 O 0.89206 0.55143 0.46173 0.0
O331 O 0.94328 0.59132 0.47746 0.0
O332 O 0.92076 0.49549 0.48597 0.0
O333 O 0.97319 0.47434 0.55315 0.0
O334 O 0.96344 0.50923 0.61268 0.0
O335 O 0.91851 0.54826 0.5519 0.0
O336 O 0.95724 0.59038 0.59234 0.0
C337 C 0.10351 0.43016 0.56408 0.0
C338 C 0.07526 0.53336 0.54316 0.0
C339 C 0.05801 0.52917 0.4167 0.0
C340 C 0.0871 0.42345 0.44148 0.0
C341 C 0.90948 0.58383 0.46258 0.0
C342 C 0.93488 0.47377 0.46256 0.0
C343 C 0.96033 0.47906 0.59473 0.0
C344 C 0.92469 0.57716 0.57642 0.0
O345 O 0.11849 0.46283 0.55891 0.0
O346 O 0.07081 0.41801 0.54666 0.0
O347 O 0.04148 0.52462 0.55282 0.0
O348 O 0.0905 0.51317 0.5183 0.0
Co349 Co 0.56997 0.9525 0.52484 0.0
Co350 Co 0.54641 0.95468 0.43727 0.0
Co351 Co 0.50245 0.99623 0.5046 0.0
O352 O 0.52465 0.95579 0.49606 0.0
H353 H 0.50675 0.93434 0.49965 0.0
O354 O 0.47972 0.03674 0.51297 0.0
Co355 Co 0.43093 0.03579 0.49081 0.0
Co356 Co 0.46288 0.03731 0.5756 0.0
H357 H 0.49623 0.05856 0.5059 0.0
O358 O 0.54632 0.91273 0.41033 0.0
O359 O 0.58988 0.94485 0.45862 0.0
O360 O 0.55461 0.99625 0.39951 0.0
O361 O 0.53527 0.02697 0.45786 0.0
O362 O 0.46748 0.9784 0.45198 0.0
O363 O 0.3874 0.03933 0.47015 0.0
O364 O 0.43643 0.08249 0.48284 0.0
O365 O 0.41864 0.9851 0.49221 0.0
O366 O 0.4699 0.96541 0.55167 0.0
O367 O 0.46284 0.99733 0.61579 0.0
O368 O 0.41594 0.04106 0.5597 0.0
O369 O 0.45893 0.07854 0.60218 0.0
C370 C 0.59068 0.91228 0.5512 0.0
C371 C 0.57156 0.02256 0.5504 0.0
C372 C 0.55144 0.02499 0.4178 0.0
C373 C 0.5779 0.9171 0.43181 0.0
C374 C 0.40232 0.07235 0.46995 0.0
C375 C 0.43366 0.96894 0.4607 0.0
C376 C 0.46123 0.96802 0.59589 0.0
C377 C 0.42622 0.07021 0.58397 0.0
O378 O 0.61028 0.94387 0.55231 0.0
O379 O 0.55792 0.90634 0.53298 0.0
O380 O 0.5374 0.01388 0.55736 0.0
O381 O 0.58761 0.00361 0.52389 0.0
H382 H 0.181 0.12834 0.34591 0.0
H383 H 0.10958 0.17709 0.25929 0.0
H384 H 0.05666 0.13643 0.29141 0.0
H385 H 0.03057 0.09116 0.34974 0.0
H386 H 0.10136 0.04586 0.44244 0.0
H387 H 0.15463 0.08079 0.40213 0.0
C388 C 0.15386 0.12955 0.3334 0.0
C389 C 0.14915 0.15557 0.30015 0.0
C390 C 0.12346 0.10693 0.35349 0.0
C391 C 0.11384 0.1573 0.28488 0.0
C392 C 0.0836 0.13411 0.30331 0.0
C393 C 0.05762 0.0884 0.36061 0.0
C394 C 0.06195 0.06587 0.39905 0.0
C395 C 0.08804 0.10941 0.33848 0.0
C396 C 0.09726 0.06305 0.41303 0.0
C397 C 0.12773 0.08307 0.39005 0.0
H398 H 0.85567 0.20708 0.36679 0.0
H399 H 0.80622 0.13147 0.25983 0.0
H400 H 0.83966 0.08945 0.2934 0.0
H401 H 0.8802 0.07353 0.35596 0.0
H402 H 0.93365 0.15083 0.45825 0.0
H403 H 0.901 0.19308 0.42405 0.0
C404 C 0.85248 0.18146 0.35063 0.0
C405 C 0.82835 0.17211 0.31129 0.0
C406 C 0.87203 0.15778 0.36971 0.0
C407 C 0.82477 0.13916 0.29007 0.0
C408 C 0.84366 0.11513 0.30945 0.0
C409 C 0.88468 0.0996 0.37087 0.0
C410 C 0.90833 0.10877 0.41085 0.0
C411 C 0.86687 0.124 0.34978 0.0
C412 C 0.9147 0.14293 0.42864 0.0
C413 C 0.89629 0.16712 0.40879 0.0
H414 H 0.89399 0.8213 0.35254 0.0
H415 H 0.86062 0.90667 0.27881 0.0
H416 H 0.89866 0.94798 0.33393 0.0
H417 H 0.93759 0.95919 0.40644 0.0
H418 H 0.96796 0.87319 0.48263 0.0
H419 H 0.93425 0.83258 0.4233 0.0
C420 C 0.89558 0.84899 0.3478 0.0
C421 C 0.87464 0.86094 0.3115 0.0
C422 C 0.91629 0.87235 0.38065 0.0
C423 C 0.87658 0.89687 0.30639 0.0
C424 C 0.89808 0.92043 0.3381 0.0
C425 C 0.93687 0.93156 0.41011 0.0
C426 C 0.95514 0.91923 0.44905 0.0
C427 C 0.91732 0.90835 0.37605 0.0
C428 C 0.95395 0.88336 0.45321 0.0
C429 C 0.93485 0.86014 0.41916 0.0
H430 H 0.1967 0.87642 0.34207 0.0
H431 H 0.1019 0.79889 0.30036 0.0
H432 H 0.06481 0.82409 0.3565 0.0
H433 H 0.05979 0.86635 0.41924 0.0
H434 H 0.15414 0.94401 0.46171 0.0
H435 H 0.19122 0.91999 0.4037 0.0
C436 C 0.16781 0.86531 0.34465 0.0
C437 C 0.15209 0.8358 0.31695 0.0
C438 C 0.14679 0.87948 0.37772 0.0
C439 C 0.11468 0.8216 0.32117 0.0
C440 C 0.0935 0.83585 0.35349 0.0
C441 C 0.08855 0.87792 0.41623 0.0
C442 C 0.1043 0.90671 0.44514 0.0
C443 C 0.10942 0.86437 0.38247 0.0
C444 C 0.14145 0.92167 0.44013 0.0
C445 C 0.16258 0.90807 0.40681 0.0
H446 H 0.14057 0.80622 0.67366 0.0
H447 H 0.2079 0.88438 0.76364 0.0
H448 H 0.17885 0.92893 0.72888 0.0
H449 H 0.13567 0.94583 0.67196 0.0
H450 H 0.06901 0.86831 0.58028 0.0
H451 H 0.09699 0.82333 0.61632 0.0
C452 C 0.14852 0.83292 0.68613 0.0
C453 C 0.17618 0.84199 0.72136 0.0
C454 C 0.13227 0.85853 0.66524 0.0
C455 C 0.18662 0.87677 0.73661 0.0
C456 C 0.17015 0.90226 0.71663 0.0
C457 C 0.12729 0.91915 0.65959 0.0
C458 C 0.10024 0.91046 0.62351 0.0
C459 C 0.14327 0.89348 0.68058 0.0
C460 C 0.08976 0.87571 0.60804 0.0
C461 C 0.10564 0.84995 0.62875 0.0
H462 H 0.16166 0.19658 0.63149 0.0
H463 H 0.15688 0.12691 0.75387 0.0
H464 H 0.10492 0.08695 0.71602 0.0
H465 H 0.06253 0.07155 0.6465 0.0
H466 H 0.06786 0.14313 0.52598 0.0
H467 H 0.11852 0.18283 0.56496 0.0
C468 C 0.14939 0.17258 0.64999 0.0
C469 C 0.16333 0.16434 0.69504 0.0
C470 C 0.11986 0.15019 0.62828 0.0
C471 C 0.1466 0.13365 0.71907 0.0
C472 C 0.11708 0.11085 0.69735 0.0
C473 C 0.07484 0.09584 0.62881 0.0
C474 C 0.06169 0.10433 0.58326 0.0
C475 C 0.10377 0.11875 0.65169 0.0
C476 C 0.07751 0.13603 0.56099 0.0
C477 C 0.10647 0.15871 0.58321 0.0
H478 H 0.85302 0.22476 0.63639 0.0
H479 H 0.81048 0.14361 0.73898 0.0
H480 H 0.84266 0.10393 0.69736 0.0
H481 H 0.8814 0.09222 0.62925 0.0
H482 H 0.92716 0.17619 0.53226 0.0
H483 H 0.8942 0.21466 0.57307 0.0
C484 C 0.85119 0.19848 0.64999 0.0
C485 C 0.82958 0.18696 0.69048 0.0
C486 C 0.86947 0.17614 0.62598 0.0
C487 C 0.82744 0.15305 0.70812 0.0
C488 C 0.8454 0.13031 0.68396 0.0
C489 C 0.8835 0.11878 0.61678 0.0
C490 C 0.90551 0.13111 0.57677 0.0
C491 C 0.86599 0.14142 0.64226 0.0
C492 C 0.9094 0.16588 0.56192 0.0
C493 C 0.89099 0.18803 0.58567 0.0
H494 H 0.82856 0.87097 0.67512 0.0
H495 H 0.89387 0.84966 0.79633 0.0
H496 H 0.94404 0.89659 0.77 0.0
H497 H 0.97138 0.93838 0.70662 0.0
H498 H 0.90497 0.9589 0.58557 0.0
H499 H 0.85293 0.91796 0.61839 0.0
C500 C 0.85365 0.87692 0.69615 0.0
C501 C 0.85787 0.8566 0.73709 0.0
C502 C 0.88216 0.90367 0.68071 0.0
C503 C 0.89012 0.86493 0.7646 0.0
C504 C 0.91881 0.8916 0.74937 0.0
C505 C 0.94537 0.93442 0.68782 0.0
C506 C 0.94241 0.95135 0.64313 0.0
C507 C 0.91549 0.91041 0.7066 0.0
C508 C 0.90828 0.94614 0.61974 0.0
C509 C 0.87847 0.92254 0.63835 0.0
H510 H 0.29659 0.13655 0.16615 0.0
H511 H 0.34987 0.23583 0.10634 0.0
H512 H 0.39031 0.20758 0.05994 0.0
H513 H 0.4144 0.1556 0.04213 0.0
H514 H 0.35993 0.05578 0.09819 0.0
H515 H 0.3161 0.08325 0.1401 0.0
C516 C 0.31678 0.15197 0.14256 0.0
C517 C 0.3204 0.18839 0.14038 0.0
C518 C 0.34001 0.1355 0.11566 0.0
C519 C 0.34643 0.20782 0.10901 0.0
C520 C 0.36977 0.19171 0.08257 0.0
C521 C 0.39272 0.13984 0.06322 0.0
C522 C 0.39069 0.10383 0.06778 0.0
C523 C 0.36742 0.15573 0.08658 0.0
C524 C 0.36209 0.08359 0.09434 0.0
C525 C 0.33714 0.09931 0.11844 0.0
H526 H 0.82658 0.36858 0.16125 0.0
H527 H 0.88102 0.28234 0.15946 0.0
H528 H 0.93744 0.32169 0.1338 0.0
H529 H 0.97149 0.38113 0.11491 0.0
H530 H 0.9156 0.46627 0.11342 0.0
H531 H 0.85939 0.42685 0.13912 0.0
C532 C 0.85072 0.35827 0.15488 0.0
C533 C 0.84977 0.32266 0.16245 0.0
C534 C 0.88285 0.38099 0.14093 0.0
C535 C 0.88105 0.3096 0.15347 0.0
C536 C 0.91336 0.33216 0.13945 0.0
C537 C 0.94712 0.39106 0.12132 0.0
C538 C 0.94766 0.4266 0.11397 0.0
C539 C 0.9147 0.36799 0.13403 0.0
C540 C 0.91577 0.43911 0.12014 0.0
C541 C 0.88369 0.41656 0.13424 0.0
H542 H 0.73337 0.88894 0.1587 0.0
H543 H 0.68196 0.79368 0.08689 0.0
H544 H 0.63313 0.82119 0.05749 0.0
H545 H 0.60064 0.87016 0.06255 0.0
H546 H 0.6537 0.96442 0.13628 0.0
H547 H 0.70547 0.93915 0.15522 0.0
C548 C 0.71189 0.87432 0.13581 0.0
C549 C 0.71113 0.83919 0.12569 0.0
C550 C 0.68345 0.88986 0.12042 0.0
C551 C 0.6833 0.82082 0.09534 0.0
C552 C 0.65505 0.83641 0.07902 0.0
C553 C 0.62371 0.88524 0.08223 0.0
C554 C 0.62272 0.91896 0.09861 0.0
C555 C 0.65405 0.87053 0.09306 0.0
C556 C 0.65309 0.93818 0.12388 0.0
C557 C 0.68303 0.92386 0.13458 0.0
H558 H 0.13735 0.66091 0.17758 0.0
H559 H 0.15735 0.72594 0.05022 0.0
H560 H 0.11437 0.68193 0.00328 0.0
H561 H 0.06947 0.62552 0.00024 0.0
H562 H 0.05493 0.55927 0.12704 0.0
H563 H 0.09763 0.60327 0.17269 0.0
C564 C 0.13215 0.66553 0.13954 0.0
C565 C 0.14968 0.69685 0.1175 0.0
C566 C 0.10851 0.63989 0.1129 0.0
C567 C 0.14373 0.70214 0.06794 0.0
C568 C 0.11922 0.67702 0.04126 0.0
C569 C 0.07588 0.62073 0.03779 0.0
C570 C 0.05885 0.58933 0.06046 0.0
C571 C 0.1012 0.6459 0.06357 0.0
C572 C 0.0677 0.58318 0.10884 0.0
C573 C 0.09198 0.60837 0.135 0.0
H574 H 0.3282 0.87355 0.87133 0.0
H575 H 0.34204 0.77891 0.94157 0.0
H576 H 0.39805 0.81057 0.98079 0.0
H577 H 0.44686 0.86452 0.98812 0.0
H578 H 0.43128 0.95775 0.9146 0.0
H579 H 0.37294 0.92719 0.88376 0.0
C580 C 0.34304 0.8598 0.89583 0.0
C581 C 0.33086 0.82376 0.90299 0.0
C582 C 0.37567 0.87788 0.91708 0.0
C583 C 0.35054 0.80666 0.93532 0.0
C584 C 0.3829 0.82472 0.95739 0.0
C585 C 0.43067 0.8781 0.96542 0.0
C586 C 0.44421 0.9134 0.95321 0.0
C587 C 0.39643 0.86019 0.94729 0.0
C588 C 0.42228 0.93058 0.92432 0.0
C589 C 0.38858 0.91314 0.90662 0.0
H590 H 0.22438 0.35495 0.87049 0.0
H591 H 0.1504 0.25515 0.88248 0.0
H592 H 0.10553 0.28299 0.92126 0.0
H593 H 0.08535 0.3365 0.94435 0.0
H594 H 0.15982 0.43604 0.93174 0.0
H595 H 0.20652 0.40739 0.90043 0.0
C596 C 0.1986 0.33914 0.88208 0.0
C597 C 0.1906 0.30302 0.87304 0.0
C598 C 0.17286 0.35536 0.90359 0.0
C599 C 0.15729 0.28294 0.889 0.0
C600 C 0.13152 0.29892 0.91079 0.0
C601 C 0.11183 0.35194 0.93484 0.0
C602 C 0.11884 0.38849 0.93946 0.0
C603 C 0.13864 0.33524 0.91698 0.0
C604 C 0.15356 0.40797 0.92805 0.0
C605 C 0.18028 0.39159 0.91016 0.0
H606 H 0.64739 0.14256 0.7822 0.0
H607 H 0.70011 0.17295 0.91956 0.0
H608 H 0.65763 0.12516 0.9601 0.0
H609 H 0.60042 0.08006 0.95678 0.0
H610 H 0.54675 0.05367 0.81862 0.0
H611 H 0.5953 0.09424 0.77751 0.0
C612 C 0.64988 0.13842 0.82099 0.0
C613 C 0.67622 0.16136 0.84821 0.0
C614 C 0.62524 0.11166 0.84361 0.0
C615 C 0.67984 0.15553 0.89811 0.0
C616 C 0.65548 0.12839 0.92114 0.0
C617 C 0.59997 0.08259 0.91757 0.0
C618 C 0.57005 0.06414 0.89061 0.0
C619 C 0.62735 0.10698 0.89438 0.0
C620 C 0.56944 0.06779 0.83995 0.0
C621 C 0.59707 0.09104 0.81653 0.0
H622 H 0.78897 0.64098 0.88019 0.0
H623 H 0.87554 0.7321 0.89131 0.0
H624 H 0.91704 0.69593 0.92125 0.0
H625 H 0.93055 0.63685 0.93181 0.0
H626 H 0.84309 0.54667 0.91463 0.0
H627 H 0.80029 0.58395 0.89943 0.0
C628 C 0.81678 0.6531 0.89 0.0
C629 C 0.82932 0.68905 0.88283 0.0
C630 C 0.84056 0.63211 0.90516 0.0
C631 C 0.8652 0.70445 0.8965 0.0
C632 C 0.88903 0.68369 0.91304 0.0
C633 C 0.90206 0.62548 0.92521 0.0
C634 C 0.89025 0.58897 0.92311 0.0
C635 C 0.87739 0.64724 0.91548 0.0
C636 C 0.85314 0.57461 0.91524 0.0
C637 C 0.82852 0.59592 0.90679 0.0
H638 H 0.13884 0.288 0.15193 0.0
H639 H 0.24365 0.35336 0.12125 0.0
H640 H 0.21419 0.39695 0.08427 0.0
H641 H 0.15845 0.41955 0.07009 0.0
H642 H 0.05378 0.35264 0.09604 0.0
H643 H 0.08323 0.30651 0.12522 0.0
C644 C 0.15516 0.31147 0.1362 0.0
C645 C 0.19327 0.31769 0.13983 0.0
C646 C 0.13807 0.33635 0.11485 0.0
C647 C 0.21422 0.34796 0.11881 0.0
C648 C 0.1974 0.37306 0.09807 0.0
C649 C 0.14226 0.39469 0.08174 0.0
C650 C 0.1042 0.38956 0.08212 0.0
C651 C 0.15937 0.36806 0.09748 0.0
C652 C 0.08323 0.35711 0.09596 0.0
C653 C 0.10002 0.3308 0.1127 0.0
H654 H 0.12292 0.66065 0.79486 0.0
H655 H 0.18154 0.66941 0.93137 0.0
H656 H 0.13964 0.61731 0.96137 0.0
H657 H 0.08622 0.56998 0.94874 0.0
H658 H 0.02757 0.56219 0.81225 0.0
H659 H 0.07088 0.61279 0.78151 0.0
C660 C 0.1264 0.65154 0.83147 0.0
C661 C 0.1551 0.66923 0.8611 0.0
C662 C 0.10284 0.6213 0.84793 0.0
C663 C 0.15951 0.65648 0.908 0.0
C664 C 0.13576 0.62655 0.92498 0.0
C665 C 0.08323 0.57887 0.9119 0.0
C666 C 0.05366 0.56219 0.88274 0.0
C667 C 0.10748 0.60866 0.89509 0.0
C668 C 0.0501 0.57441 0.83533 0.0
C669 C 0.07463 0.60355 0.81795 0.0
H670 H 0.29173 0.1335 0.85167 0.0
H671 H 0.35978 0.22692 0.90915 0.0
H672 H 0.40067 0.19296 0.94566 0.0
H673 H 0.42234 0.13798 0.94921 0.0
H674 H 0.35573 0.04526 0.88654 0.0
H675 H 0.30951 0.07741 0.86406 0.0
C676 C 0.31477 0.14613 0.87374 0.0
C677 C 0.32266 0.18247 0.87815 0.0
C678 C 0.33919 0.12664 0.8924 0.0
C679 C 0.3531 0.19881 0.90574 0.0
C680 C 0.37672 0.17948 0.92608 0.0
C681 C 0.39751 0.12474 0.93124 0.0
C682 C 0.39303 0.08943 0.9187 0.0
C683 C 0.37097 0.14356 0.91768 0.0
C684 C 0.36042 0.07262 0.89581 0.0
C685 C 0.33375 0.09094 0.88304 0.0
H686 H 0.86324 0.29591 0.87355 0.0
H687 H 0.79588 0.37214 0.86765 0.0
H688 H 0.84404 0.41525 0.90559 0.0
H689 H 0.90723 0.43297 0.93506 0.0
H690 H 0.97429 0.35656 0.94234 0.0
H691 H 0.92472 0.31232 0.9093 0.0
C692 C 0.85883 0.32168 0.88159 0.0
C693 C 0.82608 0.33073 0.86741 0.0
C694 C 0.88695 0.34672 0.90291 0.0
C695 C 0.82094 0.36445 0.87783 0.0
C696 C 0.84857 0.38928 0.89933 0.0
C697 C 0.91094 0.40666 0.92928 0.0
C698 C 0.94452 0.39826 0.94059 0.0
C699 C 0.88207 0.38104 0.91084 0.0
C700 C 0.94872 0.36383 0.93377 0.0
C701 C 0.92035 0.3384 0.91492 0.0
H702 H 0.73027 0.86274 0.88201 0.0
H703 H 0.65773 0.76401 0.90872 0.0
H704 H 0.61555 0.79315 0.95036 0.0
H705 H 0.59543 0.84662 0.96888 0.0
H706 H 0.66616 0.94626 0.9415 0.0
H707 H 0.71288 0.91706 0.91041 0.0
C708 C 0.70579 0.84771 0.89843 0.0
C709 C 0.69708 0.81131 0.89268 0.0
C710 C 0.68092 0.86485 0.92095 0.0
C711 C 0.66497 0.79203 0.9131 0.0
C712 C 0.64071 0.80869 0.93645 0.0
C713 C 0.62113 0.86202 0.95631 0.0
C714 C 0.62698 0.89855 0.95638 0.0
C715 C 0.6477 0.8451 0.93877 0.0
C716 C 0.66081 0.91808 0.94124 0.0
C717 C 0.68753 0.90137 0.92349 0.0
H718 H 0.80266 0.67011 0.11072 0.0
H719 H 0.89868 0.74642 0.15039 0.0
H720 H 0.93718 0.71065 0.11423 0.0
H721 H 0.94387 0.65612 0.07768 0.0
H722 H 0.84893 0.57727 0.04168 0.0
H723 H 0.80961 0.61543 0.07032 0.0
C724 C 0.83197 0.67916 0.11038 0.0
C725 C 0.84788 0.711 0.1328 0.0
C726 C 0.85408 0.65771 0.09112 0.0
C727 C 0.88589 0.72212 0.13315 0.0
C728 C 0.90789 0.70158 0.11275 0.0
C729 C 0.91456 0.64717 0.07588 0.0
C730 C 0.8994 0.61365 0.05809 0.0
C731 C 0.89233 0.66901 0.09278 0.0
C732 C 0.86134 0.6027 0.05594 0.0
C733 C 0.83886 0.62462 0.07204 0.0
H734 H 0.33781 0.87993 0.20976 0.0
H735 H 0.2996 0.85091 0.06444 0.0
H736 H 0.35414 0.88936 0.0311 0.0
H737 H 0.41457 0.92722 0.04438 0.0
H738 H 0.45599 0.94786 0.19024 0.0
H739 H 0.39772 0.9167 0.22289 0.0
C740 C 0.34091 0.8826 0.1707 0.0
C741 C 0.31445 0.86324 0.13942 0.0
C742 C 0.37299 0.90289 0.15226 0.0
C743 C 0.31944 0.86598 0.08903 0.0
C744 C 0.35064 0.88774 0.07013 0.0
C745 C 0.41066 0.92506 0.08329 0.0
C746 C 0.43927 0.93976 0.11506 0.0
C747 C 0.37789 0.90569 0.10153 0.0
C748 C 0.43424 0.93662 0.16534 0.0
C749 C 0.40103 0.91889 0.18387 0.0
H750 H 0.68571 0.13456 0.14452 0.0
H751 H 0.65863 0.22985 0.09443 0.0
H752 H 0.60657 0.19695 0.04869 0.0
H753 H 0.56357 0.14108 0.03286 0.0
H754 H 0.58942 0.04606 0.08785 0.0
H755 H 0.64651 0.0785 0.1212 0.0
C756 C 0.66924 0.14797 0.12194 0.0
C757 C 0.67637 0.1845 0.12201 0.0
C758 C 0.63828 0.12885 0.09759 0.0
C759 C 0.65404 0.20168 0.09406 0.0
C760 C 0.62395 0.18287 0.06845 0.0
C761 C 0.58187 0.12745 0.05165 0.0
C762 C 0.57158 0.09117 0.05848 0.0
C763 C 0.61489 0.14642 0.07156 0.0
C764 C 0.59602 0.07401 0.08261 0.0
C765 C 0.62895 0.09254 0.10168 0.0
H766 H 0.67351 0.6153 0.82706 0.0
H767 H 0.60337 0.67217 0.75179 0.0
H768 H 0.54982 0.6326 0.78425 0.0
H769 H 0.52343 0.5869 0.8424 0.0
H770 H 0.59399 0.5337 0.92347 0.0
H771 H 0.64676 0.56637 0.88002 0.0
C772 C 0.64649 0.61853 0.81686 0.0
C773 C 0.6424 0.64669 0.78724 0.0
C774 C 0.61587 0.59651 0.83716 0.0
C775 C 0.60721 0.65079 0.77478 0.0
C776 C 0.57658 0.62823 0.79342 0.0
C777 C 0.55025 0.58189 0.84968 0.0
C778 C 0.55487 0.55804 0.88616 0.0
C779 C 0.58062 0.60172 0.82591 0.0
C780 C 0.58983 0.5521 0.89571 0.0
C781 C 0.62001 0.57083 0.87097 0.0
H782 H 0.36311 0.70563 0.85682 0.0
H783 H 0.31441 0.62855 0.7515 0.0
H784 H 0.34705 0.58665 0.78763 0.0
H785 H 0.38431 0.57098 0.8542 0.0
H786 H 0.43587 0.64944 0.95617 0.0
H787 H 0.40673 0.69227 0.9166 0.0
C788 C 0.36032 0.6798 0.84138 0.0
C789 C 0.33651 0.66964 0.80223 0.0
C790 C 0.37886 0.65624 0.8623 0.0
C791 C 0.33294 0.63656 0.78168 0.0
C792 C 0.35121 0.61268 0.80257 0.0
C793 C 0.38908 0.59745 0.86776 0.0
C794 C 0.41083 0.60694 0.90923 0.0
C795 C 0.37331 0.62199 0.8438 0.0
C796 C 0.41809 0.6415 0.92538 0.0
C797 C 0.40178 0.66596 0.9025 0.0
H798 H 0.39378 0.31814 0.8543 0.0
H799 H 0.35878 0.40155 0.77808 0.0
H800 H 0.39508 0.44406 0.83357 0.0
H801 H 0.43324 0.45662 0.90659 0.0
H802 H 0.46346 0.37212 0.98665 0.0
H803 H 0.43179 0.33061 0.92697 0.0
C804 C 0.39479 0.34571 0.8491 0.0
C805 C 0.37418 0.3569 0.81184 0.0
C806 C 0.41412 0.36957 0.88238 0.0
C807 C 0.37483 0.39253 0.80629 0.0
C808 C 0.39525 0.41669 0.83821 0.0
C809 C 0.43293 0.42912 0.91105 0.0
C810 C 0.45097 0.41753 0.95082 0.0
C811 C 0.41432 0.40537 0.87699 0.0
C812 C 0.45 0.38178 0.95625 0.0
C813 C 0.43201 0.35804 0.92207 0.0
H814 H 0.62074 0.29442 0.84241 0.0
H815 H 0.67618 0.38442 0.76258 0.0
H816 H 0.65154 0.42262 0.81673 0.0
H817 H 0.6166 0.43083 0.88972 0.0
H818 H 0.56119 0.34069 0.96926 0.0
H819 H 0.58399 0.30244 0.91328 0.0
C820 C 0.62661 0.32231 0.83609 0.0
C821 C 0.64998 0.33647 0.79819 0.0
C822 C 0.61321 0.34427 0.86832 0.0
C823 C 0.658 0.3728 0.79126 0.0
C824 C 0.64426 0.39473 0.82256 0.0
C825 C 0.61004 0.40286 0.89511 0.0
C826 C 0.58772 0.38867 0.93399 0.0
C827 C 0.62253 0.38085 0.86196 0.0
C828 C 0.57863 0.35229 0.93984 0.0
C829 C 0.59142 0.33034 0.90762 0.0
H830 H 0.70562 0.37067 0.17764 0.0
H831 H 0.60965 0.3014 0.23304 0.0
H832 H 0.57104 0.33246 0.18619 0.0
H833 H 0.56492 0.38029 0.13121 0.0
H834 H 0.66113 0.45039 0.07902 0.0
H835 H 0.69969 0.41697 0.1217 0.0
C836 C 0.67626 0.36248 0.17992 0.0
C837 C 0.66048 0.33403 0.20901 0.0
C838 C 0.65444 0.38 0.1526 0.0
C839 C 0.6224 0.32348 0.21109 0.0
C840 C 0.60035 0.34098 0.18406 0.0
C841 C 0.59432 0.38756 0.12838 0.0
C842 C 0.61052 0.41724 0.10208 0.0
C843 C 0.61612 0.36918 0.15458 0.0
C844 C 0.64847 0.42729 0.09912 0.0
C845 C 0.67037 0.40849 0.12378 0.0
H846 H 0.65938 0.70227 0.12554 0.0
H847 H 0.647 0.64081 0.25681 0.0
H848 H 0.59865 0.5974 0.2175 0.0
H849 H 0.56173 0.57642 0.14411 0.0
H850 H 0.57446 0.64023 0.01484 0.0
H851 H 0.62164 0.68323 0.05502 0.0
C852 C 0.64615 0.67937 0.14572 0.0
C853 C 0.65696 0.67443 0.19377 0.0
C854 C 0.61883 0.65491 0.12304 0.0
C855 C 0.63906 0.64509 0.21976 0.0
C856 C 0.61168 0.62025 0.19718 0.0
C857 C 0.57504 0.59969 0.12483 0.0
C858 C 0.56496 0.60513 0.07651 0.0
C859 C 0.60171 0.62471 0.14855 0.0
C860 C 0.58183 0.63556 0.05203 0.0
C861 C 0.60873 0.66013 0.07495 0.0
H862 H 0.35024 0.72717 0.12322 0.0
H863 H 0.30718 0.64726 0.22732 0.0
H864 H 0.3408 0.6076 0.18885 0.0
H865 H 0.38236 0.59572 0.12472 0.0
H866 H 0.43135 0.67887 0.02837 0.0
H867 H 0.39518 0.717 0.06383 0.0
C868 C 0.34845 0.70112 0.13758 0.0
C869 C 0.3263 0.69001 0.17783 0.0
C870 C 0.36852 0.67892 0.11611 0.0
C871 C 0.32437 0.65639 0.19655 0.0
C872 C 0.34335 0.63367 0.17434 0.0
C873 C 0.38469 0.62207 0.11127 0.0
C874 C 0.40856 0.63414 0.07295 0.0
C875 C 0.36534 0.64458 0.13386 0.0
C876 C 0.41243 0.66869 0.0569 0.0
C877 C 0.392 0.69063 0.07748 0.0
H878 H 0.33637 0.38257 0.18821 0.0
H879 H 0.40743 0.34604 0.29018 0.0
H880 H 0.45909 0.39057 0.26141 0.0
H881 H 0.48476 0.43467 0.19962 0.0
H882 H 0.41199 0.47093 0.09897 0.0
H883 H 0.36018 0.43221 0.13562 0.0
C884 C 0.3631 0.38481 0.20465 0.0
C885 C 0.36844 0.36097 0.24062 0.0
C886 C 0.39232 0.41029 0.18802 0.0
C887 C 0.40288 0.36423 0.26233 0.0
C888 C 0.43236 0.38951 0.24569 0.0
C889 C 0.45752 0.43468 0.18638 0.0
C890 C 0.4525 0.45525 0.14583 0.0
C891 C 0.42758 0.41199 0.20743 0.0
C892 C 0.41688 0.4551 0.12958 0.0
C893 C 0.38712 0.43284 0.15042 0.0
H894 H 0.78923 0.62953 0.65447 0.0
H895 H 0.85878 0.72906 0.62194 0.0
H896 H 0.90372 0.69997 0.58684 0.0
H897 H 0.92633 0.64626 0.57409 0.0
H898 H 0.85574 0.54672 0.60208 0.0
H899 H 0.80804 0.5757 0.63007 0.0
C900 C 0.81396 0.64482 0.63896 0.0
C901 C 0.82086 0.68139 0.64149 0.0
C902 C 0.83969 0.62792 0.61863 0.0
C903 C 0.85277 0.70088 0.62057 0.0
C904 C 0.87866 0.68427 0.60079 0.0
C905 C 0.90034 0.63103 0.58596 0.0
C906 C 0.89464 0.59457 0.58719 0.0
C907 C 0.87292 0.64785 0.6011 0.0
C908 C 0.86067 0.5749 0.60131 0.0
C909 C 0.8335 0.59144 0.6174 0.0
H910 H 0.36839 0.85579 0.72987 0.0
H911 H 0.3466 0.80107 0.5938 0.0
H912 H 0.39213 0.84647 0.55382 0.0
H913 H 0.43209 0.90486 0.55671 0.0
H914 H 0.44994 0.96019 0.69309 0.0
H915 H 0.41196 0.91078 0.73435 0.0
C916 C 0.37379 0.85364 0.69146 0.0
C917 C 0.35384 0.82575 0.66436 0.0
C918 C 0.39906 0.87987 0.66905 0.0
C919 C 0.36162 0.82258 0.61509 0.0
C920 C 0.38742 0.84854 0.59236 0.0
C921 C 0.42814 0.9059 0.5956 0.0
C922 C 0.44328 0.93633 0.6218 0.0
C923 C 0.40545 0.87781 0.6188 0.0
C924 C 0.43813 0.93724 0.67213 0.0
C925 C 0.41644 0.90906 0.69568 0.0
H926 H 0.21774 0.37099 0.68507 0.0
H927 H 0.20172 0.29426 0.57076 0.0
H928 H 0.15615 0.32248 0.53253 0.0
H929 H 0.11947 0.36863 0.53366 0.0
H930 H 0.13749 0.44408 0.64939 0.0
H931 H 0.18246 0.41551 0.68642 0.0
C932 C 0.2046 0.36032 0.65159 0.0
C933 C 0.21332 0.33048 0.63092 0.0
C934 C 0.17788 0.37587 0.63093 0.0
C935 C 0.19581 0.31735 0.5874 0.0
C936 C 0.16942 0.33324 0.56585 0.0
C937 C 0.13287 0.37827 0.56736 0.0
C938 C 0.12494 0.4081 0.58927 0.0
C939 C 0.15977 0.36224 0.58779 0.0
C940 C 0.14291 0.42089 0.63239 0.0
C941 C 0.16888 0.40482 0.65326 0.0
H942 H 0.61997 0.16179 0.66901 0.0
H943 H 0.70081 0.18486 0.55672 0.0
H944 H 0.67652 0.12825 0.51911 0.0
H945 H 0.63221 0.0709 0.51894 0.0
H946 H 0.55309 0.04945 0.63375 0.0
H947 H 0.57711 0.10606 0.66939 0.0
C948 C 0.63195 0.15492 0.63573 0.0
C949 C 0.66203 0.17804 0.61567 0.0
C950 C 0.61844 0.12202 0.61494 0.0
C951 C 0.67741 0.16795 0.57294 0.0
C952 C 0.66375 0.1353 0.55161 0.0
C953 C 0.62068 0.07849 0.5521 0.0
C954 C 0.59084 0.05569 0.57352 0.0
C955 C 0.63445 0.11182 0.57257 0.0
C956 C 0.57594 0.06632 0.61622 0.0
C957 C 0.58953 0.09889 0.63666 0.0
H958 H 0.85535 0.32626 0.38393 0.0
H959 H 0.76162 0.37068 0.40728 0.0
H960 H 0.80022 0.42202 0.44506 0.0
H961 H 0.86109 0.4568 0.46223 0.0
H962 H 0.95568 0.41484 0.43134 0.0
H963 H 0.91642 0.36005 0.40533 0.0
C964 C 0.84342 0.3468 0.39873 0.0
C965 C 0.80581 0.34468 0.39397 0.0
C966 C 0.86604 0.37695 0.41777 0.0
C967 C 0.7905 0.37172 0.41157 0.0
C968 C 0.81259 0.40114 0.43259 0.0
C969 C 0.87319 0.43562 0.4501 0.0
C970 C 0.91131 0.44012 0.44809 0.0
C971 C 0.8505 0.40451 0.43435 0.0
C972 C 0.92645 0.41231 0.43248 0.0
C973 C 0.90401 0.38089 0.41786 0.0
H974 H 0.64414 0.79144 0.36143 0.0
H975 H 0.74412 0.86606 0.38753 0.0
H976 H 0.71059 0.90584 0.42507 0.0
H977 H 0.65199 0.92305 0.43954 0.0
H978 H 0.55203 0.84955 0.40778 0.0
H979 H 0.58602 0.80612 0.38407 0.0
C980 C 0.65858 0.81595 0.37667 0.0
C981 C 0.69651 0.82576 0.37171 0.0
C982 C 0.63895 0.83943 0.3964 0.0
C983 C 0.71486 0.85793 0.39088 0.0
C984 C 0.69567 0.88083 0.41209 0.0
C985 C 0.63772 0.89736 0.42817 0.0
C986 C 0.59953 0.88992 0.42456 0.0
C987 C 0.65756 0.87249 0.41331 0.0
C988 C 0.58146 0.85634 0.40999 0.0
C989 C 0.60087 0.83132 0.39648 0.0
H990 H 0.12874 0.68087 0.34993 0.0
H991 H 0.2252 0.63769 0.35162 0.0
H992 H 0.189 0.5815 0.37812 0.0
H993 H 0.12938 0.5441 0.3962 0.0
H994 H 0.03359 0.58808 0.39684 0.0
H995 H 0.0701 0.64468 0.37236 0.0
C996 C 0.14198 0.65927 0.35655 0.0
C997 C 0.17954 0.6633 0.34847 0.0
C998 C 0.12099 0.62712 0.3708 0.0
C999 C 0.19637 0.63527 0.35784 0.0
C1000 C 0.17561 0.60307 0.37236 0.0
C1001 C 0.11648 0.56598 0.39004 0.0
C1002 C 0.0788 0.56194 0.39671 0.0
C1003 C 0.1378 0.59854 0.37775 0.0
C1004 C 0.06247 0.59063 0.39075 0.0
C1005 C 0.08334 0.62293 0.37728 0.0
H1006 H 0.28664 0.15389 0.39423 0.0
H1007 H 0.37825 0.24065 0.40157 0.0
H1008 H 0.41507 0.2033 0.44066 0.0
H1009 H 0.42287 0.14367 0.46224 0.0
H1010 H 0.33003 0.05777 0.45051 0.0
H1011 H 0.29217 0.09708 0.42363 0.0
C1012 C 0.31452 0.1648 0.40518 0.0
C1013 C 0.32995 0.1997 0.39456 0.0
C1014 C 0.3355 0.14312 0.426 0.0
C1015 C 0.36583 0.21377 0.40953 0.0
C1016 C 0.38694 0.19232 0.43132 0.0
C1017 C 0.39433 0.13367 0.45399 0.0
C1018 C 0.37964 0.09763 0.45714 0.0
C1019 C 0.37242 0.15656 0.43796 0.0
C1020 C 0.34239 0.08519 0.44738 0.0
C1021 C 0.32054 0.10768 0.43219 0.0
H1022 H 0.63461 0.78589 0.65802 0.0
H1023 H 0.73916 0.8332 0.59814 0.0
H1024 H 0.71193 0.8759 0.55506 0.0
H1025 H 0.65977 0.90383 0.54233 0.0
H1026 H 0.55491 0.85525 0.59958 0.0
H1027 H 0.5809 0.80901 0.6361 0.0
C1028 C 0.65131 0.80521 0.63493 0.0
C1029 C 0.6889 0.80673 0.63187 0.0
C1030 C 0.63556 0.82979 0.61058 0.0
C1031 C 0.71014 0.83151 0.60119 0.0
C1032 C 0.69467 0.85615 0.57689 0.0
C1033 C 0.64271 0.88297 0.56267 0.0
C1034 C 0.60581 0.88314 0.56944 0.0
C1035 C 0.65769 0.85624 0.58271 0.0
C1036 C 0.58353 0.85565 0.59451 0.0
C1037 C 0.59836 0.82929 0.61534 0.0
H1038 H 0.64845 0.14597 0.3007 0.0
H1039 H 0.65904 0.19454 0.44172 0.0
H1040 H 0.61524 0.14442 0.4749 0.0
H1041 H 0.57714 0.08587 0.46381 0.0
H1042 H 0.57144 0.03622 0.32345 0.0
H1043 H 0.61058 0.08828 0.28945 0.0
C1044 C 0.64113 0.14554 0.33879 0.0
C1045 C 0.65643 0.17361 0.36894 0.0
C1046 C 0.61727 0.11661 0.35746 0.0
C1047 C 0.6475 0.1729 0.41822 0.0
C1048 C 0.62261 0.1444 0.43699 0.0
C1049 C 0.58416 0.08661 0.42566 0.0
C1050 C 0.57151 0.05739 0.39599 0.0
C1051 C 0.60768 0.11601 0.40695 0.0
C1052 C 0.58098 0.05845 0.34681 0.0
C1053 C 0.60338 0.08806 0.3275 0.0
H1054 H 0.85878 0.71621 0.38287 0.0
H1055 H 0.75547 0.64363 0.374 0.0
H1056 H 0.78233 0.59885 0.41369 0.0
H1057 H 0.83714 0.57885 0.44241 0.0
H1058 H 0.94009 0.65249 0.45014 0.0
H1059 H 0.91134 0.69835 0.41938 0.0
C1060 C 0.84195 0.69072 0.39028 0.0
C1061 C 0.8053 0.68307 0.37503 0.0
C1062 C 0.85768 0.66518 0.41223 0.0
C1063 C 0.78371 0.65016 0.3855 0.0
C1064 C 0.79919 0.62449 0.40774 0.0
C1065 C 0.85324 0.60497 0.43758 0.0
C1066 C 0.89094 0.612 0.4476 0.0
C1067 C 0.83646 0.6314 0.41982 0.0
C1068 C 0.9112 0.64617 0.44212 0.0
C1069 C 0.89476 0.67248 0.42457 0.0
H1070 H 0.36325 0.85354 0.31067 0.0
H1071 H 0.30414 0.80852 0.43651 0.0
H1072 H 0.33832 0.85598 0.48732 0.0
H1073 H 0.38162 0.91369 0.49358 0.0
H1074 H 0.44034 0.95672 0.36587 0.0
H1075 H 0.40937 0.90714 0.31791 0.0
C1076 C 0.35876 0.85357 0.34957 0.0
C1077 C 0.33189 0.82739 0.37015 0.0
C1078 C 0.37767 0.88123 0.37782 0.0
C1079 C 0.32547 0.82798 0.42025 0.0
C1080 C 0.34454 0.85545 0.44902 0.0
C1081 C 0.38732 0.91214 0.45522 0.0
C1082 C 0.41271 0.93909 0.43298 0.0
C1083 C 0.36997 0.88285 0.42786 0.0
C1084 C 0.42062 0.93646 0.38357 0.0
C1085 C 0.40311 0.90804 0.35617 0.0
H1086 H 0.15351 0.29606 0.38588 0.0
H1087 H 0.25404 0.37223 0.39794 0.0
H1088 H 0.22114 0.41439 0.43167 0.0
H1089 H 0.16192 0.43198 0.44569 0.0
H1090 H 0.0623 0.35468 0.42896 0.0
H1091 H 0.09661 0.31074 0.4096 0.0
C1092 C 0.16838 0.3217 0.3967 0.0
C1093 C 0.20602 0.33119 0.3887 0.0
C1094 C 0.14926 0.34586 0.41464 0.0
C1095 C 0.225 0.36429 0.40367 0.0
C1096 C 0.20611 0.38851 0.42252 0.0
C1097 C 0.14791 0.40539 0.43857 0.0
C1098 C 0.10956 0.39682 0.43764 0.0
C1099 C 0.16796 0.38003 0.42631 0.0
C1100 C 0.09174 0.36218 0.42879 0.0
C1101 C 0.11133 0.33693 0.41784 0.0
H1102 H 0.30702 0.15982 0.61702 0.0
H1103 H 0.40386 0.23693 0.65081 0.0
H1104 H 0.44177 0.19719 0.62493 0.0
H1105 H 0.44741 0.13868 0.60332 0.0
H1106 H 0.35164 0.05947 0.57267 0.0
H1107 H 0.31321 0.10185 0.58631 0.0
C1108 C 0.33641 0.16819 0.61724 0.0
C1109 C 0.3527 0.20128 0.63578 0.0
C1110 C 0.35815 0.14457 0.604 0.0
C1111 C 0.39078 0.21163 0.63668 0.0
C1112 C 0.41245 0.18882 0.62225 0.0
C1113 C 0.4181 0.13054 0.59956 0.0
C1114 C 0.40234 0.09569 0.58828 0.0
C1115 C 0.39642 0.15484 0.60779 0.0
C1116 C 0.36441 0.08598 0.58217 0.0
C1117 C 0.34247 0.11025 0.58988 0.0
H1118 H 0.82899 0.38539 0.70157 0.0
H1119 H 0.81884 0.32999 0.56528 0.0
H1120 H 0.87375 0.36984 0.53577 0.0
H1121 H 0.92435 0.42013 0.54953 0.0
H1122 H 0.93348 0.47441 0.68672 0.0
H1123 H 0.87965 0.43379 0.71602 0.0
C1124 C 0.83832 0.38208 0.66507 0.0
C1125 C 0.81944 0.35494 0.63539 0.0
C1126 C 0.87024 0.40419 0.64918 0.0
C1127 C 0.83259 0.35087 0.58864 0.0
C1128 C 0.86415 0.37342 0.57201 0.0
C1129 C 0.91499 0.42278 0.58615 0.0
C1130 C 0.933 0.45036 0.61595 0.0
C1131 C 0.88336 0.39995 0.60224 0.0
C1132 C 0.92025 0.45342 0.66316 0.0
C1133 C 0.88927 0.43044 0.67972 0.0
H1134 H 0.13843 0.6771 0.64374 0.0
H1135 H 0.24029 0.6508 0.60506 0.0
H1136 H 0.20733 0.59937 0.5615 0.0
H1137 H 0.14917 0.55871 0.54145 0.0
H1138 H 0.04809 0.58532 0.58375 0.0
H1139 H 0.08125 0.63956 0.61877 0.0
C1140 C 0.1536 0.66045 0.6253 0.0
C1141 C 0.19185 0.66776 0.62819 0.0
C1142 C 0.13454 0.63057 0.60142 0.0
C1143 C 0.21086 0.64588 0.60361 0.0
C1144 C 0.192 0.61629 0.57892 0.0
C1145 C 0.13443 0.57653 0.55796 0.0
C1146 C 0.09616 0.56755 0.56055 0.0
C1147 C 0.15377 0.60784 0.57873 0.0
C1148 C 0.07752 0.59115 0.58178 0.0
C1149 C 0.09646 0.62233 0.60179 0.0
loop_
_geom_bond_atom_site_label_1
_geom_bond_atom_site_label_2
_geom_bond_distance
_geom_bond_site_symmetry_2
_ccdc_geom_bond_type
O0 Zn1 1.953 . S
O0 C16 1.225 . S
Zn1 O0 1.953 . S
Zn1 O2 1.949 . S
Zn1 O8 1.919 . S
Zn1 O13 1.924 . S
O2 Zn1 1.949 . S
O2 Zn3 1.923 . S
O2 Zn4 1.950 . S
O2 Zn5 1.945 . S
Zn3 O2 1.923 . S
Zn3 O6 1.933 . S
Zn3 O9 1.941 . S
Zn3 O10 1.965 . S
Zn4 O2 1.950 . S
Zn4 O11 1.938 . S
Zn4 O12 1.906 . S
Zn4 O22 1.953 . S
Zn5 O2 1.945 . S
Zn5 O7 1.932 . S
Zn5 O14 1.977 . S
Zn5 O15 1.910 . S
O6 Zn3 1.933 . S
O6 C17 1.226 . S
O7 Zn5 1.932 . S
O7 C17 1.307 . S
O8 Zn1 1.919 . S
O8 C19 1.253 . S
O9 Zn3 1.941 . S
O9 C19 1.283 . S
O10 Zn3 1.965 . S
O10 C18 1.303 . S
O11 Zn4 1.938 . S
O11 C18 1.247 . S
O12 Zn4 1.906 . S
O12 C20 1.304 . S
O13 Zn1 1.924 . S
O13 C21 1.311 . S
O14 Zn5 1.977 . S
O14 C20 1.272 . S
O15 Zn5 1.910 . S
O15 C21 1.231 . S
C16 O0 1.225 . S
C16 O22 1.298 . S
C17 O6 1.226 . S
C17 O7 1.307 . S
C18 O10 1.303 . S
C18 O11 1.247 . S
C19 O8 1.253 . S
C19 O9 1.283 . S
C20 O12 1.304 . S
C20 O14 1.272 . S
C21 O13 1.311 . S
C21 O15 1.231 . S
O22 Zn4 1.953 . S
O22 C16 1.298 . S
O23 Zn24 1.953 . S
O23 C39 1.225 . S
Zn24 O23 1.953 . S
Zn24 O25 1.949 . S
Zn24 O31 1.919 . S
Zn24 O36 1.924 . S
O25 Zn24 1.949 . S
O25 Zn26 1.923 . S
O25 Zn27 1.950 . S
O25 Zn28 1.945 . S
Zn26 O25 1.923 . S
Zn26 O29 1.933 . S
Zn26 O32 1.941 . S
Zn26 O33 1.965 . S
Zn27 O25 1.950 . S
Zn27 O34 1.938 . S
Zn27 O35 1.906 . S
Zn27 O45 1.953 . S
Zn28 O25 1.945 . S
Zn28 O30 1.932 . S
Zn28 O37 1.977 . S
Zn28 O38 1.910 . S
O29 Zn26 1.933 . S
O29 C40 1.226 . S
O30 Zn28 1.932 . S
O30 C40 1.307 . S
O31 Zn24 1.919 . S
O31 C42 1.253 . S
O32 Zn26 1.941 . S
O32 C42 1.283 . S
O33 Zn26 1.965 . S
O33 C41 1.303 . S
O34 Zn27 1.938 . S
O34 C41 1.247 . S
O35 Zn27 1.906 . S
O35 C43 1.304 . S
O36 Zn24 1.924 . S
O36 C44 1.311 . S
O37 Zn28 1.977 . S
O37 C43 1.272 . S
O38 Zn28 1.910 . S
O38 C44 1.231 . S
C39 O23 1.225 . S
C39 O45 1.298 . S
C40 O29 1.226 . S
C40 O30 1.307 . S
C41 O33 1.303 . S
C41 O34 1.247 . S
C42 O31 1.253 . S
C42 O32 1.283 . S
C43 O35 1.304 . S
C43 O37 1.272 . S
C44 O36 1.311 . S
C44 O38 1.231 . S
O45 Zn27 1.953 . S
O45 C39 1.298 . S
O46 Zn47 1.953 . S
O46 C62 1.225 . S
Zn47 O46 1.953 . S
Zn47 O48 1.949 . S
Zn47 O54 1.919 . S
Zn47 O59 1.924 . S
O48 Zn47 1.949 . S
O48 Zn49 1.923 . S
O48 Zn50 1.950 . S
O48 Zn51 1.945 . S
Zn49 O48 1.923 . S
Zn49 O52 1.933 . S
Zn49 O55 1.941 . S
Zn49 O56 1.965 . S
Zn50 O48 1.950 . S
Zn50 O57 1.938 . S
Zn50 O58 1.906 . S
Zn50 O68 1.953 . S
Zn51 O48 1.945 . S
Zn51 O53 1.932 . S
Zn51 O60 1.977 . S
Zn51 O61 1.910 . S
O52 Zn49 1.933 . S
O52 C63 1.226 . S
O53 Zn51 1.932 . S
O53 C63 1.307 . S
O54 Zn47 1.919 . S
O54 C65 1.253 . S
O55 Zn49 1.941 . S
O55 C65 1.283 . S
O56 Zn49 1.965 . S
O56 C64 1.303 . S
O57 Zn50 1.938 . S
O57 C64 1.247 . S
O58 Zn50 1.906 . S
O58 C66 1.304 . S
O59 Zn47 1.924 . S
O59 C67 1.311 . S
O60 Zn51 1.977 . S
O60 C66 1.272 . S
O61 Zn51 1.910 . S
O61 C67 1.231 . S
C62 O46 1.225 . S
C62 O68 1.298 . S
C63 O52 1.226 . S
C63 O53 1.307 . S
C64 O56 1.303 . S
C64 O57 1.247 . S
C65 O54 1.253 . S
C65 O55 1.283 . S
C66 O58 1.304 . S
C66 O60 1.272 . S
C67 O59 1.311 . S
C67 O61 1.231 . S
O68 Zn50 1.953 . S
O68 C62 1.298 . S
O69 Zn70 1.953 . S
O69 C85 1.225 . S
Zn70 O69 1.953 . S
Zn70 O71 1.949 . S
Zn70 O77 1.919 . S
Zn70 O82 1.924 . S
O71 Zn70 1.949 . S
O71 Zn72 1.923 . S
O71 Zn73 1.950 . S
O71 Zn74 1.945 . S
Zn72 O71 1.923 . S
Zn72 O75 1.933 . S
Zn72 O78 1.941 . S
Zn72 O79 1.965 . S
Zn73 O71 1.950 . S
Zn73 O80 1.938 . S
Zn73 O81 1.906 . S
Zn73 O91 1.953 . S
Zn74 O71 1.945 . S
Zn74 O76 1.932 . S
Zn74 O83 1.977 . S
Zn74 O84 1.910 . S
O75 Zn72 1.933 . S
O75 C86 1.226 . S
O76 Zn74 1.932 . S
O76 C86 1.307 . S
O77 Zn70 1.919 . S
O77 C88 1.253 . S
O78 Zn72 1.941 . S
O78 C88 1.283 . S
O79 Zn72 1.965 . S
O79 C87 1.303 . S
O80 Zn73 1.938 . S
O80 C87 1.247 . S
O81 Zn73 1.906 . S
O81 C89 1.304 . S
O82 Zn70 1.924 . S
O82 C90 1.311 . S
O83 Zn74 1.977 . S
O83 C89 1.272 . S
O84 Zn74 1.910 . S
O84 C90 1.231 . S
C85 O69 1.225 . S
C85 O91 1.298 . S
C86 O75 1.226 . S
C86 O76 1.307 . S
C87 O79 1.303 . S
C87 O80 1.247 . S
C88 O77 1.253 . S
C88 O78 1.283 . S
C89 O81 1.304 . S
C89 O83 1.272 . S
C90 O82 1.311 . S
C90 O84 1.231 . S
O91 Zn73 1.953 . S
O91 C85 1.298 . S
O92 Zn93 1.953 . S
O92 C108 1.225 . S
Zn93 O92 1.953 . S
Zn93 O94 1.949 . S
Zn93 O100 1.919 . S
Zn93 O105 1.924 . S
O94 Zn93 1.949 . S
O94 Zn95 1.923 . S
O94 Zn96 1.950 . S
O94 Zn97 1.945 . S
Zn95 O94 1.923 . S
Zn95 O98 1.933 . S
Zn95 O101 1.941 . S
Zn95 O102 1.965 . S
Zn96 O94 1.950 . S
Zn96 O103 1.938 . S
Zn96 O104 1.906 . S
Zn96 O114 1.953 . S
Zn97 O94 1.945 . S
Zn97 O99 1.932 . S
Zn97 O106 1.977 . S
Zn97 O107 1.910 . S
O98 Zn95 1.933 . S
O98 C109 1.226 . S
O99 Zn97 1.932 . S
O99 C109 1.307 . S
O100 Zn93 1.919 . S
O100 C111 1.253 . S
O101 Zn95 1.941 . S
O101 C111 1.283 . S
O102 Zn95 1.965 . S
O102 C110 1.303 . S
O103 Zn96 1.938 . S
O103 C110 1.247 . S
O104 Zn96 1.906 . S
O104 C112 1.304 . S
O105 Zn93 1.924 . S
O105 C113 1.311 . S
O106 Zn97 1.977 . S
O106 C112 1.272 . S
O107 Zn97 1.910 . S
O107 C113 1.231 . S
C108 O92 1.225 . S
C108 O114 1.298 . S
C109 O98 1.226 . S
C109 O99 1.307 . S
C110 O102 1.303 . S
C110 O103 1.247 . S
C111 O100 1.253 . S
C111 O101 1.283 . S
C112 O104 1.304 . S
C112 O106 1.272 . S
C113 O105 1.311 . S
C113 O107 1.231 . S
O114 Zn96 1.953 . S
O114 C108 1.298 . S
O115 Zn116 1.953 . S
O115 C131 1.225 . S
Zn116 O115 1.953 . S
Zn116 O117 1.949 . S
Zn116 O123 1.919 . S
Zn116 O128 1.924 . S
O117 Zn116 1.949 . S
O117 Zn118 1.923 . S
O117 Zn119 1.950 . S
O117 Zn120 1.945 . S
Zn118 O117 1.923 . S
Zn118 O121 1.933 . S
Zn118 O124 1.941 . S
Zn118 O125 1.965 . S
Zn119 O117 1.950 . S
Zn119 O126 1.938 . S
Zn119 O127 1.906 . S
Zn119 O137 1.953 . S
Zn120 O117 1.945 . S
Zn120 O122 1.932 . S
Zn120 O129 1.977 . S
Zn120 O130 1.910 . S
O121 Zn118 1.933 . S
O121 C132 1.226 . S
O122 Zn120 1.932 . S
O122 C132 1.307 . S
O123 Zn116 1.919 . S
O123 C134 1.253 . S
O124 Zn118 1.941 . S
O124 C134 1.283 . S
O125 Zn118 1.965 . S
O125 C133 1.303 . S
O126 Zn119 1.938 . S
O126 C133 1.247 . S
O127 Zn119 1.906 . S
O127 C135 1.304 . S
O128 Zn116 1.924 . S
O128 C136 1.311 . S
O129 Zn120 1.977 . S
O129 C135 1.272 . S
O130 Zn120 1.910 . S
O130 C136 1.231 . S
C131 O115 1.225 . S
C131 O137 1.298 . S
C132 O121 1.226 . S
C132 O122 1.307 . S
C133 O125 1.303 . S
C133 O126 1.247 . S
C134 O123 1.253 . S
C134 O124 1.283 . S
C135 O127 1.304 . S
C135 O129 1.272 . S
C136 O128 1.311 . S
C136 O130 1.231 . S
O137 Zn119 1.953 . S
O137 C131 1.298 . S
O138 Zn139 1.953 . S
O138 C154 1.225 . S
Zn139 O138 1.953 . S
Zn139 O140 1.949 . S
Zn139 O146 1.919 . S
Zn139 O151 1.924 . S
O140 Zn139 1.949 . S
O140 Zn141 1.923 . S
O140 Zn142 1.950 . S
O140 Zn143 1.945 . S
Zn141 O140 1.923 . S
Zn141 O144 1.933 . S
Zn141 O147 1.941 . S
Zn141 O148 1.965 . S
Zn142 O140 1.950 . S
Zn142 O149 1.938 . S
Zn142 O150 1.906 . S
Zn142 O160 1.953 . S
Zn143 O140 1.945 . S
Zn143 O145 1.932 . S
Zn143 O152 1.977 . S
Zn143 O153 1.910 . S
O144 Zn141 1.933 . S
O144 C155 1.226 . S
O145 Zn143 1.932 . S
O145 C155 1.307 . S
O146 Zn139 1.919 . S
O146 C157 1.253 . S
O147 Zn141 1.941 . S
O147 C157 1.283 . S
O148 Zn141 1.965 . S
O148 C156 1.303 . S
O149 Zn142 1.938 . S
O149 C156 1.247 . S
O150 Zn142 1.906 . S
O150 C158 1.304 . S
O151 Zn139 1.924 . S
O151 C159 1.311 . S
O152 Zn143 1.977 . S
O152 C158 1.272 . S
O153 Zn143 1.910 . S
O153 C159 1.231 . S
C154 O138 1.225 . S
C154 O160 1.298 . S
C155 O144 1.226 . S
C155 O145 1.307 . S
C156 O148 1.303 . S
C156 O149 1.247 . S
C157 O146 1.253 . S
C157 O147 1.283 . S
C158 O150 1.304 . S
C158 O152 1.272 . S
C159 O151 1.311 . S
C159 O153 1.231 . S
O160 Zn142 1.953 . S
O160 C154 1.298 . S
O161 Zn162 1.953 . S
O161 C177 1.225 . S
Zn162 O161 1.953 . S
Zn162 O163 1.949 . S
Zn162 O169 1.919 . S
Zn162 O174 1.924 . S
O163 Zn162 1.949 . S
O163 Zn164 1.923 . S
O163 Zn165 1.950 . S
O163 Zn166 1.945 . S
Zn164 O163 1.923 . S
Zn164 O167 1.933 . S
Zn164 O170 1.941 . S
Zn164 O171 1.965 . S
Zn165 O163 1.950 . S
Zn165 O172 1.938 . S
Zn165 O173 1.906 . S
Zn165 O183 1.953 . S
Zn166 O163 1.945 . S
Zn166 O168 1.932 . S
Zn166 O175 1.977 . S
Zn166 O176 1.910 . S
O167 Zn164 1.933 . S
O167 C178 1.226 . S
O168 Zn166 1.932 . S
O168 C178 1.307 . S
O169 Zn162 1.919 . S
O169 C180 1.253 . S
O170 Zn164 1.941 . S
O170 C180 1.283 . S
O171 Zn164 1.965 . S
O171 C179 1.303 . S
O172 Zn165 1.938 . S
O172 C179 1.247 . S
O173 Zn165 1.906 . S
O173 C181 1.304 . S
O174 Zn162 1.924 . S
O174 C182 1.311 . S
O175 Zn166 1.977 . S
O175 C181 1.272 . S
O176 Zn166 1.910 . S
O176 C182 1.231 . S
C177 O161 1.225 . S
C177 O183 1.298 . S
C178 O167 1.226 . S
C178 O168 1.307 . S
C179 O171 1.303 . S
C179 O172 1.247 . S
C180 O169 1.253 . S
C180 O170 1.283 . S
C181 O173 1.304 . S
C181 O175 1.272 . S
C182 O174 1.311 . S
C182 O176 1.231 . S
O183 Zn165 1.953 . S
O183 C177 1.298 . S
Co184 O187 2.042 . S
Co184 O194 2.264 . S
Co184 O213 2.286 . S
Co184 O214 2.069 . S
Co184 O216 2.015 1_455 S
Co185 O187 2.122 . S
Co185 O193 2.073 . S
Co185 O194 2.327 . S
Co185 O195 1.976 1_455 S
Co186 O187 2.087 1_545 S
Co186 O189 2.087 1_455 S
Co186 O196 2.111 1_445 S
Co186 O197 2.143 . S
Co186 O201 2.111 . S
Co186 O215 2.143 1_445 S
O187 Co184 2.042 . S
O187 Co185 2.122 . S
O187 Co186 2.087 1_565 S
O187 H188 0.980 . S
H188 O187 0.980 . S
O189 Co186 2.087 1_655 S
O189 Co190 2.042 . S
O189 Co191 2.122 . S
O189 H192 0.980 . S
Co190 O189 2.042 . S
Co190 O198 2.286 . S
Co190 O199 2.069 . S
Co190 O200 2.015 1_655 S
Co190 O203 2.264 . S
Co191 O189 2.122 . S
Co191 O202 1.976 1_655 S
Co191 O203 2.327 . S
Co191 O204 2.073 . S
H192 O189 0.980 . S
O193 Co185 2.073 . S
O193 C208 1.245 . S
O194 Co184 2.264 . S
O194 Co185 2.327 . S
O194 C208 1.257 . S
O195 Co185 1.976 1_655 S
O195 C207 1.251 . S
O196 Co186 2.111 1_665 S
O196 C207 1.274 . S
O197 Co186 2.143 . S
O197 C210 1.246 . S
O198 Co190 2.286 . S
O198 C209 1.259 . S
O199 Co190 2.069 . S
O199 C209 1.289 . S
O200 Co190 2.015 1_455 S
O200 C210 1.257 . S
O201 Co186 2.111 . S
O201 C211 1.274 . S
O202 Co191 1.976 1_455 S
O202 C211 1.251 . S
O203 Co190 2.264 . S
O203 Co191 2.327 . S
O203 C212 1.257 . S
O204 Co191 2.073 . S
O204 C212 1.245 . S
C205 O213 1.259 . S
C205 O214 1.289 . S
C206 O215 1.246 . S
C206 O216 1.257 . S
C207 O195 1.251 . S
C207 O196 1.274 . S
C208 O193 1.245 . S
C208 O194 1.257 . S
C209 O198 1.259 . S
C209 O199 1.289 . S
C210 O197 1.246 . S
C210 O200 1.257 . S
C211 O201 1.274 . S
C211 O202 1.251 . S
C212 O203 1.257 . S
C212 O204 1.245 . S
O213 Co184 2.286 . S
O213 C205 1.259 . S
O214 Co184 2.069 . S
O214 C205 1.289 . S
O215 Co186 2.143 1_665 S
O215 C206 1.246 . S
O216 Co184 2.015 1_655 S
O216 C206 1.257 . S
Co217 O220 2.042 1_556 S
Co217 O227 2.264 1_556 S
Co217 O246 2.286 . S
Co217 O247 2.069 . S
Co217 O249 2.015 . S
Co218 O220 2.122 . S
Co218 O226 2.073 . S
Co218 O227 2.327 . S
Co218 O228 1.976 . S
Co219 O220 2.087 1_545 S
Co219 O222 2.087 . S
Co219 O229 2.111 1_545 S
Co219 O230 2.143 . S
Co219 O234 2.111 1_554 S
Co219 O248 2.143 1_544 S
O220 Co217 2.042 1_554 S
O220 Co218 2.122 . S
O220 Co219 2.087 1_565 S
O220 H221 0.980 . S
H221 O220 0.980 . S
O222 Co219 2.087 . S
O222 Co223 2.043 . S
O222 Co224 2.122 1_554 S
O222 H225 0.980 1_554 S
Co223 O222 2.043 . S
Co223 O231 2.286 . S
Co223 O232 2.069 . S
Co223 O233 2.015 . S
Co223 O236 2.264 1_554 S
Co224 O222 2.122 1_556 S
Co224 O235 1.976 . S
Co224 O236 2.327 . S
Co224 O237 2.073 . S
H225 O222 0.980 1_556 S
O226 Co218 2.073 . S
O226 C241 1.245 . S
O227 Co217 2.264 1_554 S
O227 Co218 2.327 . S
O227 C241 1.257 . S
O228 Co218 1.976 . S
O228 C240 1.251 . S
O229 Co219 2.111 1_565 S
O229 C240 1.274 . S
O230 Co219 2.143 . S
O230 C243 1.246 . S
O231 Co223 2.286 . S
O231 C242 1.259 . S
O232 Co223 2.069 . S
O232 C242 1.289 . S
O233 Co223 2.015 . S
O233 C243 1.257 . S
O234 Co219 2.111 1_556 S
O234 C244 1.274 . S
O235 Co224 1.976 . S
O235 C244 1.251 . S
O236 Co223 2.264 1_556 S
O236 Co224 2.327 . S
O236 C245 1.257 . S
O237 Co224 2.073 . S
O237 C245 1.245 . S
C238 O246 1.259 . S
C238 O247 1.289 . S
C239 O248 1.246 . S
C239 O249 1.257 . S
C240 O228 1.251 . S
C240 O229 1.274 . S
C241 O226 1.245 . S
C241 O227 1.257 . S
C242 O231 1.259 . S
C242 O232 1.289 . S
C243 O230 1.246 . S
C243 O233 1.257 . S
C244 O234 1.274 . S
C244 O235 1.251 . S
C245 O236 1.257 . S
C245 O237 1.245 . S
O246 Co217 2.286 . S
O246 C238 1.259 . S
O247 Co217 2.069 . S
O247 C238 1.289 . S
O248 Co219 2.143 1_566 S
O248 C239 1.246 . S
O249 Co217 2.015 . S
O249 C239 1.257 . S
Co250 O253 2.042 1_556 S
Co250 O260 2.264 1_556 S
Co250 O279 2.286 . S
Co250 O280 2.069 . S
Co250 O282 2.015 1_455 S
Co251 O253 2.122 . S
Co251 O259 2.073 . S
Co251 O260 2.327 . S
Co251 O261 1.976 1_455 S
Co252 O253 2.087 . S
Co252 O255 2.087 1_454 S
Co252 O262 2.111 1_455 S
Co252 O263 2.143 . S
Co252 O267 2.111 1_554 S
Co252 O281 2.143 1_454 S
O253 Co250 2.042 1_554 S
O253 Co251 2.122 . S
O253 Co252 2.087 . S
O253 H254 0.980 . S
H254 O253 0.980 . S
O255 Co252 2.087 1_656 S
O255 Co256 2.042 1_556 S
O255 Co257 2.122 . S
O255 H258 0.980 . S
Co256 O255 2.042 1_554 S
Co256 O264 2.286 . S
Co256 O265 2.069 . S
Co256 O266 2.015 1_655 S
Co256 O269 2.264 1_554 S
Co257 O255 2.122 . S
Co257 O268 1.976 1_655 S
Co257 O269 2.327 . S
Co257 O270 2.073 . S
H258 O255 0.980 . S
O259 Co251 2.073 . S
O259 C274 1.245 . S
O260 Co250 2.264 1_554 S
O260 Co251 2.327 . S
O260 C274 1.257 . S
O261 Co251 1.976 1_655 S
O261 C273 1.251 . S
O262 Co252 2.111 1_655 S
O262 C273 1.274 . S
O263 Co252 2.143 . S
O263 C276 1.246 . S
O264 Co256 2.286 . S
O264 C275 1.259 . S
O265 Co256 2.069 . S
O265 C275 1.289 . S
O266 Co256 2.015 1_455 S
O266 C276 1.257 . S
O267 Co252 2.111 1_556 S
O267 C277 1.274 . S
O268 Co257 1.976 1_455 S
O268 C277 1.251 . S
O269 Co256 2.264 1_556 S
O269 Co257 2.327 . S
O269 C278 1.257 . S
O270 Co257 2.073 . S
O270 C278 1.245 . S
C271 O279 1.259 . S
C271 O280 1.289 . S
C272 O281 1.246 . S
C272 O282 1.257 . S
C273 O261 1.251 . S
C273 O262 1.274 . S
C274 O259 1.245 . S
C274 O260 1.257 . S
C275 O264 1.259 . S
C275 O265 1.289 . S
C276 O263 1.246 . S
C276 O266 1.257 . S
C277 O267 1.274 . S
C277 O268 1.251 . S
C278 O269 1.257 . S
C278 O270 1.245 . S
O279 Co250 2.286 . S
O279 C271 1.259 . S
O280 Co250 2.069 . S
O280 C271 1.289 . S
O281 Co252 2.143 1_656 S
O281 C272 1.246 . S
O282 Co250 2.015 1_655 S
O282 C272 1.257 . S
Co283 O286 2.042 1_556 S
Co283 O293 2.264 1_556 S
Co283 O312 2.286 . S
Co283 O313 2.069 . S
Co283 O315 2.015 . S
Co284 O286 2.122 . S
Co284 O292 2.073 . S
Co284 O293 2.327 . S
Co284 O294 1.976 . S
Co285 O286 2.087 . S
Co285 O288 2.087 1_554 S
Co285 O295 2.111 . S
Co285 O296 2.143 . S
Co285 O300 2.111 1_554 S
Co285 O314 2.143 1_554 S
O286 Co283 2.042 1_554 S
O286 Co284 2.122 . S
O286 Co285 2.087 . S
O286 H287 0.980 . S
H287 O286 0.980 . S
O288 Co285 2.087 1_556 S
O288 Co289 2.042 1_556 S
O288 Co290 2.122 . S
O288 H291 0.980 . S
Co289 O288 2.042 1_554 S
Co289 O297 2.286 . S
Co289 O298 2.069 . S
Co289 O299 2.015 . S
Co289 O302 2.264 1_554 S
Co290 O288 2.122 . S
Co290 O301 1.976 . S
Co290 O302 2.327 . S
Co290 O303 2.073 . S
H291 O288 0.980 . S
O292 Co284 2.073 . S
O292 C307 1.245 . S
O293 Co283 2.264 1_554 S
O293 Co284 2.327 . S
O293 C307 1.257 . S
O294 Co284 1.976 . S
O294 C306 1.251 . S
O295 Co285 2.111 . S
O295 C306 1.274 . S
O296 Co285 2.143 . S
O296 C309 1.246 . S
O297 Co289 2.286 . S
O297 C308 1.259 . S
O298 Co289 2.069 . S
O298 C308 1.289 . S
O299 Co289 2.015 . S
O299 C309 1.257 . S
O300 Co285 2.111 1_556 S
O300 C310 1.274 . S
O301 Co290 1.976 . S
O301 C310 1.251 . S
O302 Co289 2.264 1_556 S
O302 Co290 2.327 . S
O302 C311 1.257 . S
O303 Co290 2.073 . S
O303 C311 1.245 . S
C304 O312 1.259 . S
C304 O313 1.289 . S
C305 O314 1.246 . S
C305 O315 1.257 . S
C306 O294 1.251 . S
C306 O295 1.274 . S
C307 O292 1.245 . S
C307 O293 1.257 . S
C308 O297 1.259 . S
C308 O298 1.289 . S
C309 O296 1.246 . S
C309 O299 1.257 . S
C310 O300 1.274 . S
C310 O301 1.251 . S
C311 O302 1.257 . S
C311 O303 1.245 . S
O312 Co283 2.286 . S
O312 C304 1.259 . S
O313 Co283 2.069 . S
O313 C304 1.289 . S
O314 Co285 2.143 1_556 S
O314 C305 1.246 . S
O315 Co283 2.015 . S
O315 C305 1.257 . S
Co316 O319 2.042 . S
Co316 O326 2.264 . S
Co316 O345 2.286 . S
Co316 O346 2.069 . S
Co316 O348 2.015 . S
Co317 O319 2.122 . S
Co317 O325 2.073 . S
Co317 O326 2.327 . S
Co317 O327 1.976 . S
Co318 O319 2.087 . S
Co318 O321 2.087 1_455 S
Co318 O328 2.111 . S
Co318 O329 2.143 1_455 S
Co318 O333 2.111 1_455 S
Co318 O347 2.143 . S
O319 Co316 2.042 . S
O319 Co317 2.122 . S
O319 Co318 2.087 . S
O319 H320 0.980 . S
H320 O319 0.980 . S
O321 Co318 2.087 1_655 S
O321 Co322 2.042 . S
O321 Co323 2.122 . S
O321 H324 0.980 . S
Co322 O321 2.042 . S
Co322 O330 2.286 . S
Co322 O331 2.069 . S
Co322 O332 2.015 . S
Co322 O335 2.264 . S
Co323 O321 2.122 . S
Co323 O334 1.976 . S
Co323 O335 2.327 . S
Co323 O336 2.073 . S
H324 O321 0.980 . S
O325 Co317 2.073 . S
O325 C340 1.245 . S
O326 Co316 2.264 . S
O326 Co317 2.327 . S
O326 C340 1.257 . S
O327 Co317 1.976 . S
O327 C339 1.251 . S
O328 Co318 2.111 . S
O328 C339 1.274 . S
O329 Co318 2.143 1_655 S
O329 C342 1.246 . S
O330 Co322 2.286 . S
O330 C341 1.259 . S
O331 Co322 2.069 . S
O331 C341 1.289 . S
O332 Co322 2.015 . S
O332 C342 1.257 . S
O333 Co318 2.111 1_655 S
O333 C343 1.274 . S
O334 Co323 1.976 . S
O334 C343 1.251 . S
O335 Co322 2.264 . S
O335 Co323 2.327 . S
O335 C344 1.257 . S
O336 Co323 2.073 . S
O336 C344 1.245 . S
C337 O345 1.259 . S
C337 O346 1.289 . S
C338 O347 1.246 . S
C338 O348 1.257 . S
C339 O327 1.251 . S
C339 O328 1.274 . S
C340 O325 1.245 . S
C340 O326 1.257 . S
C341 O330 1.259 . S
C341 O331 1.289 . S
C342 O329 1.246 . S
C342 O332 1.257 . S
C343 O333 1.274 . S
C343 O334 1.251 . S
C344 O335 1.257 . S
C344 O336 1.245 . S
O345 Co316 2.286 . S
O345 C337 1.259 . S
O346 Co316 2.069 . S
O346 C337 1.289 . S
O347 Co318 2.143 . S
O347 C338 1.246 . S
O348 Co316 2.015 . S
O348 C338 1.257 . S
Co349 O352 2.042 . S
Co349 O359 2.264 . S
Co349 O378 2.286 . S
Co349 O379 2.069 . S
Co349 O381 2.015 1_565 S
Co350 O352 2.122 . S
Co350 O358 2.073 . S
Co350 O359 2.327 . S
Co350 O360 1.976 1_565 S
Co351 O352 2.087 1_545 S
Co351 O354 2.087 . S
Co351 O361 2.111 . S
Co351 O362 2.143 1_545 S
Co351 O366 2.111 1_545 S
Co351 O380 2.143 . S
O352 Co349 2.042 . S
O352 Co350 2.122 . S
O352 Co351 2.087 1_565 S
O352 H353 0.980 . S
H353 O352 0.980 . S
O354 Co351 2.087 . S
O354 Co355 2.042 . S
O354 Co356 2.122 . S
O354 H357 0.980 . S
Co355 O354 2.042 . S
Co355 O363 2.286 . S
Co355 O364 2.069 . S
Co355 O365 2.015 1_545 S
Co355 O368 2.264 . S
Co356 O354 2.122 . S
Co356 O367 1.976 1_545 S
Co356 O368 2.327 . S
Co356 O369 2.073 . S
H357 O354 0.980 . S
O358 Co350 2.073 . S
O358 C373 1.245 . S
O359 Co349 2.264 . S
O359 Co350 2.327 . S
O359 C373 1.257 . S
O360 Co350 1.976 1_545 S
O360 C372 1.251 . S
O361 Co351 2.111 . S
O361 C372 1.274 . S
O362 Co351 2.143 1_565 S
O362 C375 1.246 . S
O363 Co355 2.286 . S
O363 C374 1.259 . S
O364 Co355 2.069 . S
O364 C374 1.289 . S
O365 Co355 2.015 1_565 S
O365 C375 1.257 . S
O366 Co351 2.111 1_565 S
O366 C376 1.274 . S
O367 Co356 1.976 1_565 S
O367 C376 1.251 . S
O368 Co355 2.264 . S
O368 Co356 2.327 . S
O368 C377 1.257 . S
O369 Co356 2.073 . S
O369 C377 1.245 . S
C370 O378 1.259 . S
C370 O379 1.289 . S
C371 O380 1.246 . S
C371 O381 1.257 . S
C372 O360 1.251 . S
C372 O361 1.274 . S
C373 O358 1.245 . S
C373 O359 1.257 . S
C374 O363 1.259 . S
C374 O364 1.289 . S
C375 O362 1.246 . S
C375 O365 1.257 . S
C376 O366 1.274 . S
C376 O367 1.251 . S
C377 O368 1.257 . S
C377 O369 1.245 . S
O378 Co349 2.286 . S
O378 C370 1.259 . S
O379 Co349 2.069 . S
O379 C370 1.289 . S
O380 Co351 2.143 . S
O380 C371 1.246 . S
O381 Co349 2.015 1_545 S
O381 C371 1.257 . S
H382 C388 0.930 . S
H383 C391 0.930 . S
H384 C392 0.930 . S
H385 C393 0.930 . S
H386 C396 0.930 . S
H387 C397 0.930 . S
C388 H382 0.930 . S
C388 C389 1.355 . S
C388 C390 1.415 . S
C389 C388 1.355 . S
C389 C391 1.419 . S
C390 C388 1.415 . S
C390 C395 1.425 . S
C390 C397 1.409 . S
C391 H383 0.930 . S
C391 C389 1.419 . S
C391 C392 1.362 . S
C392 H384 0.930 . S
C392 C391 1.362 . S
C392 C395 1.409 . S
C393 H385 0.930 . S
C393 C394 1.355 . S
C393 C395 1.415 . S
C394 C393 1.355 . S
C394 C396 1.419 . S
C395 C390 1.425 . S
C395 C392 1.409 . S
C395 C393 1.415 . S
C396 H386 0.930 . S
C396 C394 1.419 . S
C396 C397 1.362 . S
C397 H387 0.930 . S
C397 C390 1.409 . S
C397 C396 1.362 . S
H398 C404 0.930 . S
H399 C407 0.930 . S
H400 C408 0.930 . S
H401 C409 0.930 . S
H402 C412 0.930 . S
H403 C413 0.930 . S
C404 H398 0.930 . S
C404 C405 1.355 . S
C404 C406 1.415 . S
C405 C404 1.355 . S
C405 C407 1.419 . S
C406 C404 1.415 . S
C406 C411 1.425 . S
C406 C413 1.409 . S
C407 H399 0.930 . S
C407 C405 1.419 . S
C407 C408 1.362 . S
C408 H400 0.930 . S
C408 C407 1.362 . S
C408 C411 1.409 . S
C409 H401 0.930 . S
C409 C410 1.355 . S
C409 C411 1.415 . S
C410 C409 1.355 . S
C410 C412 1.419 . S
C411 C406 1.425 . S
C411 C408 1.409 . S
C411 C409 1.415 . S
C412 H402 0.930 . S
C412 C410 1.419 . S
C412 C413 1.362 . S
C413 H403 0.930 . S
C413 C406 1.409 . S
C413 C412 1.362 . S
H414 C420 0.930 . S
H415 C423 0.930 . S
H416 C424 0.930 . S
H417 C425 0.930 . S
H418 C428 0.930 . S
H419 C429 0.930 . S
C420 H414 0.930 . S
C420 C421 1.355 . S
C420 C422 1.415 . S
C421 C420 1.355 . S
C421 C423 1.419 . S
C422 C420 1.415 . S
C422 C427 1.425 . S
C422 C429 1.409 . S
C423 H415 0.930 . S
C423 C421 1.419 . S
C423 C424 1.362 . S
C424 H416 0.930 . S
C424 C423 1.362 . S
C424 C427 1.409 . S
C425 H417 0.930 . S
C425 C426 1.355 . S
C425 C427 1.415 . S
C426 C425 1.355 . S
C426 C428 1.419 . S
C427 C422 1.425 . S
C427 C424 1.409 . S
C427 C425 1.415 . S
C428 H418 0.930 . S
C428 C426 1.419 . S
C428 C429 1.362 . S
C429 H419 0.930 . S
C429 C422 1.409 . S
C429 C428 1.362 . S
H430 C436 0.930 . S
H431 C439 0.930 . S
H432 C440 0.930 . S
H433 C441 0.930 . S
H434 C444 0.930 . S
H435 C445 0.930 . S
C436 H430 0.930 . S
C436 C437 1.355 . S
C436 C438 1.415 . S
C437 C436 1.355 . S
C437 C439 1.419 . S
C438 C436 1.415 . S
C438 C443 1.425 . S
C438 C445 1.409 . S
C439 H431 0.930 . S
C439 C437 1.419 . S
C439 C440 1.362 . S
C440 H432 0.930 . S
C440 C439 1.362 . S
C440 C443 1.409 . S
C441 H433 0.930 . S
C441 C442 1.355 . S
C441 C443 1.415 . S
C442 C441 1.355 . S
C442 C444 1.419 . S
C443 C438 1.425 . S
C443 C440 1.409 . S
C443 C441 1.415 . S
C444 H434 0.930 . S
C444 C442 1.419 . S
C444 C445 1.362 . S
C445 H435 0.930 . S
C445 C438 1.409 . S
C445 C444 1.362 . S
H446 C452 0.930 . S
H447 C455 0.930 . S
H448 C456 0.930 . S
H449 C457 0.930 . S
H450 C460 0.930 . S
H451 C461 0.930 . S
C452 H446 0.930 . S
C452 C453 1.355 . S
C452 C454 1.415 . S
C453 C452 1.355 . S
C453 C455 1.419 . S
C454 C452 1.415 . S
C454 C459 1.425 . S
C454 C461 1.409 . S
C455 H447 0.930 . S
C455 C453 1.419 . S
C455 C456 1.362 . S
C456 H448 0.930 . S
C456 C455 1.362 . S
C456 C459 1.409 . S
C457 H449 0.930 . S
C457 C458 1.355 . S
C457 C459 1.415 . S
C458 C457 1.355 . S
C458 C460 1.419 . S
C459 C454 1.425 . S
C459 C456 1.409 . S
C459 C457 1.415 . S
C460 H450 0.930 . S
C460 C458 1.419 . S
C460 C461 1.362 . S
C461 H451 0.930 . S
C461 C454 1.409 . S
C461 C460 1.362 . S
H462 C468 0.930 . S
H463 C471 0.930 . S
H464 C472 0.930 . S
H465 C473 0.930 . S
H466 C476 0.930 . S
H467 C477 0.930 . S
C468 H462 0.930 . S
C468 C469 1.355 . S
C468 C470 1.415 . S
C469 C468 1.355 . S
C469 C471 1.419 . S
C470 C468 1.415 . S
C470 C475 1.425 . S
C470 C477 1.409 . S
C471 H463 0.930 . S
C471 C469 1.419 . S
C471 C472 1.362 . S
C472 H464 0.930 . S
C472 C471 1.362 . S
C472 C475 1.409 . S
C473 H465 0.930 . S
C473 C474 1.355 . S
C473 C475 1.415 . S
C474 C473 1.355 . S
C474 C476 1.419 . S
C475 C470 1.425 . S
C475 C472 1.409 . S
C475 C473 1.415 . S
C476 H466 0.930 . S
C476 C474 1.419 . S
C476 C477 1.362 . S
C477 H467 0.930 . S
C477 C470 1.409 . S
C477 C476 1.362 . S
H478 C484 0.930 . S
H479 C487 0.930 . S
H480 C488 0.930 . S
H481 C489 0.930 . S
H482 C492 0.930 . S
H483 C493 0.930 . S
C484 H478 0.930 . S
C484 C485 1.355 . S
C484 C486 1.415 . S
C485 C484 1.355 . S
C485 C487 1.419 . S
C486 C484 1.415 . S
C486 C491 1.425 . S
C486 C493 1.409 . S
C487 H479 0.930 . S
C487 C485 1.419 . S
C487 C488 1.362 . S
C488 H480 0.930 . S
C488 C487 1.362 . S
C488 C491 1.409 . S
C489 H481 0.930 . S
C489 C490 1.355 . S
C489 C491 1.415 . S
C490 C489 1.355 . S
C490 C492 1.419 . S
C491 C486 1.425 . S
C491 C488 1.409 . S
C491 C489 1.415 . S
C492 H482 0.930 . S
C492 C490 1.419 . S
C492 C493 1.362 . S
C493 H483 0.930 . S
C493 C486 1.409 . S
C493 C492 1.362 . S
H494 C500 0.930 . S
H495 C503 0.930 . S
H496 C504 0.930 . S
H497 C505 0.930 . S
H498 C508 0.930 . S
H499 C509 0.930 . S
C500 H494 0.930 . S
C500 C501 1.355 . S
C500 C502 1.415 . S
C501 C500 1.355 . S
C501 C503 1.419 . S
C502 C500 1.415 . S
C502 C507 1.425 . S
C502 C509 1.409 . S
C503 H495 0.930 . S
C503 C501 1.419 . S
C503 C504 1.362 . S
C504 H496 0.930 . S
C504 C503 1.362 . S
C504 C507 1.409 . S
C505 H497 0.930 . S
C505 C506 1.355 . S
C505 C507 1.415 . S
C506 C505 1.355 . S
C506 C508 1.419 . S
C507 C502 1.425 . S
C507 C504 1.409 . S
C507 C505 1.415 . S
C508 H498 0.930 . S
C508 C506 1.419 . S
C508 C509 1.362 . S
C509 H499 0.930 . S
C509 C502 1.409 . S
C509 C508 1.362 . S
H510 C516 0.930 . S
H511 C519 0.930 . S
H512 C520 0.930 . S
H513 C521 0.930 . S
H514 C524 0.930 . S
H515 C525 0.930 . S
C516 H510 0.930 . S
C516 C517 1.355 . S
C516 C518 1.415 . S
C517 C516 1.355 . S
C517 C519 1.419 . S
C518 C516 1.415 . S
C518 C523 1.425 . S
C518 C525 1.409 . S
C519 H511 0.930 . S
C519 C517 1.419 . S
C519 C520 1.362 . S
C520 H512 0.930 . S
C520 C519 1.362 . S
C520 C523 1.409 . S
C521 H513 0.930 . S
C521 C522 1.355 . S
C521 C523 1.415 . S
C522 C521 1.355 . S
C522 C524 1.419 . S
C523 C518 1.425 . S
C523 C520 1.409 . S
C523 C521 1.415 . S
C524 H514 0.930 . S
C524 C522 1.419 . S
C524 C525 1.362 . S
C525 H515 0.930 . S
C525 C518 1.409 . S
C525 C524 1.362 . S
H526 C532 0.930 . S
H527 C535 0.930 . S
H528 C536 0.930 . S
H529 C537 0.930 . S
H530 C540 0.930 . S
H531 C541 0.930 . S
C532 H526 0.930 . S
C532 C533 1.355 . S
C532 C534 1.415 . S
C533 C532 1.355 . S
C533 C535 1.419 . S
C534 C532 1.415 . S
C534 C539 1.425 . S
C534 C541 1.409 . S
C535 H527 0.930 . S
C535 C533 1.419 . S
C535 C536 1.362 . S
C536 H528 0.930 . S
C536 C535 1.362 . S
C536 C539 1.409 . S
C537 H529 0.930 . S
C537 C538 1.355 . S
C537 C539 1.415 . S
C538 C537 1.355 . S
C538 C540 1.419 . S
C539 C534 1.425 . S
C539 C536 1.409 . S
C539 C537 1.415 . S
C540 H530 0.930 . S
C540 C538 1.419 . S
C540 C541 1.362 . S
C541 H531 0.930 . S
C541 C534 1.409 . S
C541 C540 1.362 . S
H542 C548 0.930 . S
H543 C551 0.930 . S
H544 C552 0.930 . S
H545 C553 0.930 . S
H546 C556 0.930 . S
H547 C557 0.930 . S
C548 H542 0.930 . S
C548 C549 1.355 . S
C548 C550 1.415 . S
C549 C548 1.355 . S
C549 C551 1.419 . S
C550 C548 1.415 . S
C550 C555 1.425 . S
C550 C557 1.409 . S
C551 H543 0.930 . S
C551 C549 1.419 . S
C551 C552 1.362 . S
C552 H544 0.930 . S
C552 C551 1.362 . S
C552 C555 1.409 . S
C553 H545 0.930 . S
C553 C554 1.355 . S
C553 C555 1.415 . S
C554 C553 1.355 . S
C554 C556 1.419 . S
C555 C550 1.425 . S
C555 C552 1.409 . S
C555 C553 1.415 . S
C556 H546 0.930 . S
C556 C554 1.419 . S
C556 C557 1.362 . S
C557 H547 0.930 . S
C557 C550 1.409 . S
C557 C556 1.362 . S
H558 C564 0.930 . S
H559 C567 0.930 . S
H560 C568 0.930 . S
H561 C569 0.930 . S
H562 C572 0.930 . S
H563 C573 0.930 . S
C564 H558 0.930 . S
C564 C565 1.355 . S
C564 C566 1.415 . S
C565 C564 1.355 . S
C565 C567 1.419 . S
C566 C564 1.415 . S
C566 C571 1.425 . S
C566 C573 1.409 . S
C567 H559 0.930 . S
C567 C565 1.419 . S
C567 C568 1.362 . S
C568 H560 0.930 . S
C568 C567 1.362 . S
C568 C571 1.409 . S
C569 H561 0.930 . S
C569 C570 1.355 . S
C569 C571 1.415 . S
C570 C569 1.355 . S
C570 C572 1.419 . S
C571 C566 1.425 . S
C571 C568 1.409 . S
C571 C569 1.415 . S
C572 H562 0.930 . S
C572 C570 1.419 . S
C572 C573 1.362 . S
C573 H563 0.930 . S
C573 C566 1.409 . S
C573 C572 1.362 . S
H574 C580 0.930 . S
H575 C583 0.930 . S
H576 C584 0.930 . S
H577 C585 0.930 . S
H578 C588 0.930 . S
H579 C589 0.930 . S
C580 H574 0.930 . S
C580 C581 1.355 . S
C580 C582 1.415 . S
C581 C580 1.355 . S
C581 C583 1.419 . S
C582 C580 1.415 . S
C582 C587 1.425 . S
C582 C589 1.409 . S
C583 H575 0.930 . S
C583 C581 1.419 . S
C583 C584 1.362 . S
C584 H576 0.930 . S
C584 C583 1.362 . S
C584 C587 1.409 . S
C585 H577 0.930 . S
C585 C586 1.355 . S
C585 C587 1.415 . S
C586 C585 1.355 . S
C586 C588 1.419 . S
C587 C582 1.425 . S
C587 C584 1.409 . S
C587 C585 1.415 . S
C588 H578 0.930 . S
C588 C586 1.419 . S
C588 C589 1.362 . S
C589 H579 0.930 . S
C589 C582 1.409 . S
C589 C588 1.362 . S
H590 C596 0.930 . S
H591 C599 0.930 . S
H592 C600 0.930 . S
H593 C601 0.930 . S
H594 C604 0.930 . S
H595 C605 0.930 . S
C596 H590 0.930 . S
C596 C597 1.355 . S
C596 C598 1.415 . S
C597 C596 1.355 . S
C597 C599 1.419 . S
C598 C596 1.415 . S
C598 C603 1.425 . S
C598 C605 1.409 . S
C599 H591 0.930 . S
C599 C597 1.419 . S
C599 C600 1.362 . S
C600 H592 0.930 . S
C600 C599 1.362 . S
C600 C603 1.409 . S
C601 H593 0.930 . S
C601 C602 1.355 . S
C601 C603 1.415 . S
C602 C601 1.355 . S
C602 C604 1.419 . S
C603 C598 1.425 . S
C603 C600 1.409 . S
C603 C601 1.415 . S
C604 H594 0.930 . S
C604 C602 1.419 . S
C604 C605 1.362 . S
C605 H595 0.930 . S
C605 C598 1.409 . S
C605 C604 1.362 . S
H606 C612 0.930 . S
H607 C615 0.930 . S
H608 C616 0.930 . S
H609 C617 0.946 . S
H610 C620 0.930 . S
H611 C621 0.930 . S
C612 H606 0.930 . S
C612 C613 1.355 . S
C612 C614 1.415 . S
C613 C612 1.355 . S
C613 C615 1.419 . S
C614 C612 1.415 . S
C614 C619 1.425 . S
C614 C621 1.409 . S
C615 H607 0.930 . S
C615 C613 1.419 . S
C615 C616 1.362 . S
C616 H608 0.930 . S
C616 C615 1.362 . S
C616 C619 1.409 . S
C617 H609 0.946 . S
C617 C618 1.355 . S
C617 C619 1.415 . S
C618 C617 1.355 . S
C618 C620 1.419 . S
C619 C614 1.425 . S
C619 C616 1.409 . S
C619 C617 1.415 . S
C620 H610 0.930 . S
C620 C618 1.419 . S
C620 C621 1.362 . S
C621 H611 0.930 . S
C621 C614 1.409 . S
C621 C620 1.362 . S
H622 C628 0.930 . S
H623 C631 0.930 . S
H624 C632 0.930 . S
H625 C633 0.930 . S
H626 C636 0.930 . S
H627 C637 0.930 . S
C628 H622 0.930 . S
C628 C629 1.355 . S
C628 C630 1.415 . S
C629 C628 1.355 . S
C629 C631 1.419 . S
C630 C628 1.415 . S
C630 C635 1.425 . S
C630 C637 1.409 . S
C631 H623 0.930 . S
C631 C629 1.419 . S
C631 C632 1.362 . S
C632 H624 0.930 . S
C632 C631 1.362 . S
C632 C635 1.409 . S
C633 H625 0.930 . S
C633 C634 1.355 . S
C633 C635 1.415 . S
C634 C633 1.355 . S
C634 C636 1.419 . S
C635 C630 1.425 . S
C635 C632 1.409 . S
C635 C633 1.415 . S
C636 H626 0.930 . S
C636 C634 1.419 . S
C636 C637 1.362 . S
C637 H627 0.930 . S
C637 C630 1.409 . S
C637 C636 1.362 . S
H638 C644 0.930 . S
H639 C647 0.930 . S
H640 C648 0.930 . S
H641 C649 0.930 . S
H642 C652 0.930 . S
H643 C653 0.930 . S
C644 H638 0.930 . S
C644 C645 1.355 . S
C644 C646 1.415 . S
C645 C644 1.355 . S
C645 C647 1.419 . S
C646 C644 1.415 . S
C646 C651 1.425 . S
C646 C653 1.409 . S
C647 H639 0.930 . S
C647 C645 1.419 . S
C647 C648 1.362 . S
C648 H640 0.930 . S
C648 C647 1.362 . S
C648 C651 1.409 . S
C649 H641 0.930 . S
C649 C650 1.355 . S
C649 C651 1.415 . S
C650 C649 1.355 . S
C650 C652 1.419 . S
C651 C646 1.425 . S
C651 C648 1.409 . S
C651 C649 1.415 . S
C652 H642 0.930 . S
C652 C650 1.419 . S
C652 C653 1.362 . S
C653 H643 0.930 . S
C653 C646 1.409 . S
C653 C652 1.362 . S
H654 C660 0.930 . S
H655 C663 0.930 . S
H656 C664 0.930 . S
H657 C665 0.930 . S
H658 C668 0.930 . S
H659 C669 0.930 . S
C660 H654 0.930 . S
C660 C661 1.355 . S
C660 C662 1.415 . S
C661 C660 1.355 . S
C661 C663 1.419 . S
C662 C660 1.415 . S
C662 C667 1.425 . S
C662 C669 1.409 . S
C663 H655 0.930 . S
C663 C661 1.419 . S
C663 C664 1.362 . S
C664 H656 0.930 . S
C664 C663 1.362 . S
C664 C667 1.409 . S
C665 H657 0.930 . S
C665 C666 1.355 . S
C665 C667 1.415 . S
C666 C665 1.355 . S
C666 C668 1.419 . S
C667 C662 1.425 . S
C667 C664 1.409 . S
C667 C665 1.415 . S
C668 H658 0.930 . S
C668 C666 1.419 . S
C668 C669 1.362 . S
C669 H659 0.930 . S
C669 C662 1.409 . S
C669 C668 1.362 . S
H670 C676 0.930 . S
H671 C679 0.930 . S
H672 C680 0.930 . S
H673 C681 0.930 . S
H674 C684 0.930 . S
H675 C685 0.930 . S
C676 H670 0.930 . S
C676 C677 1.355 . S
C676 C678 1.415 . S
C677 C676 1.355 . S
C677 C679 1.419 . S
C678 C676 1.415 . S
C678 C683 1.425 . S
C678 C685 1.409 . S
C679 H671 0.930 . S
C679 C677 1.419 . S
C679 C680 1.362 . S
C680 H672 0.930 . S
C680 C679 1.362 . S
C680 C683 1.409 . S
C681 H673 0.930 . S
C681 C682 1.355 . S
C681 C683 1.415 . S
C682 C681 1.355 . S
C682 C684 1.419 . S
C683 C678 1.425 . S
C683 C680 1.409 . S
C683 C681 1.415 . S
C684 H674 0.930 . S
C684 C682 1.419 . S
C684 C685 1.362 . S
C685 H675 0.930 . S
C685 C678 1.409 . S
C685 C684 1.362 . S
H686 C692 0.930 . S
H687 C695 0.930 . S
H688 C696 0.930 . S
H689 C697 0.930 . S
H690 C700 0.930 . S
H691 C701 0.930 . S
C692 H686 0.930 . S
C692 C693 1.355 . S
C692 C694 1.415 . S
C693 C692 1.355 . S
C693 C695 1.419 . S
C694 C692 1.415 . S
C694 C699 1.425 . S
C694 C701 1.409 . S
C695 H687 0.930 . S
C695 C693 1.419 . S
C695 C696 1.362 . S
C696 H688 0.930 . S
C696 C695 1.362 . S
C696 C699 1.409 . S
C697 H689 0.930 . S
C697 C698 1.355 . S
C697 C699 1.415 . S
C698 C697 1.355 . S
C698 C700 1.419 . S
C699 C694 1.425 . S
C699 C696 1.409 . S
C699 C697 1.415 . S
C700 H690 0.930 . S
C700 C698 1.419 . S
C700 C701 1.362 . S
C701 H691 0.930 . S
C701 C694 1.409 . S
C701 C700 1.362 . S
H702 C708 0.930 . S
H703 C711 0.930 . S
H704 C712 0.930 . S
H705 C713 0.930 . S
H706 C716 0.930 . S
H707 C717 0.930 . S
C708 H702 0.930 . S
C708 C709 1.355 . S
C708 C710 1.415 . S
C709 C708 1.355 . S
C709 C711 1.419 . S
C710 C708 1.415 . S
C710 C715 1.425 . S
C710 C717 1.409 . S
C711 H703 0.930 . S
C711 C709 1.419 . S
C711 C712 1.362 . S
C712 H704 0.930 . S
C712 C711 1.362 . S
C712 C715 1.409 . S
C713 H705 0.930 . S
C713 C714 1.355 . S
C713 C715 1.415 . S
C714 C713 1.355 . S
C714 C716 1.419 . S
C715 C710 1.425 . S
C715 C712 1.409 . S
C715 C713 1.415 . S
C716 H706 0.930 . S
C716 C714 1.419 . S
C716 C717 1.362 . S
C717 H707 0.930 . S
C717 C710 1.409 . S
C717 C716 1.362 . S
H718 C724 0.930 . S
H719 C727 0.930 . S
H720 C728 0.930 . S
H721 C729 0.930 . S
H722 C732 0.930 . S
H723 C733 0.930 . S
C724 H718 0.930 . S
C724 C725 1.355 . S
C724 C726 1.415 . S
C725 C724 1.355 . S
C725 C727 1.419 . S
C726 C724 1.415 . S
C726 C731 1.425 . S
C726 C733 1.409 . S
C727 H719 0.930 . S
C727 C725 1.419 . S
C727 C728 1.362 . S
C728 H720 0.930 . S
C728 C727 1.362 . S
C728 C731 1.409 . S
C729 H721 0.930 . S
C729 C730 1.355 . S
C729 C731 1.415 . S
C730 C729 1.355 . S
C730 C732 1.419 . S
C731 C726 1.425 . S
C731 C728 1.409 . S
C731 C729 1.415 . S
C732 H722 0.930 . S
C732 C730 1.419 . S
C732 C733 1.362 . S
C733 H723 0.930 . S
C733 C726 1.409 . S
C733 C732 1.362 . S
H734 C740 0.930 . S
H735 C743 0.930 . S
H736 C744 0.930 . S
H737 C745 0.930 . S
H738 C748 0.930 . S
H739 C749 0.930 . S
C740 H734 0.930 . S
C740 C741 1.355 . S
C740 C742 1.415 . S
C741 C740 1.355 . S
C741 C743 1.419 . S
C742 C740 1.415 . S
C742 C747 1.425 . S
C742 C749 1.409 . S
C743 H735 0.930 . S
C743 C741 1.419 . S
C743 C744 1.362 . S
C744 H736 0.930 . S
C744 C743 1.362 . S
C744 C747 1.409 . S
C745 H737 0.930 . S
C745 C746 1.355 . S
C745 C747 1.415 . S
C746 C745 1.355 . S
C746 C748 1.419 . S
C747 C742 1.425 . S
C747 C744 1.409 . S
C747 C745 1.415 . S
C748 H738 0.930 . S
C748 C746 1.419 . S
C748 C749 1.362 . S
C749 H739 0.930 . S
C749 C742 1.409 . S
C749 C748 1.362 . S
H750 C756 0.930 . S
H751 C759 0.930 . S
H752 C760 0.930 . S
H753 C761 0.930 . S
H754 C764 0.930 . S
H755 C765 0.930 . S
C756 H750 0.930 . S
C756 C757 1.355 . S
C756 C758 1.415 . S
C757 C756 1.355 . S
C757 C759 1.419 . S
C758 C756 1.415 . S
C758 C763 1.425 . S
C758 C765 1.409 . S
C759 H751 0.930 . S
C759 C757 1.419 . S
C759 C760 1.362 . S
C760 H752 0.930 . S
C760 C759 1.362 . S
C760 C763 1.409 . S
C761 H753 0.930 . S
C761 C762 1.355 . S
C761 C763 1.415 . S
C762 C761 1.355 . S
C762 C764 1.419 . S
C763 C758 1.425 . S
C763 C760 1.409 . S
C763 C761 1.415 . S
C764 H754 0.930 . S
C764 C762 1.419 . S
C764 C765 1.362 . S
C765 H755 0.930 . S
C765 C758 1.409 . S
C765 C764 1.362 . S
H766 C772 0.930 . S
H767 C775 0.930 . S
H768 C776 0.930 . S
H769 C777 0.930 . S
H770 C780 0.930 . S
H771 C781 0.930 . S
C772 H766 0.930 . S
C772 C773 1.355 . S
C772 C774 1.415 . S
C773 C772 1.355 . S
C773 C775 1.419 . S
C774 C772 1.415 . S
C774 C779 1.425 . S
C774 C781 1.409 . S
C775 H767 0.930 . S
C775 C773 1.419 . S
C775 C776 1.362 . S
C776 H768 0.930 . S
C776 C775 1.362 . S
C776 C779 1.409 . S
C777 H769 0.930 . S
C777 C778 1.355 . S
C777 C779 1.415 . S
C778 C777 1.355 . S
C778 C780 1.419 . S
C779 C774 1.425 . S
C779 C776 1.409 . S
C779 C777 1.415 . S
C780 H770 0.930 . S
C780 C778 1.419 . S
C780 C781 1.362 . S
C781 H771 0.930 . S
C781 C774 1.409 . S
C781 C780 1.362 . S
H782 C788 0.930 . S
H783 C791 0.930 . S
H784 C792 0.930 . S
H785 C793 0.930 . S
H786 C796 0.930 . S
H787 C797 0.930 . S
C788 H782 0.930 . S
C788 C789 1.355 . S
C788 C790 1.415 . S
C789 C788 1.355 . S
C789 C791 1.419 . S
C790 C788 1.415 . S
C790 C795 1.425 . S
C790 C797 1.409 . S
C791 H783 0.930 . S
C791 C789 1.419 . S
C791 C792 1.362 . S
C792 H784 0.930 . S
C792 C791 1.362 . S
C792 C795 1.409 . S
C793 H785 0.930 . S
C793 C794 1.355 . S
C793 C795 1.415 . S
C794 C793 1.355 . S
C794 C796 1.419 . S
C795 C790 1.425 . S
C795 C792 1.409 . S
C795 C793 1.415 . S
C796 H786 0.930 . S
C796 C794 1.419 . S
C796 C797 1.362 . S
C797 H787 0.930 . S
C797 C790 1.409 . S
C797 C796 1.362 . S
H798 C804 0.930 . S
H799 C807 0.930 . S
H800 C808 0.930 . S
H801 C809 0.930 . S
H802 C812 0.930 . S
H803 C813 0.930 . S
C804 H798 0.930 . S
C804 C805 1.355 . S
C804 C806 1.415 . S
C805 C804 1.355 . S
C805 C807 1.419 . S
C806 C804 1.415 . S
C806 C811 1.425 . S
C806 C813 1.409 . S
C807 H799 0.930 . S
C807 C805 1.419 . S
C807 C808 1.362 . S
C808 H800 0.930 . S
C808 C807 1.362 . S
C808 C811 1.409 . S
C809 H801 0.930 . S
C809 C810 1.355 . S
C809 C811 1.415 . S
C810 C809 1.355 . S
C810 C812 1.419 . S
C811 C806 1.425 . S
C811 C808 1.409 . S
C811 C809 1.415 . S
C812 H802 0.930 . S
C812 C810 1.419 . S
C812 C813 1.362 . S
C813 H803 0.930 . S
C813 C806 1.409 . S
C813 C812 1.362 . S
H814 C820 0.930 . S
H815 C823 0.930 . S
H816 C824 0.930 . S
H817 C825 0.930 . S
H818 C828 0.930 . S
H819 C829 0.930 . S
C820 H814 0.930 . S
C820 C821 1.355 . S
C820 C822 1.415 . S
C821 C820 1.355 . S
C821 C823 1.419 . S
C822 C820 1.415 . S
C822 C827 1.425 . S
C822 C829 1.409 . S
C823 H815 0.930 . S
C823 C821 1.419 . S
C823 C824 1.362 . S
C824 H816 0.930 . S
C824 C823 1.362 . S
C824 C827 1.409 . S
C825 H817 0.930 . S
C825 C826 1.355 . S
C825 C827 1.415 . S
C826 C825 1.355 . S
C826 C828 1.419 . S
C827 C822 1.425 . S
C827 C824 1.409 . S
C827 C825 1.415 . S
C828 H818 0.930 . S
C828 C826 1.419 . S
C828 C829 1.362 . S
C829 H819 0.930 . S
C829 C822 1.409 . S
C829 C828 1.362 . S
H830 C836 0.930 . S
H831 C839 0.930 . S
H832 C840 0.930 . S
H833 C841 0.930 . S
H834 C844 0.930 . S
H835 C845 0.930 . S
C836 H830 0.930 . S
C836 C837 1.355 . S
C836 C838 1.415 . S
C837 C836 1.355 . S
C837 C839 1.419 . S
C838 C836 1.415 . S
C838 C843 1.425 . S
C838 C845 1.409 . S
C839 H831 0.930 . S
C839 C837 1.419 . S
C839 C840 1.362 . S
C840 H832 0.930 . S
C840 C839 1.362 . S
C840 C843 1.409 . S
C841 H833 0.930 . S
C841 C842 1.355 . S
C841 C843 1.415 . S
C842 C841 1.355 . S
C842 C844 1.419 . S
C843 C838 1.425 . S
C843 C840 1.409 . S
C843 C841 1.415 . S
C844 H834 0.930 . S
C844 C842 1.419 . S
C844 C845 1.362 . S
C845 H835 0.930 . S
C845 C838 1.409 . S
C845 C844 1.362 . S
H846 C852 0.930 . S
H847 C855 0.930 . S
H848 C856 0.930 . S
H849 C857 0.930 . S
H850 C860 0.930 . S
H851 C861 0.930 . S
C852 H846 0.930 . S
C852 C853 1.355 . S
C852 C854 1.415 . S
C853 C852 1.355 . S
C853 C855 1.419 . S
C854 C852 1.415 . S
C854 C859 1.425 . S
C854 C861 1.409 . S
C855 H847 0.930 . S
C855 C853 1.419 . S
C855 C856 1.362 . S
C856 H848 0.930 . S
C856 C855 1.362 . S
C856 C859 1.409 . S
C857 H849 0.930 . S
C857 C858 1.355 . S
C857 C859 1.415 . S
C858 C857 1.355 . S
C858 C860 1.419 . S
C859 C854 1.425 . S
C859 C856 1.409 . S
C859 C857 1.415 . S
C860 H850 0.930 . S
C860 C858 1.419 . S
C860 C861 1.362 . S
C861 H851 0.930 . S
C861 C854 1.409 . S
C861 C860 1.362 . S
H862 C868 0.930 . S
H863 C871 0.930 . S
H864 C872 0.930 . S
H865 C873 0.930 . S
H866 C876 0.930 . S
H867 C877 0.930 . S
C868 H862 0.930 . S
C868 C869 1.355 . S
C868 C870 1.415 . S
C869 C868 1.355 . S
C869 C871 1.419 . S
C870 C868 1.415 . S
C870 C875 1.425 . S
C870 C877 1.409 . S
C871 H863 0.930 . S
C871 C869 1.419 . S
C871 C872 1.362 . S
C872 H864 0.930 . S
C872 C871 1.362 . S
C872 C875 1.409 . S
C873 H865 0.930 . S
C873 C874 1.355 . S
C873 C875 1.415 . S
C874 C873 1.355 . S
C874 C876 1.419 . S
C875 C870 1.425 . S
C875 C872 1.409 . S
C875 C873 1.415 . S
C876 H866 0.930 . S
C876 C874 1.419 . S
C876 C877 1.362 . S
C877 H867 0.930 . S
C877 C870 1.409 . S
C877 C876 1.362 . S
H878 C884 0.930 . S
H879 C887 0.930 . S
H880 C888 0.930 . S
H881 C889 0.930 . S
H882 C892 0.930 . S
H883 C893 0.930 . S
C884 H878 0.930 . S
C884 C885 1.355 . S
C884 C886 1.415 . S
C885 C884 1.355 . S
C885 C887 1.419 . S
C886 C884 1.415 . S
C886 C891 1.425 . S
C886 C893 1.409 . S
C887 H879 0.930 . S
C887 C885 1.419 . S
C887 C888 1.362 . S
C888 H880 0.930 . S
C888 C887 1.362 . S
C888 C891 1.409 . S
C889 H881 0.930 . S
C889 C890 1.355 . S
C889 C891 1.415 . S
C890 C889 1.355 . S
C890 C892 1.419 . S
C891 C886 1.425 . S
C891 C888 1.409 . S
C891 C889 1.415 . S
C892 H882 0.930 . S
C892 C890 1.419 . S
C892 C893 1.362 . S
C893 H883 0.930 . S
C893 C886 1.409 . S
C893 C892 1.362 . S
H894 C900 0.930 . S
H895 C903 0.930 . S
H896 C904 0.930 . S
H897 C905 0.930 . S
H898 C908 0.930 . S
H899 C909 0.930 . S
C900 H894 0.930 . S
C900 C901 1.355 . S
C900 C902 1.415 . S
C901 C900 1.355 . S
C901 C903 1.419 . S
C902 C900 1.415 . S
C902 C907 1.425 . S
C902 C909 1.409 . S
C903 H895 0.930 . S
C903 C901 1.419 . S
C903 C904 1.362 . S
C904 H896 0.930 . S
C904 C903 1.362 . S
C904 C907 1.409 . S
C905 H897 0.930 . S
C905 C906 1.355 . S
C905 C907 1.415 . S
C906 C905 1.355 . S
C906 C908 1.419 . S
C907 C902 1.425 . S
C907 C904 1.409 . S
C907 C905 1.415 . S
C908 H898 0.930 . S
C908 C906 1.419 . S
C908 C909 1.362 . S
C909 H899 0.930 . S
C909 C902 1.409 . S
C909 C908 1.362 . S
H910 C916 0.930 . S
H911 C919 0.930 . S
H912 C920 0.930 . S
H913 C921 0.930 . S
H914 C924 0.930 . S
H915 C925 0.930 . S
C916 H910 0.930 . S
C916 C917 1.355 . S
C916 C918 1.415 . S
C917 C916 1.355 . S
C917 C919 1.419 . S
C918 C916 1.415 . S
C918 C923 1.425 . S
C918 C925 1.409 . S
C919 H911 0.930 . S
C919 C917 1.419 . S
C919 C920 1.362 . S
C920 H912 0.930 . S
C920 C919 1.362 . S
C920 C923 1.409 . S
C921 H913 0.930 . S
C921 C922 1.355 . S
C921 C923 1.415 . S
C922 C921 1.355 . S
C922 C924 1.419 . S
C923 C918 1.425 . S
C923 C920 1.409 . S
C923 C921 1.415 . S
C924 H914 0.930 . S
C924 C922 1.419 . S
C924 C925 1.362 . S
C925 H915 0.930 . S
C925 C918 1.409 . S
C925 C924 1.362 . S
H926 C932 0.930 . S
H927 C935 0.930 . S
H928 C936 0.930 . S
H929 C937 0.930 . S
H930 C940 0.930 . S
H931 C941 0.930 . S
C932 H926 0.930 . S
C932 C933 1.355 . S
C932 C934 1.415 . S
C933 C932 1.355 . S
C933 C935 1.419 . S
C934 C932 1.415 . S
C934 C939 1.425 . S
C934 C941 1.409 . S
C935 H927 0.930 . S
C935 C933 1.419 . S
C935 C936 1.362 . S
C936 H928 0.930 . S
C936 C935 1.362 . S
C936 C939 1.409 . S
C937 H929 0.930 . S
C937 C938 1.355 . S
C937 C939 1.415 . S
C938 C937 1.355 . S
C938 C940 1.419 . S
C939 C934 1.425 . S
C939 C936 1.409 . S
C939 C937 1.415 . S
C940 H930 0.930 . S
C940 C938 1.419 . S
C940 C941 1.362 . S
C941 H931 0.930 . S
C941 C934 1.409 . S
C941 C940 1.362 . S
H942 C948 0.930 . S
H943 C951 0.930 . S
H944 C952 0.930 . S
H945 C953 0.930 . S
H946 C956 0.930 . S
H947 C957 0.930 . S
C948 H942 0.930 . S
C948 C949 1.355 . S
C948 C950 1.415 . S
C949 C948 1.355 . S
C949 C951 1.419 . S
C950 C948 1.415 . S
C950 C955 1.425 . S
C950 C957 1.409 . S
C951 H943 0.930 . S
C951 C949 1.419 . S
C951 C952 1.362 . S
C952 H944 0.930 . S
C952 C951 1.362 . S
C952 C955 1.409 . S
C953 H945 0.930 . S
C953 C954 1.355 . S
C953 C955 1.415 . S
C954 C953 1.355 . S
C954 C956 1.419 . S
C955 C950 1.425 . S
C955 C952 1.409 . S
C955 C953 1.415 . S
C956 H946 0.930 . S
C956 C954 1.419 . S
C956 C957 1.362 . S
C957 H947 0.930 . S
C957 C950 1.409 . S
C957 C956 1.362 . S
H958 C964 0.930 . S
H959 C967 0.930 . S
H960 C968 0.930 . S
H961 C969 0.930 . S
H962 C972 0.930 . S
H963 C973 0.930 . S
C964 H958 0.930 . S
C964 C965 1.355 . S
C964 C966 1.415 . S
C965 C964 1.355 . S
C965 C967 1.419 . S
C966 C964 1.415 . S
C966 C971 1.425 . S
C966 C973 1.409 . S
C967 H959 0.930 . S
C967 C965 1.419 . S
C967 C968 1.362 . S
C968 H960 0.930 . S
C968 C967 1.362 . S
C968 C971 1.409 . S
C969 H961 0.930 . S
C969 C970 1.355 . S
C969 C971 1.415 . S
C970 C969 1.355 . S
C970 C972 1.419 . S
C971 C966 1.425 . S
C971 C968 1.409 . S
C971 C969 1.415 . S
C972 H962 0.930 . S
C972 C970 1.419 . S
C972 C973 1.362 . S
C973 H963 0.930 . S
C973 C966 1.409 . S
C973 C972 1.362 . S
H974 C980 0.930 . S
H975 C983 0.930 . S
H976 C984 0.930 . S
H977 C985 0.930 . S
H978 C988 0.930 . S
H979 C989 0.930 . S
C980 H974 0.930 . S
C980 C981 1.355 . S
C980 C982 1.415 . S
C981 C980 1.355 . S
C981 C983 1.419 . S
C982 C980 1.415 . S
C982 C987 1.425 . S
C982 C989 1.409 . S
C983 H975 0.930 . S
C983 C981 1.419 . S
C983 C984 1.362 . S
C984 H976 0.930 . S
C984 C983 1.362 . S
C984 C987 1.409 . S
C985 H977 0.930 . S
C985 C986 1.355 . S
C985 C987 1.415 . S
C986 C985 1.355 . S
C986 C988 1.419 . S
C987 C982 1.425 . S
C987 C984 1.409 . S
C987 C985 1.415 . S
C988 H978 0.930 . S
C988 C986 1.419 . S
C988 C989 1.362 . S
C989 H979 0.930 . S
C989 C982 1.409 . S
C989 C988 1.362 . S
H990 C996 0.930 . S
H991 C999 0.930 . S
H992 C1000 0.930 . S
H993 C1001 0.930 . S
H994 C1004 0.930 . S
H995 C1005 0.930 . S
C996 H990 0.930 . S
C996 C997 1.355 . S
C996 C998 1.415 . S
C997 C996 1.355 . S
C997 C999 1.419 . S
C998 C996 1.415 . S
C998 C1003 1.425 . S
C998 C1005 1.409 . S
C999 H991 0.930 . S
C999 C997 1.419 . S
C999 C1000 1.362 . S
C1000 H992 0.930 . S
C1000 C999 1.362 . S
C1000 C1003 1.409 . S
C1001 H993 0.930 . S
C1001 C1002 1.355 . S
C1001 C1003 1.415 . S
C1002 C1001 1.355 . S
C1002 C1004 1.419 . S
C1003 C998 1.425 . S
C1003 C1000 1.409 . S
C1003 C1001 1.415 . S
C1004 H994 0.930 . S
C1004 C1002 1.419 . S
C1004 C1005 1.362 . S
C1005 H995 0.930 . S
C1005 C998 1.409 . S
C1005 C1004 1.362 . S
H1006 C1012 0.930 . S
H1007 C1015 0.930 . S
H1008 C1016 0.930 . S
H1009 C1017 0.930 . S
H1010 C1020 0.930 . S
H1011 C1021 0.930 . S
C1012 H1006 0.930 . S
C1012 C1013 1.355 . S
C1012 C1014 1.415 . S
C1013 C1012 1.355 . S
C1013 C1015 1.419 . S
C1014 C1012 1.415 . S
C1014 C1019 1.425 . S
C1014 C1021 1.409 . S
C1015 H1007 0.930 . S
C1015 C1013 1.419 . S
C1015 C1016 1.362 . S
C1016 H1008 0.930 . S
C1016 C1015 1.362 . S
C1016 C1019 1.409 . S
C1017 H1009 0.930 . S
C1017 C1018 1.355 . S
C1017 C1019 1.415 . S
C1018 C1017 1.355 . S
C1018 C1020 1.419 . S
C1019 C1014 1.425 . S
C1019 C1016 1.409 . S
C1019 C1017 1.415 . S
C1020 H1010 0.930 . S
C1020 C1018 1.419 . S
C1020 C1021 1.362 . S
C1021 H1011 0.930 . S
C1021 C1014 1.409 . S
C1021 C1020 1.362 . S
H1022 C1028 0.930 . S
H1023 C1031 0.930 . S
H1024 C1032 0.930 . S
H1025 C1033 0.930 . S
H1026 C1036 0.930 . S
H1027 C1037 0.930 . S
C1028 H1022 0.930 . S
C1028 C1029 1.355 . S
C1028 C1030 1.415 . S
C1029 C1028 1.355 . S
C1029 C1031 1.419 . S
C1030 C1028 1.415 . S
C1030 C1035 1.425 . S
C1030 C1037 1.409 . S
C1031 H1023 0.930 . S
C1031 C1029 1.419 . S
C1031 C1032 1.362 . S
C1032 H1024 0.930 . S
C1032 C1031 1.362 . S
C1032 C1035 1.409 . S
C1033 H1025 0.930 . S
C1033 C1034 1.355 . S
C1033 C1035 1.415 . S
C1034 C1033 1.355 . S
C1034 C1036 1.419 . S
C1035 C1030 1.425 . S
C1035 C1032 1.409 . S
C1035 C1033 1.415 . S
C1036 H1026 0.930 . S
C1036 C1034 1.419 . S
C1036 C1037 1.362 . S
C1037 H1027 0.930 . S
C1037 C1030 1.409 . S
C1037 C1036 1.362 . S
H1038 C1044 0.930 . S
H1039 C1047 0.930 . S
H1040 C1048 0.930 . S
H1041 C1049 0.930 . S
H1042 C1052 0.930 . S
H1043 C1053 0.930 . S
C1044 H1038 0.930 . S
C1044 C1045 1.355 . S
C1044 C1046 1.415 . S
C1045 C1044 1.355 . S
C1045 C1047 1.419 . S
C1046 C1044 1.415 . S
C1046 C1051 1.425 . S
C1046 C1053 1.409 . S
C1047 H1039 0.930 . S
C1047 C1045 1.419 . S
C1047 C1048 1.362 . S
C1048 H1040 0.930 . S
C1048 C1047 1.362 . S
C1048 C1051 1.409 . S
C1049 H1041 0.930 . S
C1049 C1050 1.355 . S
C1049 C1051 1.415 . S
C1050 C1049 1.355 . S
C1050 C1052 1.419 . S
C1051 C1046 1.425 . S
C1051 C1048 1.409 . S
C1051 C1049 1.415 . S
C1052 H1042 0.930 . S
C1052 C1050 1.419 . S
C1052 C1053 1.362 . S
C1053 H1043 0.930 . S
C1053 C1046 1.409 . S
C1053 C1052 1.362 . S
H1054 C1060 0.930 . S
H1055 C1063 0.930 . S
H1056 C1064 0.930 . S
H1057 C1065 0.930 . S
H1058 C1068 0.930 . S
H1059 C1069 0.930 . S
C1060 H1054 0.930 . S
C1060 C1061 1.355 . S
C1060 C1062 1.415 . S
C1061 C1060 1.355 . S
C1061 C1063 1.419 . S
C1062 C1060 1.415 . S
C1062 C1067 1.425 . S
C1062 C1069 1.409 . S
C1063 H1055 0.930 . S
C1063 C1061 1.419 . S
C1063 C1064 1.362 . S
C1064 H1056 0.930 . S
C1064 C1063 1.362 . S
C1064 C1067 1.409 . S
C1065 H1057 0.930 . S
C1065 C1066 1.355 . S
C1065 C1067 1.415 . S
C1066 C1065 1.355 . S
C1066 C1068 1.419 . S
C1067 C1062 1.425 . S
C1067 C1064 1.409 . S
C1067 C1065 1.415 . S
C1068 H1058 0.930 . S
C1068 C1066 1.419 . S
C1068 C1069 1.362 . S
C1069 H1059 0.930 . S
C1069 C1062 1.409 . S
C1069 C1068 1.362 . S
H1070 C1076 0.930 . S
H1071 C1079 0.930 . S
H1072 C1080 0.930 . S
H1073 C1081 0.930 . S
H1074 C1084 0.930 . S
H1075 C1085 0.930 . S
C1076 H1070 0.930 . S
C1076 C1077 1.355 . S
C1076 C1078 1.415 . S
C1077 C1076 1.355 . S
C1077 C1079 1.419 . S
C1078 C1076 1.415 . S
C1078 C1083 1.425 . S
C1078 C1085 1.409 . S
C1079 H1071 0.930 . S
C1079 C1077 1.419 . S
C1079 C1080 1.362 . S
C1080 H1072 0.930 . S
C1080 C1079 1.362 . S
C1080 C1083 1.409 . S
C1081 H1073 0.930 . S
C1081 C1082 1.355 . S
C1081 C1083 1.415 . S
C1082 C1081 1.355 . S
C1082 C1084 1.419 . S
C1083 C1078 1.425 . S
C1083 C1080 1.409 . S
C1083 C1081 1.415 . S
C1084 H1074 0.930 . S
C1084 C1082 1.419 . S
C1084 C1085 1.362 . S
C1085 H1075 0.930 . S
C1085 C1078 1.409 . S
C1085 C1084 1.362 . S
H1086 C1092 0.930 . S
H1087 C1095 0.930 . S
H1088 C1096 0.930 . S
H1089 C1097 0.930 . S
H1090 C1100 0.930 . S
H1091 C1101 0.930 . S
C1092 H1086 0.930 . S
C1092 C1093 1.355 . S
C1092 C1094 1.415 . S
C1093 C1092 1.355 . S
C1093 C1095 1.419 . S
C1094 C1092 1.415 . S
C1094 C1099 1.425 . S
C1094 C1101 1.409 . S
C1095 H1087 0.930 . S
C1095 C1093 1.419 . S
C1095 C1096 1.362 . S
C1096 H1088 0.930 . S
C1096 C1095 1.362 . S
C1096 C1099 1.409 . S
C1097 H1089 0.930 . S
C1097 C1098 1.355 . S
C1097 C1099 1.415 . S
C1098 C1097 1.355 . S
C1098 C1100 1.419 . S
C1099 C1094 1.425 . S
C1099 C1096 1.409 . S
C1099 C1097 1.415 . S
C1100 H1090 0.930 . S
C1100 C1098 1.419 . S
C1100 C1101 1.362 . S
C1101 H1091 0.930 . S
C1101 C1094 1.409 . S
C1101 C1100 1.362 . S
H1102 C1108 0.930 . S
H1103 C1111 0.930 . S
H1104 C1112 0.930 . S
H1105 C1113 0.930 . S
H1106 C1116 0.930 . S
H1107 C1117 0.930 . S
C1108 H1102 0.930 . S
C1108 C1109 1.355 . S
C1108 C1110 1.415 . S
C1109 C1108 1.355 . S
C1109 C1111 1.419 . S
C1110 C1108 1.415 . S
C1110 C1115 1.425 . S
C1110 C1117 1.409 . S
C1111 H1103 0.930 . S
C1111 C1109 1.419 . S
C1111 C1112 1.362 . S
C1112 H1104 0.930 . S
C1112 C1111 1.362 . S
C1112 C1115 1.409 . S
C1113 H1105 0.930 . S
C1113 C1114 1.355 . S
C1113 C1115 1.415 . S
C1114 C1113 1.355 . S
C1114 C1116 1.419 . S
C1115 C1110 1.425 . S
C1115 C1112 1.409 . S
C1115 C1113 1.415 . S
C1116 H1106 0.930 . S
C1116 C1114 1.419 . S
C1116 C1117 1.362 . S
C1117 H1107 0.930 . S
C1117 C1110 1.409 . S
C1117 C1116 1.362 . S
H1118 C1124 0.930 . S
H1119 C1127 0.930 . S
H1120 C1128 0.930 . S
H1121 C1129 0.930 . S
H1122 C1132 0.930 . S
H1123 C1133 0.930 . S
C1124 H1118 0.930 . S
C1124 C1125 1.355 . S
C1124 C1126 1.415 . S
C1125 C1124 1.355 . S
C1125 C1127 1.419 . S
C1126 C1124 1.415 . S
C1126 C1131 1.425 . S
C1126 C1133 1.409 . S
C1127 H1119 0.930 . S
C1127 C1125 1.419 . S
C1127 C1128 1.362 . S
C1128 H1120 0.930 . S
C1128 C1127 1.362 . S
C1128 C1131 1.409 . S
C1129 H1121 0.930 . S
C1129 C1130 1.355 . S
C1129 C1131 1.415 . S
C1130 C1129 1.355 . S
C1130 C1132 1.419 . S
C1131 C1126 1.425 . S
C1131 C1128 1.409 . S
C1131 C1129 1.415 . S
C1132 H1122 0.930 . S
C1132 C1130 1.419 . S
C1132 C1133 1.362 . S
C1133 H1123 0.930 . S
C1133 C1126 1.409 . S
C1133 C1132 1.362 . S
H1134 C1140 0.930 . S
H1135 C1143 0.930 . S
H1136 C1144 0.930 . S
H1137 C1145 0.930 . S
H1138 C1148 0.930 . S
H1139 C1149 0.930 . S
C1140 H1134 0.930 . S
C1140 C1141 1.355 . S
C1140 C1142 1.415 . S
C1141 C1140 1.355 . S
C1141 C1143 1.419 . S
C1142 C1140 1.415 . S
C1142 C1147 1.425 . S
C1142 C1149 1.409 . S
C1143 H1135 0.930 . S
C1143 C1141 1.419 . S
C1143 C1144 1.362 . S
C1144 H1136 0.930 . S
C1144 C1143 1.362 . S
C1144 C1147 1.409 . S
C1145 H1137 0.930 . S
C1145 C1146 1.355 . S
C1145 C1147 1.415 . S
C1146 C1145 1.355 . S
C1146 C1148 1.419 . S
C1147 C1142 1.425 . S
C1147 C1144 1.409 . S
C1147 C1145 1.415 . S
C1148 H1138 0.930 . S
C1148 C1146 1.419 . S
C1148 C1149 1.362 . S
C1149 H1139 0.930 . S
C1149 C1142 1.409 . S
C1149 C1148 1.362 . S
C394 C211 1.165 . S
C389 C17 1.252 . S
C410 C212 1.731 . S
C405 C44 1.737 . S
C426 C206 1.230 . S
C421 C63 1.293 . S
C437 C87 1.079 . S
C442 C205 1.107 . S
C453 C110 1.643 . S
C458 C208 1.491 . S
C474 C210 1.251 . S
C469 C131 1.284 . S
C485 C159 1.173 . S
C490 C209 1.253 . S
C501 C177 1.266 . S
C506 C207 1.216 . S
C522 C242 1.596 . S
C517 C20 1.438 . S
C533 C42 1.485 . S
C538 C273 1.431 . S
C554 C241 1.540 . S
C549 C66 1.325 . S
C570 C276 1.135 . S
C565 C86 1.180 . S
C581 C109 1.350 . S
C586 C239 1.382 . S
C602 C271 1.534 . S
C597 C136 1.449 . S
C613 C157 1.244 . S
C618 C244 1.210 . S
C629 C182 1.372 . S
C634 C278 1.384 . S
C645 C18 1.425 . S
C650 C274 1.333 . S
C661 C112 1.453 . S
C666 C277 1.479 . S
C682 C245 1.371 . S
C677 C134 1.357 . S
C698 C272 1.305 . S
C693 C154 1.354 . S
C709 C180 1.432 . S
C714 C238 1.488 . S
C725 C64 1.439 . S
C730 C275 1.481 . S
C746 C240 1.439 . S
C741 C89 1.331 . S
C757 C39 1.500 . S
C762 C243 1.550 . S
C773 C178 1.250 . S
C778 C310 1.193 . S
C789 C113 1.462 . S
C794 C311 1.463 . S
C810 C305 1.228 . S
C805 C132 1.267 . S
C826 C304 1.433 . S
C821 C156 1.438 . S
C837 C41 1.286 . S
C842 C307 1.186 . S
C858 C309 1.250 . S
C853 C62 1.274 . S
C869 C90 1.447 . S
C874 C308 1.521 . S
C885 C16 1.260 . S
C890 C306 1.215 . S
C901 C181 1.465 . S
C906 C344 1.538 . S
C922 C376 1.255 . S
C917 C111 1.256 . S
C933 C135 1.158 . S
C938 C337 1.329 . S
C949 C155 1.420 . S
C954 C371 1.448 . S
C970 C342 1.198 . S
C965 C40 1.224 . S
C981 C67 1.632 . S
C986 C373 1.820 . S
C1002 C339 1.420 . S
C997 C88 1.473 . S
C1018 C374 1.512 . S
C1013 C21 1.401 . S
C1034 C370 1.346 . S
C1029 C179 1.353 . S
C1045 C43 1.216 . S
C1050 C372 1.487 . S
C1061 C65 1.191 . S
C1066 C341 1.330 . S
C1082 C375 1.605 . S
C1077 C85 1.551 . S
C1093 C19 1.486 . S
C1098 C340 1.572 . S
C1109 C133 1.643 . S
C1114 C377 1.622 . S
C1130 C343 1.475 . S
C1125 C158 1.450 . S
C1146 C338 1.376 . S
C1141 C108 1.347 . S
