# Generated by pormake.
# Topology gar, (4,6)-cn, num edge types: 1
# Building blocks:
#     Node 0, Type 0, BuildingBlock: NAHDIM_clean_sbu_0, # of connection points: 4
#     Node 1, Type 0, BuildingBlock: NAHDIM_clean_sbu_0, # of connection points: 4
#     Node 2, Type 0, BuildingBlock: NAHDIM_clean_sbu_0, # of connection points: 4
#     Node 3, Type 0, BuildingBlock: NAHDIM_clean_sbu_0, # of connection points: 4
#     Node 4, Type 0, BuildingBlock: NAHDIM_clean_sbu_0, # of connection points: 4
#     Node 5, Type 0, BuildingBlock: NAHDIM_clean_sbu_0, # of connection points: 4
#     Node 6, Type 0, BuildingBlock: NAHDIM_clean_sbu_0, # of connection points: 4
#     Node 7, Type 0, BuildingBlock: NAHDIM_clean_sbu_0, # of connection points: 4
#     Node 8, Type 0, BuildingBlock: NAHDIM_clean_sbu_0, # of connection points: 4
#     Node 9, Type 0, BuildingBlock: NAHDIM_clean_sbu_0, # of connection points: 4
#     Node 10, Type 0, BuildingBlock: NAHDIM_clean_sbu_0, # of connection points: 4
#     Node 11, Type 0, BuildingBlock: NAHDIM_clean_sbu_0, # of connection points: 4
#     Node 12, Type 0, BuildingBlock: NAHDIM_clean_sbu_0, # of connection points: 4
#     Node 13, Type 0, BuildingBlock: NAHDIM_clean_sbu_0, # of connection points: 4
#     Node 14, Type 0, BuildingBlock: NAHDIM_clean_sbu_0, # of connection points: 4
#     Node 15, Type 0, BuildingBlock: NAHDIM_clean_sbu_0, # of connection points: 4
#     Node 16, Type 0, BuildingBlock: NAHDIM_clean_sbu_0, # of connection points: 4
#     Node 17, Type 0, BuildingBlock: NAHDIM_clean_sbu_0, # of connection points: 4
#     Node 18, Type 0, BuildingBlock: NAHDIM_clean_sbu_0, # of connection points: 4
#     Node 19, Type 0, BuildingBlock: NAHDIM_clean_sbu_0, # of connection points: 4
#     Node 20, Type 0, BuildingBlock: NAHDIM_clean_sbu_0, # of connection points: 4
#     Node 21, Type 0, BuildingBlock: NAHDIM_clean_sbu_0, # of connection points: 4
#     Node 22, Type 0, BuildingBlock: NAHDIM_clean_sbu_0, # of connection points: 4
#     Node 23, Type 0, BuildingBlock: NAHDIM_clean_sbu_0, # of connection points: 4
#     Node 24, Type 1, BuildingBlock: CUKXOW_clean_sbu_0, # of connection points: 6
#     Node 25, Type 1, BuildingBlock: CUKXOW_clean_sbu_0, # of connection points: 6
#     Node 26, Type 1, BuildingBlock: CUKXOW_clean_sbu_0, # of connection points: 6
#     Node 27, Type 1, BuildingBlock: CUKXOW_clean_sbu_0, # of connection points: 6
#     Node 28, Type 1, BuildingBlock: CUKXOW_clean_sbu_0, # of connection points: 6
#     Node 29, Type 1, BuildingBlock: CUKXOW_clean_sbu_0, # of connection points: 6
#     Node 30, Type 1, BuildingBlock: CUKXOW_clean_sbu_0, # of connection points: 6
#     Node 31, Type 1, BuildingBlock: CUKXOW_clean_sbu_0, # of connection points: 6
#     Node 32, Type 1, BuildingBlock: CUKXOW_clean_sbu_0, # of connection points: 6
#     Node 33, Type 1, BuildingBlock: CUKXOW_clean_sbu_0, # of connection points: 6
#     Node 34, Type 1, BuildingBlock: CUKXOW_clean_sbu_0, # of connection points: 6
#     Node 35, Type 1, BuildingBlock: CUKXOW_clean_sbu_0, # of connection points: 6
#     Node 36, Type 1, BuildingBlock: CUKXOW_clean_sbu_0, # of connection points: 6
#     Node 37, Type 1, BuildingBlock: CUKXOW_clean_sbu_0, # of connection points: 6
#     Node 38, Type 1, BuildingBlock: CUKXOW_clean_sbu_0, # of connection points: 6
#     Node 39, Type 1, BuildingBlock: CUKXOW_clean_sbu_0, # of connection points: 6
#     Edge 40, Type (0, 1), None
#     Edge 41, Type (0, 1), None
#     Edge 42, Type (0, 1), None
#     Edge 43, Type (0, 1), None
#     Edge 44, Type (0, 1), None
#     Edge 45, Type (0, 1), None
#     Edge 46, Type (0, 1), None
#     Edge 47, Type (0, 1), None
#     Edge 48, Type (0, 1), None
#     Edge 49, Type (0, 1), None
#     Edge 50, Type (0, 1), None
#     Edge 51, Type (0, 1), None
#     Edge 52, Type (0, 1), None
#     Edge 53, Type (0, 1), None
#     Edge 54, Type (0, 1), None
#     Edge 55, Type (0, 1), None
#     Edge 56, Type (0, 1), None
#     Edge 57, Type (0, 1), None
#     Edge 58, Type (0, 1), None
#     Edge 59, Type (0, 1), None
#     Edge 60, Type (0, 1), None
#     Edge 61, Type (0, 1), None
#     Edge 62, Type (0, 1), None
#     Edge 63, Type (0, 1), None
#     Edge 64, Type (0, 1), None
#     Edge 65, Type (0, 1), None
#     Edge 66, Type (0, 1), None
#     Edge 67, Type (0, 1), None
#     Edge 68, Type (0, 1), None
#     Edge 69, Type (0, 1), None
#     Edge 70, Type (0, 1), None
#     Edge 71, Type (0, 1), None
#     Edge 72, Type (0, 1), None
#     Edge 73, Type (0, 1), None
#     Edge 74, Type (0, 1), None
#     Edge 75, Type (0, 1), None
#     Edge 76, Type (0, 1), None
#     Edge 77, Type (0, 1), None
#     Edge 78, Type (0, 1), None
#     Edge 79, Type (0, 1), None
#     Edge 80, Type (0, 1), None
#     Edge 81, Type (0, 1), None
#     Edge 82, Type (0, 1), None
#     Edge 83, Type (0, 1), None
#     Edge 84, Type (0, 1), None
#     Edge 85, Type (0, 1), None
#     Edge 86, Type (0, 1), None
#     Edge 87, Type (0, 1), None
#     Edge 88, Type (0, 1), None
#     Edge 89, Type (0, 1), None
#     Edge 90, Type (0, 1), None
#     Edge 91, Type (0, 1), None
#     Edge 92, Type (0, 1), None
#     Edge 93, Type (0, 1), None
#     Edge 94, Type (0, 1), None
#     Edge 95, Type (0, 1), None
#     Edge 96, Type (0, 1), None
#     Edge 97, Type (0, 1), None
#     Edge 98, Type (0, 1), None
#     Edge 99, Type (0, 1), None
#     Edge 100, Type (0, 1), None
#     Edge 101, Type (0, 1), None
#     Edge 102, Type (0, 1), None
#     Edge 103, Type (0, 1), None
#     Edge 104, Type (0, 1), None
#     Edge 105, Type (0, 1), None
#     Edge 106, Type (0, 1), None
#     Edge 107, Type (0, 1), None
#     Edge 108, Type (0, 1), None
#     Edge 109, Type (0, 1), None
#     Edge 110, Type (0, 1), None
#     Edge 111, Type (0, 1), None
#     Edge 112, Type (0, 1), None
#     Edge 113, Type (0, 1), None
#     Edge 114, Type (0, 1), None
#     Edge 115, Type (0, 1), None
#     Edge 116, Type (0, 1), None
#     Edge 117, Type (0, 1), None
#     Edge 118, Type (0, 1), None
#     Edge 119, Type (0, 1), None
#     Edge 120, Type (0, 1), None
#     Edge 121, Type (0, 1), None
#     Edge 122, Type (0, 1), None
#     Edge 123, Type (0, 1), None
#     Edge 124, Type (0, 1), None
#     Edge 125, Type (0, 1), None
#     Edge 126, Type (0, 1), None
#     Edge 127, Type (0, 1), None
#     Edge 128, Type (0, 1), None
#     Edge 129, Type (0, 1), None
#     Edge 130, Type (0, 1), None
#     Edge 131, Type (0, 1), None
#     Edge 132, Type (0, 1), None
#     Edge 133, Type (0, 1), None
#     Edge 134, Type (0, 1), None
#     Edge 135, Type (0, 1), None
# Relax obj value: 0.167
# Max RMSD: 0.287
# Mean RMSD: 0.158
data_MOF--net-gar--node1-NAHDIM_clean_sbu_0--node2-CUKXOW_clean_sbu_0--edge1-none
_symmetry_space_group_name_H-M    P1
_symmetry_Int_Tables_number       1
_symmetry_cell_setting            triclinic
loop_
_symmetry_equiv_pos_as_xyz
'x, y, z'
_cell_length_a     26.47536
_cell_length_b     24.315249
_cell_length_c     23.100205
_cell_angle_alpha  94.318854
_cell_angle_beta   93.033748
_cell_angle_gamma 95.492289
loop_
_atom_site_label
_atom_site_type_symbol
_atom_site_fract_x
_atom_site_fract_y
_atom_site_fract_z
_atom_type_partial_charge
C0 C 0.0947 0.25222 0.36564 0.0
O1 O 0.05143 0.23684 0.33599 0.0
O2 O 0.02763 0.21479 0.5162 0.0
Zn3 Zn 0.04398 0.28274 0.47388 0.0
O4 O 0.06855 0.35232 0.52488 0.0
C5 C 0.95846 0.2592 0.39767 0.0
O6 O 0.96886 0.20812 0.40302 0.0
O7 O 0.09663 0.26925 0.41917 0.0
C8 C 0.03723 0.37162 0.55867 0.0
O9 O 0.99437 0.34135 0.56511 0.0
C10 C 0.06162 0.20498 0.55349 0.0
O11 O 0.10227 0.24042 0.56414 0.0
O12 O 0.98484 0.29912 0.42638 0.0
C13 C 0.96622 0.85934 0.72404 0.0
O14 O 1.01116 0.88394 0.74209 0.0
O15 O 0.98847 0.73698 0.5816 0.0
Zn16 Zn 1.00482 0.8166 0.61391 0.0
O17 O 0.99647 0.87138 0.55448 0.0
C18 C 0.07395 0.79581 0.70239 0.0
O19 O 0.0348 0.76126 0.71257 0.0
O20 O 0.95813 0.83296 0.67421 0.0
C21 C 0.03299 0.90811 0.55034 0.0
O22 O 0.07625 0.90562 0.58002 0.0
C23 C 0.02563 0.7143 0.56121 0.0
O24 O 0.06864 0.74502 0.55687 0.0
O25 O 0.07203 0.82433 0.65856 0.0
C26 C 0.5947 0.75222 0.86564 0.0
O27 O 0.55143 0.73684 0.83599 0.0
O28 O 0.52764 0.71478 1.0162 0.0
Zn29 Zn 0.54398 0.78274 0.97388 0.0
O30 O 0.56856 0.85232 0.02488 0.0
C31 C 0.45846 0.75919 0.89767 0.0
O32 O 0.46886 0.70812 0.90302 0.0
O33 O 0.59663 0.76925 0.91917 0.0
C34 C 0.53723 0.87162 0.05867 0.0
O35 O 0.49437 0.84135 0.06511 0.0
C36 C 0.56162 0.70498 0.05349 0.0
O37 O 0.60228 0.74041 0.06414 0.0
O38 O 0.48484 0.79912 0.92638 0.0
C39 C 0.46622 0.35934 0.22404 0.0
O40 O 0.51116 0.38395 0.2421 0.0
O41 O 0.48847 0.23698 0.0816 0.0
Zn42 Zn 0.50482 0.3166 0.11392 0.0
O43 O 0.49646 0.37138 0.05448 0.0
C44 C 0.57394 0.29581 0.2024 0.0
O45 O 0.5348 0.26127 0.21258 0.0
O46 O 0.45813 0.33296 0.17421 0.0
C47 C 0.53299 0.4081 0.05034 0.0
O48 O 0.57625 0.4056 0.08001 0.0
C49 C 0.52563 0.2143 0.06121 0.0
O50 O 0.56864 0.24502 0.05688 0.0
O51 O 0.57203 0.32433 0.15856 0.0
C52 C 0.89552 0.77264 0.25815 0.0
O53 O 0.88261 0.76488 0.20228 0.0
O54 O 0.99283 0.6897 0.16952 0.0
Zn55 Zn 0.99957 0.76387 0.21952 0.0
O56 O 0.99681 0.82643 0.16794 0.0
C57 C 0.10452 0.81496 0.27205 0.0
O58 O 0.09106 0.86454 0.26398 0.0
O59 O 0.942 0.77166 0.27583 0.0
C60 C 0.97493 0.82925 0.11805 0.0
O61 O 0.94805 0.78589 0.09082 0.0
C62 C 0.0204 0.68929 0.12599 0.0
O63 O 0.0479 0.73509 0.11604 0.0
O64 O 0.07249 0.77222 0.25952 0.0
C65 C 0.63036 0.81893 0.34144 0.0
O66 O 0.64309 0.83071 0.39696 0.0
O67 O 0.53083 0.75263 0.42837 0.0
Zn68 Zn 0.52433 0.81692 0.37952 0.0
O69 O 0.53374 0.88801 0.43511 0.0
C70 C 0.41735 0.76564 0.32741 0.0
O71 O 0.43069 0.71677 0.33883 0.0
O72 O 0.58332 0.81376 0.32372 0.0
C73 C 0.51456 0.88579 0.48445 0.0
O74 O 0.48894 0.83954 0.49652 0.0
C75 C 0.5589 0.75052 0.47453 0.0
O76 O 0.58847 0.79414 0.49696 0.0
O77 O 0.4496 0.80868 0.33876 0.0
C78 C 0.39552 0.27264 0.75815 0.0
O79 O 0.38261 0.26488 0.70228 0.0
O80 O 0.49283 0.1897 0.66952 0.0
Zn81 Zn 0.49957 0.26387 0.71952 0.0
O82 O 0.49681 0.32643 0.66794 0.0
C83 C 0.60452 0.31496 0.77205 0.0
O84 O 0.59106 0.36454 0.76398 0.0
O85 O 0.442 0.27166 0.77583 0.0
C86 C 0.47493 0.32925 0.61805 0.0
O87 O 0.44805 0.28589 0.59082 0.0
C88 C 0.5204 0.18929 0.62599 0.0
O89 O 0.5479 0.23509 0.61604 0.0
O90 O 0.57249 0.27222 0.75952 0.0
C91 C 0.13036 0.31893 0.84144 0.0
O92 O 0.1431 0.33071 0.89697 0.0
O93 O 0.03083 0.25263 0.92837 0.0
Zn94 Zn 0.02433 0.31692 0.87952 0.0
O95 O 0.03374 0.38801 0.93511 0.0
C96 C 0.91735 0.26564 0.82741 0.0
O97 O 0.93069 0.21678 0.83883 0.0
O98 O 0.08332 0.31376 0.82372 0.0
C99 C 0.01456 0.38579 0.98445 0.0
O100 O 0.98895 0.33955 0.99652 0.0
C101 C 0.0589 0.25052 0.97453 0.0
O102 O 0.08847 0.29414 0.99697 0.0
O103 O 0.9496 0.30868 0.83876 0.0
C104 C 0.35498 0.19565 0.2596 0.0
O105 O 0.39785 0.22266 0.24729 0.0
O106 O 0.46316 0.08717 0.2259 0.0
Zn107 Zn 0.41023 0.09294 0.28945 0.0
O108 O 0.43948 0.09457 0.37499 0.0
C109 C 0.33195 0.01227 0.31416 0.0
O110 O 0.32315 0.05083 0.35421 0.0
O111 O 0.3551 0.14706 0.27683 0.0
C112 C 0.4858 0.09245 0.39209 0.0
O113 O 0.52104 0.09636 0.35432 0.0
C114 C 0.49348 0.04919 0.22156 0.0
O115 O 0.4941 0.01269 0.26058 0.0
O116 O 0.36781 0.0209 0.28053 0.0
C117 C 0.32423 0.0354 0.55326 0.0
O118 O 0.29224 0.04938 0.59198 0.0
O119 O 0.28106 0.16148 0.5687 0.0
Zn120 Zn 0.27788 0.11233 0.49663 0.0
O121 O 0.28888 0.15838 0.43196 0.0
C122 C 0.17263 0.09024 0.46867 0.0
O123 O 0.17788 0.13259 0.43667 0.0
O124 O 0.32493 0.05774 0.50547 0.0
C125 C 0.32164 0.2002 0.43336 0.0
O126 O 0.35593 0.21106 0.4769 0.0
C127 C 0.25283 0.20061 0.57326 0.0
O128 O 0.22377 0.21165 0.52869 0.0
O129 O 0.21105 0.07228 0.49235 0.0
C130 C 0.25699 0.93381 0.80798 0.0
O131 O 0.22771 0.93872 0.76151 0.0
O132 O 0.17464 0.02785 0.77329 0.0
Zn133 Zn 0.20738 0.02718 0.852 0.0
O134 O 0.15119 0.02363 0.90803 0.0
C135 C 0.21563 0.14163 0.85424 0.0
O136 O 0.16644 0.12788 0.8466 0.0
O137 O 0.25488 0.96641 0.85339 0.0
C138 C 0.11761 0.98656 0.92173 0.0
O139 O 0.11758 0.93471 0.90121 0.0
C140 C 0.13438 0.9997 0.75222 0.0
O141 O 0.1106 0.96233 0.78184 0.0
O142 O 0.24492 0.10388 0.86172 0.0
C143 C 0.13205 0.98174 0.10043 0.0
O144 O 0.109 0.93601 0.11724 0.0
O145 O 0.24 0.87139 0.14441 0.0
Zn146 Zn 0.22672 0.91969 0.07172 0.0
O147 O 0.20726 0.87161 0.99383 0.0
C148 C 0.32757 0.98321 0.09226 0.0
O149 O 0.31906 0.97768 0.14709 0.0
O150 O 0.17712 0.98155 0.08311 0.0
C151 C 0.244 0.84569 0.97655 0.0
O152 O 0.28536 0.84841 1.01111 0.0
C153 C 0.23935 0.81837 0.13963 0.0
O154 O 0.22629 0.79176 0.08874 0.0
O155 O 0.29425 0.96226 0.05324 0.0
C156 C 0.22552 0.55882 0.05516 0.0
O157 O 0.24912 0.54248 1.00935 0.0
O158 O 0.28905 0.45277 0.17416 0.0
Zn159 Zn 0.29246 0.49578 0.10557 0.0
O160 O 0.27587 0.44245 0.0367 0.0
C161 C 0.4004 0.52633 0.1257 0.0
O162 O 0.39794 0.497 0.17111 0.0
O163 O 0.24207 0.54907 0.10538 0.0
C164 C 0.29676 0.39796 0.02974 0.0
O165 O 0.32967 0.38478 0.06962 0.0
C166 C 0.25357 0.41497 0.18025 0.0
O167 O 0.21443 0.40584 0.14224 0.0
O168 O 0.36042 0.53265 0.09547 0.0
C169 C 0.91331 0.10261 0.99665 0.0
O170 O 0.9297 0.13959 0.96172 0.0
O171 O 0.83726 0.21544 0.11757 0.0
Zn172 Zn 0.82651 0.17376 0.03626 0.0
O173 O 0.82359 0.23294 0.97443 0.0
C174 C 0.7417 0.11293 0.08482 0.0
O175 O 0.77157 0.1209 0.13241 0.0
O176 O 0.87534 0.11117 0.02681 0.0
C177 C 0.78391 0.23582 0.94102 0.0
O178 O 0.74567 0.19729 0.94104 0.0
C179 C 0.80242 0.24637 0.12976 0.0
O180 O 0.7676 0.25274 0.08883 0.0
O181 O 0.75675 0.1312 0.03774 0.0
C182 C 0.22377 0.42111 0.36752 0.0
O183 O 0.2292 0.47106 0.39423 0.0
O184 O 0.10177 0.46116 0.23683 0.0
Zn185 Zn 0.13227 0.46439 0.32198 0.0
O186 O 0.07554 0.4693 0.38357 0.0
C187 C 0.16198 0.57934 0.31175 0.0
O188 O 0.11255 0.58125 0.30817 0.0
O189 O 0.18294 0.40543 0.33597 0.0
C190 C 0.07914 0.50703 0.4257 0.0
O191 O 0.11963 0.54298 0.43115 0.0
C192 C 0.05822 0.47707 0.22435 0.0
O193 O 0.02833 0.48745 0.26656 0.0
O194 O 0.17987 0.53457 0.32245 0.0
C195 C 0.72552 0.05882 0.55516 0.0
O196 O 0.74912 0.04249 0.50935 0.0
O197 O 0.78905 0.95277 0.67415 0.0
Zn198 Zn 0.79245 0.99578 0.60557 0.0
O199 O 0.77586 0.94245 0.5367 0.0
C200 C 0.9004 0.02633 0.6257 0.0
O201 O 0.89794 0.997 0.67111 0.0
O202 O 0.74207 0.04907 0.60538 0.0
C203 C 0.79676 0.89796 0.52973 0.0
O204 O 0.82966 0.88478 0.56962 0.0
C205 C 0.75356 0.91497 0.68025 0.0
O206 O 0.71443 0.90584 0.64224 0.0
O207 O 0.86042 0.03265 0.59547 0.0
C208 C 0.7819 0.14732 0.30269 0.0
O209 O 0.80297 0.13611 0.35258 0.0
O210 O 0.89218 0.06361 0.19273 0.0
Zn211 Zn 0.84953 0.07197 0.26249 0.0
O212 O 0.89776 0.09781 0.32982 0.0
C213 C 0.80709 0.95606 0.24546 0.0
O214 O 0.81248 0.96209 0.19002 0.0
O215 O 0.79551 0.12436 0.2556 0.0
C216 C 0.93511 0.0691 0.33327 0.0
O217 O 0.93987 0.02968 0.29247 0.0
C218 C 0.93002 0.09696 0.18191 0.0
O219 O 0.94007 0.14473 0.21275 0.0
O220 O 0.81877 0.99707 0.28257 0.0
C221 C 0.41331 0.60261 0.49665 0.0
O222 O 0.4297 0.63959 0.46172 0.0
O223 O 0.33726 0.71544 0.61757 0.0
Zn224 Zn 0.32651 0.67376 0.53626 0.0
O225 O 0.32359 0.73294 0.47443 0.0
C226 C 0.2417 0.61294 0.58482 0.0
O227 O 0.27157 0.6209 0.63242 0.0
O228 O 0.37534 0.61117 0.52681 0.0
C229 C 0.28391 0.73582 0.44102 0.0
O230 O 0.24567 0.69729 0.44104 0.0
C231 C 0.30243 0.74637 0.62976 0.0
O232 O 0.2676 0.75274 0.58883 0.0
O233 O 0.25675 0.6312 0.53774 0.0
C234 C 0.2819 0.64732 0.80269 0.0
O235 O 0.30297 0.63611 0.85258 0.0
O236 O 0.39218 0.56361 0.69273 0.0
Zn237 Zn 0.34953 0.57197 0.76249 0.0
O238 O 0.39776 0.59781 0.82982 0.0
C239 C 0.3071 0.45606 0.74547 0.0
O240 O 0.31249 0.46209 0.69003 0.0
O241 O 0.29552 0.62436 0.7556 0.0
C242 C 0.43511 0.5691 0.83327 0.0
O243 O 0.43987 0.52968 0.79247 0.0
C244 C 0.43002 0.59696 0.68191 0.0
O245 O 0.44007 0.64473 0.71275 0.0
O246 O 0.31877 0.49707 0.78257 0.0
C247 C 0.72377 0.92111 0.86752 0.0
O248 O 0.72921 0.97106 0.89423 0.0
O249 O 0.60177 0.96116 0.73683 0.0
Zn250 Zn 0.63228 0.96439 0.82197 0.0
O251 O 0.57555 0.9693 0.88357 0.0
C252 C 0.66198 0.07934 0.81175 0.0
O253 O 0.61255 0.08125 0.80817 0.0
O254 O 0.68294 0.90543 0.83597 0.0
C255 C 0.57914 1.00703 0.9257 0.0
O256 O 0.61963 0.04298 0.93115 0.0
C257 C 0.55822 0.97707 0.72435 0.0
O258 O 0.52833 0.98745 0.76656 0.0
O259 O 0.67987 0.03457 0.82245 0.0
C260 C 0.82423 0.5354 0.05326 0.0
O261 O 0.79224 0.54938 0.09198 0.0
O262 O 0.78106 0.66148 0.06869 0.0
Zn263 Zn 0.77789 0.61233 0.99663 0.0
O264 O 0.78888 0.65838 0.93196 0.0
C265 C 0.67263 0.59024 0.96867 0.0
O266 O 0.67788 0.63258 0.93666 0.0
O267 O 0.82493 0.55774 1.00547 0.0
C268 C 0.82164 0.70019 0.93336 0.0
O269 O 0.85593 0.71105 0.9769 0.0
C270 C 0.75283 0.7006 0.07326 0.0
O271 O 0.72377 0.71164 0.02869 0.0
O272 O 0.71105 0.57227 0.99235 0.0
C273 C 0.85497 0.69564 0.75959 0.0
O274 O 0.89784 0.72265 0.74724 0.0
O275 O 0.96316 0.58718 0.7259 0.0
Zn276 Zn 0.91023 0.59294 0.78945 0.0
O277 O 0.93948 0.59457 0.87499 0.0
C278 C 0.83195 0.51227 0.81416 0.0
O279 O 0.82315 0.55083 0.85421 0.0
O280 O 0.8551 0.64707 0.77684 0.0
C281 C 0.9858 0.59245 0.8921 0.0
O282 O 0.02104 0.59636 0.85432 0.0
C283 C 0.99348 0.54919 0.72156 0.0
O284 O 0.9941 0.51269 0.76058 0.0
O285 O 0.86781 0.5209 0.78053 0.0
C286 C 0.63205 0.48174 0.60043 0.0
O287 O 0.609 0.43601 0.61724 0.0
O288 O 0.74 0.37139 0.64441 0.0
Zn289 Zn 0.72672 0.41969 0.57172 0.0
O290 O 0.70726 0.37161 0.49383 0.0
C291 C 0.82757 0.48321 0.59226 0.0
O292 O 0.81906 0.47768 0.64709 0.0
O293 O 0.67712 0.48155 0.58311 0.0
C294 C 0.744 0.34569 0.47655 0.0
O295 O 0.78536 0.34841 0.51111 0.0
C296 C 0.73935 0.31837 0.63963 0.0
O297 O 0.72629 0.29176 0.58874 0.0
O298 O 0.79425 0.46226 0.55324 0.0
C299 C 0.757 0.43381 0.30797 0.0
O300 O 0.72772 0.43872 0.26151 0.0
O301 O 0.67464 0.52785 0.27329 0.0
Zn302 Zn 0.70738 0.52718 0.35199 0.0
O303 O 0.65119 0.52363 0.40803 0.0
C304 C 0.71563 0.64163 0.35423 0.0
O305 O 0.66644 0.62788 0.3466 0.0
O306 O 0.75488 0.46641 0.35339 0.0
C307 C 0.61761 0.48656 0.42172 0.0
O308 O 0.61758 0.43471 0.40121 0.0
C309 C 0.63438 0.49969 0.25221 0.0
O310 O 0.6106 0.46232 0.28183 0.0
O311 O 0.74491 0.60388 0.36172 0.0
Tb312 Tb 0.04779 0.10106 0.04589 0.0
C313 C 0.07988 1.00367 0.96198 0.0
Tb314 Tb 0.99509 0.98145 0.05272 0.0
O315 O 0.12293 0.07701 0.0742 0.0
O316 O 0.05636 0.03293 0.0957 0.0
O317 O 0.07961 0.0579 0.97329 0.0
C318 C 0.98077 0.88236 0.09257 0.0
O319 O 0.05112 0.96591 0.98783 0.0
C320 C 0.93983 0.05182 1.00295 0.0
C321 C 0.96463 0.07885 0.13837 0.0
O322 O 0.96474 0.89351 0.0407 0.0
O323 O 1.00431 0.92625 0.12059 0.0
O324 O 0.92037 0.00775 0.0257 0.0
O325 O 0.98724 0.04923 1.0025 0.0
O326 O 0.96356 0.0246 0.12589 0.0
O327 O 0.99384 0.11647 0.11291 0.0
C328 C 0.05701 0.19833 1.00169 0.0
O329 O 0.07652 0.18947 0.05291 0.0
O330 O 0.03323 0.15323 0.97668 0.0
C331 C 0.10411 0.03179 0.09557 0.0
Tb332 Tb 0.27568 0.85115 0.31917 0.0
C333 C 0.36285 0.77161 0.3103 0.0
Tb334 Tb 0.24545 0.72473 0.28215 0.0
O335 O 0.30583 0.82963 0.40582 0.0
O336 O 0.24964 0.77882 0.35769 0.0
O337 O 0.35021 0.8226 0.30504 0.0
C338 C 0.19541 0.62942 0.30476 0.0
O339 O 0.3281 0.72734 0.30745 0.0
C340 C 0.24909 0.78414 0.1896 0.0
C341 C 0.15865 0.80731 0.28624 0.0
O342 O 0.23694 0.63322 0.27645 0.0
O343 O 0.18316 0.67825 0.31977 0.0
O344 O 0.23949 0.73021 0.18659 0.0
O345 O 0.25978 0.79899 0.24271 0.0
O346 O 0.17089 0.75569 0.27963 0.0
O347 O 0.19278 0.85123 0.30019 0.0
C348 C 0.30621 0.9567 0.31318 0.0
O349 O 0.27855 0.9377 0.35378 0.0
O350 O 0.31515 0.9168 0.27585 0.0
C351 C 0.27943 0.78144 0.40212 0.0
Tb352 Tb 0.57205 0.05147 0.55205 0.0
C353 C 0.5441 0.99302 0.66527 0.0
Tb354 Tb 0.47102 0.02162 0.56684 0.0
O355 O 0.5608 0.13862 0.55184 0.0
O356 O 0.52005 0.0898 0.60688 0.0
O357 O 0.57873 0.99953 0.6263 0.0
C358 C 0.37053 0.01416 0.57139 0.0
O359 O 0.49751 1.00576 0.65394 0.0
C360 C 0.5139 0.93541 0.52503 0.0
C361 C 0.4994 0.07687 0.45141 0.0
O362 O 0.39544 0.98786 0.53367 0.0
O363 O 0.4028 0.044 0.60762 0.0
O364 O 0.48186 0.9345 0.56539 0.0
O365 O 0.5221 0.98438 0.51026 0.0
O366 O 0.46402 0.06919 0.48931 0.0
O367 O 0.54646 0.06641 0.4643 0.0
C368 C 0.6723 0.06607 0.54865 0.0
O369 O 0.64665 0.08236 0.59149 0.0
O370 O 0.64169 0.03992 0.50801 0.0
C371 C 0.52703 0.13808 0.5901 0.0
Tb372 Tb 0.28485 0.31932 0.86659 0.0
C373 C 0.29088 0.40132 0.76488 0.0
Tb374 Tb 0.24361 0.27674 0.73501 0.0
O375 O 0.36595 0.30547 0.85372 0.0
O376 O 0.31043 0.28895 0.78856 0.0
O377 O 0.29206 0.3958 0.82197 0.0
C378 C 0.2497 0.22915 0.62999 0.0
O379 O 0.27802 0.36005 0.72409 0.0
C380 C 0.17017 0.30705 0.80091 0.0
C381 C 0.2359 0.19543 0.8368 0.0
O382 O 0.22243 0.26981 0.6419 0.0
O383 O 0.2725 0.21496 0.67679 0.0
O384 O 0.16217 0.28804 0.74653 0.0
O385 O 0.21725 0.30786 0.81284 0.0
O386 O 0.23484 0.20094 0.77984 0.0
O387 O 0.24866 0.23651 0.8779 0.0
C388 C 0.28937 0.36661 0.9735 0.0
O389 O 0.31266 0.32382 0.95768 0.0
O390 O 0.2633 0.38229 0.92958 0.0
C391 C 0.35713 0.28731 0.79936 0.0
Tb392 Tb 1.00849 0.05677 0.49034 0.0
C393 C 0.94881 0.04087 0.60103 0.0
Tb394 Tb 0.06929 0.05109 0.60406 0.0
O395 O 0.98335 0.96774 0.49329 0.0
O396 O 0.05482 1.00051 0.52672 0.0
O397 O 0.94706 0.05769 0.54783 0.0
C398 C 0.11235 0.01482 0.69775 0.0
O399 O 0.99159 0.03222 0.62984 0.0
C400 C 0.05904 0.15231 0.58007 0.0
C401 C 0.12438 0.07412 0.49186 0.0
O402 O 0.06989 0.99284 0.67181 0.0
O403 O 0.13039 0.05683 0.6713 0.0
O404 O 0.09482 0.13922 0.61534 0.0
O405 O 0.02701 0.11066 0.5672 0.0
O406 O 0.1244 0.04446 0.53793 0.0
O407 O 0.08278 0.09278 0.4705 0.0
C408 C 0.96567 0.07088 0.38733 0.0
O409 O 0.99886 0.03647 0.39701 0.0
O410 O 0.95671 0.09814 0.43556 0.0
C411 C 0.02514 0.9573 0.52005 0.0
Tb412 Tb 0.32371 0.79297 0.8246 0.0
C413 C 0.24591 0.81939 0.9168 0.0
Tb414 Tb 0.21241 0.78624 0.78357 0.0
O415 O 0.32462 0.88249 0.84682 0.0
O416 O 0.27714 0.84232 0.77844 0.0
O417 O 0.28808 0.79593 0.90681 0.0
C418 C 0.12083 0.79785 0.73827 0.0
O419 O 0.2112 0.82495 0.87399 0.0
C420 C 0.24905 0.69211 0.80144 0.0
C421 C 0.2935 0.76475 0.69042 0.0
O422 O 0.16156 0.82961 0.73038 0.0
O423 O 0.13075 0.76172 0.77482 0.0
O424 O 0.21473 0.69707 0.76069 0.0
O425 O 0.25876 0.73762 0.83089 0.0
O426 O 0.24745 0.77918 0.70032 0.0
O427 O 0.32935 0.76382 0.73277 0.0
C428 C 0.4136 0.77023 0.86428 0.0
O429 O 0.40146 0.81959 0.85632 0.0
O430 O 0.37609 0.73342 0.8478 0.0
C431 C 0.28827 0.88756 0.80834 0.0
Tb432 Tb 0.47499 0.03062 0.05189 0.0
C433 C 0.54015 0.93173 0.07283 0.0
Tb434 Tb 0.59095 0.05307 0.08843 0.0
O435 O 0.49281 0.98869 0.96641 0.0
O436 O 0.54389 0.04739 1.01208 0.0
O437 O 0.49642 0.95238 0.0806 0.0
C438 C 0.68953 0.0879 0.08738 0.0
O439 O 0.58301 0.96346 0.0674 0.0
C440 C 0.52801 0.04581 0.17322 0.0
C441 C 0.52591 0.15399 0.05909 0.0
O442 O 0.66118 0.06514 0.04308 0.0
O443 O 0.66291 0.09007 0.13296 0.0
O444 O 0.57362 0.02995 0.17657 0.0
O445 O 0.52123 0.06602 0.12536 0.0
O446 O 0.571 0.13588 0.07119 0.0
O447 O 0.48212 0.12121 0.05167 0.0
C448 C 0.37866 1.00497 0.07699 0.0
O449 O 0.3927 0.0194 0.02625 0.0
O450 O 0.41832 1.00667 0.11255 0.0
C451 C 0.53923 0.01267 0.96868 0.0
Tb452 Tb 0.23163 0.27462 0.29658 0.0
C453 C 0.31263 0.24086 0.39221 0.0
Tb454 Tb 0.34255 0.33983 0.31781 0.0
O455 O 0.26204 0.19717 0.26473 0.0
O456 O 0.30338 0.27405 0.26396 0.0
O457 O 0.26492 0.23795 0.37029 0.0
C458 C 0.42398 0.35674 0.26079 0.0
O459 O 0.35071 0.27603 0.37781 0.0
C460 C 0.26918 0.39004 0.36506 0.0
C461 C 0.26195 0.37693 0.22463 0.0
O462 O 0.42351 0.37001 0.31691 0.0
O463 O 0.38032 0.33412 0.23938 0.0
O464 O 0.31565 0.4139 0.36389 0.0
O465 O 0.27081 0.33992 0.34817 0.0
O466 O 0.3078 0.3845 0.2516 0.0
O467 O 0.22588 0.33704 0.23394 0.0
C468 C 0.14206 0.25833 0.33761 0.0
O469 O 0.18214 0.28372 0.36557 0.0
O470 O 0.1512 0.24208 0.28415 0.0
C471 C 0.30685 0.22251 0.25738 0.0
Tb472 Tb 0.50849 0.55676 0.99034 0.0
C473 C 0.44881 0.54087 0.10102 0.0
Tb474 Tb 0.56929 0.55108 0.10406 0.0
O475 O 0.48335 0.46773 0.99329 0.0
O476 O 0.55482 0.5005 0.02672 0.0
O477 O 0.44707 0.55768 0.04783 0.0
C478 C 0.61235 0.51481 0.19774 0.0
O479 O 0.49159 0.53222 0.12983 0.0
C480 C 0.55905 0.6523 0.08007 0.0
C481 C 0.62438 0.57411 0.99186 0.0
O482 O 0.56989 0.49283 0.1718 0.0
O483 O 0.63039 0.55682 0.17129 0.0
O484 O 0.59483 0.63921 0.11533 0.0
O485 O 0.52701 0.61065 0.0672 0.0
O486 O 0.6244 0.54445 0.03792 0.0
O487 O 0.58278 0.59277 0.9705 0.0
C488 C 0.46567 0.57088 0.88733 0.0
O489 O 0.49886 0.53646 0.89701 0.0
O490 O 0.45671 0.59814 0.93556 0.0
C491 C 0.52514 0.45729 0.02005 0.0
Tb492 Tb 0.82371 0.29297 0.3246 0.0
C493 C 0.74592 0.31939 0.4168 0.0
Tb494 Tb 0.71241 0.28624 0.28357 0.0
O495 O 0.82462 0.38249 0.34682 0.0
O496 O 0.77714 0.34232 0.27844 0.0
O497 O 0.78808 0.29593 0.40681 0.0
C498 C 0.62083 0.29785 0.23827 0.0
O499 O 0.7112 0.32495 0.37399 0.0
C500 C 0.74905 0.19211 0.30144 0.0
C501 C 0.7935 0.26475 0.19042 0.0
O502 O 0.66156 0.32961 0.23038 0.0
O503 O 0.63075 0.26172 0.27482 0.0
O504 O 0.71473 0.19707 0.26069 0.0
O505 O 0.75876 0.23762 0.33089 0.0
O506 O 0.74745 0.27918 0.20031 0.0
O507 O 0.82934 0.26382 0.23277 0.0
C508 C 0.9136 0.27023 0.36428 0.0
O509 O 0.90146 0.31959 0.35631 0.0
O510 O 0.87609 0.23342 0.3478 0.0
C511 C 0.78827 0.38756 0.30834 0.0
Tb512 Tb 0.97499 0.53062 0.55189 0.0
C513 C 0.04015 0.43173 0.57283 0.0
Tb514 Tb 0.09095 0.55308 0.58843 0.0
O515 O 0.9928 0.4887 0.46642 0.0
O516 O 0.04389 0.54739 0.51208 0.0
O517 O 0.99642 0.45238 0.5806 0.0
C518 C 0.18953 0.58791 0.58738 0.0
O519 O 0.08301 0.46346 0.5674 0.0
C520 C 0.02801 0.54582 0.67322 0.0
C521 C 0.02591 0.65399 0.55909 0.0
O522 O 0.16118 0.56514 0.54308 0.0
O523 O 0.1629 0.59007 0.63297 0.0
O524 O 0.07362 0.52995 0.67657 0.0
O525 O 0.02122 0.56602 0.62536 0.0
O526 O 0.071 0.63588 0.57119 0.0
O527 O 0.98212 0.62122 0.55167 0.0
C528 C 0.87866 0.50497 0.577 0.0
O529 O 0.8927 0.5194 0.52625 0.0
O530 O 0.91832 0.50667 0.61255 0.0
C531 C 0.03923 0.51267 0.46868 0.0
Tb532 Tb 0.78484 0.81932 0.36659 0.0
C533 C 0.79088 0.90132 0.26488 0.0
Tb534 Tb 0.74361 0.77674 0.23501 0.0
O535 O 0.86594 0.80547 0.35372 0.0
O536 O 0.81043 0.78895 0.28856 0.0
O537 O 0.79206 0.8958 0.32197 0.0
C538 C 0.7497 0.72915 0.12998 0.0
O539 O 0.77802 0.86005 0.22409 0.0
C540 C 0.67017 0.80705 0.30091 0.0
C541 C 0.7359 0.69542 0.33679 0.0
O542 O 0.72243 0.76981 0.14189 0.0
O543 O 0.7725 0.71496 0.17679 0.0
O544 O 0.66217 0.78804 0.24653 0.0
O545 O 0.71725 0.80786 0.31284 0.0
O546 O 0.73484 0.70094 0.27983 0.0
O547 O 0.74866 0.73651 0.37789 0.0
C548 C 0.78936 0.86661 0.47349 0.0
O549 O 0.81266 0.82382 0.45768 0.0
O550 O 0.7633 0.88229 0.42958 0.0
C551 C 0.85713 0.78731 0.29936 0.0
Tb552 Tb 0.77568 0.35116 0.81917 0.0
C553 C 0.86285 0.27161 0.8103 0.0
Tb554 Tb 0.74545 0.22473 0.78215 0.0
O555 O 0.80583 0.32963 0.90582 0.0
O556 O 0.74965 0.27882 0.85769 0.0
O557 O 0.85021 0.3226 0.80504 0.0
C558 C 0.69541 0.12942 0.80475 0.0
O559 O 0.8281 0.22734 0.80745 0.0
C560 C 0.74909 0.28414 0.6896 0.0
C561 C 0.65865 0.30731 0.78624 0.0
O562 O 0.73694 0.13322 0.77645 0.0
O563 O 0.68316 0.17825 0.81977 0.0
O564 O 0.73949 0.23021 0.68659 0.0
O565 O 0.75978 0.299 0.74271 0.0
O566 O 0.67089 0.25569 0.77963 0.0
O567 O 0.69278 0.35123 0.80019 0.0
C568 C 0.80621 0.4567 0.81318 0.0
O569 O 0.77855 0.4377 0.85378 0.0
O570 O 0.81515 0.41681 0.77585 0.0
C571 C 0.77943 0.28144 0.90212 0.0
Tb572 Tb 0.73163 0.77462 0.79658 0.0
C573 C 0.81263 0.74086 0.8922 0.0
Tb574 Tb 0.84255 0.83982 0.8178 0.0
O575 O 0.76204 0.69717 0.76473 0.0
O576 O 0.80338 0.77404 0.76395 0.0
O577 O 0.76491 0.73794 0.87029 0.0
C578 C 0.92398 0.85673 0.76079 0.0
O579 O 0.8507 0.77602 0.8778 0.0
C580 C 0.76918 0.89004 0.86506 0.0
C581 C 0.76195 0.87693 0.72463 0.0
O582 O 0.92351 0.87001 0.81691 0.0
O583 O 0.88032 0.83411 0.73938 0.0
O584 O 0.81565 0.9139 0.86388 0.0
O585 O 0.77081 0.83991 0.84817 0.0
O586 O 0.8078 0.88449 0.75159 0.0
O587 O 0.72588 0.83704 0.73394 0.0
C588 C 0.64205 0.75833 0.83761 0.0
O589 O 0.68214 0.78372 0.86557 0.0
O590 O 0.6512 0.74208 0.78415 0.0
C591 C 0.80685 0.72251 0.75737 0.0
Tb592 Tb 0.54779 0.60106 0.54589 0.0
C593 C 0.57987 0.50367 0.46197 0.0
Tb594 Tb 0.49509 0.48145 0.55272 0.0
O595 O 0.62293 0.57701 0.57419 0.0
O596 O 0.55636 0.53293 0.5957 0.0
O597 O 0.5796 0.5579 0.47329 0.0
C598 C 0.48077 0.38236 0.59257 0.0
O599 O 0.55112 0.46591 0.48783 0.0
C600 C 0.43983 0.55182 0.50295 0.0
C601 C 0.46463 0.57885 0.63837 0.0
O602 O 0.46474 0.39351 0.5407 0.0
O603 O 0.50431 0.42625 0.62059 0.0
O604 O 0.42037 0.50775 0.5257 0.0
O605 O 0.48724 0.54923 0.5025 0.0
O606 O 0.46356 0.5246 0.62589 0.0
O607 O 0.49384 0.61647 0.61291 0.0
C608 C 0.55701 0.69833 0.50168 0.0
O609 O 0.57652 0.68947 0.55291 0.0
O610 O 0.53323 0.65323 0.47668 0.0
C611 C 0.60411 0.53179 0.59557 0.0
Tb612 Tb 0.07205 0.55148 0.05206 0.0
C613 C 0.0441 0.49302 0.16527 0.0
Tb614 Tb 0.97102 0.52162 0.06684 0.0
O615 O 0.06081 0.63862 0.05184 0.0
O616 O 0.02005 0.5898 0.10688 0.0
O617 O 0.07873 0.49953 0.1263 0.0
C618 C 0.87054 0.51416 0.0714 0.0
O619 O 0.99751 0.50576 0.15395 0.0
C620 C 0.0139 0.43541 0.02503 0.0
C621 C 0.9994 0.57687 0.95141 0.0
O622 O 0.89544 0.48786 0.03367 0.0
O623 O 0.90281 0.544 0.10762 0.0
O624 O 0.98186 0.4345 0.0654 0.0
O625 O 0.0221 0.48438 1.01026 0.0
O626 O 0.96402 0.56919 0.98931 0.0
O627 O 0.04646 0.56641 0.9643 0.0
C628 C 0.1723 0.56607 0.04865 0.0
O629 O 0.14666 0.58236 0.09149 0.0
O630 O 0.14169 0.53992 1.00801 0.0
C631 C 0.02703 0.63808 0.09011 0.0
loop_
_geom_bond_atom_site_label_1
_geom_bond_atom_site_label_2
_geom_bond_distance
_geom_bond_site_symmetry_2
_ccdc_geom_bond_type
C0 O1 1.160 . S
C0 O7 1.185 . S
O1 C0 1.160 . S
O2 Zn3 1.899 . S
O2 C10 1.284 . S
Zn3 O2 1.899 . S
Zn3 O4 2.032 . S
Zn3 O7 2.086 . S
Zn3 O12 1.977 1_455 S
O4 Zn3 2.032 . S
O4 C8 1.278 . S
C5 O6 1.203 . S
C5 O12 1.267 . S
O6 C5 1.203 . S
O7 C0 1.185 . S
O7 Zn3 2.086 . S
C8 O4 1.278 . S
C8 O9 1.211 1_455 S
O9 C8 1.211 1_655 S
C10 O2 1.284 . S
C10 O11 1.273 . S
O11 C10 1.273 . S
O12 Zn3 1.977 1_655 S
O12 C5 1.267 . S
C13 O14 1.160 . S
C13 O20 1.185 . S
O14 C13 1.160 . S
O15 Zn16 1.899 . S
O15 C23 1.284 . S
Zn16 O15 1.899 . S
Zn16 O17 2.032 . S
Zn16 O20 2.086 . S
Zn16 O25 1.977 1_655 S
O17 Zn16 2.032 . S
O17 C21 1.278 1_655 S
C18 O19 1.203 . S
C18 O25 1.267 . S
O19 C18 1.203 . S
O20 C13 1.185 . S
O20 Zn16 2.086 . S
C21 O17 1.278 1_455 S
C21 O22 1.211 . S
O22 C21 1.211 . S
C23 O15 1.284 . S
C23 O24 1.273 1_655 S
O24 C23 1.273 1_455 S
O25 Zn16 1.977 1_455 S
O25 C18 1.267 . S
C26 O27 1.160 . S
C26 O33 1.185 . S
O27 C26 1.160 . S
O28 Zn29 1.899 . S
O28 C36 1.284 1_556 S
Zn29 O28 1.899 . S
Zn29 O30 2.032 . S
Zn29 O33 2.086 . S
Zn29 O38 1.977 . S
O30 Zn29 2.032 . S
O30 C34 1.278 . S
C31 O32 1.203 . S
C31 O38 1.267 . S
O32 C31 1.203 . S
O33 C26 1.185 . S
O33 Zn29 2.086 . S
C34 O30 1.278 . S
C34 O35 1.211 . S
O35 C34 1.211 . S
C36 O28 1.284 1_554 S
C36 O37 1.273 . S
O37 C36 1.273 . S
O38 Zn29 1.977 . S
O38 C31 1.267 . S
C39 O40 1.160 . S
C39 O46 1.185 . S
O40 C39 1.160 . S
O41 Zn42 1.899 . S
O41 C49 1.284 . S
Zn42 O41 1.899 . S
Zn42 O43 2.032 . S
Zn42 O46 2.086 . S
Zn42 O51 1.977 . S
O43 Zn42 2.032 . S
O43 C47 1.278 . S
C44 O45 1.203 . S
C44 O51 1.267 . S
O45 C44 1.203 . S
O46 C39 1.185 . S
O46 Zn42 2.086 . S
C47 O43 1.278 . S
C47 O48 1.211 . S
O48 C47 1.211 . S
C49 O41 1.284 . S
C49 O50 1.273 . S
O50 C49 1.273 . S
O51 Zn42 1.977 . S
O51 C44 1.267 . S
C52 O53 1.160 . S
C52 O59 1.185 . S
O53 C52 1.160 . S
O54 Zn55 1.899 1_655 S
O54 C62 1.284 1_655 S
Zn55 O54 1.899 1_455 S
Zn55 O56 2.032 1_455 S
Zn55 O59 2.086 1_455 S
Zn55 O64 1.977 . S
O56 Zn55 2.032 1_655 S
O56 C60 1.278 1_655 S
C57 O58 1.203 . S
C57 O64 1.267 . S
O58 C57 1.203 . S
O59 C52 1.185 . S
O59 Zn55 2.086 1_655 S
C60 O56 1.278 1_455 S
C60 O61 1.211 . S
O61 C60 1.211 . S
C62 O54 1.284 1_455 S
C62 O63 1.273 . S
O63 C62 1.273 . S
O64 Zn55 1.977 . S
O64 C57 1.267 . S
C65 O66 1.160 . S
C65 O72 1.185 . S
O66 C65 1.160 . S
O67 Zn68 1.899 . S
O67 C75 1.284 . S
Zn68 O67 1.899 . S
Zn68 O69 2.032 . S
Zn68 O72 2.086 . S
Zn68 O77 1.977 . S
O69 Zn68 2.032 . S
O69 C73 1.278 . S
C70 O71 1.203 . S
C70 O77 1.267 . S
O71 C70 1.203 . S
O72 C65 1.185 . S
O72 Zn68 2.086 . S
C73 O69 1.278 . S
C73 O74 1.211 . S
O74 C73 1.211 . S
C75 O67 1.284 . S
C75 O76 1.273 . S
O76 C75 1.273 . S
O77 Zn68 1.977 . S
O77 C70 1.267 . S
C78 O79 1.160 . S
C78 O85 1.185 . S
O79 C78 1.160 . S
O80 Zn81 1.899 . S
O80 C88 1.284 . S
Zn81 O80 1.899 . S
Zn81 O82 2.032 . S
Zn81 O85 2.086 . S
Zn81 O90 1.977 . S
O82 Zn81 2.032 . S
O82 C86 1.278 . S
C83 O84 1.203 . S
C83 O90 1.267 . S
O84 C83 1.203 . S
O85 C78 1.185 . S
O85 Zn81 2.086 . S
C86 O82 1.278 . S
C86 O87 1.211 . S
O87 C86 1.211 . S
C88 O80 1.284 . S
C88 O89 1.273 . S
O89 C88 1.273 . S
O90 Zn81 1.977 . S
O90 C83 1.267 . S
C91 O92 1.160 . S
C91 O98 1.185 . S
O92 C91 1.160 . S
O93 Zn94 1.899 . S
O93 C101 1.284 . S
Zn94 O93 1.899 . S
Zn94 O95 2.032 . S
Zn94 O98 2.086 . S
Zn94 O103 1.977 1_455 S
O95 Zn94 2.032 . S
O95 C99 1.278 . S
C96 O97 1.203 . S
C96 O103 1.267 . S
O97 C96 1.203 . S
O98 C91 1.185 . S
O98 Zn94 2.086 . S
C99 O95 1.278 . S
C99 O100 1.211 1_455 S
O100 C99 1.211 1_655 S
C101 O93 1.284 . S
C101 O102 1.273 1_455 S
O102 C101 1.273 1_655 S
O103 Zn94 1.977 1_655 S
O103 C96 1.267 . S
C104 O105 1.160 . S
C104 O111 1.185 . S
O105 C104 1.160 . S
O106 Zn107 1.899 . S
O106 C114 1.284 . S
Zn107 O106 1.899 . S
Zn107 O108 2.032 . S
Zn107 O111 2.086 . S
Zn107 O116 1.977 . S
O108 Zn107 2.032 . S
O108 C112 1.278 . S
C109 O110 1.203 . S
C109 O116 1.267 1_565 S
O110 C109 1.203 . S
O111 C104 1.185 . S
O111 Zn107 2.086 . S
C112 O108 1.278 . S
C112 O113 1.211 . S
O113 C112 1.211 . S
C114 O106 1.284 . S
C114 O115 1.273 . S
O115 C114 1.273 . S
O116 Zn107 1.977 . S
O116 C109 1.267 1_545 S
C117 O118 1.160 . S
C117 O124 1.185 . S
O118 C117 1.160 . S
O119 Zn120 1.899 . S
O119 C127 1.284 . S
Zn120 O119 1.899 . S
Zn120 O121 2.032 . S
Zn120 O124 2.086 . S
Zn120 O129 1.977 . S
O121 Zn120 2.032 . S
O121 C125 1.278 . S
C122 O123 1.203 . S
C122 O129 1.267 . S
O123 C122 1.203 . S
O124 C117 1.185 . S
O124 Zn120 2.086 . S
C125 O121 1.278 . S
C125 O126 1.211 . S
O126 C125 1.211 . S
C127 O119 1.284 . S
C127 O128 1.273 . S
O128 C127 1.273 . S
O129 Zn120 1.977 . S
O129 C122 1.267 . S
C130 O131 1.160 . S
C130 O137 1.185 . S
O131 C130 1.160 . S
O132 Zn133 1.899 1_565 S
O132 C140 1.284 1_565 S
Zn133 O132 1.899 1_545 S
Zn133 O134 2.032 1_545 S
Zn133 O137 2.086 1_545 S
Zn133 O142 1.977 . S
O134 Zn133 2.032 1_565 S
O134 C138 1.278 1_565 S
C135 O136 1.203 . S
C135 O142 1.267 . S
O136 C135 1.203 . S
O137 C130 1.185 . S
O137 Zn133 2.086 1_565 S
C138 O134 1.278 1_545 S
C138 O139 1.211 . S
O139 C138 1.211 . S
C140 O132 1.284 1_545 S
C140 O141 1.273 . S
O141 C140 1.273 . S
O142 Zn133 1.977 . S
O142 C135 1.267 . S
C143 O144 1.160 . S
C143 O150 1.185 . S
O144 C143 1.160 . S
O145 Zn146 1.899 . S
O145 C153 1.284 . S
Zn146 O145 1.899 . S
Zn146 O147 2.032 1_554 S
Zn146 O150 2.086 . S
Zn146 O155 1.977 . S
O147 Zn146 2.032 1_556 S
O147 C151 1.278 . S
C148 O149 1.203 . S
C148 O155 1.267 . S
O149 C148 1.203 . S
O150 C143 1.185 . S
O150 Zn146 2.086 . S
C151 O147 1.278 . S
C151 O152 1.211 . S
O152 C151 1.211 . S
C153 O145 1.284 . S
C153 O154 1.273 . S
O154 C153 1.273 . S
O155 Zn146 1.977 . S
O155 C148 1.267 . S
C156 O157 1.160 . S
C156 O163 1.185 . S
O157 C156 1.160 . S
O158 Zn159 1.899 . S
O158 C166 1.284 . S
Zn159 O158 1.899 . S
Zn159 O160 2.032 . S
Zn159 O163 2.086 . S
Zn159 O168 1.977 . S
O160 Zn159 2.032 . S
O160 C164 1.278 1_554 S
C161 O162 1.203 . S
C161 O168 1.267 . S
O162 C161 1.203 . S
O163 C156 1.185 . S
O163 Zn159 2.086 . S
C164 O160 1.278 1_556 S
C164 O165 1.211 . S
O165 C164 1.211 . S
C166 O158 1.284 . S
C166 O167 1.273 . S
O167 C166 1.273 . S
O168 Zn159 1.977 . S
O168 C161 1.267 . S
C169 O170 1.160 . S
C169 O176 1.185 . S
O170 C169 1.160 . S
O171 Zn172 1.899 . S
O171 C179 1.284 . S
Zn172 O171 1.899 . S
Zn172 O173 2.032 1_554 S
Zn172 O176 2.086 . S
Zn172 O181 1.977 . S
O173 Zn172 2.032 1_556 S
O173 C177 1.278 . S
C174 O175 1.203 . S
C174 O181 1.267 . S
O175 C174 1.203 . S
O176 C169 1.185 . S
O176 Zn172 2.086 . S
C177 O173 1.278 . S
C177 O178 1.211 . S
O178 C177 1.211 . S
C179 O171 1.284 . S
C179 O180 1.273 . S
O180 C179 1.273 . S
O181 Zn172 1.977 . S
O181 C174 1.267 . S
C182 O183 1.160 . S
C182 O189 1.185 . S
O183 C182 1.160 . S
O184 Zn185 1.899 . S
O184 C192 1.284 . S
Zn185 O184 1.899 . S
Zn185 O186 2.032 . S
Zn185 O189 2.086 . S
Zn185 O194 1.977 . S
O186 Zn185 2.032 . S
O186 C190 1.278 . S
C187 O188 1.203 . S
C187 O194 1.267 . S
O188 C187 1.203 . S
O189 C182 1.185 . S
O189 Zn185 2.086 . S
C190 O186 1.278 . S
C190 O191 1.211 . S
O191 C190 1.211 . S
C192 O184 1.284 . S
C192 O193 1.273 . S
O193 C192 1.273 . S
O194 Zn185 1.977 . S
O194 C187 1.267 . S
C195 O196 1.160 . S
C195 O202 1.185 . S
O196 C195 1.160 . S
O197 Zn198 1.899 . S
O197 C205 1.284 . S
Zn198 O197 1.899 . S
Zn198 O199 2.032 . S
Zn198 O202 2.086 . S
Zn198 O207 1.977 . S
O199 Zn198 2.032 . S
O199 C203 1.278 . S
C200 O201 1.203 . S
C200 O207 1.267 . S
O201 C200 1.203 . S
O202 C195 1.185 . S
O202 Zn198 2.086 . S
C203 O199 1.278 . S
C203 O204 1.211 . S
O204 C203 1.211 . S
C205 O197 1.284 . S
C205 O206 1.273 . S
O206 C205 1.273 . S
O207 Zn198 1.977 . S
O207 C200 1.267 . S
C208 O209 1.160 . S
C208 O215 1.185 . S
O209 C208 1.160 . S
O210 Zn211 1.899 . S
O210 C218 1.284 . S
Zn211 O210 1.899 . S
Zn211 O212 2.032 . S
Zn211 O215 2.086 . S
Zn211 O220 1.988 . S
O212 Zn211 2.032 . S
O212 C216 1.278 . S
C213 O214 1.203 . S
C213 O220 1.253 1_565 S
O214 C213 1.203 . S
O215 C208 1.185 . S
O215 Zn211 2.086 . S
C216 O212 1.278 . S
C216 O217 1.211 . S
O217 C216 1.211 . S
C218 O210 1.284 . S
C218 O219 1.273 . S
O219 C218 1.273 . S
O220 Zn211 1.988 . S
O220 C213 1.253 1_545 S
C221 O222 1.160 . S
C221 O228 1.185 . S
O222 C221 1.160 . S
O223 Zn224 1.899 . S
O223 C231 1.284 . S
Zn224 O223 1.899 . S
Zn224 O225 2.032 . S
Zn224 O228 2.086 . S
Zn224 O233 1.977 . S
O225 Zn224 2.032 . S
O225 C229 1.278 . S
C226 O227 1.203 . S
C226 O233 1.267 . S
O227 C226 1.203 . S
O228 C221 1.185 . S
O228 Zn224 2.086 . S
C229 O225 1.278 . S
C229 O230 1.211 . S
O230 C229 1.211 . S
C231 O223 1.284 . S
C231 O232 1.273 . S
O232 C231 1.273 . S
O233 Zn224 1.977 . S
O233 C226 1.267 . S
C234 O235 1.160 . S
C234 O241 1.185 . S
O235 C234 1.160 . S
O236 Zn237 1.899 . S
O236 C244 1.284 . S
Zn237 O236 1.899 . S
Zn237 O238 2.032 . S
Zn237 O241 2.086 . S
Zn237 O246 1.977 . S
O238 Zn237 2.032 . S
O238 C242 1.278 . S
C239 O240 1.203 . S
C239 O246 1.267 . S
O240 C239 1.203 . S
O241 C234 1.185 . S
O241 Zn237 2.086 . S
C242 O238 1.278 . S
C242 O243 1.211 . S
O243 C242 1.211 . S
C244 O236 1.284 . S
C244 O245 1.273 . S
O245 C244 1.273 . S
O246 Zn237 1.977 . S
O246 C239 1.267 . S
C247 O248 1.160 . S
C247 O254 1.185 . S
O248 C247 1.160 . S
O249 Zn250 1.899 . S
O249 C257 1.284 . S
Zn250 O249 1.899 . S
Zn250 O251 2.032 . S
Zn250 O254 2.086 . S
Zn250 O259 1.977 1_565 S
O251 Zn250 2.032 . S
O251 C255 1.278 1_565 S
C252 O253 1.203 . S
C252 O259 1.267 . S
O253 C252 1.203 . S
O254 C247 1.185 . S
O254 Zn250 2.086 . S
C255 O251 1.278 1_545 S
C255 O256 1.211 . S
O256 C255 1.211 . S
C257 O249 1.284 . S
C257 O258 1.273 1_565 S
O258 C257 1.273 1_545 S
O259 Zn250 1.977 1_545 S
O259 C252 1.267 . S
C260 O261 1.160 . S
C260 O267 1.185 1_554 S
O261 C260 1.160 . S
O262 Zn263 1.899 . S
O262 C270 1.284 . S
Zn263 O262 1.899 . S
Zn263 O264 2.032 1_554 S
Zn263 O267 2.086 1_554 S
Zn263 O272 1.977 1_554 S
O264 Zn263 2.032 1_556 S
O264 C268 1.278 . S
C265 O266 1.203 1_556 S
C265 O272 1.267 . S
O266 C265 1.203 1_554 S
O267 C260 1.185 1_556 S
O267 Zn263 2.086 1_556 S
C268 O264 1.278 . S
C268 O269 1.211 . S
O269 C268 1.211 . S
C270 O262 1.284 . S
C270 O271 1.273 . S
O271 C270 1.273 . S
O272 Zn263 1.977 1_556 S
O272 C265 1.267 . S
C273 O274 1.160 . S
C273 O280 1.185 . S
O274 C273 1.160 . S
O275 Zn276 1.899 . S
O275 C283 1.284 . S
Zn276 O275 1.899 . S
Zn276 O277 2.032 . S
Zn276 O280 2.086 . S
Zn276 O285 1.977 . S
O277 Zn276 2.032 . S
O277 C281 1.278 . S
C278 O279 1.203 . S
C278 O285 1.267 . S
O279 C278 1.203 . S
O280 C273 1.185 . S
O280 Zn276 2.086 . S
C281 O277 1.278 . S
C281 O282 1.211 . S
O282 C281 1.211 . S
C283 O275 1.284 . S
C283 O284 1.266 1_655 S
O284 C283 1.266 1_455 S
O285 Zn276 1.977 . S
O285 C278 1.267 . S
C286 O287 1.160 . S
C286 O293 1.185 . S
O287 C286 1.160 . S
O288 Zn289 1.899 . S
O288 C296 1.284 . S
Zn289 O288 1.899 . S
Zn289 O290 2.032 . S
Zn289 O293 2.086 . S
Zn289 O298 1.977 . S
O290 Zn289 2.032 . S
O290 C294 1.278 . S
C291 O292 1.203 . S
C291 O298 1.267 . S
O292 C291 1.203 . S
O293 C286 1.185 . S
O293 Zn289 2.086 . S
C294 O290 1.278 . S
C294 O295 1.211 . S
O295 C294 1.211 . S
C296 O288 1.284 . S
C296 O297 1.273 . S
O297 C296 1.273 . S
O298 Zn289 1.977 . S
O298 C291 1.267 . S
C299 O300 1.160 . S
C299 O306 1.185 . S
O300 C299 1.160 . S
O301 Zn302 1.899 . S
O301 C309 1.284 . S
Zn302 O301 1.899 . S
Zn302 O303 2.032 . S
Zn302 O306 2.086 . S
Zn302 O311 1.977 . S
O303 Zn302 2.032 . S
O303 C307 1.278 . S
C304 O305 1.203 . S
C304 O311 1.267 . S
O305 C304 1.203 . S
O306 C299 1.185 . S
O306 Zn302 2.086 . S
C307 O303 1.278 . S
C307 O308 1.211 . S
O308 C307 1.211 . S
C309 O301 1.284 . S
C309 O310 1.273 . S
O310 C309 1.273 . S
O311 Zn302 1.977 . S
O311 C304 1.267 . S
Tb312 O315 2.453 . S
Tb312 O316 2.604 . S
Tb312 O317 2.374 1_554 S
Tb312 O325 2.343 1_455 S
Tb312 O327 2.353 . S
Tb312 O329 2.427 . S
Tb312 O330 2.513 1_554 S
C313 O317 1.251 . S
C313 O319 1.246 1_445 S
Tb314 O316 2.341 1_665 S
Tb314 O319 2.365 1_554 S
Tb314 O322 2.427 . S
Tb314 O323 2.513 . S
Tb314 O324 2.453 1_564 S
Tb314 O325 2.596 1_565 S
Tb314 O326 2.374 1_565 S
O315 Tb312 2.453 . S
O315 C331 1.245 . S
O316 Tb312 2.604 . S
O316 Tb314 2.341 1_445 S
O316 C331 1.259 . S
O317 Tb312 2.374 1_556 S
O317 C313 1.251 . S
C318 O322 1.275 . S
C318 O323 1.246 . S
O319 C313 1.246 1_665 S
O319 Tb314 2.365 1_556 S
C320 O324 1.245 . S
C320 O325 1.259 1_556 S
C321 O326 1.250 . S
C321 O327 1.263 1_655 S
O322 Tb314 2.427 . S
O322 C318 1.275 . S
O323 Tb314 2.513 . S
O323 C318 1.246 . S
O324 Tb314 2.453 1_546 S
O324 C320 1.245 . S
O325 Tb312 2.343 1_655 S
O325 Tb314 2.596 1_545 S
O325 C320 1.259 1_554 S
O326 Tb314 2.374 1_545 S
O326 C321 1.250 . S
O327 Tb312 2.353 . S
O327 C321 1.263 1_455 S
C328 O329 1.275 1_556 S
C328 O330 1.246 . S
O329 Tb312 2.427 . S
O329 C328 1.275 1_554 S
O330 Tb312 2.513 1_556 S
O330 C328 1.246 . S
C331 O315 1.245 . S
C331 O316 1.259 . S
Tb332 O335 2.453 . S
Tb332 O336 2.596 . S
Tb332 O337 2.374 . S
Tb332 O345 2.343 . S
Tb332 O347 2.353 . S
Tb332 O349 2.427 . S
Tb332 O350 2.513 . S
C333 O337 1.251 . S
C333 O339 1.263 . S
Tb334 O336 2.343 . S
Tb334 O339 2.353 . S
Tb334 O342 2.427 . S
Tb334 O343 2.513 . S
Tb334 O344 2.453 . S
Tb334 O345 2.596 . S
Tb334 O346 2.374 . S
O335 Tb332 2.453 . S
O335 C351 1.245 . S
O336 Tb332 2.596 . S
O336 Tb334 2.343 . S
O336 C351 1.259 . S
O337 Tb332 2.374 . S
O337 C333 1.251 . S
C338 O342 1.275 . S
C338 O343 1.246 . S
O339 C333 1.263 . S
O339 Tb334 2.353 . S
C340 O344 1.245 . S
C340 O345 1.259 . S
C341 O346 1.250 . S
C341 O347 1.263 . S
O342 Tb334 2.427 . S
O342 C338 1.275 . S
O343 Tb334 2.513 . S
O343 C338 1.246 . S
O344 Tb334 2.453 . S
O344 C340 1.245 . S
O345 Tb332 2.343 . S
O345 Tb334 2.596 . S
O345 C340 1.259 . S
O346 Tb334 2.374 . S
O346 C341 1.250 . S
O347 Tb332 2.353 . S
O347 C341 1.263 . S
C348 O349 1.275 . S
C348 O350 1.246 . S
O349 Tb332 2.427 . S
O349 C348 1.275 . S
O350 Tb332 2.513 . S
O350 C348 1.246 . S
C351 O335 1.245 . S
C351 O336 1.259 . S
Tb352 O355 2.453 . S
Tb352 O356 2.596 . S
Tb352 O357 2.374 . S
Tb352 O365 2.343 1_545 S
Tb352 O367 2.353 . S
Tb352 O369 2.427 . S
Tb352 O370 2.513 1_545 S
C353 O357 1.251 . S
C353 O359 1.263 . S
Tb354 O356 2.343 . S
Tb354 O359 2.353 . S
Tb354 O362 2.427 . S
Tb354 O363 2.513 . S
Tb354 O364 2.453 1_545 S
Tb354 O365 2.596 1_545 S
Tb354 O366 2.374 . S
O355 Tb352 2.453 . S
O355 C371 1.245 . S
O356 Tb352 2.596 . S
O356 Tb354 2.343 . S
O356 C371 1.259 . S
O357 Tb352 2.374 . S
O357 C353 1.251 . S
C358 O362 1.275 . S
C358 O363 1.246 . S
O359 C353 1.263 . S
O359 Tb354 2.353 . S
C360 O364 1.245 . S
C360 O365 1.259 . S
C361 O366 1.250 . S
C361 O367 1.263 . S
O362 Tb354 2.427 . S
O362 C358 1.275 . S
O363 Tb354 2.513 . S
O363 C358 1.246 . S
O364 Tb354 2.453 1_565 S
O364 C360 1.245 . S
O365 Tb352 2.343 1_565 S
O365 Tb354 2.596 1_565 S
O365 C360 1.259 . S
O366 Tb354 2.374 . S
O366 C361 1.250 . S
O367 Tb352 2.353 . S
O367 C361 1.263 . S
C368 O369 1.275 1_565 S
C368 O370 1.246 . S
O369 Tb352 2.427 . S
O369 C368 1.275 1_545 S
O370 Tb352 2.513 1_565 S
O370 C368 1.246 . S
C371 O355 1.245 . S
C371 O356 1.259 . S
Tb372 O375 2.453 . S
Tb372 O376 2.596 . S
Tb372 O377 2.374 . S
Tb372 O385 2.343 . S
Tb372 O387 2.353 . S
Tb372 O389 2.427 . S
Tb372 O390 2.513 . S
C373 O377 1.251 . S
C373 O379 1.263 . S
Tb374 O376 2.343 . S
Tb374 O379 2.353 . S
Tb374 O382 2.427 . S
Tb374 O383 2.513 . S
Tb374 O384 2.453 . S
Tb374 O385 2.596 . S
Tb374 O386 2.374 . S
O375 Tb372 2.453 . S
O375 C391 1.245 . S
O376 Tb372 2.596 . S
O376 Tb374 2.343 . S
O376 C391 1.259 . S
O377 Tb372 2.374 . S
O377 C373 1.251 . S
C378 O382 1.275 . S
C378 O383 1.246 . S
O379 C373 1.263 . S
O379 Tb374 2.353 . S
C380 O384 1.245 . S
C380 O385 1.259 . S
C381 O386 1.250 . S
C381 O387 1.263 . S
O382 Tb374 2.427 . S
O382 C378 1.275 . S
O383 Tb374 2.513 . S
O383 C378 1.246 . S
O384 Tb374 2.453 . S
O384 C380 1.245 . S
O385 Tb372 2.343 . S
O385 Tb374 2.596 . S
O385 C380 1.259 . S
O386 Tb374 2.374 . S
O386 C381 1.250 . S
O387 Tb372 2.353 . S
O387 C381 1.263 . S
C388 O389 1.275 . S
C388 O390 1.246 . S
O389 Tb372 2.427 . S
O389 C388 1.275 . S
O390 Tb372 2.513 . S
O390 C388 1.246 . S
C391 O375 1.245 . S
C391 O376 1.259 . S
Tb392 O395 2.453 1_655 S
Tb392 O396 2.596 1_655 S
Tb392 O397 2.374 . S
Tb392 O405 2.343 1_665 S
Tb392 O407 2.353 1_665 S
Tb392 O409 2.427 1_665 S
Tb392 O410 2.513 1_565 S
C393 O397 1.251 1_545 S
C393 O399 1.263 . S
Tb394 O396 2.343 1_545 S
Tb394 O399 2.353 1_455 S
Tb394 O402 2.427 . S
Tb394 O403 2.513 . S
Tb394 O404 2.453 . S
Tb394 O405 2.596 . S
Tb394 O406 2.374 . S
O395 Tb392 2.453 1_455 S
O395 C411 1.245 . S
O396 Tb392 2.596 1_455 S
O396 Tb394 2.343 1_565 S
O396 C411 1.259 . S
O397 Tb392 2.374 . S
O397 C393 1.251 1_565 S
C398 O402 1.275 . S
C398 O403 1.246 . S
O399 C393 1.263 . S
O399 Tb394 2.353 1_655 S
C400 O404 1.245 . S
C400 O405 1.259 . S
C401 O406 1.250 . S
C401 O407 1.263 . S
O402 Tb394 2.427 . S
O402 C398 1.275 . S
O403 Tb394 2.513 . S
O403 C398 1.246 . S
O404 Tb394 2.453 . S
O404 C400 1.245 . S
O405 Tb392 2.343 1_445 S
O405 Tb394 2.596 . S
O405 C400 1.259 . S
O406 Tb394 2.374 . S
O406 C401 1.250 . S
O407 Tb392 2.353 1_445 S
O407 C401 1.263 . S
C408 O409 1.275 1_655 S
C408 O410 1.246 . S
O409 Tb392 2.427 1_445 S
O409 C408 1.275 1_455 S
O410 Tb392 2.513 1_545 S
O410 C408 1.246 . S
C411 O395 1.245 . S
C411 O396 1.259 . S
Tb412 O415 2.453 . S
Tb412 O416 2.596 . S
Tb412 O417 2.374 . S
Tb412 O425 2.343 . S
Tb412 O427 2.353 . S
Tb412 O429 2.427 . S
Tb412 O430 2.513 . S
C413 O417 1.251 . S
C413 O419 1.263 . S
Tb414 O416 2.343 . S
Tb414 O419 2.353 . S
Tb414 O422 2.427 . S
Tb414 O423 2.513 . S
Tb414 O424 2.453 . S
Tb414 O425 2.596 . S
Tb414 O426 2.374 . S
O415 Tb412 2.453 . S
O415 C431 1.245 . S
O416 Tb412 2.596 . S
O416 Tb414 2.343 . S
O416 C431 1.259 . S
O417 Tb412 2.374 . S
O417 C413 1.251 . S
C418 O422 1.275 . S
C418 O423 1.246 . S
O419 C413 1.263 . S
O419 Tb414 2.353 . S
C420 O424 1.245 . S
C420 O425 1.259 . S
C421 O426 1.250 . S
C421 O427 1.263 . S
O422 Tb414 2.427 . S
O422 C418 1.275 . S
O423 Tb414 2.513 . S
O423 C418 1.246 . S
O424 Tb414 2.453 . S
O424 C420 1.245 . S
O425 Tb412 2.343 . S
O425 Tb414 2.596 . S
O425 C420 1.259 . S
O426 Tb414 2.374 . S
O426 C421 1.250 . S
O427 Tb412 2.353 . S
O427 C421 1.263 . S
C428 O429 1.275 . S
C428 O430 1.246 . S
O429 Tb412 2.427 . S
O429 C428 1.275 . S
O430 Tb412 2.513 . S
O430 C428 1.246 . S
C431 O415 1.245 . S
C431 O416 1.259 . S
Tb432 O435 2.453 . S
Tb432 O436 2.596 . S
Tb432 O437 2.376 1_545 S
Tb432 O445 2.343 1_556 S
Tb432 O447 2.353 1_556 S
Tb432 O449 2.427 1_556 S
Tb432 O450 2.513 1_546 S
C433 O437 1.246 1_554 S
C433 O439 1.263 . S
Tb434 O436 2.343 1_554 S
Tb434 O439 2.353 1_545 S
Tb434 O442 2.427 . S
Tb434 O443 2.513 . S
Tb434 O444 2.453 . S
Tb434 O445 2.596 . S
Tb434 O446 2.374 . S
O435 Tb432 2.453 . S
O435 C451 1.245 . S
O436 Tb432 2.596 . S
O436 Tb434 2.343 1_556 S
O436 C451 1.259 . S
O437 Tb432 2.376 1_565 S
O437 C433 1.246 1_556 S
C438 O442 1.275 . S
C438 O443 1.246 . S
O439 C433 1.263 . S
O439 Tb434 2.353 1_565 S
C440 O444 1.245 . S
C440 O445 1.259 . S
C441 O446 1.250 . S
C441 O447 1.263 . S
O442 Tb434 2.427 . S
O442 C438 1.275 . S
O443 Tb434 2.513 . S
O443 C438 1.246 . S
O444 Tb434 2.453 . S
O444 C440 1.245 . S
O445 Tb432 2.343 1_554 S
O445 Tb434 2.596 . S
O445 C440 1.259 . S
O446 Tb434 2.374 . S
O446 C441 1.250 . S
O447 Tb432 2.353 1_554 S
O447 C441 1.263 . S
C448 O449 1.275 1_565 S
C448 O450 1.246 . S
O449 Tb432 2.427 1_554 S
O449 C448 1.275 1_545 S
O450 Tb432 2.513 1_564 S
O450 C448 1.246 . S
C451 O435 1.245 . S
C451 O436 1.259 . S
Tb452 O455 2.453 . S
Tb452 O456 2.596 . S
Tb452 O457 2.374 . S
Tb452 O465 2.343 . S
Tb452 O467 2.353 . S
Tb452 O469 2.427 . S
Tb452 O470 2.513 . S
C453 O457 1.251 . S
C453 O459 1.263 . S
Tb454 O456 2.343 . S
Tb454 O459 2.353 . S
Tb454 O462 2.427 . S
Tb454 O463 2.513 . S
Tb454 O464 2.453 . S
Tb454 O465 2.596 . S
Tb454 O466 2.374 . S
O455 Tb452 2.453 . S
O455 C471 1.245 . S
O456 Tb452 2.596 . S
O456 Tb454 2.343 . S
O456 C471 1.259 . S
O457 Tb452 2.374 . S
O457 C453 1.251 . S
C458 O462 1.275 . S
C458 O463 1.246 . S
O459 C453 1.263 . S
O459 Tb454 2.353 . S
C460 O464 1.245 . S
C460 O465 1.259 . S
C461 O466 1.250 . S
C461 O467 1.263 . S
O462 Tb454 2.427 . S
O462 C458 1.275 . S
O463 Tb454 2.513 . S
O463 C458 1.246 . S
O464 Tb454 2.453 . S
O464 C460 1.245 . S
O465 Tb452 2.343 . S
O465 Tb454 2.596 . S
O465 C460 1.259 . S
O466 Tb454 2.374 . S
O466 C461 1.250 . S
O467 Tb452 2.353 . S
O467 C461 1.263 . S
C468 O469 1.275 . S
C468 O470 1.246 . S
O469 Tb452 2.427 . S
O469 C468 1.275 . S
O470 Tb452 2.513 . S
O470 C468 1.246 . S
C471 O455 1.245 . S
C471 O456 1.259 . S
Tb472 O475 2.453 1_556 S
Tb472 O476 2.596 1_556 S
Tb472 O477 2.374 1_556 S
Tb472 O485 2.343 1_556 S
Tb472 O487 2.353 . S
Tb472 O489 2.427 . S
Tb472 O490 2.513 . S
C473 O477 1.251 . S
C473 O479 1.263 . S
Tb474 O476 2.343 . S
Tb474 O479 2.353 . S
Tb474 O482 2.427 . S
Tb474 O483 2.513 . S
Tb474 O484 2.453 . S
Tb474 O485 2.596 . S
Tb474 O486 2.374 . S
O475 Tb472 2.453 1_554 S
O475 C491 1.245 . S
O476 Tb472 2.596 1_554 S
O476 Tb474 2.343 . S
O476 C491 1.259 . S
O477 Tb472 2.374 1_554 S
O477 C473 1.251 . S
C478 O482 1.275 . S
C478 O483 1.246 . S
O479 C473 1.263 . S
O479 Tb474 2.353 . S
C480 O484 1.245 . S
C480 O485 1.259 . S
C481 O486 1.250 . S
C481 O487 1.263 1_554 S
O482 Tb474 2.427 . S
O482 C478 1.275 . S
O483 Tb474 2.513 . S
O483 C478 1.246 . S
O484 Tb474 2.453 . S
O484 C480 1.245 . S
O485 Tb472 2.343 1_554 S
O485 Tb474 2.596 . S
O485 C480 1.259 . S
O486 Tb474 2.374 . S
O486 C481 1.250 . S
O487 Tb472 2.353 . S
O487 C481 1.263 1_556 S
C488 O489 1.275 . S
C488 O490 1.246 . S
O489 Tb472 2.427 . S
O489 C488 1.275 . S
O490 Tb472 2.513 . S
O490 C488 1.246 . S
C491 O475 1.245 . S
C491 O476 1.259 . S
Tb492 O495 2.453 . S
Tb492 O496 2.596 . S
Tb492 O497 2.374 . S
Tb492 O505 2.343 . S
Tb492 O507 2.353 . S
Tb492 O509 2.427 . S
Tb492 O510 2.513 . S
C493 O497 1.251 . S
C493 O499 1.263 . S
Tb494 O496 2.343 . S
Tb494 O499 2.353 . S
Tb494 O502 2.427 . S
Tb494 O503 2.513 . S
Tb494 O504 2.453 . S
Tb494 O505 2.596 . S
Tb494 O506 2.374 . S
O495 Tb492 2.453 . S
O495 C511 1.245 . S
O496 Tb492 2.596 . S
O496 Tb494 2.343 . S
O496 C511 1.259 . S
O497 Tb492 2.374 . S
O497 C493 1.251 . S
C498 O502 1.275 . S
C498 O503 1.246 . S
O499 C493 1.263 . S
O499 Tb494 2.353 . S
C500 O504 1.245 . S
C500 O505 1.259 . S
C501 O506 1.250 . S
C501 O507 1.263 . S
O502 Tb494 2.427 . S
O502 C498 1.275 . S
O503 Tb494 2.513 . S
O503 C498 1.246 . S
O504 Tb494 2.453 . S
O504 C500 1.245 . S
O505 Tb492 2.343 . S
O505 Tb494 2.596 . S
O505 C500 1.259 . S
O506 Tb494 2.374 . S
O506 C501 1.250 . S
O507 Tb492 2.353 . S
O507 C501 1.263 . S
C508 O509 1.275 . S
C508 O510 1.246 . S
O509 Tb492 2.427 . S
O509 C508 1.275 . S
O510 Tb492 2.513 . S
O510 C508 1.246 . S
C511 O495 1.245 . S
C511 O496 1.259 . S
Tb512 O515 2.453 . S
Tb512 O516 2.596 1_655 S
Tb512 O517 2.374 . S
Tb512 O525 2.343 . S
Tb512 O527 2.353 . S
Tb512 O529 2.427 . S
Tb512 O530 2.513 . S
C513 O517 1.251 1_455 S
C513 O519 1.263 . S
Tb514 O516 2.343 . S
Tb514 O519 2.353 . S
Tb514 O522 2.427 . S
Tb514 O523 2.513 . S
Tb514 O524 2.453 . S
Tb514 O525 2.596 1_455 S
Tb514 O526 2.374 . S
O515 Tb512 2.453 . S
O515 C531 1.245 1_655 S
O516 Tb512 2.596 1_455 S
O516 Tb514 2.343 . S
O516 C531 1.259 . S
O517 Tb512 2.374 . S
O517 C513 1.251 1_655 S
C518 O522 1.275 . S
C518 O523 1.246 . S
O519 C513 1.263 . S
O519 Tb514 2.353 . S
C520 O524 1.245 1_655 S
C520 O525 1.259 . S
C521 O526 1.250 . S
C521 O527 1.263 1_455 S
O522 Tb514 2.427 . S
O522 C518 1.275 . S
O523 Tb514 2.513 . S
O523 C518 1.246 . S
O524 Tb514 2.453 . S
O524 C520 1.245 1_455 S
O525 Tb512 2.343 . S
O525 Tb514 2.596 1_655 S
O525 C520 1.259 . S
O526 Tb514 2.374 . S
O526 C521 1.250 . S
O527 Tb512 2.353 . S
O527 C521 1.263 1_655 S
C528 O529 1.275 . S
C528 O530 1.246 . S
O529 Tb512 2.427 . S
O529 C528 1.275 . S
O530 Tb512 2.513 . S
O530 C528 1.246 . S
C531 O515 1.245 1_455 S
C531 O516 1.259 . S
Tb532 O535 2.453 . S
Tb532 O536 2.596 . S
Tb532 O537 2.374 . S
Tb532 O545 2.343 . S
Tb532 O547 2.353 . S
Tb532 O549 2.427 . S
Tb532 O550 2.513 . S
C533 O537 1.251 . S
C533 O539 1.263 . S
Tb534 O536 2.343 . S
Tb534 O539 2.353 . S
Tb534 O542 2.427 . S
Tb534 O543 2.513 . S
Tb534 O544 2.453 . S
Tb534 O545 2.596 . S
Tb534 O546 2.374 . S
O535 Tb532 2.453 . S
O535 C551 1.245 . S
O536 Tb532 2.596 . S
O536 Tb534 2.343 . S
O536 C551 1.259 . S
O537 Tb532 2.374 . S
O537 C533 1.251 . S
C538 O542 1.275 . S
C538 O543 1.246 . S
O539 C533 1.263 . S
O539 Tb534 2.353 . S
C540 O544 1.245 . S
C540 O545 1.259 . S
C541 O546 1.250 . S
C541 O547 1.263 . S
O542 Tb534 2.427 . S
O542 C538 1.275 . S
O543 Tb534 2.513 . S
O543 C538 1.246 . S
O544 Tb534 2.453 . S
O544 C540 1.245 . S
O545 Tb532 2.343 . S
O545 Tb534 2.596 . S
O545 C540 1.259 . S
O546 Tb534 2.374 . S
O546 C541 1.250 . S
O547 Tb532 2.353 . S
O547 C541 1.263 . S
C548 O549 1.275 . S
C548 O550 1.246 . S
O549 Tb532 2.427 . S
O549 C548 1.275 . S
O550 Tb532 2.513 . S
O550 C548 1.246 . S
C551 O535 1.245 . S
C551 O536 1.259 . S
Tb552 O555 2.453 . S
Tb552 O556 2.596 . S
Tb552 O557 2.374 . S
Tb552 O565 2.343 . S
Tb552 O567 2.353 . S
Tb552 O569 2.427 . S
Tb552 O570 2.513 . S
C553 O557 1.251 . S
C553 O559 1.263 . S
Tb554 O556 2.343 . S
Tb554 O559 2.353 . S
Tb554 O562 2.427 . S
Tb554 O563 2.513 . S
Tb554 O564 2.453 . S
Tb554 O565 2.596 . S
Tb554 O566 2.374 . S
O555 Tb552 2.453 . S
O555 C571 1.245 . S
O556 Tb552 2.596 . S
O556 Tb554 2.343 . S
O556 C571 1.259 . S
O557 Tb552 2.374 . S
O557 C553 1.251 . S
C558 O562 1.275 . S
C558 O563 1.246 . S
O559 C553 1.263 . S
O559 Tb554 2.353 . S
C560 O564 1.245 . S
C560 O565 1.259 . S
C561 O566 1.250 . S
C561 O567 1.263 . S
O562 Tb554 2.427 . S
O562 C558 1.275 . S
O563 Tb554 2.513 . S
O563 C558 1.246 . S
O564 Tb554 2.453 . S
O564 C560 1.245 . S
O565 Tb552 2.343 . S
O565 Tb554 2.596 . S
O565 C560 1.259 . S
O566 Tb554 2.374 . S
O566 C561 1.250 . S
O567 Tb552 2.353 . S
O567 C561 1.263 . S
C568 O569 1.275 . S
C568 O570 1.246 . S
O569 Tb552 2.427 . S
O569 C568 1.275 . S
O570 Tb552 2.513 . S
O570 C568 1.246 . S
C571 O555 1.245 . S
C571 O556 1.259 . S
Tb572 O575 2.453 . S
Tb572 O576 2.596 . S
Tb572 O577 2.374 . S
Tb572 O585 2.343 . S
Tb572 O587 2.353 . S
Tb572 O589 2.427 . S
Tb572 O590 2.513 . S
C573 O577 1.251 . S
C573 O579 1.263 . S
Tb574 O576 2.343 . S
Tb574 O579 2.353 . S
Tb574 O582 2.427 . S
Tb574 O583 2.513 . S
Tb574 O584 2.453 . S
Tb574 O585 2.596 . S
Tb574 O586 2.374 . S
O575 Tb572 2.453 . S
O575 C591 1.245 . S
O576 Tb572 2.596 . S
O576 Tb574 2.343 . S
O576 C591 1.259 . S
O577 Tb572 2.374 . S
O577 C573 1.251 . S
C578 O582 1.275 . S
C578 O583 1.246 . S
O579 C573 1.263 . S
O579 Tb574 2.353 . S
C580 O584 1.245 . S
C580 O585 1.259 . S
C581 O586 1.250 . S
C581 O587 1.263 . S
O582 Tb574 2.427 . S
O582 C578 1.275 . S
O583 Tb574 2.513 . S
O583 C578 1.246 . S
O584 Tb574 2.453 . S
O584 C580 1.245 . S
O585 Tb572 2.343 . S
O585 Tb574 2.596 . S
O585 C580 1.259 . S
O586 Tb574 2.374 . S
O586 C581 1.250 . S
O587 Tb572 2.353 . S
O587 C581 1.263 . S
C588 O589 1.275 . S
C588 O590 1.246 . S
O589 Tb572 2.427 . S
O589 C588 1.275 . S
O590 Tb572 2.513 . S
O590 C588 1.246 . S
C591 O575 1.245 . S
C591 O576 1.259 . S
Tb592 O595 2.453 . S
Tb592 O596 2.596 . S
Tb592 O597 2.374 . S
Tb592 O605 2.343 . S
Tb592 O607 2.353 . S
Tb592 O609 2.427 . S
Tb592 O610 2.513 . S
C593 O597 1.251 . S
C593 O599 1.263 . S
Tb594 O596 2.343 . S
Tb594 O599 2.353 . S
Tb594 O602 2.427 . S
Tb594 O603 2.513 . S
Tb594 O604 2.453 . S
Tb594 O605 2.596 . S
Tb594 O606 2.374 . S
O595 Tb592 2.453 . S
O595 C611 1.245 . S
O596 Tb592 2.596 . S
O596 Tb594 2.343 . S
O596 C611 1.259 . S
O597 Tb592 2.374 . S
O597 C593 1.251 . S
C598 O602 1.275 . S
C598 O603 1.246 . S
O599 C593 1.263 . S
O599 Tb594 2.353 . S
C600 O604 1.245 . S
C600 O605 1.259 . S
C601 O606 1.250 . S
C601 O607 1.263 . S
O602 Tb594 2.427 . S
O602 C598 1.275 . S
O603 Tb594 2.513 . S
O603 C598 1.246 . S
O604 Tb594 2.453 . S
O604 C600 1.245 . S
O605 Tb592 2.343 . S
O605 Tb594 2.596 . S
O605 C600 1.259 . S
O606 Tb594 2.374 . S
O606 C601 1.250 . S
O607 Tb592 2.353 . S
O607 C601 1.263 . S
C608 O609 1.275 . S
C608 O610 1.246 . S
O609 Tb592 2.427 . S
O609 C608 1.275 . S
O610 Tb592 2.513 . S
O610 C608 1.246 . S
C611 O595 1.245 . S
C611 O596 1.259 . S
Tb612 O615 2.453 . S
Tb612 O616 2.596 . S
Tb612 O617 2.374 . S
Tb612 O625 2.343 . S
Tb612 O627 2.353 1_554 S
Tb612 O629 2.427 1_554 S
Tb612 O630 2.513 . S
C613 O617 1.251 . S
C613 O619 1.263 1_455 S
Tb614 O616 2.343 1_655 S
Tb614 O619 2.353 . S
Tb614 O622 2.427 . S
Tb614 O623 2.513 . S
Tb614 O624 2.452 1_554 S
Tb614 O625 2.596 1_655 S
Tb614 O626 2.374 1_554 S
O615 Tb612 2.453 . S
O615 C631 1.245 . S
O616 Tb612 2.596 . S
O616 Tb614 2.343 1_455 S
O616 C631 1.259 . S
O617 Tb612 2.374 . S
O617 C613 1.251 . S
C618 O622 1.275 . S
C618 O623 1.246 . S
O619 C613 1.263 1_655 S
O619 Tb614 2.353 . S
C620 O624 1.246 1_455 S
C620 O625 1.259 1_556 S
C621 O626 1.250 1_455 S
C621 O627 1.263 . S
O622 Tb614 2.427 . S
O622 C618 1.275 . S
O623 Tb614 2.513 . S
O623 C618 1.246 . S
O624 Tb614 2.452 1_556 S
O624 C620 1.246 1_655 S
O625 Tb612 2.343 . S
O625 Tb614 2.596 1_455 S
O625 C620 1.259 1_554 S
O626 Tb614 2.374 1_556 S
O626 C621 1.250 1_655 S
O627 Tb612 2.353 1_556 S
O627 C621 1.263 . S
C628 O629 1.275 1_554 S
C628 O630 1.246 . S
O629 Tb612 2.427 1_556 S
O629 C628 1.275 1_556 S
O630 Tb612 2.513 . S
O630 C628 1.246 . S
C631 O615 1.245 . S
C631 O616 1.259 . S
C101 C328 1.285 . S
C57 C341 1.557 . S
C73 C360 1.508 . S
C391 C78 2.028 . S
C21 C411 1.747 . S
C428 C31 1.258 . S
C441 C49 1.609 . S
C0 C468 1.544 . S
C321 C218 1.338 . S
C229 C351 1.764 . S
C353 C257 1.985 1_545 S
C388 C164 0.642 . S
C216 C408 1.007 . S
C421 C231 2.011 . S
C451 C255 1.515 . S
C461 C166 1.191 . S
C331 C143 1.866 1_545 S
C265 C481 1.687 1_556 S
C511 C299 1.879 . S
C528 C291 1.342 . S
C104 C471 2.242 . S
C117 C358 1.556 . S
C304 C541 1.820 . S
C568 C278 1.644 . S
C318 C60 1.599 1_655 S
C553 C96 1.484 . S
C88 C371 1.597 . S
C65 C540 1.892 . S
C400 C10 1.762 . S
C44 C498 1.227 . S
C433 C34 1.376 1_554 S
C578 C13 1.970 . S
C313 C138 1.523 . S
C560 C296 1.827 . S
C112 C361 1.750 . S
C270 C538 0.711 . S
C140 C398 1.087 . S
C493 C294 1.818 . S
C114 C440 1.626 . S
C268 C573 1.455 . S
C169 C320 2.050 1_554 S
C161 C473 1.762 . S
C234 C420 2.133 . S
C226 C518 1.188 . S
C580 C247 2.432 . S
C195 C368 1.959 . S
C373 C239 1.893 . S
C338 C187 1.607 . S
C75 C608 1.285 . S
C561 C83 1.557 . S
C99 C620 1.508 . S
C52 C551 2.028 . S
C47 C491 1.747 . S
C508 C5 1.258 . S
C521 C23 1.609 1_455 S
C588 C26 1.543 . S
C601 C244 1.337 . S
C177 C571 1.764 . S
C613 C192 1.985 . S
C548 C203 0.642 . S
C488 C242 1.007 . S
C179 C501 2.011 . S
C531 C190 1.515 . S
C205 C581 1.191 . S
C611 C286 1.865 . S
C122 C401 1.687 . S
C431 C130 1.880 . S
C448 C148 1.342 . S
C591 C273 2.242 . S
C260 C618 1.554 . S
C381 C135 1.819 . S
C348 C109 1.644 . S
C86 C598 1.599 . S
C333 C70 1.483 . S
C62 C631 1.597 . S
C91 C380 1.893 . S
C36 C480 1.761 . S
C418 C18 1.227 . S
C8 C513 1.376 . S
C39 C458 1.970 . S
C593 C307 1.523 . S
C153 C340 1.827 . S
C621 C281 1.750 1_455 S
C127 C378 0.713 . S
C309 C478 1.087 . S
C413 C151 1.818 . S
C283 C520 1.626 . S
C453 C125 1.454 . S
C600 C221 2.050 . S
C393 C200 1.762 1_545 S
C208 C500 2.133 . S
C438 C174 1.188 . S
C182 C460 2.431 . S
C156 C628 1.959 . S
C533 C213 1.893 . S
C558 C252 1.608 . S
