# Generated by pormake.
# Topology pth, (4,4)-cn, num edge types: 1
# Building blocks:
#     Node 0, Type 0, BuildingBlock: TATPOV_clean_sbu_0, # of connection points: 4
#     Node 1, Type 0, BuildingBlock: TATPOV_clean_sbu_0, # of connection points: 4
#     Node 2, Type 0, BuildingBlock: TATPOV_clean_sbu_0, # of connection points: 4
#     Node 3, Type 1, BuildingBlock: NAWXER_clean_sbu_0, # of connection points: 4
#     Node 4, Type 1, BuildingBlock: NAWXER_clean_sbu_0, # of connection points: 4
#     Node 5, Type 1, BuildingBlock: NAWXER_clean_sbu_0, # of connection points: 4
#     Edge 6, Type (0, 1), BuildingBlock: FUNLAD_clean_linker_0, # of connection points: 2
#     Edge 7, Type (0, 1), BuildingBlock: FUNLAD_clean_linker_0, # of connection points: 2
#     Edge 8, Type (0, 1), BuildingBlock: FUNLAD_clean_linker_0, # of connection points: 2
#     Edge 9, Type (0, 1), BuildingBlock: FUNLAD_clean_linker_0, # of connection points: 2
#     Edge 10, Type (0, 1), BuildingBlock: FUNLAD_clean_linker_0, # of connection points: 2
#     Edge 11, Type (0, 1), BuildingBlock: FUNLAD_clean_linker_0, # of connection points: 2
#     Edge 12, Type (0, 1), BuildingBlock: FUNLAD_clean_linker_0, # of connection points: 2
#     Edge 13, Type (0, 1), BuildingBlock: FUNLAD_clean_linker_0, # of connection points: 2
#     Edge 14, Type (0, 1), BuildingBlock: FUNLAD_clean_linker_0, # of connection points: 2
#     Edge 15, Type (0, 1), BuildingBlock: FUNLAD_clean_linker_0, # of connection points: 2
#     Edge 16, Type (0, 1), BuildingBlock: FUNLAD_clean_linker_0, # of connection points: 2
#     Edge 17, Type (0, 1), BuildingBlock: FUNLAD_clean_linker_0, # of connection points: 2
# Relax obj value: 0.048
# Max RMSD: 0.171
# Mean RMSD: 0.098
data_MOF--net-pth--node1-TATPOV_clean_sbu_0--node2-NAWXER_clean_sbu_0--edge1-FUNLAD_clean_linker_0
_symmetry_space_group_name_H-M    P1
_symmetry_Int_Tables_number       1
_symmetry_cell_setting            triclinic
loop_
_symmetry_equiv_pos_as_xyz
'x, y, z'
_cell_length_a     26.919834
_cell_length_b     26.636451
_cell_length_c     65.88854
_cell_angle_alpha  92.279842
_cell_angle_beta   92.239016
_cell_angle_gamma 120.95705
loop_
_atom_site_label
_atom_site_type_symbol
_atom_site_fract_x
_atom_site_fract_y
_atom_site_fract_z
_atom_type_partial_charge
Zn0 Zn 0.07898 0.99424 0.041 0.0
Zn1 Zn 0.05712 0.06133 0.066 0.0
O2 O 0.04849 0.99656 0.08433 0.0
O3 O 0.06264 0.93915 0.06346 0.0
O4 O 0.04819 0.11803 0.08445 0.0
O5 O 0.15964 0.06077 0.03693 0.0
O6 O 0.13685 0.1163 0.05496 0.0
C7 C 0.05039 0.95015 0.08082 0.0
C8 C 0.97935 0.0017 0.02736 0.0
O9 O 0.98926 0.03071 0.04439 0.0
O10 O 0.01245 0.98345 0.02211 0.0
C11 C 0.08963 0.15298 0.09725 0.0
O12 O 0.13639 0.1492 0.09892 0.0
C13 C 0.17235 0.11103 0.04416 0.0
Zn14 Zn 0.19212 0.19055 0.39659 0.0
Zn15 Zn 0.08578 0.11699 0.40769 0.0
O16 O 0.14157 0.12787 0.43206 0.0
O17 O 0.22897 0.19527 0.42443 0.0
O18 O 0.00753 0.07943 0.41952 0.0
O19 O 0.17367 0.25103 0.38777 0.0
O20 O 0.08533 0.1867 0.39536 0.0
C21 C 0.19594 0.15943 0.43672 0.0
C22 C 0.12887 0.0724 0.37469 0.0
O23 O 0.08698 0.06116 0.38578 0.0
O24 O 0.17514 0.12251 0.37652 0.0
C25 C 0.99449 0.05115 0.43547 0.0
O26 O 0.03073 0.03742 0.44377 0.0
C27 C 0.12074 0.23543 0.38829 0.0
Zn28 Zn 0.10147 0.92112 0.74925 0.0
Zn29 Zn 0.04734 0.96936 0.73209 0.0
O30 O 0.09804 0.96442 0.71012 0.0
O31 O 0.13396 0.91398 0.72313 0.0
O32 O 0.99527 0.98986 0.71622 0.0
O33 O 0.02953 0.85333 0.75905 0.0
O34 O 0.98578 0.89581 0.74562 0.0
C35 C 0.12881 0.94088 0.70857 0.0
C36 C 0.1376 0.04092 0.76565 0.0
O37 O 0.09871 0.03764 0.75304 0.0
O38 O 0.14581 0.9982 0.76658 0.0
C39 C 0.96021 0.95031 0.70279 0.0
O40 O 0.96248 0.90241 0.70004 0.0
C41 C 0.98377 0.85473 0.75553 0.0
C42 C 0.09968 0.66986 0.26563 0.0
C43 C 0.09718 0.54369 0.2091 0.0
O44 O 0.14362 0.67578 0.25693 0.0
Zn45 Zn 0.10106 0.60992 0.23693 0.0
O46 O 0.04862 0.6281 0.25938 0.0
Zn47 Zn 0.00765 0.55674 0.23658 0.0
O48 O 0.97169 0.49013 0.25365 0.0
O49 O 0.06767 0.53694 0.25532 0.0
O50 O 0.04664 0.52811 0.21493 0.0
O51 O 0.14136 0.59003 0.21734 0.0
O52 O 0.05585 0.64003 0.21903 0.0
O53 O 0.96139 0.5784 0.21944 0.0
C54 C 0.01901 0.49509 0.26054 0.0
C55 C 0.00373 0.62531 0.21355 0.0
C56 C 0.59473 0.97732 0.59027 0.0
C57 C 0.46836 0.00368 0.54159 0.0
O58 O 0.54873 0.93612 0.58065 0.0
Zn59 Zn 0.52912 0.98601 0.56563 0.0
O60 O 0.61082 0.03085 0.5876 0.0
Zn61 Zn 0.58497 0.08081 0.57047 0.0
O62 O 0.56671 0.1221 0.59146 0.0
O63 O 0.50768 0.0258 0.58937 0.0
O64 O 0.5129 0.05121 0.54927 0.0
O65 O 0.45975 0.95444 0.54681 0.0
O66 O 0.59895 0.02552 0.54623 0.0
O67 O 0.65021 0.12136 0.55347 0.0
C68 C 0.52359 0.07645 0.59774 0.0
C69 C 0.64193 0.07617 0.54296 0.0
C70 C 0.51666 0.47738 0.9364 0.0
C71 C 0.63103 0.58273 0.88094 0.0
O72 O 0.49694 0.50735 0.92824 0.0
Zn73 Zn 0.52022 0.56637 0.90346 0.0
O74 O 0.56082 0.47882 0.92959 0.0
Zn75 Zn 0.57303 0.531 0.90892 0.0
O76 O 0.59825 0.61081 0.92663 0.0
O77 O 0.53821 0.64008 0.91702 0.0
O78 O 0.63728 0.54996 0.8929 0.0
O79 O 0.58952 0.59254 0.88313 0.0
O80 O 0.45154 0.52647 0.88502 0.0
O81 O 0.49814 0.47877 0.88809 0.0
C82 C 0.58136 0.64778 0.9282 0.0
C83 C 0.45544 0.48196 0.88034 0.0
C84 C 0.13166 0.23686 0.12392 0.0
C85 C 0.08667 0.19937 0.10934 0.0
C86 C 0.12961 0.28159 0.13501 0.0
C87 C 0.08261 0.29021 0.13159 0.0
C88 C 0.0375 0.25232 0.11711 0.0
C89 C 0.03946 0.20751 0.1061 0.0
C90 C 0.07714 0.33588 0.14336 0.0
C91 C 0.12113 0.38202 0.15462 0.0
C92 C 0.11358 0.42479 0.16743 0.0
C93 C 0.16279 0.4789 0.17442 0.0
C94 C 0.15773 0.51859 0.18751 0.0
C95 C 0.10323 0.50484 0.19394 0.0
H96 H 0.02006 0.36977 0.16949 0.0
C97 C 0.05397 0.45112 0.18672 0.0
C98 C 0.05903 0.41147 0.1738 0.0
H99 H 0.0113 0.43868 0.1915 0.0
H100 H 0.16851 0.23154 0.12688 0.0
H101 H 0.1645 0.30834 0.1464 0.0
H102 H 0.00044 0.25738 0.11426 0.0
H103 H 0.00405 0.17946 0.09498 0.0
H104 H 0.0347 0.33135 0.14224 0.0
H105 H 0.16476 0.38969 0.1544 0.0
H106 H 0.20545 0.49024 0.16994 0.0
H107 H 0.19659 0.55945 0.19287 0.0
C108 C 0.91648 0.07401 0.44117 0.0
C109 C 0.94432 0.04339 0.4465 0.0
C110 C 0.87398 0.07273 0.45305 0.0
C111 C 0.85808 0.04038 0.47044 0.0
C112 C 0.88387 0.00758 0.47521 0.0
C113 C 0.92697 0.0095 0.46349 0.0
C114 C 0.81402 0.03897 0.48367 0.0
C115 C 0.80552 0.08438 0.4866 0.0
C116 C 0.76219 0.08255 0.50035 0.0
C117 C 0.77215 0.13456 0.51062 0.0
C118 C 0.73281 0.13327 0.52425 0.0
C119 C 0.6824 0.0799 0.52763 0.0
H120 H 0.70045 0.98905 0.49501 0.0
C121 C 0.67152 0.02837 0.51668 0.0
C122 C 0.71076 0.02965 0.50321 0.0
H123 H 0.6328 0.9865 0.51865 0.0
H124 H 0.92866 0.10046 0.42814 0.0
H125 H 0.85366 0.09701 0.44856 0.0
H126 H 0.87176 0.98163 0.48837 0.0
H127 H 0.94738 0.98526 0.46796 0.0
H128 H 0.79042 0.00046 0.49226 0.0
H129 H 0.8333 0.12529 0.47971 0.0
H130 H 0.81112 0.17606 0.50846 0.0
H131 H 0.74234 0.17376 0.53235 0.0
C132 C 0.92718 0.76596 0.77507 0.0
C133 C 0.92982 0.81246 0.76482 0.0
C134 C 0.88 0.73111 0.78641 0.0
C135 C 0.8346 0.74243 0.78796 0.0
C136 C 0.83533 0.78627 0.7766 0.0
C137 C 0.88252 0.82109 0.76517 0.0
C138 C 0.78706 0.71075 0.80174 0.0
C139 C 0.79456 0.68888 0.81894 0.0
C140 C 0.74995 0.66044 0.83396 0.0
C141 C 0.75687 0.6255 0.84784 0.0
C142 C 0.71804 0.6 0.86293 0.0
C143 C 0.67142 0.60922 0.86465 0.0
H144 H 0.69695 0.69743 0.82559 0.0
C145 C 0.66425 0.64413 0.85077 0.0
C146 C 0.70312 0.66958 0.83559 0.0
H147 H 0.6289 0.65229 0.85173 0.0
H148 H 0.96237 0.75739 0.77482 0.0
H149 H 0.87981 0.69592 0.79413 0.0
H150 H 0.80047 0.79528 0.77724 0.0
H151 H 0.88296 0.85627 0.75732 0.0
H152 H 0.74624 0.70837 0.79807 0.0
H153 H 0.836 0.69248 0.82257 0.0
H154 H 0.79271 0.618 0.84707 0.0
H155 H 0.72497 0.57341 0.87336 0.0
C156 C 0.02053 0.917 0.11589 0.0
C157 C 0.03514 0.90695 0.09651 0.0
C158 C 0.00402 0.87477 0.13027 0.0
C159 C 0.00193 0.82161 0.12555 0.0
C160 C 0.01582 0.81145 0.10611 0.0
C161 C 0.03252 0.85362 0.09182 0.0
C162 C 0.98634 0.77594 0.14041 0.0
C163 C 0.99518 0.78819 0.1607 0.0
C164 C 0.99115 0.74496 0.1751 0.0
C165 C 0.03119 0.76547 0.19207 0.0
C166 C 0.03362 0.72618 0.20481 0.0
C167 C 0.99498 0.66547 0.20121 0.0
H168 H 0.91832 0.66724 0.15918 0.0
C169 C 0.95224 0.64476 0.18502 0.0
C170 C 0.95064 0.68425 0.17191 0.0
H171 H 0.92193 0.59813 0.18199 0.0
H172 H 0.02139 0.95726 0.11992 0.0
H173 H 0.99221 0.88369 0.1449 0.0
H174 H 0.01444 0.77093 0.10202 0.0
H175 H 0.04298 0.84405 0.077 0.0
H176 H 0.9732 0.73198 0.13435 0.0
H177 H 0.01364 0.83318 0.16683 0.0
H178 H 0.06248 0.81194 0.19499 0.0
H179 H 0.06661 0.74332 0.21735 0.0
C180 C 0.19244 0.09205 0.46282 0.0
C181 C 0.22193 0.14734 0.45467 0.0
C182 C 0.2214 0.07584 0.47677 0.0
C183 C 0.2802 0.115 0.48298 0.0
C184 C 0.30808 0.17175 0.47604 0.0
C185 C 0.27951 0.18759 0.46187 0.0
C186 C 0.31505 0.09825 0.49592 0.0
C187 C 0.30508 0.04313 0.49622 0.0
C188 C 0.34725 0.03053 0.50655 0.0
C189 C 0.32793 0.97638 0.51505 0.0
C190 C 0.36741 0.96556 0.52567 0.0
C191 C 0.42677 0.00875 0.52776 0.0
H192 H 0.42417 0.11274 0.5003 0.0
C193 C 0.4462 0.0612 0.51812 0.0
C194 C 0.40713 0.07183 0.50757 0.0
H195 H 0.49185 0.09491 0.51909 0.0
H196 H 0.14798 0.06002 0.45759 0.0
H197 H 0.19799 0.03238 0.48231 0.0
H198 H 0.35315 0.20307 0.48079 0.0
H199 H 0.30329 0.23059 0.45596 0.0
H200 H 0.35358 0.134 0.50422 0.0
H201 H 0.26629 0.00658 0.48836 0.0
H202 H 0.28211 0.94327 0.51406 0.0
H203 H 0.35123 0.92471 0.53293 0.0
C204 C 0.16539 0.14175 0.78026 0.0
C205 C 0.17591 0.09523 0.7787 0.0
C206 C 0.20354 0.19333 0.7923 0.0
C207 C 0.25304 0.19917 0.8028 0.0
C208 C 0.26336 0.15276 0.80109 0.0
C209 C 0.22519 0.10137 0.78936 0.0
C210 C 0.29619 0.25278 0.81536 0.0
C211 C 0.28456 0.29097 0.82481 0.0
C212 C 0.32826 0.33981 0.83919 0.0
C213 C 0.3264 0.39132 0.8421 0.0
C214 C 0.36755 0.43781 0.8555 0.0
C215 C 0.41108 0.43332 0.86629 0.0
H216 H 0.37221 0.29501 0.84952 0.0
C217 C 0.41191 0.3812 0.86372 0.0
C218 C 0.37083 0.3349 0.85051 0.0
H219 H 0.44409 0.37575 0.87209 0.0
H220 H 0.12794 0.13844 0.77214 0.0
H221 H 0.19482 0.2287 0.79296 0.0
H222 H 0.30118 0.15612 0.80896 0.0
H223 H 0.23501 0.06672 0.78844 0.0
H224 H 0.33932 0.25921 0.81765 0.0
H225 H 0.24223 0.28625 0.8223 0.0
H226 H 0.29352 0.39589 0.83383 0.0
H227 H 0.3655 0.47729 0.85728 0.0
C228 C 0.8805 0.91402 0.67518 0.0
C229 C 0.91622 0.9566 0.6908 0.0
C230 C 0.83837 0.91905 0.66391 0.0
C231 C 0.83051 0.96665 0.66814 0.0
C232 C 0.86647 0.00928 0.68371 0.0
C233 C 0.9088 0.00437 0.69493 0.0
C234 C 0.78786 0.97543 0.65608 0.0
C235 C 0.74429 0.93399 0.64323 0.0
C236 C 0.70531 0.94574 0.63019 0.0
C237 C 0.65151 0.89855 0.62198 0.0
C238 C 0.61492 0.90819 0.60909 0.0
C239 C 0.63163 0.96534 0.60412 0.0
H240 H 0.76392 0.04025 0.63011 0.0
C241 C 0.68558 0.01235 0.61224 0.0
C242 C 0.72206 0.00274 0.62494 0.0
H243 H 0.70042 0.05696 0.60854 0.0
H244 H 0.88532 0.87682 0.6715 0.0
H245 H 0.81312 0.886 0.65172 0.0
H246 H 0.86192 0.04676 0.68722 0.0
H247 H 0.93555 0.03792 0.70686 0.0
H248 H 0.79259 0.01831 0.65825 0.0
H249 H 0.73583 0.8895 0.64227 0.0
H250 H 0.63774 0.85405 0.62554 0.0
H251 H 0.57379 0.87101 0.60301 0.0
C252 C 0.87554 0.97435 0.02249 0.0
C253 C 0.92707 0.98519 0.01411 0.0
C254 C 0.8235 0.94816 0.01028 0.0
C255 C 0.82266 0.93348 0.98947 0.0
C256 C 0.8751 0.94935 0.98081 0.0
C257 C 0.92675 0.97425 0.99306 0.0
C258 C 0.76774 0.89515 0.97698 0.0
C259 C 0.7242 0.84694 0.9844 0.0
C260 C 0.68115 0.79608 0.97082 0.0
C261 C 0.6686 0.74005 0.97553 0.0
C262 C 0.63519 0.69177 0.96174 0.0
C263 C 0.61213 0.69832 0.94326 0.0
H264 H 0.66491 0.84529 0.9488 0.0
C265 C 0.62142 0.75368 0.93904 0.0
C266 C 0.65638 0.80252 0.95264 0.0
H267 H 0.60385 0.75961 0.92488 0.0
H268 H 0.87472 0.98266 0.03867 0.0
H269 H 0.78367 0.93722 0.01725 0.0
H270 H 0.87554 0.93871 0.9648 0.0
H271 H 0.96608 0.98288 0.98619 0.0
H272 H 0.76814 0.89938 0.96063 0.0
H273 H 0.72712 0.83957 0.00041 0.0
H274 H 0.68715 0.73406 0.98945 0.0
H275 H 0.62804 0.64934 0.96542 0.0
C276 C 0.08192 0.96755 0.36065 0.0
C277 C 0.12592 0.02673 0.36026 0.0
C278 C 0.08257 0.92437 0.34802 0.0
C279 C 0.12738 0.93971 0.33477 0.0
C280 C 0.16998 -0.00095 0.33391 0.0
C281 C 0.16953 0.042 0.34657 0.0
C282 C 0.13083 0.89578 0.32124 0.0
C283 C 0.10658 0.83882 0.32496 0.0
C284 C 0.10872 0.79542 0.31077 0.0
C285 C 0.0616 0.73754 0.30915 0.0
C286 C 0.05976 0.6964 0.29489 0.0
C287 C 0.10563 0.71199 0.2822 0.0
H288 H 0.19392 0.85432 0.3001 0.0
C289 C 0.15447 0.76901 0.2846 0.0
C290 C 0.15596 0.81052 0.29873 0.0
H291 H 0.19056 0.78213 0.27511 0.0
H292 H 0.04754 0.95441 0.37094 0.0
H293 H 0.04771 0.87935 0.34862 0.0
H294 H 0.20451 0.01223 0.32367 0.0
H295 H 0.20389 0.08724 0.34573 0.0
H296 H 0.15507 0.91151 0.30779 0.0
H297 H 0.08187 0.82241 0.33826 0.0
H298 H 0.02508 0.72459 0.31843 0.0
H299 H 0.02177 0.65255 0.29355 0.0
C300 C 0.18787 0.00422 0.68141 0.0
C301 C 0.16538 0.95159 0.69122 0.0
C302 C 0.23159 0.01956 0.66786 0.0
C303 C 0.25276 0.98198 0.66371 0.0
C304 C 0.22728 0.9277 0.67247 0.0
C305 C 0.1846 0.91295 0.68626 0.0
C306 C 0.30202 0.9975 0.65082 0.0
C307 C 0.34575 0.05281 0.6486 0.0
C308 C 0.39772 0.06439 0.63775 0.0
C309 C 0.42625 0.11371 0.62623 0.0
C310 C 0.47125 0.12108 0.61422 0.0
C311 C 0.48821 0.07924 0.61375 0.0
H312 H 0.3999 0.98904 0.64811 0.0
C313 C 0.46294 0.03286 0.62659 0.0
C314 C 0.41865 0.02578 0.63859 0.0
H315 H 0.47586 0.00046 0.62672 0.0
H316 H 0.17395 0.03494 0.68501 0.0
H317 H 0.2491 0.06101 0.66092 0.0
H318 H 0.24228 0.8976 0.66935 0.0
H319 H 0.16794 0.87205 0.69354 0.0
H320 H 0.30427 0.96097 0.64399 0.0
H321 H 0.34397 0.09013 0.65485 0.0
H322 H 0.41174 0.14479 0.62569 0.0
H323 H 0.48994 0.15707 0.60436 0.0
C324 C 0.26132 0.15808 0.02457 0.0
C325 C 0.22479 0.1639 0.03788 0.0
C326 C 0.30486 0.20694 0.01576 0.0
C327 C 0.31335 0.2631 0.02024 0.0
C328 C 0.2788 0.26928 0.03437 0.0
C329 C 0.23513 0.2203 0.04317 0.0
C330 C 0.35286 0.31452 0.00883 0.0
C331 C 0.39572 0.31725 -0.00187 0.0
C332 C 0.42849 0.36314 0.98379 0.0
C333 C 0.48064 0.37018 0.97734 0.0
C334 C 0.50989 0.40826 0.96231 0.0
C335 C 0.48745 0.44006 0.95325 0.0
H336 H 0.3657 0.39069 0.97906 0.0
C337 C 0.43591 0.4341 0.95998 0.0
C338 C 0.40656 0.39589 0.97502 0.0
H339 H 0.41734 0.45777 0.95325 0.0
H340 H 0.25454 0.11528 0.02012 0.0
H341 H 0.32928 0.19952 0.00464 0.0
H342 H 0.28418 0.31188 0.03808 0.0
H343 H 0.20782 0.22639 0.0534 0.0
H344 H 0.345 0.35062 0.00892 0.0
H345 H 0.40724 0.28399 -0.00042 0.0
H346 H 0.49834 0.34526 0.98368 0.0
H347 H 0.54959 0.41187 0.95754 0.0
C348 C 0.13659 0.31908 0.36792 0.0
C349 C 0.09879 0.26979 0.37826 0.0
C350 C 0.11486 0.34559 0.35549 0.0
C351 C 0.0548 0.32343 0.35309 0.0
C352 C 0.01738 0.27721 0.36462 0.0
C353 C 0.03911 0.25027 0.377 0.0
C354 C 0.03096 0.34679 0.33794 0.0
C355 C 0.05272 0.35953 0.31952 0.0
C356 C 0.03716 0.38834 0.3037 0.0
C357 C 0.07336 0.40933 0.28752 0.0
C358 C 0.06535 0.44174 0.27313 0.0
C359 C 0.02029 0.45339 0.2743 0.0
H360 H 0.96048 0.38123 0.31642 0.0
C361 C 0.98155 0.42967 0.2897 0.0
C362 C 0.9901 0.39758 0.30443 0.0
H363 H 0.94648 0.43817 0.2909 0.0
H364 H 0.18283 0.33581 0.36873 0.0
H365 H 0.14505 0.38261 0.34734 0.0
H366 H 0.97106 0.26004 0.36326 0.0
H367 H 0.00882 0.21269 0.38491 0.0
H368 H 0.99517 0.35213 0.34193 0.0
H369 H 0.08666 0.35047 0.31605 0.0
H370 H 0.10955 0.4025 0.28636 0.0
H371 H 0.09552 0.45897 0.26127 0.0
loop_
_geom_bond_atom_site_label_1
_geom_bond_atom_site_label_2
_geom_bond_distance
_geom_bond_site_symmetry_2
_ccdc_geom_bond_type
Zn0 O3 2.031 1_545 S
Zn0 O5 2.049 . S
Zn0 O10 2.067 1_545 S
Zn1 O2 1.962 . S
Zn1 O4 1.986 . S
Zn1 O6 1.996 . S
Zn1 O9 1.943 . S
O2 Zn1 1.962 . S
O2 C7 1.246 1_545 S
O3 Zn0 2.031 1_565 S
O3 C7 1.272 . S
O4 Zn1 1.986 . S
O4 C11 1.262 . S
O5 Zn0 2.049 . S
O5 C13 1.260 . S
O6 Zn1 1.996 . S
O6 C13 1.257 . S
C7 O2 1.246 1_565 S
C7 O3 1.272 . S
C8 O9 1.249 . S
C8 O10 1.270 1_545 S
O9 Zn1 1.943 . S
O9 C8 1.249 . S
O10 Zn0 2.067 1_565 S
O10 C8 1.270 1_565 S
C11 O4 1.262 . S
C11 O12 1.232 . S
O12 C11 1.232 . S
C13 O5 1.260 . S
C13 O6 1.257 . S
Zn14 O17 2.031 . S
Zn14 O19 2.049 . S
Zn14 O24 2.067 . S
Zn15 O16 1.962 . S
Zn15 O18 1.986 1_455 S
Zn15 O20 1.996 . S
Zn15 O23 1.943 . S
O16 Zn15 1.962 . S
O16 C21 1.254 . S
O17 Zn14 2.031 . S
O17 C21 1.269 . S
O18 Zn15 1.986 1_655 S
O18 C25 1.262 . S
O19 Zn14 2.049 . S
O19 C27 1.260 . S
O20 Zn15 1.996 . S
O20 C27 1.257 . S
C21 O16 1.254 . S
C21 O17 1.269 . S
C22 O23 1.249 . S
C22 O24 1.270 . S
O23 Zn15 1.943 . S
O23 C22 1.249 . S
O24 Zn14 2.067 . S
O24 C22 1.270 . S
C25 O18 1.262 . S
C25 O26 1.232 . S
O26 C25 1.232 . S
C27 O19 1.260 . S
C27 O20 1.257 . S
Zn28 O31 2.031 1_565 S
Zn28 O33 2.049 . S
Zn28 O38 2.067 1_565 S
Zn29 O30 1.962 1_545 S
Zn29 O32 1.986 1_455 S
Zn29 O34 1.995 1_545 S
Zn29 O37 1.943 . S
O30 Zn29 1.962 1_565 S
O30 C35 1.254 1_565 S
O31 Zn28 2.031 1_545 S
O31 C35 1.269 . S
O32 Zn29 1.986 1_655 S
O32 C39 1.262 . S
O33 Zn28 2.049 . S
O33 C41 1.260 1_455 S
O34 Zn29 1.995 1_565 S
O34 C41 1.257 1_455 S
C35 O30 1.254 1_545 S
C35 O31 1.269 . S
C36 O37 1.249 . S
C36 O38 1.270 . S
O37 Zn29 1.943 . S
O37 C36 1.249 . S
O38 Zn28 2.067 1_545 S
O38 C36 1.270 . S
C39 O32 1.262 . S
C39 O40 1.232 1_655 S
O40 C39 1.232 1_455 S
C41 O33 1.260 1_655 S
C41 O34 1.257 1_655 S
C42 O44 1.247 . S
C42 O46 1.258 . S
C43 O50 1.247 . S
C43 O51 1.258 . S
O44 C42 1.247 . S
O44 Zn45 2.028 . S
Zn45 O44 2.028 . S
Zn45 O49 2.035 . S
Zn45 O51 2.035 . S
Zn45 O52 2.028 . S
O46 C42 1.258 . S
O46 Zn47 2.031 . S
Zn47 O46 2.031 . S
Zn47 O48 2.035 . S
Zn47 O50 2.037 . S
Zn47 O53 2.033 . S
O48 Zn47 2.035 . S
O48 C54 1.247 . S
O49 Zn45 2.035 . S
O49 C54 1.258 . S
O50 C43 1.247 . S
O50 Zn47 2.037 . S
O51 C43 1.258 . S
O51 Zn45 2.035 . S
O52 Zn45 2.028 . S
O52 C55 1.247 . S
O53 Zn47 2.033 . S
O53 C55 1.258 . S
C54 O48 1.247 . S
C54 O49 1.258 . S
C55 O52 1.247 . S
C55 O53 1.258 . S
C56 O58 1.247 1_545 S
C56 O60 1.258 . S
C57 O64 1.247 . S
C57 O65 1.258 . S
O58 C56 1.247 1_565 S
O58 Zn59 2.028 . S
Zn59 O58 2.028 . S
Zn59 O63 2.035 . S
Zn59 O65 2.035 1_565 S
Zn59 O66 2.028 1_565 S
O60 C56 1.258 . S
O60 Zn61 2.035 . S
Zn61 O60 2.035 . S
Zn61 O62 2.028 . S
Zn61 O64 2.028 . S
Zn61 O67 2.035 . S
O62 Zn61 2.028 . S
O62 C68 1.247 . S
O63 Zn59 2.035 . S
O63 C68 1.258 1_565 S
O64 C57 1.247 . S
O64 Zn61 2.028 . S
O65 C57 1.258 . S
O65 Zn59 2.035 1_545 S
O66 Zn59 2.028 1_545 S
O66 C69 1.247 . S
O67 Zn61 2.035 . S
O67 C69 1.258 . S
C68 O62 1.247 . S
C68 O63 1.258 1_545 S
C69 O66 1.247 . S
C69 O67 1.258 . S
C70 O72 1.247 . S
C70 O74 1.258 . S
C71 O78 1.247 . S
C71 O79 1.258 . S
O72 C70 1.247 . S
O72 Zn73 2.028 . S
Zn73 O72 2.028 . S
Zn73 O77 2.035 . S
Zn73 O79 2.035 . S
Zn73 O80 2.028 . S
O74 C70 1.258 . S
O74 Zn75 2.035 . S
Zn75 O74 2.035 . S
Zn75 O76 2.028 . S
Zn75 O78 2.028 . S
Zn75 O81 2.035 . S
O76 Zn75 2.028 . S
O76 C82 1.247 . S
O77 Zn73 2.035 . S
O77 C82 1.258 . S
O78 C71 1.247 . S
O78 Zn75 2.028 . S
O79 C71 1.258 . S
O79 Zn73 2.035 . S
O80 Zn73 2.028 . S
O80 C83 1.247 . S
O81 Zn75 2.035 . S
O81 C83 1.258 . S
C82 O76 1.247 . S
C82 O77 1.258 . S
C83 O80 1.247 . S
C83 O81 1.258 . S
C84 C85 1.386 . S
C84 C86 1.383 . S
C84 H100 0.951 . S
C85 C84 1.386 . S
C85 C89 1.383 . S
C86 C84 1.383 . S
C86 C87 1.402 . S
C86 H101 0.951 . S
C87 C86 1.402 . S
C87 C88 1.375 . S
C87 C90 1.481 . S
C88 C87 1.375 . S
C88 C89 1.367 . S
C88 H102 0.951 . S
C89 C85 1.383 . S
C89 C88 1.367 . S
C89 H103 0.950 . S
C90 C87 1.481 . S
C90 C91 1.297 . S
C90 H104 0.950 . S
C91 C90 1.297 . S
C91 C92 1.479 . S
C91 H105 0.950 . S
C92 C91 1.479 . S
C92 C93 1.375 . S
C92 C98 1.404 . S
C93 C92 1.375 . S
C93 C94 1.369 . S
C93 H106 0.950 . S
C94 C93 1.369 . S
C94 C95 1.392 . S
C94 H107 0.951 . S
C95 C94 1.392 . S
C95 C97 1.384 . S
H96 C98 0.949 . S
C97 C95 1.384 . S
C97 C98 1.385 . S
C97 H99 0.950 . S
C98 C92 1.404 . S
C98 H96 0.949 . S
C98 C97 1.385 . S
H99 C97 0.950 . S
H100 C84 0.951 . S
H101 C86 0.951 . S
H102 C88 0.951 . S
H103 C89 0.950 . S
H104 C90 0.950 . S
H105 C91 0.950 . S
H106 C93 0.950 . S
H107 C94 0.951 . S
C108 C109 1.386 . S
C108 C110 1.383 . S
C108 H124 0.951 . S
C109 C108 1.386 . S
C109 C113 1.383 . S
C110 C108 1.383 . S
C110 C111 1.402 . S
C110 H125 0.951 . S
C111 C110 1.402 . S
C111 C112 1.375 . S
C111 C114 1.481 . S
C112 C111 1.375 . S
C112 C113 1.367 . S
C112 H126 0.951 1_545 S
C113 C109 1.383 . S
C113 C112 1.367 . S
C113 H127 0.950 . S
C114 C111 1.481 . S
C114 C115 1.297 . S
C114 H128 0.950 . S
C115 C114 1.297 . S
C115 C116 1.479 . S
C115 H129 0.950 . S
C116 C115 1.479 . S
C116 C117 1.375 . S
C116 C122 1.404 . S
C117 C116 1.375 . S
C117 C118 1.369 . S
C117 H130 0.950 . S
C118 C117 1.369 . S
C118 C119 1.392 . S
C118 H131 0.951 . S
C119 C118 1.392 . S
C119 C121 1.384 . S
H120 C122 0.949 1_565 S
C121 C119 1.384 . S
C121 C122 1.385 . S
C121 H123 0.956 . S
C122 C116 1.404 . S
C122 H120 0.949 1_545 S
C122 C121 1.385 . S
H123 C121 0.956 . S
H124 C108 0.951 . S
H125 C110 0.951 . S
H126 C112 0.951 1_565 S
H127 C113 0.950 . S
H128 C114 0.950 . S
H129 C115 0.950 . S
H130 C117 0.950 . S
H131 C118 0.951 . S
C132 C133 1.386 . S
C132 C134 1.383 . S
C132 H148 0.951 . S
C133 C132 1.386 . S
C133 C137 1.383 . S
C134 C132 1.383 . S
C134 C135 1.402 . S
C134 H149 0.951 . S
C135 C134 1.402 . S
C135 C136 1.375 . S
C135 C138 1.481 . S
C136 C135 1.375 . S
C136 C137 1.367 . S
C136 H150 0.951 . S
C137 C133 1.383 . S
C137 C136 1.367 . S
C137 H151 0.950 . S
C138 C135 1.481 . S
C138 C139 1.297 . S
C138 H152 0.950 . S
C139 C138 1.297 . S
C139 C140 1.479 . S
C139 H153 0.950 . S
C140 C139 1.479 . S
C140 C141 1.375 . S
C140 C146 1.404 . S
C141 C140 1.375 . S
C141 C142 1.369 . S
C141 H154 0.950 . S
C142 C141 1.369 . S
C142 C143 1.392 . S
C142 H155 0.951 . S
C143 C142 1.392 . S
C143 C145 1.384 . S
H144 C146 0.949 . S
C145 C143 1.384 . S
C145 C146 1.385 . S
C145 H147 0.950 . S
C146 C140 1.404 . S
C146 H144 0.949 . S
C146 C145 1.385 . S
H147 C145 0.950 . S
H148 C132 0.951 . S
H149 C134 0.951 . S
H150 C136 0.951 . S
H151 C137 0.950 . S
H152 C138 0.950 . S
H153 C139 0.950 . S
H154 C141 0.950 . S
H155 C142 0.951 . S
C156 C157 1.386 . S
C156 C158 1.383 . S
C156 H172 0.951 1_565 S
C157 C156 1.386 . S
C157 C161 1.383 . S
C158 C156 1.383 . S
C158 C159 1.402 . S
C158 H173 0.951 . S
C159 C158 1.402 . S
C159 C160 1.375 . S
C159 C162 1.481 . S
C160 C159 1.375 . S
C160 C161 1.367 . S
C160 H174 0.951 . S
C161 C157 1.383 . S
C161 C160 1.367 . S
C161 H175 0.950 . S
C162 C159 1.481 . S
C162 C163 1.297 . S
C162 H176 0.950 . S
C163 C162 1.297 . S
C163 C164 1.479 . S
C163 H177 0.950 . S
C164 C163 1.479 . S
C164 C165 1.375 . S
C164 C170 1.404 . S
C165 C164 1.375 . S
C165 C166 1.369 . S
C165 H178 0.950 . S
C166 C165 1.369 . S
C166 C167 1.392 . S
C166 H179 0.951 . S
C167 C166 1.392 . S
C167 C169 1.384 . S
H168 C170 0.949 1_655 S
C169 C167 1.384 . S
C169 C170 1.385 . S
C169 H171 0.950 1_455 S
C170 C164 1.404 . S
C170 H168 0.949 1_455 S
C170 C169 1.385 . S
H171 C169 0.950 1_655 S
H172 C156 0.951 1_545 S
H173 C158 0.951 . S
H174 C160 0.951 . S
H175 C161 0.950 . S
H176 C162 0.950 . S
H177 C163 0.950 . S
H178 C165 0.950 . S
H179 C166 0.951 . S
C180 C181 1.386 . S
C180 C182 1.383 . S
C180 H196 0.951 . S
C181 C180 1.386 . S
C181 C185 1.383 . S
C182 C180 1.383 . S
C182 C183 1.402 . S
C182 H197 0.951 . S
C183 C182 1.402 . S
C183 C184 1.375 . S
C183 C186 1.481 . S
C184 C183 1.375 . S
C184 C185 1.367 . S
C184 H198 0.951 . S
C185 C181 1.383 . S
C185 C184 1.367 . S
C185 H199 0.950 . S
C186 C183 1.481 . S
C186 C187 1.297 . S
C186 H200 0.950 . S
C187 C186 1.297 . S
C187 C188 1.479 . S
C187 H201 0.950 . S
C188 C187 1.479 . S
C188 C189 1.375 . S
C188 C194 1.404 . S
C189 C188 1.375 . S
C189 C190 1.369 . S
C189 H202 0.950 . S
C190 C189 1.369 . S
C190 C191 1.392 . S
C190 H203 0.951 . S
C191 C190 1.392 . S
C191 C193 1.384 . S
H192 C194 0.949 1_565 S
C193 C191 1.384 . S
C193 C194 1.385 . S
C193 H195 0.950 1_545 S
C194 C188 1.404 . S
C194 H192 0.949 1_545 S
C194 C193 1.385 . S
H195 C193 0.950 1_565 S
H196 C180 0.951 . S
H197 C182 0.951 . S
H198 C184 0.951 . S
H199 C185 0.950 . S
H200 C186 0.950 . S
H201 C187 0.950 . S
H202 C189 0.950 . S
H203 C190 0.951 . S
C204 C205 1.386 . S
C204 C206 1.383 . S
C204 H220 0.951 . S
C205 C204 1.386 . S
C205 C209 1.383 . S
C206 C204 1.383 . S
C206 C207 1.402 . S
C206 H221 0.951 . S
C207 C206 1.402 . S
C207 C208 1.375 . S
C207 C210 1.481 . S
C208 C207 1.375 . S
C208 C209 1.367 . S
C208 H222 0.951 . S
C209 C205 1.383 . S
C209 C208 1.367 . S
C209 H223 0.950 . S
C210 C207 1.481 . S
C210 C211 1.297 . S
C210 H224 0.950 . S
C211 C210 1.297 . S
C211 C212 1.479 . S
C211 H225 0.950 . S
C212 C211 1.479 . S
C212 C213 1.375 . S
C212 C218 1.404 . S
C213 C212 1.375 . S
C213 C214 1.369 . S
C213 H226 0.950 . S
C214 C213 1.369 . S
C214 C215 1.392 . S
C214 H227 0.951 . S
C215 C214 1.392 . S
C215 C217 1.384 . S
H216 C218 0.949 . S
C217 C215 1.384 . S
C217 C218 1.385 . S
C217 H219 0.950 . S
C218 C212 1.404 . S
C218 H216 0.949 . S
C218 C217 1.385 . S
H219 C217 0.950 . S
H220 C204 0.951 . S
H221 C206 0.951 . S
H222 C208 0.951 . S
H223 C209 0.950 . S
H224 C210 0.950 . S
H225 C211 0.950 . S
H226 C213 0.950 . S
H227 C214 0.951 . S
C228 C229 1.386 . S
C228 C230 1.383 . S
C228 H244 0.951 . S
C229 C228 1.386 . S
C229 C233 1.383 . S
C230 C228 1.383 . S
C230 C231 1.402 . S
C230 H245 0.951 . S
C231 C230 1.402 . S
C231 C232 1.375 . S
C231 C234 1.481 . S
C232 C231 1.375 . S
C232 C233 1.367 . S
C232 H246 0.951 . S
C233 C229 1.383 . S
C233 C232 1.367 . S
C233 H247 0.950 . S
C234 C231 1.481 . S
C234 C235 1.297 . S
C234 H248 0.950 . S
C235 C234 1.297 . S
C235 C236 1.479 . S
C235 H249 0.935 1_545 S
C236 C235 1.479 . S
C236 C237 1.375 . S
C236 C242 1.404 . S
C237 C236 1.375 . S
C237 C238 1.369 . S
C237 H250 0.950 1_545 S
C238 C237 1.369 . S
C238 C239 1.392 . S
C238 H251 0.951 . S
C239 C238 1.392 . S
C239 C241 1.384 . S
H240 C242 0.949 . S
C241 C239 1.384 . S
C241 C242 1.385 . S
C241 H243 0.950 . S
C242 C236 1.404 . S
C242 H240 0.949 . S
C242 C241 1.385 . S
H243 C241 0.950 . S
H244 C228 0.951 . S
H245 C230 0.951 . S
H246 C232 0.951 . S
H247 C233 0.950 . S
H248 C234 0.950 . S
H249 C235 0.935 1_565 S
H250 C237 0.950 1_565 S
H251 C238 0.951 . S
C252 C253 1.386 . S
C252 C254 1.383 . S
C252 H268 0.951 . S
C253 C252 1.386 . S
C253 C257 1.383 . S
C254 C252 1.383 . S
C254 C255 1.402 . S
C254 H269 0.951 . S
C255 C254 1.402 . S
C255 C256 1.375 . S
C255 C258 1.481 1_554 S
C256 C255 1.375 . S
C256 C257 1.367 . S
C256 H270 0.951 1_554 S
C257 C253 1.383 . S
C257 C256 1.367 . S
C257 H271 0.950 1_665 S
C258 C255 1.481 1_556 S
C258 C259 1.297 . S
C258 H272 0.950 . S
C259 C258 1.297 . S
C259 C260 1.479 . S
C259 H273 0.950 1_556 S
C260 C259 1.479 . S
C260 C261 1.375 . S
C260 C266 1.404 . S
C261 C260 1.375 . S
C261 C262 1.369 . S
C261 H274 0.950 . S
C262 C261 1.369 . S
C262 C263 1.392 . S
C262 H275 0.951 . S
C263 C262 1.392 . S
C263 C265 1.384 . S
H264 C266 0.949 . S
C265 C263 1.384 . S
C265 C266 1.385 . S
C265 H267 0.950 . S
C266 C260 1.404 . S
C266 H264 0.949 . S
C266 C265 1.385 . S
H267 C265 0.950 . S
H268 C252 0.951 . S
H269 C254 0.951 . S
H270 C256 0.951 1_556 S
H271 C257 0.950 1_445 S
H272 C258 0.950 . S
H273 C259 0.950 1_554 S
H274 C261 0.950 . S
H275 C262 0.951 . S
C276 C277 1.386 1_655 S
C276 C278 1.383 . S
C276 H292 0.951 . S
C277 C276 1.386 1_455 S
C277 C281 1.383 . S
C278 C276 1.383 . S
C278 C279 1.402 1_655 S
C278 H293 0.951 . S
C279 C278 1.402 1_455 S
C279 C280 1.375 . S
C279 C282 1.481 . S
C280 C279 1.375 . S
C280 C281 1.367 . S
C280 H294 0.951 . S
C281 C277 1.383 . S
C281 C280 1.367 . S
C281 H295 0.950 1_565 S
C282 C279 1.481 . S
C282 C283 1.297 . S
C282 H296 0.950 . S
C283 C282 1.297 . S
C283 C284 1.479 . S
C283 H297 0.950 1_455 S
C284 C283 1.479 . S
C284 C285 1.375 1_455 S
C284 C290 1.404 . S
C285 C284 1.375 1_655 S
C285 C286 1.365 1_655 S
C285 H298 0.950 . S
C286 C285 1.365 1_455 S
C286 C287 1.398 . S
C286 H299 0.948 1_455 S
C287 C286 1.398 . S
C287 C289 1.384 . S
H288 C290 0.949 . S
C289 C287 1.384 . S
C289 C290 1.385 . S
C289 H291 0.950 . S
C290 C284 1.404 . S
C290 H288 0.949 . S
C290 C289 1.385 . S
H291 C289 0.950 . S
H292 C276 0.951 . S
H293 C278 0.951 . S
H294 C280 0.951 . S
H295 C281 0.950 1_545 S
H296 C282 0.950 . S
H297 C283 0.950 1_655 S
H298 C285 0.950 . S
H299 C286 0.948 1_655 S
C300 C301 1.386 . S
C300 C302 1.383 . S
C300 H316 0.951 . S
C301 C300 1.386 . S
C301 C305 1.383 1_545 S
C302 C300 1.383 . S
C302 C303 1.402 . S
C302 H317 0.951 . S
C303 C302 1.402 . S
C303 C304 1.375 1_545 S
C303 C306 1.481 . S
C304 C303 1.375 1_565 S
C304 C305 1.367 . S
C304 H318 0.951 . S
C305 C301 1.383 1_565 S
C305 C304 1.367 . S
C305 H319 0.950 . S
C306 C303 1.481 . S
C306 C307 1.297 . S
C306 H320 0.950 1_545 S
C307 C306 1.297 . S
C307 C308 1.479 . S
C307 H321 0.950 . S
C308 C307 1.479 . S
C308 C309 1.375 . S
C308 C314 1.404 1_545 S
C309 C308 1.375 . S
C309 C310 1.369 . S
C309 H322 0.950 . S
C310 C309 1.369 . S
C310 C311 1.392 . S
C310 H323 0.951 . S
C311 C310 1.392 . S
C311 C313 1.384 1_545 S
H312 C314 0.949 . S
C313 C311 1.384 1_565 S
C313 C314 1.385 . S
C313 H315 0.950 . S
C314 C308 1.404 1_565 S
C314 H312 0.949 . S
C314 C313 1.385 . S
H315 C313 0.950 . S
H316 C300 0.951 . S
H317 C302 0.951 . S
H318 C304 0.951 . S
H319 C305 0.950 . S
H320 C306 0.950 1_565 S
H321 C307 0.950 . S
H322 C309 0.950 . S
H323 C310 0.951 . S
C324 C325 1.386 . S
C324 C326 1.383 . S
C324 H340 0.951 . S
C325 C324 1.386 . S
C325 C329 1.383 . S
C326 C324 1.383 . S
C326 C327 1.402 . S
C326 H341 0.951 . S
C327 C326 1.402 . S
C327 C328 1.375 . S
C327 C330 1.481 1_554 S
C328 C327 1.375 . S
C328 C329 1.367 . S
C328 H342 0.951 1_554 S
C329 C325 1.383 . S
C329 C328 1.367 . S
C329 H343 0.950 . S
C330 C327 1.481 1_556 S
C330 C331 1.297 . S
C330 H344 0.950 . S
C331 C330 1.297 . S
C331 C332 1.479 . S
C331 H345 0.950 . S
C332 C331 1.479 . S
C332 C333 1.375 . S
C332 C338 1.404 . S
C333 C332 1.375 . S
C333 C334 1.369 . S
C333 H346 0.950 . S
C334 C333 1.369 . S
C334 C335 1.392 . S
C334 H347 0.951 . S
C335 C334 1.392 . S
C335 C337 1.384 . S
H336 C338 0.949 . S
C337 C335 1.384 . S
C337 C338 1.385 . S
C337 H339 0.950 . S
C338 C332 1.404 . S
C338 H336 0.949 . S
C338 C337 1.385 . S
H339 C337 0.950 . S
H340 C324 0.951 . S
H341 C326 0.951 . S
H342 C328 0.951 1_556 S
H343 C329 0.950 . S
H344 C330 0.950 . S
H345 C331 0.950 . S
H346 C333 0.950 . S
H347 C334 0.951 . S
C348 C349 1.386 . S
C348 C350 1.383 . S
C348 H364 0.951 . S
C349 C348 1.386 . S
C349 C353 1.383 . S
C350 C348 1.383 . S
C350 C351 1.402 . S
C350 H365 0.951 . S
C351 C350 1.402 . S
C351 C352 1.375 . S
C351 C354 1.481 . S
C352 C351 1.375 . S
C352 C353 1.367 . S
C352 H366 0.951 1_455 S
C353 C349 1.383 . S
C353 C352 1.367 . S
C353 H367 0.950 1_455 S
C354 C351 1.481 . S
C354 C355 1.297 . S
C354 H368 0.950 1_455 S
C355 C354 1.297 . S
C355 C356 1.479 . S
C355 H369 0.950 . S
C356 C355 1.479 . S
C356 C357 1.375 . S
C356 C362 1.404 . S
C357 C356 1.375 . S
C357 C358 1.369 . S
C357 H370 0.950 . S
C358 C357 1.369 . S
C358 C359 1.392 . S
C358 H371 0.951 . S
C359 C358 1.392 . S
C359 C361 1.384 . S
H360 C362 0.949 1_655 S
C361 C359 1.384 . S
C361 C362 1.385 . S
C361 H363 0.950 1_455 S
C362 C356 1.404 . S
C362 H360 0.949 1_455 S
C362 C361 1.385 . S
H363 C361 0.950 1_655 S
H364 C348 0.951 . S
H365 C350 0.951 . S
H366 C352 0.951 1_655 S
H367 C353 0.950 1_655 S
H368 C354 0.950 1_655 S
H369 C355 0.950 . S
H370 C357 0.950 . S
H371 C358 0.951 . S
C95 C43 1.307 . S
C85 C11 1.292 . S
C109 C25 1.358 . S
C119 C69 1.357 . S
C133 C41 1.328 . S
C143 C71 1.399 . S
C157 C7 1.350 . S
C167 C55 1.352 . S
C191 C57 1.410 . S
C181 C21 1.400 . S
C205 C36 1.333 . S
C215 C83 1.413 . S
C239 C56 1.361 . S
C229 C39 1.360 . S
C253 C8 1.354 1_665 S
C263 C82 1.401 . S
C287 C42 1.480 . S
C277 C22 1.385 1_565 S
C311 C68 1.390 . S
C301 C35 1.400 . S
C335 C70 1.396 . S
C325 C13 1.323 . S
C349 C27 1.386 . S
C359 C54 1.435 . S
