# Generated by pormake.
# Topology nia, (6,6)-cn, num edge types: 1
# Building blocks:
#     Node 0, Type 0, BuildingBlock: VOLQOD_clean_sbu_1, # of connection points: 6
#     Node 1, Type 0, BuildingBlock: VOLQOD_clean_sbu_1, # of connection points: 6
#     Node 2, Type 1, BuildingBlock: MIDCAF_clean_sbu_0, # of connection points: 6
#     Node 3, Type 1, BuildingBlock: MIDCAF_clean_sbu_0, # of connection points: 6
#     Edge 4, Type (0, 1), BuildingBlock: XUDNAN_clean_linker_2, # of connection points: 2
#     Edge 5, Type (0, 1), BuildingBlock: XUDNAN_clean_linker_2, # of connection points: 2
#     Edge 6, Type (0, 1), BuildingBlock: XUDNAN_clean_linker_2, # of connection points: 2
#     Edge 7, Type (0, 1), BuildingBlock: XUDNAN_clean_linker_2, # of connection points: 2
#     Edge 8, Type (0, 1), BuildingBlock: XUDNAN_clean_linker_2, # of connection points: 2
#     Edge 9, Type (0, 1), BuildingBlock: XUDNAN_clean_linker_2, # of connection points: 2
#     Edge 10, Type (0, 1), BuildingBlock: XUDNAN_clean_linker_2, # of connection points: 2
#     Edge 11, Type (0, 1), BuildingBlock: XUDNAN_clean_linker_2, # of connection points: 2
#     Edge 12, Type (0, 1), BuildingBlock: XUDNAN_clean_linker_2, # of connection points: 2
#     Edge 13, Type (0, 1), BuildingBlock: XUDNAN_clean_linker_2, # of connection points: 2
#     Edge 14, Type (0, 1), BuildingBlock: XUDNAN_clean_linker_2, # of connection points: 2
#     Edge 15, Type (0, 1), BuildingBlock: XUDNAN_clean_linker_2, # of connection points: 2
# Relax obj value: 0.144
# Max RMSD: 0.235
# Mean RMSD: 0.189
data_MOF--net-nia--node1-VOLQOD_clean_sbu_1--node2-MIDCAF_clean_sbu_0--edge1-XUDNAN_clean_linker_2
_symmetry_space_group_name_H-M    P1
_symmetry_Int_Tables_number       1
_symmetry_cell_setting            triclinic
loop_
_symmetry_equiv_pos_as_xyz
'x, y, z'
_cell_length_a     24.032474
_cell_length_b     23.944528
_cell_length_c     34.873686
_cell_angle_alpha  90.946863
_cell_angle_beta   89.819542
_cell_angle_gamma 120.90742
loop_
_atom_site_label
_atom_site_type_symbol
_atom_site_fract_x
_atom_site_fract_y
_atom_site_fract_z
_atom_type_partial_charge
O0 O 0.05963 0.02965 0.95607 0.0
Zn1 Zn -0.02931 -0.01019 0.97542 0.0
O2 O -0.0317 -0.01742 0.03016 0.0
Zn3 Zn 0.92763 0.89062 0.04169 0.0
Zn4 Zn 0.05752 0.02974 0.0498 0.0
Zn5 Zn 0.9173 0.0189 0.05068 0.0
O6 O 0.84531 0.86089 0.07047 0.0
O7 O 0.83893 0.94978 0.07844 0.0
O8 O 0.92194 0.90474 0.94844 0.0
O9 O 0.90913 0.8347 0.99347 0.0
O10 O -0.01777 0.87634 0.07866 0.0
O11 O 0.07478 0.97146 0.08226 0.0
O12 O 0.06831 0.09966 0.08671 0.0
O13 O 0.93682 0.04435 0.95793 0.0
O14 O -0.02876 0.09027 0.08941 0.0
O15 O 0.88813 0.05678 1.00882 0.0
C16 C 0.11594 0.05982 0.9708 0.0
C17 C 0.81708 0.88953 0.08399 0.0
C18 C 0.03908 0.91252 0.09224 0.0
C19 C 0.90521 0.84761 0.95858 0.0
C20 C 0.03005 0.1167 0.10057 0.0
C21 C 0.9033 0.06547 0.97347 0.0
O22 O 0.12452 0.06739 1.00703 0.0
O23 O 0.00431 0.14151 0.50853 0.0
Zn24 Zn -0.00466 0.07533 0.54682 0.0
O25 O -0.0284 -0.00731 0.52214 0.0
Zn26 Zn 0.88164 0.92715 0.5347 0.0
Zn27 Zn -0.019 0.00535 0.46692 0.0
Zn28 Zn 0.03003 0.965 0.54009 0.0
O29 O 0.879 0.85288 0.5626 0.0
O30 O -0.01779 0.88088 0.56838 0.0
O31 O 0.92732 0.06177 0.58384 0.0
O32 O 0.84183 0.96342 0.57188 0.0
O33 O 0.8274 0.89089 0.48642 0.0
O34 O 0.89783 0.94395 0.43996 0.0
O35 O 0.04913 -0.0106 0.44567 0.0
O36 O 0.07598 0.11143 0.57928 0.0
O37 O 0.07939 0.95575 0.49612 0.0
O38 O 0.09398 0.02946 0.57783 0.0
C39 C 0.00782 0.14271 0.47207 0.0
C40 C 0.92233 0.84195 0.57488 0.0
C41 C 0.84111 0.90195 0.45094 0.0
C42 C 0.86939 0.01727 0.59059 0.0
C43 C 0.08317 0.96856 0.46054 0.0
C44 C 0.10747 0.0852 0.59046 0.0
O45 O 0.00266 0.0949 0.45261 0.0
Zn46 Zn 0.2783 0.64408 0.21021 0.0
Zn47 Zn 0.31387 0.6655 0.35179 0.0
Zn48 Zn 0.29665 0.65438 0.28424 0.0
C49 C 0.42513 0.68016 0.32774 0.0
C50 C 0.20406 0.54924 0.34427 0.0
O51 O 0.25516 0.71474 0.26738 0.0
O52 O 0.24184 0.69954 0.20441 0.0
C53 C 0.4091 0.69321 0.22182 0.0
O54 O 0.40001 0.68833 0.29727 0.0
O55 O 0.39053 0.65681 0.35712 0.0
O56 O 0.22971 0.5942 0.36918 0.0
O57 O 0.22785 0.5589 0.31021 0.0
O58 O 0.36921 0.68076 0.19495 0.0
O59 O 0.39072 0.68493 0.25703 0.0
O60 O 0.23059 0.54994 0.27062 0.0
O61 O 0.21896 0.54893 0.20756 0.0
C62 C 0.20663 0.51884 0.23871 0.0
O63 O 0.27569 0.72961 0.30594 0.0
O64 O 0.32751 0.75272 0.36131 0.0
C65 C 0.23669 0.72518 0.23498 0.0
C66 C 0.29717 0.76511 0.33674 0.0
Zn67 Zn 0.64803 0.32653 0.84174 0.0
Zn68 Zn 0.62244 0.29687 0.69797 0.0
Zn69 Zn 0.64101 0.31569 0.77173 0.0
C70 C 0.70884 0.42937 0.7096 0.0
C71 C 0.50357 0.26002 0.72711 0.0
O72 O 0.68648 0.26167 0.79369 0.0
O73 O 0.66331 0.25683 0.85537 0.0
C74 C 0.73605 0.44793 0.81664 0.0
O75 O 0.69928 0.41201 0.74493 0.0
O76 O 0.68163 0.38771 0.68291 0.0
O77 O 0.5301 0.26534 0.69513 0.0
O78 O 0.53671 0.27489 0.7585 0.0
O79 O 0.72319 0.41456 0.84646 0.0
O80 O 0.70688 0.42052 0.78487 0.0
O81 O 0.54341 0.27809 0.79859 0.0
O82 O 0.56522 0.31436 0.85848 0.0
C83 C 0.52419 0.28415 0.83223 0.0
O84 O 0.67536 0.2495 0.75273 0.0
O85 O 0.64793 0.23156 0.69125 0.0
C86 C 0.68726 0.24189 0.82777 0.0
C87 C 0.67144 0.22055 0.72043 0.0
H88 H 0.16291 0.94175 0.10674 0.0
H89 H 0.96504 0.82631 0.14687 0.0
H90 H 0.00167 0.78433 0.1992 0.0
H91 H 0.19873 0.82126 0.11656 0.0
H92 H 0.28214 0.87434 0.13087 0.0
H93 H 0.24228 0.90515 0.10218 0.0
H94 H 0.27118 -0.00386 0.15338 0.0
H95 H 0.31013 0.96441 0.18258 0.0
H96 H 0.24634 0.97439 0.20237 0.0
H97 H 0.05712 0.74659 0.24285 0.0
H98 H 0.12255 0.70063 0.2658 0.0
H99 H 0.28198 0.83447 0.19455 0.0
C100 C 0.12769 0.90865 0.12708 0.0
C101 C 0.06142 0.88743 0.12307 0.0
C102 C 0.01616 0.84288 0.14949 0.0
C103 C 0.03661 0.81958 0.17962 0.0
C104 C 0.1024 0.84108 0.18276 0.0
C105 C 0.14713 0.88386 0.15681 0.0
C106 C 0.21284 0.89114 0.1626 0.0
C107 C 0.23524 0.87176 0.1259 0.0
C108 C 0.26308 0.96067 0.17604 0.0
C109 C 0.19715 0.84306 0.19436 0.0
C110 C 0.134 0.81684 0.20683 0.0
C111 C 0.10696 0.7675 0.23385 0.0
C112 C 0.14435 0.74191 0.24689 0.0
C113 C 0.20701 0.76496 0.23209 0.0
C114 C 0.23451 0.81749 0.20673 0.0
H115 H 0.17986 0.03999 0.62234 0.0
H116 H 0.15054 0.20441 0.62579 0.0
H117 H 0.2372 0.25831 0.67482 0.0
H118 H 0.22401 0.04719 0.726 0.0
H119 H 0.28338 0.02499 0.71451 0.0
H120 H 0.21142 -0.00548 0.68528 0.0
H121 H 0.28239 0.0421 0.62458 0.0
H122 H 0.35391 0.07132 0.65352 0.0
H123 H 0.34421 0.12723 0.62431 0.0
H124 H 0.3364 0.30012 0.71658 0.0
H125 H 0.44575 0.33059 0.74028 0.0
H126 H 0.40897 0.13911 0.70882 0.0
C127 C 0.19074 0.08688 0.63379 0.0
C128 C 0.15844 0.11797 0.62019 0.0
C129 C 0.17469 0.1796 0.63577 0.0
C130 C 0.22332 0.21026 0.66394 0.0
C131 C 0.25449 0.17823 0.67654 0.0
C132 C 0.23878 0.11787 0.66181 0.0
C133 C 0.28437 0.09696 0.67622 0.0
C134 C 0.24864 0.03738 0.70204 0.0
C135 C 0.31823 0.08372 0.64267 0.0
C136 C 0.33102 0.15687 0.69931 0.0
C137 C 0.31182 0.20238 0.70045 0.0
C138 C 0.35108 0.2643 0.71674 0.0
C139 C 0.4128 0.28115 0.73034 0.0
C140 C 0.43426 0.23639 0.72689 0.0
C141 C 0.39215 0.17302 0.71269 0.0
H142 H -0.00875 0.20353 0.11737 0.0
H143 H 0.12382 0.14196 0.15329 0.0
H144 H 0.16746 0.22728 0.20397 0.0
H145 H 0.10227 0.3667 0.12313 0.0
H146 H 0.0468 0.39136 0.13964 0.0
H147 H 0.01694 0.31738 0.11204 0.0
H148 H 0.93613 0.25329 0.16643 0.0
H149 H -0.03337 0.32745 0.19441 0.0
H150 H 0.96622 0.25832 0.21443 0.0
H151 H 0.20646 0.32666 0.24455 0.0
H152 H 0.2468 0.44009 0.26596 0.0
H153 H 0.0925 0.44019 0.2024 0.0
C154 C 0.0283 0.2071 0.13659 0.0
C155 C 0.05395 0.16612 0.13169 0.0
C156 C 0.10364 0.17312 0.15659 0.0
C157 C 0.12814 0.22086 0.18575 0.0
C158 C 0.10255 0.26129 0.18955 0.0
C159 C 0.05408 0.25528 0.16543 0.0
C160 C 0.04193 0.3108 0.17165 0.0
C161 C 0.05269 0.3488 0.13442 0.0
C162 C -0.02634 0.28596 0.18769 0.0
C163 C 0.09347 0.35073 0.20151 0.0
C164 C 0.12638 0.32017 0.21248 0.0
C165 C 0.18015 0.35044 0.23692 0.0
C166 C 0.20242 0.41456 0.24923 0.0
C167 C 0.17146 0.44761 0.23656 0.0
C168 C 0.11537 0.41474 0.2134 0.0
H169 H 0.74531 -0.00515 0.59223 0.0
H170 H 0.92156 0.06997 0.65946 0.0
H171 H 0.87734 0.11103 0.70868 0.0
H172 H 0.7312 0.12552 0.60268 0.0
H173 H 0.64421 0.08518 0.6065 0.0
H174 H 0.68037 0.04534 0.58192 0.0
H175 H 0.62091 0.94649 0.62663 0.0
H176 H 0.58393 -0.01405 0.65129 0.0
H177 H 0.62976 0.95896 0.6779 0.0
H178 H 0.82999 0.1681 0.74031 0.0
H179 H 0.77825 0.23216 0.75387 0.0
H180 H 0.62757 0.11678 0.67115 0.0
C181 C 0.77292 0.01726 0.61824 0.0
C182 C 0.83634 0.02894 0.62245 0.0
C183 C 0.87264 0.06053 0.65598 0.0
C184 C 0.84779 0.08362 0.68419 0.0
C185 C 0.78638 0.0745 0.67852 0.0
C186 C 0.74884 0.04132 0.64665 0.0
C187 C 0.68903 0.04715 0.64468 0.0
C188 C 0.68612 0.07764 0.60671 0.0
C189 C 0.62724 -0.01933 0.65049 0.0
C190 C 0.70151 0.09251 0.67866 0.0
C191 C 0.75717 0.10642 0.69829 0.0
C192 C 0.7843 0.15486 0.72674 0.0
C193 C 0.75412 0.19037 0.73504 0.0
C194 C 0.69702 0.17665 0.71572 0.0
C195 C 0.66996 0.12646 0.6875 0.0
H196 H 0.72144 0.91609 0.1 0.0
H197 H 0.78554 0.78079 0.12472 0.0
H198 H 0.6935 0.72213 0.16891 0.0
H199 H 0.66105 0.92088 0.19533 0.0
H200 H 0.59225 0.92315 0.17693 0.0
H201 H 0.66632 0.95793 0.14982 0.0
H202 H 0.60328 0.88484 0.09107 0.0
H203 H 0.52912 0.85052 0.11785 0.0
H204 H 0.5543 0.79791 0.09665 0.0
H205 H 0.59304 0.67701 0.20969 0.0
H206 H 0.48422 0.641 0.23686 0.0
H207 H 0.48427 0.80232 0.18249 0.0
C208 C 0.71635 0.87441 0.11494 0.0
C209 C 0.7606 0.85309 0.1091 0.0
C210 C 0.75187 0.79775 0.12868 0.0
C211 C 0.70019 0.76451 0.15411 0.0
C212 C 0.65754 0.78701 0.1594 0.0
C213 C 0.66458 0.84014 0.13995 0.0
C214 C 0.60929 0.85132 0.14822 0.0
C215 C 0.63372 0.91724 0.1688 0.0
C216 C 0.57178 0.84577 0.11126 0.0
C217 C 0.56936 0.79539 0.17471 0.0
C218 C 0.59864 0.75969 0.18163 0.0
C219 C 0.56976 0.70472 0.20462 0.0
C220 C 0.50837 0.68475 0.22 0.0
C221 C 0.477 0.71942 0.21172 0.0
C222 C 0.50813 0.77569 0.18936 0.0
H223 H 0.80372 0.73042 0.57747 0.0
H224 H -0.00334 0.82547 0.62771 0.0
H225 H 0.9613 0.73318 0.67161 0.0
H226 H 0.71381 0.66038 0.66356 0.0
H227 H 0.6545 0.58565 0.63997 0.0
H228 H 0.69454 0.66026 0.61362 0.0
H229 H 0.73303 0.60677 0.56312 0.0
H230 H 0.69245 0.53186 0.58905 0.0
H231 H 0.77768 0.56944 0.57868 0.0
H232 H 0.90293 0.62995 0.71107 0.0
H233 H 0.83049 0.51906 0.73643 0.0
H234 H 0.67913 0.49221 0.6578 0.0
C235 C 0.83855 0.73189 0.59773 0.0
C236 C 0.90277 0.78511 0.59933 0.0
C237 C 0.94719 0.78491 0.62591 0.0
C238 C 0.92745 0.73302 0.65116 0.0
C239 C 0.86339 0.68158 0.64913 0.0
C240 C 0.81999 0.68029 0.62265 0.0
C241 C 0.75496 0.61805 0.62473 0.0
C242 C 0.7013 0.63195 0.63616 0.0
C243 C 0.73861 0.57924 0.58664 0.0
C244 C 0.76849 0.58428 0.65639 0.0
C245 C 0.83088 0.62189 0.67066 0.0
C246 C 0.85401 0.6001 0.70007 0.0
C247 C 0.81266 0.53749 0.71446 0.0
C248 C 0.7496 0.49787 0.69904 0.0
C249 C 0.72726 0.52195 0.67006 0.0
H250 H 0.15515 0.91514 0.48106 0.0
H251 H 0.1052 -0.00872 0.38336 0.0
H252 H 0.16716 0.95938 0.34099 0.0
H253 H 0.31927 0.95808 0.44856 0.0
H254 H 0.30992 0.88394 0.46713 0.0
H255 H 0.26987 0.92156 0.49023 0.0
H256 H 0.15933 0.81371 0.48264 0.0
H257 H 0.1989 0.77593 0.45954 0.0
H258 H 0.13302 0.77687 0.43562 0.0
H259 H 0.22631 0.90908 0.30838 0.0
H260 H 0.27443 0.84267 0.28939 0.0
H261 H 0.27931 0.79689 0.40842 0.0
C262 C 0.15832 0.92653 0.45092 0.0
C263 C 0.12542 0.95582 0.4356 0.0
C264 C 0.13017 0.96898 0.39583 0.0
C265 C 0.16547 0.95131 0.37152 0.0
C266 C 0.19606 0.92103 0.38751 0.0
C267 C 0.19301 0.90911 0.42637 0.0
C268 C 0.22479 0.87074 0.43613 0.0
C269 C 0.28452 0.91101 0.46204 0.0
C270 C 0.1761 0.80547 0.45454 0.0
C271 C 0.24419 0.86085 0.39655 0.0
C272 C 0.22833 0.89098 0.36882 0.0
C273 C 0.23885 0.88531 0.32992 0.0
C274 C 0.26488 0.84655 0.31922 0.0
C275 C 0.27843 0.81309 0.34717 0.0
C276 C 0.26967 0.82212 0.38631 0.0
H277 H 0.23671 0.16907 0.98047 0.0
H278 H 0.11871 0.0098 0.90108 0.0
H279 H 0.20737 0.05542 0.85405 0.0
H280 H 0.31083 0.2934 0.90781 0.0
H281 H 0.38866 0.33598 0.9316 0.0
H282 H 0.31573 0.29127 0.9593 0.0
H283 H 0.36099 0.22445 0.98982 0.0
H284 H 0.43433 0.26964 0.96267 0.0
H285 H 0.38823 0.18202 0.9591 0.0
H286 H 0.31078 0.11317 0.81776 0.0
H287 H 0.42333 0.17937 0.7953 0.0
H288 H 0.47038 0.30754 0.89464 0.0
C289 C 0.2299 0.14375 0.95329 0.0
C290 C 0.1712 0.08595 0.94438 0.0
C291 C 0.16347 0.05437 0.90836 0.0
C292 C 0.21335 0.07992 0.88141 0.0
C293 C 0.27026 0.13758 0.89072 0.0
C294 C 0.27886 0.16926 0.92568 0.0
C295 C 0.34515 0.2302 0.92848 0.0
C296 C 0.33973 0.29133 0.93199 0.0
C297 C 0.38449 0.2263 0.96199 0.0
C298 C 0.37283 0.22673 0.89007 0.0
C299 C 0.3288 0.17308 0.86865 0.0
C300 C 0.34521 0.15651 0.83368 0.0
C301 C 0.40897 0.19511 0.82069 0.0
C302 C 0.45488 0.25023 0.84222 0.0
C303 C 0.43593 0.26665 0.87699 0.0
H304 H 0.06631 0.18741 0.40283 0.0
H305 H -0.02746 0.22895 0.4962 0.0
H306 H -0.00683 0.32862 0.46384 0.0
H307 H 0.19367 0.3423 0.39382 0.0
H308 H 0.19979 0.34057 0.3423 0.0
H309 H 0.16536 0.26613 0.36837 0.0
H310 H 0.0616 0.21868 0.32639 0.0
H311 H 0.09504 0.29395 0.30083 0.0
H312 H 0.01769 0.26102 0.32403 0.0
H313 H 0.03581 0.42891 0.42729 0.0
H314 H 0.1091 0.52993 0.3934 0.0
H315 H 0.18075 0.42781 0.32508 0.0
C316 C 0.04866 0.21671 0.41588 0.0
C317 C 0.01741 0.20047 0.45181 0.0
C318 C -0.00345 0.24068 0.46866 0.0
C319 C 0.00734 0.29688 0.45026 0.0
C320 C 0.03914 0.31216 0.4151 0.0
C321 C 0.06001 0.27358 0.39815 0.0
C322 C 0.10131 0.30588 0.36326 0.0
C323 C 0.16903 0.31425 0.36722 0.0
C324 C 0.06684 0.26758 0.32645 0.0
C325 C 0.10435 0.37066 0.36497 0.0
C326 C 0.06582 0.37196 0.39415 0.0
C327 C 0.06513 0.42815 0.40391 0.0
C328 C 0.10702 0.48529 0.38458 0.0
C329 C 0.14961 0.48601 0.35621 0.0
C330 C 0.14665 0.42762 0.34537 0.0
H331 H 0.7816 0.04742 0.96788 0.0
H332 H -0.02343 0.15835 0.92266 0.0
H333 H 0.93989 0.20905 0.87575 0.0
H334 H 0.70098 0.01454 0.87579 0.0
H335 H 0.63398 0.02088 0.89375 0.0
H336 H 0.67548 -0.00553 0.92484 0.0
H337 H 0.69874 0.08681 0.9738 0.0
H338 H 0.6561 0.11248 0.94324 0.0
H339 H 0.7384 0.16976 0.95786 0.0
H340 H 0.88455 0.25334 0.83779 0.0
H341 H 0.81277 0.28789 0.81028 0.0
H342 H 0.65063 0.13817 0.87331 0.0
C343 C 0.81648 0.08316 0.94844 0.0
C344 C 0.88192 0.10005 0.94899 0.0
C345 C 0.92628 0.14556 0.92265 0.0
C346 C 0.90588 0.1742 0.89586 0.0
C347 C 0.84071 0.15556 0.89535 0.0
C348 C 0.79655 0.11105 0.92081 0.0
C349 C 0.72918 0.09909 0.91368 0.0
C350 C 0.68214 0.02801 0.90127 0.0
C351 C 0.70416 0.11821 0.94925 0.0
C352 C 0.74283 0.14501 0.8809 0.0
C353 C 0.80751 0.17706 0.8708 0.0
C354 C 0.83327 0.2268 0.84419 0.0
C355 C 0.79198 0.24517 0.82804 0.0
C356 C 0.72544 0.21218 0.83736 0.0
C357 C 0.70061 0.16138 0.86403 0.0
H358 H 0.72683 0.78654 0.45865 0.0
H359 H 0.83933 0.93929 0.37753 0.0
H360 H 0.74929 0.88642 0.33074 0.0
H361 H 0.64316 0.65147 0.38469 0.0
H362 H 0.569 0.61376 0.41178 0.0
H363 H 0.64612 0.65786 0.43631 0.0
H364 H 0.60943 0.73034 0.47073 0.0
H365 H 0.53247 0.68641 0.44654 0.0
H366 H 0.58143 0.77362 0.44247 0.0
H367 H 0.64047 0.82992 0.29871 0.0
H368 H 0.5235 0.77271 0.28399 0.0
H369 H 0.48503 0.64982 0.38228 0.0
C370 C 0.73298 0.80808 0.43073 0.0
C371 C 0.78981 0.86701 0.42174 0.0
C372 C 0.79619 0.8939 0.38496 0.0
C373 C 0.74544 0.8641 0.35811 0.0
C374 C 0.68938 0.80664 0.36816 0.0
C375 C 0.68332 0.77835 0.40339 0.0
C376 C 0.61626 0.7197 0.40849 0.0
C377 C 0.61882 0.65698 0.41042 0.0
C378 C 0.58297 0.72809 0.44414 0.0
C379 C 0.58431 0.72193 0.37172 0.0
C380 C 0.6274 0.77179 0.3485 0.0
C381 C 0.60675 0.78904 0.3158 0.0
C382 C 0.54016 0.75573 0.30732 0.0
C383 C 0.49533 0.70527 0.33113 0.0
C384 C 0.5183 0.68702 0.36293 0.0
H385 H 0.91455 0.7387 0.95941 0.0
H386 H 0.85017 0.84325 0.88946 0.0
H387 H 0.81751 0.75982 0.83805 0.0
H388 H -0.02375 0.68293 0.87847 0.0
H389 H 0.94986 0.60568 0.90044 0.0
H390 H -0.02564 0.6772 0.92999 0.0
H391 H 0.86353 0.61871 0.9649 0.0
H392 H 0.83963 0.54698 0.9361 0.0
H393 H 0.78975 0.5831 0.93696 0.0
H394 H 0.778 0.65752 0.79861 0.0
H395 H 0.73067 0.54307 0.77687 0.0
H396 H 0.83076 0.51122 0.86933 0.0
C397 C 0.89388 0.74412 0.93319 0.0
C398 C 0.88441 0.79693 0.92843 0.0
C399 C 0.85777 0.8029 0.89361 0.0
C400 C 0.83958 0.75614 0.86415 0.0
C401 C 0.84985 0.70466 0.86963 0.0
C402 C 0.87675 0.69869 0.90322 0.0
C403 C 0.87871 0.63672 0.90314 0.0
C404 C 0.94899 0.65156 0.90299 0.0
C405 C 0.8406 0.59387 0.93726 0.0
C406 C 0.84524 0.60693 0.86528 0.0
C407 C 0.8299 0.6472 0.84593 0.0
C408 C 0.79135 0.62622 0.81284 0.0
C409 C 0.76515 0.56135 0.80041 0.0
C410 C 0.77803 0.5189 0.82109 0.0
C411 C 0.82118 0.54315 0.85262 0.0
loop_
_geom_bond_atom_site_label_1
_geom_bond_atom_site_label_2
_geom_bond_distance
_geom_bond_site_symmetry_2
_ccdc_geom_bond_type
O0 Zn1 1.953 1_545 S
O0 C16 1.225 . S
Zn1 O0 1.953 1_565 S
Zn1 O2 1.949 1_566 S
Zn1 O8 1.919 1_455 S
Zn1 O13 1.924 1_465 S
O2 Zn1 1.949 1_544 S
O2 Zn3 1.923 1_445 S
O2 Zn4 1.950 . S
O2 Zn5 1.945 1_455 S
Zn3 O2 1.923 1_665 S
Zn3 O6 1.933 . S
Zn3 O9 1.941 1_554 S
Zn3 O10 1.965 1_655 S
Zn4 O2 1.950 . S
Zn4 O11 1.938 . S
Zn4 O12 1.906 . S
Zn4 O22 1.953 1_554 S
Zn5 O2 1.945 1_655 S
Zn5 O7 1.932 1_545 S
Zn5 O14 1.977 1_655 S
Zn5 O15 1.910 1_554 S
O6 Zn3 1.933 . S
O6 C17 1.226 . S
O7 Zn5 1.932 1_565 S
O7 C17 1.307 . S
O8 Zn1 1.919 1_655 S
O8 C19 1.253 . S
O9 Zn3 1.941 1_556 S
O9 C19 1.283 . S
O10 Zn3 1.965 1_455 S
O10 C18 1.303 . S
O11 Zn4 1.938 . S
O11 C18 1.247 1_545 S
O12 Zn4 1.906 . S
O12 C20 1.304 . S
O13 Zn1 1.924 1_645 S
O13 C21 1.311 . S
O14 Zn5 1.977 1_455 S
O14 C20 1.272 . S
O15 Zn5 1.910 1_556 S
O15 C21 1.231 . S
C16 O0 1.225 . S
C16 O22 1.298 . S
C17 O6 1.226 . S
C17 O7 1.307 . S
C18 O10 1.303 . S
C18 O11 1.247 1_565 S
C19 O8 1.253 . S
C19 O9 1.283 . S
C20 O12 1.304 . S
C20 O14 1.272 . S
C21 O13 1.311 . S
C21 O15 1.231 . S
O22 Zn4 1.953 1_556 S
O22 C16 1.298 . S
O23 Zn24 1.953 . S
O23 C39 1.225 . S
Zn24 O23 1.953 . S
Zn24 O25 1.949 . S
Zn24 O31 1.919 1_455 S
Zn24 O36 1.924 . S
O25 Zn24 1.949 . S
O25 Zn26 1.923 1_445 S
O25 Zn27 1.950 . S
O25 Zn28 1.945 1_545 S
Zn26 O25 1.923 1_665 S
Zn26 O29 1.933 . S
Zn26 O32 1.941 1_565 S
Zn26 O33 1.965 . S
Zn27 O25 1.950 . S
Zn27 O34 1.938 1_445 S
Zn27 O35 1.906 1_545 S
Zn27 O45 1.953 . S
Zn28 O25 1.945 1_565 S
Zn28 O30 1.932 1_455 S
Zn28 O37 1.977 . S
Zn28 O38 1.910 1_565 S
O29 Zn26 1.933 . S
O29 C40 1.226 . S
O30 Zn28 1.932 1_655 S
O30 C40 1.307 . S
O31 Zn24 1.919 1_655 S
O31 C42 1.253 . S
O32 Zn26 1.941 1_545 S
O32 C42 1.283 . S
O33 Zn26 1.965 . S
O33 C41 1.303 . S
O34 Zn27 1.938 1_665 S
O34 C41 1.247 . S
O35 Zn27 1.906 1_565 S
O35 C43 1.304 . S
O36 Zn24 1.924 . S
O36 C44 1.311 . S
O37 Zn28 1.977 . S
O37 C43 1.272 . S
O38 Zn28 1.910 1_545 S
O38 C44 1.231 . S
C39 O23 1.225 . S
C39 O45 1.298 . S
C40 O29 1.226 . S
C40 O30 1.307 . S
C41 O33 1.303 . S
C41 O34 1.247 . S
C42 O31 1.253 . S
C42 O32 1.283 . S
C43 O35 1.304 . S
C43 O37 1.272 . S
C44 O36 1.311 . S
C44 O38 1.231 . S
O45 Zn27 1.953 . S
O45 C39 1.298 . S
Zn46 O52 1.920 . S
Zn46 O58 1.898 . S
Zn46 O61 1.905 . S
Zn47 O55 1.905 . S
Zn47 O56 1.898 . S
Zn47 O64 1.920 . S
Zn48 O51 2.080 . S
Zn48 O54 2.114 . S
Zn48 O57 2.120 . S
Zn48 O59 2.120 . S
Zn48 O60 2.114 . S
Zn48 O63 2.080 . S
C49 O54 1.166 . S
C49 O55 1.182 . S
C50 O56 1.167 . S
C50 O57 1.299 . S
O51 Zn48 2.080 . S
O51 C65 1.305 . S
O52 Zn46 1.920 . S
O52 C65 1.234 . S
C53 O58 1.167 . S
C53 O59 1.299 . S
O54 Zn48 2.114 . S
O54 C49 1.166 . S
O55 Zn47 1.905 . S
O55 C49 1.182 . S
O56 Zn47 1.898 . S
O56 C50 1.167 . S
O57 Zn48 2.120 . S
O57 C50 1.299 . S
O58 Zn46 1.898 . S
O58 C53 1.167 . S
O59 Zn48 2.120 . S
O59 C53 1.299 . S
O60 Zn48 2.114 . S
O60 C62 1.166 . S
O61 Zn46 1.905 . S
O61 C62 1.182 . S
C62 O60 1.166 . S
C62 O61 1.182 . S
O63 Zn48 2.080 . S
O63 C66 1.305 . S
O64 Zn47 1.920 . S
O64 C66 1.234 . S
C65 O51 1.305 . S
C65 O52 1.234 . S
C66 O63 1.305 . S
C66 O64 1.234 . S
Zn67 O73 1.920 . S
Zn67 O79 1.898 . S
Zn67 O82 1.905 . S
Zn68 O76 1.905 . S
Zn68 O77 1.898 . S
Zn68 O85 1.920 . S
Zn69 O72 2.080 . S
Zn69 O75 2.114 . S
Zn69 O78 2.120 . S
Zn69 O80 2.120 . S
Zn69 O81 2.114 . S
Zn69 O84 2.080 . S
C70 O75 1.166 . S
C70 O76 1.182 . S
C71 O77 1.167 . S
C71 O78 1.299 . S
O72 Zn69 2.080 . S
O72 C86 1.305 . S
O73 Zn67 1.920 . S
O73 C86 1.234 . S
C74 O79 1.167 . S
C74 O80 1.299 . S
O75 Zn69 2.114 . S
O75 C70 1.166 . S
O76 Zn68 1.905 . S
O76 C70 1.182 . S
O77 Zn68 1.898 . S
O77 C71 1.167 . S
O78 Zn69 2.120 . S
O78 C71 1.299 . S
O79 Zn67 1.898 . S
O79 C74 1.167 . S
O80 Zn69 2.120 . S
O80 C74 1.299 . S
O81 Zn69 2.114 . S
O81 C83 1.166 . S
O82 Zn67 1.905 . S
O82 C83 1.182 . S
C83 O81 1.166 . S
C83 O82 1.182 . S
O84 Zn69 2.080 . S
O84 C87 1.305 . S
O85 Zn68 1.920 . S
O85 C87 1.234 . S
C86 O72 1.305 . S
C86 O73 1.234 . S
C87 O84 1.305 . S
C87 O85 1.234 . S
H88 C100 0.930 . S
H89 C102 0.930 . S
H90 C103 0.930 . S
H91 C107 0.959 . S
H92 C107 0.959 . S
H93 C107 0.961 . S
H94 C108 0.960 . S
H95 C108 0.961 . S
H96 C108 0.959 . S
H97 C111 0.929 . S
H98 C112 0.931 . S
H99 C114 0.930 . S
C100 H88 0.930 . S
C100 C101 1.399 . S
C100 C105 1.399 . S
C101 C100 1.399 . S
C101 C102 1.376 . S
C102 H89 0.930 . S
C102 C101 1.376 . S
C102 C103 1.388 . S
C103 H90 0.930 . S
C103 C102 1.388 . S
C103 C104 1.390 . S
C104 C103 1.390 . S
C104 C105 1.394 . S
C104 C110 1.465 . S
C105 C100 1.399 . S
C105 C104 1.394 . S
C105 C106 1.516 . S
C106 C105 1.516 . S
C106 C107 1.502 . S
C106 C108 1.561 . S
C106 C109 1.526 . S
C107 H91 0.959 . S
C107 H92 0.959 . S
C107 H93 0.961 . S
C107 C106 1.502 . S
C108 H94 0.960 . S
C108 H95 0.961 . S
C108 H96 0.959 . S
C108 C106 1.561 . S
C109 C106 1.526 . S
C109 C110 1.396 . S
C109 C114 1.390 . S
C110 C104 1.465 . S
C110 C109 1.396 . S
C110 C111 1.399 . S
C111 H97 0.929 . S
C111 C110 1.399 . S
C111 C112 1.385 . S
C112 H98 0.931 . S
C112 C111 1.385 . S
C112 C113 1.389 . S
C113 C112 1.389 . S
C113 C114 1.387 . S
C114 H99 0.930 . S
C114 C109 1.390 . S
C114 C113 1.387 . S
H115 C127 0.930 . S
H116 C129 0.930 . S
H117 C130 0.930 . S
H118 C134 0.959 . S
H119 C134 0.959 . S
H120 C134 0.961 . S
H121 C135 0.960 . S
H122 C135 0.961 . S
H123 C135 0.959 . S
H124 C138 0.929 . S
H125 C139 0.931 . S
H126 C141 0.930 . S
C127 H115 0.930 . S
C127 C128 1.399 . S
C127 C132 1.399 . S
C128 C127 1.399 . S
C128 C129 1.376 . S
C129 H116 0.930 . S
C129 C128 1.376 . S
C129 C130 1.388 . S
C130 H117 0.930 . S
C130 C129 1.388 . S
C130 C131 1.390 . S
C131 C130 1.390 . S
C131 C132 1.394 . S
C131 C137 1.465 . S
C132 C127 1.399 . S
C132 C131 1.394 . S
C132 C133 1.516 . S
C133 C132 1.516 . S
C133 C134 1.502 . S
C133 C135 1.561 . S
C133 C136 1.526 . S
C134 H118 0.959 . S
C134 H119 0.959 . S
C134 H120 0.961 . S
C134 C133 1.502 . S
C135 H121 0.960 . S
C135 H122 0.961 . S
C135 H123 0.959 . S
C135 C133 1.561 . S
C136 C133 1.526 . S
C136 C137 1.396 . S
C136 C141 1.390 . S
C137 C131 1.465 . S
C137 C136 1.396 . S
C137 C138 1.399 . S
C138 H124 0.929 . S
C138 C137 1.399 . S
C138 C139 1.385 . S
C139 H125 0.931 . S
C139 C138 1.385 . S
C139 C140 1.389 . S
C140 C139 1.389 . S
C140 C141 1.387 . S
C141 H126 0.930 . S
C141 C136 1.390 . S
C141 C140 1.387 . S
H142 C154 0.930 . S
H143 C156 0.930 . S
H144 C157 0.930 . S
H145 C161 0.959 . S
H146 C161 0.959 . S
H147 C161 0.961 . S
H148 C162 0.960 . S
H149 C162 0.961 . S
H150 C162 0.959 . S
H151 C165 0.929 . S
H152 C166 0.931 . S
H153 C168 0.930 . S
C154 H142 0.930 . S
C154 C155 1.399 . S
C154 C159 1.399 . S
C155 C154 1.399 . S
C155 C156 1.376 . S
C156 H143 0.930 . S
C156 C155 1.376 . S
C156 C157 1.388 . S
C157 H144 0.930 . S
C157 C156 1.388 . S
C157 C158 1.390 . S
C158 C157 1.390 . S
C158 C159 1.394 . S
C158 C164 1.465 . S
C159 C154 1.399 . S
C159 C158 1.394 . S
C159 C160 1.516 . S
C160 C159 1.516 . S
C160 C161 1.502 . S
C160 C162 1.561 . S
C160 C163 1.526 . S
C161 H145 0.959 . S
C161 H146 0.959 . S
C161 H147 0.961 . S
C161 C160 1.502 . S
C162 H148 0.960 . S
C162 H149 0.961 . S
C162 H150 0.959 . S
C162 C160 1.561 . S
C163 C160 1.526 . S
C163 C164 1.396 . S
C163 C168 1.390 . S
C164 C158 1.465 . S
C164 C163 1.396 . S
C164 C165 1.399 . S
C165 H151 0.929 . S
C165 C164 1.399 . S
C165 C166 1.385 . S
C166 H152 0.931 . S
C166 C165 1.385 . S
C166 C167 1.389 . S
C167 C166 1.389 . S
C167 C168 1.387 . S
C168 H153 0.930 . S
C168 C163 1.390 . S
C168 C167 1.387 . S
H169 C181 0.930 . S
H170 C183 0.930 . S
H171 C184 0.930 . S
H172 C188 0.959 . S
H173 C188 0.959 . S
H174 C188 0.961 . S
H175 C189 0.960 . S
H176 C189 0.961 . S
H177 C189 0.959 . S
H178 C192 0.929 . S
H179 C193 0.931 . S
H180 C195 0.930 . S
C181 H169 0.930 . S
C181 C182 1.399 . S
C181 C186 1.399 . S
C182 C181 1.399 . S
C182 C183 1.376 . S
C183 H170 0.930 . S
C183 C182 1.376 . S
C183 C184 1.388 . S
C184 H171 0.930 . S
C184 C183 1.388 . S
C184 C185 1.390 . S
C185 C184 1.390 . S
C185 C186 1.394 . S
C185 C191 1.465 . S
C186 C181 1.399 . S
C186 C185 1.394 . S
C186 C187 1.516 . S
C187 C186 1.516 . S
C187 C188 1.502 . S
C187 C189 1.561 . S
C187 C190 1.526 . S
C188 H172 0.959 . S
C188 H173 0.959 . S
C188 H174 0.961 . S
C188 C187 1.502 . S
C189 H175 0.960 . S
C189 H176 0.961 . S
C189 H177 0.959 . S
C189 C187 1.561 . S
C190 C187 1.526 . S
C190 C191 1.396 . S
C190 C195 1.390 . S
C191 C185 1.465 . S
C191 C190 1.396 . S
C191 C192 1.399 . S
C192 H178 0.929 . S
C192 C191 1.399 . S
C192 C193 1.385 . S
C193 H179 0.931 . S
C193 C192 1.385 . S
C193 C194 1.389 . S
C194 C193 1.389 . S
C194 C195 1.387 . S
C195 H180 0.930 . S
C195 C190 1.390 . S
C195 C194 1.387 . S
H196 C208 0.930 . S
H197 C210 0.930 . S
H198 C211 0.930 . S
H199 C215 0.959 . S
H200 C215 0.959 . S
H201 C215 0.961 . S
H202 C216 0.960 1_545 S
H203 C216 0.961 . S
H204 C216 0.959 . S
H205 C219 0.929 . S
H206 C220 0.931 . S
H207 C222 0.930 . S
C208 H196 0.930 . S
C208 C209 1.399 . S
C208 C213 1.399 . S
C209 C208 1.399 . S
C209 C210 1.376 . S
C210 H197 0.930 . S
C210 C209 1.376 . S
C210 C211 1.388 . S
C211 H198 0.930 . S
C211 C210 1.388 . S
C211 C212 1.390 . S
C212 C211 1.390 . S
C212 C213 1.394 . S
C212 C218 1.465 . S
C213 C208 1.399 . S
C213 C212 1.394 . S
C213 C214 1.516 . S
C214 C213 1.516 . S
C214 C215 1.502 . S
C214 C216 1.561 . S
C214 C217 1.526 . S
C215 H199 0.959 . S
C215 H200 0.959 . S
C215 H201 0.961 . S
C215 C214 1.502 . S
C216 H202 0.960 1_565 S
C216 H203 0.961 . S
C216 H204 0.959 . S
C216 C214 1.561 . S
C217 C214 1.526 . S
C217 C218 1.396 . S
C217 C222 1.390 . S
C218 C212 1.465 . S
C218 C217 1.396 . S
C218 C219 1.399 . S
C219 H205 0.929 . S
C219 C218 1.399 . S
C219 C220 1.385 . S
C220 H206 0.931 . S
C220 C219 1.385 . S
C220 C221 1.389 . S
C221 C220 1.389 . S
C221 C222 1.387 . S
C222 H207 0.930 . S
C222 C217 1.390 . S
C222 C221 1.387 . S
H223 C235 0.930 . S
H224 C237 0.930 . S
H225 C238 0.930 . S
H226 C242 0.959 . S
H227 C242 0.959 . S
H228 C242 0.961 . S
H229 C243 0.960 . S
H230 C243 0.961 . S
H231 C243 0.959 . S
H232 C246 0.929 . S
H233 C247 0.931 . S
H234 C249 0.930 . S
C235 H223 0.930 . S
C235 C236 1.399 . S
C235 C240 1.399 . S
C236 C235 1.399 . S
C236 C237 1.376 . S
C237 H224 0.930 . S
C237 C236 1.376 . S
C237 C238 1.388 . S
C238 H225 0.930 . S
C238 C237 1.388 . S
C238 C239 1.390 . S
C239 C238 1.390 . S
C239 C240 1.394 . S
C239 C245 1.465 . S
C240 C235 1.399 . S
C240 C239 1.394 . S
C240 C241 1.516 . S
C241 C240 1.516 . S
C241 C242 1.502 . S
C241 C243 1.561 . S
C241 C244 1.526 . S
C242 H226 0.959 . S
C242 H227 0.959 . S
C242 H228 0.961 . S
C242 C241 1.502 . S
C243 H229 0.960 . S
C243 H230 0.961 . S
C243 H231 0.959 . S
C243 C241 1.561 . S
C244 C241 1.526 . S
C244 C245 1.396 . S
C244 C249 1.390 . S
C245 C239 1.465 . S
C245 C244 1.396 . S
C245 C246 1.399 . S
C246 H232 0.929 . S
C246 C245 1.399 . S
C246 C247 1.385 . S
C247 H233 0.931 . S
C247 C246 1.385 . S
C247 C248 1.389 . S
C248 C247 1.389 . S
C248 C249 1.387 . S
C249 H234 0.930 . S
C249 C244 1.390 . S
C249 C248 1.387 . S
H250 C262 0.930 . S
H251 C264 0.930 . S
H252 C265 0.930 . S
H253 C269 0.959 . S
H254 C269 0.959 . S
H255 C269 0.961 . S
H256 C270 0.960 . S
H257 C270 0.961 . S
H258 C270 0.959 . S
H259 C273 0.929 . S
H260 C274 0.931 . S
H261 C276 0.930 . S
C262 H250 0.930 . S
C262 C263 1.399 . S
C262 C267 1.399 . S
C263 C262 1.399 . S
C263 C264 1.376 . S
C264 H251 0.930 . S
C264 C263 1.376 . S
C264 C265 1.388 . S
C265 H252 0.930 . S
C265 C264 1.388 . S
C265 C266 1.390 . S
C266 C265 1.390 . S
C266 C267 1.394 . S
C266 C272 1.465 . S
C267 C262 1.399 . S
C267 C266 1.394 . S
C267 C268 1.516 . S
C268 C267 1.516 . S
C268 C269 1.502 . S
C268 C270 1.561 . S
C268 C271 1.526 . S
C269 H253 0.959 . S
C269 H254 0.959 . S
C269 H255 0.961 . S
C269 C268 1.502 . S
C270 H256 0.960 . S
C270 H257 0.961 . S
C270 H258 0.959 . S
C270 C268 1.561 . S
C271 C268 1.526 . S
C271 C272 1.396 . S
C271 C276 1.390 . S
C272 C266 1.465 . S
C272 C271 1.396 . S
C272 C273 1.399 . S
C273 H259 0.929 . S
C273 C272 1.399 . S
C273 C274 1.385 . S
C274 H260 0.931 . S
C274 C273 1.385 . S
C274 C275 1.389 . S
C275 C274 1.389 . S
C275 C276 1.387 . S
C276 H261 0.930 . S
C276 C271 1.390 . S
C276 C275 1.387 . S
H277 C289 0.930 . S
H278 C291 0.930 . S
H279 C292 0.930 . S
H280 C296 0.959 . S
H281 C296 0.959 . S
H282 C296 0.961 . S
H283 C297 0.960 . S
H284 C297 0.961 . S
H285 C297 0.959 . S
H286 C300 0.929 . S
H287 C301 0.931 . S
H288 C303 0.930 . S
C289 H277 0.930 . S
C289 C290 1.399 . S
C289 C294 1.399 . S
C290 C289 1.399 . S
C290 C291 1.376 . S
C291 H278 0.930 . S
C291 C290 1.376 . S
C291 C292 1.388 . S
C292 H279 0.930 . S
C292 C291 1.388 . S
C292 C293 1.390 . S
C293 C292 1.390 . S
C293 C294 1.394 . S
C293 C299 1.465 . S
C294 C289 1.399 . S
C294 C293 1.394 . S
C294 C295 1.516 . S
C295 C294 1.516 . S
C295 C296 1.502 . S
C295 C297 1.561 . S
C295 C298 1.526 . S
C296 H280 0.959 . S
C296 H281 0.959 . S
C296 H282 0.961 . S
C296 C295 1.502 . S
C297 H283 0.960 . S
C297 H284 0.961 . S
C297 H285 0.959 . S
C297 C295 1.561 . S
C298 C295 1.526 . S
C298 C299 1.396 . S
C298 C303 1.390 . S
C299 C293 1.465 . S
C299 C298 1.396 . S
C299 C300 1.399 . S
C300 H286 0.929 . S
C300 C299 1.399 . S
C300 C301 1.385 . S
C301 H287 0.931 . S
C301 C300 1.385 . S
C301 C302 1.389 . S
C302 C301 1.389 . S
C302 C303 1.387 . S
C303 H288 0.930 . S
C303 C298 1.390 . S
C303 C302 1.387 . S
H304 C316 0.930 . S
H305 C318 0.930 . S
H306 C319 0.930 . S
H307 C323 0.959 . S
H308 C323 0.959 . S
H309 C323 0.961 . S
H310 C324 0.960 . S
H311 C324 0.961 . S
H312 C324 0.959 . S
H313 C327 0.929 . S
H314 C328 0.931 . S
H315 C330 0.930 . S
C316 H304 0.930 . S
C316 C317 1.399 . S
C316 C321 1.399 . S
C317 C316 1.399 . S
C317 C318 1.376 . S
C318 H305 0.930 . S
C318 C317 1.376 . S
C318 C319 1.388 . S
C319 H306 0.930 . S
C319 C318 1.388 . S
C319 C320 1.390 . S
C320 C319 1.390 . S
C320 C321 1.394 . S
C320 C326 1.465 . S
C321 C316 1.399 . S
C321 C320 1.394 . S
C321 C322 1.516 . S
C322 C321 1.516 . S
C322 C323 1.502 . S
C322 C324 1.561 . S
C322 C325 1.526 . S
C323 H307 0.959 . S
C323 H308 0.959 . S
C323 H309 0.961 . S
C323 C322 1.502 . S
C324 H310 0.960 . S
C324 H311 0.961 . S
C324 H312 0.959 . S
C324 C322 1.561 . S
C325 C322 1.526 . S
C325 C326 1.396 . S
C325 C330 1.390 . S
C326 C320 1.465 . S
C326 C325 1.396 . S
C326 C327 1.399 . S
C327 H313 0.929 . S
C327 C326 1.399 . S
C327 C328 1.385 . S
C328 H314 0.931 . S
C328 C327 1.385 . S
C328 C329 1.389 . S
C329 C328 1.389 . S
C329 C330 1.387 . S
C330 H315 0.930 . S
C330 C325 1.390 . S
C330 C329 1.387 . S
H331 C343 0.930 . S
H332 C345 0.930 . S
H333 C346 0.930 . S
H334 C350 0.959 . S
H335 C350 0.959 . S
H336 C350 0.961 . S
H337 C351 0.960 . S
H338 C351 0.961 . S
H339 C351 0.959 . S
H340 C354 0.929 . S
H341 C355 0.931 . S
H342 C357 0.930 . S
C343 H331 0.930 . S
C343 C344 1.399 . S
C343 C348 1.399 . S
C344 C343 1.399 . S
C344 C345 1.376 . S
C345 H332 0.930 . S
C345 C344 1.376 . S
C345 C346 1.388 . S
C346 H333 0.930 . S
C346 C345 1.388 . S
C346 C347 1.390 . S
C347 C346 1.390 . S
C347 C348 1.394 . S
C347 C353 1.465 . S
C348 C343 1.399 . S
C348 C347 1.394 . S
C348 C349 1.516 . S
C349 C348 1.516 . S
C349 C350 1.502 . S
C349 C351 1.561 . S
C349 C352 1.526 . S
C350 H334 0.959 . S
C350 H335 0.959 . S
C350 H336 0.961 . S
C350 C349 1.502 . S
C351 H337 0.960 . S
C351 H338 0.961 . S
C351 H339 0.959 . S
C351 C349 1.561 . S
C352 C349 1.526 . S
C352 C353 1.396 . S
C352 C357 1.390 . S
C353 C347 1.465 . S
C353 C352 1.396 . S
C353 C354 1.399 . S
C354 H340 0.929 . S
C354 C353 1.399 . S
C354 C355 1.385 . S
C355 H341 0.931 . S
C355 C354 1.385 . S
C355 C356 1.389 . S
C356 C355 1.389 . S
C356 C357 1.387 . S
C357 H342 0.930 . S
C357 C352 1.390 . S
C357 C356 1.387 . S
H358 C370 0.930 . S
H359 C372 0.930 . S
H360 C373 0.930 . S
H361 C377 0.959 . S
H362 C377 0.959 . S
H363 C377 0.961 . S
H364 C378 0.960 . S
H365 C378 0.961 . S
H366 C378 0.959 . S
H367 C381 0.929 . S
H368 C382 0.931 . S
H369 C384 0.930 . S
C370 H358 0.930 . S
C370 C371 1.399 . S
C370 C375 1.399 . S
C371 C370 1.399 . S
C371 C372 1.376 . S
C372 H359 0.930 . S
C372 C371 1.376 . S
C372 C373 1.388 . S
C373 H360 0.930 . S
C373 C372 1.388 . S
C373 C374 1.390 . S
C374 C373 1.390 . S
C374 C375 1.394 . S
C374 C380 1.465 . S
C375 C370 1.399 . S
C375 C374 1.394 . S
C375 C376 1.516 . S
C376 C375 1.516 . S
C376 C377 1.502 . S
C376 C378 1.561 . S
C376 C379 1.526 . S
C377 H361 0.959 . S
C377 H362 0.959 . S
C377 H363 0.961 . S
C377 C376 1.502 . S
C378 H364 0.960 . S
C378 H365 0.961 . S
C378 H366 0.959 . S
C378 C376 1.561 . S
C379 C376 1.526 . S
C379 C380 1.396 . S
C379 C384 1.390 . S
C380 C374 1.465 . S
C380 C379 1.396 . S
C380 C381 1.399 . S
C381 H367 0.929 . S
C381 C380 1.399 . S
C381 C382 1.385 . S
C382 H368 0.931 . S
C382 C381 1.385 . S
C382 C383 1.389 . S
C383 C382 1.389 . S
C383 C384 1.387 . S
C384 H369 0.930 . S
C384 C379 1.390 . S
C384 C383 1.387 . S
H385 C397 0.930 . S
H386 C399 0.930 . S
H387 C400 0.930 . S
H388 C404 0.959 . S
H389 C404 0.959 . S
H390 C404 0.961 . S
H391 C405 0.960 . S
H392 C405 0.961 . S
H393 C405 0.959 . S
H394 C408 0.929 . S
H395 C409 0.931 . S
H396 C411 0.930 . S
C397 H385 0.930 . S
C397 C398 1.399 . S
C397 C402 1.399 . S
C398 C397 1.399 . S
C398 C399 1.376 . S
C399 H386 0.930 . S
C399 C398 1.376 . S
C399 C400 1.388 . S
C400 H387 0.930 . S
C400 C399 1.388 . S
C400 C401 1.390 . S
C401 C400 1.390 . S
C401 C402 1.394 . S
C401 C407 1.465 . S
C402 C397 1.399 . S
C402 C401 1.394 . S
C402 C403 1.516 . S
C403 C402 1.516 . S
C403 C404 1.502 . S
C403 C405 1.561 . S
C403 C406 1.526 . S
C404 H388 0.959 . S
C404 H389 0.959 . S
C404 H390 0.961 . S
C404 C403 1.502 . S
C405 H391 0.960 . S
C405 H392 0.961 . S
C405 H393 0.959 . S
C405 C403 1.561 . S
C406 C403 1.526 . S
C406 C407 1.396 . S
C406 C411 1.390 . S
C407 C401 1.465 . S
C407 C406 1.396 . S
C407 C408 1.399 . S
C408 H394 0.929 . S
C408 C407 1.399 . S
C408 C409 1.385 . S
C409 H395 0.931 . S
C409 C408 1.385 . S
C409 C410 1.389 . S
C410 C409 1.389 . S
C410 C411 1.387 . S
C411 H396 0.930 . S
C411 C406 1.390 . S
C411 C410 1.387 . S
C101 C18 1.432 . S
C113 C65 1.415 . S
C128 C44 1.476 . S
C140 C71 1.250 . S
C155 C20 1.398 . S
C167 C62 1.331 . S
C182 C42 1.446 . S
C194 C87 1.387 . S
C209 C17 1.459 . S
C221 C53 1.234 . S
C248 C70 1.348 . S
C236 C40 1.498 . S
C263 C43 1.416 . S
C275 C66 1.388 . S
C302 C83 1.409 . S
C290 C16 1.500 . S
C329 C50 1.300 . S
C317 C39 1.485 . S
C356 C86 1.406 . S
C344 C21 1.483 . S
C383 C49 1.445 . S
C371 C41 1.506 . S
C410 C74 1.371 . S
C398 C19 1.472 . S
