# Generated by pormake.
# Topology pts, (4,4)-cn, num edge types: 1
# Building blocks:
#     Node 0, Type 0, BuildingBlock: ESEHIV_clean_sbu_0, # of connection points: 4
#     Node 1, Type 0, BuildingBlock: ESEHIV_clean_sbu_0, # of connection points: 4
#     Node 2, Type 1, BuildingBlock: UXUYUI_clean_sbu_0, # of connection points: 4
#     Node 3, Type 1, BuildingBlock: UXUYUI_clean_sbu_0, # of connection points: 4
#     Edge 4, Type (0, 1), BuildingBlock: TEMPAE_clean_linker_10, # of connection points: 2
#     Edge 5, Type (0, 1), BuildingBlock: TEMPAE_clean_linker_10, # of connection points: 2
#     Edge 6, Type (0, 1), BuildingBlock: TEMPAE_clean_linker_10, # of connection points: 2
#     Edge 7, Type (0, 1), BuildingBlock: TEMPAE_clean_linker_10, # of connection points: 2
#     Edge 8, Type (0, 1), BuildingBlock: TEMPAE_clean_linker_10, # of connection points: 2
#     Edge 9, Type (0, 1), BuildingBlock: TEMPAE_clean_linker_10, # of connection points: 2
#     Edge 10, Type (0, 1), BuildingBlock: TEMPAE_clean_linker_10, # of connection points: 2
#     Edge 11, Type (0, 1), BuildingBlock: TEMPAE_clean_linker_10, # of connection points: 2
# Relax obj value: 0.002
# Max RMSD: 0.096
# Mean RMSD: 0.062
data_MOF--net-pts--node1-ESEHIV_clean_sbu_0--node2-UXUYUI_clean_sbu_0--edge1-TEMPAE_clean_linker_10
_symmetry_space_group_name_H-M    P1
_symmetry_Int_Tables_number       1
_symmetry_cell_setting            triclinic
loop_
_symmetry_equiv_pos_as_xyz
'x, y, z'
_cell_length_a     30.911283
_cell_length_b     30.846553
_cell_length_c     46.002433
_cell_angle_alpha  92.936214
_cell_angle_beta   92.914475
_cell_angle_gamma 90.017114
loop_
_atom_site_label
_atom_site_type_symbol
_atom_site_fract_x
_atom_site_fract_y
_atom_site_fract_z
_atom_type_partial_charge
Cu0 Cu 0.54192 0.02816 1.01234 0.0
N1 N 0.57748 0.99482 0.98825 0.0
N2 N 0.63134 0.98203 0.95836 0.0
C3 C 0.61219 1.01138 0.97621 0.0
C4 C 0.6077 0.94534 0.95923 0.0
C5 C 0.57453 0.95327 0.97781 0.0
O6 O 0.58161 0.05791 0.04096 0.0
C7 C 0.48725 0.04486 0.96577 0.0
O8 O 0.49572 1.00352 0.96087 0.0
H9 H 0.62228 0.04492 0.9798 0.0
H10 H 0.5494 0.93074 0.98259 0.0
N11 N 0.50314 0.99609 0.03258 0.0
N12 N 0.44752 0.9855 0.0607 0.0
C13 C 0.46993 0.0145 0.04637 0.0
C14 C 0.50183 0.95374 0.03822 0.0
C15 C 0.4674 0.94708 0.05551 0.0
C16 C 0.60304 0.03158 0.05657 0.0
O17 O 0.59464 0.98989 0.05246 0.0
H18 H 0.46257 0.04875 0.04586 0.0
H19 H 0.52485 0.92964 0.03103 0.0
O20 O 0.50568 0.06494 0.98796 0.0
H21 H 0.61377 0.91506 0.9472 0.0
H22 H 0.4586 0.91661 0.0643 0.0
Cu23 Cu 0.08571 0.56692 0.51539 0.0
N24 N 0.11736 0.53596 0.54313 0.0
N25 N 0.12896 0.48502 0.57551 0.0
C26 C 0.10036 0.50248 0.55635 0.0
C27 C 0.16562 0.50856 0.5743 0.0
C28 C 0.15828 0.5402 0.55438 0.0
O29 O 0.05324 0.52351 0.49095 0.0
C30 C 0.07737 0.64141 0.54818 0.0
O31 O 0.11932 0.63877 0.54512 0.0
H32 H 0.06762 0.49079 0.55156 0.0
H33 H 0.18103 0.56464 0.54877 0.0
N34 N 0.11913 0.59705 0.49025 0.0
N35 N 0.13222 0.64649 0.45793 0.0
C36 C 0.10189 0.6266 0.47258 0.0
C37 C 0.16205 0.59785 0.48656 0.0
C38 C 0.17026 0.62862 0.46668 0.0
C39 C 0.0785 0.49545 0.47957 0.0
O40 O 0.12043 0.50017 0.48504 0.0
H41 H 0.06775 0.6345 0.47141 0.0
H42 H 0.18572 0.57808 0.49777 0.0
O43 O 0.05304 0.61102 0.5368 0.0
H44 H 0.19532 0.50376 0.58721 0.0
H45 H 0.2017 0.63725 0.45933 0.0
Li46 Li 0.04191 0.10653 0.2846 0.0
Li47 Li 0.04392 0.02817 0.28427 0.0
Li48 Li 0.07805 0.06911 0.24644 0.0
Li49 Li 0.99889 0.06678 0.2459 0.0
C50 C 0.11822 0.08725 0.31128 0.0
N51 N 0.16739 0.12557 0.35746 0.0
C52 C 0.12217 0.06724 0.33787 0.0
C53 C 0.13952 0.12658 0.30811 0.0
C54 C 0.14715 0.08716 0.36097 0.0
C55 C 0.16412 0.1455 0.33174 0.0
C56 C 0.97531 0.08057 0.31443 0.0
C57 C 0.9248 0.12606 0.34012 0.0
N58 N 0.94234 0.1129 0.3659 0.0
C59 C 0.99282 0.06752 0.3412 0.0
C60 C 0.94096 0.11002 0.31387 0.0
C61 C 0.97567 0.08418 0.36697 0.0
C62 C 0.02476 0.1954 0.29676 0.0
N63 N 0.03907 0.15877 0.30938 0.0
C64 C 0.04351 0.19628 0.35628 0.0
C65 C 0.04825 0.15862 0.33861 0.0
C66 C 0.02884 0.23464 0.34388 0.0
C67 C 0.0195 0.23387 0.31364 0.0
H68 H 0.01689 0.19461 0.27356 0.0
H69 H 0.05891 0.1292 0.34841 0.0
C70 C 0.09058 0.95781 0.30451 0.0
N71 N 0.05083 0.97654 0.30516 0.0
C72 C 0.09954 0.92052 0.31966 0.0
C73 C 0.0262 0.92197 0.33558 0.0
C74 C 0.01852 0.9591 0.31986 0.0
C75 C 0.06727 0.90235 0.33571 0.0
H76 H 0.11552 0.97228 0.29244 0.0
H77 H 0.98694 0.97419 0.31958 0.0
C78 C 0.05371 0.13725 0.2202 0.0
N79 N 0.09132 0.17405 0.17414 0.0
C80 C 0.03948 0.12549 0.19157 0.0
C81 C 0.08681 0.16794 0.22546 0.0
C82 C 0.05897 0.14442 0.16856 0.0
C83 C 0.10548 0.18611 0.20186 0.0
C84 C 0.02062 0.97797 0.2341 0.0
C85 C 0.04019 0.94737 0.21561 0.0
C86 C 0.98165 0.96777 0.24637 0.0
C87 C 0.02024 0.90705 0.20949 0.0
C88 C 0.96275 0.9271 0.23973 0.0
N89 N 0.98226 0.89784 0.22158 0.0
C90 C 0.16577 0.07868 0.2311 0.0
C91 C 0.11794 0.04691 0.19412 0.0
C92 C 0.20091 0.07223 0.21344 0.0
N93 N 0.12536 0.06576 0.22128 0.0
C94 C 0.15211 0.03988 0.17571 0.0
C95 C 0.19443 0.05206 0.18544 0.0
H96 H 0.17093 0.09311 0.25288 0.0
H97 H 0.08554 0.03641 0.18702 0.0
C98 C 0.91986 0.10212 0.2259 0.0
N99 N 0.94726 0.06831 0.22113 0.0
C100 C 0.88225 0.10646 0.20811 0.0
C101 C 0.90231 0.04179 0.18019 0.0
C102 C 0.93956 0.03876 0.19849 0.0
C103 C 0.87294 0.07595 0.1849 0.0
H104 H 0.92765 0.12621 0.24324 0.0
H105 H 0.96246 1.01305 0.19433 0.0
O106 O 0.09406 0.06813 0.2884 0.0
O107 O 0.99203 0.06496 0.28898 0.0
O108 O 0.03597 0.11815 0.24297 0.0
O109 O 0.04013 0.01729 0.24064 0.0
H110 H 0.1059 0.03683 0.34074 0.0
H111 H 0.13666 0.14259 0.28774 0.0
H112 H 0.15035 0.07214 0.3817 0.0
H113 H 0.18054 0.17607 0.32966 0.0
H114 H 0.89833 0.14899 0.33999 0.0
H115 H 0.02003 0.04558 0.34216 0.0
H116 H 0.92702 0.12059 0.29344 0.0
H117 H 0.98913 0.07456 0.38783 0.0
H118 H 0.05177 0.1954 0.3794 0.0
H119 H 1.00769 0.26253 0.30317 0.0
H120 H 0.1317 0.90662 0.31934 0.0
H121 H 1.00027 0.9086 0.34735 0.0
H122 H 0.01404 0.1016 0.18715 0.0
H123 H 0.09807 0.17744 0.24751 0.0
H124 H 0.04849 0.13544 0.14627 0.0
H125 H 0.13128 0.20977 0.20558 0.0
H126 H 0.07051 0.9547 0.20611 0.0
H127 H 0.96612 0.991 0.26082 0.0
H128 H 0.03498 0.88306 0.19517 0.0
H129 H 0.93257 0.91879 0.24903 0.0
H130 H 0.23288 0.08259 0.22171 0.0
H131 H 0.14564 0.02375 0.15446 0.0
H132 H 0.86107 0.13382 0.2122 0.0
H133 H 0.89643 0.01734 0.16269 0.0
Li134 Li 1.00739 0.06411 0.78429 0.0
Li135 Li 0.08571 0.06587 0.78702 0.0
Li136 Li 0.04875 0.10494 0.74821 0.0
Li137 Li 0.05024 0.02521 0.74711 0.0
C138 C 0.05773 0.13581 0.81767 0.0
N139 N 0.08542 0.17437 0.87096 0.0
C140 C 0.04082 0.12231 0.84335 0.0
C141 C 0.08864 0.16903 0.81913 0.0
C142 C 0.05519 0.14222 0.87006 0.0
C143 C 0.10229 0.18805 0.84627 0.0
C144 C 0.06608 0.9923 0.81103 0.0
C145 C 0.12358 0.9471 0.82982 0.0
N146 N 0.10495 0.94791 0.856 0.0
C147 C 0.04738 0.99251 0.83808 0.0
C148 C 0.10434 0.96922 0.80679 0.0
C149 C 0.06756 0.9699 0.86055 0.0
C150 C 0.94085 0.01741 0.80601 0.0
N151 N 0.9552 0.05877 0.8042 0.0
C152 C 0.89728 0.08604 0.83241 0.0
C153 C 0.93391 0.09304 0.81655 0.0
C154 C 0.88272 0.0434 0.83554 0.0
C155 C 0.90469 1.00892 0.82174 0.0
H156 H 0.95819 0.99085 0.79568 0.0
H157 H 0.94592 0.12566 0.81466 0.0
C158 C 0.17463 0.08016 0.80118 0.0
N159 N 0.13661 0.0706 0.81307 0.0
C160 C 0.21262 0.08571 0.8188 0.0
C161 C 0.17169 0.07204 0.86072 0.0
C162 C 0.13455 0.06674 0.8423 0.0
C163 C 0.2115 0.08155 0.84903 0.0
H164 H 0.17548 0.08364 0.77796 0.0
H165 H 0.10404 0.05994 0.8515 0.0
C166 C 0.96117 0.08335 0.73273 0.0
N167 N 0.88379 0.12318 0.71771 0.0
C168 C 0.9322 0.06336 0.71191 0.0
C169 C 0.95078 0.12353 0.74599 0.0
C170 C 0.89325 0.08406 0.70458 0.0
C171 C 0.9115 0.14316 0.73808 0.0
C172 C 0.12111 0.04871 0.723 0.0
C173 C 0.11393 0.06399 0.69509 0.0
C174 C 0.15012 0.01466 0.72741 0.0
C175 C 0.13558 0.04452 0.67192 0.0
C176 C 0.1711 0.99602 0.70368 0.0
N177 N 0.16344 1.01119 0.67665 0.0
C178 C 0.08878 0.18018 0.73253 0.0
C179 C 0.02601 0.16345 0.70236 0.0
C180 C 0.09701 0.21659 0.71685 0.0
N181 N 0.05349 0.15482 0.7254 0.0
C182 C 0.03313 0.19953 0.68594 0.0
C183 C 0.06899 0.22675 0.6932 0.0
H184 H 0.11115 0.1715 0.75007 0.0
H185 H 0.99897 0.14208 0.69637 0.0
C186 C 0.05111 0.93456 0.73313 0.0
N187 N 0.04843 0.97422 0.7216 0.0
C188 C 0.04736 0.89679 0.71506 0.0
C189 C 0.03788 0.94131 0.67352 0.0
C190 C 0.04145 0.97822 0.69244 0.0
C191 C 0.04074 0.89977 0.68475 0.0
H192 H 0.05538 0.93217 0.75644 0.0
H193 H 0.03832 1.01014 0.68389 0.0
O194 O 0.0443 0.1164 0.79131 0.0
O195 O 0.04686 0.01429 0.78877 0.0
O196 O 0.99915 0.06317 0.74033 0.0
O197 O 0.0997 0.06683 0.74589 0.0
H198 H 0.01759 0.09609 0.84279 0.0
H199 H 0.10217 0.17994 0.79959 0.0
H200 H 0.04257 0.13187 0.89009 0.0
H201 H 0.12633 0.21366 0.8477 0.0
H202 H 0.15332 0.92931 0.82688 0.0
H203 H 0.01791 1.01034 0.84185 0.0
H204 H 0.11913 0.96858 0.78598 0.0
H205 H 0.05359 0.96998 0.88164 0.0
H206 H 0.88133 0.11352 0.84279 0.0
H207 H 0.89411 0.97565 0.82318 0.0
H208 H 0.24266 0.0925 0.80876 0.0
H209 H 0.16913 0.06912 0.88393 0.0
H210 H 0.93977 0.03217 0.70153 0.0
H211 H 0.97282 0.13951 0.76213 0.0
H212 H 0.87051 0.06899 0.68848 0.0
H213 H 0.90305 0.17427 0.74814 0.0
H214 H 0.09152 0.09025 0.69127 0.0
H215 H 0.15632 1.00274 0.74892 0.0
H216 H 0.13014 0.05583 0.65017 0.0
H217 H 0.19349 0.96951 0.70674 0.0
H218 H 0.12561 0.236 0.72277 0.0
H219 H 1.01075 0.20612 0.66783 0.0
H220 H 0.04893 0.8656 0.72484 0.0
H221 H 0.0333 0.94537 0.65033 0.0
C222 C 0.406 0.03583 0.09217 0.0
C223 C 0.41118 0.99445 0.07862 0.0
C224 C 0.37071 0.04533 0.10941 0.0
C225 C 0.33973 1.01265 0.11335 0.0
C226 C 0.34476 0.97074 0.09988 0.0
C227 C 0.38043 0.96214 0.0827 0.0
C228 C 0.36668 0.09036 0.12351 0.0
C229 C 0.31237 0.93504 0.10353 0.0
C230 C 0.27057 0.02622 0.17925 0.0
C231 C 0.23174 0.04235 0.16692 0.0
C232 C 0.30583 0.01617 0.16205 0.0
C233 C 0.30225 0.02236 0.13175 0.0
C234 C 0.26316 0.03859 0.11913 0.0
C235 C 0.22839 0.04837 0.13686 0.0
C236 C 0.34691 0.99886 0.17633 0.0
C237 C 0.25817 0.0459 0.08693 0.0
H238 H 0.42993 0.06081 0.08965 0.0
H239 H 0.38389 0.93026 0.0721 0.0
H240 H 0.33532 0.10494 0.11643 0.0
H241 H 0.36697 0.0886 0.14754 0.0
H242 H 0.39328 0.11226 0.11803 0.0
H243 H 0.32099 0.90419 0.09172 0.0
H244 H 0.31025 0.92897 0.12698 0.0
H245 H 0.27971 0.94515 0.09536 0.0
H246 H 0.27321 0.02078 0.20236 0.0
H247 H 0.19868 0.06124 0.12721 0.0
H248 H 0.37446 0.02077 0.17288 0.0
H249 H 0.35464 0.96658 0.16617 0.0
H250 H 0.3444 0.99568 0.20013 0.0
H251 H 0.2826 0.06981 0.08099 0.0
H252 H 0.22542 0.05798 0.08041 0.0
H253 H 0.26412 0.01518 0.07416 0.0
C254 C 0.15504 0.42065 0.60112 0.0
C255 C 0.12129 0.44879 0.59326 0.0
C256 C 0.1474 0.38434 0.61745 0.0
C257 C 0.10505 0.37617 0.62632 0.0
C258 C 0.071 0.40481 0.61879 0.0
C259 C 0.07952 0.44065 0.60235 0.0
C260 C 0.18451 0.35442 0.62492 0.0
C261 C 0.02549 0.39754 0.62805 0.0
C262 C 0.07394 0.26204 0.64545 0.0
C263 C 0.07778 0.2651 0.67601 0.0
C264 C 0.08311 0.29779 0.629 0.0
C265 C 0.09619 0.33767 0.64345 0.0
C266 C 0.09996 0.341 0.67429 0.0
C267 C 0.09081 0.30469 0.69017 0.0
C268 C 0.07888 0.29286 0.59616 0.0
C269 C 0.11339 0.38304 0.69052 0.0
H270 H 0.18726 0.42648 0.59393 0.0
H271 H 0.05342 0.46262 0.5968 0.0
H272 H 0.18864 0.35231 0.64891 0.0
H273 H 0.17726 0.32119 0.61557 0.0
H274 H 0.21556 0.36545 0.61659 0.0
H275 H 1.00274 0.42309 0.62068 0.0
H276 H 0.01326 0.36556 0.61901 0.0
H277 H 0.0254 0.39694 0.65214 0.0
H278 H 0.06445 0.23141 0.63435 0.0
H279 H 0.09337 0.30744 0.71378 0.0
H280 H 0.1102 0.30066 0.58685 0.0
H281 H 0.05457 0.31611 0.58768 0.0
H282 H 0.06898 0.25951 0.58825 0.0
H283 H 0.14552 0.39349 0.6837 0.0
H284 H 0.1152 0.38016 0.71453 0.0
H285 H 0.08995 0.40899 0.68508 0.0
C286 C 0.65925 0.01489 0.09494 0.0
C287 C 0.63924 0.04569 0.07732 0.0
C288 C 0.69617 0.02524 0.11281 0.0
C289 C 0.71366 0.06766 0.11337 0.0
C290 C 0.69281 0.09953 0.09651 0.0
C291 C 0.65577 0.08814 0.07858 0.0
C292 C 0.71728 0.99019 0.13041 0.0
C293 C 0.71032 0.14521 0.09679 0.0
C294 C 0.7931 0.09028 0.178 0.0
C295 C 0.83267 0.07922 0.16592 0.0
C296 C 0.75426 0.08958 0.16072 0.0
C297 C 0.75493 0.07727 0.13067 0.0
C298 C 0.79502 0.06831 0.11807 0.0
C299 C 0.83336 0.06948 0.13581 0.0
C300 C 0.71224 0.09957 0.17499 0.0
C301 C 0.79722 0.05508 0.08611 0.0
H302 H 0.64661 0.98207 0.09436 0.0
H303 H 0.6405 0.11211 0.06504 0.0
H304 H 0.75046 0.98387 0.12311 0.0
H305 H 0.72032 1.00097 0.1538 0.0
H306 H 0.69876 0.95922 0.12827 0.0
H307 H 0.68834 0.1671 0.08457 0.0
H308 H 0.71542 0.15869 0.11953 0.0
H309 H 0.74229 0.14494 0.08685 0.0
H310 H 0.79214 0.09767 0.20125 0.0
H311 H 0.86389 0.06191 0.12615 0.0
H312 H 0.69353 0.06911 0.17638 0.0
H313 H 0.69207 0.12174 0.16177 0.0
H314 H 0.71769 0.11458 0.19735 0.0
H315 H 0.78223 0.02255 0.08176 0.0
H316 H 0.83106 0.05368 0.07907 0.0
H317 H 0.77866 0.07811 0.07258 0.0
C318 C 0.08267 0.71929 0.56352 0.0
C319 C 0.06063 0.67973 0.56455 0.0
C320 C 0.07308 0.75492 0.58212 0.0
C321 C 0.04095 0.75083 0.60265 0.0
C322 C 0.01684 0.71167 0.60275 0.0
C323 C 0.0268 0.67649 0.58347 0.0
C324 C 0.09913 0.79619 0.58084 0.0
C325 C 0.98241 0.70606 0.62435 0.0
C326 C 0.06423 0.82403 0.67038 0.0
C327 C 0.0376 0.85987 0.66496 0.0
C328 C 0.06363 0.78724 0.65111 0.0
C329 C 0.03607 0.78626 0.62552 0.0
C330 C 1.00793 0.82156 0.62041 0.0
C331 C 1.00893 0.85786 0.64021 0.0
C332 C 0.09413 0.75026 0.65745 0.0
C333 C 0.97813 0.82181 0.59339 0.0
H334 H 0.10854 0.72199 0.54864 0.0
H335 H 1.00991 0.64583 0.58437 0.0
H336 H 0.07731 0.82464 0.57954 0.0
H337 H 0.12012 0.80105 0.60104 0.0
H338 H 0.12002 0.79544 0.56187 0.0
H339 H 0.96276 0.67626 0.61911 0.0
H340 H 0.998 0.70385 0.64649 0.0
H341 H 0.96052 0.73455 0.625 0.0
H342 H 0.08684 0.82528 0.68919 0.0
H343 H 0.98753 0.88493 0.6361 0.0
H344 H 0.11964 0.74876 0.6413 0.0
H345 H 0.07645 0.71887 0.65538 0.0
H346 H 0.11009 0.75394 0.67963 0.0
H347 H 0.99762 0.8245 0.57396 0.0
H348 H 0.9549 0.84927 0.59419 0.0
H349 H 0.95964 0.79094 0.59042 0.0
C350 C 0.42393 0.09506 0.95938 0.0
C351 C 0.45246 0.06442 0.94755 0.0
C352 C 0.3852 0.10565 0.94388 0.0
C353 C 0.37522 0.08519 0.91602 0.0
C354 C 0.40576 0.05697 0.90318 0.0
C355 C 0.44388 0.0469 0.91913 0.0
C356 C 0.35364 0.1362 0.95819 0.0
C357 C 0.39678 0.03474 0.87345 0.0
C358 C 0.26 0.05633 0.89005 0.0
C359 C 0.25186 0.08558 0.86808 0.0
C360 C 0.29918 0.05748 0.90686 0.0
C361 C 0.33118 0.08862 0.9016 0.0
C362 C 0.32249 0.11944 0.88032 0.0
C363 C 0.28297 0.1175 0.86375 0.0
C364 C 0.30714 0.02388 0.92928 0.0
C365 C 0.3556 0.15335 0.87424 0.0
H366 H 0.43037 0.10849 0.98141 0.0
H367 H 0.46613 0.02349 0.90983 0.0
H368 H 0.34009 0.15931 0.94244 0.0
H369 H 0.32618 0.11727 0.9657 0.0
H370 H 0.36897 0.15486 0.97729 0.0
H371 H 0.42562 0.01733 0.86538 0.0
H372 H 0.37009 1.01089 0.87453 0.0
H373 H 0.38619 0.05867 0.85739 0.0
H374 H 0.2364 0.0313 0.89338 0.0
H375 H 0.2766 0.14072 0.84717 0.0
H376 H 0.31815 0.03974 0.95056 0.0
H377 H 0.33323 1.00157 0.92229 0.0
H378 H 0.27772 1.00431 0.93243 0.0
H379 H 0.36837 0.16991 0.89488 0.0
H380 H 0.34198 0.17812 0.85967 0.0
H381 H 0.3834 0.13749 0.86371 0.0
C382 C 0.09115 0.42286 0.45584 0.0
C383 C 0.06275 0.45762 0.46084 0.0
C384 C 0.07938 0.38761 0.43676 0.0
C385 C 0.03808 0.38689 0.42203 0.0
C386 C 1.00861 0.42126 0.42749 0.0
C387 C 0.02126 0.45629 0.44699 0.0
C388 C 0.11172 0.35151 0.43191 0.0
C389 C 0.96432 0.42153 0.41215 0.0
C390 C 0.03911 0.31507 0.35279 0.0
C391 C 0.02481 0.27534 0.36242 0.0
C392 C 0.04036 0.35269 0.37135 0.0
C393 C 0.0272 0.35054 0.4003 0.0
C394 C 1.01013 0.31123 0.40953 0.0
C395 C 1.0091 0.27414 0.39048 0.0
C396 C 0.0587 0.39396 0.3606 0.0
C397 C 0.99563 0.30754 0.44015 0.0
H398 H 0.1231 0.42329 0.46672 0.0
H399 H 0.99921 0.48307 0.45076 0.0
H400 H 0.09725 0.31985 0.43656 0.0
H401 H 0.12039 0.34954 0.40877 0.0
H402 H 0.14193 0.35633 0.44584 0.0
H403 H 0.94408 0.44884 0.42033 0.0
H404 H 0.96766 0.42434 0.38842 0.0
H405 H 0.94718 0.39054 0.41499 0.0
H406 H 0.05148 0.31635 0.33123 0.0
H407 H 0.99703 0.24382 0.39786 0.0
H408 H 0.09136 0.40009 0.37117 0.0
H409 H 0.03806 0.42212 0.36655 0.0
H410 H 0.06165 0.39213 0.3366 0.0
H411 H 0.02442 0.30805 0.45559 0.0
H412 H 0.97734 0.27704 0.44258 0.0
H413 H 0.975 0.33552 0.4465 0.0
C414 C 0.69995 0.01985 0.95099 0.0
C415 C 0.66795 0.98959 0.94105 0.0
C416 C 0.735 0.02888 0.93401 0.0
C417 C 0.73807 1.00728 0.90629 0.0
C418 C 0.70602 0.9765 0.89617 0.0
C419 C 0.67144 0.96789 0.91373 0.0
C420 C 0.76876 0.06153 0.94574 0.0
C421 C 0.70805 0.95299 0.86667 0.0
C422 C 0.80759 0.05924 0.85154 0.0
C423 C 0.84559 0.03455 0.8537 0.0
C424 C 0.77221 0.05056 0.86839 0.0
C425 C 0.77507 0.01664 0.88803 0.0
C426 C 0.81349 0.99185 0.89045 0.0
C427 C 0.8482 1.00103 0.87322 0.0
C428 C 0.73169 0.07756 0.86508 0.0
C429 C 0.81803 0.95575 0.91136 0.0
H430 H 0.69775 0.03626 0.97224 0.0
H431 H 0.64656 0.94489 0.90579 0.0
H432 H 0.80114 0.04603 0.94688 0.0
H433 H 0.7705 0.08853 0.93081 0.0
H434 H 0.76177 0.07531 0.96779 0.0
H435 H 0.68052 0.93012 0.86196 0.0
H436 H 0.7078 0.97682 0.84939 0.0
H437 H 0.73875 0.93453 0.86546 0.0
H438 H 0.80529 0.08492 0.83632 0.0
H439 H 0.87774 0.98226 0.8753 0.0
H440 H 0.72471 0.09414 0.8863 0.0
H441 H 0.70358 0.05628 0.85846 0.0
H442 H 0.73449 0.10246 0.84867 0.0
H443 H 0.81375 0.96883 0.93395 0.0
H444 H 0.85007 0.93954 0.91062 0.0
H445 H 0.79235 0.93103 0.90616 0.0
C446 C 0.08618 0.68311 0.42141 0.0
C447 C 0.12491 0.68135 0.43856 0.0
C448 C 0.0771 0.71815 0.4038 0.0
C449 C 0.10735 0.75256 0.40351 0.0
C450 C 0.14688 0.75066 0.4204 0.0
C451 C 0.1553 0.71493 0.4376 0.0
C452 C 0.03484 0.71862 0.38584 0.0
C453 C 0.17978 0.78689 0.42086 0.0
C454 C 0.09946 0.82827 0.3407 0.0
C455 C 0.07681 0.8636 0.35286 0.0
C456 C 0.10956 0.79189 0.35689 0.0
C457 C 0.09708 0.79098 0.38605 0.0
C458 C 0.07424 0.82658 0.39845 0.0
C459 C 0.0642 0.86236 0.38166 0.0
C460 C 0.13341 0.75435 0.34276 0.0
C461 C 0.06065 0.82702 0.42953 0.0
H462 H 0.06288 0.65693 0.42178 0.0
H463 H 0.18504 0.71394 0.45105 0.0
H464 H 0.01511 0.74682 0.39306 0.0
H465 H 0.04114 0.72234 0.36256 0.0
H466 H 0.01558 0.68854 0.38762 0.0
H467 H 0.20938 0.78 0.43455 0.0
H468 H 0.18931 0.7923 0.3984 0.0
H469 H 0.16526 0.81755 0.42943 0.0
H470 H 0.1089 0.8289 0.31835 0.0
H471 H 0.04717 0.88981 0.39127 0.0
H472 H 0.11376 0.72427 0.34297 0.0
H473 H 0.16429 0.7486 0.35532 0.0
H474 H 0.14074 0.76007 0.31987 0.0
H475 H 0.03884 0.79914 0.43234 0.0
H476 H 0.04364 0.85744 0.43605 0.0
H477 H 0.08949 0.82336 0.44456 0.0
loop_
_geom_bond_atom_site_label_1
_geom_bond_atom_site_label_2
_geom_bond_distance
_geom_bond_site_symmetry_2
_ccdc_geom_bond_type
Cu0 N1 1.999 1_554 S
Cu0 O6 1.974 . S
Cu0 N11 1.985 . S
Cu0 O20 1.959 1_554 S
N1 Cu0 1.999 1_556 S
N1 C3 1.263 . S
N1 C5 1.389 . S
N2 C3 1.358 . S
N2 C4 1.400 . S
C3 N1 1.263 . S
C3 N2 1.358 . S
C3 H9 0.930 . S
C4 N2 1.400 . S
C4 C5 1.351 . S
C4 H21 0.930 . S
C5 N1 1.389 . S
C5 C4 1.351 . S
C5 H10 0.930 . S
O6 Cu0 1.974 . S
O6 C16 1.282 . S
C7 O8 1.261 1_545 S
C7 O20 1.251 . S
O8 C7 1.261 1_565 S
H9 C3 0.930 . S
H10 C5 0.930 . S
N11 Cu0 1.985 . S
N11 C13 1.335 . S
N11 C14 1.390 . S
N12 C13 1.345 . S
N12 C15 1.336 . S
C13 N11 1.335 . S
C13 N12 1.345 . S
C13 H18 0.930 . S
C14 N11 1.390 . S
C14 C15 1.346 . S
C14 H19 0.930 . S
C15 N12 1.336 . S
C15 C14 1.346 . S
C15 H22 0.929 . S
C16 O6 1.282 . S
C16 O17 1.216 1_545 S
O17 C16 1.216 1_565 S
H18 C13 0.930 . S
H19 C14 0.930 . S
O20 Cu0 1.959 1_556 S
O20 C7 1.251 . S
H21 C4 0.930 . S
H22 C15 0.929 . S
Cu23 N24 1.999 . S
Cu23 O29 1.974 . S
Cu23 N34 1.985 . S
Cu23 O43 1.959 . S
N24 Cu23 1.999 . S
N24 C26 1.263 . S
N24 C28 1.389 1_455 S
N25 C26 1.358 . S
N25 C27 1.414 . S
C26 N24 1.263 . S
C26 N25 1.358 . S
C26 H32 0.930 . S
C27 N25 1.414 . S
C27 C28 1.350 1_455 S
C27 H44 0.920 1_455 S
C28 N24 1.389 1_655 S
C28 C27 1.350 1_655 S
C28 H33 0.930 . S
O29 Cu23 1.974 . S
O29 C39 1.282 . S
C30 O31 1.261 . S
C30 O43 1.251 . S
O31 C30 1.261 . S
H32 C26 0.930 . S
H33 C28 0.930 . S
N34 Cu23 1.985 . S
N34 C36 1.335 . S
N34 C37 1.390 . S
N35 C36 1.345 . S
N35 C38 1.336 . S
C36 N34 1.335 . S
C36 N35 1.345 . S
C36 H41 0.930 . S
C37 N34 1.390 . S
C37 C38 1.346 . S
C37 H42 0.930 . S
C38 N35 1.336 . S
C38 C37 1.346 . S
C38 H45 0.929 . S
C39 O29 1.282 . S
C39 O40 1.216 . S
O40 C39 1.216 . S
H41 C36 0.930 . S
H42 C37 0.930 . S
O43 Cu23 1.959 . S
O43 C30 1.251 . S
H44 C27 0.920 1_655 S
H45 C38 0.929 . S
Li46 N63 1.990 . S
Li46 O106 1.956 . S
Li46 O107 1.970 1_455 S
Li46 O108 1.961 . S
Li47 N71 1.990 1_545 S
Li47 O106 1.970 . S
Li47 O107 1.956 1_455 S
Li47 O109 1.961 . S
Li48 N93 1.990 . S
Li48 O106 1.961 . S
Li48 O108 1.956 . S
Li48 O109 1.970 . S
Li49 N99 1.990 . S
Li49 O107 1.961 . S
Li49 O108 1.970 1_655 S
Li49 O109 1.956 1_655 S
C50 C52 1.348 . S
C50 C53 1.356 . S
C50 O106 1.325 . S
N51 C54 1.314 . S
N51 C55 1.279 . S
C52 C50 1.348 . S
C52 C54 1.353 . S
C52 H110 0.929 . S
C53 C50 1.356 . S
C53 C55 1.358 . S
C53 H111 0.930 . S
C54 N51 1.314 . S
C54 C52 1.353 . S
C54 H112 0.930 . S
C55 N51 1.279 . S
C55 C53 1.358 . S
C55 H113 0.930 . S
C56 C59 1.348 . S
C56 C60 1.356 . S
C56 O107 1.325 . S
C57 N58 1.279 . S
C57 C60 1.358 . S
C57 H114 0.930 . S
N58 C57 1.279 . S
N58 C61 1.314 . S
C59 C56 1.348 . S
C59 C61 1.353 . S
C59 H115 0.929 . S
C60 C56 1.356 . S
C60 C57 1.358 . S
C60 H116 0.930 . S
C61 N58 1.314 . S
C61 C59 1.353 . S
C61 H117 0.930 . S
C62 N63 1.314 . S
C62 C67 1.353 . S
C62 H68 0.930 1_455 S
N63 Li46 1.990 . S
N63 C62 1.314 . S
N63 C65 1.279 . S
C64 C65 1.358 . S
C64 C66 1.356 . S
C64 H118 0.930 . S
C65 N63 1.279 . S
C65 C64 1.358 . S
C65 H69 0.930 . S
C66 C64 1.356 . S
C66 C67 1.348 . S
C67 C62 1.353 . S
C67 C66 1.348 . S
C67 H119 0.929 1_455 S
H68 C62 0.930 1_655 S
H69 C65 0.930 . S
C70 N71 1.314 . S
C70 C72 1.353 . S
C70 H76 0.930 . S
N71 Li47 1.990 1_565 S
N71 C70 1.314 . S
N71 C74 1.279 . S
C72 C70 1.353 . S
C72 C75 1.348 . S
C72 H120 0.929 . S
C73 C74 1.358 . S
C73 C75 1.356 . S
C73 H121 0.930 1_455 S
C74 N71 1.279 . S
C74 C73 1.358 . S
C74 H77 0.930 1_455 S
C75 C72 1.348 . S
C75 C73 1.356 . S
H76 C70 0.930 . S
H77 C74 0.930 1_655 S
C78 C80 1.348 . S
C78 C81 1.356 . S
C78 O108 1.325 . S
N79 C82 1.314 . S
N79 C83 1.279 . S
C80 C78 1.348 . S
C80 C82 1.353 . S
C80 H122 0.929 1_455 S
C81 C78 1.356 . S
C81 C83 1.358 . S
C81 H123 0.930 . S
C82 N79 1.314 . S
C82 C80 1.353 . S
C82 H124 0.930 1_455 S
C83 N79 1.279 . S
C83 C81 1.358 . S
C83 H125 0.930 . S
C84 C85 1.348 . S
C84 C86 1.356 . S
C84 O109 1.325 1_565 S
C85 C84 1.348 . S
C85 C87 1.353 . S
C85 H126 0.929 . S
C86 C84 1.356 . S
C86 C88 1.358 . S
C86 H127 0.930 1_455 S
C87 C85 1.353 . S
C87 N89 1.314 . S
C87 H128 0.930 . S
C88 C86 1.358 . S
C88 N89 1.279 . S
C88 H129 0.930 1_455 S
N89 C87 1.314 . S
N89 C88 1.279 . S
C90 C92 1.353 . S
C90 N93 1.314 . S
C90 H96 0.930 . S
C91 N93 1.279 . S
C91 C94 1.358 . S
C91 H97 0.930 . S
C92 C90 1.353 . S
C92 C95 1.348 . S
C92 H130 0.929 . S
N93 Li48 1.990 . S
N93 C90 1.314 . S
N93 C91 1.279 . S
C94 C91 1.358 . S
C94 C95 1.356 . S
C94 H131 0.930 . S
C95 C92 1.348 . S
C95 C94 1.356 . S
H96 C90 0.930 . S
H97 C91 0.930 . S
C98 N99 1.314 . S
C98 C100 1.353 . S
C98 H104 0.930 . S
N99 Li49 1.990 . S
N99 C98 1.314 . S
N99 C102 1.279 . S
C100 C98 1.353 . S
C100 C103 1.348 . S
C100 H132 0.929 . S
C101 C102 1.358 . S
C101 C103 1.356 . S
C101 H133 0.930 . S
C102 N99 1.279 . S
C102 C101 1.358 . S
C102 H105 0.930 . S
C103 C100 1.348 . S
C103 C101 1.356 . S
H104 C98 0.930 . S
H105 C102 0.930 . S
O106 Li46 1.956 . S
O106 Li47 1.970 . S
O106 Li48 1.961 . S
O106 C50 1.325 . S
O107 Li46 1.970 1_655 S
O107 Li47 1.956 1_655 S
O107 Li49 1.961 . S
O107 C56 1.325 . S
O108 Li46 1.961 . S
O108 Li48 1.956 . S
O108 Li49 1.970 1_455 S
O108 C78 1.325 . S
O109 Li47 1.961 . S
O109 Li48 1.970 . S
O109 Li49 1.956 1_455 S
O109 C84 1.325 1_545 S
H110 C52 0.929 . S
H111 C53 0.930 . S
H112 C54 0.930 . S
H113 C55 0.930 . S
H114 C57 0.930 . S
H115 C59 0.929 . S
H116 C60 0.930 . S
H117 C61 0.930 . S
H118 C64 0.930 . S
H119 C67 0.929 1_655 S
H120 C72 0.929 . S
H121 C73 0.930 1_655 S
H122 C80 0.929 1_655 S
H123 C81 0.930 . S
H124 C82 0.930 1_655 S
H125 C83 0.930 . S
H126 C85 0.929 . S
H127 C86 0.930 1_655 S
H128 C87 0.930 . S
H129 C88 0.930 1_655 S
H130 C92 0.929 . S
H131 C94 0.930 . S
H132 C100 0.929 . S
H133 C101 0.930 . S
Li134 N151 1.990 1_455 S
Li134 O194 1.956 . S
Li134 O195 1.970 1_545 S
Li134 O196 1.961 . S
Li135 N159 1.990 . S
Li135 O194 1.970 . S
Li135 O195 1.956 1_545 S
Li135 O197 1.961 . S
Li136 N181 1.990 . S
Li136 O194 1.961 . S
Li136 O196 1.956 . S
Li136 O197 1.970 . S
Li137 N187 1.990 . S
Li137 O195 1.961 . S
Li137 O196 1.970 1_565 S
Li137 O197 1.956 1_565 S
C138 C140 1.348 . S
C138 C141 1.356 . S
C138 O194 1.325 . S
N139 C142 1.314 . S
N139 C143 1.279 . S
C140 C138 1.348 . S
C140 C142 1.353 . S
C140 H198 0.929 . S
C141 C138 1.356 . S
C141 C143 1.358 . S
C141 H199 0.930 . S
C142 N139 1.314 . S
C142 C140 1.353 . S
C142 H200 0.930 . S
C143 N139 1.279 . S
C143 C141 1.358 . S
C143 H201 0.930 . S
C144 C147 1.348 . S
C144 C148 1.356 . S
C144 O195 1.325 . S
C145 N146 1.279 . S
C145 C148 1.358 . S
C145 H202 0.930 . S
N146 C145 1.279 . S
N146 C149 1.314 . S
C147 C144 1.348 . S
C147 C149 1.353 . S
C147 H203 0.929 . S
C148 C144 1.356 . S
C148 C145 1.358 . S
C148 H204 0.930 . S
C149 N146 1.314 . S
C149 C147 1.353 . S
C149 H205 0.930 . S
C150 N151 1.314 . S
C150 C155 1.353 . S
C150 H156 0.930 1_545 S
N151 Li134 1.990 1_655 S
N151 C150 1.314 . S
N151 C153 1.279 . S
C152 C153 1.358 . S
C152 C154 1.356 . S
C152 H206 0.930 . S
C153 N151 1.279 . S
C153 C152 1.358 . S
C153 H157 0.930 . S
C154 C152 1.356 . S
C154 C155 1.348 . S
C155 C150 1.353 . S
C155 C154 1.348 . S
C155 H207 0.929 1_545 S
H156 C150 0.930 1_565 S
H157 C153 0.930 . S
C158 N159 1.314 . S
C158 C160 1.353 . S
C158 H164 0.930 . S
N159 Li135 1.990 . S
N159 C158 1.314 . S
N159 C162 1.279 . S
C160 C158 1.353 . S
C160 C163 1.348 . S
C160 H208 0.929 . S
C161 C162 1.358 . S
C161 C163 1.356 . S
C161 H209 0.930 1_545 S
C162 N159 1.279 . S
C162 C161 1.358 . S
C162 H165 0.930 1_545 S
C163 C160 1.348 . S
C163 C161 1.356 . S
H164 C158 0.930 . S
H165 C162 0.930 1_565 S
C166 C168 1.348 . S
C166 C169 1.356 . S
C166 O196 1.325 1_655 S
N167 C170 1.314 . S
N167 C171 1.279 . S
C168 C166 1.348 . S
C168 C170 1.353 . S
C168 H210 0.929 1_545 S
C169 C166 1.356 . S
C169 C171 1.358 . S
C169 H211 0.930 . S
C170 N167 1.314 . S
C170 C168 1.353 . S
C170 H212 0.930 1_545 S
C171 N167 1.279 . S
C171 C169 1.358 . S
C171 H213 0.930 . S
C172 C173 1.348 . S
C172 C174 1.356 . S
C172 O197 1.325 . S
C173 C172 1.348 . S
C173 C175 1.353 . S
C173 H214 0.929 . S
C174 C172 1.356 . S
C174 C176 1.358 . S
C174 H215 0.930 1_545 S
C175 C173 1.353 . S
C175 N177 1.314 . S
C175 H216 0.930 . S
C176 C174 1.358 . S
C176 N177 1.279 . S
C176 H217 0.930 1_545 S
N177 C175 1.314 . S
N177 C176 1.279 . S
C178 C180 1.353 . S
C178 N181 1.314 . S
C178 H184 0.930 . S
C179 N181 1.279 . S
C179 C182 1.358 . S
C179 H185 0.930 . S
C180 C178 1.353 . S
C180 C183 1.348 . S
C180 H218 0.929 . S
N181 Li136 1.990 . S
N181 C178 1.314 . S
N181 C179 1.279 . S
C182 C179 1.358 . S
C182 C183 1.356 . S
C182 H219 0.930 . S
C183 C180 1.348 . S
C183 C182 1.356 . S
H184 C178 0.930 . S
H185 C179 0.930 . S
C186 N187 1.314 . S
C186 C188 1.353 . S
C186 H192 0.930 . S
N187 Li137 1.990 . S
N187 C186 1.314 . S
N187 C190 1.279 . S
C188 C186 1.353 . S
C188 C191 1.348 . S
C188 H220 0.929 . S
C189 C190 1.358 . S
C189 C191 1.356 . S
C189 H221 0.930 . S
C190 N187 1.279 . S
C190 C189 1.358 . S
C190 H193 0.930 . S
C191 C188 1.348 . S
C191 C189 1.356 . S
H192 C186 0.930 . S
H193 C190 0.930 . S
O194 Li134 1.956 . S
O194 Li135 1.970 . S
O194 Li136 1.961 . S
O194 C138 1.325 . S
O195 Li134 1.970 1_565 S
O195 Li135 1.956 1_565 S
O195 Li137 1.961 . S
O195 C144 1.325 . S
O196 Li134 1.961 . S
O196 Li136 1.956 . S
O196 Li137 1.970 1_545 S
O196 C166 1.325 1_455 S
O197 Li135 1.961 . S
O197 Li136 1.970 . S
O197 Li137 1.956 1_545 S
O197 C172 1.325 . S
H198 C140 0.929 . S
H199 C141 0.930 . S
H200 C142 0.930 . S
H201 C143 0.930 . S
H202 C145 0.930 . S
H203 C147 0.929 . S
H204 C148 0.930 . S
H205 C149 0.930 . S
H206 C152 0.930 . S
H207 C155 0.929 1_565 S
H208 C160 0.929 . S
H209 C161 0.930 1_565 S
H210 C168 0.929 1_565 S
H211 C169 0.930 . S
H212 C170 0.930 1_565 S
H213 C171 0.930 . S
H214 C173 0.929 . S
H215 C174 0.930 1_565 S
H216 C175 0.930 . S
H217 C176 0.930 1_565 S
H218 C180 0.929 . S
H219 C182 0.930 . S
H220 C188 0.929 . S
H221 C189 0.930 . S
C222 C223 1.391 . S
C222 C224 1.394 . S
C222 H238 0.931 . S
C223 C222 1.391 . S
C223 C227 1.376 . S
C224 C222 1.394 . S
C224 C225 1.369 . S
C224 C228 1.531 . S
C225 C224 1.369 . S
C225 C226 1.410 . S
C225 C233 1.503 . S
C226 C225 1.410 . S
C226 C227 1.392 . S
C226 C229 1.511 . S
C227 C223 1.376 . S
C227 C226 1.392 . S
C227 H239 0.929 . S
C228 C224 1.531 . S
C228 H240 0.960 . S
C228 H241 0.962 . S
C228 H242 0.960 . S
C229 C226 1.511 . S
C229 H243 0.961 . S
C229 H244 0.961 . S
C229 H245 0.961 . S
C230 C231 1.370 . S
C230 C232 1.363 . S
C230 H246 0.931 1_545 S
C231 C230 1.370 . S
C231 C235 1.408 . S
C232 C230 1.363 . S
C232 C233 1.370 . S
C232 C236 1.524 1_545 S
C233 C225 1.503 . S
C233 C232 1.370 . S
C233 C234 1.403 . S
C234 C233 1.403 . S
C234 C235 1.404 . S
C234 C237 1.539 . S
C235 C231 1.408 . S
C235 C234 1.404 . S
C235 H247 0.930 . S
C236 C232 1.524 1_565 S
C236 H248 0.956 . S
C236 H249 0.961 . S
C236 H250 0.961 . S
C237 C234 1.539 . S
C237 H251 0.958 . S
C237 H252 0.961 . S
C237 H253 0.960 . S
H238 C222 0.931 . S
H239 C227 0.929 . S
H240 C228 0.960 . S
H241 C228 0.962 . S
H242 C228 0.960 . S
H243 C229 0.961 . S
H244 C229 0.961 . S
H245 C229 0.961 . S
H246 C230 0.931 1_565 S
H247 C235 0.930 . S
H248 C236 0.956 . S
H249 C236 0.961 . S
H250 C236 0.961 . S
H251 C237 0.958 . S
H252 C237 0.961 . S
H253 C237 0.960 . S
C254 C255 1.391 . S
C254 C256 1.394 . S
C254 H270 0.931 . S
C255 C254 1.391 . S
C255 C259 1.376 . S
C256 C254 1.394 . S
C256 C257 1.369 . S
C256 C260 1.531 . S
C257 C256 1.369 . S
C257 C258 1.410 . S
C257 C265 1.503 . S
C258 C257 1.410 . S
C258 C259 1.392 . S
C258 C261 1.511 1_455 S
C259 C255 1.376 . S
C259 C258 1.392 . S
C259 H271 0.929 1_455 S
C260 C256 1.531 . S
C260 H272 0.960 . S
C260 H273 0.962 . S
C260 H274 0.960 . S
C261 C258 1.511 1_655 S
C261 H275 0.961 . S
C261 H276 0.961 . S
C261 H277 0.961 . S
C262 C263 1.370 . S
C262 C264 1.363 . S
C262 H278 0.931 . S
C263 C262 1.370 . S
C263 C267 1.408 . S
C264 C262 1.363 . S
C264 C265 1.370 . S
C264 C268 1.524 . S
C265 C257 1.503 . S
C265 C264 1.370 . S
C265 C266 1.403 . S
C266 C265 1.403 . S
C266 C267 1.404 . S
C266 C269 1.539 . S
C267 C263 1.408 . S
C267 C266 1.404 . S
C267 H279 0.930 . S
C268 C264 1.524 . S
C268 H280 0.956 . S
C268 H281 0.961 1_455 S
C268 H282 0.961 1_455 S
C269 C266 1.539 . S
C269 H283 0.958 . S
C269 H284 0.961 . S
C269 H285 0.960 . S
H270 C254 0.931 . S
H271 C259 0.929 1_655 S
H272 C260 0.960 . S
H273 C260 0.962 . S
H274 C260 0.960 . S
H275 C261 0.961 . S
H276 C261 0.961 . S
H277 C261 0.961 . S
H278 C262 0.931 . S
H279 C267 0.930 . S
H280 C268 0.956 . S
H281 C268 0.961 1_655 S
H282 C268 0.961 1_655 S
H283 C269 0.958 . S
H284 C269 0.961 . S
H285 C269 0.960 . S
C286 C287 1.391 1_565 S
C286 C288 1.395 . S
C286 H302 0.931 . S
C287 C286 1.391 1_545 S
C287 C291 1.376 . S
C288 C286 1.395 . S
C288 C289 1.350 1_565 S
C288 C292 1.549 . S
C289 C288 1.350 1_545 S
C289 C290 1.410 . S
C289 C297 1.503 . S
C290 C289 1.410 . S
C290 C291 1.392 . S
C290 C293 1.511 . S
C291 C287 1.376 . S
C291 C290 1.392 . S
C291 H303 0.929 . S
C292 C288 1.549 . S
C292 H304 0.960 . S
C292 H305 0.962 . S
C292 H306 0.960 . S
C293 C290 1.511 . S
C293 H307 0.961 . S
C293 H308 0.961 . S
C293 H309 0.961 . S
C294 C295 1.370 . S
C294 C296 1.363 . S
C294 H310 0.931 . S
C295 C294 1.370 . S
C295 C299 1.408 . S
C296 C294 1.363 . S
C296 C297 1.370 . S
C296 C300 1.524 . S
C297 C289 1.503 . S
C297 C296 1.370 . S
C297 C298 1.403 . S
C298 C297 1.403 . S
C298 C299 1.404 . S
C298 C301 1.539 . S
C299 C295 1.408 . S
C299 C298 1.404 . S
C299 H311 0.930 . S
C300 C296 1.524 . S
C300 H312 0.956 . S
C300 H313 0.961 . S
C300 H314 0.961 . S
C301 C298 1.539 . S
C301 H315 0.958 . S
C301 H316 0.961 . S
C301 H317 0.960 . S
H302 C286 0.931 . S
H303 C291 0.929 . S
H304 C292 0.960 . S
H305 C292 0.962 . S
H306 C292 0.960 . S
H307 C293 0.961 . S
H308 C293 0.961 . S
H309 C293 0.961 . S
H310 C294 0.931 . S
H311 C299 0.930 . S
H312 C300 0.956 . S
H313 C300 0.961 . S
H314 C300 0.961 . S
H315 C301 0.958 . S
H316 C301 0.961 . S
H317 C301 0.960 . S
C318 C319 1.391 . S
C318 C320 1.394 . S
C318 H334 0.931 . S
C319 C318 1.391 . S
C319 C323 1.376 . S
C320 C318 1.394 . S
C320 C321 1.369 . S
C320 C324 1.531 . S
C321 C320 1.369 . S
C321 C322 1.410 . S
C321 C329 1.503 . S
C322 C321 1.410 . S
C322 C323 1.392 . S
C322 C325 1.511 1_455 S
C323 C319 1.376 . S
C323 C322 1.392 . S
C323 H335 0.929 1_455 S
C324 C320 1.531 . S
C324 H336 0.960 . S
C324 H337 0.962 . S
C324 H338 0.960 . S
C325 C322 1.511 1_655 S
C325 H339 0.961 . S
C325 H340 0.961 . S
C325 H341 0.961 . S
C326 C327 1.370 . S
C326 C328 1.363 . S
C326 H342 0.931 . S
C327 C326 1.370 . S
C327 C331 1.408 . S
C328 C326 1.363 . S
C328 C329 1.370 . S
C328 C332 1.524 . S
C329 C321 1.503 . S
C329 C328 1.370 . S
C329 C330 1.403 . S
C330 C329 1.403 . S
C330 C331 1.404 . S
C330 C333 1.539 . S
C331 C327 1.408 . S
C331 C330 1.404 . S
C331 H343 0.930 . S
C332 C328 1.524 . S
C332 H344 0.956 . S
C332 H345 0.961 . S
C332 H346 0.961 . S
C333 C330 1.539 . S
C333 H347 0.958 . S
C333 H348 0.961 1_455 S
C333 H349 0.960 . S
H334 C318 0.931 . S
H335 C323 0.929 1_655 S
H336 C324 0.960 . S
H337 C324 0.962 . S
H338 C324 0.960 . S
H339 C325 0.961 . S
H340 C325 0.961 . S
H341 C325 0.961 . S
H342 C326 0.931 . S
H343 C331 0.930 . S
H344 C332 0.956 . S
H345 C332 0.961 . S
H346 C332 0.961 . S
H347 C333 0.958 . S
H348 C333 0.961 1_655 S
H349 C333 0.960 . S
C350 C351 1.391 . S
C350 C352 1.394 . S
C350 H366 0.931 . S
C351 C350 1.391 . S
C351 C355 1.376 . S
C352 C350 1.394 . S
C352 C353 1.369 . S
C352 C356 1.531 . S
C353 C352 1.369 . S
C353 C354 1.410 . S
C353 C361 1.503 . S
C354 C353 1.410 . S
C354 C355 1.392 . S
C354 C357 1.511 . S
C355 C351 1.376 . S
C355 C354 1.392 . S
C355 H367 0.929 . S
C356 C352 1.531 . S
C356 H368 0.960 . S
C356 H369 0.962 . S
C356 H370 0.960 . S
C357 C354 1.511 . S
C357 H371 0.961 . S
C357 H372 0.961 . S
C357 H373 0.961 . S
C358 C359 1.370 . S
C358 C360 1.363 . S
C358 H374 0.931 1_545 S
C359 C358 1.370 . S
C359 C363 1.408 . S
C360 C358 1.363 . S
C360 C361 1.370 . S
C360 C364 1.524 1_545 S
C361 C353 1.503 . S
C361 C360 1.370 . S
C361 C362 1.403 . S
C362 C361 1.403 . S
C362 C363 1.404 . S
C362 C365 1.539 . S
C363 C359 1.408 . S
C363 C362 1.404 . S
C363 H375 0.930 . S
C364 C360 1.524 1_565 S
C364 H376 0.956 . S
C364 H377 0.961 . S
C364 H378 0.961 . S
C365 C362 1.539 . S
C365 H379 0.958 . S
C365 H380 0.961 . S
C365 H381 0.960 . S
H366 C350 0.931 . S
H367 C355 0.929 . S
H368 C356 0.960 . S
H369 C356 0.962 . S
H370 C356 0.960 . S
H371 C357 0.961 . S
H372 C357 0.961 . S
H373 C357 0.961 . S
H374 C358 0.931 1_565 S
H375 C363 0.930 . S
H376 C364 0.956 . S
H377 C364 0.961 . S
H378 C364 0.961 . S
H379 C365 0.958 . S
H380 C365 0.961 . S
H381 C365 0.960 . S
C382 C383 1.391 . S
C382 C384 1.394 . S
C382 H398 0.931 . S
C383 C382 1.391 . S
C383 C387 1.376 . S
C384 C382 1.394 . S
C384 C385 1.369 . S
C384 C388 1.531 . S
C385 C384 1.369 . S
C385 C386 1.410 . S
C385 C393 1.503 . S
C386 C385 1.410 . S
C386 C387 1.392 . S
C386 C389 1.511 1_455 S
C387 C383 1.376 . S
C387 C386 1.392 . S
C387 H399 0.929 1_455 S
C388 C384 1.531 . S
C388 H400 0.960 . S
C388 H401 0.962 . S
C388 H402 0.960 . S
C389 C386 1.511 1_655 S
C389 H403 0.961 . S
C389 H404 0.961 . S
C389 H405 0.961 . S
C390 C391 1.370 . S
C390 C392 1.363 . S
C390 H406 0.931 . S
C391 C390 1.370 . S
C391 C395 1.408 . S
C392 C390 1.363 . S
C392 C393 1.370 . S
C392 C396 1.524 . S
C393 C385 1.503 . S
C393 C392 1.370 . S
C393 C394 1.403 . S
C394 C393 1.403 . S
C394 C395 1.404 . S
C394 C397 1.539 . S
C395 C391 1.408 . S
C395 C394 1.404 . S
C395 H407 0.930 . S
C396 C392 1.524 . S
C396 H408 0.956 . S
C396 H409 0.961 . S
C396 H410 0.961 . S
C397 C394 1.539 . S
C397 H411 0.958 . S
C397 H412 0.961 . S
C397 H413 0.960 . S
H398 C382 0.931 . S
H399 C387 0.929 1_655 S
H400 C388 0.960 . S
H401 C388 0.962 . S
H402 C388 0.960 . S
H403 C389 0.961 . S
H404 C389 0.961 . S
H405 C389 0.961 . S
H406 C390 0.931 . S
H407 C395 0.930 . S
H408 C396 0.956 . S
H409 C396 0.961 . S
H410 C396 0.961 . S
H411 C397 0.958 . S
H412 C397 0.961 . S
H413 C397 0.960 . S
C414 C415 1.391 . S
C414 C416 1.394 . S
C414 H430 0.931 . S
C415 C414 1.391 . S
C415 C419 1.376 . S
C416 C414 1.394 . S
C416 C417 1.369 . S
C416 C420 1.531 . S
C417 C416 1.369 . S
C417 C418 1.410 . S
C417 C425 1.503 . S
C418 C417 1.410 . S
C418 C419 1.392 . S
C418 C421 1.511 . S
C419 C415 1.376 . S
C419 C418 1.392 . S
C419 H431 0.929 . S
C420 C416 1.531 . S
C420 H432 0.960 . S
C420 H433 0.962 . S
C420 H434 0.960 . S
C421 C418 1.511 . S
C421 H435 0.961 . S
C421 H436 0.961 . S
C421 H437 0.961 1_545 S
C422 C423 1.370 . S
C422 C424 1.363 . S
C422 H438 0.931 . S
C423 C422 1.370 . S
C423 C427 1.408 1_545 S
C424 C422 1.363 . S
C424 C425 1.370 . S
C424 C428 1.524 . S
C425 C417 1.503 . S
C425 C424 1.370 . S
C425 C426 1.403 1_545 S
C426 C425 1.403 1_565 S
C426 C427 1.404 . S
C426 C429 1.539 . S
C427 C423 1.408 1_565 S
C427 C426 1.404 . S
C427 H439 0.930 . S
C428 C424 1.524 . S
C428 H440 0.956 . S
C428 H441 0.961 . S
C428 H442 0.961 . S
C429 C426 1.539 . S
C429 H443 0.958 . S
C429 H444 0.961 . S
C429 H445 0.960 . S
H430 C414 0.931 . S
H431 C419 0.929 . S
H432 C420 0.960 . S
H433 C420 0.962 . S
H434 C420 0.960 . S
H435 C421 0.961 . S
H436 C421 0.961 . S
H437 C421 0.961 1_565 S
H438 C422 0.931 . S
H439 C427 0.930 . S
H440 C428 0.956 . S
H441 C428 0.961 . S
H442 C428 0.961 . S
H443 C429 0.958 . S
H444 C429 0.961 . S
H445 C429 0.960 . S
C446 C447 1.391 1_655 S
C446 C448 1.394 . S
C446 H462 0.931 . S
C447 C446 1.391 1_455 S
C447 C451 1.376 . S
C448 C446 1.394 . S
C448 C449 1.369 1_655 S
C448 C452 1.531 . S
C449 C448 1.369 1_455 S
C449 C450 1.410 . S
C449 C457 1.503 . S
C450 C449 1.410 . S
C450 C451 1.392 . S
C450 C453 1.511 . S
C451 C447 1.376 . S
C451 C450 1.392 . S
C451 H463 0.929 . S
C452 C448 1.531 . S
C452 H464 0.960 . S
C452 H465 0.962 . S
C452 H466 0.960 . S
C453 C450 1.511 . S
C453 H467 0.961 . S
C453 H468 0.961 . S
C453 H469 0.961 . S
C454 C455 1.370 . S
C454 C456 1.363 . S
C454 H470 0.931 . S
C455 C454 1.370 . S
C455 C459 1.408 . S
C456 C454 1.363 . S
C456 C457 1.370 . S
C456 C460 1.524 . S
C457 C449 1.503 . S
C457 C456 1.370 . S
C457 C458 1.403 . S
C458 C457 1.403 . S
C458 C459 1.404 . S
C458 C461 1.539 . S
C459 C455 1.408 . S
C459 C458 1.404 . S
C459 H471 0.930 . S
C460 C456 1.524 . S
C460 H472 0.956 . S
C460 H473 0.961 . S
C460 H474 0.961 . S
C461 C458 1.539 . S
C461 H475 0.958 1_455 S
C461 H476 0.961 . S
C461 H477 0.960 . S
H462 C446 0.931 . S
H463 C451 0.929 . S
H464 C452 0.960 . S
H465 C452 0.962 . S
H466 C452 0.960 . S
H467 C453 0.961 . S
H468 C453 0.961 . S
H469 C453 0.961 . S
H470 C454 0.931 . S
H471 C459 0.930 . S
H472 C460 0.956 . S
H473 C460 0.961 . S
H474 C460 0.961 . S
H475 C461 0.958 1_655 S
H476 C461 0.961 . S
H477 C461 0.960 . S
C231 C95 1.459 . S
C223 N12 1.440 . S
C263 C183 1.503 . S
C255 N25 1.461 . S
C295 C103 1.446 . S
C287 C16 1.445 . S
C327 C191 1.494 . S
C319 C30 1.492 . S
C359 C163 1.496 . S
C351 C7 1.486 . S
C391 C66 1.446 . S
C383 C39 1.446 . S
C423 C154 1.504 . S
C415 N2 1.488 . S
C447 N35 1.449 . S
C455 C75 1.460 . S
