# Generated by pormake.
# Topology zzz, (3,6)-cn, num edge types: 1
# Building blocks:
#     Node 0, Type 0, BuildingBlock: OLANEW_clean_sbu_2, # of connection points: 3
#     Node 1, Type 0, BuildingBlock: OLANEW_clean_sbu_2, # of connection points: 3
#     Node 2, Type 0, BuildingBlock: OLANEW_clean_sbu_2, # of connection points: 3
#     Node 3, Type 0, BuildingBlock: OLANEW_clean_sbu_2, # of connection points: 3
#     Node 4, Type 0, BuildingBlock: OLANEW_clean_sbu_2, # of connection points: 3
#     Node 5, Type 0, BuildingBlock: OLANEW_clean_sbu_2, # of connection points: 3
#     Node 6, Type 0, BuildingBlock: OLANEW_clean_sbu_2, # of connection points: 3
#     Node 7, Type 0, BuildingBlock: OLANEW_clean_sbu_2, # of connection points: 3
#     Node 8, Type 1, BuildingBlock: VOLQOD_clean_sbu_1, # of connection points: 6
#     Node 9, Type 1, BuildingBlock: VOLQOD_clean_sbu_1, # of connection points: 6
#     Node 10, Type 1, BuildingBlock: VOLQOD_clean_sbu_1, # of connection points: 6
#     Node 11, Type 1, BuildingBlock: VOLQOD_clean_sbu_1, # of connection points: 6
#     Edge 12, Type (0, 1), BuildingBlock: XIVTED_clean_linker_0, # of connection points: 2
#     Edge 13, Type (0, 1), BuildingBlock: XIVTED_clean_linker_0, # of connection points: 2
#     Edge 14, Type (0, 1), BuildingBlock: XIVTED_clean_linker_0, # of connection points: 2
#     Edge 15, Type (0, 1), BuildingBlock: XIVTED_clean_linker_0, # of connection points: 2
#     Edge 16, Type (0, 1), BuildingBlock: XIVTED_clean_linker_0, # of connection points: 2
#     Edge 17, Type (0, 1), BuildingBlock: XIVTED_clean_linker_0, # of connection points: 2
#     Edge 18, Type (0, 1), BuildingBlock: XIVTED_clean_linker_0, # of connection points: 2
#     Edge 19, Type (0, 1), BuildingBlock: XIVTED_clean_linker_0, # of connection points: 2
#     Edge 20, Type (0, 1), BuildingBlock: XIVTED_clean_linker_0, # of connection points: 2
#     Edge 21, Type (0, 1), BuildingBlock: XIVTED_clean_linker_0, # of connection points: 2
#     Edge 22, Type (0, 1), BuildingBlock: XIVTED_clean_linker_0, # of connection points: 2
#     Edge 23, Type (0, 1), BuildingBlock: XIVTED_clean_linker_0, # of connection points: 2
#     Edge 24, Type (0, 1), BuildingBlock: XIVTED_clean_linker_0, # of connection points: 2
#     Edge 25, Type (0, 1), BuildingBlock: XIVTED_clean_linker_0, # of connection points: 2
#     Edge 26, Type (0, 1), BuildingBlock: XIVTED_clean_linker_0, # of connection points: 2
#     Edge 27, Type (0, 1), BuildingBlock: XIVTED_clean_linker_0, # of connection points: 2
#     Edge 28, Type (0, 1), BuildingBlock: XIVTED_clean_linker_0, # of connection points: 2
#     Edge 29, Type (0, 1), BuildingBlock: XIVTED_clean_linker_0, # of connection points: 2
#     Edge 30, Type (0, 1), BuildingBlock: XIVTED_clean_linker_0, # of connection points: 2
#     Edge 31, Type (0, 1), BuildingBlock: XIVTED_clean_linker_0, # of connection points: 2
#     Edge 32, Type (0, 1), BuildingBlock: XIVTED_clean_linker_0, # of connection points: 2
#     Edge 33, Type (0, 1), BuildingBlock: XIVTED_clean_linker_0, # of connection points: 2
#     Edge 34, Type (0, 1), BuildingBlock: XIVTED_clean_linker_0, # of connection points: 2
#     Edge 35, Type (0, 1), BuildingBlock: XIVTED_clean_linker_0, # of connection points: 2
# Relax obj value: 0.181
# Max RMSD: 0.232
# Mean RMSD: 0.108
data_MOF--net-zzz--node1-OLANEW_clean_sbu_2--node2-VOLQOD_clean_sbu_1--edge1-XIVTED_clean_linker_0
_symmetry_space_group_name_H-M    P1
_symmetry_Int_Tables_number       1
_symmetry_cell_setting            triclinic
loop_
_symmetry_equiv_pos_as_xyz
'x, y, z'
_cell_length_a     55.047625
_cell_length_b     54.781894
_cell_length_c     19.351079
_cell_angle_alpha  90.136547
_cell_angle_beta   89.787359
_cell_angle_gamma 91.084906
loop_
_atom_site_label
_atom_site_type_symbol
_atom_site_fract_x
_atom_site_fract_y
_atom_site_fract_z
_atom_type_partial_charge
O0 O 0.78532 0.39822 0.95784 0.0
Cd1 Cd 0.7443 0.38584 -0.00634 0.0
O2 O 0.79675 0.39094 0.06423 0.0
Cd3 Cd 0.82457 0.39412 0.14393 0.0
O4 O 0.85271 0.40368 0.21869 0.0
C5 C 0.86363 0.42432 0.21572 0.0
O6 O 0.85792 0.43967 0.16656 0.0
C7 C 0.80193 0.39779 0.00318 0.0
C8 C 0.70827 0.40067 0.90287 0.0
O9 O 0.7168 0.37909 0.89908 0.0
O10 O 0.71694 0.4152 0.94895 0.0
O11 O 0.88456 0.76937 0.90106 0.0
Cd12 Cd 0.86583 0.73047 0.935 0.0
O13 O 0.89257 0.77843 0.00931 0.0
Cd14 Cd 0.90391 0.8049 0.08806 0.0
O15 O 0.91516 0.83612 0.15115 0.0
C16 C 0.89924 0.84944 0.17926 0.0
O17 O 0.87613 0.84389 0.17052 0.0
C18 C 0.89342 0.78406 0.94563 0.0
C19 C 0.89455 0.69095 0.89982 0.0
O20 O 0.8792 0.69945 0.85689 0.0
O21 O 0.89634 0.70122 0.95924 0.0
O22 O 0.69983 0.12344 0.93731 0.0
Cd23 Cd 0.73846 0.13855 0.98412 0.0
O24 O 0.68654 0.11706 0.04287 0.0
Cd25 Cd 0.66072 0.10061 0.11604 0.0
O26 O 0.63295 0.08185 0.17787 0.0
C27 C 0.63685 0.06054 0.20047 0.0
O28 O 0.65769 0.0503 0.18637 0.0
C29 C 0.68312 0.11595 0.97797 0.0
C30 C 0.77765 0.1154 0.9217 0.0
O31 O 0.76628 0.10566 0.97287 0.0
O32 O 0.77057 0.13618 0.90005 0.0
O33 O 0.61965 0.70398 0.88697 0.0
Cd34 Cd 0.64262 0.7416 0.90922 0.0
O35 O 0.59959 0.70412 0.98544 0.0
Cd36 Cd 0.57663 0.68491 0.0607 0.0
O37 O 0.56052 0.65517 0.12097 0.0
C38 C 0.57288 0.63589 0.12593 0.0
O39 O 0.59415 0.63509 0.09503 0.0
C40 C 0.60409 0.69419 0.92744 0.0
C41 C 0.61531 0.78223 0.87801 0.0
O42 O 0.61782 0.77532 0.94077 0.0
O43 O 0.62576 0.77003 0.83022 0.0
O44 O 0.21478 0.6268 0.53676 0.0
Cd45 Cd 0.25293 0.64903 0.51542 0.0
O46 O 0.21615 0.61123 0.43205 0.0
Cd47 Cd 0.19839 0.58958 0.35092 0.0
O48 O 0.17187 0.57073 0.28517 0.0
C49 C 0.17711 0.55169 0.25108 0.0
O50 O 0.19919 0.54312 0.25496 0.0
C51 C 0.20569 0.61295 0.49048 0.0
C52 C 0.29278 0.61982 0.54236 0.0
O53 O 0.28369 0.63328 0.58978 0.0
O54 O 0.28307 0.62027 0.48228 0.0
O55 O 0.1273 0.20225 0.48074 0.0
Cd56 Cd 0.15273 0.23769 0.45178 0.0
O57 O 0.12721 0.18945 0.37313 0.0
Cd58 Cd 0.11277 0.16642 0.28974 0.0
O59 O 0.09321 0.14355 0.21514 0.0
C60 C 0.09448 0.1204 0.21496 0.0
O61 O 0.1083 0.10966 0.26052 0.0
C62 C 0.12006 0.18701 0.43536 0.0
C63 C 0.13199 0.27862 0.51204 0.0
O64 O 0.12503 0.27075 0.45279 0.0
O65 O 0.14923 0.26749 0.54228 0.0
O66 O 0.26755 0.87164 0.49375 0.0
Cd67 Cd 0.22839 0.85364 0.46012 0.0
O68 O 0.27148 0.89068 0.39441 0.0
Cd69 Cd 0.29251 0.91193 0.31813 0.0
O70 O 0.31912 0.93116 0.25278 0.0
C71 C 0.34124 0.9251 0.257 0.0
O72 O 0.34713 0.90782 0.30051 0.0
C73 C 0.2798 0.88562 0.45387 0.0
C74 C 0.18891 0.88004 0.50834 0.0
O75 O 0.19805 0.86311 0.54511 0.0
O76 O 0.19859 0.88456 0.44926 0.0
O77 O 0.38495 0.26673 0.41951 0.0
Cd78 Cd 0.36892 0.22731 0.38021 0.0
O79 O 0.3764 0.28421 0.32076 0.0
Cd80 Cd 0.38021 0.31412 0.24635 0.0
O81 O 0.39157 0.34497 0.18186 0.0
C82 C 0.4139 0.35128 0.18325 0.0
O83 O 0.42868 0.33926 0.22343 0.0
C84 C 0.38556 0.28548 0.38097 0.0
C85 C 0.38527 0.1899 0.46478 0.0
O86 O 0.3989 0.19919 0.41752 0.0
O87 O 0.36377 0.19815 0.47207 0.0
O88 O 0.02959 0.96727 0.70825 0.0
Zn89 Zn -0.00068 0.98151 0.75232 0.0
O90 O 0.9806 0.00025 0.68381 0.0
Zn91 Zn 0.97837 0.03429 0.71187 0.0
Zn92 Zn -0.00352 -0.00118 0.5935 0.0
Zn93 Zn 0.94764 0.98698 0.67579 0.0
O94 O 0.9438 0.04489 0.72548 0.0
O95 O 0.9223 0.01094 0.70602 0.0
O96 O 0.0103 0.00344 0.83205 0.0
O97 O -0.00467 0.03924 0.80186 0.0
O98 O -0.00476 0.0567 0.64435 0.0
O99 O 0.00754 0.03208 0.56065 0.0
O100 O 0.97503 0.98253 0.52224 0.0
O101 O 0.97897 0.95296 0.78954 0.0
O102 O 0.9405 0.97552 0.57893 0.0
O103 O 0.94389 0.95746 0.73513 0.0
C104 C 0.03775 0.96794 0.6465 0.0
C105 C 0.92351 0.03338 0.72319 0.0
C106 C 0.00611 0.05331 0.58707 0.0
C107 C 0.00718 0.02612 0.84362 0.0
C108 C 0.95324 0.97431 0.52402 0.0
C109 C 0.95723 0.94587 0.77682 0.0
O110 O 0.02659 0.97917 0.59912 0.0
O111 O 0.46436 0.04129 0.74532 0.0
Zn112 Zn 0.48271 0.01322 0.7882 0.0
O113 O 0.48792 0.98705 0.71907 0.0
Zn114 Zn 0.47347 0.9561 0.74945 0.0
Zn115 Zn 0.47364 -0.00413 0.63047 0.0
Zn116 Zn 0.52248 0.98208 0.70634 0.0
O117 O 0.49788 0.92924 0.7564 0.0
O118 O 0.53284 0.94888 0.73669 0.0
O119 O 0.46306 -0.00015 0.87015 0.0
O120 O 0.45913 0.96038 0.8436 0.0
O121 O 0.44647 0.94479 0.68648 0.0
O122 O 0.44751 0.97188 0.60145 0.0
O123 O 0.49909 -0.00102 0.55508 0.0
O124 O 0.51507 0.02762 0.82221 0.0
O125 O 0.53258 0.98708 0.60775 0.0
O126 O 0.54153 0.00638 0.76098 0.0
C127 C 0.45526 0.0441 0.68543 0.0
C128 C 0.52096 0.92958 0.7528 0.0
C129 C 0.43837 0.9528 0.62949 0.0
C130 C 0.45572 0.97819 0.88465 0.0
C131 C 0.52171 -0.00556 0.55399 0.0
C132 C 0.53689 0.02306 0.80455 0.0
O133 O 0.45737 0.02807 0.63827 0.0
O134 O 0.45157 0.52104 0.68982 0.0
Zn135 Zn 0.48274 0.50608 0.72403 0.0
O136 O 0.49931 0.48849 0.64842 0.0
Zn137 Zn 0.50503 0.45476 0.67481 0.0
Zn138 Zn 0.47951 0.48923 0.5646 0.0
Zn139 Zn 0.53084 0.5035 0.62885 0.0
O140 O 0.54062 0.44675 0.68077 0.0
O141 O 0.55858 0.4814 0.64855 0.0
O142 O 0.474 0.48288 0.80289 0.0
O143 O 0.49107 0.4484 0.76857 0.0
O144 O 0.48838 0.43145 0.60948 0.0
O145 O 0.46943 0.45515 0.53474 0.0
O146 O 0.49722 0.50639 0.48622 0.0
O147 O 0.50428 0.53386 0.76089 0.0
O148 O 0.53338 0.51531 0.53114 0.0
O149 O 0.53614 0.53214 0.69041 0.0
C150 C 0.44058 0.52007 0.63196 0.0
C151 C 0.55979 0.45947 0.66941 0.0
C152 C 0.47458 0.43405 0.55744 0.0
C153 C 0.47917 0.46057 0.81291 0.0
C154 C 0.51855 0.51564 0.48087 0.0
C155 C 0.52498 0.54198 0.74058 0.0
O156 O 0.4492 0.50824 0.58106 0.0
O157 O 0.98821 0.48982 0.60472 0.0
Zn158 Zn 0.00908 0.50502 0.68083 0.0
O159 O 0.01668 0.48085 0.75276 0.0
Zn160 Zn 0.00581 0.49287 0.84266 0.0
Zn161 Zn 0.00039 0.44976 0.733 0.0
Zn162 Zn 0.0515 0.47515 0.75561 0.0
O163 O 0.03333 0.49454 0.91168 0.0
O164 O 0.06496 0.48227 0.85003 0.0
O165 O -0.00901 0.53358 0.72147 0.0
O166 O -0.00739 0.52658 0.83427 0.0
O167 O 0.97789 0.47219 0.87905 0.0
O168 O 0.97577 0.4408 0.8062 0.0
O169 O 0.0238 0.42244 0.71829 0.0
O170 O 0.04016 0.51918 0.63946 0.0
O171 O 0.05986 0.44068 0.72969 0.0
O172 O 0.06894 0.4975 0.68958 0.0
C173 C 0.97874 0.46847 0.599 0.0
C174 C 0.05588 0.48991 0.90651 0.0
C175 C 0.96824 0.45201 0.85962 0.0
C176 C 0.98681 0.54003 0.78364 0.0
C177 C 0.04689 0.42174 0.71687 0.0
C178 C 0.06245 0.51407 0.6479 0.0
O179 O 0.98206 0.45225 0.64476 0.0
H180 H 0.16459 0.87573 0.63209 0.0
H181 H 0.06252 0.97021 0.5242 0.0
H182 H 0.16434 0.91532 0.43947 0.0
H183 H 0.06536 0.9376 0.72693 0.0
H184 H 0.09969 0.94963 0.49304 0.0
H185 H 0.12831 0.89765 0.66854 0.0
C186 C 0.15697 0.88907 0.59755 0.0
C187 C 0.1675 0.89364 0.5325 0.0
C188 C 0.09228 0.94696 0.54445 0.0
C189 C 0.12598 0.91869 0.57381 0.0
C190 C 0.07094 0.95871 0.56235 0.0
C191 C 0.06067 0.95561 0.62837 0.0
C192 C 0.10354 0.93182 0.59262 0.0
C193 C 0.0726 0.94052 0.67547 0.0
C194 C 0.13627 0.90158 0.61843 0.0
C195 C 0.15686 0.91115 0.48998 0.0
N196 N 0.09338 0.9291 0.65659 0.0
N197 N 0.13668 0.92293 0.51128 0.0
H198 H 0.35847 0.15328 0.52535 0.0
H199 H 0.46894 0.09105 0.71689 0.0
H200 H 0.43191 0.18114 0.50345 0.0
H201 H 0.41346 0.04838 0.61291 0.0
H202 H 0.45057 0.12849 0.67202 0.0
H203 H 0.37393 0.11851 0.59095 0.0
C204 C 0.37778 0.15223 0.53516 0.0
C205 C 0.394 0.1699 0.50854 0.0
C206 C 0.44229 0.11089 0.66014 0.0
C207 C 0.41156 0.13077 0.58444 0.0
C208 C 0.4526 0.08964 0.68597 0.0
C209 C 0.44267 0.06674 0.66818 0.0
C210 C 0.4216 0.10907 0.61811 0.0
C211 C 0.42167 0.06577 0.62735 0.0
C212 C 0.38653 0.13244 0.57231 0.0
C213 C 0.41887 0.16771 0.52253 0.0
N214 N 0.41176 0.08666 0.60376 0.0
N215 N 0.42692 0.1485 0.5598 0.0
H216 H 0.31543 0.58865 0.45343 0.0
H217 H 0.41681 0.54923 0.72539 0.0
H218 H 0.31827 0.61553 0.66318 0.0
H219 H 0.41237 0.52206 0.51602 0.0
H220 H 0.38022 0.57285 0.70528 0.0
H221 H 0.35053 0.56348 0.47688 0.0
C222 C 0.32342 0.58926 0.50448 0.0
C223 C 0.31391 0.60429 0.55636 0.0
C224 C 0.38723 0.56165 0.66387 0.0
C225 C 0.35421 0.57544 0.58367 0.0
C226 C 0.40812 0.54812 0.67533 0.0
C227 C 0.41779 0.53366 0.62228 0.0
C228 C 0.37593 0.56073 0.59888 0.0
C229 C 0.40568 0.53297 0.55848 0.0
C230 C 0.34348 0.57484 0.51789 0.0
C231 C 0.32502 0.60425 0.6216 0.0
N232 N 0.38548 0.54635 0.54859 0.0
N233 N 0.34461 0.59009 0.63336 0.0
H234 H 0.14809 0.30641 0.62127 0.0
H235 H 0.02624 0.38235 0.65097 0.0
H236 H 0.08824 0.29804 0.47914 0.0
H237 H 0.09481 0.40966 0.73011 0.0
H238 H 0.04695 0.34689 0.60398 0.0
H239 H 0.1271 0.34046 0.67656 0.0
C240 C 0.13055 0.31172 0.60174 0.0
C241 C 0.11992 0.29947 0.54534 0.0
C242 C 0.05741 0.3606 0.63193 0.0
C243 C 0.09577 0.338 0.60889 0.0
C244 C 0.0456 0.38077 0.65922 0.0
C245 C 0.05884 0.39908 0.69429 0.0
C246 C 0.08259 0.35852 0.64052 0.0
C247 C 0.08392 0.39606 0.70306 0.0
C248 C 0.11864 0.33114 0.63322 0.0
C249 C 0.09717 0.30709 0.52215 0.0
N250 N 0.09501 0.37615 0.67635 0.0
N251 N 0.08579 0.32578 0.55426 0.0
H252 H 0.79027 0.06758 0.93381 0.0
H253 H 0.91626 0.08259 0.73525 0.0
H254 H 0.81222 0.13503 0.83487 0.0
H255 H 0.87994 0.01271 0.76227 0.0
H256 H 0.88001 0.10267 0.77969 0.0
H257 H 0.82496 0.04753 0.88027 0.0
C258 C 0.80239 0.07818 0.90083 0.0
C259 C 0.79838 0.10302 0.88883 0.0
C260 C 0.87995 0.08296 0.77534 0.0
C261 C 0.83817 0.08024 0.82787 0.0
C262 C 0.90063 0.07148 0.75015 0.0
C263 C 0.90116 0.04592 0.74509 0.0
C264 C 0.85981 0.06877 0.79681 0.0
C265 C 0.88033 0.03245 0.76503 0.0
C266 C 0.82211 0.06669 0.87005 0.0
C267 C 0.81462 0.11583 0.84538 0.0
N268 N 0.86061 0.04402 0.79067 0.0
N269 N 0.83393 0.10434 0.8169 0.0
H270 H 0.60883 0.82304 0.95642 0.0
H271 H 0.50755 0.88204 0.72825 0.0
H272 H 0.58903 0.79015 0.7613 0.0
H273 H 0.56462 0.92688 0.81751 0.0
H274 H 0.53041 0.84546 0.75883 0.0
H275 H 0.58548 0.8592 0.92546 0.0
C276 C 0.59943 0.82339 0.90735 0.0
C277 C 0.60087 0.80374 0.86109 0.0
C278 C 0.53782 0.86337 0.77153 0.0
C279 C 0.57396 0.84449 0.82646 0.0
C280 C 0.52483 0.88414 0.75442 0.0
C281 C 0.53435 0.90741 0.77015 0.0
C282 C 0.56 0.86599 0.80646 0.0
C283 C 0.55681 0.90923 0.804 0.0
C284 C 0.58628 0.84398 0.88972 0.0
C285 C 0.58846 0.80507 0.79804 0.0
N286 N 0.56879 0.88874 0.8218 0.0
N287 N 0.57527 0.82505 0.78273 0.0
H288 H 0.67708 0.3718 0.82699 0.0
H289 H 0.60316 0.48439 0.67954 0.0
H290 H 0.69424 0.44714 0.87489 0.0
H291 H 0.5711 0.41232 0.70341 0.0
H292 H 0.64115 0.46939 0.72645 0.0
H293 H 0.64241 0.38516 0.75828 0.0
C294 C 0.67371 0.39114 0.82245 0.0
C295 C 0.68843 0.4084 0.85709 0.0
C296 C 0.62586 0.45683 0.72075 0.0
C297 C 0.64909 0.42371 0.77829 0.0
C298 C 0.60418 0.46532 0.6936 0.0
C299 C 0.58377 0.44965 0.68816 0.0
C300 C 0.62729 0.43244 0.74201 0.0
C301 C 0.58628 0.4251 0.70726 0.0
C302 C 0.65391 0.39872 0.78349 0.0
C303 C 0.68323 0.43322 0.84955 0.0
N304 N 0.60762 0.41726 0.73369 0.0
N305 N 0.66399 0.44013 0.81097 0.0
H306 H 0.92551 0.66619 0.98341 0.0
H307 H 0.96492 0.57074 0.69153 0.0
H308 H 0.89767 0.66727 0.77518 0.0
H309 H 0.98066 0.56251 0.90863 0.0
H310 H 0.94349 0.6084 0.71819 0.0
H311 H 0.94918 0.63039 0.95373 0.0
C312 C 0.92443 0.65895 0.93135 0.0
C313 C 0.9095 0.66969 0.88179 0.0
C314 C 0.95169 0.59834 0.75988 0.0
C315 C 0.93661 0.62868 0.8474 0.0
C316 C 0.96399 0.57688 0.7447 0.0
C317 C 0.97454 0.56335 0.79793 0.0
C318 C 0.95009 0.60642 0.82869 0.0
C319 C 0.97271 0.57222 0.86589 0.0
C320 C 0.93792 0.63847 0.91447 0.0
C321 C 0.90886 0.65951 0.81511 0.0
N322 N 0.96074 0.59315 0.87925 0.0
N323 N 0.92221 0.63956 0.79986 0.0
H324 H 0.08346 0.1902 0.52931 0.0
H325 H 0.03629 0.05244 0.47384 0.0
H326 H 0.11647 0.13995 0.38687 0.0
H327 H 0.00738 0.10121 0.62801 0.0
H328 H 0.06288 0.08553 0.43248 0.0
H329 H 0.05335 0.15866 0.55991 0.0
C330 C 0.08428 0.17252 0.50427 0.0
C331 C 0.10214 0.1678 0.45445 0.0
C332 C 0.05058 0.08903 0.47501 0.0
C333 C 0.06778 0.13162 0.48904 0.0
C334 C 0.03528 0.07017 0.49846 0.0
C335 C 0.01969 0.07396 0.55496 0.0
C336 C 0.05031 0.11183 0.50827 0.0
C337 C 0.0192 0.09736 0.58466 0.0
C338 C 0.06703 0.15457 0.52147 0.0
C339 C 0.10247 0.14461 0.42369 0.0
N340 N 0.03441 0.11533 0.56129 0.0
N341 N 0.08553 0.12735 0.4415 0.0
H342 H 0.30108 0.93014 0.4255 0.0
H343 H 0.41581 0.90976 0.66728 0.0
H344 H 0.31256 0.86319 0.53642 0.0
H345 H 0.41134 0.96878 0.52057 0.0
H346 H 0.37791 0.89249 0.62141 0.0
H347 H 0.3412 0.9449 0.46132 0.0
C348 C 0.31229 0.91829 0.45596 0.0
C349 C 0.30383 0.89507 0.47607 0.0
C350 C 0.38534 0.90911 0.59893 0.0
C351 C 0.34934 0.91229 0.52009 0.0
C352 C 0.40699 0.919 0.62508 0.0
C353 C 0.41675 0.94084 0.59802 0.0
C354 C 0.37322 0.92128 0.54579 0.0
C355 C 0.40451 0.95194 0.54318 0.0
C356 C 0.33509 0.92685 0.4772 0.0
C357 C 0.31852 0.88113 0.51931 0.0
N358 N 0.3833 0.94215 0.5193 0.0
N359 N 0.34057 0.88995 0.53993 0.0
H360 H 0.37471 0.33336 0.3549 0.0
H361 H 0.4843 0.38621 0.58404 0.0
H362 H 0.42541 0.2883 0.46319 0.0
H363 H 0.43863 0.43168 0.45937 0.0
H364 H 0.46313 0.35019 0.53879 0.0
H365 H 0.39786 0.36966 0.39148 0.0
C366 C 0.39097 0.33109 0.38527 0.0
C367 C 0.39855 0.30778 0.40451 0.0
C368 C 0.45779 0.36802 0.521 0.0
C369 C 0.42462 0.34921 0.44864 0.0
C370 C 0.4699 0.38864 0.54681 0.0
C371 C 0.46317 0.41206 0.52577 0.0
C372 C 0.43866 0.37075 0.47404 0.0
C373 C 0.44443 0.414 0.47713 0.0
C374 C 0.40403 0.35182 0.4068 0.0
C375 C 0.41901 0.30595 0.44698 0.0
N376 N 0.43272 0.39362 0.45324 0.0
N377 N 0.43135 0.32638 0.46751 0.0
H378 H 0.19669 0.56516 0.46034 0.0
H379 H 0.06106 0.56188 0.60723 0.0
H380 H 0.16441 0.6281 0.55514 0.0
H381 H 0.10746 0.49928 0.60928 0.0
H382 H 0.0951 0.58668 0.56131 0.0
H383 H 0.16008 0.54102 0.48846 0.0
C384 C 0.18169 0.57396 0.48609 0.0
C385 C 0.18335 0.59864 0.50493 0.0
C386 C 0.09765 0.56745 0.57128 0.0
C387 C 0.14167 0.57122 0.53749 0.0
C388 C 0.07826 0.55329 0.59689 0.0
C389 C 0.08156 0.52856 0.61232 0.0
C390 C 0.12022 0.55662 0.55977 0.0
C391 C 0.10424 0.51833 0.59854 0.0
C392 C 0.16095 0.56017 0.50253 0.0
C393 C 0.16372 0.60907 0.53981 0.0
N394 N 0.12272 0.5324 0.57295 0.0
N395 N 0.14356 0.59531 0.5548 0.0
H396 H 0.93363 0.80863 -0.00514 0.0
H397 H 0.91267 0.92469 0.75454 0.0
H398 H 0.87632 0.81337 0.8445 0.0
H399 H 0.97917 0.91452 0.86792 0.0
H400 H 0.89732 0.88575 0.79762 0.0
H401 H 0.94898 0.84893 0.95853 0.0
C402 C 0.9241 0.81833 0.95486 0.0
C403 C 0.90339 0.80797 0.92355 0.0
C404 C 0.91527 0.892 0.81324 0.0
C405 C 0.92104 0.85369 0.88094 0.0
C406 C 0.92406 0.91435 0.78886 0.0
C407 C 0.94737 0.92293 0.8073 0.0
C408 C 0.92975 0.878 0.8568 0.0
C409 C 0.96115 0.90862 0.85216 0.0
C410 C 0.93301 0.84118 0.9337 0.0
C411 C 0.89228 0.82081 0.87015 0.0
N412 N 0.95213 0.8868 0.87534 0.0
N413 N 0.90115 0.84306 0.85082 0.0
H414 H 0.67939 0.08745 0.86341 0.0
H415 H 0.53666 0.05902 0.90517 0.0
H416 H 0.6363 0.11843 0.02694 0.0
H417 H 0.58444 0.02078 0.76622 0.0
H418 H 0.57176 0.08326 0.94636 0.0
H419 H 0.64327 0.06583 0.82071 0.0
C420 C 0.66227 0.08971 0.89025 0.0
C421 C 0.66092 0.1042 0.94977 0.0
C422 C 0.57445 0.06952 0.90689 0.0
C423 C 0.61944 0.07952 0.90142 0.0
C424 C 0.55445 0.05568 0.88342 0.0
C425 C 0.55755 0.03777 0.83225 0.0
C426 C 0.59759 0.0655 0.87851 0.0
C427 C 0.58105 0.03428 0.80586 0.0
C428 C 0.64167 0.07727 0.86615 0.0
C429 C 0.63826 0.10667 0.98234 0.0
N430 N 0.60006 0.04802 0.82915 0.0
N431 N 0.61838 0.09436 0.9579 0.0
H432 H 0.55698 0.6789 0.95144 0.0
H433 H 0.5719 0.55766 0.72665 0.0
H434 H 0.62386 0.65708 0.85465 0.0
H435 H 0.50516 0.57473 0.83278 0.0
H436 H 0.59117 0.5935 0.77758 0.0
H437 H 0.53775 0.64045 0.91368 0.0
C438 C 0.56777 0.66576 0.92366 0.0
C439 C 0.59221 0.67088 0.90745 0.0
C440 C 0.57234 0.58947 0.79011 0.0
C441 C 0.57014 0.62738 0.86202 0.0
C442 C 0.56124 0.56895 0.76083 0.0
C443 C 0.53676 0.56324 0.77496 0.0
C444 C 0.55892 0.60466 0.83376 0.0
C445 C 0.52405 0.57849 0.82034 0.0
C446 C 0.5567 0.64396 0.90142 0.0
C447 C 0.60501 0.65379 0.86845 0.0
N448 N 0.53525 0.59865 0.84783 0.0
N449 N 0.59383 0.63284 0.84708 0.0
H450 H 0.81624 0.43939 0.93657 0.0
H451 H 0.95165 0.40481 0.87297 0.0
H452 H 0.84396 0.37444 0.03098 0.0
H453 H 0.93317 0.47922 0.92028 0.0
H454 H 0.91131 0.39138 0.91442 0.0
H455 H 0.85818 0.45287 0.91077 0.0
C456 C 0.83119 0.42798 0.95155 0.0
C457 C 0.82685 0.40589 0.98606 0.0
C458 C 0.91631 0.41058 0.91647 0.0
C459 C 0.87439 0.42085 0.956 0.0
C460 C 0.93923 0.41824 0.89297 0.0
C461 C 0.94572 0.44313 0.89356 0.0
C462 C 0.89961 0.42804 0.93837 0.0
C463 C 0.92894 0.45984 0.91958 0.0
C464 C 0.855 0.43572 0.93738 0.0
C465 C 0.84672 0.3917 0.0047 0.0
N466 N 0.90645 0.45204 0.93979 0.0
N467 N 0.86972 0.39928 0.98869 0.0
H468 H 0.06141 0.1367 0.12186 0.0
H469 H 0.03888 0.00706 0.93888 0.0
H470 H 0.09559 0.0709 0.19135 0.0
H471 H 0.00115 0.07297 0.8873 0.0
H472 H 0.0593 0.02919 0.03337 0.0
H473 H 0.03891 0.11285 0.0365 0.0
C474 C 0.06419 0.1172 0.11922 0.0
C475 C 0.08051 0.10582 0.16373 0.0
C476 C 0.04642 0.03869 0.00149 0.0
C477 C 0.05469 0.07824 0.06559 0.0
C478 C 0.03473 0.02607 0.94767 0.0
C479 C 0.01838 0.03818 0.90465 0.0
C480 C 0.04174 0.06357 0.01212 0.0
C481 C 0.01373 0.06284 0.91855 0.0
C482 C 0.05126 0.10354 0.07045 0.0
C483 C 0.08323 0.08044 0.15798 0.0
N484 N 0.02541 0.07467 0.97066 0.0
N485 N 0.07052 0.06749 0.10954 0.0
H486 H 0.33737 0.96532 0.17341 0.0
H487 H 0.45621 0.93672 0.96085 0.0
H488 H 0.38752 0.90975 0.23428 0.0
H489 H 0.42408 0.00787 0.95419 0.0
H490 H 0.43027 0.92613 0.0592 0.0
H491 H 0.36768 0.98103 0.09069 0.0
C492 C 0.35479 0.95652 0.16972 0.0
C493 C 0.35984 0.93604 0.2104 0.0
C494 C 0.42906 0.94418 0.03691 0.0
C495 C 0.39441 0.95381 0.11574 0.0
C496 C 0.44382 0.95021 0.98066 0.0
C497 C 0.4422 0.97317 0.94929 0.0
C498 C 0.4121 0.961 0.06116 0.0
C499 C 0.42592 -0.00999 0.97718 0.0
C500 C 0.37209 0.96558 0.12278 0.0
C501 C 0.38276 0.92549 0.20381 0.0
N502 N 0.41117 0.98345 0.03098 0.0
N503 N 0.39906 0.93429 0.15679 0.0
H504 H 0.38837 0.38438 0.10723 0.0
H505 H 0.50156 0.4236 0.87875 0.0
H506 H 0.46137 0.36216 0.15325 0.0
H507 H 0.43798 0.4683 0.89016 0.0
H508 H 0.48622 0.39967 0.97622 0.0
H509 H 0.405 0.41419 0.02437 0.0
C510 C 0.40788 0.38586 0.10025 0.0
C511 C 0.42351 0.37061 0.1368 0.0
C512 C 0.47572 0.41487 0.95801 0.0
C513 C 0.44252 0.40444 0.04197 0.0
C514 C 0.48442 0.42848 0.90224 0.0
C515 C 0.47096 0.44789 0.8763 0.0
C516 C 0.4531 0.4203 0.98727 0.0
C517 C 0.44893 0.45352 0.90887 0.0
C518 C 0.41733 0.40294 0.05325 0.0
C519 C 0.44862 0.37344 0.12607 0.0
N520 N 0.44046 0.43952 0.96217 0.0
N521 N 0.45732 0.38979 0.07904 0.0
H522 H 0.18348 0.51434 0.15867 0.0
H523 H 0.04573 0.51459 0.02659 0.0
H524 H 0.12873 0.56189 0.24093 0.0
H525 H 0.10371 0.47795 0.91991 0.0
H526 H 0.07455 0.52727 0.11622 0.0
H527 H 0.15311 0.49633 0.08095 0.0
C528 C 0.16505 0.52091 0.16068 0.0
C529 C 0.1587 0.5398 0.206 0.0
C530 C 0.0809 0.5163 0.07341 0.0
C531 C 0.12384 0.5192 0.11732 0.0
C532 C 0.06443 0.50895 0.02236 0.0
C533 C 0.07233 0.49535 0.96522 0.0
C534 C 0.10542 0.50991 0.06753 0.0
C535 C 0.09682 0.4886 0.96264 0.0
C536 C 0.14773 0.51064 0.11622 0.0
C537 C 0.13451 0.54751 0.20645 0.0
N538 N 0.11249 0.49605 0.01282 0.0
N539 N 0.11799 0.53723 0.16265 0.0
H540 H 0.94486 0.86942 0.19503 0.0
H541 H 0.90665 0.95727 0.50345 0.0
H542 H 0.87056 0.87758 0.26214 0.0
H543 H 0.97775 0.95939 0.40829 0.0
H544 H 0.8926 0.92939 0.41277 0.0
H545 H 0.957 0.90316 0.27086 0.0
C546 C 0.93107 0.87836 0.22556 0.0
C547 C 0.90668 0.87053 0.22264 0.0
C548 C 0.9112 0.93619 0.41126 0.0
C549 C 0.92048 0.90917 0.30971 0.0
C550 C 0.91924 0.95214 0.46302 0.0
C551 C 0.9435 0.96054 0.46395 0.0
C552 C 0.92758 0.92833 0.36043 0.0
C553 C 0.95892 0.95334 0.40993 0.0
C554 C 0.93801 0.8977 0.26864 0.0
C555 C 0.88959 0.88293 0.26296 0.0
N556 N 0.95079 0.93742 0.36089 0.0
N557 N 0.89685 0.90149 0.30528 0.0
H558 H 0.642 0.01816 0.27317 0.0
H559 H 0.50918 0.0222 0.44223 0.0
H560 H 0.59003 0.07388 0.22754 0.0
H561 H 0.56775 0.97973 0.52386 0.0
H562 H 0.53593 0.03581 0.34801 0.0
H563 H 0.61232 -0.00126 0.35068 0.0
C564 C 0.6243 0.02623 0.27906 0.0
C565 C 0.61858 0.04783 0.24436 0.0
C566 C 0.54281 0.02332 0.38623 0.0
C567 C 0.58451 0.02561 0.33274 0.0
C568 C 0.52752 0.01542 0.43978 0.0
C569 C 0.53631 -0.0 0.49144 0.0
C570 C 0.56698 0.01557 0.38406 0.0
C571 C 0.56027 -0.00817 0.48562 0.0
C572 C 0.60738 0.01514 0.32339 0.0
C573 C 0.5953 0.05739 0.2538 0.0
N574 N 0.5748 -0.00018 0.43318 0.0
N575 N 0.57914 0.04626 0.29728 0.0
H576 H 0.59881 0.59698 0.17059 0.0
H577 H 0.48895 0.53611 0.38426 0.0
H578 H 0.52719 0.62766 0.17902 0.0
H579 H 0.56446 0.52609 0.43425 0.0
H580 H 0.50145 0.56305 0.28899 0.0
H581 H 0.58495 0.56435 0.24804 0.0
C582 C 0.58011 0.59675 0.18824 0.0
C583 C 0.56419 0.61522 0.16893 0.0
C584 C 0.51523 0.55471 0.32047 0.0
C585 C 0.54823 0.57783 0.25701 0.0
C586 C 0.50814 0.53922 0.37446 0.0
C587 C 0.52571 0.52901 0.41754 0.0
C588 C 0.54003 0.55967 0.30897 0.0
C589 C 0.55032 0.53376 0.40271 0.0
C590 C 0.57225 0.57815 0.23252 0.0
C591 C 0.54013 0.61393 0.19324 0.0
N592 N 0.55675 0.5488 0.34977 0.0
N593 N 0.53288 0.59557 0.23618 0.0
H594 H 0.88829 0.46807 0.23096 0.0
H595 H 0.95817 0.42406 0.56896 0.0
H596 H 0.88072 0.39624 0.32072 0.0
H597 H 0.96379 0.49794 0.49215 0.0
H598 H 0.93154 0.41344 0.47356 0.0
H599 H 0.91756 0.47917 0.32137 0.0
C600 C 0.89283 0.45461 0.26947 0.0
C601 C 0.88195 0.4312 0.26839 0.0
C602 C 0.93858 0.43199 0.47727 0.0
C603 C 0.9154 0.44378 0.37176 0.0
C604 C 0.95386 0.43812 0.53194 0.0
C605 C 0.96321 0.46202 0.53901 0.0
C606 C 0.93243 0.44983 0.42883 0.0
C607 C 0.95698 0.47931 0.4889 0.0
C608 C 0.90951 0.46098 0.32107 0.0
C609 C 0.88854 0.41451 0.31954 0.0
N610 N 0.94189 0.47289 0.43596 0.0
N611 N 0.90477 0.42115 0.36907 0.0
loop_
_geom_bond_atom_site_label_1
_geom_bond_atom_site_label_2
_geom_bond_distance
_geom_bond_site_symmetry_2
_ccdc_geom_bond_type
O0 Cd1 2.300 . S
O0 C7 1.275 . S
Cd1 O0 2.300 . S
Cd1 O9 2.381 . S
Cd1 O10 2.378 1_556 S
O2 Cd3 2.385 . S
O2 C7 1.255 1_554 S
Cd3 O2 2.385 . S
Cd3 O4 2.317 . S
O4 Cd3 2.317 . S
O4 C5 1.232 . S
C5 O4 1.232 . S
C5 O6 1.218 . S
O6 C5 1.218 . S
C7 O0 1.275 . S
C7 O2 1.255 1_556 S
C8 O9 1.258 . S
C8 O10 1.256 1_556 S
O9 Cd1 2.381 . S
O9 C8 1.258 . S
O10 Cd1 2.378 1_554 S
O10 C8 1.256 1_554 S
O11 Cd12 2.300 1_655 S
O11 C18 1.275 1_655 S
Cd12 O11 2.300 1_455 S
Cd12 O20 2.381 1_455 S
Cd12 O21 2.378 . S
O13 Cd14 2.385 . S
O13 C18 1.255 . S
Cd14 O13 2.385 . S
Cd14 O15 2.317 . S
O15 Cd14 2.317 . S
O15 C16 1.232 . S
C16 O15 1.232 . S
C16 O17 1.218 . S
O17 C16 1.218 . S
C18 O11 1.275 1_455 S
C18 O13 1.255 . S
C19 O20 1.254 1_455 S
C19 O21 1.261 . S
O20 Cd12 2.381 1_655 S
O20 C19 1.254 1_655 S
O21 Cd12 2.378 . S
O21 C19 1.261 . S
O22 Cd23 2.300 1_566 S
O22 C29 1.273 1_566 S
Cd23 O22 2.300 1_544 S
Cd23 O31 2.381 1_544 S
Cd23 O32 2.378 . S
O24 Cd25 2.385 . S
O24 C29 1.260 . S
Cd25 O24 2.385 . S
Cd25 O26 2.317 . S
O26 Cd25 2.317 . S
O26 C27 1.232 . S
C27 O26 1.232 . S
C27 O28 1.218 . S
O28 C27 1.218 . S
C29 O22 1.273 1_544 S
C29 O24 1.260 . S
C30 O31 1.258 1_544 S
C30 O32 1.256 . S
O31 Cd23 2.381 1_566 S
O31 C30 1.258 1_566 S
O32 Cd23 2.378 . S
O32 C30 1.256 . S
O33 Cd34 2.300 1_556 S
O33 C40 1.275 . S
Cd34 O33 2.300 1_554 S
Cd34 O42 2.381 1_554 S
Cd34 O43 2.378 . S
O35 Cd36 2.385 . S
O35 C40 1.255 1_554 S
Cd36 O35 2.385 . S
Cd36 O37 2.317 . S
O37 Cd36 2.317 . S
O37 C38 1.232 . S
C38 O37 1.232 . S
C38 O39 1.218 . S
O39 C38 1.218 . S
C40 O33 1.275 . S
C40 O35 1.255 1_556 S
C41 O42 1.258 . S
C41 O43 1.256 1_556 S
O42 Cd34 2.381 1_556 S
O42 C41 1.258 . S
O43 Cd34 2.378 . S
O43 C41 1.256 1_554 S
O44 Cd45 2.300 . S
O44 C51 1.275 . S
Cd45 O44 2.300 . S
Cd45 O53 2.381 . S
Cd45 O54 2.378 . S
O46 Cd47 2.385 . S
O46 C51 1.255 . S
Cd47 O46 2.385 . S
Cd47 O48 2.317 . S
O48 Cd47 2.317 . S
O48 C49 1.232 . S
C49 O48 1.232 . S
C49 O50 1.218 . S
O50 C49 1.218 . S
C51 O44 1.275 . S
C51 O46 1.255 . S
C52 O53 1.258 . S
C52 O54 1.256 . S
O53 Cd45 2.381 . S
O53 C52 1.258 . S
O54 Cd45 2.378 . S
O54 C52 1.256 . S
O55 Cd56 2.300 . S
O55 C62 1.275 . S
Cd56 O55 2.300 . S
Cd56 O64 2.381 . S
Cd56 O65 2.378 . S
O57 Cd58 2.385 . S
O57 C62 1.255 . S
Cd58 O57 2.385 . S
Cd58 O59 2.317 . S
O59 Cd58 2.317 . S
O59 C60 1.232 . S
C60 O59 1.232 . S
C60 O61 1.218 . S
O61 C60 1.218 . S
C62 O55 1.275 . S
C62 O57 1.255 . S
C63 O64 1.258 . S
C63 O65 1.256 . S
O64 Cd56 2.381 . S
O64 C63 1.258 . S
O65 Cd56 2.378 . S
O65 C63 1.256 . S
O66 Cd67 2.300 . S
O66 C73 1.275 . S
Cd67 O66 2.300 . S
Cd67 O75 2.381 1_545 S
Cd67 O76 2.378 . S
O68 Cd69 2.385 . S
O68 C73 1.255 . S
Cd69 O68 2.385 . S
Cd69 O70 2.317 . S
O70 Cd69 2.317 . S
O70 C71 1.232 . S
C71 O70 1.232 . S
C71 O72 1.218 . S
O72 C71 1.218 . S
C73 O66 1.275 . S
C73 O68 1.255 . S
C74 O75 1.258 1_545 S
C74 O76 1.256 . S
O75 Cd67 2.381 1_565 S
O75 C74 1.258 1_565 S
O76 Cd67 2.378 . S
O76 C74 1.256 . S
O77 Cd78 2.300 . S
O77 C84 1.275 . S
Cd78 O77 2.300 . S
Cd78 O86 2.381 . S
Cd78 O87 2.378 . S
O79 Cd80 2.385 . S
O79 C84 1.255 . S
Cd80 O79 2.385 . S
Cd80 O81 2.317 . S
O81 Cd80 2.317 . S
O81 C82 1.232 . S
C82 O81 1.232 . S
C82 O83 1.218 . S
O83 C82 1.218 . S
C84 O77 1.275 . S
C84 O79 1.255 . S
C85 O86 1.258 . S
C85 O87 1.256 . S
O86 Cd78 2.381 . S
O86 C85 1.258 . S
O87 Cd78 2.378 . S
O87 C85 1.256 . S
O88 Zn89 1.953 . S
O88 C104 1.225 1_545 S
Zn89 O88 1.953 . S
Zn89 O90 1.949 1_545 S
Zn89 O96 1.924 . S
Zn89 O101 1.918 1_545 S
O90 Zn89 1.949 1_565 S
O90 Zn91 1.881 1_465 S
O90 Zn92 1.952 . S
O90 Zn93 1.965 1_455 S
Zn91 O90 1.881 1_645 S
Zn91 O94 1.968 . S
Zn91 O97 1.929 1_655 S
Zn91 O98 1.962 1_655 S
Zn92 O90 1.952 . S
Zn92 O99 1.938 1_565 S
Zn92 O100 1.906 . S
Zn92 O110 1.953 . S
Zn93 O90 1.965 1_655 S
Zn93 O95 1.932 . S
Zn93 O102 1.977 . S
Zn93 O103 1.910 1_655 S
O94 Zn91 1.968 . S
O94 C105 1.226 . S
O95 Zn93 1.932 . S
O95 C105 1.307 1_565 S
O96 Zn89 1.924 . S
O96 C107 1.253 . S
O97 Zn91 1.929 1_455 S
O97 C107 1.283 . S
O98 Zn91 1.962 1_455 S
O98 C106 1.303 . S
O99 Zn92 1.938 1_545 S
O99 C106 1.247 . S
O100 Zn92 1.906 . S
O100 C108 1.304 1_455 S
O101 Zn89 1.918 1_565 S
O101 C109 1.311 . S
O102 Zn93 1.977 . S
O102 C108 1.272 . S
O103 Zn93 1.910 1_455 S
O103 C109 1.231 . S
C104 O88 1.225 1_565 S
C104 O110 1.298 . S
C105 O94 1.226 . S
C105 O95 1.307 1_545 S
C106 O98 1.303 . S
C106 O99 1.247 . S
C107 O96 1.253 . S
C107 O97 1.283 . S
C108 O100 1.304 1_655 S
C108 O102 1.272 . S
C109 O101 1.311 . S
C109 O103 1.231 . S
O110 Zn92 1.953 . S
O110 C104 1.298 . S
O111 Zn112 1.953 . S
O111 C127 1.225 . S
Zn112 O111 1.953 . S
Zn112 O113 1.949 . S
Zn112 O119 1.919 . S
Zn112 O124 1.924 . S
O113 Zn112 1.949 . S
O113 Zn114 1.923 1_545 S
O113 Zn115 1.950 . S
O113 Zn116 1.945 1_545 S
Zn114 O113 1.923 1_565 S
Zn114 O117 1.933 . S
Zn114 O120 1.941 . S
Zn114 O121 1.965 . S
Zn115 O113 1.950 . S
Zn115 O122 1.938 . S
Zn115 O123 1.906 . S
Zn115 O133 1.953 . S
Zn116 O113 1.945 1_565 S
Zn116 O118 1.932 . S
Zn116 O125 1.977 . S
Zn116 O126 1.910 1_565 S
O117 Zn114 1.933 . S
O117 C128 1.226 . S
O118 Zn116 1.932 . S
O118 C128 1.307 . S
O119 Zn112 1.919 . S
O119 C130 1.253 . S
O120 Zn114 1.941 . S
O120 C130 1.283 1_565 S
O121 Zn114 1.965 . S
O121 C129 1.303 1_565 S
O122 Zn115 1.938 . S
O122 C129 1.247 . S
O123 Zn115 1.906 . S
O123 C131 1.304 1_545 S
O124 Zn112 1.924 . S
O124 C132 1.311 . S
O125 Zn116 1.977 . S
O125 C131 1.272 . S
O126 Zn116 1.910 1_545 S
O126 C132 1.231 . S
C127 O111 1.225 . S
C127 O133 1.298 . S
C128 O117 1.226 . S
C128 O118 1.307 . S
C129 O121 1.303 1_545 S
C129 O122 1.247 . S
C130 O119 1.253 . S
C130 O120 1.283 1_545 S
C131 O123 1.304 1_565 S
C131 O125 1.272 . S
C132 O124 1.311 . S
C132 O126 1.231 . S
O133 Zn115 1.953 . S
O133 C127 1.298 . S
O134 Zn135 1.953 . S
O134 C150 1.225 . S
Zn135 O134 1.953 . S
Zn135 O136 1.949 . S
Zn135 O142 1.919 . S
Zn135 O147 1.924 . S
O136 Zn135 1.949 . S
O136 Zn137 1.923 . S
O136 Zn138 1.950 . S
O136 Zn139 1.945 . S
Zn137 O136 1.923 . S
Zn137 O140 1.933 . S
Zn137 O143 1.941 . S
Zn137 O144 1.965 . S
Zn138 O136 1.950 . S
Zn138 O145 1.938 . S
Zn138 O146 1.906 . S
Zn138 O156 1.953 . S
Zn139 O136 1.945 . S
Zn139 O141 1.932 . S
Zn139 O148 1.977 . S
Zn139 O149 1.910 . S
O140 Zn137 1.933 . S
O140 C151 1.226 . S
O141 Zn139 1.932 . S
O141 C151 1.307 . S
O142 Zn135 1.919 . S
O142 C153 1.253 . S
O143 Zn137 1.941 . S
O143 C153 1.283 . S
O144 Zn137 1.965 . S
O144 C152 1.303 . S
O145 Zn138 1.938 . S
O145 C152 1.247 . S
O146 Zn138 1.906 . S
O146 C154 1.304 . S
O147 Zn135 1.924 . S
O147 C155 1.311 . S
O148 Zn139 1.977 . S
O148 C154 1.272 . S
O149 Zn139 1.910 . S
O149 C155 1.231 . S
C150 O134 1.225 . S
C150 O156 1.298 . S
C151 O140 1.226 . S
C151 O141 1.307 . S
C152 O144 1.303 . S
C152 O145 1.247 . S
C153 O142 1.253 . S
C153 O143 1.283 . S
C154 O146 1.304 . S
C154 O148 1.272 . S
C155 O147 1.311 . S
C155 O149 1.231 . S
O156 Zn138 1.953 . S
O156 C150 1.298 . S
O157 Zn158 1.953 1_655 S
O157 C173 1.225 . S
Zn158 O157 1.953 1_455 S
Zn158 O159 1.949 . S
Zn158 O165 1.919 . S
Zn158 O170 1.924 . S
O159 Zn158 1.949 . S
O159 Zn160 1.917 1_455 S
O159 Zn161 1.929 1_455 S
O159 Zn162 1.973 . S
Zn160 O159 1.917 1_655 S
Zn160 O163 1.933 1_655 S
Zn160 O166 1.941 . S
Zn160 O167 1.965 . S
Zn161 O159 1.929 1_655 S
Zn161 O168 1.938 . S
Zn161 O169 1.906 . S
Zn161 O179 1.953 . S
Zn162 O159 1.973 . S
Zn162 O164 1.932 . S
Zn162 O171 1.977 . S
Zn162 O172 1.910 . S
O163 Zn160 1.933 1_455 S
O163 C174 1.226 . S
O164 Zn162 1.932 . S
O164 C174 1.307 . S
O165 Zn158 1.919 . S
O165 C176 1.252 1_455 S
O166 Zn160 1.941 . S
O166 C176 1.287 . S
O167 Zn160 1.965 . S
O167 C175 1.303 . S
O168 Zn161 1.938 . S
O168 C175 1.247 . S
O169 Zn161 1.906 . S
O169 C177 1.304 1_655 S
O170 Zn158 1.924 . S
O170 C178 1.311 . S
O171 Zn162 1.977 . S
O171 C177 1.272 . S
O172 Zn162 1.910 . S
O172 C178 1.231 . S
C173 O157 1.225 . S
C173 O179 1.298 . S
C174 O163 1.226 . S
C174 O164 1.307 . S
C175 O167 1.303 . S
C175 O168 1.247 . S
C176 O165 1.252 1_655 S
C176 O166 1.287 . S
C177 O169 1.304 1_455 S
C177 O171 1.272 . S
C178 O170 1.311 . S
C178 O172 1.231 . S
O179 Zn161 1.953 . S
O179 C173 1.298 . S
H180 C186 0.930 . S
H181 C190 0.930 . S
H182 C195 0.929 . S
H183 C193 0.929 . S
H184 C188 0.929 . S
H185 C194 0.929 . S
C186 H180 0.930 . S
C186 C187 1.367 1_565 S
C186 C194 1.378 . S
C187 C186 1.367 1_545 S
C187 C195 1.433 . S
C188 H184 0.929 . S
C188 C190 1.378 . S
C188 C192 1.350 . S
C189 C192 1.463 . S
C189 C194 1.350 1_545 S
C189 N197 1.427 . S
C190 H181 0.930 . S
C190 C188 1.378 . S
C190 C191 1.367 1_545 S
C191 C190 1.367 1_565 S
C191 C193 1.433 . S
C192 C188 1.350 . S
C192 C189 1.463 . S
C192 N196 1.427 1_545 S
C193 H183 0.929 . S
C193 C191 1.433 . S
C193 N196 1.384 . S
C194 H185 0.929 . S
C194 C186 1.378 . S
C194 C189 1.350 1_565 S
C195 H182 0.929 . S
C195 C187 1.433 . S
C195 N197 1.384 . S
N196 C192 1.427 1_565 S
N196 C193 1.384 . S
N197 C189 1.427 . S
N197 C195 1.384 . S
H198 C204 0.930 . S
H199 C208 0.930 . S
H200 C213 0.929 . S
H201 C211 0.929 . S
H202 C206 0.929 . S
H203 C212 0.929 . S
C204 H198 0.930 . S
C204 C205 1.367 . S
C204 C212 1.378 . S
C205 C204 1.367 . S
C205 C213 1.433 . S
C206 H202 0.929 . S
C206 C208 1.378 . S
C206 C210 1.350 . S
C207 C210 1.463 . S
C207 C212 1.350 . S
C207 N215 1.427 . S
C208 H199 0.930 . S
C208 C206 1.378 . S
C208 C209 1.367 . S
C209 C208 1.367 . S
C209 C211 1.433 . S
C210 C206 1.350 . S
C210 C207 1.463 . S
C210 N214 1.427 . S
C211 H201 0.929 . S
C211 C209 1.433 . S
C211 N214 1.384 . S
C212 H203 0.929 . S
C212 C204 1.378 . S
C212 C207 1.350 . S
C213 H200 0.929 . S
C213 C205 1.433 . S
C213 N215 1.384 . S
N214 C210 1.427 . S
N214 C211 1.384 . S
N215 C207 1.427 . S
N215 C213 1.384 . S
H216 C222 0.930 . S
H217 C226 0.930 . S
H218 C231 0.929 . S
H219 C229 0.929 . S
H220 C224 0.929 . S
H221 C230 0.929 . S
C222 H216 0.930 . S
C222 C223 1.367 . S
C222 C230 1.378 . S
C223 C222 1.367 . S
C223 C231 1.433 . S
C224 H220 0.929 . S
C224 C226 1.378 . S
C224 C228 1.350 . S
C225 C228 1.463 . S
C225 C230 1.350 . S
C225 N233 1.427 . S
C226 H217 0.930 . S
C226 C224 1.378 . S
C226 C227 1.367 . S
C227 C226 1.367 . S
C227 C229 1.433 . S
C228 C224 1.350 . S
C228 C225 1.463 . S
C228 N232 1.427 . S
C229 H219 0.929 . S
C229 C227 1.433 . S
C229 N232 1.384 . S
C230 H221 0.929 . S
C230 C222 1.378 . S
C230 C225 1.350 . S
C231 H218 0.929 . S
C231 C223 1.433 . S
C231 N233 1.384 . S
N232 C228 1.427 . S
N232 C229 1.384 . S
N233 C225 1.427 . S
N233 C231 1.384 . S
H234 C240 0.930 . S
H235 C244 0.930 1_655 S
H236 C249 0.929 . S
H237 C247 0.929 . S
H238 C242 0.929 . S
H239 C248 0.929 . S
C240 H234 0.930 . S
C240 C241 1.367 . S
C240 C248 1.378 . S
C241 C240 1.367 . S
C241 C249 1.433 . S
C242 H238 0.929 . S
C242 C244 1.378 . S
C242 C246 1.350 . S
C243 C246 1.463 . S
C243 C248 1.350 . S
C243 N251 1.427 . S
C244 H235 0.930 1_455 S
C244 C242 1.378 . S
C244 C245 1.367 . S
C245 C244 1.367 . S
C245 C247 1.433 . S
C246 C242 1.350 . S
C246 C243 1.463 . S
C246 N250 1.427 . S
C247 H237 0.929 . S
C247 C245 1.433 . S
C247 N250 1.384 . S
C248 H239 0.929 . S
C248 C240 1.378 . S
C248 C243 1.350 . S
C249 H236 0.929 . S
C249 C241 1.433 . S
C249 N251 1.384 . S
N250 C246 1.427 . S
N250 C247 1.384 . S
N251 C243 1.427 . S
N251 C249 1.384 . S
H252 C258 0.930 . S
H253 C262 0.930 . S
H254 C267 0.929 . S
H255 C265 0.929 . S
H256 C260 0.929 . S
H257 C266 0.929 . S
C258 H252 0.930 . S
C258 C259 1.374 . S
C258 C266 1.378 . S
C259 C258 1.374 . S
C259 C267 1.427 1_566 S
C260 H256 0.929 . S
C260 C262 1.378 . S
C260 C264 1.350 . S
C261 C264 1.463 . S
C261 C266 1.346 1_545 S
C261 N269 1.432 . S
C262 H253 0.930 . S
C262 C260 1.378 . S
C262 C263 1.367 . S
C263 C262 1.367 . S
C263 C265 1.433 1_545 S
C264 C260 1.350 . S
C264 C261 1.463 . S
C264 N268 1.427 1_545 S
C265 H255 0.929 . S
C265 C263 1.433 1_565 S
C265 N268 1.384 . S
C266 H257 0.929 . S
C266 C258 1.378 . S
C266 C261 1.346 1_565 S
C267 H254 0.929 . S
C267 C259 1.427 1_544 S
C267 N269 1.384 1_554 S
N268 C264 1.427 1_565 S
N268 C265 1.384 . S
N269 C261 1.432 . S
N269 C267 1.384 1_556 S
H270 C276 0.928 1_554 S
H271 C280 0.930 . S
H272 C285 0.929 . S
H273 C283 0.929 . S
H274 C278 0.929 . S
H275 C284 0.929 . S
C276 H270 0.928 1_556 S
C276 C277 1.368 . S
C276 C284 1.379 . S
C277 C276 1.368 . S
C277 C285 1.433 . S
C278 H274 0.929 . S
C278 C280 1.378 . S
C278 C282 1.350 . S
C279 C282 1.463 . S
C279 C284 1.350 . S
C279 N287 1.427 . S
C280 H271 0.930 . S
C280 C278 1.378 . S
C280 C281 1.367 . S
C281 C280 1.367 . S
C281 C283 1.433 . S
C282 C278 1.350 . S
C282 C279 1.463 . S
C282 N286 1.427 . S
C283 H273 0.929 . S
C283 C281 1.433 . S
C283 N286 1.384 . S
C284 H275 0.929 . S
C284 C276 1.379 . S
C284 C279 1.350 . S
C285 H272 0.929 . S
C285 C277 1.433 . S
C285 N287 1.384 . S
N286 C282 1.427 . S
N286 C283 1.384 . S
N287 C279 1.427 . S
N287 C285 1.384 . S
H288 C294 0.930 . S
H289 C298 0.930 . S
H290 C303 0.929 1_554 S
H291 C301 0.929 . S
H292 C296 0.929 . S
H293 C302 0.929 . S
C294 H288 0.930 . S
C294 C295 1.367 . S
C294 C302 1.378 . S
C295 C294 1.367 . S
C295 C303 1.433 . S
C296 H292 0.929 . S
C296 C298 1.378 . S
C296 C300 1.350 . S
C297 C300 1.463 . S
C297 C302 1.350 . S
C297 N305 1.427 . S
C298 H289 0.930 . S
C298 C296 1.378 . S
C298 C299 1.367 . S
C299 C298 1.367 . S
C299 C301 1.433 . S
C300 C296 1.350 . S
C300 C297 1.463 . S
C300 N304 1.427 . S
C301 H291 0.929 . S
C301 C299 1.433 . S
C301 N304 1.384 . S
C302 H293 0.929 . S
C302 C294 1.378 . S
C302 C297 1.350 . S
C303 H290 0.929 1_556 S
C303 C295 1.433 . S
C303 N305 1.384 . S
N304 C300 1.427 . S
N304 C301 1.384 . S
N305 C297 1.427 . S
N305 C303 1.384 . S
H306 C312 0.930 . S
H307 C316 0.930 . S
H308 C321 0.929 . S
H309 C319 0.929 . S
H310 C314 0.929 . S
H311 C320 0.929 1_554 S
C312 H306 0.930 . S
C312 C313 1.367 . S
C312 C320 1.378 1_554 S
C313 C312 1.367 . S
C313 C321 1.433 1_654 S
C314 H310 0.929 . S
C314 C316 1.378 . S
C314 C318 1.350 . S
C315 C318 1.462 1_655 S
C315 C320 1.354 . S
C315 N323 1.424 1_655 S
C316 H307 0.930 . S
C316 C314 1.378 . S
C316 C317 1.367 . S
C317 C316 1.367 . S
C317 C319 1.433 1_455 S
C318 C314 1.350 . S
C318 C315 1.462 1_455 S
C318 N322 1.427 1_455 S
C319 H309 0.929 . S
C319 C317 1.433 1_655 S
C319 N322 1.384 . S
C320 H311 0.929 1_556 S
C320 C312 1.378 1_556 S
C320 C315 1.354 . S
C321 H308 0.929 . S
C321 C313 1.433 1_456 S
C321 N323 1.384 . S
N322 C318 1.427 1_655 S
N322 C319 1.384 . S
N323 C315 1.424 1_455 S
N323 C321 1.384 . S
H324 C330 0.930 . S
H325 C334 0.930 . S
H326 C339 0.929 . S
H327 C337 0.929 . S
H328 C332 0.929 . S
H329 C338 0.929 . S
C330 H324 0.930 . S
C330 C331 1.367 . S
C330 C338 1.378 . S
C331 C330 1.367 . S
C331 C339 1.433 . S
C332 H328 0.929 . S
C332 C334 1.378 . S
C332 C336 1.350 . S
C333 C336 1.463 . S
C333 C338 1.350 . S
C333 N341 1.427 . S
C334 H325 0.930 . S
C334 C332 1.378 . S
C334 C335 1.367 . S
C335 C334 1.367 . S
C335 C337 1.433 . S
C336 C332 1.350 . S
C336 C333 1.463 . S
C336 N340 1.427 . S
C337 H327 0.929 . S
C337 C335 1.433 . S
C337 N340 1.384 . S
C338 H329 0.929 . S
C338 C330 1.378 . S
C338 C333 1.350 . S
C339 H326 0.929 . S
C339 C331 1.433 . S
C339 N341 1.384 . S
N340 C336 1.427 . S
N340 C337 1.384 . S
N341 C333 1.427 . S
N341 C339 1.384 . S
H342 C348 0.930 . S
H343 C352 0.930 . S
H344 C357 0.929 . S
H345 C355 0.929 . S
H346 C350 0.929 . S
H347 C356 0.929 . S
C348 H342 0.930 . S
C348 C349 1.367 . S
C348 C356 1.378 . S
C349 C348 1.367 . S
C349 C357 1.433 1_545 S
C350 H346 0.929 . S
C350 C352 1.378 . S
C350 C354 1.350 1_565 S
C351 C354 1.463 . S
C351 C356 1.350 . S
C351 N359 1.427 1_545 S
C352 H343 0.930 . S
C352 C350 1.378 . S
C352 C353 1.367 1_565 S
C353 C352 1.367 1_545 S
C353 C355 1.433 . S
C354 C350 1.350 1_545 S
C354 C351 1.463 . S
C354 N358 1.427 . S
C355 H345 0.929 . S
C355 C353 1.433 . S
C355 N358 1.384 . S
C356 H347 0.929 . S
C356 C348 1.378 . S
C356 C351 1.350 . S
C357 H344 0.929 . S
C357 C349 1.433 1_565 S
C357 N359 1.384 . S
N358 C354 1.427 . S
N358 C355 1.384 . S
N359 C351 1.427 1_565 S
N359 C357 1.384 . S
H360 C366 0.930 . S
H361 C370 0.930 . S
H362 C375 0.929 . S
H363 C373 0.929 . S
H364 C368 0.929 . S
H365 C374 0.929 . S
C366 H360 0.930 . S
C366 C367 1.367 . S
C366 C374 1.378 . S
C367 C366 1.367 . S
C367 C375 1.433 . S
C368 H364 0.929 . S
C368 C370 1.378 . S
C368 C372 1.350 . S
C369 C372 1.463 . S
C369 C374 1.350 . S
C369 N377 1.427 . S
C370 H361 0.930 . S
C370 C368 1.378 . S
C370 C371 1.367 . S
C371 C370 1.367 . S
C371 C373 1.433 . S
C372 C368 1.350 . S
C372 C369 1.463 . S
C372 N376 1.427 . S
C373 H363 0.929 . S
C373 C371 1.433 . S
C373 N376 1.384 . S
C374 H365 0.929 . S
C374 C366 1.378 . S
C374 C369 1.350 . S
C375 H362 0.929 . S
C375 C367 1.433 . S
C375 N377 1.384 . S
N376 C372 1.427 . S
N376 C373 1.384 . S
N377 C369 1.427 . S
N377 C375 1.384 . S
H378 C384 0.930 . S
H379 C388 0.930 . S
H380 C393 0.929 . S
H381 C391 0.929 . S
H382 C386 0.929 . S
H383 C392 0.929 . S
C384 H378 0.930 . S
C384 C385 1.367 . S
C384 C392 1.378 . S
C385 C384 1.367 . S
C385 C393 1.433 . S
C386 H382 0.929 . S
C386 C388 1.378 . S
C386 C390 1.350 . S
C387 C390 1.463 . S
C387 C392 1.350 . S
C387 N395 1.427 . S
C388 H379 0.930 . S
C388 C386 1.378 . S
C388 C389 1.367 . S
C389 C388 1.367 . S
C389 C391 1.433 . S
C390 C386 1.350 . S
C390 C387 1.463 . S
C390 N394 1.427 . S
C391 H381 0.929 . S
C391 C389 1.433 . S
C391 N394 1.384 . S
C392 H383 0.929 . S
C392 C384 1.378 . S
C392 C387 1.350 . S
C393 H380 0.929 . S
C393 C385 1.433 . S
C393 N395 1.384 . S
N394 C390 1.427 . S
N394 C391 1.384 . S
N395 C387 1.427 . S
N395 C393 1.384 . S
H396 C402 0.930 . S
H397 C406 0.930 . S
H398 C411 0.929 . S
H399 C409 0.929 . S
H400 C404 0.929 1_655 S
H401 C410 0.929 . S
C402 H396 0.930 . S
C402 C403 1.367 . S
C402 C410 1.378 . S
C403 C402 1.367 . S
C403 C411 1.433 1_454 S
C404 H400 0.929 1_455 S
C404 C406 1.378 . S
C404 C408 1.350 . S
C405 C408 1.463 . S
C405 C410 1.350 1_556 S
C405 N413 1.427 1_455 S
C406 H397 0.930 . S
C406 C404 1.378 . S
C406 C407 1.367 . S
C407 C406 1.367 . S
C407 C409 1.433 . S
C408 C404 1.350 . S
C408 C405 1.463 . S
C408 N412 1.427 . S
C409 H399 0.929 . S
C409 C407 1.433 . S
C409 N412 1.384 . S
C410 H401 0.929 . S
C410 C402 1.378 . S
C410 C405 1.350 1_554 S
C411 H398 0.929 . S
C411 C403 1.433 1_656 S
C411 N413 1.384 . S
N412 C408 1.427 . S
N412 C409 1.384 . S
N413 C405 1.427 1_655 S
N413 C411 1.384 . S
H414 C420 0.930 . S
H415 C424 0.930 . S
H416 C429 0.929 . S
H417 C427 0.929 . S
H418 C422 0.929 . S
H419 C428 0.929 1_554 S
C420 H414 0.930 . S
C420 C421 1.366 1_554 S
C420 C428 1.378 1_554 S
C421 C420 1.366 1_556 S
C421 C429 1.434 1_565 S
C422 H418 0.929 . S
C422 C424 1.378 . S
C422 C426 1.350 . S
C423 C426 1.463 . S
C423 C428 1.350 1_545 S
C423 N431 1.427 . S
C424 H415 0.930 . S
C424 C422 1.378 . S
C424 C425 1.367 . S
C425 C424 1.367 . S
C425 C427 1.433 . S
C426 C422 1.350 . S
C426 C423 1.463 . S
C426 N430 1.427 . S
C427 H417 0.929 . S
C427 C425 1.433 . S
C427 N430 1.384 . S
C428 H419 0.929 1_556 S
C428 C420 1.378 1_556 S
C428 C423 1.350 1_565 S
C429 H416 0.929 . S
C429 C421 1.434 1_545 S
C429 N431 1.384 . S
N430 C426 1.427 . S
N430 C427 1.384 . S
N431 C423 1.427 . S
N431 C429 1.384 . S
H432 C438 0.930 . S
H433 C442 0.930 . S
H434 C447 0.929 . S
H435 C445 0.929 . S
H436 C440 0.929 . S
H437 C446 0.929 . S
C438 H432 0.930 . S
C438 C439 1.367 . S
C438 C446 1.378 . S
C439 C438 1.367 . S
C439 C447 1.433 . S
C440 H436 0.929 . S
C440 C442 1.378 . S
C440 C444 1.350 . S
C441 C444 1.463 . S
C441 C446 1.350 . S
C441 N449 1.427 . S
C442 H433 0.930 . S
C442 C440 1.378 . S
C442 C443 1.367 . S
C443 C442 1.367 . S
C443 C445 1.433 . S
C444 C440 1.350 . S
C444 C441 1.463 . S
C444 N448 1.427 . S
C445 H435 0.929 . S
C445 C443 1.433 . S
C445 N448 1.384 . S
C446 H437 0.929 . S
C446 C438 1.378 . S
C446 C441 1.350 . S
C447 H434 0.929 . S
C447 C439 1.433 . S
C447 N449 1.384 . S
N448 C444 1.427 . S
N448 C445 1.384 . S
N449 C441 1.427 . S
N449 C447 1.384 . S
H450 C456 0.930 . S
H451 C460 0.930 . S
H452 C465 0.929 . S
H453 C463 0.929 . S
H454 C458 0.929 . S
H455 C464 0.929 . S
C456 H450 0.930 . S
C456 C457 1.367 . S
C456 C464 1.378 . S
C457 C456 1.367 . S
C457 C465 1.433 . S
C458 H454 0.929 . S
C458 C460 1.378 . S
C458 C462 1.350 . S
C459 C462 1.463 . S
C459 C464 1.350 . S
C459 N467 1.427 . S
C460 H451 0.930 . S
C460 C458 1.378 . S
C460 C461 1.367 . S
C461 C460 1.367 . S
C461 C463 1.433 . S
C462 C458 1.350 . S
C462 C459 1.463 . S
C462 N466 1.427 . S
C463 H453 0.929 . S
C463 C461 1.433 . S
C463 N466 1.384 . S
C464 H455 0.929 . S
C464 C456 1.378 . S
C464 C459 1.350 . S
C465 H452 0.929 . S
C465 C457 1.433 . S
C465 N467 1.384 . S
N466 C462 1.427 . S
N466 C463 1.384 . S
N467 C459 1.427 . S
N467 C465 1.384 . S
H468 C474 0.930 . S
H469 C478 0.930 . S
H470 C483 0.929 . S
H471 C481 0.929 . S
H472 C476 0.929 . S
H473 C482 0.929 . S
C474 H468 0.930 . S
C474 C475 1.367 . S
C474 C482 1.378 . S
C475 C474 1.367 . S
C475 C483 1.433 . S
C476 H472 0.929 . S
C476 C478 1.378 . S
C476 C480 1.350 . S
C477 C480 1.463 . S
C477 C482 1.350 . S
C477 N485 1.427 . S
C478 H469 0.930 . S
C478 C476 1.378 . S
C478 C479 1.367 1_554 S
C479 C478 1.367 1_556 S
C479 C481 1.433 . S
C480 C476 1.350 . S
C480 C477 1.463 . S
C480 N484 1.427 1_554 S
C481 H471 0.929 . S
C481 C479 1.433 . S
C481 N484 1.384 . S
C482 H473 0.929 . S
C482 C474 1.378 . S
C482 C477 1.350 . S
C483 H470 0.929 . S
C483 C475 1.433 . S
C483 N485 1.384 . S
N484 C480 1.427 1_556 S
N484 C481 1.384 . S
N485 C477 1.427 . S
N485 C483 1.384 . S
H486 C492 0.930 . S
H487 C496 0.930 . S
H488 C501 0.929 . S
H489 C499 0.929 . S
H490 C494 0.929 . S
H491 C500 0.929 . S
C492 H486 0.930 . S
C492 C493 1.367 . S
C492 C500 1.378 . S
C493 C492 1.367 . S
C493 C501 1.433 1_545 S
C494 H490 0.929 . S
C494 C496 1.378 . S
C494 C498 1.350 1_565 S
C495 C498 1.463 1_554 S
C495 C500 1.350 . S
C495 N503 1.427 1_545 S
C496 H487 0.930 . S
C496 C494 1.378 . S
C496 C497 1.367 1_565 S
C497 C496 1.367 1_545 S
C497 C499 1.433 . S
C498 C494 1.350 1_545 S
C498 C495 1.463 1_556 S
C498 N502 1.427 1_556 S
C499 H489 0.929 . S
C499 C497 1.433 . S
C499 N502 1.384 1_556 S
C500 H491 0.929 . S
C500 C492 1.378 . S
C500 C495 1.350 . S
C501 H488 0.929 . S
C501 C493 1.433 1_565 S
C501 N503 1.384 . S
N502 C498 1.427 1_554 S
N502 C499 1.384 1_554 S
N503 C495 1.427 1_565 S
N503 C501 1.384 . S
H504 C510 0.930 . S
H505 C514 0.930 . S
H506 C519 0.929 . S
H507 C517 0.929 . S
H508 C512 0.929 . S
H509 C518 0.929 . S
C510 H504 0.930 . S
C510 C511 1.367 . S
C510 C518 1.378 . S
C511 C510 1.367 . S
C511 C519 1.433 . S
C512 H508 0.929 . S
C512 C514 1.378 . S
C512 C516 1.350 . S
C513 C516 1.463 1_554 S
C513 C518 1.350 . S
C513 N521 1.427 . S
C514 H505 0.930 . S
C514 C512 1.378 . S
C514 C515 1.367 . S
C515 C514 1.367 . S
C515 C517 1.433 . S
C516 C512 1.350 . S
C516 C513 1.463 1_556 S
C516 N520 1.427 . S
C517 H507 0.929 . S
C517 C515 1.433 . S
C517 N520 1.384 . S
C518 H509 0.929 . S
C518 C510 1.378 . S
C518 C513 1.350 . S
C519 H506 0.929 . S
C519 C511 1.433 . S
C519 N521 1.384 . S
N520 C516 1.427 . S
N520 C517 1.384 . S
N521 C513 1.427 . S
N521 C519 1.384 . S
H522 C528 0.930 . S
H523 C532 0.930 . S
H524 C537 0.929 . S
H525 C535 0.929 . S
H526 C530 0.929 1_554 S
H527 C536 0.929 1_556 S
C528 H522 0.930 . S
C528 C529 1.367 . S
C528 C536 1.378 . S
C529 C528 1.367 . S
C529 C537 1.433 . S
C530 H526 0.929 1_556 S
C530 C532 1.378 . S
C530 C534 1.350 . S
C531 C534 1.463 1_554 S
C531 C536 1.350 . S
C531 N539 1.427 . S
C532 H523 0.930 . S
C532 C530 1.378 . S
C532 C533 1.367 . S
C533 C532 1.367 . S
C533 C535 1.433 . S
C534 C530 1.350 . S
C534 C531 1.463 1_556 S
C534 N538 1.427 . S
C535 H525 0.929 . S
C535 C533 1.433 . S
C535 N538 1.384 . S
C536 H527 0.929 1_554 S
C536 C528 1.378 . S
C536 C531 1.350 . S
C537 H524 0.929 . S
C537 C529 1.433 . S
C537 N539 1.384 . S
N538 C534 1.427 . S
N538 C535 1.384 . S
N539 C531 1.427 . S
N539 C537 1.384 . S
H540 C546 0.930 . S
H541 C550 0.930 . S
H542 C555 0.929 . S
H543 C553 0.929 . S
H544 C548 0.929 . S
H545 C554 0.929 . S
C546 H540 0.930 . S
C546 C547 1.388 . S
C546 C554 1.378 . S
C547 C546 1.388 . S
C547 C555 1.409 1_455 S
C548 H544 0.929 . S
C548 C550 1.378 . S
C548 C552 1.350 . S
C549 C552 1.463 . S
C549 C554 1.350 1_655 S
C549 N557 1.427 . S
C550 H541 0.930 . S
C550 C548 1.378 . S
C550 C551 1.367 . S
C551 C550 1.367 . S
C551 C553 1.433 1_655 S
C552 C548 1.350 . S
C552 C549 1.463 . S
C552 N556 1.427 1_655 S
C553 H543 0.929 . S
C553 C551 1.433 1_455 S
C553 N556 1.384 . S
C554 H545 0.929 . S
C554 C546 1.378 . S
C554 C549 1.350 1_455 S
C555 H542 0.929 . S
C555 C547 1.409 1_655 S
C555 N557 1.384 . S
N556 C552 1.427 1_455 S
N556 C553 1.384 . S
N557 C549 1.427 . S
N557 C555 1.384 . S
H558 C564 0.930 . S
H559 C568 0.930 . S
H560 C573 0.929 . S
H561 C571 0.929 . S
H562 C566 0.929 . S
H563 C572 0.929 . S
C564 H558 0.930 . S
C564 C565 1.367 . S
C564 C572 1.378 . S
C565 C564 1.367 . S
C565 C573 1.433 1_565 S
C566 H562 0.929 . S
C566 C568 1.378 . S
C566 C570 1.350 1_545 S
C567 C570 1.463 . S
C567 C572 1.350 . S
C567 N575 1.427 1_565 S
C568 H559 0.930 . S
C568 C566 1.378 . S
C568 C569 1.367 1_545 S
C569 C568 1.367 1_565 S
C569 C571 1.433 . S
C570 C566 1.350 1_565 S
C570 C567 1.463 . S
C570 N574 1.427 . S
C571 H561 0.929 . S
C571 C569 1.433 . S
C571 N574 1.384 . S
C572 H563 0.929 . S
C572 C564 1.378 . S
C572 C567 1.350 . S
C573 H560 0.929 . S
C573 C565 1.433 1_545 S
C573 N575 1.384 . S
N574 C570 1.427 . S
N574 C571 1.384 . S
N575 C567 1.427 1_545 S
N575 C573 1.384 . S
H576 C582 0.930 . S
H577 C586 0.930 . S
H578 C591 0.929 . S
H579 C589 0.929 . S
H580 C584 0.929 . S
H581 C590 0.929 . S
C582 H576 0.930 . S
C582 C583 1.367 . S
C582 C590 1.378 . S
C583 C582 1.367 . S
C583 C591 1.433 . S
C584 H580 0.929 . S
C584 C586 1.378 . S
C584 C588 1.350 . S
C585 C588 1.463 . S
C585 C590 1.350 . S
C585 N593 1.427 . S
C586 H577 0.930 . S
C586 C584 1.378 . S
C586 C587 1.367 . S
C587 C586 1.367 . S
C587 C589 1.433 . S
C588 C584 1.350 . S
C588 C585 1.463 . S
C588 N592 1.427 . S
C589 H579 0.929 . S
C589 C587 1.433 . S
C589 N592 1.384 . S
C590 H581 0.929 . S
C590 C582 1.378 . S
C590 C585 1.350 . S
C591 H578 0.929 . S
C591 C583 1.433 . S
C591 N593 1.384 . S
N592 C588 1.427 . S
N592 C589 1.384 . S
N593 C585 1.427 . S
N593 C591 1.384 . S
H594 C600 0.930 . S
H595 C604 0.930 . S
H596 C609 0.929 . S
H597 C607 0.929 . S
H598 C602 0.929 . S
H599 C608 0.929 . S
C600 H594 0.930 . S
C600 C601 1.367 . S
C600 C608 1.378 . S
C601 C600 1.367 . S
C601 C609 1.433 . S
C602 H598 0.929 . S
C602 C604 1.378 . S
C602 C606 1.350 . S
C603 C606 1.463 . S
C603 C608 1.350 . S
C603 N611 1.427 . S
C604 H595 0.930 . S
C604 C602 1.378 . S
C604 C605 1.367 . S
C605 C604 1.367 . S
C605 C607 1.433 . S
C606 C602 1.350 . S
C606 C603 1.463 . S
C606 N610 1.427 . S
C607 H597 0.929 . S
C607 C605 1.433 . S
C607 N610 1.384 . S
C608 H599 0.929 . S
C608 C600 1.378 . S
C608 C603 1.350 . S
C609 H596 0.929 . S
C609 C601 1.433 . S
C609 N611 1.384 . S
N610 C606 1.427 . S
N610 C607 1.384 . S
N611 C603 1.427 . S
N611 C609 1.384 . S
C187 C74 1.532 . S
C191 C104 1.531 . S
C209 C127 1.589 . S
C205 C85 1.594 . S
C227 C150 1.602 . S
C223 C52 1.592 . S
C245 C177 1.489 . S
C241 C63 1.569 . S
C263 C105 1.527 . S
C259 C30 1.506 1_566 S
C277 C41 1.452 . S
C281 C128 1.476 . S
C295 C8 1.423 . S
C299 C151 1.441 . S
C313 C19 1.542 1_655 S
C317 C176 1.542 1_455 S
C335 C106 0.425 . S
C331 C62 0.415 . S
C353 C129 0.390 . S
C349 C73 0.400 . S
C371 C152 0.439 . S
C367 C84 0.435 . S
C385 C51 0.547 . S
C389 C178 0.631 . S
C403 C18 0.705 . S
C407 C109 0.706 . S
C425 C132 0.721 . S
C421 C29 0.705 1_566 S
C443 C155 0.665 . S
C439 C40 0.655 . S
C457 C7 0.497 . S
C461 C175 0.422 . S
C475 C60 1.428 . S
C479 C107 1.558 . S
C493 C71 1.290 . S
C497 C130 1.512 . S
C515 C153 1.538 . S
C511 C82 1.349 . S
C533 C174 1.362 . S
C529 C49 1.128 . S
C547 C16 1.389 . S
C551 C108 1.528 . S
C569 C131 1.465 . S
C565 C27 1.375 1_565 S
C587 C154 1.454 . S
C583 C38 1.323 . S
C601 C5 1.453 . S
C605 C173 1.707 . S
