# Generated by pormake.
# Topology gar, (4,6)-cn, num edge types: 1
# Building blocks:
#     Node 0, Type 0, BuildingBlock: CEKHIL_clean_sbu_0, # of connection points: 4
#     Node 1, Type 0, BuildingBlock: CEKHIL_clean_sbu_0, # of connection points: 4
#     Node 2, Type 0, BuildingBlock: CEKHIL_clean_sbu_0, # of connection points: 4
#     Node 3, Type 0, BuildingBlock: CEKHIL_clean_sbu_0, # of connection points: 4
#     Node 4, Type 0, BuildingBlock: CEKHIL_clean_sbu_0, # of connection points: 4
#     Node 5, Type 0, BuildingBlock: CEKHIL_clean_sbu_0, # of connection points: 4
#     Node 6, Type 0, BuildingBlock: CEKHIL_clean_sbu_0, # of connection points: 4
#     Node 7, Type 0, BuildingBlock: CEKHIL_clean_sbu_0, # of connection points: 4
#     Node 8, Type 0, BuildingBlock: CEKHIL_clean_sbu_0, # of connection points: 4
#     Node 9, Type 0, BuildingBlock: CEKHIL_clean_sbu_0, # of connection points: 4
#     Node 10, Type 0, BuildingBlock: CEKHIL_clean_sbu_0, # of connection points: 4
#     Node 11, Type 0, BuildingBlock: CEKHIL_clean_sbu_0, # of connection points: 4
#     Node 12, Type 0, BuildingBlock: CEKHIL_clean_sbu_0, # of connection points: 4
#     Node 13, Type 0, BuildingBlock: CEKHIL_clean_sbu_0, # of connection points: 4
#     Node 14, Type 0, BuildingBlock: CEKHIL_clean_sbu_0, # of connection points: 4
#     Node 15, Type 0, BuildingBlock: CEKHIL_clean_sbu_0, # of connection points: 4
#     Node 16, Type 0, BuildingBlock: CEKHIL_clean_sbu_0, # of connection points: 4
#     Node 17, Type 0, BuildingBlock: CEKHIL_clean_sbu_0, # of connection points: 4
#     Node 18, Type 0, BuildingBlock: CEKHIL_clean_sbu_0, # of connection points: 4
#     Node 19, Type 0, BuildingBlock: CEKHIL_clean_sbu_0, # of connection points: 4
#     Node 20, Type 0, BuildingBlock: CEKHIL_clean_sbu_0, # of connection points: 4
#     Node 21, Type 0, BuildingBlock: CEKHIL_clean_sbu_0, # of connection points: 4
#     Node 22, Type 0, BuildingBlock: CEKHIL_clean_sbu_0, # of connection points: 4
#     Node 23, Type 0, BuildingBlock: CEKHIL_clean_sbu_0, # of connection points: 4
#     Node 24, Type 1, BuildingBlock: NUHQIS_clean_sbu_0, # of connection points: 6
#     Node 25, Type 1, BuildingBlock: NUHQIS_clean_sbu_0, # of connection points: 6
#     Node 26, Type 1, BuildingBlock: NUHQIS_clean_sbu_0, # of connection points: 6
#     Node 27, Type 1, BuildingBlock: NUHQIS_clean_sbu_0, # of connection points: 6
#     Node 28, Type 1, BuildingBlock: NUHQIS_clean_sbu_0, # of connection points: 6
#     Node 29, Type 1, BuildingBlock: NUHQIS_clean_sbu_0, # of connection points: 6
#     Node 30, Type 1, BuildingBlock: NUHQIS_clean_sbu_0, # of connection points: 6
#     Node 31, Type 1, BuildingBlock: NUHQIS_clean_sbu_0, # of connection points: 6
#     Node 32, Type 1, BuildingBlock: NUHQIS_clean_sbu_0, # of connection points: 6
#     Node 33, Type 1, BuildingBlock: NUHQIS_clean_sbu_0, # of connection points: 6
#     Node 34, Type 1, BuildingBlock: NUHQIS_clean_sbu_0, # of connection points: 6
#     Node 35, Type 1, BuildingBlock: NUHQIS_clean_sbu_0, # of connection points: 6
#     Node 36, Type 1, BuildingBlock: NUHQIS_clean_sbu_0, # of connection points: 6
#     Node 37, Type 1, BuildingBlock: NUHQIS_clean_sbu_0, # of connection points: 6
#     Node 38, Type 1, BuildingBlock: NUHQIS_clean_sbu_0, # of connection points: 6
#     Node 39, Type 1, BuildingBlock: NUHQIS_clean_sbu_0, # of connection points: 6
#     Edge 40, Type (0, 1), BuildingBlock: XIVTED_clean_linker_0, # of connection points: 2
#     Edge 41, Type (0, 1), BuildingBlock: XIVTED_clean_linker_0, # of connection points: 2
#     Edge 42, Type (0, 1), BuildingBlock: XIVTED_clean_linker_0, # of connection points: 2
#     Edge 43, Type (0, 1), BuildingBlock: XIVTED_clean_linker_0, # of connection points: 2
#     Edge 44, Type (0, 1), BuildingBlock: XIVTED_clean_linker_0, # of connection points: 2
#     Edge 45, Type (0, 1), BuildingBlock: XIVTED_clean_linker_0, # of connection points: 2
#     Edge 46, Type (0, 1), BuildingBlock: XIVTED_clean_linker_0, # of connection points: 2
#     Edge 47, Type (0, 1), BuildingBlock: XIVTED_clean_linker_0, # of connection points: 2
#     Edge 48, Type (0, 1), BuildingBlock: XIVTED_clean_linker_0, # of connection points: 2
#     Edge 49, Type (0, 1), BuildingBlock: XIVTED_clean_linker_0, # of connection points: 2
#     Edge 50, Type (0, 1), BuildingBlock: XIVTED_clean_linker_0, # of connection points: 2
#     Edge 51, Type (0, 1), BuildingBlock: XIVTED_clean_linker_0, # of connection points: 2
#     Edge 52, Type (0, 1), BuildingBlock: XIVTED_clean_linker_0, # of connection points: 2
#     Edge 53, Type (0, 1), BuildingBlock: XIVTED_clean_linker_0, # of connection points: 2
#     Edge 54, Type (0, 1), BuildingBlock: XIVTED_clean_linker_0, # of connection points: 2
#     Edge 55, Type (0, 1), BuildingBlock: XIVTED_clean_linker_0, # of connection points: 2
#     Edge 56, Type (0, 1), BuildingBlock: XIVTED_clean_linker_0, # of connection points: 2
#     Edge 57, Type (0, 1), BuildingBlock: XIVTED_clean_linker_0, # of connection points: 2
#     Edge 58, Type (0, 1), BuildingBlock: XIVTED_clean_linker_0, # of connection points: 2
#     Edge 59, Type (0, 1), BuildingBlock: XIVTED_clean_linker_0, # of connection points: 2
#     Edge 60, Type (0, 1), BuildingBlock: XIVTED_clean_linker_0, # of connection points: 2
#     Edge 61, Type (0, 1), BuildingBlock: XIVTED_clean_linker_0, # of connection points: 2
#     Edge 62, Type (0, 1), BuildingBlock: XIVTED_clean_linker_0, # of connection points: 2
#     Edge 63, Type (0, 1), BuildingBlock: XIVTED_clean_linker_0, # of connection points: 2
#     Edge 64, Type (0, 1), BuildingBlock: XIVTED_clean_linker_0, # of connection points: 2
#     Edge 65, Type (0, 1), BuildingBlock: XIVTED_clean_linker_0, # of connection points: 2
#     Edge 66, Type (0, 1), BuildingBlock: XIVTED_clean_linker_0, # of connection points: 2
#     Edge 67, Type (0, 1), BuildingBlock: XIVTED_clean_linker_0, # of connection points: 2
#     Edge 68, Type (0, 1), BuildingBlock: XIVTED_clean_linker_0, # of connection points: 2
#     Edge 69, Type (0, 1), BuildingBlock: XIVTED_clean_linker_0, # of connection points: 2
#     Edge 70, Type (0, 1), BuildingBlock: XIVTED_clean_linker_0, # of connection points: 2
#     Edge 71, Type (0, 1), BuildingBlock: XIVTED_clean_linker_0, # of connection points: 2
#     Edge 72, Type (0, 1), BuildingBlock: XIVTED_clean_linker_0, # of connection points: 2
#     Edge 73, Type (0, 1), BuildingBlock: XIVTED_clean_linker_0, # of connection points: 2
#     Edge 74, Type (0, 1), BuildingBlock: XIVTED_clean_linker_0, # of connection points: 2
#     Edge 75, Type (0, 1), BuildingBlock: XIVTED_clean_linker_0, # of connection points: 2
#     Edge 76, Type (0, 1), BuildingBlock: XIVTED_clean_linker_0, # of connection points: 2
#     Edge 77, Type (0, 1), BuildingBlock: XIVTED_clean_linker_0, # of connection points: 2
#     Edge 78, Type (0, 1), BuildingBlock: XIVTED_clean_linker_0, # of connection points: 2
#     Edge 79, Type (0, 1), BuildingBlock: XIVTED_clean_linker_0, # of connection points: 2
#     Edge 80, Type (0, 1), BuildingBlock: XIVTED_clean_linker_0, # of connection points: 2
#     Edge 81, Type (0, 1), BuildingBlock: XIVTED_clean_linker_0, # of connection points: 2
#     Edge 82, Type (0, 1), BuildingBlock: XIVTED_clean_linker_0, # of connection points: 2
#     Edge 83, Type (0, 1), BuildingBlock: XIVTED_clean_linker_0, # of connection points: 2
#     Edge 84, Type (0, 1), BuildingBlock: XIVTED_clean_linker_0, # of connection points: 2
#     Edge 85, Type (0, 1), BuildingBlock: XIVTED_clean_linker_0, # of connection points: 2
#     Edge 86, Type (0, 1), BuildingBlock: XIVTED_clean_linker_0, # of connection points: 2
#     Edge 87, Type (0, 1), BuildingBlock: XIVTED_clean_linker_0, # of connection points: 2
#     Edge 88, Type (0, 1), BuildingBlock: XIVTED_clean_linker_0, # of connection points: 2
#     Edge 89, Type (0, 1), BuildingBlock: XIVTED_clean_linker_0, # of connection points: 2
#     Edge 90, Type (0, 1), BuildingBlock: XIVTED_clean_linker_0, # of connection points: 2
#     Edge 91, Type (0, 1), BuildingBlock: XIVTED_clean_linker_0, # of connection points: 2
#     Edge 92, Type (0, 1), BuildingBlock: XIVTED_clean_linker_0, # of connection points: 2
#     Edge 93, Type (0, 1), BuildingBlock: XIVTED_clean_linker_0, # of connection points: 2
#     Edge 94, Type (0, 1), BuildingBlock: XIVTED_clean_linker_0, # of connection points: 2
#     Edge 95, Type (0, 1), BuildingBlock: XIVTED_clean_linker_0, # of connection points: 2
#     Edge 96, Type (0, 1), BuildingBlock: XIVTED_clean_linker_0, # of connection points: 2
#     Edge 97, Type (0, 1), BuildingBlock: XIVTED_clean_linker_0, # of connection points: 2
#     Edge 98, Type (0, 1), BuildingBlock: XIVTED_clean_linker_0, # of connection points: 2
#     Edge 99, Type (0, 1), BuildingBlock: XIVTED_clean_linker_0, # of connection points: 2
#     Edge 100, Type (0, 1), BuildingBlock: XIVTED_clean_linker_0, # of connection points: 2
#     Edge 101, Type (0, 1), BuildingBlock: XIVTED_clean_linker_0, # of connection points: 2
#     Edge 102, Type (0, 1), BuildingBlock: XIVTED_clean_linker_0, # of connection points: 2
#     Edge 103, Type (0, 1), BuildingBlock: XIVTED_clean_linker_0, # of connection points: 2
#     Edge 104, Type (0, 1), BuildingBlock: XIVTED_clean_linker_0, # of connection points: 2
#     Edge 105, Type (0, 1), BuildingBlock: XIVTED_clean_linker_0, # of connection points: 2
#     Edge 106, Type (0, 1), BuildingBlock: XIVTED_clean_linker_0, # of connection points: 2
#     Edge 107, Type (0, 1), BuildingBlock: XIVTED_clean_linker_0, # of connection points: 2
#     Edge 108, Type (0, 1), BuildingBlock: XIVTED_clean_linker_0, # of connection points: 2
#     Edge 109, Type (0, 1), BuildingBlock: XIVTED_clean_linker_0, # of connection points: 2
#     Edge 110, Type (0, 1), BuildingBlock: XIVTED_clean_linker_0, # of connection points: 2
#     Edge 111, Type (0, 1), BuildingBlock: XIVTED_clean_linker_0, # of connection points: 2
#     Edge 112, Type (0, 1), BuildingBlock: XIVTED_clean_linker_0, # of connection points: 2
#     Edge 113, Type (0, 1), BuildingBlock: XIVTED_clean_linker_0, # of connection points: 2
#     Edge 114, Type (0, 1), BuildingBlock: XIVTED_clean_linker_0, # of connection points: 2
#     Edge 115, Type (0, 1), BuildingBlock: XIVTED_clean_linker_0, # of connection points: 2
#     Edge 116, Type (0, 1), BuildingBlock: XIVTED_clean_linker_0, # of connection points: 2
#     Edge 117, Type (0, 1), BuildingBlock: XIVTED_clean_linker_0, # of connection points: 2
#     Edge 118, Type (0, 1), BuildingBlock: XIVTED_clean_linker_0, # of connection points: 2
#     Edge 119, Type (0, 1), BuildingBlock: XIVTED_clean_linker_0, # of connection points: 2
#     Edge 120, Type (0, 1), BuildingBlock: XIVTED_clean_linker_0, # of connection points: 2
#     Edge 121, Type (0, 1), BuildingBlock: XIVTED_clean_linker_0, # of connection points: 2
#     Edge 122, Type (0, 1), BuildingBlock: XIVTED_clean_linker_0, # of connection points: 2
#     Edge 123, Type (0, 1), BuildingBlock: XIVTED_clean_linker_0, # of connection points: 2
#     Edge 124, Type (0, 1), BuildingBlock: XIVTED_clean_linker_0, # of connection points: 2
#     Edge 125, Type (0, 1), BuildingBlock: XIVTED_clean_linker_0, # of connection points: 2
#     Edge 126, Type (0, 1), BuildingBlock: XIVTED_clean_linker_0, # of connection points: 2
#     Edge 127, Type (0, 1), BuildingBlock: XIVTED_clean_linker_0, # of connection points: 2
#     Edge 128, Type (0, 1), BuildingBlock: XIVTED_clean_linker_0, # of connection points: 2
#     Edge 129, Type (0, 1), BuildingBlock: XIVTED_clean_linker_0, # of connection points: 2
#     Edge 130, Type (0, 1), BuildingBlock: XIVTED_clean_linker_0, # of connection points: 2
#     Edge 131, Type (0, 1), BuildingBlock: XIVTED_clean_linker_0, # of connection points: 2
#     Edge 132, Type (0, 1), BuildingBlock: XIVTED_clean_linker_0, # of connection points: 2
#     Edge 133, Type (0, 1), BuildingBlock: XIVTED_clean_linker_0, # of connection points: 2
#     Edge 134, Type (0, 1), BuildingBlock: XIVTED_clean_linker_0, # of connection points: 2
#     Edge 135, Type (0, 1), BuildingBlock: XIVTED_clean_linker_0, # of connection points: 2
# Relax obj value: 0.219
# Max RMSD: 0.314
# Mean RMSD: 0.137
data_MOF--net-gar--node1-CEKHIL_clean_sbu_0--node2-NUHQIS_clean_sbu_0--edge1-XIVTED_clean_linker_0
_symmetry_space_group_name_H-M    P1
_symmetry_Int_Tables_number       1
_symmetry_cell_setting            triclinic
loop_
_symmetry_equiv_pos_as_xyz
'x, y, z'
_cell_length_a     56.74533
_cell_length_b     58.968496
_cell_length_c     55.761074
_cell_angle_alpha  93.256496
_cell_angle_beta   96.020284
_cell_angle_gamma 99.605267
loop_
_atom_site_label
_atom_site_type_symbol
_atom_site_fract_x
_atom_site_fract_y
_atom_site_fract_z
_atom_type_partial_charge
Co0 Co 0.10671 0.3024 0.41675 0.0
O1 O 0.14293 0.3067 0.41981 0.0
O2 O 0.12049 0.29234 0.38702 0.0
C3 C 0.10415 0.34061 0.43372 0.0
O4 O 0.06987 0.29726 0.40232 0.0
Co5 Co 0.07534 0.30247 0.45602 0.0
O6 O 0.04909 0.30798 0.43155 0.0
C7 C 0.09444 0.25904 0.44881 0.0
C8 C 0.14232 0.29895 0.39739 0.0
C9 C 0.0501 0.30256 0.40932 0.0
O10 O 0.10376 0.26832 0.43013 0.0
O11 O 0.08327 0.27091 0.46226 0.0
O12 O 0.10837 0.33624 0.41163 0.0
O13 O 0.10328 0.32224 0.44576 0.0
Co14 Co 0.07077 0.80861 0.6551 0.0
O15 O 1.03443 0.80566 0.65232 0.0
O16 O 0.05557 0.79992 0.68504 0.0
C17 C 0.07783 0.84614 0.63788 0.0
O18 O 0.1073 0.81096 0.66996 0.0
Co19 Co 0.10323 0.81136 0.61681 0.0
O20 O 0.13187 0.81827 0.64162 0.0
C21 C 0.07797 0.76411 0.62251 0.0
C22 C 1.03427 0.80132 0.67494 0.0
C23 C 0.12899 0.81534 0.66361 0.0
O24 O 0.0693 0.77319 0.64126 0.0
O25 O 0.09071 0.77726 0.60947 0.0
O26 O 0.07375 0.8434 0.66012 0.0
O27 O 0.07672 0.82625 0.62604 0.0
Co28 Co 0.60508 0.80786 0.91958 0.0
O29 O 0.64141 0.81182 0.92306 0.0
O30 O 0.6193 0.79849 0.88982 0.0
C31 C 0.60222 0.84569 0.93768 0.0
O32 O 0.56847 0.80342 0.9044 0.0
Co33 Co 0.57287 0.80648 0.95814 0.0
O34 O 0.54493 0.80714 0.93357 0.0
C35 C 0.5926 0.76364 0.9505 0.0
C36 C 0.64106 0.80452 0.90052 0.0
C37 C 0.54737 0.80469 0.91122 0.0
O38 O 0.60172 0.77325 0.93187 0.0
O39 O 0.58156 0.77529 0.96427 0.0
O40 O 0.607 0.842 0.91565 0.0
O41 O 0.60109 0.82691 0.94906 0.0
Co42 Co 0.57445 0.31469 0.1567 0.0
O43 O 0.53822 0.31173 0.15393 0.0
O44 O 0.55947 0.30618 0.18672 0.0
C45 C 0.58127 0.35189 0.13902 0.0
O46 O 0.61102 0.31691 0.17128 0.0
Co47 Co 0.60674 0.31725 0.11809 0.0
O48 O 0.63548 0.32378 0.14275 0.0
C49 C 0.58134 0.27016 0.12456 0.0
C50 C 0.53815 0.30743 0.17657 0.0
C51 C 0.63266 0.32094 0.16476 0.0
O52 O 0.57281 0.27933 0.14328 0.0
O53 O 0.59402 0.28315 0.11133 0.0
O54 O 0.57741 0.34946 0.16137 0.0
O55 O 0.58019 0.33191 0.12741 0.0
Co56 Co 0.15676 0.88007 0.20006 0.0
O57 O 0.1246 0.86268 0.19438 0.0
O58 O 0.14815 0.86662 0.22925 0.0
C59 C 0.14789 0.91094 0.1817 0.0
O60 O 0.19 0.89685 0.21357 0.0
Co61 Co 0.1873 0.89532 0.15949 0.0
O62 O 0.21157 0.9124 0.18531 0.0
C63 C 0.1772 0.84626 0.16945 0.0
C64 C 0.12752 0.85815 0.21693 0.0
C65 C 0.20898 0.90908 0.20731 0.0
O66 O 0.16977 0.85201 0.18953 0.0
O67 O 0.18295 0.86074 0.15387 0.0
O68 O 0.14409 0.90848 0.20408 0.0
O69 O 0.1559 0.89432 0.17087 0.0
Co70 Co 0.53079 0.75214 0.40448 0.0
O71 O 0.56333 0.76838 0.40812 0.0
O72 O 0.54901 0.73796 0.38238 0.0
C73 C 0.5138 0.78389 0.40316 0.0
O74 O 0.49819 0.73195 0.39434 0.0
Co75 Co 0.49746 0.75718 0.44355 0.0
O76 O 0.47172 0.74328 0.41757 0.0
C77 C 0.53741 0.73214 0.45308 0.0
C78 C 0.567 0.75404 0.39095 0.0
C79 C 0.47649 0.7323 0.39886 0.0
O80 O 0.53982 0.73179 0.43041 0.0
O81 O 0.52254 0.74298 0.46258 0.0
O82 O 0.52088 0.775 0.3839 0.0
O83 O 0.51876 0.77434 0.42303 0.0
Co84 Co 0.61786 0.37814 0.67436 0.0
O85 O 0.58566 0.36061 0.67071 0.0
O86 O 0.61156 0.36487 0.70405 0.0
C87 C 0.60839 0.40908 0.6564 0.0
O88 O 0.65162 0.39449 0.68613 0.0
Co89 Co 0.64612 0.39325 0.63193 0.0
O90 O 0.67258 0.40843 0.65677 0.0
C91 C 0.63807 0.34439 0.64301 0.0
C92 C 0.5905 0.35588 0.69302 0.0
C93 C 0.67083 0.40535 0.67898 0.0
O94 O 0.63037 0.35003 0.66299 0.0
O95 O 0.64322 0.35876 0.62716 0.0
O96 O 0.60546 0.40683 0.67903 0.0
O97 O 0.61563 0.39222 0.64522 0.0
Co98 Co 0.04456 0.25235 0.90675 0.0
O99 O 0.07866 0.25648 0.90785 0.0
O100 O 0.05297 0.23217 0.88164 0.0
C101 C 0.04188 0.28969 0.90893 0.0
O102 O 1.00808 0.24486 0.89988 0.0
Co103 Co 1.02279 0.26943 0.95189 0.0
O104 O 0.9935 0.26545 0.92831 0.0
C105 C 0.04911 0.23089 0.95399 0.0
C106 C 0.07513 0.24142 0.8894 0.0
C107 C 0.9909 0.2536 0.90805 0.0
O108 O 0.04595 0.22845 0.93078 0.0
O109 O 0.04297 0.24758 0.96613 0.0
O110 O 0.04386 0.27923 0.88831 0.0
O111 O 0.04426 0.27798 0.9277 0.0
Co112 Co 0.52294 0.10393 0.31982 0.0
O113 O 0.5195 0.12594 0.2959 0.0
O114 O 0.49372 0.09378 0.29853 0.0
C115 C 0.53287 0.12881 0.35287 0.0
O116 O 0.51895 0.07772 0.34189 0.0
Co117 Co 0.57079 0.10231 0.35186 0.0
O118 O 0.55166 0.07779 0.36838 0.0
C119 C 0.56319 0.08213 0.30139 0.0
C120 C 0.49913 0.11271 0.28796 0.0
C121 C 0.53002 0.06956 0.35985 0.0
O122 O 0.54145 0.08611 0.2988 0.0
O123 O 0.57808 0.08904 0.32025 0.0
O124 O 0.51056 0.12309 0.34346 0.0
O125 O 0.54844 0.12187 0.34021 0.0
Co126 Co 0.36469 0.17674 0.53092 0.0
O127 O 0.40087 0.1807 0.53384 0.0
O128 O 0.37824 0.14861 0.53948 0.0
C129 C 0.36052 0.19421 0.49303 0.0
O130 O 0.3275 0.16236 0.52894 0.0
Co131 Co 0.33393 0.21399 0.52853 0.0
O132 O 0.30471 0.18977 0.52514 0.0
C133 C 0.35558 0.20582 0.57739 0.0
C134 C 0.40002 0.15917 0.53829 0.0
C135 C 0.30643 0.16869 0.52703 0.0
O136 O 0.36478 0.18894 0.56763 0.0
O137 O 0.34384 0.21831 0.56435 0.0
O138 O 0.36349 0.17292 0.49453 0.0
O139 O 0.36094 0.20463 0.51419 0.0
Co140 Co 0.22278 0.07597 0.86999 0.0
O141 O 0.21981 0.04388 0.85915 0.0
O142 O 0.24663 0.07242 0.84877 0.0
C143 C 0.21936 0.06936 0.90873 0.0
O144 O 0.23276 0.11048 0.87711 0.0
Co145 Co 0.18447 0.09799 0.89302 0.0
O146 O 0.20671 0.128 0.89543 0.0
C147 C 0.17661 0.08161 0.84146 0.0
C148 C 0.23778 0.05054 0.84701 0.0
C149 C 0.22644 0.12863 0.88637 0.0
O150 O 0.199 0.08008 0.84203 0.0
O151 O 0.16688 0.0865 0.86034 0.0
O152 O 0.24017 0.07047 0.90064 0.0
O153 O 0.20149 0.07184 0.89337 0.0
Co154 Co 0.33728 0.91415 0.04115 0.0
O155 O 0.30387 0.91267 0.04699 0.0
O156 O 0.33339 0.94209 0.05846 0.0
C157 C 0.33026 0.90029 1.00169 0.0
O158 O 0.37267 0.92413 0.03811 0.0
Co159 Co 0.36141 0.87298 0.02732 0.0
O160 O 0.39076 0.89588 0.02434 0.0
C161 C 0.35082 0.88059 0.07765 0.0
C162 C 0.31081 0.93326 0.05776 0.0
C163 C 0.39116 0.91691 0.03123 0.0
O164 O 0.34492 0.90016 0.07284 0.0
O165 O 0.35596 0.86651 0.06146 0.0
O166 O 0.32947 0.92176 1.00778 0.0
O167 O 0.33349 0.88761 0.0195 0.0
Co168 Co 0.3134 0.42851 0.0391 0.0
O169 O 0.2772 0.4245 0.03644 0.0
O170 O 0.30037 0.45687 0.04867 0.0
C171 C 0.31603 0.40987 1.0007 0.0
O172 O 0.35073 0.44288 0.0422 0.0
Co173 Co 0.34405 0.39044 0.03866 0.0
O174 O 0.37108 0.41483 0.03263 0.0
C175 C 0.32159 0.39806 0.08338 0.0
C176 C 0.27835 0.44617 0.04328 0.0
C177 C 0.37057 0.43618 0.03701 0.0
O178 O 0.31535 0.41687 0.07481 0.0
O179 O 0.33146 0.38445 0.07054 0.0
O180 O 0.31196 0.43091 1.00306 0.0
O181 O 0.31667 0.40036 0.02102 0.0
Co182 Co 0.8259 0.21095 0.0221 0.0
O183 O 0.86051 0.21289 0.02278 0.0
O184 O 0.83501 0.18236 0.03082 0.0
C185 C 0.81956 0.22665 0.98625 0.0
O186 O 0.79002 0.20017 0.02155 0.0
Co187 Co 0.79877 0.25179 0.02286 0.0
O188 O 0.76859 0.22857 0.01675 0.0
C189 C 0.82741 0.24279 0.0675 0.0
C190 C 0.85692 0.19147 0.02817 0.0
C191 C 0.76989 0.20733 0.01813 0.0
O192 O 0.8297 0.22309 0.05754 0.0
O193 O 0.81766 0.2576 0.05586 0.0
O194 O 0.82198 0.20515 0.98694 0.0
O195 O 0.82285 0.23844 1.00699 0.0
Co196 Co 0.14717 0.50944 0.27502 0.0
O197 O 0.15538 0.48205 0.2887 0.0
O198 O 0.17469 0.5014 0.26156 0.0
C199 C 0.14258 0.52949 0.30906 0.0
O200 O 0.14561 0.53873 0.25804 0.0
Co201 Co 0.09719 0.52366 0.27772 0.0
O202 O 0.11344 0.55352 0.26742 0.0
C203 C 0.1019 0.48708 0.24162 0.0
C204 C 0.17331 0.48464 0.27577 0.0
C205 C 0.1333 0.55515 0.25833 0.0
O206 O 0.12482 0.49068 0.24782 0.0
O207 O 0.08744 0.49692 0.25297 0.0
O208 O 0.16399 0.52836 0.30338 0.0
O209 O 0.12513 0.51565 0.29619 0.0
Co210 Co 0.81355 0.92755 0.54071 0.0
O211 O 0.77739 0.92273 0.53722 0.0
O212 O 0.79963 0.95547 0.55001 0.0
C213 C 0.81711 0.90971 0.50234 0.0
O214 O 0.85078 0.94226 0.54456 0.0
Co215 Co 0.84482 0.8899 0.54023 0.0
O216 O 0.87134 0.91465 0.53393 0.0
C217 C 0.82208 0.89718 0.58495 0.0
C218 C 0.77786 0.94431 0.54395 0.0
C219 C 0.87062 0.93586 0.53893 0.0
O220 O 0.81515 0.91566 0.57628 0.0
O221 O 0.83252 0.88397 0.57223 0.0
O222 O 0.81269 0.9306 0.50493 0.0
O223 O 0.81754 0.89978 0.52243 0.0
Co224 Co 0.94801 0.03312 0.23029 0.0
O225 O 0.95001 0.06368 0.24531 0.0
O226 O 0.91616 0.03905 0.23355 0.0
C227 C 0.97728 1.02361 0.25598 0.0
O228 O 0.93815 0.99994 0.21594 0.0
Co229 Co 0.98941 1.01535 0.20748 0.0
O230 O 0.9714 0.98471 0.21295 0.0
C231 C 0.96382 0.04933 0.18363 0.0
C232 C 0.92665 0.05917 0.24345 0.0
C233 C 0.9489 0.98246 0.21436 0.0
O234 O 0.94731 0.04627 0.19778 0.0
O235 O 0.98248 0.03973 0.18553 0.0
O236 O 0.95544 1.0217 0.26176 0.0
O237 O 0.98092 0.03199 0.23553 0.0
Co238 Co 0.32804 0.71328 0.52595 0.0
O239 O 0.36265 0.71903 0.52674 0.0
O240 O 0.34068 0.6861 0.53437 0.0
C241 C 0.32061 0.72876 0.49032 0.0
O242 O 0.29277 0.69931 0.52538 0.0
Co243 Co 0.29692 0.75086 0.52704 0.0
O244 O 0.26851 0.7256 0.5222 0.0
C245 C 0.32736 0.74412 0.57122 0.0
C246 C 0.36172 0.69768 0.53184 0.0
C247 C 0.27175 0.70481 0.52301 0.0
O248 O 0.33087 0.72488 0.56128 0.0
O249 O 0.3163 0.75813 0.55969 0.0
O250 O 0.32462 0.70773 0.49091 0.0
O251 O 0.32254 0.7403 0.5111 0.0
Co252 Co 0.45028 0.53351 0.72052 0.0
O253 O 0.45165 0.56622 0.72529 0.0
O254 O 0.41806 0.54037 0.71854 0.0
C255 C 0.4781 0.53196 0.75172 0.0
O256 O 0.44135 0.49839 0.7164 0.0
Co257 Co 0.4937 0.51123 0.7087 0.0
O258 O 0.47507 0.48306 0.71929 0.0
C259 C 0.46968 0.53761 0.67296 0.0
C260 C 0.4283 0.56184 0.72302 0.0
C261 C 0.45244 0.48121 0.71941 0.0
O262 O 0.45153 0.53686 0.68502 0.0
O263 O 0.48863 0.52961 0.68011 0.0
O264 O 0.45578 0.53178 0.75522 0.0
O265 O 0.48311 0.53399 0.72978 0.0
Co266 Co 0.64497 0.99316 0.76296 0.0
O267 O 0.65463 0.96571 0.77486 0.0
O268 O 0.67432 0.98873 0.75068 0.0
C269 C 0.63668 1.00903 0.79782 0.0
O270 O 0.64212 1.02341 0.74829 0.0
Co271 Co 0.59346 1.00413 0.76448 0.0
O272 O 0.6099 0.03615 0.76059 0.0
C273 C 0.60234 0.9706 0.72674 0.0
C274 C 0.67344 0.97093 0.76346 0.0
C275 C 0.62988 0.03954 0.7517 0.0
O276 O 0.6251 0.97522 0.73381 0.0
O277 O 0.58668 0.97876 0.73798 0.0
O278 O 0.65887 1.01067 0.79327 0.0
O279 O 0.62094 0.99532 0.78291 0.0
Co280 Co 0.8645 0.67723 0.0338 0.0
O281 O 0.90069 0.68165 0.03646 0.0
O282 O 0.87861 0.64953 0.0429 0.0
C283 C 0.85959 0.694 0.99562 0.0
O284 O 0.82736 0.66263 0.03244 0.0
Co285 Co 0.83337 0.71423 0.03123 0.0
O286 O 0.80433 0.68993 0.02928 0.0
C287 C 0.85585 0.70682 0.07995 0.0
C288 C 0.90027 0.66034 0.04155 0.0
C289 C 0.80625 0.66889 0.03111 0.0
O290 O 0.86499 0.6899 0.07027 0.0
O291 O 0.8438 0.71907 0.06693 0.0
O292 O 0.86284 0.67282 0.99744 0.0
O293 O 0.86022 0.70477 1.01664 0.0
Co294 Co 1.00633 0.62385 0.84077 0.0
O295 O 0.99933 0.64759 0.81985 0.0
O296 O 0.97691 0.61304 0.82037 0.0
C297 C 1.01662 0.6449 0.87624 0.0
O298 O 1.00593 0.59521 0.85914 0.0
Co299 Co 0.05644 0.62219 0.8679 0.0
O300 O 1.04105 0.59326 0.88088 0.0
C301 C 0.04719 0.60975 0.81568 0.0
C302 C 0.98026 0.6328 0.81102 0.0
C303 C 1.01907 0.5851 0.8737 0.0
O304 O 1.02483 0.61094 0.81615 0.0
O305 O 0.06311 0.61564 0.83392 0.0
O306 O 0.99404 0.63862 0.86781 0.0
O307 O 1.03186 0.64124 0.86145 0.0
Co308 Co 0.84231 0.41407 0.5402 0.0
O309 O 0.80939 0.41702 0.54494 0.0
O310 O 0.84191 0.4429 0.55757 0.0
C311 C 0.83563 0.40112 0.50035 0.0
O312 O 0.87823 0.41961 0.53916 0.0
Co313 Co 0.86097 0.36959 0.5267 0.0
O314 O 0.89236 0.3895 0.52363 0.0
C315 C 0.85005 0.37867 0.57678 0.0
C316 C 0.81877 0.43701 0.55619 0.0
C317 C 0.89547 0.41039 0.53218 0.0
O318 O 0.84615 0.39887 0.5717 0.0
O319 O 0.85452 0.36391 0.56088 0.0
O320 O 0.83759 0.42295 0.50689 0.0
O321 O 0.83598 0.38768 0.5179 0.0
Co322 Co 0.75048 0.57839 0.3722 0.0
O323 O 0.74976 0.54792 0.35779 0.0
O324 O 0.77804 0.5783 0.35488 0.0
C325 C 0.74108 0.56664 0.40802 0.0
O326 O 0.75785 0.61218 0.38409 0.0
Co327 Co 0.7064 0.59473 0.3914 0.0
O328 O 0.72717 0.62537 0.39915 0.0
C329 C 0.70813 0.58595 0.33895 0.0
C330 C 0.76944 0.55661 0.34919 0.0
C331 C 0.74853 0.62852 0.3934 0.0
O332 O 0.7308 0.58557 0.34253 0.0
O333 O 0.69496 0.58697 0.35614 0.0
O334 O 0.76342 0.56957 0.40363 0.0
O335 O 0.72552 0.57035 0.39083 0.0
Tb336 Tb 0.07181 0.05775 0.04454 0.0
Eu337 Eu 0.11678 0.07919 0.08736 0.0
C338 C 0.12424 0.04993 0.0384 0.0
C339 C 0.08528 0.0314 0.0878 0.0
C340 C 1.01255 0.05672 1.01378 0.0
C341 C 0.9947 0.08862 0.99826 0.0
C342 C 1.01203 0.0743 0.99778 0.0
C343 C 0.99446 0.05298 0.02925 0.0
C344 C 0.97721 0.06733 0.02978 0.0
C345 C 0.97743 0.08567 1.01469 0.0
C346 C 1.03359 0.04468 0.01684 0.0
O347 O 0.05717 0.07554 0.07312 0.0
O348 O 0.0888 0.10058 0.095 0.0
O349 O 0.12046 0.10402 0.05842 0.0
O350 O 0.08231 0.09343 0.03757 0.0
C351 C 0.06571 0.09404 0.0878 0.0
O352 O 0.13421 0.0717 0.12212 0.0
O353 O 0.15057 0.10053 0.10379 0.0
O354 O 0.13069 0.05517 0.06163 0.0
O355 O 0.10305 0.05193 0.02761 0.0
O356 O 0.08271 0.02975 0.06417 0.0
O357 O 0.08906 0.05181 0.09917 0.0
C358 C 0.10326 0.10715 0.04195 0.0
O359 O 0.05342 0.05503 1.00945 0.0
O360 O 1.0378 0.03662 0.03792 0.0
C361 C 0.17548 0.07465 0.11914 0.0
C362 C 0.20718 0.04357 0.11093 0.0
C363 C 0.19661 0.04404 0.13261 0.0
C364 C 0.18076 0.05938 0.13661 0.0
C365 C 0.18768 0.07538 0.09842 0.0
C366 C 0.2032 0.0599 0.09429 0.0
C367 C 0.15401 0.08584 0.11996 0.0
H368 H 0.9951 0.10224 0.986 0.0
H369 H 1.02558 0.07761 0.98551 0.0
H370 H 0.99425 0.03962 0.04182 0.0
H371 H 0.96434 0.06461 0.04281 0.0
H372 H 0.19945 0.03164 0.14575 0.0
H373 H 0.17146 0.05829 0.15262 0.0
H374 H 0.18413 0.08696 0.08462 0.0
H375 H 0.21147 0.06013 0.07763 0.0
Tb376 Tb 0.3695 0.82472 0.30052 0.0
Eu377 Eu 0.31731 0.79573 0.27339 0.0
C378 C 0.32549 0.8504 0.29163 0.0
C379 C 0.33034 0.79634 0.33088 0.0
C380 C 0.42332 0.86661 0.33031 0.0
C381 C 0.428 0.90825 0.33071 0.0
C382 C 0.41642 0.88637 0.32097 0.0
C383 C 0.44185 0.86893 0.34948 0.0
C384 C 0.45335 0.89079 0.35933 0.0
C385 C 0.4465 0.91073 0.35013 0.0
C386 C 0.41045 0.84347 0.32152 0.0
O387 O 0.37426 0.79162 0.28394 0.0
O388 O 0.3382 0.76953 0.28811 0.0
O389 O 0.34307 0.80555 0.24621 0.0
O390 O 0.36393 0.83913 0.26548 0.0
C391 C 0.36145 0.77169 0.28758 0.0
O392 O 0.29945 0.77238 0.2429 0.0
O393 O 0.27804 0.78844 0.26668 0.0
O394 O 0.31382 0.8331 0.27678 0.0
O395 O 0.34614 0.85001 0.30455 0.0
O396 O 0.35264 0.80592 0.32874 0.0
O397 O 0.31319 0.79254 0.31265 0.0
C398 C 0.3554 0.82629 0.24543 0.0
O399 O 0.39204 0.83592 0.33266 0.0
O400 O 0.40575 0.83886 0.29819 0.0
C401 C 0.26133 0.75167 0.2477 0.0
C402 C 0.2301 0.70897 0.24379 0.0
C403 C 0.25327 0.71153 0.2565 0.0
C404 C 0.26874 0.73275 0.25851 0.0
C405 C 0.23813 0.74933 0.23536 0.0
C406 C 0.22256 0.72813 0.23348 0.0
C407 C 0.27786 0.77364 0.24832 0.0
H408 H 0.42256 0.92321 0.32285 0.0
H409 H 0.402 0.88489 0.3063 0.0
H410 H 0.44719 0.85379 0.35709 0.0
H411 H 0.46731 0.89205 0.37439 0.0
H412 H 0.25938 0.69712 0.26494 0.0
H413 H 0.28658 0.73434 0.26823 0.0
H414 H 0.23219 0.76381 0.22689 0.0
H415 H 0.20485 0.72658 0.2235 0.0
Tb416 Tb 0.57132 0.03107 0.525 0.0
Eu417 Eu 0.60645 0.07221 0.55958 0.0
C418 C 0.58178 1.02525 0.57855 0.0
C419 C 0.54861 0.07503 0.54598 0.0
C420 C 0.53759 0.98454 0.47658 0.0
C421 C 0.50785 0.96204 0.44612 0.0
C422 C 0.51462 0.98061 0.46347 0.0
C423 C 0.55445 0.97083 0.47082 0.0
C424 C 0.54772 0.9523 0.45329 0.0
C425 C 0.52404 0.94721 0.44156 0.0
C426 C 0.542 1.00111 0.49786 0.0
O427 O 0.59263 0.05262 0.50217 0.0
O428 O 0.59698 0.08681 0.52446 0.0
O429 O 0.63245 0.05003 0.54521 0.0
O430 O 0.60606 1.01704 0.53021 0.0
C431 C 0.59422 0.07508 0.50349 0.0
O432 O 0.63858 0.09857 0.56616 0.0
O433 O 0.616 0.09099 0.59499 0.0
O434 O 0.60185 0.03984 0.57901 0.0
O435 O 0.56404 1.02536 0.56171 0.0
O436 O 0.5469 0.05644 0.5309 0.0
O437 O 0.56893 0.08272 0.56029 0.0
C438 C 0.62854 0.02794 0.53724 0.0
O439 O 0.55515 0.99642 0.51696 0.0
O440 O 0.54593 1.02294 0.49418 0.0
C441 C 0.63599 0.12911 0.59414 0.0
C442 C 0.63935 0.17656 0.60602 0.0
C443 C 0.62445 0.16579 0.58537 0.0
C444 C 0.62272 0.1422 0.57951 0.0
C445 C 0.6508 0.1397 0.61476 0.0
C446 C 0.65246 0.16327 0.62071 0.0
C447 C 0.63444 0.10441 0.58811 0.0
H448 H 0.48957 0.95851 0.43721 0.0
H449 H 0.50142 0.99112 0.46766 0.0
H450 H 0.57229 0.97367 0.48073 0.0
H451 H 0.56048 0.94097 0.45022 0.0
H452 H 0.6139 0.17554 0.57393 0.0
H453 H 0.61104 0.13416 0.5636 0.0
H454 H 0.66112 0.12975 0.62621 0.0
H455 H 0.66421 0.17116 0.63661 0.0
Tb456 Tb 0.31582 0.30474 0.78277 0.0
Eu457 Eu 0.36539 0.29121 0.8068 0.0
C458 C 0.36485 0.33581 0.77545 0.0
C459 C 0.34698 0.27596 0.74988 0.0
C460 C 0.25279 0.30774 0.77797 0.0
C461 C 0.20984 0.29413 0.77591 0.0
C462 C 0.23012 0.30197 0.76444 0.0
C463 C 0.25494 0.30637 0.80308 0.0
C464 C 0.23489 0.29832 0.81445 0.0
C465 C 0.21214 0.29171 0.80099 0.0
C466 C 0.27465 0.31078 0.76595 0.0
O467 O 0.30593 0.28114 0.81005 0.0
O468 O 0.3362 0.26078 0.80792 0.0
O469 O 0.34993 0.30765 0.83877 0.0
O470 O 0.32348 0.32677 0.81761 0.0
C471 C 0.31504 0.26263 0.81415 0.0
O472 O 0.38582 0.26434 0.81681 0.0
O473 O 0.40111 0.30007 0.82722 0.0
O474 O 0.37627 0.32577 0.79237 0.0
O475 O 0.34221 0.32848 0.76718 0.0
O476 O 0.32577 0.28057 0.75468 0.0
O477 O 0.36582 0.28146 0.76643 0.0
C478 C 0.33545 0.32308 0.83839 0.0
O479 O 0.29175 0.32762 0.77511 0.0
O480 O 0.28279 0.29165 0.76231 0.0
C481 C 0.42727 0.27617 0.81433 0.0
C482 C 0.46781 0.27842 0.789 0.0
C483 C 0.46945 0.29057 0.81174 0.0
C484 C 0.44933 0.2894 0.82432 0.0
C485 C 0.42608 0.26267 0.79248 0.0
C486 C 0.44623 0.26369 0.78002 0.0
C487 C 0.40521 0.27898 0.82502 0.0
H488 H 0.19251 0.28946 0.76509 0.0
H489 H 0.22827 0.30259 0.74496 0.0
H490 H 0.2724 0.31029 0.81376 0.0
H491 H 0.23753 0.29625 0.83366 0.0
H492 H 0.48575 0.30223 0.81908 0.0
H493 H 0.45061 0.29993 0.84113 0.0
H494 H 0.40932 0.25223 0.78432 0.0
H495 H 0.44455 0.25381 0.76276 0.0
Tb496 Tb 0.09125 0.03788 0.51292 0.0
Eu497 Eu 0.08881 0.06395 0.5639 0.0
C498 C 0.13935 0.07099 0.53787 0.0
C499 C 0.09185 1.00738 0.56073 0.0
C500 C 0.0968 1.01919 0.44757 0.0
C501 C 0.09848 0.99881 0.409 0.0
C502 C 0.10033 0.99946 0.43417 0.0
C503 C 0.09431 0.03922 0.43582 0.0
C504 C 0.09242 0.03857 0.4106 0.0
C505 C 0.09294 1.01787 0.39695 0.0
C506 C 0.0906 1.01671 0.47225 0.0
O507 O 0.05325 1.0263 0.51965 0.0
O508 O 0.04963 0.04673 0.55479 0.0
O509 O 0.08414 0.09256 0.53808 0.0
O510 O 0.09108 0.07467 0.5026 0.0
C511 C 1.04014 0.03152 0.53676 0.0
O512 O 0.07132 0.08308 0.58951 0.0
O513 O 0.10768 0.07685 0.59907 0.0
O514 O 0.12657 0.07799 0.55434 0.0
O515 O 0.12972 0.05369 0.52189 0.0
O516 O 0.09307 1.00877 0.53715 0.0
O517 O 0.09106 1.02645 0.57429 0.0
C518 C 0.08774 0.0937 0.51506 0.0
O519 O 0.10797 1.01762 0.48972 0.0
O520 O 0.07355 0.02738 0.47846 0.0
C521 C 0.08382 0.07875 0.63048 0.0
C522 C 0.08497 0.06857 0.67902 0.0
C523 C 0.08508 0.09134 0.6727 0.0
C524 C 0.0846 0.09639 0.64855 0.0
C525 C 0.08135 0.05575 0.63643 0.0
C526 C 0.08194 0.05068 0.6606 0.0
C527 C 0.08937 0.08487 0.60644 0.0
H528 H 0.09931 0.98277 0.3989 0.0
H529 H 0.10237 0.98388 0.443 0.0
H530 H 0.09166 0.05467 0.44591 0.0
H531 H 0.0881 0.05353 0.40184 0.0
H532 H 0.08765 0.10552 0.68647 0.0
H533 H 0.08654 0.11423 0.64417 0.0
H534 H 0.08062 0.04192 0.62256 0.0
H535 H 0.08157 0.03297 0.66499 0.0
Tb536 Tb 0.32801 0.78773 0.79572 0.0
Eu537 Eu 0.34914 0.83889 0.78078 0.0
C538 C 0.32661 0.83135 0.83141 0.0
C539 C 0.29191 0.81558 0.76691 0.0
C540 C 0.32412 0.72611 0.79407 0.0
C541 C 0.32562 0.68516 0.79119 0.0
C542 C 0.31561 0.70369 0.80006 0.0
C543 C 0.3424 0.7298 0.77894 0.0
C544 C 0.35221 0.71143 0.76997 0.0
C545 C 0.34422 0.68893 0.77624 0.0
C546 C 0.31444 0.74601 0.80328 0.0
O547 O 0.33434 0.78389 0.75792 0.0
O548 O 0.36367 0.81495 0.75573 0.0
O549 O 0.38135 0.82967 0.80389 0.0
O550 O 0.36773 0.79089 0.80549 0.0
C551 C 0.35143 0.79496 0.74675 0.0
O552 O 0.35446 0.86263 0.75246 0.0
O553 O 0.36671 0.87463 0.7898 0.0
O554 O 0.3308 0.84508 0.81402 0.0
O555 O 0.32647 0.80906 0.82843 0.0
O556 O 0.29465 0.80146 0.78427 0.0
O557 O 0.31099 0.82907 0.76073 0.0
C558 C 0.38508 0.80923 0.81021 0.0
O559 O 0.32943 0.76053 0.81838 0.0
O560 O 0.30375 0.75663 0.78671 0.0
C561 C 0.34905 0.89992 0.76575 0.0
C562 C 0.3217 0.93524 0.77037 0.0
C563 C 0.34654 0.93943 0.77823 0.0
C564 C 0.36009 0.92188 0.77591 0.0
C565 C 0.32458 0.89608 0.7566 0.0
C566 C 0.31108 0.91364 0.75875 0.0
C567 C 0.36216 0.88051 0.76783 0.0
H568 H 0.31921 0.66802 0.79644 0.0
H569 H 0.30149 0.70058 0.81174 0.0
H570 H 0.34922 0.747 0.77414 0.0
H571 H 0.36613 0.71491 0.75813 0.0
H572 H 0.35522 0.95579 0.7875 0.0
H573 H 0.3789 0.92509 0.78325 0.0
H574 H 0.31557 0.87922 0.74878 0.0
H575 H 0.29208 0.91 0.75216 0.0
Tb576 Tb 0.59929 0.05005 0.06007 0.0
Eu577 Eu 0.5746 0.06305 1.00973 0.0
C578 C 0.59145 1.01152 1.01346 0.0
C579 C 0.62975 0.08156 0.02579 0.0
C580 C 0.61581 1.02169 0.11629 0.0
C581 C 0.63255 1.00787 0.15325 0.0
C582 C 0.63579 1.01788 0.13146 0.0
C583 C 0.59267 1.01185 0.12103 0.0
C584 C 0.5894 1.00256 0.1431 0.0
C585 C 0.60932 1.00271 0.16055 0.0
C586 C 0.61888 0.04028 0.09985 0.0
O587 O 0.58524 0.08253 0.07042 0.0
O588 O 0.58261 0.09738 0.03364 0.0
O589 O 0.54414 0.04871 0.03013 0.0
O590 O 0.56438 0.02767 0.05554 0.0
C591 C 0.58322 0.10048 0.05737 0.0
O592 O 0.55324 0.08601 0.99149 0.0
O593 O 0.5633 0.05761 0.97106 0.0
O594 O 0.57854 1.0248 1.00115 0.0
O595 O 0.60259 1.01941 0.03531 0.0
O596 O 0.62583 0.07643 0.04774 0.0
O597 O 0.6141 0.07355 1.00708 0.0
C598 C 0.54428 0.03186 0.04439 0.0
O599 O 0.62704 0.03619 0.07932 0.0
O600 O 0.60129 0.05195 0.09755 0.0
C601 C 0.56348 0.09208 0.95241 0.0
C602 C 0.58097 0.11003 0.91099 0.0
C603 C 0.55646 0.10874 0.91423 0.0
C604 C 0.54767 0.09925 0.93463 0.0
C605 C 0.58832 0.09742 0.95141 0.0
C606 C 0.59705 0.10632 0.93086 0.0
C607 C 0.55427 0.07652 0.9701 0.0
H608 H 0.64836 1.00684 0.16554 0.0
H609 H 0.65386 1.02478 0.12773 0.0
H610 H 0.57694 1.01397 0.10912 0.0
H611 H 0.57112 0.99826 0.1474 0.0
H612 H 0.54367 0.1126 0.89989 0.0
H613 H 0.52844 0.09591 0.93558 0.0
H614 H 0.60084 0.09259 0.96543 0.0
H615 H 0.61609 0.1074 0.92964 0.0
Tb616 Tb 0.35216 0.32208 0.30279 0.0
Eu617 Eu 0.32872 0.27435 0.27337 0.0
C618 C 0.35206 0.27573 0.3314 0.0
C619 C 0.38584 0.29827 0.26957 0.0
C620 C 0.35292 0.38205 0.32046 0.0
C621 C 0.32507 0.40462 0.33629 0.0
C622 C 0.3422 0.39028 0.34001 0.0
C623 C 0.34769 0.38999 0.29752 0.0
C624 C 0.33063 0.40432 0.29382 0.0
C625 C 0.31844 0.41105 0.31296 0.0
C626 C 0.36555 0.36218 0.32309 0.0
O627 O 0.34068 0.33288 0.26608 0.0
O628 O 0.31748 0.30008 0.24695 0.0
O629 O 0.29583 0.28259 0.29084 0.0
O630 O 0.31384 0.31701 0.31134 0.0
C631 C 0.32699 0.32209 0.2467 0.0
O632 O 0.31937 0.25267 0.23938 0.0
O633 O 0.31588 0.23724 0.27305 0.0
O634 O 0.3421 0.26371 0.31105 0.0
O635 O 0.35875 0.29836 0.33153 0.0
O636 O 0.38507 0.31184 0.2892 0.0
O637 O 0.36614 0.28397 0.26035 0.0
C638 C 0.29483 0.30024 0.30624 0.0
O639 O 0.35418 0.34515 0.33345 0.0
O640 O 0.37418 0.35472 0.30404 0.0
C641 C 0.33424 0.21834 0.24419 0.0
C642 C 0.36817 0.1902 0.23435 0.0
C643 C 0.34377 0.18344 0.22504 0.0
C644 C 0.3269 0.19755 0.22982 0.0
C645 C 0.35851 0.22497 0.25347 0.0
C646 C 0.37528 0.21117 0.24853 0.0
C647 C 0.31726 0.23354 0.25007 0.0
H648 H 0.31632 0.40991 0.3515 0.0
H649 H 0.34593 0.38444 0.35787 0.0
H650 H 0.3556 0.384 0.28202 0.0
H651 H 0.32589 0.40884 0.27559 0.0
H652 H 0.33779 0.1673 0.21416 0.0
H653 H 0.30821 0.19217 0.22254 0.0
H654 H 0.36449 0.24071 0.26498 0.0
H655 H 0.39374 0.21661 0.25654 0.0
Tb656 Tb 0.58991 0.54104 1.01107 0.0
Eu657 Eu 0.58608 0.56694 0.06126 0.0
C658 C 0.63847 0.57181 0.03904 0.0
C659 C 0.59245 0.5112 0.05897 0.0
C660 C 0.59594 0.52725 0.94616 0.0
C661 C 0.59109 0.51571 0.90338 0.0
C662 C 0.59251 0.50993 0.92732 0.0
C663 C 0.60068 0.55049 0.94109 0.0
C664 C 0.59924 0.55631 0.91712 0.0
C665 C 0.5929 0.53894 0.89808 0.0
C666 C 0.58985 0.52094 0.96999 0.0
O667 O 0.55347 0.52642 0.02024 0.0
O668 O 0.54659 0.55482 0.04643 0.0
O669 O 0.582 0.59581 0.03584 0.0
O670 O 0.58792 0.57745 1.00032 0.0
C671 C 0.53852 0.53554 0.03289 0.0
O672 O 0.57083 0.56753 0.09555 0.0
O673 O 0.59584 0.59697 0.08715 0.0
O674 O 0.62664 0.5751 0.05779 0.0
O675 O 0.62752 0.55907 0.01957 0.0
O676 O 0.5945 0.51261 0.03553 0.0
O677 O 0.58999 0.52999 0.07211 0.0
C678 C 0.58514 0.5967 1.01275 0.0
O679 O 0.60754 0.52252 0.98727 0.0
O680 O 0.57165 0.52936 0.97706 0.0
C681 C 0.59765 0.58749 0.12728 0.0
C682 C 0.62299 0.58623 0.17293 0.0
C683 C 0.60165 0.59551 0.17062 0.0
C684 C 0.58905 0.59612 0.14789 0.0
C685 C 0.61903 0.5784 0.12941 0.0
C686 C 0.63168 0.57785 0.15211 0.0
C687 C 0.58394 0.58726 0.10364 0.0
H688 H 0.58606 0.5019 0.88919 0.0
H689 H 0.58883 0.49192 0.93102 0.0
H690 H 0.6035 0.56407 0.95555 0.0
H691 H 0.60105 0.57435 0.91353 0.0
H692 H 0.59473 0.60233 0.18639 0.0
H693 H 0.57253 0.60314 0.14642 0.0
H694 H 0.62574 0.57152 0.11354 0.0
H695 H 0.64793 0.57039 0.15342 0.0
Tb696 Tb 0.83101 0.28782 0.29497 0.0
Eu697 Eu 0.85335 0.33765 0.27834 0.0
C698 C 0.83162 0.33346 0.329 0.0
C699 C 0.79557 0.31677 0.26577 0.0
C700 C 0.82162 0.22524 0.3023 0.0
C701 C 0.83714 0.19206 0.31712 0.0
C702 C 0.82852 0.21256 0.32156 0.0
C703 C 0.82257 0.21667 0.27844 0.0
C704 C 0.83093 0.19607 0.274 0.0
C705 C 0.83874 0.18383 0.29331 0.0
C706 C 0.81531 0.24809 0.30745 0.0
O707 O 0.83566 0.28106 0.25707 0.0
O708 O 0.86499 0.31167 0.25287 0.0
O709 O 0.88286 0.32815 0.30479 0.0
O710 O 0.8709 0.28907 0.3013 0.0
C711 C 0.85191 0.29173 0.24462 0.0
O712 O 0.85928 0.3606 0.24941 0.0
O713 O 0.8755 0.37177 0.28587 0.0
O714 O 0.83475 0.34639 0.31075 0.0
O715 O 0.83226 0.31128 0.32686 0.0
O716 O 0.79814 0.30214 0.28269 0.0
O717 O 0.81468 0.33023 0.2597 0.0
C718 C 0.88747 0.30747 0.30882 0.0
O719 O 0.83188 0.26296 0.32049 0.0
O720 O 0.80531 0.25743 0.28934 0.0
C721 C 0.8616 0.39942 0.26253 0.0
C722 C 0.84453 0.44141 0.26565 0.0
C723 C 0.86868 0.44108 0.26218 0.0
C724 C 0.87717 0.42016 0.26066 0.0
C725 C 0.83734 0.39958 0.26507 0.0
C726 C 0.82887 0.42037 0.26658 0.0
C727 C 0.87089 0.37782 0.26401 0.0
H728 H 0.84292 0.18283 0.3323 0.0
H729 H 0.82793 0.21888 0.34008 0.0
H730 H 0.81757 0.22618 0.2632 0.0
H731 H 0.83227 0.19024 0.25549 0.0
H732 H 0.88111 0.457 0.26129 0.0
H733 H 0.89599 0.42024 0.25878 0.0
H734 H 0.82516 0.38367 0.26681 0.0
H735 H 0.81031 0.41997 0.26978 0.0
Tb736 Tb 0.09828 0.54469 0.55377 0.0
Eu737 Eu 0.07734 0.55883 0.50185 0.0
C738 C 0.09469 0.50784 0.50549 0.0
C739 C 0.13291 0.57555 0.52108 0.0
C740 C 0.10599 0.53344 0.61768 0.0
C741 C 0.11346 0.53183 0.661 0.0
C742 C 0.12029 0.52827 0.63794 0.0
C743 C 0.08459 0.54165 0.62043 0.0
C744 C 0.07773 0.54514 0.64336 0.0
C745 C 0.09224 0.54054 0.66388 0.0
C746 C 0.11372 0.53129 0.5937 0.0
O747 O 0.08822 0.57851 0.56569 0.0
O748 O 0.07804 0.59106 0.52849 0.0
O749 O 0.05047 0.5305 0.51277 0.0
O750 O 0.05931 0.53691 0.55346 0.0
C751 C 0.0821 0.59511 0.55239 0.0
O752 O 0.0488 0.57491 0.48413 0.0
O753 O 0.07354 0.56044 0.46296 0.0
O754 O 0.08609 0.5227 0.49139 0.0
O755 O 0.10098 0.5139 0.52895 0.0
O756 O 0.12952 0.56529 0.54107 0.0
O757 O 0.11613 0.57405 0.50281 0.0
C758 C 0.04513 0.52675 0.5345 0.0
O759 O 0.09818 0.51845 0.57761 0.0
O760 O 0.12267 0.55065 0.58541 0.0
C761 C 0.061 0.59365 0.45001 0.0
C762 C 0.08275 0.62237 0.41735 0.0
C763 C 0.06043 0.60775 0.41023 0.0
C764 C 0.04978 0.59331 0.42647 0.0
C765 C 0.08056 0.61114 0.45842 0.0
C766 C 0.09119 0.62573 0.44218 0.0
C767 C 0.05648 0.57281 0.46298 0.0
H768 H 0.12487 0.52807 0.67656 0.0
H769 H 0.13688 0.52192 0.63595 0.0
H770 H 0.07347 0.54587 0.60487 0.0
H771 H 0.06154 0.55229 0.64506 0.0
H772 H 0.05288 0.60477 0.39146 0.0
H773 H 1.03449 0.58005 0.41982 0.0
H774 H 0.08924 0.61179 0.47677 0.0
H775 H 0.10777 0.63745 0.44851 0.0
Tb776 Tb 0.81974 0.80555 0.28634 0.0
Eu777 Eu 0.87248 0.79642 0.30776 0.0
C778 C 0.86625 0.83847 0.27445 0.0
C779 C 0.85081 0.7785 0.25207 0.0
C780 C 0.75566 0.80719 0.28439 0.0
C781 C 0.71231 0.7978 0.28331 0.0
C782 C 0.73274 0.80287 0.27128 0.0
C783 C 0.75801 0.8069 0.30965 0.0
C784 C 0.73765 0.80187 0.32167 0.0
C785 C 0.71459 0.79693 0.30861 0.0
C786 C 0.77713 0.80927 0.2717 0.0
O787 O 0.81364 0.78198 0.31465 0.0
O788 O 0.84637 0.76468 0.3126 0.0
O789 O 0.85698 0.81135 0.34051 0.0
O790 O 0.82791 0.82833 0.32052 0.0
C791 C 0.82514 0.76501 0.3195 0.0
O792 O 0.89824 0.77305 0.31296 0.0
O793 O 0.90724 0.80805 0.32922 0.0
O794 O 0.8794 0.83044 0.29161 0.0
O795 O 0.84354 0.82959 0.26784 0.0
O796 O 0.8295 0.78145 0.25819 0.0
O797 O 0.8704 0.78592 0.26726 0.0
C798 C 0.84118 0.8255 0.34081 0.0
O799 O 0.79407 0.82688 0.27892 0.0
O800 O 0.7857 0.7902 0.26934 0.0
C801 C 0.93786 0.792 0.31336 0.0
C802 C 0.9812 0.7978 0.29239 0.0
C803 C 0.98003 0.78878 0.31516 0.0
C804 C 0.95844 0.78586 0.32556 0.0
C805 C 0.93891 0.80093 0.29067 0.0
C806 C 0.96039 0.80383 0.28028 0.0
C807 C 0.91516 0.78905 0.324 0.0
H808 H 0.69475 0.79433 0.27281 0.0
H809 H 0.73069 0.80281 0.25174 0.0
H810 H 0.77565 0.80982 0.32001 0.0
H811 H 0.74005 0.80101 0.34111 0.0
H812 H 0.99574 0.78385 0.32483 0.0
H813 H 0.95782 0.77886 0.34307 0.0
H814 H 0.92312 0.80579 0.28106 0.0
H815 H 0.96079 0.81123 0.26296 0.0
Tb816 Tb 0.83651 0.34176 0.80307 0.0
Eu817 Eu 0.808 0.29332 0.77214 0.0
C818 C 0.78779 0.34028 0.77473 0.0
C819 C 0.80712 0.30117 0.82964 0.0
C820 C 0.87804 0.39719 0.83167 0.0
C821 C 0.89214 0.43855 0.83723 0.0
C822 C 0.87405 0.41982 0.82919 0.0
C823 C 0.90096 0.39363 0.84136 0.0
C824 C 0.91916 0.41247 0.84938 0.0
C825 C 0.91463 0.43511 0.84809 0.0
C826 C 0.85711 0.37824 0.82788 0.0
O827 O 0.8634 0.32074 0.79608 0.0
O828 O 0.8401 0.28482 0.7945 0.0
O829 O 0.83425 0.31009 0.74815 0.0
O830 O 0.84109 0.34756 0.76521 0.0
C831 C 0.86102 0.29855 0.79909 0.0
O832 O 0.80586 0.25923 0.75327 0.0
O833 O 0.77422 0.27558 0.75294 0.0
O834 O 0.79254 0.32395 0.76015 0.0
O835 O 0.79852 0.34367 0.79686 0.0
O836 O 0.82453 0.31905 0.83043 0.0
O837 O 0.79542 0.29104 0.80917 0.0
C838 C 0.84137 0.33238 0.74693 0.0
O839 O 0.84141 0.37791 0.80898 0.0
O840 O 0.86044 0.3576 0.8328 0.0
C841 C 0.76741 0.23468 0.74996 0.0
C842 C 0.7357 0.19225 0.74974 0.0
C843 C 0.75816 0.19313 0.74088 0.0
C844 C 0.77377 0.21415 0.74088 0.0
C845 C 0.74536 0.23374 0.75959 0.0
C846 C 0.72968 0.21278 0.75942 0.0
C847 C 0.78267 0.25701 0.74708 0.0
H848 H 0.88827 0.45581 0.83554 0.0
H849 H 0.85653 0.42307 0.82201 0.0
H850 H 0.90454 0.37637 0.84373 0.0
H851 H 0.93634 0.40932 0.85765 0.0
H852 H 0.76362 0.17761 0.73372 0.0
H853 H 0.7906 0.21443 0.73325 0.0
H854 H 0.73981 0.24926 0.76664 0.0
H855 H 0.71246 0.21286 0.76612 0.0
Tb856 Tb 0.85161 0.82132 0.80507 0.0
Eu857 Eu 0.82556 0.77401 0.77607 0.0
C858 C 0.84855 0.77522 0.83405 0.0
C859 C 0.88303 0.79522 0.77002 0.0
C860 C 0.85811 0.88206 0.82238 0.0
C861 C 0.83063 0.90592 0.83647 0.0
C862 C 0.84706 0.89109 0.84124 0.0
C863 C 0.85466 0.89029 0.79929 0.0
C864 C 0.83826 0.90508 0.79453 0.0
C865 C 0.82509 0.91199 0.81277 0.0
C866 C 0.86838 0.86085 0.82546 0.0
O867 O 0.83668 0.83361 0.77023 0.0
O868 O 0.82366 0.79973 0.74699 0.0
O869 O 0.79373 0.78511 0.79343 0.0
O870 O 0.81432 0.81705 0.81661 0.0
C871 C 0.82861 0.82246 0.74884 0.0
O872 O 0.80234 0.75338 0.74586 0.0
O873 O 0.82051 0.73662 0.77388 0.0
O874 O 0.83447 0.76411 0.81514 0.0
O875 O 0.85952 0.79667 0.83246 0.0
O876 O 0.88274 0.81094 0.78796 0.0
O877 O 0.86343 0.77973 0.76314 0.0
C878 C 0.79414 0.80189 0.81034 0.0
O879 O 0.85515 0.84483 0.8356 0.0
O880 O 0.87654 0.85225 0.80666 0.0
C881 C 0.81882 0.72043 0.73491 0.0
C882 C 0.84999 0.69114 0.72063 0.0
C883 C 0.82581 0.68213 0.72329 0.0
C884 C 0.81053 0.69667 0.73105 0.0
C885 C 0.84104 0.72976 0.7276 0.0
C886 C 0.85667 0.7153 0.72082 0.0
C887 C 0.80837 0.73407 0.75247 0.0
H888 H 0.82113 0.91144 0.851 0.0
H889 H 0.84956 0.88517 0.85923 0.0
H890 H 0.86303 0.88383 0.78434 0.0
H891 H 0.83443 0.90942 0.77608 0.0
H892 H 0.8193 0.66373 0.72177 0.0
H893 H 0.79321 0.68915 0.7362 0.0
H894 H 0.84747 0.74816 0.72985 0.0
H895 H 0.87476 0.72335 0.71852 0.0
Tb896 Tb 0.59658 0.58928 0.54075 0.0
Eu897 Eu 0.63897 0.60011 0.58769 0.0
C898 C 0.64591 0.57301 0.53753 0.0
C899 C 0.60093 0.55357 0.57832 0.0
C900 C 0.53957 0.59323 0.50573 0.0
C901 C 0.51205 0.61833 0.49152 0.0
C902 C 0.53262 0.60863 0.48921 0.0
C903 C 0.52488 0.58672 0.52384 0.0
C904 C 0.50428 0.59638 0.52613 0.0
C905 C 0.49802 0.61282 0.51044 0.0
C906 C 0.56374 0.58706 0.50616 0.0
O907 O 0.58412 0.61197 0.56679 0.0
O908 O 0.60434 0.60426 0.60249 0.0
O909 O 0.6331 0.63393 0.57333 0.0
O910 O 0.62685 0.61577 0.53609 0.0
C911 C 0.58573 0.61075 0.59033 0.0
O912 O 0.65311 0.59373 0.62422 0.0
O913 O 0.67611 0.61453 0.60223 0.0
O914 O 0.65546 0.58845 0.55529 0.0
O915 O 0.62254 0.56808 0.53107 0.0
O916 O 0.5855 0.56419 0.56632 0.0
O917 O 0.62383 0.56234 0.58228 0.0
C918 C 0.63079 0.63503 0.54983 0.0
O919 O 0.58134 0.60447 0.51116 0.0
O920 O 0.56775 0.56932 0.51794 0.0
C921 C 0.69089 0.58383 0.61999 0.0
C922 C 0.71994 0.54957 0.61559 0.0
C923 C 0.72726 0.56874 0.63267 0.0
C924 C 0.71275 0.58577 0.63491 0.0
C925 C 0.68385 0.5648 0.603 0.0
C926 C 0.69806 0.54793 0.60083 0.0
C927 C 0.67527 0.6015 0.62044 0.0
H928 H 0.50747 0.63061 0.47886 0.0
H929 H 0.54374 0.61397 0.47518 0.0
H930 H 0.52997 0.57512 0.53706 0.0
H931 H 0.49403 0.59191 0.54103 0.0
H932 H 0.74412 0.57053 0.64426 0.0
H933 H 0.71866 0.60043 0.64799 0.0
H934 H 0.66742 0.56308 0.59094 0.0
H935 H 0.69212 0.53388 0.58702 0.0
Tb936 Tb 0.07319 0.53521 0.03292 0.0
Eu937 Eu 0.10885 0.57513 0.06809 0.0
C938 C 0.08275 0.52863 0.08648 0.0
C939 C 0.05087 0.57896 0.05408 0.0
C940 C 0.04287 0.48934 0.98401 0.0
C941 C 1.01726 0.46386 0.95273 0.0
C942 C 1.02053 0.48234 0.97014 0.0
C943 C 0.06254 0.47905 0.97902 0.0
C944 C 0.05929 0.46055 0.96154 0.0
C945 C 1.03635 0.45219 0.94905 0.0
C946 C 0.04431 0.50565 1.005 0.0
O947 O 0.09399 0.55786 1.01049 0.0
O948 O 0.09931 0.59133 0.0341 0.0
O949 O 0.13444 0.5531 0.0523 0.0
O950 O 0.10749 0.52056 0.03734 0.0
C951 C 0.09551 0.58032 1.01272 0.0
O952 O 0.14176 0.60036 0.07563 0.0
O953 O 0.11842 0.5931 0.10395 0.0
O954 O 0.10334 0.54236 0.08679 0.0
O955 O 0.06529 0.52922 0.06948 0.0
O956 O 0.04884 0.56026 0.03919 0.0
O957 O 0.07142 0.58661 0.06822 0.0
C958 C 0.13013 0.53111 0.04395 0.0
O959 O 0.0559 0.50096 0.02507 0.0
O960 O 0.04893 0.52744 1.00128 0.0
C961 C 0.14199 0.63023 0.10553 0.0
C962 C 0.15228 0.67759 0.12008 0.0
C963 C 0.13643 0.66939 0.0991 0.0
C964 C 0.13127 0.64583 0.0919 0.0
C965 C 0.15756 0.63826 0.12656 0.0
C966 C 0.16266 0.66176 0.13382 0.0
C967 C 0.13781 0.60563 0.09779 0.0
H968 H 0.99948 0.45783 0.94317 0.0
H969 H 1.00525 0.49033 0.97371 0.0
H970 H 0.07996 0.48444 0.98953 0.0
H971 H 0.07425 0.45171 0.95918 0.0
H972 H 0.12791 0.68116 0.08835 0.0
H973 H 0.11912 0.63982 0.07563 0.0
H974 H 0.166 0.62636 0.13722 0.0
H975 H 0.17511 0.66758 0.14991 0.0
H976 H 0.0628 0.23168 1.00273 0.0
H977 H 0.09961 0.10842 0.99365 0.0
H978 H 0.06407 0.19263 0.93504 0.0
H979 H 0.11119 0.15192 0.06001 0.0
H980 H 0.09167 0.14119 0.97123 0.0
H981 H 0.08386 0.2044 0.02375 0.0
C982 C 0.06743 0.21735 0.99227 0.0
C983 C 0.06128 0.21424 0.96711 0.0
C984 C 0.09652 0.14383 0.99061 0.0
C985 C 0.08568 0.18317 0.99104 0.0
C986 C 0.10123 0.12518 1.00333 0.0
C987 C 0.10607 0.12773 0.02853 0.0
C988 C 0.09594 0.16491 1.00338 0.0
C989 C 0.1077 0.14953 0.04048 0.0
C990 C 0.07969 0.20193 1.00428 0.0
C991 C 0.06811 0.19557 0.95449 0.0
N992 N 0.10212 0.1673 0.02781 0.0
N993 N 0.07977 0.18065 0.96663 0.0
H994 H 0.20882 0.9116 0.25638 0.0
H995 H 0.34182 0.88796 0.26852 0.0
H996 H 0.25672 0.92164 0.20119 0.0
H997 H 0.28636 0.86018 0.31114 0.0
H998 H 0.31704 0.9159 0.25411 0.0
H999 H 0.24312 0.90953 0.28589 0.0
C1000 C 0.22664 0.91403 0.25058 0.0
C1001 C 0.2298 0.91587 0.22608 0.0
C1002 C 0.31072 0.90433 0.26739 0.0
C1003 C 0.26902 0.91323 0.25973 0.0
C1004 C 0.32491 0.88856 0.27573 0.0
C1005 C 0.31591 0.87189 0.29091 0.0
C1006 C 0.28745 0.90316 0.27427 0.0
C1007 C 0.29379 0.87289 0.29944 0.0
C1008 C 0.24622 0.91284 0.26747 0.0
C1009 C 0.25337 0.91959 0.21977 0.0
N1010 N 0.28009 0.88802 0.29068 0.0
N1011 N 0.27206 0.91749 0.23638 0.0
H1012 H 0.49268 0.80478 0.43815 0.0
H1013 H 0.54371 0.92676 0.40493 0.0
H1014 H 0.51842 0.81483 0.36874 0.0
H1015 H 0.48497 0.91597 0.44854 0.0
H1016 H 0.53361 0.88605 0.38972 0.0
H1017 H 0.48795 0.84532 0.44148 0.0
C1018 C 0.49689 0.81542 0.42343 0.0
C1019 C 0.5063 0.80662 0.40335 0.0
C1020 C 0.52258 0.89276 0.40217 0.0
C1021 C 0.50143 0.85289 0.40721 0.0
C1022 C 0.52839 0.9159 0.41086 0.0
C1023 C 0.51529 0.92455 0.42813 0.0
C1024 C 0.50406 0.87816 0.41143 0.0
C1025 C 0.49551 0.9099 0.43521 0.0
C1026 C 0.49411 0.8385 0.42528 0.0
C1027 C 0.51131 0.82104 0.38466 0.0
N1028 N 0.49083 0.88725 0.42728 0.0
N1029 N 0.50938 0.84366 0.3873 0.0
H1030 H 0.54466 0.33512 0.67547 0.0
H1031 H 0.51677 0.28523 0.80176 0.0
H1032 H 0.59702 0.34194 0.73863 0.0
H1033 H 0.46304 0.28429 0.74064 0.0
H1034 H 0.54786 0.30046 0.77683 0.0
H1035 H 0.51579 0.31121 0.6972 0.0
C1036 C 0.55009 0.33152 0.69387 0.0
C1037 C 0.57312 0.34074 0.70539 0.0
C1038 C 0.52928 0.29661 0.76881 0.0
C1039 C 0.54034 0.31341 0.73029 0.0
C1040 C 0.51155 0.28795 0.78304 0.0
C1041 C 0.48726 0.28367 0.77335 0.0
C1042 C 0.52263 0.30112 0.7448 0.0
C1043 C 0.48154 0.28714 0.74886 0.0
C1044 C 0.53366 0.31784 0.70625 0.0
C1045 C 0.57934 0.33537 0.72916 0.0
N1046 N 0.49906 0.29591 0.73552 0.0
N1047 N 0.56298 0.32217 0.74089 0.0
H1048 H 0.07837 0.89056 0.65949 0.0
H1049 H 0.09269 0.96307 0.53899 0.0
H1050 H 0.08364 0.85798 0.58977 0.0
H1051 H 0.08789 0.99541 0.609 0.0
H1052 H 0.08974 0.92544 0.55678 0.0
H1053 H 0.08199 0.9282 0.6417 0.0
C1054 C 0.08033 0.89106 0.64042 0.0
C1055 C 0.08066 0.87015 0.62655 0.0
C1056 C 0.08937 0.94067 0.56842 0.0
C1057 C 0.0849 0.91489 0.60526 0.0
C1058 C 0.09113 0.96257 0.55814 0.0
C1059 C 0.09073 0.98342 0.5721 0.0
C1060 C 0.08707 0.93865 0.59332 0.0
C1061 C 0.08846 0.98048 0.597 0.0
C1062 C 0.08241 0.91293 0.63013 0.0
C1063 C 0.08326 0.87301 0.60171 0.0
N1064 N 0.08675 0.95905 0.60649 0.0
N1065 N 0.08522 0.89444 0.59216 0.0
H1066 H 0.54077 0.82292 0.86587 0.0
H1067 H 0.39722 0.77551 0.83995 0.0
H1068 H 0.50109 0.78387 0.91606 0.0
H1069 H 0.42968 0.83789 0.81112 0.0
H1070 H 0.43637 0.77345 0.8627 0.0
H1071 H 0.50229 0.82369 0.84064 0.0
C1072 C 0.52415 0.81413 0.87145 0.0
C1073 C 0.52462 0.80318 0.89334 0.0
C1074 C 0.43503 0.78755 0.85129 0.0
C1075 C 0.47989 0.80389 0.86407 0.0
C1076 C 0.41253 0.7887 0.83811 0.0
C1077 C 0.40964 0.80694 0.82334 0.0
C1078 C 0.45548 0.80442 0.84953 0.0
C1079 C 0.43062 0.82349 0.82216 0.0
C1080 C 0.50202 0.81476 0.85707 0.0
C1081 C 0.50201 0.79251 0.89948 0.0
N1082 N 0.45238 0.82175 0.83479 0.0
N1083 N 0.48096 0.79299 0.88506 0.0
H1084 H 0.57844 0.25002 0.07844 0.0
H1085 H 0.58263 0.11631 0.10649 0.0
H1086 H 0.57698 0.22906 0.15102 0.0
H1087 H 0.5803 0.14163 0.03557 0.0
H1088 H 0.58037 0.15552 0.12371 0.0
H1089 H 0.57841 0.21026 0.06378 0.0
C1090 C 0.57781 0.23712 0.09153 0.0
C1091 C 0.57746 0.24386 0.11633 0.0
C1092 C 0.5803 0.15257 0.10436 0.0
C1093 C 0.57792 0.1963 0.09889 0.0
C1094 C 0.58162 0.1299 0.09435 0.0
C1095 C 0.58166 0.12481 0.06913 0.0
C1096 C 0.57904 0.17105 0.08934 0.0
C1097 C 0.58032 0.14393 0.05496 0.0
C1098 C 0.57791 0.21402 0.08293 0.0
C1099 C 0.57685 0.2254 0.13177 0.0
N1100 N 0.57914 0.1656 0.06508 0.0
N1101 N 0.57724 0.20289 0.12292 0.0
H1102 H 0.14646 0.27738 0.35237 0.0
H1103 H 0.2879 0.32896 0.34581 0.0
H1104 H 0.19061 0.32006 0.41088 0.0
H1105 H 0.24867 0.27273 0.29729 0.0
H1106 H 0.25222 0.32844 0.36763 0.0
H1107 H 0.1822 0.27772 0.33064 0.0
C1108 C 0.16359 0.28684 0.36084 0.0
C1109 C 0.16491 0.29859 0.38395 0.0
C1110 C 0.25126 0.31621 0.35217 0.0
C1111 C 0.20699 0.29941 0.35824 0.0
C1112 C 0.27183 0.31656 0.33944 0.0
C1113 C 0.27195 0.30092 0.31918 0.0
C1114 C 0.22981 0.3003 0.34482 0.0
C1115 C 0.25002 0.28528 0.31253 0.0
C1116 C 0.18423 0.28703 0.34824 0.0
C1117 C 0.18817 0.31054 0.39337 0.0
N1118 N 0.23022 0.28548 0.32501 0.0
N1119 N 0.20785 0.31074 0.38062 0.0
H1120 H 0.97562 0.09509 0.19509 0.0
H1121 H 0.06891 0.11449 0.1338 0.0
H1122 H 0.95514 0.04439 0.13463 0.0
H1123 H 1.02097 0.09735 0.06762 0.0
H1124 H 1.03426 0.11699 0.15564 0.0
H1125 H 0.99626 0.12173 0.1687 0.0
C1126 C 0.97431 0.0901 0.17592 0.0
C1127 C 0.96407 0.06753 0.16691 0.0
C1128 C 1.03131 0.11382 0.13615 0.0
C1129 C 0.98804 0.09731 0.13711 0.0
C1130 C 0.0512 0.11233 0.1237 0.0
C1131 C 0.0476 0.10479 0.09914 0.0
C1132 C 1.00793 0.10732 0.12385 0.0
C1133 C 1.02431 0.10235 0.08683 0.0
C1134 C 0.98636 0.10516 0.161 0.0
C1135 C 0.96303 0.06165 0.14216 0.0
N1136 N 1.00523 0.10273 0.09946 0.0
N1137 N 0.97537 0.07633 0.12814 0.0
H1138 H 0.32846 0.77479 0.48331 0.0
H1139 H 0.29728 0.75914 0.33966 0.0
H1140 H 0.3065 0.70776 0.44485 0.0
H1141 H 0.35187 0.81362 0.37579 0.0
H1142 H 0.29167 0.74323 0.37886 0.0
H1143 H 0.32804 0.79241 0.4445 0.0
C1144 C 0.32319 0.76382 0.46672 0.0
C1145 C 0.31766 0.73977 0.46726 0.0
C1146 C 0.3047 0.75879 0.37815 0.0
C1147 C 0.31695 0.75982 0.42294 0.0
C1148 C 0.30781 0.76795 0.35587 0.0
C1149 C 0.32511 0.7877 0.3545 0.0
C1150 C 0.31861 0.76976 0.39923 0.0
C1151 C 0.33844 0.79829 0.37604 0.0
C1152 C 0.32309 0.77387 0.44462 0.0
C1153 C 0.31105 0.72636 0.44521 0.0
N1154 N 0.33486 0.78924 0.39753 0.0
N1155 N 0.31085 0.73656 0.42391 0.0
H1156 H 0.62991 0.95572 0.69341 0.0
H1157 H 0.54228 1.0011 0.59614 0.0
H1158 H 0.55663 0.96223 0.7025 0.0
H1159 H 0.61916 1.0064 0.59746 0.0
H1160 H 0.54286 0.9729 0.62698 0.0
H1161 H 0.62057 0.95724 0.65 0.0
C1162 C 0.61162 0.95667 0.68628 0.0
C1163 C 0.59444 0.96034 0.70176 0.0
C1164 C 0.55949 0.97992 0.6201 0.0
C1165 C 0.5839 0.96271 0.65228 0.0
C1166 C 0.55918 0.99609 0.60271 0.0
C1167 C 0.58083 1.00665 0.59507 0.0
C1168 C 0.58157 0.97423 0.62951 0.0
C1169 C 0.60218 0.99928 0.60361 0.0
C1170 C 0.60633 0.9577 0.66143 0.0
C1171 C 0.57082 0.96053 0.69132 0.0
N1172 N 0.60205 0.98374 0.62057 0.0
N1173 N 0.56644 0.96269 0.66724 0.0
H1174 H 0.33167 0.36815 0.99261 0.0
H1175 H 0.31259 0.36111 0.84575 0.0
H1176 H 0.30806 0.4225 0.95314 0.0
H1177 H 0.35123 0.31599 0.8861 0.0
H1178 H 0.30828 0.3822 0.88409 0.0
H1179 H 0.33644 0.34781 0.95411 0.0
C1180 C 0.32745 0.37594 0.97592 0.0
C1181 C 0.31944 0.39738 0.97666 0.0
C1182 C 0.31774 0.3677 0.88464 0.0
C1183 C 0.3247 0.37348 0.93145 0.0
C1184 C 0.3202 0.3555 0.86255 0.0
C1185 C 0.33243 0.33646 0.86211 0.0
C1186 C 0.32722 0.36094 0.90705 0.0
C1187 C 0.34174 0.33043 0.88501 0.0
C1188 C 0.33023 0.36419 0.95373 0.0
C1189 C 0.31436 0.40619 0.95393 0.0
N1190 N 0.33886 0.34237 0.90616 0.0
N1191 N 0.31691 0.39429 0.93258 0.0
H1192 H 1.02531 0.03537 0.25265 0.0
H1193 H 0.10119 0.04712 0.36081 0.0
H1194 H 0.97488 1.00027 0.29686 0.0
H1195 H 0.0596 0.98217 0.37534 0.0
H1196 H 0.07608 0.04554 0.32205 0.0
H1197 H 0.05844 0.03084 0.28282 0.0
C1198 C 1.02123 0.02652 0.26861 0.0
C1199 C 0.99733 1.01851 0.27255 0.0
C1200 C 0.07303 0.03124 0.33334 0.0
C1201 C 1.03499 1.01348 0.30701 0.0
C1202 C 0.08727 0.03222 0.3555 0.0
C1203 C 0.08247 1.01478 0.37129 0.0
C1204 C 0.0537 1.01286 0.32724 0.0
C1205 C 0.06413 0.99588 0.36363 0.0
C1206 C 1.04013 1.02413 0.28586 0.0
C1207 C 0.99304 1.00699 0.29335 0.0
N1208 N 0.05006 0.99569 0.34239 0.0
N1209 N 1.01173 1.00488 0.30988 0.0
H1210 H 0.33396 0.71537 0.60768 0.0
H1211 H 0.37133 0.81912 0.71108 0.0
H1212 H 0.33959 0.78727 0.5941 0.0
H1213 H 0.33698 0.75107 0.72544 0.0
H1214 H 0.36948 0.80588 0.6684 0.0
H1215 H 0.34424 0.72671 0.65117 0.0
C1216 C 0.33766 0.73351 0.61379 0.0
C1217 C 0.3357 0.75039 0.59725 0.0
C1218 C 0.36263 0.79379 0.68097 0.0
C1219 C 0.34771 0.76342 0.64678 0.0
C1220 C 0.36384 0.80128 0.70538 0.0
C1221 C 0.35411 0.78624 0.72186 0.0
C1222 C 0.35192 0.77101 0.67298 0.0
C1223 C 0.3445 0.76332 0.71333 0.0
C1224 C 0.34342 0.73995 0.63858 0.0
C1225 C 0.34062 0.77366 0.6062 0.0
N1226 N 0.34354 0.75642 0.68947 0.0
N1227 N 0.34639 0.77947 0.63029 0.0
H1228 H 0.59158 1.01055 0.80875 0.0
H1229 H 0.62579 0.12374 0.89511 0.0
H1230 H 0.66403 0.04908 0.82007 0.0
H1231 H 0.55314 0.09013 0.86934 0.0
H1232 H 0.64028 0.10179 0.86296 0.0
H1233 H 0.57745 0.04267 0.82827 0.0
C1234 C 0.60458 1.02574 0.81559 0.0
C1235 C 0.62902 0.02709 0.81295 0.0
C1236 C 0.62111 0.09975 0.86406 0.0
C1237 C 0.61293 0.06423 0.83526 0.0
C1238 C 0.61276 0.11229 0.88241 0.0
C1239 C 0.58833 0.10762 0.8862 0.0
C1240 C 0.60477 0.08286 0.8493 0.0
C1241 C 0.57226 0.09381 0.86812 0.0
C1242 C 0.59646 0.04426 0.82646 0.0
C1243 C 0.64505 0.04725 0.82206 0.0
N1244 N 0.58085 0.08138 0.85094 0.0
N1245 N 0.63674 0.06505 0.83301 0.0
H1246 H 0.33259 0.42201 0.13012 0.0
H1247 H 0.30401 0.30481 0.20103 0.0
H1248 H 0.30363 0.35468 0.09534 0.0
H1249 H 0.34222 0.36859 0.23787 0.0
H1250 H 0.3007 0.32422 0.16333 0.0
H1251 H 0.33292 0.4049 0.16985 0.0
C1252 C 0.32565 0.40382 0.13068 0.0
C1253 C 0.31763 0.39009 0.10876 0.0
C1254 C 0.30973 0.33415 0.17961 0.0
C1255 C 0.3185 0.36989 0.15498 0.0
C1256 C 0.31158 0.32296 0.20146 0.0
C1257 C 0.32339 0.33474 0.22336 0.0
C1258 C 0.31962 0.35774 0.17891 0.0
C1259 C 0.33285 0.35845 0.22187 0.0
C1260 C 0.32616 0.3939 0.15355 0.0
C1261 C 0.30972 0.36632 0.11133 0.0
N1262 N 0.33078 0.36896 0.20038 0.0
N1263 N 0.31035 0.35723 0.13351 0.0
H1264 H 0.32183 0.96749 0.09392 0.0
H1265 H 0.19995 1.01473 0.06993 0.0
H1266 H 0.26206 0.92985 0.04552 0.0
H1267 H 0.24538 0.03054 0.1378 0.0
H1268 H 0.2235 0.98525 0.05894 0.0
H1269 H 0.29526 0.99234 0.10888 0.0
C1270 C 0.30303 0.96436 0.08657 0.0
C1271 C 0.29411 0.94665 0.06838 0.0
C1272 C 0.22821 0.99504 0.0763 0.0
C1273 C 0.26373 0.9753 0.08515 0.0
C1274 C 0.21492 1.01196 0.0825 0.0
C1275 C 0.22092 1.02519 0.10471 0.0
C1276 C 0.24795 0.99164 0.09221 0.0
C1277 C 0.24024 1.02072 0.1205 0.0
C1278 C 0.28788 0.9785 0.09518 0.0
C1279 C 0.26961 0.94328 0.05959 0.0
N1280 N 0.2533 1.00452 0.1138 0.0
N1281 N 0.25531 0.95772 0.0678 0.0
H1282 H 0.7683 0.67806 0.0541 0.0
H1283 H 0.67256 0.56328 1.00852 0.0
H1284 H 0.7899 0.62196 1.01397 0.0
H1285 H 0.66462 0.60872 0.06927 0.0
H1286 H 0.71364 0.58472 1.00744 0.0
H1287 H 0.72944 0.65387 0.05694 0.0
C1288 C 0.76501 0.66057 0.04585 0.0
C1289 C 0.78297 0.65234 0.03378 0.0
C1290 C 0.70301 0.58992 0.02113 0.0
C1291 C 0.7371 0.62401 0.03667 0.0
C1292 C 0.67936 0.57763 0.02179 0.0
C1293 C 0.66462 0.58385 0.03916 0.0
C1294 C 0.71229 0.60918 0.03758 0.0
C1295 C 0.67495 0.60288 0.05564 0.0
C1296 C 0.74258 0.64665 0.04756 0.0
C1297 C 0.77704 0.62928 0.02364 0.0
N1298 N 0.69771 0.61481 0.05426 0.0
N1299 N 0.75471 0.61615 0.02506 0.0
H1300 H 0.7486 0.51742 0.32194 0.0
H1301 H 0.86855 0.47951 0.2939 0.0
H1302 H 0.81623 0.56404 0.33936 0.0
H1303 H 0.80097 0.45313 0.25035 0.0
H1304 H 0.85095 0.5114 0.31 0.0
H1305 H 0.76797 0.49338 0.29588 0.0
C1306 C 0.76755 0.52258 0.32023 0.0
C1307 C 0.78096 0.54253 0.33295 0.0
C1308 C 0.84017 0.49888 0.29653 0.0
C1309 C 0.80321 0.51517 0.30328 0.0
C1310 C 0.85023 0.48074 0.2872 0.0
C1311 C 0.83604 0.46335 0.27111 0.0
C1312 C 0.81571 0.49937 0.28999 0.0
C1313 C 0.81234 0.46579 0.26326 0.0
C1314 C 0.77853 0.509 0.30518 0.0
C1315 C 0.80536 0.54867 0.32988 0.0
N1316 N 0.80275 0.48319 0.27316 0.0
N1317 N 0.81586 0.53479 0.3156 0.0
H1318 H 0.93382 0.40613 0.50688 0.0
H1319 H 1.01879 0.51959 0.57326 0.0
H1320 H 0.91198 0.44788 0.56383 0.0
H1321 H 1.02459 0.49211 0.50108 0.0
H1322 H 0.98381 0.48895 0.57505 0.0
H1323 H 0.97216 0.43309 0.50983 0.0
C1324 C 0.93719 0.42079 0.52015 0.0
C1325 C 0.91959 0.42496 0.53486 0.0
C1326 C 0.99289 0.48972 0.5589 0.0
C1327 C 0.96325 0.45566 0.53847 0.0
C1328 C 1.01275 0.50716 0.55788 0.0
C1329 C 1.0243 0.50865 0.53686 0.0
C1330 C 0.985 0.47352 0.53895 0.0
C1331 C 1.01594 0.49194 0.5175 0.0
C1332 C 0.95898 0.4362 0.52178 0.0
C1333 C 0.92491 0.44422 0.55183 0.0
N1334 N 0.99687 0.47511 0.51903 0.0
N1335 N 0.94623 0.45889 0.55313 0.0
H1336 H 0.50422 0.15216 0.26387 0.0
H1337 H 0.36322 0.1436 0.23869 0.0
H1338 H 0.45334 0.09078 0.27211 0.0
H1339 H 0.41437 0.20232 0.22364 0.0
H1340 H 0.39574 0.12115 0.24313 0.0
H1341 H 0.472 0.16797 0.24169 0.0
C1342 C 0.48637 0.14181 0.2606 0.0
C1343 C 0.48136 0.12032 0.27025 0.0
C1344 C 0.3998 0.13882 0.23839 0.0
C1345 C 0.44429 0.13844 0.24522 0.0
C1346 C 0.38117 0.15159 0.23568 0.0
C1347 C 0.3862 0.175 0.23132 0.0
C1348 C 0.42361 0.14961 0.2369 0.0
C1349 C 0.40983 0.18448 0.22765 0.0
C1350 C 0.46794 0.15086 0.24795 0.0
C1351 C 0.45795 0.10758 0.26528 0.0
N1352 N 0.42772 0.17189 0.23097 0.0
N1353 N 0.44019 0.11701 0.2535 0.0
H1354 H 0.40176 0.11213 0.53594 0.0
H1355 H 0.54669 0.12041 0.56322 0.0
H1356 H 0.4497 0.1775 0.54535 0.0
H1357 H 0.50008 0.0597 0.52861 0.0
H1358 H 0.5119 0.14076 0.56161 0.0
H1359 H 0.43685 0.0924 0.53795 0.0
C1360 C 0.4196 0.1225 0.5386 0.0
C1361 C 0.42217 0.14686 0.54046 0.0
C1362 C 0.50918 0.12296 0.55441 0.0
C1363 C 0.46356 0.12371 0.54315 0.0
C1364 C 0.52922 0.11114 0.55543 0.0
C1365 C 0.52691 0.08792 0.54611 0.0
C1366 C 0.48594 0.11166 0.54442 0.0
C1367 C 0.50331 0.07742 0.5361 0.0
C1368 C 0.43984 0.11107 0.53966 0.0
C1369 C 0.44629 0.15884 0.54377 0.0
N1370 N 0.48413 0.08912 0.53573 0.0
N1371 N 0.46568 0.14732 0.54516 0.0
H1372 H 0.73014 0.66866 0.39153 0.0
H1373 H 0.84677 0.73075 0.338 0.0
H1374 H 0.79674 0.64231 0.39246 0.0
H1375 H 0.78072 0.75827 0.33608 0.0
H1376 H 0.8302 0.70103 0.36305 0.0
H1377 H 0.7502 0.70484 0.37785 0.0
C1378 C 0.74916 0.67072 0.38961 0.0
C1379 C 0.7617 0.65228 0.39275 0.0
C1380 C 0.81932 0.7136 0.35727 0.0
C1381 C 0.78455 0.69337 0.3766 0.0
C1382 C 0.82873 0.73053 0.34279 0.0
C1383 C 0.815 0.74687 0.33462 0.0
C1384 C 0.79588 0.71279 0.36356 0.0
C1385 C 0.79186 0.74587 0.34177 0.0
C1386 C 0.76053 0.69131 0.38153 0.0
C1387 C 0.78628 0.65593 0.38989 0.0
N1388 N 0.78294 0.72898 0.35567 0.0
N1389 N 0.79679 0.6759 0.38162 0.0
H1390 H 1.03775 0.54518 0.87359 0.0
H1391 H 0.90673 0.47138 0.87674 0.0
H1392 H 0.9748 0.57335 0.88779 0.0
H1393 H 0.96343 0.44444 0.8449 0.0
H1394 H 0.93504 0.50643 0.8912 0.0
H1395 H 1.01439 0.50607 0.87379 0.0
C1396 C 1.01927 0.5431 0.87758 0.0
C1397 C 1.00802 0.56236 0.8805 0.0
C1398 C 0.9414 0.49281 0.88123 0.0
C1399 C 0.98132 0.51807 0.88046 0.0
C1400 C 0.9252 0.47285 0.87283 0.0
C1401 C 0.93259 0.45524 0.85904 0.0
C1402 C 0.96523 0.49536 0.87573 0.0
C1403 C 0.95694 0.45774 0.85524 0.0
C1404 C 1.00591 0.52084 0.87743 0.0
C1405 C 0.984 0.55886 0.88528 0.0
N1406 N 0.97237 0.47763 0.86322 0.0
N1407 N 0.9714 0.53716 0.88487 0.0
H1408 H 0.14929 0.91693 0.13375 0.0
H1409 H 0.08652 0.02815 0.1364 0.0
H1410 H 0.12715 0.94642 0.19859 0.0
H1411 H 0.09635 0.99058 0.0705 0.0
H1412 H 0.10166 0.99873 0.15966 0.0
H1413 H 0.13165 0.94503 0.11054 0.0
C1414 C 0.14088 0.92945 0.14314 0.0
C1415 C 0.13962 0.92936 0.16812 0.0
C1416 C 0.10027 0.99678 0.14011 0.0
C1417 C 0.11919 0.96136 0.14163 0.0
C1418 C 0.09155 1.01351 0.12681 0.0
C1419 C 0.0903 1.01182 0.1015 0.0
C1420 C 0.10801 0.97836 0.128 0.0
C1421 C 0.09698 0.99251 0.08999 0.0
C1422 C 0.13065 0.94537 0.12984 0.0
C1423 C 0.1285 0.94593 0.17935 0.0
N1424 N 0.10582 0.97662 0.10337 0.0
N1425 N 0.11867 0.96129 0.16599 0.0
H1426 H 0.97717 0.23185 0.86228 0.0
H1427 H 0.90029 0.32329 0.8265 0.0
H1428 H 0.95384 0.27582 0.91647 0.0
H1429 H 0.86791 0.25356 0.80016 0.0
H1430 H 0.93043 0.3081 0.85239 0.0
H1431 H 0.94474 0.24021 0.83293 0.0
C1432 C 0.96501 0.24279 0.86818 0.0
C1433 C 0.9685 0.25342 0.89182 0.0
C1434 C 0.91687 0.29621 0.84064 0.0
C1435 C 0.93232 0.26337 0.8584 0.0
C1436 C 0.89981 0.30482 0.82573 0.0
C1437 C 0.88149 0.28962 0.81129 0.0
C1438 C 0.91589 0.27234 0.84076 0.0
C1439 C 0.88169 0.2658 0.8112 0.0
C1440 C 0.94666 0.24755 0.85143 0.0
C1441 C 0.95213 0.26742 0.89845 0.0
N1442 N 0.89871 0.25778 0.82583 0.0
N1443 N 0.93513 0.27242 0.88167 0.0
H1444 H 0.64959 0.32408 0.60135 0.0
H1445 H 0.63861 0.19836 0.65052 0.0
H1446 H 0.63229 0.30919 0.6731 0.0
H1447 H 0.64403 0.21154 0.57577 0.0
H1448 H 0.64048 0.23962 0.66024 0.0
H1449 H 0.65178 0.2835 0.59281 0.0
C1450 C 0.64636 0.31234 0.61536 0.0
C1451 C 0.64061 0.32009 0.63794 0.0
C1452 C 0.6413 0.23348 0.64172 0.0
C1453 C 0.64308 0.27358 0.62823 0.0
C1454 C 0.64037 0.20997 0.63619 0.0
C1455 C 0.64106 0.20154 0.61229 0.0
C1456 C 0.64306 0.24867 0.62322 0.0
C1457 C 0.6431 0.2173 0.59438 0.0
C1458 C 0.64756 0.28915 0.61044 0.0
C1459 C 0.63665 0.30402 0.65539 0.0
N1460 N 0.64401 0.24012 0.60021 0.0
N1461 N 0.63791 0.28152 0.65014 0.0
H1462 H 0.57846 0.73107 0.35081 0.0
H1463 H 0.70459 0.81562 0.35165 0.0
H1464 H 0.60761 0.78498 0.40684 0.0
H1465 H 0.67599 0.76244 0.29471 0.0
H1466 H 0.66992 0.80318 0.37306 0.0
H1467 H 0.61512 0.74045 0.33115 0.0
C1468 C 0.59268 0.74468 0.35912 0.0
C1469 C 0.58996 0.75737 0.38038 0.0
C1470 C 0.6712 0.7942 0.35589 0.0
C1471 C 0.63171 0.76833 0.35794 0.0
C1472 C 0.69103 0.80127 0.34368 0.0
C1473 C 0.69317 0.79009 0.32134 0.0
C1474 C 0.65331 0.77579 0.3457 0.0
C1475 C 0.67489 0.77178 0.31173 0.0
C1476 C 0.61354 0.7501 0.34784 0.0
C1477 C 0.6089 0.77484 0.39037 0.0
N1478 N 0.65572 0.76519 0.32397 0.0
N1479 N 0.6289 0.77989 0.37899 0.0
H1480 H 0.10821 0.21899 0.4248 0.0
H1481 H 0.07889 0.13562 0.53497 0.0
H1482 H 0.08251 0.23988 0.49113 0.0
H1483 H 0.09932 0.10796 0.4687 0.0
H1484 H 0.08142 0.17348 0.51844 0.0
H1485 H 0.10676 0.17953 0.4391 0.0
C1486 C 0.1024 0.21567 0.44234 0.0
C1487 C 0.09552 0.23384 0.45642 0.0
C1488 C 0.08536 0.15928 0.50727 0.0
C1489 C 0.09369 0.18731 0.47336 0.0
C1490 C 0.08386 0.13721 0.51684 0.0
C1491 C 0.08869 0.11756 0.5036 0.0
C1492 C 0.09198 0.16289 0.4838 0.0
C1493 C 0.09518 0.12194 0.48002 0.0
C1494 C 0.10147 0.19277 0.45057 0.0
C1495 C 0.08805 0.22727 0.47906 0.0
N1496 N 0.09663 0.14369 0.47113 0.0
N1497 N 0.08742 0.20526 0.4865 0.0
H1498 H 0.63905 0.3031 0.21065 0.0
H1499 H 0.78446 0.34218 0.22724 0.0
H1500 H 0.67948 0.33948 0.15915 0.0
H1501 H 0.74921 0.29437 0.27329 0.0
H1502 H 0.7454 0.34362 0.2048 0.0
H1503 H 0.67743 0.30203 0.23598 0.0
C1504 C 0.6558 0.31111 0.20468 0.0
C1505 C 0.6555 0.32145 0.1824 0.0
C1506 C 0.74601 0.3328 0.21983 0.0
C1507 C 0.70017 0.32023 0.21172 0.0
C1508 C 0.76857 0.33199 0.23287 0.0
C1509 C 0.77073 0.3181 0.25254 0.0
C1510 C 0.72469 0.3198 0.22621 0.0
C1511 C 0.74888 0.30538 0.25842 0.0
C1512 C 0.67788 0.31034 0.21917 0.0
C1513 C 0.67828 0.33123 0.17593 0.0
N1514 N 0.72704 0.30656 0.24549 0.0
N1515 N 0.69923 0.33042 0.19031 0.0
H1516 H 0.59641 0.88605 0.91514 0.0
H1517 H 0.60729 0.97414 0.03592 0.0
H1518 H 0.60339 0.86253 0.9867 0.0
H1519 H 0.5797 0.99102 0.96559 0.0
H1520 H 0.60934 0.93509 0.0186 0.0
H1521 H 0.59362 0.92471 0.93281 0.0
C1522 C 0.5974 0.88878 0.93461 0.0
C1523 C 0.60011 0.87011 0.94905 0.0
C1524 C 0.60285 0.94724 1.00681 0.0
C1525 C 0.59725 0.91607 0.97014 0.0
C1526 C 0.60172 0.96992 0.0168 0.0
C1527 C 0.59328 0.98681 1.00258 0.0
C1528 C 0.59594 0.94062 0.9819 0.0
C1529 C 0.58634 0.97925 0.97775 0.0
C1530 C 0.59576 0.91121 0.94481 0.0
C1531 C 0.60122 0.87574 0.97436 0.0
N1532 N 0.58798 0.95729 0.96846 0.0
N1533 N 0.59999 0.89777 0.98384 0.0
H1534 H 1.0319 0.80609 0.72477 0.0
H1535 H 0.8868 0.77511 0.72415 0.0
H1536 H 0.98439 0.79314 0.65827 0.0
H1537 H 0.93187 0.81585 0.78342 0.0
H1538 H 0.92202 0.77653 0.70152 0.0
H1539 H 0.99664 0.80487 0.74738 0.0
C1540 C 1.01413 0.80281 0.71472 0.0
C1541 C 1.01182 0.79971 0.68911 0.0
C1542 C 0.92437 0.78513 0.7195 0.0
C1543 C 0.97008 0.79787 0.71579 0.0
C1544 C 0.90404 0.78423 0.73272 0.0
C1545 C 0.90564 0.79529 0.75627 0.0
C1546 C 0.9474 0.79677 0.72963 0.0
C1547 C 0.92909 0.80694 0.76558 0.0
C1548 C 0.99377 0.80221 0.72785 0.0
C1549 C 0.98771 0.79568 0.67778 0.0
N1550 N 0.94865 0.80715 0.75256 0.0
N1551 N 0.96821 0.79467 0.69099 0.0
H1552 H 0.23589 0.08688 0.95522 0.0
H1553 H 0.11694 1.02371 0.99549 0.0
H1554 H 0.19018 0.02961 0.91307 0.0
H1555 H 0.17285 0.06324 0.04687 0.0
H1556 H 0.14644 1.0212 0.96708 0.0
H1557 H 0.21715 0.07463 0.99129 0.0
C1558 C 0.22254 0.07128 0.95384 0.0
C1559 C 0.21422 0.05931 0.93138 0.0
C1560 C 0.15246 0.03 0.98479 0.0
C1561 C 0.19249 0.04557 0.97186 0.0
C1562 C 0.13556 0.03145 1.00096 0.0
C1563 C 0.14247 0.04395 0.02338 0.0
C1564 C 0.17623 0.04174 0.99086 0.0
C1565 C 0.16685 0.05349 0.02972 0.0
C1566 C 0.21177 0.06432 0.9743 0.0
C1567 C 0.19676 0.03937 0.9302 0.0
N1568 N 0.1828 0.0527 1.01329 0.0
N1569 N 0.18614 0.03333 0.95008 0.0
H1570 H 0.85578 0.33721 0.59443 0.0
H1571 H 0.84491 0.37649 0.73232 0.0
H1572 H 0.84444 0.40535 0.61744 0.0
H1573 H 0.84933 0.307 0.70678 0.0
H1574 H 0.8483 0.38848 0.69128 0.0
H1575 H 0.85634 0.32689 0.63613 0.0
C1576 C 0.85338 0.35006 0.60821 0.0
C1577 C 0.84997 0.37222 0.60223 0.0
C1578 C 0.84873 0.37065 0.69473 0.0
C1579 C 0.85072 0.36041 0.6504 0.0
C1580 C 0.84699 0.36381 0.71821 0.0
C1581 C 0.8468 0.34066 0.72309 0.0
C1582 C 0.85038 0.35426 0.67594 0.0
C1583 C 0.84929 0.32501 0.70395 0.0
C1584 C 0.85373 0.34412 0.63211 0.0
C1585 C 0.84703 0.38804 0.62107 0.0
N1586 N 0.85088 0.33206 0.68129 0.0
N1587 N 0.84747 0.38183 0.64427 0.0
H1588 H 0.57514 0.15057 0.37771 0.0
H1589 H 0.56616 0.05519 0.46282 0.0
H1590 H 0.50534 0.11262 0.38733 0.0
H1591 H 0.60511 0.12084 0.49527 0.0
H1592 H 0.54869 0.07497 0.42991 0.0
H1593 H 0.59058 0.14125 0.41809 0.0
C1594 C 0.56283 0.14118 0.38877 0.0
C1595 C 0.53903 0.13214 0.3792 0.0
C1596 C 0.5611 0.08497 0.44428 0.0
C1597 C 0.55673 0.12071 0.42437 0.0
C1598 C 0.57139 0.07371 0.46281 0.0
C1599 C 0.58716 0.08643 0.48172 0.0
C1600 C 0.56706 0.10901 0.44437 0.0
C1601 C 0.59304 0.11047 0.48092 0.0
C1602 C 0.57169 0.13575 0.41163 0.0
C1603 C 0.52381 0.1199 0.39406 0.0
N1604 N 0.58314 0.12107 0.46232 0.0
N1605 N 0.53316 0.11379 0.41564 0.0
H1606 H 0.81773 0.71043 0.1047 0.0
H1607 H 0.89153 0.76916 0.23157 0.0
H1608 H 0.89485 0.71809 0.11745 0.0
H1609 H 0.81447 0.75968 0.21533 0.0
H1610 H 0.89383 0.74986 0.19164 0.0
H1611 H 0.81698 0.72657 0.14589 0.0
C1612 C 0.83461 0.71503 0.11633 0.0
C1613 C 0.85634 0.71224 0.10719 0.0
C1614 C 0.8764 0.75193 0.19678 0.0
C1615 C 0.85567 0.73198 0.15546 0.0
C1616 C 0.87501 0.76305 0.21977 0.0
C1617 C 0.8527 0.76633 0.2274 0.0
C1618 C 0.85533 0.74375 0.18077 0.0
C1619 C 0.83214 0.75779 0.21076 0.0
C1620 C 0.83415 0.72454 0.14002 0.0
C1621 C 0.87753 0.71921 0.12347 0.0
N1622 N 0.83399 0.74711 0.18862 0.0
N1623 N 0.87666 0.72879 0.14653 0.0
H1624 H 0.18671 0.06115 0.7994 0.0
H1625 H 0.07047 0.08613 0.72065 0.0
H1626 H 0.13123 0.09101 0.8305 0.0
H1627 H 0.11787 0.0425 0.69483 0.0
H1628 H 0.09073 0.08629 0.76166 0.0
H1629 H 0.16077 0.05323 0.76111 0.0
C1630 C 0.1691 0.0661 0.79816 0.0
C1631 C 0.16122 0.07696 0.81811 0.0
C1632 C 0.09636 0.07632 0.74707 0.0
C1633 C 0.13136 0.0678 0.77438 0.0
C1634 C 0.08479 0.0762 0.72372 0.0
C1635 C 0.09263 0.06444 0.70432 0.0
C1636 C 0.11609 0.06487 0.75089 0.0
C1637 C 0.11113 0.05169 0.70925 0.0
C1638 C 0.1542 0.06138 0.77635 0.0
C1639 C 0.13808 0.0827 0.81555 0.0
N1640 N 0.1225 0.05256 0.73199 0.0
N1641 N 0.12403 0.07822 0.79399 0.0
H1642 H 0.83781 0.42544 0.45953 0.0
H1643 H 0.82169 0.31124 0.36946 0.0
H1644 H 0.82974 0.35616 0.48228 0.0
H1645 H 0.83662 0.37971 0.34486 0.0
H1646 H 0.82173 0.32799 0.41032 0.0
H1647 H 0.83517 0.40972 0.41733 0.0
C1648 C 0.83546 0.40694 0.45568 0.0
C1649 C 0.83403 0.39212 0.47457 0.0
C1650 C 0.82491 0.33944 0.39605 0.0
C1651 C 0.83087 0.37399 0.42623 0.0
C1652 C 0.82482 0.32985 0.37254 0.0
C1653 C 0.82924 0.34401 0.35347 0.0
C1654 C 0.82948 0.36351 0.40088 0.0
C1655 C 0.83308 0.36805 0.35888 0.0
C1656 C 0.83395 0.39798 0.43157 0.0
C1657 C 0.83098 0.36829 0.46842 0.0
N1658 N 0.83323 0.37703 0.38207 0.0
N1659 N 0.82949 0.36004 0.44491 0.0
H1660 H 0.6092 0.07713 0.29539 0.0
H1661 H 0.5705 0.98307 0.18361 0.0
H1662 H 0.53534 0.0526 0.26556 0.0
H1663 H 0.64016 0.0273 0.19807 0.0
H1664 H 0.55945 0.99942 0.22124 0.0
H1665 H 0.62213 0.05079 0.26625 0.0
C1666 C 0.59567 0.06625 0.28267 0.0
C1667 C 0.57114 0.06732 0.28269 0.0
C1668 C 0.57731 1.00509 0.21624 0.0
C1669 C 0.58589 0.0368 0.24961 0.0
C1670 C 0.5837 0.99579 0.19475 0.0
C1671 C 0.60593 1.00452 0.18674 0.0
C1672 C 0.59352 1.02273 0.23008 0.0
C1673 C 0.62264 1.0201 0.20283 0.0
C1674 C 0.60309 0.05111 0.26616 0.0
C1675 C 0.55446 0.05264 0.2659 0.0
N1676 N 0.6159 0.029 0.22344 0.0
N1677 N 0.56215 0.03798 0.24995 0.0
H1678 H 0.85178 0.67426 0.94791 0.0
H1679 H 0.86694 0.79419 0.88094 0.0
H1680 H 0.86303 0.74081 0.98723 0.0
H1681 H 0.83608 0.72862 0.84301 0.0
H1682 H 0.86923 0.77507 0.91915 0.0
H1683 H 0.84936 0.69332 0.90964 0.0
C1684 C 0.85375 0.69287 0.94869 0.0
C1685 C 0.85755 0.70563 0.97146 0.0
C1686 C 0.86202 0.76476 0.90251 0.0
C1687 C 0.85516 0.72815 0.92658 0.0
C1688 C 0.8608 0.77575 0.8804 0.0
C1689 C 0.85135 0.76331 0.85802 0.0
C1690 C 0.8541 0.74074 0.90288 0.0
C1691 C 0.84357 0.73929 0.85934 0.0
C1692 C 0.85235 0.70385 0.92658 0.0
C1693 C 0.85997 0.7299 0.97054 0.0
N1694 N 0.84524 0.72901 0.88097 0.0
N1695 N 0.85891 0.74015 0.94886 0.0
H1696 H 0.85341 0.14704 0.04016 0.0
H1697 H 0.98584 0.13279 1.01203 0.0
H1698 H 0.90378 0.20294 0.01796 0.0
H1699 H 0.92987 0.07616 0.02242 0.0
H1700 H 0.95759 0.15945 0.01679 0.0
H1701 H 0.88309 0.1219 0.03755 0.0
C1702 C 0.87083 0.15412 0.03492 0.0
C1703 C 0.87606 0.17715 0.02916 0.0
C1704 C 0.95153 0.14118 0.018 0.0
C1705 C 0.91024 0.1482 0.02591 0.0
C1706 C 0.96758 0.12589 1.01509 0.0
C1707 C 0.96027 0.10209 0.01677 0.0
C1708 C 0.92799 0.13267 0.02275 0.0
C1709 C 0.93649 0.09432 0.02129 0.0
C1710 C 0.88777 0.13967 0.03333 0.0
C1711 C 0.89899 0.1853 0.02256 0.0
N1712 N 0.92128 0.10954 0.02413 0.0
N1713 N 0.91523 0.1708 0.021 0.0
H1714 H 0.41023 0.42743 1.01636 0.0
H1715 H 0.50057 0.54812 0.05627 0.0
H1716 H 0.38633 0.48319 0.05494 0.0
H1717 H 0.51667 0.4931 1.00999 0.0
H1718 H 0.45971 0.52588 0.05714 0.0
H1719 H 0.44904 0.45178 1.01515 0.0
C1720 C 0.41295 0.44485 0.02468 0.0
C1721 C 0.3943 0.45283 0.03587 0.0
C1722 C 0.47212 0.5187 0.0467 0.0
C1723 C 0.44032 0.48166 0.03454 0.0
C1724 C 0.49564 0.53147 0.04615 0.0
C1725 C 0.51263 0.52279 0.03293 0.0
C1726 C 0.46514 0.49674 0.03411 0.0
C1727 C 0.50464 0.50089 0.0204 0.0
C1728 C 0.43546 0.45892 0.0239 0.0
C1729 C 0.39972 0.47594 0.04602 0.0
N1730 N 0.4819 0.48884 0.0214 0.0
N1731 N 0.42207 0.48935 0.04524 0.0
H1732 H 0.37964 0.55798 0.7251 0.0
H1733 H 0.39209 0.68996 0.77367 0.0
H1734 H 0.44539 0.60784 0.73118 0.0
H1735 H 0.32341 0.64444 0.75949 0.0
H1736 H 0.41149 0.65943 0.75812 0.0
H1737 H 0.35812 0.58888 0.73692 0.0
C1738 C 0.38948 0.57545 0.72865 0.0
C1739 C 0.41436 0.58035 0.72735 0.0
C1740 C 0.39216 0.65605 0.75828 0.0
C1741 C 0.39001 0.61556 0.74106 0.0
C1742 C 0.38103 0.67355 0.76711 0.0
C1743 C 0.35603 0.66985 0.76767 0.0
C1744 C 0.3783 0.63449 0.75008 0.0
C1745 C 0.34275 0.64799 0.75951 0.0
C1746 C 0.37722 0.59303 0.73547 0.0
C1747 C 0.42624 0.60323 0.73213 0.0
N1748 N 0.35406 0.63109 0.75102 0.0
N1749 N 0.41399 0.61992 0.73892 0.0
H1750 H 0.23046 0.70415 0.54444 0.0
H1751 H 0.15691 0.58743 0.48206 0.0
H1752 H 0.26568 0.66276 0.49818 0.0
H1753 H 0.15894 0.60263 0.55893 0.0
H1754 H 0.19124 0.61908 0.48168 0.0
H1755 H 0.19723 0.67132 0.54377 0.0
C1756 C 0.23102 0.68826 0.53393 0.0
C1757 C 0.25077 0.68603 0.52142 0.0
C1758 C 0.1842 0.61523 0.49859 0.0
C1759 C 0.21294 0.64889 0.52025 0.0
C1760 C 0.16478 0.59721 0.49885 0.0
C1761 C 0.15536 0.59223 0.52062 0.0
C1762 C 0.19353 0.62879 0.52005 0.0
C1763 C 0.16595 0.60563 0.54184 0.0
C1764 C 0.21223 0.66959 0.53369 0.0
C1765 C 0.25077 0.66504 0.50817 0.0
N1766 N 0.18423 0.62355 0.54097 0.0
N1767 N 0.232 0.64729 0.50773 0.0
H1768 H 0.67856 0.93559 0.79217 0.0
H1769 H 0.81944 0.94549 0.7813 0.0
H1770 H 0.71644 0.98059 0.74505 0.0
H1771 H 0.78103 0.90104 0.82854 0.0
H1772 H 0.78182 0.9582 0.76716 0.0
H1773 H 0.71569 0.92129 0.80413 0.0
C1774 C 0.6946 0.94221 0.78406 0.0
C1775 C 0.69446 0.95938 0.7677 0.0
C1776 C 0.78168 0.94577 0.78073 0.0
C1777 C 0.73711 0.94343 0.78162 0.0
C1778 C 0.80315 0.93857 0.78885 0.0
C1779 C 0.80342 0.9223 0.80624 0.0
C1780 C 0.76033 0.93654 0.79 0.0
C1781 C 0.78179 0.91395 0.81546 0.0
C1782 C 0.71585 0.93417 0.79103 0.0
C1783 C 0.71577 0.96738 0.75779 0.0
N1784 N 0.76114 0.9211 0.80717 0.0
N1785 N 0.73631 0.95946 0.76505 0.0
H1786 H 0.72911 0.92536 0.5303 0.0
H1787 H 0.6773 0.04522 0.55031 0.0
H1788 H 0.77388 0.99029 0.55577 0.0
H1789 H 0.63094 0.98103 0.525 0.0
H1790 H 0.71206 1.02532 0.55209 0.0
H1791 H 0.69353 0.9446 0.52823 0.0
C1792 C 0.73166 0.94363 0.53561 0.0
C1793 C 0.75516 0.95587 0.54337 0.0
C1794 C 0.69437 1.01544 0.54607 0.0
C1795 C 0.7134 0.97862 0.54081 0.0
C1796 C 0.67419 0.02693 0.54497 0.0
C1797 C 0.65044 1.01521 0.53734 0.0
C1798 C 0.69157 0.99155 0.53958 0.0
C1799 C 0.64849 0.99125 0.5309 0.0
C1800 C 0.71108 0.95473 0.53434 0.0
C1801 C 0.75654 0.97973 0.54976 0.0
N1802 N 0.66844 0.98045 0.53217 0.0
N1803 N 0.73634 0.99007 0.54833 0.0
H1804 H 0.40337 0.46807 0.71751 0.0
H1805 H 0.41342 0.35158 0.78053 0.0
H1806 H 0.47027 0.443 0.73301 0.0
H1807 H 0.346 0.3667 0.74759 0.0
H1808 H 0.43447 0.38603 0.76463 0.0
H1809 H 0.38175 0.43175 0.72944 0.0
C1810 C 0.41351 0.4549 0.7232 0.0
C1811 C 0.4387 0.45867 0.72431 0.0
C1812 C 0.41508 0.38174 0.76077 0.0
C1813 C 0.41411 0.41725 0.73823 0.0
C1814 C 0.40304 0.36212 0.76994 0.0
C1815 C 0.3779 0.35627 0.76544 0.0
C1816 C 0.40189 0.39577 0.74724 0.0
C1817 C 0.3654 0.37053 0.75147 0.0
C1818 C 0.40114 0.43418 0.73 0.0
C1819 C 0.45086 0.44094 0.73184 0.0
N1820 N 0.37752 0.38972 0.743 0.0
N1821 N 0.43846 0.42111 0.7387 0.0
H1822 H 0.11719 0.5965 0.26201 0.0
H1823 H 0.2414 0.66697 0.23162 0.0
H1824 H 0.17403 0.56493 0.23591 0.0
H1825 H 0.18226 0.69943 0.24994 0.0
H1826 H 0.21549 0.62936 0.23001 0.0
H1827 H 0.13883 0.63421 0.25403 0.0
C1828 C 0.13399 0.59742 0.25422 0.0
C1829 C 0.14394 0.5775 0.24992 0.0
C1830 C 0.20807 0.64469 0.2342 0.0
C1831 C 0.16891 0.62064 0.24105 0.0
C1832 C 0.22292 0.66614 0.23528 0.0
C1833 C 0.21402 0.68627 0.24122 0.0
C1834 C 0.18419 0.64331 0.23935 0.0
C1835 C 0.1898 0.68429 0.2453 0.0
C1836 C 0.14638 0.61899 0.24975 0.0
C1837 C 0.16578 0.5798 0.23981 0.0
N1838 N 0.17577 0.66314 0.24456 0.0
N1839 N 0.17764 0.60099 0.23599 0.0
H1840 H 0.53809 0.72766 0.50201 0.0
H1841 H 0.63848 0.64773 0.50509 0.0
H1842 H 0.57318 0.70965 0.44027 0.0
H1843 H 0.60711 0.66757 0.56851 0.0
H1844 H 0.61812 0.67439 0.48238 0.0
H1845 H 0.56528 0.70855 0.52759 0.0
C1846 C 0.55146 0.71969 0.4938 0.0
C1847 C 0.55317 0.72013 0.46887 0.0
C1848 C 0.61598 0.67331 0.50137 0.0
C1849 C 0.58451 0.69849 0.49813 0.0
C1850 C 0.6278 0.65824 0.51438 0.0
C1851 C 0.62443 0.6555 0.53864 0.0
C1852 C 0.60034 0.68546 0.51261 0.0
C1853 C 0.61031 0.66936 0.54985 0.0
C1854 C 0.56707 0.70891 0.50846 0.0
C1855 C 0.57098 0.70962 0.45932 0.0
N1856 N 0.59839 0.6835 0.5366 0.0
N1857 N 0.58585 0.6992 0.47394 0.0
H1858 H 0.71794 0.41264 0.66977 0.0
H1859 H 0.75878 0.36636 0.79646 0.0
H1860 H 0.6738 0.40663 0.7284 0.0
H1861 H 0.78777 0.35406 0.72936 0.0
H1862 H 0.73485 0.39271 0.77649 0.0
H1863 H 0.75163 0.40475 0.69705 0.0
C1864 C 0.71551 0.41047 0.68856 0.0
C1865 C 0.69278 0.40952 0.69659 0.0
C1866 C 0.74676 0.38446 0.76633 0.0
C1867 C 0.73109 0.40001 0.72772 0.0
C1868 C 0.76028 0.36942 0.77766 0.0
C1869 C 0.77465 0.3576 0.7643 0.0
C1870 C 0.74815 0.38792 0.74172 0.0
C1871 C 0.77632 0.36233 0.74011 0.0
C1872 C 0.73471 0.40573 0.70409 0.0
C1873 C 0.69086 0.40686 0.72127 0.0
N1874 N 0.76312 0.37699 0.72958 0.0
N1875 N 0.7096 0.40161 0.73585 0.0
H1876 H 0.05079 0.32229 0.87687 0.0
H1877 H 1.00023 0.41704 0.95409 0.0
H1878 H 1.02203 0.31064 0.94463 0.0
H1879 H 0.06195 0.43475 0.91539 0.0
H1880 H 0.99724 0.3767 0.93967 0.0
H1881 H 0.04484 0.36256 0.8812 0.0
C1882 C 0.04297 0.32816 0.89249 0.0
C1883 C 1.0371 0.31335 0.9106 0.0
C1884 C 1.0111 0.38953 0.93395 0.0
C1885 C 1.02981 0.35875 0.91523 0.0
C1886 C 1.0127 0.41254 0.94193 0.0
C1887 C 1.03149 0.42915 0.936 0.0
C1888 C 1.02827 0.38318 0.91982 0.0
C1889 C 0.04738 0.42233 0.92052 0.0
C1890 C 1.03962 0.35102 0.8949 0.0
C1891 C 1.02702 0.32165 0.93045 0.0
N1892 N 0.04556 0.39971 0.91307 0.0
N1893 N 1.02366 0.34388 0.93225 0.0
H1894 H 0.12632 0.85044 0.26473 0.0
H1895 H 0.98815 0.78954 0.24507 0.0
H1896 H 0.08389 0.8359 0.19496 0.0
H1897 H 1.02644 0.81521 0.31491 0.0
H1898 H 1.02519 0.80043 0.22668 0.0
H1899 H 0.09196 0.83155 0.28356 0.0
C1900 C 0.10986 0.84307 0.25336 0.0
C1901 C 0.10783 0.84495 0.22829 0.0
C1902 C 1.02554 0.80351 0.24606 0.0
C1903 C 0.06855 0.82337 0.24967 0.0
C1904 C 1.00439 0.79738 0.25655 0.0
C1905 C 1.00413 0.80179 0.28151 0.0
C1906 C 0.04661 0.81414 0.26061 0.0
C1907 C 1.02583 0.81146 0.29561 0.0
C1908 C 0.09025 0.83234 0.26412 0.0
C1909 C 0.08614 0.83503 0.21439 0.0
N1910 N 0.04616 0.81752 0.28492 0.0
N1911 N 0.06728 0.82479 0.22529 0.0
H1912 H 0.58102 0.39641 0.15981 0.0
H1913 H 0.59531 0.46703 0.03812 0.0
H1914 H 0.58715 0.36292 0.09078 0.0
H1915 H 0.5881 0.49984 0.10721 0.0
H1916 H 0.59304 0.42975 0.05661 0.0
H1917 H 0.5841 0.43365 0.14125 0.0
C1918 C 0.58307 0.39664 0.14073 0.0
C1919 C 0.5838 0.37563 0.12727 0.0
C1920 C 0.59201 0.44503 0.06789 0.0
C1921 C 0.58741 0.41982 0.10511 0.0
C1922 C 0.59339 0.4667 0.05722 0.0
C1923 C 0.59208 0.48755 0.07072 0.0
C1924 C 0.58923 0.44328 0.09273 0.0
C1925 C 0.58937 0.48488 0.09557 0.0
C1926 C 0.58483 0.41827 0.13 0.0
C1927 C 0.58647 0.37808 0.10239 0.0
N1928 N 0.58807 0.46368 0.10546 0.0
N1929 N 0.58813 0.39928 0.09241 0.0
H1930 H 1.03089 0.27477 0.3663 0.0
H1931 H 0.91838 0.34093 0.33841 0.0
H1932 H 1.01622 0.33035 0.41275 0.0
H1933 H 0.91309 0.27019 0.31124 0.0
H1934 H 0.95734 0.3392 0.36088 0.0
H1935 H 0.99181 0.2746 0.34151 0.0
C1936 C 1.01975 0.28711 0.37122 0.0
C1937 C 1.02732 0.30263 0.39193 0.0
C1938 C 0.94781 0.32399 0.35 0.0
C1939 C 0.98214 0.30265 0.36318 0.0
C1940 C 0.92535 0.32495 0.33697 0.0
C1941 C 0.91186 0.30569 0.32262 0.0
C1942 C 0.95785 0.30371 0.34871 0.0
C1943 C 0.92243 0.28555 0.32197 0.0
C1944 C 0.99722 0.28687 0.3571 0.0
C1945 C 1.01153 0.31796 0.39719 0.0
N1946 N 0.94467 0.28516 0.33455 0.0
N1947 N 0.99019 0.31767 0.38304 0.0
H1948 H 0.07224 0.74417 0.57592 0.0
H1949 H 0.08609 0.61172 0.60184 0.0
H1950 H 0.07693 0.72279 0.64848 0.0
H1951 H 0.0734 0.6354 0.53085 0.0
H1952 H 0.08323 0.65053 0.61963 0.0
H1953 H 0.07259 0.70462 0.56039 0.0
C1954 C 0.07298 0.7312 0.58885 0.0
C1955 C 0.07413 0.73779 0.61392 0.0
C1956 C 0.08099 0.64733 0.60015 0.0
C1957 C 0.07526 0.69049 0.59541 0.0
C1958 C 0.08265 0.62486 0.58979 0.0
C1959 C 0.07997 0.61935 0.56436 0.0
C1960 C 0.07674 0.66535 0.58534 0.0
C1961 C 0.07559 0.63798 0.55038 0.0
C1962 C 0.07333 0.70823 0.57973 0.0
C1963 C 0.07545 0.71927 0.62908 0.0
N1964 N 0.07424 0.65954 0.56085 0.0
N1965 N 0.07613 0.69696 0.61972 0.0
H1966 H 0.64509 0.78425 0.85485 0.0
H1967 H 0.78877 0.82906 0.85192 0.0
H1968 H 0.68996 0.8234 0.91522 0.0
H1969 H 0.74666 0.77754 0.79975 0.0
H1970 H 0.75304 0.82956 0.87355 0.0
H1971 H 0.68097 0.78378 0.83355 0.0
C1972 C 0.66241 0.79278 0.86383 0.0
C1973 C 0.66383 0.80379 0.88734 0.0
C1974 C 0.75146 0.81815 0.85734 0.0
C1975 C 0.70622 0.80361 0.8621 0.0
C1976 C 0.77209 0.8179 0.84473 0.0
C1977 C 0.77143 0.80327 0.82348 0.0
C1978 C 0.72918 0.80385 0.84891 0.0
C1979 C 0.74869 0.78924 0.81578 0.0
C1980 C 0.68314 0.7925 0.85146 0.0
C1981 C 0.68738 0.81451 0.89738 0.0
N1982 N 0.72891 0.78999 0.82819 0.0
N1983 N 0.70719 0.81424 0.88486 0.0
H1984 H 0.4676 0.5829 0.67677 0.0
H1985 H 0.58035 0.61074 0.63871 0.0
H1986 H 0.48023 0.52862 0.62724 0.0
H1987 H 0.54083 0.61303 0.56863 0.0
H1988 H 0.54205 0.60036 0.65532 0.0
H1989 H 0.49173 0.61125 0.65458 0.0
C1990 C 0.4741 0.57711 0.66029 0.0
C1991 C 0.47216 0.55347 0.65378 0.0
C1992 C 0.5419 0.60395 0.63646 0.0
C1993 C 0.49929 0.58552 0.62861 0.0
C1994 C 0.56369 0.60977 0.62696 0.0
C1995 C 0.5638 0.61205 0.6021 0.0
C1996 C 0.52031 0.59985 0.62086 0.0
C1997 C 0.54158 0.61074 0.58777 0.0
C1998 C 0.48802 0.59326 0.64788 0.0
C1999 C 0.48139 0.54673 0.63271 0.0
N2000 N 0.52067 0.60369 0.59712 0.0
N2001 N 0.49501 0.56271 0.62105 0.0
H2002 H 0.80763 0.20502 0.94062 0.0
H2003 H 0.81659 0.32243 0.87524 0.0
H2004 H 0.81847 0.27209 0.97925 0.0
H2005 H 0.78932 0.25602 0.83703 0.0
H2006 H 0.8164 0.30422 0.91346 0.0
H2007 H 0.80034 0.223 0.90258 0.0
C2008 C 0.80837 0.22351 0.94113 0.0
C2009 C 0.81382 0.23708 0.96318 0.0
C2010 C 0.81015 0.29361 0.89678 0.0
C2011 C 0.80559 0.25781 0.91963 0.0
C2012 C 0.8102 0.30403 0.8749 0.0
C2013 C 0.80297 0.29075 0.85283 0.0
C2014 C 0.80321 0.2696 0.89673 0.0
C2015 C 0.7949 0.26697 0.85359 0.0
C2016 C 0.80412 0.23376 0.91939 0.0
C2017 C 0.81441 0.26095 0.96271 0.0
N2018 N 0.79555 0.25711 0.87514 0.0
N2019 N 0.81057 0.27054 0.94131 0.0
H2020 H 0.05566 0.48058 0.21872 0.0
H2021 H 0.11699 0.50478 0.10283 0.0
H2022 H 0.12692 0.46826 0.20828 0.0
H2023 H 0.04364 0.51221 0.10959 0.0
H2024 H 0.1162 0.48008 0.13634 0.0
H2025 H 0.04581 0.47919 0.17508 0.0
C2026 C 0.06903 0.47678 0.2073 0.0
C2027 C 0.09265 0.47584 0.21724 0.0
C2028 C 0.10007 0.48673 0.13036 0.0
C2029 C 0.08152 0.4746 0.16728 0.0
C2030 C 0.1006 0.50098 0.11135 0.0
C2031 C 0.08058 0.51102 0.10408 0.0
C2032 C 0.07962 0.48309 0.14275 0.0
C2033 C 0.05957 0.50507 0.11509 0.0
C2034 C 0.06338 0.4761 0.18228 0.0
C2035 C 0.10881 0.47009 0.20148 0.0
N2036 N 0.05983 0.49194 0.13439 0.0
N2037 N 0.10321 0.47044 0.17726 0.0
H2038 H 0.80904 0.92335 0.45552 0.0
H2039 H 0.85856 0.8184 0.38787 0.0
H2040 H 0.83417 0.86875 0.49339 0.0
H2041 H 0.81627 0.86185 0.34928 0.0
H2042 H 0.85293 0.83847 0.42617 0.0
H2043 H 0.81458 0.90347 0.41691 0.0
C2044 C 0.81583 0.90725 0.45587 0.0
C2045 C 0.82106 0.89793 0.47821 0.0
C2046 C 0.84487 0.84371 0.40938 0.0
C2047 C 0.82777 0.87477 0.43324 0.0
C2048 C 0.84815 0.8322 0.38727 0.0
C2049 C 0.83797 0.83818 0.36476 0.0
C2050 C 0.83152 0.86187 0.40956 0.0
C2051 C 0.82456 0.85636 0.36583 0.0
C2052 C 0.81893 0.89579 0.43362 0.0
C2053 C 0.82976 0.87681 0.47693 0.0
N2054 N 0.8219 0.86748 0.38755 0.0
N2055 N 0.83291 0.86619 0.45515 0.0
H2056 H 0.52415 0.52425 0.75025 0.0
H2057 H 0.56225 0.56896 0.8885 0.0
H2058 H 0.47569 0.54442 0.79891 0.0
H2059 H 0.59886 0.52031 0.85306 0.0
H2060 H 0.53659 0.56973 0.85092 0.0
H2061 H 0.55656 0.53029 0.7841 0.0
C2062 C 0.52035 0.52985 0.76806 0.0
C2063 C 0.49724 0.53368 0.77195 0.0
C2064 C 0.55053 0.5592 0.85127 0.0
C2065 C 0.5341 0.54126 0.81015 0.0
C2066 C 0.56549 0.55901 0.87261 0.0
C2067 C 0.58259 0.54433 0.874 0.0
C2068 C 0.55269 0.54467 0.83115 0.0
C2069 C 0.58562 0.53159 0.85282 0.0
C2070 C 0.5388 0.53337 0.78723 0.0
C2071 C 0.49319 0.54103 0.79524 0.0
N2072 N 0.57054 0.5318 0.83224 0.0
N2073 N 0.5115 0.54472 0.81345 0.0
H2074 H 0.84314 0.28568 0.09007 0.0
H2075 H 0.83398 0.24807 0.22352 0.0
H2076 H 0.8299 0.21394 0.10476 0.0
H2077 H 0.87234 0.31418 0.20807 0.0
H2078 H 0.83153 0.23488 0.18065 0.0
H2079 H 0.85288 0.2963 0.13336 0.0
C2080 C 0.84243 0.27211 0.10242 0.0
C2081 C 0.83559 0.24886 0.0937 0.0
C2082 C 0.84077 0.25215 0.18673 0.0
C2083 C 0.84645 0.26101 0.14363 0.0
C2084 C 0.84218 0.25973 0.21121 0.0
C2085 C 0.85334 0.28235 0.21951 0.0
C2086 C 0.85017 0.2674 0.17025 0.0
C2087 C 0.86362 0.29661 0.20263 0.0
C2088 C 0.84809 0.27821 0.12718 0.0
C2089 C 0.83515 0.23206 0.11064 0.0
N2090 N 0.86148 0.28903 0.17884 0.0
N2091 N 0.84015 0.23847 0.13482 0.0
H2092 H 0.17573 0.56223 0.33697 0.0
H2093 H 0.07378 0.63208 0.3695 0.0
H2094 H 0.09954 0.54302 0.31412 0.0
H2095 H 0.13152 0.62198 0.42255 0.0
H2096 H 0.09399 0.61526 0.33809 0.0
H2097 H 0.16787 0.59702 0.35905 0.0
C2098 C 0.15742 0.56537 0.33646 0.0
C2099 C 0.13822 0.54965 0.32376 0.0
C2100 C 0.10259 0.61762 0.35656 0.0
C2101 C 0.12949 0.58974 0.34767 0.0
C2102 C 0.09113 0.62726 0.37452 0.0
C2103 C 0.09991 0.62673 0.39897 0.0
C2104 C 0.12329 0.60831 0.36322 0.0
C2105 C 0.12326 0.6217 0.40414 0.0
C2106 C 0.15307 0.58531 0.34872 0.0
C2107 C 0.11489 0.55461 0.32358 0.0
N2108 N 0.13377 0.61181 0.38647 0.0
N2109 N 0.1112 0.57425 0.33528 0.0
H2110 H 0.80518 0.85349 0.59614 0.0
H2111 H 0.83848 0.87017 0.74221 0.0
H2112 H 0.83174 0.92077 0.63214 0.0
H2113 H 0.81194 0.80499 0.70158 0.0
H2114 H 0.83494 0.88969 0.70416 0.0
H2115 H 0.80573 0.83689 0.63527 0.0
C2116 C 0.8107 0.86503 0.61231 0.0
C2117 C 0.81797 0.8889 0.61017 0.0
C2118 C 0.82977 0.87112 0.70354 0.0
C2119 C 0.81939 0.86924 0.65657 0.0
C2120 C 0.83176 0.85983 0.72548 0.0
C2121 C 0.82549 0.83554 0.72576 0.0
C2122 C 0.8214 0.8583 0.68117 0.0
C2123 C 0.81703 0.82358 0.70292 0.0
C2124 C 0.8112 0.85534 0.63493 0.0
C2125 C 0.82536 0.90245 0.63237 0.0
N2126 N 0.81532 0.83489 0.68204 0.0
N2127 N 0.82601 0.8925 0.65434 0.0
H2128 H 0.83498 0.47994 0.57823 0.0
H2129 H 0.70564 0.50272 0.60768 0.0
H2130 H 0.76986 0.43001 0.55941 0.0
H2131 H 0.7689 0.55568 0.61437 0.0
H2132 H 0.72967 0.47444 0.59499 0.0
H2133 H 0.81174 0.50631 0.59598 0.0
C2134 C 0.81574 0.47446 0.57785 0.0
C2135 C 0.80433 0.45271 0.56716 0.0
C2136 C 0.73834 0.4922 0.5994 0.0
C2137 C 0.77753 0.48301 0.58768 0.0
C2138 C 0.72465 0.50839 0.60666 0.0
C2139 C 0.73519 0.53173 0.61181 0.0
C2140 C 0.76284 0.49931 0.59736 0.0
C2141 C 0.76 0.53792 0.61068 0.0
C2142 C 0.80248 0.48959 0.58803 0.0
C2143 C 0.77937 0.44663 0.56733 0.0
N2144 N 0.77292 0.52184 0.60338 0.0
N2145 N 0.76678 0.46173 0.5774 0.0
H2146 H 0.29388 0.12008 0.51717 0.0
H2147 H 0.16111 0.11337 0.56035 0.0
H2148 H 0.26431 0.17908 0.54093 0.0
H2149 H 0.17669 0.05893 0.51291 0.0
H2150 H 0.20128 0.13524 0.5578 0.0
H2151 H 0.25427 0.09543 0.51952 0.0
C2152 C 0.2793 0.12794 0.52297 0.0
C2153 C 0.28291 0.15203 0.52869 0.0
C2154 C 0.19609 0.11847 0.54796 0.0
C2155 C 0.23711 0.12354 0.53181 0.0
C2156 C 0.17295 0.10578 0.54949 0.0
C2157 C 0.16496 0.08396 0.53688 0.0
C2158 C 0.21221 0.1095 0.53398 0.0
C2159 C 0.18167 0.07556 0.52302 0.0
C2160 C 0.25652 0.11379 0.52422 0.0
C2161 C 0.26284 0.16082 0.53606 0.0
N2162 N 0.20431 0.08816 0.52205 0.0
N2163 N 0.2413 0.14679 0.53751 0.0
H2164 H 0.27548 0.05984 0.82038 0.0
H2165 H 0.27751 0.92693 0.78658 0.0
H2166 H 0.22348 1.00378 0.83986 0.0
H2167 H 0.33154 0.98246 0.76946 0.0
H2168 H 0.25479 0.95515 0.80159 0.0
H2169 H 0.29376 0.03209 0.79772 0.0
C2170 C 0.26782 0.04169 0.81978 0.0
C2171 C 0.24807 0.03405 0.8322 0.0
C2172 C 0.27149 0.9612 0.79434 0.0
C2173 C 0.2689 1.00224 0.80631 0.0
C2174 C 0.2844 0.94507 0.78553 0.0
C2175 C 0.30654 0.95233 0.77679 0.0
C2176 C 0.28081 0.9848 0.79458 0.0
C2177 C 0.31474 0.9761 0.77636 0.0
C2178 C 0.27827 1.02586 0.80682 0.0
C2179 C 0.2388 1.01038 0.83069 0.0
N2180 N 0.30194 0.9915 0.78532 0.0
N2181 N 0.24939 0.99529 0.8181 0.0
H2182 H 0.39584 0.96363 0.03123 0.0
H2183 H 0.53889 0.98802 0.05926 0.0
H2184 H 0.4378 0.90895 0.03436 0.0
H2185 H 0.49817 0.03824 0.03102 0.0
H2186 H 0.50165 0.95969 0.05592 0.0
H2187 H 0.43295 0.9919 0.03599 0.0
C2188 C 0.41288 0.95755 0.03284 0.0
C2189 C 0.41371 0.93386 0.03237 0.0
C2190 C 0.5009 0.97695 0.05058 0.0
C2191 C 0.45633 0.96625 0.03815 0.0
C2192 C 0.52209 0.99321 0.0527 0.0
C2193 C 0.52164 1.01556 0.04539 0.0
C2194 C 0.47909 0.98317 0.0414 0.0
C2195 C 0.49937 1.02121 0.0368 0.0
C2196 C 0.43406 0.97372 0.03554 0.0
C2197 C 0.43634 0.92703 0.03446 0.0
N2198 N 0.47899 1.00514 0.03506 0.0
N2199 N 0.45679 0.94318 0.03745 0.0
H2200 H 0.93808 0.60566 0.79227 0.0
H2201 H 0.89587 0.69765 0.70543 0.0
H2202 H 0.98261 0.67124 0.78489 0.0
H2203 H 0.84849 0.65057 0.74329 0.0
H2204 H 0.92971 0.68069 0.72266 0.0
H2205 H 0.90748 0.61511 0.76233 0.0
C2206 C 0.94155 0.62199 0.7842 0.0
C2207 C 0.96274 0.63791 0.79144 0.0
C2208 C 0.91172 0.67391 0.72665 0.0
C2209 C 0.92781 0.64864 0.75692 0.0
C2210 C 0.8923 0.68364 0.71697 0.0
C2211 C 0.86905 0.67639 0.72357 0.0
C2212 C 0.90775 0.65632 0.74236 0.0
C2213 C 0.86575 0.65719 0.73756 0.0
C2214 C 0.92407 0.6273 0.76705 0.0
C2215 C 0.96634 0.65865 0.78009 0.0
N2216 N 0.88489 0.6481 0.7467 0.0
N2217 N 0.94889 0.66355 0.76349 0.0
H2218 H 0.90312 0.61357 0.04122 0.0
H2219 H 0.04847 0.62491 0.06969 0.0
H2220 H 0.94971 0.67968 0.04848 0.0
H2221 H 1.00252 0.56274 0.03762 0.0
H2222 H 1.0132 0.64474 0.06698 0.0
H2223 H 0.93878 0.59469 0.04466 0.0
C2224 C 0.92077 0.62429 0.04368 0.0
C2225 C 0.92279 0.64858 0.0445 0.0
C2226 C 1.01075 0.62673 0.0606 0.0
C2227 C 0.96488 0.62645 0.04889 0.0
C2228 C 1.03106 0.61522 0.06228 0.0
C2229 C 1.02907 0.59174 0.05399 0.0
C2230 C 0.9876 0.61485 0.05097 0.0
C2231 C 1.00553 0.58069 0.04436 0.0
C2232 C 0.94137 0.61335 0.04559 0.0
C2233 C 0.94673 0.66103 0.04766 0.0
N2234 N 0.98613 0.59209 0.04333 0.0
N2235 N 0.96647 0.64999 0.04987 0.0
H2236 H 0.27431 0.13701 0.88193 0.0
H2237 H 0.27048 0.26004 0.83002 0.0
H2238 H 0.21256 0.17087 0.88251 0.0
H2239 H 0.33059 0.22382 0.82921 0.0
H2240 H 0.25018 0.22972 0.85274 0.0
H2241 H 0.29687 0.17136 0.86752 0.0
C2242 C 0.26562 0.15187 0.87943 0.0
C2243 C 0.24145 0.15101 0.88319 0.0
C2244 C 0.26785 0.2285 0.84766 0.0
C2245 C 0.26704 0.19031 0.86609 0.0
C2246 C 0.27941 0.24573 0.8346 0.0
C2247 C 0.30221 0.24437 0.82751 0.0
C2248 C 0.2792 0.20982 0.8537 0.0
C2249 C 0.31297 0.22553 0.83408 0.0
C2250 C 0.27848 0.17147 0.87106 0.0
C2251 C 0.23117 0.17083 0.87983 0.0
N2252 N 0.30135 0.20901 0.84672 0.0
N2253 N 0.24392 0.18959 0.87108 0.0
H2254 H 0.48186 0.05621 0.36044 0.0
H2255 H 0.49457 0.92541 0.36599 0.0
H2256 H 0.54985 0.03441 0.37936 0.0
H2257 H 0.4265 0.94936 0.35787 0.0
H2258 H 0.51483 0.96496 0.37785 0.0
H2259 H 0.46106 1.01773 0.36647 0.0
C2260 C 0.49239 0.04338 0.36631 0.0
C2261 C 0.51759 0.04833 0.36897 0.0
C2262 C 0.49543 0.96151 0.37374 0.0
C2263 C 0.49394 1.00401 0.37537 0.0
C2264 C 0.4838 0.93889 0.36704 0.0
C2265 C 0.45881 0.93408 0.36029 0.0
C2266 C 0.48199 0.97949 0.37342 0.0
C2267 C 0.44588 0.95231 0.36206 0.0
C2268 C 0.48051 1.02137 0.36975 0.0
C2269 C 0.53037 0.03121 0.37693 0.0
N2270 N 0.45764 0.9742 0.36808 0.0
N2271 N 0.51841 1.0096 0.37932 0.0
H2272 H 0.61277 0.41629 0.60934 0.0
H2273 H 0.57594 0.54137 0.61603 0.0
H2274 H 0.5919 0.44735 0.67403 0.0
H2275 H 0.6112 0.51418 0.55891 0.0
H2276 H 0.57351 0.50416 0.63442 0.0
H2277 H 0.60473 0.44939 0.58787 0.0
C2278 C 0.60649 0.43012 0.61906 0.0
C2279 C 0.60328 0.42921 0.6436 0.0
C2280 C 0.58128 0.5062 0.61758 0.0
C2281 C 0.59393 0.46726 0.619 0.0
C2282 C 0.58238 0.52724 0.607 0.0
C2283 C 0.5935 0.53044 0.5859 0.0
C2284 C 0.59141 0.48852 0.60684 0.0
C2285 C 0.60224 0.51208 0.57507 0.0
C2286 C 0.60182 0.44901 0.60674 0.0
C2287 C 0.59483 0.44752 0.65516 0.0
N2288 N 0.60113 0.49191 0.58575 0.0
N2289 N 0.59057 0.46593 0.64277 0.0
H2290 H 0.47928 0.7161 0.35224 0.0
H2291 H 0.40513 0.7637 0.27663 0.0
H2292 H 0.42796 0.72772 0.40157 0.0
H2293 H 0.34734 0.73858 0.31791 0.0
H2294 H 0.43084 0.74136 0.2993 0.0
H2295 H 0.44763 0.71344 0.3185 0.0
C2296 C 0.46125 0.71757 0.35608 0.0
C2297 C 0.45651 0.72313 0.37974 0.0
C2298 C 0.41227 0.73982 0.30281 0.0
C2299 C 0.4205 0.72086 0.34115 0.0
C2300 C 0.39762 0.75279 0.28992 0.0
C2301 C 0.37426 0.75324 0.29569 0.0
C2302 C 0.4036 0.72763 0.32196 0.0
C2303 C 0.36533 0.73878 0.31301 0.0
C2304 C 0.44324 0.7163 0.33673 0.0
C2305 C 0.43265 0.72422 0.38357 0.0
N2306 N 0.38028 0.72711 0.32609 0.0
N2307 N 0.41565 0.72366 0.36441 0.0
H2308 H 0.17051 0.8107 0.19898 0.0
H2309 H 0.16217 0.71336 0.09143 0.0
H2310 H 0.18438 0.82541 0.12624 0.0
H2311 H 0.15596 0.69868 0.1657 0.0
H2312 H 0.17125 0.75454 0.10403 0.0
H2313 H 0.16679 0.76963 0.18752 0.0
C2314 C 0.17298 0.80534 0.18065 0.0
C2315 C 0.17758 0.82157 0.1635 0.0
C2316 C 0.16801 0.74231 0.11759 0.0
C2317 C 0.17308 0.77449 0.1502 0.0
C2318 C 0.16264 0.71882 0.11038 0.0
C2319 C 0.15815 0.70259 0.12752 0.0
C2320 C 0.16878 0.74965 0.14211 0.0
C2321 C 0.15945 0.7106 0.1519 0.0
C2322 C 0.17084 0.78185 0.17411 0.0
C2323 C 0.18075 0.81355 0.14006 0.0
N2324 N 0.16451 0.73357 0.15845 0.0
N2325 N 0.17821 0.79056 0.13405 0.0
H2326 H 0.07445 0.22936 0.84105 0.0
H2327 H 0.20163 0.30375 0.84617 0.0
H2328 H 0.12202 0.24768 0.90739 0.0
H2329 H 0.17535 0.25595 0.78375 0.0
H2330 H 0.16991 0.28445 0.86758 0.0
H2331 H 0.10925 0.23777 0.81818 0.0
C2332 C 0.09229 0.23431 0.85079 0.0
C2333 C 0.09545 0.23835 0.87605 0.0
C2334 C 0.17119 0.27804 0.84925 0.0
C2335 C 0.13472 0.24847 0.85026 0.0
C2336 C 0.18929 0.28909 0.83697 0.0
C2337 C 0.1914 0.28132 0.81319 0.0
C2338 C 0.15464 0.25935 0.83759 0.0
C2339 C 0.17428 0.26267 0.80199 0.0
C2340 C 0.11205 0.23926 0.83776 0.0
C2341 C 0.11883 0.24483 0.88787 0.0
N2342 N 0.15644 0.25235 0.81427 0.0
N2343 N 0.13754 0.2502 0.87485 0.0
H2344 H 0.58398 0.74533 0.99387 0.0
H2345 H 0.59476 0.61006 0.96565 0.0
H2346 H 0.60308 0.72245 0.92494 0.0
H2347 H 0.57862 0.63941 0.03313 0.0
H2348 H 0.59774 0.64875 0.94955 0.0
H2349 H 0.58227 0.7065 1.00686 0.0
C2350 C 0.58797 0.73232 0.98116 0.0
C2351 C 0.59377 0.73838 0.95786 0.0
C2352 C 0.59349 0.64681 0.96787 0.0
C2353 C 0.59154 0.69143 0.97354 0.0
C2354 C 0.59167 0.62438 0.97722 0.0
C2355 C 0.58622 0.62051 1.00117 0.0
C2356 C 0.58988 0.66632 0.98226 0.0
C2357 C 0.58274 0.64064 1.01469 0.0
C2358 C 0.58692 0.70964 0.98886 0.0
C2359 C 0.59866 0.71956 0.94305 0.0
N2360 N 0.58458 0.66198 1.00523 0.0
N2361 N 0.59736 0.69738 0.951 0.0
H2362 H 0.13546 0.79834 0.70995 0.0
H2363 H 0.28061 0.83993 0.72753 0.0
H2364 H 0.17576 0.83423 0.65805 0.0
H2365 H 0.24572 0.79261 0.77426 0.0
H2366 H 0.24156 0.84025 0.70447 0.0
H2367 H 0.17382 0.7983 0.73574 0.0
C2368 C 0.15217 0.80642 0.70396 0.0
C2369 C 0.15182 0.81632 0.68143 0.0
C2370 C 0.24225 0.82978 0.71978 0.0
C2371 C 0.1965 0.81633 0.71134 0.0
C2372 C 0.2648 0.8296 0.73316 0.0
C2373 C 0.26707 0.81619 0.75322 0.0
C2374 C 0.22102 0.81659 0.72617 0.0
C2375 C 0.24532 0.80327 0.7591 0.0
C2376 C 0.17424 0.80627 0.71874 0.0
C2377 C 0.17457 0.82628 0.675 0.0
N2378 N 0.22348 0.80383 0.74582 0.0
N2379 N 0.19552 0.82606 0.68965 0.0
H2380 H 0.10094 0.38088 0.41016 0.0
H2381 H 0.10487 0.46926 0.5295 0.0
H2382 H 0.10334 0.35808 0.48212 0.0
H2383 H 0.08872 0.48839 0.45708 0.0
H2384 H 0.10669 0.42995 0.51299 0.0
H2385 H 0.0987 0.42003 0.42678 0.0
C2386 C 0.10101 0.38388 0.4295 0.0
C2387 C 0.10233 0.36529 0.4444 0.0
C2388 C 0.1028 0.44266 0.50057 0.0
C2389 C 0.09998 0.41174 0.46424 0.0
C2390 C 0.10181 0.46549 0.51008 0.0
C2391 C 0.09668 0.4831 0.49501 0.0
C2392 C 0.09891 0.43653 0.47537 0.0
C2393 C 0.0928 0.47607 0.46987 0.0
C2394 C 0.0997 0.40658 0.43909 0.0
C2395 C 0.10231 0.37124 0.46948 0.0
N2396 N 0.09409 0.45386 0.46109 0.0
N2397 N 0.1013 0.39349 0.47837 0.0
H2398 H 0.53558 0.31089 0.2264 0.0
H2399 H 0.39026 0.2812 0.22296 0.0
H2400 H 0.48855 0.29997 0.15954 0.0
H2401 H 0.43481 0.31778 0.28503 0.0
H2402 H 0.42586 0.28348 0.20099 0.0
H2403 H 0.50012 0.30916 0.2488 0.0
C2404 C 0.51787 0.30797 0.21624 0.0
C2405 C 0.51571 0.30557 0.19061 0.0
C2406 C 0.42803 0.29101 0.21943 0.0
C2407 C 0.47384 0.3032 0.21696 0.0
C2408 C 0.40747 0.28965 0.23225 0.0
C2409 C 0.40882 0.29927 0.25636 0.0
C2410 C 0.45103 0.3017 0.2305 0.0
C2411 C 0.43225 0.31002 0.26669 0.0
C2412 C 0.49741 0.30708 0.22923 0.0
C2413 C 0.49172 0.30196 0.17908 0.0
N2414 N 0.45206 0.31073 0.25397 0.0
N2415 N 0.47213 0.3007 0.19213 0.0
H2416 H 0.76201 0.57836 0.45481 0.0
H2417 H 0.63436 0.54137 0.49833 0.0
H2418 H 0.70095 0.53649 0.41181 0.0
H2419 H 0.69512 0.58154 0.5437 0.0
H2420 H 0.6617 0.5308 0.47044 0.0
H2421 H 0.74155 0.57132 0.49113 0.0
C2422 C 0.74464 0.56715 0.45319 0.0
C2423 C 0.73277 0.55842 0.43047 0.0
C2424 C 0.66913 0.54167 0.48668 0.0
C2425 C 0.70932 0.5505 0.47134 0.0
C2426 C 0.65347 0.54775 0.50258 0.0
C2427 C 0.66236 0.56304 0.52287 0.0
C2428 C 0.69375 0.55128 0.49093 0.0
C2429 C 0.68738 0.57028 0.52783 0.0
C2430 C 0.73291 0.5632 0.47381 0.0
C2431 C 0.71036 0.54397 0.42909 0.0
N2432 N 0.70217 0.56476 0.51166 0.0
N2433 N 0.69918 0.54075 0.4492 0.0
H2434 H 0.34886 0.90706 0.11979 0.0
H2435 H 0.35315 0.80124 0.20261 0.0
H2436 H 0.35642 0.83862 0.09354 0.0
H2437 H 0.36316 0.87146 0.23332 0.0
H2438 H 0.35301 0.81517 0.1624 0.0
H2439 H 0.35226 0.89493 0.16131 0.0
C2440 C 0.35117 0.88952 0.12269 0.0
C2441 C 0.3523 0.87386 0.10302 0.0
C2442 C 0.35543 0.82764 0.17787 0.0
C2443 C 0.35622 0.85994 0.15043 0.0
C2444 C 0.35553 0.81967 0.2009 0.0
C2445 C 0.35818 0.8352 0.22139 0.0
C2446 C 0.35766 0.85139 0.17507 0.0
C2447 C 0.36123 0.85891 0.218 0.0
C2448 C 0.35324 0.88266 0.1464 0.0
C2449 C 0.35545 0.85138 0.10798 0.0
N2450 N 0.36064 0.8663 0.19523 0.0
N2451 N 0.35719 0.84514 0.13106 0.0
H2452 H 0.05807 0.66807 0.90126 0.0
H2453 H 0.06563 0.56141 0.97256 0.0
H2454 H 0.99406 0.61942 0.90895 0.0
H2455 H 0.10355 0.62665 1.00701 0.0
H2456 H 0.04362 0.58215 0.94365 0.0
H2457 H 0.0783 0.65458 0.93744 0.0
C2458 C 0.04796 0.6553 0.91122 0.0
C2459 C 1.02446 0.64473 0.90213 0.0
C2460 C 0.05684 0.59185 0.95755 0.0
C2461 C 0.04771 0.62856 0.9423 0.0
C2462 C 0.06971 0.58007 0.97376 0.0
C2463 C 0.08642 0.59235 0.99222 0.0
C2464 C 0.06114 0.61603 0.95946 0.0
C2465 C 0.0908 0.61657 0.993 0.0
C2466 C 0.05958 0.64746 0.9316 0.0
C2467 C 1.01217 0.62806 0.91542 0.0
N2468 N 0.07829 0.62771 0.9767 0.0
N2469 N 1.02424 0.61988 0.93443 0.0
H2470 H 0.31705 0.21058 0.60112 0.0
H2471 H 0.38786 0.26406 0.73139 0.0
H2472 H 0.39372 0.21538 0.61623 0.0
H2473 H 0.31186 0.26012 0.71103 0.0
H2474 H 0.39103 0.2452 0.69142 0.0
H2475 H 0.31555 0.22638 0.64225 0.0
C2476 C 0.33367 0.21449 0.61322 0.0
C2477 C 0.35549 0.211 0.60469 0.0
C2478 C 0.37363 0.24839 0.69566 0.0
C2479 C 0.35394 0.23032 0.65309 0.0
C2480 C 0.37175 0.25927 0.71869 0.0
C2481 C 0.34947 0.264 0.7252 0.0
C2482 C 0.35311 0.24186 0.67849 0.0
C2483 C 0.32949 0.2571 0.70739 0.0
C2484 C 0.33278 0.22381 0.63693 0.0
C2485 C 0.37631 0.21706 0.62169 0.0
N2486 N 0.33181 0.24659 0.68529 0.0
N2487 N 0.37502 0.22644 0.64478 0.0
H2488 H 0.72953 0.59053 0.29709 0.0
H2489 H 0.60356 0.57258 0.2135 0.0
H2490 H 0.66007 0.57895 0.32384 0.0
H2491 H 0.67153 0.59639 0.18708 0.0
H2492 H 0.62471 0.57123 0.25357 0.0
H2493 H 0.70921 0.58924 0.25595 0.0
C2494 C 0.71005 0.58769 0.29433 0.0
C2495 C 0.69648 0.58501 0.31395 0.0
C2496 C 0.63504 0.57678 0.23904 0.0
C2497 C 0.67325 0.5834 0.26712 0.0
C2498 C 0.62295 0.57766 0.21621 0.0
C2499 C 0.63581 0.58485 0.19708 0.0
C2500 C 0.66018 0.58315 0.24278 0.0
C2501 C 0.66098 0.59068 0.20139 0.0
C2502 C 0.69849 0.58698 0.27088 0.0
C2503 C 0.6713 0.58132 0.30933 0.0
N2504 N 0.67238 0.58979 0.22388 0.0
N2505 N 0.66053 0.58063 0.2864 0.0
H2506 H 0.3275 0.92338 0.96012 0.0
H2507 H 0.31921 0.80878 0.87238 0.0
H2508 H 0.32857 0.85555 0.9849 0.0
H2509 H 0.32803 0.87703 0.84664 0.0
H2510 H 0.3188 0.82568 0.91321 0.0
H2511 H 0.32452 0.90689 0.9182 0.0
C2512 C 0.32707 0.90504 0.95677 0.0
C2513 C 0.32834 0.89085 0.9761 0.0
C2514 C 0.32071 0.837 0.89865 0.0
C2515 C 0.32479 0.87184 0.92816 0.0
C2516 C 0.32084 0.82733 0.8752 0.0
C2517 C 0.32374 0.84144 0.85587 0.0
C2518 C 0.32348 0.86106 0.90304 0.0
C2519 C 0.32577 0.8654 0.86089 0.0
C2520 C 0.32538 0.89564 0.93283 0.0
C2521 C 0.32771 0.86719 0.97063 0.0
N2522 N 0.32569 0.87444 0.88395 0.0
N2523 N 0.32596 0.85848 0.94727 0.0
H2524 H 0.09288 0.60695 0.80564 0.0
H2525 H 0.04799 0.5328 0.68004 0.0
H2526 H 1.01824 0.58856 0.77563 0.0
H2527 H 0.12232 0.56276 0.70259 0.0
H2528 H 1.03715 0.54867 0.71793 0.0
H2529 H 0.10432 0.58723 0.77017 0.0
C2530 C 0.0789 0.59888 0.79156 0.0
C2531 C 0.05456 0.59946 0.79359 0.0
C2532 C 0.05585 0.55162 0.71466 0.0
C2533 C 0.06755 0.57668 0.75317 0.0
C2534 C 0.06204 0.54255 0.69309 0.0
C2535 C 0.08603 0.54672 0.68813 0.0
C2536 C 0.0738 0.56492 0.73132 0.0
C2537 C 0.10362 0.55907 0.70578 0.0
C2538 C 0.08546 0.58757 0.77137 0.0
C2539 C 1.03723 0.58867 0.7748 0.0
N2540 N 0.09712 0.56794 0.72657 0.0
N2541 N 0.04408 0.57766 0.75539 0.0
H2542 H 0.36141 0.24088 0.48576 0.0
H2543 H 0.34559 0.22847 0.3384 0.0
H2544 H 0.35647 0.17586 0.4448 0.0
H2545 H 0.36389 0.29417 0.37966 0.0
H2546 H 0.34763 0.20911 0.3764 0.0
H2547 H 0.36024 0.26022 0.44768 0.0
C2548 C 0.35997 0.2305 0.46885 0.0
C2549 C 0.35903 0.20636 0.46913 0.0
C2550 C 0.35131 0.22777 0.37727 0.0
C2551 C 0.35754 0.229 0.42427 0.0
C2552 C 0.35019 0.239 0.35532 0.0
C2553 C 0.35474 0.26336 0.35512 0.0
C2554 C 0.35671 0.24063 0.39995 0.0
C2555 C 0.36041 0.27551 0.37828 0.0
C2556 C 0.35937 0.24171 0.44687 0.0
C2557 C 0.35726 0.19435 0.44605 0.0
N2558 N 0.36108 0.2642 0.39933 0.0
N2559 N 0.35649 0.20561 0.42496 0.0
H2560 H 0.40747 0.71642 0.52385 0.0
H2561 H 0.45379 0.59528 0.52399 0.0
H2562 H 0.36446 0.65296 0.54042 0.0
H2563 H 0.49659 0.65876 0.50715 0.0
H2564 H 0.42155 0.61644 0.53204 0.0
H2565 H 0.44121 0.69604 0.52009 0.0
C2566 C 0.40521 0.69826 0.52697 0.0
C2567 C 0.38309 0.68634 0.53235 0.0
C2568 C 0.43799 0.62574 0.52657 0.0
C2569 C 0.42153 0.66284 0.5278 0.0
C2570 C 0.45643 0.61366 0.52202 0.0
C2571 C 0.47789 0.6252 0.5147 0.0
C2572 C 0.44101 0.64956 0.52384 0.0
C2573 C 0.48021 0.64904 0.51228 0.0
C2574 C 0.42445 0.6866 0.52472 0.0
C2575 C 0.38117 0.66281 0.53617 0.0
N2576 N 0.46201 0.66039 0.51681 0.0
N2577 N 0.40009 0.6518 0.53367 0.0
H2578 H 0.88787 0.98042 0.56248 0.0
H2579 H 1.01553 0.99446 0.50614 0.0
H2580 H 0.90818 0.92982 0.51352 0.0
H2581 H 1.0047 0.03935 0.56618 0.0
H2582 H 0.97457 0.97325 0.50639 0.0
H2583 H 0.92807 1.00453 0.56193 0.0
C2584 C 0.9005 0.97438 0.55144 0.0
C2585 C 0.89415 0.95272 0.5381 0.0
C2586 C 0.981 0.98779 0.51951 0.0
C2587 C 0.94073 0.98059 0.53731 0.0
C2588 C 1.0046 1.00008 0.51933 0.0
C2589 C 1.01413 1.01902 0.53613 0.0
C2590 C 0.96609 0.99425 0.53651 0.0
C2591 C 0.99852 1.02501 0.55278 0.0
C2592 C 0.92364 0.98817 0.55124 0.0
C2593 C 0.91183 0.94612 0.52432 0.0
N2594 N 0.97553 1.01283 0.55251 0.0
N2595 N 0.93385 0.95979 0.52428 0.0
H2596 H 0.87819 0.05812 0.23458 0.0
H2597 H 0.88089 0.17483 0.31562 0.0
H2598 H 0.94327 0.09888 0.27207 0.0
H2599 H 0.82292 0.14713 0.25994 0.0
H2600 H 0.90161 0.14312 0.30509 0.0
H2601 H 0.85545 0.08711 0.2486 0.0
C2602 C 0.88766 0.07312 0.24584 0.0
C2603 C 0.91264 0.07621 0.25211 0.0
C2604 C 0.88429 0.14391 0.29528 0.0
C2605 C 0.8868 0.10919 0.26831 0.0
C2606 C 0.87237 0.16186 0.30142 0.0
C2607 C 0.85021 0.16356 0.28858 0.0
C2608 C 0.87386 0.12747 0.27632 0.0
C2609 C 0.8401 0.14649 0.27011 0.0
C2610 C 0.8747 0.08964 0.25377 0.0
C2611 C 0.92405 0.09593 0.26671 0.0
N2612 N 0.85203 0.12913 0.2645 0.0
N2613 N 0.91101 0.11168 0.27437 0.0
H2614 H 0.7626 0.16412 0.99584 0.0
H2615 H 0.64921 0.11735 0.05834 0.0
H2616 H 0.72704 0.21065 0.03555 0.0
H2617 H 0.65592 0.08854 0.98699 0.0
H2618 H 0.68158 0.14919 0.05389 0.0
H2619 H 0.72715 0.1338 0.99525 0.0
C2620 C 0.74723 0.16797 1.00429 0.0
C2621 C 0.7477 0.18986 1.01585 0.0
C2622 C 0.67596 0.13591 0.03922 0.0
C2623 C 0.70753 0.15522 1.01564 0.0
C2624 C 0.65771 0.11758 0.04181 0.0
C2625 C 0.6501 0.1001 0.0231 0.0
C2626 C 0.68717 0.13655 0.018 0.0
C2627 C 0.6614 0.10159 1.00189 0.0
C2628 C 0.72705 0.15073 1.00382 0.0
C2629 C 0.72733 0.19403 0.0264 0.0
N2630 N 0.67968 0.11938 1.00002 0.0
N2631 N 0.70819 0.1767 0.02644 0.0
H2632 H 0.17761 0.45057 0.30659 0.0
H2633 H 0.31339 0.44553 0.2827 0.0
H2634 H 0.21401 0.48843 0.25316 0.0
H2635 H 0.27524 0.40269 0.33143 0.0
H2636 H 0.27715 0.46178 0.27206 0.0
H2637 H 0.21291 0.43238 0.3157 0.0
C2638 C 0.19289 0.45483 0.29656 0.0
C2639 C 0.19292 0.4711 0.27916 0.0
C2640 C 0.27672 0.44886 0.28514 0.0
C2641 C 0.23346 0.45067 0.28974 0.0
C2642 C 0.29742 0.43959 0.29122 0.0
C2643 C 0.2974 0.42275 0.30803 0.0
C2644 C 0.2558 0.44127 0.29592 0.0
C2645 C 0.27624 0.41591 0.31869 0.0
C2646 C 0.21309 0.44454 0.30185 0.0
C2647 C 0.21323 0.47602 0.26676 0.0
N2648 N 0.25629 0.42515 0.31243 0.0
N2649 N 0.23274 0.46598 0.27241 0.0
H2650 H 0.27635 0.49214 0.05676 0.0
H2651 H 0.13076 0.48449 0.02962 0.0
H2652 H 0.22878 0.42888 0.03077 0.0
H2653 H 0.17956 0.54686 0.05631 0.0
H2654 H 0.1654 0.46402 0.02956 0.0
H2655 H 0.24138 0.51188 0.05657 0.0
C2656 C 0.25862 0.4822 0.05106 0.0
C2657 C 0.25616 0.45842 0.04386 0.0
C2658 C 0.16864 0.4822 0.03541 0.0
C2659 C 0.21479 0.48167 0.04345 0.0
C2660 C 0.14864 0.49408 0.0354 0.0
C2661 C 0.15158 0.51787 0.04289 0.0
C2662 C 0.19241 0.49383 0.04299 0.0
C2663 C 0.17576 0.52873 0.05024 0.0
C2664 C 0.2384 0.49367 0.05091 0.0
C2665 C 0.23214 0.44705 0.03661 0.0
N2666 N 0.19477 0.51685 0.05009 0.0
N2667 N 0.21279 0.4586 0.03659 0.0
H2668 H 0.90008 0.96965 0.21448 0.0
H2669 H 0.91419 0.85246 0.27237 0.0
H2670 H 0.9663 0.94226 0.21981 0.0
H2671 H 0.84466 0.86864 0.24766 0.0
H2672 H 0.93335 0.88543 0.25282 0.0
H2673 H 0.87895 0.93272 0.22533 0.0
C2674 C 0.91012 0.95578 0.21753 0.0
C2675 C 0.93509 0.95919 0.21649 0.0
C2676 C 0.91389 0.8817 0.25149 0.0
C2677 C 0.91105 0.91705 0.22927 0.0
C2678 C 0.90294 0.86297 0.26281 0.0
C2679 C 0.87779 0.85795 0.26185 0.0
C2680 C 0.89967 0.89579 0.23939 0.0
C2681 C 0.86412 0.87197 0.2489 0.0
C2682 C 0.89803 0.93471 0.22375 0.0
C2683 C 0.94709 0.94053 0.22053 0.0
N2684 N 0.87525 0.89045 0.2384 0.0
N2685 N 0.93503 0.9204 0.22709 0.0
H2686 H 0.62327 0.07995 0.77435 0.0
H2687 H 0.72663 0.15752 0.71327 0.0
H2688 H 0.66248 0.05284 0.72031 0.0
H2689 H 0.70469 0.1767 0.7824 0.0
H2690 H 0.6981 0.12138 0.71113 0.0
H2691 H 0.64721 0.11827 0.77223 0.0
C2692 C 0.63651 0.08218 0.76163 0.0
C2693 C 0.64095 0.06323 0.74749 0.0
C2694 C 0.69953 0.13355 0.72673 0.0
C2695 C 0.66848 0.10681 0.74521 0.0
C2696 C 0.71598 0.15412 0.7281 0.0
C2697 C 0.71831 0.17019 0.74817 0.0
C2698 C 0.6851 0.12903 0.74544 0.0
C2699 C 0.70342 0.165 0.76646 0.0
C2700 C 0.65032 0.10397 0.76063 0.0
C2701 C 0.65858 0.06699 0.7316 0.0
N2702 N 0.68748 0.14487 0.76466 0.0
N2703 N 0.67176 0.08835 0.73095 0.0
loop_
_geom_bond_atom_site_label_1
_geom_bond_atom_site_label_2
_geom_bond_distance
_geom_bond_site_symmetry_2
_ccdc_geom_bond_type
Co0 O1 2.216 . S
Co0 O2 2.091 . S
Co0 O4 2.004 . S
Co0 O10 2.021 . S
Co0 O12 2.137 . S
Co0 O13 2.244 . S
O1 Co0 2.216 . S
O1 C8 1.247 . S
O2 Co0 2.091 . S
O2 C8 1.261 . S
C3 O12 1.247 . S
C3 O13 1.272 . S
O4 Co0 2.004 . S
O4 C9 1.259 . S
Co5 O6 2.077 . S
Co5 O11 2.052 . S
Co5 O13 2.135 . S
O6 Co5 2.077 . S
O6 C9 1.246 . S
C7 O10 1.238 . S
C7 O11 1.241 . S
C8 O1 1.247 . S
C8 O2 1.261 . S
C9 O4 1.259 . S
C9 O6 1.246 . S
O10 Co0 2.021 . S
O10 C7 1.238 . S
O11 Co5 2.052 . S
O11 C7 1.241 . S
O12 Co0 2.137 . S
O12 C3 1.247 . S
O13 Co0 2.244 . S
O13 C3 1.272 . S
O13 Co5 2.135 . S
Co14 O15 2.216 . S
Co14 O16 2.091 . S
Co14 O18 2.004 . S
Co14 O24 2.021 . S
Co14 O26 2.137 . S
Co14 O27 2.244 . S
O15 Co14 2.216 . S
O15 C22 1.247 . S
O16 Co14 2.091 . S
O16 C22 1.261 . S
C17 O26 1.247 . S
C17 O27 1.272 . S
O18 Co14 2.004 . S
O18 C23 1.259 . S
Co19 O20 2.061 . S
Co19 O25 2.052 . S
Co19 O27 2.135 . S
O20 Co19 2.061 . S
O20 C23 1.235 . S
C21 O24 1.238 . S
C21 O25 1.241 . S
C22 O15 1.247 . S
C22 O16 1.261 . S
C23 O18 1.259 . S
C23 O20 1.235 . S
O24 Co14 2.021 . S
O24 C21 1.238 . S
O25 Co19 2.052 . S
O25 C21 1.241 . S
O26 Co14 2.137 . S
O26 C17 1.247 . S
O27 Co14 2.244 . S
O27 C17 1.272 . S
O27 Co19 2.135 . S
Co28 O29 2.216 . S
Co28 O30 2.091 . S
Co28 O32 2.004 . S
Co28 O38 2.021 . S
Co28 O40 2.137 . S
Co28 O41 2.244 . S
O29 Co28 2.216 . S
O29 C36 1.247 . S
O30 Co28 2.091 . S
O30 C36 1.261 . S
C31 O40 1.247 . S
C31 O41 1.272 . S
O32 Co28 2.004 . S
O32 C37 1.259 . S
Co33 O34 2.061 . S
Co33 O39 2.052 . S
Co33 O41 2.135 . S
O34 Co33 2.061 . S
O34 C37 1.235 . S
C35 O38 1.238 . S
C35 O39 1.241 . S
C36 O29 1.247 . S
C36 O30 1.261 . S
C37 O32 1.259 . S
C37 O34 1.235 . S
O38 Co28 2.021 . S
O38 C35 1.238 . S
O39 Co33 2.052 . S
O39 C35 1.241 . S
O40 Co28 2.137 . S
O40 C31 1.247 . S
O41 Co28 2.244 . S
O41 C31 1.272 . S
O41 Co33 2.135 . S
Co42 O43 2.216 . S
Co42 O44 2.091 . S
Co42 O46 2.004 . S
Co42 O52 2.021 . S
Co42 O54 2.137 . S
Co42 O55 2.244 . S
O43 Co42 2.216 . S
O43 C50 1.247 . S
O44 Co42 2.091 . S
O44 C50 1.261 . S
C45 O54 1.247 . S
C45 O55 1.272 . S
O46 Co42 2.004 . S
O46 C51 1.259 . S
Co47 O48 2.061 . S
Co47 O53 2.052 . S
Co47 O55 2.135 . S
O48 Co47 2.061 . S
O48 C51 1.235 . S
C49 O52 1.238 . S
C49 O53 1.241 . S
C50 O43 1.247 . S
C50 O44 1.261 . S
C51 O46 1.259 . S
C51 O48 1.235 . S
O52 Co42 2.021 . S
O52 C49 1.238 . S
O53 Co47 2.052 . S
O53 C49 1.241 . S
O54 Co42 2.137 . S
O54 C45 1.247 . S
O55 Co42 2.244 . S
O55 C45 1.272 . S
O55 Co47 2.135 . S
Co56 O57 2.216 . S
Co56 O58 2.091 . S
Co56 O60 2.004 . S
Co56 O66 2.021 . S
Co56 O68 2.137 . S
Co56 O69 2.244 . S
O57 Co56 2.216 . S
O57 C64 1.247 . S
O58 Co56 2.091 . S
O58 C64 1.261 . S
C59 O68 1.247 . S
C59 O69 1.272 . S
O60 Co56 2.004 . S
O60 C65 1.259 . S
Co61 O62 2.061 . S
Co61 O67 2.052 . S
Co61 O69 2.135 . S
O62 Co61 2.061 . S
O62 C65 1.235 . S
C63 O66 1.238 . S
C63 O67 1.241 . S
C64 O57 1.247 . S
C64 O58 1.261 . S
C65 O60 1.259 . S
C65 O62 1.235 . S
O66 Co56 2.021 . S
O66 C63 1.238 . S
O67 Co61 2.052 . S
O67 C63 1.241 . S
O68 Co56 2.137 . S
O68 C59 1.247 . S
O69 Co56 2.244 . S
O69 C59 1.272 . S
O69 Co61 2.135 . S
Co70 O71 2.216 . S
Co70 O72 2.091 . S
Co70 O74 2.004 . S
Co70 O80 2.021 . S
Co70 O82 2.137 . S
Co70 O83 2.244 . S
O71 Co70 2.216 . S
O71 C78 1.247 . S
O72 Co70 2.091 . S
O72 C78 1.261 . S
C73 O82 1.247 . S
C73 O83 1.272 . S
O74 Co70 2.004 . S
O74 C79 1.259 . S
Co75 O76 2.061 . S
Co75 O81 2.052 . S
Co75 O83 2.135 . S
O76 Co75 2.061 . S
O76 C79 1.235 . S
C77 O80 1.238 . S
C77 O81 1.241 . S
C78 O71 1.247 . S
C78 O72 1.261 . S
C79 O74 1.259 . S
C79 O76 1.235 . S
O80 Co70 2.021 . S
O80 C77 1.238 . S
O81 Co75 2.052 . S
O81 C77 1.241 . S
O82 Co70 2.137 . S
O82 C73 1.247 . S
O83 Co70 2.244 . S
O83 C73 1.272 . S
O83 Co75 2.135 . S
Co84 O85 2.216 . S
Co84 O86 2.091 . S
Co84 O88 2.004 . S
Co84 O94 2.021 . S
Co84 O96 2.137 . S
Co84 O97 2.244 . S
O85 Co84 2.216 . S
O85 C92 1.247 . S
O86 Co84 2.091 . S
O86 C92 1.261 . S
C87 O96 1.247 . S
C87 O97 1.272 . S
O88 Co84 2.004 . S
O88 C93 1.259 . S
Co89 O90 2.061 . S
Co89 O95 2.052 . S
Co89 O97 2.135 . S
O90 Co89 2.061 . S
O90 C93 1.235 . S
C91 O94 1.238 . S
C91 O95 1.241 . S
C92 O85 1.247 . S
C92 O86 1.261 . S
C93 O88 1.259 . S
C93 O90 1.235 . S
O94 Co84 2.021 . S
O94 C91 1.238 . S
O95 Co89 2.052 . S
O95 C91 1.241 . S
O96 Co84 2.137 . S
O96 C87 1.247 . S
O97 Co84 2.244 . S
O97 C87 1.272 . S
O97 Co89 2.135 . S
Co98 O99 2.216 . S
Co98 O100 2.091 . S
Co98 O102 2.004 1_455 S
Co98 O108 2.021 1_455 S
Co98 O110 2.137 . S
Co98 O111 2.244 1_455 S
O99 Co98 2.216 . S
O99 C106 1.247 . S
O100 Co98 2.091 . S
O100 C106 1.261 . S
C101 O110 1.247 . S
C101 O111 1.272 1_455 S
O102 Co98 2.004 1_655 S
O102 C107 1.259 . S
Co103 O104 2.061 . S
Co103 O109 2.052 . S
Co103 O111 2.135 . S
O104 Co103 2.061 . S
O104 C107 1.235 . S
C105 O108 1.245 . S
C105 O109 1.241 . S
C106 O99 1.247 . S
C106 O100 1.261 . S
C107 O102 1.259 . S
C107 O104 1.235 . S
O108 Co98 2.021 1_655 S
O108 C105 1.245 . S
O109 Co103 2.052 . S
O109 C105 1.241 . S
O110 Co98 2.137 . S
O110 C101 1.247 . S
O111 Co98 2.244 1_655 S
O111 C101 1.272 1_655 S
O111 Co103 2.135 . S
Co112 O113 2.216 . S
Co112 O114 2.091 . S
Co112 O116 2.004 . S
Co112 O122 2.021 . S
Co112 O124 2.137 . S
Co112 O125 2.244 . S
O113 Co112 2.216 . S
O113 C120 1.247 . S
O114 Co112 2.091 . S
O114 C120 1.261 . S
C115 O124 1.247 . S
C115 O125 1.272 . S
O116 Co112 2.004 . S
O116 C121 1.259 . S
Co117 O118 2.061 . S
Co117 O123 2.052 . S
Co117 O125 2.135 . S
O118 Co117 2.061 . S
O118 C121 1.235 . S
C119 O122 1.238 . S
C119 O123 1.241 . S
C120 O113 1.247 . S
C120 O114 1.261 . S
C121 O116 1.259 . S
C121 O118 1.235 . S
O122 Co112 2.021 . S
O122 C119 1.238 . S
O123 Co117 2.052 . S
O123 C119 1.241 . S
O124 Co112 2.137 . S
O124 C115 1.247 . S
O125 Co112 2.244 . S
O125 C115 1.272 . S
O125 Co117 2.135 . S
Co126 O127 2.216 . S
Co126 O128 2.091 . S
Co126 O130 2.004 . S
Co126 O136 2.021 . S
Co126 O138 2.137 . S
Co126 O139 2.244 . S
O127 Co126 2.216 . S
O127 C134 1.247 . S
O128 Co126 2.091 . S
O128 C134 1.261 . S
C129 O138 1.247 . S
C129 O139 1.272 . S
O130 Co126 2.004 . S
O130 C135 1.259 . S
Co131 O132 2.061 . S
Co131 O137 2.052 . S
Co131 O139 2.135 . S
O132 Co131 2.061 . S
O132 C135 1.235 . S
C133 O136 1.238 . S
C133 O137 1.241 . S
C134 O127 1.247 . S
C134 O128 1.261 . S
C135 O130 1.259 . S
C135 O132 1.235 . S
O136 Co126 2.021 . S
O136 C133 1.238 . S
O137 Co131 2.052 . S
O137 C133 1.241 . S
O138 Co126 2.137 . S
O138 C129 1.247 . S
O139 Co126 2.244 . S
O139 C129 1.272 . S
O139 Co131 2.135 . S
Co140 O141 2.216 . S
Co140 O142 2.091 . S
Co140 O144 2.004 . S
Co140 O150 2.021 . S
Co140 O152 2.137 . S
Co140 O153 2.244 . S
O141 Co140 2.216 . S
O141 C148 1.247 . S
O142 Co140 2.091 . S
O142 C148 1.261 . S
C143 O152 1.247 . S
C143 O153 1.272 . S
O144 Co140 2.004 . S
O144 C149 1.259 . S
Co145 O146 2.061 . S
Co145 O151 2.052 . S
Co145 O153 2.135 . S
O146 Co145 2.061 . S
O146 C149 1.235 . S
C147 O150 1.238 . S
C147 O151 1.241 . S
C148 O141 1.247 . S
C148 O142 1.261 . S
C149 O144 1.259 . S
C149 O146 1.235 . S
O150 Co140 2.021 . S
O150 C147 1.238 . S
O151 Co145 2.052 . S
O151 C147 1.241 . S
O152 Co140 2.137 . S
O152 C143 1.247 . S
O153 Co140 2.244 . S
O153 C143 1.272 . S
O153 Co145 2.135 . S
Co154 O155 2.216 . S
Co154 O156 2.091 . S
Co154 O158 2.004 . S
Co154 O164 2.021 . S
Co154 O166 2.137 . S
Co154 O167 2.244 . S
O155 Co154 2.216 . S
O155 C162 1.247 . S
O156 Co154 2.091 . S
O156 C162 1.261 . S
C157 O166 1.247 . S
C157 O167 1.272 . S
O158 Co154 2.004 . S
O158 C163 1.259 . S
Co159 O160 2.061 . S
Co159 O165 2.052 . S
Co159 O167 2.135 . S
O160 Co159 2.061 . S
O160 C163 1.235 . S
C161 O164 1.238 . S
C161 O165 1.241 . S
C162 O155 1.247 . S
C162 O156 1.261 . S
C163 O158 1.259 . S
C163 O160 1.235 . S
O164 Co154 2.021 . S
O164 C161 1.238 . S
O165 Co159 2.052 . S
O165 C161 1.241 . S
O166 Co154 2.137 . S
O166 C157 1.247 . S
O167 Co154 2.244 . S
O167 C157 1.272 . S
O167 Co159 2.135 . S
Co168 O169 2.216 . S
Co168 O170 2.091 . S
Co168 O172 2.004 . S
Co168 O178 2.021 . S
Co168 O180 2.137 1_554 S
Co168 O181 2.244 . S
O169 Co168 2.216 . S
O169 C176 1.247 . S
O170 Co168 2.091 . S
O170 C176 1.261 . S
C171 O180 1.247 . S
C171 O181 1.272 1_556 S
O172 Co168 2.004 . S
O172 C177 1.259 . S
Co173 O174 2.061 . S
Co173 O179 2.052 . S
Co173 O181 2.135 . S
O174 Co173 2.061 . S
O174 C177 1.235 . S
C175 O178 1.238 . S
C175 O179 1.241 . S
C176 O169 1.247 . S
C176 O170 1.261 . S
C177 O172 1.259 . S
C177 O174 1.235 . S
O178 Co168 2.021 . S
O178 C175 1.238 . S
O179 Co173 2.052 . S
O179 C175 1.241 . S
O180 Co168 2.137 1_556 S
O180 C171 1.247 . S
O181 Co168 2.244 . S
O181 C171 1.272 1_554 S
O181 Co173 2.135 . S
Co182 O183 2.216 1_556 S
Co182 O184 2.089 1_556 S
Co182 O186 2.004 . S
Co182 O192 2.021 1_556 S
Co182 O194 2.137 . S
Co182 O195 2.244 . S
O183 Co182 2.216 1_554 S
O183 C190 1.247 . S
O184 Co182 2.089 1_554 S
O184 C190 1.260 . S
C185 O194 1.247 . S
C185 O195 1.272 . S
O186 Co182 2.004 . S
O186 C191 1.259 . S
Co187 O188 2.057 . S
Co187 O193 2.016 1_556 S
Co187 O195 2.163 . S
O188 Co187 2.057 . S
O188 C191 1.235 . S
C189 O192 1.238 . S
C189 O193 1.241 . S
C190 O183 1.247 . S
C190 O184 1.260 . S
C191 O186 1.259 . S
C191 O188 1.235 . S
O192 Co182 2.021 1_554 S
O192 C189 1.238 . S
O193 Co187 2.016 1_554 S
O193 C189 1.241 . S
O194 Co182 2.137 . S
O194 C185 1.247 . S
O195 Co182 2.244 . S
O195 C185 1.272 . S
O195 Co187 2.163 . S
Co196 O197 2.216 . S
Co196 O198 2.091 . S
Co196 O200 2.004 . S
Co196 O206 2.021 . S
Co196 O208 2.137 . S
Co196 O209 2.244 . S
O197 Co196 2.216 . S
O197 C204 1.247 . S
O198 Co196 2.091 . S
O198 C204 1.261 . S
C199 O208 1.247 . S
C199 O209 1.272 . S
O200 Co196 2.004 . S
O200 C205 1.259 . S
Co201 O202 2.061 . S
Co201 O207 2.052 . S
Co201 O209 2.135 . S
O202 Co201 2.061 . S
O202 C205 1.235 . S
C203 O206 1.238 . S
C203 O207 1.241 . S
C204 O197 1.247 . S
C204 O198 1.261 . S
C205 O200 1.259 . S
C205 O202 1.235 . S
O206 Co196 2.021 . S
O206 C203 1.238 . S
O207 Co201 2.052 . S
O207 C203 1.241 . S
O208 Co196 2.137 . S
O208 C199 1.247 . S
O209 Co196 2.244 . S
O209 C199 1.272 . S
O209 Co201 2.135 . S
Co210 O211 2.216 . S
Co210 O212 2.091 . S
Co210 O214 2.004 . S
Co210 O220 2.021 . S
Co210 O222 2.137 . S
Co210 O223 2.244 . S
O211 Co210 2.216 . S
O211 C218 1.247 . S
O212 Co210 2.091 . S
O212 C218 1.261 . S
C213 O222 1.247 . S
C213 O223 1.272 . S
O214 Co210 2.004 . S
O214 C219 1.259 . S
Co215 O216 2.061 . S
Co215 O221 2.052 . S
Co215 O223 2.135 . S
O216 Co215 2.061 . S
O216 C219 1.235 . S
C217 O220 1.238 . S
C217 O221 1.241 . S
C218 O211 1.247 . S
C218 O212 1.261 . S
C219 O214 1.259 . S
C219 O216 1.235 . S
O220 Co210 2.021 . S
O220 C217 1.238 . S
O221 Co215 2.052 . S
O221 C217 1.241 . S
O222 Co210 2.137 . S
O222 C213 1.247 . S
O223 Co210 2.244 . S
O223 C213 1.272 . S
O223 Co215 2.135 . S
Co224 O225 2.216 . S
Co224 O226 2.091 . S
Co224 O228 2.004 1_545 S
Co224 O234 2.021 . S
Co224 O236 2.137 . S
Co224 O237 2.244 1_545 S
O225 Co224 2.216 . S
O225 C232 1.247 . S
O226 Co224 2.091 . S
O226 C232 1.261 . S
C227 O236 1.247 . S
C227 O237 1.272 1_545 S
O228 Co224 2.004 1_565 S
O228 C233 1.259 . S
Co229 O230 2.061 . S
Co229 O235 2.052 . S
Co229 O237 2.135 . S
O230 Co229 2.061 . S
O230 C233 1.235 . S
C231 O234 1.238 1_565 S
C231 O235 1.241 . S
C232 O225 1.247 . S
C232 O226 1.261 . S
C233 O228 1.259 . S
C233 O230 1.235 . S
O234 Co224 2.021 . S
O234 C231 1.238 1_545 S
O235 Co229 2.052 . S
O235 C231 1.241 . S
O236 Co224 2.137 . S
O236 C227 1.247 . S
O237 Co224 2.244 1_565 S
O237 C227 1.272 1_565 S
O237 Co229 2.135 . S
Co238 O239 2.216 . S
Co238 O240 2.091 . S
Co238 O242 2.004 . S
Co238 O248 2.021 . S
Co238 O250 2.137 . S
Co238 O251 2.244 . S
O239 Co238 2.216 . S
O239 C246 1.247 . S
O240 Co238 2.091 . S
O240 C246 1.261 . S
C241 O250 1.247 . S
C241 O251 1.272 . S
O242 Co238 2.004 . S
O242 C247 1.259 . S
Co243 O244 2.061 . S
Co243 O249 2.052 . S
Co243 O251 2.135 . S
O244 Co243 2.061 . S
O244 C247 1.235 . S
C245 O248 1.238 . S
C245 O249 1.241 . S
C246 O239 1.247 . S
C246 O240 1.261 . S
C247 O242 1.259 . S
C247 O244 1.235 . S
O248 Co238 2.021 . S
O248 C245 1.238 . S
O249 Co243 2.052 . S
O249 C245 1.241 . S
O250 Co238 2.137 . S
O250 C241 1.247 . S
O251 Co238 2.244 . S
O251 C241 1.272 . S
O251 Co243 2.135 . S
Co252 O253 2.216 . S
Co252 O254 2.091 . S
Co252 O256 2.004 . S
Co252 O262 2.021 . S
Co252 O264 2.137 . S
Co252 O265 2.244 . S
O253 Co252 2.216 . S
O253 C260 1.247 . S
O254 Co252 2.091 . S
O254 C260 1.261 . S
C255 O264 1.247 . S
C255 O265 1.272 . S
O256 Co252 2.004 . S
O256 C261 1.259 . S
Co257 O258 2.061 . S
Co257 O263 2.052 . S
Co257 O265 2.135 . S
O258 Co257 2.061 . S
O258 C261 1.235 . S
C259 O262 1.238 . S
C259 O263 1.241 . S
C260 O253 1.247 . S
C260 O254 1.261 . S
C261 O256 1.259 . S
C261 O258 1.235 . S
O262 Co252 2.021 . S
O262 C259 1.238 . S
O263 Co257 2.052 . S
O263 C259 1.241 . S
O264 Co252 2.137 . S
O264 C255 1.247 . S
O265 Co252 2.244 . S
O265 C255 1.272 . S
O265 Co257 2.135 . S
Co266 O267 2.216 1_545 S
Co266 O268 2.091 1_545 S
Co266 O270 2.004 . S
Co266 O276 2.021 . S
Co266 O278 2.140 . S
Co266 O279 2.244 . S
O267 Co266 2.216 1_565 S
O267 C274 1.247 . S
O268 Co266 2.091 1_565 S
O268 C274 1.261 . S
C269 O278 1.257 . S
C269 O279 1.272 . S
O270 Co266 2.004 . S
O270 C275 1.259 . S
Co271 O272 2.061 . S
Co271 O277 2.052 . S
Co271 O279 2.135 . S
O272 Co271 2.061 . S
O272 C275 1.235 . S
C273 O276 1.238 . S
C273 O277 1.241 . S
C274 O267 1.247 . S
C274 O268 1.261 . S
C275 O270 1.259 . S
C275 O272 1.235 . S
O276 Co266 2.021 . S
O276 C273 1.238 . S
O277 Co271 2.052 . S
O277 C273 1.241 . S
O278 Co266 2.140 . S
O278 C269 1.257 . S
O279 Co266 2.244 . S
O279 C269 1.272 . S
O279 Co271 2.135 . S
Co280 O281 2.216 . S
Co280 O282 2.091 . S
Co280 O284 2.004 . S
Co280 O290 2.021 . S
Co280 O292 2.137 1_554 S
Co280 O293 2.244 1_554 S
O281 Co280 2.216 . S
O281 C288 1.247 . S
O282 Co280 2.091 . S
O282 C288 1.261 . S
C283 O292 1.247 . S
C283 O293 1.272 . S
O284 Co280 2.004 . S
O284 C289 1.259 . S
Co285 O286 2.061 . S
Co285 O291 2.052 . S
Co285 O293 2.134 1_554 S
O286 Co285 2.061 . S
O286 C289 1.235 . S
C287 O290 1.238 . S
C287 O291 1.241 . S
C288 O281 1.247 . S
C288 O282 1.261 . S
C289 O284 1.259 . S
C289 O286 1.235 . S
O290 Co280 2.021 . S
O290 C287 1.238 . S
O291 Co285 2.052 . S
O291 C287 1.241 . S
O292 Co280 2.137 1_556 S
O292 C283 1.247 . S
O293 Co280 2.244 1_556 S
O293 C283 1.272 . S
O293 Co285 2.134 1_556 S
Co294 O295 2.216 . S
Co294 O296 2.091 . S
Co294 O298 2.004 . S
Co294 O304 2.021 . S
Co294 O306 2.137 . S
Co294 O307 2.244 1_655 S
O295 Co294 2.216 . S
O295 C302 1.247 . S
O296 Co294 2.091 . S
O296 C302 1.261 . S
C297 O306 1.247 1_455 S
C297 O307 1.272 . S
O298 Co294 2.004 . S
O298 C303 1.259 . S
Co299 O300 2.061 1_455 S
Co299 O305 2.052 . S
Co299 O307 2.135 . S
O300 Co299 2.061 1_655 S
O300 C303 1.235 . S
C301 O304 1.238 1_455 S
C301 O305 1.241 . S
C302 O295 1.247 . S
C302 O296 1.261 . S
C303 O298 1.259 . S
C303 O300 1.235 . S
O304 Co294 2.021 . S
O304 C301 1.238 1_655 S
O305 Co299 2.052 . S
O305 C301 1.241 . S
O306 Co294 2.137 . S
O306 C297 1.247 1_655 S
O307 Co294 2.244 1_455 S
O307 C297 1.272 . S
O307 Co299 2.135 . S
Co308 O309 2.216 . S
Co308 O310 2.091 . S
Co308 O312 2.004 . S
Co308 O318 2.021 . S
Co308 O320 2.137 . S
Co308 O321 2.244 . S
O309 Co308 2.216 . S
O309 C316 1.247 . S
O310 Co308 2.091 . S
O310 C316 1.261 . S
C311 O320 1.247 . S
C311 O321 1.272 . S
O312 Co308 2.004 . S
O312 C317 1.259 . S
Co313 O314 2.061 . S
Co313 O319 2.052 . S
Co313 O321 2.135 . S
O314 Co313 2.061 . S
O314 C317 1.235 . S
C315 O318 1.238 . S
C315 O319 1.241 . S
C316 O309 1.247 . S
C316 O310 1.261 . S
C317 O312 1.259 . S
C317 O314 1.235 . S
O318 Co308 2.021 . S
O318 C315 1.238 . S
O319 Co313 2.052 . S
O319 C315 1.241 . S
O320 Co308 2.137 . S
O320 C311 1.247 . S
O321 Co308 2.244 . S
O321 C311 1.272 . S
O321 Co313 2.135 . S
Co322 O323 2.216 . S
Co322 O324 2.091 . S
Co322 O326 2.004 . S
Co322 O332 2.021 . S
Co322 O334 2.137 . S
Co322 O335 2.244 . S
O323 Co322 2.216 . S
O323 C330 1.247 . S
O324 Co322 2.091 . S
O324 C330 1.261 . S
C325 O334 1.247 . S
C325 O335 1.272 . S
O326 Co322 2.004 . S
O326 C331 1.259 . S
Co327 O328 2.061 . S
Co327 O333 2.052 . S
Co327 O335 2.135 . S
O328 Co327 2.061 . S
O328 C331 1.235 . S
C329 O332 1.238 . S
C329 O333 1.241 . S
C330 O323 1.247 . S
C330 O324 1.261 . S
C331 O326 1.259 . S
C331 O328 1.235 . S
O332 Co322 2.021 . S
O332 C329 1.238 . S
O333 Co327 2.052 . S
O333 C329 1.241 . S
O334 Co322 2.137 . S
O334 C325 1.247 . S
O335 Co322 2.244 . S
O335 C325 1.272 . S
O335 Co327 2.135 . S
Tb336 C346 2.825 1_454 S
Tb336 O347 2.347 . S
Tb336 O350 2.366 . S
Tb336 O355 2.418 1_554 S
Tb336 O356 2.384 1_545 S
Tb336 O359 2.479 1_454 S
Tb336 O360 2.471 1_455 S
Eu337 O348 2.418 . S
Eu337 O349 2.384 . S
Eu337 O352 2.479 . S
Eu337 O353 2.471 . S
Eu337 O354 2.347 . S
Eu337 O357 2.366 . S
Eu337 C367 2.825 . S
C338 O354 1.259 1_556 S
C338 O355 1.265 . S
C339 O356 1.255 . S
C339 O357 1.265 1_565 S
C340 C342 1.380 . S
C340 C343 1.374 1_556 S
C340 C346 1.507 . S
C341 C342 1.384 . S
C341 C345 1.387 . S
C341 H368 0.930 . S
C342 C340 1.380 . S
C342 C341 1.384 . S
C342 H369 0.931 . S
C343 C340 1.374 1_554 S
C343 C344 1.390 1_554 S
C343 H370 0.930 . S
C344 C343 1.390 1_556 S
C344 C345 1.391 . S
C344 H371 0.930 1_556 S
C345 C341 1.387 . S
C345 C344 1.391 . S
C346 Tb336 2.825 1_656 S
C346 C340 1.507 . S
C346 O359 1.238 . S
C346 O360 1.247 1_556 S
O347 Tb336 2.347 . S
O347 C351 1.259 . S
O348 Eu337 2.418 . S
O348 C351 1.265 . S
O349 Eu337 2.384 . S
O349 C358 1.255 . S
O350 Tb336 2.366 . S
O350 C358 1.265 . S
C351 O347 1.259 . S
C351 O348 1.265 . S
O352 Eu337 2.479 . S
O352 C367 1.238 . S
O353 Eu337 2.471 . S
O353 C367 1.247 . S
O354 Eu337 2.347 . S
O354 C338 1.259 1_554 S
O355 Tb336 2.418 1_556 S
O355 C338 1.265 . S
O356 Tb336 2.384 1_565 S
O356 C339 1.255 . S
O357 Eu337 2.366 . S
O357 C339 1.265 1_545 S
C358 O349 1.255 . S
C358 O350 1.265 . S
O359 Tb336 2.479 1_656 S
O359 C346 1.238 . S
O360 Tb336 2.471 1_655 S
O360 C346 1.247 1_554 S
C361 C364 1.380 . S
C361 C365 1.374 . S
C361 C367 1.507 . S
C362 C363 1.387 . S
C362 C366 1.391 1_545 S
C363 C362 1.387 . S
C363 C364 1.384 . S
C363 H372 0.930 . S
C364 C361 1.380 . S
C364 C363 1.384 . S
C364 H373 0.931 . S
C365 C361 1.374 . S
C365 C366 1.390 1_545 S
C365 H374 0.930 . S
C366 C362 1.391 1_565 S
C366 C365 1.390 1_565 S
C366 H375 0.930 . S
C367 Eu337 2.825 . S
C367 O352 1.238 . S
C367 O353 1.247 . S
C367 C361 1.507 . S
H368 C341 0.930 . S
H369 C342 0.931 . S
H370 C343 0.930 . S
H371 C344 0.930 1_554 S
H372 C363 0.930 . S
H373 C364 0.931 . S
H374 C365 0.930 . S
H375 C366 0.930 . S
Tb376 C386 2.825 . S
Tb376 O387 2.347 . S
Tb376 O390 2.366 . S
Tb376 O395 2.418 . S
Tb376 O396 2.384 . S
Tb376 O399 2.479 . S
Tb376 O400 2.471 . S
Eu377 O388 2.418 . S
Eu377 O389 2.384 . S
Eu377 O392 2.479 . S
Eu377 O393 2.471 . S
Eu377 O394 2.347 . S
Eu377 O397 2.366 . S
Eu377 C407 2.825 . S
C378 O394 1.259 . S
C378 O395 1.265 . S
C379 O396 1.255 . S
C379 O397 1.265 . S
C380 C382 1.380 . S
C380 C383 1.374 . S
C380 C386 1.507 . S
C381 C382 1.384 . S
C381 C385 1.387 . S
C381 H408 0.930 . S
C382 C380 1.380 . S
C382 C381 1.384 . S
C382 H409 0.931 . S
C383 C380 1.374 . S
C383 C384 1.390 . S
C383 H410 0.930 . S
C384 C383 1.390 . S
C384 C385 1.391 . S
C384 H411 0.930 . S
C385 C381 1.387 . S
C385 C384 1.391 . S
C386 Tb376 2.825 . S
C386 C380 1.507 . S
C386 O399 1.238 . S
C386 O400 1.247 . S
O387 Tb376 2.347 . S
O387 C391 1.259 . S
O388 Eu377 2.418 . S
O388 C391 1.265 . S
O389 Eu377 2.384 . S
O389 C398 1.255 . S
O390 Tb376 2.366 . S
O390 C398 1.265 . S
C391 O387 1.259 . S
C391 O388 1.265 . S
O392 Eu377 2.479 . S
O392 C407 1.238 . S
O393 Eu377 2.471 . S
O393 C407 1.247 . S
O394 Eu377 2.347 . S
O394 C378 1.259 . S
O395 Tb376 2.418 . S
O395 C378 1.265 . S
O396 Tb376 2.384 . S
O396 C379 1.255 . S
O397 Eu377 2.366 . S
O397 C379 1.265 . S
C398 O389 1.255 . S
C398 O390 1.265 . S
O399 Tb376 2.479 . S
O399 C386 1.238 . S
O400 Tb376 2.471 . S
O400 C386 1.247 . S
C401 C404 1.380 . S
C401 C405 1.374 . S
C401 C407 1.507 . S
C402 C403 1.387 . S
C402 C406 1.391 . S
C403 C402 1.387 . S
C403 C404 1.384 . S
C403 H412 0.930 . S
C404 C401 1.380 . S
C404 C403 1.384 . S
C404 H413 0.931 . S
C405 C401 1.374 . S
C405 C406 1.390 . S
C405 H414 0.930 . S
C406 C402 1.391 . S
C406 C405 1.390 . S
C406 H415 0.930 . S
C407 Eu377 2.825 . S
C407 O392 1.238 . S
C407 O393 1.247 . S
C407 C401 1.507 . S
H408 C381 0.930 . S
H409 C382 0.931 . S
H410 C383 0.930 . S
H411 C384 0.930 . S
H412 C403 0.930 . S
H413 C404 0.931 . S
H414 C405 0.930 . S
H415 C406 0.930 . S
Tb416 C426 2.825 1_545 S
Tb416 O427 2.347 . S
Tb416 O430 2.366 1_545 S
Tb416 O435 2.418 . S
Tb416 O436 2.384 . S
Tb416 O439 2.479 1_545 S
Tb416 O440 2.471 1_545 S
Eu417 O428 2.418 . S
Eu417 O429 2.384 . S
Eu417 O432 2.479 . S
Eu417 O433 2.471 . S
Eu417 O434 2.347 . S
Eu417 O437 2.366 . S
Eu417 C447 2.825 . S
C418 O434 1.259 . S
C418 O435 1.265 . S
C419 O436 1.255 . S
C419 O437 1.265 . S
C420 C422 1.380 . S
C420 C423 1.374 . S
C420 C426 1.507 . S
C421 C422 1.384 . S
C421 C425 1.387 . S
C421 H448 0.930 . S
C422 C420 1.380 . S
C422 C421 1.384 . S
C422 H449 0.931 . S
C423 C420 1.374 . S
C423 C424 1.390 . S
C423 H450 0.930 . S
C424 C423 1.390 . S
C424 C425 1.391 . S
C424 H451 0.930 . S
C425 C421 1.387 . S
C425 C424 1.391 . S
C426 Tb416 2.825 1_565 S
C426 C420 1.507 . S
C426 O439 1.238 . S
C426 O440 1.247 . S
O427 Tb416 2.347 . S
O427 C431 1.259 . S
O428 Eu417 2.418 . S
O428 C431 1.265 . S
O429 Eu417 2.384 . S
O429 C438 1.255 . S
O430 Tb416 2.366 1_565 S
O430 C438 1.265 1_565 S
C431 O427 1.259 . S
C431 O428 1.265 . S
O432 Eu417 2.479 . S
O432 C447 1.238 . S
O433 Eu417 2.471 . S
O433 C447 1.247 . S
O434 Eu417 2.347 . S
O434 C418 1.259 . S
O435 Tb416 2.418 . S
O435 C418 1.265 . S
O436 Tb416 2.384 . S
O436 C419 1.255 . S
O437 Eu417 2.366 . S
O437 C419 1.265 . S
C438 O429 1.255 . S
C438 O430 1.265 1_545 S
O439 Tb416 2.479 1_565 S
O439 C426 1.238 . S
O440 Tb416 2.471 1_565 S
O440 C426 1.247 . S
C441 C444 1.380 . S
C441 C445 1.374 . S
C441 C447 1.507 . S
C442 C443 1.387 . S
C442 C446 1.391 . S
C443 C442 1.387 . S
C443 C444 1.384 . S
C443 H452 0.930 . S
C444 C441 1.380 . S
C444 C443 1.384 . S
C444 H453 0.931 . S
C445 C441 1.374 . S
C445 C446 1.390 . S
C445 H454 0.930 . S
C446 C442 1.391 . S
C446 C445 1.390 . S
C446 H455 0.930 . S
C447 Eu417 2.825 . S
C447 O432 1.238 . S
C447 O433 1.247 . S
C447 C441 1.507 . S
H448 C421 0.930 . S
H449 C422 0.931 . S
H450 C423 0.930 . S
H451 C424 0.930 . S
H452 C443 0.930 . S
H453 C444 0.931 . S
H454 C445 0.930 . S
H455 C446 0.930 . S
Tb456 C466 2.825 . S
Tb456 O467 2.347 . S
Tb456 O470 2.366 . S
Tb456 O475 2.418 . S
Tb456 O476 2.384 . S
Tb456 O479 2.479 . S
Tb456 O480 2.471 . S
Eu457 O468 2.418 . S
Eu457 O469 2.384 . S
Eu457 O472 2.479 . S
Eu457 O473 2.471 . S
Eu457 O474 2.347 . S
Eu457 O477 2.366 . S
Eu457 C487 2.825 . S
C458 O474 1.259 . S
C458 O475 1.265 . S
C459 O476 1.255 . S
C459 O477 1.265 . S
C460 C462 1.380 . S
C460 C463 1.374 . S
C460 C466 1.507 . S
C461 C462 1.384 . S
C461 C465 1.387 . S
C461 H488 0.930 . S
C462 C460 1.380 . S
C462 C461 1.384 . S
C462 H489 0.931 . S
C463 C460 1.374 . S
C463 C464 1.390 . S
C463 H490 0.930 . S
C464 C463 1.390 . S
C464 C465 1.391 . S
C464 H491 0.930 . S
C465 C461 1.387 . S
C465 C464 1.391 . S
C466 Tb456 2.825 . S
C466 C460 1.507 . S
C466 O479 1.238 . S
C466 O480 1.247 . S
O467 Tb456 2.347 . S
O467 C471 1.259 . S
O468 Eu457 2.418 . S
O468 C471 1.265 . S
O469 Eu457 2.384 . S
O469 C478 1.255 . S
O470 Tb456 2.366 . S
O470 C478 1.265 . S
C471 O467 1.259 . S
C471 O468 1.265 . S
O472 Eu457 2.479 . S
O472 C487 1.238 . S
O473 Eu457 2.471 . S
O473 C487 1.247 . S
O474 Eu457 2.347 . S
O474 C458 1.259 . S
O475 Tb456 2.418 . S
O475 C458 1.265 . S
O476 Tb456 2.384 . S
O476 C459 1.255 . S
O477 Eu457 2.366 . S
O477 C459 1.265 . S
C478 O469 1.255 . S
C478 O470 1.265 . S
O479 Tb456 2.479 . S
O479 C466 1.238 . S
O480 Tb456 2.471 . S
O480 C466 1.247 . S
C481 C484 1.380 . S
C481 C485 1.374 . S
C481 C487 1.507 . S
C482 C483 1.387 . S
C482 C486 1.391 . S
C483 C482 1.387 . S
C483 C484 1.384 . S
C483 H492 0.930 . S
C484 C481 1.380 . S
C484 C483 1.384 . S
C484 H493 0.931 . S
C485 C481 1.374 . S
C485 C486 1.390 . S
C485 H494 0.930 . S
C486 C482 1.391 . S
C486 C485 1.390 . S
C486 H495 0.930 . S
C487 Eu457 2.825 . S
C487 O472 1.238 . S
C487 O473 1.247 . S
C487 C481 1.507 . S
H488 C461 0.930 . S
H489 C462 0.931 . S
H490 C463 0.930 . S
H491 C464 0.930 . S
H492 C483 0.930 . S
H493 C484 0.931 . S
H494 C485 0.930 . S
H495 C486 0.930 . S
Tb496 C506 2.825 . S
Tb496 O507 2.347 . S
Tb496 O510 2.366 . S
Tb496 O515 2.418 . S
Tb496 O516 2.384 1_545 S
Tb496 O519 2.479 . S
Tb496 O520 2.471 . S
Eu497 O508 2.418 . S
Eu497 O509 2.384 . S
Eu497 O512 2.479 . S
Eu497 O513 2.471 . S
Eu497 O514 2.347 . S
Eu497 O517 2.366 . S
Eu497 C527 2.825 . S
C498 O514 1.259 . S
C498 O515 1.265 . S
C499 O516 1.255 . S
C499 O517 1.265 1_565 S
C500 C502 1.380 . S
C500 C503 1.374 1_455 S
C500 C506 1.507 . S
C501 C502 1.384 . S
C501 C505 1.341 1_455 S
C501 H528 0.930 . S
C502 C500 1.380 . S
C502 C501 1.384 . S
C502 H529 0.931 . S
C503 C500 1.374 1_655 S
C503 C504 1.390 . S
C503 H530 0.930 . S
C504 C503 1.390 . S
C504 C505 1.422 . S
C504 H531 0.930 . S
C505 C501 1.341 1_655 S
C505 C504 1.422 . S
C506 Tb496 2.825 . S
C506 C500 1.507 . S
C506 O519 1.238 . S
C506 O520 1.247 . S
O507 Tb496 2.347 . S
O507 C511 1.259 . S
O508 Eu497 2.418 . S
O508 C511 1.265 . S
O509 Eu497 2.384 . S
O509 C518 1.255 . S
O510 Tb496 2.366 . S
O510 C518 1.265 . S
C511 O507 1.259 . S
C511 O508 1.265 . S
O512 Eu497 2.479 . S
O512 C527 1.238 . S
O513 Eu497 2.471 . S
O513 C527 1.247 . S
O514 Eu497 2.347 . S
O514 C498 1.259 . S
O515 Tb496 2.418 . S
O515 C498 1.265 . S
O516 Tb496 2.384 1_565 S
O516 C499 1.255 . S
O517 Eu497 2.366 . S
O517 C499 1.265 1_545 S
C518 O509 1.255 . S
C518 O510 1.265 . S
O519 Tb496 2.479 . S
O519 C506 1.238 . S
O520 Tb496 2.471 . S
O520 C506 1.247 . S
C521 C524 1.380 . S
C521 C525 1.374 . S
C521 C527 1.507 . S
C522 C523 1.387 . S
C522 C526 1.391 . S
C523 C522 1.387 . S
C523 C524 1.384 . S
C523 H532 0.930 . S
C524 C521 1.380 . S
C524 C523 1.384 . S
C524 H533 0.931 . S
C525 C521 1.374 . S
C525 C526 1.390 . S
C525 H534 0.930 . S
C526 C522 1.391 . S
C526 C525 1.390 . S
C526 H535 0.930 . S
C527 Eu497 2.825 . S
C527 O512 1.238 . S
C527 O513 1.247 . S
C527 C521 1.507 . S
H528 C501 0.930 . S
H529 C502 0.931 . S
H530 C503 0.930 . S
H531 C504 0.930 . S
H532 C523 0.930 . S
H533 C524 0.931 . S
H534 C525 0.930 . S
H535 C526 0.930 . S
Tb536 C546 2.825 . S
Tb536 O547 2.347 . S
Tb536 O550 2.366 . S
Tb536 O555 2.418 . S
Tb536 O556 2.384 . S
Tb536 O559 2.479 . S
Tb536 O560 2.471 . S
Eu537 O548 2.418 . S
Eu537 O549 2.384 . S
Eu537 O552 2.479 . S
Eu537 O553 2.471 . S
Eu537 O554 2.347 . S
Eu537 O557 2.366 . S
Eu537 C567 2.825 . S
C538 O554 1.259 . S
C538 O555 1.265 . S
C539 O556 1.255 . S
C539 O557 1.265 . S
C540 C542 1.380 . S
C540 C543 1.374 . S
C540 C546 1.507 . S
C541 C542 1.384 . S
C541 C545 1.387 . S
C541 H568 0.930 . S
C542 C540 1.380 . S
C542 C541 1.384 . S
C542 H569 0.931 . S
C543 C540 1.374 . S
C543 C544 1.390 . S
C543 H570 0.930 . S
C544 C543 1.390 . S
C544 C545 1.391 . S
C544 H571 0.930 . S
C545 C541 1.387 . S
C545 C544 1.391 . S
C546 Tb536 2.825 . S
C546 C540 1.507 . S
C546 O559 1.238 . S
C546 O560 1.247 . S
O547 Tb536 2.347 . S
O547 C551 1.259 . S
O548 Eu537 2.418 . S
O548 C551 1.265 . S
O549 Eu537 2.384 . S
O549 C558 1.255 . S
O550 Tb536 2.366 . S
O550 C558 1.265 . S
C551 O547 1.259 . S
C551 O548 1.265 . S
O552 Eu537 2.479 . S
O552 C567 1.238 . S
O553 Eu537 2.471 . S
O553 C567 1.247 . S
O554 Eu537 2.347 . S
O554 C538 1.259 . S
O555 Tb536 2.418 . S
O555 C538 1.265 . S
O556 Tb536 2.384 . S
O556 C539 1.255 . S
O557 Eu537 2.366 . S
O557 C539 1.265 . S
C558 O549 1.255 . S
C558 O550 1.265 . S
O559 Tb536 2.479 . S
O559 C546 1.238 . S
O560 Tb536 2.471 . S
O560 C546 1.247 . S
C561 C564 1.380 . S
C561 C565 1.374 . S
C561 C567 1.507 . S
C562 C563 1.387 . S
C562 C566 1.391 . S
C563 C562 1.387 . S
C563 C564 1.384 . S
C563 H572 0.930 . S
C564 C561 1.380 . S
C564 C563 1.384 . S
C564 H573 0.931 . S
C565 C561 1.374 . S
C565 C566 1.390 . S
C565 H574 0.930 . S
C566 C562 1.391 . S
C566 C565 1.390 . S
C566 H575 0.930 . S
C567 Eu537 2.825 . S
C567 O552 1.238 . S
C567 O553 1.247 . S
C567 C561 1.507 . S
H568 C541 0.930 . S
H569 C542 0.931 . S
H570 C543 0.930 . S
H571 C544 0.930 . S
H572 C563 0.930 . S
H573 C564 0.931 . S
H574 C565 0.930 . S
H575 C566 0.930 . S
Tb576 C586 2.825 . S
Tb576 O587 2.347 . S
Tb576 O590 2.366 . S
Tb576 O595 2.418 1_545 S
Tb576 O596 2.384 . S
Tb576 O599 2.479 . S
Tb576 O600 2.471 . S
Eu577 O588 2.418 1_556 S
Eu577 O589 2.384 1_556 S
Eu577 O592 2.479 . S
Eu577 O593 2.471 . S
Eu577 O594 2.347 1_556 S
Eu577 O597 2.367 . S
Eu577 C607 2.825 . S
C578 O594 1.259 1_565 S
C578 O595 1.265 . S
C579 O596 1.255 . S
C579 O597 1.261 1_554 S
C580 C582 1.361 1_545 S
C580 C583 1.374 . S
C580 C586 1.507 . S
C581 C582 1.387 . S
C581 C585 1.387 1_565 S
C581 H608 0.930 . S
C582 C580 1.361 1_565 S
C582 C581 1.387 . S
C582 H609 0.946 . S
C583 C580 1.374 . S
C583 C584 1.390 . S
C583 H610 0.930 . S
C584 C583 1.390 . S
C584 C585 1.391 . S
C584 H611 0.930 . S
C585 C581 1.387 1_545 S
C585 C584 1.391 . S
C586 Tb576 2.825 . S
C586 C580 1.507 . S
C586 O599 1.238 . S
C586 O600 1.247 . S
O587 Tb576 2.347 . S
O587 C591 1.259 . S
O588 Eu577 2.418 1_554 S
O588 C591 1.265 . S
O589 Eu577 2.384 1_554 S
O589 C598 1.255 . S
O590 Tb576 2.366 . S
O590 C598 1.265 . S
C591 O587 1.259 . S
C591 O588 1.265 . S
O592 Eu577 2.479 . S
O592 C607 1.238 . S
O593 Eu577 2.471 . S
O593 C607 1.247 . S
O594 Eu577 2.347 1_554 S
O594 C578 1.259 1_545 S
O595 Tb576 2.418 1_565 S
O595 C578 1.265 . S
O596 Tb576 2.384 . S
O596 C579 1.255 . S
O597 Eu577 2.367 . S
O597 C579 1.261 1_556 S
C598 O589 1.255 . S
C598 O590 1.265 . S
O599 Tb576 2.479 . S
O599 C586 1.238 . S
O600 Tb576 2.471 . S
O600 C586 1.247 . S
C601 C604 1.380 . S
C601 C605 1.374 . S
C601 C607 1.507 . S
C602 C603 1.387 . S
C602 C606 1.391 . S
C603 C602 1.387 . S
C603 C604 1.384 . S
C603 H612 0.930 . S
C604 C601 1.380 . S
C604 C603 1.384 . S
C604 H613 0.931 . S
C605 C601 1.374 . S
C605 C606 1.390 . S
C605 H614 0.930 . S
C606 C602 1.391 . S
C606 C605 1.390 . S
C606 H615 0.930 . S
C607 Eu577 2.825 . S
C607 O592 1.238 . S
C607 O593 1.247 . S
C607 C601 1.507 . S
H608 C581 0.930 . S
H609 C582 0.946 . S
H610 C583 0.930 . S
H611 C584 0.930 . S
H612 C603 0.930 . S
H613 C604 0.931 . S
H614 C605 0.930 . S
H615 C606 0.930 . S
Tb616 C626 2.825 . S
Tb616 O627 2.347 . S
Tb616 O630 2.366 . S
Tb616 O635 2.418 . S
Tb616 O636 2.384 . S
Tb616 O639 2.479 . S
Tb616 O640 2.471 . S
Eu617 O628 2.418 . S
Eu617 O629 2.384 . S
Eu617 O632 2.479 . S
Eu617 O633 2.471 . S
Eu617 O634 2.347 . S
Eu617 O637 2.366 . S
Eu617 C647 2.825 . S
C618 O634 1.259 . S
C618 O635 1.265 . S
C619 O636 1.255 . S
C619 O637 1.265 . S
C620 C622 1.380 . S
C620 C623 1.374 . S
C620 C626 1.507 . S
C621 C622 1.384 . S
C621 C625 1.387 . S
C621 H648 0.930 . S
C622 C620 1.380 . S
C622 C621 1.384 . S
C622 H649 0.931 . S
C623 C620 1.374 . S
C623 C624 1.390 . S
C623 H650 0.930 . S
C624 C623 1.390 . S
C624 C625 1.391 . S
C624 H651 0.930 . S
C625 C621 1.387 . S
C625 C624 1.391 . S
C626 Tb616 2.825 . S
C626 C620 1.507 . S
C626 O639 1.238 . S
C626 O640 1.247 . S
O627 Tb616 2.347 . S
O627 C631 1.259 . S
O628 Eu617 2.418 . S
O628 C631 1.265 . S
O629 Eu617 2.384 . S
O629 C638 1.255 . S
O630 Tb616 2.366 . S
O630 C638 1.265 . S
C631 O627 1.259 . S
C631 O628 1.265 . S
O632 Eu617 2.479 . S
O632 C647 1.238 . S
O633 Eu617 2.471 . S
O633 C647 1.247 . S
O634 Eu617 2.347 . S
O634 C618 1.259 . S
O635 Tb616 2.418 . S
O635 C618 1.265 . S
O636 Tb616 2.384 . S
O636 C619 1.255 . S
O637 Eu617 2.366 . S
O637 C619 1.265 . S
C638 O629 1.255 . S
C638 O630 1.265 . S
O639 Tb616 2.479 . S
O639 C626 1.238 . S
O640 Tb616 2.471 . S
O640 C626 1.247 . S
C641 C644 1.380 . S
C641 C645 1.374 . S
C641 C647 1.507 . S
C642 C643 1.387 . S
C642 C646 1.391 . S
C643 C642 1.387 . S
C643 C644 1.384 . S
C643 H652 0.930 . S
C644 C641 1.380 . S
C644 C643 1.384 . S
C644 H653 0.931 . S
C645 C641 1.374 . S
C645 C646 1.390 . S
C645 H654 0.930 . S
C646 C642 1.391 . S
C646 C645 1.390 . S
C646 H655 0.930 . S
C647 Eu617 2.825 . S
C647 O632 1.238 . S
C647 O633 1.247 . S
C647 C641 1.507 . S
H648 C621 0.930 . S
H649 C622 0.931 . S
H650 C623 0.930 . S
H651 C624 0.930 . S
H652 C643 0.930 . S
H653 C644 0.931 . S
H654 C645 0.930 . S
H655 C646 0.930 . S
Tb656 C666 2.825 . S
Tb656 O667 2.347 1_556 S
Tb656 O670 2.366 . S
Tb656 O675 2.418 . S
Tb656 O676 2.384 1_556 S
Tb656 O679 2.479 . S
Tb656 O680 2.471 . S
Eu657 O668 2.418 . S
Eu657 O669 2.384 . S
Eu657 O672 2.479 . S
Eu657 O673 2.471 . S
Eu657 O674 2.347 . S
Eu657 O677 2.366 . S
Eu657 C687 2.825 . S
C658 O674 1.259 . S
C658 O675 1.265 1_554 S
C659 O676 1.255 . S
C659 O677 1.265 . S
C660 C662 1.380 . S
C660 C663 1.374 . S
C660 C666 1.507 . S
C661 C662 1.384 . S
C661 C665 1.387 . S
C661 H688 0.930 . S
C662 C660 1.380 . S
C662 C661 1.384 . S
C662 H689 0.931 . S
C663 C660 1.374 . S
C663 C664 1.390 . S
C663 H690 0.930 . S
C664 C663 1.390 . S
C664 C665 1.391 . S
C664 H691 0.930 . S
C665 C661 1.387 . S
C665 C664 1.391 . S
C666 Tb656 2.825 . S
C666 C660 1.507 . S
C666 O679 1.238 . S
C666 O680 1.247 . S
O667 Tb656 2.347 1_554 S
O667 C671 1.259 . S
O668 Eu657 2.418 . S
O668 C671 1.265 . S
O669 Eu657 2.384 . S
O669 C678 1.255 . S
O670 Tb656 2.366 . S
O670 C678 1.265 1_556 S
C671 O667 1.259 . S
C671 O668 1.265 . S
O672 Eu657 2.479 . S
O672 C687 1.238 . S
O673 Eu657 2.471 . S
O673 C687 1.247 . S
O674 Eu657 2.347 . S
O674 C658 1.259 . S
O675 Tb656 2.418 . S
O675 C658 1.265 1_556 S
O676 Tb656 2.384 1_554 S
O676 C659 1.255 . S
O677 Eu657 2.366 . S
O677 C659 1.265 . S
C678 O669 1.255 . S
C678 O670 1.265 1_554 S
O679 Tb656 2.479 . S
O679 C666 1.238 . S
O680 Tb656 2.471 . S
O680 C666 1.247 . S
C681 C684 1.380 . S
C681 C685 1.374 . S
C681 C687 1.507 . S
C682 C683 1.387 . S
C682 C686 1.391 . S
C683 C682 1.387 . S
C683 C684 1.384 . S
C683 H692 0.930 . S
C684 C681 1.380 . S
C684 C683 1.384 . S
C684 H693 0.931 . S
C685 C681 1.374 . S
C685 C686 1.390 . S
C685 H694 0.930 . S
C686 C682 1.391 . S
C686 C685 1.390 . S
C686 H695 0.930 . S
C687 Eu657 2.825 . S
C687 O672 1.238 . S
C687 O673 1.247 . S
C687 C681 1.507 . S
H688 C661 0.930 . S
H689 C662 0.931 . S
H690 C663 0.930 . S
H691 C664 0.930 . S
H692 C683 0.930 . S
H693 C684 0.931 . S
H694 C685 0.930 . S
H695 C686 0.930 . S
Tb696 C706 2.825 . S
Tb696 O707 2.347 . S
Tb696 O710 2.366 . S
Tb696 O715 2.418 . S
Tb696 O716 2.384 . S
Tb696 O719 2.479 . S
Tb696 O720 2.471 . S
Eu697 O708 2.418 . S
Eu697 O709 2.384 . S
Eu697 O712 2.479 . S
Eu697 O713 2.471 . S
Eu697 O714 2.347 . S
Eu697 O717 2.366 . S
Eu697 C727 2.825 . S
C698 O714 1.259 . S
C698 O715 1.265 . S
C699 O716 1.255 . S
C699 O717 1.265 . S
C700 C702 1.380 . S
C700 C703 1.374 . S
C700 C706 1.507 . S
C701 C702 1.384 . S
C701 C705 1.387 . S
C701 H728 0.930 . S
C702 C700 1.380 . S
C702 C701 1.384 . S
C702 H729 0.931 . S
C703 C700 1.374 . S
C703 C704 1.390 . S
C703 H730 0.930 . S
C704 C703 1.390 . S
C704 C705 1.391 . S
C704 H731 0.930 . S
C705 C701 1.387 . S
C705 C704 1.391 . S
C706 Tb696 2.825 . S
C706 C700 1.507 . S
C706 O719 1.238 . S
C706 O720 1.247 . S
O707 Tb696 2.347 . S
O707 C711 1.259 . S
O708 Eu697 2.418 . S
O708 C711 1.265 . S
O709 Eu697 2.384 . S
O709 C718 1.255 . S
O710 Tb696 2.366 . S
O710 C718 1.265 . S
C711 O707 1.259 . S
C711 O708 1.265 . S
O712 Eu697 2.479 . S
O712 C727 1.238 . S
O713 Eu697 2.471 . S
O713 C727 1.247 . S
O714 Eu697 2.347 . S
O714 C698 1.259 . S
O715 Tb696 2.418 . S
O715 C698 1.265 . S
O716 Tb696 2.384 . S
O716 C699 1.255 . S
O717 Eu697 2.366 . S
O717 C699 1.265 . S
C718 O709 1.255 . S
C718 O710 1.265 . S
O719 Tb696 2.479 . S
O719 C706 1.238 . S
O720 Tb696 2.471 . S
O720 C706 1.247 . S
C721 C724 1.380 . S
C721 C725 1.374 . S
C721 C727 1.507 . S
C722 C723 1.387 . S
C722 C726 1.391 . S
C723 C722 1.387 . S
C723 C724 1.384 . S
C723 H732 0.930 . S
C724 C721 1.380 . S
C724 C723 1.384 . S
C724 H733 0.931 . S
C725 C721 1.374 . S
C725 C726 1.390 . S
C725 H734 0.930 . S
C726 C722 1.391 . S
C726 C725 1.390 . S
C726 H735 0.930 . S
C727 Eu697 2.825 . S
C727 O712 1.238 . S
C727 O713 1.247 . S
C727 C721 1.507 . S
H728 C701 0.930 . S
H729 C702 0.931 . S
H730 C703 0.930 . S
H731 C704 0.930 . S
H732 C723 0.930 . S
H733 C724 0.931 . S
H734 C725 0.930 . S
H735 C726 0.930 . S
Tb736 C746 2.825 . S
Tb736 O747 2.347 . S
Tb736 O750 2.366 . S
Tb736 O755 2.418 . S
Tb736 O756 2.384 . S
Tb736 O759 2.479 . S
Tb736 O760 2.471 . S
Eu737 O748 2.418 . S
Eu737 O749 2.384 . S
Eu737 O752 2.479 . S
Eu737 O753 2.471 . S
Eu737 O754 2.347 . S
Eu737 O757 2.366 . S
Eu737 C767 2.825 . S
C738 O754 1.259 . S
C738 O755 1.265 . S
C739 O756 1.255 . S
C739 O757 1.265 . S
C740 C742 1.380 . S
C740 C743 1.374 . S
C740 C746 1.507 . S
C741 C742 1.384 . S
C741 C745 1.387 . S
C741 H768 0.930 . S
C742 C740 1.380 . S
C742 C741 1.384 . S
C742 H769 0.931 . S
C743 C740 1.374 . S
C743 C744 1.390 . S
C743 H770 0.930 . S
C744 C743 1.390 . S
C744 C745 1.391 . S
C744 H771 0.932 . S
C745 C741 1.387 . S
C745 C744 1.391 . S
C746 Tb736 2.825 . S
C746 C740 1.507 . S
C746 O759 1.238 . S
C746 O760 1.247 . S
O747 Tb736 2.347 . S
O747 C751 1.259 . S
O748 Eu737 2.418 . S
O748 C751 1.265 . S
O749 Eu737 2.384 . S
O749 C758 1.255 . S
O750 Tb736 2.366 . S
O750 C758 1.265 . S
C751 O747 1.259 . S
C751 O748 1.265 . S
O752 Eu737 2.479 . S
O752 C767 1.238 . S
O753 Eu737 2.471 . S
O753 C767 1.247 . S
O754 Eu737 2.347 . S
O754 C738 1.259 . S
O755 Tb736 2.418 . S
O755 C738 1.265 . S
O756 Tb736 2.384 . S
O756 C739 1.255 . S
O757 Eu737 2.366 . S
O757 C739 1.265 . S
C758 O749 1.255 . S
C758 O750 1.265 . S
O759 Tb736 2.479 . S
O759 C746 1.238 . S
O760 Tb736 2.471 . S
O760 C746 1.247 . S
C761 C764 1.380 . S
C761 C765 1.374 . S
C761 C767 1.507 . S
C762 C763 1.387 . S
C762 C766 1.391 . S
C763 C762 1.387 . S
C763 C764 1.384 . S
C763 H772 0.930 . S
C764 C761 1.380 . S
C764 C763 1.384 . S
C764 H773 0.931 . S
C765 C761 1.374 . S
C765 C766 1.390 . S
C765 H774 0.930 . S
C766 C762 1.391 . S
C766 C765 1.390 . S
C766 H775 0.930 . S
C767 Eu737 2.825 . S
C767 O752 1.238 . S
C767 O753 1.247 . S
C767 C761 1.507 . S
H768 C741 0.930 . S
H769 C742 0.931 . S
H770 C743 0.930 . S
H771 C744 0.932 . S
H772 C763 0.930 . S
H773 C764 0.931 . S
H774 C765 0.930 . S
H775 C766 0.930 . S
Tb776 C786 2.825 . S
Tb776 O787 2.347 . S
Tb776 O790 2.366 . S
Tb776 O795 2.418 . S
Tb776 O796 2.384 . S
Tb776 O799 2.479 . S
Tb776 O800 2.471 . S
Eu777 O788 2.418 . S
Eu777 O789 2.384 . S
Eu777 O792 2.479 . S
Eu777 O793 2.471 . S
Eu777 O794 2.347 . S
Eu777 O797 2.366 . S
Eu777 C807 2.825 . S
C778 O794 1.259 . S
C778 O795 1.265 . S
C779 O796 1.255 . S
C779 O797 1.265 . S
C780 C782 1.380 . S
C780 C783 1.374 . S
C780 C786 1.507 . S
C781 C782 1.384 . S
C781 C785 1.387 . S
C781 H808 0.930 . S
C782 C780 1.380 . S
C782 C781 1.384 . S
C782 H809 0.931 . S
C783 C780 1.374 . S
C783 C784 1.390 . S
C783 H810 0.930 . S
C784 C783 1.390 . S
C784 C785 1.391 . S
C784 H811 0.930 . S
C785 C781 1.387 . S
C785 C784 1.391 . S
C786 Tb776 2.825 . S
C786 C780 1.507 . S
C786 O799 1.238 . S
C786 O800 1.247 . S
O787 Tb776 2.347 . S
O787 C791 1.259 . S
O788 Eu777 2.418 . S
O788 C791 1.265 . S
O789 Eu777 2.384 . S
O789 C798 1.255 . S
O790 Tb776 2.366 . S
O790 C798 1.265 . S
C791 O787 1.259 . S
C791 O788 1.265 . S
O792 Eu777 2.479 . S
O792 C807 1.238 . S
O793 Eu777 2.471 . S
O793 C807 1.247 . S
O794 Eu777 2.347 . S
O794 C778 1.259 . S
O795 Tb776 2.418 . S
O795 C778 1.265 . S
O796 Tb776 2.384 . S
O796 C779 1.255 . S
O797 Eu777 2.366 . S
O797 C779 1.265 . S
C798 O789 1.255 . S
C798 O790 1.265 . S
O799 Tb776 2.479 . S
O799 C786 1.238 . S
O800 Tb776 2.471 . S
O800 C786 1.247 . S
C801 C804 1.380 . S
C801 C805 1.374 . S
C801 C807 1.507 . S
C802 C803 1.387 . S
C802 C806 1.391 . S
C803 C802 1.387 . S
C803 C804 1.384 . S
C803 H812 0.930 . S
C804 C801 1.380 . S
C804 C803 1.384 . S
C804 H813 0.931 . S
C805 C801 1.374 . S
C805 C806 1.390 . S
C805 H814 0.930 . S
C806 C802 1.391 . S
C806 C805 1.390 . S
C806 H815 0.930 . S
C807 Eu777 2.825 . S
C807 O792 1.238 . S
C807 O793 1.247 . S
C807 C801 1.507 . S
H808 C781 0.930 . S
H809 C782 0.931 . S
H810 C783 0.930 . S
H811 C784 0.930 . S
H812 C803 0.930 . S
H813 C804 0.931 . S
H814 C805 0.930 . S
H815 C806 0.930 . S
Tb816 C826 2.825 . S
Tb816 O827 2.347 . S
Tb816 O830 2.366 . S
Tb816 O835 2.418 . S
Tb816 O836 2.384 . S
Tb816 O839 2.479 . S
Tb816 O840 2.471 . S
Eu817 O828 2.418 . S
Eu817 O829 2.384 . S
Eu817 O832 2.479 . S
Eu817 O833 2.471 . S
Eu817 O834 2.347 . S
Eu817 O837 2.366 . S
Eu817 C847 2.825 . S
C818 O834 1.259 . S
C818 O835 1.265 . S
C819 O836 1.255 . S
C819 O837 1.265 . S
C820 C822 1.380 . S
C820 C823 1.374 . S
C820 C826 1.507 . S
C821 C822 1.384 . S
C821 C825 1.387 . S
C821 H848 0.930 . S
C822 C820 1.380 . S
C822 C821 1.384 . S
C822 H849 0.931 . S
C823 C820 1.374 . S
C823 C824 1.390 . S
C823 H850 0.930 . S
C824 C823 1.390 . S
C824 C825 1.391 . S
C824 H851 0.930 . S
C825 C821 1.387 . S
C825 C824 1.391 . S
C826 Tb816 2.825 . S
C826 C820 1.507 . S
C826 O839 1.238 . S
C826 O840 1.247 . S
O827 Tb816 2.347 . S
O827 C831 1.259 . S
O828 Eu817 2.418 . S
O828 C831 1.265 . S
O829 Eu817 2.384 . S
O829 C838 1.255 . S
O830 Tb816 2.366 . S
O830 C838 1.265 . S
C831 O827 1.259 . S
C831 O828 1.265 . S
O832 Eu817 2.479 . S
O832 C847 1.238 . S
O833 Eu817 2.471 . S
O833 C847 1.247 . S
O834 Eu817 2.347 . S
O834 C818 1.259 . S
O835 Tb816 2.418 . S
O835 C818 1.265 . S
O836 Tb816 2.384 . S
O836 C819 1.255 . S
O837 Eu817 2.366 . S
O837 C819 1.265 . S
C838 O829 1.255 . S
C838 O830 1.265 . S
O839 Tb816 2.479 . S
O839 C826 1.238 . S
O840 Tb816 2.471 . S
O840 C826 1.247 . S
C841 C844 1.380 . S
C841 C845 1.374 . S
C841 C847 1.507 . S
C842 C843 1.387 . S
C842 C846 1.391 . S
C843 C842 1.387 . S
C843 C844 1.384 . S
C843 H852 0.930 . S
C844 C841 1.380 . S
C844 C843 1.384 . S
C844 H853 0.931 . S
C845 C841 1.374 . S
C845 C846 1.390 . S
C845 H854 0.930 . S
C846 C842 1.391 . S
C846 C845 1.390 . S
C846 H855 0.930 . S
C847 Eu817 2.825 . S
C847 O832 1.238 . S
C847 O833 1.247 . S
C847 C841 1.507 . S
H848 C821 0.930 . S
H849 C822 0.931 . S
H850 C823 0.930 . S
H851 C824 0.930 . S
H852 C843 0.930 . S
H853 C844 0.931 . S
H854 C845 0.930 . S
H855 C846 0.930 . S
Tb856 C866 2.825 . S
Tb856 O867 2.347 . S
Tb856 O870 2.366 . S
Tb856 O875 2.418 . S
Tb856 O876 2.384 . S
Tb856 O879 2.479 . S
Tb856 O880 2.471 . S
Eu857 O868 2.418 . S
Eu857 O869 2.384 . S
Eu857 O872 2.479 . S
Eu857 O873 2.471 . S
Eu857 O874 2.347 . S
Eu857 O877 2.366 . S
Eu857 C887 2.825 . S
C858 O874 1.259 . S
C858 O875 1.265 . S
C859 O876 1.255 . S
C859 O877 1.265 . S
C860 C862 1.380 . S
C860 C863 1.374 . S
C860 C866 1.507 . S
C861 C862 1.384 . S
C861 C865 1.387 . S
C861 H888 0.930 . S
C862 C860 1.380 . S
C862 C861 1.384 . S
C862 H889 0.931 . S
C863 C860 1.374 . S
C863 C864 1.390 . S
C863 H890 0.930 . S
C864 C863 1.390 . S
C864 C865 1.391 . S
C864 H891 0.930 . S
C865 C861 1.387 . S
C865 C864 1.391 . S
C866 Tb856 2.825 . S
C866 C860 1.507 . S
C866 O879 1.238 . S
C866 O880 1.247 . S
O867 Tb856 2.347 . S
O867 C871 1.259 . S
O868 Eu857 2.418 . S
O868 C871 1.265 . S
O869 Eu857 2.384 . S
O869 C878 1.255 . S
O870 Tb856 2.366 . S
O870 C878 1.265 . S
C871 O867 1.259 . S
C871 O868 1.265 . S
O872 Eu857 2.479 . S
O872 C887 1.238 . S
O873 Eu857 2.471 . S
O873 C887 1.247 . S
O874 Eu857 2.347 . S
O874 C858 1.259 . S
O875 Tb856 2.418 . S
O875 C858 1.265 . S
O876 Tb856 2.384 . S
O876 C859 1.255 . S
O877 Eu857 2.366 . S
O877 C859 1.265 . S
C878 O869 1.255 . S
C878 O870 1.265 . S
O879 Tb856 2.479 . S
O879 C866 1.238 . S
O880 Tb856 2.471 . S
O880 C866 1.247 . S
C881 C884 1.380 . S
C881 C885 1.374 . S
C881 C887 1.507 . S
C882 C883 1.387 . S
C882 C886 1.391 . S
C883 C882 1.387 . S
C883 C884 1.384 . S
C883 H892 0.930 . S
C884 C881 1.380 . S
C884 C883 1.384 . S
C884 H893 0.931 . S
C885 C881 1.374 . S
C885 C886 1.390 . S
C885 H894 0.930 . S
C886 C882 1.391 . S
C886 C885 1.390 . S
C886 H895 0.930 . S
C887 Eu857 2.825 . S
C887 O872 1.238 . S
C887 O873 1.247 . S
C887 C881 1.507 . S
H888 C861 0.930 . S
H889 C862 0.931 . S
H890 C863 0.930 . S
H891 C864 0.930 . S
H892 C883 0.930 . S
H893 C884 0.931 . S
H894 C885 0.930 . S
H895 C886 0.930 . S
Tb896 C906 2.825 . S
Tb896 O907 2.347 . S
Tb896 O910 2.366 . S
Tb896 O915 2.418 . S
Tb896 O916 2.384 . S
Tb896 O919 2.479 . S
Tb896 O920 2.471 . S
Eu897 O908 2.418 . S
Eu897 O909 2.384 . S
Eu897 O912 2.479 . S
Eu897 O913 2.471 . S
Eu897 O914 2.347 . S
Eu897 O917 2.366 . S
Eu897 C927 2.825 . S
C898 O914 1.259 . S
C898 O915 1.265 . S
C899 O916 1.255 . S
C899 O917 1.265 . S
C900 C902 1.380 . S
C900 C903 1.374 . S
C900 C906 1.507 . S
C901 C902 1.384 . S
C901 C905 1.387 . S
C901 H928 0.930 . S
C902 C900 1.380 . S
C902 C901 1.384 . S
C902 H929 0.931 . S
C903 C900 1.374 . S
C903 C904 1.390 . S
C903 H930 0.930 . S
C904 C903 1.390 . S
C904 C905 1.391 . S
C904 H931 0.930 . S
C905 C901 1.387 . S
C905 C904 1.391 . S
C906 Tb896 2.825 . S
C906 C900 1.507 . S
C906 O919 1.238 . S
C906 O920 1.247 . S
O907 Tb896 2.347 . S
O907 C911 1.259 . S
O908 Eu897 2.418 . S
O908 C911 1.265 . S
O909 Eu897 2.384 . S
O909 C918 1.255 . S
O910 Tb896 2.366 . S
O910 C918 1.265 . S
C911 O907 1.259 . S
C911 O908 1.265 . S
O912 Eu897 2.479 . S
O912 C927 1.238 . S
O913 Eu897 2.471 . S
O913 C927 1.247 . S
O914 Eu897 2.347 . S
O914 C898 1.259 . S
O915 Tb896 2.418 . S
O915 C898 1.265 . S
O916 Tb896 2.384 . S
O916 C899 1.255 . S
O917 Eu897 2.366 . S
O917 C899 1.265 . S
C918 O909 1.255 . S
C918 O910 1.265 . S
O919 Tb896 2.479 . S
O919 C906 1.238 . S
O920 Tb896 2.471 . S
O920 C906 1.247 . S
C921 C924 1.380 . S
C921 C925 1.374 . S
C921 C927 1.507 . S
C922 C923 1.387 . S
C922 C926 1.391 . S
C923 C922 1.387 . S
C923 C924 1.384 . S
C923 H932 0.930 . S
C924 C921 1.380 . S
C924 C923 1.384 . S
C924 H933 0.931 . S
C925 C921 1.374 . S
C925 C926 1.390 . S
C925 H934 0.930 . S
C926 C922 1.391 . S
C926 C925 1.390 . S
C926 H935 0.930 . S
C927 Eu897 2.825 . S
C927 O912 1.238 . S
C927 O913 1.247 . S
C927 C921 1.507 . S
H928 C901 0.930 . S
H929 C902 0.931 . S
H930 C903 0.930 . S
H931 C904 0.930 . S
H932 C923 0.930 . S
H933 C924 0.931 . S
H934 C925 0.930 . S
H935 C926 0.930 . S
Tb936 C946 2.825 . S
Tb936 O947 2.347 1_554 S
Tb936 O950 2.366 . S
Tb936 O955 2.418 . S
Tb936 O956 2.384 . S
Tb936 O959 2.479 . S
Tb936 O960 2.471 1_554 S
Eu937 O948 2.418 1_554 S
Eu937 O949 2.384 . S
Eu937 O952 2.479 . S
Eu937 O953 2.471 . S
Eu937 O954 2.347 . S
Eu937 O957 2.366 . S
Eu937 C967 2.825 . S
C938 O954 1.259 . S
C938 O955 1.265 . S
C939 O956 1.255 . S
C939 O957 1.265 . S
C940 C942 1.380 1_556 S
C940 C943 1.374 . S
C940 C946 1.507 1_556 S
C941 C942 1.384 1_556 S
C941 C945 1.387 . S
C941 H968 0.930 1_556 S
C942 C940 1.380 1_554 S
C942 C941 1.384 1_554 S
C942 H969 0.931 . S
C943 C940 1.374 . S
C943 C944 1.390 . S
C943 H970 0.930 . S
C944 C943 1.390 . S
C944 C945 1.391 . S
C944 H971 0.930 . S
C945 C941 1.387 . S
C945 C944 1.391 . S
C946 Tb936 2.825 . S
C946 C940 1.507 1_554 S
C946 O959 1.238 . S
C946 O960 1.247 1_554 S
O947 Tb936 2.347 1_556 S
O947 C951 1.259 . S
O948 Eu937 2.418 1_556 S
O948 C951 1.265 . S
O949 Eu937 2.384 . S
O949 C958 1.255 . S
O950 Tb936 2.366 . S
O950 C958 1.265 . S
C951 O947 1.259 . S
C951 O948 1.265 . S
O952 Eu937 2.479 . S
O952 C967 1.238 . S
O953 Eu937 2.471 . S
O953 C967 1.247 . S
O954 Eu937 2.347 . S
O954 C938 1.259 . S
O955 Tb936 2.418 . S
O955 C938 1.265 . S
O956 Tb936 2.384 . S
O956 C939 1.255 . S
O957 Eu937 2.366 . S
O957 C939 1.265 . S
C958 O949 1.255 . S
C958 O950 1.265 . S
O959 Tb936 2.479 . S
O959 C946 1.238 . S
O960 Tb936 2.471 1_556 S
O960 C946 1.247 1_556 S
C961 C964 1.380 . S
C961 C965 1.374 . S
C961 C967 1.507 . S
C962 C963 1.387 . S
C962 C966 1.391 . S
C963 C962 1.387 . S
C963 C964 1.384 . S
C963 H972 0.930 . S
C964 C961 1.380 . S
C964 C963 1.384 . S
C964 H973 0.931 . S
C965 C961 1.374 . S
C965 C966 1.390 . S
C965 H974 0.930 . S
C966 C962 1.391 . S
C966 C965 1.390 . S
C966 H975 0.930 . S
C967 Eu937 2.825 . S
C967 O952 1.238 . S
C967 O953 1.247 . S
C967 C961 1.507 . S
H968 C941 0.930 1_554 S
H969 C942 0.931 . S
H970 C943 0.930 . S
H971 C944 0.930 . S
H972 C963 0.930 . S
H973 C964 0.931 . S
H974 C965 0.930 . S
H975 C966 0.930 . S
H976 C982 0.930 . S
H977 C986 0.930 . S
H978 C991 0.929 . S
H979 C989 0.929 . S
H980 C984 0.929 . S
H981 C990 0.929 . S
C982 H976 0.930 . S
C982 C983 1.367 . S
C982 C990 1.378 . S
C983 C982 1.367 . S
C983 C991 1.433 . S
C984 H980 0.929 . S
C984 C986 1.378 . S
C984 C988 1.350 . S
C985 C988 1.463 . S
C985 C990 1.350 . S
C985 N993 1.427 . S
C986 H977 0.930 . S
C986 C984 1.378 . S
C986 C987 1.367 1_556 S
C987 C986 1.367 1_554 S
C987 C989 1.433 . S
C988 C984 1.350 . S
C988 C985 1.463 . S
C988 N992 1.427 . S
C989 H979 0.929 . S
C989 C987 1.433 . S
C989 N992 1.384 1_554 S
C990 H981 0.929 . S
C990 C982 1.378 . S
C990 C985 1.350 . S
C991 H978 0.929 . S
C991 C983 1.433 . S
C991 N993 1.384 . S
N992 C988 1.427 . S
N992 C989 1.384 1_556 S
N993 C985 1.427 . S
N993 C991 1.384 . S
H994 C1000 0.930 . S
H995 C1004 0.930 . S
H996 C1009 0.929 . S
H997 C1007 0.929 . S
H998 C1002 0.929 . S
H999 C1008 0.929 . S
C1000 H994 0.930 . S
C1000 C1001 1.367 . S
C1000 C1008 1.378 . S
C1001 C1000 1.367 . S
C1001 C1009 1.433 . S
C1002 H998 0.929 . S
C1002 C1004 1.378 . S
C1002 C1006 1.350 . S
C1003 C1006 1.463 . S
C1003 C1008 1.350 . S
C1003 N1011 1.427 . S
C1004 H995 0.930 . S
C1004 C1002 1.378 . S
C1004 C1005 1.367 . S
C1005 C1004 1.367 . S
C1005 C1007 1.433 . S
C1006 C1002 1.350 . S
C1006 C1003 1.463 . S
C1006 N1010 1.427 . S
C1007 H997 0.929 . S
C1007 C1005 1.433 . S
C1007 N1010 1.384 . S
C1008 H999 0.929 . S
C1008 C1000 1.378 . S
C1008 C1003 1.350 . S
C1009 H996 0.929 . S
C1009 C1001 1.433 . S
C1009 N1011 1.384 . S
N1010 C1006 1.427 . S
N1010 C1007 1.384 . S
N1011 C1003 1.427 . S
N1011 C1009 1.384 . S
H1012 C1018 0.930 . S
H1013 C1022 0.930 . S
H1014 C1027 0.929 . S
H1015 C1025 0.929 . S
H1016 C1020 0.929 . S
H1017 C1026 0.929 . S
C1018 H1012 0.930 . S
C1018 C1019 1.367 . S
C1018 C1026 1.378 . S
C1019 C1018 1.367 . S
C1019 C1027 1.433 . S
C1020 H1016 0.929 . S
C1020 C1022 1.378 . S
C1020 C1024 1.350 . S
C1021 C1024 1.463 . S
C1021 C1026 1.350 . S
C1021 N1029 1.427 . S
C1022 H1013 0.930 . S
C1022 C1020 1.378 . S
C1022 C1023 1.367 . S
C1023 C1022 1.367 . S
C1023 C1025 1.433 . S
C1024 C1020 1.350 . S
C1024 C1021 1.463 . S
C1024 N1028 1.427 . S
C1025 H1015 0.929 . S
C1025 C1023 1.433 . S
C1025 N1028 1.384 . S
C1026 H1017 0.929 . S
C1026 C1018 1.378 . S
C1026 C1021 1.350 . S
C1027 H1014 0.929 . S
C1027 C1019 1.433 . S
C1027 N1029 1.384 . S
N1028 C1024 1.427 . S
N1028 C1025 1.384 . S
N1029 C1021 1.427 . S
N1029 C1027 1.384 . S
H1030 C1036 0.930 . S
H1031 C1040 0.930 . S
H1032 C1045 0.929 . S
H1033 C1043 0.929 . S
H1034 C1038 0.929 . S
H1035 C1044 0.929 . S
C1036 H1030 0.930 . S
C1036 C1037 1.367 . S
C1036 C1044 1.378 . S
C1037 C1036 1.367 . S
C1037 C1045 1.433 . S
C1038 H1034 0.929 . S
C1038 C1040 1.378 . S
C1038 C1042 1.350 . S
C1039 C1042 1.463 . S
C1039 C1044 1.350 . S
C1039 N1047 1.427 . S
C1040 H1031 0.930 . S
C1040 C1038 1.378 . S
C1040 C1041 1.367 . S
C1041 C1040 1.367 . S
C1041 C1043 1.433 . S
C1042 C1038 1.350 . S
C1042 C1039 1.463 . S
C1042 N1046 1.427 . S
C1043 H1033 0.929 . S
C1043 C1041 1.433 . S
C1043 N1046 1.384 . S
C1044 H1035 0.929 . S
C1044 C1036 1.378 . S
C1044 C1039 1.350 . S
C1045 H1032 0.929 . S
C1045 C1037 1.433 . S
C1045 N1047 1.384 . S
N1046 C1042 1.427 . S
N1046 C1043 1.384 . S
N1047 C1039 1.427 . S
N1047 C1045 1.384 . S
H1048 C1054 0.930 . S
H1049 C1058 0.930 . S
H1050 C1063 0.929 . S
H1051 C1061 0.929 . S
H1052 C1056 0.929 . S
H1053 C1062 0.929 . S
C1054 H1048 0.930 . S
C1054 C1055 1.367 . S
C1054 C1062 1.378 . S
C1055 C1054 1.367 . S
C1055 C1063 1.433 . S
C1056 H1052 0.929 . S
C1056 C1058 1.378 . S
C1056 C1060 1.350 . S
C1057 C1060 1.463 . S
C1057 C1062 1.350 . S
C1057 N1065 1.427 . S
C1058 H1049 0.930 . S
C1058 C1056 1.378 . S
C1058 C1059 1.367 . S
C1059 C1058 1.367 . S
C1059 C1061 1.433 . S
C1060 C1056 1.350 . S
C1060 C1057 1.463 . S
C1060 N1064 1.427 . S
C1061 H1051 0.929 . S
C1061 C1059 1.433 . S
C1061 N1064 1.384 . S
C1062 H1053 0.929 . S
C1062 C1054 1.378 . S
C1062 C1057 1.350 . S
C1063 H1050 0.929 . S
C1063 C1055 1.433 . S
C1063 N1065 1.384 . S
N1064 C1060 1.427 . S
N1064 C1061 1.384 . S
N1065 C1057 1.427 . S
N1065 C1063 1.384 . S
H1066 C1072 0.930 . S
H1067 C1076 0.930 . S
H1068 C1081 0.929 . S
H1069 C1079 0.929 . S
H1070 C1074 0.929 . S
H1071 C1080 0.929 . S
C1072 H1066 0.930 . S
C1072 C1073 1.367 . S
C1072 C1080 1.378 . S
C1073 C1072 1.367 . S
C1073 C1081 1.433 . S
C1074 H1070 0.929 . S
C1074 C1076 1.378 . S
C1074 C1078 1.350 . S
C1075 C1078 1.463 . S
C1075 C1080 1.350 . S
C1075 N1083 1.427 . S
C1076 H1067 0.930 . S
C1076 C1074 1.378 . S
C1076 C1077 1.367 . S
C1077 C1076 1.367 . S
C1077 C1079 1.433 . S
C1078 C1074 1.350 . S
C1078 C1075 1.463 . S
C1078 N1082 1.427 . S
C1079 H1069 0.929 . S
C1079 C1077 1.433 . S
C1079 N1082 1.384 . S
C1080 H1071 0.929 . S
C1080 C1072 1.378 . S
C1080 C1075 1.350 . S
C1081 H1068 0.929 . S
C1081 C1073 1.433 . S
C1081 N1083 1.384 . S
N1082 C1078 1.427 . S
N1082 C1079 1.384 . S
N1083 C1075 1.427 . S
N1083 C1081 1.384 . S
H1084 C1090 0.930 . S
H1085 C1094 0.930 . S
H1086 C1099 0.929 . S
H1087 C1097 0.929 . S
H1088 C1092 0.929 . S
H1089 C1098 0.929 . S
C1090 H1084 0.930 . S
C1090 C1091 1.367 . S
C1090 C1098 1.378 . S
C1091 C1090 1.367 . S
C1091 C1099 1.433 . S
C1092 H1088 0.929 . S
C1092 C1094 1.378 . S
C1092 C1096 1.350 . S
C1093 C1096 1.463 . S
C1093 C1098 1.350 . S
C1093 N1101 1.427 . S
C1094 H1085 0.930 . S
C1094 C1092 1.378 . S
C1094 C1095 1.367 . S
C1095 C1094 1.367 . S
C1095 C1097 1.433 . S
C1096 C1092 1.350 . S
C1096 C1093 1.463 . S
C1096 N1100 1.427 . S
C1097 H1087 0.929 . S
C1097 C1095 1.433 . S
C1097 N1100 1.384 . S
C1098 H1089 0.929 . S
C1098 C1090 1.378 . S
C1098 C1093 1.350 . S
C1099 H1086 0.929 . S
C1099 C1091 1.433 . S
C1099 N1101 1.384 . S
N1100 C1096 1.427 . S
N1100 C1097 1.384 . S
N1101 C1093 1.427 . S
N1101 C1099 1.384 . S
H1102 C1108 0.930 . S
H1103 C1112 0.930 . S
H1104 C1117 0.929 . S
H1105 C1115 0.929 . S
H1106 C1110 0.929 . S
H1107 C1116 0.929 . S
C1108 H1102 0.930 . S
C1108 C1109 1.367 . S
C1108 C1116 1.378 . S
C1109 C1108 1.367 . S
C1109 C1117 1.433 . S
C1110 H1106 0.929 . S
C1110 C1112 1.378 . S
C1110 C1114 1.350 . S
C1111 C1114 1.463 . S
C1111 C1116 1.350 . S
C1111 N1119 1.427 . S
C1112 H1103 0.930 . S
C1112 C1110 1.378 . S
C1112 C1113 1.367 . S
C1113 C1112 1.367 . S
C1113 C1115 1.433 . S
C1114 C1110 1.350 . S
C1114 C1111 1.463 . S
C1114 N1118 1.427 . S
C1115 H1105 0.929 . S
C1115 C1113 1.433 . S
C1115 N1118 1.384 . S
C1116 H1107 0.929 . S
C1116 C1108 1.378 . S
C1116 C1111 1.350 . S
C1117 H1104 0.929 . S
C1117 C1109 1.433 . S
C1117 N1119 1.384 . S
N1118 C1114 1.427 . S
N1118 C1115 1.384 . S
N1119 C1111 1.427 . S
N1119 C1117 1.384 . S
H1120 C1126 0.930 . S
H1121 C1130 0.930 . S
H1122 C1135 0.929 . S
H1123 C1133 0.929 . S
H1124 C1128 0.929 1_565 S
H1125 C1134 0.929 . S
C1126 H1120 0.930 . S
C1126 C1127 1.367 . S
C1126 C1134 1.378 . S
C1127 C1126 1.367 . S
C1127 C1135 1.433 1_545 S
C1128 H1124 0.929 1_545 S
C1128 C1130 1.364 1_655 S
C1128 C1132 1.364 . S
C1129 C1132 1.463 . S
C1129 C1134 1.350 . S
C1129 N1137 1.427 1_545 S
C1130 H1121 0.930 . S
C1130 C1128 1.364 1_455 S
C1130 C1131 1.367 . S
C1131 C1130 1.367 . S
C1131 C1133 1.433 . S
C1132 C1128 1.364 . S
C1132 C1129 1.463 . S
C1132 N1136 1.427 . S
C1133 H1123 0.929 . S
C1133 C1131 1.433 . S
C1133 N1136 1.384 1_455 S
C1134 H1125 0.929 . S
C1134 C1126 1.378 . S
C1134 C1129 1.350 . S
C1135 H1122 0.929 . S
C1135 C1127 1.433 1_565 S
C1135 N1137 1.384 . S
N1136 C1132 1.427 . S
N1136 C1133 1.384 1_655 S
N1137 C1129 1.427 1_565 S
N1137 C1135 1.384 . S
H1138 C1144 0.930 . S
H1139 C1148 0.930 . S
H1140 C1153 0.929 . S
H1141 C1151 0.929 . S
H1142 C1146 0.929 . S
H1143 C1152 0.929 . S
C1144 H1138 0.930 . S
C1144 C1145 1.367 . S
C1144 C1152 1.378 . S
C1145 C1144 1.367 . S
C1145 C1153 1.433 . S
C1146 H1142 0.929 . S
C1146 C1148 1.378 . S
C1146 C1150 1.350 . S
C1147 C1150 1.463 . S
C1147 C1152 1.350 . S
C1147 N1155 1.427 . S
C1148 H1139 0.930 . S
C1148 C1146 1.378 . S
C1148 C1149 1.367 . S
C1149 C1148 1.367 . S
C1149 C1151 1.433 . S
C1150 C1146 1.350 . S
C1150 C1147 1.463 . S
C1150 N1154 1.427 . S
C1151 H1141 0.929 . S
C1151 C1149 1.433 . S
C1151 N1154 1.384 . S
C1152 H1143 0.929 . S
C1152 C1144 1.378 . S
C1152 C1147 1.350 . S
C1153 H1140 0.929 . S
C1153 C1145 1.433 . S
C1153 N1155 1.384 . S
N1154 C1150 1.427 . S
N1154 C1151 1.384 . S
N1155 C1147 1.427 . S
N1155 C1153 1.384 . S
H1156 C1162 0.930 . S
H1157 C1166 0.930 1_565 S
H1158 C1171 0.929 . S
H1159 C1169 0.929 . S
H1160 C1164 0.888 1_565 S
H1161 C1170 0.929 . S
C1162 H1156 0.930 . S
C1162 C1163 1.344 1_545 S
C1162 C1170 1.378 . S
C1163 C1162 1.344 1_565 S
C1163 C1171 1.447 . S
C1164 H1160 0.888 1_545 S
C1164 C1166 1.397 . S
C1164 C1168 1.374 . S
C1165 C1168 1.463 . S
C1165 C1170 1.350 . S
C1165 N1173 1.427 1_545 S
C1166 H1157 0.930 1_545 S
C1166 C1164 1.397 . S
C1166 C1167 1.367 . S
C1167 C1166 1.367 . S
C1167 C1169 1.433 . S
C1168 C1164 1.374 . S
C1168 C1165 1.463 . S
C1168 N1172 1.427 . S
C1169 H1159 0.929 . S
C1169 C1167 1.433 . S
C1169 N1172 1.384 . S
C1170 H1161 0.929 . S
C1170 C1162 1.378 . S
C1170 C1165 1.350 . S
C1171 H1158 0.929 . S
C1171 C1163 1.447 . S
C1171 N1173 1.384 . S
N1172 C1168 1.427 . S
N1172 C1169 1.384 . S
N1173 C1165 1.427 1_565 S
N1173 C1171 1.384 . S
H1174 C1180 0.930 . S
H1175 C1184 0.930 . S
H1176 C1189 0.929 . S
H1177 C1187 0.929 . S
H1178 C1182 0.929 . S
H1179 C1188 0.929 . S
C1180 H1174 0.930 . S
C1180 C1181 1.367 . S
C1180 C1188 1.378 . S
C1181 C1180 1.367 . S
C1181 C1189 1.433 . S
C1182 H1178 0.929 . S
C1182 C1184 1.378 . S
C1182 C1186 1.350 . S
C1183 C1186 1.463 . S
C1183 C1188 1.350 . S
C1183 N1191 1.427 . S
C1184 H1175 0.930 . S
C1184 C1182 1.378 . S
C1184 C1185 1.367 . S
C1185 C1184 1.367 . S
C1185 C1187 1.433 . S
C1186 C1182 1.350 . S
C1186 C1183 1.463 . S
C1186 N1190 1.427 . S
C1187 H1177 0.929 . S
C1187 C1185 1.433 . S
C1187 N1190 1.384 . S
C1188 H1179 0.929 . S
C1188 C1180 1.378 . S
C1188 C1183 1.350 . S
C1189 H1176 0.929 . S
C1189 C1181 1.433 . S
C1189 N1191 1.384 . S
N1190 C1186 1.427 . S
N1190 C1187 1.384 . S
N1191 C1183 1.427 . S
N1191 C1189 1.384 . S
H1192 C1198 0.930 . S
H1193 C1202 0.930 . S
H1194 C1207 0.929 . S
H1195 C1205 0.929 1_465 S
H1196 C1200 0.929 . S
H1197 C1206 0.929 . S
C1198 H1192 0.930 . S
C1198 C1199 1.367 1_565 S
C1198 C1206 1.378 . S
C1199 C1198 1.367 1_545 S
C1199 C1207 1.433 . S
C1200 H1196 0.929 . S
C1200 C1202 1.378 . S
C1200 C1204 1.350 . S
C1201 C1204 1.463 . S
C1201 C1206 1.350 1_545 S
C1201 N1209 1.427 . S
C1202 H1193 0.930 . S
C1202 C1200 1.378 . S
C1202 C1203 1.367 . S
C1203 C1202 1.367 . S
C1203 C1205 1.433 . S
C1204 C1200 1.350 . S
C1204 C1201 1.463 . S
C1204 N1208 1.427 . S
C1205 H1195 0.929 1_645 S
C1205 C1203 1.433 . S
C1205 N1208 1.384 . S
C1206 H1197 0.929 . S
C1206 C1198 1.378 . S
C1206 C1201 1.350 1_565 S
C1207 H1194 0.929 . S
C1207 C1199 1.433 . S
C1207 N1209 1.384 . S
N1208 C1204 1.427 . S
N1208 C1205 1.384 . S
N1209 C1201 1.427 . S
N1209 C1207 1.384 . S
H1210 C1216 0.930 . S
H1211 C1220 0.930 . S
H1212 C1225 0.929 . S
H1213 C1223 0.929 . S
H1214 C1218 0.929 . S
H1215 C1224 0.929 . S
C1216 H1210 0.930 . S
C1216 C1217 1.367 . S
C1216 C1224 1.378 . S
C1217 C1216 1.367 . S
C1217 C1225 1.433 . S
C1218 H1214 0.929 . S
C1218 C1220 1.378 . S
C1218 C1222 1.350 . S
C1219 C1222 1.463 . S
C1219 C1224 1.350 . S
C1219 N1227 1.427 . S
C1220 H1211 0.930 . S
C1220 C1218 1.378 . S
C1220 C1221 1.367 . S
C1221 C1220 1.367 . S
C1221 C1223 1.433 . S
C1222 C1218 1.350 . S
C1222 C1219 1.463 . S
C1222 N1226 1.427 . S
C1223 H1213 0.929 . S
C1223 C1221 1.433 . S
C1223 N1226 1.384 . S
C1224 H1215 0.929 . S
C1224 C1216 1.378 . S
C1224 C1219 1.350 . S
C1225 H1212 0.929 . S
C1225 C1217 1.433 . S
C1225 N1227 1.384 . S
N1226 C1222 1.427 . S
N1226 C1223 1.384 . S
N1227 C1219 1.427 . S
N1227 C1225 1.384 . S
H1228 C1234 0.930 . S
H1229 C1238 0.930 . S
H1230 C1243 0.929 . S
H1231 C1241 0.929 . S
H1232 C1236 0.929 . S
H1233 C1242 0.929 . S
C1234 H1228 0.930 . S
C1234 C1235 1.367 . S
C1234 C1242 1.378 . S
C1235 C1234 1.367 . S
C1235 C1243 1.433 1_545 S
C1236 H1232 0.929 . S
C1236 C1238 1.378 . S
C1236 C1240 1.350 . S
C1237 C1240 1.463 . S
C1237 C1242 1.350 . S
C1237 N1245 1.427 . S
C1238 H1229 0.930 . S
C1238 C1236 1.378 . S
C1238 C1239 1.367 . S
C1239 C1238 1.367 . S
C1239 C1241 1.433 . S
C1240 C1236 1.350 . S
C1240 C1237 1.463 . S
C1240 N1244 1.427 . S
C1241 H1231 0.929 . S
C1241 C1239 1.433 . S
C1241 N1244 1.384 . S
C1242 H1233 0.929 . S
C1242 C1234 1.378 . S
C1242 C1237 1.350 . S
C1243 H1230 0.929 . S
C1243 C1235 1.433 1_565 S
C1243 N1245 1.384 1_565 S
N1244 C1240 1.427 . S
N1244 C1241 1.384 . S
N1245 C1237 1.427 . S
N1245 C1243 1.384 1_545 S
H1246 C1252 0.930 . S
H1247 C1256 0.930 . S
H1248 C1261 0.929 . S
H1249 C1259 0.929 . S
H1250 C1254 0.929 . S
H1251 C1260 0.929 . S
C1252 H1246 0.930 . S
C1252 C1253 1.367 . S
C1252 C1260 1.378 . S
C1253 C1252 1.367 . S
C1253 C1261 1.433 . S
C1254 H1250 0.929 . S
C1254 C1256 1.378 . S
C1254 C1258 1.350 . S
C1255 C1258 1.463 . S
C1255 C1260 1.350 . S
C1255 N1263 1.427 . S
C1256 H1247 0.930 . S
C1256 C1254 1.378 . S
C1256 C1257 1.367 . S
C1257 C1256 1.367 . S
C1257 C1259 1.433 . S
C1258 C1254 1.350 . S
C1258 C1255 1.463 . S
C1258 N1262 1.427 . S
C1259 H1249 0.929 . S
C1259 C1257 1.433 . S
C1259 N1262 1.384 . S
C1260 H1251 0.929 . S
C1260 C1252 1.378 . S
C1260 C1255 1.350 . S
C1261 H1248 0.929 . S
C1261 C1253 1.433 . S
C1261 N1263 1.384 . S
N1262 C1258 1.427 . S
N1262 C1259 1.384 . S
N1263 C1255 1.427 . S
N1263 C1261 1.384 . S
H1264 C1270 0.930 . S
H1265 C1274 0.930 . S
H1266 C1279 0.929 . S
H1267 C1277 0.929 1_545 S
H1268 C1272 0.929 . S
H1269 C1278 0.929 . S
C1270 H1264 0.930 . S
C1270 C1271 1.367 . S
C1270 C1278 1.378 . S
C1271 C1270 1.367 . S
C1271 C1279 1.433 . S
C1272 H1268 0.929 . S
C1272 C1274 1.378 . S
C1272 C1276 1.350 . S
C1273 C1276 1.463 . S
C1273 C1278 1.350 . S
C1273 N1281 1.427 . S
C1274 H1265 0.930 . S
C1274 C1272 1.378 . S
C1274 C1275 1.367 . S
C1275 C1274 1.367 . S
C1275 C1277 1.433 . S
C1276 C1272 1.350 . S
C1276 C1273 1.463 . S
C1276 N1280 1.427 . S
C1277 H1267 0.929 1_565 S
C1277 C1275 1.433 . S
C1277 N1280 1.384 . S
C1278 H1269 0.929 . S
C1278 C1270 1.378 . S
C1278 C1273 1.350 . S
C1279 H1266 0.929 . S
C1279 C1271 1.433 . S
C1279 N1281 1.384 . S
N1280 C1276 1.427 . S
N1280 C1277 1.384 . S
N1281 C1273 1.427 . S
N1281 C1279 1.384 . S
H1282 C1288 0.930 . S
H1283 C1292 0.930 . S
H1284 C1297 0.929 1_556 S
H1285 C1295 0.929 . S
H1286 C1290 0.951 . S
H1287 C1296 0.929 . S
C1288 H1282 0.930 . S
C1288 C1289 1.367 . S
C1288 C1296 1.378 . S
C1289 C1288 1.367 . S
C1289 C1297 1.433 . S
C1290 H1286 0.951 . S
C1290 C1292 1.378 . S
C1290 C1294 1.350 . S
C1291 C1294 1.463 . S
C1291 C1296 1.350 . S
C1291 N1299 1.427 . S
C1292 H1283 0.930 . S
C1292 C1290 1.378 . S
C1292 C1293 1.367 . S
C1293 C1292 1.367 . S
C1293 C1295 1.433 . S
C1294 C1290 1.350 . S
C1294 C1291 1.463 . S
C1294 N1298 1.427 . S
C1295 H1285 0.929 . S
C1295 C1293 1.433 . S
C1295 N1298 1.384 . S
C1296 H1287 0.929 . S
C1296 C1288 1.378 . S
C1296 C1291 1.350 . S
C1297 H1284 0.929 1_554 S
C1297 C1289 1.433 . S
C1297 N1299 1.384 . S
N1298 C1294 1.427 . S
N1298 C1295 1.384 . S
N1299 C1291 1.427 . S
N1299 C1297 1.384 . S
H1300 C1306 0.930 . S
H1301 C1310 0.930 . S
H1302 C1315 0.929 . S
H1303 C1313 0.929 . S
H1304 C1308 0.929 . S
H1305 C1314 0.929 . S
C1306 H1300 0.930 . S
C1306 C1307 1.367 . S
C1306 C1314 1.378 . S
C1307 C1306 1.367 . S
C1307 C1315 1.433 . S
C1308 H1304 0.929 . S
C1308 C1310 1.378 . S
C1308 C1312 1.350 . S
C1309 C1312 1.463 . S
C1309 C1314 1.350 . S
C1309 N1317 1.427 . S
C1310 H1301 0.930 . S
C1310 C1308 1.378 . S
C1310 C1311 1.367 . S
C1311 C1310 1.367 . S
C1311 C1313 1.433 . S
C1312 C1308 1.350 . S
C1312 C1309 1.463 . S
C1312 N1316 1.427 . S
C1313 H1303 0.929 . S
C1313 C1311 1.433 . S
C1313 N1316 1.384 . S
C1314 H1305 0.929 . S
C1314 C1306 1.378 . S
C1314 C1309 1.350 . S
C1315 H1302 0.929 . S
C1315 C1307 1.433 . S
C1315 N1317 1.384 . S
N1316 C1312 1.427 . S
N1316 C1313 1.384 . S
N1317 C1309 1.427 . S
N1317 C1315 1.384 . S
H1318 C1324 0.930 . S
H1319 C1328 0.930 . S
H1320 C1333 0.929 . S
H1321 C1331 0.929 . S
H1322 C1326 0.929 . S
H1323 C1332 0.929 . S
C1324 H1318 0.930 . S
C1324 C1325 1.367 . S
C1324 C1332 1.378 . S
C1325 C1324 1.367 . S
C1325 C1333 1.433 . S
C1326 H1322 0.929 . S
C1326 C1328 1.378 . S
C1326 C1330 1.350 . S
C1327 C1330 1.463 . S
C1327 C1332 1.350 . S
C1327 N1335 1.427 . S
C1328 H1319 0.930 . S
C1328 C1326 1.378 . S
C1328 C1329 1.367 . S
C1329 C1328 1.367 . S
C1329 C1331 1.433 . S
C1330 C1326 1.350 . S
C1330 C1327 1.463 . S
C1330 N1334 1.427 . S
C1331 H1321 0.929 . S
C1331 C1329 1.433 . S
C1331 N1334 1.384 . S
C1332 H1323 0.929 . S
C1332 C1324 1.378 . S
C1332 C1327 1.350 . S
C1333 H1320 0.929 . S
C1333 C1325 1.433 . S
C1333 N1335 1.384 . S
N1334 C1330 1.427 . S
N1334 C1331 1.384 . S
N1335 C1327 1.427 . S
N1335 C1333 1.384 . S
H1336 C1342 0.930 . S
H1337 C1346 0.930 . S
H1338 C1351 0.929 . S
H1339 C1349 0.929 . S
H1340 C1344 0.929 . S
H1341 C1350 0.929 . S
C1342 H1336 0.930 . S
C1342 C1343 1.367 . S
C1342 C1350 1.378 . S
C1343 C1342 1.367 . S
C1343 C1351 1.433 . S
C1344 H1340 0.929 . S
C1344 C1346 1.378 . S
C1344 C1348 1.350 . S
C1345 C1348 1.463 . S
C1345 C1350 1.350 . S
C1345 N1353 1.427 . S
C1346 H1337 0.930 . S
C1346 C1344 1.378 . S
C1346 C1347 1.367 . S
C1347 C1346 1.367 . S
C1347 C1349 1.433 . S
C1348 C1344 1.350 . S
C1348 C1345 1.463 . S
C1348 N1352 1.427 . S
C1349 H1339 0.929 . S
C1349 C1347 1.433 . S
C1349 N1352 1.384 . S
C1350 H1341 0.929 . S
C1350 C1342 1.378 . S
C1350 C1345 1.350 . S
C1351 H1338 0.929 . S
C1351 C1343 1.433 . S
C1351 N1353 1.384 . S
N1352 C1348 1.427 . S
N1352 C1349 1.384 . S
N1353 C1345 1.427 . S
N1353 C1351 1.384 . S
H1354 C1360 0.930 . S
H1355 C1364 0.930 . S
H1356 C1369 0.929 . S
H1357 C1367 0.929 . S
H1358 C1362 0.929 . S
H1359 C1368 0.929 . S
C1360 H1354 0.930 . S
C1360 C1361 1.367 . S
C1360 C1368 1.378 . S
C1361 C1360 1.367 . S
C1361 C1369 1.433 . S
C1362 H1358 0.929 . S
C1362 C1364 1.378 . S
C1362 C1366 1.350 . S
C1363 C1366 1.463 . S
C1363 C1368 1.350 . S
C1363 N1371 1.427 . S
C1364 H1355 0.930 . S
C1364 C1362 1.378 . S
C1364 C1365 1.367 . S
C1365 C1364 1.367 . S
C1365 C1367 1.433 . S
C1366 C1362 1.350 . S
C1366 C1363 1.463 . S
C1366 N1370 1.427 . S
C1367 H1357 0.929 . S
C1367 C1365 1.433 . S
C1367 N1370 1.384 . S
C1368 H1359 0.929 . S
C1368 C1360 1.378 . S
C1368 C1363 1.350 . S
C1369 H1356 0.929 . S
C1369 C1361 1.433 . S
C1369 N1371 1.384 . S
N1370 C1366 1.427 . S
N1370 C1367 1.384 . S
N1371 C1363 1.427 . S
N1371 C1369 1.384 . S
H1372 C1378 0.930 . S
H1373 C1382 0.930 . S
H1374 C1387 0.929 . S
H1375 C1385 0.929 . S
H1376 C1380 0.929 . S
H1377 C1386 0.929 . S
C1378 H1372 0.930 . S
C1378 C1379 1.367 . S
C1378 C1386 1.378 . S
C1379 C1378 1.367 . S
C1379 C1387 1.433 . S
C1380 H1376 0.929 . S
C1380 C1382 1.378 . S
C1380 C1384 1.350 . S
C1381 C1384 1.463 . S
C1381 C1386 1.350 . S
C1381 N1389 1.427 . S
C1382 H1373 0.930 . S
C1382 C1380 1.378 . S
C1382 C1383 1.367 . S
C1383 C1382 1.367 . S
C1383 C1385 1.433 . S
C1384 C1380 1.350 . S
C1384 C1381 1.463 . S
C1384 N1388 1.427 . S
C1385 H1375 0.929 . S
C1385 C1383 1.433 . S
C1385 N1388 1.384 . S
C1386 H1377 0.929 . S
C1386 C1378 1.378 . S
C1386 C1381 1.350 . S
C1387 H1374 0.929 . S
C1387 C1379 1.433 . S
C1387 N1389 1.384 . S
N1388 C1384 1.427 . S
N1388 C1385 1.384 . S
N1389 C1381 1.427 . S
N1389 C1387 1.384 . S
H1390 C1396 0.930 . S
H1391 C1400 0.930 . S
H1392 C1405 0.929 . S
H1393 C1403 0.929 . S
H1394 C1398 0.929 . S
H1395 C1404 0.929 . S
C1396 H1390 0.930 . S
C1396 C1397 1.367 . S
C1396 C1404 1.378 . S
C1397 C1396 1.367 . S
C1397 C1405 1.433 . S
C1398 H1394 0.929 . S
C1398 C1400 1.378 . S
C1398 C1402 1.350 . S
C1399 C1402 1.463 . S
C1399 C1404 1.350 . S
C1399 N1407 1.427 . S
C1400 H1391 0.930 . S
C1400 C1398 1.378 . S
C1400 C1401 1.367 . S
C1401 C1400 1.367 . S
C1401 C1403 1.433 . S
C1402 C1398 1.350 . S
C1402 C1399 1.463 . S
C1402 N1406 1.427 . S
C1403 H1393 0.929 . S
C1403 C1401 1.433 . S
C1403 N1406 1.384 . S
C1404 H1395 0.929 . S
C1404 C1396 1.378 . S
C1404 C1399 1.350 . S
C1405 H1392 0.929 . S
C1405 C1397 1.433 . S
C1405 N1407 1.384 . S
N1406 C1402 1.427 . S
N1406 C1403 1.384 . S
N1407 C1399 1.427 . S
N1407 C1405 1.384 . S
H1408 C1414 0.930 . S
H1409 C1418 0.930 . S
H1410 C1423 0.929 . S
H1411 C1421 0.929 . S
H1412 C1416 0.929 . S
H1413 C1422 0.929 . S
C1414 H1408 0.930 . S
C1414 C1415 1.367 . S
C1414 C1422 1.378 . S
C1415 C1414 1.367 . S
C1415 C1423 1.433 . S
C1416 H1412 0.929 . S
C1416 C1418 1.378 . S
C1416 C1420 1.350 . S
C1417 C1420 1.463 . S
C1417 C1422 1.350 . S
C1417 N1425 1.427 . S
C1418 H1409 0.930 . S
C1418 C1416 1.378 . S
C1418 C1419 1.367 . S
C1419 C1418 1.367 . S
C1419 C1421 1.433 . S
C1420 C1416 1.350 . S
C1420 C1417 1.463 . S
C1420 N1424 1.427 . S
C1421 H1411 0.929 . S
C1421 C1419 1.433 . S
C1421 N1424 1.384 . S
C1422 H1413 0.929 . S
C1422 C1414 1.378 . S
C1422 C1417 1.350 . S
C1423 H1410 0.929 . S
C1423 C1415 1.433 . S
C1423 N1425 1.384 . S
N1424 C1420 1.427 . S
N1424 C1421 1.384 . S
N1425 C1417 1.427 . S
N1425 C1423 1.384 . S
H1426 C1432 0.930 . S
H1427 C1436 0.930 . S
H1428 C1441 0.929 . S
H1429 C1439 0.929 . S
H1430 C1434 0.929 . S
H1431 C1440 0.929 . S
C1432 H1426 0.930 . S
C1432 C1433 1.367 . S
C1432 C1440 1.378 . S
C1433 C1432 1.367 . S
C1433 C1441 1.433 . S
C1434 H1430 0.929 . S
C1434 C1436 1.378 . S
C1434 C1438 1.350 . S
C1435 C1438 1.463 . S
C1435 C1440 1.350 . S
C1435 N1443 1.427 . S
C1436 H1427 0.930 . S
C1436 C1434 1.378 . S
C1436 C1437 1.367 . S
C1437 C1436 1.367 . S
C1437 C1439 1.433 . S
C1438 C1434 1.350 . S
C1438 C1435 1.463 . S
C1438 N1442 1.427 . S
C1439 H1429 0.929 . S
C1439 C1437 1.433 . S
C1439 N1442 1.384 . S
C1440 H1431 0.929 . S
C1440 C1432 1.378 . S
C1440 C1435 1.350 . S
C1441 H1428 0.929 . S
C1441 C1433 1.433 . S
C1441 N1443 1.384 . S
N1442 C1438 1.427 . S
N1442 C1439 1.384 . S
N1443 C1435 1.427 . S
N1443 C1441 1.384 . S
H1444 C1450 0.930 . S
H1445 C1454 0.930 . S
H1446 C1459 0.929 . S
H1447 C1457 0.929 . S
H1448 C1452 0.929 . S
H1449 C1458 0.929 . S
C1450 H1444 0.930 . S
C1450 C1451 1.367 . S
C1450 C1458 1.378 . S
C1451 C1450 1.367 . S
C1451 C1459 1.433 . S
C1452 H1448 0.929 . S
C1452 C1454 1.378 . S
C1452 C1456 1.350 . S
C1453 C1456 1.463 . S
C1453 C1458 1.350 . S
C1453 N1461 1.427 . S
C1454 H1445 0.930 . S
C1454 C1452 1.378 . S
C1454 C1455 1.367 . S
C1455 C1454 1.367 . S
C1455 C1457 1.433 . S
C1456 C1452 1.350 . S
C1456 C1453 1.463 . S
C1456 N1460 1.427 . S
C1457 H1447 0.929 . S
C1457 C1455 1.433 . S
C1457 N1460 1.384 . S
C1458 H1449 0.929 . S
C1458 C1450 1.378 . S
C1458 C1453 1.350 . S
C1459 H1446 0.929 . S
C1459 C1451 1.433 . S
C1459 N1461 1.384 . S
N1460 C1456 1.427 . S
N1460 C1457 1.384 . S
N1461 C1453 1.427 . S
N1461 C1459 1.384 . S
H1462 C1468 0.930 . S
H1463 C1472 0.930 . S
H1464 C1477 0.929 . S
H1465 C1475 0.929 . S
H1466 C1470 0.929 . S
H1467 C1476 0.929 . S
C1468 H1462 0.930 . S
C1468 C1469 1.367 . S
C1468 C1476 1.378 . S
C1469 C1468 1.367 . S
C1469 C1477 1.433 . S
C1470 H1466 0.929 . S
C1470 C1472 1.378 . S
C1470 C1474 1.350 . S
C1471 C1474 1.463 . S
C1471 C1476 1.350 . S
C1471 N1479 1.427 . S
C1472 H1463 0.930 . S
C1472 C1470 1.378 . S
C1472 C1473 1.367 . S
C1473 C1472 1.367 . S
C1473 C1475 1.433 . S
C1474 C1470 1.350 . S
C1474 C1471 1.463 . S
C1474 N1478 1.427 . S
C1475 H1465 0.929 . S
C1475 C1473 1.433 . S
C1475 N1478 1.384 . S
C1476 H1467 0.929 . S
C1476 C1468 1.378 . S
C1476 C1471 1.350 . S
C1477 H1464 0.929 . S
C1477 C1469 1.433 . S
C1477 N1479 1.384 . S
N1478 C1474 1.427 . S
N1478 C1475 1.384 . S
N1479 C1471 1.427 . S
N1479 C1477 1.384 . S
H1480 C1486 0.930 . S
H1481 C1490 0.930 . S
H1482 C1495 0.929 . S
H1483 C1493 0.929 . S
H1484 C1488 0.929 . S
H1485 C1494 0.929 . S
C1486 H1480 0.930 . S
C1486 C1487 1.367 . S
C1486 C1494 1.378 . S
C1487 C1486 1.367 . S
C1487 C1495 1.433 . S
C1488 H1484 0.929 . S
C1488 C1490 1.378 . S
C1488 C1492 1.350 . S
C1489 C1492 1.463 . S
C1489 C1494 1.350 . S
C1489 N1497 1.427 . S
C1490 H1481 0.930 . S
C1490 C1488 1.378 . S
C1490 C1491 1.367 . S
C1491 C1490 1.367 . S
C1491 C1493 1.433 . S
C1492 C1488 1.350 . S
C1492 C1489 1.463 . S
C1492 N1496 1.427 . S
C1493 H1483 0.929 . S
C1493 C1491 1.433 . S
C1493 N1496 1.384 . S
C1494 H1485 0.929 . S
C1494 C1486 1.378 . S
C1494 C1489 1.350 . S
C1495 H1482 0.929 . S
C1495 C1487 1.433 . S
C1495 N1497 1.384 . S
N1496 C1492 1.427 . S
N1496 C1493 1.384 . S
N1497 C1489 1.427 . S
N1497 C1495 1.384 . S
H1498 C1504 0.930 . S
H1499 C1508 0.930 . S
H1500 C1513 0.929 . S
H1501 C1511 0.929 . S
H1502 C1506 0.929 . S
H1503 C1512 0.929 . S
C1504 H1498 0.930 . S
C1504 C1505 1.367 . S
C1504 C1512 1.378 . S
C1505 C1504 1.367 . S
C1505 C1513 1.433 . S
C1506 H1502 0.929 . S
C1506 C1508 1.378 . S
C1506 C1510 1.350 . S
C1507 C1510 1.463 . S
C1507 C1512 1.350 . S
C1507 N1515 1.427 . S
C1508 H1499 0.930 . S
C1508 C1506 1.378 . S
C1508 C1509 1.367 . S
C1509 C1508 1.367 . S
C1509 C1511 1.433 . S
C1510 C1506 1.350 . S
C1510 C1507 1.463 . S
C1510 N1514 1.427 . S
C1511 H1501 0.929 . S
C1511 C1509 1.433 . S
C1511 N1514 1.384 . S
C1512 H1503 0.929 . S
C1512 C1504 1.378 . S
C1512 C1507 1.350 . S
C1513 H1500 0.929 . S
C1513 C1505 1.433 . S
C1513 N1515 1.384 . S
N1514 C1510 1.427 . S
N1514 C1511 1.384 . S
N1515 C1507 1.427 . S
N1515 C1513 1.384 . S
H1516 C1522 0.930 . S
H1517 C1526 0.930 . S
H1518 C1531 0.929 . S
H1519 C1529 0.929 . S
H1520 C1524 0.937 . S
H1521 C1530 0.929 . S
C1522 H1516 0.930 . S
C1522 C1523 1.367 . S
C1522 C1530 1.378 . S
C1523 C1522 1.367 . S
C1523 C1531 1.433 . S
C1524 H1520 0.937 . S
C1524 C1526 1.378 1_556 S
C1524 C1528 1.350 . S
C1525 C1528 1.463 . S
C1525 C1530 1.350 . S
C1525 N1533 1.427 . S
C1526 H1517 0.930 . S
C1526 C1524 1.378 1_554 S
C1526 C1527 1.367 1_554 S
C1527 C1526 1.367 1_556 S
C1527 C1529 1.433 . S
C1528 C1524 1.350 . S
C1528 C1525 1.463 . S
C1528 N1532 1.427 . S
C1529 H1519 0.929 . S
C1529 C1527 1.433 . S
C1529 N1532 1.384 . S
C1530 H1521 0.929 . S
C1530 C1522 1.378 . S
C1530 C1525 1.350 . S
C1531 H1518 0.929 . S
C1531 C1523 1.433 . S
C1531 N1533 1.384 . S
N1532 C1528 1.427 . S
N1532 C1529 1.384 . S
N1533 C1525 1.427 . S
N1533 C1531 1.384 . S
H1534 C1540 0.930 . S
H1535 C1544 0.930 . S
H1536 C1549 0.929 . S
H1537 C1547 0.929 . S
H1538 C1542 0.929 . S
H1539 C1548 0.929 . S
C1540 H1534 0.930 . S
C1540 C1541 1.367 . S
C1540 C1548 1.378 . S
C1541 C1540 1.367 . S
C1541 C1549 1.433 . S
C1542 H1538 0.929 . S
C1542 C1544 1.378 . S
C1542 C1546 1.350 . S
C1543 C1546 1.463 . S
C1543 C1548 1.350 . S
C1543 N1551 1.427 . S
C1544 H1535 0.930 . S
C1544 C1542 1.378 . S
C1544 C1545 1.367 . S
C1545 C1544 1.367 . S
C1545 C1547 1.433 . S
C1546 C1542 1.350 . S
C1546 C1543 1.463 . S
C1546 N1550 1.427 . S
C1547 H1537 0.929 . S
C1547 C1545 1.433 . S
C1547 N1550 1.384 . S
C1548 H1539 0.929 . S
C1548 C1540 1.378 . S
C1548 C1543 1.350 . S
C1549 H1536 0.929 . S
C1549 C1541 1.433 . S
C1549 N1551 1.384 . S
N1550 C1546 1.427 . S
N1550 C1547 1.384 . S
N1551 C1543 1.427 . S
N1551 C1549 1.384 . S
H1552 C1558 0.930 . S
H1553 C1562 0.930 . S
H1554 C1567 0.929 . S
H1555 C1565 0.929 . S
H1556 C1560 0.929 . S
H1557 C1566 0.929 . S
C1558 H1552 0.930 . S
C1558 C1559 1.367 . S
C1558 C1566 1.378 . S
C1559 C1558 1.367 . S
C1559 C1567 1.433 . S
C1560 H1556 0.929 . S
C1560 C1562 1.378 . S
C1560 C1564 1.350 . S
C1561 C1564 1.463 . S
C1561 C1566 1.350 . S
C1561 N1569 1.427 . S
C1562 H1553 0.930 . S
C1562 C1560 1.378 . S
C1562 C1563 1.367 . S
C1563 C1562 1.367 . S
C1563 C1565 1.433 . S
C1564 C1560 1.350 . S
C1564 C1561 1.463 . S
C1564 N1568 1.427 . S
C1565 H1555 0.929 . S
C1565 C1563 1.433 . S
C1565 N1568 1.384 . S
C1566 H1557 0.929 . S
C1566 C1558 1.378 . S
C1566 C1561 1.350 . S
C1567 H1554 0.929 . S
C1567 C1559 1.433 . S
C1567 N1569 1.384 . S
N1568 C1564 1.427 . S
N1568 C1565 1.384 . S
N1569 C1561 1.427 . S
N1569 C1567 1.384 . S
H1570 C1576 0.930 . S
H1571 C1580 0.930 . S
H1572 C1585 0.929 . S
H1573 C1583 0.929 . S
H1574 C1578 0.929 . S
H1575 C1584 0.929 . S
C1576 H1570 0.930 . S
C1576 C1577 1.367 . S
C1576 C1584 1.378 . S
C1577 C1576 1.367 . S
C1577 C1585 1.433 . S
C1578 H1574 0.929 . S
C1578 C1580 1.378 . S
C1578 C1582 1.350 . S
C1579 C1582 1.463 . S
C1579 C1584 1.350 . S
C1579 N1587 1.427 . S
C1580 H1571 0.930 . S
C1580 C1578 1.378 . S
C1580 C1581 1.367 . S
C1581 C1580 1.367 . S
C1581 C1583 1.433 . S
C1582 C1578 1.350 . S
C1582 C1579 1.463 . S
C1582 N1586 1.427 . S
C1583 H1573 0.929 . S
C1583 C1581 1.433 . S
C1583 N1586 1.384 . S
C1584 H1575 0.929 . S
C1584 C1576 1.378 . S
C1584 C1579 1.350 . S
C1585 H1572 0.929 . S
C1585 C1577 1.433 . S
C1585 N1587 1.384 . S
N1586 C1582 1.427 . S
N1586 C1583 1.384 . S
N1587 C1579 1.427 . S
N1587 C1585 1.384 . S
H1588 C1594 0.930 . S
H1589 C1598 0.930 . S
H1590 C1603 0.929 . S
H1591 C1601 0.929 . S
H1592 C1596 0.929 . S
H1593 C1602 0.929 . S
C1594 H1588 0.930 . S
C1594 C1595 1.367 . S
C1594 C1602 1.378 . S
C1595 C1594 1.367 . S
C1595 C1603 1.433 . S
C1596 H1592 0.929 . S
C1596 C1598 1.378 . S
C1596 C1600 1.350 . S
C1597 C1600 1.463 . S
C1597 C1602 1.350 . S
C1597 N1605 1.427 . S
C1598 H1589 0.930 . S
C1598 C1596 1.378 . S
C1598 C1599 1.367 . S
C1599 C1598 1.367 . S
C1599 C1601 1.433 . S
C1600 C1596 1.350 . S
C1600 C1597 1.463 . S
C1600 N1604 1.427 . S
C1601 H1591 0.929 . S
C1601 C1599 1.433 . S
C1601 N1604 1.384 . S
C1602 H1593 0.929 . S
C1602 C1594 1.378 . S
C1602 C1597 1.350 . S
C1603 H1590 0.929 . S
C1603 C1595 1.433 . S
C1603 N1605 1.384 . S
N1604 C1600 1.427 . S
N1604 C1601 1.384 . S
N1605 C1597 1.427 . S
N1605 C1603 1.384 . S
H1606 C1612 0.930 . S
H1607 C1616 0.930 . S
H1608 C1621 0.929 . S
H1609 C1619 0.929 . S
H1610 C1614 0.929 . S
H1611 C1620 0.929 . S
C1612 H1606 0.930 . S
C1612 C1613 1.367 . S
C1612 C1620 1.378 . S
C1613 C1612 1.367 . S
C1613 C1621 1.433 . S
C1614 H1610 0.929 . S
C1614 C1616 1.378 . S
C1614 C1618 1.350 . S
C1615 C1618 1.463 . S
C1615 C1620 1.350 . S
C1615 N1623 1.427 . S
C1616 H1607 0.930 . S
C1616 C1614 1.378 . S
C1616 C1617 1.367 . S
C1617 C1616 1.367 . S
C1617 C1619 1.433 . S
C1618 C1614 1.350 . S
C1618 C1615 1.463 . S
C1618 N1622 1.427 . S
C1619 H1609 0.929 . S
C1619 C1617 1.433 . S
C1619 N1622 1.384 . S
C1620 H1611 0.929 . S
C1620 C1612 1.378 . S
C1620 C1615 1.350 . S
C1621 H1608 0.929 . S
C1621 C1613 1.433 . S
C1621 N1623 1.384 . S
N1622 C1618 1.427 . S
N1622 C1619 1.384 . S
N1623 C1615 1.427 . S
N1623 C1621 1.384 . S
H1624 C1630 0.930 . S
H1625 C1634 0.930 . S
H1626 C1639 0.929 . S
H1627 C1637 0.929 . S
H1628 C1632 0.929 . S
H1629 C1638 0.929 . S
C1630 H1624 0.930 . S
C1630 C1631 1.367 . S
C1630 C1638 1.378 . S
C1631 C1630 1.367 . S
C1631 C1639 1.433 . S
C1632 H1628 0.929 . S
C1632 C1634 1.378 . S
C1632 C1636 1.350 . S
C1633 C1636 1.463 . S
C1633 C1638 1.350 . S
C1633 N1641 1.427 . S
C1634 H1625 0.930 . S
C1634 C1632 1.378 . S
C1634 C1635 1.367 . S
C1635 C1634 1.367 . S
C1635 C1637 1.433 . S
C1636 C1632 1.350 . S
C1636 C1633 1.463 . S
C1636 N1640 1.427 . S
C1637 H1627 0.929 . S
C1637 C1635 1.433 . S
C1637 N1640 1.384 . S
C1638 H1629 0.929 . S
C1638 C1630 1.378 . S
C1638 C1633 1.350 . S
C1639 H1626 0.929 . S
C1639 C1631 1.433 . S
C1639 N1641 1.384 . S
N1640 C1636 1.427 . S
N1640 C1637 1.384 . S
N1641 C1633 1.427 . S
N1641 C1639 1.384 . S
H1642 C1648 0.930 . S
H1643 C1652 0.930 . S
H1644 C1657 0.929 . S
H1645 C1655 0.929 . S
H1646 C1650 0.929 . S
H1647 C1656 0.929 . S
C1648 H1642 0.930 . S
C1648 C1649 1.367 . S
C1648 C1656 1.378 . S
C1649 C1648 1.367 . S
C1649 C1657 1.433 . S
C1650 H1646 0.929 . S
C1650 C1652 1.378 . S
C1650 C1654 1.350 . S
C1651 C1654 1.463 . S
C1651 C1656 1.350 . S
C1651 N1659 1.427 . S
C1652 H1643 0.930 . S
C1652 C1650 1.378 . S
C1652 C1653 1.367 . S
C1653 C1652 1.367 . S
C1653 C1655 1.433 . S
C1654 C1650 1.350 . S
C1654 C1651 1.463 . S
C1654 N1658 1.427 . S
C1655 H1645 0.929 . S
C1655 C1653 1.433 . S
C1655 N1658 1.384 . S
C1656 H1647 0.929 . S
C1656 C1648 1.378 . S
C1656 C1651 1.350 . S
C1657 H1644 0.929 . S
C1657 C1649 1.433 . S
C1657 N1659 1.384 . S
N1658 C1654 1.427 . S
N1658 C1655 1.384 . S
N1659 C1651 1.427 . S
N1659 C1657 1.384 . S
H1660 C1666 0.930 . S
H1661 C1670 0.930 . S
H1662 C1675 0.929 . S
H1663 C1673 0.929 . S
H1664 C1668 0.929 . S
H1665 C1674 0.929 . S
C1666 H1660 0.930 . S
C1666 C1667 1.367 . S
C1666 C1674 1.378 . S
C1667 C1666 1.367 . S
C1667 C1675 1.433 . S
C1668 H1664 0.929 . S
C1668 C1670 1.378 . S
C1668 C1672 1.350 . S
C1669 C1672 1.463 . S
C1669 C1674 1.350 . S
C1669 N1677 1.427 . S
C1670 H1661 0.930 . S
C1670 C1668 1.378 . S
C1670 C1671 1.367 . S
C1671 C1670 1.367 . S
C1671 C1673 1.433 . S
C1672 C1668 1.350 . S
C1672 C1669 1.463 . S
C1672 N1676 1.427 . S
C1673 H1663 0.929 . S
C1673 C1671 1.433 . S
C1673 N1676 1.384 . S
C1674 H1665 0.929 . S
C1674 C1666 1.378 . S
C1674 C1669 1.350 . S
C1675 H1662 0.929 . S
C1675 C1667 1.433 . S
C1675 N1677 1.384 . S
N1676 C1672 1.427 . S
N1676 C1673 1.384 . S
N1677 C1669 1.427 . S
N1677 C1675 1.384 . S
H1678 C1684 0.930 . S
H1679 C1688 0.930 . S
H1680 C1693 0.929 . S
H1681 C1691 0.929 . S
H1682 C1686 0.929 . S
H1683 C1692 0.929 . S
C1684 H1678 0.930 . S
C1684 C1685 1.367 . S
C1684 C1692 1.378 . S
C1685 C1684 1.367 . S
C1685 C1693 1.433 . S
C1686 H1682 0.929 . S
C1686 C1688 1.378 . S
C1686 C1690 1.350 . S
C1687 C1690 1.463 . S
C1687 C1692 1.350 . S
C1687 N1695 1.427 . S
C1688 H1679 0.930 . S
C1688 C1686 1.378 . S
C1688 C1689 1.367 . S
C1689 C1688 1.367 . S
C1689 C1691 1.433 . S
C1690 C1686 1.350 . S
C1690 C1687 1.463 . S
C1690 N1694 1.427 . S
C1691 H1681 0.929 . S
C1691 C1689 1.433 . S
C1691 N1694 1.384 . S
C1692 H1683 0.929 . S
C1692 C1684 1.378 . S
C1692 C1687 1.350 . S
C1693 H1680 0.929 . S
C1693 C1685 1.433 . S
C1693 N1695 1.384 . S
N1694 C1690 1.427 . S
N1694 C1691 1.384 . S
N1695 C1687 1.427 . S
N1695 C1693 1.384 . S
H1696 C1702 0.930 . S
H1697 C1706 0.930 . S
H1698 C1711 0.929 . S
H1699 C1709 0.929 . S
H1700 C1704 0.929 . S
H1701 C1710 0.929 . S
C1702 H1696 0.930 . S
C1702 C1703 1.366 1_554 S
C1702 C1710 1.378 . S
C1703 C1702 1.366 1_556 S
C1703 C1711 1.434 . S
C1704 H1700 0.929 . S
C1704 C1706 1.378 . S
C1704 C1708 1.350 . S
C1705 C1708 1.463 . S
C1705 C1710 1.350 1_556 S
C1705 N1713 1.427 . S
C1706 H1697 0.930 . S
C1706 C1704 1.378 . S
C1706 C1707 1.367 . S
C1707 C1706 1.367 . S
C1707 C1709 1.433 . S
C1708 C1704 1.350 . S
C1708 C1705 1.463 . S
C1708 N1712 1.427 . S
C1709 H1699 0.929 . S
C1709 C1707 1.433 . S
C1709 N1712 1.384 . S
C1710 H1701 0.929 . S
C1710 C1702 1.378 . S
C1710 C1705 1.350 1_554 S
C1711 H1698 0.929 . S
C1711 C1703 1.434 . S
C1711 N1713 1.384 . S
N1712 C1708 1.427 . S
N1712 C1709 1.384 . S
N1713 C1705 1.427 . S
N1713 C1711 1.384 . S
H1714 C1720 0.930 . S
H1715 C1724 0.930 . S
H1716 C1729 0.929 . S
H1717 C1727 0.929 . S
H1718 C1722 0.929 . S
H1719 C1728 0.929 . S
C1720 H1714 0.930 . S
C1720 C1721 1.367 . S
C1720 C1728 1.378 . S
C1721 C1720 1.367 . S
C1721 C1729 1.433 . S
C1722 H1718 0.929 . S
C1722 C1724 1.378 . S
C1722 C1726 1.350 . S
C1723 C1726 1.463 . S
C1723 C1728 1.350 . S
C1723 N1731 1.427 . S
C1724 H1715 0.930 . S
C1724 C1722 1.378 . S
C1724 C1725 1.367 . S
C1725 C1724 1.367 . S
C1725 C1727 1.433 . S
C1726 C1722 1.350 . S
C1726 C1723 1.463 . S
C1726 N1730 1.427 . S
C1727 H1717 0.929 . S
C1727 C1725 1.433 . S
C1727 N1730 1.384 . S
C1728 H1719 0.929 . S
C1728 C1720 1.378 . S
C1728 C1723 1.350 . S
C1729 H1716 0.929 . S
C1729 C1721 1.433 . S
C1729 N1731 1.384 . S
N1730 C1726 1.427 . S
N1730 C1727 1.384 . S
N1731 C1723 1.427 . S
N1731 C1729 1.384 . S
H1732 C1738 0.930 . S
H1733 C1742 0.930 . S
H1734 C1747 0.929 . S
H1735 C1745 0.929 . S
H1736 C1740 0.929 . S
H1737 C1746 0.929 . S
C1738 H1732 0.930 . S
C1738 C1739 1.367 . S
C1738 C1746 1.378 . S
C1739 C1738 1.367 . S
C1739 C1747 1.433 . S
C1740 H1736 0.929 . S
C1740 C1742 1.378 . S
C1740 C1744 1.350 . S
C1741 C1744 1.463 . S
C1741 C1746 1.350 . S
C1741 N1749 1.427 . S
C1742 H1733 0.930 . S
C1742 C1740 1.378 . S
C1742 C1743 1.367 . S
C1743 C1742 1.367 . S
C1743 C1745 1.433 . S
C1744 C1740 1.350 . S
C1744 C1741 1.463 . S
C1744 N1748 1.427 . S
C1745 H1735 0.929 . S
C1745 C1743 1.433 . S
C1745 N1748 1.384 . S
C1746 H1737 0.929 . S
C1746 C1738 1.378 . S
C1746 C1741 1.350 . S
C1747 H1734 0.929 . S
C1747 C1739 1.433 . S
C1747 N1749 1.384 . S
N1748 C1744 1.427 . S
N1748 C1745 1.384 . S
N1749 C1741 1.427 . S
N1749 C1747 1.384 . S
H1750 C1756 0.930 . S
H1751 C1760 0.930 . S
H1752 C1765 0.929 . S
H1753 C1763 0.929 . S
H1754 C1758 0.929 . S
H1755 C1764 0.929 . S
C1756 H1750 0.930 . S
C1756 C1757 1.367 . S
C1756 C1764 1.378 . S
C1757 C1756 1.367 . S
C1757 C1765 1.433 . S
C1758 H1754 0.929 . S
C1758 C1760 1.378 . S
C1758 C1762 1.350 . S
C1759 C1762 1.463 . S
C1759 C1764 1.350 . S
C1759 N1767 1.427 . S
C1760 H1751 0.930 . S
C1760 C1758 1.378 . S
C1760 C1761 1.367 . S
C1761 C1760 1.367 . S
C1761 C1763 1.433 . S
C1762 C1758 1.350 . S
C1762 C1759 1.463 . S
C1762 N1766 1.427 . S
C1763 H1753 0.929 . S
C1763 C1761 1.433 . S
C1763 N1766 1.384 . S
C1764 H1755 0.929 . S
C1764 C1756 1.378 . S
C1764 C1759 1.350 . S
C1765 H1752 0.929 . S
C1765 C1757 1.433 . S
C1765 N1767 1.384 . S
N1766 C1762 1.427 . S
N1766 C1763 1.384 . S
N1767 C1759 1.427 . S
N1767 C1765 1.384 . S
H1768 C1774 0.930 . S
H1769 C1778 0.930 . S
H1770 C1783 0.929 . S
H1771 C1781 0.929 . S
H1772 C1776 0.929 . S
H1773 C1782 0.929 . S
C1774 H1768 0.930 . S
C1774 C1775 1.367 . S
C1774 C1782 1.378 . S
C1775 C1774 1.367 . S
C1775 C1783 1.433 . S
C1776 H1772 0.929 . S
C1776 C1778 1.378 . S
C1776 C1780 1.350 . S
C1777 C1780 1.463 . S
C1777 C1782 1.350 . S
C1777 N1785 1.427 . S
C1778 H1769 0.930 . S
C1778 C1776 1.378 . S
C1778 C1779 1.367 . S
C1779 C1778 1.367 . S
C1779 C1781 1.433 . S
C1780 C1776 1.350 . S
C1780 C1777 1.463 . S
C1780 N1784 1.427 . S
C1781 H1771 0.929 . S
C1781 C1779 1.433 . S
C1781 N1784 1.384 . S
C1782 H1773 0.929 . S
C1782 C1774 1.378 . S
C1782 C1777 1.350 . S
C1783 H1770 0.929 . S
C1783 C1775 1.433 . S
C1783 N1785 1.384 . S
N1784 C1780 1.427 . S
N1784 C1781 1.384 . S
N1785 C1777 1.427 . S
N1785 C1783 1.384 . S
H1786 C1792 0.930 . S
H1787 C1796 0.934 1_545 S
H1788 C1801 0.929 . S
H1789 C1799 0.929 . S
H1790 C1794 0.929 . S
H1791 C1800 0.929 . S
C1792 H1786 0.930 . S
C1792 C1793 1.367 . S
C1792 C1800 1.378 . S
C1793 C1792 1.367 . S
C1793 C1801 1.433 . S
C1794 H1790 0.929 . S
C1794 C1796 1.375 . S
C1794 C1798 1.350 . S
C1795 C1798 1.463 . S
C1795 C1800 1.350 . S
C1795 N1803 1.427 . S
C1796 H1787 0.934 1_565 S
C1796 C1794 1.375 . S
C1796 C1797 1.366 . S
C1797 C1796 1.366 . S
C1797 C1799 1.433 . S
C1798 C1794 1.350 . S
C1798 C1795 1.463 . S
C1798 N1802 1.427 . S
C1799 H1789 0.929 . S
C1799 C1797 1.433 . S
C1799 N1802 1.384 . S
C1800 H1791 0.929 . S
C1800 C1792 1.378 . S
C1800 C1795 1.350 . S
C1801 H1788 0.929 . S
C1801 C1793 1.433 . S
C1801 N1803 1.384 . S
N1802 C1798 1.427 . S
N1802 C1799 1.384 . S
N1803 C1795 1.427 . S
N1803 C1801 1.384 . S
H1804 C1810 0.930 . S
H1805 C1814 0.930 . S
H1806 C1819 0.929 . S
H1807 C1817 0.929 . S
H1808 C1812 0.929 . S
H1809 C1818 0.929 . S
C1810 H1804 0.930 . S
C1810 C1811 1.367 . S
C1810 C1818 1.378 . S
C1811 C1810 1.367 . S
C1811 C1819 1.433 . S
C1812 H1808 0.929 . S
C1812 C1814 1.378 . S
C1812 C1816 1.350 . S
C1813 C1816 1.463 . S
C1813 C1818 1.350 . S
C1813 N1821 1.427 . S
C1814 H1805 0.930 . S
C1814 C1812 1.378 . S
C1814 C1815 1.367 . S
C1815 C1814 1.367 . S
C1815 C1817 1.433 . S
C1816 C1812 1.350 . S
C1816 C1813 1.463 . S
C1816 N1820 1.427 . S
C1817 H1807 0.929 . S
C1817 C1815 1.433 . S
C1817 N1820 1.384 . S
C1818 H1809 0.929 . S
C1818 C1810 1.378 . S
C1818 C1813 1.350 . S
C1819 H1806 0.929 . S
C1819 C1811 1.433 . S
C1819 N1821 1.384 . S
N1820 C1816 1.427 . S
N1820 C1817 1.384 . S
N1821 C1813 1.427 . S
N1821 C1819 1.384 . S
H1822 C1828 0.930 . S
H1823 C1832 0.930 . S
H1824 C1837 0.929 . S
H1825 C1835 0.929 . S
H1826 C1830 0.929 . S
H1827 C1836 0.929 . S
C1828 H1822 0.930 . S
C1828 C1829 1.367 . S
C1828 C1836 1.378 . S
C1829 C1828 1.367 . S
C1829 C1837 1.433 . S
C1830 H1826 0.929 . S
C1830 C1832 1.378 . S
C1830 C1834 1.350 . S
C1831 C1834 1.463 . S
C1831 C1836 1.350 . S
C1831 N1839 1.427 . S
C1832 H1823 0.930 . S
C1832 C1830 1.378 . S
C1832 C1833 1.367 . S
C1833 C1832 1.367 . S
C1833 C1835 1.433 . S
C1834 C1830 1.350 . S
C1834 C1831 1.463 . S
C1834 N1838 1.427 . S
C1835 H1825 0.929 . S
C1835 C1833 1.433 . S
C1835 N1838 1.384 . S
C1836 H1827 0.929 . S
C1836 C1828 1.378 . S
C1836 C1831 1.350 . S
C1837 H1824 0.929 . S
C1837 C1829 1.433 . S
C1837 N1839 1.384 . S
N1838 C1834 1.427 . S
N1838 C1835 1.384 . S
N1839 C1831 1.427 . S
N1839 C1837 1.384 . S
H1840 C1846 0.930 . S
H1841 C1850 0.930 . S
H1842 C1855 0.929 . S
H1843 C1853 0.929 . S
H1844 C1848 0.929 . S
H1845 C1854 0.929 . S
C1846 H1840 0.930 . S
C1846 C1847 1.367 . S
C1846 C1854 1.378 . S
C1847 C1846 1.367 . S
C1847 C1855 1.433 . S
C1848 H1844 0.929 . S
C1848 C1850 1.378 . S
C1848 C1852 1.350 . S
C1849 C1852 1.463 . S
C1849 C1854 1.350 . S
C1849 N1857 1.427 . S
C1850 H1841 0.930 . S
C1850 C1848 1.378 . S
C1850 C1851 1.367 . S
C1851 C1850 1.367 . S
C1851 C1853 1.433 . S
C1852 C1848 1.350 . S
C1852 C1849 1.463 . S
C1852 N1856 1.427 . S
C1853 H1843 0.929 . S
C1853 C1851 1.433 . S
C1853 N1856 1.384 . S
C1854 H1845 0.929 . S
C1854 C1846 1.378 . S
C1854 C1849 1.350 . S
C1855 H1842 0.929 . S
C1855 C1847 1.433 . S
C1855 N1857 1.384 . S
N1856 C1852 1.427 . S
N1856 C1853 1.384 . S
N1857 C1849 1.427 . S
N1857 C1855 1.384 . S
H1858 C1864 0.930 . S
H1859 C1868 0.930 . S
H1860 C1873 0.929 . S
H1861 C1871 0.929 . S
H1862 C1866 0.929 . S
H1863 C1872 0.929 . S
C1864 H1858 0.930 . S
C1864 C1865 1.367 . S
C1864 C1872 1.378 . S
C1865 C1864 1.367 . S
C1865 C1873 1.433 . S
C1866 H1862 0.929 . S
C1866 C1868 1.378 . S
C1866 C1870 1.350 . S
C1867 C1870 1.463 . S
C1867 C1872 1.350 . S
C1867 N1875 1.427 . S
C1868 H1859 0.930 . S
C1868 C1866 1.378 . S
C1868 C1869 1.367 . S
C1869 C1868 1.367 . S
C1869 C1871 1.433 . S
C1870 C1866 1.350 . S
C1870 C1867 1.463 . S
C1870 N1874 1.427 . S
C1871 H1861 0.929 . S
C1871 C1869 1.433 . S
C1871 N1874 1.384 . S
C1872 H1863 0.929 . S
C1872 C1864 1.378 . S
C1872 C1867 1.350 . S
C1873 H1860 0.929 . S
C1873 C1865 1.433 . S
C1873 N1875 1.384 . S
N1874 C1870 1.427 . S
N1874 C1871 1.384 . S
N1875 C1867 1.427 . S
N1875 C1873 1.384 . S
H1876 C1882 0.930 . S
H1877 C1886 0.930 . S
H1878 C1891 0.929 . S
H1879 C1889 0.929 . S
H1880 C1884 0.929 . S
H1881 C1890 0.929 1_655 S
C1882 H1876 0.930 . S
C1882 C1883 1.367 1_655 S
C1882 C1890 1.378 1_655 S
C1883 C1882 1.367 1_455 S
C1883 C1891 1.433 . S
C1884 H1880 0.929 . S
C1884 C1886 1.378 . S
C1884 C1888 1.350 . S
C1885 C1888 1.463 . S
C1885 C1890 1.350 . S
C1885 N1893 1.427 . S
C1886 H1877 0.930 . S
C1886 C1884 1.378 . S
C1886 C1887 1.367 . S
C1887 C1886 1.367 . S
C1887 C1889 1.433 . S
C1888 C1884 1.350 . S
C1888 C1885 1.463 . S
C1888 N1892 1.427 . S
C1889 H1879 0.929 . S
C1889 C1887 1.433 . S
C1889 N1892 1.384 . S
C1890 H1881 0.929 1_455 S
C1890 C1882 1.378 1_455 S
C1890 C1885 1.350 . S
C1891 H1878 0.929 . S
C1891 C1883 1.433 . S
C1891 N1893 1.384 . S
N1892 C1888 1.427 . S
N1892 C1889 1.384 . S
N1893 C1885 1.427 . S
N1893 C1891 1.384 . S
H1894 C1900 0.930 . S
H1895 C1904 0.930 . S
H1896 C1909 0.929 . S
H1897 C1907 0.929 . S
H1898 C1902 0.929 . S
H1899 C1908 0.960 . S
C1900 H1894 0.930 . S
C1900 C1901 1.367 . S
C1900 C1908 1.378 . S
C1901 C1900 1.367 . S
C1901 C1909 1.433 . S
C1902 H1898 0.929 . S
C1902 C1904 1.378 . S
C1902 C1906 1.350 . S
C1903 C1906 1.458 1_455 S
C1903 C1908 1.351 . S
C1903 N1911 1.431 . S
C1904 H1895 0.930 . S
C1904 C1902 1.378 . S
C1904 C1905 1.367 . S
C1905 C1904 1.367 . S
C1905 C1907 1.433 . S
C1906 C1902 1.350 . S
C1906 C1903 1.458 1_655 S
C1906 N1910 1.427 . S
C1907 H1897 0.929 . S
C1907 C1905 1.433 . S
C1907 N1910 1.384 . S
C1908 H1899 0.960 . S
C1908 C1900 1.378 . S
C1908 C1903 1.351 . S
C1909 H1896 0.929 . S
C1909 C1901 1.433 . S
C1909 N1911 1.384 . S
N1910 C1906 1.427 . S
N1910 C1907 1.384 . S
N1911 C1903 1.431 . S
N1911 C1909 1.384 . S
H1912 C1918 0.930 . S
H1913 C1922 0.930 . S
H1914 C1927 0.929 . S
H1915 C1925 0.929 . S
H1916 C1920 0.929 . S
H1917 C1926 0.929 . S
C1918 H1912 0.930 . S
C1918 C1919 1.367 . S
C1918 C1926 1.378 . S
C1919 C1918 1.367 . S
C1919 C1927 1.433 . S
C1920 H1916 0.929 . S
C1920 C1922 1.378 . S
C1920 C1924 1.350 . S
C1921 C1924 1.463 . S
C1921 C1926 1.350 . S
C1921 N1929 1.427 . S
C1922 H1913 0.930 . S
C1922 C1920 1.378 . S
C1922 C1923 1.367 . S
C1923 C1922 1.367 . S
C1923 C1925 1.433 . S
C1924 C1920 1.350 . S
C1924 C1921 1.463 . S
C1924 N1928 1.427 . S
C1925 H1915 0.929 . S
C1925 C1923 1.433 . S
C1925 N1928 1.384 . S
C1926 H1917 0.929 . S
C1926 C1918 1.378 . S
C1926 C1921 1.350 . S
C1927 H1914 0.929 . S
C1927 C1919 1.433 . S
C1927 N1929 1.384 . S
N1928 C1924 1.427 . S
N1928 C1925 1.384 . S
N1929 C1921 1.427 . S
N1929 C1927 1.384 . S
H1930 C1936 0.930 . S
H1931 C1940 0.930 . S
H1932 C1945 0.929 . S
H1933 C1943 0.929 . S
H1934 C1938 0.929 . S
H1935 C1944 0.929 . S
C1936 H1930 0.930 . S
C1936 C1937 1.367 . S
C1936 C1944 1.378 . S
C1937 C1936 1.367 . S
C1937 C1945 1.433 . S
C1938 H1934 0.929 . S
C1938 C1940 1.378 . S
C1938 C1942 1.350 . S
C1939 C1942 1.463 . S
C1939 C1944 1.350 . S
C1939 N1947 1.427 . S
C1940 H1931 0.930 . S
C1940 C1938 1.378 . S
C1940 C1941 1.367 . S
C1941 C1940 1.367 . S
C1941 C1943 1.433 . S
C1942 C1938 1.350 . S
C1942 C1939 1.463 . S
C1942 N1946 1.427 . S
C1943 H1933 0.929 . S
C1943 C1941 1.433 . S
C1943 N1946 1.384 . S
C1944 H1935 0.929 . S
C1944 C1936 1.378 . S
C1944 C1939 1.350 . S
C1945 H1932 0.929 . S
C1945 C1937 1.433 . S
C1945 N1947 1.384 . S
N1946 C1942 1.427 . S
N1946 C1943 1.384 . S
N1947 C1939 1.427 . S
N1947 C1945 1.384 . S
H1948 C1954 0.930 . S
H1949 C1958 0.930 . S
H1950 C1963 0.929 . S
H1951 C1961 0.929 . S
H1952 C1956 0.929 . S
H1953 C1962 0.929 . S
C1954 H1948 0.930 . S
C1954 C1955 1.367 . S
C1954 C1962 1.378 . S
C1955 C1954 1.367 . S
C1955 C1963 1.433 . S
C1956 H1952 0.929 . S
C1956 C1958 1.378 . S
C1956 C1960 1.350 . S
C1957 C1960 1.463 . S
C1957 C1962 1.350 . S
C1957 N1965 1.427 . S
C1958 H1949 0.930 . S
C1958 C1956 1.378 . S
C1958 C1959 1.367 . S
C1959 C1958 1.367 . S
C1959 C1961 1.433 . S
C1960 C1956 1.350 . S
C1960 C1957 1.463 . S
C1960 N1964 1.427 . S
C1961 H1951 0.929 . S
C1961 C1959 1.433 . S
C1961 N1964 1.384 . S
C1962 H1953 0.929 . S
C1962 C1954 1.378 . S
C1962 C1957 1.350 . S
C1963 H1950 0.929 . S
C1963 C1955 1.433 . S
C1963 N1965 1.384 . S
N1964 C1960 1.427 . S
N1964 C1961 1.384 . S
N1965 C1957 1.427 . S
N1965 C1963 1.384 . S
H1966 C1972 0.930 . S
H1967 C1976 0.930 . S
H1968 C1981 0.929 . S
H1969 C1979 0.929 . S
H1970 C1974 0.929 . S
H1971 C1980 0.929 . S
C1972 H1966 0.930 . S
C1972 C1973 1.367 . S
C1972 C1980 1.378 . S
C1973 C1972 1.367 . S
C1973 C1981 1.433 . S
C1974 H1970 0.929 . S
C1974 C1976 1.378 . S
C1974 C1978 1.350 . S
C1975 C1978 1.463 . S
C1975 C1980 1.350 . S
C1975 N1983 1.427 . S
C1976 H1967 0.930 . S
C1976 C1974 1.378 . S
C1976 C1977 1.367 . S
C1977 C1976 1.367 . S
C1977 C1979 1.433 . S
C1978 C1974 1.350 . S
C1978 C1975 1.463 . S
C1978 N1982 1.427 . S
C1979 H1969 0.929 . S
C1979 C1977 1.433 . S
C1979 N1982 1.384 . S
C1980 H1971 0.929 . S
C1980 C1972 1.378 . S
C1980 C1975 1.350 . S
C1981 H1968 0.929 . S
C1981 C1973 1.433 . S
C1981 N1983 1.384 . S
N1982 C1978 1.427 . S
N1982 C1979 1.384 . S
N1983 C1975 1.427 . S
N1983 C1981 1.384 . S
H1984 C1990 0.930 . S
H1985 C1994 0.930 . S
H1986 C1999 0.929 . S
H1987 C1997 0.929 . S
H1988 C1992 0.929 . S
H1989 C1998 0.929 . S
C1990 H1984 0.930 . S
C1990 C1991 1.367 . S
C1990 C1998 1.378 . S
C1991 C1990 1.367 . S
C1991 C1999 1.433 . S
C1992 H1988 0.929 . S
C1992 C1994 1.378 . S
C1992 C1996 1.350 . S
C1993 C1996 1.463 . S
C1993 C1998 1.350 . S
C1993 N2001 1.427 . S
C1994 H1985 0.930 . S
C1994 C1992 1.378 . S
C1994 C1995 1.367 . S
C1995 C1994 1.367 . S
C1995 C1997 1.433 . S
C1996 C1992 1.350 . S
C1996 C1993 1.463 . S
C1996 N2000 1.427 . S
C1997 H1987 0.929 . S
C1997 C1995 1.433 . S
C1997 N2000 1.384 . S
C1998 H1989 0.929 . S
C1998 C1990 1.378 . S
C1998 C1993 1.350 . S
C1999 H1986 0.929 . S
C1999 C1991 1.433 . S
C1999 N2001 1.384 . S
N2000 C1996 1.427 . S
N2000 C1997 1.384 . S
N2001 C1993 1.427 . S
N2001 C1999 1.384 . S
H2002 C2008 0.930 . S
H2003 C2012 0.930 . S
H2004 C2017 0.929 . S
H2005 C2015 0.929 . S
H2006 C2010 0.929 . S
H2007 C2016 0.929 . S
C2008 H2002 0.930 . S
C2008 C2009 1.367 . S
C2008 C2016 1.378 . S
C2009 C2008 1.367 . S
C2009 C2017 1.433 . S
C2010 H2006 0.929 . S
C2010 C2012 1.378 . S
C2010 C2014 1.350 . S
C2011 C2014 1.463 . S
C2011 C2016 1.350 . S
C2011 N2019 1.427 . S
C2012 H2003 0.930 . S
C2012 C2010 1.378 . S
C2012 C2013 1.367 . S
C2013 C2012 1.367 . S
C2013 C2015 1.433 . S
C2014 C2010 1.350 . S
C2014 C2011 1.463 . S
C2014 N2018 1.427 . S
C2015 H2005 0.929 . S
C2015 C2013 1.433 . S
C2015 N2018 1.384 . S
C2016 H2007 0.929 . S
C2016 C2008 1.378 . S
C2016 C2011 1.350 . S
C2017 H2004 0.929 . S
C2017 C2009 1.433 . S
C2017 N2019 1.384 . S
N2018 C2014 1.427 . S
N2018 C2015 1.384 . S
N2019 C2011 1.427 . S
N2019 C2017 1.384 . S
H2020 C2026 0.930 . S
H2021 C2030 0.930 . S
H2022 C2035 0.929 . S
H2023 C2033 0.929 . S
H2024 C2028 0.929 . S
H2025 C2034 0.929 . S
C2026 H2020 0.930 . S
C2026 C2027 1.367 . S
C2026 C2034 1.378 . S
C2027 C2026 1.367 . S
C2027 C2035 1.433 . S
C2028 H2024 0.929 . S
C2028 C2030 1.378 . S
C2028 C2032 1.350 . S
C2029 C2032 1.463 . S
C2029 C2034 1.350 . S
C2029 N2037 1.427 . S
C2030 H2021 0.930 . S
C2030 C2028 1.378 . S
C2030 C2031 1.367 . S
C2031 C2030 1.367 . S
C2031 C2033 1.433 . S
C2032 C2028 1.350 . S
C2032 C2029 1.463 . S
C2032 N2036 1.427 . S
C2033 H2023 0.929 . S
C2033 C2031 1.433 . S
C2033 N2036 1.384 . S
C2034 H2025 0.929 . S
C2034 C2026 1.378 . S
C2034 C2029 1.350 . S
C2035 H2022 0.929 . S
C2035 C2027 1.433 . S
C2035 N2037 1.384 . S
N2036 C2032 1.427 . S
N2036 C2033 1.384 . S
N2037 C2029 1.427 . S
N2037 C2035 1.384 . S
H2038 C2044 0.930 . S
H2039 C2048 0.930 . S
H2040 C2053 0.929 . S
H2041 C2051 0.929 . S
H2042 C2046 0.929 . S
H2043 C2052 0.929 . S
C2044 H2038 0.930 . S
C2044 C2045 1.367 . S
C2044 C2052 1.378 . S
C2045 C2044 1.367 . S
C2045 C2053 1.433 . S
C2046 H2042 0.929 . S
C2046 C2048 1.378 . S
C2046 C2050 1.350 . S
C2047 C2050 1.463 . S
C2047 C2052 1.350 . S
C2047 N2055 1.427 . S
C2048 H2039 0.930 . S
C2048 C2046 1.378 . S
C2048 C2049 1.367 . S
C2049 C2048 1.367 . S
C2049 C2051 1.433 . S
C2050 C2046 1.350 . S
C2050 C2047 1.463 . S
C2050 N2054 1.427 . S
C2051 H2041 0.929 . S
C2051 C2049 1.433 . S
C2051 N2054 1.384 . S
C2052 H2043 0.929 . S
C2052 C2044 1.378 . S
C2052 C2047 1.350 . S
C2053 H2040 0.929 . S
C2053 C2045 1.433 . S
C2053 N2055 1.384 . S
N2054 C2050 1.427 . S
N2054 C2051 1.384 . S
N2055 C2047 1.427 . S
N2055 C2053 1.384 . S
H2056 C2062 0.930 . S
H2057 C2066 0.930 . S
H2058 C2071 0.929 . S
H2059 C2069 0.929 . S
H2060 C2064 0.929 . S
H2061 C2070 0.929 . S
C2062 H2056 0.930 . S
C2062 C2063 1.367 . S
C2062 C2070 1.378 . S
C2063 C2062 1.367 . S
C2063 C2071 1.433 . S
C2064 H2060 0.929 . S
C2064 C2066 1.378 . S
C2064 C2068 1.350 . S
C2065 C2068 1.463 . S
C2065 C2070 1.350 . S
C2065 N2073 1.427 . S
C2066 H2057 0.930 . S
C2066 C2064 1.378 . S
C2066 C2067 1.367 . S
C2067 C2066 1.367 . S
C2067 C2069 1.433 . S
C2068 C2064 1.350 . S
C2068 C2065 1.463 . S
C2068 N2072 1.427 . S
C2069 H2059 0.929 . S
C2069 C2067 1.433 . S
C2069 N2072 1.384 . S
C2070 H2061 0.929 . S
C2070 C2062 1.378 . S
C2070 C2065 1.350 . S
C2071 H2058 0.929 . S
C2071 C2063 1.433 . S
C2071 N2073 1.384 . S
N2072 C2068 1.427 . S
N2072 C2069 1.384 . S
N2073 C2065 1.427 . S
N2073 C2071 1.384 . S
H2074 C2080 0.930 . S
H2075 C2084 0.930 . S
H2076 C2089 0.929 . S
H2077 C2087 0.929 . S
H2078 C2082 0.929 . S
H2079 C2088 0.929 . S
C2080 H2074 0.930 . S
C2080 C2081 1.367 . S
C2080 C2088 1.378 . S
C2081 C2080 1.367 . S
C2081 C2089 1.433 . S
C2082 H2078 0.929 . S
C2082 C2084 1.378 . S
C2082 C2086 1.350 . S
C2083 C2086 1.463 . S
C2083 C2088 1.350 . S
C2083 N2091 1.427 . S
C2084 H2075 0.930 . S
C2084 C2082 1.378 . S
C2084 C2085 1.367 . S
C2085 C2084 1.367 . S
C2085 C2087 1.433 . S
C2086 C2082 1.350 . S
C2086 C2083 1.463 . S
C2086 N2090 1.427 . S
C2087 H2077 0.929 . S
C2087 C2085 1.433 . S
C2087 N2090 1.384 . S
C2088 H2079 0.929 . S
C2088 C2080 1.378 . S
C2088 C2083 1.350 . S
C2089 H2076 0.929 . S
C2089 C2081 1.433 . S
C2089 N2091 1.384 . S
N2090 C2086 1.427 . S
N2090 C2087 1.384 . S
N2091 C2083 1.427 . S
N2091 C2089 1.384 . S
H2092 C2098 0.930 . S
H2093 C2102 0.930 . S
H2094 C2107 0.929 . S
H2095 C2105 0.929 . S
H2096 C2100 0.929 . S
H2097 C2106 0.929 . S
C2098 H2092 0.930 . S
C2098 C2099 1.367 . S
C2098 C2106 1.378 . S
C2099 C2098 1.367 . S
C2099 C2107 1.433 . S
C2100 H2096 0.929 . S
C2100 C2102 1.378 . S
C2100 C2104 1.350 . S
C2101 C2104 1.463 . S
C2101 C2106 1.350 . S
C2101 N2109 1.427 . S
C2102 H2093 0.930 . S
C2102 C2100 1.378 . S
C2102 C2103 1.367 . S
C2103 C2102 1.367 . S
C2103 C2105 1.433 . S
C2104 C2100 1.350 . S
C2104 C2101 1.463 . S
C2104 N2108 1.427 . S
C2105 H2095 0.929 . S
C2105 C2103 1.433 . S
C2105 N2108 1.384 . S
C2106 H2097 0.929 . S
C2106 C2098 1.378 . S
C2106 C2101 1.350 . S
C2107 H2094 0.929 . S
C2107 C2099 1.433 . S
C2107 N2109 1.384 . S
N2108 C2104 1.427 . S
N2108 C2105 1.384 . S
N2109 C2101 1.427 . S
N2109 C2107 1.384 . S
H2110 C2116 0.930 . S
H2111 C2120 0.930 . S
H2112 C2125 0.929 . S
H2113 C2123 0.929 . S
H2114 C2118 0.929 . S
H2115 C2124 0.929 . S
C2116 H2110 0.930 . S
C2116 C2117 1.367 . S
C2116 C2124 1.378 . S
C2117 C2116 1.367 . S
C2117 C2125 1.433 . S
C2118 H2114 0.929 . S
C2118 C2120 1.378 . S
C2118 C2122 1.350 . S
C2119 C2122 1.463 . S
C2119 C2124 1.350 . S
C2119 N2127 1.427 . S
C2120 H2111 0.930 . S
C2120 C2118 1.378 . S
C2120 C2121 1.367 . S
C2121 C2120 1.367 . S
C2121 C2123 1.433 . S
C2122 C2118 1.350 . S
C2122 C2119 1.463 . S
C2122 N2126 1.427 . S
C2123 H2113 0.929 . S
C2123 C2121 1.433 . S
C2123 N2126 1.384 . S
C2124 H2115 0.929 . S
C2124 C2116 1.378 . S
C2124 C2119 1.350 . S
C2125 H2112 0.929 . S
C2125 C2117 1.433 . S
C2125 N2127 1.384 . S
N2126 C2122 1.427 . S
N2126 C2123 1.384 . S
N2127 C2119 1.427 . S
N2127 C2125 1.384 . S
H2128 C2134 0.930 . S
H2129 C2138 0.930 . S
H2130 C2143 0.929 . S
H2131 C2141 0.929 . S
H2132 C2136 0.929 . S
H2133 C2142 0.929 . S
C2134 H2128 0.930 . S
C2134 C2135 1.367 . S
C2134 C2142 1.378 . S
C2135 C2134 1.367 . S
C2135 C2143 1.433 . S
C2136 H2132 0.929 . S
C2136 C2138 1.378 . S
C2136 C2140 1.350 . S
C2137 C2140 1.463 . S
C2137 C2142 1.350 . S
C2137 N2145 1.427 . S
C2138 H2129 0.930 . S
C2138 C2136 1.378 . S
C2138 C2139 1.367 . S
C2139 C2138 1.367 . S
C2139 C2141 1.433 . S
C2140 C2136 1.350 . S
C2140 C2137 1.463 . S
C2140 N2144 1.427 . S
C2141 H2131 0.929 . S
C2141 C2139 1.433 . S
C2141 N2144 1.384 . S
C2142 H2133 0.929 . S
C2142 C2134 1.378 . S
C2142 C2137 1.350 . S
C2143 H2130 0.929 . S
C2143 C2135 1.433 . S
C2143 N2145 1.384 . S
N2144 C2140 1.427 . S
N2144 C2141 1.384 . S
N2145 C2137 1.427 . S
N2145 C2143 1.384 . S
H2146 C2152 0.930 . S
H2147 C2156 0.930 . S
H2148 C2161 0.929 . S
H2149 C2159 0.929 . S
H2150 C2154 0.929 . S
H2151 C2160 0.929 . S
C2152 H2146 0.930 . S
C2152 C2153 1.367 . S
C2152 C2160 1.378 . S
C2153 C2152 1.367 . S
C2153 C2161 1.433 . S
C2154 H2150 0.929 . S
C2154 C2156 1.378 . S
C2154 C2158 1.350 . S
C2155 C2158 1.463 . S
C2155 C2160 1.350 . S
C2155 N2163 1.427 . S
C2156 H2147 0.930 . S
C2156 C2154 1.378 . S
C2156 C2157 1.367 . S
C2157 C2156 1.367 . S
C2157 C2159 1.433 . S
C2158 C2154 1.350 . S
C2158 C2155 1.463 . S
C2158 N2162 1.427 . S
C2159 H2149 0.929 . S
C2159 C2157 1.433 . S
C2159 N2162 1.384 . S
C2160 H2151 0.929 . S
C2160 C2152 1.378 . S
C2160 C2155 1.350 . S
C2161 H2148 0.929 . S
C2161 C2153 1.433 . S
C2161 N2163 1.384 . S
N2162 C2158 1.427 . S
N2162 C2159 1.384 . S
N2163 C2155 1.427 . S
N2163 C2161 1.384 . S
H2164 C2170 0.930 . S
H2165 C2174 0.930 . S
H2166 C2179 0.929 . S
H2167 C2177 0.929 . S
H2168 C2172 0.929 . S
H2169 C2178 0.929 . S
C2170 H2164 0.930 . S
C2170 C2171 1.367 . S
C2170 C2178 1.378 1_545 S
C2171 C2170 1.367 . S
C2171 C2179 1.433 1_545 S
C2172 H2168 0.929 . S
C2172 C2174 1.378 . S
C2172 C2176 1.350 . S
C2173 C2176 1.463 . S
C2173 C2178 1.350 . S
C2173 N2181 1.427 . S
C2174 H2165 0.930 . S
C2174 C2172 1.378 . S
C2174 C2175 1.367 . S
C2175 C2174 1.367 . S
C2175 C2177 1.433 . S
C2176 C2172 1.350 . S
C2176 C2173 1.463 . S
C2176 N2180 1.427 . S
C2177 H2167 0.929 . S
C2177 C2175 1.433 . S
C2177 N2180 1.384 . S
C2178 H2169 0.929 . S
C2178 C2170 1.378 1_565 S
C2178 C2173 1.350 . S
C2179 H2166 0.929 . S
C2179 C2171 1.433 1_565 S
C2179 N2181 1.384 . S
N2180 C2176 1.427 . S
N2180 C2177 1.384 . S
N2181 C2173 1.427 . S
N2181 C2179 1.384 . S
H2182 C2188 0.930 . S
H2183 C2192 0.930 . S
H2184 C2197 0.929 . S
H2185 C2195 0.929 . S
H2186 C2190 0.929 . S
H2187 C2196 0.929 . S
C2188 H2182 0.930 . S
C2188 C2189 1.367 . S
C2188 C2196 1.378 . S
C2189 C2188 1.367 . S
C2189 C2197 1.433 . S
C2190 H2186 0.929 . S
C2190 C2192 1.378 . S
C2190 C2194 1.350 . S
C2191 C2194 1.463 . S
C2191 C2196 1.350 . S
C2191 N2199 1.427 . S
C2192 H2183 0.930 . S
C2192 C2190 1.378 . S
C2192 C2193 1.372 . S
C2193 C2192 1.372 . S
C2193 C2195 1.431 1_565 S
C2194 C2190 1.350 . S
C2194 C2191 1.463 . S
C2194 N2198 1.427 . S
C2195 H2185 0.929 . S
C2195 C2193 1.431 1_545 S
C2195 N2198 1.384 1_545 S
C2196 H2187 0.929 . S
C2196 C2188 1.378 . S
C2196 C2191 1.350 . S
C2197 H2184 0.929 . S
C2197 C2189 1.433 . S
C2197 N2199 1.384 . S
N2198 C2194 1.427 . S
N2198 C2195 1.384 1_565 S
N2199 C2191 1.427 . S
N2199 C2197 1.384 . S
H2200 C2206 0.930 . S
H2201 C2210 0.930 . S
H2202 C2215 0.929 . S
H2203 C2213 0.929 . S
H2204 C2208 0.929 . S
H2205 C2214 0.929 . S
C2206 H2200 0.930 . S
C2206 C2207 1.367 . S
C2206 C2214 1.378 . S
C2207 C2206 1.367 . S
C2207 C2215 1.433 . S
C2208 H2204 0.929 . S
C2208 C2210 1.378 . S
C2208 C2212 1.350 . S
C2209 C2212 1.463 . S
C2209 C2214 1.350 . S
C2209 N2217 1.427 . S
C2210 H2201 0.930 . S
C2210 C2208 1.378 . S
C2210 C2211 1.367 . S
C2211 C2210 1.367 . S
C2211 C2213 1.433 . S
C2212 C2208 1.350 . S
C2212 C2209 1.463 . S
C2212 N2216 1.427 . S
C2213 H2203 0.929 . S
C2213 C2211 1.433 . S
C2213 N2216 1.384 . S
C2214 H2205 0.929 . S
C2214 C2206 1.378 . S
C2214 C2209 1.350 . S
C2215 H2202 0.929 . S
C2215 C2207 1.433 . S
C2215 N2217 1.384 . S
N2216 C2212 1.427 . S
N2216 C2213 1.384 . S
N2217 C2209 1.427 . S
N2217 C2215 1.384 . S
H2218 C2224 0.930 . S
H2219 C2228 0.930 . S
H2220 C2233 0.929 . S
H2221 C2231 0.929 . S
H2222 C2226 0.929 . S
H2223 C2232 0.929 . S
C2224 H2218 0.930 . S
C2224 C2225 1.367 . S
C2224 C2232 1.378 . S
C2225 C2224 1.367 . S
C2225 C2233 1.433 . S
C2226 H2222 0.929 . S
C2226 C2228 1.378 . S
C2226 C2230 1.350 . S
C2227 C2230 1.463 . S
C2227 C2232 1.350 . S
C2227 N2235 1.427 . S
C2228 H2219 0.930 . S
C2228 C2226 1.378 . S
C2228 C2229 1.367 . S
C2229 C2228 1.367 . S
C2229 C2231 1.433 . S
C2230 C2226 1.350 . S
C2230 C2227 1.463 . S
C2230 N2234 1.427 . S
C2231 H2221 0.929 . S
C2231 C2229 1.433 . S
C2231 N2234 1.384 . S
C2232 H2223 0.929 . S
C2232 C2224 1.378 . S
C2232 C2227 1.350 . S
C2233 H2220 0.929 . S
C2233 C2225 1.433 . S
C2233 N2235 1.384 . S
N2234 C2230 1.427 . S
N2234 C2231 1.384 . S
N2235 C2227 1.427 . S
N2235 C2233 1.384 . S
H2236 C2242 0.930 . S
H2237 C2246 0.930 . S
H2238 C2251 0.929 . S
H2239 C2249 0.929 . S
H2240 C2244 0.929 . S
H2241 C2250 0.929 . S
C2242 H2236 0.930 . S
C2242 C2243 1.367 . S
C2242 C2250 1.378 . S
C2243 C2242 1.367 . S
C2243 C2251 1.433 . S
C2244 H2240 0.929 . S
C2244 C2246 1.378 . S
C2244 C2248 1.350 . S
C2245 C2248 1.463 . S
C2245 C2250 1.350 . S
C2245 N2253 1.427 . S
C2246 H2237 0.930 . S
C2246 C2244 1.378 . S
C2246 C2247 1.367 . S
C2247 C2246 1.367 . S
C2247 C2249 1.433 . S
C2248 C2244 1.350 . S
C2248 C2245 1.463 . S
C2248 N2252 1.427 . S
C2249 H2239 0.929 . S
C2249 C2247 1.433 . S
C2249 N2252 1.384 . S
C2250 H2241 0.929 . S
C2250 C2242 1.378 . S
C2250 C2245 1.350 . S
C2251 H2238 0.929 . S
C2251 C2243 1.433 . S
C2251 N2253 1.384 . S
N2252 C2248 1.427 . S
N2252 C2249 1.384 . S
N2253 C2245 1.427 . S
N2253 C2251 1.384 . S
H2254 C2260 0.930 . S
H2255 C2264 0.930 . S
H2256 C2269 0.929 . S
H2257 C2267 0.929 . S
H2258 C2262 0.929 . S
H2259 C2268 0.929 . S
C2260 H2254 0.930 . S
C2260 C2261 1.367 . S
C2260 C2268 1.378 1_545 S
C2261 C2260 1.367 . S
C2261 C2269 1.433 . S
C2262 H2258 0.929 . S
C2262 C2264 1.378 . S
C2262 C2266 1.350 . S
C2263 C2266 1.463 . S
C2263 C2268 1.350 . S
C2263 N2271 1.427 . S
C2264 H2255 0.930 . S
C2264 C2262 1.378 . S
C2264 C2265 1.367 . S
C2265 C2264 1.367 . S
C2265 C2267 1.433 . S
C2266 C2262 1.350 . S
C2266 C2263 1.463 . S
C2266 N2270 1.427 . S
C2267 H2257 0.929 . S
C2267 C2265 1.433 . S
C2267 N2270 1.384 . S
C2268 H2259 0.929 . S
C2268 C2260 1.378 1_565 S
C2268 C2263 1.350 . S
C2269 H2256 0.929 . S
C2269 C2261 1.433 . S
C2269 N2271 1.384 1_545 S
N2270 C2266 1.427 . S
N2270 C2267 1.384 . S
N2271 C2263 1.427 . S
N2271 C2269 1.384 1_565 S
H2272 C2278 0.930 . S
H2273 C2282 0.930 . S
H2274 C2287 0.929 . S
H2275 C2285 0.929 . S
H2276 C2280 0.929 . S
H2277 C2286 0.929 . S
C2278 H2272 0.930 . S
C2278 C2279 1.367 . S
C2278 C2286 1.378 . S
C2279 C2278 1.367 . S
C2279 C2287 1.433 . S
C2280 H2276 0.929 . S
C2280 C2282 1.378 . S
C2280 C2284 1.350 . S
C2281 C2284 1.463 . S
C2281 C2286 1.350 . S
C2281 N2289 1.427 . S
C2282 H2273 0.930 . S
C2282 C2280 1.378 . S
C2282 C2283 1.367 . S
C2283 C2282 1.367 . S
C2283 C2285 1.433 . S
C2284 C2280 1.350 . S
C2284 C2281 1.463 . S
C2284 N2288 1.427 . S
C2285 H2275 0.929 . S
C2285 C2283 1.433 . S
C2285 N2288 1.384 . S
C2286 H2277 0.929 . S
C2286 C2278 1.378 . S
C2286 C2281 1.350 . S
C2287 H2274 0.929 . S
C2287 C2279 1.433 . S
C2287 N2289 1.384 . S
N2288 C2284 1.427 . S
N2288 C2285 1.384 . S
N2289 C2281 1.427 . S
N2289 C2287 1.384 . S
H2290 C2296 0.930 . S
H2291 C2300 0.930 . S
H2292 C2305 0.929 . S
H2293 C2303 0.929 . S
H2294 C2298 0.929 . S
H2295 C2304 0.929 . S
C2296 H2290 0.930 . S
C2296 C2297 1.367 . S
C2296 C2304 1.378 . S
C2297 C2296 1.367 . S
C2297 C2305 1.433 . S
C2298 H2294 0.929 . S
C2298 C2300 1.378 . S
C2298 C2302 1.350 . S
C2299 C2302 1.463 . S
C2299 C2304 1.350 . S
C2299 N2307 1.427 . S
C2300 H2291 0.930 . S
C2300 C2298 1.378 . S
C2300 C2301 1.367 . S
C2301 C2300 1.367 . S
C2301 C2303 1.433 . S
C2302 C2298 1.350 . S
C2302 C2299 1.463 . S
C2302 N2306 1.427 . S
C2303 H2293 0.929 . S
C2303 C2301 1.433 . S
C2303 N2306 1.384 . S
C2304 H2295 0.929 . S
C2304 C2296 1.378 . S
C2304 C2299 1.350 . S
C2305 H2292 0.929 . S
C2305 C2297 1.433 . S
C2305 N2307 1.384 . S
N2306 C2302 1.427 . S
N2306 C2303 1.384 . S
N2307 C2299 1.427 . S
N2307 C2305 1.384 . S
H2308 C2314 0.930 . S
H2309 C2318 0.930 . S
H2310 C2323 0.929 . S
H2311 C2321 0.929 . S
H2312 C2316 0.929 . S
H2313 C2322 0.929 . S
C2314 H2308 0.930 . S
C2314 C2315 1.367 . S
C2314 C2322 1.378 . S
C2315 C2314 1.367 . S
C2315 C2323 1.433 . S
C2316 H2312 0.929 . S
C2316 C2318 1.378 . S
C2316 C2320 1.350 . S
C2317 C2320 1.463 . S
C2317 C2322 1.350 . S
C2317 N2325 1.427 . S
C2318 H2309 0.930 . S
C2318 C2316 1.378 . S
C2318 C2319 1.367 . S
C2319 C2318 1.367 . S
C2319 C2321 1.433 . S
C2320 C2316 1.350 . S
C2320 C2317 1.463 . S
C2320 N2324 1.427 . S
C2321 H2311 0.929 . S
C2321 C2319 1.433 . S
C2321 N2324 1.384 . S
C2322 H2313 0.929 . S
C2322 C2314 1.378 . S
C2322 C2317 1.350 . S
C2323 H2310 0.929 . S
C2323 C2315 1.433 . S
C2323 N2325 1.384 . S
N2324 C2320 1.427 . S
N2324 C2321 1.384 . S
N2325 C2317 1.427 . S
N2325 C2323 1.384 . S
H2326 C2332 0.930 . S
H2327 C2336 0.930 . S
H2328 C2341 0.929 . S
H2329 C2339 0.929 . S
H2330 C2334 0.929 . S
H2331 C2340 0.929 . S
C2332 H2326 0.930 . S
C2332 C2333 1.367 . S
C2332 C2340 1.378 . S
C2333 C2332 1.367 . S
C2333 C2341 1.433 . S
C2334 H2330 0.929 . S
C2334 C2336 1.378 . S
C2334 C2338 1.350 . S
C2335 C2338 1.463 . S
C2335 C2340 1.350 . S
C2335 N2343 1.427 . S
C2336 H2327 0.930 . S
C2336 C2334 1.378 . S
C2336 C2337 1.367 . S
C2337 C2336 1.367 . S
C2337 C2339 1.433 . S
C2338 C2334 1.350 . S
C2338 C2335 1.463 . S
C2338 N2342 1.427 . S
C2339 H2329 0.929 . S
C2339 C2337 1.433 . S
C2339 N2342 1.384 . S
C2340 H2331 0.929 . S
C2340 C2332 1.378 . S
C2340 C2335 1.350 . S
C2341 H2328 0.929 . S
C2341 C2333 1.433 . S
C2341 N2343 1.384 . S
N2342 C2338 1.427 . S
N2342 C2339 1.384 . S
N2343 C2335 1.427 . S
N2343 C2341 1.384 . S
H2344 C2350 0.930 . S
H2345 C2354 0.930 . S
H2346 C2359 0.929 . S
H2347 C2357 0.929 1_554 S
H2348 C2352 0.929 . S
H2349 C2358 0.929 . S
C2350 H2344 0.930 . S
C2350 C2351 1.367 . S
C2350 C2358 1.378 . S
C2351 C2350 1.367 . S
C2351 C2359 1.433 . S
C2352 H2348 0.929 . S
C2352 C2354 1.378 . S
C2352 C2356 1.350 . S
C2353 C2356 1.463 . S
C2353 C2358 1.350 . S
C2353 N2361 1.427 . S
C2354 H2345 0.930 . S
C2354 C2352 1.378 . S
C2354 C2355 1.367 . S
C2355 C2354 1.367 . S
C2355 C2357 1.433 . S
C2356 C2352 1.350 . S
C2356 C2353 1.463 . S
C2356 N2360 1.427 . S
C2357 H2347 0.929 1_556 S
C2357 C2355 1.433 . S
C2357 N2360 1.384 . S
C2358 H2349 0.929 . S
C2358 C2350 1.378 . S
C2358 C2353 1.350 . S
C2359 H2346 0.929 . S
C2359 C2351 1.433 . S
C2359 N2361 1.384 . S
N2360 C2356 1.427 . S
N2360 C2357 1.384 . S
N2361 C2353 1.427 . S
N2361 C2359 1.384 . S
H2362 C2368 0.930 . S
H2363 C2372 0.930 . S
H2364 C2377 0.929 . S
H2365 C2375 0.929 . S
H2366 C2370 0.929 . S
H2367 C2376 0.929 . S
C2368 H2362 0.930 . S
C2368 C2369 1.367 . S
C2368 C2376 1.378 . S
C2369 C2368 1.367 . S
C2369 C2377 1.433 . S
C2370 H2366 0.929 . S
C2370 C2372 1.378 . S
C2370 C2374 1.350 . S
C2371 C2374 1.463 . S
C2371 C2376 1.350 . S
C2371 N2379 1.427 . S
C2372 H2363 0.930 . S
C2372 C2370 1.378 . S
C2372 C2373 1.367 . S
C2373 C2372 1.367 . S
C2373 C2375 1.433 . S
C2374 C2370 1.350 . S
C2374 C2371 1.463 . S
C2374 N2378 1.427 . S
C2375 H2365 0.929 . S
C2375 C2373 1.433 . S
C2375 N2378 1.384 . S
C2376 H2367 0.929 . S
C2376 C2368 1.378 . S
C2376 C2371 1.350 . S
C2377 H2364 0.929 . S
C2377 C2369 1.433 . S
C2377 N2379 1.384 . S
N2378 C2374 1.427 . S
N2378 C2375 1.384 . S
N2379 C2371 1.427 . S
N2379 C2377 1.384 . S
H2380 C2386 0.930 . S
H2381 C2390 0.930 . S
H2382 C2395 0.929 . S
H2383 C2393 0.929 . S
H2384 C2388 0.929 . S
H2385 C2394 0.929 . S
C2386 H2380 0.930 . S
C2386 C2387 1.367 . S
C2386 C2394 1.378 . S
C2387 C2386 1.367 . S
C2387 C2395 1.433 . S
C2388 H2384 0.929 . S
C2388 C2390 1.378 . S
C2388 C2392 1.350 . S
C2389 C2392 1.463 . S
C2389 C2394 1.350 . S
C2389 N2397 1.427 . S
C2390 H2381 0.930 . S
C2390 C2388 1.378 . S
C2390 C2391 1.367 . S
C2391 C2390 1.367 . S
C2391 C2393 1.433 . S
C2392 C2388 1.350 . S
C2392 C2389 1.463 . S
C2392 N2396 1.427 . S
C2393 H2383 0.929 . S
C2393 C2391 1.433 . S
C2393 N2396 1.384 . S
C2394 H2385 0.929 . S
C2394 C2386 1.378 . S
C2394 C2389 1.350 . S
C2395 H2382 0.929 . S
C2395 C2387 1.433 . S
C2395 N2397 1.384 . S
N2396 C2392 1.427 . S
N2396 C2393 1.384 . S
N2397 C2389 1.427 . S
N2397 C2395 1.384 . S
H2398 C2404 0.930 . S
H2399 C2408 0.930 . S
H2400 C2413 0.929 . S
H2401 C2411 0.929 . S
H2402 C2406 0.929 . S
H2403 C2412 0.929 . S
C2404 H2398 0.930 . S
C2404 C2405 1.367 . S
C2404 C2412 1.378 . S
C2405 C2404 1.367 . S
C2405 C2413 1.433 . S
C2406 H2402 0.929 . S
C2406 C2408 1.378 . S
C2406 C2410 1.350 . S
C2407 C2410 1.463 . S
C2407 C2412 1.350 . S
C2407 N2415 1.427 . S
C2408 H2399 0.930 . S
C2408 C2406 1.378 . S
C2408 C2409 1.367 . S
C2409 C2408 1.367 . S
C2409 C2411 1.433 . S
C2410 C2406 1.350 . S
C2410 C2407 1.463 . S
C2410 N2414 1.427 . S
C2411 H2401 0.929 . S
C2411 C2409 1.433 . S
C2411 N2414 1.384 . S
C2412 H2403 0.929 . S
C2412 C2404 1.378 . S
C2412 C2407 1.350 . S
C2413 H2400 0.929 . S
C2413 C2405 1.433 . S
C2413 N2415 1.384 . S
N2414 C2410 1.427 . S
N2414 C2411 1.384 . S
N2415 C2407 1.427 . S
N2415 C2413 1.384 . S
H2416 C2422 0.930 . S
H2417 C2426 0.930 . S
H2418 C2431 0.929 . S
H2419 C2429 0.929 . S
H2420 C2424 0.929 . S
H2421 C2430 0.929 . S
C2422 H2416 0.930 . S
C2422 C2423 1.367 . S
C2422 C2430 1.378 . S
C2423 C2422 1.367 . S
C2423 C2431 1.433 . S
C2424 H2420 0.929 . S
C2424 C2426 1.378 . S
C2424 C2428 1.350 . S
C2425 C2428 1.463 . S
C2425 C2430 1.350 . S
C2425 N2433 1.427 . S
C2426 H2417 0.930 . S
C2426 C2424 1.378 . S
C2426 C2427 1.367 . S
C2427 C2426 1.367 . S
C2427 C2429 1.433 . S
C2428 C2424 1.350 . S
C2428 C2425 1.463 . S
C2428 N2432 1.427 . S
C2429 H2419 0.929 . S
C2429 C2427 1.433 . S
C2429 N2432 1.384 . S
C2430 H2421 0.929 . S
C2430 C2422 1.378 . S
C2430 C2425 1.350 . S
C2431 H2418 0.929 . S
C2431 C2423 1.433 . S
C2431 N2433 1.384 . S
N2432 C2428 1.427 . S
N2432 C2429 1.384 . S
N2433 C2425 1.427 . S
N2433 C2431 1.384 . S
H2434 C2440 0.930 . S
H2435 C2444 0.930 . S
H2436 C2449 0.929 . S
H2437 C2447 0.929 . S
H2438 C2442 0.929 . S
H2439 C2448 0.929 . S
C2440 H2434 0.930 . S
C2440 C2441 1.367 . S
C2440 C2448 1.378 . S
C2441 C2440 1.367 . S
C2441 C2449 1.433 . S
C2442 H2438 0.929 . S
C2442 C2444 1.378 . S
C2442 C2446 1.350 . S
C2443 C2446 1.463 . S
C2443 C2448 1.350 . S
C2443 N2451 1.427 . S
C2444 H2435 0.930 . S
C2444 C2442 1.378 . S
C2444 C2445 1.367 . S
C2445 C2444 1.367 . S
C2445 C2447 1.433 . S
C2446 C2442 1.350 . S
C2446 C2443 1.463 . S
C2446 N2450 1.427 . S
C2447 H2437 0.929 . S
C2447 C2445 1.433 . S
C2447 N2450 1.384 . S
C2448 H2439 0.929 . S
C2448 C2440 1.378 . S
C2448 C2443 1.350 . S
C2449 H2436 0.929 . S
C2449 C2441 1.433 . S
C2449 N2451 1.384 . S
N2450 C2446 1.427 . S
N2450 C2447 1.384 . S
N2451 C2443 1.427 . S
N2451 C2449 1.384 . S
H2452 C2458 0.930 . S
H2453 C2462 0.930 . S
H2454 C2467 0.946 . S
H2455 C2465 0.929 . S
H2456 C2460 0.929 . S
H2457 C2466 0.929 . S
C2458 H2452 0.930 . S
C2458 C2459 1.367 . S
C2458 C2466 1.378 . S
C2459 C2458 1.367 . S
C2459 C2467 1.419 1_455 S
C2460 H2456 0.929 . S
C2460 C2462 1.378 . S
C2460 C2464 1.350 . S
C2461 C2464 1.463 . S
C2461 C2466 1.350 . S
C2461 N2469 1.427 . S
C2462 H2453 0.930 . S
C2462 C2460 1.378 . S
C2462 C2463 1.367 . S
C2463 C2462 1.367 . S
C2463 C2465 1.433 . S
C2464 C2460 1.350 . S
C2464 C2461 1.463 . S
C2464 N2468 1.427 . S
C2465 H2455 0.929 . S
C2465 C2463 1.433 . S
C2465 N2468 1.384 . S
C2466 H2457 0.929 . S
C2466 C2458 1.378 . S
C2466 C2461 1.350 . S
C2467 H2454 0.946 . S
C2467 C2459 1.419 1_655 S
C2467 N2469 1.381 1_655 S
N2468 C2464 1.427 . S
N2468 C2465 1.384 . S
N2469 C2461 1.427 . S
N2469 C2467 1.381 1_455 S
H2470 C2476 0.930 . S
H2471 C2480 0.930 . S
H2472 C2485 0.929 . S
H2473 C2483 0.929 . S
H2474 C2478 0.929 . S
H2475 C2484 0.929 . S
C2476 H2470 0.930 . S
C2476 C2477 1.367 . S
C2476 C2484 1.378 . S
C2477 C2476 1.367 . S
C2477 C2485 1.433 . S
C2478 H2474 0.929 . S
C2478 C2480 1.378 . S
C2478 C2482 1.350 . S
C2479 C2482 1.463 . S
C2479 C2484 1.350 . S
C2479 N2487 1.427 . S
C2480 H2471 0.930 . S
C2480 C2478 1.378 . S
C2480 C2481 1.367 . S
C2481 C2480 1.367 . S
C2481 C2483 1.433 . S
C2482 C2478 1.350 . S
C2482 C2479 1.463 . S
C2482 N2486 1.427 . S
C2483 H2473 0.929 . S
C2483 C2481 1.433 . S
C2483 N2486 1.384 . S
C2484 H2475 0.929 . S
C2484 C2476 1.378 . S
C2484 C2479 1.350 . S
C2485 H2472 0.929 . S
C2485 C2477 1.433 . S
C2485 N2487 1.384 . S
N2486 C2482 1.427 . S
N2486 C2483 1.384 . S
N2487 C2479 1.427 . S
N2487 C2485 1.384 . S
H2488 C2494 0.930 . S
H2489 C2498 0.930 . S
H2490 C2503 0.929 . S
H2491 C2501 0.929 . S
H2492 C2496 0.929 . S
H2493 C2502 0.929 . S
C2494 H2488 0.930 . S
C2494 C2495 1.367 . S
C2494 C2502 1.378 . S
C2495 C2494 1.367 . S
C2495 C2503 1.433 . S
C2496 H2492 0.929 . S
C2496 C2498 1.378 . S
C2496 C2500 1.350 . S
C2497 C2500 1.463 . S
C2497 C2502 1.350 . S
C2497 N2505 1.427 . S
C2498 H2489 0.930 . S
C2498 C2496 1.378 . S
C2498 C2499 1.367 . S
C2499 C2498 1.367 . S
C2499 C2501 1.433 . S
C2500 C2496 1.350 . S
C2500 C2497 1.463 . S
C2500 N2504 1.427 . S
C2501 H2491 0.929 . S
C2501 C2499 1.433 . S
C2501 N2504 1.384 . S
C2502 H2493 0.929 . S
C2502 C2494 1.378 . S
C2502 C2497 1.350 . S
C2503 H2490 0.929 . S
C2503 C2495 1.433 . S
C2503 N2505 1.384 . S
N2504 C2500 1.427 . S
N2504 C2501 1.384 . S
N2505 C2497 1.427 . S
N2505 C2503 1.384 . S
H2506 C2512 0.930 . S
H2507 C2516 0.930 . S
H2508 C2521 0.929 . S
H2509 C2519 0.929 . S
H2510 C2514 0.929 . S
H2511 C2520 0.929 . S
C2512 H2506 0.930 . S
C2512 C2513 1.367 . S
C2512 C2520 1.378 . S
C2513 C2512 1.367 . S
C2513 C2521 1.433 . S
C2514 H2510 0.929 . S
C2514 C2516 1.378 . S
C2514 C2518 1.350 . S
C2515 C2518 1.463 . S
C2515 C2520 1.350 . S
C2515 N2523 1.427 . S
C2516 H2507 0.930 . S
C2516 C2514 1.378 . S
C2516 C2517 1.367 . S
C2517 C2516 1.367 . S
C2517 C2519 1.433 . S
C2518 C2514 1.350 . S
C2518 C2515 1.463 . S
C2518 N2522 1.427 . S
C2519 H2509 0.929 . S
C2519 C2517 1.433 . S
C2519 N2522 1.384 . S
C2520 H2511 0.929 . S
C2520 C2512 1.378 . S
C2520 C2515 1.350 . S
C2521 H2508 0.929 . S
C2521 C2513 1.433 . S
C2521 N2523 1.384 . S
N2522 C2518 1.427 . S
N2522 C2519 1.384 . S
N2523 C2515 1.427 . S
N2523 C2521 1.384 . S
H2524 C2530 0.930 . S
H2525 C2534 0.923 1_655 S
H2526 C2539 0.929 1_655 S
H2527 C2537 0.929 . S
H2528 C2532 0.905 1_655 S
H2529 C2538 0.929 . S
C2530 H2524 0.930 . S
C2530 C2531 1.367 . S
C2530 C2538 1.378 . S
C2531 C2530 1.367 . S
C2531 C2539 1.433 . S
C2532 H2528 0.905 1_455 S
C2532 C2534 1.378 . S
C2532 C2536 1.350 . S
C2533 C2536 1.463 . S
C2533 C2538 1.350 . S
C2533 N2541 1.427 . S
C2534 H2525 0.923 1_455 S
C2534 C2532 1.378 . S
C2534 C2535 1.367 . S
C2535 C2534 1.367 . S
C2535 C2537 1.433 . S
C2536 C2532 1.350 . S
C2536 C2533 1.463 . S
C2536 N2540 1.427 . S
C2537 H2527 0.929 . S
C2537 C2535 1.433 . S
C2537 N2540 1.384 . S
C2538 H2529 0.929 . S
C2538 C2530 1.378 . S
C2538 C2533 1.350 . S
C2539 H2526 0.929 1_455 S
C2539 C2531 1.433 . S
C2539 N2541 1.384 . S
N2540 C2536 1.427 . S
N2540 C2537 1.384 . S
N2541 C2533 1.427 . S
N2541 C2539 1.384 . S
H2542 C2548 0.930 . S
H2543 C2552 0.930 . S
H2544 C2557 0.929 . S
H2545 C2555 0.929 . S
H2546 C2550 0.929 . S
H2547 C2556 0.929 . S
C2548 H2542 0.930 . S
C2548 C2549 1.367 . S
C2548 C2556 1.378 . S
C2549 C2548 1.367 . S
C2549 C2557 1.433 . S
C2550 H2546 0.929 . S
C2550 C2552 1.378 . S
C2550 C2554 1.350 . S
C2551 C2554 1.463 . S
C2551 C2556 1.350 . S
C2551 N2559 1.427 . S
C2552 H2543 0.930 . S
C2552 C2550 1.378 . S
C2552 C2553 1.367 . S
C2553 C2552 1.367 . S
C2553 C2555 1.433 . S
C2554 C2550 1.350 . S
C2554 C2551 1.463 . S
C2554 N2558 1.427 . S
C2555 H2545 0.929 . S
C2555 C2553 1.433 . S
C2555 N2558 1.384 . S
C2556 H2547 0.929 . S
C2556 C2548 1.378 . S
C2556 C2551 1.350 . S
C2557 H2544 0.929 . S
C2557 C2549 1.433 . S
C2557 N2559 1.384 . S
N2558 C2554 1.427 . S
N2558 C2555 1.384 . S
N2559 C2551 1.427 . S
N2559 C2557 1.384 . S
H2560 C2566 0.930 . S
H2561 C2570 0.930 . S
H2562 C2575 0.929 . S
H2563 C2573 0.929 . S
H2564 C2568 0.929 . S
H2565 C2574 0.929 . S
C2566 H2560 0.930 . S
C2566 C2567 1.367 . S
C2566 C2574 1.378 . S
C2567 C2566 1.367 . S
C2567 C2575 1.433 . S
C2568 H2564 0.929 . S
C2568 C2570 1.378 . S
C2568 C2572 1.350 . S
C2569 C2572 1.463 . S
C2569 C2574 1.350 . S
C2569 N2577 1.427 . S
C2570 H2561 0.930 . S
C2570 C2568 1.378 . S
C2570 C2571 1.367 . S
C2571 C2570 1.367 . S
C2571 C2573 1.433 . S
C2572 C2568 1.350 . S
C2572 C2569 1.463 . S
C2572 N2576 1.427 . S
C2573 H2563 0.929 . S
C2573 C2571 1.433 . S
C2573 N2576 1.384 . S
C2574 H2565 0.929 . S
C2574 C2566 1.378 . S
C2574 C2569 1.350 . S
C2575 H2562 0.929 . S
C2575 C2567 1.433 . S
C2575 N2577 1.384 . S
N2576 C2572 1.427 . S
N2576 C2573 1.384 . S
N2577 C2569 1.427 . S
N2577 C2575 1.384 . S
H2578 C2584 0.930 . S
H2579 C2588 0.930 . S
H2580 C2593 0.929 . S
H2581 C2591 0.929 . S
H2582 C2586 0.929 . S
H2583 C2592 0.929 . S
C2584 H2578 0.930 . S
C2584 C2585 1.367 . S
C2584 C2592 1.378 . S
C2585 C2584 1.367 . S
C2585 C2593 1.433 . S
C2586 H2582 0.929 . S
C2586 C2588 1.378 . S
C2586 C2590 1.350 . S
C2587 C2590 1.463 . S
C2587 C2592 1.350 . S
C2587 N2595 1.427 . S
C2588 H2579 0.930 . S
C2588 C2586 1.378 . S
C2588 C2589 1.402 . S
C2589 C2588 1.402 . S
C2589 C2591 1.412 1_565 S
C2590 C2586 1.350 . S
C2590 C2587 1.463 . S
C2590 N2594 1.427 . S
C2591 H2581 0.929 . S
C2591 C2589 1.412 1_545 S
C2591 N2594 1.384 1_545 S
C2592 H2583 0.929 . S
C2592 C2584 1.378 . S
C2592 C2587 1.350 . S
C2593 H2580 0.929 . S
C2593 C2585 1.433 . S
C2593 N2595 1.384 . S
N2594 C2590 1.427 . S
N2594 C2591 1.384 1_565 S
N2595 C2587 1.427 . S
N2595 C2593 1.384 . S
H2596 C2602 0.930 . S
H2597 C2606 0.930 . S
H2598 C2611 0.929 . S
H2599 C2609 0.929 . S
H2600 C2604 0.929 . S
H2601 C2610 0.929 . S
C2602 H2596 0.930 . S
C2602 C2603 1.367 . S
C2602 C2610 1.378 . S
C2603 C2602 1.367 . S
C2603 C2611 1.433 . S
C2604 H2600 0.929 . S
C2604 C2606 1.378 . S
C2604 C2608 1.350 . S
C2605 C2608 1.463 . S
C2605 C2610 1.350 . S
C2605 N2613 1.427 . S
C2606 H2597 0.930 . S
C2606 C2604 1.378 . S
C2606 C2607 1.367 . S
C2607 C2606 1.367 . S
C2607 C2609 1.433 . S
C2608 C2604 1.350 . S
C2608 C2605 1.463 . S
C2608 N2612 1.427 . S
C2609 H2599 0.929 . S
C2609 C2607 1.433 . S
C2609 N2612 1.384 . S
C2610 H2601 0.929 . S
C2610 C2602 1.378 . S
C2610 C2605 1.350 . S
C2611 H2598 0.929 . S
C2611 C2603 1.433 . S
C2611 N2613 1.384 . S
N2612 C2608 1.427 . S
N2612 C2609 1.384 . S
N2613 C2605 1.427 . S
N2613 C2611 1.384 . S
H2614 C2620 0.930 . S
H2615 C2624 0.930 . S
H2616 C2629 0.929 . S
H2617 C2627 0.929 . S
H2618 C2622 0.929 . S
H2619 C2628 0.929 . S
C2620 H2614 0.930 . S
C2620 C2621 1.367 . S
C2620 C2628 1.378 . S
C2621 C2620 1.367 . S
C2621 C2629 1.433 1_556 S
C2622 H2618 0.929 . S
C2622 C2624 1.378 . S
C2622 C2626 1.350 . S
C2623 C2626 1.470 . S
C2623 C2628 1.332 1_554 S
C2623 N2631 1.439 . S
C2624 H2615 0.930 . S
C2624 C2622 1.378 . S
C2624 C2625 1.367 . S
C2625 C2624 1.367 . S
C2625 C2627 1.433 1_554 S
C2626 C2622 1.350 . S
C2626 C2623 1.470 . S
C2626 N2630 1.427 1_554 S
C2627 H2617 0.929 . S
C2627 C2625 1.433 1_556 S
C2627 N2630 1.384 . S
C2628 H2619 0.929 . S
C2628 C2620 1.378 . S
C2628 C2623 1.332 1_556 S
C2629 H2616 0.929 . S
C2629 C2621 1.433 1_554 S
C2629 N2631 1.384 . S
N2630 C2626 1.427 1_556 S
N2630 C2627 1.384 . S
N2631 C2623 1.439 . S
N2631 C2629 1.384 . S
H2632 C2638 0.930 . S
H2633 C2642 0.930 . S
H2634 C2647 0.929 . S
H2635 C2645 0.929 . S
H2636 C2640 0.929 . S
H2637 C2646 0.929 . S
C2638 H2632 0.930 . S
C2638 C2639 1.367 . S
C2638 C2646 1.378 . S
C2639 C2638 1.367 . S
C2639 C2647 1.433 . S
C2640 H2636 0.929 . S
C2640 C2642 1.378 . S
C2640 C2644 1.350 . S
C2641 C2644 1.463 . S
C2641 C2646 1.350 . S
C2641 N2649 1.427 . S
C2642 H2633 0.930 . S
C2642 C2640 1.378 . S
C2642 C2643 1.367 . S
C2643 C2642 1.367 . S
C2643 C2645 1.433 . S
C2644 C2640 1.350 . S
C2644 C2641 1.463 . S
C2644 N2648 1.427 . S
C2645 H2635 0.929 . S
C2645 C2643 1.433 . S
C2645 N2648 1.384 . S
C2646 H2637 0.929 . S
C2646 C2638 1.378 . S
C2646 C2641 1.350 . S
C2647 H2634 0.929 . S
C2647 C2639 1.433 . S
C2647 N2649 1.384 . S
N2648 C2644 1.427 . S
N2648 C2645 1.384 . S
N2649 C2641 1.427 . S
N2649 C2647 1.384 . S
H2650 C2656 0.930 . S
H2651 C2660 0.930 . S
H2652 C2665 0.929 1_556 S
H2653 C2663 0.929 . S
H2654 C2658 0.929 1_556 S
H2655 C2664 0.929 . S
C2656 H2650 0.930 . S
C2656 C2657 1.367 . S
C2656 C2664 1.378 . S
C2657 C2656 1.367 . S
C2657 C2665 1.433 . S
C2658 H2654 0.929 1_554 S
C2658 C2660 1.378 1_554 S
C2658 C2662 1.350 . S
C2659 C2662 1.463 . S
C2659 C2664 1.350 . S
C2659 N2667 1.427 . S
C2660 H2651 0.930 . S
C2660 C2658 1.378 1_556 S
C2660 C2661 1.367 1_556 S
C2661 C2660 1.367 1_554 S
C2661 C2663 1.433 . S
C2662 C2658 1.350 . S
C2662 C2659 1.463 . S
C2662 N2666 1.427 . S
C2663 H2653 0.929 . S
C2663 C2661 1.433 . S
C2663 N2666 1.384 . S
C2664 H2655 0.929 . S
C2664 C2656 1.378 . S
C2664 C2659 1.350 . S
C2665 H2652 0.929 1_554 S
C2665 C2657 1.433 . S
C2665 N2667 1.384 . S
N2666 C2662 1.427 . S
N2666 C2663 1.384 . S
N2667 C2659 1.427 . S
N2667 C2665 1.384 . S
H2668 C2674 0.930 . S
H2669 C2678 0.930 . S
H2670 C2683 0.929 . S
H2671 C2681 0.929 . S
H2672 C2676 0.929 . S
H2673 C2682 0.929 . S
C2674 H2668 0.930 . S
C2674 C2675 1.367 . S
C2674 C2682 1.378 . S
C2675 C2674 1.367 . S
C2675 C2683 1.433 . S
C2676 H2672 0.929 . S
C2676 C2678 1.378 . S
C2676 C2680 1.350 . S
C2677 C2680 1.463 . S
C2677 C2682 1.350 . S
C2677 N2685 1.427 . S
C2678 H2669 0.930 . S
C2678 C2676 1.378 . S
C2678 C2679 1.367 . S
C2679 C2678 1.367 . S
C2679 C2681 1.433 . S
C2680 C2676 1.350 . S
C2680 C2677 1.463 . S
C2680 N2684 1.427 . S
C2681 H2671 0.929 . S
C2681 C2679 1.433 . S
C2681 N2684 1.384 . S
C2682 H2673 0.929 . S
C2682 C2674 1.378 . S
C2682 C2677 1.350 . S
C2683 H2670 0.929 . S
C2683 C2675 1.433 . S
C2683 N2685 1.384 . S
N2684 C2680 1.427 . S
N2684 C2681 1.384 . S
N2685 C2677 1.427 . S
N2685 C2683 1.384 . S
H2686 C2692 0.930 . S
H2687 C2696 0.930 . S
H2688 C2701 0.929 . S
H2689 C2699 0.929 . S
H2690 C2694 0.929 . S
H2691 C2700 0.929 . S
C2692 H2686 0.930 . S
C2692 C2693 1.367 . S
C2692 C2700 1.378 . S
C2693 C2692 1.367 . S
C2693 C2701 1.433 . S
C2694 H2690 0.929 . S
C2694 C2696 1.378 . S
C2694 C2698 1.350 . S
C2695 C2698 1.463 . S
C2695 C2700 1.350 . S
C2695 N2703 1.427 . S
C2696 H2687 0.930 . S
C2696 C2694 1.378 . S
C2696 C2697 1.367 . S
C2697 C2696 1.367 . S
C2697 C2699 1.433 . S
C2698 C2694 1.350 . S
C2698 C2695 1.463 . S
C2698 N2702 1.427 . S
C2699 H2689 0.929 . S
C2699 C2697 1.433 . S
C2699 N2702 1.384 . S
C2700 H2691 0.929 . S
C2700 C2692 1.378 . S
C2700 C2695 1.350 . S
C2701 H2688 0.929 . S
C2701 C2693 1.433 . S
C2701 N2703 1.384 . S
N2702 C2698 1.427 . S
N2702 C2699 1.384 . S
N2703 C2695 1.427 . S
N2703 C2701 1.384 . S
C983 C105 1.841 1_455 S
C987 C358 1.839 . S
C1001 C65 1.226 . S
C1005 C378 1.206 . S
C1019 C73 0.708 . S
C1023 C425 0.702 . S
C1041 C482 1.075 . S
C1037 C92 1.092 . S
C1055 C17 2.682 . S
C1059 C499 2.665 . S
C1077 C558 1.823 . S
C1073 C37 1.819 . S
C1095 C591 2.745 . S
C1091 C49 2.673 . S
C1109 C8 2.505 . S
C1113 C638 2.475 . S
C1131 C351 1.580 . S
C1127 C231 1.523 1_545 S
C1145 C241 1.447 . S
C1149 C379 1.439 . S
C1167 C418 0.471 . S
C1163 C273 0.484 1_565 S
C1185 C478 2.166 . S
C1181 C171 2.160 . S
C1199 C227 0.427 . S
C1203 C505 0.477 . S
C1221 C551 2.306 . S
C1217 C245 2.293 . S
C1239 C602 0.517 . S
C1235 C269 0.472 . S
C1257 C631 2.337 . S
C1253 C175 2.280 . S
C1275 C362 1.778 1_565 S
C1271 C162 1.806 . S
C1289 C289 2.240 . S
C1293 C658 2.217 . S
C1311 C722 1.315 . S
C1307 C330 1.332 . S
C1329 C758 1.423 1_655 S
C1325 C317 1.430 . S
C1343 C120 1.362 . S
C1347 C642 1.369 . S
C1361 C134 2.597 . S
C1365 C419 2.601 . S
C1379 C331 1.391 . S
C1383 C791 1.415 . S
C1401 C825 0.357 . S
C1397 C303 0.289 . S
C1419 C339 1.848 . S
C1415 C59 1.863 . S
C1437 C831 1.247 . S
C1433 C107 1.258 . S
C1451 C91 0.755 . S
C1455 C442 0.769 . S
C1469 C78 1.088 . S
C1473 C785 1.084 . S
C1491 C518 2.729 . S
C1487 C7 2.709 . S
C1505 C51 1.852 . S
C1509 C699 1.846 . S
C1527 C578 2.787 1_556 S
C1523 C31 2.793 . S
C1545 C859 2.481 . S
C1541 C22 2.500 1_655 S
C1563 C338 1.578 . S
C1559 C143 1.571 . S
C1581 C838 1.525 . S
C1577 C315 1.521 . S
C1595 C115 0.522 . S
C1599 C431 0.523 . S
C1613 C287 2.116 . S
C1617 C779 2.204 . S
C1631 C147 0.493 . S
C1635 C522 0.494 . S
C1653 C698 2.350 . S
C1649 C311 2.354 . S
C1667 C119 0.573 . S
C1671 C585 0.549 . S
C1685 C283 2.377 . S
C1689 C858 2.370 . S
C1703 C190 1.753 1_556 S
C1707 C345 1.744 . S
C1721 C177 2.258 . S
C1725 C671 2.244 . S
C1739 C260 1.315 . S
C1743 C545 1.328 . S
C1757 C247 1.462 . S
C1761 C739 1.450 . S
C1779 C865 1.339 . S
C1775 C274 1.311 . S
C1793 C218 2.637 . S
C1797 C438 2.637 1_565 S
C1815 C458 1.466 . S
C1811 C261 1.426 . S
C1833 C402 0.370 . S
C1829 C205 0.326 . S
C1847 C77 1.842 . S
C1851 C918 1.841 . S
C1869 C818 1.200 . S
C1865 C93 1.216 . S
C1883 C101 0.705 . S
C1887 C945 0.713 . S
C1901 C64 1.092 . S
C1905 C802 1.074 . S
C1919 C45 2.682 . S
C1923 C659 2.666 . S
C1941 C718 1.821 . S
C1937 C9 1.824 1_655 S
C1959 C751 2.745 . S
C1955 C21 2.676 . S
C1977 C878 2.476 . S
C1973 C36 2.506 . S
C1995 C911 1.581 . S
C1991 C259 1.528 . S
C2009 C185 1.447 . S
C2013 C819 1.439 . S
C2031 C938 0.508 . S
C2027 C203 0.535 . S
C2049 C798 2.166 . S
C2045 C213 2.163 . S
C2067 C665 0.440 . S
C2063 C255 0.417 . S
C2081 C189 2.289 . S
C2085 C711 2.304 . S
C2103 C762 0.552 . S
C2099 C199 0.493 . S
C2117 C217 2.272 . S
C2121 C871 2.340 . S
C2139 C922 1.773 . S
C2135 C316 1.806 . S
C2153 C135 2.244 . S
C2157 C498 2.221 . S
C2175 C562 1.302 . S
C2171 C148 1.319 . S
C2193 C598 1.410 1_565 S
C2189 C163 1.431 . S
C2211 C882 1.361 . S
C2207 C302 1.344 . S
C2225 C288 2.597 . S
C2229 C939 2.599 1_655 S
C2247 C471 1.422 . S
C2243 C149 1.403 . S
C2265 C385 0.380 . S
C2261 C121 0.296 . S
C2279 C87 1.863 . S
C2283 C899 1.848 . S
C2301 C391 1.243 . S
C2297 C79 1.251 . S
C2315 C63 0.770 . S
C2319 C962 0.759 . S
C2333 C106 1.087 . S
C2337 C465 1.078 . S
C2351 C35 2.703 . S
C2355 C678 2.728 1_556 S
C2373 C539 1.851 . S
C2369 C23 1.848 . S
C2387 C3 2.792 . S
C2391 C738 2.788 . S
C2405 C50 2.502 . S
C2409 C619 2.480 . S
C2427 C898 1.575 . S
C2423 C325 1.563 . S
C2441 C161 1.528 . S
C2445 C398 1.525 . S
C2463 C951 0.526 . S
C2459 C297 0.525 . S
C2477 C133 2.117 . S
C2481 C459 2.204 . S
C2495 C329 0.485 . S
C2499 C682 0.498 . S
C2517 C538 2.351 . S
C2513 C157 2.355 1_556 S
C2531 C301 0.548 . S
C2535 C745 0.521 . S
C2553 C618 2.371 . S
C2549 C129 2.377 . S
C2571 C905 1.736 . S
C2567 C246 1.750 . S
C2589 C511 2.230 1_665 S
C2585 C219 2.262 . S
C2603 C232 1.322 . S
C2607 C705 1.328 . S
C2625 C579 1.441 . S
C2621 C191 1.463 . S
C2639 C204 1.310 . S
C2643 C625 1.338 . S
C2657 C176 2.636 . S
C2661 C958 2.640 . S
C2679 C778 1.469 . S
C2675 C233 1.436 . S
C2697 C842 0.372 . S
C2693 C275 0.328 . S
