# Generated by pormake.
# Topology nia, (6,6)-cn, num edge types: 1
# Building blocks:
#     Node 0, Type 0, BuildingBlock: BETFAJ_clean_sbu_0, # of connection points: 6
#     Node 1, Type 0, BuildingBlock: BETFAJ_clean_sbu_0, # of connection points: 6
#     Node 2, Type 1, BuildingBlock: MIDCAF_clean_sbu_0, # of connection points: 6
#     Node 3, Type 1, BuildingBlock: MIDCAF_clean_sbu_0, # of connection points: 6
#     Edge 4, Type (0, 1), BuildingBlock: CIFDUS_clean_linker_0, # of connection points: 2
#     Edge 5, Type (0, 1), BuildingBlock: CIFDUS_clean_linker_0, # of connection points: 2
#     Edge 6, Type (0, 1), BuildingBlock: CIFDUS_clean_linker_0, # of connection points: 2
#     Edge 7, Type (0, 1), BuildingBlock: CIFDUS_clean_linker_0, # of connection points: 2
#     Edge 8, Type (0, 1), BuildingBlock: CIFDUS_clean_linker_0, # of connection points: 2
#     Edge 9, Type (0, 1), BuildingBlock: CIFDUS_clean_linker_0, # of connection points: 2
#     Edge 10, Type (0, 1), BuildingBlock: CIFDUS_clean_linker_0, # of connection points: 2
#     Edge 11, Type (0, 1), BuildingBlock: CIFDUS_clean_linker_0, # of connection points: 2
#     Edge 12, Type (0, 1), BuildingBlock: CIFDUS_clean_linker_0, # of connection points: 2
#     Edge 13, Type (0, 1), BuildingBlock: CIFDUS_clean_linker_0, # of connection points: 2
#     Edge 14, Type (0, 1), BuildingBlock: CIFDUS_clean_linker_0, # of connection points: 2
#     Edge 15, Type (0, 1), BuildingBlock: CIFDUS_clean_linker_0, # of connection points: 2
# Relax obj value: 0.347
# Max RMSD: 0.274
# Mean RMSD: 0.255
data_MOF--net-nia--node1-BETFAJ_clean_sbu_0--node2-MIDCAF_clean_sbu_0--edge1-CIFDUS_clean_linker_0
_symmetry_space_group_name_H-M    P1
_symmetry_Int_Tables_number       1
_symmetry_cell_setting            triclinic
loop_
_symmetry_equiv_pos_as_xyz
'x, y, z'
_cell_length_a     22.618437
_cell_length_b     25.469665
_cell_length_c     30.959905
_cell_angle_alpha  69.139098
_cell_angle_beta   103.07819
_cell_angle_gamma 128.17802
loop_
_atom_site_label
_atom_site_type_symbol
_atom_site_fract_x
_atom_site_fract_y
_atom_site_fract_z
_atom_type_partial_charge
Sm0 Sm 0.09882 0.07226 0.05647 0.0
Sm1 Sm 0.99741 0.95428 0.01282 0.0
C2 C 0.185 0.19228 0.07502 0.0
C3 C 0.16279 0.23134 0.08242 0.0
C4 C 0.20557 0.30344 0.06312 0.0
C5 C 0.18255 0.34069 0.06777 0.0
C6 C 0.11653 0.30622 0.092 0.0
C7 C 0.07246 0.23364 0.11012 0.0
C8 C 0.09503 0.19625 0.1049 0.0
C9 C 0.96676 0.96178 0.10494 0.0
C10 C 0.97786 0.08072 0.97559 0.0
C11 C 0.89299 0.83234 0.99876 0.0
C12 C 0.89888 0.79217 0.97803 0.0
C13 C 0.87836 0.72543 1.00359 0.0
C14 C 0.88751 0.68853 0.98487 0.0
C15 C 0.91676 0.71785 0.94025 0.0
C16 C 0.93844 0.78497 0.91501 0.0
C17 C 0.93005 0.82207 0.93382 0.0
C18 C 0.13231 0.04458 0.96514 0.0
C19 C 0.13562 0.96216 0.08214 0.0
O20 O 0.17364 0.18739 0.03289 0.0
O21 O 0.16444 0.1337 0.10682 0.0
O22 O 0.97305 0.98677 0.06159 0.0
O23 O 0.03195 0.99626 0.12439 0.0
O24 O 0.03572 0.11204 1.00278 0.0
O25 O 0.9491 0.01748 0.97453 0.0
O26 O 0.92636 0.83897 0.03906 0.0
O27 O 0.90367 0.88998 0.97062 0.0
O28 O 0.11609 0.05128 0.99822 0.0
O29 O 0.07405 0.98932 0.95422 0.0
O30 O 0.06451 0.91942 0.07008 0.0
O31 O 0.16679 0.0288 0.07339 0.0
H32 H 0.25701 0.33092 0.0448 0.0
H33 H 0.21844 0.39692 0.0544 0.0
H34 H 0.02185 0.2063 0.12926 0.0
H35 H 0.05993 0.14008 0.1188 0.0
H36 H 0.85513 0.70188 0.03792 0.0
H37 H 0.86924 0.63617 1.00453 0.0
H38 H 0.9608 0.80821 0.88045 0.0
H39 H 0.94782 0.87405 0.91356 0.0
Sm40 Sm 0.97545 0.01114 0.52593 0.0
Sm41 Sm 0.08412 0.98092 0.50019 0.0
C42 C 0.91099 0.06847 0.52706 0.0
C43 C 0.88865 0.08393 0.55882 0.0
C44 C 0.85713 0.12035 0.54022 0.0
C45 C 0.84814 0.14762 0.56786 0.0
C46 C 0.87035 0.13853 0.61451 0.0
C47 C 0.89781 0.09845 0.63397 0.0
C48 C 0.90747 0.07153 0.60603 0.0
C49 C 0.93879 0.87887 0.57779 0.0
C50 C 0.93609 0.95301 0.43579 0.0
C51 C 0.14751 0.9222 0.50011 0.0
C52 C 0.19119 0.92326 0.47093 0.0
C53 C 0.24594 0.91258 0.49194 0.0
C54 C 0.28569 0.90914 0.46594 0.0
C55 C 0.27132 0.9163 0.41832 0.0
C56 C 0.21774 0.92899 0.397 0.0
C57 C 0.17804 0.93269 0.42314 0.0
C58 C 0.12292 0.11374 0.44968 0.0
C59 C 0.12942 0.05059 0.58575 0.0
O60 O 0.87227 0.00326 0.52743 0.0
O61 O 0.98357 0.10269 0.52366 0.0
O62 O 0.98941 0.92551 0.54799 0.0
O63 O 0.90494 0.90337 0.58214 0.0
O64 O 0.93157 0.98898 0.45532 0.0
O65 O 0.98295 0.93529 0.45048 0.0
O66 O 0.18217 0.97717 0.51478 0.0
O67 O 0.07685 0.89622 0.48862 0.0
O68 O 0.07135 0.06639 0.4788 0.0
O69 O 0.15647 0.08935 0.4445 0.0
O70 O 0.13406 0.01222 0.56865 0.0
O71 O 0.07784 0.06242 0.57232 0.0
H72 H 0.84282 0.13059 0.50378 0.0
H73 H 0.82617 0.17792 0.55246 0.0
H74 H 0.91513 0.09102 0.66994 0.0
H75 H 0.93258 0.04389 0.62063 0.0
H76 H 0.25673 0.90523 0.5288 0.0
H77 H 0.32556 0.89806 0.48357 0.0
H78 H 0.20588 0.93512 0.36033 0.0
H79 H 0.13632 0.94164 0.40625 0.0
Zn80 Zn 0.40579 0.73358 0.1735 0.0
Zn81 Zn 0.41972 0.65247 0.34442 0.0
Zn82 Zn 0.41053 0.68588 0.25565 0.0
C83 C 0.56542 0.72884 0.31137 0.0
C84 C 0.32607 0.52412 0.32849 0.0
O85 O 0.35352 0.7435 0.23018 0.0
O86 O 0.39597 0.80985 0.1596 0.0
C87 C 0.54275 0.76033 0.18095 0.0
O88 O 0.53267 0.73569 0.27193 0.0
O89 O 0.52766 0.69173 0.34808 0.0
O90 O 0.3476 0.5496 0.36197 0.0
O91 O 0.3438 0.56568 0.28665 0.0
O92 O 0.494 0.75505 0.14988 0.0
O93 O 0.52581 0.74318 0.22343 0.0
O94 O 0.3256 0.58951 0.23899 0.0
O95 O 0.30743 0.64395 0.16995 0.0
C96 C 0.28633 0.58806 0.20165 0.0
O97 O 0.37418 0.73322 0.27886 0.0
O98 O 0.39437 0.7093 0.35439 0.0
C99 C 0.35634 0.78951 0.19277 0.0
C100 C 0.37443 0.73867 0.3186 0.0
Zn101 Zn 0.6726 0.27762 0.86777 0.0
Zn102 Zn 0.66393 0.34424 0.68999 0.0
Zn103 Zn 0.66152 0.30799 0.78014 0.0
C104 C 0.73838 0.47046 0.70326 0.0
C105 C 0.5114 0.24508 0.71909 0.0
O106 O 0.72067 0.25322 0.81143 0.0
O107 O 0.70619 0.21721 0.88715 0.0
C108 C 0.7608 0.4224 0.83248 0.0
O109 O 0.72163 0.42838 0.74509 0.0
O110 O 0.71938 0.44615 0.66954 0.0
O111 O 0.55204 0.2839 0.68348 0.0
O112 O 0.5414 0.24643 0.75976 0.0
O113 O 0.75136 0.37495 0.86878 0.0
O114 O 0.72709 0.40746 0.79459 0.0
O115 O 0.54351 0.24293 0.80743 0.0
O116 O 0.56871 0.23818 0.88135 0.0
C117 C 0.52157 0.22577 0.84847 0.0
O118 O 0.71313 0.2684 0.76306 0.0
O119 O 0.71864 0.30835 0.68667 0.0
C120 C 0.72995 0.22065 0.85245 0.0
C121 C 0.73171 0.27532 0.72402 0.0
H122 H 0.09737 0.83219 0.13839 0.0
H123 H 0.28579 0.03931 0.07244 0.0
H124 H 0.37083 0.00661 0.10435 0.0
H125 H 0.39278 0.91865 0.14796 0.0
H126 H 0.20783 0.71129 0.215 0.0
H127 H 0.12168 0.7447 0.18727 0.0
C128 C 0.157 0.87001 0.13109 0.0
C129 C 0.18466 0.93824 0.10272 0.0
C130 C 0.20687 0.85111 0.15047 0.0
C131 C 0.26248 0.98661 0.09416 0.0
C132 C 0.31153 0.96799 0.11246 0.0
C133 C 0.33389 0.88117 0.15742 0.0
C134 C 0.3074 0.81301 0.18466 0.0
C135 C 0.28454 0.90047 0.14047 0.0
C136 C 0.23049 0.7648 0.19567 0.0
C137 C 0.18086 0.78364 0.179 0.0
H138 H 0.21128 0.0112 0.64893 0.0
H139 H 0.18319 0.1759 0.59356 0.0
H140 H 0.29428 0.24824 0.63596 0.0
H141 H 0.40923 0.27081 0.68019 0.0
H142 H 0.43585 0.10583 0.73864 0.0
H143 H 0.31514 0.02702 0.70473 0.0
C144 C 0.22886 0.06245 0.64685 0.0
C145 C 0.18953 0.08839 0.61764 0.0
C146 C 0.29258 0.10375 0.67197 0.0
C147 C 0.21236 0.15457 0.61574 0.0
C148 C 0.27617 0.19623 0.63986 0.0
C149 C 0.38699 0.2168 0.68685 0.0
C150 C 0.43057 0.1937 0.71207 0.0
C151 C 0.31794 0.17217 0.667 0.0
C152 C 0.40232 0.12414 0.71994 0.0
C153 C 0.33384 0.07944 0.70004 0.0
H154 H 0.09739 0.29472 0.17816 0.0
H155 H 0.11008 0.41287 0.03597 0.0
H156 H 0.14833 0.511 0.06058 0.0
H157 H 0.21367 0.57144 0.11999 0.0
H158 H 0.20754 0.45661 0.26191 0.0
H159 H 0.13079 0.3479 0.2403 0.0
C160 C 0.10488 0.34068 0.15272 0.0
C161 C 0.10346 0.34805 0.10544 0.0
C162 C 0.13114 0.398 0.16706 0.0
C163 C 0.11247 0.4072 0.07259 0.0
C164 C 0.13512 0.4634 0.08665 0.0
C165 C 0.19428 0.52254 0.1465 0.0
C166 C 0.22172 0.52207 0.19206 0.0
C167 C 0.15068 0.46109 0.13349 0.0
C168 C 0.19263 0.45825 0.22617 0.0
C169 C 0.14756 0.39621 0.21382 0.0
H170 H 0.78937 0.0828 0.69132 0.0
H171 H 0.94816 0.27717 0.5956 0.0
H172 H 0.92868 0.33978 0.62805 0.0
H173 H 0.85112 0.33608 0.67397 0.0
H174 H 0.68494 0.1419 0.76573 0.0
H175 H 0.72372 0.0821 0.74598 0.0
C176 C 0.82093 0.13902 0.67867 0.0
C177 C 0.86928 0.17567 0.64099 0.0
C178 C 0.80776 0.17436 0.69667 0.0
C179 C 0.91008 0.24835 0.62439 0.0
C180 C 0.89888 0.28399 0.64281 0.0
C181 C 0.82499 0.28102 0.69047 0.0
C182 C 0.76593 0.24309 0.72136 0.0
C183 C 0.84553 0.24712 0.67749 0.0
C184 C 0.73186 0.17196 0.74268 0.0
C185 C 0.75322 0.13777 0.73078 0.0
H186 H 0.82606 0.88093 0.07168 0.0
H187 H 0.94388 0.94883 0.19279 0.0
H188 H 0.82391 0.88967 0.22918 0.0
H189 H 0.6841 0.82507 0.22377 0.0
H190 H 0.56968 0.75534 0.10248 0.0
H191 H 0.68849 0.80821 0.06952 0.0
C192 C 0.82549 0.88222 0.10624 0.0
C193 C 0.89399 0.91971 0.12922 0.0
C194 C 0.75634 0.84787 0.12702 0.0
C195 C 0.89204 0.92037 0.17418 0.0
C196 C 0.8233 0.8867 0.195 0.0
C197 C 0.68505 0.82013 0.19073 0.0
C198 C 0.6172 0.78632 0.16586 0.0
C199 C 0.75477 0.85101 0.17147 0.0
C200 C 0.62044 0.78158 0.12251 0.0
C201 C 0.68869 0.81186 0.10339 0.0
H202 H 0.82096 0.77454 0.63619 0.0
H203 H 1.00581 0.81963 0.5745 0.0
H204 H 0.96479 0.69938 0.61189 0.0
H205 H 0.87131 0.57857 0.65883 0.0
H206 H 0.68186 0.53282 0.71509 0.0
H207 H 0.73011 0.65544 0.68443 0.0
C208 C 0.85276 0.75831 0.63117 0.0
C209 C 0.91653 0.80651 0.60226 0.0
C210 C 0.82826 0.68867 0.65257 0.0
C211 C 0.95655 0.78401 0.59622 0.0
C212 C 0.93302 0.71506 0.61775 0.0
C213 C 0.84187 0.59599 0.66551 0.0
C214 C 0.77523 0.54685 0.69195 0.0
C215 C 0.86848 0.66658 0.64569 0.0
C216 C 0.73567 0.56984 0.69783 0.0
C217 C 0.76256 0.63995 0.67932 0.0
H218 H 0.20557 0.83972 0.35713 0.0
H219 H 0.41841 0.96467 0.42243 0.0
H220 H 0.47186 0.92534 0.39282 0.0
H221 H 0.45285 0.84388 0.35705 0.0
H222 H 0.23989 0.71697 0.29357 0.0
H223 H 0.1919 0.76999 0.31245 0.0
C224 C 0.26425 0.85993 0.36374 0.0
C225 C 0.30764 0.90412 0.39255 0.0
C226 C 0.29433 0.83649 0.34705 0.0
C227 C 0.38348 0.92948 0.4011 0.0
C228 C 0.41408 0.90708 0.38419 0.0
C229 C 0.3965 0.82912 0.34665 0.0
C230 C 0.34989 0.77765 0.3235 0.0
C231 C 0.3692 0.85867 0.35861 0.0
C232 C 0.27698 0.75811 0.31022 0.0
C233 C 0.2494 0.7877 0.32161 0.0
H234 H 0.17279 0.04126 0.8896 0.0
H235 H 0.26279 0.14801 0.99485 0.0
H236 H 0.3898 0.21541 0.96616 0.0
H237 H 0.47603 0.2398 0.91426 0.0
H238 H 0.38922 0.13584 0.80793 0.0
H239 H 0.26027 0.07262 0.83316 0.0
C240 C 0.22023 0.0798 0.90591 0.0
C241 C 0.20825 0.08934 0.94455 0.0
C242 C 0.29361 0.1189 0.88896 0.0
C243 C 0.27026 0.13958 0.96518 0.0
C244 C 0.34301 0.17808 0.94882 0.0
C245 C 0.42891 0.20363 0.89629 0.0
C246 C 0.44245 0.19248 0.8592 0.0
C247 C 0.35542 0.16751 0.9112 0.0
C248 C 0.38057 0.14605 0.8361 0.0
C249 C 0.30683 0.10943 0.8509 0.0
H250 H 0.20134 0.20783 0.36922 0.0
H251 H 0.10678 0.18761 0.48519 0.0
H252 H 0.15487 0.30989 0.45584 0.0
H253 H 0.2309 0.42499 0.40004 0.0
H254 H 0.32885 0.44878 0.28405 0.0
H255 H 0.27242 0.32361 0.30998 0.0
C256 C 0.19052 0.23011 0.38771 0.0
C257 C 0.14852 0.18759 0.42908 0.0
C258 C 0.21954 0.30157 0.37057 0.0
C259 C 0.13596 0.21779 0.45265 0.0
C260 C 0.16461 0.28831 0.43609 0.0
C261 C 0.23931 0.40278 0.38002 0.0
C262 C 0.28399 0.44668 0.33987 0.0
C263 C 0.20713 0.33091 0.3954 0.0
C264 C 0.29425 0.41653 0.31469 0.0
C265 C 0.26228 0.34485 0.32977 0.0
H266 H 0.84326 0.0305 0.92599 0.0
H267 H 0.03613 0.21629 0.9616 0.0
H268 H 0.98091 0.2779 0.92138 0.0
H269 H 0.87364 0.27773 0.88152 0.0
H270 H 0.67704 0.09215 0.84924 0.0
H271 H 0.73782 0.0329 0.88128 0.0
C272 C 0.8736 0.08466 0.92451 0.0
C273 C 0.94398 0.11806 0.94738 0.0
C274 C 0.84087 0.12041 0.90137 0.0
C275 C 0.98188 0.18846 0.94492 0.0
C276 C 0.95034 0.22416 0.92171 0.0
C277 C 0.84515 0.22502 0.8802 0.0
C278 C 0.77205 0.19036 0.86129 0.0
C279 C 0.87944 0.19053 0.90044 0.0
C280 C 0.73452 0.12102 0.86169 0.0
C281 C 0.76893 0.08676 0.8808 0.0
H282 H 0.87243 0.8346 0.41162 0.0
H283 H 0.87861 0.01804 0.37417 0.0
H284 H 0.77217 0.96991 0.32165 0.0
H285 H 0.66306 0.86703 0.29819 0.0
H286 H 0.64877 0.6792 0.34164 0.0
H287 H 0.77296 0.73767 0.37847 0.0
C288 C 0.85171 0.86472 0.39098 0.0
C289 C 0.88265 0.9293 0.39735 0.0
C290 C 0.78848 0.83558 0.36186 0.0
C291 C 0.85499 0.96766 0.37049 0.0
C292 C 0.79406 0.9402 0.34037 0.0
C293 C 0.68891 0.84013 0.31394 0.0
C294 C 0.64774 0.76945 0.31674 0.0
C295 C 0.75825 0.87297 0.33734 0.0
C296 C 0.68035 0.7341 0.33846 0.0
C297 C 0.75085 0.76728 0.36008 0.0
H298 H 0.84986 0.69277 0.85983 0.0
H299 H 0.97728 0.64557 0.97187 0.0
H300 H 0.95255 0.55726 0.94109 0.0
H301 H 0.87738 0.48171 0.88989 0.0
H302 H 0.73143 0.51596 0.78828 0.0
H303 H 0.78338 0.6237 0.80506 0.0
C304 C 0.87398 0.66446 0.87662 0.0
C305 C 0.91498 0.67489 0.91787 0.0
C306 C 0.8565 0.61202 0.86007 0.0
C307 C 0.94513 0.63755 0.9401 0.0
C308 C 0.93092 0.58725 0.92258 0.0
C309 C 0.85865 0.514 0.8707 0.0
C310 C 0.80288 0.49304 0.83638 0.0
C311 C 0.88402 0.57214 0.88372 0.0
C312 C 0.7778 0.53406 0.8123 0.0
C313 C 0.80594 0.59436 0.82306 0.0
loop_
_geom_bond_atom_site_label_1
_geom_bond_atom_site_label_2
_geom_bond_distance
_geom_bond_site_symmetry_2
_ccdc_geom_bond_type
Sm0 C2 2.846 . S
Sm0 O20 2.543 . S
Sm0 O21 2.450 . S
Sm0 O22 2.681 1_445 S
Sm0 O23 2.464 1_445 S
Sm0 O24 2.396 . S
Sm0 O28 2.386 1_554 S
Sm0 O31 2.408 1_545 S
Sm1 C11 2.846 . S
Sm1 O22 2.386 1_556 S
Sm1 O25 2.408 1_565 S
Sm1 O26 2.543 . S
Sm1 O27 2.450 . S
Sm1 O28 2.681 1_665 S
Sm1 O29 2.464 1_665 S
Sm1 O30 2.396 1_656 S
C2 Sm0 2.846 . S
C2 C3 1.506 . S
C2 O20 1.261 . S
C2 O21 1.242 . S
C3 C2 1.506 . S
C3 C4 1.358 . S
C3 C8 1.382 . S
C4 C3 1.358 . S
C4 C5 1.385 . S
C4 H32 0.930 . S
C5 C4 1.385 . S
C5 C6 1.395 . S
C5 H33 0.929 . S
C6 C5 1.395 . S
C6 C7 1.335 . S
C7 C6 1.335 . S
C7 C8 1.398 . S
C7 H34 0.930 . S
C8 C3 1.382 . S
C8 C7 1.398 . S
C8 H35 0.929 . S
C9 O22 1.271 . S
C9 O23 1.251 . S
C10 O24 1.252 1_656 S
C10 O25 1.272 . S
C11 Sm1 2.846 . S
C11 C12 1.506 . S
C11 O26 1.261 . S
C11 O27 1.242 . S
C12 C11 1.506 . S
C12 C13 1.358 . S
C12 C17 1.382 . S
C13 C12 1.358 . S
C13 C14 1.385 . S
C13 H36 0.930 1_556 S
C14 C13 1.385 . S
C14 C15 1.395 . S
C14 H37 0.915 1_556 S
C15 C14 1.395 . S
C15 C16 1.335 . S
C16 C15 1.335 . S
C16 C17 1.398 . S
C16 H38 0.930 . S
C17 C12 1.382 . S
C17 C16 1.398 . S
C17 H39 0.929 . S
C18 O28 1.271 . S
C18 O29 1.251 . S
C19 O30 1.252 . S
C19 O31 1.272 . S
O20 Sm0 2.543 . S
O20 C2 1.261 . S
O21 Sm0 2.450 . S
O21 C2 1.242 . S
O22 Sm0 2.681 1_665 S
O22 Sm1 2.386 1_554 S
O22 C9 1.271 . S
O23 Sm0 2.464 1_665 S
O23 C9 1.251 . S
O24 Sm0 2.396 . S
O24 C10 1.252 1_454 S
O25 Sm1 2.408 1_545 S
O25 C10 1.272 . S
O26 Sm1 2.543 . S
O26 C11 1.261 . S
O27 Sm1 2.450 . S
O27 C11 1.242 . S
O28 Sm0 2.386 1_556 S
O28 Sm1 2.681 1_445 S
O28 C18 1.271 . S
O29 Sm1 2.464 1_445 S
O29 C18 1.251 . S
O30 Sm1 2.396 1_454 S
O30 C19 1.252 . S
O31 Sm0 2.408 1_565 S
O31 C19 1.272 . S
H32 C4 0.930 . S
H33 C5 0.929 . S
H34 C7 0.930 . S
H35 C8 0.929 . S
H36 C13 0.930 1_554 S
H37 C14 0.915 1_554 S
H38 C16 0.930 . S
H39 C17 0.929 . S
Sm40 C42 2.846 1_455 S
Sm40 O60 2.543 1_455 S
Sm40 O61 2.450 1_455 S
Sm40 O62 2.681 1_545 S
Sm40 O63 2.464 1_445 S
Sm40 O64 2.396 1_445 S
Sm40 O68 2.386 . S
Sm40 O71 2.408 . S
Sm41 C51 2.846 . S
Sm41 O62 2.386 . S
Sm41 O65 2.408 1_455 S
Sm41 O66 2.543 . S
Sm41 O67 2.450 1_565 S
Sm41 O68 2.681 1_565 S
Sm41 O69 2.464 1_565 S
Sm41 O70 2.396 1_565 S
C42 Sm40 2.846 1_655 S
C42 C43 1.506 . S
C42 O60 1.261 . S
C42 O61 1.242 . S
C43 C42 1.506 . S
C43 C44 1.358 . S
C43 C48 1.382 . S
C44 C43 1.358 . S
C44 C45 1.385 . S
C44 H72 0.930 . S
C45 C44 1.385 . S
C45 C46 1.395 . S
C45 H73 0.929 . S
C46 C45 1.395 . S
C46 C47 1.335 . S
C47 C46 1.335 . S
C47 C48 1.398 . S
C47 H74 0.930 . S
C48 C43 1.382 . S
C48 C47 1.398 . S
C48 H75 0.929 1_545 S
C49 O62 1.271 1_655 S
C49 O63 1.251 . S
C50 O64 1.252 . S
C50 O65 1.272 . S
C51 Sm41 2.846 . S
C51 C52 1.506 . S
C51 O66 1.261 . S
C51 O67 1.242 1_565 S
C52 C51 1.506 . S
C52 C53 1.358 . S
C52 C57 1.382 1_565 S
C53 C52 1.358 . S
C53 C54 1.385 . S
C53 H76 0.930 . S
C54 C53 1.385 . S
C54 C55 1.395 . S
C54 H77 0.929 . S
C55 C54 1.395 . S
C55 C56 1.335 . S
C56 C55 1.335 . S
C56 C57 1.398 1_565 S
C56 H78 0.930 1_565 S
C57 C52 1.382 1_545 S
C57 C56 1.398 1_545 S
C57 H79 0.929 . S
C58 O68 1.271 . S
C58 O69 1.251 . S
C59 O70 1.252 . S
C59 O71 1.272 . S
O60 Sm40 2.543 1_655 S
O60 C42 1.261 . S
O61 Sm40 2.450 1_655 S
O61 C42 1.242 . S
O62 Sm40 2.681 1_565 S
O62 Sm41 2.386 . S
O62 C49 1.271 1_455 S
O63 Sm40 2.464 1_665 S
O63 C49 1.251 . S
O64 Sm40 2.396 1_665 S
O64 C50 1.252 . S
O65 Sm41 2.408 1_655 S
O65 C50 1.272 . S
O66 Sm41 2.543 . S
O66 C51 1.261 . S
O67 Sm41 2.450 1_545 S
O67 C51 1.242 1_545 S
O68 Sm40 2.386 . S
O68 Sm41 2.681 1_545 S
O68 C58 1.271 . S
O69 Sm41 2.464 1_545 S
O69 C58 1.251 . S
O70 Sm41 2.396 1_545 S
O70 C59 1.252 . S
O71 Sm40 2.408 . S
O71 C59 1.272 . S
H72 C44 0.930 . S
H73 C45 0.929 . S
H74 C47 0.930 . S
H75 C48 0.929 1_565 S
H76 C53 0.930 . S
H77 C54 0.929 . S
H78 C56 0.930 1_545 S
H79 C57 0.929 . S
Zn80 O86 1.920 . S
Zn80 O92 1.898 . S
Zn80 O95 1.905 . S
Zn81 O89 1.905 . S
Zn81 O90 1.898 . S
Zn81 O98 1.920 . S
Zn82 O85 2.080 . S
Zn82 O88 2.114 . S
Zn82 O91 2.120 . S
Zn82 O93 2.120 . S
Zn82 O94 2.114 . S
Zn82 O97 2.080 . S
C83 O88 1.166 . S
C83 O89 1.182 . S
C84 O90 1.167 . S
C84 O91 1.299 . S
O85 Zn82 2.080 . S
O85 C99 1.305 . S
O86 Zn80 1.920 . S
O86 C99 1.234 . S
C87 O92 1.167 . S
C87 O93 1.299 . S
O88 Zn82 2.114 . S
O88 C83 1.166 . S
O89 Zn81 1.905 . S
O89 C83 1.182 . S
O90 Zn81 1.898 . S
O90 C84 1.167 . S
O91 Zn82 2.120 . S
O91 C84 1.299 . S
O92 Zn80 1.898 . S
O92 C87 1.167 . S
O93 Zn82 2.120 . S
O93 C87 1.299 . S
O94 Zn82 2.114 . S
O94 C96 1.166 . S
O95 Zn80 1.905 . S
O95 C96 1.182 . S
C96 O94 1.166 . S
C96 O95 1.182 . S
O97 Zn82 2.080 . S
O97 C100 1.305 . S
O98 Zn81 1.920 . S
O98 C100 1.234 . S
C99 O85 1.305 . S
C99 O86 1.234 . S
C100 O97 1.305 . S
C100 O98 1.234 . S
Zn101 O107 1.920 . S
Zn101 O113 1.898 . S
Zn101 O116 1.905 . S
Zn102 O110 1.905 . S
Zn102 O111 1.898 . S
Zn102 O119 1.920 . S
Zn103 O106 2.080 . S
Zn103 O109 2.114 . S
Zn103 O112 2.120 . S
Zn103 O114 2.120 . S
Zn103 O115 2.114 . S
Zn103 O118 2.080 . S
C104 O109 1.166 . S
C104 O110 1.182 . S
C105 O111 1.167 . S
C105 O112 1.299 . S
O106 Zn103 2.080 . S
O106 C120 1.305 . S
O107 Zn101 1.920 . S
O107 C120 1.234 . S
C108 O113 1.167 . S
C108 O114 1.299 . S
O109 Zn103 2.114 . S
O109 C104 1.166 . S
O110 Zn102 1.905 . S
O110 C104 1.182 . S
O111 Zn102 1.898 . S
O111 C105 1.167 . S
O112 Zn103 2.120 . S
O112 C105 1.299 . S
O113 Zn101 1.898 . S
O113 C108 1.167 . S
O114 Zn103 2.120 . S
O114 C108 1.299 . S
O115 Zn103 2.114 . S
O115 C117 1.166 . S
O116 Zn101 1.905 . S
O116 C117 1.182 . S
C117 O115 1.166 . S
C117 O116 1.182 . S
O118 Zn103 2.080 . S
O118 C121 1.305 . S
O119 Zn102 1.920 . S
O119 C121 1.234 . S
C120 O106 1.305 . S
C120 O107 1.234 . S
C121 O118 1.305 . S
C121 O119 1.234 . S
H122 C128 0.930 . S
H123 C131 0.930 . S
H124 C132 0.930 . S
H125 C133 0.930 . S
H126 C136 0.930 . S
H127 C137 0.930 . S
C128 H122 0.930 . S
C128 C129 1.355 . S
C128 C130 1.415 . S
C129 C128 1.355 . S
C129 C131 1.419 . S
C130 C128 1.415 . S
C130 C135 1.425 . S
C130 C137 1.409 . S
C131 H123 0.930 . S
C131 C129 1.419 . S
C131 C132 1.362 . S
C132 H124 0.930 . S
C132 C131 1.362 . S
C132 C135 1.409 . S
C133 H125 0.930 . S
C133 C134 1.355 . S
C133 C135 1.415 . S
C134 C133 1.355 . S
C134 C136 1.419 . S
C135 C130 1.425 . S
C135 C132 1.409 . S
C135 C133 1.415 . S
C136 H126 0.930 . S
C136 C134 1.419 . S
C136 C137 1.362 . S
C137 H127 0.930 . S
C137 C130 1.409 . S
C137 C136 1.362 . S
H138 C144 0.930 . S
H139 C147 0.930 . S
H140 C148 0.930 . S
H141 C149 0.930 . S
H142 C152 0.930 . S
H143 C153 0.930 . S
C144 H138 0.930 . S
C144 C145 1.355 . S
C144 C146 1.415 . S
C145 C144 1.355 . S
C145 C147 1.419 . S
C146 C144 1.415 . S
C146 C151 1.425 . S
C146 C153 1.409 . S
C147 H139 0.930 . S
C147 C145 1.419 . S
C147 C148 1.362 . S
C148 H140 0.930 . S
C148 C147 1.362 . S
C148 C151 1.409 . S
C149 H141 0.930 . S
C149 C150 1.355 . S
C149 C151 1.415 . S
C150 C149 1.355 . S
C150 C152 1.419 . S
C151 C146 1.425 . S
C151 C148 1.409 . S
C151 C149 1.415 . S
C152 H142 0.930 . S
C152 C150 1.419 . S
C152 C153 1.362 . S
C153 H143 0.930 . S
C153 C146 1.409 . S
C153 C152 1.362 . S
H154 C160 0.930 . S
H155 C163 0.930 . S
H156 C164 0.930 . S
H157 C165 0.930 . S
H158 C168 0.930 . S
H159 C169 0.930 . S
C160 H154 0.930 . S
C160 C161 1.355 . S
C160 C162 1.415 . S
C161 C160 1.355 . S
C161 C163 1.419 . S
C162 C160 1.415 . S
C162 C167 1.425 . S
C162 C169 1.409 . S
C163 H155 0.930 . S
C163 C161 1.419 . S
C163 C164 1.362 . S
C164 H156 0.930 . S
C164 C163 1.362 . S
C164 C167 1.409 . S
C165 H157 0.930 . S
C165 C166 1.355 . S
C165 C167 1.415 . S
C166 C165 1.355 . S
C166 C168 1.419 . S
C167 C162 1.425 . S
C167 C164 1.409 . S
C167 C165 1.415 . S
C168 H158 0.930 . S
C168 C166 1.419 . S
C168 C169 1.362 . S
C169 H159 0.930 . S
C169 C162 1.409 . S
C169 C168 1.362 . S
H170 C176 0.930 . S
H171 C179 0.930 . S
H172 C180 0.930 . S
H173 C181 0.930 . S
H174 C184 0.930 . S
H175 C185 0.930 . S
C176 H170 0.930 . S
C176 C177 1.355 . S
C176 C178 1.415 . S
C177 C176 1.355 . S
C177 C179 1.419 . S
C178 C176 1.415 . S
C178 C183 1.425 . S
C178 C185 1.409 . S
C179 H171 0.930 . S
C179 C177 1.419 . S
C179 C180 1.362 . S
C180 H172 0.930 . S
C180 C179 1.362 . S
C180 C183 1.409 . S
C181 H173 0.930 . S
C181 C182 1.355 . S
C181 C183 1.415 . S
C182 C181 1.355 . S
C182 C184 1.419 . S
C183 C178 1.425 . S
C183 C180 1.409 . S
C183 C181 1.415 . S
C184 H174 0.930 . S
C184 C182 1.419 . S
C184 C185 1.362 . S
C185 H175 0.930 . S
C185 C178 1.409 . S
C185 C184 1.362 . S
H186 C192 0.930 . S
H187 C195 0.930 . S
H188 C196 0.930 . S
H189 C197 0.930 . S
H190 C200 0.930 . S
H191 C201 0.930 . S
C192 H186 0.930 . S
C192 C193 1.355 . S
C192 C194 1.415 . S
C193 C192 1.355 . S
C193 C195 1.419 . S
C194 C192 1.415 . S
C194 C199 1.425 . S
C194 C201 1.409 . S
C195 H187 0.930 . S
C195 C193 1.419 . S
C195 C196 1.362 . S
C196 H188 0.930 . S
C196 C195 1.362 . S
C196 C199 1.409 . S
C197 H189 0.930 . S
C197 C198 1.355 . S
C197 C199 1.415 . S
C198 C197 1.355 . S
C198 C200 1.419 . S
C199 C194 1.425 . S
C199 C196 1.409 . S
C199 C197 1.415 . S
C200 H190 0.930 . S
C200 C198 1.419 . S
C200 C201 1.362 . S
C201 H191 0.930 . S
C201 C194 1.409 . S
C201 C200 1.362 . S
H202 C208 0.930 . S
H203 C211 0.930 1_455 S
H204 C212 0.930 . S
H205 C213 0.930 . S
H206 C216 0.930 . S
H207 C217 0.930 . S
C208 H202 0.930 . S
C208 C209 1.355 . S
C208 C210 1.415 . S
C209 C208 1.355 . S
C209 C211 1.419 . S
C210 C208 1.415 . S
C210 C215 1.425 . S
C210 C217 1.409 . S
C211 H203 0.930 1_655 S
C211 C209 1.419 . S
C211 C212 1.362 . S
C212 H204 0.930 . S
C212 C211 1.362 . S
C212 C215 1.409 . S
C213 H205 0.930 . S
C213 C214 1.355 . S
C213 C215 1.415 . S
C214 C213 1.355 . S
C214 C216 1.419 . S
C215 C210 1.425 . S
C215 C212 1.409 . S
C215 C213 1.415 . S
C216 H206 0.930 . S
C216 C214 1.419 . S
C216 C217 1.362 . S
C217 H207 0.930 . S
C217 C210 1.409 . S
C217 C216 1.362 . S
H218 C224 0.930 . S
H219 C227 0.930 . S
H220 C228 0.930 . S
H221 C229 0.930 . S
H222 C232 0.930 . S
H223 C233 0.930 . S
C224 H218 0.930 . S
C224 C225 1.355 . S
C224 C226 1.415 . S
C225 C224 1.355 . S
C225 C227 1.419 . S
C226 C224 1.415 . S
C226 C231 1.425 . S
C226 C233 1.409 . S
C227 H219 0.930 . S
C227 C225 1.419 . S
C227 C228 1.362 . S
C228 H220 0.930 . S
C228 C227 1.362 . S
C228 C231 1.409 . S
C229 H221 0.930 . S
C229 C230 1.355 . S
C229 C231 1.415 . S
C230 C229 1.355 . S
C230 C232 1.419 . S
C231 C226 1.425 . S
C231 C228 1.409 . S
C231 C229 1.415 . S
C232 H222 0.930 . S
C232 C230 1.419 . S
C232 C233 1.362 . S
C233 H223 0.930 . S
C233 C226 1.409 . S
C233 C232 1.362 . S
H234 C240 0.930 . S
H235 C243 0.930 . S
H236 C244 0.930 . S
H237 C245 0.930 . S
H238 C248 0.930 . S
H239 C249 0.930 . S
C240 H234 0.930 . S
C240 C241 1.355 . S
C240 C242 1.415 . S
C241 C240 1.355 . S
C241 C243 1.419 . S
C242 C240 1.415 . S
C242 C247 1.425 . S
C242 C249 1.409 . S
C243 H235 0.930 . S
C243 C241 1.419 . S
C243 C244 1.362 . S
C244 H236 0.930 . S
C244 C243 1.362 . S
C244 C247 1.409 . S
C245 H237 0.930 . S
C245 C246 1.355 . S
C245 C247 1.415 . S
C246 C245 1.355 . S
C246 C248 1.419 . S
C247 C242 1.425 . S
C247 C244 1.409 . S
C247 C245 1.415 . S
C248 H238 0.930 . S
C248 C246 1.419 . S
C248 C249 1.362 . S
C249 H239 0.930 . S
C249 C242 1.409 . S
C249 C248 1.362 . S
H250 C256 0.930 . S
H251 C259 0.930 . S
H252 C260 0.930 . S
H253 C261 0.930 . S
H254 C264 0.930 . S
H255 C265 0.930 . S
C256 H250 0.930 . S
C256 C257 1.355 . S
C256 C258 1.415 . S
C257 C256 1.355 . S
C257 C259 1.419 . S
C258 C256 1.415 . S
C258 C263 1.425 . S
C258 C265 1.409 . S
C259 H251 0.930 . S
C259 C257 1.419 . S
C259 C260 1.362 . S
C260 H252 0.930 . S
C260 C259 1.362 . S
C260 C263 1.409 . S
C261 H253 0.930 . S
C261 C262 1.355 . S
C261 C263 1.415 . S
C262 C261 1.355 . S
C262 C264 1.419 . S
C263 C258 1.425 . S
C263 C260 1.409 . S
C263 C261 1.415 . S
C264 H254 0.930 . S
C264 C262 1.419 . S
C264 C265 1.362 . S
C265 H255 0.930 . S
C265 C258 1.409 . S
C265 C264 1.362 . S
H266 C272 0.930 . S
H267 C275 0.930 1_455 S
H268 C276 0.930 . S
H269 C277 0.930 . S
H270 C280 0.930 . S
H271 C281 0.930 . S
C272 H266 0.930 . S
C272 C273 1.355 . S
C272 C274 1.415 . S
C273 C272 1.355 . S
C273 C275 1.419 . S
C274 C272 1.415 . S
C274 C279 1.425 . S
C274 C281 1.409 . S
C275 H267 0.930 1_655 S
C275 C273 1.419 . S
C275 C276 1.362 . S
C276 H268 0.930 . S
C276 C275 1.362 . S
C276 C279 1.409 . S
C277 H269 0.930 . S
C277 C278 1.355 . S
C277 C279 1.415 . S
C278 C277 1.355 . S
C278 C280 1.419 . S
C279 C274 1.425 . S
C279 C276 1.409 . S
C279 C277 1.415 . S
C280 H270 0.930 . S
C280 C278 1.419 . S
C280 C281 1.362 . S
C281 H271 0.930 . S
C281 C274 1.409 . S
C281 C280 1.362 . S
H282 C288 0.930 . S
H283 C291 0.930 1_545 S
H284 C292 0.930 . S
H285 C293 0.930 . S
H286 C296 0.930 . S
H287 C297 0.930 . S
C288 H282 0.930 . S
C288 C289 1.355 . S
C288 C290 1.415 . S
C289 C288 1.355 . S
C289 C291 1.419 . S
C290 C288 1.415 . S
C290 C295 1.425 . S
C290 C297 1.409 . S
C291 H283 0.930 1_565 S
C291 C289 1.419 . S
C291 C292 1.362 . S
C292 H284 0.930 . S
C292 C291 1.362 . S
C292 C295 1.409 . S
C293 H285 0.930 . S
C293 C294 1.355 . S
C293 C295 1.415 . S
C294 C293 1.355 . S
C294 C296 1.419 . S
C295 C290 1.425 . S
C295 C292 1.409 . S
C295 C293 1.415 . S
C296 H286 0.930 . S
C296 C294 1.419 . S
C296 C297 1.362 . S
C297 H287 0.930 . S
C297 C290 1.409 . S
C297 C296 1.362 . S
H298 C304 0.930 . S
H299 C307 0.930 . S
H300 C308 0.930 . S
H301 C309 0.930 . S
H302 C312 0.930 . S
H303 C313 0.930 . S
C304 H298 0.930 . S
C304 C305 1.355 . S
C304 C306 1.415 . S
C305 C304 1.355 . S
C305 C307 1.419 . S
C306 C304 1.415 . S
C306 C311 1.425 . S
C306 C313 1.409 . S
C307 H299 0.930 . S
C307 C305 1.419 . S
C307 C308 1.362 . S
C308 H300 0.930 . S
C308 C307 1.362 . S
C308 C311 1.409 . S
C309 H301 0.930 . S
C309 C310 1.355 . S
C309 C311 1.415 . S
C310 C309 1.355 . S
C310 C312 1.419 . S
C311 C306 1.425 . S
C311 C308 1.409 . S
C311 C309 1.415 . S
C312 H302 0.930 . S
C312 C310 1.419 . S
C312 C313 1.362 . S
C313 H303 0.930 . S
C313 C306 1.409 . S
C313 C312 1.362 . S
C129 C19 1.856 . S
C134 C99 1.861 . S
C145 C59 1.226 . S
C150 C105 1.227 . S
C161 C6 1.044 . S
C166 C96 1.006 . S
C177 C46 1.503 . S
C182 C121 1.390 . S
C193 C9 2.093 . S
C198 C87 1.966 . S
C214 C104 2.268 . S
C209 C49 2.341 . S
C225 C55 1.364 . S
C230 C100 1.295 . S
C246 C117 1.769 . S
C241 C18 1.790 . S
C262 C84 2.054 . S
C257 C58 2.164 . S
C278 C120 2.108 . S
C273 C10 2.143 . S
C294 C83 1.439 . S
C289 C50 1.560 . S
C310 C108 0.904 . S
C305 C15 0.997 . S
