# Generated by pormake.
# Topology gar, (4,6)-cn, num edge types: 1
# Building blocks:
#     Node 0, Type 0, BuildingBlock: NAHDIM_clean_sbu_0, # of connection points: 4
#     Node 1, Type 0, BuildingBlock: NAHDIM_clean_sbu_0, # of connection points: 4
#     Node 2, Type 0, BuildingBlock: NAHDIM_clean_sbu_0, # of connection points: 4
#     Node 3, Type 0, BuildingBlock: NAHDIM_clean_sbu_0, # of connection points: 4
#     Node 4, Type 0, BuildingBlock: NAHDIM_clean_sbu_0, # of connection points: 4
#     Node 5, Type 0, BuildingBlock: NAHDIM_clean_sbu_0, # of connection points: 4
#     Node 6, Type 0, BuildingBlock: NAHDIM_clean_sbu_0, # of connection points: 4
#     Node 7, Type 0, BuildingBlock: NAHDIM_clean_sbu_0, # of connection points: 4
#     Node 8, Type 0, BuildingBlock: NAHDIM_clean_sbu_0, # of connection points: 4
#     Node 9, Type 0, BuildingBlock: NAHDIM_clean_sbu_0, # of connection points: 4
#     Node 10, Type 0, BuildingBlock: NAHDIM_clean_sbu_0, # of connection points: 4
#     Node 11, Type 0, BuildingBlock: NAHDIM_clean_sbu_0, # of connection points: 4
#     Node 12, Type 0, BuildingBlock: NAHDIM_clean_sbu_0, # of connection points: 4
#     Node 13, Type 0, BuildingBlock: NAHDIM_clean_sbu_0, # of connection points: 4
#     Node 14, Type 0, BuildingBlock: NAHDIM_clean_sbu_0, # of connection points: 4
#     Node 15, Type 0, BuildingBlock: NAHDIM_clean_sbu_0, # of connection points: 4
#     Node 16, Type 0, BuildingBlock: NAHDIM_clean_sbu_0, # of connection points: 4
#     Node 17, Type 0, BuildingBlock: NAHDIM_clean_sbu_0, # of connection points: 4
#     Node 18, Type 0, BuildingBlock: NAHDIM_clean_sbu_0, # of connection points: 4
#     Node 19, Type 0, BuildingBlock: NAHDIM_clean_sbu_0, # of connection points: 4
#     Node 20, Type 0, BuildingBlock: NAHDIM_clean_sbu_0, # of connection points: 4
#     Node 21, Type 0, BuildingBlock: NAHDIM_clean_sbu_0, # of connection points: 4
#     Node 22, Type 0, BuildingBlock: NAHDIM_clean_sbu_0, # of connection points: 4
#     Node 23, Type 0, BuildingBlock: NAHDIM_clean_sbu_0, # of connection points: 4
#     Node 24, Type 1, BuildingBlock: BETDIP_clean_sbu_0, # of connection points: 6
#     Node 25, Type 1, BuildingBlock: BETDIP_clean_sbu_0, # of connection points: 6
#     Node 26, Type 1, BuildingBlock: BETDIP_clean_sbu_0, # of connection points: 6
#     Node 27, Type 1, BuildingBlock: BETDIP_clean_sbu_0, # of connection points: 6
#     Node 28, Type 1, BuildingBlock: BETDIP_clean_sbu_0, # of connection points: 6
#     Node 29, Type 1, BuildingBlock: BETDIP_clean_sbu_0, # of connection points: 6
#     Node 30, Type 1, BuildingBlock: BETDIP_clean_sbu_0, # of connection points: 6
#     Node 31, Type 1, BuildingBlock: BETDIP_clean_sbu_0, # of connection points: 6
#     Node 32, Type 1, BuildingBlock: BETDIP_clean_sbu_0, # of connection points: 6
#     Node 33, Type 1, BuildingBlock: BETDIP_clean_sbu_0, # of connection points: 6
#     Node 34, Type 1, BuildingBlock: BETDIP_clean_sbu_0, # of connection points: 6
#     Node 35, Type 1, BuildingBlock: BETDIP_clean_sbu_0, # of connection points: 6
#     Node 36, Type 1, BuildingBlock: BETDIP_clean_sbu_0, # of connection points: 6
#     Node 37, Type 1, BuildingBlock: BETDIP_clean_sbu_0, # of connection points: 6
#     Node 38, Type 1, BuildingBlock: BETDIP_clean_sbu_0, # of connection points: 6
#     Node 39, Type 1, BuildingBlock: BETDIP_clean_sbu_0, # of connection points: 6
#     Edge 40, Type (0, 1), BuildingBlock: UVAHIK_clean_linker_0, # of connection points: 2
#     Edge 41, Type (0, 1), BuildingBlock: UVAHIK_clean_linker_0, # of connection points: 2
#     Edge 42, Type (0, 1), BuildingBlock: UVAHIK_clean_linker_0, # of connection points: 2
#     Edge 43, Type (0, 1), BuildingBlock: UVAHIK_clean_linker_0, # of connection points: 2
#     Edge 44, Type (0, 1), BuildingBlock: UVAHIK_clean_linker_0, # of connection points: 2
#     Edge 45, Type (0, 1), BuildingBlock: UVAHIK_clean_linker_0, # of connection points: 2
#     Edge 46, Type (0, 1), BuildingBlock: UVAHIK_clean_linker_0, # of connection points: 2
#     Edge 47, Type (0, 1), BuildingBlock: UVAHIK_clean_linker_0, # of connection points: 2
#     Edge 48, Type (0, 1), BuildingBlock: UVAHIK_clean_linker_0, # of connection points: 2
#     Edge 49, Type (0, 1), BuildingBlock: UVAHIK_clean_linker_0, # of connection points: 2
#     Edge 50, Type (0, 1), BuildingBlock: UVAHIK_clean_linker_0, # of connection points: 2
#     Edge 51, Type (0, 1), BuildingBlock: UVAHIK_clean_linker_0, # of connection points: 2
#     Edge 52, Type (0, 1), BuildingBlock: UVAHIK_clean_linker_0, # of connection points: 2
#     Edge 53, Type (0, 1), BuildingBlock: UVAHIK_clean_linker_0, # of connection points: 2
#     Edge 54, Type (0, 1), BuildingBlock: UVAHIK_clean_linker_0, # of connection points: 2
#     Edge 55, Type (0, 1), BuildingBlock: UVAHIK_clean_linker_0, # of connection points: 2
#     Edge 56, Type (0, 1), BuildingBlock: UVAHIK_clean_linker_0, # of connection points: 2
#     Edge 57, Type (0, 1), BuildingBlock: UVAHIK_clean_linker_0, # of connection points: 2
#     Edge 58, Type (0, 1), BuildingBlock: UVAHIK_clean_linker_0, # of connection points: 2
#     Edge 59, Type (0, 1), BuildingBlock: UVAHIK_clean_linker_0, # of connection points: 2
#     Edge 60, Type (0, 1), BuildingBlock: UVAHIK_clean_linker_0, # of connection points: 2
#     Edge 61, Type (0, 1), BuildingBlock: UVAHIK_clean_linker_0, # of connection points: 2
#     Edge 62, Type (0, 1), BuildingBlock: UVAHIK_clean_linker_0, # of connection points: 2
#     Edge 63, Type (0, 1), BuildingBlock: UVAHIK_clean_linker_0, # of connection points: 2
#     Edge 64, Type (0, 1), BuildingBlock: UVAHIK_clean_linker_0, # of connection points: 2
#     Edge 65, Type (0, 1), BuildingBlock: UVAHIK_clean_linker_0, # of connection points: 2
#     Edge 66, Type (0, 1), BuildingBlock: UVAHIK_clean_linker_0, # of connection points: 2
#     Edge 67, Type (0, 1), BuildingBlock: UVAHIK_clean_linker_0, # of connection points: 2
#     Edge 68, Type (0, 1), BuildingBlock: UVAHIK_clean_linker_0, # of connection points: 2
#     Edge 69, Type (0, 1), BuildingBlock: UVAHIK_clean_linker_0, # of connection points: 2
#     Edge 70, Type (0, 1), BuildingBlock: UVAHIK_clean_linker_0, # of connection points: 2
#     Edge 71, Type (0, 1), BuildingBlock: UVAHIK_clean_linker_0, # of connection points: 2
#     Edge 72, Type (0, 1), BuildingBlock: UVAHIK_clean_linker_0, # of connection points: 2
#     Edge 73, Type (0, 1), BuildingBlock: UVAHIK_clean_linker_0, # of connection points: 2
#     Edge 74, Type (0, 1), BuildingBlock: UVAHIK_clean_linker_0, # of connection points: 2
#     Edge 75, Type (0, 1), BuildingBlock: UVAHIK_clean_linker_0, # of connection points: 2
#     Edge 76, Type (0, 1), BuildingBlock: UVAHIK_clean_linker_0, # of connection points: 2
#     Edge 77, Type (0, 1), BuildingBlock: UVAHIK_clean_linker_0, # of connection points: 2
#     Edge 78, Type (0, 1), BuildingBlock: UVAHIK_clean_linker_0, # of connection points: 2
#     Edge 79, Type (0, 1), BuildingBlock: UVAHIK_clean_linker_0, # of connection points: 2
#     Edge 80, Type (0, 1), BuildingBlock: UVAHIK_clean_linker_0, # of connection points: 2
#     Edge 81, Type (0, 1), BuildingBlock: UVAHIK_clean_linker_0, # of connection points: 2
#     Edge 82, Type (0, 1), BuildingBlock: UVAHIK_clean_linker_0, # of connection points: 2
#     Edge 83, Type (0, 1), BuildingBlock: UVAHIK_clean_linker_0, # of connection points: 2
#     Edge 84, Type (0, 1), BuildingBlock: UVAHIK_clean_linker_0, # of connection points: 2
#     Edge 85, Type (0, 1), BuildingBlock: UVAHIK_clean_linker_0, # of connection points: 2
#     Edge 86, Type (0, 1), BuildingBlock: UVAHIK_clean_linker_0, # of connection points: 2
#     Edge 87, Type (0, 1), BuildingBlock: UVAHIK_clean_linker_0, # of connection points: 2
#     Edge 88, Type (0, 1), BuildingBlock: UVAHIK_clean_linker_0, # of connection points: 2
#     Edge 89, Type (0, 1), BuildingBlock: UVAHIK_clean_linker_0, # of connection points: 2
#     Edge 90, Type (0, 1), BuildingBlock: UVAHIK_clean_linker_0, # of connection points: 2
#     Edge 91, Type (0, 1), BuildingBlock: UVAHIK_clean_linker_0, # of connection points: 2
#     Edge 92, Type (0, 1), BuildingBlock: UVAHIK_clean_linker_0, # of connection points: 2
#     Edge 93, Type (0, 1), BuildingBlock: UVAHIK_clean_linker_0, # of connection points: 2
#     Edge 94, Type (0, 1), BuildingBlock: UVAHIK_clean_linker_0, # of connection points: 2
#     Edge 95, Type (0, 1), BuildingBlock: UVAHIK_clean_linker_0, # of connection points: 2
#     Edge 96, Type (0, 1), BuildingBlock: UVAHIK_clean_linker_0, # of connection points: 2
#     Edge 97, Type (0, 1), BuildingBlock: UVAHIK_clean_linker_0, # of connection points: 2
#     Edge 98, Type (0, 1), BuildingBlock: UVAHIK_clean_linker_0, # of connection points: 2
#     Edge 99, Type (0, 1), BuildingBlock: UVAHIK_clean_linker_0, # of connection points: 2
#     Edge 100, Type (0, 1), BuildingBlock: UVAHIK_clean_linker_0, # of connection points: 2
#     Edge 101, Type (0, 1), BuildingBlock: UVAHIK_clean_linker_0, # of connection points: 2
#     Edge 102, Type (0, 1), BuildingBlock: UVAHIK_clean_linker_0, # of connection points: 2
#     Edge 103, Type (0, 1), BuildingBlock: UVAHIK_clean_linker_0, # of connection points: 2
#     Edge 104, Type (0, 1), BuildingBlock: UVAHIK_clean_linker_0, # of connection points: 2
#     Edge 105, Type (0, 1), BuildingBlock: UVAHIK_clean_linker_0, # of connection points: 2
#     Edge 106, Type (0, 1), BuildingBlock: UVAHIK_clean_linker_0, # of connection points: 2
#     Edge 107, Type (0, 1), BuildingBlock: UVAHIK_clean_linker_0, # of connection points: 2
#     Edge 108, Type (0, 1), BuildingBlock: UVAHIK_clean_linker_0, # of connection points: 2
#     Edge 109, Type (0, 1), BuildingBlock: UVAHIK_clean_linker_0, # of connection points: 2
#     Edge 110, Type (0, 1), BuildingBlock: UVAHIK_clean_linker_0, # of connection points: 2
#     Edge 111, Type (0, 1), BuildingBlock: UVAHIK_clean_linker_0, # of connection points: 2
#     Edge 112, Type (0, 1), BuildingBlock: UVAHIK_clean_linker_0, # of connection points: 2
#     Edge 113, Type (0, 1), BuildingBlock: UVAHIK_clean_linker_0, # of connection points: 2
#     Edge 114, Type (0, 1), BuildingBlock: UVAHIK_clean_linker_0, # of connection points: 2
#     Edge 115, Type (0, 1), BuildingBlock: UVAHIK_clean_linker_0, # of connection points: 2
#     Edge 116, Type (0, 1), BuildingBlock: UVAHIK_clean_linker_0, # of connection points: 2
#     Edge 117, Type (0, 1), BuildingBlock: UVAHIK_clean_linker_0, # of connection points: 2
#     Edge 118, Type (0, 1), BuildingBlock: UVAHIK_clean_linker_0, # of connection points: 2
#     Edge 119, Type (0, 1), BuildingBlock: UVAHIK_clean_linker_0, # of connection points: 2
#     Edge 120, Type (0, 1), BuildingBlock: UVAHIK_clean_linker_0, # of connection points: 2
#     Edge 121, Type (0, 1), BuildingBlock: UVAHIK_clean_linker_0, # of connection points: 2
#     Edge 122, Type (0, 1), BuildingBlock: UVAHIK_clean_linker_0, # of connection points: 2
#     Edge 123, Type (0, 1), BuildingBlock: UVAHIK_clean_linker_0, # of connection points: 2
#     Edge 124, Type (0, 1), BuildingBlock: UVAHIK_clean_linker_0, # of connection points: 2
#     Edge 125, Type (0, 1), BuildingBlock: UVAHIK_clean_linker_0, # of connection points: 2
#     Edge 126, Type (0, 1), BuildingBlock: UVAHIK_clean_linker_0, # of connection points: 2
#     Edge 127, Type (0, 1), BuildingBlock: UVAHIK_clean_linker_0, # of connection points: 2
#     Edge 128, Type (0, 1), BuildingBlock: UVAHIK_clean_linker_0, # of connection points: 2
#     Edge 129, Type (0, 1), BuildingBlock: UVAHIK_clean_linker_0, # of connection points: 2
#     Edge 130, Type (0, 1), BuildingBlock: UVAHIK_clean_linker_0, # of connection points: 2
#     Edge 131, Type (0, 1), BuildingBlock: UVAHIK_clean_linker_0, # of connection points: 2
#     Edge 132, Type (0, 1), BuildingBlock: UVAHIK_clean_linker_0, # of connection points: 2
#     Edge 133, Type (0, 1), BuildingBlock: UVAHIK_clean_linker_0, # of connection points: 2
#     Edge 134, Type (0, 1), BuildingBlock: UVAHIK_clean_linker_0, # of connection points: 2
#     Edge 135, Type (0, 1), BuildingBlock: UVAHIK_clean_linker_0, # of connection points: 2
# Relax obj value: 0.165
# Max RMSD: 0.270
# Mean RMSD: 0.163
data_MOF--net-gar--node1-NAHDIM_clean_sbu_0--node2-BETDIP_clean_sbu_0--edge1-UVAHIK_clean_linker_0
_symmetry_space_group_name_H-M    P1
_symmetry_Int_Tables_number       1
_symmetry_cell_setting            triclinic
loop_
_symmetry_equiv_pos_as_xyz
'x, y, z'
_cell_length_a     80.523384
_cell_length_b     72.766097
_cell_length_c     69.128308
_cell_angle_alpha  97.039914
_cell_angle_beta   98.400472
_cell_angle_gamma 100.77379
loop_
_atom_site_label
_atom_site_type_symbol
_atom_site_fract_x
_atom_site_fract_y
_atom_site_fract_z
_atom_type_partial_charge
C0 C 0.05754 0.31534 0.35496 0.0
O1 O 0.0603 0.32989 0.36914 0.0
O2 O 0.03046 0.27478 0.38537 0.0
Zn3 Zn 0.02867 0.2981 0.37305 0.0
O4 O 0.03275 0.32029 0.39475 0.0
C5 C 0.99964 0.27947 0.34442 0.0
O6 O 0.009 0.26655 0.34291 0.0
O7 O 0.04547 0.30123 0.35455 0.0
C8 C 0.02105 0.32155 0.40505 0.0
O9 O 0.00665 0.30879 0.40065 0.0
C10 C 0.01755 0.26459 0.39021 0.0
O11 O 1.00254 0.26933 0.38709 0.0
O12 O 1.00542 0.29461 0.35669 0.0
C13 C 0.00802 0.73067 0.69534 0.0
O14 O 1.00615 0.73094 0.67618 0.0
O15 O 0.04114 0.72508 0.66698 0.0
Zn16 Zn 0.04267 0.74308 0.69191 0.0
O17 O 0.04192 0.7688 0.68454 0.0
C18 C 0.07221 0.73046 0.70973 0.0
O19 O 0.0644 0.71415 0.69895 0.0
O20 O 0.02302 0.73499 0.70556 0.0
C21 C 0.05561 0.78111 0.68554 0.0
O22 O 0.07048 0.77709 0.69199 0.0
C23 C 0.053 0.72759 0.65669 0.0
O24 O 0.06609 0.74193 0.66265 0.0
O25 O 0.06486 0.74444 0.7097 0.0
C26 C 0.55489 0.81221 0.84972 0.0
O27 O 0.55647 0.82862 0.86087 0.0
O28 O 0.52894 0.77508 0.88555 0.0
Zn29 Zn 0.52768 0.79716 0.87122 0.0
O30 O 0.5319 0.82073 0.89109 0.0
C31 C 0.49197 0.7802 0.85652 0.0
O32 O 0.49471 0.76783 0.8683 0.0
O33 O 0.54409 0.79797 0.85223 0.0
C34 C 0.52129 0.82069 0.90302 0.0
O35 O 0.50892 0.80571 0.90147 0.0
C36 C 0.53911 0.77648 0.90177 0.0
O37 O 0.54961 0.79274 0.90913 0.0
O38 O 0.50416 0.79372 0.85548 0.0
C39 C 0.51711 0.23474 0.19989 0.0
O40 O 0.51749 0.23302 0.18082 0.0
O41 O 0.55541 0.22893 0.18004 0.0
Zn42 Zn 0.55215 0.24926 0.20084 0.0
O43 O 0.54956 0.27242 0.1888 0.0
C44 C 0.57826 0.24492 0.23251 0.0
O45 O 0.56943 0.22747 0.23045 0.0
O46 O 0.53107 0.24083 0.21203 0.0
C47 C 0.56258 0.2834 0.18517 0.0
O48 O 0.57785 0.27953 0.18968 0.0
C49 C 0.55291 0.23039 0.16175 0.0
O50 O 0.54769 0.24527 0.15617 0.0
O51 O 0.57286 0.25632 0.22189 0.0
C52 C 0.02585 0.78989 0.15395 0.0
O53 O 0.0233 0.78814 0.13454 0.0
O54 O 0.05423 0.76742 0.12785 0.0
Zn55 Zn 0.05974 0.79263 0.14614 0.0
O56 O 0.05848 0.81423 0.13011 0.0
C57 C 0.08826 0.78102 0.16851 0.0
O58 O 0.07729 0.76468 0.16425 0.0
O59 O 0.04115 0.79212 0.16321 0.0
C60 C 0.07092 0.82794 0.1302 0.0
O61 O 0.08596 0.82826 0.14073 0.0
C62 C 0.06507 0.76185 0.11808 0.0
O63 O 0.08002 0.77319 0.11904 0.0
O64 O 0.08357 0.79558 0.16287 0.0
C65 C 0.54622 0.76152 0.40314 0.0
O66 O 0.54886 0.76358 0.42257 0.0
O67 O 0.51234 0.73306 0.42434 0.0
Zn68 Zn 0.51174 0.7562 0.41041 0.0
O69 O 0.51584 0.78089 0.42971 0.0
C70 C 0.475 0.75119 0.40145 0.0
O71 O 0.47696 0.7501 0.42045 0.0
O72 O 0.53083 0.75824 0.39389 0.0
C73 C 0.50918 0.7942 0.42374 0.0
O74 O 0.50028 0.79144 0.40576 0.0
C75 C 0.51286 0.73282 0.4428 0.0
O76 O 0.51281 0.74851 0.45441 0.0
O77 O 0.48821 0.75308 0.39315 0.0
C78 C 0.52822 0.29674 0.65531 0.0
O79 O 0.52697 0.30217 0.63781 0.0
O80 O 0.5554 0.26834 0.62647 0.0
Zn81 Zn 0.56113 0.29295 0.64594 0.0
O82 O 0.56215 0.31643 0.63226 0.0
C83 C 0.58922 0.27994 0.66825 0.0
O84 O 0.57854 0.26346 0.66296 0.0
O85 O 0.54206 0.29209 0.66249 0.0
C86 C 0.55931 0.31644 0.61365 0.0
O87 O 0.55573 0.30024 0.60164 0.0
C88 C 0.56645 0.26234 0.61736 0.0
O89 O 0.58187 0.27304 0.61944 0.0
O90 O 0.58444 0.29467 0.66325 0.0
C91 C 0.04634 0.2593 0.90477 0.0
O92 O 0.04894 0.26032 0.92412 0.0
O93 O 0.01195 0.23387 0.9265 0.0
Zn94 Zn 0.01233 0.25718 0.91259 0.0
O95 O 0.01818 0.28226 0.93125 0.0
C96 C 0.97515 0.24874 0.901 0.0
O97 O 0.97596 0.24084 0.91712 0.0
O98 O 0.03108 0.25775 0.89568 0.0
C99 C 0.00807 0.28808 0.94198 0.0
O100 O 0.99338 0.27687 0.94249 0.0
C101 C 0.01204 0.2331 0.94482 0.0
O102 O 0.01216 0.24857 0.95686 0.0
O103 O 0.98907 0.256 0.89562 0.0
C104 C 0.38436 0.07641 0.25918 0.0
O105 O 0.38334 0.06812 0.24093 0.0
O106 O 0.42015 0.04628 0.24591 0.0
Zn107 Zn 0.40645 0.046 0.2711 0.0
O108 O 0.42345 0.04901 0.29895 0.0
C109 C 0.38352 1.00515 0.25623 0.0
O110 O 0.38506 0.0081 0.23814 0.0
O111 O 0.39264 0.06968 0.27318 0.0
C112 C 0.43428 0.03853 0.3031 0.0
O113 O 0.43625 0.02583 0.28886 0.0
C114 C 0.42527 0.0323 0.23696 0.0
O115 O 0.42247 0.01609 0.2437 0.0
O116 O 0.39038 0.01864 0.27059 0.0
C117 C 0.29749 0.13666 0.50436 0.0
O118 O 0.30006 0.15523 0.50657 0.0
O119 O 0.26807 0.15981 0.52804 0.0
Zn120 Zn 0.26295 0.14176 0.50213 0.0
O121 O 0.26221 0.15648 0.47884 0.0
C122 C 0.23471 0.11947 0.51626 0.0
O123 O 0.24519 0.12531 0.53325 0.0
O124 O 0.28216 0.12716 0.50191 0.0
C125 C 0.26821 0.17422 0.481 0.0
O126 O 0.27513 0.18338 0.49878 0.0
C127 C 0.25714 0.16904 0.53336 0.0
O128 O 0.2424 0.16718 0.5215 0.0
O129 O 0.23967 0.12413 0.50053 0.0
C130 C 0.16538 0.01664 0.82102 0.0
O131 O 0.16495 0.02673 0.83799 0.0
O132 O 0.12771 0.03711 0.7807 0.0
Zn133 Zn 0.14453 0.04123 0.8061 0.0
O134 O 0.13249 0.03927 0.82929 0.0
C135 C 0.15554 0.07984 0.80117 0.0
O136 O 0.13983 0.07684 0.79124 0.0
O137 O 0.15791 0.02069 0.80509 0.0
C138 C 0.11728 0.04145 0.82976 0.0
O139 O 0.1084 0.04605 0.81425 0.0
C140 C 0.11985 0.02069 0.77212 0.0
O141 O 0.12233 1.00587 0.78036 0.0
O142 O 0.1605 0.0666 0.8093 0.0
C143 C 0.21769 0.87587 0.99975 0.0
O144 O 0.21744 0.85776 0.9996 0.0
O145 O 0.26388 0.87126 0.01048 0.0
Zn146 Zn 0.25111 0.87891 0.98669 0.0
O147 O 0.24759 0.85821 0.96341 0.0
C148 C 0.27158 0.91587 0.99513 0.0
O149 O 0.26655 0.91461 0.01225 0.0
O150 O 0.22987 0.88623 0.99386 0.0
C151 C 0.26107 0.85182 0.96181 0.0
O152 O 0.27515 0.85918 0.97468 0.0
C153 C 0.26161 0.85427 0.01377 0.0
O154 O 0.24997 0.84117 1.00168 0.0
O155 O 0.26618 0.90206 0.9811 0.0
C156 C 0.27122 0.40564 0.0374 0.0
O157 O 0.26877 0.38901 0.02639 0.0
O158 O 0.30615 0.38345 0.07324 0.0
Zn159 Zn 0.30506 0.39744 0.04939 0.0
O160 O 0.30217 0.37953 0.02357 0.0
C161 C 0.33954 0.42191 0.0653 0.0
O162 O 0.33646 0.41882 0.0829 0.0
O163 O 0.28572 0.41226 0.04855 0.0
C164 C 0.29345 0.36274 0.01808 0.0
O165 O 0.28429 0.35449 0.03004 0.0
C166 C 0.29293 0.37316 0.07741 0.0
O167 O 0.27795 0.37158 0.06617 0.0
O168 O 0.32805 0.41497 0.05017 0.0
C169 C 0.8419 0.16225 0.02957 0.0
O170 O 0.84805 0.17834 0.04151 0.0
O171 O 0.82187 0.18024 0.07037 0.0
Zn172 Zn 0.81038 0.16106 0.04652 0.0
O173 O 0.79301 0.17155 0.02994 0.0
C174 C 0.79723 0.13543 0.07273 0.0
O175 O 0.80656 0.14832 0.08714 0.0
O176 O 0.82683 0.1532 0.02973 0.0
C177 C 0.78282 0.18064 0.03734 0.0
O178 O 0.78385 0.18386 0.05664 0.0
C179 C 0.82541 0.1979 0.06974 0.0
O180 O 0.82271 0.20389 0.05261 0.0
O181 O 0.79741 0.13795 0.05489 0.0
C182 C 0.17296 0.4637 0.29278 0.0
O183 O 0.15627 0.45807 0.28718 0.0
O184 O 0.14708 0.50044 0.26983 0.0
Zn185 Zn 0.16333 0.50376 0.29816 0.0
O186 O 0.14871 0.50258 0.32242 0.0
C187 C 0.18402 0.53966 0.28759 0.0
O188 O 0.18063 0.52932 0.26997 0.0
O189 O 0.17892 0.48169 0.29796 0.0
C190 C 0.14275 0.51643 0.33027 0.0
O191 O 0.14534 0.53229 0.32282 0.0
C192 C 0.13963 0.51348 0.2641 0.0
O193 O 0.14134 0.52904 0.27672 0.0
O194 O 0.17882 0.53189 0.30196 0.0
C195 C 0.77115 0.90659 0.55151 0.0
O196 O 0.76787 0.88861 0.55354 0.0
O197 O 0.80536 0.88543 0.57609 0.0
Zn198 Zn 0.8044 0.8981 0.55124 0.0
O199 O 0.79746 0.8787 0.52632 0.0
C200 C 0.83887 0.92278 0.56458 0.0
O201 O 0.8348 0.92346 0.58234 0.0
O202 O 0.78648 0.91447 0.55065 0.0
C203 C 0.80863 0.87102 0.51914 0.0
O204 O 0.82452 0.87509 0.52873 0.0
C205 C 0.80133 0.86755 0.57539 0.0
O206 O 0.79637 0.85674 0.55807 0.0
O207 O 0.82796 0.91346 0.54982 0.0
C208 C 0.91284 0.04932 0.26471 0.0
O209 O 0.92756 0.05378 0.27699 0.0
O210 O 0.93559 0.01375 0.23433 0.0
Zn211 Zn 0.92266 0.01334 0.25698 0.0
O212 O 0.93908 0.01935 0.28287 0.0
C213 C 0.90382 0.98091 0.2701 0.0
O214 O 0.90999 0.99105 0.28761 0.0
O215 O 0.90798 0.03271 0.25499 0.0
C216 C 0.94905 0.0083 0.28725 0.0
O217 O 0.94882 0.99334 0.27439 0.0
C218 C 0.94584 0.02884 0.2328 0.0
O219 O 0.94828 0.04366 0.2466 0.0
O220 O 0.90746 0.9876 0.25474 0.0
C221 C 0.34024 0.64584 0.51717 0.0
O222 O 0.34667 0.66353 0.52519 0.0
O223 O 0.32751 0.66851 0.56215 0.0
Zn224 Zn 0.31316 0.64796 0.54092 0.0
O225 O 0.29535 0.65878 0.52543 0.0
C226 C 0.29859 0.62855 0.57087 0.0
O227 O 0.30628 0.64413 0.58302 0.0
O228 O 0.32675 0.63699 0.52213 0.0
C229 C 0.28654 0.669 0.53395 0.0
O230 O 0.2892 0.67269 0.55337 0.0
C231 C 0.33114 0.68545 0.55877 0.0
O232 O 0.32677 0.68901 0.54075 0.0
O233 O 0.30038 0.62709 0.55282 0.0
C234 C 0.4028 0.53959 0.76496 0.0
O235 O 0.40568 0.53436 0.78247 0.0
O236 O 0.43662 0.51136 0.73254 0.0
Zn237 Zn 0.42281 0.51217 0.75441 0.0
O238 O 0.43807 0.51878 0.78114 0.0
C239 C 0.40929 0.47135 0.74616 0.0
O240 O 0.4237 0.47058 0.73962 0.0
O241 O 0.40893 0.53201 0.75084 0.0
C242 C 0.44728 0.50753 0.78713 0.0
O243 O 0.44721 0.49191 0.77533 0.0
C244 C 0.44597 0.52678 0.73023 0.0
O245 O 0.44683 0.54218 0.74276 0.0
O246 O 0.40643 0.48731 0.75285 0.0
C247 C 0.67347 0.96496 0.79133 0.0
O248 O 0.65672 0.95945 0.78642 0.0
O249 O 0.64919 1.00478 0.7685 0.0
Zn250 Zn 0.66462 1.00547 0.79683 0.0
O251 O 0.65 1.00417 0.82105 0.0
C252 C 0.68525 0.04119 0.78682 0.0
O253 O 0.68063 0.03122 0.76902 0.0
O254 O 0.67964 0.98294 0.79601 0.0
C255 C 0.64423 0.01805 0.82916 0.0
O256 O 0.64682 0.03397 0.82183 0.0
C257 C 0.63452 0.99493 0.75967 0.0
O258 O 0.62643 0.98205 0.7687 0.0
O259 O 0.68082 0.03324 0.80143 0.0
C260 C 0.79799 0.63807 1.00473 0.0
O261 O 0.8007 0.65655 0.00555 0.0
O262 O 0.76887 0.66078 0.03111 0.0
Zn263 Zn 0.76379 0.64402 1.00428 0.0
O264 O 0.76374 0.65924 0.98141 0.0
C265 C 0.72926 0.6324 0.01139 0.0
O266 O 0.73334 0.64947 0.02176 0.0
O267 O 0.78269 0.62893 1.00372 0.0
C268 C 0.75668 0.67342 0.98022 0.0
O269 O 0.74876 0.67898 0.99448 0.0
C270 C 0.77637 0.67813 0.03556 0.0
O271 O 0.78202 0.68727 0.02179 0.0
O272 O 0.74025 0.62657 1.002 0.0
C273 C 0.88534 0.57826 0.76071 0.0
O274 O 0.88471 0.57025 0.74244 0.0
O275 O 0.92043 0.54747 0.74737 0.0
Zn276 Zn 0.90699 0.54762 0.77268 0.0
O277 O 0.92405 0.55057 0.8004 0.0
C278 C 0.88384 0.50717 0.7578 0.0
O279 O 0.88522 0.5103 0.73972 0.0
O280 O 0.89328 0.5713 0.77476 0.0
C281 C 0.93435 0.53954 0.8046 0.0
O282 O 0.93567 0.52633 0.7905 0.0
C283 C 0.92568 0.53334 0.73893 0.0
O284 O 0.92312 0.51747 0.74634 0.0
O285 O 0.89088 0.52047 0.77224 0.0
C286 C 0.71501 0.36181 0.52183 0.0
O287 O 0.70957 0.34349 0.52085 0.0
O288 O 0.73516 0.32396 0.50785 0.0
Zn289 Zn 0.74333 0.35122 0.50458 0.0
O290 O 0.74216 0.35111 0.47558 0.0
C291 C 0.7804 0.35537 0.51222 0.0
O292 O 0.77721 0.33948 0.49974 0.0
O293 O 0.72869 0.36795 0.51546 0.0
C294 C 0.72931 0.34169 0.46312 0.0
O295 O 0.71564 0.33349 0.46954 0.0
C296 C 0.74162 0.31476 0.52039 0.0
O297 O 0.73537 0.29654 0.51894 0.0
O298 O 0.76794 0.3624 0.51678 0.0
C299 C 0.65912 0.50335 0.31231 0.0
O300 O 0.64591 0.50144 0.32157 0.0
O301 O 0.63095 0.53249 0.27875 0.0
Zn302 Zn 0.64801 0.53732 0.30405 0.0
O303 O 0.63634 0.53618 0.32765 0.0
C304 C 0.65873 0.5755 0.29687 0.0
O305 O 0.64346 0.57176 0.28574 0.0
O306 O 0.66245 0.5176 0.30351 0.0
C307 C 0.62135 0.53902 0.32831 0.0
O308 O 0.61256 0.54371 0.31278 0.0
C309 C 0.62343 0.51615 0.26963 0.0
O310 O 0.62629 0.50109 0.27719 0.0
O311 O 0.66341 0.56295 0.30642 0.0
Tb312 Tb 0.01805 0.01699 0.0239 0.0
Tb313 Tb 0.05404 0.0365 0.04283 0.0
C314 C 0.98616 0.00964 0.01321 0.0
C315 C 0.97431 0.0219 0.00722 0.0
C316 C 0.9739 0.03849 0.01973 0.0
C317 C 0.96376 0.05085 0.01331 0.0
C318 C 0.95392 0.04704 0.99416 0.0
C319 C 0.95422 0.03034 0.98171 0.0
C320 C 0.96431 0.01787 0.98822 0.0
C321 C 0.04154 0.01386 1.00175 0.0
C322 C 0.03162 0.06172 0.02345 0.0
C323 C 0.08598 0.04283 0.05237 0.0
C324 C 0.09708 0.02892 0.05267 0.0
C325 C 0.09312 0.01283 0.03801 0.0
C326 C 0.102 0.99826 0.03959 0.0
C327 C 0.11504 0.99946 0.05583 0.0
C328 C 0.1194 0.01581 0.07021 0.0
C329 C 0.11039 0.03041 0.06869 0.0
C330 C 0.03063 0.03998 0.06487 0.0
C331 C 0.04051 0.99189 0.0429 0.0
O332 O 0.99365 0.01296 0.03181 0.0
O333 O 0.99683 1.00684 1.00113 0.0
O334 O 0.04072 0.02821 0.01338 0.0
O335 O 0.02818 1.00064 1.00135 0.0
O336 O 0.01846 0.04722 0.0219 0.0
O337 O 0.04755 0.06038 0.02994 0.0
O338 O 0.07817 0.04444 0.03484 0.0
O339 O 0.07565 0.04189 0.06535 0.0
O340 O 0.03136 0.02545 0.0534 0.0
O341 O 0.04419 0.05304 0.06543 0.0
O342 O 0.05358 1.00608 0.04306 0.0
O343 O 0.02446 0.99355 0.03778 0.0
H344 H 0.98157 0.04211 0.03443 0.0
H345 H 0.96354 0.06334 0.02346 0.0
H346 H 0.94687 0.02704 0.96685 0.0
H347 H 0.96457 1.00525 0.97826 0.0
H348 H 0.08281 0.01122 0.02556 0.0
H349 H 0.09859 0.98599 0.02812 0.0
H350 H 0.12943 0.01706 0.08287 0.0
H351 H 0.11348 0.0426 0.08026 0.0
Tb352 Tb 0.28721 0.76719 0.2643 0.0
Tb353 Tb 0.28215 0.78251 0.30296 0.0
C354 C 0.28881 0.7598 0.22824 0.0
C355 C 0.29707 0.76938 0.21358 0.0
C356 C 0.29726 0.78854 0.21249 0.0
C357 C 0.30432 0.79699 0.19766 0.0
C358 C 0.31132 0.78642 0.18371 0.0
C359 C 0.3118 0.76747 0.18545 0.0
C360 C 0.3047 0.75903 0.20025 0.0
C361 C 0.31083 0.76339 0.29336 0.0
C362 C 0.30167 0.81186 0.28032 0.0
C363 C 0.28053 0.78959 0.33907 0.0
C364 C 0.27194 0.77999 0.35359 0.0
C365 C 0.27409 0.76191 0.35711 0.0
C366 C 0.26648 0.75354 0.37165 0.0
C367 C 0.25642 0.76296 0.38283 0.0
C368 C 0.25387 0.7808 0.37878 0.0
C369 C 0.26162 0.78925 0.36437 0.0
C370 C 0.25826 0.78573 0.27371 0.0
C371 C 0.26753 0.73783 0.28674 0.0
O372 O 0.27639 0.76669 0.23474 0.0
O373 O 0.29918 0.75531 0.24237 0.0
O374 O 0.30458 0.77792 0.29182 0.0
O375 O 0.30412 0.75064 0.27813 0.0
O376 O 0.29669 0.79817 0.26476 0.0
O377 O 0.29914 0.80814 0.29805 0.0
O378 O 0.2928 0.7825 0.33248 0.0
O379 O 0.27045 0.79464 0.32504 0.0
O380 O 0.26482 0.7715 0.27557 0.0
O381 O 0.26478 0.79865 0.28887 0.0
O382 O 0.27243 0.75146 0.30239 0.0
O383 O 0.27013 0.74169 0.26908 0.0
H384 H 0.29152 0.79683 0.22272 0.0
H385 H 0.30353 0.81154 0.19658 0.0
H386 H 0.31729 0.75904 0.17505 0.0
H387 H 0.30483 0.74427 0.20103 0.0
H388 H 0.2819 0.75437 0.34892 0.0
H389 H 0.269 0.73994 0.37455 0.0
H390 H 0.24601 0.78833 0.38688 0.0
H391 H 0.25971 0.80316 0.36177 0.0
Tb392 Tb 0.55552 0.02769 0.53027 0.0
Tb393 Tb 0.5178 0.02135 0.53718 0.0
C394 C 0.58741 0.02976 0.53782 0.0
C395 C 0.60113 0.02034 0.53238 0.0
C396 C 0.6182 0.03021 0.53791 0.0
C397 C 0.63171 0.02092 0.53592 0.0
C398 C 0.62844 1.00148 0.52834 0.0
C399 C 0.61123 0.9918 0.52204 0.0
C400 C 0.5977 1.00113 0.52407 0.0
C401 C 0.53399 0.02802 0.49642 0.0
C402 C 0.53175 0.98657 0.51932 0.0
C403 C 0.48654 0.02036 0.53826 0.0
C404 C 0.47282 0.03104 0.53492 0.0
C405 C 0.4739 0.04575 0.52347 0.0
C406 C 0.46004 0.05477 0.5198 0.0
C407 C 0.44491 0.04917 0.52748 0.0
C408 C 0.44416 0.0347 0.53928 0.0
C409 C 0.45795 0.02575 0.54292 0.0
C410 C 0.5409 0.01511 0.56638 0.0
C411 C 0.54015 0.06327 0.54226 0.0
O412 O 0.57627 0.02007 0.54677 0.0
O413 O 0.58024 0.0391 0.52502 0.0
O414 O 0.5308 0.02598 0.51345 0.0
O415 O 0.55051 0.0295 0.49804 0.0
O416 O 0.54756 0.9969 0.52422 0.0
O417 O 0.51797 0.99376 0.52097 0.0
O418 O 0.49225 0.0136 0.52264 0.0
O419 O 0.49882 0.02711 0.55349 0.0
O420 O 0.54289 0.02806 0.55569 0.0
O421 O 0.52522 1.00566 0.56115 0.0
O422 O 0.52461 0.05219 0.53892 0.0
O423 O 0.55425 0.05647 0.54165 0.0
H424 H 0.62112 0.04497 0.54456 0.0
H425 H 0.64472 0.02881 0.54119 0.0
H426 H 0.60821 0.97691 0.51586 0.0
H427 H 0.58458 0.99322 0.51977 0.0
H428 H 0.48531 0.05005 0.5172 0.0
H429 H 0.46102 0.06581 0.5106 0.0
H430 H 0.4329 0.03028 0.54577 0.0
H431 H 0.45691 0.01448 0.55186 0.0
Tb432 Tb 0.26526 0.2768 0.77055 0.0
Tb433 Tb 0.30275 0.2723 0.7782 0.0
C434 C 0.23363 0.27489 0.77011 0.0
C435 C 0.2203 0.27186 0.78269 0.0
C436 C 0.20483 0.25895 0.7749 0.0
C437 C 0.19119 0.25706 0.78542 0.0
C438 C 0.19265 0.26813 0.80401 0.0
C439 C 0.20841 0.28061 0.81213 0.0
C440 C 0.2221 0.28247 0.80158 0.0
C441 C 0.28782 0.30439 0.76219 0.0
C442 C 0.28691 0.2861 0.81431 0.0
C443 C 0.33438 0.27347 0.77923 0.0
C444 C 0.34798 0.27527 0.76677 0.0
C445 C 0.35568 0.29295 0.76242 0.0
C446 C 0.3698 0.29466 0.75258 0.0
C447 C 0.37674 0.27881 0.74717 0.0
C448 C 0.36886 0.2611 0.75124 0.0
C449 C 0.35468 0.25936 0.76092 0.0
C450 C 0.27971 0.24447 0.78562 0.0
C451 C 0.28091 0.26273 0.73427 0.0
O452 O 0.24017 0.26034 0.76457 0.0
O453 O 0.24518 0.29075 0.7745 0.0
O454 O 0.29003 0.29526 0.77635 0.0
O455 O 0.27189 0.29983 0.75368 0.0
O456 O 0.27162 0.28026 0.8029 0.0
O457 O 0.30134 0.28656 0.80721 0.0
O458 O 0.32796 0.28835 0.78393 0.0
O459 O 0.32267 0.25776 0.77546 0.0
O460 O 0.2781 0.2539 0.77169 0.0
O461 O 0.29522 0.24965 0.79547 0.0
O462 O 0.29631 0.26784 0.74568 0.0
O463 O 0.26656 0.2631 0.74138 0.0
H464 H 0.20314 0.25058 0.76039 0.0
H465 H 0.17942 0.24701 0.77887 0.0
H466 H 0.21 0.28944 0.82634 0.0
H467 H 0.23391 0.29253 0.80799 0.0
H468 H 0.35116 0.30559 0.76711 0.0
H469 H 0.37568 0.30855 0.74988 0.0
H470 H 0.37377 0.24857 0.74711 0.0
H471 H 0.34922 0.2456 0.76429 0.0
Tb472 Tb 0.03678 0.03682 0.53588 0.0
Tb473 Tb 0.03474 0.99558 0.52461 0.0
C474 C 0.04374 0.07223 0.53844 0.0
C475 C 0.04119 0.08583 0.5249 0.0
C476 C 0.0529 0.10315 0.52771 0.0
C477 C 0.05091 0.11616 0.51476 0.0
C478 C 0.03714 0.112 0.49876 0.0
C479 C 0.02542 0.09457 0.49597 0.0
C480 C 0.02745 0.08156 0.50893 0.0
C481 C 0.00861 0.01504 0.54179 0.0
C482 C 0.02348 0.0169 0.49071 0.0
C483 C 0.02935 0.9603 0.52288 0.0
C484 C 0.0308 0.94773 0.53787 0.0
C485 C 0.02413 0.95064 0.55543 0.0
C486 C 0.02679 0.93938 0.5701 0.0
C487 C 0.03632 0.92524 0.56753 0.0
C488 C 0.04283 0.92225 0.54989 0.0
C489 C 0.04003 0.93337 0.53515 0.0
C490 C 0.06301 0.0179 0.51941 0.0
C491 C 0.0471 0.01504 0.56971 0.0
O492 O 0.05447 0.06147 0.53433 0.0
O493 O 0.02985 0.06277 0.54325 0.0
O494 O 0.01608 0.01258 0.52715 0.0
O495 O 0.01632 0.03076 0.55309 0.0
O496 O 0.02962 0.03281 0.50335 0.0
O497 O 0.02238 1.00011 0.49636 0.0
O498 O 0.01721 0.97003 0.5231 0.0
O499 O 0.04389 0.97051 0.52054 0.0
O500 O 0.05526 0.01974 0.53383 0.0
O501 O 0.05535 1.00251 0.50752 0.0
O502 O 0.03994 0.99938 0.55712 0.0
O503 O 0.04954 0.03177 0.56385 0.0
H504 H 0.0636 0.10662 0.53995 0.0
H505 H 0.06001 0.12958 0.51741 0.0
H506 H 0.0148 0.09091 0.48365 0.0
H507 H 0.01833 0.06817 0.50648 0.0
H508 H 0.01714 0.96181 0.55801 0.0
H509 H 0.02176 0.94204 0.58364 0.0
H510 H 0.05006 0.91128 0.54748 0.0
H511 H 0.04533 0.93097 0.52175 0.0
Tb512 Tb 0.28658 0.7623 0.73948 0.0
Tb513 Tb 0.29148 0.80425 0.75636 0.0
C514 C 0.28321 0.73055 0.71903 0.0
C515 C 0.29171 0.71477 0.72214 0.0
C516 C 0.30487 0.71678 0.73843 0.0
C517 C 0.31286 0.70176 0.74176 0.0
C518 C 0.30783 0.68446 0.72882 0.0
C519 C 0.29472 0.68256 0.71239 0.0
C520 C 0.28668 0.69764 0.70911 0.0
C521 C 0.28772 0.76954 0.77799 0.0
C522 C 0.32251 0.78452 0.76235 0.0
C523 C 0.29024 0.83658 0.7726 0.0
C524 C 0.27744 0.8459 0.78049 0.0
C525 C 0.28276 0.86045 0.79671 0.0
C526 C 0.271 0.87049 0.80346 0.0
C527 C 0.25371 0.86607 0.7941 0.0
C528 C 0.24831 0.85091 0.77836 0.0
C529 C 0.26009 0.84099 0.77155 0.0
C530 C 0.30146 0.79654 0.72218 0.0
C531 C 0.25412 0.78041 0.7371 0.0
O532 O 0.29324 0.74593 0.71593 0.0
O533 O 0.27323 0.73413 0.73181 0.0
O534 O 0.28127 0.77812 0.76513 0.0
O535 O 0.292 0.7548 0.76929 0.0
O536 O 0.31434 0.77133 0.74734 0.0
O537 O 0.31501 0.79749 0.77048 0.0
O538 O 0.29543 0.82379 0.78241 0.0
O539 O 0.28749 0.83136 0.75335 0.0
O540 O 0.28838 0.78808 0.72776 0.0
O541 O 0.30942 0.81043 0.73582 0.0
O542 O 0.26348 0.79578 0.74879 0.0
O543 O 0.26093 0.76645 0.72993 0.0
H544 H 0.30896 0.72999 0.74858 0.0
H545 H 0.3231 0.70375 0.75435 0.0
H546 H 0.29051 0.66935 0.70226 0.0
H547 H 0.2765 0.69589 0.69648 0.0
H548 H 0.29611 0.86442 0.80378 0.0
H549 H 0.27563 0.88223 0.81546 0.0
H550 H 0.23504 0.84697 0.77101 0.0
H551 H 0.25574 0.82985 0.75896 0.0
Tb552 Tb 0.51998 0.02661 0.01923 0.0
Tb553 Tb 0.55137 0.02717 0.04855 0.0
C554 C 0.49098 0.01792 0.99752 0.0
C555 C 0.47298 0.01844 0.99871 0.0
C556 C 0.46483 0.01055 0.01329 0.0
C557 C 0.44726 0.00947 0.01274 0.0
C558 C 0.43756 0.01635 0.99767 0.0
C559 C 0.44599 0.0251 0.98372 0.0
C560 C 0.46352 0.02605 0.9842 0.0
C561 C 0.53832 0.06044 0.03439 0.0
C562 C 0.51687 0.02757 0.06577 0.0
C563 C 0.58021 0.0363 0.0706 0.0
C564 C 0.59827 0.03516 0.07072 0.0
C565 C 0.6073 0.04193 0.05625 0.0
C566 C 0.62497 0.04281 0.0582 0.0
C567 C 0.63388 0.03687 0.07458 0.0
C568 C 0.62458 0.02922 0.08846 0.0
C569 C 0.60697 0.02845 0.08658 0.0
C570 C 0.53339 0.99313 0.03276 0.0
C571 C 0.55438 0.02607 1.00183 0.0
O572 O 0.49788 1.006 0.00716 0.0
O573 O 0.50145 0.03431 0.99897 0.0
O574 O 0.53525 0.04648 0.04329 0.0
O575 O 0.5297 0.05619 0.01654 0.0
O576 O 0.50881 0.02396 0.04696 0.0
O577 O 0.53392 0.03138 0.0698 0.0
O578 O 0.57387 0.04755 0.05943 0.0
O579 O 0.56938 0.02035 0.07014 0.0
O580 O 0.53625 1.00744 0.02438 0.0
O581 O 0.54214 0.99724 0.05057 0.0
O582 O 0.56251 0.02925 0.02064 0.0
O583 O 0.53732 0.02269 0.99786 0.0
H584 H 0.47188 1.00467 0.02474 0.0
H585 H 0.44116 1.00246 0.0236 0.0
H586 H 0.43897 0.03083 0.97213 0.0
H587 H 0.46961 0.0323 0.97289 0.0
H588 H 0.60087 0.04714 0.04382 0.0
H589 H 0.63174 0.04896 0.04734 0.0
H590 H 0.631 0.02423 0.10106 0.0
H591 H 0.60021 0.02312 0.09786 0.0
Tb592 Tb 0.26713 0.26083 0.27104 0.0
Tb593 Tb 0.29993 0.2869 0.28827 0.0
C594 C 0.23635 0.24397 0.26544 0.0
C595 C 0.22065 0.25141 0.26656 0.0
C596 C 0.21914 0.26314 0.28366 0.0
C597 C 0.20484 0.27126 0.28413 0.0
C598 C 0.19176 0.26802 0.26748 0.0
C599 C 0.19324 0.25621 0.25038 0.0
C600 C 0.20756 0.24795 0.24995 0.0
C601 C 0.28456 0.27428 0.2446 0.0
C602 C 0.26759 0.30572 0.28504 0.0
C603 C 0.33052 0.30439 0.29292 0.0
C604 C 0.34515 0.2984 0.28554 0.0
C605 C 0.34225 0.28494 0.26839 0.0
C606 C 0.35585 0.27832 0.26176 0.0
C607 C 0.37272 0.28522 0.27196 0.0
C608 C 0.37564 0.29883 0.28911 0.0
C609 C 0.3619 0.30533 0.29589 0.0
C610 C 0.28243 0.27342 0.31457 0.0
C611 C 0.29918 0.24186 0.27473 0.0
O612 O 0.2469 0.24556 0.28217 0.0
O613 O 0.24437 0.24861 0.25105 0.0
O614 O 0.28302 0.2832 0.26084 0.0
O615 O 0.27547 0.2572 0.24239 0.0
O616 O 0.25863 0.28798 0.27949 0.0
O617 O 0.28463 0.30907 0.28855 0.0
O618 O 0.3184 0.30671 0.27923 0.0
O619 O 0.32439 0.29486 0.30608 0.0
O620 O 0.2841 0.26457 0.29837 0.0
O621 O 0.29165 0.29047 0.317 0.0
O622 O 0.30812 0.25972 0.27856 0.0
O623 O 0.28219 0.23857 0.27269 0.0
H624 H 0.22909 0.26625 0.29667 0.0
H625 H 0.20396 0.27992 0.2977 0.0
H626 H 0.18345 0.25352 0.23726 0.0
H627 H 0.20855 0.23911 0.23655 0.0
H628 H 0.3294 0.27939 0.26014 0.0
H629 H 0.35308 0.26758 0.24875 0.0
H630 H 0.38851 0.30455 0.29718 0.0
H631 H 0.36434 0.31568 0.30919 0.0
Tb632 Tb 0.53631 0.5383 0.03631 0.0
Tb633 Tb 0.53446 0.49733 0.02356 0.0
C634 C 0.54234 0.57387 0.04135 0.0
C635 C 0.53978 0.58909 0.02994 0.0
C636 C 0.5384 0.58642 0.00928 0.0
C637 C 0.53645 0.60138 0.99886 0.0
C638 C 0.53588 0.61918 0.00897 0.0
C639 C 0.53694 0.62161 0.02964 0.0
C640 C 0.53887 0.60667 0.04002 0.0
C641 C 0.50867 0.51566 0.04241 0.0
C642 C 0.52216 0.5197 0.99105 0.0
C643 C 0.5287 0.46185 0.02011 0.0
C644 C 0.53207 0.44845 0.03363 0.0
C645 C 0.52114 0.43063 0.03097 0.0
C646 C 0.52382 0.41801 0.04421 0.0
C647 C 0.53748 0.42309 0.06035 0.0
C648 C 0.54847 0.44098 0.0629 0.0
C649 C 0.54578 0.45356 0.04964 0.0
C650 C 0.56247 0.5201 0.01823 0.0
C651 C 0.54827 0.51558 0.0688 0.0
O652 O 0.5533 0.56381 0.03617 0.0
O653 O 0.52843 0.56346 0.04502 0.0
O654 O 0.51572 0.51396 0.02733 0.0
O655 O 0.51663 0.53095 0.05424 0.0
O656 O 0.52887 0.53538 1.00388 0.0
O657 O 0.52091 0.50278 0.99637 0.0
O658 O 0.51748 0.4719 0.02439 0.0
O659 O 0.54222 0.47204 0.01529 0.0
O660 O 0.55495 0.5216 0.03291 0.0
O661 O 0.55483 0.50474 0.0063 0.0
O662 O 0.54124 0.50011 0.0559 0.0
O663 O 0.54996 0.53256 0.06351 0.0
H664 H 0.53908 0.57291 1.00126 0.0
H665 H 0.53583 0.59914 0.98296 0.0
H666 H 0.53628 0.63508 0.03779 0.0
H667 H 0.53981 0.60888 0.05597 0.0
H668 H 0.51049 0.4265 0.0187 0.0
H669 H 0.51528 0.40424 0.04175 0.0
H670 H 0.55896 0.44538 0.07532 0.0
H671 H 0.55431 0.46734 0.052 0.0
Tb672 Tb 0.78606 0.26147 0.25478 0.0
Tb673 Tb 0.79725 0.2983 0.28343 0.0
C674 C 0.78503 0.23421 0.2283 0.0
C675 C 0.79535 0.21964 0.22842 0.0
C676 C 0.79593 0.20796 0.21094 0.0
C677 C 0.80621 0.19442 0.2114 0.0
C678 C 0.81614 0.19259 0.22933 0.0
C679 C 0.81548 0.20441 0.24674 0.0
C680 C 0.80519 0.21778 0.24628 0.0
C681 C 0.78058 0.25916 0.2912 0.0
C682 C 0.82449 0.2743 0.27912 0.0
C683 C 0.79926 0.32637 0.30942 0.0
C684 C 0.78934 0.34128 0.31069 0.0
C685 C 0.78731 0.34996 0.32919 0.0
C686 C 0.77712 0.36351 0.33038 0.0
C687 C 0.76891 0.3686 0.31305 0.0
C688 C 0.77094 0.35977 0.29455 0.0
C689 C 0.78099 0.34615 0.29338 0.0
C690 C 0.80184 0.30005 0.24654 0.0
C691 C 0.75823 0.28401 0.26129 0.0
O692 O 0.79369 0.25134 0.22845 0.0
O693 O 0.7746 0.23375 0.24116 0.0
O694 O 0.79325 0.26909 0.28609 0.0
O695 O 0.77119 0.2486 0.27555 0.0
O696 O 0.81403 0.26477 0.26296 0.0
O697 O 0.8194 0.28629 0.29179 0.0
O698 O 0.79064 0.30943 0.30997 0.0
O699 O 0.80875 0.32643 0.2956 0.0
O700 O 0.7893 0.29061 0.25223 0.0
O701 O 0.81227 0.30984 0.26191 0.0
O702 O 0.7692 0.29422 0.27672 0.0
O703 O 0.76318 0.27263 0.24785 0.0
H704 H 0.78851 0.20936 0.19701 0.0
H705 H 0.80657 0.18555 0.19775 0.0
H706 H 0.82273 0.20314 0.26082 0.0
H707 H 0.80488 0.22667 0.25994 0.0
H708 H 0.79348 0.34613 0.34268 0.0
H709 H 0.77578 0.37013 0.34483 0.0
H710 H 0.7645 0.36315 0.28096 0.0
H711 H 0.7821 0.33928 0.27894 0.0
Tb712 Tb 0.01661 0.52272 0.5196 0.0
Tb713 Tb 0.04939 0.52793 0.5486 0.0
C714 C 0.98686 0.50991 0.50046 0.0
C715 C 0.97114 0.49873 0.50514 0.0
C716 C 0.97179 0.48337 0.51552 0.0
C717 C 0.95673 0.47258 0.51941 0.0
C718 C 0.94073 0.47705 0.51323 0.0
C719 C 0.94022 0.49278 0.50328 0.0
C720 C 0.95528 0.50344 0.49921 0.0
C721 C 0.0332 0.55785 0.53087 0.0
C722 C 0.01541 0.52544 0.56636 0.0
C723 C 0.07835 0.54058 0.56974 0.0
C724 C 0.09649 0.53927 0.57105 0.0
C725 C 0.10585 0.54387 0.55606 0.0
C726 C 0.12354 0.54469 0.55891 0.0
C727 C 0.13215 0.54091 0.57676 0.0
C728 C 0.12255 0.53544 0.59129 0.0
C729 C 0.10492 0.53471 0.58848 0.0
C730 C 0.03355 0.49229 0.53578 0.0
C731 C 0.05082 0.52502 0.50123 0.0
O732 O 0.99962 0.50122 0.49949 0.0
O733 O 0.9919 0.52724 0.50994 0.0
O734 O 0.03151 0.54504 0.54153 0.0
O735 O 0.02415 0.55156 0.51337 0.0
O736 O 0.00747 0.51779 0.54805 0.0
O737 O 0.03203 0.53314 0.56951 0.0
O738 O 0.07177 0.5491 0.55572 0.0
O739 O 0.06773 0.52552 0.57243 0.0
O740 O 0.03478 0.50597 0.52637 0.0
O741 O 0.04299 0.49811 0.55309 0.0
O742 O 0.05932 0.52836 0.5199 0.0
O743 O 0.03373 0.52167 0.49749 0.0
H744 H 0.98391 0.47953 0.52044 0.0
H745 H 0.95764 0.46047 0.52687 0.0
H746 H 0.92819 0.4969 0.49866 0.0
H747 H 0.95454 0.51536 0.49138 0.0
H748 H 0.09965 0.54743 0.54244 0.0
H749 H 0.13058 0.54913 0.54749 0.0
H750 H 0.12874 0.53215 0.60505 0.0
H751 H 0.09793 0.5311 0.60022 0.0
Tb752 Tb 0.76633 0.77473 0.27215 0.0
Tb753 Tb 0.80423 0.77277 0.28214 0.0
C754 C 0.73427 0.77058 0.26982 0.0
C755 C 0.72074 0.76926 0.28225 0.0
C756 C 0.70555 0.75557 0.27569 0.0
C757 C 0.69185 0.75482 0.28608 0.0
C758 C 0.69297 0.76782 0.3033 0.0
C759 C 0.70844 0.7812 0.31021 0.0
C760 C 0.7222 0.78193 0.29978 0.0
C761 C 0.78865 0.80446 0.26773 0.0
C762 C 0.78618 0.7843 0.31716 0.0
C763 C 0.83632 0.77739 0.28474 0.0
C764 C 0.84988 0.77712 0.27248 0.0
C765 C 0.85012 0.78627 0.25571 0.0
C766 C 0.86403 0.78709 0.24553 0.0
C767 C 0.87794 0.77881 0.25192 0.0
C768 C 0.87733 0.76922 0.26837 0.0
C769 C 0.86348 0.76844 0.27853 0.0
C770 C 0.78196 0.74295 0.28655 0.0
C771 C 0.78444 0.76278 0.23709 0.0
O772 O 0.74218 0.75645 0.26827 0.0
O773 O 0.74471 0.78701 0.27128 0.0
O774 O 0.79006 0.79456 0.28131 0.0
O775 O 0.77372 0.79859 0.25652 0.0
O776 O 0.7713 0.77871 0.30478 0.0
O777 O 0.80109 0.78533 0.31103 0.0
O778 O 0.82795 0.79118 0.28407 0.0
O779 O 0.82631 0.76114 0.28528 0.0
O780 O 0.7805 0.75294 0.27306 0.0
O781 O 0.79695 0.74876 0.29764 0.0
O782 O 0.79926 0.76787 0.2496 0.0
O783 O 0.76948 0.76251 0.24299 0.0
H784 H 0.70416 0.74561 0.26225 0.0
H785 H 0.68031 0.74407 0.28052 0.0
H786 H 0.70976 0.7915 0.32335 0.0
H787 H 0.7338 0.79262 0.30521 0.0
H788 H 0.83977 0.79309 0.25072 0.0
H789 H 0.8641 0.79468 0.23301 0.0
H790 H 0.8876 0.76235 0.27349 0.0
H791 H 0.86356 0.76129 0.29139 0.0
Tb792 Tb 0.78891 0.26936 0.76352 0.0
Tb793 Tb 0.7838 0.2835 0.80259 0.0
C794 C 0.79144 0.26547 0.72761 0.0
C795 C 0.7981 0.27901 0.71496 0.0
C796 C 0.7911 0.29504 0.7125 0.0
C797 C 0.79763 0.30777 0.70057 0.0
C798 C 0.81139 0.30487 0.69098 0.0
C799 C 0.81874 0.28915 0.69404 0.0
C800 C 0.81209 0.2763 0.70583 0.0
C801 C 0.81251 0.26481 0.79207 0.0
C802 C 0.80275 0.31369 0.78084 0.0
C803 C 0.78217 0.28913 0.83881 0.0
C804 C 0.77208 0.27985 0.85243 0.0
C805 C 0.77461 0.2625 0.85794 0.0
C806 C 0.76569 0.25453 0.87176 0.0
C807 C 0.75397 0.26366 0.88031 0.0
C808 C 0.7511 0.28075 0.87434 0.0
C809 C 0.76014 0.2888 0.86062 0.0
C810 C 0.75961 0.28703 0.77378 0.0
C811 C 0.76956 0.23884 0.78497 0.0
O812 O 0.77724 0.26748 0.73399 0.0
O813 O 0.80291 0.2622 0.74146 0.0
O814 O 0.80622 0.27942 0.79118 0.0
O815 O 0.80587 0.25246 0.77646 0.0
O816 O 0.79695 0.30059 0.76495 0.0
O817 O 0.80119 0.30919 0.79854 0.0
O818 O 0.79322 0.2803 0.83162 0.0
O819 O 0.7737 0.29676 0.82548 0.0
O820 O 0.76652 0.27298 0.77511 0.0
O821 O 0.76581 0.2995 0.7894 0.0
O822 O 0.77369 0.25237 0.80075 0.0
O823 O 0.77283 0.24284 0.76754 0.0
H824 H 0.78045 0.29768 0.71957 0.0
H825 H 0.79141 0.31949 0.69832 0.0
H826 H 0.82948 0.28659 0.68708 0.0
H827 H 0.81785 0.26418 0.70776 0.0
H828 H 0.78374 0.25524 0.85193 0.0
H829 H 0.76851 0.24155 0.87628 0.0
H830 H 0.74204 0.28805 0.88045 0.0
H831 H 0.75796 0.3022 0.85661 0.0
Tb832 Tb 0.76743 0.76167 0.77196 0.0
Tb833 Tb 0.79978 0.78787 0.79072 0.0
C834 C 0.7368 0.74411 0.76488 0.0
C835 C 0.72064 0.75078 0.76483 0.0
C836 C 0.71889 0.76429 0.78032 0.0
C837 C 0.70387 0.77122 0.77979 0.0
C838 C 0.6903 0.76491 0.76368 0.0
C839 C 0.6921 0.75144 0.74812 0.0
C840 C 0.70716 0.74443 0.74871 0.0
C841 C 0.78589 0.77587 0.74677 0.0
C842 C 0.7674 0.80648 0.78614 0.0
C843 C 0.83042 0.80521 0.79634 0.0
C844 C 0.84508 0.79858 0.7897 0.0
C845 C 0.84244 0.78594 0.77195 0.0
C846 C 0.85576 0.77801 0.76635 0.0
C847 C 0.87211 0.7827 0.77823 0.0
C848 C 0.87484 0.7956 0.79589 0.0
C849 C 0.86136 0.80344 0.80162 0.0
C850 C 0.78141 0.77346 0.81584 0.0
C851 C 0.79965 0.74308 0.77667 0.0
O852 O 0.74673 0.74622 0.78214 0.0
O853 O 0.74538 0.74904 0.75101 0.0
O854 O 0.78363 0.78445 0.76283 0.0
O855 O 0.77696 0.75868 0.74395 0.0
O856 O 0.75857 0.78873 0.78001 0.0
O857 O 0.78441 0.80991 0.79053 0.0
O858 O 0.81869 0.80758 0.78218 0.0
O859 O 0.82374 0.79616 0.80953 0.0
O860 O 0.78371 0.76504 0.79973 0.0
O861 O 0.79042 0.79066 0.81891 0.0
O862 O 0.80846 0.76097 0.78111 0.0
O863 O 0.78264 0.7396 0.77397 0.0
H864 H 0.72914 0.76958 0.79289 0.0
H865 H 0.70281 0.78128 0.79222 0.0
H866 H 0.68192 0.7464 0.73545 0.0
H867 H 0.70836 0.73416 0.73651 0.0
H868 H 0.82994 0.78182 0.76255 0.0
H869 H 0.85309 0.76785 0.75288 0.0
H870 H 0.88735 0.79963 0.80526 0.0
H871 H 0.86358 0.81306 0.81544 0.0
Tb872 Tb 0.5198 0.51637 0.52148 0.0
Tb873 Tb 0.5555 0.53576 0.54108 0.0
C874 C 0.48797 0.50802 0.50998 0.0
C875 C 0.47581 0.51824 0.50025 0.0
C876 C 0.47508 0.53664 0.50844 0.0
C877 C 0.46393 0.54642 0.49877 0.0
C878 C 0.45333 0.5381 0.4806 0.0
C879 C 0.4542 0.51973 0.47232 0.0
C880 C 0.46533 0.50988 0.48209 0.0
C881 C 0.54366 0.51388 0.49964 0.0
C882 C 0.53318 0.56113 0.52125 0.0
C883 C 0.58749 0.54308 0.55121 0.0
C884 C 0.59946 0.53016 0.5527 0.0
C885 C 0.59577 0.51285 0.53986 0.0
C886 C 0.60583 0.49948 0.54264 0.0
C887 C 0.61987 0.5032 0.55821 0.0
C888 C 0.624 0.52079 0.57063 0.0
C889 C 0.61375 0.53416 0.56797 0.0
C890 C 0.5317 0.53862 0.5628 0.0
C891 C 0.54186 0.49121 0.54104 0.0
O892 O 0.49517 0.51502 0.52832 0.0
O893 O 0.49893 0.50284 0.49933 0.0
O894 O 0.54262 0.52804 0.51139 0.0
O895 O 0.53035 0.50053 0.49895 0.0
O896 O 0.52011 0.54637 0.51863 0.0
O897 O 0.54898 0.55996 0.52867 0.0
O898 O 0.57972 0.54347 0.53329 0.0
O899 O 0.57692 0.54211 0.56391 0.0
O900 O 0.53266 0.52425 0.55122 0.0
O901 O 0.54517 0.55185 0.56357 0.0
O902 O 0.5551 0.50524 0.54125 0.0
O903 O 0.52594 0.49331 0.53613 0.0
H904 H 0.4831 0.54354 0.52236 0.0
H905 H 0.46335 0.56036 0.50583 0.0
H906 H 0.4463 0.51297 0.45829 0.0
H907 H 0.46582 0.49576 0.47543 0.0
H908 H 0.58484 0.50943 0.52792 0.0
H909 H 0.60256 0.48614 0.53267 0.0
H910 H 0.63482 0.52395 0.5827 0.0
H911 H 0.61672 0.5474 0.57808 0.0
Tb912 Tb 0.05539 0.52749 0.03116 0.0
Tb913 Tb 0.01768 0.52135 0.03834 0.0
C914 C 0.08726 0.52931 0.03833 0.0
C915 C 0.10087 0.51965 0.03281 0.0
C916 C 0.0984 0.4998 0.02962 0.0
C917 C 0.11231 0.49105 0.02774 0.0
C918 C 0.12896 0.50195 0.02902 0.0
C919 C 0.13115 0.5218 0.03125 0.0
C920 C 0.11726 0.53053 0.03317 0.0
C921 C 0.03371 0.52746 0.99736 0.0
C922 C 0.03156 0.48633 0.02113 0.0
C923 C 0.98645 0.52061 0.03951 0.0
C924 C 0.97276 0.53135 0.03615 0.0
C925 C 0.97363 0.54565 0.02419 0.0
C926 C 0.95978 0.55468 0.0205 0.0
C927 C 0.94484 0.54951 0.0287 0.0
C928 C 0.94433 0.53547 0.04102 0.0
C929 C 0.95811 0.52651 0.04466 0.0
C930 C 0.04101 0.51573 0.06767 0.0
C931 C 0.04008 0.56317 0.04276 0.0
O932 O 0.07621 0.52005 0.04772 0.0
O933 O 0.08006 0.53861 0.0255 0.0
O934 O 0.03059 0.52559 0.01446 0.0
O935 O 0.05021 0.52893 0.99887 0.0
O936 O 0.04737 0.49669 0.02576 0.0
O937 O 0.01778 0.49354 0.02265 0.0
O938 O 0.99208 0.51368 0.0239 0.0
O939 O 0.99879 0.52738 0.05469 0.0
O940 O 0.04285 0.52837 0.05661 0.0
O941 O 0.02531 0.50623 0.06278 0.0
O942 O 0.02454 0.55211 0.03957 0.0
O943 O 0.05418 0.55636 0.04223 0.0
H944 H 0.08588 0.49106 0.02935 0.0
H945 H 0.11012 0.47576 0.02617 0.0
H946 H 0.14369 0.53065 0.03189 0.0
H947 H 0.11948 0.54585 0.03566 0.0
H948 H 0.98487 0.54963 0.01751 0.0
H949 H 0.96059 0.56538 0.01088 0.0
H950 H 0.93324 0.5314 0.04793 0.0
H951 H 0.95723 0.51556 0.05401 0.0
C952 C 0.01095 0.21354 0.97239 0.0
C953 C 0.01248 0.21498 0.95259 0.0
C954 C 0.01185 0.19663 0.97985 0.0
C955 C 0.02914 0.15345 0.97132 0.0
H956 H 0.999 0.13422 0.00649 0.0
C957 C 0.04246 0.09425 0.01589 0.0
C958 C 0.02853 0.07957 0.01653 0.0
C959 C 0.03979 0.11058 0.00822 0.0
C960 C 0.00745 0.13935 0.9966 0.0
H961 H 0.01597 0.19958 0.92506 0.0
H962 H 0.01763 0.17017 0.9381 0.0
H963 H 0.9953 0.16277 0.99239 0.0
H964 H 1.00077 0.07086 0.00993 0.0
H965 H 0.99612 0.09947 0.99664 0.0
H966 H 0.04129 0.13011 0.97546 0.0
C967 C 0.01581 0.18217 0.9479 0.0
C968 C 1.00543 0.1558 0.98866 0.0
C969 C 0.01477 0.19902 0.94039 0.0
C970 C 0.01181 0.08187 0.0097 0.0
C971 C 0.00913 0.09831 1.00213 0.0
C972 C 0.03125 0.13714 0.97937 0.0
C973 C 0.01446 0.18078 0.96775 0.0
C974 C 0.01628 0.16307 0.97594 0.0
C975 C 0.02312 0.11276 1.00106 0.0
C976 C 0.02049 0.12992 0.99219 0.0
H977 H 0.00915 0.22552 0.98221 0.0
H978 H 0.01092 0.19611 0.99526 0.0
H979 H 0.03782 0.15873 0.96172 0.0
H980 H 0.05552 0.09306 0.02102 0.0
H981 H 0.05084 0.12155 0.00791 0.0
C982 C 0.11189 0.76526 0.18118 0.0
C983 C 0.10604 0.78202 0.17881 0.0
C984 C 0.12865 0.76588 0.19052 0.0
C985 C 0.17182 0.798 0.20637 0.0
H986 H 0.17991 0.75937 0.23847 0.0
C987 C 0.23568 0.80225 0.25989 0.0
C988 C 0.24198 0.78553 0.26049 0.0
C989 C 0.21962 0.80195 0.24876 0.0
C990 C 0.1779 0.77014 0.22937 0.0
H991 H 0.11331 0.81265 0.18455 0.0
H992 H 0.14242 0.81379 0.20146 0.0
H993 H 0.15088 0.75897 0.22225 0.0
H994 H 0.23661 0.75548 0.24947 0.0
H995 H 0.20842 0.7549 0.23015 0.0
H996 H 0.19891 0.80941 0.21409 0.0
C997 C 0.13417 0.8001 0.19567 0.0
C998 C 0.16122 0.76991 0.22 0.0
C999 C 0.1174 0.79947 0.1861 0.0
C1000 C 0.23207 0.76858 0.24931 0.0
C1001 C 0.2159 0.76823 0.23836 0.0
C1002 C 0.1885 0.79833 0.21595 0.0
C1003 C 0.14005 0.78329 0.19803 0.0
C1004 C 0.15791 0.78379 0.20828 0.0
C1005 C 0.20939 0.78489 0.23813 0.0
C1006 C 0.19175 0.78437 0.22752 0.0
H1007 H 0.10358 0.75155 0.17557 0.0
H1008 H 0.13271 0.75262 0.1916 0.0
H1009 H 0.16991 0.80875 0.19724 0.0
H1010 H 0.24305 0.81553 0.26835 0.0
H1011 H 0.21495 0.815 0.24901 0.0
C1012 C 0.5253 0.8192 0.45216 0.0
C1013 C 0.51138 0.81272 0.43646 0.0
C1014 C 0.52776 0.83735 0.46311 0.0
C1015 C 0.50534 0.87527 0.47698 0.0
H1016 H 0.54926 0.90951 0.48129 0.0
C1017 C 0.51361 0.95578 0.5009 0.0
C1018 C 0.52947 0.96615 0.51157 0.0
C1019 C 0.51163 0.93664 0.49317 0.0
C1020 C 0.53699 0.90011 0.48061 0.0
H1021 H 0.48885 0.81989 0.4204 0.0
H1022 H 0.49293 0.85122 0.43975 0.0
H1023 H 0.54546 0.87657 0.46623 0.0
H1024 H 0.55561 0.96439 0.5229 0.0
H1025 H 0.55203 0.93095 0.51011 0.0
H1026 H 0.49684 0.89854 0.49156 0.0
C1027 C 0.502 0.84241 0.44349 0.0
C1028 C 0.53484 0.88121 0.47191 0.0
C1029 C 0.49974 0.82449 0.43235 0.0
C1030 C 0.54324 0.95686 0.51459 0.0
C1031 C 0.5412 0.93766 0.50712 0.0
C1032 C 0.50755 0.89408 0.48595 0.0
C1033 C 0.51614 0.84914 0.45883 0.0
C1034 C 0.51891 0.86868 0.46972 0.0
C1035 C 0.52539 0.92727 0.49617 0.0
C1036 C 0.52333 0.90689 0.48762 0.0
H1037 H 0.53451 0.81047 0.45562 0.0
H1038 H 0.53874 0.84218 0.47491 0.0
H1039 H 0.49297 0.86586 0.47566 0.0
H1040 H 0.50278 0.96254 0.49815 0.0
H1041 H 0.49935 0.92933 0.4845 0.0
C1042 C 0.49928 0.30326 0.65906 0.0
C1043 C 0.51345 0.29567 0.66605 0.0
C1044 C 0.48506 0.30189 0.66863 0.0
C1045 C 0.46211 0.27366 0.70093 0.0
H1046 H 0.4403 0.31651 0.70914 0.0
C1047 C 0.40578 0.27165 0.74452 0.0
C1048 C 0.39255 0.28082 0.73807 0.0
C1049 C 0.42076 0.27369 0.73625 0.0
C1050 C 0.44605 0.3043 0.70674 0.0
H1051 H 0.52374 0.28074 0.68874 0.0
H1052 H 0.49877 0.27824 0.70543 0.0
H1053 H 0.46605 0.31976 0.69413 0.0
H1054 H 0.38466 0.29915 0.71765 0.0
H1055 H 0.41061 0.30244 0.70292 0.0
H1056 H 0.44197 0.25805 0.71314 0.0
C1057 C 0.49871 0.28522 0.69246 0.0
C1058 C 0.46089 0.3062 0.69819 0.0
C1059 C 0.51306 0.28675 0.68297 0.0
C1060 C 0.39467 0.29206 0.7231 0.0
C1061 C 0.40961 0.29399 0.71471 0.0
C1062 C 0.44719 0.2717 0.70935 0.0
C1063 C 0.48453 0.29276 0.68537 0.0
C1064 C 0.46908 0.29089 0.69512 0.0
C1065 C 0.4229 0.28486 0.7212 0.0
C1066 C 0.43891 0.28698 0.71233 0.0
H1067 H 0.49912 0.31022 0.64608 0.0
H1068 H 0.47429 0.30766 0.66265 0.0
H1069 H 0.46795 0.26151 0.69853 0.0
H1070 H 0.4047 0.26315 0.75626 0.0
H1071 H 0.43079 0.26673 0.74194 0.0
C1072 C 0.07001 0.81107 0.67544 0.0
C1073 C 0.05488 0.79909 0.67794 0.0
C1074 C 0.06922 0.82717 0.66654 0.0
C1075 C 0.04147 0.86008 0.65274 0.0
H1076 H 0.06631 0.86404 0.60891 0.0
C1077 C 0.02609 0.90496 0.5919 0.0
C1078 C 0.03959 0.91361 0.5832 0.0
C1079 C 0.02904 0.89302 0.60581 0.0
C1080 C 0.05956 0.86343 0.62133 0.0
H1081 H 0.02713 0.79507 0.67396 0.0
H1082 H 0.02579 0.82324 0.65845 0.0
H1083 H 0.06973 0.83986 0.62962 0.0
H1084 H 0.06688 0.91748 0.58288 0.0
H1085 H 0.07216 0.897 0.60749 0.0
H1086 H 0.03121 0.88361 0.64437 0.0
C1087 C 0.03824 0.82016 0.6634 0.0
C1088 C 0.0615 0.84953 0.63318 0.0
C1089 C 0.03901 0.80397 0.67215 0.0
C1090 C 0.0562 0.91069 0.58914 0.0
C1091 C 0.05919 0.89894 0.6032 0.0
C1092 C 0.03963 0.87413 0.64098 0.0
C1093 C 0.05331 0.83169 0.66014 0.0
C1094 C 0.0523 0.84755 0.64882 0.0
C1095 C 0.04559 0.88968 0.61143 0.0
C1096 C 0.04847 0.87579 0.62495 0.0
H1097 H 0.08244 0.80774 0.67981 0.0
H1098 H 0.08104 0.83594 0.66437 0.0
H1099 H 0.03436 0.85895 0.66484 0.0
H1100 H 0.01315 0.90692 0.58746 0.0
H1101 H 0.01822 0.88593 0.61163 0.0
C1102 C 0.4607 0.76537 0.84779 0.0
C1103 C 0.47472 0.77897 0.84516 0.0
C1104 C 0.44424 0.76488 0.83775 0.0
C1105 C 0.42076 0.78016 0.79497 0.0
H1106 H 0.38408 0.77754 0.82585 0.0
C1107 C 0.34945 0.77253 0.76079 0.0
C1108 C 0.34033 0.78424 0.77074 0.0
C1109 C 0.36602 0.77153 0.76922 0.0
C1110 C 0.39422 0.77835 0.81709 0.0
H1111 H 0.48259 0.8024 0.82956 0.0
H1112 H 0.45385 0.80154 0.81211 0.0
H1113 H 0.41281 0.7758 0.84154 0.0
H1114 H 0.34145 0.80421 0.79718 0.0
H1115 H 0.37042 0.80243 0.81185 0.0
H1116 H 0.40219 0.783 0.77059 0.0
C1117 C 0.45561 0.79121 0.82184 0.0
C1118 C 0.41059 0.77714 0.82599 0.0
C1119 C 0.47204 0.79176 0.83194 0.0
C1120 C 0.34817 0.7951 0.78913 0.0
C1121 C 0.36468 0.79398 0.79761 0.0
C1122 C 0.40435 0.78125 0.78603 0.0
C1123 C 0.44154 0.77791 0.82482 0.0
C1124 C 0.42403 0.77818 0.81505 0.0
C1125 C 0.3737 0.78209 0.78779 0.0
C1126 C 0.39099 0.78052 0.79707 0.0
H1127 H 0.46238 0.75527 0.85782 0.0
H1128 H 0.43361 0.75436 0.84013 0.0
H1129 H 0.43089 0.78087 0.7862 0.0
H1130 H 0.34376 0.76401 0.74657 0.0
H1131 H 0.37268 0.76217 0.76141 0.0
C1132 C 0.56054 0.19905 0.15262 0.0
C1133 C 0.55551 0.21531 0.14683 0.0
C1134 C 0.56237 0.1845 0.13846 0.0
C1135 C 0.54668 0.16398 0.08648 0.0
H1136 H 0.58128 0.13406 0.09626 0.0
C1137 C 0.54478 0.09539 0.03457 0.0
C1138 C 0.54556 0.07985 0.0446 0.0
C1139 C 0.5496 0.11382 0.04498 0.0
C1140 C 0.57158 0.14233 0.09331 0.0
H1141 H 0.549 0.22935 0.12167 0.0
H1142 H 0.55227 0.20395 0.09696 0.0
H1143 H 0.58284 0.16324 0.1187 0.0
H1144 H 0.55282 0.07127 0.07305 0.0
H1145 H 0.56118 0.10332 0.09119 0.0
H1146 H 0.53507 0.14279 0.06152 0.0
C1147 C 0.5546 0.20237 0.11244 0.0
C1148 C 0.57244 0.15899 0.10616 0.0
C1149 C 0.55276 0.21693 0.12661 0.0
C1150 C 0.55211 0.08302 0.06495 0.0
C1151 C 0.557 0.1014 0.07532 0.0
C1152 C 0.54583 0.14735 0.07363 0.0
C1153 C 0.55924 0.18591 0.1182 0.0
C1154 C 0.55973 0.16971 0.10319 0.0
C1155 C 0.55537 0.11697 0.06555 0.0
C1156 C 0.558 0.13608 0.07722 0.0
H1157 H 0.56278 0.19738 0.16808 0.0
H1158 H 0.56571 0.17188 0.14337 0.0
H1159 H 0.53658 0.17181 0.08389 0.0
H1160 H 0.53986 0.09329 0.01884 0.0
H1161 H 0.54839 0.12558 0.03704 0.0
C1162 C 0.08502 0.32685 0.34296 0.0
C1163 C 0.06891 0.31452 0.34009 0.0
C1164 C 0.09648 0.32429 0.32997 0.0
C1165 C 0.10636 0.28551 0.29826 0.0
H1166 H 0.13886 0.32478 0.28239 0.0
C1167 C 0.1599 0.26543 0.26037 0.0
C1168 C 0.17634 0.27627 0.26851 0.0
C1169 C 0.14529 0.27205 0.264 0.0
C1170 C 0.12986 0.31366 0.28672 0.0
H1171 H 0.05158 0.29091 0.32049 0.0
H1172 H 0.07145 0.28663 0.29784 0.0
H1173 H 0.11579 0.33326 0.29883 0.0
H1174 H 0.19031 0.30337 0.28513 0.0
H1175 H 0.1649 0.31448 0.29228 0.0
H1176 H 0.12067 0.266 0.28721 0.0
C1177 C 0.07541 0.29796 0.31034 0.0
C1178 C 0.11668 0.31853 0.29611 0.0
C1179 C 0.06404 0.30043 0.32332 0.0
C1180 C 0.17782 0.29444 0.27911 0.0
C1181 C 0.16322 0.30096 0.28294 0.0
C1182 C 0.11952 0.28068 0.28903 0.0
C1183 C 0.09195 0.30943 0.31389 0.0
C1184 C 0.10495 0.3045 0.30221 0.0
C1185 C 0.1468 0.28953 0.27604 0.0
C1186 C 0.13161 0.2947 0.28342 0.0
H1187 H 0.08908 0.33789 0.35572 0.0
H1188 H 0.10919 0.33329 0.33314 0.0
H1189 H 0.09774 0.2744 0.30313 0.0
H1190 H 0.15827 0.25139 0.25211 0.0
H1191 H 0.13281 0.26308 0.25807 0.0
C1192 C 0.96481 0.04701 0.21295 0.0
C1193 C 0.95416 0.03003 0.21517 0.0
C1194 C 0.97217 0.04833 0.19596 0.0
C1195 C 0.98391 0.01916 0.15482 0.0
H1196 H 0.98518 0.06412 0.1297 0.0
C1197 C 0.00781 0.0232 0.08099 0.0
C1198 C 0.01944 0.03985 0.07989 0.0
C1199 C 0.9985 0.02237 0.09647 0.0
C1200 C 0.98502 0.05154 0.13664 0.0
H1201 H 0.94294 1.00107 0.20134 0.0
H1202 H 0.95573 1.00342 0.17168 0.0
H1203 H 0.97196 0.06183 0.15919 0.0
H1204 H 0.03 0.06892 0.09355 0.0
H1205 H 0.01385 0.06745 0.12083 0.0
H1206 H 0.99709 0.00891 0.13246 0.0
C1207 C 0.95852 0.01566 0.18315 0.0
C1208 C 0.97748 0.05024 0.15352 0.0
C1209 C 0.95114 0.01435 0.20012 0.0
C1210 C 0.02111 0.05591 0.0941 0.0
C1211 C 0.01181 0.05508 0.10964 0.0
C1212 C 0.99144 0.02046 0.13797 0.0
C1213 C 0.96907 0.03268 0.18086 0.0
C1214 C 0.97689 0.03405 0.16282 0.0
C1215 C 1.00067 0.03817 0.11121 0.0
C1216 C 0.99211 0.03667 0.12871 0.0
H1217 H 0.9674 0.05935 0.22429 0.0
H1218 H 0.98044 0.06155 0.19474 0.0
H1219 H 0.9839 1.00663 0.16182 0.0
H1220 H 1.0063 0.0106 0.07024 0.0
H1221 H 0.98981 0.00925 0.0971 0.0
C1222 C 0.26873 0.67072 0.50186 0.0
C1223 C 0.27468 0.67805 0.52194 0.0
C1224 C 0.25935 0.6805 0.48973 0.0
C1225 C 0.25856 0.72854 0.48438 0.0
H1226 H 0.22277 0.70552 0.43954 0.0
C1227 C 0.25023 0.76639 0.41751 0.0
C1228 C 0.24977 0.75475 0.39954 0.0
C1229 C 0.24664 0.75843 0.43421 0.0
C1230 C 0.23273 0.71221 0.452 0.0
H1231 H 0.27469 0.70076 0.5454 0.0
H1232 H 0.25859 0.71818 0.52395 0.0
H1233 H 0.22862 0.68795 0.46682 0.0
H1234 H 0.24349 0.7257 0.38457 0.0
H1235 H 0.23821 0.71182 0.4138 0.0
H1236 H 0.2638 0.75208 0.46908 0.0
C1237 C 0.26109 0.70477 0.51771 0.0
C1238 C 0.23599 0.70219 0.46765 0.0
C1239 C 0.27028 0.69481 0.52995 0.0
C1240 C 0.24441 0.73506 0.39831 0.0
C1241 C 0.24106 0.7271 0.41506 0.0
C1242 C 0.25546 0.73846 0.46866 0.0
C1243 C 0.25593 0.69792 0.49739 0.0
C1244 C 0.24942 0.70997 0.48356 0.0
C1245 C 0.24277 0.73867 0.43341 0.0
C1246 C 0.24303 0.73007 0.45187 0.0
H1247 H 0.27182 0.65774 0.49535 0.0
H1248 H 0.25574 0.675 0.47408 0.0
H1249 H 0.26911 0.73483 0.49637 0.0
H1250 H 0.25431 0.78162 0.41906 0.0
H1251 H 0.24773 0.76778 0.448 0.0
C1252 C 0.61065 0.9859 0.72965 0.0
C1253 C 0.62631 0.9978 0.73936 0.0
C1254 C 0.60266 0.98826 0.71083 0.0
C1255 C 0.60124 0.02286 0.67443 0.0
H1256 H 0.5767 0.97805 0.63803 0.0
C1257 C 0.56779 0.02676 0.59323 0.0
C1258 C 0.55236 0.01362 0.58526 0.0
C1259 C 0.57772 0.02528 0.61149 0.0
C1260 C 0.58324 0.99085 0.64797 0.0
H1261 H 0.64562 0.02183 0.73626 0.0
H1262 H 0.63173 0.02596 0.70346 0.0
H1263 H 0.59183 0.97485 0.67011 0.0
H1264 H 0.53549 0.9886 0.59064 0.0
H1265 H 0.55233 0.98615 0.62201 0.0
H1266 H 0.59249 0.03885 0.65221 0.0
C1267 C 0.62554 0.01475 0.71054 0.0
C1268 C 0.59204 0.98898 0.6666 0.0
C1269 C 0.63362 0.0123 0.72943 0.0
C1270 C 0.5473 0.99896 0.5961 0.0
C1271 C 0.55714 0.99748 0.61422 0.0
C1272 C 0.59235 0.02474 0.65575 0.0
C1273 C 0.6099 1.00269 0.70079 0.0
C1274 C 0.60109 1.00493 0.68037 0.0
C1275 C 0.57259 0.01058 0.62241 0.0
C1276 C 0.58297 0.00876 0.64217 0.0
H1277 H 0.60443 0.9746 0.73663 0.0
H1278 H 0.59056 0.97881 0.70428 0.0
H1279 H 0.60786 0.03559 0.68445 0.0
H1280 H 0.57214 0.0383 0.58545 0.0
H1281 H 0.58953 0.03563 0.61694 0.0
C1282 C 0.30586 0.35951 0.98699 0.0
C1283 C 0.29311 0.35299 0.99788 0.0
C1284 C 0.30533 0.35077 0.96768 0.0
C1285 C 0.2757 0.32426 0.92422 0.0
H1286 H 0.31614 0.31046 0.90729 0.0
C1287 C 0.27332 0.28744 0.84469 0.0
C1288 C 0.28776 0.29232 0.83571 0.0
C1289 C 0.274 0.29358 0.86481 0.0
C1290 C 0.30478 0.31446 0.91165 0.0
H1291 H 0.26984 0.33215 0.99708 0.0
H1292 H 0.26873 0.31711 0.96309 0.0
H1293 H 0.31736 0.32361 0.94177 0.0
H1294 H 0.31423 0.30758 0.8408 0.0
H1295 H 0.31526 0.31888 0.87565 0.0
H1296 H 0.26324 0.3159 0.8941 0.0
C1297 C 0.27918 0.32892 0.96963 0.0
C1298 C 0.30547 0.32189 0.93146 0.0
C1299 C 0.27987 0.33746 0.98909 0.0
C1300 C 0.30291 0.30344 0.8473 0.0
C1301 C 0.30352 0.30983 0.86737 0.0
C1302 C 0.27506 0.3171 0.90435 0.0
C1303 C 0.29189 0.33552 0.95874 0.0
C1304 C 0.29096 0.32691 0.93792 0.0
C1305 C 0.28906 0.30501 0.87642 0.0
C1306 C 0.28961 0.31216 0.89775 0.0
H1307 H 0.31627 0.37141 0.99337 0.0
H1308 H 0.31522 0.35623 0.95957 0.0
H1309 H 0.26438 0.32824 0.92877 0.0
H1310 H 0.26148 0.27874 0.8362 0.0
H1311 H 0.2627 0.28923 0.87127 0.0
C1312 C 0.96056 0.02779 0.32065 0.0
C1313 C 0.9593 0.01113 0.30734 0.0
C1314 C 0.96896 0.02971 0.3402 0.0
C1315 C 0.97861 1.00072 0.37794 0.0
H1316 H 0.01104 0.04566 0.40597 0.0
C1317 C 0.01486 1.00128 0.45558 0.0
C1318 C 0.01744 0.01766 0.46963 0.0
C1319 C 0.00869 1.00148 0.43572 0.0
C1320 C 1.00183 0.03311 0.39843 0.0
H1321 H 0.96638 0.98372 0.30393 0.0
H1322 H 0.98087 0.98703 0.33809 0.0
H1323 H 0.99888 0.04434 0.37111 0.0
H1324 H 0.01589 0.04727 0.47376 0.0
H1325 H 1.00456 0.04751 0.43902 0.0
H1326 H 0.98107 0.98957 0.4051 0.0
C1327 C 0.9753 0.99855 0.33339 0.0
C1328 C 0.99494 0.03234 0.37847 0.0
C1329 C 0.96708 0.9967 0.31381 0.0
C1330 C 0.014 0.03441 0.4633 0.0
C1331 C 0.0076 0.03456 0.44336 0.0
C1332 C 0.98532 1.00155 0.39786 0.0
C1333 C 0.97607 0.01492 0.34685 0.0
C1334 C 0.98341 0.01604 0.368 0.0
C1335 C 1.00468 0.01801 0.42938 0.0
C1336 C 0.99717 0.01765 0.40832 0.0
H1337 H 0.95476 0.03919 0.31608 0.0
H1338 H 0.96931 0.04244 0.35031 0.0
H1339 H 0.96945 0.98814 0.37035 0.0
H1340 H 0.01766 0.98821 0.45988 0.0
H1341 H 0.00706 0.98861 0.42532 0.0
C1342 C 0.33761 0.71999 0.5722 0.0
C1343 C 0.33678 0.70119 0.5755 0.0
C1344 C 0.33922 0.73446 0.58805 0.0
C1345 C 0.32438 0.75448 0.62018 0.0
H1346 H 0.34874 0.75745 0.67356 0.0
C1347 C 0.29727 0.77721 0.68901 0.0
C1348 C 0.30826 0.78959 0.70477 0.0
C1349 C 0.30374 0.76991 0.67278 0.0
C1350 C 0.34205 0.757 0.65867 0.0
H1351 H 0.33875 0.68311 0.59812 0.0
H1352 H 0.3414 0.70829 0.6257 0.0
H1353 H 0.35698 0.73875 0.64599 0.0
H1354 H 0.33454 0.80425 0.71611 0.0
H1355 H 0.34599 0.79116 0.68767 0.0
H1356 H 0.309 0.77204 0.63291 0.0
C1357 C 0.34083 0.7119 0.61091 0.0
C1358 C 0.34669 0.74624 0.64294 0.0
C1359 C 0.33919 0.69743 0.59507 0.0
C1360 C 0.32582 0.79476 0.70402 0.0
C1361 C 0.33237 0.78724 0.68787 0.0
C1362 C 0.31968 0.76509 0.63588 0.0
C1363 C 0.34009 0.73039 0.60748 0.0
C1364 C 0.33758 0.74446 0.62361 0.0
C1365 C 0.32136 0.77473 0.67212 0.0
C1366 C 0.32813 0.76599 0.65532 0.0
H1367 H 0.33599 0.72341 0.55732 0.0
H1368 H 0.3389 0.74866 0.58502 0.0
H1369 H 0.31697 0.75322 0.60551 0.0
H1370 H 0.28368 0.77305 0.68932 0.0
H1371 H 0.29502 0.76008 0.66095 0.0
C1372 C 0.63376 1.00208 0.85802 0.0
C1373 C 0.63489 0.01714 0.84684 0.0
C1374 C 0.62544 1.00234 0.87486 0.0
C1375 C 0.59406 0.02655 0.89924 0.0
H1376 H 0.61076 1.00633 0.94586 0.0
C1377 C 0.55547 0.02203 0.96484 0.0
C1378 C 0.56421 0.02487 0.98458 0.0
C1379 C 0.56418 0.02063 0.94855 0.0
C1380 C 0.60588 0.0122 0.93307 0.0
H1381 H 0.62775 0.04431 0.84527 0.0
H1382 H 0.61356 0.0447 0.87388 0.0
H1383 H 0.62529 1.00443 0.9171 0.0
H1384 H 0.58951 0.0283 1.00209 0.0
H1385 H 0.60469 0.02591 0.97382 0.0
H1386 H 0.57484 0.03454 0.91508 0.0
C1387 C 0.61889 0.03249 0.86974 0.0
C1388 C 0.61419 0.01089 0.91631 0.0
C1389 C 0.62725 0.0323 0.85316 0.0
C1390 C 0.58216 0.02616 0.98727 0.0
C1391 C 0.59091 0.02464 0.97089 0.0
C1392 C 0.58572 0.02773 0.91586 0.0
C1393 C 0.61774 0.01757 0.88107 0.0
C1394 C 0.60854 0.01816 0.89901 0.0
C1395 C 0.58213 0.02193 0.9511 0.0
C1396 C 0.5914 0.02063 0.93324 0.0
H1397 H 0.63945 0.99014 0.85389 0.0
H1398 H 0.62487 0.99042 0.88288 0.0
H1399 H 0.58895 0.03217 0.88638 0.0
H1400 H 0.5417 0.02082 0.96183 0.0
H1401 H 0.55666 0.01822 0.93382 0.0
C1402 C 0.30763 0.36941 0.11094 0.0
C1403 C 0.29433 0.36283 0.09458 0.0
C1404 C 0.30849 0.35987 0.12738 0.0
C1405 C 0.29758 0.31404 0.14295 0.0
H1406 H 0.29416 0.34079 0.19377 0.0
C1407 C 0.28377 0.27423 0.20823 0.0
C1408 C 0.28914 0.28373 0.22773 0.0
C1409 C 0.28624 0.28381 0.19216 0.0
C1410 C 0.29555 0.3331 0.17988 0.0
H1411 H 0.2718 0.34083 0.08239 0.0
H1412 H 0.2737 0.32383 0.11081 0.0
H1413 H 0.29553 0.35765 0.16553 0.0
H1414 H 0.30187 0.31055 0.24565 0.0
H1415 H 0.30731 0.3269 0.21787 0.0
H1416 H 0.29818 0.28964 0.15714 0.0
C1417 C 0.28327 0.33651 0.11101 0.0
C1418 C 0.2962 0.34282 0.16365 0.0
C1419 C 0.28215 0.3463 0.09481 0.0
C1420 C 0.29768 0.30279 0.23082 0.0
C1421 C 0.30053 0.31227 0.21478 0.0
C1422 C 0.29735 0.3044 0.15928 0.0
C1423 C 0.29635 0.3433 0.12751 0.0
C1424 C 0.29696 0.33332 0.14498 0.0
C1425 C 0.29448 0.30307 0.19515 0.0
C1426 C 0.29603 0.31368 0.17797 0.0
H1427 H 0.31717 0.38214 0.11121 0.0
H1428 H 0.3187 0.36536 0.13995 0.0
H1429 H 0.29831 0.30645 0.12871 0.0
H1430 H 0.27703 0.25957 0.20533 0.0
H1431 H 0.28108 0.27618 0.17742 0.0
C1432 C 0.1898 0.8743 0.01242 0.0
C1433 C 0.20532 0.88494 0.00912 0.0
C1434 C 0.17851 0.88327 0.02181 0.0
C1435 C 0.17707 0.92607 0.05501 0.0
H1436 H 0.1317 0.92314 0.02532 0.0
C1437 C 0.14214 0.98732 0.06125 0.0
C1438 C 0.12416 0.9837 0.05735 0.0
C1439 C 0.15076 0.97238 0.06004 0.0
C1440 C 0.14413 0.92381 0.03415 0.0
H1441 H 0.22132 0.91319 0.01341 0.0
H1442 H 0.20182 0.9286 0.02989 0.0
H1443 H 0.14918 0.90134 0.01424 0.0
H1444 H 0.10103 0.96169 0.05064 0.0
H1445 H 0.11608 0.93553 0.0489 0.0
H1446 H 0.17232 0.94886 0.07462 0.0
C1447 C 0.19835 0.91341 0.02523 0.0
C1448 C 0.15413 0.91131 0.02774 0.0
C1449 C 0.20942 0.90458 0.01558 0.0
C1450 C 0.11493 0.96485 0.05342 0.0
C1451 C 0.12354 0.9499 0.05238 0.0
C1452 C 0.16702 0.93843 0.06155 0.0
C1453 C 0.18282 0.90288 0.02843 0.0
C1454 C 0.17093 0.9129 0.03765 0.0
C1455 C 0.14156 0.9535 0.05508 0.0
C1456 C 0.15073 0.93798 0.05071 0.0
H1457 H 0.18635 0.85914 0.00762 0.0
H1458 H 0.16651 0.87491 0.02404 0.0
H1459 H 0.18995 0.92737 0.06303 0.0
H1460 H 0.14955 1.00172 0.06417 0.0
H1461 H 0.16464 0.97573 0.06193 0.0
C1462 C 0.70605 0.6033 0.99783 0.0
C1463 C 0.71224 0.62018 0.01129 0.0
C1464 C 0.68989 0.59203 0.99797 0.0
C1465 C 0.65806 0.58145 0.03047 0.0
H1466 H 0.62531 0.56303 0.98188 0.0
C1467 C 0.58773 0.54669 0.03188 0.0
C1468 C 0.57935 0.53167 0.01686 0.0
C1469 C 0.60388 0.55729 0.03075 0.0
C1470 C 0.63436 0.56779 0.99559 0.0
H1471 H 0.70629 0.63836 0.03552 0.0
H1472 H 0.67839 0.61867 0.0359 0.0
H1473 H 0.65379 0.58118 0.98067 0.0
H1474 H 0.58131 0.51588 0.98891 0.0
H1475 H 0.60967 0.53392 0.98718 0.0
H1476 H 0.63894 0.56787 0.04543 0.0
C1477 C 0.68598 0.61412 0.02523 0.0
C1478 C 0.65069 0.57824 0.99486 0.0
C1479 C 0.70196 0.62546 0.02492 0.0
C1480 C 0.58744 0.52745 1.00068 0.0
C1481 C 0.60367 0.53792 0.99963 0.0
C1482 C 0.64184 0.57083 0.03118 0.0
C1483 C 0.67973 0.59728 0.01178 0.0
C1484 C 0.66267 0.58535 0.01232 0.0
C1485 C 0.61217 0.55298 0.01468 0.0
C1486 C 0.62965 0.56399 0.01378 0.0
H1487 H 0.71363 0.59884 0.98712 0.0
H1488 H 0.68545 0.57908 0.98748 0.0
H1489 H 0.6671 0.5865 0.04416 0.0
H1490 H 0.58189 0.55018 0.04461 0.0
H1491 H 0.6098 0.56896 0.04248 0.0
C1492 C 0.68334 0.49029 0.30111 0.0
C1493 C 0.67011 0.48922 0.31239 0.0
C1494 C 0.69385 0.47705 0.30139 0.0
C1495 C 0.70944 0.44358 0.33145 0.0
H1496 H 0.72051 0.42138 0.28228 0.0
C1497 C 0.74603 0.38236 0.32688 0.0
C1498 C 0.7581 0.38293 0.3141 0.0
C1499 C 0.73525 0.39535 0.32706 0.0
C1500 C 0.71773 0.42762 0.29617 0.0
H1501 H 0.65751 0.47344 0.33277 0.0
H1502 H 0.67591 0.45034 0.33322 0.0
H1503 H 0.70166 0.44395 0.28167 0.0
H1504 H 0.76884 0.39789 0.29205 0.0
H1505 H 0.75025 0.42072 0.29255 0.0
H1506 H 0.72565 0.42741 0.34599 0.0
C1507 C 0.67818 0.46148 0.32428 0.0
C1508 C 0.7069 0.44051 0.2958 0.0
C1509 C 0.6676 0.47465 0.32392 0.0
C1510 C 0.75945 0.39695 0.30182 0.0
C1511 C 0.74877 0.40998 0.30207 0.0
C1512 C 0.72035 0.43074 0.33184 0.0
C1513 C 0.69141 0.46256 0.31302 0.0
C1514 C 0.70269 0.44866 0.31343 0.0
C1515 C 0.73641 0.40921 0.31453 0.0
C1516 C 0.72467 0.42267 0.3142 0.0
H1517 H 0.68561 0.50136 0.29209 0.0
H1518 H 0.70406 0.47834 0.29271 0.0
H1519 H 0.70656 0.44981 0.34529 0.0
H1520 H 0.74459 0.37156 0.33635 0.0
H1521 H 0.72574 0.39424 0.33667 0.0
C1522 C 0.80126 0.38429 0.5305 0.0
C1523 C 0.79817 0.36638 0.51878 0.0
C1524 C 0.81753 0.39609 0.53406 0.0
C1525 C 0.84723 0.42196 0.52226 0.0
H1526 H 0.89067 0.4063 0.53345 0.0
C1527 C 0.90964 0.46135 0.50224 0.0
C1528 C 0.92461 0.46506 0.51664 0.0
C1529 C 0.8946 0.44978 0.50514 0.0
C1530 C 0.87863 0.4109 0.5305 0.0
H1531 H 0.81008 0.34621 0.50299 0.0
H1532 H 0.83854 0.36685 0.50925 0.0
H1533 H 0.8639 0.38451 0.53514 0.0
H1534 H 0.9353 0.45962 0.54558 0.0
H1535 H 0.90907 0.43893 0.55031 0.0
H1536 H 0.86183 0.44811 0.5171 0.0
C1537 C 0.82833 0.37177 0.5156 0.0
C1538 C 0.86335 0.39842 0.53135 0.0
C1539 C 0.812 0.35998 0.51193 0.0
C1540 C 0.92412 0.45685 0.53402 0.0
C1541 C 0.9091 0.44506 0.5368 0.0
C1542 C 0.86245 0.43432 0.52119 0.0
C1543 C 0.8311 0.39018 0.52612 0.0
C1544 C 0.84749 0.40378 0.52704 0.0
C1545 C 0.8942 0.44145 0.52238 0.0
C1546 C 0.87827 0.42883 0.52504 0.0
H1547 H 0.79094 0.38957 0.53624 0.0
H1548 H 0.81938 0.4101 0.54249 0.0
H1549 H 0.83519 0.42641 0.51864 0.0
H1550 H 0.90959 0.46706 0.48849 0.0
H1551 H 0.88335 0.44699 0.49365 0.0
C1552 C 0.37789 0.1053 0.28092 0.0
C1553 C 0.37582 0.09349 0.26251 0.0
C1554 C 0.37004 0.12134 0.28296 0.0
C1555 C 0.33483 0.14304 0.25667 0.0
H1556 H 0.35669 0.18887 0.29298 0.0
C1557 C 0.29902 0.20622 0.26903 0.0
C1558 C 0.30835 0.22517 0.27337 0.0
C1559 C 0.30731 0.19062 0.26819 0.0
C1560 C 0.35031 0.1763 0.2826 0.0
H1561 H 0.36344 0.09009 0.23186 0.0
H1562 H 0.35012 0.11729 0.23534 0.0
H1563 H 0.37059 0.16164 0.291 0.0
H1564 H 0.33431 0.24189 0.28026 0.0
H1565 H 0.34867 0.21497 0.27874 0.0
H1566 H 0.31469 0.1576 0.24805 0.0
C1567 C 0.35761 0.11427 0.24844 0.0
C1568 C 0.35831 0.16039 0.28162 0.0
C1569 C 0.36549 0.09847 0.2464 0.0
C1570 C 0.32646 0.22771 0.27685 0.0
C1571 C 0.33478 0.21206 0.27611 0.0
C1572 C 0.32681 0.15883 0.25775 0.0
C1573 C 0.35961 0.1262 0.26673 0.0
C1574 C 0.35083 0.14334 0.26852 0.0
C1575 C 0.32543 0.19305 0.27172 0.0
C1576 C 0.33431 0.17595 0.27069 0.0
H1577 H 0.38569 0.10226 0.29379 0.0
H1578 H 0.37201 0.12982 0.29742 0.0
H1579 H 0.32825 0.1304 0.24651 0.0
H1580 H 0.28512 0.20333 0.26635 0.0
H1581 H 0.29934 0.17652 0.26506 0.0
C1582 C 0.32916 0.13804 0.5079 0.0
C1583 C 0.31236 0.1272 0.50524 0.0
C1584 C 0.3433 0.12936 0.5092 0.0
C1585 C 0.35665 0.08538 0.52068 0.0
H1586 H 0.39565 0.10394 0.49631 0.0
C1587 C 0.41305 0.0469 0.51922 0.0
C1588 C 0.42979 0.05807 0.52315 0.0
C1589 C 0.39874 0.05517 0.51612 0.0
C1590 C 0.38495 0.0987 0.50338 0.0
H1591 H 0.2973 0.09861 0.50165 0.0
H1592 H 0.32199 0.08343 0.50378 0.0
H1593 H 0.37058 0.11837 0.49243 0.0
H1594 H 0.44452 0.08678 0.52658 0.0
H1595 H 0.41952 0.10127 0.52117 0.0
H1596 H 0.37103 0.06578 0.53171 0.0
C1597 C 0.32423 0.09871 0.50509 0.0
C1598 C 0.37055 0.10697 0.50114 0.0
C1599 C 0.31005 0.1074 0.50375 0.0
C1600 C 0.43184 0.07773 0.52342 0.0
C1601 C 0.41749 0.08603 0.52032 0.0
C1602 C 0.37104 0.07711 0.5229 0.0
C1603 C 0.34105 0.10959 0.5079 0.0
C1604 C 0.35622 0.10046 0.50981 0.0
C1605 C 0.40074 0.07487 0.51684 0.0
C1606 C 0.38539 0.08367 0.51431 0.0
H1607 H 0.33146 0.15332 0.50915 0.0
H1608 H 0.35605 0.13823 0.51164 0.0
H1609 H 0.346 0.0802 0.52786 0.0
H1610 H 0.41098 0.03167 0.51847 0.0
H1611 H 0.38608 0.04608 0.51306 0.0
C1612 C 0.68605 0.59895 0.31118 0.0
C1613 C 0.67073 0.59365 0.2973 0.0
C1614 C 0.69777 0.61568 0.31089 0.0
C1615 C 0.71204 0.64754 0.27717 0.0
H1616 H 0.73257 0.68358 0.32457 0.0
C1617 C 0.75499 0.71903 0.27322 0.0
C1618 C 0.7692 0.72618 0.28833 0.0
C1619 C 0.7428 0.7032 0.27487 0.0
C1620 C 0.72715 0.67354 0.31124 0.0
H1621 H 0.65555 0.60185 0.27247 0.0
H1622 H 0.67613 0.63091 0.27184 0.0
H1623 H 0.71153 0.65531 0.3267 0.0
H1624 H 0.78213 0.72224 0.31679 0.0
H1625 H 0.76116 0.6941 0.31942 0.0
H1626 H 0.72787 0.66529 0.26171 0.0
C1627 C 0.67904 0.62212 0.28291 0.0
C1628 C 0.71505 0.65741 0.31247 0.0
C1629 C 0.66724 0.60554 0.28335 0.0
C1630 C 0.77119 0.71705 0.30499 0.0
C1631 C 0.7591 0.70105 0.30656 0.0
C1632 C 0.72426 0.66351 0.27596 0.0
C1633 C 0.69447 0.62726 0.29657 0.0
C1634 C 0.70732 0.64434 0.29542 0.0
C1635 C 0.74473 0.69393 0.2915 0.0
C1636 C 0.7319 0.67678 0.29295 0.0
H1637 H 0.68908 0.59011 0.32215 0.0
H1638 H 0.70962 0.61929 0.32152 0.0
H1639 H 0.70647 0.6375 0.26386 0.0
H1640 H 0.75334 0.72558 0.26002 0.0
H1641 H 0.7318 0.69831 0.2631 0.0
C1642 C 0.87401 0.48296 0.78004 0.0
C1643 C 0.87496 0.48777 0.76101 0.0
C1644 C 0.86625 0.46447 0.78259 0.0
C1645 C 0.85242 0.4141 0.75544 0.0
H1646 H 0.82692 0.40583 0.79804 0.0
C1647 C 0.81271 0.33894 0.76005 0.0
C1648 C 0.81116 0.33362 0.77876 0.0
C1649 C 0.82045 0.35758 0.75813 0.0
C1650 C 0.83416 0.40771 0.78616 0.0
H1651 H 0.86805 0.47637 0.72975 0.0
H1652 H 0.85456 0.44471 0.73411 0.0
H1653 H 0.84027 0.43797 0.7946 0.0
H1654 H 0.81685 0.34432 0.81018 0.0
H1655 H 0.83042 0.37644 0.80694 0.0
H1656 H 0.84641 0.38391 0.74701 0.0
C1657 C 0.86003 0.45503 0.74722 0.0
C1658 C 0.84189 0.42634 0.78417 0.0
C1659 C 0.86773 0.47343 0.74469 0.0
C1660 C 0.81768 0.34769 0.79548 0.0
C1661 C 0.82542 0.36633 0.79358 0.0
C1662 C 0.84473 0.39549 0.75745 0.0
C1663 C 0.8592 0.45005 0.7662 0.0
C1664 C 0.85113 0.42997 0.7687 0.0
C1665 C 0.82699 0.37172 0.77486 0.0
C1666 C 0.83537 0.39184 0.77281 0.0
H1667 H 0.87945 0.49344 0.79304 0.0
H1668 H 0.86611 0.4614 0.7975 0.0
H1669 H 0.85965 0.41597 0.74354 0.0
H1670 H 0.80786 0.32868 0.74675 0.0
H1671 H 0.82103 0.36092 0.74338 0.0
C1672 C 0.08199 0.85902 0.11939 0.0
C1673 C 0.06825 0.8439 0.11936 0.0
C1674 C 0.07937 0.87445 0.10993 0.0
C1675 C 0.04865 0.88993 0.07279 0.0
H1676 H 0.07204 0.9402 0.09908 0.0
C1677 C 0.03069 0.95843 0.0488 0.0
C1678 C 0.04408 0.97413 0.04958 0.0
C1679 C 0.03397 0.94213 0.0562 0.0
C1680 C 0.06557 0.92627 0.09138 0.0
H1681 H 0.04098 0.83311 0.10907 0.0
H1682 H 0.03639 0.86008 0.0928 0.0
H1683 H 0.07711 0.91268 0.11398 0.0
H1684 H 0.07152 0.98479 0.05859 0.0
H1685 H 0.07722 0.95641 0.0713 0.0
H1686 H 0.03697 0.9036 0.05029 0.0
C1687 C 0.04926 0.85992 0.09992 0.0
C1688 C 0.06849 0.91044 0.09993 0.0
C1689 C 0.05188 0.84447 0.10936 0.0
C1690 C 0.06088 0.97299 0.05765 0.0
C1691 C 0.06414 0.95673 0.06511 0.0
C1692 C 0.04571 0.90578 0.06424 0.0
C1693 C 0.06295 0.87521 0.1002 0.0
C1694 C 0.06004 0.89204 0.0908 0.0
C1695 C 0.05072 0.94114 0.06465 0.0
C1696 C 0.0541 0.92417 0.07345 0.0
H1697 H 0.09479 0.85903 0.12685 0.0
H1698 H 0.09028 0.88578 0.11019 0.0
H1699 H 0.04211 0.87599 0.06515 0.0
H1700 H 0.01759 0.95879 0.04274 0.0
H1701 H 0.02328 0.93049 0.05578 0.0
C1702 C 0.94304 0.24316 0.89696 0.0
C1703 C 0.95823 0.2503 0.89015 0.0
C1704 C 0.9271 0.24521 0.88734 0.0
C1705 C 0.90679 0.27322 0.85286 0.0
H1706 H 0.86757 0.23161 0.84653 0.0
C1707 C 0.83776 0.27928 0.81915 0.0
C1708 C 0.82825 0.26364 0.8055 0.0
C1709 C 0.85332 0.27813 0.83066 0.0
C1710 C 0.87839 0.24337 0.8481 0.0
H1711 H 0.96848 0.26513 0.86771 0.0
H1712 H 0.94063 0.26844 0.85073 0.0
H1713 H 0.89541 0.22846 0.8633 0.0
H1714 H 0.82731 0.23444 0.7935 0.0
H1715 H 0.85427 0.23245 0.81332 0.0
H1716 H 0.88978 0.2879 0.83712 0.0
C1717 C 0.94108 0.2615 0.86372 0.0
C1718 C 0.89435 0.24163 0.85792 0.0
C1719 C 0.95705 0.25945 0.87337 0.0
C1720 C 0.83435 0.24675 0.80391 0.0
C1721 C 0.84979 0.24557 0.81538 0.0
C1722 C 0.89078 0.27497 0.84303 0.0
C1723 C 0.92588 0.25442 0.87061 0.0
C1724 C 0.90881 0.25648 0.86034 0.0
C1725 C 0.85958 0.26127 0.8288 0.0
C1726 C 0.8764 0.25999 0.84036 0.0
H1727 H 0.94343 0.23613 0.9099 0.0
H1728 H 0.91574 0.23981 0.89325 0.0
H1729 H 0.91757 0.28505 0.85467 0.0
H1730 H 0.83335 0.29248 0.82069 0.0
H1731 H 0.86043 0.29043 0.84101 0.0
C1732 C 0.54641 0.23083 0.60479 0.0
C1733 C 0.56268 0.24267 0.60654 0.0
C1734 C 0.54338 0.21179 0.59614 0.0
C1735 C 0.56646 0.1733 0.58683 0.0
H1736 H 0.52427 0.14767 0.55169 0.0
C1737 C 0.55801 0.0963 0.54905 0.0
C1738 C 0.54198 0.08406 0.54756 0.0
C1739 C 0.56006 0.11577 0.55498 0.0
C1740 C 0.53605 0.15454 0.56166 0.0
H1741 H 0.58835 0.24386 0.59994 0.0
H1742 H 0.58305 0.21077 0.58486 0.0
H1743 H 0.52862 0.18144 0.56412 0.0
H1744 H 0.51543 0.08291 0.55082 0.0
H1745 H 0.51909 0.11686 0.56154 0.0
H1746 H 0.57384 0.1465 0.58476 0.0
C1747 C 0.57268 0.21613 0.59038 0.0
C1748 C 0.53855 0.17393 0.56874 0.0
C1749 C 0.57568 0.23516 0.59892 0.0
C1750 C 0.52796 0.09189 0.55178 0.0
C1751 C 0.53005 0.11141 0.55784 0.0
C1752 C 0.56394 0.15395 0.57985 0.0
C1753 C 0.55657 0.20413 0.58915 0.0
C1754 C 0.55382 0.18355 0.58137 0.0
C1755 C 0.54619 0.1236 0.55973 0.0
C1756 C 0.54873 0.14428 0.56711 0.0
H1757 H 0.53609 0.23613 0.6105 0.0
H1758 H 0.53086 0.20291 0.59555 0.0
H1759 H 0.57823 0.18016 0.59684 0.0
H1760 H 0.56907 0.09084 0.54573 0.0
H1761 H 0.57259 0.12471 0.55582 0.0
C1762 C 0.55862 0.76 0.37164 0.0
C1763 C 0.56104 0.76276 0.39244 0.0
C1764 C 0.57273 0.76094 0.36178 0.0
C1765 C 0.61998 0.77905 0.36941 0.0
H1766 H 0.61753 0.74264 0.32266 0.0
C1767 C 0.67995 0.77083 0.33439 0.0
C1768 C 0.67787 0.76764 0.3136 0.0
C1769 C 0.66568 0.77052 0.3439 0.0
C1770 C 0.61839 0.75307 0.33556 0.0
H1771 H 0.58028 0.76872 0.41913 0.0
H1772 H 0.60471 0.77018 0.40202 0.0
H1773 H 0.59266 0.74177 0.33911 0.0
H1774 H 0.65903 0.76217 0.28659 0.0
H1775 H 0.63429 0.76158 0.30311 0.0
H1776 H 0.64573 0.79031 0.3659 0.0
C1777 C 0.59196 0.76753 0.39327 0.0
C1778 C 0.60409 0.75258 0.345 0.0
C1779 C 0.5779 0.76657 0.4031 0.0
C1780 C 0.66115 0.76429 0.30261 0.0
C1781 C 0.64691 0.76396 0.3121 0.0
C1782 C 0.63428 0.77954 0.35998 0.0
C1783 C 0.5896 0.76471 0.37247 0.0
C1784 C 0.6047 0.76552 0.3621 0.0
C1785 C 0.64896 0.76702 0.33287 0.0
C1786 C 0.6337 0.76653 0.34294 0.0
H1787 H 0.54583 0.75708 0.36295 0.0
H1788 H 0.57042 0.7589 0.34575 0.0
H1789 H 0.62086 0.78944 0.38235 0.0
H1790 H 0.69259 0.77325 0.34334 0.0
H1791 H 0.66776 0.77269 0.35992 0.0
C1792 C 0.03557 0.24276 0.40311 0.0
C1793 C 0.01947 0.24769 0.39944 0.0
C1794 C 0.03746 0.22707 0.41232 0.0
C1795 C 0.01333 0.18269 0.42397 0.0
H1796 H 0.05233 0.18881 0.46613 0.0
C1797 C 0.01868 0.12987 0.47932 0.0
C1798 C 0.03494 0.12597 0.48524 0.0
C1799 C 0.01678 0.14379 0.46744 0.0
C1800 C 0.04151 0.18677 0.4542 0.0
H1801 H 0.99267 0.23987 0.40228 0.0
H1802 H 0.99604 0.21258 0.41855 0.0
H1803 H 0.04905 0.21488 0.44795 0.0
H1804 H 0.06183 0.13297 0.48268 0.0
H1805 H 0.05852 0.15722 0.46186 0.0
H1806 H 1.00573 0.1546 0.43038 0.0
C1807 C 0.00715 0.22074 0.41411 0.0
C1808 C 0.03963 0.20171 0.44379 0.0
C1809 C 1.00525 0.23645 0.40491 0.0
C1810 C 0.04919 0.13592 0.47863 0.0
C1811 C 0.0473 0.14979 0.46672 0.0
C1812 C 0.01523 0.16772 0.43437 0.0
C1813 C 0.0233 0.21599 0.41805 0.0
C1814 C 0.02549 0.19986 0.42863 0.0
C1815 C 0.03111 0.15405 0.46121 0.0
C1816 C 0.02931 0.16963 0.44965 0.0
H1817 H 0.04676 0.25107 0.39898 0.0
H1818 H 0.05003 0.2236 0.41494 0.0
H1819 H 1.00241 0.18079 0.41218 0.0
H1820 H 0.0075 0.12257 0.48437 0.0
H1821 H 1.00418 0.14691 0.46363 0.0
C1822 C 0.60388 0.23697 0.25229 0.0
C1823 C 0.59575 0.25047 0.24423 0.0
C1824 C 0.62148 0.24149 0.25976 0.0
C1825 C 0.66004 0.28117 0.27172 0.0
H1826 H 0.68229 0.24301 0.24886 0.0
C1827 C 0.73385 0.29107 0.27733 0.0
C1828 C 0.73977 0.28354 0.26053 0.0
C1829 C 0.71633 0.28775 0.27806 0.0
C1830 C 0.67626 0.25386 0.25524 0.0
H1831 H 0.59928 0.27981 0.2395 0.0
H1832 H 0.62982 0.28751 0.25203 0.0
H1833 H 0.65148 0.23566 0.24778 0.0
H1834 H 0.73194 0.26765 0.23089 0.0
H1835 H 0.70134 0.26239 0.2319 0.0
H1836 H 0.68481 0.29969 0.27816 0.0
C1837 C 0.62274 0.27348 0.25276 0.0
C1838 C 0.65863 0.24952 0.25498 0.0
C1839 C 0.6052 0.269 0.24538 0.0
C1840 C 0.72779 0.27353 0.24408 0.0
C1841 C 0.71028 0.27034 0.24475 0.0
C1842 C 0.67771 0.28555 0.27188 0.0
C1843 C 0.63122 0.25957 0.25926 0.0
C1844 C 0.65024 0.26326 0.26279 0.0
C1845 C 0.7044 0.27695 0.26195 0.0
C1846 C 0.68592 0.27207 0.26318 0.0
H1847 H 0.59689 0.22263 0.25182 0.0
H1848 H 0.6276 0.23058 0.26507 0.0
H1849 H 0.65397 0.292 0.27805 0.0
H1850 H 0.74276 0.29874 0.29034 0.0
H1851 H 0.71222 0.29296 0.29154 0.0
C1852 C 0.53635 0.85285 0.92088 0.0
C1853 C 0.52249 0.83733 0.9181 0.0
C1854 C 0.53708 0.86884 0.93465 0.0
C1855 C 0.51883 0.88625 0.97792 0.0
H1856 H 0.53331 0.93496 0.96157 0.0
C1857 C 0.53211 0.95828 0.03006 0.0
C1858 C 0.5282 0.97384 0.02155 0.0
C1859 C 0.52994 0.94066 0.01826 0.0
C1860 C 0.52903 0.92147 0.96629 0.0
H1861 H 0.49869 0.82623 0.92784 0.0
H1862 H 0.49979 0.85426 0.95154 0.0
H1863 H 0.53309 0.90619 0.93961 0.0
H1864 H 0.51789 0.983 0.99446 0.0
H1865 H 0.51352 0.95224 0.97409 0.0
H1866 H 0.51439 0.90169 1.00447 0.0
C1867 C 0.51024 0.85398 0.94333 0.0
C1868 C 0.52918 0.90497 0.95382 0.0
C1869 C 0.50955 0.83796 0.92963 0.0
C1870 C 0.52104 0.97125 1.0014 0.0
C1871 C 0.51873 0.95367 0.98969 0.0
C1872 C 0.51863 0.90282 0.99042 0.0
C1873 C 0.52392 0.86968 0.94584 0.0
C1874 C 0.52409 0.88716 0.95947 0.0
C1875 C 0.52374 0.93836 0.99782 0.0
C1876 C 0.52366 0.92061 0.98468 0.0
H1877 H 0.5466 0.85272 0.91234 0.0
H1878 H 0.54796 0.88057 0.93648 0.0
H1879 H 0.51498 0.87274 0.98278 0.0
H1880 H 0.53767 0.95994 0.04558 0.0
H1881 H 0.53396 0.92916 0.02496 0.0
C1882 C 0.97659 0.72789 0.69476 0.0
C1883 C 0.99293 0.72813 0.70529 0.0
C1884 C 0.9628 0.72856 0.70472 0.0
C1885 C 0.95516 0.74672 0.75362 0.0
H1886 H 0.90763 0.72659 0.72933 0.0
C1887 C 0.89759 0.76779 0.78601 0.0
C1888 C 0.88608 0.77388 0.77209 0.0
C1889 C 0.91022 0.75874 0.77989 0.0
C1890 C 0.92086 0.7322 0.73633 0.0
H1891 H 0.00735 0.72759 0.73424 0.0
H1892 H 0.98315 0.72839 0.75157 0.0
H1893 H 0.9304 0.71512 0.71488 0.0
H1894 H 0.87918 0.77578 0.74094 0.0
H1895 H 0.90094 0.75973 0.73032 0.0
H1896 H 0.94555 0.76412 0.77479 0.0
C1897 C 0.98111 0.7282 0.7357 0.0
C1898 C 0.93388 0.72569 0.72806 0.0
C1899 C 0.99494 0.72766 0.72576 0.0
C1900 C 0.88757 0.77089 0.752 0.0
C1901 C 0.90002 0.76168 0.74589 0.0
C1902 C 0.94212 0.7531 0.762 0.0
C1903 C 0.96503 0.7293 0.72538 0.0
C1904 C 0.95119 0.73338 0.73619 0.0
C1905 C 0.9114 0.75546 0.75974 0.0
C1906 C 0.92491 0.74638 0.75301 0.0
H1907 H 0.97462 0.7282 0.67898 0.0
H1908 H 0.95065 0.7296 0.69631 0.0
H1909 H 0.96835 0.75312 0.76015 0.0
H1910 H 0.89663 0.76968 0.80156 0.0
H1911 H 0.9189 0.75408 0.79083 0.0
C1912 C 0.09316 0.04134 0.84899 0.0
C1913 C 0.10959 0.03804 0.84747 0.0
C1914 C 0.08598 0.03787 0.86576 0.0
C1915 C 0.08892 0.01104 0.90756 0.0
H1916 H 0.06712 0.04865 0.93234 0.0
C1917 C 0.04962 0.99939 0.97071 0.0
C1918 C 0.05179 0.01485 0.9858 0.0
C1919 C 0.05756 1.00135 0.95418 0.0
C1920 C 0.07327 0.03807 0.92565 0.0
H1921 H 0.13136 0.02843 0.8623 0.0
H1922 H 0.11885 0.02247 0.89147 0.0
H1923 H 0.07869 0.05381 0.90232 0.0
H1924 H 0.0646 0.04415 0.99603 0.0
H1925 H 0.07859 0.0475 0.96736 0.0
H1926 H 0.08361 0.99539 0.93107 0.0
C1927 C 0.11146 0.02758 0.87966 0.0
C1928 C 0.0797 0.04093 0.90834 0.0
C1929 C 0.11866 0.03114 0.863 0.0
C1930 C 0.06269 0.03199 0.9846 0.0
C1931 C 0.07056 0.03397 0.9681 0.0
C1932 C 0.08238 0.00812 0.92483 0.0
C1933 C 0.09507 0.03092 0.88124 0.0
C1934 C 0.08768 0.0275 0.89918 0.0
C1935 C 0.06773 0.01884 0.9525 0.0
C1936 C 0.07461 0.02169 0.93412 0.0
H1937 H 0.08584 0.0466 0.83725 0.0
H1938 H 0.07326 0.04043 0.86654 0.0
H1939 H 0.09488 1.00037 0.9007 0.0
H1940 H 0.04128 0.98601 0.97133 0.0
H1941 H 0.05513 0.98946 0.94234 0.0
C1942 C 0.75631 0.34163 0.54701 0.0
C1943 C 0.75615 0.32402 0.53608 0.0
C1944 C 0.76951 0.34959 0.56298 0.0
C1945 C 0.81107 0.34229 0.59013 0.0
H1946 H 0.79033 0.35363 0.63612 0.0
C1947 C 0.81587 0.33625 0.67859 0.0
C1948 C 0.81654 0.31693 0.6761 0.0
C1949 C 0.81634 0.34627 0.66259 0.0
C1950 C 0.79666 0.35116 0.62355 0.0
H1951 H 0.76956 0.301 0.5328 0.0
H1952 H 0.79223 0.3144 0.56099 0.0
H1953 H 0.77498 0.35443 0.60361 0.0
H1954 H 0.8203 0.29368 0.65545 0.0
H1955 H 0.82129 0.31104 0.6279 0.0
H1956 H 0.83204 0.33722 0.61021 0.0
C1957 C 0.78263 0.32253 0.55698 0.0
C1958 C 0.78779 0.35159 0.60478 0.0
C1959 C 0.7695 0.31466 0.54101 0.0
C1960 C 0.81978 0.30853 0.658 0.0
C1961 C 0.82041 0.31857 0.64212 0.0
C1962 C 0.8199 0.34173 0.60894 0.0
C1963 C 0.78258 0.33988 0.56848 0.0
C1964 C 0.79436 0.34584 0.5878 0.0
C1965 C 0.81766 0.33717 0.64391 0.0
C1966 C 0.8122 0.34487 0.62569 0.0
H1967 H 0.74601 0.34899 0.54354 0.0
H1968 H 0.76912 0.363 0.57147 0.0
H1969 H 0.8167 0.33837 0.57733 0.0
H1970 H 0.8139 0.34331 0.69254 0.0
H1971 H 0.81444 0.36068 0.66447 0.0
C1972 C 0.43878 0.04693 0.34104 0.0
C1973 C 0.4442 0.03952 0.32376 0.0
C1974 C 0.4475 0.04588 0.36016 0.0
C1975 C 0.48053 0.021 0.38558 0.0
H1976 H 0.48045 0.0568 0.43189 0.0
C1977 C 0.52784 0.02611 0.45933 0.0
C1978 C 0.52201 0.02841 0.47755 0.0
C1979 C 0.51749 0.0272 0.4414 0.0
C1980 C 0.48052 0.04654 0.41917 0.0
H1981 H 0.46373 0.02588 0.31357 0.0
H1982 H 0.47913 0.02488 0.34611 0.0
H1983 H 0.46481 0.05984 0.39968 0.0
H1984 H 0.50042 0.03402 0.49088 0.0
H1985 H 0.48234 0.03631 0.45954 0.0
H1986 H 0.4966 0.00805 0.40495 0.0
C1987 C 0.46774 0.03082 0.3453 0.0
C1988 C 0.47144 0.04825 0.4005 0.0
C1989 C 0.45893 0.03161 0.32635 0.0
C1990 C 0.50535 0.03199 0.4772 0.0
C1991 C 0.49502 0.03345 0.45917 0.0
C1992 C 0.48975 0.01949 0.40409 0.0
C1993 C 0.4621 0.03756 0.36274 0.0
C1994 C 0.47137 0.03562 0.38317 0.0
C1995 C 0.5009 0.03099 0.44088 0.0
C1996 C 0.49008 0.03228 0.42127 0.0
H1997 H 0.42745 0.05301 0.33983 0.0
H1998 H 0.44243 0.05119 0.37288 0.0
H1999 H 0.48056 0.01043 0.37314 0.0
H2000 H 0.54059 0.02346 0.45888 0.0
H2001 H 0.52271 0.02543 0.42787 0.0
C2002 C 0.77507 0.67747 0.07147 0.0
C2003 C 0.77838 0.68793 0.05614 0.0
C2004 C 0.77673 0.68662 0.09086 0.0
C2005 C 0.77549 0.73184 0.11979 0.0
H2006 H 0.79854 0.71204 0.16343 0.0
C2007 C 0.76957 0.75289 0.20176 0.0
C2008 C 0.78465 0.75626 0.21595 0.0
C2009 C 0.7696 0.74588 0.18199 0.0
C2010 C 0.79217 0.71782 0.15139 0.0
H2011 H 0.78596 0.71623 0.04918 0.0
H2012 H 0.78865 0.73223 0.0831 0.0
H2013 H 0.79732 0.69717 0.12944 0.0
H2014 H 0.81169 0.75519 0.22033 0.0
H2015 H 0.81165 0.74279 0.18589 0.0
H2016 H 0.77016 0.75235 0.1418 0.0
C2017 C 0.78481 0.71693 0.08004 0.0
C2018 C 0.79135 0.70921 0.13196 0.0
C2019 C 0.78336 0.70776 0.06065 0.0
C2020 C 0.79982 0.75274 0.20983 0.0
C2021 C 0.7998 0.74554 0.19011 0.0
C2022 C 0.77613 0.74032 0.13926 0.0
C2023 C 0.78154 0.70644 0.09535 0.0
C2024 C 0.78293 0.71607 0.11595 0.0
C2025 C 0.78467 0.7419 0.17601 0.0
C2026 C 0.78444 0.73336 0.15528 0.0
H2027 H 0.77121 0.66218 0.06852 0.0
H2028 H 0.77395 0.67817 0.10231 0.0
H2029 H 0.76882 0.73735 0.10775 0.0
H2030 H 0.75766 0.7555 0.20593 0.0
H2031 H 0.75771 0.74309 0.17149 0.0
C2032 C 0.10654 0.0343 0.7437 0.0
C2033 C 0.10905 0.01834 0.75238 0.0
C2034 C 0.09738 0.03221 0.72454 0.0
C2035 C 0.08538 0.99892 0.67802 0.0
H2036 H 0.05601 0.03336 0.66335 0.0
C2037 C 0.05129 0.99618 0.59745 0.0
C2038 C 0.05249 0.01383 0.59082 0.0
C2039 C 0.05634 0.99521 0.61747 0.0
C2040 C 0.06422 0.02368 0.66722 0.0
H2041 H 0.10346 0.98762 0.74796 0.0
H2042 H 0.08733 0.98399 0.71443 0.0
H2043 H 0.0677 0.03426 0.69811 0.0
H2044 H 0.05988 0.04426 0.60004 0.0
H2045 H 0.06875 0.04252 0.63479 0.0
H2046 H 0.08213 0.9886 0.64704 0.0
C2047 C 0.09264 0.99812 0.72243 0.0
C2048 C 0.07092 0.02419 0.68711 0.0
C2049 C 0.1018 1.00021 0.74166 0.0
C2050 C 0.05877 0.03043 0.60462 0.0
C2051 C 0.06373 0.02945 0.62459 0.0
C2052 C 0.07865 0.99838 0.65809 0.0
C2053 C 0.09049 0.01411 0.71359 0.0
C2054 C 0.08187 0.0121 0.69271 0.0
C2055 C 0.06257 0.01185 0.63125 0.0
C2056 C 0.0683 0.01104 0.65246 0.0
H2057 H 0.11195 0.04848 0.75155 0.0
H2058 H 0.09616 0.04483 0.71808 0.0
H2059 H 0.09392 0.98955 0.68182 0.0
H2060 H 0.04649 0.98312 0.5872 0.0
H2061 H 0.05522 0.98144 0.6222 0.0
C2062 C 0.74722 0.3428 0.43658 0.0
C2063 C 0.73129 0.33682 0.44232 0.0
C2064 C 0.75035 0.33536 0.41824 0.0
C2065 C 0.7356 0.29223 0.38137 0.0
H2066 H 0.76876 0.31894 0.35365 0.0
C2067 C 0.75598 0.26136 0.30873 0.0
C2068 C 0.7738 0.26452 0.30919 0.0
C2069 C 0.74937 0.2696 0.32443 0.0
C2070 C 0.75952 0.31135 0.36133 0.0
H2071 H 0.70565 0.31961 0.43261 0.0
H2072 H 0.71097 0.30701 0.40024 0.0
H2073 H 0.75847 0.3365 0.38021 0.0
H2074 H 0.79871 0.27725 0.32683 0.0
H2075 H 0.78712 0.29186 0.35433 0.0
H2076 H 0.73659 0.26712 0.36216 0.0
C2077 C 0.72122 0.31701 0.41022 0.0
C2078 C 0.75362 0.32136 0.37652 0.0
C2079 C 0.71812 0.32435 0.4287 0.0
C2080 C 0.78492 0.27481 0.32613 0.0
C2081 C 0.77832 0.28324 0.34172 0.0
C2082 C 0.74131 0.28228 0.36596 0.0
C2083 C 0.73757 0.32192 0.40508 0.0
C2084 C 0.74191 0.31185 0.38707 0.0
C2085 C 0.7605 0.28113 0.34071 0.0
C2086 C 0.75362 0.2917 0.35618 0.0
H2087 H 0.75765 0.35245 0.44668 0.0
H2088 H 0.76315 0.33937 0.41493 0.0
H2089 H 0.72679 0.28438 0.38933 0.0
H2090 H 0.74713 0.25344 0.2958 0.0
H2091 H 0.73558 0.26776 0.32339 0.0
C2092 C 0.43635 0.01661 0.2079 0.0
C2093 C 0.43405 0.03342 0.21885 0.0
C2094 C 0.44461 0.01682 0.19123 0.0
C2095 C 0.47478 0.04779 0.16577 0.0
H2096 H 0.45903 1.00664 0.12183 0.0
C2097 C 0.51528 0.03557 0.10248 0.0
C2098 C 0.5068 0.02868 0.08282 0.0
C2099 C 0.50616 0.03685 0.11847 0.0
C2100 C 0.46366 0.01837 0.13381 0.0
H2101 H 0.43912 0.06386 0.22015 0.0
H2102 H 0.45373 0.0643 0.1912 0.0
H2103 H 0.44383 0.00796 0.14987 0.0
H2104 H 0.48157 0.0177 0.06512 0.0
H2105 H 0.46576 0.0197 0.0928 0.0
H2106 H 0.49466 0.05816 0.14968 0.0
C2107 C 0.44903 0.05079 0.19563 0.0
C2108 C 0.45495 0.01904 0.1502 0.0
C2109 C 0.4405 0.05056 0.2123 0.0
C2110 C 0.48873 0.02305 0.07989 0.0
C2111 C 0.4796 0.02413 0.09595 0.0
C2112 C 0.48363 0.047 0.14946 0.0
C2113 C 0.45121 0.03387 0.18465 0.0
C2114 C 0.46032 0.03371 0.16664 0.0
C2115 C 0.48809 0.03111 0.11564 0.0
C2116 C 0.47832 0.03223 0.13309 0.0
H2117 H 0.4317 1.00302 0.21219 0.0
H2118 H 0.44609 1.00343 0.18369 0.0
H2119 H 0.47957 0.0593 0.17795 0.0
H2120 H 0.52912 0.04012 0.10563 0.0
H2121 H 0.51341 0.04209 0.1332 0.0
C2122 C 0.75439 0.70218 0.96412 0.0
C2123 C 0.75769 0.6838 0.96309 0.0
C2124 C 0.75566 0.71213 0.94811 0.0
C2125 C 0.75345 0.70586 0.89434 0.0
H2126 H 0.78118 0.75674 0.90331 0.0
C2127 C 0.77273 0.74362 0.82966 0.0
C2128 C 0.77561 0.76346 0.83184 0.0
C2129 C 0.7691 0.73416 0.84547 0.0
C2130 C 0.77308 0.74271 0.90049 0.0
H2131 H 0.76466 0.66137 0.94429 0.0
H2132 H 0.7665 0.67862 0.91618 0.0
H2133 H 0.77755 0.73985 0.93123 0.0
H2134 H 0.77614 0.78892 0.8519 0.0
H2135 H 0.76906 0.77243 0.87929 0.0
H2136 H 0.74859 0.70871 0.86373 0.0
C2137 C 0.76304 0.68534 0.92945 0.0
C2138 C 0.7711 0.73299 0.91655 0.0
C2139 C 0.76207 0.67551 0.94558 0.0
C2140 C 0.77409 0.77361 0.84988 0.0
C2141 C 0.7702 0.76413 0.86563 0.0
C2142 C 0.75518 0.71568 0.8783 0.0
C2143 C 0.75995 0.70379 0.93058 0.0
C2144 C 0.76143 0.71438 0.91362 0.0
C2145 C 0.76798 0.74427 0.86381 0.0
C2146 C 0.76521 0.73419 0.88108 0.0
H2147 H 0.75104 0.70899 0.9774 0.0
H2148 H 0.75313 0.72629 0.94936 0.0
H2149 H 0.74573 0.69161 0.89168 0.0
H2150 H 0.77389 0.7354 0.81594 0.0
H2151 H 0.76778 0.71893 0.84344 0.0
C2152 C 0.87065 0.16012 0.02074 0.0
C2153 C 0.85275 0.15365 0.0172 0.0
C2154 C 0.88099 0.15013 0.01091 0.0
C2155 C 0.87986 0.10139 0.99054 0.0
H2156 H 0.92363 0.12223 0.97647 0.0
C2157 C 0.92619 0.0531 0.97713 0.0
C2158 C 0.9429 0.06016 0.98774 0.0
C2159 C 0.91493 0.06526 0.97382 0.0
C2160 C 0.91142 0.1162 0.98031 0.0
H2161 H 0.83154 0.13277 0.99927 0.0
H2162 H 0.84956 0.11553 0.98203 0.0
H2163 H 0.904 0.14308 0.98366 0.0
H2164 H 0.96146 0.08578 1.00134 0.0
H2165 H 0.94162 0.10682 0.99652 0.0
H2166 H 0.88746 0.07484 0.98842 0.0
C2167 C 0.85563 0.12802 0.99271 0.0
C2168 C 0.9002 0.12813 0.98439 0.0
C2169 C 0.84533 0.13789 1.0026 0.0
C2170 C 0.94851 0.07982 0.99361 0.0
C2171 C 0.93718 0.09195 0.99053 0.0
C2172 C 0.89106 0.08954 0.9866 0.0
C2173 C 0.87359 0.13359 0.9973 0.0
C2174 C 0.88448 0.12089 0.99001 0.0
C2175 C 0.92006 0.08471 0.98128 0.0
C2176 C 0.90717 0.09685 0.98194 0.0
H2177 H 0.87672 0.17228 0.03184 0.0
H2178 H 0.89481 0.15471 0.01486 0.0
H2179 H 0.86799 0.09541 0.99516 0.0
H2180 H 0.92146 0.03805 0.97233 0.0
H2181 H 0.90193 0.05929 0.96623 0.0
C2182 C 0.36128 0.43177 0.04391 0.0
C2183 C 0.35672 0.43209 0.06283 0.0
C2184 C 0.37776 0.44046 0.0416 0.0
C2185 C 0.41541 0.47719 0.06568 0.0
H2186 H 0.44011 0.45003 0.03181 0.0
C2187 C 0.48638 0.50672 0.06297 0.0
C2188 C 0.49196 0.50443 0.04469 0.0
C2189 C 0.47014 0.49725 0.06514 0.0
C2190 C 0.43334 0.45795 0.04111 0.0
H2191 H 0.36592 0.44212 0.09412 0.0
H2192 H 0.39461 0.45753 0.09002 0.0
H2193 H 0.41114 0.4353 0.03548 0.0
H2194 H 0.48512 0.49014 0.01439 0.0
H2195 H 0.45649 0.47393 0.01793 0.0
H2196 H 0.4373 0.5 0.07103 0.0
C2197 C 0.3854 0.45049 0.07699 0.0
C2198 C 0.41674 0.44946 0.04326 0.0
C2199 C 0.36897 0.44161 0.07934 0.0
C2200 C 0.48114 0.49212 0.02867 0.0
C2201 C 0.46475 0.48278 0.03077 0.0
C2202 C 0.43192 0.48576 0.06339 0.0
C2203 C 0.39003 0.44988 0.05811 0.0
C2204 C 0.40761 0.45896 0.05564 0.0
C2205 C 0.45894 0.4854 0.04899 0.0
C2206 C 0.4412 0.47623 0.05117 0.0
H2207 H 0.35219 0.42454 0.03086 0.0
H2208 H 0.38086 0.43991 0.02684 0.0
H2209 H 0.40863 0.48498 0.0751 0.0
H2210 H 0.49454 0.51598 0.07563 0.0
H2211 H 0.46639 0.49928 0.07953 0.0
C2212 C 0.38632 0.56326 0.77728 0.0
C2213 C 0.39244 0.55403 0.76159 0.0
C2214 C 0.37655 0.57693 0.77399 0.0
C2215 C 0.34947 0.59314 0.73462 0.0
H2216 H 0.35945 0.64033 0.77103 0.0
C2217 C 0.32135 0.65776 0.71696 0.0
C2218 C 0.31635 0.66854 0.73253 0.0
C2219 C 0.33 0.64327 0.72065 0.0
C2220 C 0.35634 0.62713 0.76087 0.0
H2221 H 0.39312 0.55186 0.73011 0.0
H2222 H 0.37617 0.57571 0.72443 0.0
H2223 H 0.37574 0.61599 0.77739 0.0
H2224 H 0.31597 0.67218 0.76406 0.0
H2225 H 0.33096 0.64681 0.7705 0.0
H2226 H 0.33008 0.60426 0.71808 0.0
C2227 C 0.37876 0.57227 0.73924 0.0
C2228 C 0.36568 0.6132 0.76451 0.0
C2229 C 0.38857 0.55869 0.74253 0.0
C2230 C 0.31992 0.66431 0.75181 0.0
C2231 C 0.32852 0.6498 0.7555 0.0
C2232 C 0.34008 0.60705 0.731 0.0
C2233 C 0.37266 0.58154 0.75492 0.0
C2234 C 0.3624 0.5961 0.75137 0.0
C2235 C 0.33379 0.63922 0.73999 0.0
C2236 C 0.34347 0.62424 0.74404 0.0
H2237 H 0.38906 0.55997 0.79213 0.0
H2238 H 0.37189 0.58373 0.78633 0.0
H2239 H 0.34649 0.57999 0.72438 0.0
H2240 H 0.31895 0.66085 0.70199 0.0
H2241 H 0.33409 0.63555 0.70842 0.0
C2242 C 0.27641 0.59848 0.56342 0.0
C2243 C 0.28578 0.61417 0.57714 0.0
C2244 C 0.2623 0.58664 0.56806 0.0
C2245 C 0.22952 0.59013 0.59875 0.0
H2246 H 0.21247 0.53744 0.57552 0.0
C2247 C 0.16029 0.55351 0.59948 0.0
C2248 C 0.15117 0.54421 0.58085 0.0
C2249 C 0.17817 0.55862 0.60279 0.0
C2250 C 0.2171 0.55214 0.58214 0.0
H2251 H 0.28864 0.62874 0.60713 0.0
H2252 H 0.26408 0.60788 0.61534 0.0
H2253 H 0.24227 0.55243 0.57542 0.0
H2254 H 0.15375 0.53201 0.55149 0.0
H2255 H 0.18499 0.54135 0.55714 0.0
H2256 H 0.20428 0.59011 0.60482 0.0
C2257 C 0.26744 0.605 0.60082 0.0
C2258 C 0.23414 0.56072 0.5821 0.0
C2259 C 0.28155 0.6169 0.59615 0.0
C2260 C 0.16039 0.53937 0.56591 0.0
C2261 C 0.1783 0.54451 0.56924 0.0
C2262 C 0.21254 0.58155 0.59885 0.0
C2263 C 0.25727 0.59017 0.58656 0.0
C2264 C 0.24038 0.57998 0.58986 0.0
C2265 C 0.18735 0.55461 0.58756 0.0
C2266 C 0.206 0.56262 0.59005 0.0
H2267 H 0.2794 0.59587 0.54868 0.0
H2268 H 0.25471 0.57547 0.55665 0.0
H2269 H 0.23377 0.60506 0.60456 0.0
H2270 H 0.1536 0.55761 0.61127 0.0
H2271 H 0.1848 0.56623 0.61713 0.0
C2272 C 0.70243 0.95359 0.79684 0.0
C2273 C 0.68436 0.94973 0.79128 0.0
C2274 C 0.7118 0.93875 0.7967 0.0
C2275 C 0.70555 0.88475 0.79428 0.0
H2276 H 0.75192 0.89225 0.78341 0.0
C2277 C 0.73999 0.82021 0.78232 0.0
C2278 C 0.75804 0.823 0.78742 0.0
C2279 C 0.73143 0.83562 0.78311 0.0
C2280 C 0.73904 0.88974 0.78673 0.0
H2281 H 0.66244 0.92647 0.78094 0.0
H2282 H 0.67835 0.90136 0.78045 0.0
H2283 H 0.73702 0.91856 0.78445 0.0
H2284 H 0.78092 0.84502 0.79745 0.0
H2285 H 0.76624 0.8715 0.79902 0.0
H2286 H 0.7075 0.85601 0.7966 0.0
C2287 C 0.68551 0.91572 0.78537 0.0
C2288 C 0.73036 0.90509 0.78733 0.0
C2289 C 0.67623 0.93042 0.78551 0.0
C2290 C 0.76708 0.84197 0.79336 0.0
C2291 C 0.75853 0.85738 0.79411 0.0
C2292 C 0.71419 0.86944 0.79367 0.0
C2293 C 0.70354 0.91936 0.79106 0.0
C2294 C 0.71331 0.903 0.791 0.0
C2295 C 0.74045 0.85467 0.78899 0.0
C2296 C 0.73116 0.87144 0.78979 0.0
H2297 H 0.70937 0.96809 0.80141 0.0
H2298 H 0.72558 0.94254 0.80136 0.0
H2299 H 0.69269 0.88219 0.79766 0.0
H2300 H 0.73238 0.80603 0.77751 0.0
H2301 H 0.71762 0.83248 0.7787 0.0
C2302 C 0.75963 0.93543 0.54433 0.0
C2303 C 0.75695 0.91703 0.54923 0.0
C2304 C 0.74594 0.94475 0.54131 0.0
C2305 C 0.69817 0.93523 0.53003 0.0
H2306 H 0.70445 0.98901 0.54828 0.0
C2307 C 0.64121 0.97298 0.53351 0.0
C2308 C 0.64289 0.99124 0.52825 0.0
C2309 C 0.65513 0.96393 0.53492 0.0
C2310 C 0.70252 0.97402 0.54287 0.0
H2311 H 0.73779 0.89421 0.55523 0.0
H2312 H 0.71412 0.91052 0.55037 0.0
H2313 H 0.72878 0.97353 0.55344 0.0
H2314 H 0.66052 0.01392 0.51963 0.0
H2315 H 0.6848 0.99817 0.52221 0.0
H2316 H 0.67187 0.93568 0.5197 0.0
C2317 C 0.72669 0.91764 0.5484 0.0
C2318 C 0.71649 0.96513 0.54582 0.0
C2319 C 0.74033 0.90832 0.55135 0.0
C2320 C 0.6588 1.00001 0.52404 0.0
C2321 C 0.67275 0.99098 0.52553 0.0
C2322 C 0.68421 0.9441 0.52715 0.0
C2323 C 0.72924 0.93592 0.54316 0.0
C2324 C 0.71449 0.94558 0.53956 0.0
C2325 C 0.67114 0.9729 0.53117 0.0
C2326 C 0.68616 0.96359 0.53362 0.0
H2327 H 0.77226 0.94253 0.54251 0.0
H2328 H 0.74839 0.95873 0.5371 0.0
H2329 H 0.69618 0.92024 0.52463 0.0
H2330 H 0.62929 0.96589 0.53722 0.0
H2331 H 0.65348 0.95011 0.53955 0.0
C2332 C 0.38021 0.45482 0.75041 0.0
C2333 C 0.39662 0.45381 0.74629 0.0
C2334 C 0.36835 0.43838 0.75115 0.0
C2335 C 0.35867 0.38615 0.73667 0.0
H2336 H 0.33004 0.38784 0.7771 0.0
C2337 C 0.31665 0.31954 0.75639 0.0
C2338 C 0.30004 0.321 0.75917 0.0
C2339 C 0.32839 0.33549 0.75395 0.0
C2340 C 0.33784 0.38721 0.76562 0.0
H2341 H 0.41342 0.43474 0.73954 0.0
H2342 H 0.39285 0.40602 0.74131 0.0
H2343 H 0.35078 0.41608 0.77465 0.0
H2344 H 0.28222 0.33977 0.76085 0.0
H2345 H 0.30279 0.36783 0.75679 0.0
H2346 H 0.34585 0.35706 0.72797 0.0
C2347 C 0.38902 0.41951 0.74361 0.0
C2348 C 0.3497 0.4034 0.76416 0.0
C2349 C 0.40085 0.43598 0.7427 0.0
C2350 C 0.29509 0.33844 0.75894 0.0
C2351 C 0.30685 0.35445 0.75672 0.0
C2352 C 0.34688 0.36988 0.73825 0.0
C2353 C 0.37266 0.42052 0.74799 0.0
C2354 C 0.3602 0.40313 0.7496 0.0
C2355 C 0.32367 0.35316 0.75436 0.0
C2356 C 0.33629 0.37029 0.75267 0.0
H2357 H 0.37648 0.46834 0.75307 0.0
H2358 H 0.35576 0.43969 0.75414 0.0
H2359 H 0.36638 0.38548 0.72512 0.0
H2360 H 0.32041 0.30602 0.75572 0.0
H2361 H 0.34124 0.33407 0.75206 0.0
C2362 C 0.19644 0.57289 0.3078 0.0
C2363 C 0.19305 0.56027 0.28979 0.0
C2364 C 0.20434 0.59225 0.30889 0.0
C2365 C 0.21305 0.6298 0.27617 0.0
H2366 H 0.24607 0.65786 0.32142 0.0
C2367 C 0.25382 0.70376 0.27178 0.0
C2368 C 0.25875 0.71794 0.28859 0.0
C2369 C 0.24573 0.68512 0.27302 0.0
C2370 C 0.23672 0.6504 0.30869 0.0
H2371 H 0.19583 0.55868 0.25891 0.0
H2372 H 0.2094 0.59165 0.26083 0.0
H2373 H 0.23235 0.6249 0.32181 0.0
H2374 H 0.25884 0.72299 0.32015 0.0
H2375 H 0.24457 0.69058 0.32233 0.0
H2376 H 0.2172 0.65508 0.26303 0.0
C2377 C 0.20578 0.5869 0.27415 0.0
C2378 C 0.2288 0.63133 0.30892 0.0
C2379 C 0.19802 0.56771 0.27309 0.0
C2380 C 0.25529 0.71263 0.30681 0.0
C2381 C 0.24714 0.69387 0.30806 0.0
C2382 C 0.2209 0.64877 0.27595 0.0
C2383 C 0.20899 0.59969 0.29198 0.0
C2384 C 0.21695 0.62053 0.29252 0.0
C2385 C 0.2421 0.6797 0.29114 0.0
C2386 C 0.23311 0.65948 0.29206 0.0
H2387 H 0.19284 0.56788 0.32102 0.0
H2388 H 0.20644 0.60147 0.32294 0.0
H2389 H 0.20372 0.62241 0.26339 0.0
H2390 H 0.25628 0.707 0.25745 0.0
H2391 H 0.24255 0.67485 0.25962 0.0
C2392 C 0.51446 0.69835 0.43897 0.0
C2393 C 0.51387 0.71508 0.4512 0.0
C2394 C 0.51575 0.68176 0.44695 0.0
C2395 C 0.52897 0.66488 0.49425 0.0
H2396 H 0.50472 0.61587 0.46537 0.0
C2397 C 0.54386 0.59474 0.51644 0.0
C2398 C 0.53017 0.5791 0.51452 0.0
C2399 C 0.54126 0.61136 0.50929 0.0
C2400 C 0.51146 0.62944 0.47375 0.0
H2401 H 0.51397 0.72731 0.48146 0.0
H2402 H 0.51604 0.69841 0.4953 0.0
H2403 H 0.50098 0.64455 0.45187 0.0
H2404 H 0.5029 0.56891 0.50372 0.0
H2405 H 0.49833 0.59795 0.49153 0.0
H2406 H 0.53927 0.64981 0.51626 0.0
C2407 C 0.51576 0.69816 0.47956 0.0
C2408 C 0.50949 0.64591 0.46587 0.0
C2409 C 0.51446 0.71474 0.47159 0.0
C2410 C 0.51376 0.58063 0.50548 0.0
C2411 C 0.51115 0.59727 0.49833 0.0
C2412 C 0.53096 0.64842 0.50212 0.0
C2413 C 0.51649 0.68145 0.46738 0.0
C2414 C 0.51828 0.66387 0.47596 0.0
C2415 C 0.5249 0.61284 0.50004 0.0
C2416 C 0.52231 0.63044 0.49193 0.0
H2417 H 0.51408 0.69807 0.42321 0.0
H2418 H 0.51651 0.66928 0.43712 0.0
H2419 H 0.53609 0.6784 0.50238 0.0
H2420 H 0.5567 0.59411 0.52323 0.0
H2421 H 0.55221 0.62291 0.51065 0.0
C2422 C 0.61317 0.26438 0.68049 0.0
C2423 C 0.60691 0.28102 0.67886 0.0
C2424 C 0.62994 0.2652 0.68995 0.0
C2425 C 0.67245 0.29832 0.70727 0.0
H2426 H 0.68158 0.25868 0.73745 0.0
C2427 C 0.73636 0.30308 0.76083 0.0
C2428 C 0.74324 0.28669 0.76068 0.0
C2429 C 0.72022 0.30254 0.74974 0.0
C2430 C 0.67929 0.26975 0.7289 0.0
H2431 H 0.61343 0.31161 0.68611 0.0
H2432 H 0.64252 0.31306 0.70317 0.0
H2433 H 0.65244 0.2577 0.72117 0.0
H2434 H 0.73883 0.25699 0.7484 0.0
H2435 H 0.71051 0.25597 0.72915 0.0
H2436 H 0.69935 0.31059 0.71557 0.0
C2437 C 0.63461 0.29934 0.69672 0.0
C2438 C 0.66254 0.26919 0.71949 0.0
C2439 C 0.61785 0.29852 0.68705 0.0
C2440 C 0.73384 0.26984 0.74883 0.0
C2441 C 0.71759 0.26923 0.73791 0.0
C2442 C 0.68919 0.29898 0.71688 0.0
C2443 C 0.64093 0.28268 0.69827 0.0
C2444 C 0.65885 0.28344 0.70848 0.0
C2445 C 0.7105 0.28553 0.73841 0.0
C2446 C 0.69281 0.28468 0.72777 0.0
H2447 H 0.60518 0.25065 0.67419 0.0
H2448 H 0.63436 0.25207 0.69043 0.0
H2449 H 0.67026 0.30938 0.69867 0.0
H2450 H 0.74334 0.31627 0.76981 0.0
H2451 H 0.7151 0.3153 0.75055 0.0
C2452 C 1.00297 0.31342 0.96709 0.0
C2453 C 0.01199 0.30793 0.9522 0.0
C2454 C 1.00572 0.33242 0.9757 0.0
C2455 C 1.00555 0.37421 0.98312 0.0
H2456 H 0.04977 0.40799 0.98801 0.0
C2457 C 0.0137 0.45535 1.00283 0.0
C2458 C 0.02933 0.46581 0.01399 0.0
C2459 C 0.01179 0.43606 0.99579 0.0
C2460 C 0.03736 0.39877 0.98704 0.0
H2461 H 0.03109 0.31807 0.93477 0.0
H2462 H 0.03543 0.35117 0.94914 0.0
H2463 H 0.04666 0.37453 0.97624 0.0
H2464 H 0.0551 0.46411 0.02692 0.0
H2465 H 0.05159 0.43045 0.01545 0.0
H2466 H 0.99645 0.39828 0.99482 0.0
C2467 C 0.02658 0.34084 0.95469 0.0
C2468 C 0.0355 0.37952 0.97993 0.0
C2469 C 0.02403 0.3218 0.94634 0.0
C2470 C 0.04293 0.4565 0.01819 0.0
C2471 C 0.04093 0.43716 0.01145 0.0
C2472 C 0.00748 0.39341 0.99053 0.0
C2473 C 0.01736 0.34649 0.9694 0.0
C2474 C 0.01953 0.36695 0.9777 0.0
C2475 C 0.02537 0.42664 1.00002 0.0
C2476 C 0.02338 0.40603 0.99248 0.0
H2477 H 0.99368 0.30304 0.97204 0.0
H2478 H 0.99866 0.33603 0.98729 0.0
H2479 H 0.99296 0.36515 0.98137 0.0
H2480 H 1.00301 0.46214 0.9992 0.0
H2481 H 0.99971 0.42864 0.98674 0.0
C2482 C 0.99431 0.78671 0.15385 0.0
C2483 C 0.01103 0.78922 0.16458 0.0
C2484 C 0.9802 0.78602 0.16357 0.0
C2485 C 0.96601 0.77728 0.21084 0.0
H2486 H 0.92914 0.80149 0.1917 0.0
C2487 C 0.90989 0.78363 0.2531 0.0
C2488 C 0.89327 0.7805 0.24191 0.0
C2489 C 0.92431 0.785 0.24385 0.0
C2490 C 0.93923 0.79447 0.19711 0.0
H2491 H 0.02597 0.793 0.19406 0.0
H2492 H 1.00132 0.79196 0.2111 0.0
H2493 H 0.95427 0.80353 0.17559 0.0
H2494 H 0.8789 0.77636 0.21208 0.0
H2495 H 0.90407 0.7788 0.19592 0.0
H2496 H 0.95094 0.76822 0.23235 0.0
C2497 C 0.99912 0.79032 0.19509 0.0
C2498 C 0.95366 0.79565 0.18787 0.0
C2499 C 0.01328 0.79102 0.18533 0.0
C2500 C 0.89149 0.77898 0.22119 0.0
C2501 C 0.90594 0.78038 0.21192 0.0
C2502 C 0.95157 0.77612 0.22009 0.0
C2503 C 0.98239 0.78784 0.18432 0.0
C2504 C 0.96723 0.787 0.19455 0.0
C2505 C 0.92254 0.78334 0.22313 0.0
C2506 C 0.93796 0.78466 0.21331 0.0
H2507 H 0.99205 0.7852 0.13785 0.0
H2508 H 0.96752 0.78379 0.15475 0.0
H2509 H 0.97606 0.77021 0.21621 0.0
H2510 H 0.91181 0.78528 0.2691 0.0
H2511 H 0.93689 0.78764 0.25298 0.0
C2512 C 0.57445 0.3108 0.16908 0.0
C2513 C 0.56033 0.29945 0.17462 0.0
C2514 C 0.57209 0.32521 0.158 0.0
C2515 C 0.53908 0.33888 0.12348 0.0
H2516 H 0.57041 0.38778 0.13341 0.0
C2517 C 0.52619 0.39946 0.0812 0.0
C2518 C 0.54021 0.4098 0.07452 0.0
C2519 C 0.52871 0.38672 0.09432 0.0
C2520 C 0.56164 0.37413 0.13036 0.0
H2521 H 0.53275 0.29471 0.17345 0.0
H2522 H 0.52869 0.31995 0.15431 0.0
H2523 H 0.57476 0.36434 0.15505 0.0
H2524 H 0.56784 0.41491 0.07633 0.0
H2525 H 0.57224 0.39258 0.09921 0.0
H2526 H 0.52605 0.34852 0.09873 0.0
C2527 C 0.54154 0.31751 0.15825 0.0
C2528 C 0.56413 0.36073 0.14275 0.0
C2529 C 0.54388 0.30312 0.16931 0.0
C2530 C 0.55682 0.40729 0.0814 0.0
C2531 C 0.55933 0.39453 0.09452 0.0
C2532 C 0.5366 0.35224 0.11111 0.0
C2533 C 0.55557 0.32853 0.15225 0.0
C2534 C 0.55287 0.34296 0.13942 0.0
C2535 C 0.54529 0.38403 0.10102 0.0
C2536 C 0.54786 0.37 0.1144 0.0
H2537 H 0.58729 0.30832 0.17295 0.0
H2538 H 0.58314 0.33338 0.15345 0.0
H2539 H 0.53037 0.32518 0.12031 0.0
H2540 H 0.51328 0.40134 0.07642 0.0
H2541 H 0.51766 0.37906 0.09933 0.0
C2542 C 0.97422 0.29115 0.32972 0.0
C2543 C 0.98211 0.27592 0.33311 0.0
C2544 C 0.95721 0.28783 0.32018 0.0
C2545 C 0.91738 0.25539 0.31585 0.0
H2546 H 0.90148 0.28142 0.27327 0.0
C2547 C 0.85133 0.27533 0.30269 0.0
C2548 C 0.84197 0.27082 0.28335 0.0
C2549 C 0.86807 0.27251 0.30659 0.0
C2550 C 0.90578 0.27387 0.28497 0.0
H2551 H 0.97862 0.24532 0.32896 0.0
H2552 H 0.94853 0.23954 0.31278 0.0
H2553 H 0.93231 0.28317 0.28317 0.0
H2554 H 0.8426 0.25965 0.25293 0.0
H2555 H 0.8722 0.25529 0.25975 0.0
H2556 H 0.89092 0.24702 0.31844 0.0
C2557 C 0.95567 0.25398 0.31726 0.0
C2558 C 0.92333 0.27494 0.29066 0.0
C2559 C 0.97283 0.2573 0.32644 0.0
C2560 C 0.84955 0.26323 0.26799 0.0
C2561 C 0.86643 0.26075 0.27184 0.0
C2562 C 0.89985 0.25462 0.31042 0.0
C2563 C 0.94773 0.26924 0.31423 0.0
C2564 C 0.92925 0.26598 0.30636 0.0
C2565 C 0.8758 0.26544 0.29116 0.0
C2566 C 0.89398 0.26414 0.29519 0.0
H2567 H 0.98114 0.30563 0.33465 0.0
H2568 H 0.95126 0.2998 0.31815 0.0
H2569 H 0.92171 0.24852 0.32812 0.0
H2570 H 0.84575 0.28109 0.31481 0.0
H2571 H 0.87517 0.27637 0.32157 0.0
C2572 C 0.03785 0.69964 0.63149 0.0
C2573 C 0.05254 0.71391 0.63889 0.0
C2574 C 0.03777 0.68593 0.61548 0.0
C2575 C 0.0669 0.66122 0.59272 0.0
H2576 H 0.0262 0.63966 0.5533 0.0
C2577 C 0.03694 0.59213 0.52751 0.0
C2578 C 0.03991 0.57798 0.53889 0.0
C2579 C 0.04136 0.61119 0.53614 0.0
C2580 C 0.03781 0.64572 0.56393 0.0
H2581 H 0.07848 0.72538 0.63487 0.0
H2582 H 0.07836 0.70124 0.60695 0.0
H2583 H 0.02764 0.66941 0.57468 0.0
H2584 H 0.0506 0.57256 0.56776 0.0
H2585 H 0.05842 0.60569 0.58273 0.0
H2586 H 0.07678 0.63715 0.58248 0.0
C2587 C 0.06694 0.7007 0.61361 0.0
C2588 C 0.03855 0.66264 0.57629 0.0
C2589 C 0.06698 0.71452 0.62955 0.0
C2590 C 0.04821 0.5832 0.55864 0.0
C2591 C 0.05277 0.6022 0.56719 0.0
C2592 C 0.06612 0.64426 0.58042 0.0
C2593 C 0.05241 0.68612 0.60659 0.0
C2594 C 0.05286 0.67021 0.59124 0.0
C2595 C 0.04899 0.61635 0.55618 0.0
C2596 C 0.05133 0.63602 0.56636 0.0
H2597 H 0.0265 0.69883 0.63831 0.0
H2598 H 0.02646 0.67473 0.61058 0.0
H2599 H 0.07806 0.66668 0.60415 0.0
H2600 H 0.03059 0.58844 0.51221 0.0
H2601 H 0.03839 0.62184 0.52731 0.0
C2602 C 0.5619 0.79319 0.82071 0.0
C2603 C 0.56593 0.80975 0.83475 0.0
C2604 C 0.57302 0.7897 0.80773 0.0
C2605 C 0.61131 0.8106 0.78782 0.0
H2606 H 0.62072 0.76023 0.78765 0.0
C2607 C 0.67431 0.79051 0.77176 0.0
C2608 C 0.67404 0.77167 0.76391 0.0
C2609 C 0.65919 0.79603 0.77527 0.0
C2610 C 0.61801 0.7742 0.78705 0.0
H2611 H 0.5843 0.83618 0.84544 0.0
H2612 H 0.60406 0.82985 0.82293 0.0
H2613 H 0.59779 0.76859 0.80362 0.0
H2614 H 0.65749 0.7443 0.75195 0.0
H2615 H 0.63107 0.75412 0.75739 0.0
H2616 H 0.632 0.81628 0.77166 0.0
C2617 C 0.59215 0.81968 0.82186 0.0
C2618 C 0.60486 0.77902 0.7963 0.0
C2619 C 0.58091 0.82325 0.83483 0.0
C2620 C 0.65817 0.75891 0.75805 0.0
C2621 C 0.64303 0.76449 0.76138 0.0
C2622 C 0.6245 0.80573 0.77846 0.0
C2623 C 0.58852 0.80261 0.80857 0.0
C2624 C 0.60151 0.79734 0.79706 0.0
C2625 C 0.64348 0.78287 0.77082 0.0
C2626 C 0.62816 0.78755 0.77827 0.0
H2627 H 0.55029 0.78266 0.82002 0.0
H2628 H 0.56972 0.7766 0.79737 0.0
H2629 H 0.60889 0.82477 0.78804 0.0
H2630 H 0.6863 0.80081 0.77598 0.0
H2631 H 0.66003 0.8103 0.78258 0.0
C2632 C 0.45249 0.51167 0.69843 0.0
C2633 C 0.45474 0.52769 0.71291 0.0
C2634 C 0.46003 0.51284 0.68153 0.0
C2635 C 0.47803 0.5474 0.65113 0.0
H2636 H 0.49859 0.50667 0.63057 0.0
C2637 C 0.52201 0.55402 0.59219 0.0
C2638 C 0.5205 0.53812 0.57784 0.0
C2639 C 0.5127 0.55291 0.6077 0.0
C2640 C 0.49268 0.51804 0.63596 0.0
H2641 H 0.46697 0.5574 0.7212 0.0
H2642 H 0.48036 0.55934 0.6919 0.0
H2643 H 0.48543 0.50427 0.65998 0.0
H2644 H 0.50758 0.50883 0.56787 0.0
H2645 H 0.49117 0.50692 0.59485 0.0
H2646 H 0.48551 0.56126 0.6272 0.0
C2647 C 0.47249 0.54597 0.69342 0.0
C2648 C 0.48516 0.51668 0.65283 0.0
C2649 C 0.46493 0.54481 0.71029 0.0
C2650 C 0.50902 0.5213 0.57879 0.0
C2651 C 0.49974 0.52016 0.59431 0.0
C2652 C 0.4856 0.54878 0.63427 0.0
C2653 C 0.47003 0.53003 0.67877 0.0
C2654 C 0.47781 0.53137 0.66066 0.0
C2655 C 0.50172 0.53584 0.60914 0.0
C2656 C 0.49305 0.53414 0.62655 0.0
H2657 H 0.44466 0.49828 0.69996 0.0
H2658 H 0.45773 0.50034 0.67044 0.0
H2659 H 0.47222 0.55882 0.65659 0.0
H2660 H 0.53077 0.56716 0.59176 0.0
H2661 H 0.51459 0.56519 0.61897 0.0
C2662 C 0.76585 0.18035 1.00417 0.0
C2663 C 0.77064 0.18834 0.02421 0.0
C2664 C 0.75588 0.18874 0.9911 0.0
C2665 C 0.75145 0.23518 0.9833 0.0
H2666 H 0.71828 0.2081 0.9376 0.0
C2667 C 0.74453 0.26836 0.9133 0.0
C2668 C 0.74596 0.25608 0.89654 0.0
C2669 C 0.74002 0.26119 0.93009 0.0
C2670 C 0.72747 0.21592 0.9503 0.0
H2671 H 0.76806 0.21077 0.04658 0.0
H2672 H 0.75096 0.22586 0.02344 0.0
H2673 H 0.7244 0.19245 0.96634 0.0
H2674 H 0.74188 0.22658 0.88351 0.0
H2675 H 0.73499 0.21412 0.91295 0.0
H2676 H 0.75582 0.25799 0.96686 0.0
C2677 C 0.75479 0.21297 0.01798 0.0
C2678 C 0.73088 0.20699 0.96677 0.0
C2679 C 0.76456 0.20436 0.03117 0.0
C2680 C 0.74136 0.23645 0.89636 0.0
C2681 C 0.73709 0.22929 0.91321 0.0
C2682 C 0.74822 0.24402 0.96676 0.0
C2683 C 0.75069 0.20544 0.99775 0.0
C2684 C 0.74349 0.21625 0.98302 0.0
C2685 C 0.73708 0.2416 0.93058 0.0
C2686 C 0.73683 0.23416 0.94966 0.0
H2687 H 0.77023 0.1679 0.99845 0.0
H2688 H 0.75313 0.18277 0.97554 0.0
H2689 H 0.76133 0.24261 0.99556 0.0
H2690 H 0.74794 0.28357 0.914 0.0
H2691 H 0.73976 0.27107 0.94304 0.0
C2692 C 0.12139 0.52682 0.23853 0.0
C2693 C 0.12977 0.51217 0.24335 0.0
C2694 C 0.11268 0.52663 0.21927 0.0
C2695 C 0.0938 0.49522 0.17033 0.0
H2696 H 0.09282 0.54328 0.15193 0.0
C2697 C 0.04794 0.50064 0.09812 0.0
C2698 C 0.05268 0.51482 0.0866 0.0
C2699 C 0.05804 0.49994 0.11638 0.0
C2700 C 0.09301 0.52964 0.15657 0.0
H2701 H 0.13519 0.48558 0.23097 0.0
H2702 H 0.1201 0.48523 0.19731 0.0
H2703 H 0.10895 0.54256 0.18433 0.0
H2704 H 0.0722 0.53936 0.08557 0.0
H2705 H 0.09 0.53805 0.11717 0.0
H2706 H 0.07814 0.48229 0.14235 0.0
C2707 C 0.12013 0.49692 0.20862 0.0
C2708 C 0.10216 0.52922 0.17552 0.0
C2709 C 0.1289 0.49711 0.22804 0.0
C2710 C 0.06808 0.52819 0.09391 0.0
C2711 C 0.07824 0.5275 0.11226 0.0
C2712 C 0.08464 0.49564 0.15136 0.0
C2713 C 0.11194 0.51179 0.20379 0.0
C2714 C 0.10264 0.51203 0.18295 0.0
C2715 C 0.07339 0.5134 0.12398 0.0
C2716 C 0.0839 0.51288 0.14409 0.0
H2717 H 0.12155 0.53869 0.24972 0.0
H2718 H 0.10633 0.53818 0.21666 0.0
H2719 H 0.09362 0.48163 0.17524 0.0
H2720 H 0.03617 0.4901 0.09314 0.0
H2721 H 0.05348 0.489 0.12478 0.0
C2722 C 0.78734 0.85493 0.48875 0.0
C2723 C 0.80414 0.85878 0.49956 0.0
C2724 C 0.78346 0.84445 0.46969 0.0
C2725 C 0.80023 0.81217 0.43496 0.0
H2726 H 0.77224 0.8309 0.3944 0.0
C2727 C 0.80173 0.7937 0.35209 0.0
C2728 C 0.78628 0.79016 0.3385 0.0
C2729 C 0.80217 0.79993 0.37211 0.0
C2730 C 0.77985 0.8253 0.4056 0.0
H2731 H 0.82994 0.85425 0.49894 0.0
H2732 H 0.82327 0.83627 0.46574 0.0
H2733 H 0.77618 0.84562 0.42887 0.0
H2734 H 0.75907 0.79015 0.33541 0.0
H2735 H 0.75989 0.80118 0.3705 0.0
H2736 H 0.80429 0.79221 0.41159 0.0
C2737 C 0.813 0.84109 0.47203 0.0
C2738 C 0.7821 0.83372 0.42537 0.0
C2739 C 0.81686 0.85152 0.49107 0.0
C2740 C 0.7712 0.79276 0.34548 0.0
C2741 C 0.77167 0.79916 0.36555 0.0
C2742 C 0.79803 0.80381 0.4152 0.0
C2743 C 0.7963 0.83758 0.46101 0.0
C2744 C 0.79258 0.82749 0.44026 0.0
C2745 C 0.78719 0.80288 0.37907 0.0
C2746 C 0.78807 0.8105 0.40024 0.0
H2747 H 0.77721 0.86025 0.49488 0.0
H2748 H 0.77042 0.8418 0.46172 0.0
H2749 H 0.80809 0.80674 0.44608 0.0
H2750 H 0.8136 0.79182 0.34728 0.0
H2751 H 0.81438 0.8029 0.38207 0.0
C2752 C 0.46406 0.49692 0.81546 0.0
C2753 C 0.45673 0.51111 0.8077 0.0
C2754 C 0.4717 0.49956 0.83533 0.0
C2755 C 0.49111 0.53481 0.87918 0.0
H2756 H 0.4765 0.49349 0.90745 0.0
C2757 C 0.51209 0.53766 0.96421 0.0
C2758 C 0.51557 0.52078 0.97019 0.0
C2759 C 0.50506 0.53794 0.94447 0.0
C2760 C 0.48089 0.50508 0.89975 0.0
H2761 H 0.45234 0.53954 0.81451 0.0
H2762 H 0.46591 0.54419 0.84931 0.0
H2763 H 0.4646 0.49128 0.87265 0.0
H2764 H 0.51519 0.49124 0.95998 0.0
H2765 H 0.50343 0.49185 0.92587 0.0
H2766 H 0.50771 0.54843 0.90631 0.0
C2767 C 0.46563 0.53102 0.83996 0.0
C2768 C 0.47404 0.50381 0.87982 0.0
C2769 C 0.45781 0.52831 0.82007 0.0
C2770 C 0.51239 0.50442 0.95599 0.0
C2771 C 0.50554 0.50473 0.93638 0.0
C2772 C 0.49814 0.53602 0.89919 0.0
C2773 C 0.47233 0.51651 0.84785 0.0
C2774 C 0.47924 0.51851 0.86924 0.0
C2775 C 0.50148 0.52136 0.93041 0.0
C2776 C 0.49329 0.521 0.9096 0.0
H2777 H 0.46351 0.48354 0.80633 0.0
H2778 H 0.47697 0.48824 0.84099 0.0
H2779 H 0.49533 0.54634 0.87133 0.0
H2780 H 0.51442 0.5505 0.97483 0.0
H2781 H 0.50204 0.55097 0.94035 0.0
C2782 C 0.83161 0.20475 0.10666 0.0
C2783 C 0.82942 0.21141 0.08841 0.0
C2784 C 0.83214 0.21669 0.12422 0.0
C2785 C 0.83566 0.26616 0.14739 0.0
H2786 H 0.80278 0.24278 0.17757 0.0
C2787 C 0.79366 0.28646 0.211 0.0
C2788 C 0.80651 0.29547 0.22705 0.0
C2789 C 0.79804 0.27864 0.19351 0.0
C2790 C 0.81194 0.24951 0.16924 0.0
H2791 H 0.82752 0.23623 0.07442 0.0
H2792 H 0.82833 0.25708 0.10518 0.0
H2793 H 0.80919 0.22406 0.14904 0.0
H2794 H 0.83394 0.3049 0.23704 0.0
H2795 H 0.84165 0.29131 0.20619 0.0
H2796 H 0.83819 0.29173 0.16775 0.0
C2797 C 0.82966 0.24262 0.10586 0.0
C2798 C 0.8158 0.23874 0.15308 0.0
C2799 C 0.82913 0.23065 0.08824 0.0
C2800 C 0.82381 0.29798 0.22482 0.0
C2801 C 0.82822 0.29021 0.20723 0.0
C2802 C 0.83192 0.27694 0.16379 0.0
C2803 C 0.83049 0.23553 0.12391 0.0
C2804 C 0.82759 0.24695 0.14188 0.0
C2805 C 0.81536 0.27985 0.19174 0.0
C2806 C 0.81983 0.26873 0.17464 0.0
H2807 H 0.83211 0.19006 0.10733 0.0
H2808 H 0.83312 0.21096 0.13799 0.0
H2809 H 0.84483 0.2728 0.13902 0.0
H2810 H 0.78023 0.28453 0.21237 0.0
H2811 H 0.7879 0.27095 0.18164 0.0
C2812 C 0.13184 0.50057 0.35899 0.0
C2813 C 0.1331 0.51555 0.3477 0.0
C2814 C 0.12318 0.50085 0.37555 0.0
C2815 C 0.09113 0.52488 0.39884 0.0
H2816 H 0.10736 0.50515 0.44598 0.0
C2817 C 0.05186 0.52091 0.46413 0.0
C2818 C 0.06056 0.52386 0.4839 0.0
C2819 C 0.06066 0.51942 0.44789 0.0
C2820 C 0.1026 0.51088 0.43304 0.0
H2821 H 0.12579 0.54257 0.34563 0.0
H2822 H 0.11102 0.54299 0.37377 0.0
H2823 H 0.12233 0.50314 0.41761 0.0
H2824 H 0.08585 0.52742 0.50149 0.0
H2825 H 0.10111 0.5249 0.47339 0.0
H2826 H 0.07158 0.53284 0.41418 0.0
C2827 C 0.11652 0.53083 0.36993 0.0
C2828 C 0.11117 0.50951 0.4165 0.0
C2829 C 0.12523 0.53064 0.35363 0.0
C2830 C 0.07852 0.5252 0.48666 0.0
C2831 C 0.08733 0.52359 0.47037 0.0
C2832 C 0.08252 0.52611 0.41525 0.0
C2833 C 0.11524 0.516 0.38136 0.0
C2834 C 0.10571 0.51661 0.39903 0.0
C2835 C 0.07862 0.52071 0.45055 0.0
C2836 C 0.08804 0.51922 0.43282 0.0
H2837 H 0.13769 0.48869 0.35516 0.0
H2838 H 0.12253 0.48899 0.38367 0.0
H2839 H 0.08615 0.53036 0.38583 0.0
H2840 H 0.03809 0.51966 0.46108 0.0
H2841 H 0.05319 0.51692 0.43312 0.0
C2842 C 0.79811 0.8391 0.59277 0.0
C2843 C 0.80196 0.8589 0.59382 0.0
C2844 C 0.79841 0.83081 0.61 0.0
C2845 C 0.79523 0.84072 0.66286 0.0
H2846 H 0.8128 0.79486 0.66604 0.0
C2847 C 0.79691 0.80544 0.73341 0.0
C2848 C 0.79146 0.78564 0.73051 0.0
C2849 C 0.80025 0.8149 0.71749 0.0
C2850 C 0.80772 0.80758 0.66536 0.0
H2851 H 0.80931 0.88551 0.61394 0.0
H2852 H 0.80987 0.871 0.64405 0.0
H2853 H 0.81453 0.81045 0.63689 0.0
H2854 H 0.78587 0.76018 0.70884 0.0
H2855 H 0.7915 0.77664 0.68102 0.0
H2856 H 0.78813 0.83769 0.69113 0.0
C2857 C 0.80648 0.8619 0.62984 0.0
C2858 C 0.80872 0.81653 0.64862 0.0
C2859 C 0.80623 0.87021 0.61257 0.0
C2860 C 0.79006 0.77545 0.71153 0.0
C2861 C 0.79338 0.78491 0.6956 0.0
C2862 C 0.7942 0.83175 0.67957 0.0
C2863 C 0.80254 0.84207 0.62877 0.0
C2864 C 0.80233 0.83311 0.64706 0.0
C2865 C 0.79821 0.8048 0.69828 0.0
C2866 C 0.80029 0.81495 0.68098 0.0
H2867 H 0.79474 0.82993 0.5786 0.0
H2868 H 0.79507 0.81552 0.60858 0.0
H2869 H 0.78997 0.85331 0.66206 0.0
H2870 H 0.79812 0.81369 0.74788 0.0
H2871 H 0.80424 0.83019 0.7202 0.0
C2872 C 0.71241 0.39486 0.53348 0.0
C2873 C 0.70541 0.37532 0.5303 0.0
C2874 C 0.70322 0.40776 0.5409 0.0
C2875 C 0.65934 0.41296 0.54216 0.0
H2876 H 0.68101 0.45808 0.57987 0.0
C2877 C 0.62155 0.46982 0.56141 0.0
C2878 C 0.62998 0.48851 0.56127 0.0
C2879 C 0.63073 0.45538 0.56191 0.0
C2880 C 0.6748 0.44559 0.56927 0.0
H2881 H 0.68347 0.35394 0.53288 0.0
H2882 H 0.66731 0.37658 0.54571 0.0
H2883 H 0.69722 0.43359 0.57262 0.0
H2884 H 0.65461 0.50702 0.56245 0.0
H2885 H 0.67072 0.48172 0.5628 0.0
H2886 H 0.6372 0.42514 0.5381 0.0
C2887 C 0.67991 0.38186 0.54239 0.0
C2888 C 0.68406 0.43157 0.56517 0.0
C2889 C 0.68917 0.36892 0.53508 0.0
C2890 C 0.64787 0.49271 0.56262 0.0
C2891 C 0.65706 0.47821 0.5629 0.0
C2892 C 0.65013 0.427 0.54616 0.0
C2893 C 0.68679 0.40141 0.5452 0.0
C2894 C 0.67651 0.41528 0.5513 0.0
C2895 C 0.64852 0.45931 0.56203 0.0
C2896 C 0.65783 0.44363 0.55951 0.0
H2897 H 0.72494 0.40026 0.53005 0.0
H2898 H 0.70876 0.42275 0.54267 0.0
H2899 H 0.65326 0.40069 0.5312 0.0
H2900 H 0.60777 0.46632 0.5607 0.0
H2901 H 0.62382 0.44106 0.56169 0.0
C2902 C 0.21044 0.10777 0.53349 0.0
C2903 C 0.21703 0.10868 0.51581 0.0
C2904 C 0.19368 0.09812 0.5333 0.0
C2905 C 0.15168 0.07814 0.4998 0.0
H2906 H 0.14198 0.0525 0.54413 0.0
C2907 C 0.08698 0.02699 0.50083 0.0
C2908 C 0.07999 0.02928 0.51822 0.0
C2909 C 0.1034 0.03711 0.49998 0.0
C2910 C 0.14445 0.05972 0.53172 0.0
H2911 H 0.21115 0.09995 0.48403 0.0
H2912 H 0.18205 0.08251 0.48373 0.0
H2913 H 0.17123 0.06843 0.54345 0.0
H2914 H 0.08455 0.04412 0.54827 0.0
H2915 H 0.11334 0.06159 0.5469 0.0
H2916 H 0.12482 0.06884 0.4879 0.0
C2917 C 0.1897 0.08968 0.49775 0.0
C2918 C 0.16125 0.06895 0.53133 0.0
C2919 C 0.20645 0.09957 0.49791 0.0
C2920 C 0.08962 0.04206 0.53467 0.0
C2921 C 0.10613 0.05198 0.53392 0.0
C2922 C 0.13489 0.06867 0.50007 0.0
C2923 C 0.18304 0.08884 0.51546 0.0
C2924 C 0.16513 0.07846 0.51546 0.0
C2925 C 0.11325 0.04952 0.51661 0.0
C2926 C 0.13108 0.05948 0.51612 0.0
H2927 H 0.21815 0.1148 0.54753 0.0
H2928 H 0.18899 0.09824 0.54721 0.0
H2929 H 0.15402 0.0855 0.48746 0.0
H2930 H 0.07981 0.01726 0.48792 0.0
H2931 H 0.10857 0.03485 0.48648 0.0
C2932 C 0.18166 0.99527 0.83804 0.0
C2933 C 0.17352 1.00004 0.82049 0.0
C2934 C 0.18884 0.97919 0.83751 0.0
C2935 C 0.18712 0.9337 0.80631 0.0
H2936 H 0.23318 0.93764 0.83473 0.0
C2937 C 0.23047 0.88346 0.78474 0.0
C2938 C 0.24174 0.87823 0.7996 0.0
C2939 C 0.22036 0.89635 0.78954 0.0
C2940 C 0.22017 0.93617 0.82702 0.0
H2941 H 0.16661 0.99175 0.78864 0.0
H2942 H 0.17928 0.96389 0.78773 0.0
H2943 H 0.21914 0.96444 0.83889 0.0
H2944 H 0.25062 0.8818 0.83128 0.0
H2945 H 0.23296 0.90454 0.83966 0.0
H2946 H 0.18831 0.90562 0.79405 0.0
C2947 C 0.17989 0.9724 0.80192 0.0
C2948 C 0.21215 0.95154 0.82938 0.0
C2949 C 0.17277 0.98847 0.80243 0.0
C2950 C 0.24224 0.88575 0.81947 0.0
C2951 C 0.23213 0.89874 0.82427 0.0
C2952 C 0.19512 0.91834 0.80397 0.0
C2953 C 0.18794 0.96755 0.81945 0.0
C2954 C 0.19571 0.95062 0.81866 0.0
C2955 C 0.22129 0.90438 0.80931 0.0
C2956 C 0.21189 0.91959 0.81393 0.0
H2957 H 0.1824 1.00388 0.8522 0.0
H2958 H 0.1949 0.97574 0.85126 0.0
H2959 H 0.17429 0.93245 0.79817 0.0
H2960 H 0.22999 0.87823 0.76927 0.0
H2961 H 0.21237 0.90066 0.77763 0.0
C2962 C 0.28949 0.93403 0.97435 0.0
C2963 C 0.285 0.93197 0.99296 0.0
C2964 C 0.30371 0.94764 0.97268 0.0
C2965 C 0.33676 0.98906 1.00035 0.0
H2966 H 0.36607 0.96772 0.96805 0.0
C2967 C 0.41045 0.01373 0.01213 0.0
C2968 C 0.41856 0.01279 0.99545 0.0
C2969 C 0.39266 0.0078 0.01005 0.0
C2970 C 0.35794 0.97412 0.97682 0.0
H2971 H 0.2912 0.94333 0.02426 0.0
H2972 H 0.31627 0.96669 0.02145 0.0
H2973 H 0.33721 0.9503 0.96733 0.0
H2974 H 0.41418 1.00576 0.96342 0.0
H2975 H 0.38321 0.99592 0.95982 0.0
H2976 H 0.35799 0.01256 0.01044 0.0
C2977 C 0.30869 0.95803 0.00807 0.0
C2978 C 0.34133 0.96412 0.97639 0.0
C2979 C 0.29437 0.94453 0.00971 0.0
C2980 C 0.40838 1.00683 0.97658 0.0
C2981 C 0.39063 1.00098 0.97452 0.0
C2982 C 0.35347 0.99907 1.00083 0.0
C2983 C 0.31383 0.95934 0.98962 0.0
C2984 C 0.33063 0.97128 0.9884 0.0
C2985 C 0.38264 1.00083 0.99126 0.0
C2986 C 0.36432 0.99153 0.9893 0.0
H2987 H 0.28235 0.92473 0.96112 0.0
H2988 H 0.3071 0.94857 0.95819 0.0
H2989 H 0.32875 0.99506 0.0096 0.0
H2990 H 0.41791 0.01852 0.02684 0.0
H2991 H 0.38689 0.00776 0.02326 0.0
C2992 C 0.86693 0.60066 0.74781 0.0
C2993 C 0.87679 0.5953 0.76404 0.0
C2994 C 0.85903 0.61644 0.74989 0.0
C2995 C 0.85892 0.66183 0.78375 0.0
H2996 H 0.81601 0.65959 0.74902 0.0
C2997 C 0.82705 0.72915 0.7794 0.0
C2998 C 0.80895 0.72651 0.77535 0.0
C2999 C 0.83546 0.71357 0.7786 0.0
C3000 C 0.82792 0.66066 0.75905 0.0
H3001 H 0.8858 0.60333 0.79556 0.0
H3002 H 0.87207 0.63084 0.79927 0.0
H3003 H 0.82962 0.63244 0.74737 0.0
H3004 H 0.78581 0.70459 0.76726 0.0
H3005 H 0.80016 0.6779 0.76591 0.0
H3006 H 0.85703 0.69009 0.79555 0.0
C3007 C 0.8705 0.6227 0.78469 0.0
C3008 C 0.83598 0.6449 0.75791 0.0
C3009 C 0.87837 0.60669 0.7826 0.0
C3010 C 0.79971 0.70755 0.7704 0.0
C3011 C 0.80808 0.69203 0.76951 0.0
C3012 C 0.85089 0.6777 0.7848 0.0
C3013 C 0.86054 0.62793 0.76834 0.0
C3014 C 0.85172 0.64502 0.77018 0.0
C3015 C 0.82619 0.69456 0.77359 0.0
C3016 C 0.83513 0.67754 0.77248 0.0
H3017 H 0.86527 0.59261 0.73316 0.0
H3018 H 0.85191 0.61977 0.73671 0.0
H3019 H 0.87101 0.66292 0.79346 0.0
H3020 H 0.83483 0.74335 0.7833 0.0
H3021 H 0.84935 0.71655 0.78168 0.0
C3022 C 0.82952 0.63891 0.00723 0.0
C3023 C 0.81272 0.62836 0.00563 0.0
C3024 C 0.84356 0.63006 0.00865 0.0
C3025 C 0.85693 0.58662 0.02216 0.0
H3026 H 0.89525 0.60329 0.99595 0.0
C3027 C 0.91294 0.54738 0.02123 0.0
C3028 C 0.92971 0.55842 0.02437 0.0
C3029 C 0.89865 0.55569 0.01807 0.0
C3030 C 0.88474 0.59859 1.00353 0.0
H3031 H 0.79754 0.6001 1.00404 0.0
H3032 H 0.82203 0.58459 0.00629 0.0
H3033 H 0.87027 0.61784 0.99185 0.0
H3034 H 0.94449 0.58693 0.02633 0.0
H3035 H 0.91953 0.60146 0.02078 0.0
H3036 H 0.87141 0.56741 0.03388 0.0
C3037 C 0.82437 0.5998 0.00672 0.0
C3038 C 0.87039 0.60693 1.00118 0.0
C3039 C 0.8103 0.60867 0.0053 0.0
C3040 C 0.93179 0.57797 0.0238 0.0
C3041 C 0.91745 0.5863 0.02062 0.0
C3042 C 0.87126 0.57826 0.02449 0.0
C3043 C 0.84121 0.61039 0.00849 0.0
C3044 C 0.8563 0.60111 0.01051 0.0
C3045 C 0.90069 0.57528 0.01791 0.0
C3046 C 0.88538 0.58415 0.01525 0.0
H3047 H 0.83191 0.6541 0.0076 0.0
H3048 H 0.85631 0.63874 0.01028 0.0
H3049 H 0.84649 0.58198 0.02986 0.0
H3050 H 0.91082 0.53223 0.02112 0.0
H3051 H 0.88597 0.54669 0.01563 0.0
C3052 C 0.16364 0.11053 0.78872 0.0
C3053 C 0.16766 0.09792 0.80166 0.0
C3054 C 0.17553 0.12699 0.78811 0.0
C3055 C 0.21337 0.16077 0.81593 0.0
H3056 H 0.22322 0.16911 0.76406 0.0
C3057 C 0.26933 0.21927 0.80513 0.0
C3058 C 0.26668 0.22845 0.78859 0.0
C3059 C 0.25711 0.20369 0.80752 0.0
C3060 C 0.22045 0.16723 0.77864 0.0
H3061 H 0.18704 0.09301 0.82462 0.0
H3062 H 0.20776 0.12201 0.82373 0.0
H3063 H 0.20178 0.14175 0.76712 0.0
H3064 H 0.24943 0.22846 0.76145 0.0
H3065 H 0.22772 0.2021 0.76608 0.0
H3066 H 0.23178 0.18646 0.82746 0.0
C3067 C 0.19542 0.11903 0.81401 0.0
C3068 C 0.2082 0.15149 0.78037 0.0
C3069 C 0.18361 0.10242 0.81444 0.0
C3070 C 0.25162 0.22191 0.77456 0.0
C3071 C 0.23932 0.20655 0.77706 0.0
C3072 C 0.22549 0.17671 0.81419 0.0
C3073 C 0.19159 0.13129 0.80061 0.0
C3074 C 0.20454 0.14812 0.799 0.0
C3075 C 0.24197 0.19709 0.79345 0.0
C3076 C 0.22916 0.18015 0.7955 0.0
H3077 H 0.15147 0.10748 0.77869 0.0
H3078 H 0.17222 0.13631 0.77777 0.0
H3079 H 0.21068 0.15851 0.83046 0.0
H3080 H 0.28092 0.22401 0.8161 0.0
H3081 H 0.25971 0.19661 0.82018 0.0
C3082 C 0.37297 0.98122 0.27853 0.0
C3083 C 0.37462 0.98575 0.25953 0.0
C3084 C 0.36505 0.96277 0.28113 0.0
C3085 C 0.33679 0.91664 0.25274 0.0
H3086 H 0.35226 0.89585 0.29944 0.0
C3087 C 0.31275 0.83659 0.25932 0.0
C3088 C 0.31029 0.83168 0.27798 0.0
C3089 C 0.3205 0.85521 0.25726 0.0
C3090 C 0.34755 0.90138 0.28634 0.0
H3091 H 0.36903 0.97377 0.2284 0.0
H3092 H 0.35571 0.94214 0.23286 0.0
H3093 H 0.36543 0.92799 0.29585 0.0
H3094 H 0.31438 0.84317 0.30915 0.0
H3095 H 0.32768 0.87529 0.30562 0.0
H3096 H 0.31899 0.89001 0.24319 0.0
C3097 C 0.36016 0.95279 0.24589 0.0
C3098 C 0.35518 0.92004 0.28427 0.0
C3099 C 0.368 0.97113 0.24331 0.0
C3100 C 0.316 0.84615 0.2945 0.0
C3101 C 0.3238 0.86473 0.29246 0.0
C3102 C 0.32921 0.89798 0.25479 0.0
C3103 C 0.35847 0.94811 0.26483 0.0
C3104 C 0.35002 0.92812 0.26739 0.0
C3105 C 0.32619 0.86973 0.27379 0.0
C3106 C 0.33443 0.88989 0.27161 0.0
H3107 H 0.37786 0.99192 0.29146 0.0
H3108 H 0.36396 0.96012 0.296 0.0
H3109 H 0.33199 0.92213 0.23966 0.0
H3110 H 0.30865 0.82602 0.24618 0.0
H3111 H 0.32221 0.85813 0.24262 0.0
C3112 C 0.56154 0.35174 0.61836 0.0
C3113 C 0.5593 0.33451 0.60562 0.0
C3114 C 0.56085 0.36862 0.61075 0.0
C3115 C 0.54422 0.38638 0.56524 0.0
H3116 H 0.57332 0.43409 0.59164 0.0
C3117 C 0.53088 0.45817 0.54713 0.0
C3118 C 0.54485 0.47303 0.54719 0.0
C3119 C 0.53348 0.44125 0.55351 0.0
C3120 C 0.56521 0.42088 0.58394 0.0
H3121 H 0.55496 0.32167 0.57481 0.0
H3122 H 0.55401 0.35107 0.56157 0.0
H3123 H 0.57679 0.40481 0.60403 0.0
H3124 H 0.5726 0.48158 0.55396 0.0
H3125 H 0.57716 0.45193 0.56482 0.0
H3126 H 0.53281 0.40236 0.54499 0.0
C3127 C 0.55599 0.35152 0.57747 0.0
C3128 C 0.56705 0.40408 0.59121 0.0
C3129 C 0.55664 0.33464 0.58508 0.0
C3130 C 0.56154 0.47045 0.55366 0.0
C3131 C 0.56415 0.45348 0.56004 0.0
C3132 C 0.54239 0.40315 0.55798 0.0
C3133 C 0.55794 0.36873 0.59019 0.0
C3134 C 0.55649 0.3866 0.58205 0.0
C3135 C 0.55014 0.43865 0.56011 0.0
C3136 C 0.55274 0.42067 0.56732 0.0
H3137 H 0.56356 0.35218 0.63426 0.0
H3138 H 0.56219 0.38151 0.62102 0.0
H3139 H 0.53572 0.37327 0.55788 0.0
H3140 H 0.51784 0.45962 0.54235 0.0
H3141 H 0.52235 0.43033 0.55365 0.0
C3142 C 0.44323 0.74826 0.39947 0.0
C3143 C 0.45784 0.75179 0.39045 0.0
C3144 C 0.42715 0.74973 0.38969 0.0
C3145 C 0.4064 0.77184 0.34998 0.0
H3146 H 0.36602 0.73414 0.35222 0.0
C3147 C 0.33718 0.77904 0.31847 0.0
C3148 C 0.32672 0.76265 0.3068 0.0
C3149 C 0.35295 0.77819 0.32971 0.0
C3150 C 0.37716 0.74479 0.35143 0.0
H3151 H 0.46691 0.75956 0.36394 0.0
H3152 H 0.4388 0.76209 0.34683 0.0
H3153 H 0.39409 0.73133 0.36891 0.0
H3154 H 0.32424 0.73248 0.29819 0.0
H3155 H 0.35151 0.73095 0.31782 0.0
H3156 H 0.38943 0.78515 0.33223 0.0
C3157 C 0.43984 0.7583 0.36156 0.0
C3158 C 0.39325 0.74325 0.36112 0.0
C3159 C 0.45593 0.75669 0.37131 0.0
C3160 C 0.33204 0.74535 0.30705 0.0
C3161 C 0.34765 0.74446 0.31838 0.0
C3162 C 0.39026 0.77346 0.34039 0.0
C3163 C 0.42525 0.75489 0.37066 0.0
C3164 C 0.4081 0.75668 0.36043 0.0
C3165 C 0.35842 0.76089 0.32967 0.0
C3166 C 0.37546 0.75987 0.34086 0.0
H3167 H 0.44421 0.74451 0.41421 0.0
H3168 H 0.41625 0.74719 0.39722 0.0
H3169 H 0.41753 0.78255 0.34932 0.0
H3170 H 0.33339 0.79256 0.31855 0.0
H3171 H 0.36087 0.79106 0.33841 0.0
C3172 C 0.07457 0.73503 0.09939 0.0
C3173 C 0.06158 0.74215 0.10746 0.0
C3174 C 0.07178 0.71605 0.09078 0.0
C3175 C 0.03803 0.67356 0.06945 0.0
H3176 H 0.07385 0.64653 0.08455 0.0
C3177 C 0.02789 0.59172 0.05236 0.0
C3178 C 0.04188 0.58395 0.0479 0.0
C3179 C 0.02995 0.61122 0.05838 0.0
C3180 C 0.06381 0.65388 0.07988 0.0
H3181 H 0.03526 0.73497 0.11224 0.0
H3182 H 0.0304 0.70184 0.09715 0.0
H3183 H 0.07804 0.68013 0.09686 0.0
H3184 H 0.06885 0.5908 0.04557 0.0
H3185 H 0.07232 0.6247 0.05557 0.0
H3186 H 0.02381 0.64729 0.05239 0.0
C3187 C 0.04273 0.71098 0.09744 0.0
C3188 C 0.06621 0.67318 0.087 0.0
C3189 C 0.04555 0.72996 0.10617 0.0
C3190 C 0.05783 0.59623 0.04908 0.0
C3191 C 0.05985 0.61571 0.05496 0.0
C3192 C 0.03565 0.65424 0.06221 0.0
C3193 C 0.05591 0.70373 0.08992 0.0
C3194 C 0.05335 0.68326 0.0819 0.0
C3195 C 0.04601 0.62346 0.05997 0.0
C3196 C 0.04851 0.64412 0.06736 0.0
H3197 H 0.08706 0.74401 0.10007 0.0
H3198 H 0.08212 0.71097 0.08487 0.0
H3199 H 0.02794 0.68097 0.0651 0.0
H3200 H 0.01542 0.58269 0.05166 0.0
H3201 H 0.01903 0.61662 0.06231 0.0
C3202 C 0.0778 0.26188 0.9045 0.0
C3203 C 0.0611 0.2601 0.89399 0.0
C3204 C 0.09184 0.26277 0.89463 0.0
C3205 C 0.10357 0.25143 0.84531 0.0
H3206 H 0.14651 0.28588 0.86918 0.0
C3207 C 0.16096 0.2654 0.8037 0.0
C3208 C 0.17758 0.26708 0.81444 0.0
C3209 C 0.14677 0.26451 0.81333 0.0
C3210 C 0.13469 0.27601 0.86241 0.0
H3211 H 0.04612 0.25783 0.86475 0.0
H3212 H 0.07067 0.25953 0.8475 0.0
H3213 H 0.12172 0.28457 0.8858 0.0
H3214 H 0.19216 0.26901 0.84384 0.0
H3215 H 0.1674 0.26749 0.86066 0.0
H3216 H 0.11655 0.24288 0.82191 0.0
C3217 C 0.07287 0.26004 0.86341 0.0
C3218 C 0.12043 0.27527 0.87194 0.0
C3219 C 0.05879 0.25917 0.87331 0.0
C3220 C 0.17961 0.26794 0.83511 0.0
C3221 C 0.16539 0.26707 0.84476 0.0
C3222 C 0.11782 0.25218 0.83577 0.0
C3223 C 0.0896 0.26191 0.87396 0.0
C3224 C 0.10468 0.26293 0.86356 0.0
C3225 C 0.14877 0.26533 0.83399 0.0
C3226 C 0.13359 0.26446 0.8442 0.0
H3227 H 0.08009 0.26257 0.92043 0.0
H3228 H 0.10445 0.2639 0.90324 0.0
H3229 H 0.09175 0.24155 0.83855 0.0
H3230 H 0.15891 0.26509 0.78782 0.0
H3231 H 0.13424 0.26352 0.80457 0.0
C3232 C 0.54883 0.76182 0.93119 0.0
C3233 C 0.53845 0.76018 0.91261 0.0
C3234 C 0.54776 0.74651 0.94164 0.0
C3235 C 0.53429 0.69467 0.93495 0.0
H3236 H 0.53412 0.70301 0.99141 0.0
C3237 C 0.52381 0.633 0.97986 0.0
C3238 C 0.53482 0.63538 0.99814 0.0
C3239 C 0.52324 0.64824 0.96949 0.0
C3240 C 0.53429 0.70049 0.97568 0.0
H3241 H 0.51885 0.74118 0.89039 0.0
H3242 H 0.51699 0.71454 0.90867 0.0
H3243 H 0.53545 0.72969 0.97308 0.0
H3244 H 0.55393 0.65552 0.01982 0.0
H3245 H 0.55296 0.68206 1.00173 0.0
H3246 H 0.5333 0.66552 0.93756 0.0
C3247 C 0.52605 0.72759 0.91507 0.0
C3248 C 0.53507 0.71576 0.9652 0.0
C3249 C 0.52708 0.74289 0.90465 0.0
C3250 C 0.54512 0.65332 0.00592 0.0
C3251 C 0.54455 0.66853 0.99556 0.0
C3252 C 0.53353 0.67941 0.94543 0.0
C3253 C 0.53634 0.72926 0.93369 0.0
C3254 C 0.53519 0.71302 0.94476 0.0
C3255 C 0.53368 0.66614 0.9772 0.0
C3256 C 0.53364 0.68218 0.96593 0.0
H3257 H 0.55771 0.77495 0.93772 0.0
H3258 H 0.55601 0.74812 0.95587 0.0
H3259 H 0.53456 0.69218 0.91924 0.0
H3260 H 0.51557 0.61939 0.97364 0.0
H3261 H 0.51457 0.64604 0.95549 0.0
C3262 C 0.10069 0.72125 0.71234 0.0
C3263 C 0.09053 0.73378 0.7185 0.0
C3264 C 0.11853 0.72624 0.71754 0.0
C3265 C 0.15254 0.76924 0.73054 0.0
H3266 H 0.1821 0.73329 0.7372 0.0
C3267 C 0.22704 0.78932 0.74519 0.0
C3268 C 0.2352 0.77736 0.73408 0.0
C3269 C 0.2093 0.7847 0.74452 0.0
C3270 C 0.17396 0.74345 0.73527 0.0
H3271 H 0.09087 0.76057 0.73638 0.0
H3272 H 0.12198 0.76903 0.74594 0.0
H3273 H 0.15131 0.72308 0.73621 0.0
H3274 H 0.231 0.75165 0.71281 0.0
H3275 H 0.20014 0.74366 0.71171 0.0
H3276 H 0.17527 0.78957 0.7296 0.0
C3277 C 0.11624 0.75563 0.73656 0.0
C3278 C 0.15636 0.73762 0.73472 0.0
C3279 C 0.09842 0.75072 0.73121 0.0
C3280 C 0.22517 0.76113 0.72166 0.0
C3281 C 0.20751 0.75645 0.72112 0.0
C3282 C 0.17017 0.7751 0.73128 0.0
C3283 C 0.12652 0.74378 0.72917 0.0
C3284 C 0.14541 0.75037 0.732 0.0
C3285 C 0.19948 0.76797 0.73286 0.0
C3286 C 0.18097 0.76216 0.73327 0.0
H3287 H 0.09497 0.7081 0.7025 0.0
H3288 H 0.12606 0.71682 0.71146 0.0
H3289 H 0.14445 0.77935 0.72808 0.0
H3290 H 0.23437 0.80178 0.75509 0.0
H3291 H 0.20339 0.79379 0.75373 0.0
C3292 C 0.01003 0.33925 0.43206 0.0
C3293 C 0.02348 0.33718 0.42166 0.0
C3294 C 0.01204 0.35446 0.44723 0.0
C3295 C 0.03679 0.40287 0.46268 0.0
H3296 H 0.01592 0.40016 0.50972 0.0
C3297 C 0.02416 0.46894 0.50506 0.0
C3298 C 0.02983 0.47258 0.52561 0.0
C3299 C 0.0232 0.45117 0.49444 0.0
C3300 C 0.02193 0.40106 0.49674 0.0
H3301 H 0.04986 0.34897 0.41958 0.0
H3302 H 0.05342 0.37545 0.44616 0.0
H3303 H 0.01589 0.37095 0.48784 0.0
H3304 H 0.03812 0.46023 0.55137 0.0
H3305 H 0.0365 0.42879 0.53257 0.0
H3306 H 0.04276 0.43285 0.47139 0.0
C3307 C 0.04121 0.36547 0.44237 0.0
C3308 C 0.02181 0.3844 0.48416 0.0
C3309 C 0.03918 0.35029 0.42716 0.0
C3310 C 0.03368 0.45776 0.53553 0.0
C3311 C 0.03275 0.43982 0.5248 0.0
C3312 C 0.03687 0.41942 0.47517 0.0
C3313 C 0.02756 0.3679 0.45234 0.0
C3314 C 0.02902 0.38519 0.46682 0.0
C3315 C 0.02803 0.43662 0.50407 0.0
C3316 C 0.02912 0.41873 0.49208 0.0
H3317 H 0.99778 0.32934 0.42823 0.0
H3318 H 1.00121 0.35606 0.45444 0.0
H3319 H 0.04229 0.40402 0.44938 0.0
H3320 H 0.02129 0.48007 0.49693 0.0
H3321 H 0.0192 0.44899 0.47853 0.0
C3322 C 0.50018 0.23586 0.22742 0.0
C3323 C 0.50058 0.23309 0.20702 0.0
C3324 C 0.485 0.23781 0.23418 0.0
C3325 C 0.44744 0.25629 0.2187 0.0
H3326 H 0.4306 0.23681 0.26353 0.0
C3327 C 0.3871 0.27464 0.24412 0.0
C3328 C 0.38709 0.27814 0.26457 0.0
C3329 C 0.40019 0.2673 0.23696 0.0
C3330 C 0.43527 0.24251 0.25112 0.0
H3331 H 0.48509 0.22859 0.17771 0.0
H3332 H 0.45862 0.23208 0.18957 0.0
H3333 H 0.45438 0.22555 0.251 0.0
H3334 H 0.40091 0.27671 0.29355 0.0
H3335 H 0.42423 0.26463 0.28106 0.0
H3336 H 0.42896 0.27377 0.21913 0.0
C3337 C 0.47011 0.23296 0.20029 0.0
C3338 C 0.44878 0.23596 0.2439 0.0
C3339 C 0.48525 0.23089 0.19352 0.0
C3340 C 0.40063 0.27436 0.27773 0.0
C3341 C 0.41385 0.26716 0.27055 0.0
C3342 C 0.4341 0.26295 0.22601 0.0
C3343 C 0.47001 0.23711 0.22064 0.0
C3344 C 0.45497 0.24282 0.22763 0.0
C3345 C 0.41375 0.26352 0.25007 0.0
C3346 C 0.42786 0.25618 0.24232 0.0
H3347 H 0.51177 0.23747 0.23818 0.0
H3348 H 0.48527 0.24104 0.24995 0.0
H3349 H 0.45223 0.26213 0.20642 0.0
H3350 H 0.377 0.27764 0.23357 0.0
H3351 H 0.39958 0.26446 0.2211 0.0
C3352 C 0.59752 0.54017 0.34781 0.0
C3353 C 0.61378 0.53633 0.34625 0.0
C3354 C 0.59041 0.53729 0.36475 0.0
C3355 C 0.59295 0.51104 0.40703 0.0
H3356 H 0.57102 0.54903 0.43084 0.0
C3357 C 0.5524 0.49964 0.46896 0.0
C3358 C 0.55416 0.5151 0.48394 0.0
C3359 C 0.56071 0.50168 0.45271 0.0
C3360 C 0.57723 0.53837 0.42445 0.0
H3361 H 0.63531 0.52646 0.36124 0.0
H3362 H 0.62292 0.52156 0.39072 0.0
H3363 H 0.58311 0.55384 0.40105 0.0
H3364 H 0.56655 0.54451 0.49424 0.0
H3365 H 0.58121 0.54799 0.46605 0.0
H3366 H 0.58718 0.49565 0.43056 0.0
C3367 C 0.61562 0.52662 0.37881 0.0
C3368 C 0.58395 0.54102 0.40726 0.0
C3369 C 0.62276 0.52956 0.36195 0.0
C3370 C 0.56496 0.53236 0.48288 0.0
C3371 C 0.57322 0.5344 0.46666 0.0
C3372 C 0.58614 0.50834 0.42418 0.0
C3373 C 0.59937 0.53043 0.38039 0.0
C3374 C 0.59193 0.52741 0.3984 0.0
C3375 C 0.57087 0.51922 0.45119 0.0
C3376 C 0.57827 0.52202 0.4331 0.0
H3377 H 0.59028 0.54535 0.33595 0.0
H3378 H 0.57779 0.5402 0.3655 0.0
H3379 H 0.5989 0.50023 0.40041 0.0
H3380 H 0.54415 0.48619 0.46945 0.0
H3381 H 0.55862 0.48975 0.44097 0.0
C3382 C 0.28454 0.86339 0.04384 0.0
C3383 C 0.27269 0.84922 0.03038 0.0
C3384 C 0.29496 0.85865 0.05963 0.0
C3385 C 0.31104 0.81867 0.07845 0.0
H3386 H 0.30874 0.84498 0.12994 0.0
C3387 C 0.32428 0.81358 0.16775 0.0
C3388 C 0.31611 0.79448 0.16614 0.0
C3389 C 0.32566 0.82199 0.15078 0.0
C3390 C 0.31002 0.8378 0.11573 0.0
H3391 H 0.26277 0.81894 0.02261 0.0
H3392 H 0.28082 0.81068 0.05031 0.0
H3393 H 0.29789 0.85679 0.10031 0.0
H3394 H 0.30407 0.76892 0.14548 0.0
H3395 H 0.30635 0.7835 0.1161 0.0
H3396 H 0.32251 0.79919 0.09393 0.0
C3397 C 0.28219 0.82544 0.04851 0.0
C3398 C 0.30371 0.84454 0.09872 0.0
C3399 C 0.27171 0.83019 0.03278 0.0
C3400 C 0.3106 0.78361 0.14726 0.0
C3401 C 0.31195 0.792 0.13035 0.0
C3402 C 0.31745 0.81197 0.09549 0.0
C3403 C 0.2938 0.83963 0.06219 0.0
C3404 C 0.30351 0.83459 0.07993 0.0
C3405 C 0.31884 0.81146 0.13193 0.0
C3406 C 0.31631 0.821 0.11429 0.0
H3407 H 0.28567 0.8782 0.04232 0.0
H3408 H 0.30383 0.86985 0.06993 0.0
H3409 H 0.31134 0.81096 0.06412 0.0
H3410 H 0.32895 0.82221 0.18214 0.0
H3411 H 0.33131 0.83695 0.15245 0.0
C3412 C 0.95871 0.53195 0.8277 0.0
C3413 C 0.94433 0.54044 0.82519 0.0
C3414 C 0.96749 0.53103 0.84662 0.0
C3415 C 0.97182 0.54896 0.90178 0.0
H3416 H 0.99553 0.50757 0.90623 0.0
C3417 C 1.0052 0.53195 0.97835 0.0
C3418 C 0.02169 0.52794 0.97857 0.0
C3419 C 0.9949 0.53359 0.96038 0.0
C3420 C 0.98909 0.51932 0.90536 0.0
H3421 H 0.92816 0.55482 0.84133 0.0
H3422 H 0.94307 0.55276 0.87434 0.0
H3423 H 0.97958 0.51027 0.87448 0.0
H3424 H 0.04 0.52235 0.95975 0.0
H3425 H 0.02214 0.52459 0.92883 0.0
H3426 H 0.98113 0.5575 0.93312 0.0
C3427 C 0.9479 0.5471 0.86158 0.0
C3428 C 0.97993 0.52103 0.88689 0.0
C3429 C 0.93923 0.5483 0.8425 0.0
C3430 C 0.02738 0.52534 0.96028 0.0
C3431 C 0.01704 0.5266 0.94241 0.0
C3432 C 0.98082 0.54706 0.92042 0.0
C3433 C 0.96214 0.53819 0.86409 0.0
C3434 C 0.97131 0.53607 0.88448 0.0
C3435 C 1.00064 0.53086 0.94203 0.0
C3436 C 0.98987 0.53236 0.9225 0.0
H3437 H 0.96325 0.52587 0.81489 0.0
H3438 H 0.97861 0.52463 0.84738 0.0
H3439 H 0.96562 0.56087 0.90096 0.0
H3440 H 1.0004 0.53422 0.99209 0.0
H3441 H 0.98236 0.53681 0.96083 0.0
C3442 C 0.24757 0.18896 0.56005 0.0
C3443 C 0.26053 0.18081 0.55315 0.0
C3444 C 0.25039 0.19915 0.57915 0.0
C3445 C 0.28417 0.22445 0.62086 0.0
H3446 H 0.24829 0.2132 0.65203 0.0
C3447 C 0.29367 0.25076 0.70534 0.0
C3448 C 0.27955 0.25565 0.71294 0.0
C3449 C 0.29188 0.24273 0.68547 0.0
C3450 C 0.25836 0.21677 0.64348 0.0
H3451 H 0.28679 0.17743 0.56073 0.0
H3452 H 0.29169 0.19525 0.59409 0.0
H3453 H 0.24418 0.19746 0.61806 0.0
H3454 H 0.25267 0.25677 0.70538 0.0
H3455 H 0.24967 0.24328 0.67082 0.0
H3456 H 0.29833 0.24385 0.64632 0.0
C3457 C 0.27937 0.19379 0.58468 0.0
C3458 C 0.25599 0.20769 0.62398 0.0
C3459 C 0.27652 0.1835 0.5656 0.0
C3460 C 0.26378 0.25295 0.7001 0.0
C3461 C 0.26202 0.24509 0.68026 0.0
C3462 C 0.28651 0.23365 0.64038 0.0
C3463 C 0.26625 0.20151 0.59176 0.0
C3464 C 0.26885 0.21143 0.61243 0.0
C3465 C 0.27594 0.23955 0.67275 0.0
C3466 C 0.2736 0.22994 0.65193 0.0
H3467 H 0.23513 0.18723 0.55084 0.0
H3468 H 0.24011 0.20514 0.58408 0.0
H3469 H 0.29426 0.22774 0.61227 0.0
H3470 H 0.30601 0.25261 0.71484 0.0
H3471 H 0.30284 0.23851 0.68025 0.0
C3472 C 0.60999 0.5305 0.2419 0.0
C3473 C 0.61261 0.51425 0.24996 0.0
C3474 C 0.60084 0.52892 0.22281 0.0
C3475 C 0.58871 0.49683 0.1754 0.0
H3476 H 0.5594 0.53181 0.1624 0.0
C3477 C 0.55325 0.49606 0.09579 0.0
C3478 C 0.5544 0.5139 0.08961 0.0
C3479 C 0.55883 0.49463 0.11558 0.0
C3480 C 0.5676 0.522 0.1658 0.0
H3481 H 0.60723 0.48354 0.2445 0.0
H3482 H 0.59105 0.48079 0.21112 0.0
H3483 H 0.57127 0.53172 0.1969 0.0
H3484 H 0.56232 0.54422 0.09942 0.0
H3485 H 0.57204 0.54169 0.13379 0.0
H3486 H 0.58517 0.48731 0.14421 0.0
C3487 C 0.5963 0.49476 0.21953 0.0
C3488 C 0.5744 0.52194 0.18555 0.0
C3489 C 0.60548 0.49634 0.23869 0.0
C3490 C 0.56122 0.53025 0.10364 0.0
C3491 C 0.56669 0.52881 0.12339 0.0
C3492 C 0.58184 0.49685 0.15562 0.0
C3493 C 0.59403 0.51106 0.21132 0.0
C3494 C 0.58532 0.50964 0.19055 0.0
C3495 C 0.56551 0.51101 0.12959 0.0
C3496 C 0.57152 0.50971 0.15061 0.0
H3497 H 0.61532 0.54453 0.25016 0.0
H3498 H 0.59956 0.54177 0.21685 0.0
H3499 H 0.59722 0.48732 0.17874 0.0
H3500 H 0.54796 0.48318 0.0854 0.0
H3501 H 0.55768 0.48072 0.11996 0.0
C3502 C 0.27461 0.82679 0.94688 0.0
C3503 C 0.26145 0.83703 0.94538 0.0
C3504 C 0.27649 0.81444 0.93065 0.0
C3505 C 0.28641 0.8042 0.8912 0.0
H3506 H 0.24946 0.77595 0.84986 0.0
C3507 C 0.29446 0.79021 0.81048 0.0
C3508 C 0.28621 0.7729 0.79891 0.0
C3509 C 0.29177 0.79439 0.82984 0.0
C3510 C 0.25993 0.7835 0.86142 0.0
H3511 H 0.2393 0.84158 0.92617 0.0
H3512 H 0.24289 0.82045 0.89749 0.0
H3513 H 0.24289 0.78893 0.88152 0.0
H3514 H 0.26923 0.74593 0.7983 0.0
H3515 H 0.26442 0.75321 0.83247 0.0
H3516 H 0.30341 0.79903 0.8711 0.0
C3517 C 0.2516 0.82168 0.91132 0.0
C3518 C 0.25615 0.79111 0.87945 0.0
C3519 C 0.24958 0.83389 0.92769 0.0
C3520 C 0.2757 0.75941 0.80711 0.0
C3521 C 0.27287 0.76363 0.82651 0.0
C3522 C 0.29016 0.79659 0.87325 0.0
C3523 C 0.2654 0.81227 0.91247 0.0
C3524 C 0.26933 0.80195 0.89435 0.0
C3525 C 0.28075 0.78127 0.83798 0.0
C3526 C 0.27693 0.78664 0.85797 0.0
H3527 H 0.28376 0.82866 0.96048 0.0
H3528 H 0.28699 0.80705 0.93219 0.0
H3529 H 0.29688 0.81262 0.90222 0.0
H3530 H 0.30295 0.80057 0.80458 0.0
H3531 H 0.29793 0.80816 0.83822 0.0
C3532 C 0.93923 0.55055 0.71252 0.0
C3533 C 0.93438 0.53392 0.72075 0.0
C3534 C 0.9475 0.5503 0.69565 0.0
C3535 C 0.95584 0.51662 0.65307 0.0
H3536 H 0.99127 0.55876 0.64782 0.0
C3537 C 0.988 0.51788 0.58149 0.0
C3538 C 1.00556 0.52639 0.58358 0.0
C3539 C 0.979 0.51915 0.59764 0.0
C3540 C 0.98149 0.54672 0.64896 0.0
H3541 H 0.93471 0.50395 0.71696 0.0
H3542 H 0.94879 0.50357 0.68826 0.0
H3543 H 0.97662 0.56049 0.67637 0.0
H3544 H 0.02714 0.54306 0.60498 0.0
H3545 H 0.01172 0.54519 0.63274 0.0
H3546 H 0.96083 0.50273 0.62586 0.0
C3547 C 0.94615 0.51687 0.69453 0.0
C3548 C 0.97285 0.54783 0.66541 0.0
C3549 C 0.93807 0.51715 0.71133 0.0
C3550 C 0.01368 0.53625 0.6025 0.0
C3551 C 1.0047 0.53762 0.61858 0.0
C3552 C 0.96438 0.51557 0.63657 0.0
C3553 C 0.95108 0.53339 0.68621 0.0
C3554 C 0.95992 0.53272 0.66799 0.0
C3555 C 0.98713 0.52912 0.6166 0.0
C3556 C 0.97752 0.53052 0.63416 0.0
H3557 H 0.93671 0.5638 0.71914 0.0
H3558 H 0.95087 0.5634 0.68986 0.0
H3559 H 0.94589 0.50468 0.65402 0.0
H3560 H 0.98111 0.51021 0.56729 0.0
H3561 H 0.96552 0.5125 0.59511 0.0
C3562 C 0.2729 0.20436 0.46659 0.0
C3563 C 0.26771 0.18453 0.46374 0.0
C3564 C 0.27287 0.21419 0.45044 0.0
C3565 C 0.25566 0.20966 0.39671 0.0
H3566 H 0.29367 0.2518 0.39891 0.0
C3567 C 0.27119 0.2442 0.3283 0.0
C3568 C 0.27728 0.26391 0.33113 0.0
C3569 C 0.2683 0.23485 0.34441 0.0
C3570 C 0.28283 0.24025 0.39815 0.0
H3571 H 0.25827 0.15949 0.44158 0.0
H3572 H 0.25853 0.17661 0.41334 0.0
H3573 H 0.29227 0.2347 0.42691 0.0
H3574 H 0.28435 0.28939 0.35286 0.0
H3575 H 0.27923 0.27311 0.381 0.0
H3576 H 0.24645 0.21509 0.36769 0.0
C3577 C 0.26236 0.18461 0.42811 0.0
C3578 C 0.28201 0.23041 0.41424 0.0
C3579 C 0.26231 0.17477 0.44431 0.0
C3580 C 0.27974 0.27418 0.35025 0.0
C3581 C 0.27692 0.26483 0.36638 0.0
C3582 C 0.25652 0.21948 0.38055 0.0
C3583 C 0.26776 0.20445 0.43096 0.0
C3584 C 0.26843 0.21498 0.41377 0.0
C3585 C 0.2715 0.24501 0.36371 0.0
C3586 C 0.27013 0.23489 0.38107 0.0
H3587 H 0.27701 0.21236 0.48135 0.0
H3588 H 0.2768 0.22947 0.45326 0.0
H3589 H 0.24489 0.19803 0.39591 0.0
H3590 H 0.26923 0.2359 0.31373 0.0
H3591 H 0.26425 0.21958 0.34184 0.0
C3592 C 0.34062 0.61816 0.49221 0.0
C3593 C 0.34902 0.6358 0.50328 0.0
C3594 C 0.34942 0.60758 0.48074 0.0
C3595 C 0.39052 0.60828 0.46179 0.0
H3596 H 0.38473 0.55769 0.47553 0.0
C3597 C 0.44457 0.56797 0.47252 0.0
C3598 C 0.4406 0.54816 0.47132 0.0
C3599 C 0.43165 0.57788 0.46791 0.0
C3600 C 0.38628 0.57152 0.47093 0.0
H3601 H 0.37285 0.65679 0.50996 0.0
H3602 H 0.38842 0.63803 0.49042 0.0
H3603 H 0.36478 0.57718 0.48345 0.0
H3604 H 0.42026 0.52309 0.46204 0.0
H3605 H 0.39787 0.54033 0.45321 0.0
H3606 H 0.41263 0.60276 0.45012 0.0
C3607 C 0.37495 0.6325 0.49032 0.0
C3608 C 0.37478 0.58278 0.47556 0.0
C3609 C 0.36608 0.64318 0.50168 0.0
C3610 C 0.42378 0.53835 0.46328 0.0
C3611 C 0.41089 0.54825 0.4584 0.0
C3612 C 0.40204 0.59694 0.45707 0.0
C3613 C 0.36685 0.61432 0.48025 0.0
C3614 C 0.37712 0.60151 0.4717 0.0
C3615 C 0.41451 0.56817 0.46175 0.0
C3616 C 0.4004 0.57867 0.46228 0.0
H3617 H 0.32736 0.61226 0.49285 0.0
H3618 H 0.34275 0.59378 0.47284 0.0
H3619 H 0.39247 0.62258 0.45837 0.0
H3620 H 0.45753 0.57592 0.47811 0.0
H3621 H 0.43497 0.5932 0.47067 0.0
C3622 C 0.86158 0.92909 0.5434 0.0
C3623 C 0.85624 0.93215 0.56181 0.0
C3624 C 0.8781 0.93753 0.54094 0.0
C3625 C 0.91418 0.97752 0.56223 0.0
H3626 H 0.94123 0.9483 0.53396 0.0
C3627 C 0.98542 1.00762 0.56161 0.0
C3628 C 0.99179 1.00397 0.544 0.0
C3629 C 0.96911 0.9982 0.5636 0.0
C3630 C 0.9338 0.95676 0.54167 0.0
H3631 H 0.86415 0.94661 0.59205 0.0
H3632 H 0.89289 0.96141 0.58771 0.0
H3633 H 0.91225 0.93346 0.53755 0.0
H3634 H 0.98627 0.98731 0.51476 0.0
H3635 H 0.95754 0.97104 0.51802 0.0
H3636 H 0.93549 1.00088 0.56615 0.0
C3637 C 0.88426 0.95253 0.57515 0.0
C3638 C 0.91717 0.94822 0.54376 0.0
C3639 C 0.8678 0.94397 0.57766 0.0
C3640 C 0.98167 0.99036 0.52853 0.0
C3641 C 0.96524 0.98101 0.53046 0.0
C3642 C 0.93072 0.98608 0.56004 0.0
C3643 C 0.88964 0.94938 0.55677 0.0
C3644 C 0.90721 0.95848 0.55418 0.0
C3645 C 0.95864 0.98499 0.54795 0.0
C3646 C 0.94084 0.9758 0.54986 0.0
H3647 H 0.85303 0.92004 0.53087 0.0
H3648 H 0.88177 0.93496 0.52654 0.0
H3649 H 0.90676 0.98592 0.57004 0.0
H3650 H 0.99302 0.0179 0.57387 0.0
H3651 H 0.96472 1.00133 0.57748 0.0
C3652 C 0.88674 0.059 0.24819 0.0
C3653 C 0.90254 0.06379 0.26124 0.0
C3654 C 0.87738 0.07285 0.24421 0.0
C3655 C 0.87263 0.12076 0.26377 0.0
H3656 H 0.85099 0.12073 0.2098 0.0
C3657 C 0.8434 0.18284 0.2419 0.0
C3658 C 0.82693 0.17821 0.23026 0.0
C3659 C 0.85291 0.16891 0.24463 0.0
C3660 C 0.85685 0.12081 0.22495 0.0
H3661 H 0.92086 0.08683 0.28046 0.0
H3662 H 0.90462 0.11101 0.27335 0.0
H3663 H 0.8668 0.09615 0.21716 0.0
H3664 H 0.80775 0.15551 0.21176 0.0
H3665 H 0.82445 0.1311 0.21648 0.0
H3666 H 0.86274 0.14543 0.27156 0.0
C3667 C 0.89935 0.09651 0.26639 0.0
C3668 C 0.86587 0.10673 0.22919 0.0
C3669 C 0.90869 0.08266 0.2704 0.0
C3670 C 0.82047 0.15951 0.22069 0.0
C3671 C 0.83001 0.14554 0.22341 0.0
C3672 C 0.86367 0.13485 0.25953 0.0
C3673 C 0.88364 0.09178 0.25317 0.0
C3674 C 0.87388 0.10658 0.24865 0.0
C3675 C 0.84618 0.15005 0.23576 0.0
C3676 C 0.85573 0.13506 0.24007 0.0
H3677 H 0.88161 0.04457 0.24094 0.0
H3678 H 0.8652 0.0687 0.2342 0.0
H3679 H 0.8784 0.12085 0.27896 0.0
H3680 H 0.84885 0.19721 0.24915 0.0
H3681 H 0.86549 0.17289 0.25387 0.0
C3682 C 0.78169 0.11842 0.09638 0.0
C3683 C 0.78486 0.11936 0.07703 0.0
C3684 C 0.76813 0.10486 0.09985 0.0
C3685 C 0.73527 0.06164 0.07626 0.0
H3686 H 0.7057 0.08519 0.10631 0.0
C3687 C 0.66183 0.03792 0.06219 0.0
C3688 C 0.65292 0.04021 0.07806 0.0
C3689 C 0.67969 0.0435 0.0652 0.0
C3690 C 0.71391 0.07816 0.09825 0.0
H3691 H 0.77716 0.10592 0.04638 0.0
H3692 H 0.75348 0.08257 0.05236 0.0
H3693 H 0.73464 0.10219 0.10644 0.0
H3694 H 0.65592 0.04932 0.10971 0.0
H3695 H 0.68705 0.05856 0.11498 0.0
H3696 H 0.71413 0.03793 0.06737 0.0
C3697 C 0.76147 0.09215 0.06491 0.0
C3698 C 0.73056 0.08794 0.09835 0.0
C3699 C 0.77497 0.10569 0.06145 0.0
C3700 C 0.66235 0.04721 0.09717 0.0
C3701 C 0.6802 0.05271 0.10017 0.0
C3702 C 0.71858 0.05184 0.07616 0.0
C3703 C 0.75753 0.09197 0.08404 0.0
C3704 C 0.74125 0.08005 0.08686 0.0
C3705 C 0.68903 0.05144 0.08414 0.0
C3706 C 0.70755 0.06025 0.08669 0.0
H3707 H 0.78917 0.12866 0.10873 0.0
H3708 H 0.76555 0.10489 0.11479 0.0
H3709 H 0.74331 0.05508 0.06749 0.0
H3710 H 0.65496 0.03232 0.04735 0.0
H3711 H 0.68608 0.04246 0.05248 0.0
C3712 C 0.20207 0.45256 0.29816 0.0
C3713 C 0.18398 0.44859 0.29278 0.0
C3714 C 0.21156 0.43781 0.29784 0.0
C3715 C 0.20572 0.38384 0.29533 0.0
H3716 H 0.2517 0.39156 0.28324 0.0
C3717 C 0.24018 0.31944 0.28235 0.0
C3718 C 0.25827 0.32227 0.28669 0.0
C3719 C 0.23159 0.33482 0.28346 0.0
C3720 C 0.23894 0.38898 0.2869 0.0
H3721 H 0.16215 0.42518 0.28263 0.0
H3722 H 0.17824 0.40023 0.28189 0.0
H3723 H 0.23669 0.41778 0.2848 0.0
H3724 H 0.28121 0.34435 0.29574 0.0
H3725 H 0.26649 0.3708 0.29792 0.0
H3726 H 0.2079 0.35514 0.29752 0.0
C3727 C 0.18533 0.41462 0.28677 0.0
C3728 C 0.2302 0.40428 0.2878 0.0
C3729 C 0.17596 0.42924 0.28706 0.0
C3730 C 0.26733 0.34127 0.29223 0.0
C3731 C 0.25875 0.35666 0.29333 0.0
C3732 C 0.21444 0.36858 0.29444 0.0
C3733 C 0.20339 0.41839 0.29222 0.0
C3734 C 0.21328 0.40211 0.2919 0.0
C3735 C 0.24062 0.35391 0.28895 0.0
C3736 C 0.23127 0.37064 0.29011 0.0
H3737 H 0.20895 0.4671 0.30268 0.0
H3738 H 0.22536 0.44169 0.30231 0.0
H3739 H 0.19297 0.38122 0.29902 0.0
H3740 H 0.23253 0.30523 0.27789 0.0
H3741 H 0.21774 0.33162 0.2796 0.0
C3742 C 0.25915 0.434 0.04851 0.0
C3743 C 0.25716 0.41633 0.03664 0.0
C3744 C 0.24572 0.44386 0.04758 0.0
C3745 C 0.20543 0.44689 0.01533 0.0
H3746 H 0.19501 0.47195 0.06351 0.0
C3747 C 0.14305 0.47553 0.01686 0.0
C3748 C 0.1441 0.49278 0.02912 0.0
C3749 C 0.15713 0.46671 0.01755 0.0
C3750 C 0.19786 0.46524 0.04987 0.0
H3751 H 0.23938 0.39519 0.01453 0.0
H3752 H 0.2161 0.41223 0.01305 0.0
H3753 H 0.21912 0.45596 0.06524 0.0
H3754 H 0.1609 0.51413 0.05187 0.0
H3755 H 0.18548 0.49903 0.0527 0.0
H3756 H 0.18417 0.45612 0.99995 0.0
C3757 C 0.22808 0.41864 0.02289 0.0
C3758 C 0.21172 0.45606 0.05087 0.0
C3759 C 0.24144 0.40879 0.02385 0.0
C3760 C 0.15965 0.501 0.04199 0.0
C3761 C 0.17371 0.49219 0.04268 0.0
C3762 C 0.19159 0.45608 0.01432 0.0
C3763 C 0.23002 0.43632 0.03471 0.0
C3764 C 0.21563 0.44667 0.03363 0.0
C3765 C 0.17264 0.47488 0.03054 0.0
C3766 C 0.18756 0.46532 0.03158 0.0
H3767 H 0.27108 0.44024 0.05851 0.0
H3768 H 0.24773 0.45752 0.05677 0.0
H3769 H 0.20822 0.44009 1.0017 0.0
H3770 H 0.13134 0.46884 0.00666 0.0
H3771 H 0.15575 0.4533 0.00812 0.0
C3772 C 0.88324 0.95262 0.2499 0.0
C3773 C 0.89278 0.96191 0.26831 0.0
C3774 C 0.87259 0.93479 0.24834 0.0
C3775 C 0.86579 0.89266 0.27264 0.0
H3776 H 0.81845 0.88474 0.24651 0.0
C3777 C 0.81451 0.82955 0.28217 0.0
C3778 C 0.80135 0.82132 0.26614 0.0
C3779 C 0.82629 0.8459 0.28101 0.0
C3780 C 0.8317 0.88655 0.25353 0.0
H3781 H 0.89887 0.95968 0.29945 0.0
H3782 H 0.88041 0.92846 0.29665 0.0
H3783 H 0.83804 0.91476 0.24693 0.0
H3784 H 0.79026 0.82336 0.23621 0.0
H3785 H 0.8111 0.85177 0.23392 0.0
H3786 H 0.8596 0.86448 0.27916 0.0
C3787 C 0.88117 0.93499 0.28346 0.0
C3788 C 0.84289 0.90379 0.25382 0.0
C3789 C 0.89164 0.95291 0.28507 0.0
C3790 C 0.80027 0.82955 0.24881 0.0
C3791 C 0.81215 0.84585 0.24756 0.0
C3792 C 0.85467 0.87535 0.27217 0.0
C3793 C 0.87148 0.92581 0.26511 0.0
C3794 C 0.85996 0.9071 0.26364 0.0
C3795 C 0.82524 0.85432 0.26372 0.0
C3796 C 0.8374 0.87218 0.26289 0.0
H3797 H 0.88385 0.9592 0.23672 0.0
H3798 H 0.86532 0.92795 0.234 0.0
H3799 H 0.87897 0.89478 0.28007 0.0
H3800 H 0.81549 0.82358 0.29579 0.0
H3801 H 0.83596 0.8522 0.29388 0.0
C3802 C 0.69966 0.06883 0.77209 0.0
C3803 C 0.69472 0.06162 0.78892 0.0
C3804 C 0.70761 0.08791 0.77296 0.0
C3805 C 0.73089 0.13253 0.80735 0.0
H3806 H 0.71963 0.1558 0.76099 0.0
C3807 C 0.75708 0.21363 0.80475 0.0
C3808 C 0.76085 0.21887 0.78662 0.0
C3809 C 0.74898 0.19487 0.806 0.0
C3810 C 0.72322 0.14961 0.77404 0.0
H3811 H 0.69481 0.06952 0.82017 0.0
H3812 H 0.7087 0.10296 0.82174 0.0
H3813 H 0.706 0.12324 0.76168 0.0
H3814 H 0.75897 0.20786 0.75561 0.0
H3815 H 0.74523 0.17563 0.75777 0.0
H3816 H 0.74815 0.15909 0.81967 0.0
C3817 C 0.70644 0.09362 0.80775 0.0
C3818 C 0.7153 0.1307 0.77445 0.0
C3819 C 0.69839 0.07435 0.80687 0.0
C3820 C 0.75627 0.20464 0.76986 0.0
C3821 C 0.7482 0.18597 0.77109 0.0
C3822 C 0.73886 0.15154 0.80694 0.0
C3823 C 0.71102 0.10085 0.7907 0.0
C3824 C 0.71909 0.12161 0.79098 0.0
C3825 C 0.74429 0.18063 0.78915 0.0
C3826 C 0.73534 0.16043 0.79016 0.0
H3827 H 0.69728 0.05968 0.75795 0.0
H3828 H 0.7112 0.09246 0.75954 0.0
H3829 H 0.73437 0.12625 0.82036 0.0
H3830 H 0.76034 0.22404 0.81806 0.0
H3831 H 0.74617 0.19164 0.8202 0.0
loop_
_geom_bond_atom_site_label_1
_geom_bond_atom_site_label_2
_geom_bond_distance
_geom_bond_site_symmetry_2
_ccdc_geom_bond_type
C0 O1 1.160 . S
C0 O7 1.185 . S
O1 C0 1.160 . S
O2 Zn3 1.899 . S
O2 C10 1.304 . S
Zn3 O2 1.899 . S
Zn3 O4 2.032 . S
Zn3 O7 2.086 . S
Zn3 O12 1.977 1_455 S
O4 Zn3 2.032 . S
O4 C8 1.278 . S
C5 O6 1.203 . S
C5 O12 1.267 . S
O6 C5 1.203 . S
O7 C0 1.185 . S
O7 Zn3 2.086 . S
C8 O4 1.278 . S
C8 O9 1.211 1_455 S
O9 C8 1.211 1_655 S
C10 O2 1.304 . S
C10 O11 1.244 1_455 S
O11 C10 1.244 1_655 S
O12 Zn3 1.977 1_655 S
O12 C5 1.267 . S
C13 O14 1.160 . S
C13 O20 1.185 . S
O14 C13 1.160 . S
O15 Zn16 1.899 . S
O15 C23 1.284 . S
Zn16 O15 1.899 . S
Zn16 O17 2.032 . S
Zn16 O20 2.086 . S
Zn16 O25 1.977 . S
O17 Zn16 2.032 . S
O17 C21 1.278 . S
C18 O19 1.203 . S
C18 O25 1.267 . S
O19 C18 1.203 . S
O20 C13 1.185 . S
O20 Zn16 2.086 . S
C21 O17 1.278 . S
C21 O22 1.211 . S
O22 C21 1.211 . S
C23 O15 1.284 . S
C23 O24 1.273 . S
O24 C23 1.273 . S
O25 Zn16 1.977 . S
O25 C18 1.267 . S
C26 O27 1.160 . S
C26 O33 1.185 . S
O27 C26 1.160 . S
O28 Zn29 1.899 . S
O28 C36 1.284 . S
Zn29 O28 1.899 . S
Zn29 O30 2.032 . S
Zn29 O33 2.086 . S
Zn29 O38 1.977 . S
O30 Zn29 2.032 . S
O30 C34 1.278 . S
C31 O32 1.203 . S
C31 O38 1.267 . S
O32 C31 1.203 . S
O33 C26 1.185 . S
O33 Zn29 2.086 . S
C34 O30 1.278 . S
C34 O35 1.211 . S
O35 C34 1.211 . S
C36 O28 1.284 . S
C36 O37 1.273 . S
O37 C36 1.273 . S
O38 Zn29 1.977 . S
O38 C31 1.267 . S
C39 O40 1.160 . S
C39 O46 1.185 . S
O40 C39 1.160 . S
O41 Zn42 1.899 . S
O41 C49 1.284 . S
Zn42 O41 1.899 . S
Zn42 O43 2.032 . S
Zn42 O46 2.086 . S
Zn42 O51 1.977 . S
O43 Zn42 2.032 . S
O43 C47 1.278 . S
C44 O45 1.203 . S
C44 O51 1.267 . S
O45 C44 1.203 . S
O46 C39 1.185 . S
O46 Zn42 2.086 . S
C47 O43 1.278 . S
C47 O48 1.211 . S
O48 C47 1.211 . S
C49 O41 1.284 . S
C49 O50 1.273 . S
O50 C49 1.273 . S
O51 Zn42 1.977 . S
O51 C44 1.267 . S
C52 O53 1.160 . S
C52 O59 1.185 . S
O53 C52 1.160 . S
O54 Zn55 1.899 . S
O54 C62 1.284 . S
Zn55 O54 1.899 . S
Zn55 O56 2.032 . S
Zn55 O59 2.086 . S
Zn55 O64 1.977 . S
O56 Zn55 2.032 . S
O56 C60 1.278 . S
C57 O58 1.203 . S
C57 O64 1.267 . S
O58 C57 1.203 . S
O59 C52 1.185 . S
O59 Zn55 2.086 . S
C60 O56 1.278 . S
C60 O61 1.211 . S
O61 C60 1.211 . S
C62 O54 1.284 . S
C62 O63 1.273 . S
O63 C62 1.273 . S
O64 Zn55 1.977 . S
O64 C57 1.267 . S
C65 O66 1.160 . S
C65 O72 1.185 . S
O66 C65 1.160 . S
O67 Zn68 1.899 . S
O67 C75 1.284 . S
Zn68 O67 1.899 . S
Zn68 O69 2.032 . S
Zn68 O72 2.086 . S
Zn68 O77 1.977 . S
O69 Zn68 2.032 . S
O69 C73 1.278 . S
C70 O71 1.203 . S
C70 O77 1.267 . S
O71 C70 1.203 . S
O72 C65 1.185 . S
O72 Zn68 2.086 . S
C73 O69 1.278 . S
C73 O74 1.211 . S
O74 C73 1.211 . S
C75 O67 1.284 . S
C75 O76 1.273 . S
O76 C75 1.273 . S
O77 Zn68 1.977 . S
O77 C70 1.267 . S
C78 O79 1.160 . S
C78 O85 1.185 . S
O79 C78 1.160 . S
O80 Zn81 1.899 . S
O80 C88 1.284 . S
Zn81 O80 1.899 . S
Zn81 O82 2.032 . S
Zn81 O85 2.086 . S
Zn81 O90 1.977 . S
O82 Zn81 2.032 . S
O82 C86 1.278 . S
C83 O84 1.203 . S
C83 O90 1.267 . S
O84 C83 1.203 . S
O85 C78 1.185 . S
O85 Zn81 2.086 . S
C86 O82 1.278 . S
C86 O87 1.211 . S
O87 C86 1.211 . S
C88 O80 1.284 . S
C88 O89 1.273 . S
O89 C88 1.273 . S
O90 Zn81 1.977 . S
O90 C83 1.267 . S
C91 O92 1.160 . S
C91 O98 1.185 . S
O92 C91 1.160 . S
O93 Zn94 1.899 . S
O93 C101 1.284 . S
Zn94 O93 1.899 . S
Zn94 O95 2.032 . S
Zn94 O98 2.086 . S
Zn94 O103 1.977 1_455 S
O95 Zn94 2.032 . S
O95 C99 1.278 . S
C96 O97 1.203 . S
C96 O103 1.267 . S
O97 C96 1.203 . S
O98 C91 1.185 . S
O98 Zn94 2.086 . S
C99 O95 1.278 . S
C99 O100 1.198 1_455 S
O100 C99 1.198 1_655 S
C101 O93 1.284 . S
C101 O102 1.273 . S
O102 C101 1.273 . S
O103 Zn94 1.977 1_655 S
O103 C96 1.267 . S
C104 O105 1.160 . S
C104 O111 1.185 . S
O105 C104 1.160 . S
O106 Zn107 1.899 . S
O106 C114 1.284 . S
Zn107 O106 1.899 . S
Zn107 O108 2.032 . S
Zn107 O111 2.086 . S
Zn107 O116 1.977 1_545 S
O108 Zn107 2.032 . S
O108 C112 1.278 . S
C109 O110 1.203 . S
C109 O116 1.267 . S
O110 C109 1.203 . S
O111 C104 1.185 . S
O111 Zn107 2.086 . S
C112 O108 1.278 . S
C112 O113 1.211 . S
O113 C112 1.211 . S
C114 O106 1.284 . S
C114 O115 1.273 . S
O115 C114 1.273 . S
O116 Zn107 1.977 1_565 S
O116 C109 1.267 . S
C117 O118 1.160 . S
C117 O124 1.185 . S
O118 C117 1.160 . S
O119 Zn120 1.899 . S
O119 C127 1.284 . S
Zn120 O119 1.899 . S
Zn120 O121 2.032 . S
Zn120 O124 2.086 . S
Zn120 O129 1.977 . S
O121 Zn120 2.032 . S
O121 C125 1.278 . S
C122 O123 1.203 . S
C122 O129 1.267 . S
O123 C122 1.203 . S
O124 C117 1.185 . S
O124 Zn120 2.086 . S
C125 O121 1.278 . S
C125 O126 1.211 . S
O126 C125 1.211 . S
C127 O119 1.284 . S
C127 O128 1.273 . S
O128 C127 1.273 . S
O129 Zn120 1.977 . S
O129 C122 1.267 . S
C130 O131 1.160 . S
C130 O137 1.185 1_565 S
O131 C130 1.160 . S
O132 Zn133 1.899 . S
O132 C140 1.284 . S
Zn133 O132 1.899 . S
Zn133 O134 2.032 . S
Zn133 O137 2.086 . S
Zn133 O142 1.977 . S
O134 Zn133 2.032 . S
O134 C138 1.278 . S
C135 O136 1.203 . S
C135 O142 1.267 . S
O136 C135 1.203 . S
O137 C130 1.185 1_545 S
O137 Zn133 2.086 . S
C138 O134 1.278 . S
C138 O139 1.211 . S
O139 C138 1.211 . S
C140 O132 1.284 . S
C140 O141 1.273 . S
O141 C140 1.273 . S
O142 Zn133 1.977 . S
O142 C135 1.267 . S
C143 O144 1.160 . S
C143 O150 1.185 1_554 S
O144 C143 1.160 . S
O145 Zn146 1.899 . S
O145 C153 1.284 . S
Zn146 O145 1.899 . S
Zn146 O147 2.032 1_554 S
Zn146 O150 2.086 1_554 S
Zn146 O155 1.977 . S
O147 Zn146 2.032 1_556 S
O147 C151 1.278 . S
C148 O149 1.203 . S
C148 O155 1.267 . S
O149 C148 1.203 . S
O150 C143 1.185 1_556 S
O150 Zn146 2.086 1_556 S
C151 O147 1.278 . S
C151 O152 1.211 . S
O152 C151 1.211 . S
C153 O145 1.284 . S
C153 O154 1.273 . S
O154 C153 1.273 . S
O155 Zn146 1.977 . S
O155 C148 1.267 . S
C156 O157 1.160 . S
C156 O163 1.185 . S
O157 C156 1.160 . S
O158 Zn159 1.899 . S
O158 C166 1.284 . S
Zn159 O158 1.899 . S
Zn159 O160 2.032 . S
Zn159 O163 2.086 . S
Zn159 O168 1.977 . S
O160 Zn159 2.032 . S
O160 C164 1.278 1_554 S
C161 O162 1.203 . S
C161 O168 1.267 . S
O162 C161 1.203 . S
O163 C156 1.185 . S
O163 Zn159 2.086 . S
C164 O160 1.278 1_556 S
C164 O165 1.211 . S
O165 C164 1.211 . S
C166 O158 1.284 . S
C166 O167 1.273 . S
O167 C166 1.273 . S
O168 Zn159 1.977 . S
O168 C161 1.267 . S
C169 O170 1.160 . S
C169 O176 1.185 . S
O170 C169 1.160 . S
O171 Zn172 1.899 . S
O171 C179 1.284 . S
Zn172 O171 1.899 . S
Zn172 O173 2.032 . S
Zn172 O176 2.086 . S
Zn172 O181 1.977 . S
O173 Zn172 2.032 . S
O173 C177 1.278 . S
C174 O175 1.203 . S
C174 O181 1.267 . S
O175 C174 1.203 . S
O176 C169 1.185 . S
O176 Zn172 2.086 . S
C177 O173 1.278 . S
C177 O178 1.211 . S
O178 C177 1.211 . S
C179 O171 1.284 . S
C179 O180 1.273 . S
O180 C179 1.273 . S
O181 Zn172 1.977 . S
O181 C174 1.267 . S
C182 O183 1.160 . S
C182 O189 1.185 . S
O183 C182 1.160 . S
O184 Zn185 1.899 . S
O184 C192 1.284 . S
Zn185 O184 1.899 . S
Zn185 O186 2.032 . S
Zn185 O189 2.086 . S
Zn185 O194 1.977 . S
O186 Zn185 2.032 . S
O186 C190 1.278 . S
C187 O188 1.203 . S
C187 O194 1.267 . S
O188 C187 1.203 . S
O189 C182 1.185 . S
O189 Zn185 2.086 . S
C190 O186 1.278 . S
C190 O191 1.211 . S
O191 C190 1.211 . S
C192 O184 1.284 . S
C192 O193 1.273 . S
O193 C192 1.273 . S
O194 Zn185 1.977 . S
O194 C187 1.267 . S
C195 O196 1.160 . S
C195 O202 1.185 . S
O196 C195 1.160 . S
O197 Zn198 1.899 . S
O197 C205 1.284 . S
Zn198 O197 1.899 . S
Zn198 O199 2.032 . S
Zn198 O202 2.086 . S
Zn198 O207 1.977 . S
O199 Zn198 2.032 . S
O199 C203 1.278 . S
C200 O201 1.203 . S
C200 O207 1.267 . S
O201 C200 1.203 . S
O202 C195 1.185 . S
O202 Zn198 2.086 . S
C203 O199 1.278 . S
C203 O204 1.211 . S
O204 C203 1.211 . S
C205 O197 1.284 . S
C205 O206 1.273 . S
O206 C205 1.273 . S
O207 Zn198 1.977 . S
O207 C200 1.267 . S
C208 O209 1.160 . S
C208 O215 1.185 . S
O209 C208 1.160 . S
O210 Zn211 1.899 . S
O210 C218 1.284 . S
Zn211 O210 1.899 . S
Zn211 O212 2.032 . S
Zn211 O215 2.086 . S
Zn211 O220 1.977 1_545 S
O212 Zn211 2.032 . S
O212 C216 1.278 . S
C213 O214 1.203 . S
C213 O220 1.267 . S
O214 C213 1.203 . S
O215 C208 1.185 . S
O215 Zn211 2.086 . S
C216 O212 1.278 . S
C216 O217 1.211 1_545 S
O217 C216 1.211 1_565 S
C218 O210 1.284 . S
C218 O219 1.273 . S
O219 C218 1.273 . S
O220 Zn211 1.977 1_565 S
O220 C213 1.267 . S
C221 O222 1.160 . S
C221 O228 1.185 . S
O222 C221 1.160 . S
O223 Zn224 1.899 . S
O223 C231 1.284 . S
Zn224 O223 1.899 . S
Zn224 O225 2.032 . S
Zn224 O228 2.086 . S
Zn224 O233 1.977 . S
O225 Zn224 2.032 . S
O225 C229 1.278 . S
C226 O227 1.203 . S
C226 O233 1.267 . S
O227 C226 1.203 . S
O228 C221 1.185 . S
O228 Zn224 2.086 . S
C229 O225 1.278 . S
C229 O230 1.211 . S
O230 C229 1.211 . S
C231 O223 1.284 . S
C231 O232 1.273 . S
O232 C231 1.273 . S
O233 Zn224 1.977 . S
O233 C226 1.267 . S
C234 O235 1.160 . S
C234 O241 1.185 . S
O235 C234 1.160 . S
O236 Zn237 1.899 . S
O236 C244 1.284 . S
Zn237 O236 1.899 . S
Zn237 O238 2.032 . S
Zn237 O241 2.086 . S
Zn237 O246 1.977 . S
O238 Zn237 2.032 . S
O238 C242 1.278 . S
C239 O240 1.203 . S
C239 O246 1.267 . S
O240 C239 1.203 . S
O241 C234 1.185 . S
O241 Zn237 2.086 . S
C242 O238 1.278 . S
C242 O243 1.211 . S
O243 C242 1.211 . S
C244 O236 1.284 . S
C244 O245 1.273 . S
O245 C244 1.273 . S
O246 Zn237 1.977 . S
O246 C239 1.267 . S
C247 O248 1.160 . S
C247 O254 1.185 . S
O248 C247 1.160 . S
O249 Zn250 1.899 . S
O249 C257 1.284 . S
Zn250 O249 1.899 . S
Zn250 O251 2.032 . S
Zn250 O254 2.086 1_545 S
Zn250 O259 1.977 . S
O251 Zn250 2.032 . S
O251 C255 1.278 . S
C252 O253 1.203 . S
C252 O259 1.267 . S
O253 C252 1.203 . S
O254 C247 1.185 . S
O254 Zn250 2.086 1_565 S
C255 O251 1.278 . S
C255 O256 1.211 . S
O256 C255 1.211 . S
C257 O249 1.284 . S
C257 O258 1.273 . S
O258 C257 1.273 . S
O259 Zn250 1.977 . S
O259 C252 1.267 . S
C260 O261 1.160 . S
C260 O267 1.185 . S
O261 C260 1.160 . S
O262 Zn263 1.899 . S
O262 C270 1.284 . S
Zn263 O262 1.899 . S
Zn263 O264 2.032 . S
Zn263 O267 2.086 . S
Zn263 O272 1.977 . S
O264 Zn263 2.032 . S
O264 C268 1.278 1_554 S
C265 O266 1.203 . S
C265 O272 1.267 . S
O266 C265 1.203 . S
O267 C260 1.185 . S
O267 Zn263 2.086 . S
C268 O264 1.278 1_556 S
C268 O269 1.211 . S
O269 C268 1.211 . S
C270 O262 1.284 . S
C270 O271 1.273 . S
O271 C270 1.273 . S
O272 Zn263 1.977 . S
O272 C265 1.267 . S
C273 O274 1.160 . S
C273 O280 1.185 . S
O274 C273 1.160 . S
O275 Zn276 1.899 . S
O275 C283 1.284 . S
Zn276 O275 1.899 . S
Zn276 O277 2.032 . S
Zn276 O280 2.086 . S
Zn276 O285 1.977 . S
O277 Zn276 2.032 . S
O277 C281 1.278 . S
C278 O279 1.203 . S
C278 O285 1.267 . S
O279 C278 1.203 . S
O280 C273 1.185 . S
O280 Zn276 2.086 . S
C281 O277 1.278 . S
C281 O282 1.211 . S
O282 C281 1.211 . S
C283 O275 1.284 . S
C283 O284 1.273 . S
O284 C283 1.273 . S
O285 Zn276 1.977 . S
O285 C278 1.267 . S
C286 O287 1.160 . S
C286 O293 1.185 . S
O287 C286 1.160 . S
O288 Zn289 1.899 . S
O288 C296 1.284 . S
Zn289 O288 1.899 . S
Zn289 O290 2.032 . S
Zn289 O293 2.086 . S
Zn289 O298 1.977 . S
O290 Zn289 2.032 . S
O290 C294 1.278 . S
C291 O292 1.203 . S
C291 O298 1.267 . S
O292 C291 1.203 . S
O293 C286 1.185 . S
O293 Zn289 2.086 . S
C294 O290 1.278 . S
C294 O295 1.211 . S
O295 C294 1.211 . S
C296 O288 1.284 . S
C296 O297 1.273 . S
O297 C296 1.273 . S
O298 Zn289 1.977 . S
O298 C291 1.267 . S
C299 O300 1.160 . S
C299 O306 1.185 . S
O300 C299 1.160 . S
O301 Zn302 1.899 . S
O301 C309 1.284 . S
Zn302 O301 1.899 . S
Zn302 O303 2.032 . S
Zn302 O306 2.086 . S
Zn302 O311 1.977 . S
O303 Zn302 2.032 . S
O303 C307 1.278 . S
C304 O305 1.203 . S
C304 O311 1.267 . S
O305 C304 1.203 . S
O306 C299 1.185 . S
O306 Zn302 2.086 . S
C307 O303 1.278 . S
C307 O308 1.211 . S
O308 C307 1.211 . S
C309 O301 1.284 . S
C309 O310 1.273 . S
O310 C309 1.273 . S
O311 Zn302 1.977 . S
O311 C304 1.267 . S
Tb312 C314 2.779 1_455 S
Tb312 O332 2.457 1_455 S
Tb312 O333 2.414 1_454 S
Tb312 O334 2.695 . S
Tb312 O335 2.427 1_554 S
Tb312 O336 2.388 . S
Tb312 O340 2.340 . S
Tb312 O343 2.359 1_545 S
Tb313 C323 2.809 1_545 S
Tb313 O334 2.325 . S
Tb313 O337 2.341 . S
Tb313 O338 2.484 1_545 S
Tb313 O339 2.440 . S
Tb313 O340 2.658 . S
Tb313 O341 2.409 . S
Tb313 O342 2.378 1_545 S
C314 Tb312 2.779 1_655 S
C314 C315 1.514 1_554 S
C314 O332 1.248 . S
C314 O333 1.266 1_554 S
C315 C314 1.514 1_556 S
C315 C316 1.359 1_556 S
C315 C320 1.348 . S
C316 C315 1.359 1_554 S
C316 C317 1.380 . S
C316 H344 0.929 . S
C317 C316 1.380 . S
C317 C318 1.347 1_554 S
C317 H345 0.931 . S
C318 C317 1.347 1_556 S
C318 C319 1.369 . S
C319 C318 1.369 . S
C319 C320 1.408 . S
C319 H346 0.930 . S
C320 C315 1.348 . S
C320 C319 1.408 . S
C320 H347 0.930 . S
C321 O334 1.281 1_556 S
C321 O335 1.254 . S
C322 O336 1.236 . S
C322 O337 1.266 . S
C323 Tb313 2.809 1_565 S
C323 C324 1.514 . S
C323 O338 1.248 . S
C323 O339 1.266 1_565 S
C324 C323 1.514 . S
C324 C325 1.359 . S
C324 C329 1.348 . S
C325 C324 1.359 . S
C325 C326 1.380 . S
C325 H348 0.929 . S
C326 C325 1.380 . S
C326 C327 1.347 . S
C326 H349 0.931 . S
C327 C326 1.347 . S
C327 C328 1.369 . S
C328 C327 1.369 . S
C328 C329 1.408 . S
C328 H350 0.930 . S
C329 C324 1.348 . S
C329 C328 1.408 . S
C329 H351 0.930 . S
C330 O340 1.281 . S
C330 O341 1.254 . S
C331 O342 1.236 . S
C331 O343 1.266 . S
O332 Tb312 2.457 1_655 S
O332 C314 1.248 . S
O333 Tb312 2.414 1_656 S
O333 C314 1.266 1_556 S
O334 Tb312 2.695 . S
O334 Tb313 2.325 . S
O334 C321 1.281 1_554 S
O335 Tb312 2.427 1_556 S
O335 C321 1.254 . S
O336 Tb312 2.388 . S
O336 C322 1.236 . S
O337 Tb313 2.341 . S
O337 C322 1.266 . S
O338 Tb313 2.484 1_565 S
O338 C323 1.248 . S
O339 Tb313 2.440 . S
O339 C323 1.266 1_545 S
O340 Tb312 2.340 . S
O340 Tb313 2.658 . S
O340 C330 1.281 . S
O341 Tb313 2.409 . S
O341 C330 1.254 . S
O342 Tb313 2.378 1_565 S
O342 C331 1.236 . S
O343 Tb312 2.359 1_565 S
O343 C331 1.266 . S
H344 C316 0.929 . S
H345 C317 0.931 . S
H346 C319 0.930 . S
H347 C320 0.930 . S
H348 C325 0.929 . S
H349 C326 0.931 . S
H350 C328 0.930 . S
H351 C329 0.930 . S
Tb352 C354 2.809 . S
Tb352 O372 2.484 . S
Tb352 O373 2.440 . S
Tb352 O374 2.658 . S
Tb352 O375 2.409 . S
Tb352 O376 2.378 . S
Tb352 O380 2.325 . S
Tb352 O383 2.341 . S
Tb353 C363 2.809 . S
Tb353 O374 2.325 . S
Tb353 O377 2.341 . S
Tb353 O378 2.484 . S
Tb353 O379 2.440 . S
Tb353 O380 2.658 . S
Tb353 O381 2.409 . S
Tb353 O382 2.378 . S
C354 Tb352 2.809 . S
C354 C355 1.514 . S
C354 O372 1.248 . S
C354 O373 1.266 . S
C355 C354 1.514 . S
C355 C356 1.359 . S
C355 C360 1.348 . S
C356 C355 1.359 . S
C356 C357 1.380 . S
C356 H384 0.929 . S
C357 C356 1.380 . S
C357 C358 1.347 . S
C357 H385 0.931 . S
C358 C357 1.347 . S
C358 C359 1.369 . S
C359 C358 1.369 . S
C359 C360 1.408 . S
C359 H386 0.930 . S
C360 C355 1.348 . S
C360 C359 1.408 . S
C360 H387 0.930 . S
C361 O374 1.281 . S
C361 O375 1.254 . S
C362 O376 1.236 . S
C362 O377 1.266 . S
C363 Tb353 2.809 . S
C363 C364 1.514 . S
C363 O378 1.248 . S
C363 O379 1.266 . S
C364 C363 1.514 . S
C364 C365 1.359 . S
C364 C369 1.348 . S
C365 C364 1.359 . S
C365 C366 1.380 . S
C365 H388 0.929 . S
C366 C365 1.380 . S
C366 C367 1.347 . S
C366 H389 0.931 . S
C367 C366 1.347 . S
C367 C368 1.369 . S
C368 C367 1.369 . S
C368 C369 1.408 . S
C368 H390 0.930 . S
C369 C364 1.348 . S
C369 C368 1.408 . S
C369 H391 0.930 . S
C370 O380 1.281 . S
C370 O381 1.254 . S
C371 O382 1.236 . S
C371 O383 1.266 . S
O372 Tb352 2.484 . S
O372 C354 1.248 . S
O373 Tb352 2.440 . S
O373 C354 1.266 . S
O374 Tb352 2.658 . S
O374 Tb353 2.325 . S
O374 C361 1.281 . S
O375 Tb352 2.409 . S
O375 C361 1.254 . S
O376 Tb352 2.378 . S
O376 C362 1.236 . S
O377 Tb353 2.341 . S
O377 C362 1.266 . S
O378 Tb353 2.484 . S
O378 C363 1.248 . S
O379 Tb353 2.440 . S
O379 C363 1.266 . S
O380 Tb352 2.325 . S
O380 Tb353 2.658 . S
O380 C370 1.281 . S
O381 Tb353 2.409 . S
O381 C370 1.254 . S
O382 Tb353 2.378 . S
O382 C371 1.236 . S
O383 Tb352 2.341 . S
O383 C371 1.266 . S
H384 C356 0.929 . S
H385 C357 0.931 . S
H386 C359 0.930 . S
H387 C360 0.930 . S
H388 C365 0.929 . S
H389 C366 0.931 . S
H390 C368 0.930 . S
H391 C369 0.930 . S
Tb392 C394 2.830 . S
Tb392 O412 2.484 . S
Tb392 O413 2.440 . S
Tb392 O414 2.658 . S
Tb392 O415 2.409 . S
Tb392 O416 2.378 1_545 S
Tb392 O420 2.325 . S
Tb392 O423 2.341 . S
Tb393 C403 2.809 . S
Tb393 O414 2.325 . S
Tb393 O417 2.341 1_545 S
Tb393 O418 2.484 . S
Tb393 O419 2.440 . S
Tb393 O420 2.658 . S
Tb393 O421 2.409 . S
Tb393 O422 2.378 . S
C394 Tb392 2.830 . S
C394 C395 1.493 1_545 S
C394 O412 1.248 . S
C394 O413 1.286 . S
C395 C394 1.493 1_565 S
C395 C396 1.359 . S
C395 C400 1.348 . S
C396 C395 1.359 . S
C396 C397 1.380 . S
C396 H424 0.929 . S
C397 C396 1.380 . S
C397 C398 1.347 . S
C397 H425 0.931 . S
C398 C397 1.347 . S
C398 C399 1.369 . S
C399 C398 1.369 . S
C399 C400 1.408 . S
C399 H426 0.930 . S
C400 C395 1.348 . S
C400 C399 1.408 . S
C400 H427 0.930 . S
C401 O414 1.281 . S
C401 O415 1.254 . S
C402 O416 1.236 . S
C402 O417 1.266 . S
C403 Tb393 2.809 . S
C403 C404 1.514 . S
C403 O418 1.248 . S
C403 O419 1.266 . S
C404 C403 1.514 . S
C404 C405 1.359 . S
C404 C409 1.348 . S
C405 C404 1.359 . S
C405 C406 1.380 . S
C405 H428 0.929 . S
C406 C405 1.380 . S
C406 C407 1.347 . S
C406 H429 0.931 . S
C407 C406 1.347 . S
C407 C408 1.369 . S
C408 C407 1.369 . S
C408 C409 1.408 . S
C408 H430 0.930 . S
C409 C404 1.348 . S
C409 C408 1.408 . S
C409 H431 0.930 . S
C410 O420 1.281 . S
C410 O421 1.254 . S
C411 O422 1.236 . S
C411 O423 1.266 . S
O412 Tb392 2.484 . S
O412 C394 1.248 . S
O413 Tb392 2.440 . S
O413 C394 1.286 . S
O414 Tb392 2.658 . S
O414 Tb393 2.325 . S
O414 C401 1.281 . S
O415 Tb392 2.409 . S
O415 C401 1.254 . S
O416 Tb392 2.378 1_565 S
O416 C402 1.236 . S
O417 Tb393 2.341 1_565 S
O417 C402 1.266 . S
O418 Tb393 2.484 . S
O418 C403 1.248 . S
O419 Tb393 2.440 . S
O419 C403 1.266 . S
O420 Tb392 2.325 . S
O420 Tb393 2.658 . S
O420 C410 1.281 . S
O421 Tb393 2.409 . S
O421 C410 1.254 . S
O422 Tb393 2.378 . S
O422 C411 1.236 . S
O423 Tb392 2.341 . S
O423 C411 1.266 . S
H424 C396 0.929 . S
H425 C397 0.931 . S
H426 C399 0.930 . S
H427 C400 0.930 . S
H428 C405 0.929 . S
H429 C406 0.931 . S
H430 C408 0.930 . S
H431 C409 0.930 . S
Tb432 C434 2.809 . S
Tb432 O452 2.484 . S
Tb432 O453 2.440 . S
Tb432 O454 2.658 . S
Tb432 O455 2.409 . S
Tb432 O456 2.378 . S
Tb432 O460 2.325 . S
Tb432 O463 2.341 . S
Tb433 C443 2.809 . S
Tb433 O454 2.325 . S
Tb433 O457 2.341 . S
Tb433 O458 2.484 . S
Tb433 O459 2.440 . S
Tb433 O460 2.658 . S
Tb433 O461 2.409 . S
Tb433 O462 2.378 . S
C434 Tb432 2.809 . S
C434 C435 1.514 . S
C434 O452 1.248 . S
C434 O453 1.266 . S
C435 C434 1.514 . S
C435 C436 1.359 . S
C435 C440 1.348 . S
C436 C435 1.359 . S
C436 C437 1.380 . S
C436 H464 0.929 . S
C437 C436 1.380 . S
C437 C438 1.347 . S
C437 H465 0.931 . S
C438 C437 1.347 . S
C438 C439 1.369 . S
C439 C438 1.369 . S
C439 C440 1.408 . S
C439 H466 0.930 . S
C440 C435 1.348 . S
C440 C439 1.408 . S
C440 H467 0.930 . S
C441 O454 1.281 . S
C441 O455 1.254 . S
C442 O456 1.236 . S
C442 O457 1.266 . S
C443 Tb433 2.809 . S
C443 C444 1.514 . S
C443 O458 1.248 . S
C443 O459 1.266 . S
C444 C443 1.514 . S
C444 C445 1.359 . S
C444 C449 1.348 . S
C445 C444 1.359 . S
C445 C446 1.380 . S
C445 H468 0.929 . S
C446 C445 1.380 . S
C446 C447 1.347 . S
C446 H469 0.931 . S
C447 C446 1.347 . S
C447 C448 1.369 . S
C448 C447 1.369 . S
C448 C449 1.408 . S
C448 H470 0.930 . S
C449 C444 1.348 . S
C449 C448 1.408 . S
C449 H471 0.930 . S
C450 O460 1.281 . S
C450 O461 1.254 . S
C451 O462 1.236 . S
C451 O463 1.266 . S
O452 Tb432 2.484 . S
O452 C434 1.248 . S
O453 Tb432 2.440 . S
O453 C434 1.266 . S
O454 Tb432 2.658 . S
O454 Tb433 2.325 . S
O454 C441 1.281 . S
O455 Tb432 2.409 . S
O455 C441 1.254 . S
O456 Tb432 2.378 . S
O456 C442 1.236 . S
O457 Tb433 2.341 . S
O457 C442 1.266 . S
O458 Tb433 2.484 . S
O458 C443 1.248 . S
O459 Tb433 2.440 . S
O459 C443 1.266 . S
O460 Tb432 2.325 . S
O460 Tb433 2.658 . S
O460 C450 1.281 . S
O461 Tb433 2.409 . S
O461 C450 1.254 . S
O462 Tb433 2.378 . S
O462 C451 1.236 . S
O463 Tb432 2.341 . S
O463 C451 1.266 . S
H464 C436 0.929 . S
H465 C437 0.931 . S
H466 C439 0.930 . S
H467 C440 0.930 . S
H468 C445 0.929 . S
H469 C446 0.931 . S
H470 C448 0.930 . S
H471 C449 0.930 . S
Tb472 C474 2.809 . S
Tb472 O492 2.484 . S
Tb472 O493 2.440 . S
Tb472 O494 2.658 . S
Tb472 O495 2.409 1_455 S
Tb472 O496 2.378 . S
Tb472 O500 2.325 . S
Tb472 O503 2.341 . S
Tb473 C483 2.809 . S
Tb473 O494 2.325 1_565 S
Tb473 O497 2.341 1_565 S
Tb473 O498 2.484 . S
Tb473 O499 2.440 . S
Tb473 O500 2.658 1_565 S
Tb473 O501 2.409 1_565 S
Tb473 O502 2.378 1_565 S
C474 Tb472 2.809 . S
C474 C475 1.514 . S
C474 O492 1.248 . S
C474 O493 1.266 . S
C475 C474 1.514 . S
C475 C476 1.359 . S
C475 C480 1.348 1_455 S
C476 C475 1.359 . S
C476 C477 1.380 . S
C476 H504 0.929 . S
C477 C476 1.380 . S
C477 C478 1.347 . S
C477 H505 0.931 . S
C478 C477 1.347 . S
C478 C479 1.369 1_455 S
C479 C478 1.369 1_655 S
C479 C480 1.408 . S
C479 H506 0.930 . S
C480 C475 1.348 1_655 S
C480 C479 1.408 . S
C480 H507 0.930 . S
C481 O494 1.281 1_655 S
C481 O495 1.254 . S
C482 O496 1.236 . S
C482 O497 1.266 . S
C483 Tb473 2.809 . S
C483 C484 1.514 . S
C483 O498 1.248 . S
C483 O499 1.266 . S
C484 C483 1.514 . S
C484 C485 1.359 . S
C484 C489 1.348 . S
C485 C484 1.359 . S
C485 C486 1.380 . S
C485 H508 0.929 . S
C486 C485 1.380 . S
C486 C487 1.347 . S
C486 H509 0.931 . S
C487 C486 1.347 . S
C487 C488 1.369 . S
C488 C487 1.369 . S
C488 C489 1.408 . S
C488 H510 0.930 . S
C489 C484 1.348 . S
C489 C488 1.408 . S
C489 H511 0.930 . S
C490 O500 1.281 . S
C490 O501 1.254 . S
C491 O502 1.236 . S
C491 O503 1.266 . S
O492 Tb472 2.484 . S
O492 C474 1.248 . S
O493 Tb472 2.440 . S
O493 C474 1.266 . S
O494 Tb472 2.658 . S
O494 Tb473 2.325 1_545 S
O494 C481 1.281 1_455 S
O495 Tb472 2.409 1_655 S
O495 C481 1.254 . S
O496 Tb472 2.378 . S
O496 C482 1.236 . S
O497 Tb473 2.341 1_545 S
O497 C482 1.266 . S
O498 Tb473 2.484 . S
O498 C483 1.248 . S
O499 Tb473 2.440 . S
O499 C483 1.266 . S
O500 Tb472 2.325 . S
O500 Tb473 2.658 1_545 S
O500 C490 1.281 . S
O501 Tb473 2.409 1_545 S
O501 C490 1.254 . S
O502 Tb473 2.378 1_545 S
O502 C491 1.236 . S
O503 Tb472 2.341 . S
O503 C491 1.266 . S
H504 C476 0.929 . S
H505 C477 0.931 . S
H506 C479 0.930 . S
H507 C480 0.930 . S
H508 C485 0.929 . S
H509 C486 0.931 . S
H510 C488 0.930 . S
H511 C489 0.930 . S
Tb512 C514 2.809 . S
Tb512 O532 2.484 . S
Tb512 O533 2.440 . S
Tb512 O534 2.658 . S
Tb512 O535 2.409 . S
Tb512 O536 2.378 . S
Tb512 O540 2.325 . S
Tb512 O543 2.341 . S
Tb513 C523 2.809 . S
Tb513 O534 2.325 . S
Tb513 O537 2.341 . S
Tb513 O538 2.484 . S
Tb513 O539 2.440 . S
Tb513 O540 2.658 . S
Tb513 O541 2.409 . S
Tb513 O542 2.378 . S
C514 Tb512 2.809 . S
C514 C515 1.514 . S
C514 O532 1.248 . S
C514 O533 1.266 . S
C515 C514 1.514 . S
C515 C516 1.359 . S
C515 C520 1.348 . S
C516 C515 1.359 . S
C516 C517 1.380 . S
C516 H544 0.929 . S
C517 C516 1.380 . S
C517 C518 1.347 . S
C517 H545 0.931 . S
C518 C517 1.347 . S
C518 C519 1.369 . S
C519 C518 1.369 . S
C519 C520 1.408 . S
C519 H546 0.930 . S
C520 C515 1.348 . S
C520 C519 1.408 . S
C520 H547 0.930 . S
C521 O534 1.281 . S
C521 O535 1.254 . S
C522 O536 1.236 . S
C522 O537 1.266 . S
C523 Tb513 2.809 . S
C523 C524 1.514 . S
C523 O538 1.248 . S
C523 O539 1.266 . S
C524 C523 1.514 . S
C524 C525 1.359 . S
C524 C529 1.348 . S
C525 C524 1.359 . S
C525 C526 1.380 . S
C525 H548 0.929 . S
C526 C525 1.380 . S
C526 C527 1.347 . S
C526 H549 0.931 . S
C527 C526 1.347 . S
C527 C528 1.369 . S
C528 C527 1.369 . S
C528 C529 1.408 . S
C528 H550 0.930 . S
C529 C524 1.348 . S
C529 C528 1.408 . S
C529 H551 0.930 . S
C530 O540 1.281 . S
C530 O541 1.254 . S
C531 O542 1.236 . S
C531 O543 1.266 . S
O532 Tb512 2.484 . S
O532 C514 1.248 . S
O533 Tb512 2.440 . S
O533 C514 1.266 . S
O534 Tb512 2.658 . S
O534 Tb513 2.325 . S
O534 C521 1.281 . S
O535 Tb512 2.409 . S
O535 C521 1.254 . S
O536 Tb512 2.378 . S
O536 C522 1.236 . S
O537 Tb513 2.341 . S
O537 C522 1.266 . S
O538 Tb513 2.484 . S
O538 C523 1.248 . S
O539 Tb513 2.440 . S
O539 C523 1.266 . S
O540 Tb512 2.325 . S
O540 Tb513 2.658 . S
O540 C530 1.281 . S
O541 Tb513 2.409 . S
O541 C530 1.254 . S
O542 Tb513 2.378 . S
O542 C531 1.236 . S
O543 Tb512 2.341 . S
O543 C531 1.266 . S
H544 C516 0.929 . S
H545 C517 0.931 . S
H546 C519 0.930 . S
H547 C520 0.930 . S
H548 C525 0.929 . S
H549 C526 0.931 . S
H550 C528 0.930 . S
H551 C529 0.930 . S
Tb552 C554 2.809 1_545 S
Tb552 O572 2.484 1_545 S
Tb552 O573 2.440 . S
Tb552 O574 2.658 . S
Tb552 O575 2.409 . S
Tb552 O576 2.378 . S
Tb552 O580 2.325 1_545 S
Tb552 O583 2.341 1_554 S
Tb553 C563 2.809 . S
Tb553 O574 2.325 . S
Tb553 O577 2.341 . S
Tb553 O578 2.484 . S
Tb553 O579 2.440 . S
Tb553 O580 2.658 1_545 S
Tb553 O581 2.409 1_545 S
Tb553 O582 2.378 . S
C554 Tb552 2.809 1_565 S
C554 C555 1.514 . S
C554 O572 1.248 . S
C554 O573 1.266 1_565 S
C555 C554 1.514 . S
C555 C556 1.359 . S
C555 C560 1.348 1_565 S
C556 C555 1.359 . S
C556 C557 1.380 . S
C556 H584 0.929 . S
C557 C556 1.380 . S
C557 C558 1.347 . S
C557 H585 0.931 . S
C558 C557 1.347 . S
C558 C559 1.369 . S
C559 C558 1.369 . S
C559 C560 1.408 1_565 S
C559 H586 0.930 1_565 S
C560 C555 1.348 1_545 S
C560 C559 1.408 1_545 S
C560 H587 0.930 . S
C561 O574 1.281 . S
C561 O575 1.254 . S
C562 O576 1.236 . S
C562 O577 1.266 . S
C563 Tb553 2.809 . S
C563 C564 1.514 . S
C563 O578 1.248 . S
C563 O579 1.266 . S
C564 C563 1.514 . S
C564 C565 1.359 . S
C564 C569 1.348 . S
C565 C564 1.359 . S
C565 C566 1.380 . S
C565 H588 0.929 . S
C566 C565 1.380 . S
C566 C567 1.347 . S
C566 H589 0.931 . S
C567 C566 1.347 . S
C567 C568 1.369 . S
C568 C567 1.369 . S
C568 C569 1.408 . S
C568 H590 0.930 . S
C569 C564 1.348 . S
C569 C568 1.408 . S
C569 H591 0.930 . S
C570 O580 1.281 . S
C570 O581 1.254 . S
C571 O582 1.236 1_556 S
C571 O583 1.266 . S
O572 Tb552 2.484 1_565 S
O572 C554 1.248 . S
O573 Tb552 2.440 . S
O573 C554 1.266 1_545 S
O574 Tb552 2.658 . S
O574 Tb553 2.325 . S
O574 C561 1.281 . S
O575 Tb552 2.409 . S
O575 C561 1.254 . S
O576 Tb552 2.378 . S
O576 C562 1.236 . S
O577 Tb553 2.341 . S
O577 C562 1.266 . S
O578 Tb553 2.484 . S
O578 C563 1.248 . S
O579 Tb553 2.440 . S
O579 C563 1.266 . S
O580 Tb552 2.325 1_565 S
O580 Tb553 2.658 1_565 S
O580 C570 1.281 . S
O581 Tb553 2.409 1_565 S
O581 C570 1.254 . S
O582 Tb553 2.378 . S
O582 C571 1.236 1_554 S
O583 Tb552 2.341 1_556 S
O583 C571 1.266 . S
H584 C556 0.929 . S
H585 C557 0.931 . S
H586 C559 0.930 1_545 S
H587 C560 0.930 . S
H588 C565 0.929 . S
H589 C566 0.931 . S
H590 C568 0.930 . S
H591 C569 0.930 . S
Tb592 C594 2.809 . S
Tb592 O612 2.484 . S
Tb592 O613 2.440 . S
Tb592 O614 2.658 . S
Tb592 O615 2.409 . S
Tb592 O616 2.378 . S
Tb592 O620 2.325 . S
Tb592 O623 2.341 . S
Tb593 C603 2.809 . S
Tb593 O614 2.325 . S
Tb593 O617 2.341 . S
Tb593 O618 2.484 . S
Tb593 O619 2.440 . S
Tb593 O620 2.658 . S
Tb593 O621 2.409 . S
Tb593 O622 2.378 . S
C594 Tb592 2.809 . S
C594 C595 1.514 . S
C594 O612 1.248 . S
C594 O613 1.266 . S
C595 C594 1.514 . S
C595 C596 1.359 . S
C595 C600 1.348 . S
C596 C595 1.359 . S
C596 C597 1.380 . S
C596 H624 0.929 . S
C597 C596 1.380 . S
C597 C598 1.347 . S
C597 H625 0.931 . S
C598 C597 1.347 . S
C598 C599 1.369 . S
C599 C598 1.369 . S
C599 C600 1.408 . S
C599 H626 0.930 . S
C600 C595 1.348 . S
C600 C599 1.408 . S
C600 H627 0.930 . S
C601 O614 1.281 . S
C601 O615 1.254 . S
C602 O616 1.236 . S
C602 O617 1.266 . S
C603 Tb593 2.809 . S
C603 C604 1.514 . S
C603 O618 1.248 . S
C603 O619 1.266 . S
C604 C603 1.514 . S
C604 C605 1.359 . S
C604 C609 1.348 . S
C605 C604 1.359 . S
C605 C606 1.380 . S
C605 H628 0.929 . S
C606 C605 1.380 . S
C606 C607 1.347 . S
C606 H629 0.931 . S
C607 C606 1.347 . S
C607 C608 1.369 . S
C608 C607 1.369 . S
C608 C609 1.408 . S
C608 H630 0.930 . S
C609 C604 1.348 . S
C609 C608 1.408 . S
C609 H631 0.930 . S
C610 O620 1.281 . S
C610 O621 1.254 . S
C611 O622 1.236 . S
C611 O623 1.266 . S
O612 Tb592 2.484 . S
O612 C594 1.248 . S
O613 Tb592 2.440 . S
O613 C594 1.266 . S
O614 Tb592 2.658 . S
O614 Tb593 2.325 . S
O614 C601 1.281 . S
O615 Tb592 2.409 . S
O615 C601 1.254 . S
O616 Tb592 2.378 . S
O616 C602 1.236 . S
O617 Tb593 2.341 . S
O617 C602 1.266 . S
O618 Tb593 2.484 . S
O618 C603 1.248 . S
O619 Tb593 2.440 . S
O619 C603 1.266 . S
O620 Tb592 2.325 . S
O620 Tb593 2.658 . S
O620 C610 1.281 . S
O621 Tb593 2.409 . S
O621 C610 1.254 . S
O622 Tb593 2.378 . S
O622 C611 1.236 . S
O623 Tb592 2.341 . S
O623 C611 1.266 . S
H624 C596 0.929 . S
H625 C597 0.931 . S
H626 C599 0.930 . S
H627 C600 0.930 . S
H628 C605 0.929 . S
H629 C606 0.931 . S
H630 C608 0.930 . S
H631 C609 0.930 . S
Tb632 C634 2.809 . S
Tb632 O652 2.484 . S
Tb632 O653 2.440 . S
Tb632 O654 2.658 . S
Tb632 O655 2.409 . S
Tb632 O656 2.346 1_554 S
Tb632 O660 2.325 . S
Tb632 O663 2.341 . S
Tb633 C643 2.809 . S
Tb633 O654 2.325 . S
Tb633 O657 2.341 1_554 S
Tb633 O658 2.484 . S
Tb633 O659 2.440 . S
Tb633 O660 2.658 . S
Tb633 O661 2.409 . S
Tb633 O662 2.378 . S
C634 Tb632 2.809 . S
C634 C635 1.514 1_554 S
C634 O652 1.248 . S
C634 O653 1.266 . S
C635 C634 1.514 1_556 S
C635 C636 1.359 . S
C635 C640 1.348 . S
C636 C635 1.359 . S
C636 C637 1.380 . S
C636 H664 0.929 . S
C637 C636 1.380 . S
C637 C638 1.347 . S
C637 H665 0.931 . S
C638 C637 1.347 . S
C638 C639 1.369 . S
C639 C638 1.369 . S
C639 C640 1.408 . S
C639 H666 0.930 . S
C640 C635 1.348 . S
C640 C639 1.408 . S
C640 H667 0.900 1_556 S
C641 O654 1.281 . S
C641 O655 1.254 . S
C642 O656 1.260 . S
C642 O657 1.266 . S
C643 Tb633 2.809 . S
C643 C644 1.514 . S
C643 O658 1.248 . S
C643 O659 1.266 . S
C644 C643 1.514 . S
C644 C645 1.359 . S
C644 C649 1.348 . S
C645 C644 1.359 . S
C645 C646 1.380 . S
C645 H668 0.929 . S
C646 C645 1.380 . S
C646 C647 1.347 . S
C646 H669 0.931 . S
C647 C646 1.347 . S
C647 C648 1.369 . S
C648 C647 1.369 . S
C648 C649 1.408 . S
C648 H670 0.930 . S
C649 C644 1.348 . S
C649 C648 1.408 . S
C649 H671 0.930 . S
C650 O660 1.281 . S
C650 O661 1.254 . S
C651 O662 1.236 . S
C651 O663 1.266 . S
O652 Tb632 2.484 . S
O652 C634 1.248 . S
O653 Tb632 2.440 . S
O653 C634 1.266 . S
O654 Tb632 2.658 . S
O654 Tb633 2.325 . S
O654 C641 1.281 . S
O655 Tb632 2.409 . S
O655 C641 1.254 . S
O656 Tb632 2.346 1_556 S
O656 C642 1.260 . S
O657 Tb633 2.341 1_556 S
O657 C642 1.266 . S
O658 Tb633 2.484 . S
O658 C643 1.248 . S
O659 Tb633 2.440 . S
O659 C643 1.266 . S
O660 Tb632 2.325 . S
O660 Tb633 2.658 . S
O660 C650 1.281 . S
O661 Tb633 2.409 . S
O661 C650 1.254 . S
O662 Tb633 2.378 . S
O662 C651 1.236 . S
O663 Tb632 2.341 . S
O663 C651 1.266 . S
H664 C636 0.929 . S
H665 C637 0.931 . S
H666 C639 0.930 . S
H667 C640 0.900 1_554 S
H668 C645 0.929 . S
H669 C646 0.931 . S
H670 C648 0.930 . S
H671 C649 0.930 . S
Tb672 C674 2.809 . S
Tb672 O692 2.484 . S
Tb672 O693 2.440 . S
Tb672 O694 2.658 . S
Tb672 O695 2.409 . S
Tb672 O696 2.378 . S
Tb672 O700 2.325 . S
Tb672 O703 2.341 . S
Tb673 C683 2.809 . S
Tb673 O694 2.325 . S
Tb673 O697 2.341 . S
Tb673 O698 2.484 . S
Tb673 O699 2.440 . S
Tb673 O700 2.658 . S
Tb673 O701 2.409 . S
Tb673 O702 2.378 . S
C674 Tb672 2.809 . S
C674 C675 1.514 . S
C674 O692 1.248 . S
C674 O693 1.266 . S
C675 C674 1.514 . S
C675 C676 1.359 . S
C675 C680 1.348 . S
C676 C675 1.359 . S
C676 C677 1.380 . S
C676 H704 0.929 . S
C677 C676 1.380 . S
C677 C678 1.347 . S
C677 H705 0.931 . S
C678 C677 1.347 . S
C678 C679 1.369 . S
C679 C678 1.369 . S
C679 C680 1.408 . S
C679 H706 0.930 . S
C680 C675 1.348 . S
C680 C679 1.408 . S
C680 H707 0.930 . S
C681 O694 1.281 . S
C681 O695 1.254 . S
C682 O696 1.236 . S
C682 O697 1.266 . S
C683 Tb673 2.809 . S
C683 C684 1.514 . S
C683 O698 1.248 . S
C683 O699 1.266 . S
C684 C683 1.514 . S
C684 C685 1.359 . S
C684 C689 1.348 . S
C685 C684 1.359 . S
C685 C686 1.380 . S
C685 H708 0.929 . S
C686 C685 1.380 . S
C686 C687 1.347 . S
C686 H709 0.931 . S
C687 C686 1.347 . S
C687 C688 1.369 . S
C688 C687 1.369 . S
C688 C689 1.408 . S
C688 H710 0.930 . S
C689 C684 1.348 . S
C689 C688 1.408 . S
C689 H711 0.930 . S
C690 O700 1.281 . S
C690 O701 1.254 . S
C691 O702 1.236 . S
C691 O703 1.266 . S
O692 Tb672 2.484 . S
O692 C674 1.248 . S
O693 Tb672 2.440 . S
O693 C674 1.266 . S
O694 Tb672 2.658 . S
O694 Tb673 2.325 . S
O694 C681 1.281 . S
O695 Tb672 2.409 . S
O695 C681 1.254 . S
O696 Tb672 2.378 . S
O696 C682 1.236 . S
O697 Tb673 2.341 . S
O697 C682 1.266 . S
O698 Tb673 2.484 . S
O698 C683 1.248 . S
O699 Tb673 2.440 . S
O699 C683 1.266 . S
O700 Tb672 2.325 . S
O700 Tb673 2.658 . S
O700 C690 1.281 . S
O701 Tb673 2.409 . S
O701 C690 1.254 . S
O702 Tb673 2.378 . S
O702 C691 1.236 . S
O703 Tb672 2.341 . S
O703 C691 1.266 . S
H704 C676 0.929 . S
H705 C677 0.931 . S
H706 C679 0.930 . S
H707 C680 0.930 . S
H708 C685 0.929 . S
H709 C686 0.931 . S
H710 C688 0.930 . S
H711 C689 0.930 . S
Tb712 C714 2.809 1_455 S
Tb712 O732 2.484 1_455 S
Tb712 O733 2.440 1_455 S
Tb712 O734 2.658 . S
Tb712 O735 2.409 . S
Tb712 O736 2.378 . S
Tb712 O740 2.325 . S
Tb712 O743 2.341 . S
Tb713 C723 2.809 . S
Tb713 O734 2.325 . S
Tb713 O737 2.341 . S
Tb713 O738 2.484 . S
Tb713 O739 2.440 . S
Tb713 O740 2.658 . S
Tb713 O741 2.409 . S
Tb713 O742 2.378 . S
C714 Tb712 2.809 1_655 S
C714 C715 1.514 . S
C714 O732 1.248 . S
C714 O733 1.266 . S
C715 C714 1.514 . S
C715 C716 1.359 . S
C715 C720 1.348 . S
C716 C715 1.359 . S
C716 C717 1.380 . S
C716 H744 0.929 . S
C717 C716 1.380 . S
C717 C718 1.347 . S
C717 H745 0.931 . S
C718 C717 1.347 . S
C718 C719 1.369 . S
C719 C718 1.369 . S
C719 C720 1.408 . S
C719 H746 0.930 . S
C720 C715 1.348 . S
C720 C719 1.408 . S
C720 H747 0.930 . S
C721 O734 1.281 . S
C721 O735 1.254 . S
C722 O736 1.236 . S
C722 O737 1.266 . S
C723 Tb713 2.809 . S
C723 C724 1.514 . S
C723 O738 1.248 . S
C723 O739 1.266 . S
C724 C723 1.514 . S
C724 C725 1.359 . S
C724 C729 1.348 . S
C725 C724 1.359 . S
C725 C726 1.380 . S
C725 H748 0.929 . S
C726 C725 1.380 . S
C726 C727 1.347 . S
C726 H749 0.931 . S
C727 C726 1.347 . S
C727 C728 1.369 . S
C728 C727 1.369 . S
C728 C729 1.408 . S
C728 H750 0.930 . S
C729 C724 1.348 . S
C729 C728 1.408 . S
C729 H751 0.930 . S
C730 O740 1.281 . S
C730 O741 1.254 . S
C731 O742 1.236 . S
C731 O743 1.266 . S
O732 Tb712 2.484 1_655 S
O732 C714 1.248 . S
O733 Tb712 2.440 1_655 S
O733 C714 1.266 . S
O734 Tb712 2.658 . S
O734 Tb713 2.325 . S
O734 C721 1.281 . S
O735 Tb712 2.409 . S
O735 C721 1.254 . S
O736 Tb712 2.378 . S
O736 C722 1.236 . S
O737 Tb713 2.341 . S
O737 C722 1.266 . S
O738 Tb713 2.484 . S
O738 C723 1.248 . S
O739 Tb713 2.440 . S
O739 C723 1.266 . S
O740 Tb712 2.325 . S
O740 Tb713 2.658 . S
O740 C730 1.281 . S
O741 Tb713 2.409 . S
O741 C730 1.254 . S
O742 Tb713 2.378 . S
O742 C731 1.236 . S
O743 Tb712 2.341 . S
O743 C731 1.266 . S
H744 C716 0.929 . S
H745 C717 0.931 . S
H746 C719 0.930 . S
H747 C720 0.930 . S
H748 C725 0.929 . S
H749 C726 0.931 . S
H750 C728 0.930 . S
H751 C729 0.930 . S
Tb752 C754 2.809 . S
Tb752 O772 2.484 . S
Tb752 O773 2.440 . S
Tb752 O774 2.658 . S
Tb752 O775 2.409 . S
Tb752 O776 2.378 . S
Tb752 O780 2.325 . S
Tb752 O783 2.341 . S
Tb753 C763 2.809 . S
Tb753 O774 2.325 . S
Tb753 O777 2.341 . S
Tb753 O778 2.484 . S
Tb753 O779 2.440 . S
Tb753 O780 2.658 . S
Tb753 O781 2.409 . S
Tb753 O782 2.378 . S
C754 Tb752 2.809 . S
C754 C755 1.514 . S
C754 O772 1.248 . S
C754 O773 1.266 . S
C755 C754 1.514 . S
C755 C756 1.359 . S
C755 C760 1.348 . S
C756 C755 1.359 . S
C756 C757 1.380 . S
C756 H784 0.929 . S
C757 C756 1.380 . S
C757 C758 1.347 . S
C757 H785 0.931 . S
C758 C757 1.347 . S
C758 C759 1.369 . S
C759 C758 1.369 . S
C759 C760 1.408 . S
C759 H786 0.930 . S
C760 C755 1.348 . S
C760 C759 1.408 . S
C760 H787 0.930 . S
C761 O774 1.281 . S
C761 O775 1.254 . S
C762 O776 1.236 . S
C762 O777 1.266 . S
C763 Tb753 2.809 . S
C763 C764 1.514 . S
C763 O778 1.248 . S
C763 O779 1.266 . S
C764 C763 1.514 . S
C764 C765 1.359 . S
C764 C769 1.348 . S
C765 C764 1.359 . S
C765 C766 1.380 . S
C765 H788 0.929 . S
C766 C765 1.380 . S
C766 C767 1.347 . S
C766 H789 0.931 . S
C767 C766 1.347 . S
C767 C768 1.369 . S
C768 C767 1.369 . S
C768 C769 1.408 . S
C768 H790 0.930 . S
C769 C764 1.348 . S
C769 C768 1.408 . S
C769 H791 0.930 . S
C770 O780 1.281 . S
C770 O781 1.254 . S
C771 O782 1.236 . S
C771 O783 1.266 . S
O772 Tb752 2.484 . S
O772 C754 1.248 . S
O773 Tb752 2.440 . S
O773 C754 1.266 . S
O774 Tb752 2.658 . S
O774 Tb753 2.325 . S
O774 C761 1.281 . S
O775 Tb752 2.409 . S
O775 C761 1.254 . S
O776 Tb752 2.378 . S
O776 C762 1.236 . S
O777 Tb753 2.341 . S
O777 C762 1.266 . S
O778 Tb753 2.484 . S
O778 C763 1.248 . S
O779 Tb753 2.440 . S
O779 C763 1.266 . S
O780 Tb752 2.325 . S
O780 Tb753 2.658 . S
O780 C770 1.281 . S
O781 Tb753 2.409 . S
O781 C770 1.254 . S
O782 Tb753 2.378 . S
O782 C771 1.236 . S
O783 Tb752 2.341 . S
O783 C771 1.266 . S
H784 C756 0.929 . S
H785 C757 0.931 . S
H786 C759 0.930 . S
H787 C760 0.930 . S
H788 C765 0.929 . S
H789 C766 0.931 . S
H790 C768 0.930 . S
H791 C769 0.930 . S
Tb792 C794 2.809 . S
Tb792 O812 2.484 . S
Tb792 O813 2.440 . S
Tb792 O814 2.658 . S
Tb792 O815 2.409 . S
Tb792 O816 2.378 . S
Tb792 O820 2.325 . S
Tb792 O823 2.341 . S
Tb793 C803 2.809 . S
Tb793 O814 2.325 . S
Tb793 O817 2.341 . S
Tb793 O818 2.484 . S
Tb793 O819 2.440 . S
Tb793 O820 2.658 . S
Tb793 O821 2.409 . S
Tb793 O822 2.378 . S
C794 Tb792 2.809 . S
C794 C795 1.514 . S
C794 O812 1.248 . S
C794 O813 1.266 . S
C795 C794 1.514 . S
C795 C796 1.359 . S
C795 C800 1.348 . S
C796 C795 1.359 . S
C796 C797 1.380 . S
C796 H824 0.929 . S
C797 C796 1.380 . S
C797 C798 1.347 . S
C797 H825 0.931 . S
C798 C797 1.347 . S
C798 C799 1.369 . S
C799 C798 1.369 . S
C799 C800 1.408 . S
C799 H826 0.930 . S
C800 C795 1.348 . S
C800 C799 1.408 . S
C800 H827 0.930 . S
C801 O814 1.281 . S
C801 O815 1.254 . S
C802 O816 1.236 . S
C802 O817 1.266 . S
C803 Tb793 2.809 . S
C803 C804 1.514 . S
C803 O818 1.248 . S
C803 O819 1.266 . S
C804 C803 1.514 . S
C804 C805 1.359 . S
C804 C809 1.348 . S
C805 C804 1.359 . S
C805 C806 1.380 . S
C805 H828 0.929 . S
C806 C805 1.380 . S
C806 C807 1.347 . S
C806 H829 0.931 . S
C807 C806 1.347 . S
C807 C808 1.369 . S
C808 C807 1.369 . S
C808 C809 1.408 . S
C808 H830 0.930 . S
C809 C804 1.348 . S
C809 C808 1.408 . S
C809 H831 0.930 . S
C810 O820 1.281 . S
C810 O821 1.254 . S
C811 O822 1.236 . S
C811 O823 1.266 . S
O812 Tb792 2.484 . S
O812 C794 1.248 . S
O813 Tb792 2.440 . S
O813 C794 1.266 . S
O814 Tb792 2.658 . S
O814 Tb793 2.325 . S
O814 C801 1.281 . S
O815 Tb792 2.409 . S
O815 C801 1.254 . S
O816 Tb792 2.378 . S
O816 C802 1.236 . S
O817 Tb793 2.341 . S
O817 C802 1.266 . S
O818 Tb793 2.484 . S
O818 C803 1.248 . S
O819 Tb793 2.440 . S
O819 C803 1.266 . S
O820 Tb792 2.325 . S
O820 Tb793 2.658 . S
O820 C810 1.281 . S
O821 Tb793 2.409 . S
O821 C810 1.254 . S
O822 Tb793 2.378 . S
O822 C811 1.236 . S
O823 Tb792 2.341 . S
O823 C811 1.266 . S
H824 C796 0.929 . S
H825 C797 0.931 . S
H826 C799 0.930 . S
H827 C800 0.930 . S
H828 C805 0.929 . S
H829 C806 0.931 . S
H830 C808 0.930 . S
H831 C809 0.930 . S
Tb832 C834 2.809 . S
Tb832 O852 2.484 . S
Tb832 O853 2.440 . S
Tb832 O854 2.658 . S
Tb832 O855 2.409 . S
Tb832 O856 2.378 . S
Tb832 O860 2.325 . S
Tb832 O863 2.341 . S
Tb833 C843 2.809 . S
Tb833 O854 2.325 . S
Tb833 O857 2.341 . S
Tb833 O858 2.484 . S
Tb833 O859 2.440 . S
Tb833 O860 2.658 . S
Tb833 O861 2.409 . S
Tb833 O862 2.378 . S
C834 Tb832 2.809 . S
C834 C835 1.514 . S
C834 O852 1.248 . S
C834 O853 1.266 . S
C835 C834 1.514 . S
C835 C836 1.359 . S
C835 C840 1.348 . S
C836 C835 1.359 . S
C836 C837 1.380 . S
C836 H864 0.929 . S
C837 C836 1.380 . S
C837 C838 1.347 . S
C837 H865 0.931 . S
C838 C837 1.347 . S
C838 C839 1.369 . S
C839 C838 1.369 . S
C839 C840 1.408 . S
C839 H866 0.930 . S
C840 C835 1.348 . S
C840 C839 1.408 . S
C840 H867 0.930 . S
C841 O854 1.281 . S
C841 O855 1.254 . S
C842 O856 1.236 . S
C842 O857 1.266 . S
C843 Tb833 2.809 . S
C843 C844 1.514 . S
C843 O858 1.248 . S
C843 O859 1.266 . S
C844 C843 1.514 . S
C844 C845 1.359 . S
C844 C849 1.348 . S
C845 C844 1.359 . S
C845 C846 1.380 . S
C845 H868 0.929 . S
C846 C845 1.380 . S
C846 C847 1.347 . S
C846 H869 0.931 . S
C847 C846 1.347 . S
C847 C848 1.369 . S
C848 C847 1.369 . S
C848 C849 1.408 . S
C848 H870 0.930 . S
C849 C844 1.348 . S
C849 C848 1.408 . S
C849 H871 0.930 . S
C850 O860 1.281 . S
C850 O861 1.254 . S
C851 O862 1.236 . S
C851 O863 1.266 . S
O852 Tb832 2.484 . S
O852 C834 1.248 . S
O853 Tb832 2.440 . S
O853 C834 1.266 . S
O854 Tb832 2.658 . S
O854 Tb833 2.325 . S
O854 C841 1.281 . S
O855 Tb832 2.409 . S
O855 C841 1.254 . S
O856 Tb832 2.378 . S
O856 C842 1.236 . S
O857 Tb833 2.341 . S
O857 C842 1.266 . S
O858 Tb833 2.484 . S
O858 C843 1.248 . S
O859 Tb833 2.440 . S
O859 C843 1.266 . S
O860 Tb832 2.325 . S
O860 Tb833 2.658 . S
O860 C850 1.281 . S
O861 Tb833 2.409 . S
O861 C850 1.254 . S
O862 Tb833 2.378 . S
O862 C851 1.236 . S
O863 Tb832 2.341 . S
O863 C851 1.266 . S
H864 C836 0.929 . S
H865 C837 0.931 . S
H866 C839 0.930 . S
H867 C840 0.930 . S
H868 C845 0.929 . S
H869 C846 0.931 . S
H870 C848 0.930 . S
H871 C849 0.930 . S
Tb872 C874 2.809 . S
Tb872 O892 2.484 . S
Tb872 O893 2.440 . S
Tb872 O894 2.658 . S
Tb872 O895 2.409 . S
Tb872 O896 2.378 . S
Tb872 O900 2.325 . S
Tb872 O903 2.341 . S
Tb873 C883 2.809 . S
Tb873 O894 2.325 . S
Tb873 O897 2.341 . S
Tb873 O898 2.484 . S
Tb873 O899 2.440 . S
Tb873 O900 2.658 . S
Tb873 O901 2.409 . S
Tb873 O902 2.378 . S
C874 Tb872 2.809 . S
C874 C875 1.514 . S
C874 O892 1.248 . S
C874 O893 1.266 . S
C875 C874 1.514 . S
C875 C876 1.359 . S
C875 C880 1.348 . S
C876 C875 1.359 . S
C876 C877 1.380 . S
C876 H904 0.929 . S
C877 C876 1.380 . S
C877 C878 1.347 . S
C877 H905 0.931 . S
C878 C877 1.347 . S
C878 C879 1.369 . S
C879 C878 1.369 . S
C879 C880 1.408 . S
C879 H906 0.930 . S
C880 C875 1.348 . S
C880 C879 1.408 . S
C880 H907 0.930 . S
C881 O894 1.281 . S
C881 O895 1.254 . S
C882 O896 1.236 . S
C882 O897 1.266 . S
C883 Tb873 2.809 . S
C883 C884 1.514 . S
C883 O898 1.248 . S
C883 O899 1.266 . S
C884 C883 1.514 . S
C884 C885 1.359 . S
C884 C889 1.348 . S
C885 C884 1.359 . S
C885 C886 1.380 . S
C885 H908 0.929 . S
C886 C885 1.380 . S
C886 C887 1.347 . S
C886 H909 0.931 . S
C887 C886 1.347 . S
C887 C888 1.369 . S
C888 C887 1.369 . S
C888 C889 1.408 . S
C888 H910 0.930 . S
C889 C884 1.348 . S
C889 C888 1.408 . S
C889 H911 0.930 . S
C890 O900 1.281 . S
C890 O901 1.254 . S
C891 O902 1.236 . S
C891 O903 1.266 . S
O892 Tb872 2.484 . S
O892 C874 1.248 . S
O893 Tb872 2.440 . S
O893 C874 1.266 . S
O894 Tb872 2.658 . S
O894 Tb873 2.325 . S
O894 C881 1.281 . S
O895 Tb872 2.409 . S
O895 C881 1.254 . S
O896 Tb872 2.378 . S
O896 C882 1.236 . S
O897 Tb873 2.341 . S
O897 C882 1.266 . S
O898 Tb873 2.484 . S
O898 C883 1.248 . S
O899 Tb873 2.440 . S
O899 C883 1.266 . S
O900 Tb872 2.325 . S
O900 Tb873 2.658 . S
O900 C890 1.281 . S
O901 Tb873 2.409 . S
O901 C890 1.254 . S
O902 Tb873 2.378 . S
O902 C891 1.236 . S
O903 Tb872 2.341 . S
O903 C891 1.266 . S
H904 C876 0.929 . S
H905 C877 0.931 . S
H906 C879 0.930 . S
H907 C880 0.930 . S
H908 C885 0.929 . S
H909 C886 0.931 . S
H910 C888 0.930 . S
H911 C889 0.930 . S
Tb912 C914 2.809 . S
Tb912 O932 2.484 . S
Tb912 O933 2.440 1_554 S
Tb912 O934 2.658 . S
Tb912 O935 2.409 1_554 S
Tb912 O936 2.378 . S
Tb912 O940 2.325 . S
Tb912 O943 2.341 . S
Tb913 C923 2.809 1_455 S
Tb913 O934 2.325 . S
Tb913 O937 2.341 . S
Tb913 O938 2.484 1_455 S
Tb913 O939 2.440 1_455 S
Tb913 O940 2.658 . S
Tb913 O941 2.409 . S
Tb913 O942 2.378 . S
C914 Tb912 2.809 . S
C914 C915 1.514 . S
C914 O932 1.248 . S
C914 O933 1.266 1_554 S
C915 C914 1.514 . S
C915 C916 1.359 . S
C915 C920 1.348 1_554 S
C916 C915 1.359 . S
C916 C917 1.380 . S
C916 H944 0.929 . S
C917 C916 1.380 . S
C917 C918 1.347 1_554 S
C917 H945 0.931 . S
C918 C917 1.347 1_556 S
C918 C919 1.369 . S
C919 C918 1.369 . S
C919 C920 1.408 . S
C919 H946 0.930 . S
C920 C915 1.348 1_556 S
C920 C919 1.408 . S
C920 H947 0.930 . S
C921 O934 1.281 1_556 S
C921 O935 1.254 . S
C922 O936 1.236 . S
C922 O937 1.266 . S
C923 Tb913 2.809 1_655 S
C923 C924 1.514 . S
C923 O938 1.248 . S
C923 O939 1.266 . S
C924 C923 1.514 . S
C924 C925 1.359 . S
C924 C929 1.348 . S
C925 C924 1.359 . S
C925 C926 1.380 . S
C925 H948 0.929 . S
C926 C925 1.380 . S
C926 C927 1.347 . S
C926 H949 0.931 . S
C927 C926 1.347 . S
C927 C928 1.369 . S
C928 C927 1.369 . S
C928 C929 1.408 . S
C928 H950 0.930 . S
C929 C924 1.348 . S
C929 C928 1.408 . S
C929 H951 0.930 . S
C930 O940 1.281 . S
C930 O941 1.254 . S
C931 O942 1.236 . S
C931 O943 1.266 . S
O932 Tb912 2.484 . S
O932 C914 1.248 . S
O933 Tb912 2.440 1_556 S
O933 C914 1.266 1_556 S
O934 Tb912 2.658 . S
O934 Tb913 2.325 . S
O934 C921 1.281 1_554 S
O935 Tb912 2.409 1_556 S
O935 C921 1.254 . S
O936 Tb912 2.378 . S
O936 C922 1.236 . S
O937 Tb913 2.341 . S
O937 C922 1.266 . S
O938 Tb913 2.484 1_655 S
O938 C923 1.248 . S
O939 Tb913 2.440 1_655 S
O939 C923 1.266 . S
O940 Tb912 2.325 . S
O940 Tb913 2.658 . S
O940 C930 1.281 . S
O941 Tb913 2.409 . S
O941 C930 1.254 . S
O942 Tb913 2.378 . S
O942 C931 1.236 . S
O943 Tb912 2.341 . S
O943 C931 1.266 . S
H944 C916 0.929 . S
H945 C917 0.931 . S
H946 C919 0.930 . S
H947 C920 0.930 . S
H948 C925 0.929 . S
H949 C926 0.931 . S
H950 C928 0.930 . S
H951 C929 0.930 . S
C952 C953 1.349 . S
C952 C954 1.327 . S
C952 H977 0.950 1_455 S
C953 C952 1.349 . S
C953 C969 1.349 . S
C954 C952 1.327 . S
C954 C973 1.429 . S
C954 H978 0.929 1_455 S
C955 C972 1.574 . S
C955 C974 1.368 . S
C955 H979 0.949 . S
H956 C960 0.928 1_554 S
C957 C958 1.349 1_556 S
C957 C959 1.327 . S
C957 H980 0.950 . S
C958 C957 1.349 1_554 S
C958 C970 1.349 . S
C959 C957 1.327 . S
C959 C975 1.429 . S
C959 H981 0.950 . S
C960 H956 0.928 1_556 S
C960 C968 1.585 . S
C960 C976 1.382 . S
H961 C969 0.950 . S
H962 C967 0.950 . S
H963 C968 0.949 . S
H964 C970 0.950 . S
H965 C971 0.950 . S
H966 C972 0.949 . S
C967 H962 0.950 . S
C967 C969 1.327 . S
C967 C973 1.429 . S
C968 C960 1.585 . S
C968 H963 0.949 . S
C968 C974 1.368 . S
C969 C953 1.349 . S
C969 H961 0.950 . S
C969 C967 1.327 . S
C970 C958 1.349 . S
C970 H964 0.950 . S
C970 C971 1.327 . S
C971 H965 0.950 . S
C971 C970 1.327 . S
C971 C975 1.429 1_554 S
C972 C955 1.574 . S
C972 H966 0.949 . S
C972 C976 1.368 . S
C973 C954 1.429 . S
C973 C967 1.429 . S
C973 C974 1.523 . S
C974 C955 1.368 . S
C974 C968 1.368 . S
C974 C973 1.523 . S
C975 C959 1.429 . S
C975 C971 1.429 1_556 S
C975 C976 1.523 . S
C976 C960 1.382 . S
C976 C972 1.368 . S
C976 C975 1.523 . S
H977 C952 0.950 1_655 S
H978 C954 0.929 1_655 S
H979 C955 0.949 . S
H980 C957 0.950 . S
H981 C959 0.950 . S
C982 C983 1.349 . S
C982 C984 1.327 . S
C982 H1007 0.950 . S
C983 C982 1.349 . S
C983 C999 1.349 . S
C984 C982 1.327 . S
C984 C1003 1.429 . S
C984 H1008 0.950 . S
C985 C1002 1.574 . S
C985 C1004 1.368 . S
C985 H1009 0.949 . S
H986 C990 0.949 . S
C987 C988 1.349 . S
C987 C989 1.327 . S
C987 H1010 0.950 . S
C988 C987 1.349 . S
C988 C1000 1.349 . S
C989 C987 1.327 . S
C989 C1005 1.429 . S
C989 H1011 0.950 . S
C990 H986 0.949 . S
C990 C998 1.574 . S
C990 C1006 1.368 . S
H991 C999 0.950 . S
H992 C997 0.950 . S
H993 C998 0.949 . S
H994 C1000 0.950 . S
H995 C1001 0.950 . S
H996 C1002 0.949 . S
C997 H992 0.950 . S
C997 C999 1.327 . S
C997 C1003 1.429 . S
C998 C990 1.574 . S
C998 H993 0.949 . S
C998 C1004 1.368 . S
C999 C983 1.349 . S
C999 H991 0.950 . S
C999 C997 1.327 . S
C1000 C988 1.349 . S
C1000 H994 0.950 . S
C1000 C1001 1.327 . S
C1001 H995 0.950 . S
C1001 C1000 1.327 . S
C1001 C1005 1.429 . S
C1002 C985 1.574 . S
C1002 H996 0.949 . S
C1002 C1006 1.368 . S
C1003 C984 1.429 . S
C1003 C997 1.429 . S
C1003 C1004 1.523 . S
C1004 C985 1.368 . S
C1004 C998 1.368 . S
C1004 C1003 1.523 . S
C1005 C989 1.429 . S
C1005 C1001 1.429 . S
C1005 C1006 1.523 . S
C1006 C990 1.368 . S
C1006 C1002 1.368 . S
C1006 C1005 1.523 . S
H1007 C982 0.950 . S
H1008 C984 0.950 . S
H1009 C985 0.949 . S
H1010 C987 0.950 . S
H1011 C989 0.950 . S
C1012 C1013 1.349 . S
C1012 C1014 1.327 . S
C1012 H1037 0.950 . S
C1013 C1012 1.349 . S
C1013 C1029 1.349 . S
C1014 C1012 1.327 . S
C1014 C1033 1.429 . S
C1014 H1038 0.950 . S
C1015 C1032 1.574 . S
C1015 C1034 1.368 . S
C1015 H1039 0.949 . S
H1016 C1020 0.949 . S
C1017 C1018 1.349 . S
C1017 C1019 1.327 . S
C1017 H1040 0.950 . S
C1018 C1017 1.349 . S
C1018 C1030 1.349 . S
C1019 C1017 1.327 . S
C1019 C1035 1.429 . S
C1019 H1041 0.950 . S
C1020 H1016 0.949 . S
C1020 C1028 1.574 . S
C1020 C1036 1.368 . S
H1021 C1029 0.950 . S
H1022 C1027 0.950 . S
H1023 C1028 0.949 . S
H1024 C1030 0.950 . S
H1025 C1031 0.950 . S
H1026 C1032 0.949 . S
C1027 H1022 0.950 . S
C1027 C1029 1.327 . S
C1027 C1033 1.429 . S
C1028 C1020 1.574 . S
C1028 H1023 0.949 . S
C1028 C1034 1.368 . S
C1029 C1013 1.349 . S
C1029 H1021 0.950 . S
C1029 C1027 1.327 . S
C1030 C1018 1.349 . S
C1030 H1024 0.950 . S
C1030 C1031 1.327 . S
C1031 H1025 0.950 . S
C1031 C1030 1.327 . S
C1031 C1035 1.429 . S
C1032 C1015 1.574 . S
C1032 H1026 0.949 . S
C1032 C1036 1.368 . S
C1033 C1014 1.429 . S
C1033 C1027 1.429 . S
C1033 C1034 1.523 . S
C1034 C1015 1.368 . S
C1034 C1028 1.368 . S
C1034 C1033 1.523 . S
C1035 C1019 1.429 . S
C1035 C1031 1.429 . S
C1035 C1036 1.523 . S
C1036 C1020 1.368 . S
C1036 C1032 1.368 . S
C1036 C1035 1.523 . S
H1037 C1012 0.950 . S
H1038 C1014 0.950 . S
H1039 C1015 0.949 . S
H1040 C1017 0.950 . S
H1041 C1019 0.950 . S
C1042 C1043 1.349 . S
C1042 C1044 1.327 . S
C1042 H1067 0.950 . S
C1043 C1042 1.349 . S
C1043 C1059 1.349 . S
C1044 C1042 1.327 . S
C1044 C1063 1.429 . S
C1044 H1068 0.950 . S
C1045 C1062 1.574 . S
C1045 C1064 1.368 . S
C1045 H1069 0.949 . S
H1046 C1050 0.949 . S
C1047 C1048 1.349 . S
C1047 C1049 1.327 . S
C1047 H1070 0.950 . S
C1048 C1047 1.349 . S
C1048 C1060 1.349 . S
C1049 C1047 1.327 . S
C1049 C1065 1.429 . S
C1049 H1071 0.950 . S
C1050 H1046 0.949 . S
C1050 C1058 1.574 . S
C1050 C1066 1.368 . S
H1051 C1059 0.950 . S
H1052 C1057 0.950 . S
H1053 C1058 0.949 . S
H1054 C1060 0.950 . S
H1055 C1061 0.950 . S
H1056 C1062 0.949 . S
C1057 H1052 0.950 . S
C1057 C1059 1.327 . S
C1057 C1063 1.429 . S
C1058 C1050 1.574 . S
C1058 H1053 0.949 . S
C1058 C1064 1.368 . S
C1059 C1043 1.349 . S
C1059 H1051 0.950 . S
C1059 C1057 1.327 . S
C1060 C1048 1.349 . S
C1060 H1054 0.950 . S
C1060 C1061 1.327 . S
C1061 H1055 0.950 . S
C1061 C1060 1.327 . S
C1061 C1065 1.429 . S
C1062 C1045 1.574 . S
C1062 H1056 0.949 . S
C1062 C1066 1.368 . S
C1063 C1044 1.429 . S
C1063 C1057 1.429 . S
C1063 C1064 1.523 . S
C1064 C1045 1.368 . S
C1064 C1058 1.368 . S
C1064 C1063 1.523 . S
C1065 C1049 1.429 . S
C1065 C1061 1.429 . S
C1065 C1066 1.523 . S
C1066 C1050 1.368 . S
C1066 C1062 1.368 . S
C1066 C1065 1.523 . S
H1067 C1042 0.950 . S
H1068 C1044 0.950 . S
H1069 C1045 0.949 . S
H1070 C1047 0.950 . S
H1071 C1049 0.950 . S
C1072 C1073 1.349 . S
C1072 C1074 1.327 . S
C1072 H1097 0.950 . S
C1073 C1072 1.349 . S
C1073 C1089 1.349 . S
C1074 C1072 1.327 . S
C1074 C1093 1.429 . S
C1074 H1098 0.950 . S
C1075 C1092 1.574 . S
C1075 C1094 1.368 . S
C1075 H1099 0.949 . S
H1076 C1080 0.949 . S
C1077 C1078 1.349 . S
C1077 C1079 1.327 . S
C1077 H1100 0.950 . S
C1078 C1077 1.349 . S
C1078 C1090 1.349 . S
C1079 C1077 1.327 . S
C1079 C1095 1.429 . S
C1079 H1101 0.950 . S
C1080 H1076 0.949 . S
C1080 C1088 1.574 . S
C1080 C1096 1.368 . S
H1081 C1089 0.950 . S
H1082 C1087 0.950 . S
H1083 C1088 0.949 . S
H1084 C1090 0.950 . S
H1085 C1091 0.950 . S
H1086 C1092 0.949 . S
C1087 H1082 0.950 . S
C1087 C1089 1.327 . S
C1087 C1093 1.429 . S
C1088 C1080 1.574 . S
C1088 H1083 0.949 . S
C1088 C1094 1.368 . S
C1089 C1073 1.349 . S
C1089 H1081 0.950 . S
C1089 C1087 1.327 . S
C1090 C1078 1.349 . S
C1090 H1084 0.950 . S
C1090 C1091 1.327 . S
C1091 H1085 0.950 . S
C1091 C1090 1.327 . S
C1091 C1095 1.429 . S
C1092 C1075 1.574 . S
C1092 H1086 0.949 . S
C1092 C1096 1.368 . S
C1093 C1074 1.429 . S
C1093 C1087 1.429 . S
C1093 C1094 1.523 . S
C1094 C1075 1.368 . S
C1094 C1088 1.368 . S
C1094 C1093 1.523 . S
C1095 C1079 1.429 . S
C1095 C1091 1.429 . S
C1095 C1096 1.523 . S
C1096 C1080 1.368 . S
C1096 C1092 1.368 . S
C1096 C1095 1.523 . S
H1097 C1072 0.950 . S
H1098 C1074 0.950 . S
H1099 C1075 0.949 . S
H1100 C1077 0.950 . S
H1101 C1079 0.950 . S
C1102 C1103 1.349 . S
C1102 C1104 1.327 . S
C1102 H1127 0.950 . S
C1103 C1102 1.349 . S
C1103 C1119 1.349 . S
C1104 C1102 1.327 . S
C1104 C1123 1.429 . S
C1104 H1128 0.950 . S
C1105 C1122 1.574 . S
C1105 C1124 1.368 . S
C1105 H1129 0.949 . S
H1106 C1110 0.949 . S
C1107 C1108 1.349 . S
C1107 C1109 1.327 . S
C1107 H1130 0.950 . S
C1108 C1107 1.349 . S
C1108 C1120 1.349 . S
C1109 C1107 1.327 . S
C1109 C1125 1.429 . S
C1109 H1131 0.950 . S
C1110 H1106 0.949 . S
C1110 C1118 1.574 . S
C1110 C1126 1.368 . S
H1111 C1119 0.950 . S
H1112 C1117 0.950 . S
H1113 C1118 0.949 . S
H1114 C1120 0.950 . S
H1115 C1121 0.950 . S
H1116 C1122 0.949 . S
C1117 H1112 0.950 . S
C1117 C1119 1.327 . S
C1117 C1123 1.429 . S
C1118 C1110 1.574 . S
C1118 H1113 0.949 . S
C1118 C1124 1.368 . S
C1119 C1103 1.349 . S
C1119 H1111 0.950 . S
C1119 C1117 1.327 . S
C1120 C1108 1.349 . S
C1120 H1114 0.950 . S
C1120 C1121 1.327 . S
C1121 H1115 0.950 . S
C1121 C1120 1.327 . S
C1121 C1125 1.429 . S
C1122 C1105 1.574 . S
C1122 H1116 0.949 . S
C1122 C1126 1.368 . S
C1123 C1104 1.429 . S
C1123 C1117 1.429 . S
C1123 C1124 1.523 . S
C1124 C1105 1.368 . S
C1124 C1118 1.368 . S
C1124 C1123 1.523 . S
C1125 C1109 1.429 . S
C1125 C1121 1.429 . S
C1125 C1126 1.523 . S
C1126 C1110 1.368 . S
C1126 C1122 1.368 . S
C1126 C1125 1.523 . S
H1127 C1102 0.950 . S
H1128 C1104 0.950 . S
H1129 C1105 0.949 . S
H1130 C1107 0.950 . S
H1131 C1109 0.950 . S
C1132 C1133 1.349 . S
C1132 C1134 1.327 . S
C1132 H1157 0.950 . S
C1133 C1132 1.349 . S
C1133 C1149 1.349 . S
C1134 C1132 1.327 . S
C1134 C1153 1.429 . S
C1134 H1158 0.950 . S
C1135 C1152 1.574 . S
C1135 C1154 1.368 . S
C1135 H1159 0.949 . S
H1136 C1140 0.949 . S
C1137 C1138 1.349 . S
C1137 C1139 1.327 . S
C1137 H1160 0.950 . S
C1138 C1137 1.349 . S
C1138 C1150 1.349 . S
C1139 C1137 1.327 . S
C1139 C1155 1.429 . S
C1139 H1161 0.950 . S
C1140 H1136 0.949 . S
C1140 C1148 1.574 . S
C1140 C1156 1.368 . S
H1141 C1149 0.950 . S
H1142 C1147 0.950 . S
H1143 C1148 0.949 . S
H1144 C1150 0.950 . S
H1145 C1151 0.950 . S
H1146 C1152 0.949 . S
C1147 H1142 0.950 . S
C1147 C1149 1.327 . S
C1147 C1153 1.429 . S
C1148 C1140 1.574 . S
C1148 H1143 0.949 . S
C1148 C1154 1.368 . S
C1149 C1133 1.349 . S
C1149 H1141 0.950 . S
C1149 C1147 1.327 . S
C1150 C1138 1.349 . S
C1150 H1144 0.950 . S
C1150 C1151 1.327 . S
C1151 H1145 0.950 . S
C1151 C1150 1.327 . S
C1151 C1155 1.429 . S
C1152 C1135 1.574 . S
C1152 H1146 0.949 . S
C1152 C1156 1.368 . S
C1153 C1134 1.429 . S
C1153 C1147 1.429 . S
C1153 C1154 1.523 . S
C1154 C1135 1.368 . S
C1154 C1148 1.368 . S
C1154 C1153 1.523 . S
C1155 C1139 1.429 . S
C1155 C1151 1.429 . S
C1155 C1156 1.523 . S
C1156 C1140 1.368 . S
C1156 C1152 1.368 . S
C1156 C1155 1.523 . S
H1157 C1132 0.950 . S
H1158 C1134 0.950 . S
H1159 C1135 0.949 . S
H1160 C1137 0.950 . S
H1161 C1139 0.950 . S
C1162 C1163 1.349 . S
C1162 C1164 1.327 . S
C1162 H1187 0.950 . S
C1163 C1162 1.349 . S
C1163 C1179 1.349 . S
C1164 C1162 1.327 . S
C1164 C1183 1.429 . S
C1164 H1188 0.950 . S
C1165 C1182 1.574 . S
C1165 C1184 1.368 . S
C1165 H1189 0.949 . S
H1166 C1170 0.949 . S
C1167 C1168 1.349 . S
C1167 C1169 1.327 . S
C1167 H1190 0.950 . S
C1168 C1167 1.349 . S
C1168 C1180 1.349 . S
C1169 C1167 1.327 . S
C1169 C1185 1.429 . S
C1169 H1191 0.950 . S
C1170 H1166 0.949 . S
C1170 C1178 1.574 . S
C1170 C1186 1.368 . S
H1171 C1179 0.950 . S
H1172 C1177 0.950 . S
H1173 C1178 0.949 . S
H1174 C1180 0.950 . S
H1175 C1181 0.950 . S
H1176 C1182 0.949 . S
C1177 H1172 0.950 . S
C1177 C1179 1.327 . S
C1177 C1183 1.429 . S
C1178 C1170 1.574 . S
C1178 H1173 0.949 . S
C1178 C1184 1.368 . S
C1179 C1163 1.349 . S
C1179 H1171 0.950 . S
C1179 C1177 1.327 . S
C1180 C1168 1.349 . S
C1180 H1174 0.950 . S
C1180 C1181 1.327 . S
C1181 H1175 0.950 . S
C1181 C1180 1.327 . S
C1181 C1185 1.429 . S
C1182 C1165 1.574 . S
C1182 H1176 0.949 . S
C1182 C1186 1.368 . S
C1183 C1164 1.429 . S
C1183 C1177 1.429 . S
C1183 C1184 1.523 . S
C1184 C1165 1.368 . S
C1184 C1178 1.368 . S
C1184 C1183 1.523 . S
C1185 C1169 1.429 . S
C1185 C1181 1.429 . S
C1185 C1186 1.523 . S
C1186 C1170 1.368 . S
C1186 C1182 1.368 . S
C1186 C1185 1.523 . S
H1187 C1162 0.950 . S
H1188 C1164 0.950 . S
H1189 C1165 0.949 . S
H1190 C1167 0.950 . S
H1191 C1169 0.950 . S
C1192 C1193 1.349 . S
C1192 C1194 1.327 . S
C1192 H1217 0.950 . S
C1193 C1192 1.349 . S
C1193 C1209 1.349 1_545 S
C1194 C1192 1.327 . S
C1194 C1213 1.429 . S
C1194 H1218 0.950 . S
C1195 C1212 1.574 . S
C1195 C1214 1.368 1_565 S
C1195 H1219 0.949 . S
H1196 C1200 0.949 1_455 S
C1197 C1198 1.349 1_655 S
C1197 C1199 1.327 . S
C1197 H1220 0.950 1_545 S
C1198 C1197 1.349 1_455 S
C1198 C1210 1.349 . S
C1199 C1197 1.327 . S
C1199 C1215 1.429 . S
C1199 H1221 0.950 1_545 S
C1200 H1196 0.949 1_655 S
C1200 C1208 1.574 . S
C1200 C1216 1.368 . S
H1201 C1209 0.950 . S
H1202 C1207 0.950 . S
H1203 C1208 0.949 . S
H1204 C1210 0.950 . S
H1205 C1211 0.950 . S
H1206 C1212 0.949 . S
C1207 H1202 0.950 . S
C1207 C1209 1.327 . S
C1207 C1213 1.429 1_565 S
C1208 C1200 1.574 . S
C1208 H1203 0.949 . S
C1208 C1214 1.368 . S
C1209 C1193 1.349 1_565 S
C1209 H1201 0.950 . S
C1209 C1207 1.327 . S
C1210 C1198 1.349 . S
C1210 H1204 0.950 . S
C1210 C1211 1.327 . S
C1211 H1205 0.950 . S
C1211 C1210 1.327 . S
C1211 C1215 1.429 1_455 S
C1212 C1195 1.574 . S
C1212 H1206 0.949 . S
C1212 C1216 1.368 1_565 S
C1213 C1194 1.429 . S
C1213 C1207 1.429 1_545 S
C1213 C1214 1.523 . S
C1214 C1195 1.368 1_545 S
C1214 C1208 1.368 . S
C1214 C1213 1.523 . S
C1215 C1199 1.429 . S
C1215 C1211 1.429 1_655 S
C1215 C1216 1.523 . S
C1216 C1200 1.368 . S
C1216 C1212 1.368 1_545 S
C1216 C1215 1.523 . S
H1217 C1192 0.950 . S
H1218 C1194 0.950 . S
H1219 C1195 0.949 . S
H1220 C1197 0.950 1_565 S
H1221 C1199 0.950 1_565 S
C1222 C1223 1.349 . S
C1222 C1224 1.327 . S
C1222 H1247 0.950 . S
C1223 C1222 1.349 . S
C1223 C1239 1.349 . S
C1224 C1222 1.327 . S
C1224 C1243 1.429 . S
C1224 H1248 0.950 . S
C1225 C1242 1.574 . S
C1225 C1244 1.368 . S
C1225 H1249 0.949 . S
H1226 C1230 0.949 . S
C1227 C1228 1.349 . S
C1227 C1229 1.327 . S
C1227 H1250 0.950 . S
C1228 C1227 1.349 . S
C1228 C1240 1.349 . S
C1229 C1227 1.327 . S
C1229 C1245 1.429 . S
C1229 H1251 0.950 . S
C1230 H1226 0.949 . S
C1230 C1238 1.574 . S
C1230 C1246 1.368 . S
H1231 C1239 0.950 . S
H1232 C1237 0.950 . S
H1233 C1238 0.949 . S
H1234 C1240 0.950 . S
H1235 C1241 0.950 . S
H1236 C1242 0.949 . S
C1237 H1232 0.950 . S
C1237 C1239 1.327 . S
C1237 C1243 1.429 . S
C1238 C1230 1.574 . S
C1238 H1233 0.949 . S
C1238 C1244 1.368 . S
C1239 C1223 1.349 . S
C1239 H1231 0.950 . S
C1239 C1237 1.327 . S
C1240 C1228 1.349 . S
C1240 H1234 0.950 . S
C1240 C1241 1.327 . S
C1241 H1235 0.950 . S
C1241 C1240 1.327 . S
C1241 C1245 1.429 . S
C1242 C1225 1.574 . S
C1242 H1236 0.949 . S
C1242 C1246 1.368 . S
C1243 C1224 1.429 . S
C1243 C1237 1.429 . S
C1243 C1244 1.523 . S
C1244 C1225 1.368 . S
C1244 C1238 1.368 . S
C1244 C1243 1.523 . S
C1245 C1229 1.429 . S
C1245 C1241 1.429 . S
C1245 C1246 1.523 . S
C1246 C1230 1.368 . S
C1246 C1242 1.368 . S
C1246 C1245 1.523 . S
H1247 C1222 0.950 . S
H1248 C1224 0.950 . S
H1249 C1225 0.949 . S
H1250 C1227 0.950 . S
H1251 C1229 0.950 . S
C1252 C1253 1.349 1_565 S
C1252 C1254 1.327 . S
C1252 H1277 0.950 . S
C1253 C1252 1.349 1_545 S
C1253 C1269 1.349 . S
C1254 C1252 1.327 . S
C1254 C1273 1.429 1_565 S
C1254 H1278 0.950 . S
C1255 C1272 1.574 . S
C1255 C1274 1.368 . S
C1255 H1279 0.949 . S
H1256 C1260 0.949 . S
C1257 C1258 1.349 . S
C1257 C1259 1.327 . S
C1257 H1280 0.950 . S
C1258 C1257 1.349 . S
C1258 C1270 1.349 1_545 S
C1259 C1257 1.327 . S
C1259 C1275 1.429 . S
C1259 H1281 0.950 . S
C1260 H1256 0.949 . S
C1260 C1268 1.574 . S
C1260 C1276 1.368 1_565 S
H1261 C1269 0.950 . S
H1262 C1267 0.950 . S
H1263 C1268 0.949 . S
H1264 C1270 0.950 . S
H1265 C1271 0.950 . S
H1266 C1272 0.949 . S
C1267 H1262 0.950 . S
C1267 C1269 1.327 . S
C1267 C1273 1.429 . S
C1268 C1260 1.574 . S
C1268 H1263 0.949 . S
C1268 C1274 1.368 1_565 S
C1269 C1253 1.349 . S
C1269 H1261 0.950 . S
C1269 C1267 1.327 . S
C1270 C1258 1.349 1_565 S
C1270 H1264 0.950 . S
C1270 C1271 1.327 . S
C1271 H1265 0.950 . S
C1271 C1270 1.327 . S
C1271 C1275 1.429 1_565 S
C1272 C1255 1.574 . S
C1272 H1266 0.949 . S
C1272 C1276 1.368 . S
C1273 C1254 1.429 1_545 S
C1273 C1267 1.429 . S
C1273 C1274 1.523 . S
C1274 C1255 1.368 . S
C1274 C1268 1.368 1_545 S
C1274 C1273 1.523 . S
C1275 C1259 1.429 . S
C1275 C1271 1.429 1_545 S
C1275 C1276 1.523 . S
C1276 C1260 1.368 1_545 S
C1276 C1272 1.368 . S
C1276 C1275 1.523 . S
H1277 C1252 0.950 . S
H1278 C1254 0.950 . S
H1279 C1255 0.949 . S
H1280 C1257 0.950 . S
H1281 C1259 0.950 . S
C1282 C1283 1.349 . S
C1282 C1284 1.327 . S
C1282 H1307 0.950 . S
C1283 C1282 1.349 . S
C1283 C1299 1.349 . S
C1284 C1282 1.327 . S
C1284 C1303 1.429 . S
C1284 H1308 0.950 . S
C1285 C1302 1.574 . S
C1285 C1304 1.368 . S
C1285 H1309 0.949 . S
H1286 C1290 0.949 . S
C1287 C1288 1.349 . S
C1287 C1289 1.327 . S
C1287 H1310 0.950 . S
C1288 C1287 1.349 . S
C1288 C1300 1.349 . S
C1289 C1287 1.327 . S
C1289 C1305 1.429 . S
C1289 H1311 0.950 . S
C1290 H1286 0.949 . S
C1290 C1298 1.574 . S
C1290 C1306 1.368 . S
H1291 C1299 0.950 . S
H1292 C1297 0.950 . S
H1293 C1298 0.949 . S
H1294 C1300 0.950 . S
H1295 C1301 0.950 . S
H1296 C1302 0.949 . S
C1297 H1292 0.950 . S
C1297 C1299 1.327 . S
C1297 C1303 1.429 . S
C1298 C1290 1.574 . S
C1298 H1293 0.949 . S
C1298 C1304 1.368 . S
C1299 C1283 1.349 . S
C1299 H1291 0.950 . S
C1299 C1297 1.327 . S
C1300 C1288 1.349 . S
C1300 H1294 0.950 . S
C1300 C1301 1.327 . S
C1301 H1295 0.950 . S
C1301 C1300 1.327 . S
C1301 C1305 1.429 . S
C1302 C1285 1.574 . S
C1302 H1296 0.949 . S
C1302 C1306 1.368 . S
C1303 C1284 1.429 . S
C1303 C1297 1.429 . S
C1303 C1304 1.523 . S
C1304 C1285 1.368 . S
C1304 C1298 1.368 . S
C1304 C1303 1.523 . S
C1305 C1289 1.429 . S
C1305 C1301 1.429 . S
C1305 C1306 1.523 . S
C1306 C1290 1.368 . S
C1306 C1302 1.368 . S
C1306 C1305 1.523 . S
H1307 C1282 0.950 . S
H1308 C1284 0.950 . S
H1309 C1285 0.949 . S
H1310 C1287 0.950 . S
H1311 C1289 0.950 . S
C1312 C1313 1.349 . S
C1312 C1314 1.327 . S
C1312 H1337 0.950 . S
C1313 C1312 1.349 . S
C1313 C1329 1.397 . S
C1314 C1312 1.327 . S
C1314 C1333 1.429 . S
C1314 H1338 0.950 . S
C1315 C1332 1.574 . S
C1315 C1334 1.368 . S
C1315 H1339 0.949 1_545 S
H1316 C1320 0.949 . S
C1317 C1318 1.349 . S
C1317 C1319 1.327 . S
C1317 H1340 0.950 1_545 S
C1318 C1317 1.349 . S
C1318 C1330 1.349 . S
C1319 C1317 1.327 . S
C1319 C1335 1.429 1_455 S
C1319 H1341 0.950 1_545 S
C1320 H1316 0.949 . S
C1320 C1328 1.574 . S
C1320 C1336 1.368 . S
H1321 C1329 0.914 1_565 S
H1322 C1327 0.950 1_565 S
H1323 C1328 0.949 . S
H1324 C1330 0.952 1_655 S
H1325 C1331 0.950 . S
H1326 C1332 0.949 1_465 S
C1327 H1322 0.950 1_545 S
C1327 C1329 1.317 . S
C1327 C1333 1.429 . S
C1328 C1320 1.574 . S
C1328 H1323 0.949 . S
C1328 C1334 1.368 . S
C1329 C1313 1.397 . S
C1329 H1321 0.914 1_545 S
C1329 C1327 1.317 . S
C1330 C1318 1.349 . S
C1330 H1324 0.952 1_455 S
C1330 C1331 1.327 1_455 S
C1331 H1325 0.950 . S
C1331 C1330 1.327 1_655 S
C1331 C1335 1.429 . S
C1332 C1315 1.574 . S
C1332 H1326 0.949 1_645 S
C1332 C1336 1.368 . S
C1333 C1314 1.429 . S
C1333 C1327 1.429 . S
C1333 C1334 1.523 . S
C1334 C1315 1.368 . S
C1334 C1328 1.368 . S
C1334 C1333 1.523 . S
C1335 C1319 1.429 1_655 S
C1335 C1331 1.429 . S
C1335 C1336 1.523 . S
C1336 C1320 1.368 . S
C1336 C1332 1.368 . S
C1336 C1335 1.523 . S
H1337 C1312 0.950 . S
H1338 C1314 0.950 . S
H1339 C1315 0.949 1_565 S
H1340 C1317 0.950 1_565 S
H1341 C1319 0.950 1_565 S
C1342 C1343 1.349 . S
C1342 C1344 1.327 . S
C1342 H1367 0.950 . S
C1343 C1342 1.349 . S
C1343 C1359 1.349 . S
C1344 C1342 1.327 . S
C1344 C1363 1.429 . S
C1344 H1368 0.950 . S
C1345 C1362 1.574 . S
C1345 C1364 1.368 . S
C1345 H1369 0.949 . S
H1346 C1350 0.949 . S
C1347 C1348 1.349 . S
C1347 C1349 1.327 . S
C1347 H1370 0.950 . S
C1348 C1347 1.349 . S
C1348 C1360 1.349 . S
C1349 C1347 1.327 . S
C1349 C1365 1.429 . S
C1349 H1371 0.950 . S
C1350 H1346 0.949 . S
C1350 C1358 1.574 . S
C1350 C1366 1.368 . S
H1351 C1359 0.950 . S
H1352 C1357 0.950 . S
H1353 C1358 0.949 . S
H1354 C1360 0.950 . S
H1355 C1361 0.950 . S
H1356 C1362 0.949 . S
C1357 H1352 0.950 . S
C1357 C1359 1.327 . S
C1357 C1363 1.429 . S
C1358 C1350 1.574 . S
C1358 H1353 0.949 . S
C1358 C1364 1.368 . S
C1359 C1343 1.349 . S
C1359 H1351 0.950 . S
C1359 C1357 1.327 . S
C1360 C1348 1.349 . S
C1360 H1354 0.950 . S
C1360 C1361 1.327 . S
C1361 H1355 0.950 . S
C1361 C1360 1.327 . S
C1361 C1365 1.429 . S
C1362 C1345 1.574 . S
C1362 H1356 0.949 . S
C1362 C1366 1.368 . S
C1363 C1344 1.429 . S
C1363 C1357 1.429 . S
C1363 C1364 1.523 . S
C1364 C1345 1.368 . S
C1364 C1358 1.368 . S
C1364 C1363 1.523 . S
C1365 C1349 1.429 . S
C1365 C1361 1.429 . S
C1365 C1366 1.523 . S
C1366 C1350 1.368 . S
C1366 C1362 1.368 . S
C1366 C1365 1.523 . S
H1367 C1342 0.950 . S
H1368 C1344 0.950 . S
H1369 C1345 0.949 . S
H1370 C1347 0.950 . S
H1371 C1349 0.950 . S
C1372 C1373 1.349 . S
C1372 C1374 1.327 . S
C1372 H1397 0.950 1_545 S
C1373 C1372 1.349 . S
C1373 C1389 1.349 . S
C1374 C1372 1.327 . S
C1374 C1393 1.429 . S
C1374 H1398 0.950 1_545 S
C1375 C1392 1.574 . S
C1375 C1394 1.368 . S
C1375 H1399 0.949 . S
H1376 C1380 0.978 . S
C1377 C1378 1.349 . S
C1377 C1379 1.327 . S
C1377 H1400 0.950 . S
C1378 C1377 1.349 . S
C1378 C1390 1.349 . S
C1379 C1377 1.327 . S
C1379 C1395 1.429 . S
C1379 H1401 0.950 . S
C1380 H1376 0.978 . S
C1380 C1388 1.574 . S
C1380 C1396 1.368 . S
H1381 C1389 0.950 . S
H1382 C1387 0.950 . S
H1383 C1388 0.949 1_565 S
H1384 C1390 0.950 . S
H1385 C1391 0.950 . S
H1386 C1392 0.949 . S
C1387 H1382 0.950 . S
C1387 C1389 1.327 . S
C1387 C1393 1.429 . S
C1388 C1380 1.574 . S
C1388 H1383 0.949 1_545 S
C1388 C1394 1.368 . S
C1389 C1373 1.349 . S
C1389 H1381 0.950 . S
C1389 C1387 1.327 . S
C1390 C1378 1.349 . S
C1390 H1384 0.950 . S
C1390 C1391 1.327 . S
C1391 H1385 0.950 . S
C1391 C1390 1.327 . S
C1391 C1395 1.429 . S
C1392 C1375 1.574 . S
C1392 H1386 0.949 . S
C1392 C1396 1.368 . S
C1393 C1374 1.429 . S
C1393 C1387 1.429 . S
C1393 C1394 1.523 . S
C1394 C1375 1.368 . S
C1394 C1388 1.368 . S
C1394 C1393 1.523 . S
C1395 C1379 1.429 . S
C1395 C1391 1.429 . S
C1395 C1396 1.523 . S
C1396 C1380 1.368 . S
C1396 C1392 1.368 . S
C1396 C1395 1.523 . S
H1397 C1372 0.950 1_565 S
H1398 C1374 0.950 1_565 S
H1399 C1375 0.949 . S
H1400 C1377 0.950 . S
H1401 C1379 0.950 . S
C1402 C1403 1.349 . S
C1402 C1404 1.327 . S
C1402 H1427 0.950 . S
C1403 C1402 1.349 . S
C1403 C1419 1.349 . S
C1404 C1402 1.327 . S
C1404 C1423 1.429 . S
C1404 H1428 0.950 . S
C1405 C1422 1.574 . S
C1405 C1424 1.368 . S
C1405 H1429 0.949 . S
H1406 C1410 0.949 . S
C1407 C1408 1.349 . S
C1407 C1409 1.327 . S
C1407 H1430 0.950 . S
C1408 C1407 1.349 . S
C1408 C1420 1.349 . S
C1409 C1407 1.327 . S
C1409 C1425 1.429 . S
C1409 H1431 0.950 . S
C1410 H1406 0.949 . S
C1410 C1418 1.574 . S
C1410 C1426 1.368 . S
H1411 C1419 0.950 . S
H1412 C1417 0.950 . S
H1413 C1418 0.949 . S
H1414 C1420 0.950 . S
H1415 C1421 0.950 . S
H1416 C1422 0.949 . S
C1417 H1412 0.950 . S
C1417 C1419 1.327 . S
C1417 C1423 1.429 . S
C1418 C1410 1.574 . S
C1418 H1413 0.949 . S
C1418 C1424 1.368 . S
C1419 C1403 1.349 . S
C1419 H1411 0.950 . S
C1419 C1417 1.327 . S
C1420 C1408 1.349 . S
C1420 H1414 0.950 . S
C1420 C1421 1.327 . S
C1421 H1415 0.950 . S
C1421 C1420 1.327 . S
C1421 C1425 1.429 . S
C1422 C1405 1.574 . S
C1422 H1416 0.949 . S
C1422 C1426 1.368 . S
C1423 C1404 1.429 . S
C1423 C1417 1.429 . S
C1423 C1424 1.523 . S
C1424 C1405 1.368 . S
C1424 C1418 1.368 . S
C1424 C1423 1.523 . S
C1425 C1409 1.429 . S
C1425 C1421 1.429 . S
C1425 C1426 1.523 . S
C1426 C1410 1.368 . S
C1426 C1422 1.368 . S
C1426 C1425 1.523 . S
H1427 C1402 0.950 . S
H1428 C1404 0.950 . S
H1429 C1405 0.949 . S
H1430 C1407 0.950 . S
H1431 C1409 0.950 . S
C1432 C1433 1.349 . S
C1432 C1434 1.327 . S
C1432 H1457 0.950 . S
C1433 C1432 1.349 . S
C1433 C1449 1.349 1_556 S
C1434 C1432 1.327 . S
C1434 C1453 1.429 1_556 S
C1434 H1458 0.950 . S
C1435 C1452 1.574 . S
C1435 C1454 1.368 . S
C1435 H1459 0.949 . S
H1436 C1440 0.959 . S
C1437 C1438 1.349 . S
C1437 C1439 1.327 . S
C1437 H1460 0.950 . S
C1438 C1437 1.349 . S
C1438 C1450 1.349 . S
C1439 C1437 1.327 . S
C1439 C1455 1.429 . S
C1439 H1461 0.950 . S
C1440 H1436 0.959 . S
C1440 C1448 1.574 . S
C1440 C1456 1.368 . S
H1441 C1449 0.950 . S
H1442 C1447 0.950 . S
H1443 C1448 0.949 1_556 S
H1444 C1450 0.950 . S
H1445 C1451 0.950 . S
H1446 C1452 0.949 . S
C1447 H1442 0.950 . S
C1447 C1449 1.327 . S
C1447 C1453 1.429 . S
C1448 C1440 1.574 . S
C1448 H1443 0.949 1_554 S
C1448 C1454 1.368 . S
C1449 C1433 1.349 1_554 S
C1449 H1441 0.950 . S
C1449 C1447 1.327 . S
C1450 C1438 1.349 . S
C1450 H1444 0.950 . S
C1450 C1451 1.327 . S
C1451 H1445 0.950 . S
C1451 C1450 1.327 . S
C1451 C1455 1.429 . S
C1452 C1435 1.574 . S
C1452 H1446 0.949 . S
C1452 C1456 1.368 . S
C1453 C1434 1.429 1_554 S
C1453 C1447 1.429 . S
C1453 C1454 1.523 . S
C1454 C1435 1.368 . S
C1454 C1448 1.368 . S
C1454 C1453 1.523 . S
C1455 C1439 1.429 . S
C1455 C1451 1.429 . S
C1455 C1456 1.523 . S
C1456 C1440 1.368 . S
C1456 C1452 1.368 . S
C1456 C1455 1.523 . S
H1457 C1432 0.950 . S
H1458 C1434 0.950 . S
H1459 C1435 0.949 . S
H1460 C1437 0.950 . S
H1461 C1439 0.950 . S
C1462 C1463 1.349 . S
C1462 C1464 1.327 . S
C1462 H1487 0.950 1_554 S
C1463 C1462 1.349 . S
C1463 C1479 1.349 . S
C1464 C1462 1.327 . S
C1464 C1483 1.429 . S
C1464 H1488 0.950 1_554 S
C1465 C1482 1.574 . S
C1465 C1484 1.368 . S
C1465 H1489 0.949 . S
H1466 C1470 0.949 1_556 S
C1467 C1468 1.349 . S
C1467 C1469 1.327 . S
C1467 H1490 0.950 . S
C1468 C1467 1.349 . S
C1468 C1480 1.349 . S
C1469 C1467 1.327 . S
C1469 C1485 1.429 . S
C1469 H1491 0.950 . S
C1470 H1466 0.949 1_554 S
C1470 C1478 1.574 . S
C1470 C1486 1.368 . S
H1471 C1479 0.950 . S
H1472 C1477 0.950 . S
H1473 C1478 0.949 1_556 S
H1474 C1480 0.976 . S
H1475 C1481 0.932 1_556 S
H1476 C1482 0.949 . S
C1477 H1472 0.950 . S
C1477 C1479 1.327 . S
C1477 C1483 1.429 . S
C1478 C1470 1.574 . S
C1478 H1473 0.949 1_554 S
C1478 C1484 1.368 . S
C1479 C1463 1.349 . S
C1479 H1471 0.950 . S
C1479 C1477 1.327 . S
C1480 C1468 1.349 . S
C1480 H1474 0.976 . S
C1480 C1481 1.327 . S
C1481 H1475 0.932 1_554 S
C1481 C1480 1.327 . S
C1481 C1485 1.429 . S
C1482 C1465 1.574 . S
C1482 H1476 0.949 . S
C1482 C1486 1.368 . S
C1483 C1464 1.429 . S
C1483 C1477 1.429 . S
C1483 C1484 1.523 . S
C1484 C1465 1.368 . S
C1484 C1478 1.368 . S
C1484 C1483 1.523 . S
C1485 C1469 1.429 . S
C1485 C1481 1.429 . S
C1485 C1486 1.523 . S
C1486 C1470 1.368 . S
C1486 C1482 1.368 . S
C1486 C1485 1.523 . S
H1487 C1462 0.950 1_556 S
H1488 C1464 0.950 1_556 S
H1489 C1465 0.949 . S
H1490 C1467 0.950 . S
H1491 C1469 0.950 . S
C1492 C1493 1.349 . S
C1492 C1494 1.327 . S
C1492 H1517 0.950 . S
C1493 C1492 1.349 . S
C1493 C1509 1.349 . S
C1494 C1492 1.327 . S
C1494 C1513 1.429 . S
C1494 H1518 0.950 . S
C1495 C1512 1.574 . S
C1495 C1514 1.368 . S
C1495 H1519 0.949 . S
H1496 C1500 0.949 . S
C1497 C1498 1.349 . S
C1497 C1499 1.327 . S
C1497 H1520 0.950 . S
C1498 C1497 1.349 . S
C1498 C1510 1.349 . S
C1499 C1497 1.327 . S
C1499 C1515 1.429 . S
C1499 H1521 0.950 . S
C1500 H1496 0.949 . S
C1500 C1508 1.574 . S
C1500 C1516 1.368 . S
H1501 C1509 0.950 . S
H1502 C1507 0.950 . S
H1503 C1508 0.949 . S
H1504 C1510 0.950 . S
H1505 C1511 0.950 . S
H1506 C1512 0.949 . S
C1507 H1502 0.950 . S
C1507 C1509 1.327 . S
C1507 C1513 1.429 . S
C1508 C1500 1.574 . S
C1508 H1503 0.949 . S
C1508 C1514 1.368 . S
C1509 C1493 1.349 . S
C1509 H1501 0.950 . S
C1509 C1507 1.327 . S
C1510 C1498 1.349 . S
C1510 H1504 0.950 . S
C1510 C1511 1.327 . S
C1511 H1505 0.950 . S
C1511 C1510 1.327 . S
C1511 C1515 1.429 . S
C1512 C1495 1.574 . S
C1512 H1506 0.949 . S
C1512 C1516 1.368 . S
C1513 C1494 1.429 . S
C1513 C1507 1.429 . S
C1513 C1514 1.523 . S
C1514 C1495 1.368 . S
C1514 C1508 1.368 . S
C1514 C1513 1.523 . S
C1515 C1499 1.429 . S
C1515 C1511 1.429 . S
C1515 C1516 1.523 . S
C1516 C1500 1.368 . S
C1516 C1512 1.368 . S
C1516 C1515 1.523 . S
H1517 C1492 0.950 . S
H1518 C1494 0.950 . S
H1519 C1495 0.949 . S
H1520 C1497 0.950 . S
H1521 C1499 0.950 . S
C1522 C1523 1.349 . S
C1522 C1524 1.327 . S
C1522 H1547 0.950 . S
C1523 C1522 1.349 . S
C1523 C1539 1.349 . S
C1524 C1522 1.327 . S
C1524 C1543 1.429 . S
C1524 H1548 0.950 . S
C1525 C1542 1.574 . S
C1525 C1544 1.368 . S
C1525 H1549 0.949 . S
H1526 C1530 0.949 . S
C1527 C1528 1.349 . S
C1527 C1529 1.327 . S
C1527 H1550 0.950 . S
C1528 C1527 1.349 . S
C1528 C1540 1.349 . S
C1529 C1527 1.327 . S
C1529 C1545 1.429 . S
C1529 H1551 0.950 . S
C1530 H1526 0.949 . S
C1530 C1538 1.574 . S
C1530 C1546 1.368 . S
H1531 C1539 0.950 . S
H1532 C1537 0.950 . S
H1533 C1538 0.949 . S
H1534 C1540 0.950 . S
H1535 C1541 0.950 . S
H1536 C1542 0.949 . S
C1537 H1532 0.950 . S
C1537 C1539 1.327 . S
C1537 C1543 1.429 . S
C1538 C1530 1.574 . S
C1538 H1533 0.949 . S
C1538 C1544 1.368 . S
C1539 C1523 1.349 . S
C1539 H1531 0.950 . S
C1539 C1537 1.327 . S
C1540 C1528 1.349 . S
C1540 H1534 0.950 . S
C1540 C1541 1.327 . S
C1541 H1535 0.950 . S
C1541 C1540 1.327 . S
C1541 C1545 1.429 . S
C1542 C1525 1.574 . S
C1542 H1536 0.949 . S
C1542 C1546 1.368 . S
C1543 C1524 1.429 . S
C1543 C1537 1.429 . S
C1543 C1544 1.523 . S
C1544 C1525 1.368 . S
C1544 C1538 1.368 . S
C1544 C1543 1.523 . S
C1545 C1529 1.429 . S
C1545 C1541 1.429 . S
C1545 C1546 1.523 . S
C1546 C1530 1.368 . S
C1546 C1542 1.368 . S
C1546 C1545 1.523 . S
H1547 C1522 0.950 . S
H1548 C1524 0.950 . S
H1549 C1525 0.949 . S
H1550 C1527 0.950 . S
H1551 C1529 0.950 . S
C1552 C1553 1.349 . S
C1552 C1554 1.327 . S
C1552 H1577 0.950 . S
C1553 C1552 1.349 . S
C1553 C1569 1.349 . S
C1554 C1552 1.327 . S
C1554 C1573 1.429 . S
C1554 H1578 0.950 . S
C1555 C1572 1.574 . S
C1555 C1574 1.368 . S
C1555 H1579 0.949 . S
H1556 C1560 0.949 . S
C1557 C1558 1.349 . S
C1557 C1559 1.327 . S
C1557 H1580 0.950 . S
C1558 C1557 1.349 . S
C1558 C1570 1.349 . S
C1559 C1557 1.327 . S
C1559 C1575 1.429 . S
C1559 H1581 0.950 . S
C1560 H1556 0.949 . S
C1560 C1568 1.574 . S
C1560 C1576 1.368 . S
H1561 C1569 0.950 . S
H1562 C1567 0.950 . S
H1563 C1568 0.949 . S
H1564 C1570 0.950 . S
H1565 C1571 0.950 . S
H1566 C1572 0.949 . S
C1567 H1562 0.950 . S
C1567 C1569 1.327 . S
C1567 C1573 1.429 . S
C1568 C1560 1.574 . S
C1568 H1563 0.949 . S
C1568 C1574 1.368 . S
C1569 C1553 1.349 . S
C1569 H1561 0.950 . S
C1569 C1567 1.327 . S
C1570 C1558 1.349 . S
C1570 H1564 0.950 . S
C1570 C1571 1.327 . S
C1571 H1565 0.950 . S
C1571 C1570 1.327 . S
C1571 C1575 1.429 . S
C1572 C1555 1.574 . S
C1572 H1566 0.949 . S
C1572 C1576 1.368 . S
C1573 C1554 1.429 . S
C1573 C1567 1.429 . S
C1573 C1574 1.523 . S
C1574 C1555 1.368 . S
C1574 C1568 1.368 . S
C1574 C1573 1.523 . S
C1575 C1559 1.429 . S
C1575 C1571 1.429 . S
C1575 C1576 1.523 . S
C1576 C1560 1.368 . S
C1576 C1572 1.368 . S
C1576 C1575 1.523 . S
H1577 C1552 0.950 . S
H1578 C1554 0.950 . S
H1579 C1555 0.949 . S
H1580 C1557 0.950 . S
H1581 C1559 0.950 . S
C1582 C1583 1.349 . S
C1582 C1584 1.327 . S
C1582 H1607 0.950 . S
C1583 C1582 1.349 . S
C1583 C1599 1.349 . S
C1584 C1582 1.327 . S
C1584 C1603 1.429 . S
C1584 H1608 0.950 . S
C1585 C1602 1.574 . S
C1585 C1604 1.368 . S
C1585 H1609 0.949 . S
H1586 C1590 0.949 . S
C1587 C1588 1.349 . S
C1587 C1589 1.327 . S
C1587 H1610 0.950 . S
C1588 C1587 1.349 . S
C1588 C1600 1.349 . S
C1589 C1587 1.327 . S
C1589 C1605 1.429 . S
C1589 H1611 0.950 . S
C1590 H1586 0.949 . S
C1590 C1598 1.574 . S
C1590 C1606 1.368 . S
H1591 C1599 0.950 . S
H1592 C1597 0.950 . S
H1593 C1598 0.949 . S
H1594 C1600 0.950 . S
H1595 C1601 0.950 . S
H1596 C1602 0.949 . S
C1597 H1592 0.950 . S
C1597 C1599 1.327 . S
C1597 C1603 1.429 . S
C1598 C1590 1.574 . S
C1598 H1593 0.949 . S
C1598 C1604 1.368 . S
C1599 C1583 1.349 . S
C1599 H1591 0.950 . S
C1599 C1597 1.327 . S
C1600 C1588 1.349 . S
C1600 H1594 0.950 . S
C1600 C1601 1.327 . S
C1601 H1595 0.950 . S
C1601 C1600 1.327 . S
C1601 C1605 1.429 . S
C1602 C1585 1.574 . S
C1602 H1596 0.949 . S
C1602 C1606 1.368 . S
C1603 C1584 1.429 . S
C1603 C1597 1.429 . S
C1603 C1604 1.523 . S
C1604 C1585 1.368 . S
C1604 C1598 1.368 . S
C1604 C1603 1.523 . S
C1605 C1589 1.429 . S
C1605 C1601 1.429 . S
C1605 C1606 1.523 . S
C1606 C1590 1.368 . S
C1606 C1602 1.368 . S
C1606 C1605 1.523 . S
H1607 C1582 0.950 . S
H1608 C1584 0.950 . S
H1609 C1585 0.949 . S
H1610 C1587 0.950 . S
H1611 C1589 0.950 . S
C1612 C1613 1.349 . S
C1612 C1614 1.327 . S
C1612 H1637 0.950 . S
C1613 C1612 1.349 . S
C1613 C1629 1.349 . S
C1614 C1612 1.327 . S
C1614 C1633 1.429 . S
C1614 H1638 0.950 . S
C1615 C1632 1.574 . S
C1615 C1634 1.368 . S
C1615 H1639 0.949 . S
H1616 C1620 0.949 . S
C1617 C1618 1.349 . S
C1617 C1619 1.327 . S
C1617 H1640 0.950 . S
C1618 C1617 1.349 . S
C1618 C1630 1.349 . S
C1619 C1617 1.327 . S
C1619 C1635 1.429 . S
C1619 H1641 0.950 . S
C1620 H1616 0.949 . S
C1620 C1628 1.574 . S
C1620 C1636 1.368 . S
H1621 C1629 0.950 . S
H1622 C1627 0.950 . S
H1623 C1628 0.949 . S
H1624 C1630 0.950 . S
H1625 C1631 0.950 . S
H1626 C1632 0.949 . S
C1627 H1622 0.950 . S
C1627 C1629 1.327 . S
C1627 C1633 1.429 . S
C1628 C1620 1.574 . S
C1628 H1623 0.949 . S
C1628 C1634 1.368 . S
C1629 C1613 1.349 . S
C1629 H1621 0.950 . S
C1629 C1627 1.327 . S
C1630 C1618 1.349 . S
C1630 H1624 0.950 . S
C1630 C1631 1.327 . S
C1631 H1625 0.950 . S
C1631 C1630 1.327 . S
C1631 C1635 1.429 . S
C1632 C1615 1.574 . S
C1632 H1626 0.949 . S
C1632 C1636 1.368 . S
C1633 C1614 1.429 . S
C1633 C1627 1.429 . S
C1633 C1634 1.523 . S
C1634 C1615 1.368 . S
C1634 C1628 1.368 . S
C1634 C1633 1.523 . S
C1635 C1619 1.429 . S
C1635 C1631 1.429 . S
C1635 C1636 1.523 . S
C1636 C1620 1.368 . S
C1636 C1632 1.368 . S
C1636 C1635 1.523 . S
H1637 C1612 0.950 . S
H1638 C1614 0.950 . S
H1639 C1615 0.949 . S
H1640 C1617 0.950 . S
H1641 C1619 0.950 . S
C1642 C1643 1.349 . S
C1642 C1644 1.327 . S
C1642 H1667 0.950 . S
C1643 C1642 1.349 . S
C1643 C1659 1.349 . S
C1644 C1642 1.327 . S
C1644 C1663 1.429 . S
C1644 H1668 0.950 . S
C1645 C1662 1.574 . S
C1645 C1664 1.368 . S
C1645 H1669 0.949 . S
H1646 C1650 0.949 . S
C1647 C1648 1.349 . S
C1647 C1649 1.327 . S
C1647 H1670 0.950 . S
C1648 C1647 1.349 . S
C1648 C1660 1.349 . S
C1649 C1647 1.327 . S
C1649 C1665 1.429 . S
C1649 H1671 0.950 . S
C1650 H1646 0.949 . S
C1650 C1658 1.574 . S
C1650 C1666 1.368 . S
H1651 C1659 0.950 . S
H1652 C1657 0.950 . S
H1653 C1658 0.949 . S
H1654 C1660 0.950 . S
H1655 C1661 0.950 . S
H1656 C1662 0.949 . S
C1657 H1652 0.950 . S
C1657 C1659 1.327 . S
C1657 C1663 1.429 . S
C1658 C1650 1.574 . S
C1658 H1653 0.949 . S
C1658 C1664 1.368 . S
C1659 C1643 1.349 . S
C1659 H1651 0.950 . S
C1659 C1657 1.327 . S
C1660 C1648 1.349 . S
C1660 H1654 0.950 . S
C1660 C1661 1.327 . S
C1661 H1655 0.950 . S
C1661 C1660 1.327 . S
C1661 C1665 1.429 . S
C1662 C1645 1.574 . S
C1662 H1656 0.949 . S
C1662 C1666 1.368 . S
C1663 C1644 1.429 . S
C1663 C1657 1.429 . S
C1663 C1664 1.523 . S
C1664 C1645 1.368 . S
C1664 C1658 1.368 . S
C1664 C1663 1.523 . S
C1665 C1649 1.429 . S
C1665 C1661 1.429 . S
C1665 C1666 1.523 . S
C1666 C1650 1.368 . S
C1666 C1662 1.368 . S
C1666 C1665 1.523 . S
H1667 C1642 0.950 . S
H1668 C1644 0.950 . S
H1669 C1645 0.949 . S
H1670 C1647 0.950 . S
H1671 C1649 0.950 . S
C1672 C1673 1.349 . S
C1672 C1674 1.327 . S
C1672 H1697 0.950 . S
C1673 C1672 1.349 . S
C1673 C1689 1.349 . S
C1674 C1672 1.327 . S
C1674 C1693 1.429 . S
C1674 H1698 0.950 . S
C1675 C1692 1.574 . S
C1675 C1694 1.368 . S
C1675 H1699 0.949 . S
H1676 C1680 0.949 . S
C1677 C1678 1.349 . S
C1677 C1679 1.327 . S
C1677 H1700 0.950 . S
C1678 C1677 1.349 . S
C1678 C1690 1.349 . S
C1679 C1677 1.327 . S
C1679 C1695 1.429 . S
C1679 H1701 0.950 . S
C1680 H1676 0.949 . S
C1680 C1688 1.574 . S
C1680 C1696 1.368 . S
H1681 C1689 0.950 . S
H1682 C1687 0.950 . S
H1683 C1688 0.949 . S
H1684 C1690 0.950 . S
H1685 C1691 0.950 . S
H1686 C1692 0.949 . S
C1687 H1682 0.950 . S
C1687 C1689 1.327 . S
C1687 C1693 1.429 . S
C1688 C1680 1.574 . S
C1688 H1683 0.949 . S
C1688 C1694 1.368 . S
C1689 C1673 1.349 . S
C1689 H1681 0.950 . S
C1689 C1687 1.327 . S
C1690 C1678 1.349 . S
C1690 H1684 0.950 . S
C1690 C1691 1.327 . S
C1691 H1685 0.950 . S
C1691 C1690 1.327 . S
C1691 C1695 1.429 . S
C1692 C1675 1.574 . S
C1692 H1686 0.949 . S
C1692 C1696 1.368 . S
C1693 C1674 1.429 . S
C1693 C1687 1.429 . S
C1693 C1694 1.523 . S
C1694 C1675 1.368 . S
C1694 C1688 1.368 . S
C1694 C1693 1.523 . S
C1695 C1679 1.429 . S
C1695 C1691 1.429 . S
C1695 C1696 1.523 . S
C1696 C1680 1.368 . S
C1696 C1692 1.368 . S
C1696 C1695 1.523 . S
H1697 C1672 0.950 . S
H1698 C1674 0.950 . S
H1699 C1675 0.949 . S
H1700 C1677 0.950 . S
H1701 C1679 0.950 . S
C1702 C1703 1.349 . S
C1702 C1704 1.327 . S
C1702 H1727 0.950 . S
C1703 C1702 1.349 . S
C1703 C1719 1.349 . S
C1704 C1702 1.327 . S
C1704 C1723 1.429 . S
C1704 H1728 0.950 . S
C1705 C1722 1.574 . S
C1705 C1724 1.368 . S
C1705 H1729 0.949 . S
H1706 C1710 0.949 . S
C1707 C1708 1.349 . S
C1707 C1709 1.327 . S
C1707 H1730 0.950 . S
C1708 C1707 1.349 . S
C1708 C1720 1.349 . S
C1709 C1707 1.327 . S
C1709 C1725 1.429 . S
C1709 H1731 0.950 . S
C1710 H1706 0.949 . S
C1710 C1718 1.574 . S
C1710 C1726 1.368 . S
H1711 C1719 0.950 . S
H1712 C1717 0.950 . S
H1713 C1718 0.949 . S
H1714 C1720 0.950 . S
H1715 C1721 0.950 . S
H1716 C1722 0.949 . S
C1717 H1712 0.950 . S
C1717 C1719 1.327 . S
C1717 C1723 1.429 . S
C1718 C1710 1.574 . S
C1718 H1713 0.949 . S
C1718 C1724 1.368 . S
C1719 C1703 1.349 . S
C1719 H1711 0.950 . S
C1719 C1717 1.327 . S
C1720 C1708 1.349 . S
C1720 H1714 0.950 . S
C1720 C1721 1.327 . S
C1721 H1715 0.950 . S
C1721 C1720 1.327 . S
C1721 C1725 1.429 . S
C1722 C1705 1.574 . S
C1722 H1716 0.949 . S
C1722 C1726 1.368 . S
C1723 C1704 1.429 . S
C1723 C1717 1.429 . S
C1723 C1724 1.523 . S
C1724 C1705 1.368 . S
C1724 C1718 1.368 . S
C1724 C1723 1.523 . S
C1725 C1709 1.429 . S
C1725 C1721 1.429 . S
C1725 C1726 1.523 . S
C1726 C1710 1.368 . S
C1726 C1722 1.368 . S
C1726 C1725 1.523 . S
H1727 C1702 0.950 . S
H1728 C1704 0.950 . S
H1729 C1705 0.949 . S
H1730 C1707 0.950 . S
H1731 C1709 0.950 . S
C1732 C1733 1.349 . S
C1732 C1734 1.327 . S
C1732 H1757 0.950 . S
C1733 C1732 1.349 . S
C1733 C1749 1.349 . S
C1734 C1732 1.327 . S
C1734 C1753 1.429 . S
C1734 H1758 0.950 . S
C1735 C1752 1.574 . S
C1735 C1754 1.368 . S
C1735 H1759 0.949 . S
H1736 C1740 0.949 . S
C1737 C1738 1.349 . S
C1737 C1739 1.327 . S
C1737 H1760 0.950 . S
C1738 C1737 1.349 . S
C1738 C1750 1.349 . S
C1739 C1737 1.327 . S
C1739 C1755 1.429 . S
C1739 H1761 0.950 . S
C1740 H1736 0.949 . S
C1740 C1748 1.574 . S
C1740 C1756 1.368 . S
H1741 C1749 0.950 . S
H1742 C1747 0.950 . S
H1743 C1748 0.949 . S
H1744 C1750 0.950 . S
H1745 C1751 0.950 . S
H1746 C1752 0.949 . S
C1747 H1742 0.950 . S
C1747 C1749 1.327 . S
C1747 C1753 1.429 . S
C1748 C1740 1.574 . S
C1748 H1743 0.949 . S
C1748 C1754 1.368 . S
C1749 C1733 1.349 . S
C1749 H1741 0.950 . S
C1749 C1747 1.327 . S
C1750 C1738 1.349 . S
C1750 H1744 0.950 . S
C1750 C1751 1.327 . S
C1751 H1745 0.950 . S
C1751 C1750 1.327 . S
C1751 C1755 1.429 . S
C1752 C1735 1.574 . S
C1752 H1746 0.949 . S
C1752 C1756 1.368 . S
C1753 C1734 1.429 . S
C1753 C1747 1.429 . S
C1753 C1754 1.523 . S
C1754 C1735 1.368 . S
C1754 C1748 1.368 . S
C1754 C1753 1.523 . S
C1755 C1739 1.429 . S
C1755 C1751 1.429 . S
C1755 C1756 1.523 . S
C1756 C1740 1.368 . S
C1756 C1752 1.368 . S
C1756 C1755 1.523 . S
H1757 C1732 0.950 . S
H1758 C1734 0.950 . S
H1759 C1735 0.949 . S
H1760 C1737 0.950 . S
H1761 C1739 0.950 . S
C1762 C1763 1.349 . S
C1762 C1764 1.327 . S
C1762 H1787 0.950 . S
C1763 C1762 1.349 . S
C1763 C1779 1.349 . S
C1764 C1762 1.327 . S
C1764 C1783 1.429 . S
C1764 H1788 0.950 . S
C1765 C1782 1.574 . S
C1765 C1784 1.368 . S
C1765 H1789 0.949 . S
H1766 C1770 0.949 . S
C1767 C1768 1.349 . S
C1767 C1769 1.327 . S
C1767 H1790 0.950 . S
C1768 C1767 1.349 . S
C1768 C1780 1.349 . S
C1769 C1767 1.327 . S
C1769 C1785 1.429 . S
C1769 H1791 0.950 . S
C1770 H1766 0.949 . S
C1770 C1778 1.574 . S
C1770 C1786 1.368 . S
H1771 C1779 0.950 . S
H1772 C1777 0.950 . S
H1773 C1778 0.949 . S
H1774 C1780 0.950 . S
H1775 C1781 0.950 . S
H1776 C1782 0.949 . S
C1777 H1772 0.950 . S
C1777 C1779 1.327 . S
C1777 C1783 1.429 . S
C1778 C1770 1.574 . S
C1778 H1773 0.949 . S
C1778 C1784 1.368 . S
C1779 C1763 1.349 . S
C1779 H1771 0.950 . S
C1779 C1777 1.327 . S
C1780 C1768 1.349 . S
C1780 H1774 0.950 . S
C1780 C1781 1.327 . S
C1781 H1775 0.950 . S
C1781 C1780 1.327 . S
C1781 C1785 1.429 . S
C1782 C1765 1.574 . S
C1782 H1776 0.949 . S
C1782 C1786 1.368 . S
C1783 C1764 1.429 . S
C1783 C1777 1.429 . S
C1783 C1784 1.523 . S
C1784 C1765 1.368 . S
C1784 C1778 1.368 . S
C1784 C1783 1.523 . S
C1785 C1769 1.429 . S
C1785 C1781 1.429 . S
C1785 C1786 1.523 . S
C1786 C1770 1.368 . S
C1786 C1782 1.368 . S
C1786 C1785 1.523 . S
H1787 C1762 0.950 . S
H1788 C1764 0.950 . S
H1789 C1765 0.949 . S
H1790 C1767 0.950 . S
H1791 C1769 0.950 . S
C1792 C1793 1.350 . S
C1792 C1794 1.327 . S
C1792 H1817 0.950 . S
C1793 C1792 1.350 . S
C1793 C1809 1.348 1_455 S
C1794 C1792 1.327 . S
C1794 C1813 1.431 . S
C1794 H1818 0.950 . S
C1795 C1812 1.574 . S
C1795 C1814 1.364 1_655 S
C1795 H1819 0.949 . S
H1796 C1800 0.949 . S
C1797 C1798 1.339 1_655 S
C1797 C1799 1.327 . S
C1797 H1820 0.950 . S
C1798 C1797 1.339 1_455 S
C1798 C1810 1.358 . S
C1799 C1797 1.327 . S
C1799 C1815 1.422 1_655 S
C1799 H1821 0.950 . S
C1800 H1796 0.949 . S
C1800 C1808 1.574 . S
C1800 C1816 1.375 . S
H1801 C1809 0.950 . S
H1802 C1807 0.950 . S
H1803 C1808 0.949 . S
H1804 C1810 0.950 . S
H1805 C1811 0.950 . S
H1806 C1812 0.949 . S
C1807 H1802 0.950 . S
C1807 C1809 1.327 . S
C1807 C1813 1.425 1_655 S
C1808 C1800 1.574 . S
C1808 H1803 0.949 . S
C1808 C1814 1.373 . S
C1809 C1793 1.348 1_655 S
C1809 H1801 0.950 . S
C1809 C1807 1.327 . S
C1810 C1798 1.358 . S
C1810 H1804 0.950 . S
C1810 C1811 1.327 . S
C1811 H1805 0.950 . S
C1811 C1810 1.327 . S
C1811 C1815 1.436 . S
C1812 C1795 1.574 . S
C1812 H1806 0.949 . S
C1812 C1816 1.361 1_655 S
C1813 C1794 1.431 . S
C1813 C1807 1.425 1_455 S
C1813 C1814 1.523 . S
C1814 C1795 1.364 1_455 S
C1814 C1808 1.373 . S
C1814 C1813 1.523 . S
C1815 C1799 1.422 1_455 S
C1815 C1811 1.436 . S
C1815 C1816 1.523 . S
C1816 C1800 1.375 . S
C1816 C1812 1.361 1_455 S
C1816 C1815 1.523 . S
H1817 C1792 0.950 . S
H1818 C1794 0.950 . S
H1819 C1795 0.949 . S
H1820 C1797 0.950 . S
H1821 C1799 0.950 . S
C1822 C1823 1.349 . S
C1822 C1824 1.327 . S
C1822 H1847 0.950 . S
C1823 C1822 1.349 . S
C1823 C1839 1.349 . S
C1824 C1822 1.327 . S
C1824 C1843 1.429 . S
C1824 H1848 0.950 . S
C1825 C1842 1.574 . S
C1825 C1844 1.368 . S
C1825 H1849 0.949 . S
H1826 C1830 0.949 . S
C1827 C1828 1.349 . S
C1827 C1829 1.327 . S
C1827 H1850 0.950 . S
C1828 C1827 1.349 . S
C1828 C1840 1.349 . S
C1829 C1827 1.327 . S
C1829 C1845 1.429 . S
C1829 H1851 0.950 . S
C1830 H1826 0.949 . S
C1830 C1838 1.574 . S
C1830 C1846 1.368 . S
H1831 C1839 0.950 . S
H1832 C1837 0.950 . S
H1833 C1838 0.949 . S
H1834 C1840 0.950 . S
H1835 C1841 0.950 . S
H1836 C1842 0.949 . S
C1837 H1832 0.950 . S
C1837 C1839 1.327 . S
C1837 C1843 1.429 . S
C1838 C1830 1.574 . S
C1838 H1833 0.949 . S
C1838 C1844 1.368 . S
C1839 C1823 1.349 . S
C1839 H1831 0.950 . S
C1839 C1837 1.327 . S
C1840 C1828 1.349 . S
C1840 H1834 0.950 . S
C1840 C1841 1.327 . S
C1841 H1835 0.950 . S
C1841 C1840 1.327 . S
C1841 C1845 1.429 . S
C1842 C1825 1.574 . S
C1842 H1836 0.949 . S
C1842 C1846 1.368 . S
C1843 C1824 1.429 . S
C1843 C1837 1.429 . S
C1843 C1844 1.523 . S
C1844 C1825 1.368 . S
C1844 C1838 1.368 . S
C1844 C1843 1.523 . S
C1845 C1829 1.429 . S
C1845 C1841 1.429 . S
C1845 C1846 1.523 . S
C1846 C1830 1.368 . S
C1846 C1842 1.368 . S
C1846 C1845 1.523 . S
H1847 C1822 0.950 . S
H1848 C1824 0.950 . S
H1849 C1825 0.949 . S
H1850 C1827 0.950 . S
H1851 C1829 0.950 . S
C1852 C1853 1.349 . S
C1852 C1854 1.327 . S
C1852 H1877 0.950 . S
C1853 C1852 1.349 . S
C1853 C1869 1.349 . S
C1854 C1852 1.327 . S
C1854 C1873 1.429 . S
C1854 H1878 0.950 . S
C1855 C1872 1.574 . S
C1855 C1874 1.368 . S
C1855 H1879 0.949 . S
H1856 C1860 0.949 . S
C1857 C1858 1.349 . S
C1857 C1859 1.327 . S
C1857 H1880 0.950 . S
C1858 C1857 1.349 . S
C1858 C1870 1.349 1_554 S
C1859 C1857 1.327 . S
C1859 C1875 1.429 1_554 S
C1859 H1881 0.950 . S
C1860 H1856 0.949 . S
C1860 C1868 1.574 . S
C1860 C1876 1.368 . S
H1861 C1869 0.950 . S
H1862 C1867 0.950 . S
H1863 C1868 0.949 . S
H1864 C1870 0.950 . S
H1865 C1871 0.950 . S
H1866 C1872 0.949 . S
C1867 H1862 0.950 . S
C1867 C1869 1.327 . S
C1867 C1873 1.429 . S
C1868 C1860 1.574 . S
C1868 H1863 0.949 . S
C1868 C1874 1.368 . S
C1869 C1853 1.349 . S
C1869 H1861 0.950 . S
C1869 C1867 1.327 . S
C1870 C1858 1.349 1_556 S
C1870 H1864 0.950 . S
C1870 C1871 1.327 . S
C1871 H1865 0.950 . S
C1871 C1870 1.327 . S
C1871 C1875 1.429 . S
C1872 C1855 1.574 . S
C1872 H1866 0.949 . S
C1872 C1876 1.368 . S
C1873 C1854 1.429 . S
C1873 C1867 1.429 . S
C1873 C1874 1.523 . S
C1874 C1855 1.368 . S
C1874 C1868 1.368 . S
C1874 C1873 1.523 . S
C1875 C1859 1.429 1_556 S
C1875 C1871 1.429 . S
C1875 C1876 1.523 . S
C1876 C1860 1.368 . S
C1876 C1872 1.368 . S
C1876 C1875 1.523 . S
H1877 C1852 0.950 . S
H1878 C1854 0.950 . S
H1879 C1855 0.949 . S
H1880 C1857 0.950 . S
H1881 C1859 0.950 . S
C1882 C1883 1.349 . S
C1882 C1884 1.327 1_455 S
C1882 H1907 0.950 . S
C1883 C1882 1.349 . S
C1883 C1899 1.349 . S
C1884 C1882 1.327 1_655 S
C1884 C1903 1.429 . S
C1884 H1908 0.950 . S
C1885 C1902 1.574 . S
C1885 C1904 1.368 . S
C1885 H1909 0.949 . S
H1886 C1890 0.949 . S
C1887 C1888 1.349 . S
C1887 C1889 1.327 . S
C1887 H1910 0.950 . S
C1888 C1887 1.349 . S
C1888 C1900 1.349 . S
C1889 C1887 1.327 . S
C1889 C1905 1.429 . S
C1889 H1911 0.950 . S
C1890 H1886 0.949 . S
C1890 C1898 1.574 . S
C1890 C1906 1.368 . S
H1891 C1899 0.950 . S
H1892 C1897 0.962 . S
H1893 C1898 0.949 . S
H1894 C1900 0.950 . S
H1895 C1901 0.950 . S
H1896 C1902 0.949 . S
C1897 H1892 0.962 . S
C1897 C1899 1.268 1_655 S
C1897 C1903 1.479 . S
C1898 C1890 1.574 . S
C1898 H1893 0.949 . S
C1898 C1904 1.368 . S
C1899 C1883 1.349 . S
C1899 H1891 0.950 . S
C1899 C1897 1.268 1_455 S
C1900 C1888 1.349 . S
C1900 H1894 0.950 . S
C1900 C1901 1.327 . S
C1901 H1895 0.950 . S
C1901 C1900 1.327 . S
C1901 C1905 1.429 . S
C1902 C1885 1.574 . S
C1902 H1896 0.949 . S
C1902 C1906 1.368 . S
C1903 C1884 1.429 . S
C1903 C1897 1.479 . S
C1903 C1904 1.523 . S
C1904 C1885 1.368 . S
C1904 C1898 1.368 . S
C1904 C1903 1.523 . S
C1905 C1889 1.429 . S
C1905 C1901 1.429 . S
C1905 C1906 1.523 . S
C1906 C1890 1.368 . S
C1906 C1902 1.368 . S
C1906 C1905 1.523 . S
H1907 C1882 0.950 . S
H1908 C1884 0.950 . S
H1909 C1885 0.949 . S
H1910 C1887 0.950 . S
H1911 C1889 0.950 . S
C1912 C1913 1.349 . S
C1912 C1914 1.327 . S
C1912 H1937 0.950 . S
C1913 C1912 1.349 . S
C1913 C1929 1.349 . S
C1914 C1912 1.327 . S
C1914 C1933 1.429 . S
C1914 H1938 0.950 . S
C1915 C1932 1.575 . S
C1915 C1934 1.355 1_565 S
C1915 H1939 0.959 . S
H1916 C1920 0.949 . S
C1917 C1918 1.349 1_565 S
C1917 C1919 1.327 . S
C1917 H1940 0.950 . S
C1918 C1917 1.349 1_545 S
C1918 C1930 1.349 . S
C1919 C1917 1.327 . S
C1919 C1935 1.429 1_565 S
C1919 H1941 0.950 . S
C1920 H1916 0.949 . S
C1920 C1928 1.574 . S
C1920 C1936 1.368 . S
H1921 C1929 0.950 1_565 S
H1922 C1927 0.950 1_565 S
H1923 C1928 0.949 . S
H1924 C1930 0.950 . S
H1925 C1931 0.950 . S
H1926 C1932 0.949 . S
C1927 H1922 0.950 1_545 S
C1927 C1929 1.327 . S
C1927 C1933 1.429 . S
C1928 C1920 1.574 . S
C1928 H1923 0.949 . S
C1928 C1934 1.368 . S
C1929 C1913 1.349 . S
C1929 H1921 0.950 1_545 S
C1929 C1927 1.327 . S
C1930 C1918 1.349 . S
C1930 H1924 0.950 . S
C1930 C1931 1.327 . S
C1931 H1925 0.950 . S
C1931 C1930 1.327 . S
C1931 C1935 1.429 . S
C1932 C1915 1.575 . S
C1932 H1926 0.949 . S
C1932 C1936 1.368 1_565 S
C1933 C1914 1.429 . S
C1933 C1927 1.429 . S
C1933 C1934 1.523 . S
C1934 C1915 1.355 1_545 S
C1934 C1928 1.368 . S
C1934 C1933 1.523 . S
C1935 C1919 1.429 1_545 S
C1935 C1931 1.429 . S
C1935 C1936 1.523 . S
C1936 C1920 1.368 . S
C1936 C1932 1.368 1_545 S
C1936 C1935 1.523 . S
H1937 C1912 0.950 . S
H1938 C1914 0.950 . S
H1939 C1915 0.959 . S
H1940 C1917 0.950 . S
H1941 C1919 0.950 . S
C1942 C1943 1.349 . S
C1942 C1944 1.327 . S
C1942 H1967 0.950 . S
C1943 C1942 1.349 . S
C1943 C1959 1.349 . S
C1944 C1942 1.327 . S
C1944 C1963 1.429 . S
C1944 H1968 0.950 . S
C1945 C1962 1.574 . S
C1945 C1964 1.368 . S
C1945 H1969 0.949 . S
H1946 C1950 0.949 . S
C1947 C1948 1.349 . S
C1947 C1949 1.327 . S
C1947 H1970 0.950 . S
C1948 C1947 1.349 . S
C1948 C1960 1.349 . S
C1949 C1947 1.327 . S
C1949 C1965 1.429 . S
C1949 H1971 0.950 . S
C1950 H1946 0.949 . S
C1950 C1958 1.574 . S
C1950 C1966 1.368 . S
H1951 C1959 0.950 . S
H1952 C1957 0.950 . S
H1953 C1958 0.949 . S
H1954 C1960 0.950 . S
H1955 C1961 0.950 . S
H1956 C1962 0.949 . S
C1957 H1952 0.950 . S
C1957 C1959 1.327 . S
C1957 C1963 1.429 . S
C1958 C1950 1.574 . S
C1958 H1953 0.949 . S
C1958 C1964 1.368 . S
C1959 C1943 1.349 . S
C1959 H1951 0.950 . S
C1959 C1957 1.327 . S
C1960 C1948 1.349 . S
C1960 H1954 0.950 . S
C1960 C1961 1.327 . S
C1961 H1955 0.950 . S
C1961 C1960 1.327 . S
C1961 C1965 1.429 . S
C1962 C1945 1.574 . S
C1962 H1956 0.949 . S
C1962 C1966 1.368 . S
C1963 C1944 1.429 . S
C1963 C1957 1.429 . S
C1963 C1964 1.523 . S
C1964 C1945 1.368 . S
C1964 C1958 1.368 . S
C1964 C1963 1.523 . S
C1965 C1949 1.429 . S
C1965 C1961 1.429 . S
C1965 C1966 1.523 . S
C1966 C1950 1.368 . S
C1966 C1962 1.368 . S
C1966 C1965 1.523 . S
H1967 C1942 0.950 . S
H1968 C1944 0.950 . S
H1969 C1945 0.949 . S
H1970 C1947 0.950 . S
H1971 C1949 0.950 . S
C1972 C1973 1.349 . S
C1972 C1974 1.327 . S
C1972 H1997 0.950 . S
C1973 C1972 1.349 . S
C1973 C1989 1.349 . S
C1974 C1972 1.327 . S
C1974 C1993 1.429 . S
C1974 H1998 0.950 . S
C1975 C1992 1.574 . S
C1975 C1994 1.368 . S
C1975 H1999 0.949 1_545 S
H1976 C1980 0.949 . S
C1977 C1978 1.349 . S
C1977 C1979 1.327 . S
C1977 H2000 0.950 1_545 S
C1978 C1977 1.349 . S
C1978 C1990 1.349 . S
C1979 C1977 1.327 . S
C1979 C1995 1.429 . S
C1979 H2001 0.950 1_545 S
C1980 H1976 0.949 . S
C1980 C1988 1.574 . S
C1980 C1996 1.368 . S
H1981 C1989 0.950 1_565 S
H1982 C1987 0.950 1_565 S
H1983 C1988 0.949 . S
H1984 C1990 0.950 . S
H1985 C1991 0.950 . S
H1986 C1992 0.949 1_565 S
C1987 H1982 0.950 1_545 S
C1987 C1989 1.327 . S
C1987 C1993 1.429 . S
C1988 C1980 1.574 . S
C1988 H1983 0.949 . S
C1988 C1994 1.368 . S
C1989 C1973 1.349 . S
C1989 H1981 0.950 1_545 S
C1989 C1987 1.327 . S
C1990 C1978 1.349 . S
C1990 H1984 0.950 . S
C1990 C1991 1.327 . S
C1991 H1985 0.950 . S
C1991 C1990 1.327 . S
C1991 C1995 1.429 . S
C1992 C1975 1.574 . S
C1992 H1986 0.949 1_545 S
C1992 C1996 1.368 . S
C1993 C1974 1.429 . S
C1993 C1987 1.429 . S
C1993 C1994 1.523 . S
C1994 C1975 1.368 . S
C1994 C1988 1.368 . S
C1994 C1993 1.523 . S
C1995 C1979 1.429 . S
C1995 C1991 1.429 . S
C1995 C1996 1.523 . S
C1996 C1980 1.368 . S
C1996 C1992 1.368 . S
C1996 C1995 1.523 . S
H1997 C1972 0.950 . S
H1998 C1974 0.950 . S
H1999 C1975 0.949 1_565 S
H2000 C1977 0.950 1_565 S
H2001 C1979 0.950 1_565 S
C2002 C2003 1.349 . S
C2002 C2004 1.327 . S
C2002 H2027 0.950 . S
C2003 C2002 1.349 . S
C2003 C2019 1.349 . S
C2004 C2002 1.327 . S
C2004 C2023 1.429 . S
C2004 H2028 0.950 . S
C2005 C2022 1.574 . S
C2005 C2024 1.368 . S
C2005 H2029 0.949 . S
H2006 C2010 0.949 . S
C2007 C2008 1.349 . S
C2007 C2009 1.327 . S
C2007 H2030 0.950 . S
C2008 C2007 1.349 . S
C2008 C2020 1.349 . S
C2009 C2007 1.327 . S
C2009 C2025 1.429 . S
C2009 H2031 0.950 . S
C2010 H2006 0.949 . S
C2010 C2018 1.574 . S
C2010 C2026 1.368 . S
H2011 C2019 0.950 . S
H2012 C2017 0.950 . S
H2013 C2018 0.949 . S
H2014 C2020 0.950 . S
H2015 C2021 0.950 . S
H2016 C2022 0.949 . S
C2017 H2012 0.950 . S
C2017 C2019 1.327 . S
C2017 C2023 1.429 . S
C2018 C2010 1.574 . S
C2018 H2013 0.949 . S
C2018 C2024 1.368 . S
C2019 C2003 1.349 . S
C2019 H2011 0.950 . S
C2019 C2017 1.327 . S
C2020 C2008 1.349 . S
C2020 H2014 0.950 . S
C2020 C2021 1.327 . S
C2021 H2015 0.950 . S
C2021 C2020 1.327 . S
C2021 C2025 1.429 . S
C2022 C2005 1.574 . S
C2022 H2016 0.949 . S
C2022 C2026 1.368 . S
C2023 C2004 1.429 . S
C2023 C2017 1.429 . S
C2023 C2024 1.523 . S
C2024 C2005 1.368 . S
C2024 C2018 1.368 . S
C2024 C2023 1.523 . S
C2025 C2009 1.429 . S
C2025 C2021 1.429 . S
C2025 C2026 1.523 . S
C2026 C2010 1.368 . S
C2026 C2022 1.368 . S
C2026 C2025 1.523 . S
H2027 C2002 0.950 . S
H2028 C2004 0.950 . S
H2029 C2005 0.949 . S
H2030 C2007 0.950 . S
H2031 C2009 0.950 . S
C2032 C2033 1.349 . S
C2032 C2034 1.327 . S
C2032 H2057 0.950 . S
C2033 C2032 1.349 . S
C2033 C2049 1.349 . S
C2034 C2032 1.327 . S
C2034 C2053 1.429 . S
C2034 H2058 0.950 . S
C2035 C2052 1.574 . S
C2035 C2054 1.368 . S
C2035 H2059 0.949 1_545 S
H2036 C2040 0.949 . S
C2037 C2038 1.349 . S
C2037 C2039 1.327 . S
C2037 H2060 0.950 1_545 S
C2038 C2037 1.349 . S
C2038 C2050 1.349 . S
C2039 C2037 1.327 . S
C2039 C2055 1.429 . S
C2039 H2061 0.950 1_545 S
C2040 H2036 0.949 . S
C2040 C2048 1.574 . S
C2040 C2056 1.368 . S
H2041 C2049 0.950 1_565 S
H2042 C2047 0.950 1_565 S
H2043 C2048 0.949 . S
H2044 C2050 0.950 . S
H2045 C2051 0.950 . S
H2046 C2052 0.949 1_565 S
C2047 H2042 0.950 1_545 S
C2047 C2049 1.327 . S
C2047 C2053 1.429 . S
C2048 C2040 1.574 . S
C2048 H2043 0.949 . S
C2048 C2054 1.368 . S
C2049 C2033 1.349 . S
C2049 H2041 0.950 1_545 S
C2049 C2047 1.327 . S
C2050 C2038 1.349 . S
C2050 H2044 0.950 . S
C2050 C2051 1.327 . S
C2051 H2045 0.950 . S
C2051 C2050 1.327 . S
C2051 C2055 1.429 . S
C2052 C2035 1.574 . S
C2052 H2046 0.949 1_545 S
C2052 C2056 1.368 . S
C2053 C2034 1.429 . S
C2053 C2047 1.429 . S
C2053 C2054 1.523 . S
C2054 C2035 1.368 . S
C2054 C2048 1.368 . S
C2054 C2053 1.523 . S
C2055 C2039 1.429 . S
C2055 C2051 1.429 . S
C2055 C2056 1.523 . S
C2056 C2040 1.368 . S
C2056 C2052 1.368 . S
C2056 C2055 1.523 . S
H2057 C2032 0.950 . S
H2058 C2034 0.950 . S
H2059 C2035 0.949 1_565 S
H2060 C2037 0.950 1_565 S
H2061 C2039 0.950 1_565 S
C2062 C2063 1.349 . S
C2062 C2064 1.327 . S
C2062 H2087 0.950 . S
C2063 C2062 1.349 . S
C2063 C2079 1.349 . S
C2064 C2062 1.327 . S
C2064 C2083 1.429 . S
C2064 H2088 0.950 . S
C2065 C2082 1.574 . S
C2065 C2084 1.368 . S
C2065 H2089 0.949 . S
H2066 C2070 0.949 . S
C2067 C2068 1.349 . S
C2067 C2069 1.327 . S
C2067 H2090 0.950 . S
C2068 C2067 1.349 . S
C2068 C2080 1.349 . S
C2069 C2067 1.327 . S
C2069 C2085 1.429 . S
C2069 H2091 0.950 . S
C2070 H2066 0.949 . S
C2070 C2078 1.574 . S
C2070 C2086 1.368 . S
H2071 C2079 0.950 . S
H2072 C2077 0.950 . S
H2073 C2078 0.949 . S
H2074 C2080 0.950 . S
H2075 C2081 0.950 . S
H2076 C2082 0.949 . S
C2077 H2072 0.950 . S
C2077 C2079 1.327 . S
C2077 C2083 1.429 . S
C2078 C2070 1.574 . S
C2078 H2073 0.949 . S
C2078 C2084 1.368 . S
C2079 C2063 1.349 . S
C2079 H2071 0.950 . S
C2079 C2077 1.327 . S
C2080 C2068 1.349 . S
C2080 H2074 0.950 . S
C2080 C2081 1.327 . S
C2081 H2075 0.950 . S
C2081 C2080 1.327 . S
C2081 C2085 1.429 . S
C2082 C2065 1.574 . S
C2082 H2076 0.949 . S
C2082 C2086 1.368 . S
C2083 C2064 1.429 . S
C2083 C2077 1.429 . S
C2083 C2084 1.523 . S
C2084 C2065 1.368 . S
C2084 C2078 1.368 . S
C2084 C2083 1.523 . S
C2085 C2069 1.429 . S
C2085 C2081 1.429 . S
C2085 C2086 1.523 . S
C2086 C2070 1.368 . S
C2086 C2082 1.368 . S
C2086 C2085 1.523 . S
H2087 C2062 0.950 . S
H2088 C2064 0.950 . S
H2089 C2065 0.949 . S
H2090 C2067 0.950 . S
H2091 C2069 0.950 . S
C2092 C2093 1.349 1_565 S
C2092 C2094 1.327 . S
C2092 H2117 0.950 . S
C2093 C2092 1.349 1_545 S
C2093 C2109 1.349 . S
C2094 C2092 1.327 . S
C2094 C2113 1.429 1_565 S
C2094 H2118 0.950 . S
C2095 C2112 1.574 . S
C2095 C2114 1.368 . S
C2095 H2119 0.949 . S
H2096 C2100 0.949 . S
C2097 C2098 1.401 . S
C2097 C2099 1.327 . S
C2097 H2120 0.950 . S
C2098 C2097 1.401 . S
C2098 C2110 1.304 1_545 S
C2099 C2097 1.327 . S
C2099 C2115 1.429 . S
C2099 H2121 0.950 . S
C2100 H2096 0.949 . S
C2100 C2108 1.574 . S
C2100 C2116 1.368 1_565 S
H2101 C2109 0.950 . S
H2102 C2107 0.950 . S
H2103 C2108 0.949 . S
H2104 C2110 0.950 . S
H2105 C2111 0.950 . S
H2106 C2112 0.949 . S
C2107 H2102 0.950 . S
C2107 C2109 1.327 . S
C2107 C2113 1.429 . S
C2108 C2100 1.574 . S
C2108 H2103 0.949 . S
C2108 C2114 1.368 1_565 S
C2109 C2093 1.349 . S
C2109 H2101 0.950 . S
C2109 C2107 1.327 . S
C2110 C2098 1.304 1_565 S
C2110 H2104 0.950 . S
C2110 C2111 1.327 . S
C2111 H2105 0.950 . S
C2111 C2110 1.327 . S
C2111 C2115 1.429 1_565 S
C2112 C2095 1.574 . S
C2112 H2106 0.949 . S
C2112 C2116 1.368 . S
C2113 C2094 1.429 1_545 S
C2113 C2107 1.429 . S
C2113 C2114 1.523 . S
C2114 C2095 1.368 . S
C2114 C2108 1.368 1_545 S
C2114 C2113 1.523 . S
C2115 C2099 1.429 . S
C2115 C2111 1.429 1_545 S
C2115 C2116 1.523 . S
C2116 C2100 1.368 1_545 S
C2116 C2112 1.368 . S
C2116 C2115 1.523 . S
H2117 C2092 0.950 . S
H2118 C2094 0.950 . S
H2119 C2095 0.949 . S
H2120 C2097 0.950 . S
H2121 C2099 0.950 . S
C2122 C2123 1.349 . S
C2122 C2124 1.327 . S
C2122 H2147 0.950 . S
C2123 C2122 1.349 . S
C2123 C2139 1.349 . S
C2124 C2122 1.327 . S
C2124 C2143 1.429 . S
C2124 H2148 0.950 . S
C2125 C2142 1.574 . S
C2125 C2144 1.368 . S
C2125 H2149 0.949 . S
H2126 C2130 0.949 . S
C2127 C2128 1.349 . S
C2127 C2129 1.327 . S
C2127 H2150 0.950 . S
C2128 C2127 1.349 . S
C2128 C2140 1.349 . S
C2129 C2127 1.327 . S
C2129 C2145 1.429 . S
C2129 H2151 0.950 . S
C2130 H2126 0.949 . S
C2130 C2138 1.574 . S
C2130 C2146 1.368 . S
H2131 C2139 0.950 . S
H2132 C2137 0.950 . S
H2133 C2138 0.949 . S
H2134 C2140 0.950 . S
H2135 C2141 0.950 . S
H2136 C2142 0.949 . S
C2137 H2132 0.950 . S
C2137 C2139 1.327 . S
C2137 C2143 1.429 . S
C2138 C2130 1.574 . S
C2138 H2133 0.949 . S
C2138 C2144 1.368 . S
C2139 C2123 1.349 . S
C2139 H2131 0.950 . S
C2139 C2137 1.327 . S
C2140 C2128 1.349 . S
C2140 H2134 0.950 . S
C2140 C2141 1.327 . S
C2141 H2135 0.950 . S
C2141 C2140 1.327 . S
C2141 C2145 1.429 . S
C2142 C2125 1.574 . S
C2142 H2136 0.949 . S
C2142 C2146 1.368 . S
C2143 C2124 1.429 . S
C2143 C2137 1.429 . S
C2143 C2144 1.523 . S
C2144 C2125 1.368 . S
C2144 C2138 1.368 . S
C2144 C2143 1.523 . S
C2145 C2129 1.429 . S
C2145 C2141 1.429 . S
C2145 C2146 1.523 . S
C2146 C2130 1.368 . S
C2146 C2142 1.368 . S
C2146 C2145 1.523 . S
H2147 C2122 0.950 . S
H2148 C2124 0.950 . S
H2149 C2125 0.949 . S
H2150 C2127 0.950 . S
H2151 C2129 0.950 . S
C2152 C2153 1.349 . S
C2152 C2154 1.327 . S
C2152 H2177 0.950 . S
C2153 C2152 1.349 . S
C2153 C2169 1.349 . S
C2154 C2152 1.327 . S
C2154 C2173 1.429 . S
C2154 H2178 0.950 . S
C2155 C2172 1.574 . S
C2155 C2174 1.368 . S
C2155 H2179 0.949 . S
H2156 C2160 0.949 1_556 S
C2157 C2158 1.349 1_554 S
C2157 C2159 1.327 . S
C2157 H2180 0.950 . S
C2158 C2157 1.349 1_556 S
C2158 C2170 1.349 . S
C2159 C2157 1.327 . S
C2159 C2175 1.429 . S
C2159 H2181 0.950 . S
C2160 H2156 0.949 1_554 S
C2160 C2168 1.574 . S
C2160 C2176 1.368 . S
H2161 C2169 0.950 . S
H2162 C2167 0.950 . S
H2163 C2168 0.949 . S
H2164 C2170 0.950 . S
H2165 C2171 0.950 . S
H2166 C2172 0.949 . S
C2167 H2162 0.950 . S
C2167 C2169 1.327 . S
C2167 C2173 1.429 . S
C2168 C2160 1.574 . S
C2168 H2163 0.949 . S
C2168 C2174 1.368 . S
C2169 C2153 1.349 . S
C2169 H2161 0.950 . S
C2169 C2167 1.327 . S
C2170 C2158 1.349 . S
C2170 H2164 0.950 . S
C2170 C2171 1.327 . S
C2171 H2165 0.950 . S
C2171 C2170 1.327 . S
C2171 C2175 1.429 1_556 S
C2172 C2155 1.574 . S
C2172 H2166 0.949 . S
C2172 C2176 1.368 . S
C2173 C2154 1.429 . S
C2173 C2167 1.429 . S
C2173 C2174 1.523 . S
C2174 C2155 1.368 . S
C2174 C2168 1.368 . S
C2174 C2173 1.523 . S
C2175 C2159 1.429 . S
C2175 C2171 1.429 1_554 S
C2175 C2176 1.523 . S
C2176 C2160 1.368 . S
C2176 C2172 1.368 . S
C2176 C2175 1.523 . S
H2177 C2152 0.950 . S
H2178 C2154 0.950 . S
H2179 C2155 0.949 . S
H2180 C2157 0.950 . S
H2181 C2159 0.950 . S
C2182 C2183 1.349 . S
C2182 C2184 1.327 . S
C2182 H2207 0.950 . S
C2183 C2182 1.349 . S
C2183 C2199 1.349 . S
C2184 C2182 1.327 . S
C2184 C2203 1.429 . S
C2184 H2208 0.950 . S
C2185 C2202 1.574 . S
C2185 C2204 1.368 . S
C2185 H2209 0.949 . S
H2186 C2190 0.949 . S
C2187 C2188 1.349 . S
C2187 C2189 1.327 . S
C2187 H2210 0.950 . S
C2188 C2187 1.349 . S
C2188 C2200 1.349 . S
C2189 C2187 1.327 . S
C2189 C2205 1.429 . S
C2189 H2211 0.950 . S
C2190 H2186 0.949 . S
C2190 C2198 1.574 . S
C2190 C2206 1.368 . S
H2191 C2199 0.950 . S
H2192 C2197 0.950 . S
H2193 C2198 0.949 . S
H2194 C2200 0.950 . S
H2195 C2201 0.950 . S
H2196 C2202 0.949 . S
C2197 H2192 0.950 . S
C2197 C2199 1.327 . S
C2197 C2203 1.429 . S
C2198 C2190 1.574 . S
C2198 H2193 0.949 . S
C2198 C2204 1.368 . S
C2199 C2183 1.349 . S
C2199 H2191 0.950 . S
C2199 C2197 1.327 . S
C2200 C2188 1.349 . S
C2200 H2194 0.950 . S
C2200 C2201 1.327 . S
C2201 H2195 0.950 . S
C2201 C2200 1.327 . S
C2201 C2205 1.429 . S
C2202 C2185 1.574 . S
C2202 H2196 0.949 . S
C2202 C2206 1.368 . S
C2203 C2184 1.429 . S
C2203 C2197 1.429 . S
C2203 C2204 1.523 . S
C2204 C2185 1.368 . S
C2204 C2198 1.368 . S
C2204 C2203 1.523 . S
C2205 C2189 1.429 . S
C2205 C2201 1.429 . S
C2205 C2206 1.523 . S
C2206 C2190 1.368 . S
C2206 C2202 1.368 . S
C2206 C2205 1.523 . S
H2207 C2182 0.950 . S
H2208 C2184 0.950 . S
H2209 C2185 0.949 . S
H2210 C2187 0.950 . S
H2211 C2189 0.950 . S
C2212 C2213 1.349 . S
C2212 C2214 1.327 . S
C2212 H2237 0.950 . S
C2213 C2212 1.349 . S
C2213 C2229 1.349 . S
C2214 C2212 1.327 . S
C2214 C2233 1.429 . S
C2214 H2238 0.950 . S
C2215 C2232 1.574 . S
C2215 C2234 1.368 . S
C2215 H2239 0.949 . S
H2216 C2220 0.949 . S
C2217 C2218 1.349 . S
C2217 C2219 1.327 . S
C2217 H2240 0.950 . S
C2218 C2217 1.349 . S
C2218 C2230 1.349 . S
C2219 C2217 1.327 . S
C2219 C2235 1.429 . S
C2219 H2241 0.950 . S
C2220 H2216 0.949 . S
C2220 C2228 1.574 . S
C2220 C2236 1.368 . S
H2221 C2229 0.950 . S
H2222 C2227 0.950 . S
H2223 C2228 0.949 . S
H2224 C2230 0.950 . S
H2225 C2231 0.950 . S
H2226 C2232 0.949 . S
C2227 H2222 0.950 . S
C2227 C2229 1.327 . S
C2227 C2233 1.429 . S
C2228 C2220 1.574 . S
C2228 H2223 0.949 . S
C2228 C2234 1.368 . S
C2229 C2213 1.349 . S
C2229 H2221 0.950 . S
C2229 C2227 1.327 . S
C2230 C2218 1.349 . S
C2230 H2224 0.950 . S
C2230 C2231 1.327 . S
C2231 H2225 0.950 . S
C2231 C2230 1.327 . S
C2231 C2235 1.429 . S
C2232 C2215 1.574 . S
C2232 H2226 0.949 . S
C2232 C2236 1.368 . S
C2233 C2214 1.429 . S
C2233 C2227 1.429 . S
C2233 C2234 1.523 . S
C2234 C2215 1.368 . S
C2234 C2228 1.368 . S
C2234 C2233 1.523 . S
C2235 C2219 1.429 . S
C2235 C2231 1.429 . S
C2235 C2236 1.523 . S
C2236 C2220 1.368 . S
C2236 C2232 1.368 . S
C2236 C2235 1.523 . S
H2237 C2212 0.950 . S
H2238 C2214 0.950 . S
H2239 C2215 0.949 . S
H2240 C2217 0.950 . S
H2241 C2219 0.950 . S
C2242 C2243 1.349 . S
C2242 C2244 1.327 . S
C2242 H2267 0.950 . S
C2243 C2242 1.349 . S
C2243 C2259 1.349 . S
C2244 C2242 1.327 . S
C2244 C2263 1.429 . S
C2244 H2268 0.950 . S
C2245 C2262 1.574 . S
C2245 C2264 1.368 . S
C2245 H2269 0.949 . S
H2246 C2250 0.949 . S
C2247 C2248 1.349 . S
C2247 C2249 1.327 . S
C2247 H2270 0.950 . S
C2248 C2247 1.349 . S
C2248 C2260 1.349 . S
C2249 C2247 1.327 . S
C2249 C2265 1.429 . S
C2249 H2271 0.950 . S
C2250 H2246 0.949 . S
C2250 C2258 1.574 . S
C2250 C2266 1.368 . S
H2251 C2259 0.950 . S
H2252 C2257 0.950 . S
H2253 C2258 0.949 . S
H2254 C2260 0.950 . S
H2255 C2261 0.950 . S
H2256 C2262 0.949 . S
C2257 H2252 0.950 . S
C2257 C2259 1.327 . S
C2257 C2263 1.429 . S
C2258 C2250 1.574 . S
C2258 H2253 0.949 . S
C2258 C2264 1.368 . S
C2259 C2243 1.349 . S
C2259 H2251 0.950 . S
C2259 C2257 1.327 . S
C2260 C2248 1.349 . S
C2260 H2254 0.950 . S
C2260 C2261 1.327 . S
C2261 H2255 0.950 . S
C2261 C2260 1.327 . S
C2261 C2265 1.429 . S
C2262 C2245 1.574 . S
C2262 H2256 0.949 . S
C2262 C2266 1.368 . S
C2263 C2244 1.429 . S
C2263 C2257 1.429 . S
C2263 C2264 1.523 . S
C2264 C2245 1.368 . S
C2264 C2258 1.368 . S
C2264 C2263 1.523 . S
C2265 C2249 1.429 . S
C2265 C2261 1.429 . S
C2265 C2266 1.523 . S
C2266 C2250 1.368 . S
C2266 C2262 1.368 . S
C2266 C2265 1.523 . S
H2267 C2242 0.950 . S
H2268 C2244 0.950 . S
H2269 C2245 0.949 . S
H2270 C2247 0.950 . S
H2271 C2249 0.950 . S
C2272 C2273 1.349 . S
C2272 C2274 1.327 . S
C2272 H2297 0.950 . S
C2273 C2272 1.349 . S
C2273 C2289 1.349 . S
C2274 C2272 1.327 . S
C2274 C2293 1.429 . S
C2274 H2298 0.950 . S
C2275 C2292 1.574 . S
C2275 C2294 1.368 . S
C2275 H2299 0.949 . S
H2276 C2280 0.949 . S
C2277 C2278 1.349 . S
C2277 C2279 1.327 . S
C2277 H2300 0.950 . S
C2278 C2277 1.349 . S
C2278 C2290 1.349 . S
C2279 C2277 1.327 . S
C2279 C2295 1.429 . S
C2279 H2301 0.950 . S
C2280 H2276 0.949 . S
C2280 C2288 1.574 . S
C2280 C2296 1.368 . S
H2281 C2289 0.950 . S
H2282 C2287 0.950 . S
H2283 C2288 0.949 . S
H2284 C2290 0.950 . S
H2285 C2291 0.950 . S
H2286 C2292 0.949 . S
C2287 H2282 0.950 . S
C2287 C2289 1.327 . S
C2287 C2293 1.429 . S
C2288 C2280 1.574 . S
C2288 H2283 0.949 . S
C2288 C2294 1.368 . S
C2289 C2273 1.349 . S
C2289 H2281 0.950 . S
C2289 C2287 1.327 . S
C2290 C2278 1.349 . S
C2290 H2284 0.950 . S
C2290 C2291 1.327 . S
C2291 H2285 0.950 . S
C2291 C2290 1.327 . S
C2291 C2295 1.429 . S
C2292 C2275 1.574 . S
C2292 H2286 0.949 . S
C2292 C2296 1.368 . S
C2293 C2274 1.429 . S
C2293 C2287 1.429 . S
C2293 C2294 1.523 . S
C2294 C2275 1.368 . S
C2294 C2288 1.368 . S
C2294 C2293 1.523 . S
C2295 C2279 1.429 . S
C2295 C2291 1.429 . S
C2295 C2296 1.523 . S
C2296 C2280 1.368 . S
C2296 C2292 1.368 . S
C2296 C2295 1.523 . S
H2297 C2272 0.950 . S
H2298 C2274 0.950 . S
H2299 C2275 0.949 . S
H2300 C2277 0.950 . S
H2301 C2279 0.950 . S
C2302 C2303 1.349 . S
C2302 C2304 1.327 . S
C2302 H2327 0.950 . S
C2303 C2302 1.349 . S
C2303 C2319 1.349 . S
C2304 C2302 1.327 . S
C2304 C2323 1.429 . S
C2304 H2328 0.950 . S
C2305 C2322 1.574 . S
C2305 C2324 1.368 . S
C2305 H2329 0.949 . S
H2306 C2310 0.949 . S
C2307 C2308 1.349 . S
C2307 C2309 1.327 . S
C2307 H2330 0.950 . S
C2308 C2307 1.349 . S
C2308 C2320 1.349 . S
C2309 C2307 1.327 . S
C2309 C2325 1.429 . S
C2309 H2331 0.950 . S
C2310 H2306 0.949 . S
C2310 C2318 1.574 . S
C2310 C2326 1.368 . S
H2311 C2319 0.950 . S
H2312 C2317 0.950 . S
H2313 C2318 0.949 . S
H2314 C2320 0.950 . S
H2315 C2321 0.950 . S
H2316 C2322 0.949 . S
C2317 H2312 0.950 . S
C2317 C2319 1.327 . S
C2317 C2323 1.429 . S
C2318 C2310 1.574 . S
C2318 H2313 0.949 . S
C2318 C2324 1.368 . S
C2319 C2303 1.349 . S
C2319 H2311 0.950 . S
C2319 C2317 1.327 . S
C2320 C2308 1.349 . S
C2320 H2314 0.950 . S
C2320 C2321 1.327 . S
C2321 H2315 0.950 . S
C2321 C2320 1.327 . S
C2321 C2325 1.429 . S
C2322 C2305 1.574 . S
C2322 H2316 0.949 . S
C2322 C2326 1.368 . S
C2323 C2304 1.429 . S
C2323 C2317 1.429 . S
C2323 C2324 1.523 . S
C2324 C2305 1.368 . S
C2324 C2318 1.368 . S
C2324 C2323 1.523 . S
C2325 C2309 1.429 . S
C2325 C2321 1.429 . S
C2325 C2326 1.523 . S
C2326 C2310 1.368 . S
C2326 C2322 1.368 . S
C2326 C2325 1.523 . S
H2327 C2302 0.950 . S
H2328 C2304 0.950 . S
H2329 C2305 0.949 . S
H2330 C2307 0.950 . S
H2331 C2309 0.950 . S
C2332 C2333 1.349 . S
C2332 C2334 1.327 . S
C2332 H2357 0.950 . S
C2333 C2332 1.349 . S
C2333 C2349 1.349 . S
C2334 C2332 1.327 . S
C2334 C2353 1.429 . S
C2334 H2358 0.950 . S
C2335 C2352 1.574 . S
C2335 C2354 1.368 . S
C2335 H2359 0.949 . S
H2336 C2340 0.949 . S
C2337 C2338 1.349 . S
C2337 C2339 1.327 . S
C2337 H2360 0.950 . S
C2338 C2337 1.349 . S
C2338 C2350 1.349 . S
C2339 C2337 1.327 . S
C2339 C2355 1.429 . S
C2339 H2361 0.950 . S
C2340 H2336 0.949 . S
C2340 C2348 1.574 . S
C2340 C2356 1.368 . S
H2341 C2349 0.950 . S
H2342 C2347 0.950 . S
H2343 C2348 0.949 . S
H2344 C2350 0.950 . S
H2345 C2351 0.950 . S
H2346 C2352 0.949 . S
C2347 H2342 0.950 . S
C2347 C2349 1.327 . S
C2347 C2353 1.429 . S
C2348 C2340 1.574 . S
C2348 H2343 0.949 . S
C2348 C2354 1.368 . S
C2349 C2333 1.349 . S
C2349 H2341 0.950 . S
C2349 C2347 1.327 . S
C2350 C2338 1.349 . S
C2350 H2344 0.950 . S
C2350 C2351 1.327 . S
C2351 H2345 0.950 . S
C2351 C2350 1.327 . S
C2351 C2355 1.429 . S
C2352 C2335 1.574 . S
C2352 H2346 0.949 . S
C2352 C2356 1.368 . S
C2353 C2334 1.429 . S
C2353 C2347 1.429 . S
C2353 C2354 1.523 . S
C2354 C2335 1.368 . S
C2354 C2348 1.368 . S
C2354 C2353 1.523 . S
C2355 C2339 1.429 . S
C2355 C2351 1.429 . S
C2355 C2356 1.523 . S
C2356 C2340 1.368 . S
C2356 C2352 1.368 . S
C2356 C2355 1.523 . S
H2357 C2332 0.950 . S
H2358 C2334 0.950 . S
H2359 C2335 0.949 . S
H2360 C2337 0.950 . S
H2361 C2339 0.950 . S
C2362 C2363 1.349 . S
C2362 C2364 1.327 . S
C2362 H2387 0.950 . S
C2363 C2362 1.349 . S
C2363 C2379 1.349 . S
C2364 C2362 1.327 . S
C2364 C2383 1.429 . S
C2364 H2388 0.950 . S
C2365 C2382 1.574 . S
C2365 C2384 1.368 . S
C2365 H2389 0.949 . S
H2366 C2370 0.949 . S
C2367 C2368 1.349 . S
C2367 C2369 1.327 . S
C2367 H2390 0.950 . S
C2368 C2367 1.349 . S
C2368 C2380 1.349 . S
C2369 C2367 1.327 . S
C2369 C2385 1.429 . S
C2369 H2391 0.950 . S
C2370 H2366 0.949 . S
C2370 C2378 1.574 . S
C2370 C2386 1.368 . S
H2371 C2379 0.950 . S
H2372 C2377 0.950 . S
H2373 C2378 0.949 . S
H2374 C2380 0.950 . S
H2375 C2381 0.950 . S
H2376 C2382 0.949 . S
C2377 H2372 0.950 . S
C2377 C2379 1.327 . S
C2377 C2383 1.429 . S
C2378 C2370 1.574 . S
C2378 H2373 0.949 . S
C2378 C2384 1.368 . S
C2379 C2363 1.349 . S
C2379 H2371 0.950 . S
C2379 C2377 1.327 . S
C2380 C2368 1.349 . S
C2380 H2374 0.950 . S
C2380 C2381 1.327 . S
C2381 H2375 0.950 . S
C2381 C2380 1.327 . S
C2381 C2385 1.429 . S
C2382 C2365 1.574 . S
C2382 H2376 0.949 . S
C2382 C2386 1.368 . S
C2383 C2364 1.429 . S
C2383 C2377 1.429 . S
C2383 C2384 1.523 . S
C2384 C2365 1.368 . S
C2384 C2378 1.368 . S
C2384 C2383 1.523 . S
C2385 C2369 1.429 . S
C2385 C2381 1.429 . S
C2385 C2386 1.523 . S
C2386 C2370 1.368 . S
C2386 C2382 1.368 . S
C2386 C2385 1.523 . S
H2387 C2362 0.950 . S
H2388 C2364 0.950 . S
H2389 C2365 0.949 . S
H2390 C2367 0.950 . S
H2391 C2369 0.950 . S
C2392 C2393 1.349 . S
C2392 C2394 1.327 . S
C2392 H2417 0.950 . S
C2393 C2392 1.349 . S
C2393 C2409 1.349 . S
C2394 C2392 1.327 . S
C2394 C2413 1.429 . S
C2394 H2418 0.950 . S
C2395 C2412 1.574 . S
C2395 C2414 1.368 . S
C2395 H2419 0.949 . S
H2396 C2400 0.949 . S
C2397 C2398 1.349 . S
C2397 C2399 1.327 . S
C2397 H2420 0.950 . S
C2398 C2397 1.349 . S
C2398 C2410 1.349 . S
C2399 C2397 1.327 . S
C2399 C2415 1.429 . S
C2399 H2421 0.950 . S
C2400 H2396 0.949 . S
C2400 C2408 1.574 . S
C2400 C2416 1.368 . S
H2401 C2409 0.950 . S
H2402 C2407 0.950 . S
H2403 C2408 0.949 . S
H2404 C2410 0.950 . S
H2405 C2411 0.950 . S
H2406 C2412 0.949 . S
C2407 H2402 0.950 . S
C2407 C2409 1.327 . S
C2407 C2413 1.429 . S
C2408 C2400 1.574 . S
C2408 H2403 0.949 . S
C2408 C2414 1.368 . S
C2409 C2393 1.349 . S
C2409 H2401 0.950 . S
C2409 C2407 1.327 . S
C2410 C2398 1.349 . S
C2410 H2404 0.950 . S
C2410 C2411 1.327 . S
C2411 H2405 0.950 . S
C2411 C2410 1.327 . S
C2411 C2415 1.429 . S
C2412 C2395 1.574 . S
C2412 H2406 0.949 . S
C2412 C2416 1.368 . S
C2413 C2394 1.429 . S
C2413 C2407 1.429 . S
C2413 C2414 1.523 . S
C2414 C2395 1.368 . S
C2414 C2408 1.368 . S
C2414 C2413 1.523 . S
C2415 C2399 1.429 . S
C2415 C2411 1.429 . S
C2415 C2416 1.523 . S
C2416 C2400 1.368 . S
C2416 C2412 1.368 . S
C2416 C2415 1.523 . S
H2417 C2392 0.950 . S
H2418 C2394 0.950 . S
H2419 C2395 0.949 . S
H2420 C2397 0.950 . S
H2421 C2399 0.950 . S
C2422 C2423 1.349 . S
C2422 C2424 1.327 . S
C2422 H2447 0.950 . S
C2423 C2422 1.349 . S
C2423 C2439 1.349 . S
C2424 C2422 1.327 . S
C2424 C2443 1.429 . S
C2424 H2448 0.950 . S
C2425 C2442 1.574 . S
C2425 C2444 1.368 . S
C2425 H2449 0.949 . S
H2426 C2430 0.949 . S
C2427 C2428 1.349 . S
C2427 C2429 1.327 . S
C2427 H2450 0.950 . S
C2428 C2427 1.349 . S
C2428 C2440 1.349 . S
C2429 C2427 1.327 . S
C2429 C2445 1.429 . S
C2429 H2451 0.950 . S
C2430 H2426 0.949 . S
C2430 C2438 1.574 . S
C2430 C2446 1.368 . S
H2431 C2439 0.950 . S
H2432 C2437 0.950 . S
H2433 C2438 0.949 . S
H2434 C2440 0.950 . S
H2435 C2441 0.950 . S
H2436 C2442 0.949 . S
C2437 H2432 0.950 . S
C2437 C2439 1.327 . S
C2437 C2443 1.429 . S
C2438 C2430 1.574 . S
C2438 H2433 0.949 . S
C2438 C2444 1.368 . S
C2439 C2423 1.349 . S
C2439 H2431 0.950 . S
C2439 C2437 1.327 . S
C2440 C2428 1.349 . S
C2440 H2434 0.950 . S
C2440 C2441 1.327 . S
C2441 H2435 0.950 . S
C2441 C2440 1.327 . S
C2441 C2445 1.429 . S
C2442 C2425 1.574 . S
C2442 H2436 0.949 . S
C2442 C2446 1.368 . S
C2443 C2424 1.429 . S
C2443 C2437 1.429 . S
C2443 C2444 1.523 . S
C2444 C2425 1.368 . S
C2444 C2438 1.368 . S
C2444 C2443 1.523 . S
C2445 C2429 1.429 . S
C2445 C2441 1.429 . S
C2445 C2446 1.523 . S
C2446 C2430 1.368 . S
C2446 C2442 1.368 . S
C2446 C2445 1.523 . S
H2447 C2422 0.950 . S
H2448 C2424 0.950 . S
H2449 C2425 0.949 . S
H2450 C2427 0.950 . S
H2451 C2429 0.950 . S
C2452 C2453 1.349 . S
C2452 C2454 1.327 . S
C2452 H2477 0.950 . S
C2453 C2452 1.349 . S
C2453 C2469 1.349 . S
C2454 C2452 1.327 . S
C2454 C2473 1.429 . S
C2454 H2478 0.950 . S
C2455 C2472 1.574 . S
C2455 C2474 1.368 . S
C2455 H2479 0.949 . S
H2456 C2460 0.971 . S
C2457 C2458 1.349 1_556 S
C2457 C2459 1.327 . S
C2457 H2480 0.950 . S
C2458 C2457 1.349 1_554 S
C2458 C2470 1.349 . S
C2459 C2457 1.327 . S
C2459 C2475 1.429 . S
C2459 H2481 0.950 . S
C2460 H2456 0.971 . S
C2460 C2468 1.569 1_554 S
C2460 C2476 1.350 1_554 S
H2461 C2469 0.950 . S
H2462 C2467 0.950 . S
H2463 C2468 0.917 1_554 S
H2464 C2470 0.950 . S
H2465 C2471 0.950 . S
H2466 C2472 0.949 . S
C2467 H2462 0.950 . S
C2467 C2469 1.327 . S
C2467 C2473 1.429 . S
C2468 C2460 1.569 1_556 S
C2468 H2463 0.917 1_556 S
C2468 C2474 1.368 . S
C2469 C2453 1.349 . S
C2469 H2461 0.950 . S
C2469 C2467 1.327 . S
C2470 C2458 1.349 . S
C2470 H2464 0.950 . S
C2470 C2471 1.327 . S
C2471 H2465 0.950 . S
C2471 C2470 1.327 . S
C2471 C2475 1.429 1_554 S
C2472 C2455 1.574 . S
C2472 H2466 0.949 . S
C2472 C2476 1.368 . S
C2473 C2454 1.429 . S
C2473 C2467 1.429 . S
C2473 C2474 1.523 . S
C2474 C2455 1.368 . S
C2474 C2468 1.368 . S
C2474 C2473 1.523 . S
C2475 C2459 1.429 . S
C2475 C2471 1.429 1_556 S
C2475 C2476 1.523 . S
C2476 C2460 1.350 1_556 S
C2476 C2472 1.368 . S
C2476 C2475 1.523 . S
H2477 C2452 0.950 . S
H2478 C2454 0.950 . S
H2479 C2455 0.949 . S
H2480 C2457 0.950 . S
H2481 C2459 0.950 . S
C2482 C2483 1.349 . S
C2482 C2484 1.327 . S
C2482 H2507 0.950 . S
C2483 C2482 1.349 . S
C2483 C2499 1.349 . S
C2484 C2482 1.327 . S
C2484 C2503 1.429 . S
C2484 H2508 0.950 . S
C2485 C2502 1.574 . S
C2485 C2504 1.368 . S
C2485 H2509 0.949 . S
H2486 C2490 0.949 . S
C2487 C2488 1.349 . S
C2487 C2489 1.327 . S
C2487 H2510 0.950 . S
C2488 C2487 1.349 . S
C2488 C2500 1.349 . S
C2489 C2487 1.327 . S
C2489 C2505 1.429 . S
C2489 H2511 0.950 . S
C2490 H2486 0.949 . S
C2490 C2498 1.574 . S
C2490 C2506 1.368 . S
H2491 C2499 0.950 1_455 S
H2492 C2497 0.950 . S
H2493 C2498 0.949 . S
H2494 C2500 0.950 . S
H2495 C2501 0.950 . S
H2496 C2502 0.949 . S
C2497 H2492 0.950 . S
C2497 C2499 1.327 . S
C2497 C2503 1.429 . S
C2498 C2490 1.574 . S
C2498 H2493 0.949 . S
C2498 C2504 1.368 . S
C2499 C2483 1.349 . S
C2499 H2491 0.950 1_655 S
C2499 C2497 1.327 . S
C2500 C2488 1.349 . S
C2500 H2494 0.950 . S
C2500 C2501 1.327 . S
C2501 H2495 0.950 . S
C2501 C2500 1.327 . S
C2501 C2505 1.429 . S
C2502 C2485 1.574 . S
C2502 H2496 0.949 . S
C2502 C2506 1.368 . S
C2503 C2484 1.429 . S
C2503 C2497 1.429 . S
C2503 C2504 1.523 . S
C2504 C2485 1.368 . S
C2504 C2498 1.368 . S
C2504 C2503 1.523 . S
C2505 C2489 1.429 . S
C2505 C2501 1.429 . S
C2505 C2506 1.523 . S
C2506 C2490 1.368 . S
C2506 C2502 1.368 . S
C2506 C2505 1.523 . S
H2507 C2482 0.950 . S
H2508 C2484 0.950 . S
H2509 C2485 0.949 . S
H2510 C2487 0.950 . S
H2511 C2489 0.950 . S
C2512 C2513 1.349 . S
C2512 C2514 1.327 . S
C2512 H2537 0.950 . S
C2513 C2512 1.349 . S
C2513 C2529 1.349 . S
C2514 C2512 1.327 . S
C2514 C2533 1.429 . S
C2514 H2538 0.950 . S
C2515 C2532 1.574 . S
C2515 C2534 1.368 . S
C2515 H2539 0.949 . S
H2516 C2520 0.949 . S
C2517 C2518 1.349 . S
C2517 C2519 1.327 . S
C2517 H2540 0.950 . S
C2518 C2517 1.349 . S
C2518 C2530 1.349 . S
C2519 C2517 1.327 . S
C2519 C2535 1.429 . S
C2519 H2541 0.950 . S
C2520 H2516 0.949 . S
C2520 C2528 1.574 . S
C2520 C2536 1.368 . S
H2521 C2529 0.950 . S
H2522 C2527 0.950 . S
H2523 C2528 0.949 . S
H2524 C2530 0.950 . S
H2525 C2531 0.950 . S
H2526 C2532 0.949 . S
C2527 H2522 0.950 . S
C2527 C2529 1.327 . S
C2527 C2533 1.429 . S
C2528 C2520 1.574 . S
C2528 H2523 0.949 . S
C2528 C2534 1.368 . S
C2529 C2513 1.349 . S
C2529 H2521 0.950 . S
C2529 C2527 1.327 . S
C2530 C2518 1.349 . S
C2530 H2524 0.950 . S
C2530 C2531 1.327 . S
C2531 H2525 0.950 . S
C2531 C2530 1.327 . S
C2531 C2535 1.429 . S
C2532 C2515 1.574 . S
C2532 H2526 0.949 . S
C2532 C2536 1.368 . S
C2533 C2514 1.429 . S
C2533 C2527 1.429 . S
C2533 C2534 1.523 . S
C2534 C2515 1.368 . S
C2534 C2528 1.368 . S
C2534 C2533 1.523 . S
C2535 C2519 1.429 . S
C2535 C2531 1.429 . S
C2535 C2536 1.523 . S
C2536 C2520 1.368 . S
C2536 C2532 1.368 . S
C2536 C2535 1.523 . S
H2537 C2512 0.950 . S
H2538 C2514 0.950 . S
H2539 C2515 0.949 . S
H2540 C2517 0.950 . S
H2541 C2519 0.950 . S
C2542 C2543 1.349 . S
C2542 C2544 1.327 . S
C2542 H2567 0.950 . S
C2543 C2542 1.349 . S
C2543 C2559 1.349 . S
C2544 C2542 1.327 . S
C2544 C2563 1.429 . S
C2544 H2568 0.950 . S
C2545 C2562 1.574 . S
C2545 C2564 1.368 . S
C2545 H2569 0.949 . S
H2546 C2550 0.949 . S
C2547 C2548 1.349 . S
C2547 C2549 1.327 . S
C2547 H2570 0.950 . S
C2548 C2547 1.349 . S
C2548 C2560 1.349 . S
C2549 C2547 1.327 . S
C2549 C2565 1.429 . S
C2549 H2571 0.950 . S
C2550 H2546 0.949 . S
C2550 C2558 1.574 . S
C2550 C2566 1.368 . S
H2551 C2559 0.950 . S
H2552 C2557 0.950 . S
H2553 C2558 0.949 . S
H2554 C2560 0.950 . S
H2555 C2561 0.950 . S
H2556 C2562 0.949 . S
C2557 H2552 0.950 . S
C2557 C2559 1.327 . S
C2557 C2563 1.429 . S
C2558 C2550 1.574 . S
C2558 H2553 0.949 . S
C2558 C2564 1.368 . S
C2559 C2543 1.349 . S
C2559 H2551 0.950 . S
C2559 C2557 1.327 . S
C2560 C2548 1.349 . S
C2560 H2554 0.950 . S
C2560 C2561 1.327 . S
C2561 H2555 0.950 . S
C2561 C2560 1.327 . S
C2561 C2565 1.429 . S
C2562 C2545 1.574 . S
C2562 H2556 0.949 . S
C2562 C2566 1.368 . S
C2563 C2544 1.429 . S
C2563 C2557 1.429 . S
C2563 C2564 1.523 . S
C2564 C2545 1.368 . S
C2564 C2558 1.368 . S
C2564 C2563 1.523 . S
C2565 C2549 1.429 . S
C2565 C2561 1.429 . S
C2565 C2566 1.523 . S
C2566 C2550 1.368 . S
C2566 C2562 1.368 . S
C2566 C2565 1.523 . S
H2567 C2542 0.950 . S
H2568 C2544 0.950 . S
H2569 C2545 0.949 . S
H2570 C2547 0.950 . S
H2571 C2549 0.950 . S
C2572 C2573 1.349 . S
C2572 C2574 1.327 . S
C2572 H2597 0.950 . S
C2573 C2572 1.349 . S
C2573 C2589 1.349 . S
C2574 C2572 1.327 . S
C2574 C2593 1.429 . S
C2574 H2598 0.950 . S
C2575 C2592 1.574 . S
C2575 C2594 1.368 . S
C2575 H2599 0.949 . S
H2576 C2580 0.949 . S
C2577 C2578 1.349 . S
C2577 C2579 1.327 . S
C2577 H2600 0.950 . S
C2578 C2577 1.349 . S
C2578 C2590 1.349 . S
C2579 C2577 1.327 . S
C2579 C2595 1.429 . S
C2579 H2601 0.950 . S
C2580 H2576 0.949 . S
C2580 C2588 1.574 . S
C2580 C2596 1.368 . S
H2581 C2589 0.950 . S
H2582 C2587 0.950 . S
H2583 C2588 0.949 . S
H2584 C2590 0.950 . S
H2585 C2591 0.950 . S
H2586 C2592 0.949 . S
C2587 H2582 0.950 . S
C2587 C2589 1.327 . S
C2587 C2593 1.429 . S
C2588 C2580 1.574 . S
C2588 H2583 0.949 . S
C2588 C2594 1.368 . S
C2589 C2573 1.349 . S
C2589 H2581 0.950 . S
C2589 C2587 1.327 . S
C2590 C2578 1.349 . S
C2590 H2584 0.950 . S
C2590 C2591 1.327 . S
C2591 H2585 0.950 . S
C2591 C2590 1.327 . S
C2591 C2595 1.429 . S
C2592 C2575 1.574 . S
C2592 H2586 0.949 . S
C2592 C2596 1.368 . S
C2593 C2574 1.429 . S
C2593 C2587 1.429 . S
C2593 C2594 1.523 . S
C2594 C2575 1.368 . S
C2594 C2588 1.368 . S
C2594 C2593 1.523 . S
C2595 C2579 1.429 . S
C2595 C2591 1.429 . S
C2595 C2596 1.523 . S
C2596 C2580 1.368 . S
C2596 C2592 1.368 . S
C2596 C2595 1.523 . S
H2597 C2572 0.950 . S
H2598 C2574 0.950 . S
H2599 C2575 0.949 . S
H2600 C2577 0.950 . S
H2601 C2579 0.950 . S
C2602 C2603 1.349 . S
C2602 C2604 1.327 . S
C2602 H2627 0.950 . S
C2603 C2602 1.349 . S
C2603 C2619 1.349 . S
C2604 C2602 1.327 . S
C2604 C2623 1.429 . S
C2604 H2628 0.950 . S
C2605 C2622 1.574 . S
C2605 C2624 1.368 . S
C2605 H2629 0.949 . S
H2606 C2610 0.949 . S
C2607 C2608 1.349 . S
C2607 C2609 1.327 . S
C2607 H2630 0.950 . S
C2608 C2607 1.349 . S
C2608 C2620 1.349 . S
C2609 C2607 1.327 . S
C2609 C2625 1.429 . S
C2609 H2631 0.950 . S
C2610 H2606 0.949 . S
C2610 C2618 1.574 . S
C2610 C2626 1.368 . S
H2611 C2619 0.950 . S
H2612 C2617 0.950 . S
H2613 C2618 0.949 . S
H2614 C2620 0.950 . S
H2615 C2621 0.950 . S
H2616 C2622 0.949 . S
C2617 H2612 0.950 . S
C2617 C2619 1.327 . S
C2617 C2623 1.429 . S
C2618 C2610 1.574 . S
C2618 H2613 0.949 . S
C2618 C2624 1.368 . S
C2619 C2603 1.349 . S
C2619 H2611 0.950 . S
C2619 C2617 1.327 . S
C2620 C2608 1.349 . S
C2620 H2614 0.950 . S
C2620 C2621 1.327 . S
C2621 H2615 0.950 . S
C2621 C2620 1.327 . S
C2621 C2625 1.429 . S
C2622 C2605 1.574 . S
C2622 H2616 0.949 . S
C2622 C2626 1.368 . S
C2623 C2604 1.429 . S
C2623 C2617 1.429 . S
C2623 C2624 1.523 . S
C2624 C2605 1.368 . S
C2624 C2618 1.368 . S
C2624 C2623 1.523 . S
C2625 C2609 1.429 . S
C2625 C2621 1.429 . S
C2625 C2626 1.523 . S
C2626 C2610 1.368 . S
C2626 C2622 1.368 . S
C2626 C2625 1.523 . S
H2627 C2602 0.950 . S
H2628 C2604 0.950 . S
H2629 C2605 0.949 . S
H2630 C2607 0.950 . S
H2631 C2609 0.950 . S
C2632 C2633 1.349 . S
C2632 C2634 1.327 . S
C2632 H2657 0.950 . S
C2633 C2632 1.349 . S
C2633 C2649 1.349 . S
C2634 C2632 1.327 . S
C2634 C2653 1.429 . S
C2634 H2658 0.950 . S
C2635 C2652 1.574 . S
C2635 C2654 1.368 . S
C2635 H2659 0.949 . S
H2636 C2640 0.949 . S
C2637 C2638 1.349 . S
C2637 C2639 1.327 . S
C2637 H2660 0.950 . S
C2638 C2637 1.349 . S
C2638 C2650 1.349 . S
C2639 C2637 1.327 . S
C2639 C2655 1.429 . S
C2639 H2661 0.950 . S
C2640 H2636 0.949 . S
C2640 C2648 1.574 . S
C2640 C2656 1.368 . S
H2641 C2649 0.950 . S
H2642 C2647 0.950 . S
H2643 C2648 0.949 . S
H2644 C2650 0.950 . S
H2645 C2651 0.950 . S
H2646 C2652 0.949 . S
C2647 H2642 0.950 . S
C2647 C2649 1.327 . S
C2647 C2653 1.429 . S
C2648 C2640 1.574 . S
C2648 H2643 0.949 . S
C2648 C2654 1.368 . S
C2649 C2633 1.349 . S
C2649 H2641 0.950 . S
C2649 C2647 1.327 . S
C2650 C2638 1.349 . S
C2650 H2644 0.950 . S
C2650 C2651 1.327 . S
C2651 H2645 0.950 . S
C2651 C2650 1.327 . S
C2651 C2655 1.429 . S
C2652 C2635 1.574 . S
C2652 H2646 0.949 . S
C2652 C2656 1.368 . S
C2653 C2634 1.429 . S
C2653 C2647 1.429 . S
C2653 C2654 1.523 . S
C2654 C2635 1.368 . S
C2654 C2648 1.368 . S
C2654 C2653 1.523 . S
C2655 C2639 1.429 . S
C2655 C2651 1.429 . S
C2655 C2656 1.523 . S
C2656 C2640 1.368 . S
C2656 C2652 1.368 . S
C2656 C2655 1.523 . S
H2657 C2632 0.950 . S
H2658 C2634 0.950 . S
H2659 C2635 0.949 . S
H2660 C2637 0.950 . S
H2661 C2639 0.950 . S
C2662 C2663 1.349 . S
C2662 C2664 1.327 1_554 S
C2662 H2687 0.950 . S
C2663 C2662 1.349 . S
C2663 C2679 1.349 . S
C2664 C2662 1.327 1_556 S
C2664 C2683 1.429 . S
C2664 H2688 0.950 . S
C2665 C2682 1.574 . S
C2665 C2684 1.368 . S
C2665 H2689 0.949 . S
H2666 C2670 0.949 . S
C2667 C2668 1.349 . S
C2667 C2669 1.327 . S
C2667 H2690 0.950 . S
C2668 C2667 1.349 . S
C2668 C2680 1.349 . S
C2669 C2667 1.327 . S
C2669 C2685 1.429 . S
C2669 H2691 0.950 . S
C2670 H2666 0.949 . S
C2670 C2678 1.574 . S
C2670 C2686 1.368 . S
H2671 C2679 0.950 . S
H2672 C2677 0.950 . S
H2673 C2678 0.949 . S
H2674 C2680 0.950 . S
H2675 C2681 0.950 . S
H2676 C2682 0.949 . S
C2677 H2672 0.950 . S
C2677 C2679 1.327 . S
C2677 C2683 1.429 1_554 S
C2678 C2670 1.574 . S
C2678 H2673 0.949 . S
C2678 C2684 1.368 . S
C2679 C2663 1.349 . S
C2679 H2671 0.950 . S
C2679 C2677 1.327 . S
C2680 C2668 1.349 . S
C2680 H2674 0.950 . S
C2680 C2681 1.327 . S
C2681 H2675 0.950 . S
C2681 C2680 1.327 . S
C2681 C2685 1.429 . S
C2682 C2665 1.574 . S
C2682 H2676 0.949 . S
C2682 C2686 1.368 . S
C2683 C2664 1.429 . S
C2683 C2677 1.429 1_556 S
C2683 C2684 1.523 . S
C2684 C2665 1.368 . S
C2684 C2678 1.368 . S
C2684 C2683 1.523 . S
C2685 C2669 1.429 . S
C2685 C2681 1.429 . S
C2685 C2686 1.523 . S
C2686 C2670 1.368 . S
C2686 C2682 1.368 . S
C2686 C2685 1.523 . S
H2687 C2662 0.950 . S
H2688 C2664 0.950 . S
H2689 C2665 0.949 . S
H2690 C2667 0.950 . S
H2691 C2669 0.950 . S
C2692 C2693 1.349 . S
C2692 C2694 1.327 . S
C2692 H2717 0.950 . S
C2693 C2692 1.349 . S
C2693 C2709 1.349 . S
C2694 C2692 1.327 . S
C2694 C2713 1.429 . S
C2694 H2718 0.950 . S
C2695 C2712 1.574 . S
C2695 C2714 1.368 . S
C2695 H2719 0.949 . S
H2696 C2700 0.949 . S
C2697 C2698 1.349 . S
C2697 C2699 1.327 . S
C2697 H2720 0.950 . S
C2698 C2697 1.349 . S
C2698 C2710 1.349 . S
C2699 C2697 1.327 . S
C2699 C2715 1.429 . S
C2699 H2721 0.950 . S
C2700 H2696 0.949 . S
C2700 C2708 1.574 . S
C2700 C2716 1.368 . S
H2701 C2709 0.950 . S
H2702 C2707 0.950 . S
H2703 C2708 0.949 . S
H2704 C2710 0.950 . S
H2705 C2711 0.950 . S
H2706 C2712 0.949 . S
C2707 H2702 0.950 . S
C2707 C2709 1.327 . S
C2707 C2713 1.429 . S
C2708 C2700 1.574 . S
C2708 H2703 0.949 . S
C2708 C2714 1.368 . S
C2709 C2693 1.349 . S
C2709 H2701 0.950 . S
C2709 C2707 1.327 . S
C2710 C2698 1.349 . S
C2710 H2704 0.950 . S
C2710 C2711 1.327 . S
C2711 H2705 0.950 . S
C2711 C2710 1.327 . S
C2711 C2715 1.429 . S
C2712 C2695 1.574 . S
C2712 H2706 0.949 . S
C2712 C2716 1.368 . S
C2713 C2694 1.429 . S
C2713 C2707 1.429 . S
C2713 C2714 1.523 . S
C2714 C2695 1.368 . S
C2714 C2708 1.368 . S
C2714 C2713 1.523 . S
C2715 C2699 1.429 . S
C2715 C2711 1.429 . S
C2715 C2716 1.523 . S
C2716 C2700 1.368 . S
C2716 C2712 1.368 . S
C2716 C2715 1.523 . S
H2717 C2692 0.950 . S
H2718 C2694 0.950 . S
H2719 C2695 0.949 . S
H2720 C2697 0.950 . S
H2721 C2699 0.950 . S
C2722 C2723 1.349 . S
C2722 C2724 1.327 . S
C2722 H2747 0.950 . S
C2723 C2722 1.349 . S
C2723 C2739 1.349 . S
C2724 C2722 1.327 . S
C2724 C2743 1.429 . S
C2724 H2748 0.950 . S
C2725 C2742 1.574 . S
C2725 C2744 1.368 . S
C2725 H2749 0.949 . S
H2726 C2730 0.949 . S
C2727 C2728 1.349 . S
C2727 C2729 1.327 . S
C2727 H2750 0.950 . S
C2728 C2727 1.349 . S
C2728 C2740 1.349 . S
C2729 C2727 1.327 . S
C2729 C2745 1.429 . S
C2729 H2751 0.950 . S
C2730 H2726 0.949 . S
C2730 C2738 1.574 . S
C2730 C2746 1.368 . S
H2731 C2739 0.950 . S
H2732 C2737 0.950 . S
H2733 C2738 0.949 . S
H2734 C2740 0.950 . S
H2735 C2741 0.950 . S
H2736 C2742 0.949 . S
C2737 H2732 0.950 . S
C2737 C2739 1.327 . S
C2737 C2743 1.429 . S
C2738 C2730 1.574 . S
C2738 H2733 0.949 . S
C2738 C2744 1.368 . S
C2739 C2723 1.349 . S
C2739 H2731 0.950 . S
C2739 C2737 1.327 . S
C2740 C2728 1.349 . S
C2740 H2734 0.950 . S
C2740 C2741 1.327 . S
C2741 H2735 0.950 . S
C2741 C2740 1.327 . S
C2741 C2745 1.429 . S
C2742 C2725 1.574 . S
C2742 H2736 0.949 . S
C2742 C2746 1.368 . S
C2743 C2724 1.429 . S
C2743 C2737 1.429 . S
C2743 C2744 1.523 . S
C2744 C2725 1.368 . S
C2744 C2738 1.368 . S
C2744 C2743 1.523 . S
C2745 C2729 1.429 . S
C2745 C2741 1.429 . S
C2745 C2746 1.523 . S
C2746 C2730 1.368 . S
C2746 C2742 1.368 . S
C2746 C2745 1.523 . S
H2747 C2722 0.950 . S
H2748 C2724 0.950 . S
H2749 C2725 0.949 . S
H2750 C2727 0.950 . S
H2751 C2729 0.950 . S
C2752 C2753 1.349 . S
C2752 C2754 1.327 . S
C2752 H2777 0.950 . S
C2753 C2752 1.349 . S
C2753 C2769 1.349 . S
C2754 C2752 1.327 . S
C2754 C2773 1.429 . S
C2754 H2778 0.950 . S
C2755 C2772 1.574 . S
C2755 C2774 1.368 . S
C2755 H2779 0.949 . S
H2756 C2760 0.949 . S
C2757 C2758 1.349 . S
C2757 C2759 1.327 . S
C2757 H2780 0.950 . S
C2758 C2757 1.349 . S
C2758 C2770 1.349 . S
C2759 C2757 1.327 . S
C2759 C2775 1.429 . S
C2759 H2781 0.950 . S
C2760 H2756 0.949 . S
C2760 C2768 1.574 . S
C2760 C2776 1.368 . S
H2761 C2769 0.950 . S
H2762 C2767 0.950 . S
H2763 C2768 0.949 . S
H2764 C2770 0.950 . S
H2765 C2771 0.950 . S
H2766 C2772 0.949 . S
C2767 H2762 0.950 . S
C2767 C2769 1.327 . S
C2767 C2773 1.429 . S
C2768 C2760 1.574 . S
C2768 H2763 0.949 . S
C2768 C2774 1.368 . S
C2769 C2753 1.349 . S
C2769 H2761 0.950 . S
C2769 C2767 1.327 . S
C2770 C2758 1.349 . S
C2770 H2764 0.950 . S
C2770 C2771 1.327 . S
C2771 H2765 0.950 . S
C2771 C2770 1.327 . S
C2771 C2775 1.429 . S
C2772 C2755 1.574 . S
C2772 H2766 0.949 . S
C2772 C2776 1.368 . S
C2773 C2754 1.429 . S
C2773 C2767 1.429 . S
C2773 C2774 1.523 . S
C2774 C2755 1.368 . S
C2774 C2768 1.368 . S
C2774 C2773 1.523 . S
C2775 C2759 1.429 . S
C2775 C2771 1.429 . S
C2775 C2776 1.523 . S
C2776 C2760 1.368 . S
C2776 C2772 1.368 . S
C2776 C2775 1.523 . S
H2777 C2752 0.950 . S
H2778 C2754 0.950 . S
H2779 C2755 0.949 . S
H2780 C2757 0.950 . S
H2781 C2759 0.950 . S
C2782 C2783 1.349 . S
C2782 C2784 1.327 . S
C2782 H2807 0.950 . S
C2783 C2782 1.349 . S
C2783 C2799 1.349 . S
C2784 C2782 1.327 . S
C2784 C2803 1.429 . S
C2784 H2808 0.950 . S
C2785 C2802 1.574 . S
C2785 C2804 1.368 . S
C2785 H2809 0.949 . S
H2786 C2790 0.949 . S
C2787 C2788 1.349 . S
C2787 C2789 1.327 . S
C2787 H2810 0.950 . S
C2788 C2787 1.349 . S
C2788 C2800 1.349 . S
C2789 C2787 1.327 . S
C2789 C2805 1.429 . S
C2789 H2811 0.950 . S
C2790 H2786 0.949 . S
C2790 C2798 1.574 . S
C2790 C2806 1.368 . S
H2791 C2799 0.950 . S
H2792 C2797 0.950 . S
H2793 C2798 0.949 . S
H2794 C2800 0.950 . S
H2795 C2801 0.950 . S
H2796 C2802 0.949 . S
C2797 H2792 0.950 . S
C2797 C2799 1.327 . S
C2797 C2803 1.429 . S
C2798 C2790 1.574 . S
C2798 H2793 0.949 . S
C2798 C2804 1.368 . S
C2799 C2783 1.349 . S
C2799 H2791 0.950 . S
C2799 C2797 1.327 . S
C2800 C2788 1.349 . S
C2800 H2794 0.950 . S
C2800 C2801 1.327 . S
C2801 H2795 0.950 . S
C2801 C2800 1.327 . S
C2801 C2805 1.429 . S
C2802 C2785 1.574 . S
C2802 H2796 0.949 . S
C2802 C2806 1.368 . S
C2803 C2784 1.429 . S
C2803 C2797 1.429 . S
C2803 C2804 1.523 . S
C2804 C2785 1.368 . S
C2804 C2798 1.368 . S
C2804 C2803 1.523 . S
C2805 C2789 1.429 . S
C2805 C2801 1.429 . S
C2805 C2806 1.523 . S
C2806 C2790 1.368 . S
C2806 C2802 1.368 . S
C2806 C2805 1.523 . S
H2807 C2782 0.950 . S
H2808 C2784 0.950 . S
H2809 C2785 0.949 . S
H2810 C2787 0.950 . S
H2811 C2789 0.950 . S
C2812 C2813 1.349 . S
C2812 C2814 1.327 . S
C2812 H2837 0.950 . S
C2813 C2812 1.349 . S
C2813 C2829 1.349 . S
C2814 C2812 1.327 . S
C2814 C2833 1.429 . S
C2814 H2838 0.950 . S
C2815 C2832 1.574 . S
C2815 C2834 1.368 . S
C2815 H2839 0.949 . S
H2816 C2820 0.949 . S
C2817 C2818 1.349 . S
C2817 C2819 1.327 . S
C2817 H2840 0.950 . S
C2818 C2817 1.349 . S
C2818 C2830 1.349 . S
C2819 C2817 1.327 . S
C2819 C2835 1.429 . S
C2819 H2841 0.950 . S
C2820 H2816 0.949 . S
C2820 C2828 1.574 . S
C2820 C2836 1.368 . S
H2821 C2829 0.950 . S
H2822 C2827 0.950 . S
H2823 C2828 0.949 . S
H2824 C2830 0.950 . S
H2825 C2831 0.950 . S
H2826 C2832 0.949 . S
C2827 H2822 0.950 . S
C2827 C2829 1.327 . S
C2827 C2833 1.429 . S
C2828 C2820 1.574 . S
C2828 H2823 0.949 . S
C2828 C2834 1.368 . S
C2829 C2813 1.349 . S
C2829 H2821 0.950 . S
C2829 C2827 1.327 . S
C2830 C2818 1.349 . S
C2830 H2824 0.950 . S
C2830 C2831 1.327 . S
C2831 H2825 0.950 . S
C2831 C2830 1.327 . S
C2831 C2835 1.429 . S
C2832 C2815 1.574 . S
C2832 H2826 0.949 . S
C2832 C2836 1.368 . S
C2833 C2814 1.429 . S
C2833 C2827 1.429 . S
C2833 C2834 1.523 . S
C2834 C2815 1.368 . S
C2834 C2828 1.368 . S
C2834 C2833 1.523 . S
C2835 C2819 1.429 . S
C2835 C2831 1.429 . S
C2835 C2836 1.523 . S
C2836 C2820 1.368 . S
C2836 C2832 1.368 . S
C2836 C2835 1.523 . S
H2837 C2812 0.950 . S
H2838 C2814 0.950 . S
H2839 C2815 0.949 . S
H2840 C2817 0.950 . S
H2841 C2819 0.950 . S
C2842 C2843 1.349 . S
C2842 C2844 1.327 . S
C2842 H2867 0.950 . S
C2843 C2842 1.349 . S
C2843 C2859 1.349 . S
C2844 C2842 1.327 . S
C2844 C2863 1.429 . S
C2844 H2868 0.950 . S
C2845 C2862 1.574 . S
C2845 C2864 1.368 . S
C2845 H2869 0.949 . S
H2846 C2850 0.949 . S
C2847 C2848 1.349 . S
C2847 C2849 1.327 . S
C2847 H2870 0.950 . S
C2848 C2847 1.349 . S
C2848 C2860 1.349 . S
C2849 C2847 1.327 . S
C2849 C2865 1.429 . S
C2849 H2871 0.950 . S
C2850 H2846 0.949 . S
C2850 C2858 1.574 . S
C2850 C2866 1.368 . S
H2851 C2859 0.950 . S
H2852 C2857 0.950 . S
H2853 C2858 0.949 . S
H2854 C2860 0.950 . S
H2855 C2861 0.950 . S
H2856 C2862 0.949 . S
C2857 H2852 0.950 . S
C2857 C2859 1.327 . S
C2857 C2863 1.429 . S
C2858 C2850 1.574 . S
C2858 H2853 0.949 . S
C2858 C2864 1.368 . S
C2859 C2843 1.349 . S
C2859 H2851 0.950 . S
C2859 C2857 1.327 . S
C2860 C2848 1.349 . S
C2860 H2854 0.950 . S
C2860 C2861 1.327 . S
C2861 H2855 0.950 . S
C2861 C2860 1.327 . S
C2861 C2865 1.429 . S
C2862 C2845 1.574 . S
C2862 H2856 0.949 . S
C2862 C2866 1.368 . S
C2863 C2844 1.429 . S
C2863 C2857 1.429 . S
C2863 C2864 1.523 . S
C2864 C2845 1.368 . S
C2864 C2858 1.368 . S
C2864 C2863 1.523 . S
C2865 C2849 1.429 . S
C2865 C2861 1.429 . S
C2865 C2866 1.523 . S
C2866 C2850 1.368 . S
C2866 C2862 1.368 . S
C2866 C2865 1.523 . S
H2867 C2842 0.950 . S
H2868 C2844 0.950 . S
H2869 C2845 0.949 . S
H2870 C2847 0.950 . S
H2871 C2849 0.950 . S
C2872 C2873 1.349 . S
C2872 C2874 1.327 . S
C2872 H2897 0.950 . S
C2873 C2872 1.349 . S
C2873 C2889 1.349 . S
C2874 C2872 1.327 . S
C2874 C2893 1.429 . S
C2874 H2898 0.950 . S
C2875 C2892 1.574 . S
C2875 C2894 1.368 . S
C2875 H2899 0.949 . S
H2876 C2880 0.949 . S
C2877 C2878 1.349 . S
C2877 C2879 1.327 . S
C2877 H2900 0.950 . S
C2878 C2877 1.349 . S
C2878 C2890 1.349 . S
C2879 C2877 1.327 . S
C2879 C2895 1.429 . S
C2879 H2901 0.950 . S
C2880 H2876 0.949 . S
C2880 C2888 1.574 . S
C2880 C2896 1.368 . S
H2881 C2889 0.950 . S
H2882 C2887 0.950 . S
H2883 C2888 0.949 . S
H2884 C2890 0.950 . S
H2885 C2891 0.950 . S
H2886 C2892 0.949 . S
C2887 H2882 0.950 . S
C2887 C2889 1.327 . S
C2887 C2893 1.429 . S
C2888 C2880 1.574 . S
C2888 H2883 0.949 . S
C2888 C2894 1.368 . S
C2889 C2873 1.349 . S
C2889 H2881 0.950 . S
C2889 C2887 1.327 . S
C2890 C2878 1.349 . S
C2890 H2884 0.950 . S
C2890 C2891 1.327 . S
C2891 H2885 0.950 . S
C2891 C2890 1.327 . S
C2891 C2895 1.429 . S
C2892 C2875 1.574 . S
C2892 H2886 0.949 . S
C2892 C2896 1.368 . S
C2893 C2874 1.429 . S
C2893 C2887 1.429 . S
C2893 C2894 1.523 . S
C2894 C2875 1.368 . S
C2894 C2888 1.368 . S
C2894 C2893 1.523 . S
C2895 C2879 1.429 . S
C2895 C2891 1.429 . S
C2895 C2896 1.523 . S
C2896 C2880 1.368 . S
C2896 C2892 1.368 . S
C2896 C2895 1.523 . S
H2897 C2872 0.950 . S
H2898 C2874 0.950 . S
H2899 C2875 0.949 . S
H2900 C2877 0.950 . S
H2901 C2879 0.950 . S
C2902 C2903 1.349 . S
C2902 C2904 1.327 . S
C2902 H2927 0.950 . S
C2903 C2902 1.349 . S
C2903 C2919 1.349 . S
C2904 C2902 1.327 . S
C2904 C2923 1.429 . S
C2904 H2928 0.950 . S
C2905 C2922 1.574 . S
C2905 C2924 1.368 . S
C2905 H2929 0.949 . S
H2906 C2910 0.949 . S
C2907 C2908 1.349 . S
C2907 C2909 1.327 . S
C2907 H2930 0.950 . S
C2908 C2907 1.349 . S
C2908 C2920 1.349 . S
C2909 C2907 1.327 . S
C2909 C2925 1.429 . S
C2909 H2931 0.950 . S
C2910 H2906 0.949 . S
C2910 C2918 1.574 . S
C2910 C2926 1.368 . S
H2911 C2919 0.950 . S
H2912 C2917 0.950 . S
H2913 C2918 0.949 . S
H2914 C2920 0.950 . S
H2915 C2921 0.950 . S
H2916 C2922 0.949 . S
C2917 H2912 0.950 . S
C2917 C2919 1.327 . S
C2917 C2923 1.429 . S
C2918 C2910 1.574 . S
C2918 H2913 0.949 . S
C2918 C2924 1.368 . S
C2919 C2903 1.349 . S
C2919 H2911 0.950 . S
C2919 C2917 1.327 . S
C2920 C2908 1.349 . S
C2920 H2914 0.950 . S
C2920 C2921 1.327 . S
C2921 H2915 0.950 . S
C2921 C2920 1.327 . S
C2921 C2925 1.429 . S
C2922 C2905 1.574 . S
C2922 H2916 0.949 . S
C2922 C2926 1.368 . S
C2923 C2904 1.429 . S
C2923 C2917 1.429 . S
C2923 C2924 1.523 . S
C2924 C2905 1.368 . S
C2924 C2918 1.368 . S
C2924 C2923 1.523 . S
C2925 C2909 1.429 . S
C2925 C2921 1.429 . S
C2925 C2926 1.523 . S
C2926 C2910 1.368 . S
C2926 C2922 1.368 . S
C2926 C2925 1.523 . S
H2927 C2902 0.950 . S
H2928 C2904 0.950 . S
H2929 C2905 0.949 . S
H2930 C2907 0.950 . S
H2931 C2909 0.950 . S
C2932 C2933 1.349 . S
C2932 C2934 1.327 . S
C2932 H2957 0.950 . S
C2933 C2932 1.349 . S
C2933 C2949 1.349 . S
C2934 C2932 1.327 . S
C2934 C2953 1.429 . S
C2934 H2958 0.950 . S
C2935 C2952 1.574 . S
C2935 C2954 1.368 . S
C2935 H2959 0.949 . S
H2936 C2940 0.949 . S
C2937 C2938 1.349 . S
C2937 C2939 1.327 . S
C2937 H2960 0.950 . S
C2938 C2937 1.349 . S
C2938 C2950 1.349 . S
C2939 C2937 1.327 . S
C2939 C2955 1.429 . S
C2939 H2961 0.950 . S
C2940 H2936 0.949 . S
C2940 C2948 1.574 . S
C2940 C2956 1.368 . S
H2941 C2949 0.950 . S
H2942 C2947 0.950 . S
H2943 C2948 0.949 . S
H2944 C2950 0.950 . S
H2945 C2951 0.950 . S
H2946 C2952 0.949 . S
C2947 H2942 0.950 . S
C2947 C2949 1.327 . S
C2947 C2953 1.429 . S
C2948 C2940 1.574 . S
C2948 H2943 0.949 . S
C2948 C2954 1.368 . S
C2949 C2933 1.349 . S
C2949 H2941 0.950 . S
C2949 C2947 1.327 . S
C2950 C2938 1.349 . S
C2950 H2944 0.950 . S
C2950 C2951 1.327 . S
C2951 H2945 0.950 . S
C2951 C2950 1.327 . S
C2951 C2955 1.429 . S
C2952 C2935 1.574 . S
C2952 H2946 0.949 . S
C2952 C2956 1.368 . S
C2953 C2934 1.429 . S
C2953 C2947 1.429 . S
C2953 C2954 1.523 . S
C2954 C2935 1.368 . S
C2954 C2948 1.368 . S
C2954 C2953 1.523 . S
C2955 C2939 1.429 . S
C2955 C2951 1.429 . S
C2955 C2956 1.523 . S
C2956 C2940 1.368 . S
C2956 C2952 1.368 . S
C2956 C2955 1.523 . S
H2957 C2932 0.950 . S
H2958 C2934 0.950 . S
H2959 C2935 0.949 . S
H2960 C2937 0.950 . S
H2961 C2939 0.950 . S
C2962 C2963 1.349 1_556 S
C2962 C2964 1.327 . S
C2962 H2987 0.950 . S
C2963 C2962 1.349 1_554 S
C2963 C2979 1.349 . S
C2964 C2962 1.327 . S
C2964 C2983 1.429 1_556 S
C2964 H2988 0.950 . S
C2965 C2982 1.574 . S
C2965 C2984 1.368 . S
C2965 H2989 0.949 . S
H2966 C2970 0.967 . S
C2967 C2968 1.349 . S
C2967 C2969 1.327 . S
C2967 H2990 0.950 . S
C2968 C2967 1.349 . S
C2968 C2980 1.349 . S
C2969 C2967 1.327 . S
C2969 C2985 1.429 . S
C2969 H2991 0.950 . S
C2970 H2966 0.967 . S
C2970 C2978 1.570 . S
C2970 C2986 1.353 1_556 S
H2971 C2979 0.950 . S
H2972 C2977 0.950 . S
H2973 C2978 0.949 . S
H2974 C2980 0.950 1_556 S
H2975 C2981 0.950 1_556 S
H2976 C2982 0.949 . S
C2977 H2972 0.950 . S
C2977 C2979 1.327 . S
C2977 C2983 1.429 . S
C2978 C2970 1.570 . S
C2978 H2973 0.949 . S
C2978 C2984 1.368 1_556 S
C2979 C2963 1.349 . S
C2979 H2971 0.950 . S
C2979 C2977 1.327 . S
C2980 C2968 1.349 . S
C2980 H2974 0.950 1_554 S
C2980 C2981 1.327 . S
C2981 H2975 0.950 1_554 S
C2981 C2980 1.327 . S
C2981 C2985 1.429 . S
C2982 C2965 1.574 . S
C2982 H2976 0.949 . S
C2982 C2986 1.368 . S
C2983 C2964 1.429 1_554 S
C2983 C2977 1.429 . S
C2983 C2984 1.523 . S
C2984 C2965 1.368 . S
C2984 C2978 1.368 1_554 S
C2984 C2983 1.523 . S
C2985 C2969 1.429 . S
C2985 C2981 1.429 . S
C2985 C2986 1.523 . S
C2986 C2970 1.353 1_554 S
C2986 C2982 1.368 . S
C2986 C2985 1.523 . S
H2987 C2962 0.950 . S
H2988 C2964 0.950 . S
H2989 C2965 0.949 . S
H2990 C2967 0.950 . S
H2991 C2969 0.950 . S
C2992 C2993 1.349 . S
C2992 C2994 1.327 . S
C2992 H3017 0.950 . S
C2993 C2992 1.349 . S
C2993 C3009 1.349 . S
C2994 C2992 1.327 . S
C2994 C3013 1.429 . S
C2994 H3018 0.950 . S
C2995 C3012 1.574 . S
C2995 C3014 1.368 . S
C2995 H3019 0.949 . S
H2996 C3000 0.949 . S
C2997 C2998 1.349 . S
C2997 C2999 1.327 . S
C2997 H3020 0.950 . S
C2998 C2997 1.349 . S
C2998 C3010 1.349 . S
C2999 C2997 1.327 . S
C2999 C3015 1.429 . S
C2999 H3021 0.950 . S
C3000 H2996 0.949 . S
C3000 C3008 1.574 . S
C3000 C3016 1.368 . S
H3001 C3009 0.950 . S
H3002 C3007 0.950 . S
H3003 C3008 0.949 . S
H3004 C3010 0.950 . S
H3005 C3011 0.950 . S
H3006 C3012 0.949 . S
C3007 H3002 0.950 . S
C3007 C3009 1.327 . S
C3007 C3013 1.429 . S
C3008 C3000 1.574 . S
C3008 H3003 0.949 . S
C3008 C3014 1.368 . S
C3009 C2993 1.349 . S
C3009 H3001 0.950 . S
C3009 C3007 1.327 . S
C3010 C2998 1.349 . S
C3010 H3004 0.950 . S
C3010 C3011 1.327 . S
C3011 H3005 0.950 . S
C3011 C3010 1.327 . S
C3011 C3015 1.429 . S
C3012 C2995 1.574 . S
C3012 H3006 0.949 . S
C3012 C3016 1.368 . S
C3013 C2994 1.429 . S
C3013 C3007 1.429 . S
C3013 C3014 1.523 . S
C3014 C2995 1.368 . S
C3014 C3008 1.368 . S
C3014 C3013 1.523 . S
C3015 C2999 1.429 . S
C3015 C3011 1.429 . S
C3015 C3016 1.523 . S
C3016 C3000 1.368 . S
C3016 C3012 1.368 . S
C3016 C3015 1.523 . S
H3017 C2992 0.950 . S
H3018 C2994 0.950 . S
H3019 C2995 0.949 . S
H3020 C2997 0.950 . S
H3021 C2999 0.950 . S
C3022 C3023 1.349 . S
C3022 C3024 1.327 . S
C3022 H3047 0.950 1_554 S
C3023 C3022 1.349 . S
C3023 C3039 1.349 . S
C3024 C3022 1.327 . S
C3024 C3043 1.429 . S
C3024 H3048 0.950 . S
C3025 C3042 1.574 . S
C3025 C3044 1.368 . S
C3025 H3049 0.949 . S
H3026 C3030 0.949 . S
C3027 C3028 1.349 . S
C3027 C3029 1.327 . S
C3027 H3050 0.950 . S
C3028 C3027 1.349 . S
C3028 C3040 1.349 . S
C3029 C3027 1.327 . S
C3029 C3045 1.429 . S
C3029 H3051 0.950 . S
C3030 H3026 0.949 . S
C3030 C3038 1.574 . S
C3030 C3046 1.368 . S
H3031 C3039 0.950 . S
H3032 C3037 0.950 . S
H3033 C3038 0.949 . S
H3034 C3040 0.950 . S
H3035 C3041 0.950 . S
H3036 C3042 0.949 . S
C3037 H3032 0.950 . S
C3037 C3039 1.327 . S
C3037 C3043 1.429 . S
C3038 C3030 1.574 . S
C3038 H3033 0.949 . S
C3038 C3044 1.368 . S
C3039 C3023 1.349 . S
C3039 H3031 0.950 . S
C3039 C3037 1.327 . S
C3040 C3028 1.349 . S
C3040 H3034 0.950 . S
C3040 C3041 1.327 . S
C3041 H3035 0.950 . S
C3041 C3040 1.327 . S
C3041 C3045 1.429 . S
C3042 C3025 1.574 . S
C3042 H3036 0.949 . S
C3042 C3046 1.368 . S
C3043 C3024 1.429 . S
C3043 C3037 1.429 . S
C3043 C3044 1.523 . S
C3044 C3025 1.368 . S
C3044 C3038 1.368 . S
C3044 C3043 1.523 . S
C3045 C3029 1.429 . S
C3045 C3041 1.429 . S
C3045 C3046 1.523 . S
C3046 C3030 1.368 . S
C3046 C3042 1.368 . S
C3046 C3045 1.523 . S
H3047 C3022 0.950 1_556 S
H3048 C3024 0.950 . S
H3049 C3025 0.949 . S
H3050 C3027 0.950 . S
H3051 C3029 0.950 . S
C3052 C3053 1.349 . S
C3052 C3054 1.327 . S
C3052 H3077 0.950 . S
C3053 C3052 1.349 . S
C3053 C3069 1.349 . S
C3054 C3052 1.327 . S
C3054 C3073 1.429 . S
C3054 H3078 0.950 . S
C3055 C3072 1.574 . S
C3055 C3074 1.368 . S
C3055 H3079 0.949 . S
H3056 C3060 0.949 . S
C3057 C3058 1.349 . S
C3057 C3059 1.327 . S
C3057 H3080 0.950 . S
C3058 C3057 1.349 . S
C3058 C3070 1.349 . S
C3059 C3057 1.327 . S
C3059 C3075 1.429 . S
C3059 H3081 0.950 . S
C3060 H3056 0.949 . S
C3060 C3068 1.574 . S
C3060 C3076 1.368 . S
H3061 C3069 0.950 . S
H3062 C3067 0.950 . S
H3063 C3068 0.949 . S
H3064 C3070 0.950 . S
H3065 C3071 0.950 . S
H3066 C3072 0.949 . S
C3067 H3062 0.950 . S
C3067 C3069 1.327 . S
C3067 C3073 1.429 . S
C3068 C3060 1.574 . S
C3068 H3063 0.949 . S
C3068 C3074 1.368 . S
C3069 C3053 1.349 . S
C3069 H3061 0.950 . S
C3069 C3067 1.327 . S
C3070 C3058 1.349 . S
C3070 H3064 0.950 . S
C3070 C3071 1.327 . S
C3071 H3065 0.950 . S
C3071 C3070 1.327 . S
C3071 C3075 1.429 . S
C3072 C3055 1.574 . S
C3072 H3066 0.949 . S
C3072 C3076 1.368 . S
C3073 C3054 1.429 . S
C3073 C3067 1.429 . S
C3073 C3074 1.523 . S
C3074 C3055 1.368 . S
C3074 C3068 1.368 . S
C3074 C3073 1.523 . S
C3075 C3059 1.429 . S
C3075 C3071 1.429 . S
C3075 C3076 1.523 . S
C3076 C3060 1.368 . S
C3076 C3072 1.368 . S
C3076 C3075 1.523 . S
H3077 C3052 0.950 . S
H3078 C3054 0.950 . S
H3079 C3055 0.949 . S
H3080 C3057 0.950 . S
H3081 C3059 0.950 . S
C3082 C3083 1.349 . S
C3082 C3084 1.327 . S
C3082 H3107 0.950 . S
C3083 C3082 1.349 . S
C3083 C3099 1.349 . S
C3084 C3082 1.327 . S
C3084 C3103 1.429 . S
C3084 H3108 0.950 . S
C3085 C3102 1.574 . S
C3085 C3104 1.368 . S
C3085 H3109 0.949 . S
H3086 C3090 0.949 . S
C3087 C3088 1.349 . S
C3087 C3089 1.327 . S
C3087 H3110 0.950 . S
C3088 C3087 1.349 . S
C3088 C3100 1.349 . S
C3089 C3087 1.327 . S
C3089 C3105 1.429 . S
C3089 H3111 0.950 . S
C3090 H3086 0.949 . S
C3090 C3098 1.574 . S
C3090 C3106 1.368 . S
H3091 C3099 0.950 . S
H3092 C3097 0.950 . S
H3093 C3098 0.949 . S
H3094 C3100 0.950 . S
H3095 C3101 0.950 . S
H3096 C3102 0.949 . S
C3097 H3092 0.950 . S
C3097 C3099 1.327 . S
C3097 C3103 1.429 . S
C3098 C3090 1.574 . S
C3098 H3093 0.949 . S
C3098 C3104 1.368 . S
C3099 C3083 1.349 . S
C3099 H3091 0.950 . S
C3099 C3097 1.327 . S
C3100 C3088 1.349 . S
C3100 H3094 0.950 . S
C3100 C3101 1.327 . S
C3101 H3095 0.950 . S
C3101 C3100 1.327 . S
C3101 C3105 1.429 . S
C3102 C3085 1.574 . S
C3102 H3096 0.949 . S
C3102 C3106 1.368 . S
C3103 C3084 1.429 . S
C3103 C3097 1.429 . S
C3103 C3104 1.523 . S
C3104 C3085 1.368 . S
C3104 C3098 1.368 . S
C3104 C3103 1.523 . S
C3105 C3089 1.429 . S
C3105 C3101 1.429 . S
C3105 C3106 1.523 . S
C3106 C3090 1.368 . S
C3106 C3102 1.368 . S
C3106 C3105 1.523 . S
H3107 C3082 0.950 . S
H3108 C3084 0.950 . S
H3109 C3085 0.949 . S
H3110 C3087 0.950 . S
H3111 C3089 0.950 . S
C3112 C3113 1.349 . S
C3112 C3114 1.327 . S
C3112 H3137 0.950 . S
C3113 C3112 1.349 . S
C3113 C3129 1.349 . S
C3114 C3112 1.327 . S
C3114 C3133 1.429 . S
C3114 H3138 0.950 . S
C3115 C3132 1.574 . S
C3115 C3134 1.368 . S
C3115 H3139 0.949 . S
H3116 C3120 0.949 . S
C3117 C3118 1.349 . S
C3117 C3119 1.327 . S
C3117 H3140 0.950 . S
C3118 C3117 1.349 . S
C3118 C3130 1.349 . S
C3119 C3117 1.327 . S
C3119 C3135 1.429 . S
C3119 H3141 0.950 . S
C3120 H3116 0.949 . S
C3120 C3128 1.574 . S
C3120 C3136 1.368 . S
H3121 C3129 0.950 . S
H3122 C3127 0.950 . S
H3123 C3128 0.949 . S
H3124 C3130 0.950 . S
H3125 C3131 0.950 . S
H3126 C3132 0.949 . S
C3127 H3122 0.950 . S
C3127 C3129 1.327 . S
C3127 C3133 1.429 . S
C3128 C3120 1.574 . S
C3128 H3123 0.949 . S
C3128 C3134 1.368 . S
C3129 C3113 1.349 . S
C3129 H3121 0.950 . S
C3129 C3127 1.327 . S
C3130 C3118 1.349 . S
C3130 H3124 0.950 . S
C3130 C3131 1.327 . S
C3131 H3125 0.950 . S
C3131 C3130 1.327 . S
C3131 C3135 1.429 . S
C3132 C3115 1.574 . S
C3132 H3126 0.949 . S
C3132 C3136 1.368 . S
C3133 C3114 1.429 . S
C3133 C3127 1.429 . S
C3133 C3134 1.523 . S
C3134 C3115 1.368 . S
C3134 C3128 1.368 . S
C3134 C3133 1.523 . S
C3135 C3119 1.429 . S
C3135 C3131 1.429 . S
C3135 C3136 1.523 . S
C3136 C3120 1.368 . S
C3136 C3132 1.368 . S
C3136 C3135 1.523 . S
H3137 C3112 0.950 . S
H3138 C3114 0.950 . S
H3139 C3115 0.949 . S
H3140 C3117 0.950 . S
H3141 C3119 0.950 . S
C3142 C3143 1.349 . S
C3142 C3144 1.327 . S
C3142 H3167 0.950 . S
C3143 C3142 1.349 . S
C3143 C3159 1.349 . S
C3144 C3142 1.327 . S
C3144 C3163 1.429 . S
C3144 H3168 0.950 . S
C3145 C3162 1.574 . S
C3145 C3164 1.368 . S
C3145 H3169 0.949 . S
H3146 C3150 0.949 . S
C3147 C3148 1.349 . S
C3147 C3149 1.327 . S
C3147 H3170 0.950 . S
C3148 C3147 1.349 . S
C3148 C3160 1.349 . S
C3149 C3147 1.327 . S
C3149 C3165 1.429 . S
C3149 H3171 0.950 . S
C3150 H3146 0.949 . S
C3150 C3158 1.574 . S
C3150 C3166 1.368 . S
H3151 C3159 0.950 . S
H3152 C3157 0.950 . S
H3153 C3158 0.949 . S
H3154 C3160 0.950 . S
H3155 C3161 0.950 . S
H3156 C3162 0.949 . S
C3157 H3152 0.950 . S
C3157 C3159 1.327 . S
C3157 C3163 1.429 . S
C3158 C3150 1.574 . S
C3158 H3153 0.949 . S
C3158 C3164 1.368 . S
C3159 C3143 1.349 . S
C3159 H3151 0.950 . S
C3159 C3157 1.327 . S
C3160 C3148 1.349 . S
C3160 H3154 0.950 . S
C3160 C3161 1.327 . S
C3161 H3155 0.950 . S
C3161 C3160 1.327 . S
C3161 C3165 1.429 . S
C3162 C3145 1.574 . S
C3162 H3156 0.949 . S
C3162 C3166 1.368 . S
C3163 C3144 1.429 . S
C3163 C3157 1.429 . S
C3163 C3164 1.523 . S
C3164 C3145 1.368 . S
C3164 C3158 1.368 . S
C3164 C3163 1.523 . S
C3165 C3149 1.429 . S
C3165 C3161 1.429 . S
C3165 C3166 1.523 . S
C3166 C3150 1.368 . S
C3166 C3162 1.368 . S
C3166 C3165 1.523 . S
H3167 C3142 0.950 . S
H3168 C3144 0.950 . S
H3169 C3145 0.949 . S
H3170 C3147 0.950 . S
H3171 C3149 0.950 . S
C3172 C3173 1.349 . S
C3172 C3174 1.327 . S
C3172 H3197 0.950 . S
C3173 C3172 1.349 . S
C3173 C3189 1.349 . S
C3174 C3172 1.327 . S
C3174 C3193 1.429 . S
C3174 H3198 0.950 . S
C3175 C3192 1.574 . S
C3175 C3194 1.368 . S
C3175 H3199 0.949 . S
H3176 C3180 0.949 . S
C3177 C3178 1.349 . S
C3177 C3179 1.327 . S
C3177 H3200 0.950 . S
C3178 C3177 1.349 . S
C3178 C3190 1.349 . S
C3179 C3177 1.327 . S
C3179 C3195 1.429 . S
C3179 H3201 0.950 . S
C3180 H3176 0.949 . S
C3180 C3188 1.574 . S
C3180 C3196 1.368 . S
H3181 C3189 0.950 . S
H3182 C3187 0.950 . S
H3183 C3188 0.949 . S
H3184 C3190 0.950 . S
H3185 C3191 0.950 . S
H3186 C3192 0.949 . S
C3187 H3182 0.950 . S
C3187 C3189 1.327 . S
C3187 C3193 1.429 . S
C3188 C3180 1.574 . S
C3188 H3183 0.949 . S
C3188 C3194 1.368 . S
C3189 C3173 1.349 . S
C3189 H3181 0.950 . S
C3189 C3187 1.327 . S
C3190 C3178 1.349 . S
C3190 H3184 0.950 . S
C3190 C3191 1.327 . S
C3191 H3185 0.950 . S
C3191 C3190 1.327 . S
C3191 C3195 1.429 . S
C3192 C3175 1.574 . S
C3192 H3186 0.949 . S
C3192 C3196 1.368 . S
C3193 C3174 1.429 . S
C3193 C3187 1.429 . S
C3193 C3194 1.523 . S
C3194 C3175 1.368 . S
C3194 C3188 1.368 . S
C3194 C3193 1.523 . S
C3195 C3179 1.429 . S
C3195 C3191 1.429 . S
C3195 C3196 1.523 . S
C3196 C3180 1.368 . S
C3196 C3192 1.368 . S
C3196 C3195 1.523 . S
H3197 C3172 0.950 . S
H3198 C3174 0.950 . S
H3199 C3175 0.949 . S
H3200 C3177 0.950 . S
H3201 C3179 0.950 . S
C3202 C3203 1.349 . S
C3202 C3204 1.327 . S
C3202 H3227 0.950 . S
C3203 C3202 1.349 . S
C3203 C3219 1.349 . S
C3204 C3202 1.327 . S
C3204 C3223 1.429 . S
C3204 H3228 0.950 . S
C3205 C3222 1.574 . S
C3205 C3224 1.368 . S
C3205 H3229 0.949 . S
H3206 C3210 0.949 . S
C3207 C3208 1.349 . S
C3207 C3209 1.327 . S
C3207 H3230 0.950 . S
C3208 C3207 1.349 . S
C3208 C3220 1.349 . S
C3209 C3207 1.327 . S
C3209 C3225 1.429 . S
C3209 H3231 0.950 . S
C3210 H3206 0.949 . S
C3210 C3218 1.574 . S
C3210 C3226 1.368 . S
H3211 C3219 0.950 . S
H3212 C3217 0.950 . S
H3213 C3218 0.949 . S
H3214 C3220 0.950 . S
H3215 C3221 0.950 . S
H3216 C3222 0.949 . S
C3217 H3212 0.950 . S
C3217 C3219 1.327 . S
C3217 C3223 1.429 . S
C3218 C3210 1.574 . S
C3218 H3213 0.949 . S
C3218 C3224 1.368 . S
C3219 C3203 1.349 . S
C3219 H3211 0.950 . S
C3219 C3217 1.327 . S
C3220 C3208 1.349 . S
C3220 H3214 0.950 . S
C3220 C3221 1.327 . S
C3221 H3215 0.950 . S
C3221 C3220 1.327 . S
C3221 C3225 1.429 . S
C3222 C3205 1.574 . S
C3222 H3216 0.949 . S
C3222 C3226 1.368 . S
C3223 C3204 1.429 . S
C3223 C3217 1.429 . S
C3223 C3224 1.523 . S
C3224 C3205 1.368 . S
C3224 C3218 1.368 . S
C3224 C3223 1.523 . S
C3225 C3209 1.429 . S
C3225 C3221 1.429 . S
C3225 C3226 1.523 . S
C3226 C3210 1.368 . S
C3226 C3222 1.368 . S
C3226 C3225 1.523 . S
H3227 C3202 0.950 . S
H3228 C3204 0.950 . S
H3229 C3205 0.949 . S
H3230 C3207 0.950 . S
H3231 C3209 0.950 . S
C3232 C3233 1.349 . S
C3232 C3234 1.327 . S
C3232 H3257 0.950 . S
C3233 C3232 1.349 . S
C3233 C3249 1.349 . S
C3234 C3232 1.327 . S
C3234 C3253 1.429 . S
C3234 H3258 0.950 . S
C3235 C3252 1.574 . S
C3235 C3254 1.368 . S
C3235 H3259 0.949 . S
H3236 C3240 0.949 . S
C3237 C3238 1.349 . S
C3237 C3239 1.327 . S
C3237 H3260 0.950 . S
C3238 C3237 1.349 . S
C3238 C3250 1.349 . S
C3239 C3237 1.327 . S
C3239 C3255 1.429 . S
C3239 H3261 0.950 . S
C3240 H3236 0.949 . S
C3240 C3248 1.574 . S
C3240 C3256 1.368 . S
H3241 C3249 0.950 . S
H3242 C3247 0.950 . S
H3243 C3248 0.949 . S
H3244 C3250 0.950 . S
H3245 C3251 0.950 . S
H3246 C3252 0.949 . S
C3247 H3242 0.950 . S
C3247 C3249 1.327 . S
C3247 C3253 1.429 . S
C3248 C3240 1.574 . S
C3248 H3243 0.949 . S
C3248 C3254 1.368 . S
C3249 C3233 1.349 . S
C3249 H3241 0.950 . S
C3249 C3247 1.327 . S
C3250 C3238 1.349 . S
C3250 H3244 0.950 . S
C3250 C3251 1.327 . S
C3251 H3245 0.950 . S
C3251 C3250 1.327 . S
C3251 C3255 1.429 . S
C3252 C3235 1.574 . S
C3252 H3246 0.949 . S
C3252 C3256 1.368 . S
C3253 C3234 1.429 . S
C3253 C3247 1.429 . S
C3253 C3254 1.523 . S
C3254 C3235 1.368 . S
C3254 C3248 1.368 . S
C3254 C3253 1.523 . S
C3255 C3239 1.429 . S
C3255 C3251 1.429 . S
C3255 C3256 1.523 . S
C3256 C3240 1.368 . S
C3256 C3252 1.368 . S
C3256 C3255 1.523 . S
H3257 C3232 0.950 . S
H3258 C3234 0.950 . S
H3259 C3235 0.949 . S
H3260 C3237 0.950 . S
H3261 C3239 0.950 . S
C3262 C3263 1.349 . S
C3262 C3264 1.327 . S
C3262 H3287 0.950 . S
C3263 C3262 1.349 . S
C3263 C3279 1.349 . S
C3264 C3262 1.327 . S
C3264 C3283 1.429 . S
C3264 H3288 0.950 . S
C3265 C3282 1.574 . S
C3265 C3284 1.368 . S
C3265 H3289 0.949 . S
H3266 C3270 0.949 . S
C3267 C3268 1.349 . S
C3267 C3269 1.327 . S
C3267 H3290 0.950 . S
C3268 C3267 1.349 . S
C3268 C3280 1.349 . S
C3269 C3267 1.327 . S
C3269 C3285 1.429 . S
C3269 H3291 0.950 . S
C3270 H3266 0.949 . S
C3270 C3278 1.574 . S
C3270 C3286 1.368 . S
H3271 C3279 0.950 . S
H3272 C3277 0.950 . S
H3273 C3278 0.949 . S
H3274 C3280 0.950 . S
H3275 C3281 0.950 . S
H3276 C3282 0.949 . S
C3277 H3272 0.950 . S
C3277 C3279 1.327 . S
C3277 C3283 1.429 . S
C3278 C3270 1.574 . S
C3278 H3273 0.949 . S
C3278 C3284 1.368 . S
C3279 C3263 1.349 . S
C3279 H3271 0.950 . S
C3279 C3277 1.327 . S
C3280 C3268 1.349 . S
C3280 H3274 0.950 . S
C3280 C3281 1.327 . S
C3281 H3275 0.950 . S
C3281 C3280 1.327 . S
C3281 C3285 1.429 . S
C3282 C3265 1.574 . S
C3282 H3276 0.949 . S
C3282 C3286 1.368 . S
C3283 C3264 1.429 . S
C3283 C3277 1.429 . S
C3283 C3284 1.523 . S
C3284 C3265 1.368 . S
C3284 C3278 1.368 . S
C3284 C3283 1.523 . S
C3285 C3269 1.429 . S
C3285 C3281 1.429 . S
C3285 C3286 1.523 . S
C3286 C3270 1.368 . S
C3286 C3282 1.368 . S
C3286 C3285 1.523 . S
H3287 C3262 0.950 . S
H3288 C3264 0.950 . S
H3289 C3265 0.949 . S
H3290 C3267 0.950 . S
H3291 C3269 0.950 . S
C3292 C3293 1.349 . S
C3292 C3294 1.327 . S
C3292 H3317 0.950 . S
C3293 C3292 1.349 . S
C3293 C3309 1.349 . S
C3294 C3292 1.327 . S
C3294 C3313 1.429 . S
C3294 H3318 0.950 . S
C3295 C3312 1.574 . S
C3295 C3314 1.368 . S
C3295 H3319 0.949 . S
H3296 C3300 0.949 . S
C3297 C3298 1.349 . S
C3297 C3299 1.327 . S
C3297 H3320 0.950 . S
C3298 C3297 1.349 . S
C3298 C3310 1.349 . S
C3299 C3297 1.327 . S
C3299 C3315 1.429 . S
C3299 H3321 0.950 . S
C3300 H3296 0.949 . S
C3300 C3308 1.574 . S
C3300 C3316 1.368 . S
H3301 C3309 0.950 . S
H3302 C3307 0.950 . S
H3303 C3308 0.949 . S
H3304 C3310 0.950 . S
H3305 C3311 0.950 . S
H3306 C3312 0.949 . S
C3307 H3302 0.950 . S
C3307 C3309 1.327 . S
C3307 C3313 1.429 . S
C3308 C3300 1.574 . S
C3308 H3303 0.949 . S
C3308 C3314 1.368 . S
C3309 C3293 1.349 . S
C3309 H3301 0.950 . S
C3309 C3307 1.327 . S
C3310 C3298 1.349 . S
C3310 H3304 0.950 . S
C3310 C3311 1.327 . S
C3311 H3305 0.950 . S
C3311 C3310 1.327 . S
C3311 C3315 1.429 . S
C3312 C3295 1.574 . S
C3312 H3306 0.949 . S
C3312 C3316 1.368 . S
C3313 C3294 1.429 . S
C3313 C3307 1.429 . S
C3313 C3314 1.523 . S
C3314 C3295 1.368 . S
C3314 C3308 1.368 . S
C3314 C3313 1.523 . S
C3315 C3299 1.429 . S
C3315 C3311 1.429 . S
C3315 C3316 1.523 . S
C3316 C3300 1.368 . S
C3316 C3312 1.368 . S
C3316 C3315 1.523 . S
H3317 C3292 0.950 . S
H3318 C3294 0.950 . S
H3319 C3295 0.949 . S
H3320 C3297 0.950 . S
H3321 C3299 0.950 . S
C3322 C3323 1.349 . S
C3322 C3324 1.327 . S
C3322 H3347 0.950 . S
C3323 C3322 1.349 . S
C3323 C3339 1.349 . S
C3324 C3322 1.327 . S
C3324 C3343 1.429 . S
C3324 H3348 0.950 . S
C3325 C3342 1.574 . S
C3325 C3344 1.368 . S
C3325 H3349 0.949 . S
H3326 C3330 0.949 . S
C3327 C3328 1.349 . S
C3327 C3329 1.327 . S
C3327 H3350 0.950 . S
C3328 C3327 1.349 . S
C3328 C3340 1.349 . S
C3329 C3327 1.327 . S
C3329 C3345 1.429 . S
C3329 H3351 0.950 . S
C3330 H3326 0.949 . S
C3330 C3338 1.574 . S
C3330 C3346 1.368 . S
H3331 C3339 0.950 . S
H3332 C3337 0.950 . S
H3333 C3338 0.949 . S
H3334 C3340 0.950 . S
H3335 C3341 0.950 . S
H3336 C3342 0.949 . S
C3337 H3332 0.950 . S
C3337 C3339 1.327 . S
C3337 C3343 1.429 . S
C3338 C3330 1.574 . S
C3338 H3333 0.949 . S
C3338 C3344 1.368 . S
C3339 C3323 1.349 . S
C3339 H3331 0.950 . S
C3339 C3337 1.327 . S
C3340 C3328 1.349 . S
C3340 H3334 0.950 . S
C3340 C3341 1.327 . S
C3341 H3335 0.950 . S
C3341 C3340 1.327 . S
C3341 C3345 1.429 . S
C3342 C3325 1.574 . S
C3342 H3336 0.949 . S
C3342 C3346 1.368 . S
C3343 C3324 1.429 . S
C3343 C3337 1.429 . S
C3343 C3344 1.523 . S
C3344 C3325 1.368 . S
C3344 C3338 1.368 . S
C3344 C3343 1.523 . S
C3345 C3329 1.429 . S
C3345 C3341 1.429 . S
C3345 C3346 1.523 . S
C3346 C3330 1.368 . S
C3346 C3342 1.368 . S
C3346 C3345 1.523 . S
H3347 C3322 0.950 . S
H3348 C3324 0.950 . S
H3349 C3325 0.949 . S
H3350 C3327 0.950 . S
H3351 C3329 0.950 . S
C3352 C3353 1.349 . S
C3352 C3354 1.327 . S
C3352 H3377 0.950 . S
C3353 C3352 1.349 . S
C3353 C3369 1.349 . S
C3354 C3352 1.327 . S
C3354 C3373 1.429 . S
C3354 H3378 0.950 . S
C3355 C3372 1.574 . S
C3355 C3374 1.368 . S
C3355 H3379 0.949 . S
H3356 C3360 0.949 . S
C3357 C3358 1.349 . S
C3357 C3359 1.327 . S
C3357 H3380 0.950 . S
C3358 C3357 1.349 . S
C3358 C3370 1.349 . S
C3359 C3357 1.327 . S
C3359 C3375 1.429 . S
C3359 H3381 0.950 . S
C3360 H3356 0.949 . S
C3360 C3368 1.574 . S
C3360 C3376 1.368 . S
H3361 C3369 0.950 . S
H3362 C3367 0.950 . S
H3363 C3368 0.949 . S
H3364 C3370 0.950 . S
H3365 C3371 0.950 . S
H3366 C3372 0.949 . S
C3367 H3362 0.950 . S
C3367 C3369 1.327 . S
C3367 C3373 1.429 . S
C3368 C3360 1.574 . S
C3368 H3363 0.949 . S
C3368 C3374 1.368 . S
C3369 C3353 1.349 . S
C3369 H3361 0.950 . S
C3369 C3367 1.327 . S
C3370 C3358 1.349 . S
C3370 H3364 0.950 . S
C3370 C3371 1.327 . S
C3371 H3365 0.950 . S
C3371 C3370 1.327 . S
C3371 C3375 1.429 . S
C3372 C3355 1.574 . S
C3372 H3366 0.949 . S
C3372 C3376 1.368 . S
C3373 C3354 1.429 . S
C3373 C3367 1.429 . S
C3373 C3374 1.523 . S
C3374 C3355 1.368 . S
C3374 C3368 1.368 . S
C3374 C3373 1.523 . S
C3375 C3359 1.429 . S
C3375 C3371 1.429 . S
C3375 C3376 1.523 . S
C3376 C3360 1.368 . S
C3376 C3372 1.368 . S
C3376 C3375 1.523 . S
H3377 C3352 0.950 . S
H3378 C3354 0.950 . S
H3379 C3355 0.949 . S
H3380 C3357 0.950 . S
H3381 C3359 0.950 . S
C3382 C3383 1.349 . S
C3382 C3384 1.327 . S
C3382 H3407 0.950 . S
C3383 C3382 1.349 . S
C3383 C3399 1.349 . S
C3384 C3382 1.327 . S
C3384 C3403 1.429 . S
C3384 H3408 0.950 . S
C3385 C3402 1.574 . S
C3385 C3404 1.368 . S
C3385 H3409 0.949 . S
H3386 C3390 0.949 . S
C3387 C3388 1.349 . S
C3387 C3389 1.327 . S
C3387 H3410 0.950 . S
C3388 C3387 1.349 . S
C3388 C3400 1.349 . S
C3389 C3387 1.327 . S
C3389 C3405 1.429 . S
C3389 H3411 0.950 . S
C3390 H3386 0.949 . S
C3390 C3398 1.574 . S
C3390 C3406 1.368 . S
H3391 C3399 0.950 . S
H3392 C3397 0.950 . S
H3393 C3398 0.949 . S
H3394 C3400 0.950 . S
H3395 C3401 0.950 . S
H3396 C3402 0.949 . S
C3397 H3392 0.950 . S
C3397 C3399 1.327 . S
C3397 C3403 1.429 . S
C3398 C3390 1.574 . S
C3398 H3393 0.949 . S
C3398 C3404 1.368 . S
C3399 C3383 1.349 . S
C3399 H3391 0.950 . S
C3399 C3397 1.327 . S
C3400 C3388 1.349 . S
C3400 H3394 0.950 . S
C3400 C3401 1.327 . S
C3401 H3395 0.950 . S
C3401 C3400 1.327 . S
C3401 C3405 1.429 . S
C3402 C3385 1.574 . S
C3402 H3396 0.949 . S
C3402 C3406 1.368 . S
C3403 C3384 1.429 . S
C3403 C3397 1.429 . S
C3403 C3404 1.523 . S
C3404 C3385 1.368 . S
C3404 C3398 1.368 . S
C3404 C3403 1.523 . S
C3405 C3389 1.429 . S
C3405 C3401 1.429 . S
C3405 C3406 1.523 . S
C3406 C3390 1.368 . S
C3406 C3402 1.368 . S
C3406 C3405 1.523 . S
H3407 C3382 0.950 . S
H3408 C3384 0.950 . S
H3409 C3385 0.949 . S
H3410 C3387 0.950 . S
H3411 C3389 0.950 . S
C3412 C3413 1.349 . S
C3412 C3414 1.327 . S
C3412 H3437 0.950 . S
C3413 C3412 1.349 . S
C3413 C3429 1.349 . S
C3414 C3412 1.327 . S
C3414 C3433 1.429 . S
C3414 H3438 0.950 . S
C3415 C3432 1.574 . S
C3415 C3434 1.368 . S
C3415 H3439 0.949 . S
H3416 C3420 0.949 . S
C3417 C3418 1.349 1_655 S
C3417 C3419 1.327 . S
C3417 H3440 0.950 . S
C3418 C3417 1.349 1_455 S
C3418 C3430 1.349 . S
C3419 C3417 1.327 . S
C3419 C3435 1.429 . S
C3419 H3441 0.950 . S
C3420 H3416 0.949 . S
C3420 C3428 1.574 . S
C3420 C3436 1.368 . S
H3421 C3429 0.950 . S
H3422 C3427 0.950 . S
H3423 C3428 0.949 . S
H3424 C3430 0.950 . S
H3425 C3431 0.950 . S
H3426 C3432 0.949 . S
C3427 H3422 0.950 . S
C3427 C3429 1.327 . S
C3427 C3433 1.429 . S
C3428 C3420 1.574 . S
C3428 H3423 0.949 . S
C3428 C3434 1.368 . S
C3429 C3413 1.349 . S
C3429 H3421 0.950 . S
C3429 C3427 1.327 . S
C3430 C3418 1.349 . S
C3430 H3424 0.950 . S
C3430 C3431 1.327 1_455 S
C3431 H3425 0.950 . S
C3431 C3430 1.327 1_655 S
C3431 C3435 1.429 . S
C3432 C3415 1.574 . S
C3432 H3426 0.949 . S
C3432 C3436 1.368 . S
C3433 C3414 1.429 . S
C3433 C3427 1.429 . S
C3433 C3434 1.523 . S
C3434 C3415 1.368 . S
C3434 C3428 1.368 . S
C3434 C3433 1.523 . S
C3435 C3419 1.429 . S
C3435 C3431 1.429 . S
C3435 C3436 1.523 . S
C3436 C3420 1.368 . S
C3436 C3432 1.368 . S
C3436 C3435 1.523 . S
H3437 C3412 0.950 . S
H3438 C3414 0.950 . S
H3439 C3415 0.949 . S
H3440 C3417 0.950 . S
H3441 C3419 0.950 . S
C3442 C3443 1.349 . S
C3442 C3444 1.327 . S
C3442 H3467 0.950 . S
C3443 C3442 1.349 . S
C3443 C3459 1.349 . S
C3444 C3442 1.327 . S
C3444 C3463 1.429 . S
C3444 H3468 0.950 . S
C3445 C3462 1.574 . S
C3445 C3464 1.368 . S
C3445 H3469 0.949 . S
H3446 C3450 0.949 . S
C3447 C3448 1.349 . S
C3447 C3449 1.327 . S
C3447 H3470 0.950 . S
C3448 C3447 1.349 . S
C3448 C3460 1.349 . S
C3449 C3447 1.327 . S
C3449 C3465 1.429 . S
C3449 H3471 0.950 . S
C3450 H3446 0.949 . S
C3450 C3458 1.574 . S
C3450 C3466 1.368 . S
H3451 C3459 0.950 . S
H3452 C3457 0.950 . S
H3453 C3458 0.949 . S
H3454 C3460 0.950 . S
H3455 C3461 0.950 . S
H3456 C3462 0.949 . S
C3457 H3452 0.950 . S
C3457 C3459 1.327 . S
C3457 C3463 1.429 . S
C3458 C3450 1.574 . S
C3458 H3453 0.949 . S
C3458 C3464 1.368 . S
C3459 C3443 1.349 . S
C3459 H3451 0.950 . S
C3459 C3457 1.327 . S
C3460 C3448 1.349 . S
C3460 H3454 0.950 . S
C3460 C3461 1.327 . S
C3461 H3455 0.950 . S
C3461 C3460 1.327 . S
C3461 C3465 1.429 . S
C3462 C3445 1.574 . S
C3462 H3456 0.949 . S
C3462 C3466 1.368 . S
C3463 C3444 1.429 . S
C3463 C3457 1.429 . S
C3463 C3464 1.523 . S
C3464 C3445 1.368 . S
C3464 C3458 1.368 . S
C3464 C3463 1.523 . S
C3465 C3449 1.429 . S
C3465 C3461 1.429 . S
C3465 C3466 1.523 . S
C3466 C3450 1.368 . S
C3466 C3462 1.368 . S
C3466 C3465 1.523 . S
H3467 C3442 0.950 . S
H3468 C3444 0.950 . S
H3469 C3445 0.949 . S
H3470 C3447 0.950 . S
H3471 C3449 0.950 . S
C3472 C3473 1.349 . S
C3472 C3474 1.327 . S
C3472 H3497 0.950 . S
C3473 C3472 1.349 . S
C3473 C3489 1.349 . S
C3474 C3472 1.327 . S
C3474 C3493 1.429 . S
C3474 H3498 0.950 . S
C3475 C3492 1.574 . S
C3475 C3494 1.368 . S
C3475 H3499 0.949 . S
H3476 C3480 0.949 . S
C3477 C3478 1.349 . S
C3477 C3479 1.327 . S
C3477 H3500 0.950 . S
C3478 C3477 1.349 . S
C3478 C3490 1.349 . S
C3479 C3477 1.327 . S
C3479 C3495 1.429 . S
C3479 H3501 0.950 . S
C3480 H3476 0.949 . S
C3480 C3488 1.574 . S
C3480 C3496 1.368 . S
H3481 C3489 0.950 . S
H3482 C3487 0.950 . S
H3483 C3488 0.949 . S
H3484 C3490 0.950 . S
H3485 C3491 0.950 . S
H3486 C3492 0.949 . S
C3487 H3482 0.950 . S
C3487 C3489 1.327 . S
C3487 C3493 1.429 . S
C3488 C3480 1.574 . S
C3488 H3483 0.949 . S
C3488 C3494 1.368 . S
C3489 C3473 1.349 . S
C3489 H3481 0.950 . S
C3489 C3487 1.327 . S
C3490 C3478 1.349 . S
C3490 H3484 0.950 . S
C3490 C3491 1.327 . S
C3491 H3485 0.950 . S
C3491 C3490 1.327 . S
C3491 C3495 1.429 . S
C3492 C3475 1.574 . S
C3492 H3486 0.949 . S
C3492 C3496 1.368 . S
C3493 C3474 1.429 . S
C3493 C3487 1.429 . S
C3493 C3494 1.523 . S
C3494 C3475 1.368 . S
C3494 C3488 1.368 . S
C3494 C3493 1.523 . S
C3495 C3479 1.429 . S
C3495 C3491 1.429 . S
C3495 C3496 1.523 . S
C3496 C3480 1.368 . S
C3496 C3492 1.368 . S
C3496 C3495 1.523 . S
H3497 C3472 0.950 . S
H3498 C3474 0.950 . S
H3499 C3475 0.949 . S
H3500 C3477 0.950 . S
H3501 C3479 0.950 . S
C3502 C3503 1.349 . S
C3502 C3504 1.327 . S
C3502 H3527 0.950 . S
C3503 C3502 1.349 . S
C3503 C3519 1.349 . S
C3504 C3502 1.327 . S
C3504 C3523 1.429 . S
C3504 H3528 0.950 . S
C3505 C3522 1.574 . S
C3505 C3524 1.368 . S
C3505 H3529 0.949 . S
H3506 C3510 0.949 . S
C3507 C3508 1.349 . S
C3507 C3509 1.327 . S
C3507 H3530 0.950 . S
C3508 C3507 1.349 . S
C3508 C3520 1.349 . S
C3509 C3507 1.327 . S
C3509 C3525 1.429 . S
C3509 H3531 0.950 . S
C3510 H3506 0.949 . S
C3510 C3518 1.574 . S
C3510 C3526 1.368 . S
H3511 C3519 0.950 . S
H3512 C3517 0.950 . S
H3513 C3518 0.949 . S
H3514 C3520 0.950 . S
H3515 C3521 0.950 . S
H3516 C3522 0.949 . S
C3517 H3512 0.950 . S
C3517 C3519 1.327 . S
C3517 C3523 1.429 . S
C3518 C3510 1.574 . S
C3518 H3513 0.949 . S
C3518 C3524 1.368 . S
C3519 C3503 1.349 . S
C3519 H3511 0.950 . S
C3519 C3517 1.327 . S
C3520 C3508 1.349 . S
C3520 H3514 0.950 . S
C3520 C3521 1.327 . S
C3521 H3515 0.950 . S
C3521 C3520 1.327 . S
C3521 C3525 1.429 . S
C3522 C3505 1.574 . S
C3522 H3516 0.949 . S
C3522 C3526 1.368 . S
C3523 C3504 1.429 . S
C3523 C3517 1.429 . S
C3523 C3524 1.523 . S
C3524 C3505 1.368 . S
C3524 C3518 1.368 . S
C3524 C3523 1.523 . S
C3525 C3509 1.429 . S
C3525 C3521 1.429 . S
C3525 C3526 1.523 . S
C3526 C3510 1.368 . S
C3526 C3522 1.368 . S
C3526 C3525 1.523 . S
H3527 C3502 0.950 . S
H3528 C3504 0.950 . S
H3529 C3505 0.949 . S
H3530 C3507 0.950 . S
H3531 C3509 0.950 . S
C3532 C3533 1.349 . S
C3532 C3534 1.327 . S
C3532 H3557 0.950 . S
C3533 C3532 1.349 . S
C3533 C3549 1.349 . S
C3534 C3532 1.327 . S
C3534 C3553 1.429 . S
C3534 H3558 0.950 . S
C3535 C3552 1.574 . S
C3535 C3554 1.368 . S
C3535 H3559 0.949 . S
H3536 C3540 0.949 . S
C3537 C3538 1.349 1_655 S
C3537 C3539 1.327 . S
C3537 H3560 0.950 . S
C3538 C3537 1.349 1_455 S
C3538 C3550 1.349 . S
C3539 C3537 1.327 . S
C3539 C3555 1.429 . S
C3539 H3561 0.950 . S
C3540 H3536 0.949 . S
C3540 C3548 1.574 . S
C3540 C3556 1.368 . S
H3541 C3549 0.950 . S
H3542 C3547 0.950 . S
H3543 C3548 0.949 . S
H3544 C3550 0.950 . S
H3545 C3551 0.954 1_455 S
H3546 C3552 0.949 . S
C3547 H3542 0.950 . S
C3547 C3549 1.327 . S
C3547 C3553 1.429 . S
C3548 C3540 1.574 . S
C3548 H3543 0.949 . S
C3548 C3554 1.368 . S
C3549 C3533 1.349 . S
C3549 H3541 0.950 . S
C3549 C3547 1.327 . S
C3550 C3538 1.349 . S
C3550 H3544 0.950 . S
C3550 C3551 1.327 1_455 S
C3551 H3545 0.954 1_655 S
C3551 C3550 1.327 1_655 S
C3551 C3555 1.429 . S
C3552 C3535 1.574 . S
C3552 H3546 0.949 . S
C3552 C3556 1.368 . S
C3553 C3534 1.429 . S
C3553 C3547 1.429 . S
C3553 C3554 1.523 . S
C3554 C3535 1.368 . S
C3554 C3548 1.368 . S
C3554 C3553 1.523 . S
C3555 C3539 1.429 . S
C3555 C3551 1.429 . S
C3555 C3556 1.523 . S
C3556 C3540 1.368 . S
C3556 C3552 1.368 . S
C3556 C3555 1.523 . S
H3557 C3532 0.950 . S
H3558 C3534 0.950 . S
H3559 C3535 0.949 . S
H3560 C3537 0.950 . S
H3561 C3539 0.950 . S
C3562 C3563 1.349 . S
C3562 C3564 1.327 . S
C3562 H3587 0.950 . S
C3563 C3562 1.349 . S
C3563 C3579 1.349 . S
C3564 C3562 1.327 . S
C3564 C3583 1.429 . S
C3564 H3588 0.950 . S
C3565 C3582 1.574 . S
C3565 C3584 1.368 . S
C3565 H3589 0.949 . S
H3566 C3570 0.949 . S
C3567 C3568 1.349 . S
C3567 C3569 1.327 . S
C3567 H3590 0.950 . S
C3568 C3567 1.349 . S
C3568 C3580 1.349 . S
C3569 C3567 1.327 . S
C3569 C3585 1.429 . S
C3569 H3591 0.950 . S
C3570 H3566 0.949 . S
C3570 C3578 1.574 . S
C3570 C3586 1.368 . S
H3571 C3579 0.950 . S
H3572 C3577 0.950 . S
H3573 C3578 0.949 . S
H3574 C3580 0.950 . S
H3575 C3581 0.950 . S
H3576 C3582 0.949 . S
C3577 H3572 0.950 . S
C3577 C3579 1.327 . S
C3577 C3583 1.429 . S
C3578 C3570 1.574 . S
C3578 H3573 0.949 . S
C3578 C3584 1.368 . S
C3579 C3563 1.349 . S
C3579 H3571 0.950 . S
C3579 C3577 1.327 . S
C3580 C3568 1.349 . S
C3580 H3574 0.950 . S
C3580 C3581 1.327 . S
C3581 H3575 0.950 . S
C3581 C3580 1.327 . S
C3581 C3585 1.429 . S
C3582 C3565 1.574 . S
C3582 H3576 0.949 . S
C3582 C3586 1.368 . S
C3583 C3564 1.429 . S
C3583 C3577 1.429 . S
C3583 C3584 1.523 . S
C3584 C3565 1.368 . S
C3584 C3578 1.368 . S
C3584 C3583 1.523 . S
C3585 C3569 1.429 . S
C3585 C3581 1.429 . S
C3585 C3586 1.523 . S
C3586 C3570 1.368 . S
C3586 C3582 1.368 . S
C3586 C3585 1.523 . S
H3587 C3562 0.950 . S
H3588 C3564 0.950 . S
H3589 C3565 0.949 . S
H3590 C3567 0.950 . S
H3591 C3569 0.950 . S
C3592 C3593 1.349 . S
C3592 C3594 1.327 . S
C3592 H3617 0.950 . S
C3593 C3592 1.349 . S
C3593 C3609 1.349 . S
C3594 C3592 1.327 . S
C3594 C3613 1.429 . S
C3594 H3618 0.950 . S
C3595 C3612 1.574 . S
C3595 C3614 1.368 . S
C3595 H3619 0.949 . S
H3596 C3600 0.949 . S
C3597 C3598 1.349 . S
C3597 C3599 1.327 . S
C3597 H3620 0.950 . S
C3598 C3597 1.349 . S
C3598 C3610 1.349 . S
C3599 C3597 1.327 . S
C3599 C3615 1.429 . S
C3599 H3621 0.950 . S
C3600 H3596 0.949 . S
C3600 C3608 1.574 . S
C3600 C3616 1.368 . S
H3601 C3609 0.950 . S
H3602 C3607 0.950 . S
H3603 C3608 0.949 . S
H3604 C3610 0.950 . S
H3605 C3611 0.950 . S
H3606 C3612 0.949 . S
C3607 H3602 0.950 . S
C3607 C3609 1.327 . S
C3607 C3613 1.429 . S
C3608 C3600 1.574 . S
C3608 H3603 0.949 . S
C3608 C3614 1.368 . S
C3609 C3593 1.349 . S
C3609 H3601 0.950 . S
C3609 C3607 1.327 . S
C3610 C3598 1.349 . S
C3610 H3604 0.950 . S
C3610 C3611 1.327 . S
C3611 H3605 0.950 . S
C3611 C3610 1.327 . S
C3611 C3615 1.429 . S
C3612 C3595 1.574 . S
C3612 H3606 0.949 . S
C3612 C3616 1.368 . S
C3613 C3594 1.429 . S
C3613 C3607 1.429 . S
C3613 C3614 1.523 . S
C3614 C3595 1.368 . S
C3614 C3608 1.368 . S
C3614 C3613 1.523 . S
C3615 C3599 1.429 . S
C3615 C3611 1.429 . S
C3615 C3616 1.523 . S
C3616 C3600 1.368 . S
C3616 C3612 1.368 . S
C3616 C3615 1.523 . S
H3617 C3592 0.950 . S
H3618 C3594 0.950 . S
H3619 C3595 0.949 . S
H3620 C3597 0.950 . S
H3621 C3599 0.950 . S
C3622 C3623 1.349 . S
C3622 C3624 1.327 . S
C3622 H3647 0.950 . S
C3623 C3622 1.349 . S
C3623 C3639 1.349 . S
C3624 C3622 1.327 . S
C3624 C3643 1.429 . S
C3624 H3648 0.950 . S
C3625 C3642 1.574 . S
C3625 C3644 1.368 . S
C3625 H3649 0.949 . S
H3626 C3630 0.949 . S
C3627 C3628 1.349 . S
C3627 C3629 1.327 . S
C3627 H3650 0.950 . S
C3628 C3627 1.349 . S
C3628 C3640 1.349 . S
C3629 C3627 1.327 . S
C3629 C3645 1.429 . S
C3629 H3651 0.950 . S
C3630 H3626 0.949 . S
C3630 C3638 1.574 . S
C3630 C3646 1.368 . S
H3631 C3639 0.950 . S
H3632 C3637 0.950 . S
H3633 C3638 0.949 . S
H3634 C3640 0.950 . S
H3635 C3641 0.950 . S
H3636 C3642 0.949 . S
C3637 H3632 0.950 . S
C3637 C3639 1.327 . S
C3637 C3643 1.429 . S
C3638 C3630 1.574 . S
C3638 H3633 0.949 . S
C3638 C3644 1.368 . S
C3639 C3623 1.349 . S
C3639 H3631 0.950 . S
C3639 C3637 1.327 . S
C3640 C3628 1.349 . S
C3640 H3634 0.950 . S
C3640 C3641 1.327 . S
C3641 H3635 0.950 . S
C3641 C3640 1.327 . S
C3641 C3645 1.429 . S
C3642 C3625 1.574 . S
C3642 H3636 0.949 . S
C3642 C3646 1.368 . S
C3643 C3624 1.429 . S
C3643 C3637 1.429 . S
C3643 C3644 1.523 . S
C3644 C3625 1.368 . S
C3644 C3638 1.368 . S
C3644 C3643 1.523 . S
C3645 C3629 1.429 . S
C3645 C3641 1.429 . S
C3645 C3646 1.523 . S
C3646 C3630 1.368 . S
C3646 C3642 1.368 . S
C3646 C3645 1.523 . S
H3647 C3622 0.950 . S
H3648 C3624 0.950 . S
H3649 C3625 0.949 . S
H3650 C3627 0.950 . S
H3651 C3629 0.950 . S
C3652 C3653 1.349 . S
C3652 C3654 1.327 . S
C3652 H3677 0.950 . S
C3653 C3652 1.349 . S
C3653 C3669 1.349 . S
C3654 C3652 1.327 . S
C3654 C3673 1.429 . S
C3654 H3678 0.950 . S
C3655 C3672 1.574 . S
C3655 C3674 1.368 . S
C3655 H3679 0.949 . S
H3656 C3660 0.949 . S
C3657 C3658 1.349 . S
C3657 C3659 1.327 . S
C3657 H3680 0.950 . S
C3658 C3657 1.349 . S
C3658 C3670 1.349 . S
C3659 C3657 1.327 . S
C3659 C3675 1.429 . S
C3659 H3681 0.950 . S
C3660 H3656 0.949 . S
C3660 C3668 1.574 . S
C3660 C3676 1.368 . S
H3661 C3669 0.950 . S
H3662 C3667 0.950 . S
H3663 C3668 0.949 . S
H3664 C3670 0.950 . S
H3665 C3671 0.950 . S
H3666 C3672 0.949 . S
C3667 H3662 0.950 . S
C3667 C3669 1.327 . S
C3667 C3673 1.429 . S
C3668 C3660 1.574 . S
C3668 H3663 0.949 . S
C3668 C3674 1.368 . S
C3669 C3653 1.349 . S
C3669 H3661 0.950 . S
C3669 C3667 1.327 . S
C3670 C3658 1.349 . S
C3670 H3664 0.950 . S
C3670 C3671 1.327 . S
C3671 H3665 0.950 . S
C3671 C3670 1.327 . S
C3671 C3675 1.429 . S
C3672 C3655 1.574 . S
C3672 H3666 0.949 . S
C3672 C3676 1.368 . S
C3673 C3654 1.429 . S
C3673 C3667 1.429 . S
C3673 C3674 1.523 . S
C3674 C3655 1.368 . S
C3674 C3668 1.368 . S
C3674 C3673 1.523 . S
C3675 C3659 1.429 . S
C3675 C3671 1.429 . S
C3675 C3676 1.523 . S
C3676 C3660 1.368 . S
C3676 C3672 1.368 . S
C3676 C3675 1.523 . S
H3677 C3652 0.950 . S
H3678 C3654 0.950 . S
H3679 C3655 0.949 . S
H3680 C3657 0.950 . S
H3681 C3659 0.950 . S
C3682 C3683 1.349 . S
C3682 C3684 1.327 . S
C3682 H3707 0.950 . S
C3683 C3682 1.349 . S
C3683 C3699 1.349 . S
C3684 C3682 1.327 . S
C3684 C3703 1.429 . S
C3684 H3708 0.950 . S
C3685 C3702 1.574 . S
C3685 C3704 1.368 . S
C3685 H3709 0.949 . S
H3686 C3690 0.949 . S
C3687 C3688 1.349 . S
C3687 C3689 1.327 . S
C3687 H3710 0.950 . S
C3688 C3687 1.349 . S
C3688 C3700 1.349 . S
C3689 C3687 1.327 . S
C3689 C3705 1.429 . S
C3689 H3711 0.950 . S
C3690 H3686 0.949 . S
C3690 C3698 1.574 . S
C3690 C3706 1.368 . S
H3691 C3699 0.950 . S
H3692 C3697 0.950 . S
H3693 C3698 0.949 . S
H3694 C3700 0.950 . S
H3695 C3701 0.950 . S
H3696 C3702 0.949 . S
C3697 H3692 0.950 . S
C3697 C3699 1.327 . S
C3697 C3703 1.429 . S
C3698 C3690 1.574 . S
C3698 H3693 0.949 . S
C3698 C3704 1.368 . S
C3699 C3683 1.349 . S
C3699 H3691 0.950 . S
C3699 C3697 1.327 . S
C3700 C3688 1.349 . S
C3700 H3694 0.950 . S
C3700 C3701 1.327 . S
C3701 H3695 0.950 . S
C3701 C3700 1.327 . S
C3701 C3705 1.429 . S
C3702 C3685 1.574 . S
C3702 H3696 0.949 . S
C3702 C3706 1.368 . S
C3703 C3684 1.429 . S
C3703 C3697 1.429 . S
C3703 C3704 1.523 . S
C3704 C3685 1.368 . S
C3704 C3698 1.368 . S
C3704 C3703 1.523 . S
C3705 C3689 1.429 . S
C3705 C3701 1.429 . S
C3705 C3706 1.523 . S
C3706 C3690 1.368 . S
C3706 C3702 1.368 . S
C3706 C3705 1.523 . S
H3707 C3682 0.950 . S
H3708 C3684 0.950 . S
H3709 C3685 0.949 . S
H3710 C3687 0.950 . S
H3711 C3689 0.950 . S
C3712 C3713 1.349 . S
C3712 C3714 1.327 . S
C3712 H3737 0.950 . S
C3713 C3712 1.349 . S
C3713 C3729 1.349 . S
C3714 C3712 1.327 . S
C3714 C3733 1.429 . S
C3714 H3738 0.950 . S
C3715 C3732 1.574 . S
C3715 C3734 1.368 . S
C3715 H3739 0.949 . S
H3716 C3720 0.949 . S
C3717 C3718 1.349 . S
C3717 C3719 1.327 . S
C3717 H3740 0.950 . S
C3718 C3717 1.349 . S
C3718 C3730 1.349 . S
C3719 C3717 1.327 . S
C3719 C3735 1.429 . S
C3719 H3741 0.950 . S
C3720 H3716 0.949 . S
C3720 C3728 1.574 . S
C3720 C3736 1.368 . S
H3721 C3729 0.950 . S
H3722 C3727 0.950 . S
H3723 C3728 0.949 . S
H3724 C3730 0.950 . S
H3725 C3731 0.950 . S
H3726 C3732 0.949 . S
C3727 H3722 0.950 . S
C3727 C3729 1.327 . S
C3727 C3733 1.429 . S
C3728 C3720 1.574 . S
C3728 H3723 0.949 . S
C3728 C3734 1.368 . S
C3729 C3713 1.349 . S
C3729 H3721 0.950 . S
C3729 C3727 1.327 . S
C3730 C3718 1.349 . S
C3730 H3724 0.950 . S
C3730 C3731 1.327 . S
C3731 H3725 0.950 . S
C3731 C3730 1.327 . S
C3731 C3735 1.429 . S
C3732 C3715 1.574 . S
C3732 H3726 0.949 . S
C3732 C3736 1.368 . S
C3733 C3714 1.429 . S
C3733 C3727 1.429 . S
C3733 C3734 1.523 . S
C3734 C3715 1.368 . S
C3734 C3728 1.368 . S
C3734 C3733 1.523 . S
C3735 C3719 1.429 . S
C3735 C3731 1.429 . S
C3735 C3736 1.523 . S
C3736 C3720 1.368 . S
C3736 C3732 1.368 . S
C3736 C3735 1.523 . S
H3737 C3712 0.950 . S
H3738 C3714 0.950 . S
H3739 C3715 0.949 . S
H3740 C3717 0.950 . S
H3741 C3719 0.950 . S
C3742 C3743 1.349 . S
C3742 C3744 1.327 . S
C3742 H3767 0.950 . S
C3743 C3742 1.349 . S
C3743 C3759 1.349 . S
C3744 C3742 1.327 . S
C3744 C3763 1.429 . S
C3744 H3768 0.950 . S
C3745 C3762 1.574 . S
C3745 C3764 1.368 1_556 S
C3745 H3769 0.949 . S
H3746 C3750 0.949 . S
C3747 C3748 1.349 . S
C3747 C3749 1.327 . S
C3747 H3770 0.950 . S
C3748 C3747 1.349 . S
C3748 C3760 1.349 1_556 S
C3749 C3747 1.327 . S
C3749 C3765 1.429 1_556 S
C3749 H3771 0.950 . S
C3750 H3746 0.949 . S
C3750 C3758 1.574 . S
C3750 C3766 1.368 . S
H3751 C3759 0.949 1_556 S
H3752 C3757 0.950 1_556 S
H3753 C3758 0.949 . S
H3754 C3760 0.950 . S
H3755 C3761 0.950 . S
H3756 C3762 0.949 . S
C3757 H3752 0.950 1_554 S
C3757 C3759 1.327 . S
C3757 C3763 1.429 . S
C3758 C3750 1.574 . S
C3758 H3753 0.949 . S
C3758 C3764 1.368 . S
C3759 C3743 1.349 . S
C3759 H3751 0.949 1_554 S
C3759 C3757 1.327 . S
C3760 C3748 1.349 1_554 S
C3760 H3754 0.950 . S
C3760 C3761 1.327 . S
C3761 H3755 0.950 . S
C3761 C3760 1.327 . S
C3761 C3765 1.429 . S
C3762 C3745 1.574 . S
C3762 H3756 0.949 . S
C3762 C3766 1.368 1_556 S
C3763 C3744 1.429 . S
C3763 C3757 1.429 . S
C3763 C3764 1.523 . S
C3764 C3745 1.368 1_554 S
C3764 C3758 1.368 . S
C3764 C3763 1.523 . S
C3765 C3749 1.429 1_554 S
C3765 C3761 1.429 . S
C3765 C3766 1.523 . S
C3766 C3750 1.368 . S
C3766 C3762 1.368 1_554 S
C3766 C3765 1.523 . S
H3767 C3742 0.950 . S
H3768 C3744 0.950 . S
H3769 C3745 0.949 . S
H3770 C3747 0.950 . S
H3771 C3749 0.950 . S
C3772 C3773 1.349 . S
C3772 C3774 1.327 . S
C3772 H3797 0.950 . S
C3773 C3772 1.349 . S
C3773 C3789 1.349 . S
C3774 C3772 1.327 . S
C3774 C3793 1.429 . S
C3774 H3798 0.950 . S
C3775 C3792 1.574 . S
C3775 C3794 1.368 . S
C3775 H3799 0.949 . S
H3776 C3780 0.949 . S
C3777 C3778 1.349 . S
C3777 C3779 1.327 . S
C3777 H3800 0.950 . S
C3778 C3777 1.349 . S
C3778 C3790 1.349 . S
C3779 C3777 1.327 . S
C3779 C3795 1.429 . S
C3779 H3801 0.950 . S
C3780 H3776 0.949 . S
C3780 C3788 1.574 . S
C3780 C3796 1.368 . S
H3781 C3789 0.950 . S
H3782 C3787 0.950 . S
H3783 C3788 0.949 . S
H3784 C3790 0.950 . S
H3785 C3791 0.950 . S
H3786 C3792 0.949 . S
C3787 H3782 0.950 . S
C3787 C3789 1.327 . S
C3787 C3793 1.429 . S
C3788 C3780 1.574 . S
C3788 H3783 0.949 . S
C3788 C3794 1.368 . S
C3789 C3773 1.349 . S
C3789 H3781 0.950 . S
C3789 C3787 1.327 . S
C3790 C3778 1.349 . S
C3790 H3784 0.950 . S
C3790 C3791 1.327 . S
C3791 H3785 0.950 . S
C3791 C3790 1.327 . S
C3791 C3795 1.429 . S
C3792 C3775 1.574 . S
C3792 H3786 0.949 . S
C3792 C3796 1.368 . S
C3793 C3774 1.429 . S
C3793 C3787 1.429 . S
C3793 C3794 1.523 . S
C3794 C3775 1.368 . S
C3794 C3788 1.368 . S
C3794 C3793 1.523 . S
C3795 C3779 1.429 . S
C3795 C3791 1.429 . S
C3795 C3796 1.523 . S
C3796 C3780 1.368 . S
C3796 C3792 1.368 . S
C3796 C3795 1.523 . S
H3797 C3772 0.950 . S
H3798 C3774 0.950 . S
H3799 C3775 0.949 . S
H3800 C3777 0.950 . S
H3801 C3779 0.950 . S
C3802 C3803 1.349 . S
C3802 C3804 1.327 . S
C3802 H3827 0.950 . S
C3803 C3802 1.349 . S
C3803 C3819 1.349 . S
C3804 C3802 1.327 . S
C3804 C3823 1.429 . S
C3804 H3828 0.950 . S
C3805 C3822 1.574 . S
C3805 C3824 1.368 . S
C3805 H3829 0.949 . S
H3806 C3810 0.949 . S
C3807 C3808 1.349 . S
C3807 C3809 1.327 . S
C3807 H3830 0.950 . S
C3808 C3807 1.349 . S
C3808 C3820 1.349 . S
C3809 C3807 1.327 . S
C3809 C3825 1.429 . S
C3809 H3831 0.950 . S
C3810 H3806 0.949 . S
C3810 C3818 1.574 . S
C3810 C3826 1.368 . S
H3811 C3819 0.950 . S
H3812 C3817 0.950 . S
H3813 C3818 0.949 . S
H3814 C3820 0.950 . S
H3815 C3821 0.950 . S
H3816 C3822 0.949 . S
C3817 H3812 0.950 . S
C3817 C3819 1.327 . S
C3817 C3823 1.429 . S
C3818 C3810 1.574 . S
C3818 H3813 0.949 . S
C3818 C3824 1.368 . S
C3819 C3803 1.349 . S
C3819 H3811 0.950 . S
C3819 C3817 1.327 . S
C3820 C3808 1.349 . S
C3820 H3814 0.950 . S
C3820 C3821 1.327 . S
C3821 H3815 0.950 . S
C3821 C3820 1.327 . S
C3821 C3825 1.429 . S
C3822 C3805 1.574 . S
C3822 H3816 0.949 . S
C3822 C3826 1.368 . S
C3823 C3804 1.429 . S
C3823 C3817 1.429 . S
C3823 C3824 1.523 . S
C3824 C3805 1.368 . S
C3824 C3818 1.368 . S
C3824 C3823 1.523 . S
C3825 C3809 1.429 . S
C3825 C3821 1.429 . S
C3825 C3826 1.523 . S
C3826 C3810 1.368 . S
C3826 C3822 1.368 . S
C3826 C3825 1.523 . S
H3827 C3802 0.950 . S
H3828 C3804 0.950 . S
H3829 C3805 0.949 . S
H3830 C3807 0.950 . S
H3831 C3809 0.950 . S
C953 C101 2.295 . S
C958 C322 2.244 . S
C983 C57 2.033 . S
C988 C370 2.064 . S
C1013 C73 1.163 . S
C1018 C402 1.207 . S
C1048 C447 1.534 . S
C1043 C78 1.503 . S
C1073 C21 0.953 . S
C1078 C487 0.963 . S
C1108 C522 0.870 . S
C1103 C31 0.855 . S
C1138 C561 1.179 . S
C1133 C49 1.189 . S
C1163 C0 1.095 . S
C1168 C598 1.139 . S
C1198 C330 1.966 . S
C1193 C218 1.980 . S
C1223 C229 0.675 . S
C1228 C367 0.465 . S
C1258 C410 2.450 . S
C1253 C257 2.478 . S
C1288 C442 0.985 . S
C1283 C164 0.958 . S
C1313 C216 1.075 . S
C1318 C482 1.106 . S
C1348 C530 0.508 . S
C1343 C231 0.482 . S
C1378 C571 1.841 . S
C1373 C255 1.866 . S
C1408 C601 1.897 . S
C1403 C166 1.924 . S
C1438 C327 1.015 . S
C1433 C143 0.991 1_556 S
C1463 C265 2.172 . S
C1468 C650 2.191 . S
C1498 C687 1.090 . S
C1493 C299 1.067 . S
C1528 C718 0.282 . S
C1523 C291 0.245 . S
C1553 C104 2.713 . S
C1558 C611 2.697 . S
C1583 C117 1.345 . S
C1588 C407 1.377 . S
C1613 C304 1.700 . S
C1618 C770 1.715 . S
C1648 C802 1.694 . S
C1643 C278 1.681 . S
C1678 C331 2.214 . S
C1673 C60 2.247 . S
C1708 C801 1.931 . S
C1703 C96 1.926 . S
C1733 C88 1.095 . S
C1738 C411 1.084 . S
C1763 C65 1.471 . S
C1768 C758 1.464 . S
C1798 C478 0.869 . S
C1793 C10 0.873 . S
C1823 C44 0.729 . S
C1828 C691 0.725 . S
C1858 C570 1.139 . S
C1853 C34 1.130 . S
C1888 C847 1.078 . S
C1883 C13 1.070 . S
C1918 C321 1.890 . S
C1913 C138 1.880 . S
C1948 C798 0.552 . S
C1943 C296 0.408 . S
C1973 C112 2.309 . S
C1978 C401 2.363 . S
C2003 C270 0.869 . S
C2008 C771 0.864 . S
C2033 C140 0.978 . S
C2038 C491 0.968 . S
C2068 C681 0.379 . S
C2063 C294 0.516 . S
C2093 C114 1.780 . S
C2098 C562 1.734 . S
C2123 C268 1.859 . S
C2128 C850 1.868 . S
C2153 C169 1.070 . S
C2158 C318 1.039 . S
C2183 C161 2.078 . S
C2188 C641 2.075 . S
C2213 C234 1.064 . S
C2218 C518 1.056 . S
C2243 C226 0.243 . S
C2248 C727 0.312 . S
C2278 C842 2.616 . S
C2273 C247 2.613 . S
C2303 C195 1.311 . S
C2308 C398 1.310 . S
C2338 C441 1.615 . S
C2333 C239 1.622 . S
C2368 C371 1.585 . S
C2363 C187 1.548 . S
C2393 C75 2.295 . S
C2398 C882 2.244 . S
C2428 C810 2.064 . S
C2423 C83 2.033 . S
C2453 C99 1.163 . S
C2458 C922 1.207 . S
C2483 C52 1.503 1_655 S
C2488 C767 1.534 . S
C2513 C47 0.953 . S
C2518 C647 0.963 . S
C2548 C682 0.870 . S
C2543 C5 0.855 . S
C2578 C721 1.179 . S
C2573 C23 1.189 . S
C2608 C838 1.139 . S
C2603 C26 1.095 . S
C2638 C890 1.966 . S
C2633 C244 1.981 . S
C2663 C177 0.675 . S
C2668 C807 0.465 . S
C2698 C930 2.450 . S
C2693 C192 2.478 . S
C2728 C762 0.984 . S
C2723 C203 0.958 . S
C2758 C642 1.106 . S
C2753 C242 1.075 . S
C2783 C179 0.482 . S
C2788 C690 0.507 . S
C2818 C731 1.840 . S
C2813 C190 1.865 . S
C2843 C205 1.924 . S
C2848 C841 1.897 . S
C2878 C887 1.015 . S
C2873 C286 0.990 . S
C2903 C122 2.172 . S
C2908 C490 2.191 . S
C2938 C527 1.090 . S
C2933 C130 1.067 . S
C2968 C558 0.282 . S
C2963 C148 0.247 . S
C2998 C851 2.697 . S
C2993 C273 2.713 . S
C3023 C260 1.345 . S
C3028 C927 1.377 . S
C3058 C450 1.716 . S
C3053 C135 1.700 . S
C3088 C362 1.693 . S
C3083 C109 1.681 . S
C3113 C86 2.247 . S
C3118 C891 2.214 . S
C3148 C361 1.931 . S
C3143 C70 1.926 . S
C3173 C62 1.095 . S
C3178 C931 1.084 . S
C3203 C91 1.471 . S
C3208 C438 1.463 . S
C3233 C36 0.867 . S
C3238 C638 0.865 . S
C3268 C531 0.726 . S
C3263 C18 0.729 . S
C3293 C8 1.130 . S
C3298 C730 1.139 . S
C3323 C39 1.070 . S
C3328 C607 1.078 . S
C3358 C881 1.891 . S
C3353 C307 1.881 . S
C3383 C153 0.409 . S
C3388 C358 0.555 . S
C3418 C921 2.364 . S
C3413 C281 2.309 . S
C3443 C127 0.869 . S
C3448 C451 0.864 . S
C3473 C309 0.978 . S
C3478 C651 0.968 . S
C3508 C521 0.380 . S
C3503 C151 0.517 . S
C3533 C283 1.781 . S
C3538 C722 1.725 . S
C3568 C610 1.868 . S
C3563 C125 1.859 . S
C3598 C878 1.039 . S
C3593 C221 1.071 . S
C3628 C481 2.075 1_565 S
C3623 C200 2.078 . S
C3653 C208 1.063 . S
C3658 C678 1.056 . S
C3688 C567 0.312 . S
C3683 C174 0.243 . S
C3713 C182 2.613 . S
C3718 C602 2.616 . S
C3743 C156 1.311 . S
C3748 C918 1.310 . S
C3778 C761 1.615 . S
C3773 C213 1.622 . S
C3808 C811 1.585 . S
C3803 C252 1.548 . S
