# Generated by pormake.
# Topology ocu, (6,8)-cn, num edge types: 1
# Building blocks:
#     Node 0, Type 0, BuildingBlock: KUMBUR_clean_sbu_1, # of connection points: 6
#     Node 1, Type 0, BuildingBlock: KUMBUR_clean_sbu_1, # of connection points: 6
#     Node 2, Type 0, BuildingBlock: KUMBUR_clean_sbu_1, # of connection points: 6
#     Node 3, Type 0, BuildingBlock: KUMBUR_clean_sbu_1, # of connection points: 6
#     Node 4, Type 0, BuildingBlock: KUMBUR_clean_sbu_1, # of connection points: 6
#     Node 5, Type 0, BuildingBlock: KUMBUR_clean_sbu_1, # of connection points: 6
#     Node 6, Type 0, BuildingBlock: KUMBUR_clean_sbu_1, # of connection points: 6
#     Node 7, Type 0, BuildingBlock: KUMBUR_clean_sbu_1, # of connection points: 6
#     Node 8, Type 1, BuildingBlock: AJUNOK_clean_sbu_0, # of connection points: 8
#     Node 9, Type 1, BuildingBlock: AJUNOK_clean_sbu_0, # of connection points: 8
#     Node 10, Type 1, BuildingBlock: AJUNOK_clean_sbu_0, # of connection points: 8
#     Node 11, Type 1, BuildingBlock: AJUNOK_clean_sbu_0, # of connection points: 8
#     Node 12, Type 1, BuildingBlock: AJUNOK_clean_sbu_0, # of connection points: 8
#     Node 13, Type 1, BuildingBlock: AJUNOK_clean_sbu_0, # of connection points: 8
#     Edge 14, Type (0, 1), BuildingBlock: TEMPAE_clean_linker_10, # of connection points: 2
#     Edge 15, Type (0, 1), BuildingBlock: TEMPAE_clean_linker_10, # of connection points: 2
#     Edge 16, Type (0, 1), BuildingBlock: TEMPAE_clean_linker_10, # of connection points: 2
#     Edge 17, Type (0, 1), BuildingBlock: TEMPAE_clean_linker_10, # of connection points: 2
#     Edge 18, Type (0, 1), BuildingBlock: TEMPAE_clean_linker_10, # of connection points: 2
#     Edge 19, Type (0, 1), BuildingBlock: TEMPAE_clean_linker_10, # of connection points: 2
#     Edge 20, Type (0, 1), BuildingBlock: TEMPAE_clean_linker_10, # of connection points: 2
#     Edge 21, Type (0, 1), BuildingBlock: TEMPAE_clean_linker_10, # of connection points: 2
#     Edge 22, Type (0, 1), BuildingBlock: TEMPAE_clean_linker_10, # of connection points: 2
#     Edge 23, Type (0, 1), BuildingBlock: TEMPAE_clean_linker_10, # of connection points: 2
#     Edge 24, Type (0, 1), BuildingBlock: TEMPAE_clean_linker_10, # of connection points: 2
#     Edge 25, Type (0, 1), BuildingBlock: TEMPAE_clean_linker_10, # of connection points: 2
#     Edge 26, Type (0, 1), BuildingBlock: TEMPAE_clean_linker_10, # of connection points: 2
#     Edge 27, Type (0, 1), BuildingBlock: TEMPAE_clean_linker_10, # of connection points: 2
#     Edge 28, Type (0, 1), BuildingBlock: TEMPAE_clean_linker_10, # of connection points: 2
#     Edge 29, Type (0, 1), BuildingBlock: TEMPAE_clean_linker_10, # of connection points: 2
#     Edge 30, Type (0, 1), BuildingBlock: TEMPAE_clean_linker_10, # of connection points: 2
#     Edge 31, Type (0, 1), BuildingBlock: TEMPAE_clean_linker_10, # of connection points: 2
#     Edge 32, Type (0, 1), BuildingBlock: TEMPAE_clean_linker_10, # of connection points: 2
#     Edge 33, Type (0, 1), BuildingBlock: TEMPAE_clean_linker_10, # of connection points: 2
#     Edge 34, Type (0, 1), BuildingBlock: TEMPAE_clean_linker_10, # of connection points: 2
#     Edge 35, Type (0, 1), BuildingBlock: TEMPAE_clean_linker_10, # of connection points: 2
#     Edge 36, Type (0, 1), BuildingBlock: TEMPAE_clean_linker_10, # of connection points: 2
#     Edge 37, Type (0, 1), BuildingBlock: TEMPAE_clean_linker_10, # of connection points: 2
#     Edge 38, Type (0, 1), BuildingBlock: TEMPAE_clean_linker_10, # of connection points: 2
#     Edge 39, Type (0, 1), BuildingBlock: TEMPAE_clean_linker_10, # of connection points: 2
#     Edge 40, Type (0, 1), BuildingBlock: TEMPAE_clean_linker_10, # of connection points: 2
#     Edge 41, Type (0, 1), BuildingBlock: TEMPAE_clean_linker_10, # of connection points: 2
#     Edge 42, Type (0, 1), BuildingBlock: TEMPAE_clean_linker_10, # of connection points: 2
#     Edge 43, Type (0, 1), BuildingBlock: TEMPAE_clean_linker_10, # of connection points: 2
#     Edge 44, Type (0, 1), BuildingBlock: TEMPAE_clean_linker_10, # of connection points: 2
#     Edge 45, Type (0, 1), BuildingBlock: TEMPAE_clean_linker_10, # of connection points: 2
#     Edge 46, Type (0, 1), BuildingBlock: TEMPAE_clean_linker_10, # of connection points: 2
#     Edge 47, Type (0, 1), BuildingBlock: TEMPAE_clean_linker_10, # of connection points: 2
#     Edge 48, Type (0, 1), BuildingBlock: TEMPAE_clean_linker_10, # of connection points: 2
#     Edge 49, Type (0, 1), BuildingBlock: TEMPAE_clean_linker_10, # of connection points: 2
#     Edge 50, Type (0, 1), BuildingBlock: TEMPAE_clean_linker_10, # of connection points: 2
#     Edge 51, Type (0, 1), BuildingBlock: TEMPAE_clean_linker_10, # of connection points: 2
#     Edge 52, Type (0, 1), BuildingBlock: TEMPAE_clean_linker_10, # of connection points: 2
#     Edge 53, Type (0, 1), BuildingBlock: TEMPAE_clean_linker_10, # of connection points: 2
#     Edge 54, Type (0, 1), BuildingBlock: TEMPAE_clean_linker_10, # of connection points: 2
#     Edge 55, Type (0, 1), BuildingBlock: TEMPAE_clean_linker_10, # of connection points: 2
#     Edge 56, Type (0, 1), BuildingBlock: TEMPAE_clean_linker_10, # of connection points: 2
#     Edge 57, Type (0, 1), BuildingBlock: TEMPAE_clean_linker_10, # of connection points: 2
#     Edge 58, Type (0, 1), BuildingBlock: TEMPAE_clean_linker_10, # of connection points: 2
#     Edge 59, Type (0, 1), BuildingBlock: TEMPAE_clean_linker_10, # of connection points: 2
#     Edge 60, Type (0, 1), BuildingBlock: TEMPAE_clean_linker_10, # of connection points: 2
#     Edge 61, Type (0, 1), BuildingBlock: TEMPAE_clean_linker_10, # of connection points: 2
# Relax obj value: 0.130
# Max RMSD: 0.182
# Mean RMSD: 0.157
data_MOF--net-ocu--node1-KUMBUR_clean_sbu_1--node2-AJUNOK_clean_sbu_0--edge1-TEMPAE_clean_linker_10
_symmetry_space_group_name_H-M    P1
_symmetry_Int_Tables_number       1
_symmetry_cell_setting            triclinic
loop_
_symmetry_equiv_pos_as_xyz
'x, y, z'
_cell_length_a     44.584833
_cell_length_b     45.227759
_cell_length_c     39.500209
_cell_angle_alpha  104.3043
_cell_angle_beta   88.28823
_cell_angle_gamma 113.17156
loop_
_atom_site_label
_atom_site_type_symbol
_atom_site_fract_x
_atom_site_fract_y
_atom_site_fract_z
_atom_type_partial_charge
Tb0 Tb 0.23182 0.24031 0.21026 0.0
C1 C 0.31694 0.33296 0.34901 0.0
N2 N 0.32665 0.3208 0.3174 0.0
C3 C 0.36827 0.37507 0.32002 0.0
C4 C 0.33191 0.36701 0.36661 0.0
C5 C 0.35279 0.34116 0.30344 0.0
C6 C 0.35761 0.38812 0.35153 0.0
C7 C 0.28065 0.32314 0.39611 0.0
C8 C 0.29165 0.3112 0.36389 0.0
C9 C 0.29533 0.35711 0.41335 0.0
C10 C 0.32088 0.37893 0.3987 0.0
Tb11 Tb 0.29901 0.26462 0.29521 0.0
N12 N 0.27679 0.2786 0.34584 0.0
C13 C 0.25503 0.30055 0.4099 0.0
C14 C 0.25331 0.25618 0.36011 0.0
C15 C 0.24159 0.26687 0.39202 0.0
H16 H 0.36269 0.33159 0.28007 0.0
H17 H 0.22248 0.2491 0.403 0.0
H18 H 0.15972 0.18641 0.22751 0.0
H19 H 0.29383 0.24173 0.09123 0.0
H20 H 0.24422 0.23009 0.34737 0.0
H21 H 0.24582 0.30877 0.43457 0.0
H22 H 0.2829 0.2653 0.15124 0.0
H23 H 0.38873 0.39106 0.30869 0.0
H24 H 0.28709 0.36679 0.43806 0.0
H25 H 0.33199 0.40505 0.41244 0.0
H26 H 0.1215 0.12888 0.20057 0.0
H27 H 0.36975 0.41441 0.36428 0.0
H28 H 0.25992 0.18315 0.06083 0.0
N29 N 0.1934 0.1875 0.18778 0.0
C30 C 0.19864 0.17152 0.15569 0.0
C31 C 0.14331 0.14044 0.18785 0.0
C32 C 0.1767 0.13899 0.1387 0.0
C33 C 0.16542 0.17295 0.20333 0.0
C34 C 0.14915 0.12322 0.15558 0.0
N35 N 0.24513 0.22019 0.15581 0.0
C36 C 0.26883 0.2396 0.1387 0.0
C37 C 0.22996 0.1741 0.10441 0.0
C38 C 0.22507 0.18862 0.13889 0.0
C39 C 0.2554 0.19333 0.08737 0.0
C40 C 0.27468 0.22637 0.10448 0.0
H41 H 0.13174 0.09822 0.14344 0.0
H42 H 0.16592 0.09867 0.09165 0.0
H43 H 0.21245 0.12953 0.06152 0.0
O44 O 0.23521 0.28038 0.1897 0.0
O45 O 0.26775 0.21652 0.19909 0.0
O46 O 0.30654 0.23254 0.2467 0.0
O47 O 0.18861 0.24226 0.19338 0.0
O48 O 0.27408 0.28494 0.23488 0.0
O49 O 0.32064 0.28207 0.25039 0.0
O50 O 0.30614 0.23342 0.32356 0.0
O51 O 0.26313 0.2887 0.29972 0.0
O52 O 0.21599 0.25716 0.26198 0.0
O53 O 0.34512 0.27905 0.32012 0.0
O54 O 0.2603 0.21492 0.27619 0.0
O55 O 0.21454 0.21763 0.25347 0.0
C56 C 0.29337 0.21538 0.21442 0.0
C57 C 0.19107 0.27028 0.14977 0.0
C58 C 0.16216 0.29235 0.11792 0.0
C59 C 0.16089 0.26819 0.08728 0.0
C60 C 0.18966 0.24639 0.11875 0.0
C61 C 0.17479 0.24551 0.08768 0.0
C62 C 0.17748 0.29351 0.14916 0.0
C63 C 0.30424 0.28928 0.22916 0.0
C64 C 0.20367 0.26944 0.1835 0.0
C65 C 0.18238 0.12372 0.10502 0.0
C66 C 0.20888 0.14129 0.08785 0.0
C67 C 0.23257 0.28179 0.28916 0.0
C68 C 0.36024 0.23528 0.32179 0.0
C69 C 0.38859 0.20311 0.33657 0.0
C70 C 0.40848 0.20948 0.30878 0.0
C71 C 0.38025 0.24088 0.29385 0.0
C72 C 0.3642 0.21591 0.34298 0.0
C73 C 0.40419 0.2281 0.28751 0.0
C74 C 0.22868 0.20657 0.27321 0.0
C75 C 0.33729 0.25188 0.33018 0.0
H76 H 0.14902 0.26686 0.06307 0.0
H77 H 0.19936 0.22798 0.11861 0.0
H78 H 0.1736 0.22685 0.06393 0.0
H79 H 0.1779 0.31174 0.17308 0.0
H80 H 0.42734 0.19984 0.30345 0.0
H81 H 0.37764 0.25549 0.27702 0.0
H82 H 0.34917 0.21167 0.3648 0.0
H83 H 0.41955 0.23272 0.26605 0.0
Tb84 Tb 0.73549 0.27293 0.25565 0.0
C85 C 0.83715 0.23065 0.17506 0.0
N86 N 0.80587 0.2117 0.18001 0.0
C87 C 0.79566 0.18461 0.11864 0.0
C88 C 0.84853 0.22842 0.14127 0.0
C89 C 0.78548 0.18792 0.1527 0.0
C90 C 0.82721 0.2052 0.11282 0.0
C91 C 0.88986 0.27342 0.20012 0.0
C92 C 0.85735 0.2529 0.20412 0.0
C93 C 0.90121 0.27196 0.16639 0.0
C94 C 0.88059 0.24949 0.13704 0.0
Tb95 Tb 0.79123 0.21942 0.23619 0.0
N96 N 0.84533 0.25373 0.2363 0.0
C97 C 0.91014 0.29427 0.23018 0.0
C98 C 0.86579 0.27225 0.26575 0.0
C99 C 0.89819 0.29328 0.26314 0.0
H100 H 0.76144 0.17134 0.15712 0.0
H101 H 0.91406 0.30837 0.28661 0.0
H102 H 0.77651 0.33768 0.32337 0.0
H103 H 0.60869 0.1888 0.23641 0.0
H104 H 0.85772 0.27052 0.29144 0.0
H105 H 0.9353 0.31042 0.22827 0.0
H106 H 0.66435 0.21689 0.21827 0.0
H107 H 0.77922 0.1661 0.09695 0.0
H108 H 0.92603 0.28775 0.16277 0.0
H109 H 0.88975 0.24845 0.11124 0.0
H110 H 0.77054 0.35535 0.38631 0.0
H111 H 0.83498 0.2027 0.08639 0.0
H112 H 0.59766 0.20151 0.29904 0.0
N113 N 0.73207 0.29408 0.31399 0.0
C114 C 0.70343 0.27805 0.32718 0.0
C115 C 0.75163 0.33327 0.37009 0.0
C116 C 0.69819 0.28828 0.36274 0.0
C117 C 0.75524 0.32265 0.33441 0.0
C118 C 0.72319 0.31568 0.38448 0.0
N119 N 0.68437 0.24417 0.27022 0.0
C120 C 0.65961 0.22233 0.24563 0.0
C121 C 0.64728 0.23734 0.31596 0.0
C122 C 0.6784 0.2528 0.30432 0.0
C123 C 0.62202 0.21382 0.2912 0.0
C124 C 0.62815 0.20653 0.25581 0.0
H125 H 0.72023 0.32429 0.412 0.0
H126 H 0.66334 0.27904 0.40234 0.0
H127 H 0.61868 0.23452 0.36129 0.0
O128 O 0.71329 0.27954 0.21362 0.0
O129 O 0.71819 0.22414 0.26783 0.0
O130 O 0.76541 0.22079 0.28398 0.0
O131 O 0.72506 0.31553 0.26361 0.0
O132 O 0.72853 0.23854 0.20423 0.0
O133 O 0.74059 0.19563 0.21352 0.0
O134 O 0.82141 0.19737 0.24935 0.0
O135 O 0.78986 0.25026 0.20141 0.0
O136 O 0.78456 0.29525 0.23868 0.0
O137 O 0.77277 0.16737 0.22528 0.0
O138 O 0.8 0.25447 0.28818 0.0
O139 O 0.786 0.29636 0.27914 0.0
C140 C 0.73396 0.21314 0.2858 0.0
C141 C 0.72449 0.3345 0.21291 0.0
C142 C 0.7098 0.36022 0.17217 0.0
C143 C 0.7417 0.3854 0.17845 0.0
C144 C 0.75624 0.35947 0.21855 0.0
C145 C 0.76477 0.38475 0.20118 0.0
C146 C 0.70177 0.33458 0.18929 0.0
C147 C 0.72586 0.2076 0.19546 0.0
C148 C 0.71375 0.30802 0.2313 0.0
C149 C 0.66776 0.27172 0.37504 0.0
C150 C 0.6423 0.2464 0.35166 0.0
C151 C 0.79591 0.2821 0.21054 0.0
C152 C 0.79173 0.14811 0.26746 0.0
C153 C 0.81171 0.13228 0.31411 0.0
C154 C 0.7803 0.10804 0.31463 0.0
C155 C 0.76026 0.12387 0.2687 0.0
C156 C 0.8174 0.15229 0.29056 0.0
C157 C 0.75472 0.104 0.29213 0.0
C158 C 0.80065 0.2848 0.29778 0.0
C159 C 0.79816 0.16769 0.24102 0.0
H160 H 0.74875 0.40601 0.16645 0.0
H161 H 0.77421 0.35956 0.23647 0.0
H162 H 0.7892 0.4042 0.20574 0.0
H163 H 0.67769 0.31446 0.18444 0.0
H164 H 0.77567 0.09211 0.33234 0.0
H165 H 0.73996 0.11986 0.25126 0.0
H166 H 0.84195 0.17034 0.28958 0.0
H167 H 0.73065 0.08504 0.29252 0.0
Tb168 Tb 0.75035 0.71435 0.28655 0.0
C169 C 0.82742 0.79929 0.17564 0.0
N170 N 0.81533 0.80938 0.20637 0.0
C171 C 0.86426 0.85959 0.22171 0.0
C172 C 0.85888 0.81861 0.16726 0.0
C173 C 0.83265 0.83995 0.22854 0.0
C174 C 0.87763 0.84867 0.19118 0.0
C175 C 0.81794 0.76063 0.11814 0.0
C176 C 0.80739 0.77048 0.1514 0.0
C177 C 0.84971 0.77909 0.11029 0.0
C178 C 0.87019 0.80793 0.13484 0.0
Tb179 Tb 0.76373 0.77377 0.214 0.0
N180 N 0.7769 0.75289 0.15995 0.0
C181 C 0.79583 0.73314 0.09341 0.0
C182 C 0.75468 0.72725 0.13539 0.0
C183 C 0.76388 0.71674 0.10189 0.0
H184 H 0.82221 0.84971 0.25141 0.0
H185 H 0.74634 0.69608 0.08266 0.0
H186 H 0.68463 0.64341 0.24547 0.0
H187 H 0.77154 0.79417 0.41681 0.0
H188 H 0.72983 0.7152 0.14148 0.0
H189 H 0.80293 0.72489 0.06748 0.0
H190 H 0.78701 0.7725 0.35807 0.0
H191 H 0.87808 0.88341 0.23973 0.0
H192 H 0.85843 0.77172 0.08501 0.0
H193 H 0.89437 0.82233 0.12809 0.0
H194 H 0.62783 0.61534 0.25727 0.0
H195 H 0.90194 0.86418 0.18575 0.0
H196 H 0.71463 0.76811 0.43262 0.0
N197 N 0.69627 0.68352 0.2921 0.0
C198 C 0.68586 0.69409 0.32391 0.0
C199 C 0.64373 0.63777 0.27597 0.0
C200 C 0.65353 0.67741 0.33226 0.0
C201 C 0.67611 0.6546 0.269 0.0
C202 C 0.63225 0.64945 0.3075 0.0
N203 N 0.73887 0.7373 0.34021 0.0
C204 C 0.76195 0.76221 0.36441 0.0
C205 C 0.69821 0.73193 0.38235 0.0
C206 C 0.70797 0.72112 0.34892 0.0
C207 C 0.72124 0.75897 0.40671 0.0
C208 C 0.75334 0.77393 0.39782 0.0
H209 H 0.60724 0.63604 0.31294 0.0
H210 H 0.61884 0.67615 0.37205 0.0
H211 H 0.65786 0.72374 0.41578 0.0
O212 O 0.78787 0.71438 0.31818 0.0
O213 O 0.72935 0.75334 0.29823 0.0
O214 O 0.74539 0.79188 0.26342 0.0
O215 O 0.74316 0.6711 0.30192 0.0
O216 O 0.79497 0.75473 0.27902 0.0
O217 O 0.79055 0.79896 0.26511 0.0
O218 O 0.72175 0.76648 0.18391 0.0
O219 O 0.78593 0.73605 0.20107 0.0
O220 O 0.77864 0.70377 0.24195 0.0
O221 O 0.76021 0.8151 0.20223 0.0
O222 O 0.7236 0.73351 0.22748 0.0
O223 O 0.72764 0.68776 0.23424 0.0
C224 C 0.72995 0.78032 0.28963 0.0
C225 C 0.79079 0.66171 0.30545 0.0
C226 C 0.82941 0.63891 0.31762 0.0
C227 C 0.82385 0.61982 0.28269 0.0
C228 C 0.78562 0.64227 0.27066 0.0
C229 C 0.80194 0.62137 0.2595 0.0
C230 C 0.8126 0.65979 0.3291 0.0
C231 C 0.79993 0.78612 0.28703 0.0
C232 C 0.77251 0.68293 0.31689 0.0
C233 C 0.64361 0.68859 0.36533 0.0
C234 C 0.66589 0.71564 0.39032 0.0
C235 C 0.79066 0.71318 0.21335 0.0
C236 C 0.72828 0.8062 0.15123 0.0
C237 C 0.70113 0.82826 0.11677 0.0
C238 C 0.72409 0.82795 0.09155 0.0
C239 C 0.75054 0.80597 0.12549 0.0
C240 C 0.70345 0.81714 0.14669 0.0
C241 C 0.7483 0.81663 0.09578 0.0
C242 C 0.71856 0.70251 0.21463 0.0
C243 C 0.73213 0.79782 0.18423 0.0
H244 H 0.83634 0.6034 0.27341 0.0
H245 H 0.76881 0.64312 0.25204 0.0
H246 H 0.7977 0.60644 0.23269 0.0
H247 H 0.81656 0.67447 0.35606 0.0
H248 H 0.72398 0.83723 0.0688 0.0
H249 H 0.77012 0.79833 0.12863 0.0
H250 H 0.68625 0.8172 0.16665 0.0
H251 H 0.76584 0.81676 0.07623 0.0
Tb252 Tb 0.23129 0.75376 0.24166 0.0
C253 C 0.29891 0.68304 0.30161 0.0
N254 N 0.31149 0.71535 0.30029 0.0
C255 C 0.33169 0.73284 0.36057 0.0
C256 C 0.3007 0.67443 0.33319 0.0
C257 C 0.32895 0.74013 0.32867 0.0
C258 C 0.31717 0.69988 0.36297 0.0
C259 C 0.27005 0.62494 0.27154 0.0
C260 C 0.28375 0.65875 0.27114 0.0
C261 C 0.27054 0.61622 0.30325 0.0
C262 C 0.28591 0.6409 0.33399 0.0
Tb263 Tb 0.30476 0.72478 0.24761 0.0
N264 N 0.28379 0.66821 0.24093 0.0
C265 C 0.25717 0.6009 0.23988 0.0
C266 C 0.27418 0.64461 0.20963 0.0
C267 C 0.25991 0.61077 0.20872 0.0
H268 H 0.34068 0.76553 0.32676 0.0
H269 H 0.2515 0.59228 0.18389 0.0
H270 H 0.19335 0.70724 0.16266 0.0
H271 H 0.27927 0.88654 0.29581 0.0
H272 H 0.27791 0.65135 0.18503 0.0
H273 H 0.24636 0.57465 0.23903 0.0
H274 H 0.25803 0.82793 0.29803 0.0
H275 H 0.34499 0.7526 0.38324 0.0
H276 H 0.25974 0.59039 0.30413 0.0
H277 H 0.28652 0.63376 0.35812 0.0
H278 H 0.19033 0.71583 0.1037 0.0
H279 H 0.31909 0.69432 0.38777 0.0
H280 H 0.28044 0.90045 0.23883 0.0
N281 N 0.22319 0.75806 0.1862 0.0
C282 C 0.23473 0.78956 0.18215 0.0
C283 C 0.20344 0.73665 0.12551 0.0
C284 C 0.23272 0.79571 0.14918 0.0
C285 C 0.2059 0.73184 0.15885 0.0
C286 C 0.21751 0.76863 0.12048 0.0
N287 N 0.249 0.80871 0.24271 0.0
C288 C 0.25905 0.83358 0.27294 0.0
C289 C 0.25918 0.84893 0.20896 0.0
C290 C 0.24757 0.81581 0.21152 0.0
C291 C 0.27123 0.87464 0.23964 0.0
C292 C 0.27075 0.86689 0.27183 0.0
H293 H 0.2154 0.77224 0.09468 0.0
H294 H 0.24411 0.83384 0.12095 0.0
H295 H 0.26759 0.88051 0.17335 0.0
O296 O 0.20375 0.76261 0.28406 0.0
O297 O 0.281 0.78278 0.23046 0.0
O298 O 0.30088 0.74432 0.2032 0.0
O299 O 0.18224 0.74423 0.231 0.0
O300 O 0.26013 0.77365 0.29251 0.0
O301 O 0.31177 0.77483 0.27848 0.0
O302 O 0.34129 0.70652 0.23613 0.0
O303 O 0.26835 0.71918 0.28678 0.0
O304 O 0.22284 0.70652 0.25275 0.0
O305 O 0.35373 0.75922 0.25079 0.0
O306 O 0.27533 0.7036 0.19683 0.0
O307 O 0.2241 0.70378 0.20997 0.0
C308 C 0.29726 0.77218 0.20575 0.0
C309 C 0.1641 0.781 0.27015 0.0
C310 C 0.15132 0.8235 0.31103 0.0
C311 C 0.13581 0.82761 0.28309 0.0
C312 C 0.1485 0.78541 0.24251 0.0
C313 C 0.13448 0.80866 0.24905 0.0
C314 C 0.16541 0.80012 0.3044 0.0
C315 C 0.29217 0.78548 0.29889 0.0
C316 C 0.17842 0.75613 0.26353 0.0
C317 C 0.24517 0.82865 0.14614 0.0
C318 C 0.2584 0.85523 0.17599 0.0
C319 C 0.23655 0.70487 0.2805 0.0
C320 C 0.38373 0.73901 0.20801 0.0
C321 C 0.38915 0.71675 0.14598 0.0
C322 C 0.42315 0.73692 0.152 0.0
C323 C 0.41724 0.75866 0.21308 0.0
C324 C 0.36957 0.71992 0.17427 0.0
C325 C 0.43673 0.75814 0.18494 0.0
C326 C 0.24353 0.69293 0.18951 0.0
C327 C 0.36412 0.73585 0.23843 0.0
H328 H 0.12501 0.84578 0.28752 0.0
H329 H 0.14703 0.77091 0.21584 0.0
H330 H 0.12257 0.81201 0.22767 0.0
H331 H 0.17701 0.79658 0.32595 0.0
H332 H 0.44011 0.73569 0.1322 0.0
H333 H 0.42842 0.77371 0.23893 0.0
H334 H 0.34336 0.70641 0.17117 0.0
H335 H 0.4628 0.77302 0.18905 0.0
Tb336 Tb 0.22871 0.77584 0.75791 0.0
C337 C 0.32947 0.72152 0.68289 0.0
N338 N 0.29813 0.70498 0.68981 0.0
C339 C 0.2869 0.66853 0.632 0.0
C340 C 0.34047 0.71293 0.64956 0.0
C341 C 0.27713 0.67806 0.66546 0.0
C342 C 0.31863 0.68621 0.62389 0.0
C343 C 0.38282 0.76587 0.70281 0.0
C344 C 0.35029 0.74765 0.70925 0.0
C345 C 0.39382 0.75774 0.66945 0.0
C346 C 0.37273 0.7313 0.64293 0.0
Tb347 Tb 0.28488 0.72236 0.74491 0.0
N348 N 0.33869 0.75493 0.74118 0.0
C349 C 0.40343 0.79142 0.73019 0.0
C350 C 0.35929 0.77868 0.76845 0.0
C351 C 0.39171 0.79757 0.76323 0.0
H352 H 0.25299 0.66352 0.67183 0.0
H353 H 0.40779 0.81658 0.78485 0.0
H354 H 0.26733 0.84068 0.82665 0.0
H355 H 0.10227 0.69043 0.73409 0.0
H356 H 0.35149 0.78277 0.79457 0.0
H357 H 0.4286 0.80599 0.72633 0.0
H358 H 0.15873 0.71886 0.71809 0.0
H359 H 0.27004 0.64741 0.61261 0.0
H360 H 0.41869 0.77156 0.66399 0.0
H361 H 0.38162 0.72522 0.61742 0.0
H362 H 0.2593 0.85791 0.88901 0.0
H363 H 0.32613 0.67879 0.59794 0.0
H364 H 0.0888 0.70359 0.79581 0.0
N365 N 0.22342 0.79655 0.81589 0.0
C366 C 0.19397 0.78064 0.82778 0.0
C367 C 0.24094 0.83572 0.87227 0.0
C368 C 0.18736 0.79084 0.86287 0.0
C369 C 0.24589 0.82519 0.83699 0.0
C370 C 0.21175 0.81811 0.88546 0.0
N371 N 0.17683 0.7467 0.77041 0.0
C372 C 0.15294 0.72448 0.74508 0.0
C373 C 0.13784 0.74001 0.81441 0.0
C374 C 0.16953 0.75554 0.80403 0.0
C375 C 0.1135 0.71606 0.78893 0.0
C376 C 0.12103 0.70849 0.75405 0.0
H377 H 0.20771 0.82671 0.91265 0.0
H378 H 0.15078 0.78172 0.90078 0.0
H379 H 0.10741 0.73722 0.85829 0.0
O380 O 0.20778 0.78322 0.71539 0.0
O381 O 0.21011 0.72754 0.77145 0.0
O382 O 0.2578 0.7285 0.79076 0.0
O383 O 0.21818 0.81831 0.76578 0.0
O384 O 0.22338 0.74068 0.7072 0.0
O385 O 0.23516 0.69865 0.71957 0.0
O386 O 0.31508 0.7041 0.76565 0.0
O387 O 0.2871 0.75149 0.70704 0.0
O388 O 0.27816 0.7962 0.74059 0.0
O389 O 0.26561 0.67111 0.74215 0.0
O390 O 0.29313 0.76023 0.79464 0.0
O391 O 0.27902 0.8011 0.78268 0.0
C392 C 0.22602 0.71674 0.78938 0.0
C393 C 0.21954 0.83869 0.71583 0.0
C394 C 0.20855 0.86385 0.67257 0.0
C395 C 0.23942 0.8901 0.68174 0.0
C396 C 0.25012 0.86542 0.72543 0.0
C397 C 0.25994 0.89099 0.70834 0.0
C398 C 0.19877 0.8382 0.68962 0.0
C399 C 0.22199 0.71015 0.69928 0.0
C400 C 0.20786 0.8115 0.73327 0.0
C401 C 0.15624 0.77439 0.87386 0.0
C402 C 0.1315 0.74913 0.84964 0.0
C403 C 0.2898 0.78237 0.71303 0.0
C404 C 0.29661 0.64582 0.76553 0.0
C405 C 0.32465 0.624 0.79843 0.0
C406 C 0.30472 0.59154 0.77944 0.0
C407 C 0.27653 0.61323 0.74725 0.0
C408 C 0.32046 0.65113 0.79142 0.0
C409 C 0.28067 0.58625 0.75417 0.0
C410 C 0.29414 0.79073 0.80237 0.0
C411 C 0.29229 0.67411 0.75792 0.0
H412 H 0.24707 0.91047 0.66927 0.0
H413 H 0.26611 0.86675 0.74636 0.0
H414 H 0.28319 0.91193 0.71617 0.0
H415 H 0.17474 0.81807 0.68281 0.0
H416 H 0.30752 0.57025 0.7845 0.0
H417 H 0.25782 0.60862 0.72742 0.0
H418 H 0.33586 0.67621 0.80592 0.0
H419 H 0.26523 0.56116 0.73988 0.0
Tb420 Tb 0.25684 0.21642 0.77973 0.0
C421 C 0.34023 0.29759 0.67494 0.0
N422 N 0.32809 0.30967 0.70485 0.0
C423 C 0.37966 0.3566 0.72142 0.0
C424 C 0.37308 0.31398 0.66803 0.0
C425 C 0.34688 0.3397 0.72712 0.0
C426 C 0.39295 0.34347 0.69204 0.0
C427 C 0.33117 0.2561 0.61928 0.0
C428 C 0.31947 0.26902 0.65054 0.0
C429 C 0.3641 0.27194 0.61291 0.0
C430 C 0.38496 0.30077 0.63717 0.0
Tb431 Tb 0.27421 0.27809 0.70971 0.0
N432 N 0.288 0.25325 0.65806 0.0
C433 C 0.30939 0.22758 0.5954 0.0
C434 C 0.26615 0.22679 0.634 0.0
C435 C 0.27664 0.21315 0.60257 0.0
H436 H 0.33682 0.3513 0.74908 0.0
H437 H 0.25945 0.19166 0.58385 0.0
H438 H 0.19983 0.14075 0.74066 0.0
H439 H 0.26999 0.29251 0.91144 0.0
H440 H 0.24077 0.21631 0.63906 0.0
H441 H 0.31748 0.21683 0.57111 0.0
H442 H 0.28876 0.27351 0.85377 0.0
H443 H 0.39455 0.38 0.73949 0.0
H444 H 0.37364 0.26222 0.58917 0.0
H445 H 0.4102 0.3129 0.63162 0.0
H446 H 0.14327 0.10627 0.75002 0.0
H447 H 0.41831 0.35676 0.68765 0.0
H448 H 0.21236 0.26402 0.92386 0.0
N449 N 0.20503 0.18035 0.78581 0.0
C450 C 0.19175 0.19005 0.81576 0.0
C451 C 0.1565 0.12997 0.76851 0.0
C452 C 0.15984 0.1705 0.82274 0.0
C453 C 0.18847 0.14994 0.76304 0.0
C454 C 0.14194 0.1405 0.79824 0.0
N455 N 0.24194 0.23639 0.83329 0.0
C456 C 0.26352 0.26165 0.85874 0.0
C457 C 0.19916 0.2284 0.87307 0.0
C458 C 0.211 0.2187 0.84057 0.0
C459 C 0.22048 0.25584 0.89848 0.0
C460 C 0.25302 0.27204 0.89156 0.0
H461 H 0.11731 0.1248 0.8026 0.0
H462 H 0.1227 0.16639 0.86008 0.0
H463 H 0.15719 0.217 0.90421 0.0
O464 O 0.29989 0.22242 0.80648 0.0
O465 O 0.23707 0.25609 0.79407 0.0
O466 O 0.24719 0.29054 0.75499 0.0
O467 O 0.25878 0.17535 0.79415 0.0
O468 O 0.29908 0.25712 0.76927 0.0
O469 O 0.29727 0.30394 0.76212 0.0
O470 O 0.2378 0.27612 0.67507 0.0
O471 O 0.29582 0.2397 0.70127 0.0
O472 O 0.27084 0.19588 0.72829 0.0
O473 O 0.28055 0.32104 0.694 0.0
O474 O 0.22852 0.24011 0.71834 0.0
O475 O 0.22977 0.19338 0.72829 0.0
C476 C 0.23448 0.28069 0.78318 0.0
C477 C 0.29485 0.18625 0.84279 0.0
C478 C 0.32491 0.16747 0.87751 0.0
C479 C 0.30883 0.17627 0.90693 0.0
C480 C 0.27842 0.194 0.87231 0.0
C481 C 0.2856 0.18925 0.90423 0.0
C482 C 0.31779 0.17249 0.84538 0.0
C483 C 0.30484 0.2884 0.78208 0.0
C484 C 0.28828 0.19183 0.80899 0.0
C485 C 0.14726 0.18095 0.85438 0.0
C486 C 0.16691 0.20978 0.87953 0.0
C487 C 0.29118 0.21022 0.70639 0.0
C488 C 0.23164 0.32719 0.68624 0.0
C489 C 0.19539 0.35099 0.66997 0.0
C490 C 0.19575 0.36683 0.7054 0.0
C491 C 0.2319 0.34369 0.72146 0.0
C492 C 0.21319 0.33082 0.66032 0.0
C493 C 0.21393 0.36319 0.73092 0.0
C494 C 0.22098 0.20829 0.70827 0.0
C495 C 0.25198 0.30779 0.67685 0.0
H496 H 0.31374 0.17238 0.93182 0.0
H497 H 0.25988 0.2034 0.87076 0.0
H498 H 0.27293 0.19542 0.92693 0.0
H499 H 0.33023 0.1659 0.82256 0.0
H500 H 0.18226 0.38248 0.71324 0.0
H501 H 0.24649 0.34207 0.74175 0.0
H502 H 0.2133 0.31879 0.63296 0.0
H503 H 0.21447 0.37588 0.7581 0.0
Tb504 Tb 0.73311 0.27612 0.74537 0.0
C505 C 0.79517 0.19668 0.80653 0.0
N506 N 0.80544 0.22912 0.80632 0.0
C507 C 0.82004 0.24573 0.86814 0.0
C508 C 0.79511 0.18732 0.838 0.0
C509 C 0.8198 0.25369 0.83611 0.0
C510 C 0.80702 0.21238 0.86921 0.0
C511 C 0.77618 0.1391 0.77348 0.0
C512 C 0.78572 0.17301 0.77477 0.0
C513 C 0.77468 0.12936 0.80487 0.0
C514 C 0.784 0.15342 0.8371 0.0
Tb515 Tb 0.80025 0.23902 0.75325 0.0
N516 N 0.78737 0.18343 0.74506 0.0
C517 C 0.76911 0.11618 0.74066 0.0
C518 C 0.78286 0.16149 0.71302 0.0
C519 C 0.77305 0.12752 0.7103 0.0
H520 H 0.83077 0.27937 0.83525 0.0
H521 H 0.76882 0.11016 0.68479 0.0
H522 H 0.6901 0.22492 0.66984 0.0
H523 H 0.80284 0.40881 0.78249 0.0
H524 H 0.78706 0.17011 0.68948 0.0
H525 H 0.76166 0.08987 0.73848 0.0
H526 H 0.77641 0.35277 0.79226 0.0
H527 H 0.83042 0.26525 0.89192 0.0
H528 H 0.76692 0.10336 0.80446 0.0
H529 H 0.78332 0.14563 0.86104 0.0
H530 H 0.68535 0.22745 0.60909 0.0
H531 H 0.80734 0.20625 0.89401 0.0
H532 H 0.79921 0.41681 0.72323 0.0
N533 N 0.72448 0.27509 0.68791 0.0
C534 C 0.73873 0.30498 0.67991 0.0
C535 C 0.7009 0.24937 0.62864 0.0
C536 C 0.73552 0.30797 0.64563 0.0
C537 C 0.7044 0.24779 0.66316 0.0
C538 C 0.71687 0.2795 0.61971 0.0
N539 N 0.75932 0.32884 0.73882 0.0
C540 C 0.77536 0.35574 0.76615 0.0
C541 C 0.77066 0.36452 0.69961 0.0
C542 C 0.7561 0.33289 0.70641 0.0
C543 C 0.78773 0.39207 0.72734 0.0
C544 C 0.79001 0.38764 0.76078 0.0
H545 H 0.71385 0.28071 0.59303 0.0
H546 H 0.74831 0.34207 0.61229 0.0
H547 H 0.77917 0.39157 0.65958 0.0
O548 O 0.71462 0.30637 0.77967 0.0
O549 O 0.783 0.29508 0.72944 0.0
O550 O 0.79244 0.24936 0.70399 0.0
O551 O 0.68281 0.26602 0.73859 0.0
O552 O 0.75927 0.29223 0.79687 0.0
O553 O 0.80929 0.29024 0.78227 0.0
O554 O 0.84091 0.22647 0.74581 0.0
O555 O 0.76442 0.23523 0.79268 0.0
O556 O 0.7172 0.23302 0.76764 0.0
O557 O 0.84631 0.27684 0.75116 0.0
O558 O 0.76374 0.2112 0.70767 0.0
O559 O 0.71763 0.22337 0.71965 0.0
C560 C 0.79417 0.27883 0.70376 0.0
C561 C 0.66326 0.2765 0.79538 0.0
C562 C 0.65009 0.29152 0.85575 0.0
C563 C 0.62747 0.25863 0.8521 0.0
C564 C 0.64057 0.24362 0.79172 0.0
C565 C 0.6229 0.23477 0.82019 0.0
C566 C 0.66818 0.29973 0.82751 0.0
C567 C 0.79091 0.3021 0.8033 0.0
C568 C 0.68454 0.28765 0.76793 0.0
C569 C 0.75045 0.33932 0.63849 0.0
C570 C 0.76792 0.36754 0.66543 0.0
C571 C 0.73252 0.22351 0.7879 0.0
C572 C 0.87533 0.25568 0.70821 0.0
C573 C 0.87894 0.2265 0.64851 0.0
C574 C 0.90459 0.25544 0.64426 0.0
C575 C 0.90112 0.28442 0.70381 0.0
C576 C 0.86404 0.22707 0.6802 0.0
C577 C 0.91569 0.28419 0.67195 0.0
C578 C 0.73208 0.20407 0.70316 0.0
C579 C 0.85974 0.25553 0.74157 0.0
H580 H 0.61285 0.25159 0.87343 0.0
H581 H 0.6368 0.22485 0.7673 0.0
H582 H 0.60542 0.20945 0.81745 0.0
H583 H 0.68659 0.32477 0.83057 0.0
H584 H 0.91698 0.25532 0.62025 0.0
H585 H 0.91014 0.30685 0.72504 0.0
H586 H 0.8442 0.20463 0.6832 0.0
H587 H 0.93626 0.30609 0.66908 0.0
Tb588 Tb 0.73197 0.73827 0.7063 0.0
C589 C 0.81375 0.83105 0.84542 0.0
N590 N 0.82474 0.81764 0.81531 0.0
C591 C 0.86833 0.87087 0.81825 0.0
C592 C 0.82901 0.86529 0.86218 0.0
C593 C 0.8525 0.83683 0.80244 0.0
C594 C 0.85635 0.88524 0.84798 0.0
C595 C 0.77457 0.82372 0.89022 0.0
C596 C 0.78689 0.81041 0.85965 0.0
C597 C 0.78951 0.85789 0.9065 0.0
C598 C 0.81665 0.87856 0.8926 0.0
Tb599 Tb 0.79564 0.76162 0.79375 0.0
N600 N 0.77178 0.77759 0.84237 0.0
C601 C 0.74733 0.8023 0.9033 0.0
C602 C 0.74652 0.75632 0.85605 0.0
C603 C 0.73351 0.76839 0.88637 0.0
H604 H 0.86333 0.82622 0.78055 0.0
H605 H 0.71301 0.75153 0.8968 0.0
H606 H 0.65708 0.68664 0.72173 0.0
H607 H 0.78979 0.73671 0.58516 0.0
H608 H 0.73675 0.73015 0.844 0.0
H609 H 0.73706 0.81161 0.92667 0.0
H610 H 0.77769 0.76265 0.64417 0.0
H611 H 0.89003 0.88596 0.80771 0.0
H612 H 0.78024 0.86861 0.9299 0.0
H613 H 0.82795 0.90485 0.90562 0.0
H614 H 0.6204 0.6278 0.69793 0.0
H615 H 0.86874 0.91164 0.86014 0.0
H616 H 0.76061 0.67599 0.55975 0.0
N617 N 0.6936 0.68501 0.68595 0.0
C618 C 0.70031 0.66747 0.65561 0.0
C619 C 0.64308 0.63848 0.68612 0.0
C620 C 0.67925 0.63417 0.64016 0.0
C621 C 0.6643 0.6717 0.69994 0.0
C622 C 0.65092 0.61939 0.65652 0.0
N623 N 0.74524 0.71669 0.65283 0.0
C624 C 0.76622 0.73605 0.63362 0.0
C625 C 0.73198 0.66816 0.60448 0.0
C626 C 0.72656 0.68406 0.63806 0.0
C627 C 0.75582 0.68722 0.58576 0.0
C628 C 0.77245 0.7215 0.60006 0.0
H629 H 0.63415 0.59384 0.64551 0.0
H630 H 0.67052 0.59161 0.59593 0.0
H631 H 0.71653 0.62145 0.56456 0.0
O632 O 0.73318 0.78247 0.6958 0.0
O633 O 0.77023 0.71758 0.69576 0.0
O634 O 0.80274 0.72739 0.7467 0.0
O635 O 0.69509 0.7352 0.67237 0.0
O636 O 0.77528 0.78264 0.72981 0.0
O637 O 0.82002 0.77856 0.74981 0.0
O638 O 0.79914 0.73004 0.8239 0.0
O639 O 0.76057 0.78647 0.79467 0.0
O640 O 0.71361 0.75458 0.75664 0.0
O641 O 0.84044 0.77395 0.82056 0.0
O642 O 0.75736 0.71271 0.77106 0.0
O643 O 0.71191 0.71541 0.74883 0.0
C644 C 0.79264 0.71315 0.71303 0.0
C645 C 0.67978 0.77996 0.68691 0.0
C646 C 0.64734 0.80997 0.67613 0.0
C647 C 0.6268 0.79824 0.70195 0.0
C648 C 0.65882 0.76871 0.71237 0.0
C649 C 0.63261 0.7779 0.71988 0.0
C650 C 0.67403 0.8006 0.6687 0.0
C651 C 0.80531 0.78522 0.72642 0.0
C652 C 0.70526 0.76708 0.67717 0.0
C653 C 0.68619 0.61733 0.60798 0.0
C654 C 0.7124 0.63434 0.59009 0.0
C655 C 0.73006 0.77952 0.78369 0.0
C656 C 0.85172 0.72782 0.82202 0.0
C657 C 0.87778 0.69308 0.83563 0.0
C658 C 0.89548 0.69642 0.80585 0.0
C659 C 0.86969 0.73042 0.79222 0.0
C660 C 0.85575 0.70888 0.84384 0.0
C661 C 0.89145 0.71498 0.78437 0.0
C662 C 0.7259 0.70481 0.76922 0.0
C663 C 0.8306 0.74666 0.83076 0.0
H664 H 0.6055 0.80396 0.70774 0.0
H665 H 0.66201 0.75173 0.72555 0.0
H666 H 0.61618 0.76849 0.73901 0.0
H667 H 0.68998 0.80893 0.64869 0.0
H668 H 0.91257 0.6846 0.79922 0.0
H669 H 0.86715 0.7447 0.77497 0.0
H670 H 0.84233 0.70685 0.86708 0.0
H671 H 0.90524 0.71739 0.76146 0.0
Cd672 Cd 0.97326 0.96625 0.53466 0.0
Cd673 Cd 0.04076 0.04021 0.46968 0.0
C674 C 0.0336 0.96091 0.5667 0.0
N675 N 0.0145 0.94745 0.53614 0.0
C676 C 0.03981 0.90899 0.51684 0.0
C677 C 0.06013 0.92297 0.54814 0.0
C678 C 0.05668 0.9492 0.57315 0.0
C679 C 0.01688 0.92173 0.51134 0.0
H680 H 0.03004 0.97985 0.58698 0.0
H681 H 1.00064 0.91078 0.48773 0.0
C682 C 0.9826 0.96955 0.44461 0.0
C683 C 0.97584 0.05154 0.4654 0.0
C684 C 0.95557 0.06624 0.45784 0.0
C685 C 0.9687 0.10044 0.45979 0.0
C686 C 1.00175 0.11942 0.4717 0.0
C687 C 0.02123 0.10359 0.47899 0.0
N688 N 1.00813 0.07009 0.47478 0.0
H689 H 0.96629 0.02491 0.46128 0.0
H690 H 0.04714 0.1177 0.48585 0.0
C691 C 0.06559 0.98598 0.47742 0.0
N692 N 0.0769 0.01962 0.48493 0.0
C693 C 0.13179 0.02491 0.49343 0.0
C694 C 0.12063 0.9902 0.48415 0.0
C695 C 0.0871 0.97067 0.47718 0.0
C696 C 0.10916 0.03932 0.49394 0.0
H697 H 0.04031 0.97085 0.46885 0.0
H698 H 0.11768 0.06602 0.499 0.0
C699 C 0.02732 0.03761 0.55808 0.0
C700 C 0.93177 0.91867 0.56593 0.0
N701 N 0.93876 0.99197 0.53196 0.0
C702 C 0.93945 0.01511 0.5616 0.0
C703 C 0.92336 0.0357 0.56141 0.0
C704 C 0.90606 0.03189 0.53057 0.0
C705 C 0.90333 0.00614 0.5011 0.0
C706 C 0.92026 0.98618 0.50236 0.0
C707 C 0.08575 0.076 0.42939 0.0
O708 O 0.98715 0.97576 0.47749 0.0
O709 O 1.00191 0.99035 0.42924 0.0
O710 O 0.02211 0.02888 0.5251 0.0
O711 O 1.00871 0.01806 0.57507 0.0
O712 O 0.92853 0.91296 0.53268 0.0
O713 O 0.95294 0.94639 0.5831 0.0
O714 O 0.0874 0.08827 0.46238 0.0
O715 O 0.06314 0.04763 0.41625 0.0
H716 H 0.95342 0.01832 0.58507 0.0
H717 H 0.91971 0.96708 0.47943 0.0
H718 H 0.04162 0.88855 0.49698 0.0
H719 H 0.07083 0.95982 0.59823 0.0
H720 H 0.93043 0.05047 0.44816 0.0
H721 H 0.01276 0.1459 0.47377 0.0
H722 H 0.15771 0.04049 0.498 0.0
H723 H 0.07797 0.9438 0.46833 0.0
H724 H 0.92535 0.05522 0.5847 0.0
H725 H 0.88985 0.00274 0.47709 0.0
Cd726 Cd 0.47384 0.98962 0.04829 0.0
Cd727 Cd 0.55263 0.00838 0.94761 0.0
C728 C 0.53538 0.98475 0.08956 0.0
N729 N 0.5106 0.96827 0.0638 0.0
C730 C 0.52409 0.92056 0.05129 0.0
C731 C 0.55009 0.93707 0.07732 0.0
C732 C 0.55575 0.96964 0.0965 0.0
C733 C 0.50475 0.93677 0.0448 0.0
H734 H 0.53936 0.00954 0.10486 0.0
H735 H 0.48481 0.92415 0.02461 0.0
C736 C 0.47921 0.95494 0.9557 0.0
C737 C 0.50133 0.02003 0.89869 0.0
C738 C 0.48038 0.03413 0.89074 0.0
C739 C 0.47133 0.05504 0.91775 0.0
C740 C 0.48346 0.06116 0.95223 0.0
C741 C 0.5048 0.04717 0.95888 0.0
N742 N 0.51337 0.02702 0.93233 0.0
H743 H 0.50852 0.00409 0.87792 0.0
H744 H 0.51501 0.05303 0.98527 0.0
C745 C 0.57219 0.95189 0.89296 0.0
N746 N 0.57771 0.96859 0.92752 0.0
C747 C 0.61542 0.94401 0.93527 0.0
C748 C 0.61063 0.92684 0.89945 0.0
C749 C 0.58822 0.93091 0.87849 0.0
C750 C 0.59882 0.9648 0.94871 0.0
H751 H 0.55563 0.95529 0.8763 0.0
H752 H 0.60342 0.97852 0.97599 0.0
C753 C 0.54696 0.04281 0.03918 0.0
C754 C 0.42826 0.93791 0.07416 0.0
N755 N 0.44667 0.02808 0.06671 0.0
C756 C 0.46309 0.06045 0.08487 0.0
C757 C 0.4462 0.08099 0.098 0.0
C758 C 0.4118 0.06842 0.09279 0.0
C759 C 0.39565 0.03505 0.07342 0.0
C760 C 0.41348 0.01541 0.06073 0.0
C761 C 0.59697 0.06004 0.92022 0.0
O762 O 0.48568 0.97486 0.98602 0.0
O763 O 0.50042 0.96032 0.93307 0.0
O764 O 0.54072 0.02119 0.00998 0.0
O765 O 0.52586 0.03833 0.06198 0.0
O766 O 0.42381 0.93903 0.04283 0.0
O767 O 0.45266 0.96143 0.09309 0.0
O768 O 0.60096 0.06086 0.95234 0.0
O769 O 0.57388 0.03476 0.90154 0.0
H770 H 0.48932 0.07032 0.09007 0.0
H771 H 0.40057 0.98968 0.04652 0.0
H772 H 0.51905 0.89552 0.03575 0.0
H773 H 0.57538 0.98306 0.11703 0.0
H774 H 0.4713 0.02876 0.86383 0.0
H775 H 0.47727 0.07741 0.97372 0.0
H776 H 0.63258 0.94226 0.9527 0.0
H777 H 0.58295 0.91798 0.85098 0.0
H778 H 0.46004 0.10624 0.11308 0.0
H779 H 0.36935 0.024 0.068 0.0
Cd780 Cd 0.97736 0.49522 0.05101 0.0
Cd781 Cd 0.04831 0.49889 0.94643 0.0
C782 C 0.03359 0.48401 0.09417 0.0
N783 N 0.01119 0.47045 0.06606 0.0
C784 C 0.02327 0.42191 0.05089 0.0
C785 C 0.04689 0.43531 0.07945 0.0
C786 C 0.05199 0.46694 0.10115 0.0
C787 C 1.0058 0.43998 0.04463 0.0
H788 H 0.03722 0.50806 0.11124 0.0
H789 H 0.98746 0.42947 0.02284 0.0
C790 C 0.97356 0.45511 0.95926 0.0
C791 C 1.00024 0.51473 0.89703 0.0
C792 C 0.98145 0.53098 0.88876 0.0
C793 C 0.9755 0.55496 0.91511 0.0
C794 C 0.98829 0.5614 0.94948 0.0
C795 C 1.00704 0.54476 0.95653 0.0
N796 N 0.01285 0.52202 0.93048 0.0
H797 H 1.00519 0.49669 0.87663 0.0
H798 H 0.01754 0.55061 0.98284 0.0
C799 C 0.05682 0.42625 0.91377 0.0
N800 N 0.07347 0.45867 0.93162 0.0
C801 C 0.12429 0.4514 0.92501 0.0
C802 C 0.108 0.41806 0.90568 0.0
C803 C 0.07357 0.40551 0.90077 0.0
C804 C 0.10663 0.47118 0.93761 0.0
H805 H 0.0306 0.41667 0.90841 0.0
H806 H 0.11968 0.49705 0.9513 0.0
C807 C 0.05395 0.53945 0.0401 0.0
C808 C 0.93077 0.44571 0.07835 0.0
N809 N 0.95336 0.53608 0.06889 0.0
C810 C 0.96904 0.56581 0.09281 0.0
C811 C 0.95282 0.58702 0.10587 0.0
C812 C 0.91989 0.5777 0.09463 0.0
C813 C 0.90464 0.54714 0.06938 0.0
C814 C 0.92176 0.52677 0.05696 0.0
C815 C 0.09633 0.54445 0.91553 0.0
O816 O 0.98463 0.47657 0.98835 0.0
O817 O 0.99278 0.45504 0.9347 0.0
O818 O 0.04402 0.51999 0.00972 0.0
O819 O 0.03332 0.53852 0.06336 0.0
O820 O 0.9264 0.44613 0.04673 0.0
O821 O 0.95544 0.4691 0.09694 0.0
O822 O 0.09616 0.5499 0.94877 0.0
O823 O 0.07456 0.51757 0.89729 0.0
H824 H 0.99391 0.57274 0.10262 0.0
H825 H 0.90943 0.50298 0.0383 0.0
H826 H 0.01779 0.39738 0.03381 0.0
H827 H 0.07015 0.47854 0.12322 0.0
H828 H 0.97176 0.52491 0.86196 0.0
H829 H 0.98478 0.57992 0.97062 0.0
H830 H 0.15062 0.46239 0.93017 0.0
H831 H 0.05968 0.38023 0.88577 0.0
H832 H 0.96571 0.60999 0.12557 0.0
H833 H 0.87955 0.53881 0.05935 0.0
Cd834 Cd 0.47357 0.4603 0.02707 0.0
Cd835 Cd 0.54418 0.53244 0.96364 0.0
C836 C 0.5389 0.45054 0.03044 0.0
N837 N 0.50661 0.43091 0.02345 0.0
C838 C 0.5156 0.38456 0.03252 0.0
C839 C 0.54866 0.40532 0.04278 0.0
C840 C 0.56033 0.4383 0.04036 0.0
C841 C 0.49468 0.39813 0.02321 0.0
H842 H 0.54765 0.47643 0.03093 0.0
H843 H 0.46871 0.38314 0.01828 0.0
C844 C 0.48964 0.46163 0.9392 0.0
C845 C 0.47679 0.53644 0.94792 0.0
C846 C 0.45535 0.55028 0.94187 0.0
C847 C 0.46338 0.58444 0.95584 0.0
C848 C 0.49249 0.6034 0.97758 0.0
C849 C 0.51353 0.58841 0.98277 0.0
N850 N 0.50562 0.55565 0.96725 0.0
H851 H 0.47099 0.51068 0.93538 0.0
H852 H 0.53689 0.60325 -0.0024 0.0
C853 C 0.5762 0.4818 0.94466 0.0
N854 N 0.57898 0.50804 0.97178 0.0
C855 C 0.61585 0.49721 0.00462 0.0
C856 C 0.61006 0.4678 0.97862 0.0
C857 C 0.59154 0.46119 0.94753 0.0
C858 C 0.59966 0.51719 0.00068 0.0
H859 H 0.56115 0.47617 0.92115 0.0
H860 H 0.60245 0.5389 0.0213 0.0
C861 C 0.53318 0.52979 0.05412 0.0
C862 C 0.4279 0.42231 0.06496 0.0
N863 N 0.44135 0.48666 0.01488 0.0
C864 C 0.45558 0.52038 0.02479 0.0
C865 C 0.43707 0.53892 0.02658 0.0
C866 C 0.40325 0.52265 0.01914 0.0
C867 C 0.389 0.48796 0.00648 0.0
C868 C 0.40885 0.47015 0.00453 0.0
C869 C 0.58765 0.57306 0.9268 0.0
O870 O 0.49361 0.47112 0.97224 0.0
O871 O 0.50824 0.48135 0.92237 0.0
O872 O 0.53015 0.52332 0.02103 0.0
O873 O 0.5129 0.50897 0.06885 0.0
O874 O 0.42601 0.41143 0.0317 0.0
O875 O 0.45022 0.45061 0.07891 0.0
O876 O 0.58944 0.58343 0.96012 0.0
O877 O 0.56561 0.54478 0.9124 0.0
H878 H 0.48091 0.53323 0.03358 0.0
H879 H 0.398 0.44324 -0.00283 0.0
H880 H 0.50555 0.35897 0.03422 0.0
H881 H 0.58565 0.455 0.04776 0.0
H882 H 0.43377 0.53452 0.92429 0.0
H883 H 0.49959 0.62973 0.98924 0.0
H884 H 0.63073 0.50337 0.02855 0.0
H885 H 0.58783 0.43945 0.92619 0.0
H886 H 0.44876 0.56576 0.03642 0.0
H887 H 0.36278 0.47484 0.00077 0.0
Cd888 Cd 0.97516 0.49071 0.54845 0.0
Cd889 Cd 0.05081 0.50455 0.44939 0.0
C890 C 0.03393 0.48537 0.59282 0.0
N891 N 0.01325 0.47094 0.56331 0.0
C892 C 0.03294 0.42756 0.54695 0.0
C893 C 0.05455 0.44175 0.57726 0.0
C894 C 0.0551 0.47132 0.60013 0.0
C895 C 0.01251 0.44265 0.54048 0.0
H896 H 0.03394 0.5077 0.6108 0.0
H897 H 0.99551 0.43143 0.51745 0.0
C898 C 0.97646 0.45653 0.45697 0.0
C899 C 1.00474 0.51937 0.39769 0.0
C900 C 0.98404 0.53329 0.38871 0.0
C901 C 0.97248 0.55247 0.41518 0.0
C902 C 0.98217 0.557 0.45024 0.0
C903 C 1.00307 0.54293 0.45796 0.0
N904 N 0.01383 0.52444 0.43189 0.0
H905 H 0.0139 0.50493 0.37736 0.0
H906 H 0.01083 0.54698 0.48494 0.0
C907 C 0.0704 0.44736 0.39877 0.0
N908 N 0.0751 0.46415 0.43324 0.0
C909 C 0.11289 0.44032 0.44285 0.0
C910 C 0.10928 0.42352 0.40701 0.0
C911 C 0.08712 0.42695 0.38518 0.0
C912 C 0.09569 0.4607 0.45539 0.0
H913 H 0.05428 0.45061 0.38142 0.0
H914 H 0.09967 0.4746 0.48258 0.0
C915 C 0.04846 0.54208 0.54055 0.0
C916 C 0.93055 0.43562 0.56933 0.0
N917 N 0.94839 0.52877 0.56793 0.0
C918 C 0.96371 0.55859 0.59178 0.0
C919 C 0.94697 0.57917 0.60504 0.0
C920 C 0.91388 0.56924 0.59392 0.0
C921 C 0.89893 0.53849 0.56885 0.0
C922 C 0.91657 0.51867 0.55632 0.0
C923 C 0.09905 0.55343 0.42244 0.0
O924 O 0.98562 0.47744 0.48649 0.0
O925 O 0.99653 0.45882 0.43313 0.0
O926 O 0.04145 0.5196 0.51197 0.0
O927 O 0.02754 0.53882 0.56355 0.0
O928 O 0.92697 0.43813 0.53838 0.0
O929 O 0.95311 0.45961 0.59023 0.0
O930 O 0.09527 0.55899 0.45516 0.0
O931 O 0.08103 0.52514 0.40303 0.0
H932 H 0.98881 0.56622 0.60125 0.0
H933 H 0.9046 0.49485 0.53758 0.0
H934 H 0.03114 0.40456 0.52879 0.0
H935 H 0.0717 0.48355 0.62349 0.0
H936 H 0.97774 0.5296 0.36129 0.0
H937 H 0.97365 0.57117 0.4716 0.0
H938 H 0.12975 0.43878 0.46084 0.0
H939 H 0.08284 0.41417 0.35759 0.0
H940 H 0.95971 0.60224 0.62465 0.0
H941 H 0.87376 0.52965 0.55882 0.0
Cd942 Cd 0.47362 0.98881 0.5457 0.0
Cd943 Cd 0.54826 0.00224 0.44653 0.0
C944 C 0.52191 0.9706 0.59003 0.0
N945 N 0.50659 0.96212 0.55765 0.0
C946 C 0.52771 0.92019 0.53727 0.0
C947 C 0.54436 0.92911 0.57013 0.0
C948 C 0.54138 0.9546 0.59673 0.0
C949 C 0.50896 0.93727 0.5315 0.0
H950 H 0.51924 0.99002 0.61061 0.0
H951 H 0.49603 0.93045 0.50622 0.0
C952 C 0.47315 0.95477 0.45264 0.0
C953 C 0.49777 0.01651 0.40053 0.0
C954 C 0.47861 0.03253 0.39286 0.0
C955 C 0.47616 0.05922 0.41842 0.0
C956 C 0.49245 0.06827 0.45168 0.0
C957 C 0.51094 0.05127 0.45834 0.0
N958 N 0.51341 0.02607 0.43287 0.0
H959 H 0.50059 -0.00321 0.38053 0.0
H960 H 0.52408 0.05877 0.48366 0.0
C961 C 0.56934 0.94675 0.39544 0.0
N962 N 0.57023 0.9603 0.43043 0.0
C963 C 0.60229 0.93128 0.44216 0.0
C964 C 0.60238 0.91742 0.40598 0.0
C965 C 0.58527 0.92544 0.38269 0.0
C966 C 0.58617 0.9528 0.45382 0.0
H967 H 0.55706 0.95337 0.37716 0.0
H968 H 0.58704 0.96409 0.48153 0.0
C969 C 0.55232 0.03179 0.54225 0.0
C970 C 0.4265 0.9405 0.57474 0.0
N971 N 0.45189 0.03133 0.56266 0.0
C972 C 0.46465 0.05647 0.59225 0.0
C973 C 0.44918 0.07825 0.60556 0.0
C974 C 0.41985 0.07421 0.58869 0.0
C975 C 0.40779 0.0485 0.5576 0.0
C976 C 0.42413 0.02735 0.54514 0.0
C977 C 0.59825 0.04904 0.41827 0.0
O978 O 0.48239 0.9746 0.48293 0.0
O979 O 0.49374 0.95768 0.42933 0.0
O980 O 0.54337 0.018 0.51002 0.0
O981 O 0.53063 0.02871 0.56444 0.0
O982 O 0.42333 0.93851 0.54217 0.0
O983 O 0.44991 0.96569 0.59309 0.0
O984 O 0.59687 0.05368 0.45132 0.0
O985 O 0.57684 0.02257 0.39904 0.0
H986 H 0.4864 0.05908 0.60626 0.0
H987 H 0.41384 0.00687 0.5221 0.0
H988 H 0.52929 0.90034 0.51634 0.0
H989 H 0.5536 0.96168 0.62255 0.0
H990 H 0.46619 0.02433 0.367 0.0
H991 H 0.49188 0.08899 0.47207 0.0
H992 H 0.61467 0.92576 0.4614 0.0
H993 H 0.585 0.9163 0.35461 0.0
H994 H 0.46004 0.09787 0.62916 0.0
H995 H 0.38517 0.04375 0.54365 0.0
C996 C 0.21639 0.16091 0.30256 0.0
C997 C 0.20779 0.18486 0.29391 0.0
C998 C 0.19785 0.14213 0.32491 0.0
C999 C 0.1708 0.14823 0.33933 0.0
C1000 C 0.16221 0.17256 0.33077 0.0
C1001 C 0.18056 0.19029 0.30765 0.0
C1002 C 0.20712 0.11588 0.3332 0.0
C1003 C 0.13393 0.18016 0.34641 0.0
C1004 C 0.10208 0.0823 0.3703 0.0
C1005 C 0.10866 0.09386 0.40673 0.0
C1006 C 0.1227 0.09935 0.34799 0.0
C1007 C 0.15064 0.12849 0.36256 0.0
C1008 C 0.15803 0.13982 0.39929 0.0
C1009 C 0.13672 0.12238 0.42108 0.0
C1010 C 0.11404 0.08673 0.3089 0.0
C1011 C 0.18774 0.1709 0.41555 0.0
H1012 H 0.23758 0.15692 0.29188 0.0
H1013 H 0.17438 0.20937 0.30146 0.0
H1014 H 0.21241 0.12141 0.36188 0.0
H1015 H 0.18631 0.09126 0.32516 0.0
H1016 H 0.22886 0.11421 0.31977 0.0
H1017 H 0.13112 0.20057 0.33777 0.0
H1018 H 0.11085 0.1576 0.33888 0.0
H1019 H 0.13756 0.18737 0.37543 0.0
H1020 H 0.08036 0.06024 0.35913 0.0
H1021 H 0.14192 0.13116 0.44927 0.0
H1022 H 0.13513 0.0838 0.2951 0.0
H1023 H 0.10837 0.1051 0.29916 0.0
H1024 H 0.09257 0.0625 0.30175 0.0
H1025 H 0.20995 0.17032 0.40249 0.0
H1026 H 0.192 0.17417 0.44406 0.0
H1027 H 0.18438 0.19296 0.41184 0.0
C1028 C 0.84926 0.10842 0.32895 0.0
C1029 C 0.83882 0.13452 0.33638 0.0
C1030 C 0.87284 0.10806 0.35124 0.0
C1031 C 0.88588 0.13422 0.38203 0.0
C1032 C 0.87602 0.16119 0.3892 0.0
C1033 C 0.85259 0.16112 0.36605 0.0
C1034 C 0.88303 0.07909 0.34232 0.0
C1035 C 0.88917 0.18924 0.42198 0.0
C1036 C 0.91534 0.10446 0.45037 0.0
C1037 C 0.94882 0.11487 0.4454 0.0
C1038 C 0.89499 0.11311 0.43209 0.0
C1039 C 0.90827 0.1319 0.40739 0.0
C1040 C 0.9424 0.14433 0.40382 0.0
C1041 C 0.96233 0.13577 0.42302 0.0
C1042 C 0.85889 0.10004 0.43748 0.0
C1043 C 0.95755 0.16439 0.37773 0.0
H1044 H 0.83848 0.08797 0.30588 0.0
H1045 H 0.84418 0.18117 0.37172 0.0
H1046 H 0.91006 0.08826 0.34243 0.0
H1047 H 0.87525 0.06477 0.36242 0.0
H1048 H 0.87216 0.06198 0.31626 0.0
H1049 H 0.88165 0.20993 0.42201 0.0
H1050 H 0.88003 0.17973 0.44526 0.0
H1051 H 0.91627 0.19917 0.42486 0.0
H1052 H 0.90462 0.08818 0.46733 0.0
H1053 H 0.9881 0.14357 0.4186 0.0
H1054 H 0.84521 0.07992 0.41416 0.0
H1055 H 0.84977 0.12003 0.44053 0.0
H1056 H 0.85336 0.08986 0.46089 0.0
H1057 H 0.95091 0.14776 0.35082 0.0
H1058 H 0.98466 0.1764 0.38195 0.0
H1059 H 0.94805 0.18392 0.37924 0.0
C1060 C 0.85623 0.81054 0.31437 0.0
C1061 C 0.82448 0.80934 0.31492 0.0
C1062 C 0.88085 0.83523 0.33889 0.0
C1063 C 0.87291 0.85806 0.36514 0.0
C1064 C 0.84025 0.85536 0.36703 0.0
C1065 C 0.81652 0.83165 0.34099 0.0
C1066 C 0.91568 0.83827 0.33538 0.0
C1067 C 0.83068 0.87841 0.39548 0.0
C1068 C 0.93882 0.91298 0.43802 0.0
C1069 C 0.954 0.9412 0.42524 0.0
C1070 C 0.91164 0.88576 0.4192 0.0
C1071 C 0.89949 0.88731 0.38728 0.0
C1072 C 0.91407 0.91633 0.37505 0.0
C1073 C 0.94135 0.94289 0.39412 0.0
C1074 C 0.89646 0.85516 0.43293 0.0
C1075 C 0.90128 0.91909 0.34145 0.0
H1076 H 0.86211 0.79333 0.29365 0.0
H1077 H 0.79169 0.83033 0.34111 0.0
H1078 H 0.93044 0.86168 0.32799 0.0
H1079 H 0.92672 0.83963 0.3608 0.0
H1080 H 0.91738 0.81712 0.3152 0.0
H1081 H 0.80375 0.86888 0.39724 0.0
H1082 H 0.84253 0.88188 0.42129 0.0
H1083 H 0.83912 0.90318 0.38991 0.0
H1084 H 0.94855 0.91197 0.46233 0.0
H1085 H 0.95268 0.96511 0.38475 0.0
H1086 H 0.90059 0.83414 0.41514 0.0
H1087 H 0.8696 0.84764 0.43346 0.0
H1088 H 0.90688 0.85913 0.45968 0.0
H1089 H 0.90302 0.89961 0.31901 0.0
H1090 H 0.91496 0.94379 0.33619 0.0
H1091 H 0.87508 0.91492 0.34268 0.0
C1092 C 0.18256 0.86119 0.3677 0.0
C1093 C 0.15286 0.84398 0.34689 0.0
C1094 C 0.18498 0.88508 0.3991 0.0
C1095 C 0.15728 0.892 0.40915 0.0
C1096 C 0.12657 0.87216 0.39006 0.0
C1097 C 0.12477 0.84826 0.3592 0.0
C1098 C 0.21752 0.90434 0.42021 0.0
C1099 C 0.09602 0.87783 0.40057 0.0
C1100 C 0.14087 0.94748 0.48775 0.0
C1101 C 0.14302 0.9736 0.47366 0.0
C1102 C 0.15031 0.92238 0.4691 0.0
C1103 C 0.16089 0.9232 0.43511 0.0
C1104 C 0.16718 0.95192 0.42292 0.0
C1105 C 0.15841 0.97711 0.44272 0.0
C1106 C 0.14513 0.89344 0.48429 0.0
C1107 C 0.17848 0.95394 0.38679 0.0
H1108 H 0.20426 0.8574 0.35852 0.0
H1109 H 0.1016 0.83397 0.3437 0.0
H1110 H 0.23021 0.92834 0.41323 0.0
H1111 H 0.21417 0.91 0.44872 0.0
H1112 H 0.23358 0.89042 0.41487 0.0
H1113 H 0.074 0.85939 0.3834 0.0
H1114 H 0.09154 0.87621 0.42793 0.0
H1115 H 0.0992 0.90312 0.39928 0.0
H1116 H 0.12882 0.94502 0.51163 0.0
H1117 H 0.15971 -0.00268 0.43178 0.0
H1118 H 0.15117 0.90239 0.51304 0.0
H1119 H 0.16023 0.87962 0.47247 0.0
H1120 H 0.11895 0.87612 0.47988 0.0
H1121 H 0.19977 0.94705 0.38211 0.0
H1122 H 0.18539 0.97926 0.38292 0.0
H1123 H 0.15846 0.93611 0.36676 0.0
C1124 C 0.15642 0.86772 0.65994 0.0
C1125 C 0.18523 0.86497 0.64785 0.0
C1126 C 0.13547 0.87262 0.63833 0.0
C1127 C 0.14327 0.87404 0.60358 0.0
C1128 C 0.17125 0.86898 0.59052 0.0
C1129 C 0.19235 0.8651 0.61313 0.0
C1130 C 0.10621 0.8785 0.65351 0.0
C1131 C 0.17979 0.86925 0.55333 0.0
C1132 C 0.07505 0.87541 0.54989 0.0
C1133 C 0.08378 0.90975 0.55638 0.0
C1134 C 0.0953 0.86304 0.5631 0.0
C1135 C 0.12476 0.88566 0.58321 0.0
C1136 C 0.13477 0.92025 0.58753 0.0
C1137 C 0.11409 0.93183 0.5742 0.0
C1138 C 0.0842 0.82596 0.55729 0.0
C1139 C 0.16639 0.94525 0.60808 0.0
H1140 H 0.15116 0.86768 0.68692 0.0
H1141 H 0.21459 0.86262 0.60387 0.0
H1142 H 0.1099 0.90464 0.65554 0.0
H1143 H 0.08378 0.86214 0.63607 0.0
H1144 H 0.10222 0.87394 0.67999 0.0
H1145 H 0.19717 0.85721 0.54495 0.0
H1146 H 0.15751 0.85626 0.53496 0.0
H1147 H 0.19142 0.89533 0.55128 0.0
H1148 H 0.05159 0.85823 0.53626 0.0
H1149 H 0.12132 0.95841 0.57847 0.0
H1150 H 0.07588 0.81899 0.58203 0.0
H1151 H 0.10474 0.81831 0.54968 0.0
H1152 H 0.06366 0.81186 0.5367 0.0
H1153 H 0.16508 0.94455 0.63599 0.0
H1154 H 0.17163 0.97105 0.60672 0.0
H1155 H 0.1872 0.93894 0.59808 0.0
C1156 C 0.19646 0.15787 0.65933 0.0
C1157 C 0.19597 0.18777 0.67952 0.0
C1158 C 0.17138 0.13678 0.63339 0.0
C1159 C 0.14473 0.14532 0.62888 0.0
C1160 C 0.14531 0.17652 0.6477 0.0
C1161 C 0.17126 0.19768 0.67263 0.0
C1162 C 0.17215 0.10428 0.61269 0.0
C1163 C 0.11714 0.18625 0.64381 0.0
C1164 C 0.0774 0.08853 0.55762 0.0
C1165 C 0.05605 0.06703 0.5761 0.0
C1166 C 0.1064 0.11468 0.57441 0.0
C1167 C 0.11382 0.11919 0.61039 0.0
C1168 C 0.09186 0.09807 0.62929 0.0
C1169 C 0.06324 0.0723 0.61191 0.0
C1170 C 0.1295 0.13662 0.55345 0.0
C1171 C 0.09895 0.10212 0.66779 0.0
H1172 H 0.21621 0.15079 0.66416 0.0
H1173 H 0.17117 0.22106 0.68814 0.0
H1174 H 0.15519 0.08377 0.62334 0.0
H1175 H 0.16385 0.09891 0.5848 0.0
H1176 H 0.19705 0.10441 0.61408 0.0
H1177 H 0.12359 0.21312 0.65589 0.0
H1178 H 0.10909 0.18047 0.61578 0.0
H1179 H 0.09611 0.17161 0.65681 0.0
H1180 H 0.07177 0.08455 0.52995 0.0
H1181 H 0.04684 0.05574 0.62634 0.0
H1182 H 0.15141 0.13062 0.54935 0.0
H1183 H 0.1381 0.16324 0.56781 0.0
H1184 H 0.11799 0.1331 0.52741 0.0
H1185 H 0.12133 0.09781 0.67154 0.0
H1186 H 0.07853 0.08452 0.67892 0.0
H1187 H 0.10357 0.12786 0.68297 0.0
C1188 C 0.86497 0.19038 0.58685 0.0
C1189 C 0.87118 0.19433 0.62261 0.0
C1190 C 0.86154 0.16065 0.56231 0.0
C1191 C 0.86584 0.13535 0.57401 0.0
C1192 C 0.86987 0.13849 0.61035 0.0
C1193 C 0.87221 0.16786 0.63416 0.0
C1194 C 0.85513 0.15701 0.5239 0.0
C1195 C 0.87482 0.11223 0.62415 0.0
C1196 C 0.8605 0.05008 0.5299 0.0
C1197 C 0.89391 0.05718 0.5293 0.0
C1198 C 0.84984 0.07607 0.53982 0.0
C1199 C 0.87342 0.10932 0.54937 0.0
C1200 C 0.90678 0.11627 0.54385 0.0
C1201 C 0.91668 0.08994 0.53443 0.0
C1202 C 0.81393 0.06762 0.54398 0.0
C1203 C 0.93276 0.15135 0.55253 0.0
H1204 H 0.86356 0.21069 0.57806 0.0
H1205 H 0.87704 0.17097 0.66185 0.0
H1206 H 0.87837 0.1624 0.51086 0.0
H1207 H 0.83826 0.13117 0.5108 0.0
H1208 H 0.84444 0.17442 0.51991 0.0
H1209 H 0.87554 0.11778 0.65321 0.0
H1210 H 0.85486 0.08752 0.6133 0.0
H1211 H 0.89823 0.11055 0.61587 0.0
H1212 H 0.84309 0.02448 0.52578 0.0
H1213 H 0.94255 0.09499 0.53353 0.0
H1214 H 0.80688 0.08766 0.5404 0.0
H1215 H 0.80832 0.0643 0.57069 0.0
H1216 H 0.79877 0.0439 0.52491 0.0
H1217 H 0.925 0.16777 0.54162 0.0
H1218 H 0.95647 0.15233 0.5421 0.0
H1219 H 0.93672 0.1615 0.5814 0.0
C1220 C 0.838 0.78717 0.67522 0.0
C1221 C 0.82488 0.8033 0.70249 0.0
C1222 C 0.85405 0.80323 0.64985 0.0
C1223 C 0.85918 0.83684 0.65386 0.0
C1224 C 0.84768 0.85381 0.68284 0.0
C1225 C 0.82973 0.83641 0.70644 0.0
C1226 C 0.86493 0.78416 0.61853 0.0
C1227 C 0.85448 0.89024 0.68896 0.0
C1228 C 0.92943 0.89114 0.61265 0.0
C1229 C 0.91317 0.89416 0.58479 0.0
C1230 C 0.91218 0.87147 0.63463 0.0
C1231 C 0.87784 0.85482 0.62862 0.0
C1232 C 0.86133 0.85691 0.59977 0.0
C1233 C 0.8794 0.8765 0.57777 0.0
C1234 C 0.93053 0.86973 0.66513 0.0
C1235 C 0.82458 0.83968 0.59319 0.0
H1236 H 0.83412 0.76149 0.67269 0.0
H1237 H 0.81994 0.84874 0.72828 0.0
H1238 H 0.85426 0.78521 0.59405 0.0
H1239 H 0.89193 0.79579 0.61816 0.0
H1240 H 0.85748 0.75765 0.61853 0.0
H1241 H 0.84494 0.89994 0.71363 0.0
H1242 H 0.88123 0.90504 0.69021 0.0
H1243 H 0.84316 0.89418 0.66676 0.0
H1244 H 0.95571 0.90482 0.61769 0.0
H1245 H 0.86705 0.87934 0.55631 0.0
H1246 H 0.92507 0.84343 0.6644 0.0
H1247 H 0.92244 0.88072 0.69015 0.0
H1248 H 0.95744 0.88317 0.66515 0.0
H1249 H 0.81636 0.81289 0.59222 0.0
H1250 H 0.81574 0.84202 0.56838 0.0
H1251 H 0.81288 0.85062 0.61512 0.0
C1252 C 0.30349 0.17929 0.15807 0.0
C1253 C 0.30931 0.19308 0.19448 0.0
C1254 C 0.31888 0.15859 0.13983 0.0
C1255 C 0.34086 0.15126 0.15828 0.0
C1256 C 0.34627 0.16453 0.19511 0.0
C1257 C 0.33062 0.18508 0.2125 0.0
C1258 C 0.31165 0.14463 0.10072 0.0
C1259 C 0.36903 0.1576 0.21654 0.0
C1260 C 0.36176 0.07537 0.12026 0.0
C1261 C 0.39296 0.08954 0.10813 0.0
C1262 C 0.3443 0.09486 0.13564 0.0
C1263 C 0.35813 0.12974 0.1394 0.0
C1264 C 0.38936 0.14419 0.12682 0.0
C1265 C 0.40623 0.12407 0.11141 0.0
C1266 C 0.31136 0.07814 0.14891 0.0
C1267 C 0.40534 0.18113 0.13015 0.0
H1268 H 0.28713 0.18484 0.14367 0.0
H1269 H 0.33489 0.19456 0.24065 0.0
H1270 H 0.33433 0.1545 0.08733 0.0
H1271 H 0.30324 0.11715 0.09388 0.0
H1272 H 0.29266 0.15095 0.09041 0.0
H1273 H 0.36411 0.1621 0.24467 0.0
H1274 H 0.36685 0.13159 0.20711 0.0
H1275 H 0.39463 0.17431 0.21422 0.0
H1276 H 0.35117 0.04898 0.11867 0.0
H1277 H 0.42993 0.13556 0.10177 0.0
H1278 H 0.29274 0.08439 0.13776 0.0
H1279 H 0.31273 0.08743 0.17783 0.0
H1280 H 0.303 0.05064 0.14219 0.0
H1281 H 0.38878 0.18915 0.11788 0.0
H1282 H 0.42895 0.18842 0.1177 0.0
H1283 H 0.40992 0.19478 0.15827 0.0
C1284 C 0.83064 0.33828 0.20306 0.0
C1285 C 0.81542 0.30386 0.18865 0.0
C1286 C 0.84888 0.35955 0.18272 0.0
C1287 C 0.85221 0.34603 0.14716 0.0
C1288 C 0.83715 0.31123 0.13252 0.0
C1289 C 0.81859 0.29056 0.15339 0.0
C1290 C 0.86454 0.39655 0.19928 0.0
C1291 C 0.84068 0.29586 0.09491 0.0
C1292 C 0.87587 0.40686 0.08998 0.0
C1293 C 0.90995 0.41797 0.09259 0.0
C1294 C 0.85651 0.3826 0.10689 0.0
C1295 C 0.87172 0.3686 0.12565 0.0
C1296 C 0.90604 0.37846 0.12644 0.0
C1297 C 0.92481 0.40348 0.11039 0.0
C1298 C 0.82004 0.37318 0.10629 0.0
C1299 C 0.92304 0.36343 0.14528 0.0
H1300 H 0.82842 0.34866 0.23039 0.0
H1301 H 0.80623 0.26405 0.14197 0.0
H1302 H 0.89146 0.40576 0.19802 0.0
H1303 H 0.85569 0.40987 0.18454 0.0
H1304 H 0.85913 0.40309 0.22711 0.0
H1305 H 0.82813 0.26829 0.08783 0.0
H1306 H 0.83039 0.30561 0.07712 0.0
H1307 H 0.86697 0.30281 0.0903 0.0
H1308 H 0.86455 0.41824 0.07619 0.0
H1309 H 0.95125 0.4119 0.11186 0.0
H1310 H 0.81317 0.38109 0.13323 0.0
H1311 H 0.80674 0.34578 0.0973 0.0
H1312 H 0.81172 0.38488 0.08897 0.0
H1313 H 0.92149 0.37147 0.17394 0.0
H1314 H 0.94925 0.37093 0.13992 0.0
H1315 H 0.91077 0.33587 0.13735 0.0
C1316 C 0.66289 0.83701 0.07828 0.0
C1317 C 0.67596 0.84142 0.11204 0.0
C1318 C 0.64175 0.85192 0.07292 0.0
C1319 C 0.63253 0.87101 0.10207 0.0
C1320 C 0.6444 0.87443 0.1363 0.0
C1321 C 0.6662 0.85993 0.14085 0.0
C1322 C 0.62993 0.84787 0.03592 0.0
C1323 C 0.63467 0.89402 0.16815 0.0
C1324 C 0.60531 0.93697 0.08713 0.0
C1325 C 0.57116 0.92035 0.08432 0.0
C1326 C 0.62555 0.9212 0.09286 0.0
C1327 C 0.61127 0.88819 0.09657 0.0
C1328 C 0.57675 0.87141 0.09414 0.0
C1329 C 0.55713 0.88762 0.08777 0.0
C1330 C 0.66222 0.93973 0.09435 0.0
C1331 C 0.56048 0.83638 0.0983 0.0
H1332 H 0.66941 0.82208 0.05578 0.0
H1333 H 0.67629 0.86397 0.16701 0.0
H1334 H 0.6028 0.83665 0.03291 0.0
H1335 H 0.63809 0.87261 0.03028 0.0
H1336 H 0.63916 0.832 0.01609 0.0
H1337 H 0.6442 0.89237 0.19299 0.0
H1338 H 0.64417 0.92057 0.16774 0.0
H1339 H 0.60762 0.88481 0.16781 0.0
H1340 H 0.61622 0.96213 0.08406 0.0
H1341 H 0.53071 0.87481 0.08592 0.0
H1342 H 0.67253 0.92579 0.07358 0.0
H1343 H 0.67351 0.94169 0.11989 0.0
H1344 H 0.66938 0.96519 0.09084 0.0
H1345 H 0.56762 0.81924 0.07774 0.0
H1346 H 0.53336 0.82718 0.09654 0.0
H1347 H 0.56878 0.83533 0.12402 0.0
C1348 C 0.2307 0.67264 0.12505 0.0
C1349 C 0.2279 0.66598 0.15804 0.0
C1350 C 0.20781 0.65087 0.09694 0.0
C1351 C 0.18278 0.62138 0.10199 0.0
C1352 C 0.18327 0.61252 0.13392 0.0
C1353 C 0.20523 0.63546 0.16195 0.0
C1354 C 0.20841 0.661 0.06319 0.0
C1355 C 0.15806 0.58061 0.13997 0.0
C1356 C 0.09409 0.59393 0.07384 0.0
C1357 C 0.08792 0.56405 0.04863 0.0
C1358 C 0.12571 0.61439 0.08896 0.0
C1359 C 0.15185 0.60454 0.07893 0.0
C1360 C 0.14622 0.57583 0.05118 0.0
C1361 C 0.11415 0.55588 0.03611 0.0
C1362 C 0.13054 0.64509 0.11794 0.0
C1363 C 0.17318 0.56429 0.0397 0.0
H1364 H 0.24852 0.69636 0.12229 0.0
H1365 H 0.20336 0.63039 0.18756 0.0
H1366 H 0.20998 0.64136 0.04088 0.0
H1367 H 0.18536 0.66374 0.05834 0.0
H1368 H 0.22936 0.68483 0.06359 0.0
H1369 H 0.1658 0.57426 0.16273 0.0
H1370 H 0.13459 0.5834 0.14522 0.0
H1371 H 0.15351 0.55961 0.11643 0.0
H1372 H 0.07381 0.60047 0.08315 0.0
H1373 H 0.10931 0.53265 0.01658 0.0
H1374 H 0.15205 0.66649 0.11378 0.0
H1375 H 0.13527 0.64101 0.14348 0.0
H1376 H 0.10888 0.65157 0.1195 0.0
H1377 H 0.19693 0.5856 0.041 0.0
H1378 H 0.16748 0.54794 0.0126 0.0
H1379 H 0.17589 0.54985 0.05752 0.0
C1380 C 0.31684 0.80243 0.86295 0.0
C1381 C 0.3143 0.81405 0.83386 0.0
C1382 C 0.33909 0.82322 0.89161 0.0
C1383 C 0.35954 0.85597 0.89045 0.0
C1384 C 0.35543 0.86841 0.86206 0.0
C1385 C 0.33265 0.8472 0.83404 0.0
C1386 C 0.34227 0.8093 0.92168 0.0
C1387 C 0.37695 0.90326 0.85987 0.0
C1388 C 0.41934 0.92611 0.95939 0.0
C1389 C 0.44865 0.92524 0.94656 0.0
C1390 C 0.38926 0.90105 0.94395 0.0
C1391 C 0.38902 0.87537 0.91488 0.0
C1392 C 0.41864 0.87255 0.90465 0.0
C1393 C 0.4482 0.89759 0.92075 0.0
C1394 C 0.35802 0.904 0.95631 0.0
C1395 C 0.41934 0.8453 0.87392 0.0
H1396 H 0.30209 0.77677 0.86286 0.0
H1397 H 0.3305 0.856 0.81143 0.0
H1398 H 0.36289 0.80121 0.91801 0.0
H1399 H 0.34755 0.82838 0.94705 0.0
H1400 H 0.31972 0.7874 0.92306 0.0
H1401 H 0.36858 0.90997 0.83775 0.0
H1402 H 0.37744 0.92165 0.88456 0.0
H1403 H 0.40243 0.90534 0.8562 0.0
H1404 H 0.41978 0.94763 0.97934 0.0
H1405 H 0.47103 0.8967 0.9114 0.0
H1406 H 0.3382 0.87914 0.95441 0.0
H1407 H 0.34995 0.91619 0.93942 0.0
H1408 H 0.36158 0.91926 0.98381 0.0
H1409 H 0.40099 0.82073 0.8757 0.0
H1410 H 0.44381 0.84419 0.87225 0.0
H1411 H 0.41301 0.84988 0.84928 0.0
C1412 C 0.19168 0.30391 0.78513 0.0
C1413 C 0.215 0.29869 0.80322 0.0
C1414 C 0.17403 0.32235 0.8026 0.0
C1415 C 0.17977 0.33638 0.83936 0.0
C1416 C 0.20312 0.33084 0.85788 0.0
C1417 C 0.22038 0.31213 0.83962 0.0
C1418 C 0.14933 0.327 0.78149 0.0
C1419 C 0.2105 0.34536 0.8969 0.0
C1420 C 0.15754 0.41146 0.87676 0.0
C1421 C 0.12684 0.39713 0.88982 0.0
C1422 C 0.17518 0.39227 0.86111 0.0
C1423 C 0.16202 0.35749 0.85799 0.0
C1424 C 0.1313 0.34288 0.87153 0.0
C1425 C 0.11418 0.36272 0.8871 0.0
C1426 C 0.20767 0.40928 0.84715 0.0
C1427 C 0.11628 0.30613 0.8694 0.0
H1428 H 0.18722 0.29346 0.75702 0.0
H1429 H 0.23898 0.30915 0.85365 0.0
H1430 H 0.12481 0.3168 0.79146 0.0
H1431 H 0.15598 0.3539 0.7844 0.0
H1432 H 0.1477 0.31454 0.75317 0.0
H1433 H 0.22767 0.33713 0.90782 0.0
H1434 H 0.22147 0.37293 0.90277 0.0
H1435 H 0.18757 0.3381 0.91048 0.0
H1436 H 0.16762 0.43778 0.87795 0.0
H1437 H 0.09086 0.35117 0.89743 0.0
H1438 H 0.20556 0.40033 0.81819 0.0
H1439 H 0.22673 0.40299 0.85729 0.0
H1440 H 0.21592 0.43678 0.85427 0.0
H1441 H 0.1116 0.29169 0.84156 0.0
H1442 H 0.09287 0.2987 0.8822 0.0
H1443 H 0.13352 0.29917 0.88206 0.0
C1444 C 0.71001 0.16922 0.80258 0.0
C1445 C 0.71293 0.20206 0.80967 0.0
C1446 C 0.69196 0.14828 0.82333 0.0
C1447 C 0.67602 0.16046 0.85151 0.0
C1448 C 0.67863 0.1937 0.85847 0.0
C1449 C 0.69706 0.21418 0.8373 0.0
C1450 C 0.68967 0.113 0.8149 0.0
C1451 C 0.66138 0.20734 0.8877 0.0
C1452 C 0.60369 0.09206 0.87577 0.0
C1453 C 0.61699 0.08762 0.90492 0.0
C1454 C 0.62214 0.11691 0.85937 0.0
C1455 C 0.655 0.13746 0.87195 0.0
C1456 C 0.66835 0.13381 0.90204 0.0
C1457 C 0.64899 0.10908 0.9185 0.0
C1458 C 0.60678 0.12028 0.82772 0.0
C1459 C 0.70342 0.15516 0.91594 0.0
H1460 H 0.72128 0.1597 0.78028 0.0
H1461 H 0.69914 0.23962 0.8423 0.0
H1462 H 0.66369 0.09517 0.8105 0.0
H1463 H 0.70242 0.10702 0.79125 0.0
H1464 H 0.70062 0.10916 0.83745 0.0
H1465 H 0.6688 0.23458 0.89216 0.0
H1466 H 0.63457 0.19479 0.88114 0.0
H1467 H 0.66652 0.20216 0.91243 0.0
H1468 H 0.57872 0.0759 0.8656 0.0
H1469 H 0.65923 0.10579 0.94116 0.0
H1470 H 0.61872 0.11281 0.80399 0.0
H1471 H 0.61055 0.14657 0.83071 0.0
H1472 H 0.58012 0.10459 0.82336 0.0
H1473 H 0.7201 0.14972 0.89627 0.0
H1474 H 0.70949 0.15083 0.94087 0.0
H1475 H 0.70826 0.18189 0.92034 0.0
C1476 C 0.91159 0.68829 0.88136 0.0
C1477 C 0.88391 0.67346 0.85756 0.0
C1478 C 0.92381 0.66883 0.89482 0.0
C1479 C 0.90807 0.63363 0.88397 0.0
C1480 C 0.87876 0.61867 0.86178 0.0
C1481 C 0.86715 0.6388 0.84869 0.0
C1482 C 0.95503 0.68596 0.91844 0.0
C1483 C 0.86101 0.58134 0.84967 0.0
C1484 C 0.96274 0.5857 0.8763 0.0
C1485 C 0.95723 0.5741 0.9067 0.0
C1486 C 0.94679 0.60489 0.86868 0.0
C1487 C 0.92454 0.61267 0.8919 0.0
C1488 C 0.9186 0.60077 0.92248 0.0
C1489 C 0.93503 0.58173 0.92953 0.0
C1490 C 0.95414 0.61726 0.83592 0.0
C1491 C 0.89507 0.60829 0.9479 0.0
H1492 H 0.92491 0.71508 0.88764 0.0
H1493 H 0.84614 0.62732 0.82971 0.0
H1494 H 0.95277 0.67508 0.94114 0.0
H1495 H 0.9754 0.68227 0.9037 0.0
H1496 H 0.96159 0.71313 0.92834 0.0
H1497 H 0.83641 0.57379 0.8367 0.0
H1498 H 0.87553 0.57107 0.83071 0.0
H1499 H 0.85823 0.56997 0.87207 0.0
H1500 H 0.98019 0.58044 0.85875 0.0
H1501 H 0.93032 0.57261 0.9529 0.0
H1502 H 0.96436 0.64486 0.84299 0.0
H1503 H 0.93125 0.60832 0.81907 0.0
H1504 H 0.97185 0.60886 0.82044 0.0
H1505 H 0.90362 0.63557 0.95877 0.0
H1506 H 0.89255 0.59648 0.96997 0.0
H1507 H 0.8706 0.59939 0.93412 0.0
C1508 C 0.11217 0.30343 0.11409 0.0
C1509 C 0.14633 0.31532 0.11689 0.0
C1510 C 0.09643 0.32375 0.10939 0.0
C1511 C 0.11543 0.35655 0.10676 0.0
C1512 C 0.15007 0.36874 0.10999 0.0
C1513 C 0.16512 0.34795 0.1152 0.0
C1514 C 0.0595 0.30981 0.1065 0.0
C1515 C 0.17121 0.40338 0.10701 0.0
C1516 C 0.07469 0.39595 0.05884 0.0
C1517 C 0.06563 0.41615 0.08663 0.0
C1518 C 0.09102 0.37662 0.065 0.0
C1519 C 0.099 0.37775 0.09986 0.0
C1520 C 0.09066 0.39862 0.12808 0.0
C1521 C 0.07394 0.4174 0.12115 0.0
C1522 C 0.09941 0.35473 0.03409 0.0
C1523 C 0.09887 0.40064 0.16562 0.0
H1524 H 0.09779 0.27799 0.11508 0.0
H1525 H 0.19157 0.35679 0.11685 0.0
H1526 H 0.05075 0.32625 0.1261 0.0
H1527 H 0.05053 0.30887 0.0802 0.0
H1528 H 0.04846 0.28437 0.11061 0.0
H1529 H 0.19772 0.40939 0.11116 0.0
H1530 H 0.16647 0.40588 0.08066 0.0
H1531 H 0.16499 0.42203 0.12648 0.0
H1532 H 0.06912 0.39526 0.03207 0.0
H1533 H 0.06676 0.43251 0.14291 0.0
H1534 H 0.08687 0.32831 0.03477 0.0
H1535 H 0.12612 0.36107 0.03551 0.0
H1536 H 0.09213 0.35728 0.00864 0.0
H1537 H 0.08587 0.37593 0.17103 0.0
H1538 H 0.092 0.41914 0.18459 0.0
H1539 H 0.12547 0.40746 0.17013 0.0
C1540 C 0.2257 0.67666 0.82311 0.0
C1541 C 0.20843 0.69079 0.80783 0.0
C1542 C 0.20965 0.65232 0.84109 0.0
C1543 C 0.17572 0.64262 0.84484 0.0
C1544 C 0.15819 0.65684 0.82962 0.0
C1545 C 0.17464 0.68013 0.81057 0.0
C1546 C 0.22894 0.6368 0.85582 0.0
C1547 C 0.12205 0.64754 0.83361 0.0
C1548 C 0.12287 0.55972 0.86245 0.0
C1549 C 0.11947 0.56898 0.89847 0.0
C1550 C 0.14223 0.58327 0.84494 0.0
C1551 C 0.15818 0.61695 0.86384 0.0
C1552 C 0.15566 0.62631 0.90043 0.0
C1553 C 0.13649 0.6021 0.91741 0.0
C1554 C 0.14482 0.57226 0.80601 0.0
C1555 C 0.17196 0.66212 0.92129 0.0
H1556 H 0.2518 0.68435 0.82077 0.0
H1557 H 0.16098 0.68999 0.79799 0.0
H1558 H 0.22827 0.64219 0.88472 0.0
H1559 H 0.21769 0.60937 0.84538 0.0
H1560 H 0.2549 0.64609 0.84931 0.0
H1561 H 0.11235 0.66214 0.82175 0.0
H1562 H 0.10821 0.62072 0.82105 0.0
H1563 H 0.11736 0.65167 0.86179 0.0
H1564 H 0.10996 0.53408 0.84775 0.0
H1565 H 0.13383 0.60936 0.94524 0.0
H1566 H 0.17087 0.58125 0.79995 0.0
H1567 H 0.13262 0.58329 0.79179 0.0
H1568 H 0.13335 0.54477 0.79581 0.0
H1569 H 0.19846 0.67226 0.91728 0.0
H1570 H 0.16897 0.66506 0.94979 0.0
H1571 H 0.1613 0.67737 0.91194 0.0
C1572 C 0.37413 0.16815 0.90684 0.0
C1573 C 0.34832 0.15226 0.88065 0.0
C1574 C 0.39502 0.15291 0.91201 0.0
C1575 C 0.38936 0.12061 0.89106 0.0
C1576 C 0.36339 0.10459 0.86439 0.0
C1577 C 0.3434 0.12081 0.85924 0.0
C1578 C 0.42288 0.17122 0.94015 0.0
C1579 C 0.35609 0.06993 0.84197 0.0
C1580 C 0.4576 0.08941 0.88493 0.0
C1581 C 0.44991 0.07106 0.91016 0.0
C1582 C 0.4383 0.10599 0.8787 0.0
C1583 C 0.4102 0.10337 0.89751 0.0
C1584 C 0.40216 0.08447 0.92273 0.0
C1585 C 0.42234 0.06886 0.929 0.0
C1586 C 0.4483 0.12675 0.85243 0.0
C1587 C 0.37223 0.08063 0.94307 0.0
H1588 H 0.37787 0.19252 0.92338 0.0
H1589 H 0.32314 0.10839 0.83932 0.0
H1590 H 0.41904 0.15766 0.96084 0.0
H1591 H 0.44631 0.17236 0.92895 0.0
H1592 H 0.42521 0.19699 0.95253 0.0
H1593 H 0.33505 0.06103 0.82236 0.0
H1594 H 0.37784 0.06929 0.82795 0.0
H1595 H 0.35051 0.05238 0.85883 0.0
H1596 H 0.4792 0.09147 0.8707 0.0
H1597 H 0.41639 0.05457 0.94845 0.0
H1598 H 0.45186 0.15279 0.86527 0.0
H1599 H 0.42863 0.11709 0.8311 0.0
H1600 H 0.47128 0.12688 0.84064 0.0
H1601 H 0.37411 0.10533 0.9589 0.0
H1602 H 0.36897 0.06427 0.96095 0.0
H1603 H 0.35006 0.07002 0.92471 0.0
C1604 C 0.79979 0.3231 0.86812 0.0
C1605 C 0.80741 0.32832 0.83488 0.0
C1606 C 0.8209 0.34418 0.8978 0.0
C1607 C 0.84954 0.37128 0.89378 0.0
C1608 C 0.85505 0.37849 0.86061 0.0
C1609 C 0.83425 0.35644 0.83142 0.0
C1610 C 0.8141 0.33554 0.93254 0.0
C1611 C 0.88472 0.40766 0.85517 0.0
C1612 C 0.91376 0.44019 0.96026 0.0
C1613 C 0.93977 0.43014 0.95342 0.0
C1614 C 0.88231 0.4194 0.94413 0.0
C1615 C 0.87713 0.38801 0.92128 0.0
C1616 C 0.90239 0.37617 0.91858 0.0
C1617 C 0.93362 0.39763 0.9343 0.0
C1618 C 0.85599 0.43275 0.94817 0.0
C1619 C 0.89761 0.34245 0.89533 0.0
H1620 H 0.779 0.30102 0.87045 0.0
H1621 H 0.83981 0.36033 0.80553 0.0
H1622 H 0.82883 0.3217 0.9367 0.0
H1623 H 0.82111 0.35828 0.9545 0.0
H1624 H 0.78787 0.31955 0.93335 0.0
H1625 H 0.88273 0.41255 0.82929 0.0
H1626 H 0.88818 0.43053 0.87596 0.0
H1627 H 0.90693 0.40248 0.85663 0.0
H1628 H 0.91864 0.46542 0.97518 0.0
H1629 H 0.9538 0.38983 0.92947 0.0
H1630 H 0.83138 0.41257 0.9467 0.0
H1631 H 0.85644 0.4446 0.92658 0.0
H1632 H 0.8601 0.45183 0.97343 0.0
H1633 H 0.87368 0.32333 0.89878 0.0
H1634 H 0.91728 0.33466 0.90086 0.0
H1635 H 0.89776 0.34335 0.86749 0.0
C1636 C 0.67879 0.78819 0.80242 0.0
C1637 C 0.7131 0.80065 0.80332 0.0
C1638 C 0.66238 0.80826 0.81916 0.0
C1639 C 0.68054 0.84187 0.83761 0.0
C1640 C 0.71525 0.85433 0.83941 0.0
C1641 C 0.731 0.83369 0.82228 0.0
C1642 C 0.62546 0.79351 0.81663 0.0
C1643 C 0.73588 0.8897 0.85903 0.0
C1644 C 0.63841 0.9029 0.84923 0.0
C1645 C 0.62902 0.90533 0.88387 0.0
C1646 C 0.65516 0.88262 0.83409 0.0
C1647 C 0.6632 0.86414 0.85387 0.0
C1648 C 0.65411 0.86663 0.8889 0.0
C1649 C 0.63722 0.887 0.90334 0.0
C1650 C 0.66421 0.88096 0.79671 0.0
C1651 C 0.66183 0.84739 0.91112 0.0
H1652 H 0.66462 0.76255 0.7886 0.0
H1653 H 0.75747 0.84378 0.82307 0.0
H1654 H 0.61635 0.79728 0.84312 0.0
H1655 H 0.61628 0.80635 0.80157 0.0
H1656 H 0.61496 0.76645 0.80356 0.0
H1657 H 0.76251 0.89551 0.85841 0.0
H1658 H 0.73047 0.90725 0.8475 0.0
H1659 H 0.7298 0.89413 0.88676 0.0
H1660 H 0.63302 0.91722 0.83384 0.0
H1661 H 0.62989 0.88802 0.92986 0.0
H1662 H 0.65252 0.85495 0.78046 0.0
H1663 H 0.69107 0.8888 0.79568 0.0
H1664 H 0.65657 0.89701 0.78485 0.0
H1665 H 0.64914 0.82032 0.89898 0.0
H1666 H 0.65422 0.85286 0.93821 0.0
H1667 H 0.68847 0.85338 0.91247 0.0
C1668 C 0.81148 0.68828 0.15745 0.0
C1669 C 0.81137 0.69613 0.19411 0.0
C1670 C 0.82965 0.6704 0.13966 0.0
C1671 C 0.84838 0.66003 0.15893 0.0
C1672 C 0.84913 0.66887 0.19603 0.0
C1673 C 0.8307 0.68661 0.21299 0.0
C1674 C 0.82836 0.66214 0.10018 0.0
C1675 C 0.8691 0.65921 0.21799 0.0
C1676 C 0.86811 0.58439 0.11627 0.0
C1677 C 0.9013 0.599 0.10984 0.0
C1678 C 0.85059 0.60383 0.13147 0.0
C1679 C 0.86634 0.63908 0.14059 0.0
C1680 C 0.89966 0.65406 0.13363 0.0
C1681 C 0.91665 0.63397 0.11859 0.0
C1682 C 0.81529 0.58648 0.13849 0.0
C1683 C 0.91756 0.69142 0.14234 0.0
H1684 H 0.79655 0.69515 0.14257 0.0
H1685 H 0.83152 0.69318 0.24135 0.0
H1686 H 0.8535 0.6713 0.09137 0.0
H1687 H 0.81722 0.63476 0.08933 0.0
H1688 H 0.81395 0.67319 0.08905 0.0
H1689 H 0.86886 0.66982 0.2465 0.0
H1690 H 0.85934 0.6317 0.21264 0.0
H1691 H 0.89485 0.66783 0.21097 0.0
H1692 H 0.85587 0.55753 0.11026 0.0
H1693 H 0.94205 0.64579 0.11343 0.0
H1694 H 0.79958 0.59527 0.12597 0.0
H1695 H 0.81262 0.59266 0.1671 0.0
H1696 H 0.80613 0.55899 0.1286 0.0
H1697 H 0.90412 0.70231 0.12954 0.0
H1698 H 0.9429 0.69926 0.13387 0.0
H1699 H 0.91875 0.70201 0.17101 0.0
C1700 C 0.32489 0.82842 0.1954 0.0
C1701 C 0.31498 0.79393 0.18313 0.0
C1702 C 0.34135 0.8497 0.17436 0.0
C1703 C 0.34855 0.8362 0.14037 0.0
C1704 C 0.33846 0.80131 0.12773 0.0
C1705 C 0.3218 0.78051 0.14937 0.0
C1706 C 0.35151 0.88672 0.18877 0.0
C1707 C 0.34567 0.78607 0.09162 0.0
C1708 C 0.3735 0.89494 0.08063 0.0
C1709 C 0.4075 0.90965 0.08788 0.0
C1710 C 0.35381 0.86996 0.09657 0.0
C1711 C 0.36873 0.85907 0.11939 0.0
C1712 C 0.40323 0.87256 0.12493 0.0
C1713 C 0.42215 0.89802 0.10951 0.0
C1714 C 0.31708 0.85681 0.09074 0.0
C1715 C 0.42015 0.86104 0.14829 0.0
H1716 H 0.32017 0.83889 0.22176 0.0
H1717 H 0.31398 0.75378 0.13983 0.0
H1718 H 0.37856 0.89955 0.19042 0.0
H1719 H 0.34148 0.89658 0.17087 0.0
H1720 H 0.34297 0.89308 0.21523 0.0
H1721 H 0.33524 0.75845 0.08529 0.0
H1722 H 0.33555 0.79384 0.07167 0.0
H1723 H 0.37252 0.79521 0.08966 0.0
H1724 H 0.36224 0.90401 0.06386 0.0
H1725 H 0.44855 0.90904 0.11454 0.0
H1726 H 0.30743 0.86868 0.11398 0.0
H1727 H 0.30559 0.82954 0.0877 0.0
H1728 H 0.30954 0.8624 0.06732 0.0
H1729 H 0.41469 0.86882 0.17586 0.0
H1730 H 0.44712 0.87147 0.14689 0.0
H1731 H 0.41088 0.83349 0.14089 0.0
C1732 C 0.68658 0.15242 0.16206 0.0
C1733 C 0.70566 0.18569 0.16348 0.0
C1734 C 0.66449 0.13215 0.13318 0.0
C1735 C 0.66227 0.14548 0.10482 0.0
C1736 C 0.68347 0.1784 0.10502 0.0
C1737 C 0.70464 0.19839 0.13477 0.0
C1738 C 0.642 0.09718 0.13417 0.0
C1739 C 0.6827 0.19317 0.07489 0.0
C1740 C 0.60636 0.07382 0.035 0.0
C1741 C 0.57633 0.07382 0.04633 0.0
C1742 C 0.63566 0.10022 0.05054 0.0
C1743 C 0.63435 0.12623 0.07826 0.0
C1744 C 0.60402 0.1284 0.08607 0.0
C1745 C 0.57524 0.10207 0.06983 0.0
C1746 C 0.66776 0.0982 0.04034 0.0
C1747 C 0.60162 0.15606 0.11508 0.0
H1748 H 0.68767 0.14277 0.18434 0.0
H1749 H 0.72011 0.2241 0.13577 0.0
H1750 H 0.61628 0.09489 0.13474 0.0
H1751 H 0.64355 0.07899 0.11028 0.0
H1752 H 0.64795 0.0903 0.15745 0.0
H1753 H 0.70639 0.21405 0.07415 0.0
H1754 H 0.67705 0.17421 0.0494 0.0
H1755 H 0.6634 0.20313 0.07809 0.0
H1756 H 0.60712 0.05198 0.0166 0.0
H1757 H 0.55184 0.10233 0.0778 0.0
H1758 H 0.67543 0.08664 0.05829 0.0
H1759 H 0.68721 0.12334 0.04256 0.0
H1760 H 0.66552 0.08274 0.01313 0.0
H1761 H 0.60639 0.15227 0.14078 0.0
H1762 H 0.57704 0.15678 0.11431 0.0
H1763 H 0.62023 0.18053 0.11338 0.0
C1764 C 0.67422 0.68235 0.7972 0.0
C1765 C 0.70534 0.6829 0.78998 0.0
C1766 C 0.65587 0.66481 0.82045 0.0
C1767 C 0.66923 0.64785 0.83689 0.0
C1768 C 0.70041 0.64793 0.82937 0.0
C1769 C 0.71805 0.66522 0.80559 0.0
C1770 C 0.6224 0.66471 0.82774 0.0
C1771 C 0.71521 0.63009 0.84676 0.0
C1772 C 0.63156 0.62546 0.91878 0.0
C1773 C 0.60991 0.59241 0.90485 0.0
C1774 C 0.65168 0.64388 0.89696 0.0
C1775 C 0.64978 0.62863 0.86074 0.0
C1776 C 0.62846 0.59512 0.84678 0.0
C1777 C 0.60878 0.5774 0.86906 0.0
C1778 C 0.67426 0.67978 0.91235 0.0
C1779 C 0.62593 0.57815 0.80821 0.0
H1780 H 0.66459 0.69649 0.78563 0.0
H1781 H 0.74215 0.66567 0.79999 0.0
H1782 H 0.60369 0.63878 0.821 0.0
H1783 H 0.62168 0.67539 0.85608 0.0
H1784 H 0.6156 0.67917 0.81265 0.0
H1785 H 0.74011 0.63327 0.83856 0.0
H1786 H 0.7167 0.6396 0.87565 0.0
H1787 H 0.69934 0.60314 0.84027 0.0
H1788 H 0.63238 0.63702 0.94647 0.0
H1789 H 0.59225 0.55171 0.85822 0.0
H1790 H 0.66586 0.69618 0.9021 0.0
H1791 H 0.69946 0.68447 0.90436 0.0
H1792 H 0.67506 0.68696 0.94141 0.0
H1793 H 0.61746 0.59107 0.79257 0.0
H1794 H 0.60869 0.55156 0.80188 0.0
H1795 H 0.65032 0.5796 0.79982 0.0
C1796 C 0.3727 0.61499 0.81604 0.0
C1797 C 0.34979 0.62903 0.82529 0.0
C1798 C 0.3937 0.61492 0.84163 0.0
C1799 C 0.39142 0.62887 0.87739 0.0
C1800 C 0.36986 0.64514 0.8867 0.0
C1801 C 0.34927 0.64517 0.8604 0.0
C1802 C 0.41674 0.59784 0.83049 0.0
C1803 C 0.36712 0.66056 0.92455 0.0
C1804 C 0.40977 0.58167 0.93461 0.0
C1805 C 0.44334 0.60011 0.94377 0.0
C1806 C 0.39209 0.5918 0.91464 0.0
C1807 C 0.40804 0.62191 0.90467 0.0
C1808 C 0.44093 0.64259 0.91716 0.0
C1809 C 0.45836 0.63124 0.93622 0.0
C1810 C 0.35706 0.56882 0.90181 0.0
C1811 C 0.45866 0.67536 0.90803 0.0
H1812 H 0.37336 0.603 0.78879 0.0
H1813 H 0.33157 0.65617 0.86749 0.0
H1814 H 0.44179 0.61415 0.84262 0.0
H1815 H 0.40861 0.57478 0.83967 0.0
H1816 H 0.41773 0.59111 0.80159 0.0
H1817 H 0.35376 0.67708 0.92711 0.0
H1818 H 0.3538 0.64059 0.93773 0.0
H1819 H 0.39173 0.67508 0.93859 0.0
H1820 H 0.39769 0.55806 0.94106 0.0
H1821 H 0.48428 0.64583 0.94296 0.0
H1822 H 0.35517 0.55938 0.87287 0.0
H1823 H 0.34088 0.58249 0.90825 0.0
H1824 H 0.34784 0.54709 0.91335 0.0
H1825 H 0.4671 0.67071 0.88128 0.0
H1826 H 0.48045 0.6918 0.92651 0.0
H1827 H 0.44231 0.68859 0.90822 0.0
C1828 C 0.32583 0.33743 0.83302 0.0
C1829 C 0.32745 0.30797 0.81309 0.0
C1830 C 0.3498 0.35857 0.86005 0.0
C1831 C 0.37607 0.35016 0.86651 0.0
C1832 C 0.37601 0.31896 0.84866 0.0
C1833 C 0.35173 0.29822 0.82182 0.0
C1834 C 0.34858 0.39117 0.87965 0.0
C1835 C 0.40319 0.30888 0.85572 0.0
C1836 C 0.4571 0.42371 0.88443 0.0
C1837 C 0.46221 0.43108 0.92087 0.0
C1838 C 0.42949 0.39679 0.86652 0.0
C1839 C 0.40655 0.37659 0.88556 0.0
C1840 C 0.41228 0.38288 0.9222 0.0
C1841 C 0.44013 0.4103 0.93951 0.0
C1842 C 0.42435 0.39073 0.82729 0.0
C1843 C 0.38858 0.36182 0.94347 0.0
H1844 H 0.30646 0.34445 0.82667 0.0
H1845 H 0.353 0.2754 0.80635 0.0
H1846 H 0.35437 0.39596 0.90812 0.0
H1847 H 0.36731 0.4117 0.8704 0.0
H1848 H 0.32423 0.39162 0.87561 0.0
H1849 H 0.39652 0.28182 0.84463 0.0
H1850 H 0.42538 0.32282 0.84368 0.0
H1851 H 0.40945 0.31518 0.88431 0.0
H1852 H 0.47424 0.43956 0.86987 0.0
H1853 H 0.44419 0.41585 0.96767 0.0
H1854 H 0.40176 0.39366 0.82091 0.0
H1855 H 0.4211 0.36491 0.81389 0.0
H1856 H 0.44514 0.40814 0.81638 0.0
H1857 H 0.37001 0.3722 0.952 0.0
H1858 H 0.40129 0.36204 0.96735 0.0
H1859 H 0.37558 0.33564 0.92812 0.0
C1860 C 0.65288 0.31399 0.92116 0.0
C1861 C 0.65347 0.31857 0.88731 0.0
C1862 C 0.65352 0.33942 0.95034 0.0
C1863 C 0.65495 0.36983 0.94524 0.0
C1864 C 0.65893 0.37556 0.91139 0.0
C1865 C 0.6573 0.34965 0.88296 0.0
C1866 C 0.65197 0.33338 0.98629 0.0
C1867 C 0.66172 0.40791 0.90426 0.0
C1868 C 0.59818 0.40904 0.97457 0.0
C1869 C 0.62063 0.44224 0.98391 0.0
C1870 C 0.60888 0.38331 0.96822 0.0
C1871 C 0.64291 0.3914 0.97121 0.0
C1872 C 0.66459 0.42427 0.98796 0.0
C1873 C 0.65325 0.44982 0.99359 0.0
C1874 C 0.58436 0.34826 0.95237 0.0
C1875 C 0.70038 0.43313 0.99564 0.0
H1876 H 0.65124 0.29042 0.92477 0.0
H1877 H 0.65742 0.35345 0.85692 0.0
H1878 H 0.63845 0.34626 0.00353 0.0
H1879 H 0.64032 0.30642 0.9851 0.0
H1880 H 0.67727 0.34335 -0.00158 0.0
H1881 H 0.66652 0.40855 0.87662 0.0
H1882 H 0.63872 0.41157 0.9099 0.0
H1883 H 0.68198 0.42918 0.92129 0.0
H1884 H 0.57254 0.40328 0.96888 0.0
H1885 H 0.6704 0.47556 0.00232 0.0
H1886 H 0.58862 0.33041 0.96437 0.0
H1887 H 0.58712 0.34112 0.92383 0.0
H1888 H 0.55875 0.34583 0.95594 0.0
H1889 H 0.7051 0.41099 -0.00348 0.0
H1890 H 0.70932 0.45208 0.02111 0.0
H1891 H 0.71459 0.44427 0.97513 0.0
C1892 C 0.65155 0.34988 0.15685 0.0
C1893 C 0.68453 0.36122 0.14905 0.0
C1894 C 0.62774 0.35228 0.13662 0.0
C1895 C 0.63712 0.36713 0.10829 0.0
C1896 C 0.67016 0.37802 0.09972 0.0
C1897 C 0.69331 0.3745 0.11989 0.0
C1898 C 0.59292 0.34092 0.14705 0.0
C1899 C 0.68212 0.39551 0.07089 0.0
C1900 C 0.57055 0.36264 0.04652 0.0
C1901 C 0.5705 0.3944 0.05932 0.0
C1902 C 0.59195 0.35303 0.06215 0.0
C1903 C 0.61357 0.37577 0.0913 0.0
C1904 C 0.61302 0.40753 0.10469 0.0
C1905 C 0.59147 0.41635 0.08866 0.0
C1906 C 0.5906 0.31835 0.04779 0.0
C1907 C 0.63506 0.43223 0.13622 0.0
H1908 H 0.64435 0.34027 0.17969 0.0
H1909 H 0.71848 0.38284 0.11306 0.0
H1910 H 0.58634 0.36271 0.15607 0.0
H1911 H 0.57582 0.32376 0.12419 0.0
H1912 H 0.58923 0.32805 0.16838 0.0
H1913 H 0.69994 0.38681 0.05606 0.0
H1914 H 0.66215 0.39199 0.05232 0.0
H1915 H 0.69527 0.42259 0.08282 0.0
H1916 H 0.55417 0.34546 0.02407 0.0
H1917 H 0.5908 0.44053 0.09951 0.0
H1918 H 0.57291 0.30147 0.06197 0.0
H1919 H 0.61474 0.31728 0.05113 0.0
H1920 H 0.58196 0.30871 0.01957 0.0
H1921 H 0.63178 0.42073 0.15859 0.0
H1922 H 0.63019 0.45514 0.14457 0.0
H1923 H 0.66102 0.43948 0.13006 0.0
C1924 C 0.69604 0.65298 0.16446 0.0
C1925 C 0.69449 0.6822 0.18506 0.0
C1926 C 0.67123 0.63154 0.13841 0.0
C1927 C 0.64409 0.63932 0.13379 0.0
C1928 C 0.64352 0.66985 0.15309 0.0
C1929 C 0.6689 0.69109 0.17857 0.0
C1930 C 0.67287 0.59948 0.11756 0.0
C1931 C 0.61484 0.67877 0.149 0.0
C1932 C 0.58101 0.58354 0.05863 0.0
C1933 C 0.5598 0.55969 0.07479 0.0
C1934 C 0.60856 0.61013 0.07754 0.0
C1935 C 0.61417 0.61319 0.11352 0.0
C1936 C 0.59174 0.59028 0.13037 0.0
C1937 C 0.5649 0.56363 0.11069 0.0
C1938 C 0.63226 0.63401 0.05879 0.0
C1939 C 0.59663 0.59326 0.169 0.0
H1940 H 0.71626 0.64656 0.1693 0.0
H1941 H 0.6677 0.71371 0.19472 0.0
H1942 H 0.65521 0.57844 0.12698 0.0
H1943 H 0.66588 0.59487 0.08941 0.0
H1944 H 0.69769 0.59968 0.12016 0.0
H1945 H 0.62069 0.7055 0.16119 0.0
H1946 H 0.60688 0.673 0.12095 0.0
H1947 H 0.59393 0.66368 0.16179 0.0
H1948 H 0.57678 0.58072 0.03091 0.0
H1949 H 0.54832 0.54545 0.12335 0.0
H1950 H 0.65566 0.63068 0.05748 0.0
H1951 H 0.63788 0.66013 0.07341 0.0
H1952 H 0.62268 0.63008 0.03167 0.0
H1953 H 0.61918 0.58976 0.17416 0.0
H1954 H 0.57574 0.5746 0.17844 0.0
H1955 H 0.59982 0.61847 0.18463 0.0
C1956 C 0.34533 0.66169 0.1116 0.0
C1957 C 0.37545 0.68909 0.11289 0.0
C1958 C 0.33782 0.63143 0.08636 0.0
C1959 C 0.3616 0.62785 0.06334 0.0
C1960 C 0.38877 0.65649 0.06006 0.0
C1961 C 0.39463 0.68707 0.08411 0.0
C1962 C 0.30656 0.60209 0.08773 0.0
C1963 C 0.4139 0.65416 0.03415 0.0
C1964 C 0.38848 0.55974 0.06629 0.0
C1965 C 0.38377 0.54232 0.03102 0.0
C1966 C 0.37931 0.58642 0.07753 0.0
C1967 C 0.36419 0.59524 0.0528 0.0
C1968 C 0.35556 0.57491 0.01804 0.0
C1969 C 0.36581 0.54857 0.00734 0.0
C1970 C 0.38838 0.60663 0.11526 0.0
C1971 C 0.33716 0.58181 0.99169 0.0
H1972 H 0.32834 0.66209 0.13153 0.0
H1973 H 0.4159 0.70853 0.08169 0.0
H1974 H 0.29918 0.58322 0.06211 0.0
H1975 H 0.31009 0.59007 0.10773 0.0
H1976 H 0.28636 0.61034 0.09539 0.0
H1977 H 0.43349 0.67889 0.03472 0.0
H1978 H 0.42549 0.6381 0.04002 0.0
H1979 H 0.40195 0.64268 0.00724 0.0
H1980 H 0.40186 0.55409 0.08457 0.0
H1981 H 0.36142 0.53421 0.98027 0.0
H1982 H 0.36606 0.60647 0.12848 0.0
H1983 H 0.4045 0.63287 0.11641 0.0
H1984 H 0.40126 0.59685 0.13041 0.0
H1985 H 0.32247 0.55852 0.97181 0.0
H1986 H 0.35483 0.59897 0.97782 0.0
H1987 H 0.32067 0.59357 0.00444 0.0
C1988 C 0.30923 0.32929 0.19412 0.0
C1989 C 0.32164 0.30875 0.20483 0.0
C1990 C 0.32414 0.34608 0.16891 0.0
C1991 C 0.35297 0.3435 0.15555 0.0
C1992 C 0.36617 0.32356 0.167 0.0
C1993 C 0.35013 0.30611 0.19144 0.0
C1994 C 0.30932 0.36691 0.1569 0.0
C1995 C 0.39744 0.32112 0.15382 0.0
C1996 C 0.38318 0.37035 0.07306 0.0
C1997 C 0.40668 0.40251 0.08733 0.0
C1998 C 0.36493 0.35081 0.09502 0.0
C1999 C 0.3708 0.36386 0.13178 0.0
C2000 C 0.39405 0.3965 0.14621 0.0
C2001 C 0.41155 0.4155 0.12378 0.0
C2002 C 0.33987 0.3161 0.07905 0.0
C2003 C 0.401 0.41114 0.18537 0.0
H2004 H 0.28784 0.33226 0.20538 0.0
H2005 H 0.35972 0.29026 0.19988 0.0
H2006 H 0.32609 0.39355 0.16538 0.0
H2007 H 0.30605 0.36004 0.12786 0.0
H2008 H 0.28524 0.36385 0.16755 0.0
H2009 H 0.40408 0.30395 0.16482 0.0
H2010 H 0.39498 0.31231 0.12483 0.0
H2011 H 0.4178 0.34611 0.16095 0.0
H2012 H 0.37942 0.3603 0.04487 0.0
H2013 H 0.42967 0.4404 0.13497 0.0
H2014 H 0.31579 0.31294 0.0897 0.0
H2015 H 0.34732 0.29758 0.08614 0.0
H2016 H 0.33687 0.31042 0.05003 0.0
H2017 H 0.37832 0.41123 0.19761 0.0
H2018 H 0.41993 0.43701 0.1922 0.0
H2019 H 0.40947 0.39561 0.19712 0.0
C2020 C 0.82412 0.67741 0.71198 0.0
C2021 C 0.809 0.69134 0.6935 0.0
C2022 C 0.84042 0.65747 0.69485 0.0
C2023 C 0.84172 0.65078 0.65795 0.0
C2024 C 0.82594 0.66416 0.63893 0.0
C2025 C 0.80992 0.68423 0.6569 0.0
C2026 C 0.85667 0.64396 0.71655 0.0
C2027 C 0.82571 0.65705 0.59953 0.0
C2028 C 0.9105 0.62527 0.61896 0.0
C2029 C 0.89501 0.5903 0.60893 0.0
C2030 C 0.89342 0.64515 0.63424 0.0
C2031 C 0.85973 0.62999 0.63958 0.0
C2032 C 0.84371 0.5948 0.62882 0.0
C2033 C 0.86146 0.57552 0.61393 0.0
C2034 C 0.91168 0.68248 0.6451 0.0
C2035 C 0.80787 0.57733 0.63374 0.0
H2036 H 0.82294 0.68181 0.7401 0.0
H2037 H 0.79861 0.6948 0.64228 0.0
H2038 H 0.85044 0.61713 0.70491 0.0
H2039 H 0.88361 0.65714 0.71706 0.0
H2040 H 0.8494 0.6472 0.74393 0.0
H2041 H 0.81506 0.67162 0.58885 0.0
H2042 H 0.8509 0.66277 0.59112 0.0
H2043 H 0.81113 0.63019 0.58783 0.0
H2044 H 0.93612 0.63731 0.61477 0.0
H2045 H 0.84903 0.54867 0.60699 0.0
H2046 H 0.91133 0.6917 0.67382 0.0
H2047 H 0.89944 0.69443 0.63224 0.0
H2048 H 0.93754 0.69055 0.63827 0.0
H2049 H 0.8039 0.58188 0.6621 0.0
H2050 H 0.79851 0.55003 0.62217 0.0
H2051 H 0.79323 0.58745 0.62154 0.0
C2052 C 0.31478 0.83704 0.69778 0.0
C2053 C 0.30843 0.80306 0.68949 0.0
C2054 C 0.33276 0.85729 0.67633 0.0
C2055 C 0.34536 0.84345 0.64611 0.0
C2056 C 0.33919 0.80918 0.63757 0.0
C2057 C 0.32026 0.78928 0.65899 0.0
C2058 C 0.33821 0.89358 0.68611 0.0
C2059 C 0.35367 0.79383 0.60668 0.0
C2060 C 0.37291 0.89431 0.57869 0.0
C2061 C 0.40569 0.91387 0.59079 0.0
C2062 C 0.35299 0.87046 0.59584 0.0
C2063 C 0.3666 0.86552 0.62492 0.0
C2064 C 0.40016 0.88404 0.63588 0.0
C2065 C 0.41913 0.9083 0.61903 0.0
C2066 C 0.31715 0.85158 0.58389 0.0
C2067 C 0.41576 0.87922 0.66639 0.0
H2068 H 0.30607 0.84805 0.72136 0.0
H2069 H 0.315 0.76299 0.65189 0.0
H2070 H 0.36404 0.90976 0.6841 0.0
H2071 H 0.32289 0.89767 0.66759 0.0
H2072 H 0.3318 0.90161 0.71321 0.0
H2073 H 0.34391 0.76631 0.60147 0.0
H2074 H 0.34883 0.80039 0.58274 0.0
H2075 H 0.38062 0.80395 0.61198 0.0
H2076 H 0.36258 0.89853 0.55674 0.0
H2077 H 0.44468 0.92301 0.62802 0.0
H2078 H 0.30225 0.85867 0.60484 0.0
H2079 H 0.31024 0.82442 0.57917 0.0
H2080 H 0.31077 0.85666 0.55956 0.0
H2081 H 0.40604 0.88849 0.69109 0.0
H2082 H 0.44281 0.89268 0.66895 0.0
H2083 H 0.40962 0.85238 0.66341 0.0
C2084 C 0.19102 0.38874 0.63619 0.0
C2085 C 0.17752 0.35774 0.64392 0.0
C2086 C 0.17172 0.4 0.61965 0.0
C2087 C 0.13802 0.37974 0.61086 0.0
C2088 C 0.12489 0.34727 0.61621 0.0
C2089 C 0.14484 0.3367 0.63291 0.0
C2090 C 0.18681 0.43475 0.61452 0.0
C2091 C 0.08921 0.32472 0.60689 0.0
C2092 C 0.0819 0.42583 0.62028 0.0
C2093 C 0.07571 0.4254 0.58549 0.0
C2094 C 0.10191 0.41086 0.62865 0.0
C2095 C 0.1158 0.3945 0.60155 0.0
C2096 C 0.10922 0.39338 0.5663 0.0
C2097 C 0.08951 0.40907 0.55872 0.0
C2098 C 0.10836 0.41278 0.66665 0.0
C2099 C 0.12326 0.376 0.53659 0.0
H2100 H 0.21623 0.40509 0.64519 0.0
H2101 H 0.13437 0.3129 0.63939 0.0
H2102 H 0.17955 0.43491 0.58799 0.0
H2103 H 0.17782 0.45122 0.6338 0.0
H2104 H 0.21396 0.44537 0.61814 0.0
H2105 H 0.08413 0.29871 0.60726 0.0
H2106 H 0.07411 0.33391 0.62603 0.0
H2107 H 0.08131 0.32482 0.58056 0.0
H2108 H 0.07085 0.43765 0.64114 0.0
H2109 H 0.0853 0.40892 0.53179 0.0
H2110 H 0.13503 0.42542 0.6742 0.0
H2111 H 0.10001 0.38736 0.67052 0.0
H2112 H 0.09578 0.42649 0.68458 0.0
H2113 H 0.15025 0.38933 0.53854 0.0
H2114 H 0.11348 0.37487 0.51053 0.0
H2115 H 0.11775 0.35029 0.53831 0.0
C2116 C 0.7244 0.15859 0.64802 0.0
C2117 C 0.71116 0.17425 0.67591 0.0
C2118 C 0.7039 0.13205 0.62088 0.0
C2119 C 0.66955 0.12217 0.6209 0.0
C2120 C 0.65618 0.13791 0.64905 0.0
C2121 C 0.67703 0.16293 0.67657 0.0
C2122 C 0.71899 0.11496 0.59212 0.0
C2123 C 0.61972 0.12875 0.6499 0.0
C2124 C 0.60532 0.08035 0.54521 0.0
C2125 C 0.58693 0.05086 0.55463 0.0
C2126 C 0.63521 0.10274 0.56406 0.0
C2127 C 0.64665 0.09496 0.59249 0.0
C2128 C 0.63006 0.06316 0.5987 0.0
C2129 C 0.60009 0.0417 0.58002 0.0
C2130 C 0.65222 0.13626 0.55634 0.0
C2131 C 0.64186 0.05326 0.62784 0.0
H2132 H 0.75067 0.16748 0.64687 0.0
H2133 H 0.66644 0.17452 0.69817 0.0
H2134 H 0.70615 0.08754 0.58711 0.0
H2135 H 0.71639 0.12163 0.56751 0.0
H2136 H 0.74542 0.12218 0.59865 0.0
H2137 H 0.61352 0.14506 0.67243 0.0
H2138 H 0.60984 0.13057 0.62538 0.0
H2139 H 0.60709 0.10265 0.65164 0.0
H2140 H 0.59507 0.0872 0.52531 0.0
H2141 H 0.58606 0.01849 0.58668 0.0
H2142 H 0.67917 0.1448 0.55934 0.0
H2143 H 0.64543 0.15482 0.57529 0.0
H2144 H 0.64501 0.13572 0.52943 0.0
H2145 H 0.66893 0.06237 0.62975 0.0
H2146 H 0.63113 0.02582 0.62395 0.0
H2147 H 0.63447 0.06458 0.65317 0.0
C2148 C 0.85071 0.3338 0.32292 0.0
C2149 C 0.8224 0.30794 0.32801 0.0
C2150 C 0.87245 0.35585 0.35138 0.0
C2151 C 0.86459 0.35275 0.38577 0.0
C2152 C 0.83534 0.32706 0.391 0.0
C2153 C 0.81479 0.30435 0.36174 0.0
C2154 C 0.90401 0.38215 0.3445 0.0
C2155 C 0.82549 0.32392 0.42725 0.0
C2156 C 0.94311 0.39627 0.44167 0.0
C2157 C 0.94462 0.42871 0.45063 0.0
C2158 C 0.91465 0.36973 0.42463 0.0
C2159 C 0.88791 0.37637 0.41559 0.0
C2160 C 0.88809 0.40855 0.42851 0.0
C2161 C 0.91666 0.43456 0.44621 0.0
C2162 C 0.91498 0.33555 0.41208 0.0
C2163 C 0.85988 0.4164 0.41958 0.0
H2164 H 0.85619 0.33618 0.29653 0.0
H2165 H 0.79238 0.28434 0.36518 0.0
H2166 H 0.90508 0.40731 0.35748 0.0
H2167 H 0.92525 0.37973 0.35563 0.0
H2168 H 0.90669 0.38031 0.31608 0.0
H2169 H 0.80368 0.30067 0.42658 0.0
H2170 H 0.84592 0.32451 0.44312 0.0
H2171 H 0.81966 0.34539 0.44081 0.0
H2172 H 0.96493 0.39204 0.44555 0.0
H2173 H 0.91816 0.45989 0.4533 0.0
H2174 H 0.92037 0.33129 0.38409 0.0
H2175 H 0.89081 0.31598 0.41406 0.0
H2176 H 0.93394 0.33293 0.42729 0.0
H2177 H 0.86127 0.41927 0.3924 0.0
H2178 H 0.86055 0.43989 0.43746 0.0
H2179 H 0.83614 0.39587 0.42079 0.0
C2180 C 0.68949 0.78806 0.33423 0.0
C2181 C 0.7129 0.80051 0.31114 0.0
C2182 C 0.67224 0.80661 0.35267 0.0
C2183 C 0.67758 0.83806 0.34707 0.0
C2184 C 0.70125 0.85082 0.32391 0.0
C2185 C 0.71871 0.8322 0.30669 0.0
C2186 C 0.64772 0.79217 0.37754 0.0
C2187 C 0.70755 0.88381 0.31636 0.0
C2188 C 0.60934 0.8701 0.3611 0.0
C2189 C 0.62074 0.89563 0.39229 0.0
C2190 C 0.62725 0.85099 0.34654 0.0
C2191 C 0.6573 0.85687 0.3637 0.0
C2192 C 0.6685 0.88179 0.39576 0.0
C2193 C 0.65031 0.90092 0.40947 0.0
C2194 C 0.61426 0.82492 0.31224 0.0
C2195 C 0.70011 0.88876 0.41533 0.0
H2196 H 0.68373 0.76338 0.33709 0.0
H2197 H 0.73661 0.84243 0.28902 0.0
H2198 H 0.65231 0.81058 0.40331 0.0
H2199 H 0.62265 0.78629 0.36708 0.0
H2200 H 0.6486 0.76909 0.3816 0.0
H2201 H 0.72721 0.89055 0.29823 0.0
H2202 H 0.68483 0.88282 0.30445 0.0
H2203 H 0.71458 0.90384 0.34107 0.0
H2204 H 0.58627 0.86496 0.34778 0.0
H2205 H 0.65985 0.92067 0.43328 0.0
H2206 H 0.61135 0.80025 0.31532 0.0
H2207 H 0.63198 0.83101 0.29212 0.0
H2208 H 0.59029 0.823 0.30244 0.0
H2209 H 0.70013 0.86538 0.41945 0.0
H2210 H 0.70414 0.907 0.4412 0.0
H2211 H 0.72098 0.89877 0.3996 0.0
C2212 C 0.18248 0.66863 0.29701 0.0
C2213 C 0.21602 0.68774 0.30551 0.0
C2214 C 0.16337 0.65011 0.31937 0.0
C2215 C 0.1784 0.65013 0.35047 0.0
C2216 C 0.21186 0.67066 0.35999 0.0
C2217 C 0.23007 0.68975 0.3377 0.0
C2218 C 0.12742 0.62945 0.30898 0.0
C2219 C 0.22898 0.67101 0.39258 0.0
C2220 C 0.12494 0.61206 0.41811 0.0
C2221 C 0.12199 0.57909 0.40682 0.0
C2222 C 0.14334 0.63569 0.40009 0.0
C2223 C 0.15992 0.6262 0.37103 0.0
C2224 C 0.15812 0.59324 0.36064 0.0
C2225 C 0.13866 0.5699 0.37829 0.0
C2226 C 0.14387 0.6703 0.41107 0.0
C2227 C 0.17629 0.58252 0.33043 0.0
H2228 H 0.17124 0.66749 0.27249 0.0
H2229 H 0.25556 0.70571 0.3452 0.0
H2230 H 0.12304 0.6027 0.30078 0.0
H2231 H 0.11265 0.63286 0.33159 0.0
H2232 H 0.11857 0.63591 0.28697 0.0
H2233 H 0.25377 0.69141 0.39858 0.0
H2234 H 0.21448 0.67369 0.41555 0.0
H2235 H 0.23148 0.64696 0.3888 0.0
H2236 H 0.11155 0.61891 0.4399 0.0
H2237 H 0.13632 0.54433 0.36968 0.0
H2238 H 0.13222 0.67482 0.38952 0.0
H2239 H 0.16943 0.68913 0.41596 0.0
H2240 H 0.13074 0.67412 0.43503 0.0
H2241 H 0.16631 0.58379 0.30569 0.0
H2242 H 0.1744 0.55677 0.32744 0.0
H2243 H 0.20253 0.59967 0.3343 0.0
C2244 C 0.37318 0.15076 0.35606 0.0
C2245 C 0.39475 0.18375 0.35873 0.0
C2246 C 0.38268 0.12967 0.36999 0.0
C2247 C 0.41441 0.14208 0.38702 0.0
C2248 C 0.43516 0.17616 0.3921 0.0
C2249 C 0.42513 0.19649 0.37767 0.0
C2250 C 0.35981 0.09353 0.36397 0.0
C2251 C 0.46901 0.19065 0.41034 0.0
C2252 C 0.44078 0.09168 0.43506 0.0
C2253 C 0.45834 0.07866 0.40991 0.0
C2254 C 0.42563 0.11174 0.4279 0.0
C2255 C 0.42788 0.11881 0.3947 0.0
C2256 C 0.44482 0.10503 0.36892 0.0
C2257 C 0.45993 0.08534 0.37688 0.0
C2258 C 0.40781 0.12584 0.4561 0.0
C2259 C 0.44782 0.11187 0.33313 0.0
H2260 H 0.34981 0.14087 0.34107 0.0
H2261 H 0.44179 0.22202 0.37956 0.0
H2262 H 0.36874 0.0781 0.34326 0.0
H2263 H 0.35921 0.08496 0.38808 0.0
H2264 H 0.3345 0.08904 0.35555 0.0
H2265 H 0.48014 0.21826 0.41638 0.0
H2266 H 0.46829 0.18305 0.43509 0.0
H2267 H 0.48512 0.18102 0.39328 0.0
H2268 H 0.43892 0.08629 0.46047 0.0
H2269 H 0.47387 0.076 0.35742 0.0
H2270 H 0.38221 0.11859 0.44627 0.0
H2271 H 0.4197 0.15341 0.46314 0.0
H2272 H 0.4075 0.11718 0.48016 0.0
H2273 H 0.42323 0.10505 0.32066 0.0
H2274 H 0.46032 0.09789 0.31543 0.0
H2275 H 0.46187 0.13884 0.33574 0.0
C2276 C 0.627 0.85385 0.67471 0.0
C2277 C 0.63952 0.83085 0.65676 0.0
C2278 C 0.6141 0.86984 0.65681 0.0
C2279 C 0.61491 0.86393 0.61998 0.0
C2280 C 0.62981 0.84275 0.6018 0.0
C2281 C 0.64163 0.8261 0.62035 0.0
C2282 C 0.59823 0.89193 0.67735 0.0
C2283 C 0.63213 0.83675 0.56267 0.0
C2284 C 0.54789 0.87746 0.57736 0.0
C2285 C 0.56362 0.91104 0.57754 0.0
C2286 C 0.56482 0.86111 0.58927 0.0
C2287 C 0.59845 0.87872 0.60088 0.0
C2288 C 0.61494 0.91199 0.59846 0.0
C2289 C 0.59712 0.92798 0.58745 0.0
C2290 C 0.54611 0.82576 0.59163 0.0
C2291 C 0.65102 0.93122 0.609 0.0
H2292 H 0.62627 0.85861 0.70293 0.0
H2293 H 0.6513 0.80845 0.60611 0.0
H2294 H 0.61026 0.9173 0.67339 0.0
H2295 H 0.57211 0.88198 0.66777 0.0
H2296 H 0.59956 0.89379 0.70589 0.0
H2297 H 0.64925 0.82459 0.55343 0.0
H2298 H 0.60763 0.82047 0.54909 0.0
H2299 H 0.64034 0.86051 0.55484 0.0
H2300 H 0.5219 0.86454 0.56971 0.0
H2301 H 0.60921 0.95394 0.58722 0.0
H2302 H 0.54463 0.82518 0.61957 0.0
H2303 H 0.55898 0.80982 0.57901 0.0
H2304 H 0.52084 0.81486 0.57903 0.0
H2305 H 0.65512 0.93816 0.63795 0.0
H2306 H 0.6611 0.95438 0.59987 0.0
H2307 H 0.66485 0.91572 0.59818 0.0
C2308 C 0.68164 0.17752 0.30644 0.0
C2309 C 0.71589 0.19053 0.30778 0.0
C2310 C 0.66427 0.15623 0.32719 0.0
C2311 C 0.6815 0.14664 0.3489 0.0
C2312 C 0.71606 0.15913 0.34997 0.0
C2313 C 0.73287 0.18124 0.32973 0.0
C2314 C 0.62741 0.14364 0.3256 0.0
C2315 C 0.73516 0.14828 0.37161 0.0
C2316 C 0.63589 0.10764 0.42017 0.0
C2317 C 0.62249 0.07384 0.40235 0.0
C2318 C 0.65577 0.13172 0.40333 0.0
C2319 C 0.66302 0.12153 0.3683 0.0
C2320 C 0.65074 0.08724 0.35088 0.0
C2321 C 0.63031 0.06388 0.36798 0.0
C2322 C 0.66748 0.1681 0.42227 0.0
C2323 C 0.65749 0.07495 0.31349 0.0
H2324 H 0.66826 0.1834 0.28867 0.0
H2325 H 0.75935 0.1908 0.33073 0.0
H2326 H 0.61633 0.11611 0.31642 0.0
H2327 H 0.61941 0.15051 0.35221 0.0
H2328 H 0.61766 0.15381 0.30778 0.0
H2329 H 0.7619 0.15961 0.36889 0.0
H2330 H 0.73071 0.1552 0.39966 0.0
H2331 H 0.72665 0.12079 0.36349 0.0
H2332 H 0.62959 0.1154 0.44666 0.0
H2333 H 0.62002 0.03774 0.35413 0.0
H2334 H 0.65633 0.18043 0.40859 0.0
H2335 H 0.69439 0.18067 0.42183 0.0
H2336 H 0.66105 0.1719 0.44994 0.0
H2337 H 0.63798 0.07353 0.29558 0.0
H2338 H 0.6573 0.04961 0.30866 0.0
H2339 H 0.68127 0.09176 0.30661 0.0
C2340 C 0.84124 0.62115 0.3691 0.0
C2341 C 0.8525 0.63582 0.3413 0.0
C2342 C 0.86112 0.61079 0.38624 0.0
C2343 C 0.8929 0.6155 0.37531 0.0
C2344 C 0.90515 0.63281 0.34917 0.0
C2345 C 0.8847 0.64255 0.33234 0.0
C2346 C 0.84725 0.59268 0.41419 0.0
C2347 C 0.939 0.63886 0.33704 0.0
C2348 C 0.95454 0.60003 0.42552 0.0
C2349 C 0.95091 0.56807 0.40627 0.0
C2350 C 0.93507 0.61542 0.41667 0.0
C2351 C 0.91168 0.59867 0.38756 0.0
C2352 C 0.90739 0.56614 0.36851 0.0
C2353 C 0.92694 0.55123 0.37816 0.0
C2354 C 0.94023 0.64993 0.43794 0.0
C2355 C 0.88256 0.54726 0.3374 0.0
H2356 H 0.81622 0.61578 0.37585 0.0
H2357 H 0.89331 0.65397 0.31084 0.0
H2358 H 0.84131 0.56575 0.40346 0.0
H2359 H 0.86546 0.60176 0.4369 0.0
H2360 H 0.82461 0.59567 0.42354 0.0
H2361 H 0.94614 0.65603 0.31961 0.0
H2362 H 0.95734 0.64948 0.35981 0.0
H2363 H 0.93979 0.61486 0.32246 0.0
H2364 H 0.97321 0.61348 0.44704 0.0
H2365 H 0.92342 0.52629 0.36357 0.0
H2366 H 0.91647 0.65108 0.4455 0.0
H2367 H 0.95134 0.66796 0.4219 0.0
H2368 H 0.95655 0.65786 0.46209 0.0
H2369 H 0.85788 0.54536 0.34515 0.0
H2370 H 0.88146 0.52175 0.32613 0.0
H2371 H 0.88879 0.56091 0.31664 0.0
C2372 C 0.30503 0.80651 0.3632 0.0
C2373 C 0.30775 0.81264 0.33 0.0
C2374 C 0.32649 0.82976 0.39171 0.0
C2375 C 0.35067 0.85968 0.38653 0.0
C2376 C 0.351 0.86712 0.35364 0.0
C2377 C 0.32984 0.84318 0.32558 0.0
C2378 C 0.32526 0.8208 0.4262 0.0
C2379 C 0.3759 0.89893 0.34699 0.0
C2380 C 0.41234 0.93267 0.45299 0.0
C2381 C 0.44074 0.92714 0.44449 0.0
C2382 C 0.38165 0.90923 0.43675 0.0
C2383 C 0.37969 0.87979 0.41199 0.0
C2384 C 0.40791 0.87264 0.40667 0.0
C2385 C 0.43816 0.89658 0.42273 0.0
C2386 C 0.35209 0.91754 0.44345 0.0
C2387 C 0.40681 0.84121 0.38109 0.0
H2388 H 0.288 0.78254 0.36622 0.0
H2389 H 0.33172 0.8476 0.29966 0.0
H2390 H 0.34455 0.81149 0.42835 0.0
H2391 H 0.32999 0.84289 0.44854 0.0
H2392 H 0.30124 0.80099 0.42842 0.0
H2393 H 0.36969 0.90309 0.32201 0.0
H2394 H 0.3778 0.92065 0.36871 0.0
H2395 H 0.40032 0.89775 0.34563 0.0
H2396 H 0.41441 0.95638 0.46989 0.0
H2397 H 0.46018 0.8922 0.41658 0.0
H2398 H 0.32975 0.89494 0.44311 0.0
H2399 H 0.34821 0.92828 0.4224 0.0
H2400 H 0.35545 0.93607 0.46898 0.0
H2401 H 0.42957 0.83721 0.38367 0.0
H2402 H 0.40362 0.84282 0.35393 0.0
H2403 H 0.38571 0.81922 0.38504 0.0
C2404 C 0.18102 0.29016 0.3066 0.0
C2405 C 0.21532 0.30215 0.30971 0.0
C2406 C 0.16433 0.30954 0.32427 0.0
C2407 C 0.18219 0.34206 0.34564 0.0
C2408 C 0.21684 0.35413 0.34937 0.0
C2409 C 0.23289 0.33411 0.33143 0.0
C2410 C 0.12746 0.2953 0.31945 0.0
C2411 C 0.23713 0.38853 0.37168 0.0
C2412 C 0.1406 0.40339 0.35855 0.0
C2413 C 0.12891 0.40334 0.39205 0.0
C2414 C 0.15828 0.38412 0.34357 0.0
C2415 C 0.16467 0.36395 0.3623 0.0
C2416 C 0.15347 0.36416 0.39636 0.0
C2417 C 0.13587 0.3838 0.41078 0.0
C2418 C 0.16997 0.38523 0.30745 0.0
C2419 C 0.1595 0.34313 0.41743 0.0
H2420 H 0.16706 0.26551 0.29008 0.0
H2421 H 0.25935 0.34402 0.33362 0.0
H2422 H 0.11695 0.29656 0.34531 0.0
H2423 H 0.11961 0.31027 0.30614 0.0
H2424 H 0.11709 0.26902 0.30364 0.0
H2425 H 0.26372 0.39402 0.37244 0.0
H2426 H 0.23304 0.40745 0.36136 0.0
H2427 H 0.22949 0.39119 0.39887 0.0
H2428 H 0.13618 0.41884 0.34395 0.0
H2429 H 0.12691 0.38321 0.43651 0.0
H2430 H 0.15866 0.3601 0.28922 0.0
H2431 H 0.19687 0.39276 0.30823 0.0
H2432 H 0.16388 0.40285 0.29668 0.0
H2433 H 0.14676 0.31643 0.40369 0.0
H2434 H 0.15075 0.34731 0.44413 0.0
H2435 H 0.18601 0.34867 0.41986 0.0
C2436 C 0.2957 0.15617 0.67689 0.0
C2437 C 0.30915 0.19109 0.68516 0.0
C2438 C 0.31311 0.13765 0.65902 0.0
C2439 C 0.34526 0.15429 0.64963 0.0
C2440 C 0.35872 0.1896 0.6573 0.0
C2441 C 0.34047 0.20747 0.67469 0.0
C2442 C 0.29716 0.10016 0.65079 0.0
C2443 C 0.3929 0.20868 0.64831 0.0
C2444 C 0.40156 0.10732 0.64065 0.0
C2445 C 0.40146 0.09568 0.60411 0.0
C2446 C 0.384 0.12677 0.65559 0.0
C2447 C 0.36528 0.1348 0.63371 0.0
C2448 C 0.36511 0.12333 0.59684 0.0
C2449 C 0.38317 0.10416 0.58258 0.0
C2450 C 0.3852 0.13839 0.69499 0.0
C2451 C 0.34549 0.13096 0.57231 0.0
H2452 H 0.27143 0.1432 0.68455 0.0
H2453 H 0.3513 0.23442 0.68132 0.0
H2454 H 0.29827 0.08922 0.6226 0.0
H2455 H 0.31058 0.091 0.66599 0.0
H2456 H 0.27115 0.09098 0.65715 0.0
H2457 H 0.39907 0.23582 0.65404 0.0
H2458 H 0.41085 0.20471 0.66359 0.0
H2459 H 0.39571 0.19942 0.62017 0.0
H2460 H 0.41485 0.10065 0.65789 0.0
H2461 H 0.38306 0.09597 0.55438 0.0
H2462 H 0.36038 0.12734 0.70402 0.0
H2463 H 0.39325 0.16583 0.7032 0.0
H2464 H 0.40205 0.13147 0.7084 0.0
H2465 H 0.34831 0.12079 0.54433 0.0
H2466 H 0.35319 0.15825 0.57735 0.0
H2467 H 0.31919 0.12027 0.57712 0.0
C2468 C 0.82332 0.28036 0.64842 0.0
C2469 C 0.8156 0.2971 0.68003 0.0
C2470 C 0.84234 0.29813 0.62527 0.0
C2471 C 0.85338 0.33325 0.63391 0.0
C2472 C 0.84617 0.35014 0.66617 0.0
C2473 C 0.82806 0.33192 0.68906 0.0
C2474 C 0.85092 0.27943 0.59192 0.0
C2475 C 0.85736 0.38757 0.67647 0.0
C2476 C 0.92613 0.39517 0.6032 0.0
C2477 C 0.911 0.40547 0.5806 0.0
C2478 C 0.90791 0.36895 0.61783 0.0
C2479 C 0.87359 0.35327 0.61048 0.0
C2480 C 0.85849 0.36203 0.58568 0.0
C2481 C 0.87755 0.38792 0.5706 0.0
C2482 C 0.92509 0.35955 0.64303 0.0
C2483 C 0.82191 0.34622 0.57752 0.0
H2484 H 0.81432 0.25344 0.64169 0.0
H2485 H 0.82362 0.34517 0.71418 0.0
H2486 H 0.8456 0.2873 0.56914 0.0
H2487 H 0.87753 0.28528 0.59358 0.0
H2488 H 0.83737 0.25209 0.58715 0.0
H2489 H 0.85034 0.39691 0.70288 0.0
H2490 H 0.88433 0.39981 0.67644 0.0
H2491 H 0.84651 0.39533 0.65708 0.0
H2492 H 0.95224 0.40823 0.61015 0.0
H2493 H 0.86598 0.39577 0.5528 0.0
H2494 H 0.91638 0.33215 0.63675 0.0
H2495 H 0.91911 0.36819 0.67017 0.0
H2496 H 0.9521 0.37049 0.64202 0.0
H2497 H 0.81216 0.31903 0.57486 0.0
H2498 H 0.81474 0.35065 0.55314 0.0
H2499 H 0.81027 0.35711 0.59952 0.0
C2500 C 0.1834 0.65455 0.66602 0.0
C2501 C 0.20322 0.68749 0.66676 0.0
C2502 C 0.1626 0.63356 0.63641 0.0
C2503 C 0.1624 0.64578 0.60662 0.0
C2504 C 0.18439 0.67833 0.60634 0.0
C2505 C 0.20421 0.69911 0.63681 0.0
C2506 C 0.13926 0.59907 0.63802 0.0
C2507 C 0.18591 0.69196 0.57481 0.0
C2508 C 0.10824 0.57218 0.53725 0.0
C2509 C 0.07797 0.57295 0.5465 0.0
C2510 C 0.13735 0.59882 0.55309 0.0
C2511 C 0.13554 0.62594 0.57883 0.0
C2512 C 0.10519 0.62879 0.58399 0.0
C2513 C 0.07664 0.60213 0.56763 0.0
C2514 C 0.16958 0.59604 0.54557 0.0
C2515 C 0.10227 0.65766 0.61066 0.0
H2516 H 0.18291 0.64573 0.68927 0.0
H2517 H 0.2202 0.72457 0.63737 0.0
H2518 H 0.11366 0.59696 0.63634 0.0
H2519 H 0.14173 0.58011 0.61552 0.0
H2520 H 0.14356 0.59308 0.6626 0.0
H2521 H 0.21043 0.71173 0.5742 0.0
H2522 H 0.18027 0.67213 0.54999 0.0
H2523 H 0.1677 0.70321 0.57615 0.0
H2524 H 0.10921 0.54968 0.52048 0.0
H2525 H 0.05308 0.60294 0.57393 0.0
H2526 H 0.17614 0.58557 0.56543 0.0
H2527 H 0.1894 0.62085 0.54713 0.0
H2528 H 0.16818 0.57933 0.51926 0.0
H2529 H 0.10579 0.65526 0.63741 0.0
H2530 H 0.07794 0.65853 0.60783 0.0
H2531 H 0.12144 0.68156 0.6082 0.0
loop_
_geom_bond_atom_site_label_1
_geom_bond_atom_site_label_2
_geom_bond_distance
_geom_bond_site_symmetry_2
_ccdc_geom_bond_type
Tb0 N29 2.617 . S
Tb0 N35 2.572 . S
Tb0 O44 2.465 . S
Tb0 O45 2.387 . S
Tb0 O47 2.428 . S
Tb0 O48 2.308 . S
Tb0 O52 2.349 . S
Tb0 O55 2.393 . S
Tb0 C64 2.802 . S
C1 N2 1.379 . S
C1 C4 1.416 . S
C1 C8 1.424 . S
N2 C1 1.379 . S
N2 C5 1.334 . S
N2 Tb11 2.617 . S
C3 C5 1.390 . S
C3 C6 1.339 . S
C3 H23 0.930 . S
C4 C1 1.416 . S
C4 C6 1.416 . S
C4 C10 1.448 . S
C5 N2 1.334 . S
C5 C3 1.390 . S
C5 H16 0.930 . S
C6 C3 1.339 . S
C6 C4 1.416 . S
C6 H27 0.930 . S
C7 C8 1.413 . S
C7 C9 1.427 . S
C7 C13 1.416 . S
C8 C1 1.424 . S
C8 C7 1.413 . S
C8 N12 1.361 . S
C9 C7 1.427 . S
C9 C10 1.328 . S
C9 H24 0.929 . S
C10 C4 1.448 . S
C10 C9 1.328 . S
C10 H25 0.930 . S
Tb11 N2 2.617 . S
Tb11 N12 2.572 . S
Tb11 O46 2.349 . S
Tb11 O49 2.393 . S
Tb11 O50 2.465 . S
Tb11 O51 2.387 . S
Tb11 O53 2.428 . S
Tb11 O54 2.308 . S
Tb11 C75 2.802 . S
N12 C8 1.361 . S
N12 Tb11 2.572 . S
N12 C14 1.340 . S
C13 C7 1.416 . S
C13 C15 1.332 . S
C13 H21 0.931 . S
C14 N12 1.340 . S
C14 C15 1.407 . S
C14 H20 0.930 . S
C15 C13 1.332 . S
C15 C14 1.407 . S
C15 H17 0.929 . S
H16 C5 0.930 . S
H17 C15 0.929 . S
H18 C33 0.930 . S
H19 C40 0.929 . S
H20 C14 0.930 . S
H21 C13 0.931 . S
H22 C36 0.930 . S
H23 C3 0.930 . S
H24 C9 0.929 . S
H25 C10 0.930 . S
H26 C31 0.930 . S
H27 C6 0.930 . S
H28 C39 0.931 . S
N29 Tb0 2.617 . S
N29 C30 1.379 . S
N29 C33 1.334 . S
C30 N29 1.379 . S
C30 C32 1.416 . S
C30 C38 1.424 . S
C31 H26 0.930 . S
C31 C33 1.390 . S
C31 C34 1.339 . S
C32 C30 1.416 . S
C32 C34 1.416 . S
C32 C65 1.448 . S
C33 H18 0.930 . S
C33 N29 1.334 . S
C33 C31 1.390 . S
C34 C31 1.339 . S
C34 C32 1.416 . S
C34 H41 0.930 . S
N35 Tb0 2.572 . S
N35 C36 1.340 . S
N35 C38 1.361 . S
C36 H22 0.930 . S
C36 N35 1.340 . S
C36 C40 1.407 . S
C37 C38 1.413 . S
C37 C39 1.416 . S
C37 C66 1.427 . S
C38 C30 1.424 . S
C38 N35 1.361 . S
C38 C37 1.413 . S
C39 H28 0.931 . S
C39 C37 1.416 . S
C39 C40 1.332 . S
C40 H19 0.929 . S
C40 C36 1.407 . S
C40 C39 1.332 . S
H41 C34 0.930 . S
H42 C65 0.930 . S
H43 C66 0.929 . S
O44 Tb0 2.465 . S
O44 C64 1.264 . S
O45 Tb0 2.387 . S
O45 C56 1.264 . S
O46 Tb11 2.349 . S
O46 C56 1.243 . S
O47 Tb0 2.428 . S
O47 C64 1.256 . S
O48 Tb0 2.308 . S
O48 C63 1.266 . S
O49 Tb11 2.393 . S
O49 C63 1.248 . S
O50 Tb11 2.465 . S
O50 C75 1.264 . S
O51 Tb11 2.387 . S
O51 C67 1.264 . S
O52 Tb0 2.349 . S
O52 C67 1.243 . S
O53 Tb11 2.428 . S
O53 C75 1.256 . S
O54 Tb11 2.308 . S
O54 C74 1.266 . S
O55 Tb0 2.393 . S
O55 C74 1.248 . S
C56 O45 1.264 . S
C56 O46 1.243 . S
C57 C60 1.399 . S
C57 C62 1.383 . S
C57 C64 1.496 . S
C58 C59 1.399 . S
C58 C62 1.389 . S
C59 C58 1.399 . S
C59 C61 1.380 . S
C59 H76 0.929 . S
C60 C57 1.399 . S
C60 C61 1.392 . S
C60 H77 0.929 . S
C61 C59 1.380 . S
C61 C60 1.392 . S
C61 H78 0.929 . S
C62 C57 1.383 . S
C62 C58 1.389 . S
C62 H79 0.931 . S
C63 O48 1.266 . S
C63 O49 1.248 . S
C64 Tb0 2.802 . S
C64 O44 1.264 . S
C64 O47 1.256 . S
C64 C57 1.496 . S
C65 C32 1.448 . S
C65 H42 0.930 . S
C65 C66 1.328 . S
C66 C37 1.427 . S
C66 H43 0.929 . S
C66 C65 1.328 . S
C67 O51 1.264 . S
C67 O52 1.243 . S
C68 C71 1.399 . S
C68 C72 1.383 . S
C68 C75 1.496 . S
C69 C70 1.399 . S
C69 C72 1.389 . S
C70 C69 1.399 . S
C70 C73 1.380 . S
C70 H80 0.929 . S
C71 C68 1.399 . S
C71 C73 1.392 . S
C71 H81 0.929 . S
C72 C68 1.383 . S
C72 C69 1.389 . S
C72 H82 0.931 . S
C73 C70 1.380 . S
C73 C71 1.392 . S
C73 H83 0.929 . S
C74 O54 1.266 . S
C74 O55 1.248 . S
C75 Tb11 2.802 . S
C75 O50 1.264 . S
C75 O53 1.256 . S
C75 C68 1.496 . S
H76 C59 0.929 . S
H77 C60 0.929 . S
H78 C61 0.929 . S
H79 C62 0.931 . S
H80 C70 0.929 . S
H81 C71 0.929 . S
H82 C72 0.931 . S
H83 C73 0.929 . S
Tb84 N113 2.617 . S
Tb84 N119 2.572 . S
Tb84 O128 2.465 . S
Tb84 O129 2.387 . S
Tb84 O131 2.428 . S
Tb84 O132 2.308 . S
Tb84 O136 2.349 . S
Tb84 O139 2.393 . S
Tb84 C148 2.802 . S
C85 N86 1.379 . S
C85 C88 1.416 . S
C85 C92 1.424 . S
N86 C85 1.379 . S
N86 C89 1.334 . S
N86 Tb95 2.617 . S
C87 C89 1.390 . S
C87 C90 1.339 . S
C87 H107 0.930 . S
C88 C85 1.416 . S
C88 C90 1.416 . S
C88 C94 1.448 . S
C89 N86 1.334 . S
C89 C87 1.390 . S
C89 H100 0.930 . S
C90 C87 1.339 . S
C90 C88 1.416 . S
C90 H111 0.930 . S
C91 C92 1.413 . S
C91 C93 1.427 . S
C91 C97 1.416 . S
C92 C85 1.424 . S
C92 C91 1.413 . S
C92 N96 1.361 . S
C93 C91 1.427 . S
C93 C94 1.328 . S
C93 H108 0.929 . S
C94 C88 1.448 . S
C94 C93 1.328 . S
C94 H109 0.930 . S
Tb95 N86 2.617 . S
Tb95 N96 2.572 . S
Tb95 O130 2.349 . S
Tb95 O133 2.393 . S
Tb95 O134 2.465 . S
Tb95 O135 2.387 . S
Tb95 O137 2.428 . S
Tb95 O138 2.308 . S
Tb95 C159 2.802 . S
N96 C92 1.361 . S
N96 Tb95 2.572 . S
N96 C98 1.340 . S
C97 C91 1.416 . S
C97 C99 1.332 . S
C97 H105 0.931 . S
C98 N96 1.340 . S
C98 C99 1.407 . S
C98 H104 0.930 . S
C99 C97 1.332 . S
C99 C98 1.407 . S
C99 H101 0.929 . S
H100 C89 0.930 . S
H101 C99 0.929 . S
H102 C117 0.930 . S
H103 C124 0.929 . S
H104 C98 0.930 . S
H105 C97 0.931 . S
H106 C120 0.930 . S
H107 C87 0.930 . S
H108 C93 0.929 . S
H109 C94 0.930 . S
H110 C115 0.930 . S
H111 C90 0.930 . S
H112 C123 0.931 . S
N113 Tb84 2.617 . S
N113 C114 1.379 . S
N113 C117 1.334 . S
C114 N113 1.379 . S
C114 C116 1.416 . S
C114 C122 1.424 . S
C115 H110 0.930 . S
C115 C117 1.390 . S
C115 C118 1.339 . S
C116 C114 1.416 . S
C116 C118 1.416 . S
C116 C149 1.448 . S
C117 H102 0.930 . S
C117 N113 1.334 . S
C117 C115 1.390 . S
C118 C115 1.339 . S
C118 C116 1.416 . S
C118 H125 0.930 . S
N119 Tb84 2.572 . S
N119 C120 1.340 . S
N119 C122 1.361 . S
C120 H106 0.930 . S
C120 N119 1.340 . S
C120 C124 1.407 . S
C121 C122 1.413 . S
C121 C123 1.416 . S
C121 C150 1.427 . S
C122 C114 1.424 . S
C122 N119 1.361 . S
C122 C121 1.413 . S
C123 H112 0.931 . S
C123 C121 1.416 . S
C123 C124 1.332 . S
C124 H103 0.929 . S
C124 C120 1.407 . S
C124 C123 1.332 . S
H125 C118 0.930 . S
H126 C149 0.930 . S
H127 C150 0.929 . S
O128 Tb84 2.465 . S
O128 C148 1.264 . S
O129 Tb84 2.387 . S
O129 C140 1.264 . S
O130 Tb95 2.349 . S
O130 C140 1.243 . S
O131 Tb84 2.428 . S
O131 C148 1.256 . S
O132 Tb84 2.308 . S
O132 C147 1.266 . S
O133 Tb95 2.393 . S
O133 C147 1.248 . S
O134 Tb95 2.465 . S
O134 C159 1.264 . S
O135 Tb95 2.387 . S
O135 C151 1.264 . S
O136 Tb84 2.349 . S
O136 C151 1.243 . S
O137 Tb95 2.428 . S
O137 C159 1.256 . S
O138 Tb95 2.308 . S
O138 C158 1.266 . S
O139 Tb84 2.393 . S
O139 C158 1.248 . S
C140 O129 1.264 . S
C140 O130 1.243 . S
C141 C144 1.399 . S
C141 C146 1.383 . S
C141 C148 1.496 . S
C142 C143 1.399 . S
C142 C146 1.389 . S
C143 C142 1.399 . S
C143 C145 1.380 . S
C143 H160 0.929 . S
C144 C141 1.399 . S
C144 C145 1.392 . S
C144 H161 0.929 . S
C145 C143 1.380 . S
C145 C144 1.392 . S
C145 H162 0.929 . S
C146 C141 1.383 . S
C146 C142 1.389 . S
C146 H163 0.931 . S
C147 O132 1.266 . S
C147 O133 1.248 . S
C148 Tb84 2.802 . S
C148 O128 1.264 . S
C148 O131 1.256 . S
C148 C141 1.496 . S
C149 C116 1.448 . S
C149 H126 0.930 . S
C149 C150 1.328 . S
C150 C121 1.427 . S
C150 H127 0.929 . S
C150 C149 1.328 . S
C151 O135 1.264 . S
C151 O136 1.243 . S
C152 C155 1.399 . S
C152 C156 1.383 . S
C152 C159 1.496 . S
C153 C154 1.399 . S
C153 C156 1.389 . S
C154 C153 1.399 . S
C154 C157 1.380 . S
C154 H164 0.929 . S
C155 C152 1.399 . S
C155 C157 1.392 . S
C155 H165 0.929 . S
C156 C152 1.383 . S
C156 C153 1.389 . S
C156 H166 0.931 . S
C157 C154 1.380 . S
C157 C155 1.392 . S
C157 H167 0.929 . S
C158 O138 1.266 . S
C158 O139 1.248 . S
C159 Tb95 2.802 . S
C159 O134 1.264 . S
C159 O137 1.256 . S
C159 C152 1.496 . S
H160 C143 0.929 . S
H161 C144 0.929 . S
H162 C145 0.929 . S
H163 C146 0.931 . S
H164 C154 0.929 . S
H165 C155 0.929 . S
H166 C156 0.931 . S
H167 C157 0.929 . S
Tb168 N197 2.617 . S
Tb168 N203 2.572 . S
Tb168 O212 2.465 . S
Tb168 O213 2.387 . S
Tb168 O215 2.428 . S
Tb168 O216 2.308 . S
Tb168 O220 2.349 . S
Tb168 O223 2.393 . S
Tb168 C232 2.802 . S
C169 N170 1.379 . S
C169 C172 1.416 . S
C169 C176 1.424 . S
N170 C169 1.379 . S
N170 C173 1.334 . S
N170 Tb179 2.617 . S
C171 C173 1.390 . S
C171 C174 1.339 . S
C171 H191 0.930 . S
C172 C169 1.416 . S
C172 C174 1.416 . S
C172 C178 1.448 . S
C173 N170 1.334 . S
C173 C171 1.390 . S
C173 H184 0.930 . S
C174 C171 1.339 . S
C174 C172 1.416 . S
C174 H195 0.930 . S
C175 C176 1.413 . S
C175 C177 1.427 . S
C175 C181 1.416 . S
C176 C169 1.424 . S
C176 C175 1.413 . S
C176 N180 1.361 . S
C177 C175 1.427 . S
C177 C178 1.328 . S
C177 H192 0.929 . S
C178 C172 1.448 . S
C178 C177 1.328 . S
C178 H193 0.930 . S
Tb179 N170 2.617 . S
Tb179 N180 2.572 . S
Tb179 O214 2.349 . S
Tb179 O217 2.393 . S
Tb179 O218 2.465 . S
Tb179 O219 2.387 . S
Tb179 O221 2.428 . S
Tb179 O222 2.308 . S
Tb179 C243 2.802 . S
N180 C176 1.361 . S
N180 Tb179 2.572 . S
N180 C182 1.340 . S
C181 C175 1.416 . S
C181 C183 1.332 . S
C181 H189 0.931 . S
C182 N180 1.340 . S
C182 C183 1.407 . S
C182 H188 0.930 . S
C183 C181 1.332 . S
C183 C182 1.407 . S
C183 H185 0.929 . S
H184 C173 0.930 . S
H185 C183 0.929 . S
H186 C201 0.930 . S
H187 C208 0.929 . S
H188 C182 0.930 . S
H189 C181 0.931 . S
H190 C204 0.930 . S
H191 C171 0.930 . S
H192 C177 0.929 . S
H193 C178 0.930 . S
H194 C199 0.930 . S
H195 C174 0.930 . S
H196 C207 0.931 . S
N197 Tb168 2.617 . S
N197 C198 1.379 . S
N197 C201 1.334 . S
C198 N197 1.379 . S
C198 C200 1.416 . S
C198 C206 1.424 . S
C199 H194 0.930 . S
C199 C201 1.390 . S
C199 C202 1.339 . S
C200 C198 1.416 . S
C200 C202 1.416 . S
C200 C233 1.448 . S
C201 H186 0.930 . S
C201 N197 1.334 . S
C201 C199 1.390 . S
C202 C199 1.339 . S
C202 C200 1.416 . S
C202 H209 0.930 . S
N203 Tb168 2.572 . S
N203 C204 1.340 . S
N203 C206 1.361 . S
C204 H190 0.930 . S
C204 N203 1.340 . S
C204 C208 1.407 . S
C205 C206 1.413 . S
C205 C207 1.416 . S
C205 C234 1.427 . S
C206 C198 1.424 . S
C206 N203 1.361 . S
C206 C205 1.413 . S
C207 H196 0.931 . S
C207 C205 1.416 . S
C207 C208 1.332 . S
C208 H187 0.929 . S
C208 C204 1.407 . S
C208 C207 1.332 . S
H209 C202 0.930 . S
H210 C233 0.930 . S
H211 C234 0.929 . S
O212 Tb168 2.465 . S
O212 C232 1.264 . S
O213 Tb168 2.387 . S
O213 C224 1.264 . S
O214 Tb179 2.349 . S
O214 C224 1.243 . S
O215 Tb168 2.428 . S
O215 C232 1.256 . S
O216 Tb168 2.308 . S
O216 C231 1.266 . S
O217 Tb179 2.393 . S
O217 C231 1.248 . S
O218 Tb179 2.465 . S
O218 C243 1.264 . S
O219 Tb179 2.387 . S
O219 C235 1.264 . S
O220 Tb168 2.349 . S
O220 C235 1.243 . S
O221 Tb179 2.428 . S
O221 C243 1.256 . S
O222 Tb179 2.308 . S
O222 C242 1.266 . S
O223 Tb168 2.393 . S
O223 C242 1.248 . S
C224 O213 1.264 . S
C224 O214 1.243 . S
C225 C228 1.399 . S
C225 C230 1.383 . S
C225 C232 1.496 . S
C226 C227 1.399 . S
C226 C230 1.389 . S
C227 C226 1.399 . S
C227 C229 1.380 . S
C227 H244 0.929 . S
C228 C225 1.399 . S
C228 C229 1.392 . S
C228 H245 0.929 . S
C229 C227 1.380 . S
C229 C228 1.392 . S
C229 H246 0.929 . S
C230 C225 1.383 . S
C230 C226 1.389 . S
C230 H247 0.931 . S
C231 O216 1.266 . S
C231 O217 1.248 . S
C232 Tb168 2.802 . S
C232 O212 1.264 . S
C232 O215 1.256 . S
C232 C225 1.496 . S
C233 C200 1.448 . S
C233 H210 0.930 . S
C233 C234 1.328 . S
C234 C205 1.427 . S
C234 H211 0.929 . S
C234 C233 1.328 . S
C235 O219 1.264 . S
C235 O220 1.243 . S
C236 C239 1.399 . S
C236 C240 1.383 . S
C236 C243 1.496 . S
C237 C238 1.399 . S
C237 C240 1.389 . S
C238 C237 1.399 . S
C238 C241 1.380 . S
C238 H248 0.929 . S
C239 C236 1.399 . S
C239 C241 1.392 . S
C239 H249 0.929 . S
C240 C236 1.383 . S
C240 C237 1.389 . S
C240 H250 0.931 . S
C241 C238 1.380 . S
C241 C239 1.392 . S
C241 H251 0.929 . S
C242 O222 1.266 . S
C242 O223 1.248 . S
C243 Tb179 2.802 . S
C243 O218 1.264 . S
C243 O221 1.256 . S
C243 C236 1.496 . S
H244 C227 0.929 . S
H245 C228 0.929 . S
H246 C229 0.929 . S
H247 C230 0.931 . S
H248 C238 0.929 . S
H249 C239 0.929 . S
H250 C240 0.931 . S
H251 C241 0.929 . S
Tb252 N281 2.617 . S
Tb252 N287 2.572 . S
Tb252 O296 2.465 . S
Tb252 O297 2.387 . S
Tb252 O299 2.428 . S
Tb252 O300 2.308 . S
Tb252 O304 2.349 . S
Tb252 O307 2.393 . S
Tb252 C316 2.802 . S
C253 N254 1.379 . S
C253 C256 1.416 . S
C253 C260 1.424 . S
N254 C253 1.379 . S
N254 C257 1.334 . S
N254 Tb263 2.617 . S
C255 C257 1.390 . S
C255 C258 1.339 . S
C255 H275 0.930 . S
C256 C253 1.416 . S
C256 C258 1.416 . S
C256 C262 1.448 . S
C257 N254 1.334 . S
C257 C255 1.390 . S
C257 H268 0.930 . S
C258 C255 1.339 . S
C258 C256 1.416 . S
C258 H279 0.930 . S
C259 C260 1.413 . S
C259 C261 1.427 . S
C259 C265 1.416 . S
C260 C253 1.424 . S
C260 C259 1.413 . S
C260 N264 1.361 . S
C261 C259 1.427 . S
C261 C262 1.328 . S
C261 H276 0.929 . S
C262 C256 1.448 . S
C262 C261 1.328 . S
C262 H277 0.930 . S
Tb263 N254 2.617 . S
Tb263 N264 2.572 . S
Tb263 O298 2.349 . S
Tb263 O301 2.393 . S
Tb263 O302 2.465 . S
Tb263 O303 2.387 . S
Tb263 O305 2.428 . S
Tb263 O306 2.308 . S
Tb263 C327 2.802 . S
N264 C260 1.361 . S
N264 Tb263 2.572 . S
N264 C266 1.340 . S
C265 C259 1.416 . S
C265 C267 1.332 . S
C265 H273 0.931 . S
C266 N264 1.340 . S
C266 C267 1.407 . S
C266 H272 0.930 . S
C267 C265 1.332 . S
C267 C266 1.407 . S
C267 H269 0.929 . S
H268 C257 0.930 . S
H269 C267 0.929 . S
H270 C285 0.930 . S
H271 C292 0.929 . S
H272 C266 0.930 . S
H273 C265 0.931 . S
H274 C288 0.930 . S
H275 C255 0.930 . S
H276 C261 0.929 . S
H277 C262 0.930 . S
H278 C283 0.930 . S
H279 C258 0.930 . S
H280 C291 0.931 . S
N281 Tb252 2.617 . S
N281 C282 1.379 . S
N281 C285 1.334 . S
C282 N281 1.379 . S
C282 C284 1.416 . S
C282 C290 1.424 . S
C283 H278 0.930 . S
C283 C285 1.390 . S
C283 C286 1.339 . S
C284 C282 1.416 . S
C284 C286 1.416 . S
C284 C317 1.448 . S
C285 H270 0.930 . S
C285 N281 1.334 . S
C285 C283 1.390 . S
C286 C283 1.339 . S
C286 C284 1.416 . S
C286 H293 0.930 . S
N287 Tb252 2.572 . S
N287 C288 1.340 . S
N287 C290 1.361 . S
C288 H274 0.930 . S
C288 N287 1.340 . S
C288 C292 1.407 . S
C289 C290 1.413 . S
C289 C291 1.416 . S
C289 C318 1.427 . S
C290 C282 1.424 . S
C290 N287 1.361 . S
C290 C289 1.413 . S
C291 H280 0.931 . S
C291 C289 1.416 . S
C291 C292 1.332 . S
C292 H271 0.929 . S
C292 C288 1.407 . S
C292 C291 1.332 . S
H293 C286 0.930 . S
H294 C317 0.930 . S
H295 C318 0.929 . S
O296 Tb252 2.465 . S
O296 C316 1.264 . S
O297 Tb252 2.387 . S
O297 C308 1.264 . S
O298 Tb263 2.349 . S
O298 C308 1.243 . S
O299 Tb252 2.428 . S
O299 C316 1.256 . S
O300 Tb252 2.308 . S
O300 C315 1.266 . S
O301 Tb263 2.393 . S
O301 C315 1.248 . S
O302 Tb263 2.465 . S
O302 C327 1.264 . S
O303 Tb263 2.387 . S
O303 C319 1.264 . S
O304 Tb252 2.349 . S
O304 C319 1.243 . S
O305 Tb263 2.428 . S
O305 C327 1.256 . S
O306 Tb263 2.308 . S
O306 C326 1.266 . S
O307 Tb252 2.393 . S
O307 C326 1.248 . S
C308 O297 1.264 . S
C308 O298 1.243 . S
C309 C312 1.399 . S
C309 C314 1.383 . S
C309 C316 1.496 . S
C310 C311 1.399 . S
C310 C314 1.389 . S
C311 C310 1.399 . S
C311 C313 1.380 . S
C311 H328 0.929 . S
C312 C309 1.399 . S
C312 C313 1.392 . S
C312 H329 0.929 . S
C313 C311 1.380 . S
C313 C312 1.392 . S
C313 H330 0.929 . S
C314 C309 1.383 . S
C314 C310 1.389 . S
C314 H331 0.931 . S
C315 O300 1.266 . S
C315 O301 1.248 . S
C316 Tb252 2.802 . S
C316 O296 1.264 . S
C316 O299 1.256 . S
C316 C309 1.496 . S
C317 C284 1.448 . S
C317 H294 0.930 . S
C317 C318 1.328 . S
C318 C289 1.427 . S
C318 H295 0.929 . S
C318 C317 1.328 . S
C319 O303 1.264 . S
C319 O304 1.243 . S
C320 C323 1.399 . S
C320 C324 1.383 . S
C320 C327 1.496 . S
C321 C322 1.399 . S
C321 C324 1.389 . S
C322 C321 1.399 . S
C322 C325 1.380 . S
C322 H332 0.929 . S
C323 C320 1.399 . S
C323 C325 1.392 . S
C323 H333 0.929 . S
C324 C320 1.383 . S
C324 C321 1.389 . S
C324 H334 0.931 . S
C325 C322 1.380 . S
C325 C323 1.392 . S
C325 H335 0.929 . S
C326 O306 1.266 . S
C326 O307 1.248 . S
C327 Tb263 2.802 . S
C327 O302 1.264 . S
C327 O305 1.256 . S
C327 C320 1.496 . S
H328 C311 0.929 . S
H329 C312 0.929 . S
H330 C313 0.929 . S
H331 C314 0.931 . S
H332 C322 0.929 . S
H333 C323 0.929 . S
H334 C324 0.931 . S
H335 C325 0.929 . S
Tb336 N365 2.617 . S
Tb336 N371 2.572 . S
Tb336 O380 2.465 . S
Tb336 O381 2.387 . S
Tb336 O383 2.428 . S
Tb336 O384 2.308 . S
Tb336 O388 2.349 . S
Tb336 O391 2.393 . S
Tb336 C400 2.802 . S
C337 N338 1.379 . S
C337 C340 1.416 . S
C337 C344 1.424 . S
N338 C337 1.379 . S
N338 C341 1.334 . S
N338 Tb347 2.617 . S
C339 C341 1.390 . S
C339 C342 1.339 . S
C339 H359 0.930 . S
C340 C337 1.416 . S
C340 C342 1.416 . S
C340 C346 1.448 . S
C341 N338 1.334 . S
C341 C339 1.390 . S
C341 H352 0.930 . S
C342 C339 1.339 . S
C342 C340 1.416 . S
C342 H363 0.930 . S
C343 C344 1.413 . S
C343 C345 1.427 . S
C343 C349 1.416 . S
C344 C337 1.424 . S
C344 C343 1.413 . S
C344 N348 1.361 . S
C345 C343 1.427 . S
C345 C346 1.328 . S
C345 H360 0.929 . S
C346 C340 1.448 . S
C346 C345 1.328 . S
C346 H361 0.930 . S
Tb347 N338 2.617 . S
Tb347 N348 2.572 . S
Tb347 O382 2.349 . S
Tb347 O385 2.393 . S
Tb347 O386 2.465 . S
Tb347 O387 2.387 . S
Tb347 O389 2.428 . S
Tb347 O390 2.308 . S
Tb347 C411 2.802 . S
N348 C344 1.361 . S
N348 Tb347 2.572 . S
N348 C350 1.340 . S
C349 C343 1.416 . S
C349 C351 1.332 . S
C349 H357 0.931 . S
C350 N348 1.340 . S
C350 C351 1.407 . S
C350 H356 0.930 . S
C351 C349 1.332 . S
C351 C350 1.407 . S
C351 H353 0.929 . S
H352 C341 0.930 . S
H353 C351 0.929 . S
H354 C369 0.930 . S
H355 C376 0.929 . S
H356 C350 0.930 . S
H357 C349 0.931 . S
H358 C372 0.930 . S
H359 C339 0.930 . S
H360 C345 0.929 . S
H361 C346 0.930 . S
H362 C367 0.930 . S
H363 C342 0.930 . S
H364 C375 0.931 . S
N365 Tb336 2.617 . S
N365 C366 1.379 . S
N365 C369 1.334 . S
C366 N365 1.379 . S
C366 C368 1.416 . S
C366 C374 1.424 . S
C367 H362 0.930 . S
C367 C369 1.390 . S
C367 C370 1.339 . S
C368 C366 1.416 . S
C368 C370 1.416 . S
C368 C401 1.448 . S
C369 H354 0.930 . S
C369 N365 1.334 . S
C369 C367 1.390 . S
C370 C367 1.339 . S
C370 C368 1.416 . S
C370 H377 0.930 . S
N371 Tb336 2.572 . S
N371 C372 1.340 . S
N371 C374 1.361 . S
C372 H358 0.930 . S
C372 N371 1.340 . S
C372 C376 1.407 . S
C373 C374 1.413 . S
C373 C375 1.416 . S
C373 C402 1.427 . S
C374 C366 1.424 . S
C374 N371 1.361 . S
C374 C373 1.413 . S
C375 H364 0.931 . S
C375 C373 1.416 . S
C375 C376 1.332 . S
C376 H355 0.929 . S
C376 C372 1.407 . S
C376 C375 1.332 . S
H377 C370 0.930 . S
H378 C401 0.930 . S
H379 C402 0.929 . S
O380 Tb336 2.465 . S
O380 C400 1.264 . S
O381 Tb336 2.387 . S
O381 C392 1.264 . S
O382 Tb347 2.349 . S
O382 C392 1.243 . S
O383 Tb336 2.428 . S
O383 C400 1.256 . S
O384 Tb336 2.308 . S
O384 C399 1.266 . S
O385 Tb347 2.393 . S
O385 C399 1.248 . S
O386 Tb347 2.465 . S
O386 C411 1.264 . S
O387 Tb347 2.387 . S
O387 C403 1.264 . S
O388 Tb336 2.349 . S
O388 C403 1.243 . S
O389 Tb347 2.428 . S
O389 C411 1.256 . S
O390 Tb347 2.308 . S
O390 C410 1.266 . S
O391 Tb336 2.393 . S
O391 C410 1.248 . S
C392 O381 1.264 . S
C392 O382 1.243 . S
C393 C396 1.399 . S
C393 C398 1.383 . S
C393 C400 1.496 . S
C394 C395 1.399 . S
C394 C398 1.389 . S
C395 C394 1.399 . S
C395 C397 1.380 . S
C395 H412 0.929 . S
C396 C393 1.399 . S
C396 C397 1.392 . S
C396 H413 0.929 . S
C397 C395 1.380 . S
C397 C396 1.392 . S
C397 H414 0.929 . S
C398 C393 1.383 . S
C398 C394 1.389 . S
C398 H415 0.931 . S
C399 O384 1.266 . S
C399 O385 1.248 . S
C400 Tb336 2.802 . S
C400 O380 1.264 . S
C400 O383 1.256 . S
C400 C393 1.496 . S
C401 C368 1.448 . S
C401 H378 0.930 . S
C401 C402 1.328 . S
C402 C373 1.427 . S
C402 H379 0.929 . S
C402 C401 1.328 . S
C403 O387 1.264 . S
C403 O388 1.243 . S
C404 C407 1.399 . S
C404 C408 1.383 . S
C404 C411 1.496 . S
C405 C406 1.399 . S
C405 C408 1.389 . S
C406 C405 1.399 . S
C406 C409 1.380 . S
C406 H416 0.929 . S
C407 C404 1.399 . S
C407 C409 1.392 . S
C407 H417 0.929 . S
C408 C404 1.383 . S
C408 C405 1.389 . S
C408 H418 0.931 . S
C409 C406 1.380 . S
C409 C407 1.392 . S
C409 H419 0.929 . S
C410 O390 1.266 . S
C410 O391 1.248 . S
C411 Tb347 2.802 . S
C411 O386 1.264 . S
C411 O389 1.256 . S
C411 C404 1.496 . S
H412 C395 0.929 . S
H413 C396 0.929 . S
H414 C397 0.929 . S
H415 C398 0.931 . S
H416 C406 0.929 . S
H417 C407 0.929 . S
H418 C408 0.931 . S
H419 C409 0.929 . S
Tb420 N449 2.617 . S
Tb420 N455 2.572 . S
Tb420 O464 2.465 . S
Tb420 O465 2.387 . S
Tb420 O467 2.428 . S
Tb420 O468 2.308 . S
Tb420 O472 2.349 . S
Tb420 O475 2.393 . S
Tb420 C484 2.802 . S
C421 N422 1.379 . S
C421 C424 1.416 . S
C421 C428 1.424 . S
N422 C421 1.379 . S
N422 C425 1.334 . S
N422 Tb431 2.617 . S
C423 C425 1.390 . S
C423 C426 1.339 . S
C423 H443 0.930 . S
C424 C421 1.416 . S
C424 C426 1.416 . S
C424 C430 1.448 . S
C425 N422 1.334 . S
C425 C423 1.390 . S
C425 H436 0.930 . S
C426 C423 1.339 . S
C426 C424 1.416 . S
C426 H447 0.930 . S
C427 C428 1.413 . S
C427 C429 1.427 . S
C427 C433 1.416 . S
C428 C421 1.424 . S
C428 C427 1.413 . S
C428 N432 1.361 . S
C429 C427 1.427 . S
C429 C430 1.328 . S
C429 H444 0.929 . S
C430 C424 1.448 . S
C430 C429 1.328 . S
C430 H445 0.930 . S
Tb431 N422 2.617 . S
Tb431 N432 2.572 . S
Tb431 O466 2.349 . S
Tb431 O469 2.393 . S
Tb431 O470 2.465 . S
Tb431 O471 2.387 . S
Tb431 O473 2.428 . S
Tb431 O474 2.308 . S
Tb431 C495 2.802 . S
N432 C428 1.361 . S
N432 Tb431 2.572 . S
N432 C434 1.340 . S
C433 C427 1.416 . S
C433 C435 1.332 . S
C433 H441 0.931 . S
C434 N432 1.340 . S
C434 C435 1.407 . S
C434 H440 0.930 . S
C435 C433 1.332 . S
C435 C434 1.407 . S
C435 H437 0.929 . S
H436 C425 0.930 . S
H437 C435 0.929 . S
H438 C453 0.930 . S
H439 C460 0.929 . S
H440 C434 0.930 . S
H441 C433 0.931 . S
H442 C456 0.930 . S
H443 C423 0.930 . S
H444 C429 0.929 . S
H445 C430 0.930 . S
H446 C451 0.930 . S
H447 C426 0.930 . S
H448 C459 0.931 . S
N449 Tb420 2.617 . S
N449 C450 1.379 . S
N449 C453 1.334 . S
C450 N449 1.379 . S
C450 C452 1.416 . S
C450 C458 1.424 . S
C451 H446 0.930 . S
C451 C453 1.390 . S
C451 C454 1.339 . S
C452 C450 1.416 . S
C452 C454 1.416 . S
C452 C485 1.448 . S
C453 H438 0.930 . S
C453 N449 1.334 . S
C453 C451 1.390 . S
C454 C451 1.339 . S
C454 C452 1.416 . S
C454 H461 0.930 . S
N455 Tb420 2.572 . S
N455 C456 1.340 . S
N455 C458 1.361 . S
C456 H442 0.930 . S
C456 N455 1.340 . S
C456 C460 1.407 . S
C457 C458 1.413 . S
C457 C459 1.416 . S
C457 C486 1.427 . S
C458 C450 1.424 . S
C458 N455 1.361 . S
C458 C457 1.413 . S
C459 H448 0.931 . S
C459 C457 1.416 . S
C459 C460 1.332 . S
C460 H439 0.929 . S
C460 C456 1.407 . S
C460 C459 1.332 . S
H461 C454 0.930 . S
H462 C485 0.930 . S
H463 C486 0.929 . S
O464 Tb420 2.465 . S
O464 C484 1.264 . S
O465 Tb420 2.387 . S
O465 C476 1.264 . S
O466 Tb431 2.349 . S
O466 C476 1.243 . S
O467 Tb420 2.428 . S
O467 C484 1.256 . S
O468 Tb420 2.308 . S
O468 C483 1.266 . S
O469 Tb431 2.393 . S
O469 C483 1.248 . S
O470 Tb431 2.465 . S
O470 C495 1.264 . S
O471 Tb431 2.387 . S
O471 C487 1.264 . S
O472 Tb420 2.349 . S
O472 C487 1.243 . S
O473 Tb431 2.428 . S
O473 C495 1.256 . S
O474 Tb431 2.308 . S
O474 C494 1.266 . S
O475 Tb420 2.393 . S
O475 C494 1.248 . S
C476 O465 1.264 . S
C476 O466 1.243 . S
C477 C480 1.399 . S
C477 C482 1.383 . S
C477 C484 1.496 . S
C478 C479 1.399 . S
C478 C482 1.389 . S
C479 C478 1.399 . S
C479 C481 1.380 . S
C479 H496 0.929 . S
C480 C477 1.399 . S
C480 C481 1.392 . S
C480 H497 0.929 . S
C481 C479 1.380 . S
C481 C480 1.392 . S
C481 H498 0.929 . S
C482 C477 1.383 . S
C482 C478 1.389 . S
C482 H499 0.931 . S
C483 O468 1.266 . S
C483 O469 1.248 . S
C484 Tb420 2.802 . S
C484 O464 1.264 . S
C484 O467 1.256 . S
C484 C477 1.496 . S
C485 C452 1.448 . S
C485 H462 0.930 . S
C485 C486 1.328 . S
C486 C457 1.427 . S
C486 H463 0.929 . S
C486 C485 1.328 . S
C487 O471 1.264 . S
C487 O472 1.243 . S
C488 C491 1.399 . S
C488 C492 1.383 . S
C488 C495 1.496 . S
C489 C490 1.399 . S
C489 C492 1.389 . S
C490 C489 1.399 . S
C490 C493 1.380 . S
C490 H500 0.929 . S
C491 C488 1.399 . S
C491 C493 1.392 . S
C491 H501 0.929 . S
C492 C488 1.383 . S
C492 C489 1.389 . S
C492 H502 0.931 . S
C493 C490 1.380 . S
C493 C491 1.392 . S
C493 H503 0.929 . S
C494 O474 1.266 . S
C494 O475 1.248 . S
C495 Tb431 2.802 . S
C495 O470 1.264 . S
C495 O473 1.256 . S
C495 C488 1.496 . S
H496 C479 0.929 . S
H497 C480 0.929 . S
H498 C481 0.929 . S
H499 C482 0.931 . S
H500 C490 0.929 . S
H501 C491 0.929 . S
H502 C492 0.931 . S
H503 C493 0.929 . S
Tb504 N533 2.617 . S
Tb504 N539 2.572 . S
Tb504 O548 2.465 . S
Tb504 O549 2.387 . S
Tb504 O551 2.428 . S
Tb504 O552 2.308 . S
Tb504 O556 2.349 . S
Tb504 O559 2.393 . S
Tb504 C568 2.802 . S
C505 N506 1.379 . S
C505 C508 1.416 . S
C505 C512 1.424 . S
N506 C505 1.379 . S
N506 C509 1.334 . S
N506 Tb515 2.617 . S
C507 C509 1.390 . S
C507 C510 1.339 . S
C507 H527 0.930 . S
C508 C505 1.416 . S
C508 C510 1.416 . S
C508 C514 1.448 . S
C509 N506 1.334 . S
C509 C507 1.390 . S
C509 H520 0.930 . S
C510 C507 1.339 . S
C510 C508 1.416 . S
C510 H531 0.930 . S
C511 C512 1.413 . S
C511 C513 1.427 . S
C511 C517 1.416 . S
C512 C505 1.424 . S
C512 C511 1.413 . S
C512 N516 1.361 . S
C513 C511 1.427 . S
C513 C514 1.328 . S
C513 H528 0.929 . S
C514 C508 1.448 . S
C514 C513 1.328 . S
C514 H529 0.930 . S
Tb515 N506 2.617 . S
Tb515 N516 2.572 . S
Tb515 O550 2.349 . S
Tb515 O553 2.393 . S
Tb515 O554 2.465 . S
Tb515 O555 2.387 . S
Tb515 O557 2.428 . S
Tb515 O558 2.308 . S
Tb515 C579 2.802 . S
N516 C512 1.361 . S
N516 Tb515 2.572 . S
N516 C518 1.340 . S
C517 C511 1.416 . S
C517 C519 1.332 . S
C517 H525 0.931 . S
C518 N516 1.340 . S
C518 C519 1.407 . S
C518 H524 0.930 . S
C519 C517 1.332 . S
C519 C518 1.407 . S
C519 H521 0.929 . S
H520 C509 0.930 . S
H521 C519 0.929 . S
H522 C537 0.930 . S
H523 C544 0.929 . S
H524 C518 0.930 . S
H525 C517 0.931 . S
H526 C540 0.930 . S
H527 C507 0.930 . S
H528 C513 0.929 . S
H529 C514 0.930 . S
H530 C535 0.930 . S
H531 C510 0.930 . S
H532 C543 0.931 . S
N533 Tb504 2.617 . S
N533 C534 1.379 . S
N533 C537 1.334 . S
C534 N533 1.379 . S
C534 C536 1.416 . S
C534 C542 1.424 . S
C535 H530 0.930 . S
C535 C537 1.390 . S
C535 C538 1.339 . S
C536 C534 1.416 . S
C536 C538 1.416 . S
C536 C569 1.448 . S
C537 H522 0.930 . S
C537 N533 1.334 . S
C537 C535 1.390 . S
C538 C535 1.339 . S
C538 C536 1.416 . S
C538 H545 0.930 . S
N539 Tb504 2.572 . S
N539 C540 1.340 . S
N539 C542 1.361 . S
C540 H526 0.930 . S
C540 N539 1.340 . S
C540 C544 1.407 . S
C541 C542 1.413 . S
C541 C543 1.416 . S
C541 C570 1.427 . S
C542 C534 1.424 . S
C542 N539 1.361 . S
C542 C541 1.413 . S
C543 H532 0.931 . S
C543 C541 1.416 . S
C543 C544 1.332 . S
C544 H523 0.929 . S
C544 C540 1.407 . S
C544 C543 1.332 . S
H545 C538 0.930 . S
H546 C569 0.930 . S
H547 C570 0.929 . S
O548 Tb504 2.465 . S
O548 C568 1.264 . S
O549 Tb504 2.387 . S
O549 C560 1.264 . S
O550 Tb515 2.349 . S
O550 C560 1.243 . S
O551 Tb504 2.428 . S
O551 C568 1.256 . S
O552 Tb504 2.308 . S
O552 C567 1.266 . S
O553 Tb515 2.393 . S
O553 C567 1.248 . S
O554 Tb515 2.465 . S
O554 C579 1.264 . S
O555 Tb515 2.387 . S
O555 C571 1.264 . S
O556 Tb504 2.349 . S
O556 C571 1.243 . S
O557 Tb515 2.428 . S
O557 C579 1.256 . S
O558 Tb515 2.308 . S
O558 C578 1.266 . S
O559 Tb504 2.393 . S
O559 C578 1.248 . S
C560 O549 1.264 . S
C560 O550 1.243 . S
C561 C564 1.399 . S
C561 C566 1.383 . S
C561 C568 1.496 . S
C562 C563 1.399 . S
C562 C566 1.389 . S
C563 C562 1.399 . S
C563 C565 1.380 . S
C563 H580 0.929 . S
C564 C561 1.399 . S
C564 C565 1.392 . S
C564 H581 0.929 . S
C565 C563 1.380 . S
C565 C564 1.392 . S
C565 H582 0.929 . S
C566 C561 1.383 . S
C566 C562 1.389 . S
C566 H583 0.931 . S
C567 O552 1.266 . S
C567 O553 1.248 . S
C568 Tb504 2.802 . S
C568 O548 1.264 . S
C568 O551 1.256 . S
C568 C561 1.496 . S
C569 C536 1.448 . S
C569 H546 0.930 . S
C569 C570 1.328 . S
C570 C541 1.427 . S
C570 H547 0.929 . S
C570 C569 1.328 . S
C571 O555 1.264 . S
C571 O556 1.243 . S
C572 C575 1.399 . S
C572 C576 1.383 . S
C572 C579 1.496 . S
C573 C574 1.399 . S
C573 C576 1.389 . S
C574 C573 1.399 . S
C574 C577 1.380 . S
C574 H584 0.929 . S
C575 C572 1.399 . S
C575 C577 1.392 . S
C575 H585 0.929 . S
C576 C572 1.383 . S
C576 C573 1.389 . S
C576 H586 0.931 . S
C577 C574 1.380 . S
C577 C575 1.392 . S
C577 H587 0.929 . S
C578 O558 1.266 . S
C578 O559 1.248 . S
C579 Tb515 2.802 . S
C579 O554 1.264 . S
C579 O557 1.256 . S
C579 C572 1.496 . S
H580 C563 0.929 . S
H581 C564 0.929 . S
H582 C565 0.929 . S
H583 C566 0.931 . S
H584 C574 0.929 . S
H585 C575 0.929 . S
H586 C576 0.931 . S
H587 C577 0.929 . S
Tb588 N617 2.617 . S
Tb588 N623 2.572 . S
Tb588 O632 2.465 . S
Tb588 O633 2.387 . S
Tb588 O635 2.428 . S
Tb588 O636 2.308 . S
Tb588 O640 2.349 . S
Tb588 O643 2.393 . S
Tb588 C652 2.802 . S
C589 N590 1.379 . S
C589 C592 1.416 . S
C589 C596 1.424 . S
N590 C589 1.379 . S
N590 C593 1.334 . S
N590 Tb599 2.617 . S
C591 C593 1.390 . S
C591 C594 1.339 . S
C591 H611 0.930 . S
C592 C589 1.416 . S
C592 C594 1.416 . S
C592 C598 1.448 . S
C593 N590 1.334 . S
C593 C591 1.390 . S
C593 H604 0.930 . S
C594 C591 1.339 . S
C594 C592 1.416 . S
C594 H615 0.930 . S
C595 C596 1.413 . S
C595 C597 1.427 . S
C595 C601 1.416 . S
C596 C589 1.424 . S
C596 C595 1.413 . S
C596 N600 1.361 . S
C597 C595 1.427 . S
C597 C598 1.328 . S
C597 H612 0.929 . S
C598 C592 1.448 . S
C598 C597 1.328 . S
C598 H613 0.930 . S
Tb599 N590 2.617 . S
Tb599 N600 2.572 . S
Tb599 O634 2.349 . S
Tb599 O637 2.393 . S
Tb599 O638 2.465 . S
Tb599 O639 2.387 . S
Tb599 O641 2.428 . S
Tb599 O642 2.308 . S
Tb599 C663 2.802 . S
N600 C596 1.361 . S
N600 Tb599 2.572 . S
N600 C602 1.340 . S
C601 C595 1.416 . S
C601 C603 1.332 . S
C601 H609 0.931 . S
C602 N600 1.340 . S
C602 C603 1.407 . S
C602 H608 0.930 . S
C603 C601 1.332 . S
C603 C602 1.407 . S
C603 H605 0.929 . S
H604 C593 0.930 . S
H605 C603 0.929 . S
H606 C621 0.930 . S
H607 C628 0.929 . S
H608 C602 0.930 . S
H609 C601 0.931 . S
H610 C624 0.930 . S
H611 C591 0.930 . S
H612 C597 0.929 . S
H613 C598 0.930 . S
H614 C619 0.930 . S
H615 C594 0.930 . S
H616 C627 0.931 . S
N617 Tb588 2.617 . S
N617 C618 1.379 . S
N617 C621 1.334 . S
C618 N617 1.379 . S
C618 C620 1.416 . S
C618 C626 1.424 . S
C619 H614 0.930 . S
C619 C621 1.390 . S
C619 C622 1.339 . S
C620 C618 1.416 . S
C620 C622 1.416 . S
C620 C653 1.448 . S
C621 H606 0.930 . S
C621 N617 1.334 . S
C621 C619 1.390 . S
C622 C619 1.339 . S
C622 C620 1.416 . S
C622 H629 0.930 . S
N623 Tb588 2.572 . S
N623 C624 1.340 . S
N623 C626 1.361 . S
C624 H610 0.930 . S
C624 N623 1.340 . S
C624 C628 1.407 . S
C625 C626 1.413 . S
C625 C627 1.416 . S
C625 C654 1.427 . S
C626 C618 1.424 . S
C626 N623 1.361 . S
C626 C625 1.413 . S
C627 H616 0.931 . S
C627 C625 1.416 . S
C627 C628 1.332 . S
C628 H607 0.929 . S
C628 C624 1.407 . S
C628 C627 1.332 . S
H629 C622 0.930 . S
H630 C653 0.930 . S
H631 C654 0.929 . S
O632 Tb588 2.465 . S
O632 C652 1.264 . S
O633 Tb588 2.387 . S
O633 C644 1.264 . S
O634 Tb599 2.349 . S
O634 C644 1.243 . S
O635 Tb588 2.428 . S
O635 C652 1.256 . S
O636 Tb588 2.308 . S
O636 C651 1.266 . S
O637 Tb599 2.393 . S
O637 C651 1.248 . S
O638 Tb599 2.465 . S
O638 C663 1.264 . S
O639 Tb599 2.387 . S
O639 C655 1.264 . S
O640 Tb588 2.349 . S
O640 C655 1.243 . S
O641 Tb599 2.428 . S
O641 C663 1.256 . S
O642 Tb599 2.308 . S
O642 C662 1.266 . S
O643 Tb588 2.393 . S
O643 C662 1.248 . S
C644 O633 1.264 . S
C644 O634 1.243 . S
C645 C648 1.399 . S
C645 C650 1.383 . S
C645 C652 1.496 . S
C646 C647 1.399 . S
C646 C650 1.389 . S
C647 C646 1.399 . S
C647 C649 1.380 . S
C647 H664 0.929 . S
C648 C645 1.399 . S
C648 C649 1.392 . S
C648 H665 0.929 . S
C649 C647 1.380 . S
C649 C648 1.392 . S
C649 H666 0.929 . S
C650 C645 1.383 . S
C650 C646 1.389 . S
C650 H667 0.931 . S
C651 O636 1.266 . S
C651 O637 1.248 . S
C652 Tb588 2.802 . S
C652 O632 1.264 . S
C652 O635 1.256 . S
C652 C645 1.496 . S
C653 C620 1.448 . S
C653 H630 0.930 . S
C653 C654 1.328 . S
C654 C625 1.427 . S
C654 H631 0.929 . S
C654 C653 1.328 . S
C655 O639 1.264 . S
C655 O640 1.243 . S
C656 C659 1.399 . S
C656 C660 1.383 . S
C656 C663 1.496 . S
C657 C658 1.399 . S
C657 C660 1.389 . S
C658 C657 1.399 . S
C658 C661 1.380 . S
C658 H668 0.929 . S
C659 C656 1.399 . S
C659 C661 1.392 . S
C659 H669 0.929 . S
C660 C656 1.383 . S
C660 C657 1.389 . S
C660 H670 0.931 . S
C661 C658 1.380 . S
C661 C659 1.392 . S
C661 H671 0.929 . S
C662 O642 1.266 . S
C662 O643 1.248 . S
C663 Tb599 2.802 . S
C663 O638 1.264 . S
C663 O641 1.256 . S
C663 C656 1.496 . S
H664 C647 0.929 . S
H665 C648 0.929 . S
H666 C649 0.929 . S
H667 C650 0.931 . S
H668 C658 0.929 . S
H669 C659 0.929 . S
H670 C660 0.931 . S
H671 C661 0.929 . S
Cd672 N675 2.334 1_655 S
Cd672 N701 2.304 1_565 S
Cd672 O708 2.268 . S
Cd672 O711 2.273 1_665 S
Cd672 O712 2.417 . S
Cd672 O713 2.330 . S
Cd673 N688 2.304 1_455 S
Cd673 N692 2.334 1_545 S
Cd673 O709 2.273 1_445 S
Cd673 O710 2.268 . S
Cd673 O714 2.417 . S
Cd673 O715 2.330 . S
C674 N675 1.332 . S
C674 C678 1.381 . S
C674 H680 0.931 . S
N675 Cd672 2.334 1_455 S
N675 C674 1.332 . S
N675 C679 1.328 . S
C676 C677 1.396 . S
C676 C679 1.378 . S
C676 H718 0.931 . S
C677 C676 1.396 . S
C677 C678 1.382 . S
C678 C674 1.381 . S
C678 C677 1.382 . S
C678 H719 0.930 . S
C679 N675 1.328 . S
C679 C676 1.378 . S
C679 H681 0.930 1_455 S
H680 C674 0.931 . S
H681 C679 0.930 1_655 S
C682 O708 1.238 . S
C682 O709 1.253 . S
C683 C684 1.379 . S
C683 N688 1.337 . S
C683 H689 0.929 . S
C684 C683 1.379 . S
C684 C685 1.380 . S
C684 H720 0.929 . S
C685 C684 1.380 . S
C685 C686 1.399 . S
C686 C685 1.399 . S
C686 C687 1.391 . S
C686 H721 0.931 . S
C687 C686 1.391 . S
C687 N688 1.335 . S
C687 H690 0.918 1_655 S
N688 Cd673 2.304 1_655 S
N688 C683 1.337 . S
N688 C687 1.335 . S
H689 C683 0.929 . S
H690 C687 0.918 1_455 S
C691 N692 1.332 . S
C691 C695 1.381 . S
C691 H697 0.931 . S
N692 Cd673 2.334 1_565 S
N692 C691 1.332 . S
N692 C696 1.328 . S
C693 C694 1.396 . S
C693 C696 1.378 . S
C693 H722 0.931 . S
C694 C693 1.396 . S
C694 C695 1.382 . S
C695 C691 1.381 . S
C695 C694 1.382 . S
C695 H723 0.930 . S
C696 N692 1.328 . S
C696 C693 1.378 . S
C696 H698 0.930 1_565 S
H697 C691 0.931 . S
H698 C696 0.930 1_545 S
C699 O710 1.238 . S
C699 O711 1.253 . S
C700 O712 1.239 . S
C700 O713 1.230 . S
N701 Cd672 2.304 1_545 S
N701 C702 1.337 . S
N701 C706 1.338 . S
C702 N701 1.337 . S
C702 C703 1.379 . S
C702 H716 0.929 . S
C703 C702 1.379 . S
C703 C704 1.380 . S
C703 H724 0.929 . S
C704 C703 1.380 . S
C704 C705 1.399 . S
C705 C704 1.399 . S
C705 C706 1.376 . S
C705 H725 0.931 . S
C706 N701 1.338 . S
C706 C705 1.376 . S
C706 H717 0.930 1_545 S
C707 O714 1.239 . S
C707 O715 1.230 . S
O708 Cd672 2.268 . S
O708 C682 1.238 . S
O709 Cd673 2.273 1_665 S
O709 C682 1.253 . S
O710 Cd673 2.268 . S
O710 C699 1.238 . S
O711 Cd672 2.273 1_445 S
O711 C699 1.253 . S
O712 Cd672 2.417 . S
O712 C700 1.239 . S
O713 Cd672 2.330 . S
O713 C700 1.230 . S
O714 Cd673 2.417 . S
O714 C707 1.239 . S
O715 Cd673 2.330 . S
O715 C707 1.230 . S
H716 C702 0.929 . S
H717 C706 0.930 1_565 S
H718 C676 0.931 . S
H719 C678 0.930 . S
H720 C684 0.929 . S
H721 C686 0.931 . S
H722 C693 0.931 . S
H723 C695 0.930 . S
H724 C703 0.929 . S
H725 C705 0.931 . S
Cd726 N729 2.334 . S
Cd726 N755 2.304 1_565 S
Cd726 O762 2.268 1_554 S
Cd726 O765 2.273 1_565 S
Cd726 O766 2.417 . S
Cd726 O767 2.330 . S
Cd727 N742 2.304 . S
Cd727 N746 2.334 1_545 S
Cd727 O763 2.273 1_545 S
Cd727 O764 2.268 1_556 S
Cd727 O768 2.417 . S
Cd727 O769 2.330 . S
C728 N729 1.332 . S
C728 C732 1.381 . S
C728 H734 0.931 . S
N729 Cd726 2.334 . S
N729 C728 1.332 . S
N729 C733 1.328 . S
C730 C731 1.396 . S
C730 C733 1.378 . S
C730 H772 0.931 1_554 S
C731 C730 1.396 . S
C731 C732 1.382 . S
C732 C728 1.381 . S
C732 C731 1.382 . S
C732 H773 0.930 . S
C733 N729 1.328 . S
C733 C730 1.378 . S
C733 H735 0.930 1_554 S
H734 C728 0.931 . S
H735 C733 0.930 1_556 S
C736 O762 1.238 . S
C736 O763 1.253 . S
C737 C738 1.379 . S
C737 N742 1.337 . S
C737 H743 0.929 . S
C738 C737 1.379 . S
C738 C739 1.380 . S
C738 H774 0.929 . S
C739 C738 1.380 . S
C739 C740 1.399 . S
C740 C739 1.399 . S
C740 C741 1.376 . S
C740 H775 0.931 1_556 S
C741 C740 1.376 . S
C741 N742 1.338 . S
C741 H744 0.930 1_556 S
N742 Cd727 2.304 . S
N742 C737 1.337 . S
N742 C741 1.338 . S
H743 C737 0.929 . S
H744 C741 0.930 1_554 S
C745 N746 1.332 . S
C745 C749 1.381 . S
C745 H751 0.931 . S
N746 Cd727 2.334 1_565 S
N746 C745 1.332 . S
N746 C750 1.328 . S
C747 C748 1.396 . S
C747 C750 1.378 . S
C747 H776 0.931 . S
C748 C747 1.396 . S
C748 C749 1.382 . S
C749 C745 1.381 . S
C749 C748 1.382 . S
C749 H777 0.930 . S
C750 N746 1.328 . S
C750 C747 1.378 . S
C750 H752 0.930 1_566 S
H751 C745 0.931 . S
H752 C750 0.930 1_544 S
C753 O764 1.238 . S
C753 O765 1.253 . S
C754 O766 1.239 . S
C754 O767 1.230 . S
N755 Cd726 2.304 1_545 S
N755 C756 1.337 . S
N755 C760 1.338 . S
C756 N755 1.337 . S
C756 C757 1.379 . S
C756 H770 0.929 . S
C757 C756 1.379 . S
C757 C758 1.380 . S
C757 H778 0.929 . S
C758 C757 1.380 . S
C758 C759 1.399 . S
C759 C758 1.399 . S
C759 C760 1.376 . S
C759 H779 0.931 . S
C760 N755 1.338 . S
C760 C759 1.376 . S
C760 H771 0.930 1_544 S
C761 O768 1.239 . S
C761 O769 1.230 . S
O762 Cd726 2.268 1_556 S
O762 C736 1.238 . S
O763 Cd727 2.273 1_565 S
O763 C736 1.253 . S
O764 Cd727 2.268 1_554 S
O764 C753 1.238 . S
O765 Cd726 2.273 1_545 S
O765 C753 1.253 . S
O766 Cd726 2.417 . S
O766 C754 1.239 . S
O767 Cd726 2.330 . S
O767 C754 1.230 . S
O768 Cd727 2.417 . S
O768 C761 1.239 . S
O769 Cd727 2.330 . S
O769 C761 1.230 . S
H770 C756 0.929 . S
H771 C760 0.930 1_566 S
H772 C730 0.931 1_556 S
H773 C732 0.930 . S
H774 C738 0.929 . S
H775 C740 0.931 1_554 S
H776 C747 0.931 . S
H777 C749 0.930 . S
H778 C757 0.929 . S
H779 C759 0.931 . S
Cd780 N783 2.334 1_655 S
Cd780 N809 2.304 . S
Cd780 O816 2.268 1_554 S
Cd780 O819 2.273 1_655 S
Cd780 O820 2.417 . S
Cd780 O821 2.330 . S
Cd781 N796 2.304 1_455 S
Cd781 N800 2.334 . S
Cd781 O817 2.273 1_455 S
Cd781 O818 2.268 1_556 S
Cd781 O822 2.417 . S
Cd781 O823 2.330 . S
C782 N783 1.332 . S
C782 C786 1.381 . S
C782 H788 0.931 . S
N783 Cd780 2.334 1_455 S
N783 C782 1.332 . S
N783 C787 1.328 . S
C784 C785 1.396 . S
C784 C787 1.378 . S
C784 H826 0.931 1_554 S
C785 C784 1.396 . S
C785 C786 1.382 . S
C786 C782 1.381 . S
C786 C785 1.382 . S
C786 H827 0.930 . S
C787 N783 1.328 . S
C787 C784 1.378 . S
C787 H789 0.930 1_454 S
H788 C782 0.931 . S
H789 C787 0.930 1_656 S
C790 O816 1.238 . S
C790 O817 1.253 . S
C791 C792 1.379 . S
C791 N796 1.337 . S
C791 H797 0.929 . S
C792 C791 1.379 . S
C792 C793 1.380 . S
C792 H828 0.929 . S
C793 C792 1.380 . S
C793 C794 1.399 . S
C794 C793 1.399 . S
C794 C795 1.395 . S
C794 H829 0.931 1_556 S
C795 C794 1.395 . S
C795 N796 1.334 . S
C795 H798 0.914 1_656 S
N796 Cd781 2.304 1_655 S
N796 C791 1.337 . S
N796 C795 1.334 . S
H797 C791 0.929 . S
H798 C795 0.914 1_454 S
C799 N800 1.332 . S
C799 C803 1.381 . S
C799 H805 0.931 . S
N800 Cd781 2.334 . S
N800 C799 1.332 . S
N800 C804 1.328 . S
C801 C802 1.396 . S
C801 C804 1.378 . S
C801 H830 0.931 . S
C802 C801 1.396 . S
C802 C803 1.382 . S
C803 C799 1.381 . S
C803 C802 1.382 . S
C803 H831 0.930 . S
C804 N800 1.328 . S
C804 C801 1.378 . S
C804 H806 0.930 1_556 S
H805 C799 0.931 . S
H806 C804 0.930 1_554 S
C807 O818 1.238 . S
C807 O819 1.253 . S
C808 O820 1.239 . S
C808 O821 1.230 . S
N809 Cd780 2.304 . S
N809 C810 1.337 . S
N809 C814 1.338 . S
C810 N809 1.337 . S
C810 C811 1.379 . S
C810 H824 0.929 . S
C811 C810 1.379 . S
C811 C812 1.380 . S
C811 H832 0.929 . S
C812 C811 1.380 . S
C812 C813 1.399 . S
C813 C812 1.399 . S
C813 C814 1.376 . S
C813 H833 0.931 . S
C814 N809 1.338 . S
C814 C813 1.376 . S
C814 H825 0.930 1_554 S
C815 O822 1.239 . S
C815 O823 1.230 . S
O816 Cd780 2.268 1_556 S
O816 C790 1.238 . S
O817 Cd781 2.273 1_655 S
O817 C790 1.253 . S
O818 Cd781 2.268 1_554 S
O818 C807 1.238 . S
O819 Cd780 2.273 1_455 S
O819 C807 1.253 . S
O820 Cd780 2.417 . S
O820 C808 1.239 . S
O821 Cd780 2.330 . S
O821 C808 1.230 . S
O822 Cd781 2.417 . S
O822 C815 1.239 . S
O823 Cd781 2.330 . S
O823 C815 1.230 . S
H824 C810 0.929 . S
H825 C814 0.930 1_556 S
H826 C784 0.931 1_556 S
H827 C786 0.930 . S
H828 C792 0.929 . S
H829 C794 0.931 1_554 S
H830 C801 0.931 . S
H831 C803 0.930 . S
H832 C811 0.929 . S
H833 C813 0.931 . S
Cd834 N837 2.334 . S
Cd834 N863 2.304 . S
Cd834 O870 2.268 1_554 S
Cd834 O873 2.273 . S
Cd834 O874 2.417 . S
Cd834 O875 2.330 . S
Cd835 N850 2.304 . S
Cd835 N854 2.334 . S
Cd835 O871 2.273 . S
Cd835 O872 2.268 1_556 S
Cd835 O876 2.417 . S
Cd835 O877 2.330 . S
C836 N837 1.332 . S
C836 C840 1.381 . S
C836 H842 0.931 . S
N837 Cd834 2.334 . S
N837 C836 1.332 . S
N837 C841 1.328 . S
C838 C839 1.396 . S
C838 C841 1.378 . S
C838 H880 0.931 1_554 S
C839 C838 1.396 . S
C839 C840 1.382 . S
C840 C836 1.381 . S
C840 C839 1.382 . S
C840 H881 0.930 . S
C841 N837 1.328 . S
C841 C838 1.378 . S
C841 H843 0.930 1_554 S
H842 C836 0.931 . S
H843 C841 0.930 1_556 S
C844 O870 1.238 . S
C844 O871 1.253 . S
C845 C846 1.379 . S
C845 N850 1.337 . S
C845 H851 0.929 . S
C846 C845 1.379 . S
C846 C847 1.380 . S
C846 H882 0.929 . S
C847 C846 1.380 . S
C847 C848 1.399 . S
C848 C847 1.399 . S
C848 C849 1.376 . S
C848 H883 0.931 1_556 S
C849 C848 1.376 . S
C849 N850 1.338 . S
C849 H852 0.930 1_556 S
N850 Cd835 2.304 . S
N850 C845 1.337 . S
N850 C849 1.338 . S
H851 C845 0.929 . S
H852 C849 0.930 1_554 S
C853 N854 1.332 . S
C853 C857 1.381 . S
C853 H859 0.931 . S
N854 Cd835 2.334 . S
N854 C853 1.332 . S
N854 C858 1.328 . S
C855 C856 1.396 . S
C855 C858 1.378 . S
C855 H884 0.931 . S
C856 C855 1.396 . S
C856 C857 1.382 . S
C857 C853 1.381 . S
C857 C856 1.382 . S
C857 H885 0.930 . S
C858 N854 1.328 . S
C858 C855 1.378 . S
C858 H860 0.930 1_556 S
H859 C853 0.931 . S
H860 C858 0.930 1_554 S
C861 O872 1.238 . S
C861 O873 1.253 . S
C862 O874 1.239 . S
C862 O875 1.230 . S
N863 Cd834 2.304 . S
N863 C864 1.337 . S
N863 C868 1.338 . S
C864 N863 1.337 . S
C864 C865 1.379 . S
C864 H878 0.929 . S
C865 C864 1.379 . S
C865 C866 1.380 . S
C865 H886 0.929 . S
C866 C865 1.380 . S
C866 C867 1.399 . S
C867 C866 1.399 . S
C867 C868 1.376 . S
C867 H887 0.931 . S
C868 N863 1.338 . S
C868 C867 1.376 . S
C868 H879 0.930 1_554 S
C869 O876 1.239 . S
C869 O877 1.230 . S
O870 Cd834 2.268 1_556 S
O870 C844 1.238 . S
O871 Cd835 2.273 . S
O871 C844 1.253 . S
O872 Cd835 2.268 1_554 S
O872 C861 1.238 . S
O873 Cd834 2.273 . S
O873 C861 1.253 . S
O874 Cd834 2.417 . S
O874 C862 1.239 . S
O875 Cd834 2.330 . S
O875 C862 1.230 . S
O876 Cd835 2.417 . S
O876 C869 1.239 . S
O877 Cd835 2.330 . S
O877 C869 1.230 . S
H878 C864 0.929 . S
H879 C868 0.930 1_556 S
H880 C838 0.931 1_556 S
H881 C840 0.930 . S
H882 C846 0.929 . S
H883 C848 0.931 1_554 S
H884 C855 0.931 . S
H885 C857 0.930 . S
H886 C865 0.929 . S
H887 C867 0.931 . S
Cd888 N891 2.334 1_655 S
Cd888 N917 2.304 . S
Cd888 O924 2.268 . S
Cd888 O927 2.273 1_655 S
Cd888 O928 2.417 . S
Cd888 O929 2.330 . S
Cd889 N904 2.304 1_455 S
Cd889 N908 2.334 . S
Cd889 O925 2.273 1_455 S
Cd889 O926 2.268 . S
Cd889 O930 2.417 . S
Cd889 O931 2.330 . S
C890 N891 1.332 . S
C890 C894 1.381 . S
C890 H896 0.931 . S
N891 Cd888 2.334 1_455 S
N891 C890 1.332 . S
N891 C895 1.328 . S
C892 C893 1.396 . S
C892 C895 1.378 . S
C892 H934 0.931 . S
C893 C892 1.396 . S
C893 C894 1.382 . S
C894 C890 1.381 . S
C894 C893 1.382 . S
C894 H935 0.930 . S
C895 N891 1.328 . S
C895 C892 1.378 . S
C895 H897 0.930 1_455 S
H896 C890 0.931 . S
H897 C895 0.930 1_655 S
C898 O924 1.238 . S
C898 O925 1.253 . S
C899 C900 1.379 . S
C899 N904 1.337 . S
C899 H905 0.929 . S
C900 C899 1.379 . S
C900 C901 1.380 . S
C900 H936 0.929 . S
C901 C900 1.380 . S
C901 C902 1.399 . S
C902 C901 1.399 . S
C902 C903 1.394 . S
C902 H937 0.931 . S
C903 C902 1.394 . S
C903 N904 1.334 . S
C903 H906 0.915 1_655 S
N904 Cd889 2.304 1_655 S
N904 C899 1.337 . S
N904 C903 1.334 . S
H905 C899 0.929 . S
H906 C903 0.915 1_455 S
C907 N908 1.332 . S
C907 C911 1.381 . S
C907 H913 0.931 . S
N908 Cd889 2.334 . S
N908 C907 1.332 . S
N908 C912 1.328 . S
C909 C910 1.396 . S
C909 C912 1.378 . S
C909 H938 0.931 . S
C910 C909 1.396 . S
C910 C911 1.382 . S
C911 C907 1.381 . S
C911 C910 1.382 . S
C911 H939 0.930 . S
C912 N908 1.328 . S
C912 C909 1.378 . S
C912 H914 0.930 . S
H913 C907 0.931 . S
H914 C912 0.930 . S
C915 O926 1.238 . S
C915 O927 1.253 . S
C916 O928 1.239 . S
C916 O929 1.230 . S
N917 Cd888 2.304 . S
N917 C918 1.337 . S
N917 C922 1.338 . S
C918 N917 1.337 . S
C918 C919 1.379 . S
C918 H932 0.929 . S
C919 C918 1.379 . S
C919 C920 1.380 . S
C919 H940 0.929 . S
C920 C919 1.380 . S
C920 C921 1.399 . S
C921 C920 1.399 . S
C921 C922 1.376 . S
C921 H941 0.931 . S
C922 N917 1.338 . S
C922 C921 1.376 . S
C922 H933 0.930 . S
C923 O930 1.239 . S
C923 O931 1.230 . S
O924 Cd888 2.268 . S
O924 C898 1.238 . S
O925 Cd889 2.273 1_655 S
O925 C898 1.253 . S
O926 Cd889 2.268 . S
O926 C915 1.238 . S
O927 Cd888 2.273 1_455 S
O927 C915 1.253 . S
O928 Cd888 2.417 . S
O928 C916 1.239 . S
O929 Cd888 2.330 . S
O929 C916 1.230 . S
O930 Cd889 2.417 . S
O930 C923 1.239 . S
O931 Cd889 2.330 . S
O931 C923 1.230 . S
H932 C918 0.929 . S
H933 C922 0.930 . S
H934 C892 0.931 . S
H935 C894 0.930 . S
H936 C900 0.929 . S
H937 C902 0.931 . S
H938 C909 0.931 . S
H939 C911 0.930 . S
H940 C919 0.929 . S
H941 C921 0.931 . S
Cd942 N945 2.334 . S
Cd942 N971 2.304 1_565 S
Cd942 O978 2.268 . S
Cd942 O981 2.273 1_565 S
Cd942 O982 2.417 . S
Cd942 O983 2.330 . S
Cd943 N958 2.304 . S
Cd943 N962 2.334 1_545 S
Cd943 O979 2.273 1_545 S
Cd943 O980 2.268 . S
Cd943 O984 2.417 . S
Cd943 O985 2.330 . S
C944 N945 1.332 . S
C944 C948 1.381 . S
C944 H950 0.931 . S
N945 Cd942 2.334 . S
N945 C944 1.332 . S
N945 C949 1.328 . S
C946 C947 1.396 . S
C946 C949 1.378 . S
C946 H988 0.931 . S
C947 C946 1.396 . S
C947 C948 1.382 . S
C948 C944 1.381 . S
C948 C947 1.382 . S
C948 H989 0.930 . S
C949 N945 1.328 . S
C949 C946 1.378 . S
C949 H951 0.930 . S
H950 C944 0.931 . S
H951 C949 0.930 . S
C952 O978 1.238 . S
C952 O979 1.253 . S
C953 C954 1.379 . S
C953 N958 1.337 . S
C953 H959 0.929 . S
C954 C953 1.379 . S
C954 C955 1.380 . S
C954 H990 0.929 . S
C955 C954 1.380 . S
C955 C956 1.399 . S
C956 C955 1.399 . S
C956 C957 1.376 . S
C956 H991 0.931 . S
C957 C956 1.376 . S
C957 N958 1.338 . S
C957 H960 0.930 . S
N958 Cd943 2.304 . S
N958 C953 1.337 . S
N958 C957 1.338 . S
H959 C953 0.929 . S
H960 C957 0.930 . S
C961 N962 1.332 . S
C961 C965 1.381 . S
C961 H967 0.931 . S
N962 Cd943 2.334 1_565 S
N962 C961 1.332 . S
N962 C966 1.328 . S
C963 C964 1.396 . S
C963 C966 1.378 . S
C963 H992 0.931 . S
C964 C963 1.396 . S
C964 C965 1.382 . S
C965 C961 1.381 . S
C965 C964 1.382 . S
C965 H993 0.930 . S
C966 N962 1.328 . S
C966 C963 1.378 . S
C966 H968 0.930 1_565 S
H967 C961 0.931 . S
H968 C966 0.930 1_545 S
C969 O980 1.238 . S
C969 O981 1.253 . S
C970 O982 1.239 . S
C970 O983 1.230 . S
N971 Cd942 2.304 1_545 S
N971 C972 1.337 . S
N971 C976 1.338 . S
C972 N971 1.337 . S
C972 C973 1.379 . S
C972 H986 0.929 . S
C973 C972 1.379 . S
C973 C974 1.380 . S
C973 H994 0.929 . S
C974 C973 1.380 . S
C974 C975 1.399 . S
C975 C974 1.399 . S
C975 C976 1.376 . S
C975 H995 0.931 . S
C976 N971 1.338 . S
C976 C975 1.376 . S
C976 H987 0.930 1_545 S
C977 O984 1.239 . S
C977 O985 1.230 . S
O978 Cd942 2.268 . S
O978 C952 1.238 . S
O979 Cd943 2.273 1_565 S
O979 C952 1.253 . S
O980 Cd943 2.268 . S
O980 C969 1.238 . S
O981 Cd942 2.273 1_545 S
O981 C969 1.253 . S
O982 Cd942 2.417 . S
O982 C970 1.239 . S
O983 Cd942 2.330 . S
O983 C970 1.230 . S
O984 Cd943 2.417 . S
O984 C977 1.239 . S
O985 Cd943 2.330 . S
O985 C977 1.230 . S
H986 C972 0.929 . S
H987 C976 0.930 1_565 S
H988 C946 0.931 . S
H989 C948 0.930 . S
H990 C954 0.929 . S
H991 C956 0.931 . S
H992 C963 0.931 . S
H993 C965 0.930 . S
H994 C973 0.929 . S
H995 C975 0.931 . S
C996 C997 1.391 . S
C996 C998 1.394 . S
C996 H1012 0.931 . S
C997 C996 1.391 . S
C997 C1001 1.376 . S
C998 C996 1.394 . S
C998 C999 1.369 . S
C998 C1002 1.531 . S
C999 C998 1.369 . S
C999 C1000 1.410 . S
C999 C1007 1.503 . S
C1000 C999 1.410 . S
C1000 C1001 1.392 . S
C1000 C1003 1.511 . S
C1001 C997 1.376 . S
C1001 C1000 1.392 . S
C1001 H1013 0.929 . S
C1002 C998 1.531 . S
C1002 H1014 0.960 . S
C1002 H1015 0.962 . S
C1002 H1016 0.960 . S
C1003 C1000 1.511 . S
C1003 H1017 0.961 . S
C1003 H1018 0.961 . S
C1003 H1019 0.961 . S
C1004 C1005 1.370 . S
C1004 C1006 1.363 . S
C1004 H1020 0.931 . S
C1005 C1004 1.370 . S
C1005 C1009 1.408 . S
C1006 C1004 1.363 . S
C1006 C1007 1.370 . S
C1006 C1010 1.524 . S
C1007 C999 1.503 . S
C1007 C1006 1.370 . S
C1007 C1008 1.403 . S
C1008 C1007 1.403 . S
C1008 C1009 1.404 . S
C1008 C1011 1.539 . S
C1009 C1005 1.408 . S
C1009 C1008 1.404 . S
C1009 H1021 0.930 . S
C1010 C1006 1.524 . S
C1010 H1022 0.956 . S
C1010 H1023 0.961 . S
C1010 H1024 0.961 . S
C1011 C1008 1.539 . S
C1011 H1025 0.958 . S
C1011 H1026 0.961 . S
C1011 H1027 0.960 . S
H1012 C996 0.931 . S
H1013 C1001 0.929 . S
H1014 C1002 0.960 . S
H1015 C1002 0.962 . S
H1016 C1002 0.960 . S
H1017 C1003 0.961 . S
H1018 C1003 0.961 . S
H1019 C1003 0.961 . S
H1020 C1004 0.931 . S
H1021 C1009 0.930 . S
H1022 C1010 0.956 . S
H1023 C1010 0.961 . S
H1024 C1010 0.961 . S
H1025 C1011 0.958 . S
H1026 C1011 0.961 . S
H1027 C1011 0.960 . S
C1028 C1029 1.391 . S
C1028 C1030 1.394 . S
C1028 H1044 0.931 . S
C1029 C1028 1.391 . S
C1029 C1033 1.376 . S
C1030 C1028 1.394 . S
C1030 C1031 1.369 . S
C1030 C1034 1.531 . S
C1031 C1030 1.369 . S
C1031 C1032 1.410 . S
C1031 C1039 1.503 . S
C1032 C1031 1.410 . S
C1032 C1033 1.392 . S
C1032 C1035 1.511 . S
C1033 C1029 1.376 . S
C1033 C1032 1.392 . S
C1033 H1045 0.929 . S
C1034 C1030 1.531 . S
C1034 H1046 0.960 . S
C1034 H1047 0.962 . S
C1034 H1048 0.960 . S
C1035 C1032 1.511 . S
C1035 H1049 0.961 . S
C1035 H1050 0.961 . S
C1035 H1051 0.961 . S
C1036 C1037 1.370 . S
C1036 C1038 1.363 . S
C1036 H1052 0.931 . S
C1037 C1036 1.370 . S
C1037 C1041 1.408 . S
C1038 C1036 1.363 . S
C1038 C1039 1.370 . S
C1038 C1042 1.524 . S
C1039 C1031 1.503 . S
C1039 C1038 1.370 . S
C1039 C1040 1.403 . S
C1040 C1039 1.403 . S
C1040 C1041 1.404 . S
C1040 C1043 1.539 . S
C1041 C1037 1.408 . S
C1041 C1040 1.404 . S
C1041 H1053 0.930 . S
C1042 C1038 1.524 . S
C1042 H1054 0.956 . S
C1042 H1055 0.961 . S
C1042 H1056 0.961 . S
C1043 C1040 1.539 . S
C1043 H1057 0.958 . S
C1043 H1058 0.961 . S
C1043 H1059 0.960 . S
H1044 C1028 0.931 . S
H1045 C1033 0.929 . S
H1046 C1034 0.960 . S
H1047 C1034 0.962 . S
H1048 C1034 0.960 . S
H1049 C1035 0.961 . S
H1050 C1035 0.961 . S
H1051 C1035 0.961 . S
H1052 C1036 0.931 . S
H1053 C1041 0.930 . S
H1054 C1042 0.956 . S
H1055 C1042 0.961 . S
H1056 C1042 0.961 . S
H1057 C1043 0.958 . S
H1058 C1043 0.961 . S
H1059 C1043 0.960 . S
C1060 C1061 1.391 . S
C1060 C1062 1.394 . S
C1060 H1076 0.931 . S
C1061 C1060 1.391 . S
C1061 C1065 1.376 . S
C1062 C1060 1.394 . S
C1062 C1063 1.369 . S
C1062 C1066 1.531 . S
C1063 C1062 1.369 . S
C1063 C1064 1.410 . S
C1063 C1071 1.503 . S
C1064 C1063 1.410 . S
C1064 C1065 1.392 . S
C1064 C1067 1.511 . S
C1065 C1061 1.376 . S
C1065 C1064 1.392 . S
C1065 H1077 0.929 . S
C1066 C1062 1.531 . S
C1066 H1078 0.960 . S
C1066 H1079 0.962 . S
C1066 H1080 0.960 . S
C1067 C1064 1.511 . S
C1067 H1081 0.961 . S
C1067 H1082 0.961 . S
C1067 H1083 0.961 . S
C1068 C1069 1.370 . S
C1068 C1070 1.363 . S
C1068 H1084 0.931 . S
C1069 C1068 1.370 . S
C1069 C1073 1.408 . S
C1070 C1068 1.363 . S
C1070 C1071 1.370 . S
C1070 C1074 1.524 . S
C1071 C1063 1.503 . S
C1071 C1070 1.370 . S
C1071 C1072 1.403 . S
C1072 C1071 1.403 . S
C1072 C1073 1.404 . S
C1072 C1075 1.539 . S
C1073 C1069 1.408 . S
C1073 C1072 1.404 . S
C1073 H1085 0.930 . S
C1074 C1070 1.524 . S
C1074 H1086 0.956 . S
C1074 H1087 0.961 . S
C1074 H1088 0.961 . S
C1075 C1072 1.539 . S
C1075 H1089 0.958 . S
C1075 H1090 0.961 . S
C1075 H1091 0.960 . S
H1076 C1060 0.931 . S
H1077 C1065 0.929 . S
H1078 C1066 0.960 . S
H1079 C1066 0.962 . S
H1080 C1066 0.960 . S
H1081 C1067 0.961 . S
H1082 C1067 0.961 . S
H1083 C1067 0.961 . S
H1084 C1068 0.931 . S
H1085 C1073 0.930 . S
H1086 C1074 0.956 . S
H1087 C1074 0.961 . S
H1088 C1074 0.961 . S
H1089 C1075 0.958 . S
H1090 C1075 0.961 . S
H1091 C1075 0.960 . S
C1092 C1093 1.391 . S
C1092 C1094 1.394 . S
C1092 H1108 0.931 . S
C1093 C1092 1.391 . S
C1093 C1097 1.376 . S
C1094 C1092 1.394 . S
C1094 C1095 1.369 . S
C1094 C1098 1.531 . S
C1095 C1094 1.369 . S
C1095 C1096 1.410 . S
C1095 C1103 1.503 . S
C1096 C1095 1.410 . S
C1096 C1097 1.392 . S
C1096 C1099 1.511 . S
C1097 C1093 1.376 . S
C1097 C1096 1.392 . S
C1097 H1109 0.929 . S
C1098 C1094 1.531 . S
C1098 H1110 0.960 . S
C1098 H1111 0.962 . S
C1098 H1112 0.960 . S
C1099 C1096 1.511 . S
C1099 H1113 0.961 . S
C1099 H1114 0.961 . S
C1099 H1115 0.961 . S
C1100 C1101 1.370 . S
C1100 C1102 1.363 . S
C1100 H1116 0.931 . S
C1101 C1100 1.370 . S
C1101 C1105 1.408 . S
C1102 C1100 1.363 . S
C1102 C1103 1.370 . S
C1102 C1106 1.524 . S
C1103 C1095 1.503 . S
C1103 C1102 1.370 . S
C1103 C1104 1.403 . S
C1104 C1103 1.403 . S
C1104 C1105 1.404 . S
C1104 C1107 1.539 . S
C1105 C1101 1.408 . S
C1105 C1104 1.404 . S
C1105 H1117 0.930 . S
C1106 C1102 1.524 . S
C1106 H1118 0.956 . S
C1106 H1119 0.961 . S
C1106 H1120 0.961 . S
C1107 C1104 1.539 . S
C1107 H1121 0.958 . S
C1107 H1122 0.961 . S
C1107 H1123 0.960 . S
H1108 C1092 0.931 . S
H1109 C1097 0.929 . S
H1110 C1098 0.960 . S
H1111 C1098 0.962 . S
H1112 C1098 0.960 . S
H1113 C1099 0.961 . S
H1114 C1099 0.961 . S
H1115 C1099 0.961 . S
H1116 C1100 0.931 . S
H1117 C1105 0.930 . S
H1118 C1106 0.956 . S
H1119 C1106 0.961 . S
H1120 C1106 0.961 . S
H1121 C1107 0.958 . S
H1122 C1107 0.961 . S
H1123 C1107 0.960 . S
C1124 C1125 1.391 . S
C1124 C1126 1.394 . S
C1124 H1140 0.931 . S
C1125 C1124 1.391 . S
C1125 C1129 1.376 . S
C1126 C1124 1.394 . S
C1126 C1127 1.369 . S
C1126 C1130 1.531 . S
C1127 C1126 1.369 . S
C1127 C1128 1.410 . S
C1127 C1135 1.503 . S
C1128 C1127 1.410 . S
C1128 C1129 1.392 . S
C1128 C1131 1.511 . S
C1129 C1125 1.376 . S
C1129 C1128 1.392 . S
C1129 H1141 0.929 . S
C1130 C1126 1.531 . S
C1130 H1142 0.960 . S
C1130 H1143 0.962 . S
C1130 H1144 0.960 . S
C1131 C1128 1.511 . S
C1131 H1145 0.961 . S
C1131 H1146 0.961 . S
C1131 H1147 0.961 . S
C1132 C1133 1.370 . S
C1132 C1134 1.363 . S
C1132 H1148 0.931 . S
C1133 C1132 1.370 . S
C1133 C1137 1.408 . S
C1134 C1132 1.363 . S
C1134 C1135 1.370 . S
C1134 C1138 1.524 . S
C1135 C1127 1.503 . S
C1135 C1134 1.370 . S
C1135 C1136 1.403 . S
C1136 C1135 1.403 . S
C1136 C1137 1.404 . S
C1136 C1139 1.539 . S
C1137 C1133 1.408 . S
C1137 C1136 1.404 . S
C1137 H1149 0.930 . S
C1138 C1134 1.524 . S
C1138 H1150 0.956 . S
C1138 H1151 0.961 . S
C1138 H1152 0.961 . S
C1139 C1136 1.539 . S
C1139 H1153 0.958 . S
C1139 H1154 0.961 . S
C1139 H1155 0.960 . S
H1140 C1124 0.931 . S
H1141 C1129 0.929 . S
H1142 C1130 0.960 . S
H1143 C1130 0.962 . S
H1144 C1130 0.960 . S
H1145 C1131 0.961 . S
H1146 C1131 0.961 . S
H1147 C1131 0.961 . S
H1148 C1132 0.931 . S
H1149 C1137 0.930 . S
H1150 C1138 0.956 . S
H1151 C1138 0.961 . S
H1152 C1138 0.961 . S
H1153 C1139 0.958 . S
H1154 C1139 0.961 . S
H1155 C1139 0.960 . S
C1156 C1157 1.391 . S
C1156 C1158 1.394 . S
C1156 H1172 0.931 . S
C1157 C1156 1.391 . S
C1157 C1161 1.376 . S
C1158 C1156 1.394 . S
C1158 C1159 1.369 . S
C1158 C1162 1.531 . S
C1159 C1158 1.369 . S
C1159 C1160 1.410 . S
C1159 C1167 1.503 . S
C1160 C1159 1.410 . S
C1160 C1161 1.392 . S
C1160 C1163 1.511 . S
C1161 C1157 1.376 . S
C1161 C1160 1.392 . S
C1161 H1173 0.929 . S
C1162 C1158 1.531 . S
C1162 H1174 0.960 . S
C1162 H1175 0.962 . S
C1162 H1176 0.960 . S
C1163 C1160 1.511 . S
C1163 H1177 0.961 . S
C1163 H1178 0.961 . S
C1163 H1179 0.961 . S
C1164 C1165 1.370 . S
C1164 C1166 1.363 . S
C1164 H1180 0.931 . S
C1165 C1164 1.370 . S
C1165 C1169 1.408 . S
C1166 C1164 1.363 . S
C1166 C1167 1.370 . S
C1166 C1170 1.524 . S
C1167 C1159 1.503 . S
C1167 C1166 1.370 . S
C1167 C1168 1.403 . S
C1168 C1167 1.403 . S
C1168 C1169 1.404 . S
C1168 C1171 1.539 . S
C1169 C1165 1.408 . S
C1169 C1168 1.404 . S
C1169 H1181 0.930 . S
C1170 C1166 1.524 . S
C1170 H1182 0.956 . S
C1170 H1183 0.961 . S
C1170 H1184 0.961 . S
C1171 C1168 1.539 . S
C1171 H1185 0.958 . S
C1171 H1186 0.961 . S
C1171 H1187 0.960 . S
H1172 C1156 0.931 . S
H1173 C1161 0.929 . S
H1174 C1162 0.960 . S
H1175 C1162 0.962 . S
H1176 C1162 0.960 . S
H1177 C1163 0.961 . S
H1178 C1163 0.961 . S
H1179 C1163 0.961 . S
H1180 C1164 0.931 . S
H1181 C1169 0.930 . S
H1182 C1170 0.956 . S
H1183 C1170 0.961 . S
H1184 C1170 0.961 . S
H1185 C1171 0.958 . S
H1186 C1171 0.961 . S
H1187 C1171 0.960 . S
C1188 C1189 1.391 . S
C1188 C1190 1.394 . S
C1188 H1204 0.931 . S
C1189 C1188 1.391 . S
C1189 C1193 1.376 . S
C1190 C1188 1.394 . S
C1190 C1191 1.369 . S
C1190 C1194 1.531 . S
C1191 C1190 1.369 . S
C1191 C1192 1.410 . S
C1191 C1199 1.503 . S
C1192 C1191 1.410 . S
C1192 C1193 1.392 . S
C1192 C1195 1.511 . S
C1193 C1189 1.376 . S
C1193 C1192 1.392 . S
C1193 H1205 0.929 . S
C1194 C1190 1.531 . S
C1194 H1206 0.960 . S
C1194 H1207 0.962 . S
C1194 H1208 0.960 . S
C1195 C1192 1.511 . S
C1195 H1209 0.961 . S
C1195 H1210 0.961 . S
C1195 H1211 0.961 . S
C1196 C1197 1.370 . S
C1196 C1198 1.363 . S
C1196 H1212 0.931 . S
C1197 C1196 1.370 . S
C1197 C1201 1.408 . S
C1198 C1196 1.363 . S
C1198 C1199 1.370 . S
C1198 C1202 1.524 . S
C1199 C1191 1.503 . S
C1199 C1198 1.370 . S
C1199 C1200 1.403 . S
C1200 C1199 1.403 . S
C1200 C1201 1.404 . S
C1200 C1203 1.539 . S
C1201 C1197 1.408 . S
C1201 C1200 1.404 . S
C1201 H1213 0.930 . S
C1202 C1198 1.524 . S
C1202 H1214 0.956 . S
C1202 H1215 0.961 . S
C1202 H1216 0.961 . S
C1203 C1200 1.539 . S
C1203 H1217 0.958 . S
C1203 H1218 0.961 . S
C1203 H1219 0.960 . S
H1204 C1188 0.931 . S
H1205 C1193 0.929 . S
H1206 C1194 0.960 . S
H1207 C1194 0.962 . S
H1208 C1194 0.960 . S
H1209 C1195 0.961 . S
H1210 C1195 0.961 . S
H1211 C1195 0.961 . S
H1212 C1196 0.931 . S
H1213 C1201 0.930 . S
H1214 C1202 0.956 . S
H1215 C1202 0.961 . S
H1216 C1202 0.961 . S
H1217 C1203 0.958 . S
H1218 C1203 0.961 . S
H1219 C1203 0.960 . S
C1220 C1221 1.391 . S
C1220 C1222 1.394 . S
C1220 H1236 0.931 . S
C1221 C1220 1.391 . S
C1221 C1225 1.376 . S
C1222 C1220 1.394 . S
C1222 C1223 1.369 . S
C1222 C1226 1.531 . S
C1223 C1222 1.369 . S
C1223 C1224 1.410 . S
C1223 C1231 1.503 . S
C1224 C1223 1.410 . S
C1224 C1225 1.392 . S
C1224 C1227 1.511 . S
C1225 C1221 1.376 . S
C1225 C1224 1.392 . S
C1225 H1237 0.929 . S
C1226 C1222 1.531 . S
C1226 H1238 0.960 . S
C1226 H1239 0.962 . S
C1226 H1240 0.960 . S
C1227 C1224 1.511 . S
C1227 H1241 0.961 . S
C1227 H1242 0.961 . S
C1227 H1243 0.961 . S
C1228 C1229 1.370 . S
C1228 C1230 1.363 . S
C1228 H1244 0.931 . S
C1229 C1228 1.370 . S
C1229 C1233 1.408 . S
C1230 C1228 1.363 . S
C1230 C1231 1.370 . S
C1230 C1234 1.524 . S
C1231 C1223 1.503 . S
C1231 C1230 1.370 . S
C1231 C1232 1.403 . S
C1232 C1231 1.403 . S
C1232 C1233 1.404 . S
C1232 C1235 1.539 . S
C1233 C1229 1.408 . S
C1233 C1232 1.404 . S
C1233 H1245 0.930 . S
C1234 C1230 1.524 . S
C1234 H1246 0.956 . S
C1234 H1247 0.961 . S
C1234 H1248 0.961 . S
C1235 C1232 1.539 . S
C1235 H1249 0.958 . S
C1235 H1250 0.961 . S
C1235 H1251 0.960 . S
H1236 C1220 0.931 . S
H1237 C1225 0.929 . S
H1238 C1226 0.960 . S
H1239 C1226 0.962 . S
H1240 C1226 0.960 . S
H1241 C1227 0.961 . S
H1242 C1227 0.961 . S
H1243 C1227 0.961 . S
H1244 C1228 0.931 . S
H1245 C1233 0.930 . S
H1246 C1234 0.956 . S
H1247 C1234 0.961 . S
H1248 C1234 0.961 . S
H1249 C1235 0.958 . S
H1250 C1235 0.961 . S
H1251 C1235 0.960 . S
C1252 C1253 1.391 . S
C1252 C1254 1.394 . S
C1252 H1268 0.931 . S
C1253 C1252 1.391 . S
C1253 C1257 1.376 . S
C1254 C1252 1.394 . S
C1254 C1255 1.369 . S
C1254 C1258 1.531 . S
C1255 C1254 1.369 . S
C1255 C1256 1.410 . S
C1255 C1263 1.503 . S
C1256 C1255 1.410 . S
C1256 C1257 1.392 . S
C1256 C1259 1.511 . S
C1257 C1253 1.376 . S
C1257 C1256 1.392 . S
C1257 H1269 0.929 . S
C1258 C1254 1.531 . S
C1258 H1270 0.960 . S
C1258 H1271 0.962 . S
C1258 H1272 0.960 . S
C1259 C1256 1.511 . S
C1259 H1273 0.961 . S
C1259 H1274 0.961 . S
C1259 H1275 0.961 . S
C1260 C1261 1.370 . S
C1260 C1262 1.363 . S
C1260 H1276 0.931 . S
C1261 C1260 1.370 . S
C1261 C1265 1.408 . S
C1262 C1260 1.363 . S
C1262 C1263 1.370 . S
C1262 C1266 1.524 . S
C1263 C1255 1.503 . S
C1263 C1262 1.370 . S
C1263 C1264 1.403 . S
C1264 C1263 1.403 . S
C1264 C1265 1.404 . S
C1264 C1267 1.539 . S
C1265 C1261 1.408 . S
C1265 C1264 1.404 . S
C1265 H1277 0.930 . S
C1266 C1262 1.524 . S
C1266 H1278 0.956 . S
C1266 H1279 0.961 . S
C1266 H1280 0.961 . S
C1267 C1264 1.539 . S
C1267 H1281 0.958 . S
C1267 H1282 0.961 . S
C1267 H1283 0.960 . S
H1268 C1252 0.931 . S
H1269 C1257 0.929 . S
H1270 C1258 0.960 . S
H1271 C1258 0.962 . S
H1272 C1258 0.960 . S
H1273 C1259 0.961 . S
H1274 C1259 0.961 . S
H1275 C1259 0.961 . S
H1276 C1260 0.931 . S
H1277 C1265 0.930 . S
H1278 C1266 0.956 . S
H1279 C1266 0.961 . S
H1280 C1266 0.961 . S
H1281 C1267 0.958 . S
H1282 C1267 0.961 . S
H1283 C1267 0.960 . S
C1284 C1285 1.391 . S
C1284 C1286 1.394 . S
C1284 H1300 0.931 . S
C1285 C1284 1.391 . S
C1285 C1289 1.376 . S
C1286 C1284 1.394 . S
C1286 C1287 1.369 . S
C1286 C1290 1.531 . S
C1287 C1286 1.369 . S
C1287 C1288 1.410 . S
C1287 C1295 1.503 . S
C1288 C1287 1.410 . S
C1288 C1289 1.392 . S
C1288 C1291 1.511 . S
C1289 C1285 1.376 . S
C1289 C1288 1.392 . S
C1289 H1301 0.929 . S
C1290 C1286 1.531 . S
C1290 H1302 0.960 . S
C1290 H1303 0.962 . S
C1290 H1304 0.960 . S
C1291 C1288 1.511 . S
C1291 H1305 0.961 . S
C1291 H1306 0.961 . S
C1291 H1307 0.961 . S
C1292 C1293 1.370 . S
C1292 C1294 1.363 . S
C1292 H1308 0.931 . S
C1293 C1292 1.370 . S
C1293 C1297 1.408 . S
C1294 C1292 1.363 . S
C1294 C1295 1.370 . S
C1294 C1298 1.524 . S
C1295 C1287 1.503 . S
C1295 C1294 1.370 . S
C1295 C1296 1.403 . S
C1296 C1295 1.403 . S
C1296 C1297 1.404 . S
C1296 C1299 1.539 . S
C1297 C1293 1.408 . S
C1297 C1296 1.404 . S
C1297 H1309 0.930 . S
C1298 C1294 1.524 . S
C1298 H1310 0.956 . S
C1298 H1311 0.961 . S
C1298 H1312 0.961 . S
C1299 C1296 1.539 . S
C1299 H1313 0.958 . S
C1299 H1314 0.961 . S
C1299 H1315 0.960 . S
H1300 C1284 0.931 . S
H1301 C1289 0.929 . S
H1302 C1290 0.960 . S
H1303 C1290 0.962 . S
H1304 C1290 0.960 . S
H1305 C1291 0.961 . S
H1306 C1291 0.961 . S
H1307 C1291 0.961 . S
H1308 C1292 0.931 . S
H1309 C1297 0.930 . S
H1310 C1298 0.956 . S
H1311 C1298 0.961 . S
H1312 C1298 0.961 . S
H1313 C1299 0.958 . S
H1314 C1299 0.961 . S
H1315 C1299 0.960 . S
C1316 C1317 1.391 . S
C1316 C1318 1.394 . S
C1316 H1332 0.931 . S
C1317 C1316 1.391 . S
C1317 C1321 1.376 . S
C1318 C1316 1.394 . S
C1318 C1319 1.369 . S
C1318 C1322 1.531 . S
C1319 C1318 1.369 . S
C1319 C1320 1.410 . S
C1319 C1327 1.503 . S
C1320 C1319 1.410 . S
C1320 C1321 1.392 . S
C1320 C1323 1.511 . S
C1321 C1317 1.376 . S
C1321 C1320 1.392 . S
C1321 H1333 0.929 . S
C1322 C1318 1.531 . S
C1322 H1334 0.960 . S
C1322 H1335 0.962 . S
C1322 H1336 0.960 . S
C1323 C1320 1.511 . S
C1323 H1337 0.961 . S
C1323 H1338 0.961 . S
C1323 H1339 0.961 . S
C1324 C1325 1.370 . S
C1324 C1326 1.363 . S
C1324 H1340 0.931 . S
C1325 C1324 1.370 . S
C1325 C1329 1.408 . S
C1326 C1324 1.363 . S
C1326 C1327 1.370 . S
C1326 C1330 1.524 . S
C1327 C1319 1.503 . S
C1327 C1326 1.370 . S
C1327 C1328 1.403 . S
C1328 C1327 1.403 . S
C1328 C1329 1.404 . S
C1328 C1331 1.539 . S
C1329 C1325 1.408 . S
C1329 C1328 1.404 . S
C1329 H1341 0.930 . S
C1330 C1326 1.524 . S
C1330 H1342 0.956 . S
C1330 H1343 0.961 . S
C1330 H1344 0.961 . S
C1331 C1328 1.539 . S
C1331 H1345 0.958 . S
C1331 H1346 0.961 . S
C1331 H1347 0.960 . S
H1332 C1316 0.931 . S
H1333 C1321 0.929 . S
H1334 C1322 0.960 . S
H1335 C1322 0.962 . S
H1336 C1322 0.960 . S
H1337 C1323 0.961 . S
H1338 C1323 0.961 . S
H1339 C1323 0.961 . S
H1340 C1324 0.931 . S
H1341 C1329 0.930 . S
H1342 C1330 0.956 . S
H1343 C1330 0.961 . S
H1344 C1330 0.961 . S
H1345 C1331 0.958 . S
H1346 C1331 0.961 . S
H1347 C1331 0.960 . S
C1348 C1349 1.391 . S
C1348 C1350 1.394 . S
C1348 H1364 0.931 . S
C1349 C1348 1.391 . S
C1349 C1353 1.376 . S
C1350 C1348 1.394 . S
C1350 C1351 1.369 . S
C1350 C1354 1.531 . S
C1351 C1350 1.369 . S
C1351 C1352 1.410 . S
C1351 C1359 1.503 . S
C1352 C1351 1.410 . S
C1352 C1353 1.392 . S
C1352 C1355 1.511 . S
C1353 C1349 1.376 . S
C1353 C1352 1.392 . S
C1353 H1365 0.929 . S
C1354 C1350 1.531 . S
C1354 H1366 0.960 . S
C1354 H1367 0.962 . S
C1354 H1368 0.960 . S
C1355 C1352 1.511 . S
C1355 H1369 0.961 . S
C1355 H1370 0.961 . S
C1355 H1371 0.961 . S
C1356 C1357 1.370 . S
C1356 C1358 1.363 . S
C1356 H1372 0.931 . S
C1357 C1356 1.370 . S
C1357 C1361 1.408 . S
C1358 C1356 1.363 . S
C1358 C1359 1.370 . S
C1358 C1362 1.524 . S
C1359 C1351 1.503 . S
C1359 C1358 1.370 . S
C1359 C1360 1.403 . S
C1360 C1359 1.403 . S
C1360 C1361 1.404 . S
C1360 C1363 1.539 . S
C1361 C1357 1.408 . S
C1361 C1360 1.404 . S
C1361 H1373 0.930 . S
C1362 C1358 1.524 . S
C1362 H1374 0.956 . S
C1362 H1375 0.961 . S
C1362 H1376 0.961 . S
C1363 C1360 1.539 . S
C1363 H1377 0.958 . S
C1363 H1378 0.961 . S
C1363 H1379 0.960 . S
H1364 C1348 0.931 . S
H1365 C1353 0.929 . S
H1366 C1354 0.960 . S
H1367 C1354 0.962 . S
H1368 C1354 0.960 . S
H1369 C1355 0.961 . S
H1370 C1355 0.961 . S
H1371 C1355 0.961 . S
H1372 C1356 0.931 . S
H1373 C1361 0.930 . S
H1374 C1362 0.956 . S
H1375 C1362 0.961 . S
H1376 C1362 0.961 . S
H1377 C1363 0.958 . S
H1378 C1363 0.961 . S
H1379 C1363 0.960 . S
C1380 C1381 1.391 . S
C1380 C1382 1.394 . S
C1380 H1396 0.931 . S
C1381 C1380 1.391 . S
C1381 C1385 1.376 . S
C1382 C1380 1.394 . S
C1382 C1383 1.369 . S
C1382 C1386 1.531 . S
C1383 C1382 1.369 . S
C1383 C1384 1.410 . S
C1383 C1391 1.503 . S
C1384 C1383 1.410 . S
C1384 C1385 1.392 . S
C1384 C1387 1.511 . S
C1385 C1381 1.376 . S
C1385 C1384 1.392 . S
C1385 H1397 0.929 . S
C1386 C1382 1.531 . S
C1386 H1398 0.960 . S
C1386 H1399 0.962 . S
C1386 H1400 0.960 . S
C1387 C1384 1.511 . S
C1387 H1401 0.961 . S
C1387 H1402 0.961 . S
C1387 H1403 0.961 . S
C1388 C1389 1.370 . S
C1388 C1390 1.363 . S
C1388 H1404 0.931 . S
C1389 C1388 1.370 . S
C1389 C1393 1.408 . S
C1390 C1388 1.363 . S
C1390 C1391 1.370 . S
C1390 C1394 1.524 . S
C1391 C1383 1.503 . S
C1391 C1390 1.370 . S
C1391 C1392 1.403 . S
C1392 C1391 1.403 . S
C1392 C1393 1.404 . S
C1392 C1395 1.539 . S
C1393 C1389 1.408 . S
C1393 C1392 1.404 . S
C1393 H1405 0.930 . S
C1394 C1390 1.524 . S
C1394 H1406 0.956 . S
C1394 H1407 0.961 . S
C1394 H1408 0.961 . S
C1395 C1392 1.539 . S
C1395 H1409 0.958 . S
C1395 H1410 0.961 . S
C1395 H1411 0.960 . S
H1396 C1380 0.931 . S
H1397 C1385 0.929 . S
H1398 C1386 0.960 . S
H1399 C1386 0.962 . S
H1400 C1386 0.960 . S
H1401 C1387 0.961 . S
H1402 C1387 0.961 . S
H1403 C1387 0.961 . S
H1404 C1388 0.931 . S
H1405 C1393 0.930 . S
H1406 C1394 0.956 . S
H1407 C1394 0.961 . S
H1408 C1394 0.961 . S
H1409 C1395 0.958 . S
H1410 C1395 0.961 . S
H1411 C1395 0.960 . S
C1412 C1413 1.391 . S
C1412 C1414 1.394 . S
C1412 H1428 0.931 . S
C1413 C1412 1.391 . S
C1413 C1417 1.376 . S
C1414 C1412 1.394 . S
C1414 C1415 1.369 . S
C1414 C1418 1.531 . S
C1415 C1414 1.369 . S
C1415 C1416 1.410 . S
C1415 C1423 1.503 . S
C1416 C1415 1.410 . S
C1416 C1417 1.392 . S
C1416 C1419 1.511 . S
C1417 C1413 1.376 . S
C1417 C1416 1.392 . S
C1417 H1429 0.929 . S
C1418 C1414 1.531 . S
C1418 H1430 0.960 . S
C1418 H1431 0.962 . S
C1418 H1432 0.960 . S
C1419 C1416 1.511 . S
C1419 H1433 0.961 . S
C1419 H1434 0.961 . S
C1419 H1435 0.961 . S
C1420 C1421 1.370 . S
C1420 C1422 1.363 . S
C1420 H1436 0.931 . S
C1421 C1420 1.370 . S
C1421 C1425 1.408 . S
C1422 C1420 1.363 . S
C1422 C1423 1.370 . S
C1422 C1426 1.524 . S
C1423 C1415 1.503 . S
C1423 C1422 1.370 . S
C1423 C1424 1.403 . S
C1424 C1423 1.403 . S
C1424 C1425 1.404 . S
C1424 C1427 1.539 . S
C1425 C1421 1.408 . S
C1425 C1424 1.404 . S
C1425 H1437 0.930 . S
C1426 C1422 1.524 . S
C1426 H1438 0.956 . S
C1426 H1439 0.961 . S
C1426 H1440 0.961 . S
C1427 C1424 1.539 . S
C1427 H1441 0.958 . S
C1427 H1442 0.961 . S
C1427 H1443 0.960 . S
H1428 C1412 0.931 . S
H1429 C1417 0.929 . S
H1430 C1418 0.960 . S
H1431 C1418 0.962 . S
H1432 C1418 0.960 . S
H1433 C1419 0.961 . S
H1434 C1419 0.961 . S
H1435 C1419 0.961 . S
H1436 C1420 0.931 . S
H1437 C1425 0.930 . S
H1438 C1426 0.956 . S
H1439 C1426 0.961 . S
H1440 C1426 0.961 . S
H1441 C1427 0.958 . S
H1442 C1427 0.961 . S
H1443 C1427 0.960 . S
C1444 C1445 1.391 . S
C1444 C1446 1.394 . S
C1444 H1460 0.931 . S
C1445 C1444 1.391 . S
C1445 C1449 1.376 . S
C1446 C1444 1.394 . S
C1446 C1447 1.369 . S
C1446 C1450 1.531 . S
C1447 C1446 1.369 . S
C1447 C1448 1.410 . S
C1447 C1455 1.503 . S
C1448 C1447 1.410 . S
C1448 C1449 1.392 . S
C1448 C1451 1.511 . S
C1449 C1445 1.376 . S
C1449 C1448 1.392 . S
C1449 H1461 0.929 . S
C1450 C1446 1.531 . S
C1450 H1462 0.960 . S
C1450 H1463 0.962 . S
C1450 H1464 0.960 . S
C1451 C1448 1.511 . S
C1451 H1465 0.961 . S
C1451 H1466 0.961 . S
C1451 H1467 0.961 . S
C1452 C1453 1.370 . S
C1452 C1454 1.363 . S
C1452 H1468 0.931 . S
C1453 C1452 1.370 . S
C1453 C1457 1.408 . S
C1454 C1452 1.363 . S
C1454 C1455 1.370 . S
C1454 C1458 1.524 . S
C1455 C1447 1.503 . S
C1455 C1454 1.370 . S
C1455 C1456 1.403 . S
C1456 C1455 1.403 . S
C1456 C1457 1.404 . S
C1456 C1459 1.539 . S
C1457 C1453 1.408 . S
C1457 C1456 1.404 . S
C1457 H1469 0.930 . S
C1458 C1454 1.524 . S
C1458 H1470 0.956 . S
C1458 H1471 0.961 . S
C1458 H1472 0.961 . S
C1459 C1456 1.539 . S
C1459 H1473 0.958 . S
C1459 H1474 0.961 . S
C1459 H1475 0.960 . S
H1460 C1444 0.931 . S
H1461 C1449 0.929 . S
H1462 C1450 0.960 . S
H1463 C1450 0.962 . S
H1464 C1450 0.960 . S
H1465 C1451 0.961 . S
H1466 C1451 0.961 . S
H1467 C1451 0.961 . S
H1468 C1452 0.931 . S
H1469 C1457 0.930 . S
H1470 C1458 0.956 . S
H1471 C1458 0.961 . S
H1472 C1458 0.961 . S
H1473 C1459 0.958 . S
H1474 C1459 0.961 . S
H1475 C1459 0.960 . S
C1476 C1477 1.391 . S
C1476 C1478 1.394 . S
C1476 H1492 0.931 . S
C1477 C1476 1.391 . S
C1477 C1481 1.376 . S
C1478 C1476 1.394 . S
C1478 C1479 1.369 . S
C1478 C1482 1.531 . S
C1479 C1478 1.369 . S
C1479 C1480 1.410 . S
C1479 C1487 1.503 . S
C1480 C1479 1.410 . S
C1480 C1481 1.392 . S
C1480 C1483 1.511 . S
C1481 C1477 1.376 . S
C1481 C1480 1.392 . S
C1481 H1493 0.929 . S
C1482 C1478 1.531 . S
C1482 H1494 0.960 . S
C1482 H1495 0.962 . S
C1482 H1496 0.960 . S
C1483 C1480 1.511 . S
C1483 H1497 0.961 . S
C1483 H1498 0.961 . S
C1483 H1499 0.961 . S
C1484 C1485 1.370 . S
C1484 C1486 1.363 . S
C1484 H1500 0.931 . S
C1485 C1484 1.370 . S
C1485 C1489 1.408 . S
C1486 C1484 1.363 . S
C1486 C1487 1.370 . S
C1486 C1490 1.524 . S
C1487 C1479 1.503 . S
C1487 C1486 1.370 . S
C1487 C1488 1.403 . S
C1488 C1487 1.403 . S
C1488 C1489 1.404 . S
C1488 C1491 1.539 . S
C1489 C1485 1.408 . S
C1489 C1488 1.404 . S
C1489 H1501 0.930 1_556 S
C1490 C1486 1.524 . S
C1490 H1502 0.956 . S
C1490 H1503 0.961 . S
C1490 H1504 0.961 . S
C1491 C1488 1.539 . S
C1491 H1505 0.958 1_556 S
C1491 H1506 0.961 . S
C1491 H1507 0.960 . S
H1492 C1476 0.931 . S
H1493 C1481 0.929 . S
H1494 C1482 0.960 . S
H1495 C1482 0.962 . S
H1496 C1482 0.960 . S
H1497 C1483 0.961 . S
H1498 C1483 0.961 . S
H1499 C1483 0.961 . S
H1500 C1484 0.931 . S
H1501 C1489 0.930 1_554 S
H1502 C1490 0.956 . S
H1503 C1490 0.961 . S
H1504 C1490 0.961 . S
H1505 C1491 0.958 1_554 S
H1506 C1491 0.961 . S
H1507 C1491 0.960 . S
C1508 C1509 1.391 . S
C1508 C1510 1.394 . S
C1508 H1524 0.931 . S
C1509 C1508 1.391 . S
C1509 C1513 1.376 . S
C1510 C1508 1.394 . S
C1510 C1511 1.369 . S
C1510 C1514 1.531 . S
C1511 C1510 1.369 . S
C1511 C1512 1.410 . S
C1511 C1519 1.503 . S
C1512 C1511 1.410 . S
C1512 C1513 1.392 . S
C1512 C1515 1.511 . S
C1513 C1509 1.376 . S
C1513 C1512 1.392 . S
C1513 H1525 0.929 . S
C1514 C1510 1.531 . S
C1514 H1526 0.960 . S
C1514 H1527 0.962 . S
C1514 H1528 0.960 . S
C1515 C1512 1.511 . S
C1515 H1529 0.961 . S
C1515 H1530 0.961 . S
C1515 H1531 0.961 . S
C1516 C1517 1.370 . S
C1516 C1518 1.363 . S
C1516 H1532 0.931 1_554 S
C1517 C1516 1.370 . S
C1517 C1521 1.408 . S
C1518 C1516 1.363 . S
C1518 C1519 1.370 . S
C1518 C1522 1.524 . S
C1519 C1511 1.503 . S
C1519 C1518 1.370 . S
C1519 C1520 1.403 . S
C1520 C1519 1.403 . S
C1520 C1521 1.404 . S
C1520 C1523 1.539 . S
C1521 C1517 1.408 . S
C1521 C1520 1.404 . S
C1521 H1533 0.930 . S
C1522 C1518 1.524 . S
C1522 H1534 0.956 . S
C1522 H1535 0.961 . S
C1522 H1536 0.961 1_554 S
C1523 C1520 1.539 . S
C1523 H1537 0.958 . S
C1523 H1538 0.961 . S
C1523 H1539 0.960 . S
H1524 C1508 0.931 . S
H1525 C1513 0.929 . S
H1526 C1514 0.960 . S
H1527 C1514 0.962 . S
H1528 C1514 0.960 . S
H1529 C1515 0.961 . S
H1530 C1515 0.961 . S
H1531 C1515 0.961 . S
H1532 C1516 0.931 1_556 S
H1533 C1521 0.930 . S
H1534 C1522 0.956 . S
H1535 C1522 0.961 . S
H1536 C1522 0.961 1_556 S
H1537 C1523 0.958 . S
H1538 C1523 0.961 . S
H1539 C1523 0.960 . S
C1540 C1541 1.391 . S
C1540 C1542 1.394 . S
C1540 H1556 0.931 . S
C1541 C1540 1.391 . S
C1541 C1545 1.376 . S
C1542 C1540 1.394 . S
C1542 C1543 1.369 . S
C1542 C1546 1.531 . S
C1543 C1542 1.369 . S
C1543 C1544 1.410 . S
C1543 C1551 1.503 . S
C1544 C1543 1.410 . S
C1544 C1545 1.392 . S
C1544 C1547 1.511 . S
C1545 C1541 1.376 . S
C1545 C1544 1.392 . S
C1545 H1557 0.929 . S
C1546 C1542 1.531 . S
C1546 H1558 0.960 . S
C1546 H1559 0.962 . S
C1546 H1560 0.960 . S
C1547 C1544 1.511 . S
C1547 H1561 0.961 . S
C1547 H1562 0.961 . S
C1547 H1563 0.961 . S
C1548 C1549 1.370 . S
C1548 C1550 1.363 . S
C1548 H1564 0.931 . S
C1549 C1548 1.370 . S
C1549 C1553 1.408 . S
C1550 C1548 1.363 . S
C1550 C1551 1.370 . S
C1550 C1554 1.524 . S
C1551 C1543 1.503 . S
C1551 C1550 1.370 . S
C1551 C1552 1.403 . S
C1552 C1551 1.403 . S
C1552 C1553 1.404 . S
C1552 C1555 1.539 . S
C1553 C1549 1.408 . S
C1553 C1552 1.404 . S
C1553 H1565 0.930 . S
C1554 C1550 1.524 . S
C1554 H1566 0.956 . S
C1554 H1567 0.961 . S
C1554 H1568 0.961 . S
C1555 C1552 1.539 . S
C1555 H1569 0.958 . S
C1555 H1570 0.961 . S
C1555 H1571 0.960 . S
H1556 C1540 0.931 . S
H1557 C1545 0.929 . S
H1558 C1546 0.960 . S
H1559 C1546 0.962 . S
H1560 C1546 0.960 . S
H1561 C1547 0.961 . S
H1562 C1547 0.961 . S
H1563 C1547 0.961 . S
H1564 C1548 0.931 . S
H1565 C1553 0.930 . S
H1566 C1554 0.956 . S
H1567 C1554 0.961 . S
H1568 C1554 0.961 . S
H1569 C1555 0.958 . S
H1570 C1555 0.961 . S
H1571 C1555 0.960 . S
C1572 C1573 1.391 . S
C1572 C1574 1.394 . S
C1572 H1588 0.931 . S
C1573 C1572 1.391 . S
C1573 C1577 1.376 . S
C1574 C1572 1.394 . S
C1574 C1575 1.369 . S
C1574 C1578 1.531 . S
C1575 C1574 1.369 . S
C1575 C1576 1.410 . S
C1575 C1583 1.503 . S
C1576 C1575 1.410 . S
C1576 C1577 1.392 . S
C1576 C1579 1.511 . S
C1577 C1573 1.376 . S
C1577 C1576 1.392 . S
C1577 H1589 0.929 . S
C1578 C1574 1.531 . S
C1578 H1590 0.960 . S
C1578 H1591 0.962 . S
C1578 H1592 0.960 . S
C1579 C1576 1.511 . S
C1579 H1593 0.961 . S
C1579 H1594 0.961 . S
C1579 H1595 0.961 . S
C1580 C1581 1.370 . S
C1580 C1582 1.363 . S
C1580 H1596 0.931 . S
C1581 C1580 1.370 . S
C1581 C1585 1.408 . S
C1582 C1580 1.363 . S
C1582 C1583 1.370 . S
C1582 C1586 1.524 . S
C1583 C1575 1.503 . S
C1583 C1582 1.370 . S
C1583 C1584 1.403 . S
C1584 C1583 1.403 . S
C1584 C1585 1.404 . S
C1584 C1587 1.539 . S
C1585 C1581 1.408 . S
C1585 C1584 1.404 . S
C1585 H1597 0.930 . S
C1586 C1582 1.524 . S
C1586 H1598 0.956 . S
C1586 H1599 0.961 . S
C1586 H1600 0.961 . S
C1587 C1584 1.539 . S
C1587 H1601 0.958 . S
C1587 H1602 0.961 . S
C1587 H1603 0.960 . S
H1588 C1572 0.931 . S
H1589 C1577 0.929 . S
H1590 C1578 0.960 . S
H1591 C1578 0.962 . S
H1592 C1578 0.960 . S
H1593 C1579 0.961 . S
H1594 C1579 0.961 . S
H1595 C1579 0.961 . S
H1596 C1580 0.931 . S
H1597 C1585 0.930 . S
H1598 C1586 0.956 . S
H1599 C1586 0.961 . S
H1600 C1586 0.961 . S
H1601 C1587 0.958 . S
H1602 C1587 0.961 . S
H1603 C1587 0.960 . S
C1604 C1605 1.391 . S
C1604 C1606 1.394 . S
C1604 H1620 0.931 . S
C1605 C1604 1.391 . S
C1605 C1609 1.376 . S
C1606 C1604 1.394 . S
C1606 C1607 1.369 . S
C1606 C1610 1.531 . S
C1607 C1606 1.369 . S
C1607 C1608 1.410 . S
C1607 C1615 1.503 . S
C1608 C1607 1.410 . S
C1608 C1609 1.392 . S
C1608 C1611 1.511 . S
C1609 C1605 1.376 . S
C1609 C1608 1.392 . S
C1609 H1621 0.929 . S
C1610 C1606 1.531 . S
C1610 H1622 0.960 . S
C1610 H1623 0.962 . S
C1610 H1624 0.960 . S
C1611 C1608 1.511 . S
C1611 H1625 0.961 . S
C1611 H1626 0.961 . S
C1611 H1627 0.961 . S
C1612 C1613 1.370 . S
C1612 C1614 1.363 . S
C1612 H1628 0.931 . S
C1613 C1612 1.370 . S
C1613 C1617 1.408 . S
C1614 C1612 1.363 . S
C1614 C1615 1.370 . S
C1614 C1618 1.524 . S
C1615 C1607 1.503 . S
C1615 C1614 1.370 . S
C1615 C1616 1.403 . S
C1616 C1615 1.403 . S
C1616 C1617 1.404 . S
C1616 C1619 1.539 . S
C1617 C1613 1.408 . S
C1617 C1616 1.404 . S
C1617 H1629 0.930 . S
C1618 C1614 1.524 . S
C1618 H1630 0.956 . S
C1618 H1631 0.961 . S
C1618 H1632 0.961 . S
C1619 C1616 1.539 . S
C1619 H1633 0.958 . S
C1619 H1634 0.961 . S
C1619 H1635 0.960 . S
H1620 C1604 0.931 . S
H1621 C1609 0.929 . S
H1622 C1610 0.960 . S
H1623 C1610 0.962 . S
H1624 C1610 0.960 . S
H1625 C1611 0.961 . S
H1626 C1611 0.961 . S
H1627 C1611 0.961 . S
H1628 C1612 0.931 . S
H1629 C1617 0.930 . S
H1630 C1618 0.956 . S
H1631 C1618 0.961 . S
H1632 C1618 0.961 . S
H1633 C1619 0.958 . S
H1634 C1619 0.961 . S
H1635 C1619 0.960 . S
C1636 C1637 1.391 . S
C1636 C1638 1.394 . S
C1636 H1652 0.931 . S
C1637 C1636 1.391 . S
C1637 C1641 1.376 . S
C1638 C1636 1.394 . S
C1638 C1639 1.369 . S
C1638 C1642 1.531 . S
C1639 C1638 1.369 . S
C1639 C1640 1.410 . S
C1639 C1647 1.503 . S
C1640 C1639 1.410 . S
C1640 C1641 1.392 . S
C1640 C1643 1.511 . S
C1641 C1637 1.376 . S
C1641 C1640 1.392 . S
C1641 H1653 0.929 . S
C1642 C1638 1.531 . S
C1642 H1654 0.960 . S
C1642 H1655 0.962 . S
C1642 H1656 0.960 . S
C1643 C1640 1.511 . S
C1643 H1657 0.961 . S
C1643 H1658 0.961 . S
C1643 H1659 0.961 . S
C1644 C1645 1.370 . S
C1644 C1646 1.363 . S
C1644 H1660 0.931 . S
C1645 C1644 1.370 . S
C1645 C1649 1.408 . S
C1646 C1644 1.363 . S
C1646 C1647 1.370 . S
C1646 C1650 1.524 . S
C1647 C1639 1.503 . S
C1647 C1646 1.370 . S
C1647 C1648 1.403 . S
C1648 C1647 1.403 . S
C1648 C1649 1.404 . S
C1648 C1651 1.539 . S
C1649 C1645 1.408 . S
C1649 C1648 1.404 . S
C1649 H1661 0.930 . S
C1650 C1646 1.524 . S
C1650 H1662 0.956 . S
C1650 H1663 0.961 . S
C1650 H1664 0.961 . S
C1651 C1648 1.539 . S
C1651 H1665 0.958 . S
C1651 H1666 0.961 . S
C1651 H1667 0.960 . S
H1652 C1636 0.931 . S
H1653 C1641 0.929 . S
H1654 C1642 0.960 . S
H1655 C1642 0.962 . S
H1656 C1642 0.960 . S
H1657 C1643 0.961 . S
H1658 C1643 0.961 . S
H1659 C1643 0.961 . S
H1660 C1644 0.931 . S
H1661 C1649 0.930 . S
H1662 C1650 0.956 . S
H1663 C1650 0.961 . S
H1664 C1650 0.961 . S
H1665 C1651 0.958 . S
H1666 C1651 0.961 . S
H1667 C1651 0.960 . S
C1668 C1669 1.391 . S
C1668 C1670 1.394 . S
C1668 H1684 0.931 . S
C1669 C1668 1.391 . S
C1669 C1673 1.376 . S
C1670 C1668 1.394 . S
C1670 C1671 1.369 . S
C1670 C1674 1.531 . S
C1671 C1670 1.369 . S
C1671 C1672 1.410 . S
C1671 C1679 1.503 . S
C1672 C1671 1.410 . S
C1672 C1673 1.392 . S
C1672 C1675 1.511 . S
C1673 C1669 1.376 . S
C1673 C1672 1.392 . S
C1673 H1685 0.929 . S
C1674 C1670 1.531 . S
C1674 H1686 0.960 . S
C1674 H1687 0.962 . S
C1674 H1688 0.960 . S
C1675 C1672 1.511 . S
C1675 H1689 0.961 . S
C1675 H1690 0.961 . S
C1675 H1691 0.961 . S
C1676 C1677 1.370 . S
C1676 C1678 1.363 . S
C1676 H1692 0.931 . S
C1677 C1676 1.370 . S
C1677 C1681 1.408 . S
C1678 C1676 1.363 . S
C1678 C1679 1.370 . S
C1678 C1682 1.524 . S
C1679 C1671 1.503 . S
C1679 C1678 1.370 . S
C1679 C1680 1.403 . S
C1680 C1679 1.403 . S
C1680 C1681 1.404 . S
C1680 C1683 1.539 . S
C1681 C1677 1.408 . S
C1681 C1680 1.404 . S
C1681 H1693 0.930 . S
C1682 C1678 1.524 . S
C1682 H1694 0.956 . S
C1682 H1695 0.961 . S
C1682 H1696 0.961 . S
C1683 C1680 1.539 . S
C1683 H1697 0.958 . S
C1683 H1698 0.961 . S
C1683 H1699 0.960 . S
H1684 C1668 0.931 . S
H1685 C1673 0.929 . S
H1686 C1674 0.960 . S
H1687 C1674 0.962 . S
H1688 C1674 0.960 . S
H1689 C1675 0.961 . S
H1690 C1675 0.961 . S
H1691 C1675 0.961 . S
H1692 C1676 0.931 . S
H1693 C1681 0.930 . S
H1694 C1682 0.956 . S
H1695 C1682 0.961 . S
H1696 C1682 0.961 . S
H1697 C1683 0.958 . S
H1698 C1683 0.961 . S
H1699 C1683 0.960 . S
C1700 C1701 1.391 . S
C1700 C1702 1.394 . S
C1700 H1716 0.931 . S
C1701 C1700 1.391 . S
C1701 C1705 1.376 . S
C1702 C1700 1.394 . S
C1702 C1703 1.369 . S
C1702 C1706 1.531 . S
C1703 C1702 1.369 . S
C1703 C1704 1.410 . S
C1703 C1711 1.503 . S
C1704 C1703 1.410 . S
C1704 C1705 1.392 . S
C1704 C1707 1.511 . S
C1705 C1701 1.376 . S
C1705 C1704 1.392 . S
C1705 H1717 0.929 . S
C1706 C1702 1.531 . S
C1706 H1718 0.960 . S
C1706 H1719 0.962 . S
C1706 H1720 0.960 . S
C1707 C1704 1.511 . S
C1707 H1721 0.961 . S
C1707 H1722 0.961 . S
C1707 H1723 0.961 . S
C1708 C1709 1.370 . S
C1708 C1710 1.363 . S
C1708 H1724 0.931 . S
C1709 C1708 1.370 . S
C1709 C1713 1.408 . S
C1710 C1708 1.363 . S
C1710 C1711 1.370 . S
C1710 C1714 1.524 . S
C1711 C1703 1.503 . S
C1711 C1710 1.370 . S
C1711 C1712 1.403 . S
C1712 C1711 1.403 . S
C1712 C1713 1.404 . S
C1712 C1715 1.539 . S
C1713 C1709 1.408 . S
C1713 C1712 1.404 . S
C1713 H1725 0.930 . S
C1714 C1710 1.524 . S
C1714 H1726 0.956 . S
C1714 H1727 0.961 . S
C1714 H1728 0.961 . S
C1715 C1712 1.539 . S
C1715 H1729 0.958 . S
C1715 H1730 0.961 . S
C1715 H1731 0.960 . S
H1716 C1700 0.931 . S
H1717 C1705 0.929 . S
H1718 C1706 0.960 . S
H1719 C1706 0.962 . S
H1720 C1706 0.960 . S
H1721 C1707 0.961 . S
H1722 C1707 0.961 . S
H1723 C1707 0.961 . S
H1724 C1708 0.931 . S
H1725 C1713 0.930 . S
H1726 C1714 0.956 . S
H1727 C1714 0.961 . S
H1728 C1714 0.961 . S
H1729 C1715 0.958 . S
H1730 C1715 0.961 . S
H1731 C1715 0.960 . S
C1732 C1733 1.391 . S
C1732 C1734 1.394 . S
C1732 H1748 0.931 . S
C1733 C1732 1.391 . S
C1733 C1737 1.376 . S
C1734 C1732 1.394 . S
C1734 C1735 1.369 . S
C1734 C1738 1.531 . S
C1735 C1734 1.369 . S
C1735 C1736 1.410 . S
C1735 C1743 1.503 . S
C1736 C1735 1.410 . S
C1736 C1737 1.392 . S
C1736 C1739 1.511 . S
C1737 C1733 1.376 . S
C1737 C1736 1.392 . S
C1737 H1749 0.929 . S
C1738 C1734 1.531 . S
C1738 H1750 0.960 . S
C1738 H1751 0.962 . S
C1738 H1752 0.960 . S
C1739 C1736 1.511 . S
C1739 H1753 0.961 . S
C1739 H1754 0.961 . S
C1739 H1755 0.961 . S
C1740 C1741 1.370 . S
C1740 C1742 1.363 . S
C1740 H1756 0.931 . S
C1741 C1740 1.370 . S
C1741 C1745 1.408 . S
C1742 C1740 1.363 . S
C1742 C1743 1.370 . S
C1742 C1746 1.524 . S
C1743 C1735 1.503 . S
C1743 C1742 1.370 . S
C1743 C1744 1.403 . S
C1744 C1743 1.403 . S
C1744 C1745 1.404 . S
C1744 C1747 1.539 . S
C1745 C1741 1.408 . S
C1745 C1744 1.404 . S
C1745 H1757 0.930 . S
C1746 C1742 1.524 . S
C1746 H1758 0.956 . S
C1746 H1759 0.961 . S
C1746 H1760 0.961 . S
C1747 C1744 1.539 . S
C1747 H1761 0.958 . S
C1747 H1762 0.961 . S
C1747 H1763 0.960 . S
H1748 C1732 0.931 . S
H1749 C1737 0.929 . S
H1750 C1738 0.960 . S
H1751 C1738 0.962 . S
H1752 C1738 0.960 . S
H1753 C1739 0.961 . S
H1754 C1739 0.961 . S
H1755 C1739 0.961 . S
H1756 C1740 0.931 . S
H1757 C1745 0.930 . S
H1758 C1746 0.956 . S
H1759 C1746 0.961 . S
H1760 C1746 0.961 . S
H1761 C1747 0.958 . S
H1762 C1747 0.961 . S
H1763 C1747 0.960 . S
C1764 C1765 1.391 . S
C1764 C1766 1.394 . S
C1764 H1780 0.931 . S
C1765 C1764 1.391 . S
C1765 C1769 1.376 . S
C1766 C1764 1.394 . S
C1766 C1767 1.369 . S
C1766 C1770 1.531 . S
C1767 C1766 1.369 . S
C1767 C1768 1.410 . S
C1767 C1775 1.503 . S
C1768 C1767 1.410 . S
C1768 C1769 1.392 . S
C1768 C1771 1.511 . S
C1769 C1765 1.376 . S
C1769 C1768 1.392 . S
C1769 H1781 0.929 . S
C1770 C1766 1.531 . S
C1770 H1782 0.960 . S
C1770 H1783 0.962 . S
C1770 H1784 0.960 . S
C1771 C1768 1.511 . S
C1771 H1785 0.961 . S
C1771 H1786 0.961 . S
C1771 H1787 0.961 . S
C1772 C1773 1.370 . S
C1772 C1774 1.363 . S
C1772 H1788 0.931 . S
C1773 C1772 1.370 . S
C1773 C1777 1.408 . S
C1774 C1772 1.363 . S
C1774 C1775 1.370 . S
C1774 C1778 1.524 . S
C1775 C1767 1.503 . S
C1775 C1774 1.370 . S
C1775 C1776 1.403 . S
C1776 C1775 1.403 . S
C1776 C1777 1.404 . S
C1776 C1779 1.539 . S
C1777 C1773 1.408 . S
C1777 C1776 1.404 . S
C1777 H1789 0.930 . S
C1778 C1774 1.524 . S
C1778 H1790 0.956 . S
C1778 H1791 0.961 . S
C1778 H1792 0.961 . S
C1779 C1776 1.539 . S
C1779 H1793 0.958 . S
C1779 H1794 0.961 . S
C1779 H1795 0.960 . S
H1780 C1764 0.931 . S
H1781 C1769 0.929 . S
H1782 C1770 0.960 . S
H1783 C1770 0.962 . S
H1784 C1770 0.960 . S
H1785 C1771 0.961 . S
H1786 C1771 0.961 . S
H1787 C1771 0.961 . S
H1788 C1772 0.931 . S
H1789 C1777 0.930 . S
H1790 C1778 0.956 . S
H1791 C1778 0.961 . S
H1792 C1778 0.961 . S
H1793 C1779 0.958 . S
H1794 C1779 0.961 . S
H1795 C1779 0.960 . S
C1796 C1797 1.391 . S
C1796 C1798 1.394 . S
C1796 H1812 0.931 . S
C1797 C1796 1.391 . S
C1797 C1801 1.376 . S
C1798 C1796 1.394 . S
C1798 C1799 1.369 . S
C1798 C1802 1.531 . S
C1799 C1798 1.369 . S
C1799 C1800 1.410 . S
C1799 C1807 1.503 . S
C1800 C1799 1.410 . S
C1800 C1801 1.392 . S
C1800 C1803 1.511 . S
C1801 C1797 1.376 . S
C1801 C1800 1.392 . S
C1801 H1813 0.929 . S
C1802 C1798 1.531 . S
C1802 H1814 0.960 . S
C1802 H1815 0.962 . S
C1802 H1816 0.960 . S
C1803 C1800 1.511 . S
C1803 H1817 0.961 . S
C1803 H1818 0.961 . S
C1803 H1819 0.961 . S
C1804 C1805 1.370 . S
C1804 C1806 1.363 . S
C1804 H1820 0.931 . S
C1805 C1804 1.370 . S
C1805 C1809 1.408 . S
C1806 C1804 1.363 . S
C1806 C1807 1.370 . S
C1806 C1810 1.524 . S
C1807 C1799 1.503 . S
C1807 C1806 1.370 . S
C1807 C1808 1.403 . S
C1808 C1807 1.403 . S
C1808 C1809 1.404 . S
C1808 C1811 1.539 . S
C1809 C1805 1.408 . S
C1809 C1808 1.404 . S
C1809 H1821 0.930 . S
C1810 C1806 1.524 . S
C1810 H1822 0.956 . S
C1810 H1823 0.961 . S
C1810 H1824 0.961 . S
C1811 C1808 1.539 . S
C1811 H1825 0.958 . S
C1811 H1826 0.961 . S
C1811 H1827 0.960 . S
H1812 C1796 0.931 . S
H1813 C1801 0.929 . S
H1814 C1802 0.960 . S
H1815 C1802 0.962 . S
H1816 C1802 0.960 . S
H1817 C1803 0.961 . S
H1818 C1803 0.961 . S
H1819 C1803 0.961 . S
H1820 C1804 0.931 . S
H1821 C1809 0.930 . S
H1822 C1810 0.956 . S
H1823 C1810 0.961 . S
H1824 C1810 0.961 . S
H1825 C1811 0.958 . S
H1826 C1811 0.961 . S
H1827 C1811 0.960 . S
C1828 C1829 1.391 . S
C1828 C1830 1.394 . S
C1828 H1844 0.931 . S
C1829 C1828 1.391 . S
C1829 C1833 1.376 . S
C1830 C1828 1.394 . S
C1830 C1831 1.369 . S
C1830 C1834 1.531 . S
C1831 C1830 1.369 . S
C1831 C1832 1.410 . S
C1831 C1839 1.503 . S
C1832 C1831 1.410 . S
C1832 C1833 1.392 . S
C1832 C1835 1.511 . S
C1833 C1829 1.376 . S
C1833 C1832 1.392 . S
C1833 H1845 0.929 . S
C1834 C1830 1.531 . S
C1834 H1846 0.960 . S
C1834 H1847 0.962 . S
C1834 H1848 0.960 . S
C1835 C1832 1.511 . S
C1835 H1849 0.961 . S
C1835 H1850 0.961 . S
C1835 H1851 0.961 . S
C1836 C1837 1.370 . S
C1836 C1838 1.363 . S
C1836 H1852 0.931 . S
C1837 C1836 1.370 . S
C1837 C1841 1.408 . S
C1838 C1836 1.363 . S
C1838 C1839 1.370 . S
C1838 C1842 1.524 . S
C1839 C1831 1.503 . S
C1839 C1838 1.370 . S
C1839 C1840 1.403 . S
C1840 C1839 1.403 . S
C1840 C1841 1.404 . S
C1840 C1843 1.539 . S
C1841 C1837 1.408 . S
C1841 C1840 1.404 . S
C1841 H1853 0.930 . S
C1842 C1838 1.524 . S
C1842 H1854 0.956 . S
C1842 H1855 0.961 . S
C1842 H1856 0.961 . S
C1843 C1840 1.539 . S
C1843 H1857 0.958 . S
C1843 H1858 0.961 . S
C1843 H1859 0.960 . S
H1844 C1828 0.931 . S
H1845 C1833 0.929 . S
H1846 C1834 0.960 . S
H1847 C1834 0.962 . S
H1848 C1834 0.960 . S
H1849 C1835 0.961 . S
H1850 C1835 0.961 . S
H1851 C1835 0.961 . S
H1852 C1836 0.931 . S
H1853 C1841 0.930 . S
H1854 C1842 0.956 . S
H1855 C1842 0.961 . S
H1856 C1842 0.961 . S
H1857 C1843 0.958 . S
H1858 C1843 0.961 . S
H1859 C1843 0.960 . S
C1860 C1861 1.391 . S
C1860 C1862 1.394 . S
C1860 H1876 0.931 . S
C1861 C1860 1.391 . S
C1861 C1865 1.376 . S
C1862 C1860 1.394 . S
C1862 C1863 1.369 . S
C1862 C1866 1.531 . S
C1863 C1862 1.369 . S
C1863 C1864 1.410 . S
C1863 C1871 1.503 . S
C1864 C1863 1.410 . S
C1864 C1865 1.392 . S
C1864 C1867 1.511 . S
C1865 C1861 1.376 . S
C1865 C1864 1.392 . S
C1865 H1877 0.929 . S
C1866 C1862 1.531 . S
C1866 H1878 0.960 . S
C1866 H1879 0.962 . S
C1866 H1880 0.960 . S
C1867 C1864 1.511 . S
C1867 H1881 0.961 . S
C1867 H1882 0.961 . S
C1867 H1883 0.961 . S
C1868 C1869 1.370 . S
C1868 C1870 1.363 . S
C1868 H1884 0.931 . S
C1869 C1868 1.370 . S
C1869 C1873 1.408 . S
C1870 C1868 1.363 . S
C1870 C1871 1.370 . S
C1870 C1874 1.524 . S
C1871 C1863 1.503 . S
C1871 C1870 1.370 . S
C1871 C1872 1.403 . S
C1872 C1871 1.403 . S
C1872 C1873 1.404 . S
C1872 C1875 1.539 . S
C1873 C1869 1.408 . S
C1873 C1872 1.404 . S
C1873 H1885 0.930 . S
C1874 C1870 1.524 . S
C1874 H1886 0.956 . S
C1874 H1887 0.961 . S
C1874 H1888 0.961 . S
C1875 C1872 1.539 . S
C1875 H1889 0.958 . S
C1875 H1890 0.961 . S
C1875 H1891 0.960 . S
H1876 C1860 0.931 . S
H1877 C1865 0.929 . S
H1878 C1866 0.960 . S
H1879 C1866 0.962 . S
H1880 C1866 0.960 . S
H1881 C1867 0.961 . S
H1882 C1867 0.961 . S
H1883 C1867 0.961 . S
H1884 C1868 0.931 . S
H1885 C1873 0.930 . S
H1886 C1874 0.956 . S
H1887 C1874 0.961 . S
H1888 C1874 0.961 . S
H1889 C1875 0.958 . S
H1890 C1875 0.961 . S
H1891 C1875 0.960 . S
C1892 C1893 1.391 . S
C1892 C1894 1.394 . S
C1892 H1908 0.931 . S
C1893 C1892 1.391 . S
C1893 C1897 1.376 . S
C1894 C1892 1.394 . S
C1894 C1895 1.369 . S
C1894 C1898 1.531 . S
C1895 C1894 1.369 . S
C1895 C1896 1.410 . S
C1895 C1903 1.503 . S
C1896 C1895 1.410 . S
C1896 C1897 1.392 . S
C1896 C1899 1.511 . S
C1897 C1893 1.376 . S
C1897 C1896 1.392 . S
C1897 H1909 0.929 . S
C1898 C1894 1.531 . S
C1898 H1910 0.960 . S
C1898 H1911 0.962 . S
C1898 H1912 0.960 . S
C1899 C1896 1.511 . S
C1899 H1913 0.961 . S
C1899 H1914 0.961 . S
C1899 H1915 0.961 . S
C1900 C1901 1.370 . S
C1900 C1902 1.363 . S
C1900 H1916 0.931 . S
C1901 C1900 1.370 . S
C1901 C1905 1.408 . S
C1902 C1900 1.363 . S
C1902 C1903 1.370 . S
C1902 C1906 1.524 . S
C1903 C1895 1.503 . S
C1903 C1902 1.370 . S
C1903 C1904 1.403 . S
C1904 C1903 1.403 . S
C1904 C1905 1.404 . S
C1904 C1907 1.539 . S
C1905 C1901 1.408 . S
C1905 C1904 1.404 . S
C1905 H1917 0.930 . S
C1906 C1902 1.524 . S
C1906 H1918 0.956 . S
C1906 H1919 0.961 . S
C1906 H1920 0.961 . S
C1907 C1904 1.539 . S
C1907 H1921 0.958 . S
C1907 H1922 0.961 . S
C1907 H1923 0.960 . S
H1908 C1892 0.931 . S
H1909 C1897 0.929 . S
H1910 C1898 0.960 . S
H1911 C1898 0.962 . S
H1912 C1898 0.960 . S
H1913 C1899 0.961 . S
H1914 C1899 0.961 . S
H1915 C1899 0.961 . S
H1916 C1900 0.931 . S
H1917 C1905 0.930 . S
H1918 C1906 0.956 . S
H1919 C1906 0.961 . S
H1920 C1906 0.961 . S
H1921 C1907 0.958 . S
H1922 C1907 0.961 . S
H1923 C1907 0.960 . S
C1924 C1925 1.391 . S
C1924 C1926 1.394 . S
C1924 H1940 0.931 . S
C1925 C1924 1.391 . S
C1925 C1929 1.376 . S
C1926 C1924 1.394 . S
C1926 C1927 1.369 . S
C1926 C1930 1.531 . S
C1927 C1926 1.369 . S
C1927 C1928 1.410 . S
C1927 C1935 1.503 . S
C1928 C1927 1.410 . S
C1928 C1929 1.392 . S
C1928 C1931 1.511 . S
C1929 C1925 1.376 . S
C1929 C1928 1.392 . S
C1929 H1941 0.929 . S
C1930 C1926 1.531 . S
C1930 H1942 0.960 . S
C1930 H1943 0.962 . S
C1930 H1944 0.960 . S
C1931 C1928 1.511 . S
C1931 H1945 0.961 . S
C1931 H1946 0.961 . S
C1931 H1947 0.961 . S
C1932 C1933 1.370 . S
C1932 C1934 1.363 . S
C1932 H1948 0.931 . S
C1933 C1932 1.370 . S
C1933 C1937 1.408 . S
C1934 C1932 1.363 . S
C1934 C1935 1.370 . S
C1934 C1938 1.524 . S
C1935 C1927 1.503 . S
C1935 C1934 1.370 . S
C1935 C1936 1.403 . S
C1936 C1935 1.403 . S
C1936 C1937 1.404 . S
C1936 C1939 1.539 . S
C1937 C1933 1.408 . S
C1937 C1936 1.404 . S
C1937 H1949 0.930 . S
C1938 C1934 1.524 . S
C1938 H1950 0.956 . S
C1938 H1951 0.961 . S
C1938 H1952 0.961 . S
C1939 C1936 1.539 . S
C1939 H1953 0.958 . S
C1939 H1954 0.961 . S
C1939 H1955 0.960 . S
H1940 C1924 0.931 . S
H1941 C1929 0.929 . S
H1942 C1930 0.960 . S
H1943 C1930 0.962 . S
H1944 C1930 0.960 . S
H1945 C1931 0.961 . S
H1946 C1931 0.961 . S
H1947 C1931 0.961 . S
H1948 C1932 0.931 . S
H1949 C1937 0.930 . S
H1950 C1938 0.956 . S
H1951 C1938 0.961 . S
H1952 C1938 0.961 . S
H1953 C1939 0.958 . S
H1954 C1939 0.961 . S
H1955 C1939 0.960 . S
C1956 C1957 1.391 . S
C1956 C1958 1.394 . S
C1956 H1972 0.931 . S
C1957 C1956 1.391 . S
C1957 C1961 1.376 . S
C1958 C1956 1.394 . S
C1958 C1959 1.369 . S
C1958 C1962 1.531 . S
C1959 C1958 1.369 . S
C1959 C1960 1.410 . S
C1959 C1967 1.503 . S
C1960 C1959 1.410 . S
C1960 C1961 1.392 . S
C1960 C1963 1.511 . S
C1961 C1957 1.376 . S
C1961 C1960 1.392 . S
C1961 H1973 0.929 . S
C1962 C1958 1.531 . S
C1962 H1974 0.960 . S
C1962 H1975 0.962 . S
C1962 H1976 0.960 . S
C1963 C1960 1.511 . S
C1963 H1977 0.961 . S
C1963 H1978 0.961 . S
C1963 H1979 0.961 . S
C1964 C1965 1.370 . S
C1964 C1966 1.363 . S
C1964 H1980 0.931 . S
C1965 C1964 1.370 . S
C1965 C1969 1.408 . S
C1966 C1964 1.363 . S
C1966 C1967 1.370 . S
C1966 C1970 1.524 . S
C1967 C1959 1.503 . S
C1967 C1966 1.370 . S
C1967 C1968 1.403 . S
C1968 C1967 1.403 . S
C1968 C1969 1.404 . S
C1968 C1971 1.539 . S
C1969 C1965 1.408 . S
C1969 C1968 1.404 . S
C1969 H1981 0.930 1_554 S
C1970 C1966 1.524 . S
C1970 H1982 0.956 . S
C1970 H1983 0.961 . S
C1970 H1984 0.961 . S
C1971 C1968 1.539 . S
C1971 H1985 0.958 1_554 S
C1971 H1986 0.961 1_554 S
C1971 H1987 0.960 . S
H1972 C1956 0.931 . S
H1973 C1961 0.929 . S
H1974 C1962 0.960 . S
H1975 C1962 0.962 . S
H1976 C1962 0.960 . S
H1977 C1963 0.961 . S
H1978 C1963 0.961 . S
H1979 C1963 0.961 . S
H1980 C1964 0.931 . S
H1981 C1969 0.930 1_556 S
H1982 C1970 0.956 . S
H1983 C1970 0.961 . S
H1984 C1970 0.961 . S
H1985 C1971 0.958 1_556 S
H1986 C1971 0.961 1_556 S
H1987 C1971 0.960 . S
C1988 C1989 1.391 . S
C1988 C1990 1.394 . S
C1988 H2004 0.931 . S
C1989 C1988 1.391 . S
C1989 C1993 1.376 . S
C1990 C1988 1.394 . S
C1990 C1991 1.369 . S
C1990 C1994 1.531 . S
C1991 C1990 1.369 . S
C1991 C1992 1.410 . S
C1991 C1999 1.503 . S
C1992 C1991 1.410 . S
C1992 C1993 1.392 . S
C1992 C1995 1.511 . S
C1993 C1989 1.376 . S
C1993 C1992 1.392 . S
C1993 H2005 0.929 . S
C1994 C1990 1.531 . S
C1994 H2006 0.960 . S
C1994 H2007 0.962 . S
C1994 H2008 0.960 . S
C1995 C1992 1.511 . S
C1995 H2009 0.961 . S
C1995 H2010 0.961 . S
C1995 H2011 0.961 . S
C1996 C1997 1.370 . S
C1996 C1998 1.363 . S
C1996 H2012 0.931 . S
C1997 C1996 1.370 . S
C1997 C2001 1.408 . S
C1998 C1996 1.363 . S
C1998 C1999 1.370 . S
C1998 C2002 1.524 . S
C1999 C1991 1.503 . S
C1999 C1998 1.370 . S
C1999 C2000 1.403 . S
C2000 C1999 1.403 . S
C2000 C2001 1.404 . S
C2000 C2003 1.539 . S
C2001 C1997 1.408 . S
C2001 C2000 1.404 . S
C2001 H2013 0.930 . S
C2002 C1998 1.524 . S
C2002 H2014 0.956 . S
C2002 H2015 0.961 . S
C2002 H2016 0.961 . S
C2003 C2000 1.539 . S
C2003 H2017 0.958 . S
C2003 H2018 0.961 . S
C2003 H2019 0.960 . S
H2004 C1988 0.931 . S
H2005 C1993 0.929 . S
H2006 C1994 0.960 . S
H2007 C1994 0.962 . S
H2008 C1994 0.960 . S
H2009 C1995 0.961 . S
H2010 C1995 0.961 . S
H2011 C1995 0.961 . S
H2012 C1996 0.931 . S
H2013 C2001 0.930 . S
H2014 C2002 0.956 . S
H2015 C2002 0.961 . S
H2016 C2002 0.961 . S
H2017 C2003 0.958 . S
H2018 C2003 0.961 . S
H2019 C2003 0.960 . S
C2020 C2021 1.391 . S
C2020 C2022 1.394 . S
C2020 H2036 0.931 . S
C2021 C2020 1.391 . S
C2021 C2025 1.376 . S
C2022 C2020 1.394 . S
C2022 C2023 1.369 . S
C2022 C2026 1.531 . S
C2023 C2022 1.369 . S
C2023 C2024 1.410 . S
C2023 C2031 1.503 . S
C2024 C2023 1.410 . S
C2024 C2025 1.392 . S
C2024 C2027 1.511 . S
C2025 C2021 1.376 . S
C2025 C2024 1.392 . S
C2025 H2037 0.929 . S
C2026 C2022 1.531 . S
C2026 H2038 0.960 . S
C2026 H2039 0.962 . S
C2026 H2040 0.960 . S
C2027 C2024 1.511 . S
C2027 H2041 0.961 . S
C2027 H2042 0.961 . S
C2027 H2043 0.961 . S
C2028 C2029 1.370 . S
C2028 C2030 1.363 . S
C2028 H2044 0.931 . S
C2029 C2028 1.370 . S
C2029 C2033 1.408 . S
C2030 C2028 1.363 . S
C2030 C2031 1.370 . S
C2030 C2034 1.524 . S
C2031 C2023 1.503 . S
C2031 C2030 1.370 . S
C2031 C2032 1.403 . S
C2032 C2031 1.403 . S
C2032 C2033 1.404 . S
C2032 C2035 1.539 . S
C2033 C2029 1.408 . S
C2033 C2032 1.404 . S
C2033 H2045 0.930 . S
C2034 C2030 1.524 . S
C2034 H2046 0.956 . S
C2034 H2047 0.961 . S
C2034 H2048 0.961 . S
C2035 C2032 1.539 . S
C2035 H2049 0.958 . S
C2035 H2050 0.961 . S
C2035 H2051 0.960 . S
H2036 C2020 0.931 . S
H2037 C2025 0.929 . S
H2038 C2026 0.960 . S
H2039 C2026 0.962 . S
H2040 C2026 0.960 . S
H2041 C2027 0.961 . S
H2042 C2027 0.961 . S
H2043 C2027 0.961 . S
H2044 C2028 0.931 . S
H2045 C2033 0.930 . S
H2046 C2034 0.956 . S
H2047 C2034 0.961 . S
H2048 C2034 0.961 . S
H2049 C2035 0.958 . S
H2050 C2035 0.961 . S
H2051 C2035 0.960 . S
C2052 C2053 1.391 . S
C2052 C2054 1.394 . S
C2052 H2068 0.931 . S
C2053 C2052 1.391 . S
C2053 C2057 1.376 . S
C2054 C2052 1.394 . S
C2054 C2055 1.369 . S
C2054 C2058 1.531 . S
C2055 C2054 1.369 . S
C2055 C2056 1.410 . S
C2055 C2063 1.503 . S
C2056 C2055 1.410 . S
C2056 C2057 1.392 . S
C2056 C2059 1.511 . S
C2057 C2053 1.376 . S
C2057 C2056 1.392 . S
C2057 H2069 0.929 . S
C2058 C2054 1.531 . S
C2058 H2070 0.960 . S
C2058 H2071 0.962 . S
C2058 H2072 0.960 . S
C2059 C2056 1.511 . S
C2059 H2073 0.961 . S
C2059 H2074 0.961 . S
C2059 H2075 0.961 . S
C2060 C2061 1.370 . S
C2060 C2062 1.363 . S
C2060 H2076 0.931 . S
C2061 C2060 1.370 . S
C2061 C2065 1.408 . S
C2062 C2060 1.363 . S
C2062 C2063 1.370 . S
C2062 C2066 1.524 . S
C2063 C2055 1.503 . S
C2063 C2062 1.370 . S
C2063 C2064 1.403 . S
C2064 C2063 1.403 . S
C2064 C2065 1.404 . S
C2064 C2067 1.539 . S
C2065 C2061 1.408 . S
C2065 C2064 1.404 . S
C2065 H2077 0.930 . S
C2066 C2062 1.524 . S
C2066 H2078 0.956 . S
C2066 H2079 0.961 . S
C2066 H2080 0.961 . S
C2067 C2064 1.539 . S
C2067 H2081 0.958 . S
C2067 H2082 0.961 . S
C2067 H2083 0.960 . S
H2068 C2052 0.931 . S
H2069 C2057 0.929 . S
H2070 C2058 0.960 . S
H2071 C2058 0.962 . S
H2072 C2058 0.960 . S
H2073 C2059 0.961 . S
H2074 C2059 0.961 . S
H2075 C2059 0.961 . S
H2076 C2060 0.931 . S
H2077 C2065 0.930 . S
H2078 C2066 0.956 . S
H2079 C2066 0.961 . S
H2080 C2066 0.961 . S
H2081 C2067 0.958 . S
H2082 C2067 0.961 . S
H2083 C2067 0.960 . S
C2084 C2085 1.391 . S
C2084 C2086 1.394 . S
C2084 H2100 0.931 . S
C2085 C2084 1.391 . S
C2085 C2089 1.376 . S
C2086 C2084 1.394 . S
C2086 C2087 1.369 . S
C2086 C2090 1.531 . S
C2087 C2086 1.369 . S
C2087 C2088 1.410 . S
C2087 C2095 1.503 . S
C2088 C2087 1.410 . S
C2088 C2089 1.392 . S
C2088 C2091 1.511 . S
C2089 C2085 1.376 . S
C2089 C2088 1.392 . S
C2089 H2101 0.929 . S
C2090 C2086 1.531 . S
C2090 H2102 0.960 . S
C2090 H2103 0.962 . S
C2090 H2104 0.960 . S
C2091 C2088 1.511 . S
C2091 H2105 0.961 . S
C2091 H2106 0.961 . S
C2091 H2107 0.961 . S
C2092 C2093 1.370 . S
C2092 C2094 1.363 . S
C2092 H2108 0.931 . S
C2093 C2092 1.370 . S
C2093 C2097 1.408 . S
C2094 C2092 1.363 . S
C2094 C2095 1.370 . S
C2094 C2098 1.524 . S
C2095 C2087 1.503 . S
C2095 C2094 1.370 . S
C2095 C2096 1.403 . S
C2096 C2095 1.403 . S
C2096 C2097 1.404 . S
C2096 C2099 1.539 . S
C2097 C2093 1.408 . S
C2097 C2096 1.404 . S
C2097 H2109 0.930 . S
C2098 C2094 1.524 . S
C2098 H2110 0.956 . S
C2098 H2111 0.961 . S
C2098 H2112 0.961 . S
C2099 C2096 1.539 . S
C2099 H2113 0.958 . S
C2099 H2114 0.961 . S
C2099 H2115 0.960 . S
H2100 C2084 0.931 . S
H2101 C2089 0.929 . S
H2102 C2090 0.960 . S
H2103 C2090 0.962 . S
H2104 C2090 0.960 . S
H2105 C2091 0.961 . S
H2106 C2091 0.961 . S
H2107 C2091 0.961 . S
H2108 C2092 0.931 . S
H2109 C2097 0.930 . S
H2110 C2098 0.956 . S
H2111 C2098 0.961 . S
H2112 C2098 0.961 . S
H2113 C2099 0.958 . S
H2114 C2099 0.961 . S
H2115 C2099 0.960 . S
C2116 C2117 1.391 . S
C2116 C2118 1.394 . S
C2116 H2132 0.931 . S
C2117 C2116 1.391 . S
C2117 C2121 1.376 . S
C2118 C2116 1.394 . S
C2118 C2119 1.369 . S
C2118 C2122 1.531 . S
C2119 C2118 1.369 . S
C2119 C2120 1.410 . S
C2119 C2127 1.503 . S
C2120 C2119 1.410 . S
C2120 C2121 1.392 . S
C2120 C2123 1.511 . S
C2121 C2117 1.376 . S
C2121 C2120 1.392 . S
C2121 H2133 0.929 . S
C2122 C2118 1.531 . S
C2122 H2134 0.960 . S
C2122 H2135 0.962 . S
C2122 H2136 0.960 . S
C2123 C2120 1.511 . S
C2123 H2137 0.961 . S
C2123 H2138 0.961 . S
C2123 H2139 0.961 . S
C2124 C2125 1.370 . S
C2124 C2126 1.363 . S
C2124 H2140 0.931 . S
C2125 C2124 1.370 . S
C2125 C2129 1.408 . S
C2126 C2124 1.363 . S
C2126 C2127 1.370 . S
C2126 C2130 1.524 . S
C2127 C2119 1.503 . S
C2127 C2126 1.370 . S
C2127 C2128 1.403 . S
C2128 C2127 1.403 . S
C2128 C2129 1.404 . S
C2128 C2131 1.539 . S
C2129 C2125 1.408 . S
C2129 C2128 1.404 . S
C2129 H2141 0.930 . S
C2130 C2126 1.524 . S
C2130 H2142 0.956 . S
C2130 H2143 0.961 . S
C2130 H2144 0.961 . S
C2131 C2128 1.539 . S
C2131 H2145 0.958 . S
C2131 H2146 0.961 . S
C2131 H2147 0.960 . S
H2132 C2116 0.931 . S
H2133 C2121 0.929 . S
H2134 C2122 0.960 . S
H2135 C2122 0.962 . S
H2136 C2122 0.960 . S
H2137 C2123 0.961 . S
H2138 C2123 0.961 . S
H2139 C2123 0.961 . S
H2140 C2124 0.931 . S
H2141 C2129 0.930 . S
H2142 C2130 0.956 . S
H2143 C2130 0.961 . S
H2144 C2130 0.961 . S
H2145 C2131 0.958 . S
H2146 C2131 0.961 . S
H2147 C2131 0.960 . S
C2148 C2149 1.391 . S
C2148 C2150 1.394 . S
C2148 H2164 0.931 . S
C2149 C2148 1.391 . S
C2149 C2153 1.376 . S
C2150 C2148 1.394 . S
C2150 C2151 1.369 . S
C2150 C2154 1.531 . S
C2151 C2150 1.369 . S
C2151 C2152 1.410 . S
C2151 C2159 1.503 . S
C2152 C2151 1.410 . S
C2152 C2153 1.392 . S
C2152 C2155 1.511 . S
C2153 C2149 1.376 . S
C2153 C2152 1.392 . S
C2153 H2165 0.929 . S
C2154 C2150 1.531 . S
C2154 H2166 0.960 . S
C2154 H2167 0.962 . S
C2154 H2168 0.960 . S
C2155 C2152 1.511 . S
C2155 H2169 0.961 . S
C2155 H2170 0.961 . S
C2155 H2171 0.961 . S
C2156 C2157 1.370 . S
C2156 C2158 1.363 . S
C2156 H2172 0.931 . S
C2157 C2156 1.370 . S
C2157 C2161 1.408 . S
C2158 C2156 1.363 . S
C2158 C2159 1.370 . S
C2158 C2162 1.524 . S
C2159 C2151 1.503 . S
C2159 C2158 1.370 . S
C2159 C2160 1.403 . S
C2160 C2159 1.403 . S
C2160 C2161 1.404 . S
C2160 C2163 1.539 . S
C2161 C2157 1.408 . S
C2161 C2160 1.404 . S
C2161 H2173 0.930 . S
C2162 C2158 1.524 . S
C2162 H2174 0.956 . S
C2162 H2175 0.961 . S
C2162 H2176 0.961 . S
C2163 C2160 1.539 . S
C2163 H2177 0.958 . S
C2163 H2178 0.961 . S
C2163 H2179 0.960 . S
H2164 C2148 0.931 . S
H2165 C2153 0.929 . S
H2166 C2154 0.960 . S
H2167 C2154 0.962 . S
H2168 C2154 0.960 . S
H2169 C2155 0.961 . S
H2170 C2155 0.961 . S
H2171 C2155 0.961 . S
H2172 C2156 0.931 . S
H2173 C2161 0.930 . S
H2174 C2162 0.956 . S
H2175 C2162 0.961 . S
H2176 C2162 0.961 . S
H2177 C2163 0.958 . S
H2178 C2163 0.961 . S
H2179 C2163 0.960 . S
C2180 C2181 1.391 . S
C2180 C2182 1.394 . S
C2180 H2196 0.931 . S
C2181 C2180 1.391 . S
C2181 C2185 1.376 . S
C2182 C2180 1.394 . S
C2182 C2183 1.369 . S
C2182 C2186 1.531 . S
C2183 C2182 1.369 . S
C2183 C2184 1.410 . S
C2183 C2191 1.503 . S
C2184 C2183 1.410 . S
C2184 C2185 1.392 . S
C2184 C2187 1.511 . S
C2185 C2181 1.376 . S
C2185 C2184 1.392 . S
C2185 H2197 0.929 . S
C2186 C2182 1.531 . S
C2186 H2198 0.960 . S
C2186 H2199 0.962 . S
C2186 H2200 0.960 . S
C2187 C2184 1.511 . S
C2187 H2201 0.961 . S
C2187 H2202 0.961 . S
C2187 H2203 0.961 . S
C2188 C2189 1.370 . S
C2188 C2190 1.363 . S
C2188 H2204 0.931 . S
C2189 C2188 1.370 . S
C2189 C2193 1.408 . S
C2190 C2188 1.363 . S
C2190 C2191 1.370 . S
C2190 C2194 1.524 . S
C2191 C2183 1.503 . S
C2191 C2190 1.370 . S
C2191 C2192 1.403 . S
C2192 C2191 1.403 . S
C2192 C2193 1.404 . S
C2192 C2195 1.539 . S
C2193 C2189 1.408 . S
C2193 C2192 1.404 . S
C2193 H2205 0.930 . S
C2194 C2190 1.524 . S
C2194 H2206 0.956 . S
C2194 H2207 0.961 . S
C2194 H2208 0.961 . S
C2195 C2192 1.539 . S
C2195 H2209 0.958 . S
C2195 H2210 0.961 . S
C2195 H2211 0.960 . S
H2196 C2180 0.931 . S
H2197 C2185 0.929 . S
H2198 C2186 0.960 . S
H2199 C2186 0.962 . S
H2200 C2186 0.960 . S
H2201 C2187 0.961 . S
H2202 C2187 0.961 . S
H2203 C2187 0.961 . S
H2204 C2188 0.931 . S
H2205 C2193 0.930 . S
H2206 C2194 0.956 . S
H2207 C2194 0.961 . S
H2208 C2194 0.961 . S
H2209 C2195 0.958 . S
H2210 C2195 0.961 . S
H2211 C2195 0.960 . S
C2212 C2213 1.391 . S
C2212 C2214 1.394 . S
C2212 H2228 0.931 . S
C2213 C2212 1.391 . S
C2213 C2217 1.376 . S
C2214 C2212 1.394 . S
C2214 C2215 1.369 . S
C2214 C2218 1.531 . S
C2215 C2214 1.369 . S
C2215 C2216 1.410 . S
C2215 C2223 1.503 . S
C2216 C2215 1.410 . S
C2216 C2217 1.392 . S
C2216 C2219 1.511 . S
C2217 C2213 1.376 . S
C2217 C2216 1.392 . S
C2217 H2229 0.929 . S
C2218 C2214 1.531 . S
C2218 H2230 0.960 . S
C2218 H2231 0.962 . S
C2218 H2232 0.960 . S
C2219 C2216 1.511 . S
C2219 H2233 0.961 . S
C2219 H2234 0.961 . S
C2219 H2235 0.961 . S
C2220 C2221 1.370 . S
C2220 C2222 1.363 . S
C2220 H2236 0.931 . S
C2221 C2220 1.370 . S
C2221 C2225 1.408 . S
C2222 C2220 1.363 . S
C2222 C2223 1.370 . S
C2222 C2226 1.524 . S
C2223 C2215 1.503 . S
C2223 C2222 1.370 . S
C2223 C2224 1.403 . S
C2224 C2223 1.403 . S
C2224 C2225 1.404 . S
C2224 C2227 1.539 . S
C2225 C2221 1.408 . S
C2225 C2224 1.404 . S
C2225 H2237 0.930 . S
C2226 C2222 1.524 . S
C2226 H2238 0.956 . S
C2226 H2239 0.961 . S
C2226 H2240 0.961 . S
C2227 C2224 1.539 . S
C2227 H2241 0.958 . S
C2227 H2242 0.961 . S
C2227 H2243 0.960 . S
H2228 C2212 0.931 . S
H2229 C2217 0.929 . S
H2230 C2218 0.960 . S
H2231 C2218 0.962 . S
H2232 C2218 0.960 . S
H2233 C2219 0.961 . S
H2234 C2219 0.961 . S
H2235 C2219 0.961 . S
H2236 C2220 0.931 . S
H2237 C2225 0.930 . S
H2238 C2226 0.956 . S
H2239 C2226 0.961 . S
H2240 C2226 0.961 . S
H2241 C2227 0.958 . S
H2242 C2227 0.961 . S
H2243 C2227 0.960 . S
C2244 C2245 1.391 . S
C2244 C2246 1.394 . S
C2244 H2260 0.931 . S
C2245 C2244 1.391 . S
C2245 C2249 1.376 . S
C2246 C2244 1.394 . S
C2246 C2247 1.369 . S
C2246 C2250 1.531 . S
C2247 C2246 1.369 . S
C2247 C2248 1.410 . S
C2247 C2255 1.503 . S
C2248 C2247 1.410 . S
C2248 C2249 1.392 . S
C2248 C2251 1.511 . S
C2249 C2245 1.376 . S
C2249 C2248 1.392 . S
C2249 H2261 0.929 . S
C2250 C2246 1.531 . S
C2250 H2262 0.960 . S
C2250 H2263 0.962 . S
C2250 H2264 0.960 . S
C2251 C2248 1.511 . S
C2251 H2265 0.961 . S
C2251 H2266 0.961 . S
C2251 H2267 0.961 . S
C2252 C2253 1.370 . S
C2252 C2254 1.363 . S
C2252 H2268 0.931 . S
C2253 C2252 1.370 . S
C2253 C2257 1.408 . S
C2254 C2252 1.363 . S
C2254 C2255 1.370 . S
C2254 C2258 1.524 . S
C2255 C2247 1.503 . S
C2255 C2254 1.370 . S
C2255 C2256 1.403 . S
C2256 C2255 1.403 . S
C2256 C2257 1.404 . S
C2256 C2259 1.539 . S
C2257 C2253 1.408 . S
C2257 C2256 1.404 . S
C2257 H2269 0.930 . S
C2258 C2254 1.524 . S
C2258 H2270 0.956 . S
C2258 H2271 0.961 . S
C2258 H2272 0.961 . S
C2259 C2256 1.539 . S
C2259 H2273 0.958 . S
C2259 H2274 0.961 . S
C2259 H2275 0.960 . S
H2260 C2244 0.931 . S
H2261 C2249 0.929 . S
H2262 C2250 0.960 . S
H2263 C2250 0.962 . S
H2264 C2250 0.960 . S
H2265 C2251 0.961 . S
H2266 C2251 0.961 . S
H2267 C2251 0.961 . S
H2268 C2252 0.931 . S
H2269 C2257 0.930 . S
H2270 C2258 0.956 . S
H2271 C2258 0.961 . S
H2272 C2258 0.961 . S
H2273 C2259 0.958 . S
H2274 C2259 0.961 . S
H2275 C2259 0.960 . S
C2276 C2277 1.391 . S
C2276 C2278 1.394 . S
C2276 H2292 0.931 . S
C2277 C2276 1.391 . S
C2277 C2281 1.376 . S
C2278 C2276 1.394 . S
C2278 C2279 1.369 . S
C2278 C2282 1.531 . S
C2279 C2278 1.369 . S
C2279 C2280 1.410 . S
C2279 C2287 1.503 . S
C2280 C2279 1.410 . S
C2280 C2281 1.392 . S
C2280 C2283 1.511 . S
C2281 C2277 1.376 . S
C2281 C2280 1.392 . S
C2281 H2293 0.929 . S
C2282 C2278 1.531 . S
C2282 H2294 0.960 . S
C2282 H2295 0.962 . S
C2282 H2296 0.960 . S
C2283 C2280 1.511 . S
C2283 H2297 0.961 . S
C2283 H2298 0.961 . S
C2283 H2299 0.961 . S
C2284 C2285 1.370 . S
C2284 C2286 1.363 . S
C2284 H2300 0.931 . S
C2285 C2284 1.370 . S
C2285 C2289 1.408 . S
C2286 C2284 1.363 . S
C2286 C2287 1.370 . S
C2286 C2290 1.524 . S
C2287 C2279 1.503 . S
C2287 C2286 1.370 . S
C2287 C2288 1.403 . S
C2288 C2287 1.403 . S
C2288 C2289 1.404 . S
C2288 C2291 1.539 . S
C2289 C2285 1.408 . S
C2289 C2288 1.404 . S
C2289 H2301 0.930 . S
C2290 C2286 1.524 . S
C2290 H2302 0.956 . S
C2290 H2303 0.961 . S
C2290 H2304 0.961 . S
C2291 C2288 1.539 . S
C2291 H2305 0.958 . S
C2291 H2306 0.961 . S
C2291 H2307 0.960 . S
H2292 C2276 0.931 . S
H2293 C2281 0.929 . S
H2294 C2282 0.960 . S
H2295 C2282 0.962 . S
H2296 C2282 0.960 . S
H2297 C2283 0.961 . S
H2298 C2283 0.961 . S
H2299 C2283 0.961 . S
H2300 C2284 0.931 . S
H2301 C2289 0.930 . S
H2302 C2290 0.956 . S
H2303 C2290 0.961 . S
H2304 C2290 0.961 . S
H2305 C2291 0.958 . S
H2306 C2291 0.961 . S
H2307 C2291 0.960 . S
C2308 C2309 1.391 . S
C2308 C2310 1.394 . S
C2308 H2324 0.931 . S
C2309 C2308 1.391 . S
C2309 C2313 1.376 . S
C2310 C2308 1.394 . S
C2310 C2311 1.369 . S
C2310 C2314 1.531 . S
C2311 C2310 1.369 . S
C2311 C2312 1.410 . S
C2311 C2319 1.503 . S
C2312 C2311 1.410 . S
C2312 C2313 1.392 . S
C2312 C2315 1.511 . S
C2313 C2309 1.376 . S
C2313 C2312 1.392 . S
C2313 H2325 0.929 . S
C2314 C2310 1.531 . S
C2314 H2326 0.960 . S
C2314 H2327 0.962 . S
C2314 H2328 0.960 . S
C2315 C2312 1.511 . S
C2315 H2329 0.961 . S
C2315 H2330 0.961 . S
C2315 H2331 0.961 . S
C2316 C2317 1.370 . S
C2316 C2318 1.363 . S
C2316 H2332 0.931 . S
C2317 C2316 1.370 . S
C2317 C2321 1.408 . S
C2318 C2316 1.363 . S
C2318 C2319 1.370 . S
C2318 C2322 1.524 . S
C2319 C2311 1.503 . S
C2319 C2318 1.370 . S
C2319 C2320 1.403 . S
C2320 C2319 1.403 . S
C2320 C2321 1.404 . S
C2320 C2323 1.539 . S
C2321 C2317 1.408 . S
C2321 C2320 1.404 . S
C2321 H2333 0.930 . S
C2322 C2318 1.524 . S
C2322 H2334 0.956 . S
C2322 H2335 0.961 . S
C2322 H2336 0.961 . S
C2323 C2320 1.539 . S
C2323 H2337 0.958 . S
C2323 H2338 0.961 . S
C2323 H2339 0.960 . S
H2324 C2308 0.931 . S
H2325 C2313 0.929 . S
H2326 C2314 0.960 . S
H2327 C2314 0.962 . S
H2328 C2314 0.960 . S
H2329 C2315 0.961 . S
H2330 C2315 0.961 . S
H2331 C2315 0.961 . S
H2332 C2316 0.931 . S
H2333 C2321 0.930 . S
H2334 C2322 0.956 . S
H2335 C2322 0.961 . S
H2336 C2322 0.961 . S
H2337 C2323 0.958 . S
H2338 C2323 0.961 . S
H2339 C2323 0.960 . S
C2340 C2341 1.391 . S
C2340 C2342 1.394 . S
C2340 H2356 0.931 . S
C2341 C2340 1.391 . S
C2341 C2345 1.376 . S
C2342 C2340 1.394 . S
C2342 C2343 1.369 . S
C2342 C2346 1.531 . S
C2343 C2342 1.369 . S
C2343 C2344 1.410 . S
C2343 C2351 1.503 . S
C2344 C2343 1.410 . S
C2344 C2345 1.392 . S
C2344 C2347 1.511 . S
C2345 C2341 1.376 . S
C2345 C2344 1.392 . S
C2345 H2357 0.929 . S
C2346 C2342 1.531 . S
C2346 H2358 0.960 . S
C2346 H2359 0.962 . S
C2346 H2360 0.960 . S
C2347 C2344 1.511 . S
C2347 H2361 0.961 . S
C2347 H2362 0.961 . S
C2347 H2363 0.961 . S
C2348 C2349 1.370 . S
C2348 C2350 1.363 . S
C2348 H2364 0.931 . S
C2349 C2348 1.370 . S
C2349 C2353 1.408 . S
C2350 C2348 1.363 . S
C2350 C2351 1.370 . S
C2350 C2354 1.524 . S
C2351 C2343 1.503 . S
C2351 C2350 1.370 . S
C2351 C2352 1.403 . S
C2352 C2351 1.403 . S
C2352 C2353 1.404 . S
C2352 C2355 1.539 . S
C2353 C2349 1.408 . S
C2353 C2352 1.404 . S
C2353 H2365 0.930 . S
C2354 C2350 1.524 . S
C2354 H2366 0.956 . S
C2354 H2367 0.961 . S
C2354 H2368 0.961 . S
C2355 C2352 1.539 . S
C2355 H2369 0.958 . S
C2355 H2370 0.961 . S
C2355 H2371 0.960 . S
H2356 C2340 0.931 . S
H2357 C2345 0.929 . S
H2358 C2346 0.960 . S
H2359 C2346 0.962 . S
H2360 C2346 0.960 . S
H2361 C2347 0.961 . S
H2362 C2347 0.961 . S
H2363 C2347 0.961 . S
H2364 C2348 0.931 . S
H2365 C2353 0.930 . S
H2366 C2354 0.956 . S
H2367 C2354 0.961 . S
H2368 C2354 0.961 . S
H2369 C2355 0.958 . S
H2370 C2355 0.961 . S
H2371 C2355 0.960 . S
C2372 C2373 1.391 . S
C2372 C2374 1.394 . S
C2372 H2388 0.931 . S
C2373 C2372 1.391 . S
C2373 C2377 1.376 . S
C2374 C2372 1.394 . S
C2374 C2375 1.369 . S
C2374 C2378 1.531 . S
C2375 C2374 1.369 . S
C2375 C2376 1.410 . S
C2375 C2383 1.503 . S
C2376 C2375 1.410 . S
C2376 C2377 1.392 . S
C2376 C2379 1.511 . S
C2377 C2373 1.376 . S
C2377 C2376 1.392 . S
C2377 H2389 0.929 . S
C2378 C2374 1.531 . S
C2378 H2390 0.960 . S
C2378 H2391 0.962 . S
C2378 H2392 0.960 . S
C2379 C2376 1.511 . S
C2379 H2393 0.961 . S
C2379 H2394 0.961 . S
C2379 H2395 0.961 . S
C2380 C2381 1.370 . S
C2380 C2382 1.363 . S
C2380 H2396 0.931 . S
C2381 C2380 1.370 . S
C2381 C2385 1.408 . S
C2382 C2380 1.363 . S
C2382 C2383 1.370 . S
C2382 C2386 1.524 . S
C2383 C2375 1.503 . S
C2383 C2382 1.370 . S
C2383 C2384 1.403 . S
C2384 C2383 1.403 . S
C2384 C2385 1.404 . S
C2384 C2387 1.539 . S
C2385 C2381 1.408 . S
C2385 C2384 1.404 . S
C2385 H2397 0.930 . S
C2386 C2382 1.524 . S
C2386 H2398 0.956 . S
C2386 H2399 0.961 . S
C2386 H2400 0.961 . S
C2387 C2384 1.539 . S
C2387 H2401 0.958 . S
C2387 H2402 0.961 . S
C2387 H2403 0.960 . S
H2388 C2372 0.931 . S
H2389 C2377 0.929 . S
H2390 C2378 0.960 . S
H2391 C2378 0.962 . S
H2392 C2378 0.960 . S
H2393 C2379 0.961 . S
H2394 C2379 0.961 . S
H2395 C2379 0.961 . S
H2396 C2380 0.931 . S
H2397 C2385 0.930 . S
H2398 C2386 0.956 . S
H2399 C2386 0.961 . S
H2400 C2386 0.961 . S
H2401 C2387 0.958 . S
H2402 C2387 0.961 . S
H2403 C2387 0.960 . S
C2404 C2405 1.391 . S
C2404 C2406 1.394 . S
C2404 H2420 0.931 . S
C2405 C2404 1.391 . S
C2405 C2409 1.376 . S
C2406 C2404 1.394 . S
C2406 C2407 1.369 . S
C2406 C2410 1.531 . S
C2407 C2406 1.369 . S
C2407 C2408 1.410 . S
C2407 C2415 1.503 . S
C2408 C2407 1.410 . S
C2408 C2409 1.392 . S
C2408 C2411 1.511 . S
C2409 C2405 1.376 . S
C2409 C2408 1.392 . S
C2409 H2421 0.929 . S
C2410 C2406 1.531 . S
C2410 H2422 0.960 . S
C2410 H2423 0.962 . S
C2410 H2424 0.960 . S
C2411 C2408 1.511 . S
C2411 H2425 0.961 . S
C2411 H2426 0.961 . S
C2411 H2427 0.961 . S
C2412 C2413 1.370 . S
C2412 C2414 1.363 . S
C2412 H2428 0.931 . S
C2413 C2412 1.370 . S
C2413 C2417 1.408 . S
C2414 C2412 1.363 . S
C2414 C2415 1.370 . S
C2414 C2418 1.524 . S
C2415 C2407 1.503 . S
C2415 C2414 1.370 . S
C2415 C2416 1.403 . S
C2416 C2415 1.403 . S
C2416 C2417 1.404 . S
C2416 C2419 1.539 . S
C2417 C2413 1.408 . S
C2417 C2416 1.404 . S
C2417 H2429 0.930 . S
C2418 C2414 1.524 . S
C2418 H2430 0.956 . S
C2418 H2431 0.961 . S
C2418 H2432 0.961 . S
C2419 C2416 1.539 . S
C2419 H2433 0.958 . S
C2419 H2434 0.961 . S
C2419 H2435 0.960 . S
H2420 C2404 0.931 . S
H2421 C2409 0.929 . S
H2422 C2410 0.960 . S
H2423 C2410 0.962 . S
H2424 C2410 0.960 . S
H2425 C2411 0.961 . S
H2426 C2411 0.961 . S
H2427 C2411 0.961 . S
H2428 C2412 0.931 . S
H2429 C2417 0.930 . S
H2430 C2418 0.956 . S
H2431 C2418 0.961 . S
H2432 C2418 0.961 . S
H2433 C2419 0.958 . S
H2434 C2419 0.961 . S
H2435 C2419 0.960 . S
C2436 C2437 1.391 . S
C2436 C2438 1.394 . S
C2436 H2452 0.931 . S
C2437 C2436 1.391 . S
C2437 C2441 1.376 . S
C2438 C2436 1.394 . S
C2438 C2439 1.369 . S
C2438 C2442 1.531 . S
C2439 C2438 1.369 . S
C2439 C2440 1.410 . S
C2439 C2447 1.503 . S
C2440 C2439 1.410 . S
C2440 C2441 1.392 . S
C2440 C2443 1.511 . S
C2441 C2437 1.376 . S
C2441 C2440 1.392 . S
C2441 H2453 0.929 . S
C2442 C2438 1.531 . S
C2442 H2454 0.960 . S
C2442 H2455 0.962 . S
C2442 H2456 0.960 . S
C2443 C2440 1.511 . S
C2443 H2457 0.961 . S
C2443 H2458 0.961 . S
C2443 H2459 0.961 . S
C2444 C2445 1.370 . S
C2444 C2446 1.363 . S
C2444 H2460 0.931 . S
C2445 C2444 1.370 . S
C2445 C2449 1.408 . S
C2446 C2444 1.363 . S
C2446 C2447 1.370 . S
C2446 C2450 1.524 . S
C2447 C2439 1.503 . S
C2447 C2446 1.370 . S
C2447 C2448 1.403 . S
C2448 C2447 1.403 . S
C2448 C2449 1.404 . S
C2448 C2451 1.539 . S
C2449 C2445 1.408 . S
C2449 C2448 1.404 . S
C2449 H2461 0.930 . S
C2450 C2446 1.524 . S
C2450 H2462 0.956 . S
C2450 H2463 0.961 . S
C2450 H2464 0.961 . S
C2451 C2448 1.539 . S
C2451 H2465 0.958 . S
C2451 H2466 0.961 . S
C2451 H2467 0.960 . S
H2452 C2436 0.931 . S
H2453 C2441 0.929 . S
H2454 C2442 0.960 . S
H2455 C2442 0.962 . S
H2456 C2442 0.960 . S
H2457 C2443 0.961 . S
H2458 C2443 0.961 . S
H2459 C2443 0.961 . S
H2460 C2444 0.931 . S
H2461 C2449 0.930 . S
H2462 C2450 0.956 . S
H2463 C2450 0.961 . S
H2464 C2450 0.961 . S
H2465 C2451 0.958 . S
H2466 C2451 0.961 . S
H2467 C2451 0.960 . S
C2468 C2469 1.391 . S
C2468 C2470 1.394 . S
C2468 H2484 0.931 . S
C2469 C2468 1.391 . S
C2469 C2473 1.376 . S
C2470 C2468 1.394 . S
C2470 C2471 1.369 . S
C2470 C2474 1.531 . S
C2471 C2470 1.369 . S
C2471 C2472 1.410 . S
C2471 C2479 1.503 . S
C2472 C2471 1.410 . S
C2472 C2473 1.392 . S
C2472 C2475 1.511 . S
C2473 C2469 1.376 . S
C2473 C2472 1.392 . S
C2473 H2485 0.929 . S
C2474 C2470 1.531 . S
C2474 H2486 0.960 . S
C2474 H2487 0.962 . S
C2474 H2488 0.960 . S
C2475 C2472 1.511 . S
C2475 H2489 0.961 . S
C2475 H2490 0.961 . S
C2475 H2491 0.961 . S
C2476 C2477 1.370 . S
C2476 C2478 1.363 . S
C2476 H2492 0.931 . S
C2477 C2476 1.370 . S
C2477 C2481 1.408 . S
C2478 C2476 1.363 . S
C2478 C2479 1.370 . S
C2478 C2482 1.524 . S
C2479 C2471 1.503 . S
C2479 C2478 1.370 . S
C2479 C2480 1.403 . S
C2480 C2479 1.403 . S
C2480 C2481 1.404 . S
C2480 C2483 1.539 . S
C2481 C2477 1.408 . S
C2481 C2480 1.404 . S
C2481 H2493 0.930 . S
C2482 C2478 1.524 . S
C2482 H2494 0.956 . S
C2482 H2495 0.961 . S
C2482 H2496 0.961 . S
C2483 C2480 1.539 . S
C2483 H2497 0.958 . S
C2483 H2498 0.961 . S
C2483 H2499 0.960 . S
H2484 C2468 0.931 . S
H2485 C2473 0.929 . S
H2486 C2474 0.960 . S
H2487 C2474 0.962 . S
H2488 C2474 0.960 . S
H2489 C2475 0.961 . S
H2490 C2475 0.961 . S
H2491 C2475 0.961 . S
H2492 C2476 0.931 . S
H2493 C2481 0.930 . S
H2494 C2482 0.956 . S
H2495 C2482 0.961 . S
H2496 C2482 0.961 . S
H2497 C2483 0.958 . S
H2498 C2483 0.961 . S
H2499 C2483 0.960 . S
C2500 C2501 1.391 . S
C2500 C2502 1.394 . S
C2500 H2516 0.931 . S
C2501 C2500 1.391 . S
C2501 C2505 1.376 . S
C2502 C2500 1.394 . S
C2502 C2503 1.369 . S
C2502 C2506 1.531 . S
C2503 C2502 1.369 . S
C2503 C2504 1.410 . S
C2503 C2511 1.503 . S
C2504 C2503 1.410 . S
C2504 C2505 1.392 . S
C2504 C2507 1.511 . S
C2505 C2501 1.376 . S
C2505 C2504 1.392 . S
C2505 H2517 0.929 . S
C2506 C2502 1.531 . S
C2506 H2518 0.960 . S
C2506 H2519 0.962 . S
C2506 H2520 0.960 . S
C2507 C2504 1.511 . S
C2507 H2521 0.961 . S
C2507 H2522 0.961 . S
C2507 H2523 0.961 . S
C2508 C2509 1.370 . S
C2508 C2510 1.363 . S
C2508 H2524 0.931 . S
C2509 C2508 1.370 . S
C2509 C2513 1.408 . S
C2510 C2508 1.363 . S
C2510 C2511 1.370 . S
C2510 C2514 1.524 . S
C2511 C2503 1.503 . S
C2511 C2510 1.370 . S
C2511 C2512 1.403 . S
C2512 C2511 1.403 . S
C2512 C2513 1.404 . S
C2512 C2515 1.539 . S
C2513 C2509 1.408 . S
C2513 C2512 1.404 . S
C2513 H2525 0.930 . S
C2514 C2510 1.524 . S
C2514 H2526 0.956 . S
C2514 H2527 0.961 . S
C2514 H2528 0.961 . S
C2515 C2512 1.539 . S
C2515 H2529 0.958 . S
C2515 H2530 0.961 . S
C2515 H2531 0.960 . S
H2516 C2500 0.931 . S
H2517 C2505 0.929 . S
H2518 C2506 0.960 . S
H2519 C2506 0.962 . S
H2520 C2506 0.960 . S
H2521 C2507 0.961 . S
H2522 C2507 0.961 . S
H2523 C2507 0.961 . S
H2524 C2508 0.931 . S
H2525 C2513 0.930 . S
H2526 C2514 0.956 . S
H2527 C2514 0.961 . S
H2528 C2514 0.961 . S
H2529 C2515 0.958 . S
H2530 C2515 0.961 . S
H2531 C2515 0.960 . S
C1005 C707 1.411 . S
C997 C74 1.394 . S
C1037 C685 1.546 . S
C1029 C153 1.512 . S
C1069 C682 0.923 . S
C1061 C231 0.872 . S
C1093 C310 0.590 . S
C1101 C694 0.287 . S
C1125 C394 1.489 . S
C1133 C677 1.554 . S
C1165 C699 0.913 . S
C1157 C494 0.891 . S
C1189 C573 0.630 . S
C1197 C704 0.337 . S
C1221 C651 1.404 . S
C1229 C700 1.413 . S
C1261 C758 2.733 . S
C1253 C56 2.790 . S
C1285 C151 1.380 . S
C1293 C808 1.372 . S
C1325 C731 1.564 . S
C1317 C237 1.533 . S
C1357 C807 0.954 . S
C1349 C326 0.978 . S
C1381 C410 0.918 . S
C1389 C736 0.922 . S
C1421 C802 2.735 . S
C1413 C476 2.794 . S
C1445 C571 1.396 . S
C1453 C761 1.391 . S
C1477 C657 1.530 . S
C1485 C793 1.586 . S
C1509 C58 1.503 . S
C1517 C785 1.567 . S
C1541 C392 1.395 . S
C1549 C815 1.379 . S
C1581 C739 1.591 . S
C1573 C478 1.496 . S
C1613 C790 0.964 . S
C1605 C567 0.896 . S
C1637 C655 2.794 . S
C1645 C748 2.737 . S
C1669 C235 2.807 . S
C1677 C812 2.747 . S
C1709 C754 1.396 . S
C1701 C308 1.411 . S
C1733 C147 0.934 . S
C1741 C753 0.940 . S
C1765 C662 1.397 . S
C1773 C869 1.416 . S
C1797 C405 1.531 . S
C1805 C847 1.552 . S
C1837 C844 0.936 . S
C1829 C483 0.922 . S
C1869 C856 0.354 . S
C1861 C562 0.759 . S
C1893 C142 1.467 . S
C1901 C839 1.536 . S
C1933 C861 0.913 . S
C1925 C242 0.906 . S
C1957 C321 0.725 . S
C1965 C866 0.362 . S
C1989 C63 1.385 . S
C1997 C862 1.414 . S
C2021 C644 2.790 . S
C2029 C920 2.728 . S
C2061 C970 1.379 . S
C2053 C403 1.374 . S
C2085 C489 1.518 . S
C2093 C893 1.581 . S
C2117 C578 0.909 . S
C2125 C969 0.940 . S
C2157 C898 0.920 . S
C2149 C158 0.868 . S
C2181 C224 2.791 . S
C2189 C964 2.736 . S
C2221 C923 1.401 . S
C2213 C319 1.385 . S
C2253 C955 1.564 . S
C2245 C69 1.480 . S
C2285 C947 1.580 . S
C2277 C646 1.541 . S
C2309 C140 1.384 . S
C2317 C977 1.390 . S
C2341 C226 1.480 . S
C2349 C901 1.573 . S
C2381 C952 0.956 . S
C2373 C315 0.881 . S
C2405 C67 2.794 . S
C2413 C910 2.737 . S
C2437 C487 2.807 . S
C2445 C974 2.754 . S
C2477 C916 1.397 . S
C2469 C560 1.403 . S
C2509 C915 0.940 . S
C2501 C399 0.935 . S
