# Generated by pormake.
# Topology gar, (4,6)-cn, num edge types: 1
# Building blocks:
#     Node 0, Type 0, BuildingBlock: QUQFOY_clean_sbu_3, # of connection points: 4
#     Node 1, Type 0, BuildingBlock: QUQFOY_clean_sbu_3, # of connection points: 4
#     Node 2, Type 0, BuildingBlock: QUQFOY_clean_sbu_3, # of connection points: 4
#     Node 3, Type 0, BuildingBlock: QUQFOY_clean_sbu_3, # of connection points: 4
#     Node 4, Type 0, BuildingBlock: QUQFOY_clean_sbu_3, # of connection points: 4
#     Node 5, Type 0, BuildingBlock: QUQFOY_clean_sbu_3, # of connection points: 4
#     Node 6, Type 0, BuildingBlock: QUQFOY_clean_sbu_3, # of connection points: 4
#     Node 7, Type 0, BuildingBlock: QUQFOY_clean_sbu_3, # of connection points: 4
#     Node 8, Type 0, BuildingBlock: QUQFOY_clean_sbu_3, # of connection points: 4
#     Node 9, Type 0, BuildingBlock: QUQFOY_clean_sbu_3, # of connection points: 4
#     Node 10, Type 0, BuildingBlock: QUQFOY_clean_sbu_3, # of connection points: 4
#     Node 11, Type 0, BuildingBlock: QUQFOY_clean_sbu_3, # of connection points: 4
#     Node 12, Type 0, BuildingBlock: QUQFOY_clean_sbu_3, # of connection points: 4
#     Node 13, Type 0, BuildingBlock: QUQFOY_clean_sbu_3, # of connection points: 4
#     Node 14, Type 0, BuildingBlock: QUQFOY_clean_sbu_3, # of connection points: 4
#     Node 15, Type 0, BuildingBlock: QUQFOY_clean_sbu_3, # of connection points: 4
#     Node 16, Type 0, BuildingBlock: QUQFOY_clean_sbu_3, # of connection points: 4
#     Node 17, Type 0, BuildingBlock: QUQFOY_clean_sbu_3, # of connection points: 4
#     Node 18, Type 0, BuildingBlock: QUQFOY_clean_sbu_3, # of connection points: 4
#     Node 19, Type 0, BuildingBlock: QUQFOY_clean_sbu_3, # of connection points: 4
#     Node 20, Type 0, BuildingBlock: QUQFOY_clean_sbu_3, # of connection points: 4
#     Node 21, Type 0, BuildingBlock: QUQFOY_clean_sbu_3, # of connection points: 4
#     Node 22, Type 0, BuildingBlock: QUQFOY_clean_sbu_3, # of connection points: 4
#     Node 23, Type 0, BuildingBlock: QUQFOY_clean_sbu_3, # of connection points: 4
#     Node 24, Type 1, BuildingBlock: BETGAK_clean_sbu_0, # of connection points: 6
#     Node 25, Type 1, BuildingBlock: BETGAK_clean_sbu_0, # of connection points: 6
#     Node 26, Type 1, BuildingBlock: BETGAK_clean_sbu_0, # of connection points: 6
#     Node 27, Type 1, BuildingBlock: BETGAK_clean_sbu_0, # of connection points: 6
#     Node 28, Type 1, BuildingBlock: BETGAK_clean_sbu_0, # of connection points: 6
#     Node 29, Type 1, BuildingBlock: BETGAK_clean_sbu_0, # of connection points: 6
#     Node 30, Type 1, BuildingBlock: BETGAK_clean_sbu_0, # of connection points: 6
#     Node 31, Type 1, BuildingBlock: BETGAK_clean_sbu_0, # of connection points: 6
#     Node 32, Type 1, BuildingBlock: BETGAK_clean_sbu_0, # of connection points: 6
#     Node 33, Type 1, BuildingBlock: BETGAK_clean_sbu_0, # of connection points: 6
#     Node 34, Type 1, BuildingBlock: BETGAK_clean_sbu_0, # of connection points: 6
#     Node 35, Type 1, BuildingBlock: BETGAK_clean_sbu_0, # of connection points: 6
#     Node 36, Type 1, BuildingBlock: BETGAK_clean_sbu_0, # of connection points: 6
#     Node 37, Type 1, BuildingBlock: BETGAK_clean_sbu_0, # of connection points: 6
#     Node 38, Type 1, BuildingBlock: BETGAK_clean_sbu_0, # of connection points: 6
#     Node 39, Type 1, BuildingBlock: BETGAK_clean_sbu_0, # of connection points: 6
#     Edge 40, Type (0, 1), BuildingBlock: XIVTED_clean_linker_0, # of connection points: 2
#     Edge 41, Type (0, 1), BuildingBlock: XIVTED_clean_linker_0, # of connection points: 2
#     Edge 42, Type (0, 1), BuildingBlock: XIVTED_clean_linker_0, # of connection points: 2
#     Edge 43, Type (0, 1), BuildingBlock: XIVTED_clean_linker_0, # of connection points: 2
#     Edge 44, Type (0, 1), BuildingBlock: XIVTED_clean_linker_0, # of connection points: 2
#     Edge 45, Type (0, 1), BuildingBlock: XIVTED_clean_linker_0, # of connection points: 2
#     Edge 46, Type (0, 1), BuildingBlock: XIVTED_clean_linker_0, # of connection points: 2
#     Edge 47, Type (0, 1), BuildingBlock: XIVTED_clean_linker_0, # of connection points: 2
#     Edge 48, Type (0, 1), BuildingBlock: XIVTED_clean_linker_0, # of connection points: 2
#     Edge 49, Type (0, 1), BuildingBlock: XIVTED_clean_linker_0, # of connection points: 2
#     Edge 50, Type (0, 1), BuildingBlock: XIVTED_clean_linker_0, # of connection points: 2
#     Edge 51, Type (0, 1), BuildingBlock: XIVTED_clean_linker_0, # of connection points: 2
#     Edge 52, Type (0, 1), BuildingBlock: XIVTED_clean_linker_0, # of connection points: 2
#     Edge 53, Type (0, 1), BuildingBlock: XIVTED_clean_linker_0, # of connection points: 2
#     Edge 54, Type (0, 1), BuildingBlock: XIVTED_clean_linker_0, # of connection points: 2
#     Edge 55, Type (0, 1), BuildingBlock: XIVTED_clean_linker_0, # of connection points: 2
#     Edge 56, Type (0, 1), BuildingBlock: XIVTED_clean_linker_0, # of connection points: 2
#     Edge 57, Type (0, 1), BuildingBlock: XIVTED_clean_linker_0, # of connection points: 2
#     Edge 58, Type (0, 1), BuildingBlock: XIVTED_clean_linker_0, # of connection points: 2
#     Edge 59, Type (0, 1), BuildingBlock: XIVTED_clean_linker_0, # of connection points: 2
#     Edge 60, Type (0, 1), BuildingBlock: XIVTED_clean_linker_0, # of connection points: 2
#     Edge 61, Type (0, 1), BuildingBlock: XIVTED_clean_linker_0, # of connection points: 2
#     Edge 62, Type (0, 1), BuildingBlock: XIVTED_clean_linker_0, # of connection points: 2
#     Edge 63, Type (0, 1), BuildingBlock: XIVTED_clean_linker_0, # of connection points: 2
#     Edge 64, Type (0, 1), BuildingBlock: XIVTED_clean_linker_0, # of connection points: 2
#     Edge 65, Type (0, 1), BuildingBlock: XIVTED_clean_linker_0, # of connection points: 2
#     Edge 66, Type (0, 1), BuildingBlock: XIVTED_clean_linker_0, # of connection points: 2
#     Edge 67, Type (0, 1), BuildingBlock: XIVTED_clean_linker_0, # of connection points: 2
#     Edge 68, Type (0, 1), BuildingBlock: XIVTED_clean_linker_0, # of connection points: 2
#     Edge 69, Type (0, 1), BuildingBlock: XIVTED_clean_linker_0, # of connection points: 2
#     Edge 70, Type (0, 1), BuildingBlock: XIVTED_clean_linker_0, # of connection points: 2
#     Edge 71, Type (0, 1), BuildingBlock: XIVTED_clean_linker_0, # of connection points: 2
#     Edge 72, Type (0, 1), BuildingBlock: XIVTED_clean_linker_0, # of connection points: 2
#     Edge 73, Type (0, 1), BuildingBlock: XIVTED_clean_linker_0, # of connection points: 2
#     Edge 74, Type (0, 1), BuildingBlock: XIVTED_clean_linker_0, # of connection points: 2
#     Edge 75, Type (0, 1), BuildingBlock: XIVTED_clean_linker_0, # of connection points: 2
#     Edge 76, Type (0, 1), BuildingBlock: XIVTED_clean_linker_0, # of connection points: 2
#     Edge 77, Type (0, 1), BuildingBlock: XIVTED_clean_linker_0, # of connection points: 2
#     Edge 78, Type (0, 1), BuildingBlock: XIVTED_clean_linker_0, # of connection points: 2
#     Edge 79, Type (0, 1), BuildingBlock: XIVTED_clean_linker_0, # of connection points: 2
#     Edge 80, Type (0, 1), BuildingBlock: XIVTED_clean_linker_0, # of connection points: 2
#     Edge 81, Type (0, 1), BuildingBlock: XIVTED_clean_linker_0, # of connection points: 2
#     Edge 82, Type (0, 1), BuildingBlock: XIVTED_clean_linker_0, # of connection points: 2
#     Edge 83, Type (0, 1), BuildingBlock: XIVTED_clean_linker_0, # of connection points: 2
#     Edge 84, Type (0, 1), BuildingBlock: XIVTED_clean_linker_0, # of connection points: 2
#     Edge 85, Type (0, 1), BuildingBlock: XIVTED_clean_linker_0, # of connection points: 2
#     Edge 86, Type (0, 1), BuildingBlock: XIVTED_clean_linker_0, # of connection points: 2
#     Edge 87, Type (0, 1), BuildingBlock: XIVTED_clean_linker_0, # of connection points: 2
#     Edge 88, Type (0, 1), BuildingBlock: XIVTED_clean_linker_0, # of connection points: 2
#     Edge 89, Type (0, 1), BuildingBlock: XIVTED_clean_linker_0, # of connection points: 2
#     Edge 90, Type (0, 1), BuildingBlock: XIVTED_clean_linker_0, # of connection points: 2
#     Edge 91, Type (0, 1), BuildingBlock: XIVTED_clean_linker_0, # of connection points: 2
#     Edge 92, Type (0, 1), BuildingBlock: XIVTED_clean_linker_0, # of connection points: 2
#     Edge 93, Type (0, 1), BuildingBlock: XIVTED_clean_linker_0, # of connection points: 2
#     Edge 94, Type (0, 1), BuildingBlock: XIVTED_clean_linker_0, # of connection points: 2
#     Edge 95, Type (0, 1), BuildingBlock: XIVTED_clean_linker_0, # of connection points: 2
#     Edge 96, Type (0, 1), BuildingBlock: XIVTED_clean_linker_0, # of connection points: 2
#     Edge 97, Type (0, 1), BuildingBlock: XIVTED_clean_linker_0, # of connection points: 2
#     Edge 98, Type (0, 1), BuildingBlock: XIVTED_clean_linker_0, # of connection points: 2
#     Edge 99, Type (0, 1), BuildingBlock: XIVTED_clean_linker_0, # of connection points: 2
#     Edge 100, Type (0, 1), BuildingBlock: XIVTED_clean_linker_0, # of connection points: 2
#     Edge 101, Type (0, 1), BuildingBlock: XIVTED_clean_linker_0, # of connection points: 2
#     Edge 102, Type (0, 1), BuildingBlock: XIVTED_clean_linker_0, # of connection points: 2
#     Edge 103, Type (0, 1), BuildingBlock: XIVTED_clean_linker_0, # of connection points: 2
#     Edge 104, Type (0, 1), BuildingBlock: XIVTED_clean_linker_0, # of connection points: 2
#     Edge 105, Type (0, 1), BuildingBlock: XIVTED_clean_linker_0, # of connection points: 2
#     Edge 106, Type (0, 1), BuildingBlock: XIVTED_clean_linker_0, # of connection points: 2
#     Edge 107, Type (0, 1), BuildingBlock: XIVTED_clean_linker_0, # of connection points: 2
#     Edge 108, Type (0, 1), BuildingBlock: XIVTED_clean_linker_0, # of connection points: 2
#     Edge 109, Type (0, 1), BuildingBlock: XIVTED_clean_linker_0, # of connection points: 2
#     Edge 110, Type (0, 1), BuildingBlock: XIVTED_clean_linker_0, # of connection points: 2
#     Edge 111, Type (0, 1), BuildingBlock: XIVTED_clean_linker_0, # of connection points: 2
#     Edge 112, Type (0, 1), BuildingBlock: XIVTED_clean_linker_0, # of connection points: 2
#     Edge 113, Type (0, 1), BuildingBlock: XIVTED_clean_linker_0, # of connection points: 2
#     Edge 114, Type (0, 1), BuildingBlock: XIVTED_clean_linker_0, # of connection points: 2
#     Edge 115, Type (0, 1), BuildingBlock: XIVTED_clean_linker_0, # of connection points: 2
#     Edge 116, Type (0, 1), BuildingBlock: XIVTED_clean_linker_0, # of connection points: 2
#     Edge 117, Type (0, 1), BuildingBlock: XIVTED_clean_linker_0, # of connection points: 2
#     Edge 118, Type (0, 1), BuildingBlock: XIVTED_clean_linker_0, # of connection points: 2
#     Edge 119, Type (0, 1), BuildingBlock: XIVTED_clean_linker_0, # of connection points: 2
#     Edge 120, Type (0, 1), BuildingBlock: XIVTED_clean_linker_0, # of connection points: 2
#     Edge 121, Type (0, 1), BuildingBlock: XIVTED_clean_linker_0, # of connection points: 2
#     Edge 122, Type (0, 1), BuildingBlock: XIVTED_clean_linker_0, # of connection points: 2
#     Edge 123, Type (0, 1), BuildingBlock: XIVTED_clean_linker_0, # of connection points: 2
#     Edge 124, Type (0, 1), BuildingBlock: XIVTED_clean_linker_0, # of connection points: 2
#     Edge 125, Type (0, 1), BuildingBlock: XIVTED_clean_linker_0, # of connection points: 2
#     Edge 126, Type (0, 1), BuildingBlock: XIVTED_clean_linker_0, # of connection points: 2
#     Edge 127, Type (0, 1), BuildingBlock: XIVTED_clean_linker_0, # of connection points: 2
#     Edge 128, Type (0, 1), BuildingBlock: XIVTED_clean_linker_0, # of connection points: 2
#     Edge 129, Type (0, 1), BuildingBlock: XIVTED_clean_linker_0, # of connection points: 2
#     Edge 130, Type (0, 1), BuildingBlock: XIVTED_clean_linker_0, # of connection points: 2
#     Edge 131, Type (0, 1), BuildingBlock: XIVTED_clean_linker_0, # of connection points: 2
#     Edge 132, Type (0, 1), BuildingBlock: XIVTED_clean_linker_0, # of connection points: 2
#     Edge 133, Type (0, 1), BuildingBlock: XIVTED_clean_linker_0, # of connection points: 2
#     Edge 134, Type (0, 1), BuildingBlock: XIVTED_clean_linker_0, # of connection points: 2
#     Edge 135, Type (0, 1), BuildingBlock: XIVTED_clean_linker_0, # of connection points: 2
# Relax obj value: 0.194
# Max RMSD: 0.315
# Mean RMSD: 0.155
data_MOF--net-gar--node1-QUQFOY_clean_sbu_3--node2-BETGAK_clean_sbu_0--edge1-XIVTED_clean_linker_0
_symmetry_space_group_name_H-M    P1
_symmetry_Int_Tables_number       1
_symmetry_cell_setting            triclinic
loop_
_symmetry_equiv_pos_as_xyz
'x, y, z'
_cell_length_a     63.492658
_cell_length_b     58.513277
_cell_length_c     58.233932
_cell_angle_alpha  99.526151
_cell_angle_beta   95.225743
_cell_angle_gamma 102.79381
loop_
_atom_site_label
_atom_site_type_symbol
_atom_site_fract_x
_atom_site_fract_y
_atom_site_fract_z
_atom_type_partial_charge
C0 C 0.07419 0.33986 0.35181 0.0
O1 O 0.08828 0.35412 0.34347 0.0
Cd2 Cd 0.12619 0.36402 0.35605 0.0
O3 O 0.07953 0.32982 0.36842 0.0
Cd4 Cd 0.11236 0.32996 0.39318 0.0
C5 C 0.11862 0.38913 0.40992 0.0
O6 O 0.12957 0.32525 0.36055 0.0
O7 O 0.15158 0.33164 0.39288 0.0
O8 O 0.09579 0.28901 0.39157 0.0
C9 C 0.1479 0.32517 0.37067 0.0
O10 O 0.12692 0.39289 0.39143 0.0
C11 C 0.09716 0.29076 0.41366 0.0
O12 O 0.11207 0.36817 0.41368 0.0
O13 O 0.10621 0.31099 0.42648 0.0
C14 C 0.96043 0.74438 0.68522 0.0
O15 O 0.97225 0.73356 0.69594 0.0
Cd16 Cd 0.00736 0.7294 0.69075 0.0
O17 O 0.96643 0.75406 0.66812 0.0
Cd18 Cd 0.99793 0.75791 0.64749 0.0
C19 C 0.99546 0.7004 0.63327 0.0
O20 O 0.02296 0.76676 0.68252 0.0
O21 O 0.03692 0.76085 0.65024 0.0
O22 O 0.99944 0.79876 0.64511 0.0
C23 C 0.03972 0.76694 0.67241 0.0
O24 O 1.0033 0.70214 0.65452 0.0
C25 C 1.00138 0.79588 0.62339 0.0
O26 O 0.98949 0.71751 0.62584 0.0
O27 O 0.99891 0.77464 0.61234 0.0
C28 C 0.57434 0.8386 0.85001 0.0
O29 O 0.58753 0.85094 0.83903 0.0
Cd30 Cd 0.62549 0.86312 0.85016 0.0
O31 O 0.58071 0.83135 0.86822 0.0
Cd32 Cd 0.61389 0.83235 0.89337 0.0
C33 C 0.6204 0.89145 0.90548 0.0
O34 O 0.63024 0.82668 0.85956 0.0
O35 O 0.65155 0.82877 0.89143 0.0
O36 O 0.58899 0.7958 0.89533 0.0
C37 C 0.64853 0.82591 0.86925 0.0
O38 O 0.62385 0.89219 0.88441 0.0
C39 C 0.59767 0.79446 0.91538 0.0
O40 O 0.61697 0.87211 0.91325 0.0
O41 O 0.61399 0.81105 0.92542 0.0
C42 C 0.46009 0.2482 0.18066 0.0
O43 O 0.46948 0.23532 0.19142 0.0
Cd44 Cd 0.50395 0.22855 0.18591 0.0
O45 O 0.46821 0.25815 0.16471 0.0
Cd46 Cd 0.50005 0.25844 0.14587 0.0
C47 C 0.49337 0.20046 0.12847 0.0
O48 O 0.52452 0.26637 0.18129 0.0
O49 O 0.53703 0.25437 0.14926 0.0
O50 O 0.50539 0.29991 0.14472 0.0
C51 C 0.54066 0.26362 0.17092 0.0
O52 O 0.49952 0.20005 0.14977 0.0
C53 C 0.50628 0.29713 0.12282 0.0
O54 O 0.4899 0.21928 0.12233 0.0
O55 O 0.50243 0.27591 0.1113 0.0
C56 C 0.0516 0.80202 0.15225 0.0
O57 O 0.06401 0.79409 0.16558 0.0
Cd58 Cd 0.10048 0.79286 0.16067 0.0
O59 O 0.05885 0.81206 0.13571 0.0
Cd60 Cd 0.09437 0.8217 0.11831 0.0
C61 C 0.08719 0.76264 0.10246 0.0
O62 O 0.12165 0.8292 0.15362 0.0
O63 O 0.13315 0.81725 0.12128 0.0
O64 O 0.09636 0.86416 0.11613 0.0
C65 C 0.13737 0.82428 0.14343 0.0
O66 O 0.09268 0.76405 0.12432 0.0
C67 C 0.08962 0.86077 0.09434 0.0
O68 O 0.08583 0.78114 0.09407 0.0
O69 O 0.08599 0.83943 0.08312 0.0
C70 C 0.47155 0.77986 0.3809 0.0
O71 O 0.486 0.79409 0.3731 0.0
Cd72 Cd 0.52441 0.80235 0.38369 0.0
O73 O 0.47713 0.7678 0.39598 0.0
Cd74 Cd 0.51534 0.7681 0.41762 0.0
C75 C 0.52412 0.82607 0.44093 0.0
O76 O 0.53829 0.76798 0.38564 0.0
O77 O 0.5551 0.78632 0.41961 0.0
O78 O 0.50989 0.7249 0.41898 0.0
C79 C 0.55632 0.77748 0.39852 0.0
O80 O 0.53084 0.82911 0.42149 0.0
C81 C 0.51704 0.72757 0.44061 0.0
O82 O 0.515 0.80539 0.44424 0.0
O83 O 0.52193 0.74887 0.45211 0.0
C84 C 0.55256 0.2974 0.65073 0.0
O85 O 0.56407 0.28595 0.66105 0.0
Cd86 Cd 0.601 0.28405 0.65825 0.0
O87 O 0.56069 0.31098 0.637 0.0
Cd88 Cd 0.59684 0.32272 0.62066 0.0
C89 C 0.59168 0.26325 0.59833 0.0
O90 O 0.62049 0.32278 0.6563 0.0
O91 O 0.63833 0.32903 0.62761 0.0
O92 O 0.59258 0.36383 0.62075 0.0
C93 C 0.63876 0.32576 0.64865 0.0
O94 O 0.5961 0.26029 0.61923 0.0
C95 C 0.5903 0.36225 0.59856 0.0
O96 O 0.59001 0.28343 0.59379 0.0
O97 O 0.59195 0.34268 0.58647 0.0
C98 C 0.97206 0.27803 0.87748 0.0
O99 O 0.98746 0.28883 0.86793 0.0
Cd100 Cd 0.02504 0.29961 0.88144 0.0
O101 O 0.97651 0.26852 0.89521 0.0
Cd102 Cd 0.01478 0.26769 0.91799 0.0
C103 C 0.02203 0.32624 0.93823 0.0
O104 O 0.03909 0.2666 0.88756 0.0
O105 O 0.05455 0.28763 0.92111 0.0
O106 O 0.0169 0.22598 0.91937 0.0
C107 C 0.05666 0.27753 0.9007 0.0
O108 O 0.0262 0.32783 0.91751 0.0
C109 C 0.01717 0.22735 0.94137 0.0
O110 O 0.01663 0.30601 0.94431 0.0
O111 O 0.01449 0.24677 0.95274 0.0
C112 C 0.46376 0.02818 0.33275 0.0
O113 O 0.47587 0.0205 0.31862 0.0
Cd114 Cd 0.4765 0.01802 0.27737 0.0
O115 O 0.44843 0.03725 0.32623 0.0
Cd116 Cd 0.43223 0.04108 0.28922 0.0
C117 C 0.42636 0.98174 0.26871 0.0
O118 O 0.46116 0.0486 0.2675 0.0
O119 O 0.42888 0.0392 0.24785 0.0
O120 O 0.42653 0.07938 0.29914 0.0
C121 C 0.44925 0.04218 0.24772 0.0
O122 O 0.44622 0.98377 0.26559 0.0
C123 C 0.4059 0.07208 0.29474 0.0
O124 O 0.41898 0.99914 0.27794 0.0
O125 O 0.39749 0.04971 0.29084 0.0
C126 C 0.31863 0.16289 0.51337 0.0
O127 O 0.30424 0.1489 0.52152 0.0
Cd128 Cd 0.2682 0.15267 0.52392 0.0
O129 O 0.31375 0.17945 0.50363 0.0
Cd130 Cd 0.2794 0.19437 0.49439 0.0
C131 C 0.28346 0.21243 0.55213 0.0
O132 O 0.25127 0.15635 0.48721 0.0
O133 O 0.23954 0.18762 0.49765 0.0
O134 O 0.29116 0.19704 0.45558 0.0
C135 C 0.23511 0.16513 0.49111 0.0
O136 O 0.27629 0.19018 0.55144 0.0
C137 C 0.28665 0.21686 0.45407 0.0
O138 O 0.2873 0.22054 0.53354 0.0
O139 O 0.27867 0.22654 0.47129 0.0
C140 C 0.13977 0.03098 0.82405 0.0
O141 O 0.13182 0.04291 0.8107 0.0
Cd142 Cd 0.14591 0.04585 0.77354 0.0
O143 O 0.1548 0.02081 0.81621 0.0
Cd144 Cd 0.17518 0.01778 0.77318 0.0
C145 C 0.19484 0.08282 0.77496 0.0
O146 O 0.13923 0.01108 0.7422 0.0
O147 O 0.16887 0.02501 0.72996 0.0
O148 O 0.18222 0.97484 0.7804 0.0
C149 C 0.14836 0.01738 0.72488 0.0
O150 O 0.17444 0.08098 0.77079 0.0
C151 C 0.19915 0.97386 0.77041 0.0
O152 O 0.20113 0.06404 0.77919 0.0
O153 O 0.20548 0.99244 0.76166 0.0
C154 C 0.35668 0.97412 0.00927 0.0
O155 O 0.34755 0.98993 1.00363 0.0
Cd156 Cd 0.31477 0.97329 0.97748 0.0
O157 O 0.34712 0.95226 1.0034 0.0
Cd158 Cd 0.31029 0.93387 1.00535 0.0
C159 C 0.3173 0.91594 0.95246 0.0
O160 O 0.29305 0.96579 0.00763 0.0
O161 O 0.27205 0.9297 1.0015 0.0
O162 O 0.32702 0.94069 0.04475 0.0
C163 C 0.2742 0.95212 1.00528 0.0
O164 O 0.31987 0.93789 0.95112 0.0
C165 C 0.3205 0.91899 0.04639 0.0
O166 O 0.31166 0.90854 0.97071 0.0
O167 O 0.30806 0.90467 0.02914 0.0
C168 C 0.36406 0.43867 0.03344 0.0
O169 O 0.35049 0.44871 0.02442 0.0
Cd170 Cd 0.31273 0.43314 0.01357 0.0
O171 O 0.35724 0.41905 0.04061 0.0
Cd172 Cd 0.31835 0.39303 0.04199 0.0
C173 C 0.31577 0.37733 0.98405 0.0
O174 O 0.29615 0.42229 0.04595 0.0
O175 O 0.27925 0.38765 0.02631 0.0
O176 O 0.32223 0.39296 0.08438 0.0
C177 C 0.27825 0.40835 0.03609 0.0
O178 O 0.31261 0.39815 0.98459 0.0
C179 C 0.31673 0.3705 0.08297 0.0
O180 O 0.31917 0.36956 1.00293 0.0
O181 O 0.31293 0.35795 0.06233 0.0
C182 C 0.81972 0.12006 0.03145 0.0
O183 O 0.80481 0.10716 0.04008 0.0
Cd184 Cd 0.77014 0.11515 0.04591 0.0
O185 O 0.81735 0.13916 0.02525 0.0
Cd186 Cd 0.79042 0.16109 0.02411 0.0
C187 C 0.78813 0.17032 0.0807 0.0
O188 O 0.75929 0.12864 0.01186 0.0
O189 O 0.75367 0.16307 0.02597 0.0
O190 O 0.79739 0.16465 0.98559 0.0
C191 C 0.74594 0.1415 0.01601 0.0
O192 O 0.77561 0.14949 0.07744 0.0
C193 C 0.79455 0.18565 0.98787 0.0
O194 O 0.79843 0.17798 0.06469 0.0
O195 O 0.79442 0.19679 0.00854 0.0
C196 C 0.13625 0.56283 0.27999 0.0
O197 O 0.1207 0.56219 0.26436 0.0
Cd198 Cd 0.12702 0.56428 0.22496 0.0
O199 O 0.15459 0.56048 0.27462 0.0
Cd200 Cd 0.17472 0.5544 0.243 0.0
C201 C 0.17031 0.61011 0.24937 0.0
O202 O 0.14856 0.53751 0.21208 0.0
O203 O 0.17873 0.55747 0.20274 0.0
O204 O 0.17962 0.51891 0.25127 0.0
C205 C 0.15953 0.54444 0.19631 0.0
O206 O 0.15206 0.60373 0.23613 0.0
C207 C 0.20019 0.52613 0.25594 0.0
O208 O 0.18085 0.59524 0.25468 0.0
O209 O 0.20938 0.54754 0.25485 0.0
C210 C 0.86472 0.93849 0.53354 0.0
O211 O 0.85176 0.94841 0.52327 0.0
Cd212 Cd 0.81367 0.93411 0.51302 0.0
O213 O 0.85719 0.91979 0.5419 0.0
Cd214 Cd 0.81783 0.89456 0.54271 0.0
C215 C 0.81537 0.87775 0.48439 0.0
O216 O 0.79611 0.92438 0.54545 0.0
O217 O 0.77873 0.88944 0.52679 0.0
O218 O 0.81845 0.89399 0.58525 0.0
C219 C 0.77805 0.91043 0.53603 0.0
O220 O 0.81275 0.89869 0.48429 0.0
C221 C 0.81535 0.87156 0.58361 0.0
O222 O 0.81829 0.87041 0.50361 0.0
O223 O 0.81423 0.85953 0.56304 0.0
C224 C 0.96821 0.05985 0.30804 0.0
O225 O 0.97488 0.04654 0.29226 0.0
Cd226 Cd 0.96049 0.03641 0.25129 0.0
O227 O 0.95324 0.0704 0.30137 0.0
Cd228 Cd 0.93021 0.0708 0.25696 0.0
C229 C 0.90882 1.00512 0.25366 0.0
O230 O 0.96419 0.07125 0.23268 0.0
O231 O 0.93419 0.06253 0.21068 0.0
O232 O 0.92551 0.11608 0.27152 0.0
C233 C 0.95483 0.0668 0.21158 0.0
O234 O 0.92736 1.00392 0.24757 0.0
C235 C 0.90658 0.11473 0.26097 0.0
O236 O 0.90492 0.02612 0.25905 0.0
O237 O 0.89814 0.09379 0.249 0.0
C238 C 0.32586 0.62349 0.53602 0.0
O239 O 0.31286 0.61073 0.54681 0.0
Cd240 Cd 0.27742 0.61484 0.55276 0.0
O241 O 0.32118 0.64094 0.52825 0.0
Cd242 Cd 0.29109 0.65799 0.52709 0.0
C243 C 0.28869 0.67287 0.58226 0.0
O244 O 0.26377 0.62149 0.51612 0.0
O245 O 0.2535 0.65347 0.52951 0.0
O246 O 0.29516 0.66051 0.48771 0.0
C247 C 0.24857 0.63198 0.51881 0.0
O248 O 0.27963 0.6509 0.58084 0.0
C249 C 0.2897 0.68022 0.48962 0.0
O250 O 0.29789 0.68038 0.56558 0.0
O251 O 0.28911 0.69149 0.51005 0.0
C252 C 0.46732 0.56119 0.80843 0.0
O253 O 0.47391 0.54937 0.79156 0.0
Cd254 Cd 0.44766 0.5491 0.75894 0.0
O255 O 0.45167 0.57106 0.80263 0.0
Cd256 Cd 0.43007 0.56991 0.75674 0.0
C257 C 0.40848 0.50581 0.75434 0.0
O258 O 0.46502 0.57169 0.73173 0.0
O259 O 0.43466 0.55847 0.71052 0.0
O260 O 0.42401 0.61433 0.77306 0.0
C261 C 0.45524 0.56496 0.7108 0.0
O262 O 0.42737 0.50686 0.74843 0.0
C263 C 0.40648 0.61405 0.76024 0.0
O264 O 0.40335 0.5261 0.75959 0.0
O265 O 0.39945 0.59415 0.74591 0.0
C266 C 0.64091 0.0616 0.77851 0.0
O267 O 0.62457 0.05903 0.76317 0.0
Cd268 Cd 0.62968 0.06494 0.72446 0.0
O269 O 0.6597 0.06204 0.77269 0.0
Cd270 Cd 0.67786 0.05574 0.73887 0.0
C271 C 0.67388 0.11141 0.74572 0.0
O272 O 0.64975 0.03721 0.71056 0.0
O273 O 0.67867 0.05511 0.69748 0.0
O274 O 0.68179 0.02223 0.7521 0.0
C275 C 0.65918 0.04252 0.69326 0.0
O276 O 0.65456 0.10498 0.73479 0.0
C277 C 0.70235 0.02714 0.75273 0.0
O278 O 0.68508 0.09665 0.74947 0.0
O279 O 0.71189 0.04598 0.74599 0.0
C280 C 0.81592 0.66035 0.01339 0.0
O281 O 0.8011 0.64902 0.02338 0.0
Cd282 Cd 0.76553 0.6533 0.02826 0.0
O283 O 0.81226 0.67648 1.00219 0.0
Cd284 Cd 0.77905 0.69353 0.99292 0.0
C285 C 0.782 0.71386 0.05202 0.0
O286 O 0.75112 0.65679 0.99096 0.0
O287 O 0.73808 0.68741 0.99015 0.0
O288 O 0.78534 0.69388 0.95146 0.0
C289 C 0.73445 0.66523 0.99026 0.0
O290 O 0.77454 0.69219 0.05351 0.0
C291 C 0.78696 0.71609 0.95255 0.0
O292 O 0.78598 0.71992 0.03247 0.0
O293 O 0.7852 0.72792 0.97238 0.0
C294 C 0.96763 0.53026 0.82972 0.0
O295 O 0.9778 0.52295 0.81332 0.0
Cd296 Cd 0.97046 0.5163 0.77202 0.0
O297 O 0.95044 0.53735 0.82577 0.0
Cd298 Cd 0.92841 0.53637 0.79046 0.0
C299 C 0.92643 0.47804 0.78218 0.0
O300 O 0.95193 0.54478 0.76298 0.0
O301 O 0.91961 0.52358 0.74853 0.0
O302 O 0.92159 0.57418 0.80141 0.0
C303 C 0.93857 0.53365 0.74501 0.0
O304 O 0.9421 0.4804 0.76987 0.0
C305 C 0.90104 0.56643 0.79625 0.0
O306 O 0.92012 0.49572 0.79256 0.0
O307 O 0.89324 0.54392 0.79188 0.0
C308 C 0.85295 0.45539 0.51238 0.0
O309 O 0.84402 0.47139 0.52111 0.0
Cd310 Cd 0.81729 0.46392 0.48703 0.0
O311 O 0.84169 0.43825 0.49698 0.0
Cd312 Cd 0.80362 0.42912 0.50348 0.0
C313 C 0.81042 0.40935 0.45265 0.0
O314 O 0.78493 0.46169 0.50255 0.0
O315 O 0.7658 0.42586 0.50383 0.0
O316 O 0.81811 0.4383 0.54424 0.0
C317 C 0.7672 0.4481 0.50543 0.0
O318 O 0.81878 0.43158 0.4548 0.0
C319 C 0.81582 0.41649 0.54565 0.0
O320 O 0.8002 0.40152 0.46853 0.0
O321 O 0.80567 0.40068 0.52807 0.0
C322 C 0.64019 0.531 0.32293 0.0
O323 O 0.63187 0.54347 0.31041 0.0
Cd324 Cd 0.64089 0.55177 0.27195 0.0
O325 O 0.65504 0.52085 0.31456 0.0
Cd326 Cd 0.67514 0.51732 0.27201 0.0
C327 C 0.69427 0.58341 0.27473 0.0
O328 O 0.63958 0.51608 0.24391 0.0
O329 O 0.66747 0.51621 0.22648 0.0
O330 O 0.67948 0.47237 0.27408 0.0
C331 C 0.64751 0.51671 0.22462 0.0
O332 O 0.67403 0.58297 0.27224 0.0
C333 C 0.69915 0.47396 0.27002 0.0
O334 O 0.70008 0.56379 0.27695 0.0
O335 O 0.70811 0.4949 0.26707 0.0
La336 La 0.03214 0.03227 0.00618 0.0
La337 La 0.07285 0.05901 0.03636 0.0
C338 C 0.99249 0.01666 0.99072 0.0
C339 C 0.9754 0.02953 0.98948 0.0
C340 C 0.95801 0.02136 0.97129 0.0
C341 C 0.94221 0.03426 0.96921 0.0
C342 C 0.9439 0.05556 0.98515 0.0
C343 C 0.96196 0.06444 1.00255 0.0
C344 C 0.97762 0.0514 1.00478 0.0
C345 C 0.06391 0.03279 0.97737 0.0
C346 C 0.04663 0.08886 0.01114 0.0
C347 C 0.11243 0.07408 0.05235 0.0
C348 C 0.12943 0.06105 0.05113 0.0
C349 C 0.14739 0.06726 0.06874 0.0
C350 C 0.16273 0.05348 0.06839 0.0
C351 C 0.15996 0.03344 0.05053 0.0
C352 C 0.14143 0.02659 0.03366 0.0
C353 C 0.12628 0.04038 0.03389 0.0
C354 C 0.04129 0.05889 0.06528 0.0
C355 C 0.05884 1.0021 0.03028 0.0
O356 O 0.00748 0.02292 0.97761 0.0
O357 O 1.00072 0.01525 0.01174 0.0
O358 O 0.04351 0.02237 0.97203 0.0
O359 O 0.06611 0.04201 0.99947 0.0
O360 O 0.03057 0.06938 1.00606 0.0
O361 O 0.06581 0.08885 0.02187 0.0
O362 O 0.09748 0.06562 0.06467 0.0
O363 O 0.10409 0.07803 0.03238 0.0
O364 O 0.06152 0.07007 0.07006 0.0
O365 O 0.03879 0.04939 0.0432 0.0
O366 O 0.07448 0.02193 0.03606 0.0
O367 O 0.03972 1.00189 0.01926 0.0
H368 H 0.95653 1.00488 0.95894 0.0
H369 H 0.92821 0.02719 0.95581 0.0
H370 H 0.96327 0.08066 0.01523 0.0
H371 H 0.99123 0.05818 0.01868 0.0
H372 H 0.14959 0.08281 0.08253 0.0
H373 H 0.17716 0.05901 0.08134 0.0
H374 H 0.13919 0.01112 0.01974 0.0
H375 H 0.11221 0.03499 0.0205 0.0
La376 La 0.30995 0.79227 0.25004 0.0
La377 La 0.28747 0.79952 0.28786 0.0
C378 C 0.32865 0.79313 0.21394 0.0
C379 C 0.33973 0.81171 0.20258 0.0
C380 C 0.35632 0.80729 0.18959 0.0
C381 C 0.3657 0.82378 0.1766 0.0
C382 C 0.35839 0.84468 0.17651 0.0
C383 C 0.34323 0.85011 0.19134 0.0
C384 C 0.33385 0.83359 0.20434 0.0
C385 C 0.33142 0.78458 0.28835 0.0
C386 C 0.31503 0.84397 0.27817 0.0
C387 C 0.26542 0.79859 0.32179 0.0
C388 C 0.25517 0.78014 0.33384 0.0
C389 C 0.24359 0.78581 0.35241 0.0
C390 C 0.23621 0.76871 0.36577 0.0
C391 C 0.24031 0.746 0.36028 0.0
C392 C 0.24994 0.73974 0.34029 0.0
C393 C 0.25748 0.75683 0.32725 0.0
C394 C 0.2671 0.80743 0.24895 0.0
C395 C 0.28549 0.74767 0.26207 0.0
O396 O 0.33839 0.79281 0.23445 0.0
O397 O 0.30765 0.79049 0.21364 0.0
O398 O 0.32845 0.77158 0.26764 0.0
O399 O 0.32197 0.80156 0.2876 0.0
O400 O 0.31403 0.83072 0.25737 0.0
O401 O 0.3084 0.83455 0.29581 0.0
O402 O 0.25712 0.79581 0.29999 0.0
O403 O 0.2867 0.80387 0.3243 0.0
O404 O 0.27105 0.82137 0.26922 0.0
O405 O 0.27563 0.78993 0.25039 0.0
O406 O 0.28645 0.76158 0.28248 0.0
O407 O 0.29046 0.75678 0.24376 0.0
H408 H 0.36123 0.79059 0.18855 0.0
H409 H 0.37728 0.81934 0.1651 0.0
H410 H 0.33713 0.86599 0.19119 0.0
H411 H 0.32122 0.83734 0.21464 0.0
H412 H 0.24143 0.80374 0.35742 0.0
H413 H 0.22926 0.77384 0.38159 0.0
H414 H 0.25383 0.72248 0.33633 0.0
H415 H 0.26618 0.75212 0.31296 0.0
La416 La 0.57641 0.04578 0.51602 0.0
La417 La 0.52794 0.04241 0.52213 0.0
C418 C 0.61502 0.04089 0.51752 0.0
C419 C 0.62691 0.02162 0.51424 0.0
C420 C 0.64218 0.02199 0.49817 0.0
C421 C 0.65565 1.00589 0.49691 0.0
C422 C 0.65424 0.9892 0.51188 0.0
C423 C 0.638 0.98791 0.52689 0.0
C424 C 0.62449 1.00391 0.52807 0.0
C425 C 0.54954 0.04343 0.47904 0.0
C426 C 0.54259 0.9948 0.51363 0.0
C427 C 0.48933 0.04694 0.51864 0.0
C428 C 0.47761 0.06618 0.52283 0.0
C429 C 0.46165 0.06445 0.53804 0.0
C430 C 0.44856 0.08082 0.54032 0.0
C431 C 0.45109 0.09932 0.52734 0.0
C432 C 0.46793 0.10178 0.51311 0.0
C433 C 0.48105 0.0854 0.51087 0.0
C434 C 0.55392 0.04479 0.55975 0.0
C435 C 0.56168 0.09345 0.52496 0.0
O436 O 0.60389 0.04404 0.49874 0.0
O437 O 0.60473 0.04315 0.53602 0.0
O438 O 0.56946 0.05599 0.48199 0.0
O439 O 0.546 0.03238 0.49527 0.0
O440 O 0.5631 1.00784 0.51783 0.0
O441 O 0.52581 1.00463 0.51125 0.0
O442 O 0.49909 0.04187 0.53728 0.0
O443 O 0.50093 0.04656 0.50109 0.0
O444 O 0.53367 0.03312 0.55642 0.0
O445 O 0.55837 0.05559 0.54337 0.0
O446 O 0.54125 0.08035 0.52136 0.0
O447 O 0.57869 0.08379 0.52645 0.0
H448 H 0.6443 0.03538 0.48721 0.0
H449 H 0.66796 1.00743 0.48518 0.0
H450 H 0.63618 0.97495 0.53831 0.0
H451 H 0.61268 1.00288 0.54038 0.0
H452 H 0.45875 0.04987 0.54756 0.0
H453 H 0.43574 0.07821 0.55136 0.0
H454 H 0.47068 0.11609 0.50327 0.0
H455 H 0.49347 0.08745 0.49927 0.0
La456 La 0.27901 0.30153 0.76942 0.0
La457 La 0.32548 0.28913 0.76862 0.0
C458 C 0.23929 0.29911 0.77379 0.0
C459 C 0.22521 0.30184 0.79261 0.0
C460 C 0.2117 0.3179 0.79235 0.0
C461 C 0.19624 0.31865 0.80803 0.0
C462 C 0.1938 0.30316 0.8242 0.0
C463 C 0.2082 0.28808 0.82532 0.0
C464 C 0.22374 0.28743 0.80976 0.0
C465 C 0.31112 0.34141 0.7688 0.0
C466 C 0.30974 0.30522 0.81694 0.0
C467 C 0.36499 0.29295 0.76265 0.0
C468 C 0.37835 0.28767 0.74368 0.0
C469 C 0.39356 0.27396 0.74686 0.0
C470 C 0.40867 0.27173 0.73103 0.0
C471 C 0.40902 0.28326 0.7116 0.0
C472 C 0.39296 0.2959 0.70773 0.0
C473 C 0.37782 0.29809 0.72357 0.0
C474 C 0.29364 0.24956 0.77051 0.0
C475 C 0.29413 0.28316 0.72093 0.0
O476 O 0.25294 0.3184 0.77095 0.0
O477 O 0.24794 0.28064 0.77144 0.0
O478 O 0.29062 0.34041 0.76974 0.0
O479 O 0.31231 0.31983 0.76865 0.0
O480 O 0.28977 0.30281 0.80632 0.0
O481 O 0.32674 0.30349 0.8057 0.0
O482 O 0.35331 0.27491 0.77009 0.0
O483 O 0.3546 0.30974 0.76128 0.0
O484 O 0.31442 0.2509 0.77138 0.0
O485 O 0.29223 0.27078 0.76898 0.0
O486 O 0.31333 0.28291 0.7317 0.0
O487 O 0.27804 0.28908 0.73176 0.0
H488 H 0.21254 0.32926 0.77937 0.0
H489 H 0.18541 0.33043 0.8066 0.0
H490 H 0.20704 0.27623 0.83786 0.0
H491 H 0.23408 0.27508 0.81068 0.0
H492 H 0.39438 0.26577 0.7622 0.0
H493 H 0.4208 0.26199 0.7348 0.0
H494 H 0.39239 0.3046 0.69274 0.0
H495 H 0.36619 0.30863 0.72044 0.0
La496 La 0.05115 0.06516 0.53118 0.0
La497 La 0.05869 0.02167 0.50882 0.0
C498 C 0.04967 0.10803 0.53981 0.0
C499 C 0.04939 0.12425 0.52317 0.0
C500 C 0.03313 0.13691 0.52238 0.0
C501 C 0.03219 0.15151 0.50585 0.0
C502 C 0.04764 0.15377 0.49002 0.0
C503 C 0.06347 0.14041 0.49035 0.0
C504 C 0.06426 0.12568 0.50668 0.0
C505 C 0.02024 0.02769 0.53479 0.0
C506 C 0.03677 0.04809 0.4742 0.0
C507 C 0.06051 0.97887 0.49963 0.0
C508 C 0.06092 0.96202 0.5155 0.0
C509 C 0.07384 0.94556 0.51215 0.0
C510 C 0.07424 0.9295 0.52732 0.0
C511 C 0.06166 0.92973 0.54597 0.0
C512 C 0.04954 0.94705 0.54991 0.0
C513 C 0.04921 0.9631 0.53482 0.0
C514 C 0.08943 0.05871 0.50417 0.0
C515 C 0.07274 0.03875 0.56581 0.0
O516 O 0.03236 0.09045 0.53707 0.0
O517 O 0.06767 0.10096 0.54302 0.0
O518 O 0.02817 0.04604 0.55152 0.0
O519 O 0.02933 0.03115 0.51684 0.0
O520 O 0.04112 0.06567 0.49303 0.0
O521 O 0.04139 0.02748 0.47639 0.0
O522 O 0.07771 0.99665 0.50303 0.0
O523 O 0.04237 0.98582 0.49689 0.0
O524 O 0.08144 0.03985 0.48809 0.0
O525 O 0.08063 0.05597 0.52251 0.0
O526 O 0.06745 0.02091 0.54718 0.0
O527 O 0.06919 0.05972 0.56333 0.0
H528 H 0.02117 0.13549 0.53453 0.0
H529 H 0.01962 0.16135 0.50571 0.0
H530 H 0.07577 0.14199 0.4786 0.0
H531 H 0.07666 0.11558 0.50646 0.0
H532 H 0.08338 0.94494 0.49764 0.0
H533 H 0.08393 0.91651 0.52411 0.0
H534 H 0.03948 0.94752 0.56395 0.0
H535 H 0.03944 0.97603 0.53803 0.0
La536 La 0.32275 0.81215 0.76546 0.0
La537 La 0.2826 0.77588 0.76939 0.0
C538 C 0.36085 0.83695 0.7752 0.0
C539 C 0.38137 0.82958 0.77829 0.0
C540 C 0.39565 0.83197 0.76138 0.0
C541 C 0.41517 0.82504 0.76419 0.0
C542 C 0.42082 0.81599 0.78415 0.0
C543 C 0.40603 0.81239 0.80041 0.0
C544 C 0.38645 0.81913 0.79752 0.0
C545 C 0.30031 0.78893 0.72601 0.0
C546 C 0.32595 0.75601 0.76843 0.0
C547 C 0.24479 0.74993 0.75927 0.0
C548 C 0.22354 0.75566 0.75532 0.0
C549 C 0.21047 0.75698 0.77347 0.0
C550 C 0.19091 0.7638 0.77006 0.0
C551 C 0.18419 0.76933 0.74846 0.0
C552 C 0.19718 0.76784 0.73029 0.0
C553 C 0.21662 0.761 0.73364 0.0
C554 C 0.30505 0.79929 0.80895 0.0
C555 C 0.27945 0.83197 0.76576 0.0
O556 O 0.3504 0.8313 0.75379 0.0
O557 O 0.34789 0.83276 0.79107 0.0
O558 O 0.3112 0.81101 0.72871 0.0
O559 O 0.3039 0.7808 0.74419 0.0
O560 O 0.33601 0.77899 0.76863 0.0
O561 O 0.30428 0.75027 0.76768 0.0
O562 O 0.25495 0.75635 0.78081 0.0
O563 O 0.25783 0.75487 0.74367 0.0
O564 O 0.29426 0.77715 0.80617 0.0
O565 O 0.30143 0.80734 0.79072 0.0
O566 O 0.26939 0.80907 0.76606 0.0
O567 O 0.30111 0.83771 0.76635 0.0
H568 H 0.39188 0.83958 0.74621 0.0
H569 H 0.42633 0.82782 0.75135 0.0
H570 H 0.41014 0.80578 0.81613 0.0
H571 H 0.3756 0.81666 0.8107 0.0
H572 H 0.21544 0.7529 0.79031 0.0
H573 H 0.18104 0.76472 0.78425 0.0
H574 H 0.19205 0.77137 0.71323 0.0
H575 H 0.22621 0.75998 0.7192 0.0
La576 La 0.55449 0.03972 0.04171 0.0
La577 La 0.54622 0.04216 0.99115 0.0
C578 C 0.5493 0.03734 0.08308 0.0
C579 C 0.5337 0.01922 0.09174 0.0
C580 C 0.53982 0.99896 0.0974 0.0
C581 C 0.52572 0.98276 0.10736 0.0
C582 C 0.50551 0.98688 0.11219 0.0
C583 C 0.49839 1.00552 0.10393 0.0
C584 C 0.51244 0.02167 0.09392 0.0
C585 C 0.56626 1.00709 0.0131 0.0
C586 C 0.50865 0.01413 0.01073 0.0
C587 C 0.5519 0.04681 0.95033 0.0
C588 C 0.56888 0.06491 0.94334 0.0
C589 C 0.56506 0.08716 0.94067 0.0
C590 C 0.58101 0.10413 0.93368 0.0
C591 C 0.60077 0.09883 0.92848 0.0
C592 C 0.60536 0.07759 0.93355 0.0
C593 C 0.58954 0.06077 0.94079 0.0
C594 C 0.53471 0.07464 0.02019 0.0
C595 C 0.59243 0.06598 0.0221 0.0
O596 O 0.56468 0.02976 0.07292 0.0
O597 O 0.54099 0.05148 0.07165 0.0
O598 O 0.57637 0.01664 0.0339 0.0
O599 O 0.54941 0.01451 0.00952 0.0
O600 O 0.51994 0.02383 0.03152 0.0
O601 O 0.51671 0.01578 0.99088 0.0
O602 O 0.53727 0.05508 0.96124 0.0
O603 O 0.55858 0.03067 0.96023 0.0
O604 O 0.52404 0.06492 0.99974 0.0
O605 O 0.55169 0.06743 0.0233 0.0
O606 O 0.58134 0.05551 1.00132 0.0
O607 O 0.58332 0.06658 0.04148 0.0
H608 H 0.55589 0.99619 0.09524 0.0
H609 H 0.53145 0.96842 0.11346 0.0
H610 H 0.4829 1.00923 0.10751 0.0
H611 H 0.507 0.03672 0.08905 0.0
H612 H 0.54951 0.09122 0.94325 0.0
H613 H 0.57715 0.12052 0.93038 0.0
H614 H 0.62036 0.07275 0.92979 0.0
H615 H 0.59326 0.04413 0.94347 0.0
La616 La 0.31126 0.31644 0.28014 0.0
La617 La 0.28938 0.26866 0.25612 0.0
C618 C 0.32185 0.36061 0.29515 0.0
C619 C 0.3082 0.37724 0.29305 0.0
C620 C 0.31073 0.39772 0.31025 0.0
C621 C 0.29618 0.41229 0.30876 0.0
C622 C 0.27862 0.40588 0.2905 0.0
C623 C 0.27561 0.38456 0.2742 0.0
C624 C 0.29075 0.37097 0.27489 0.0
C625 C 0.30854 0.28477 0.30787 0.0
C626 C 0.25966 0.29984 0.27151 0.0
C627 C 0.27916 0.22444 0.24116 0.0
C628 C 0.29268 0.20726 0.23993 0.0
C629 C 0.28802 0.18768 0.22126 0.0
C630 C 0.30116 0.17144 0.21992 0.0
C631 C 0.31927 0.17518 0.2369 0.0
C632 C 0.32452 0.19533 0.25493 0.0
C633 C 0.31111 0.21112 0.25664 0.0
C634 C 0.29184 0.30025 0.22803 0.0
C635 C 0.34067 0.28519 0.26375 0.0
O636 O 0.31497 0.34514 0.30821 0.0
O637 O 0.32676 0.35049 0.27526 0.0
O638 O 0.32553 0.30184 0.30823 0.0
O639 O 0.29384 0.28588 0.29228 0.0
O640 O 0.27709 0.31738 0.27292 0.0
O641 O 0.26078 0.27749 0.26745 0.0
O642 O 0.28371 0.24004 0.22764 0.0
O643 O 0.27676 0.23431 0.26232 0.0
O644 O 0.27542 0.2824 0.22726 0.0
O645 O 0.3065 0.29948 0.24389 0.0
O646 O 0.32339 0.26771 0.26296 0.0
O647 O 0.33965 0.30754 0.26812 0.0
H648 H 0.32398 0.40251 0.32458 0.0
H649 H 0.29908 0.42877 0.32146 0.0
H650 H 0.26186 0.37858 0.26041 0.0
H651 H 0.28865 0.35543 0.2612 0.0
H652 H 0.27403 0.18474 0.20806 0.0
H653 H 0.29688 0.15568 0.20612 0.0
H654 H 0.33829 0.19811 0.2684 0.0
H655 H 0.31498 0.22607 0.27126 0.0
La656 La 0.54991 0.56485 0.03108 0.0
La657 La 0.55955 0.52254 0.00816 0.0
C658 C 0.54769 0.60759 0.03942 0.0
C659 C 0.54804 0.62354 0.02251 0.0
C660 C 0.53831 0.64286 0.02608 0.0
C661 C 0.53973 0.65845 0.01019 0.0
C662 C 0.5508 0.65466 0.99059 0.0
C663 C 0.55925 0.6344 0.98633 0.0
C664 C 0.55814 0.61917 1.00229 0.0
C665 C 0.52035 0.52609 0.03423 0.0
C666 C 0.5361 0.54763 0.97372 0.0
C667 C 0.56302 0.48037 0.99859 0.0
C668 C 0.56358 0.46349 0.01435 0.0
C669 C 0.5761 0.44669 0.01054 0.0
C670 C 0.57639 0.43047 0.02554 0.0
C671 C 0.56413 0.43094 0.04446 0.0
C672 C 0.55246 0.44859 0.04886 0.0
C673 C 0.55218 0.46474 0.03391 0.0
C674 C 0.58866 0.56133 1.00458 0.0
C675 C 0.57249 0.53898 0.06556 0.0
O676 O 0.53056 0.58971 0.03604 0.0
O677 O 0.56578 0.60082 0.04322 0.0
O678 O 0.52712 0.54483 0.0508 0.0
O679 O 0.52948 0.5302 0.01642 0.0
O680 O 0.53884 0.56454 0.99293 0.0
O681 O 0.54238 0.52781 0.97552 0.0
O682 O 0.57976 0.49875 1.00259 0.0
O683 O 0.5445 0.48649 0.99543 0.0
O684 O 0.58151 0.54284 0.9879 0.0
O685 O 0.58005 0.55725 0.02267 0.0
O686 O 0.56903 0.52187 0.04639 0.0
O687 O 0.56712 0.55929 0.06368 0.0
H688 H 0.53024 0.64628 0.04146 0.0
H689 H 0.53321 0.67408 0.01389 0.0
H690 H 0.56761 0.63093 0.97118 0.0
H691 H 0.56585 0.6044 0.99916 0.0
H692 H 0.58533 0.44589 0.9958 0.0
H693 H 0.58569 0.41713 0.02198 0.0
H694 H 0.54263 0.4492 0.06311 0.0
H695 H 0.54261 0.47785 0.03735 0.0
La696 La 0.82291 0.31236 0.26435 0.0
La697 La 0.78288 0.27652 0.26688 0.0
C698 C 0.86107 0.33717 0.2733 0.0
C699 C 0.88152 0.32982 0.27733 0.0
C700 C 0.89496 0.32888 0.25957 0.0
C701 C 0.91421 0.32158 0.2631 0.0
C702 C 0.92051 0.31557 0.28463 0.0
C703 C 0.90655 0.31538 0.30196 0.0
C704 C 0.8872 0.32245 0.29835 0.0
C705 C 0.80037 0.29116 0.22386 0.0
C706 C 0.82572 0.25624 0.26619 0.0
C707 C 0.74497 0.25099 0.25803 0.0
C708 C 0.72394 0.25735 0.25594 0.0
C709 C 0.70961 0.25213 0.27234 0.0
C710 C 0.68959 0.25815 0.27058 0.0
C711 C 0.68377 0.26949 0.25243 0.0
C712 C 0.69839 0.27551 0.23654 0.0
C713 C 0.71835 0.26946 0.23824 0.0
C714 C 0.80535 0.29884 0.30708 0.0
C715 C 0.77989 0.33263 0.26466 0.0
O716 O 0.85068 0.33021 0.25193 0.0
O717 O 0.84803 0.33428 0.2893 0.0
O718 O 0.81146 0.31321 0.22832 0.0
O719 O 0.80382 0.28173 0.24125 0.0
O720 O 0.83606 0.27952 0.26917 0.0
O721 O 0.80398 0.25052 0.26286 0.0
O722 O 0.75595 0.25675 0.27915 0.0
O723 O 0.75727 0.25596 0.24175 0.0
O724 O 0.79495 0.27653 0.30341 0.0
O725 O 0.80158 0.30747 0.28935 0.0
O726 O 0.76962 0.30957 0.26368 0.0
O727 O 0.80163 0.3383 0.26622 0.0
H728 H 0.89074 0.33408 0.24307 0.0
H729 H 0.92465 0.32163 0.24939 0.0
H730 H 0.91114 0.31114 0.31884 0.0
H731 H 0.877 0.3226 0.31228 0.0
H732 H 0.71377 0.24311 0.2863 0.0
H733 H 0.67835 0.2533 0.28289 0.0
H734 H 0.69394 0.2838 0.2221 0.0
H735 H 0.72916 0.27396 0.22545 0.0
La736 La 0.0562 0.54442 0.53938 0.0
La737 La 0.04477 0.54549 0.48877 0.0
C738 C 0.05604 0.54219 0.5817 0.0
C739 C 0.04096 0.52565 0.59255 0.0
C740 C 0.04792 0.50719 0.60129 0.0
C741 C 0.03397 0.49184 0.61225 0.0
C742 C 0.01295 0.49485 0.61467 0.0
C743 C 0.00536 0.51191 0.60409 0.0
C744 C 0.01931 0.52733 0.59326 0.0
C745 C 0.06528 0.51079 0.50944 0.0
C746 C 0.00822 0.52177 0.51292 0.0
C747 C 0.0475 0.54642 0.44667 0.0
C748 C 0.0656 0.56139 0.43785 0.0
C749 C 0.06798 0.58624 0.44065 0.0
C750 C 0.08648 0.60072 0.43485 0.0
C751 C 0.10285 0.59065 0.42591 0.0
C752 C 0.10065 0.56587 0.42367 0.0
C753 C 0.08222 0.55142 0.42954 0.0
C754 C 0.0354 0.57904 0.51828 0.0
C755 C 0.09243 0.56949 0.51636 0.0
O756 O 0.06827 0.53218 0.56842 0.0
O757 O 0.04811 0.55785 0.57219 0.0
O758 O 0.07764 0.52152 0.52874 0.0
O759 O 0.04836 0.51834 0.50763 0.0
O760 O 0.02096 0.53143 0.53295 0.0
O761 O 0.01538 0.52115 0.49236 0.0
O762 O 0.03541 0.55798 0.45873 0.0
O763 O 0.05251 0.5295 0.4567 0.0
O764 O 0.0236 0.56904 0.49839 0.0
O765 O 0.05228 0.57139 0.52037 0.0
O766 O 0.0802 0.55875 0.49623 0.0
O767 O 0.08441 0.57077 0.53643 0.0
H768 H 0.0644 0.50518 0.60041 0.0
H769 H 0.04012 0.47888 0.62048 0.0
H770 H 0.9893 0.51485 0.60607 0.0
H771 H 0.01328 0.54102 0.5862 0.0
H772 H 0.05563 0.59461 0.44743 0.0
H773 H 0.08768 0.61971 0.43669 0.0
H774 H 0.11264 0.55732 0.41626 0.0
H775 H 0.081 0.53241 0.42761 0.0
La776 La 0.77931 0.80202 0.26905 0.0
La777 La 0.82554 0.78905 0.26937 0.0
C778 C 0.73968 0.80071 0.27275 0.0
C779 C 0.72533 0.80236 0.29143 0.0
C780 C 0.71277 0.81942 0.29266 0.0
C781 C 0.69731 0.81975 0.30836 0.0
C782 C 0.69393 0.80282 0.32304 0.0
C783 C 0.70737 0.78661 0.32271 0.0
C784 C 0.72293 0.78639 0.30712 0.0
C785 C 0.81194 0.84132 0.26838 0.0
C786 C 0.80914 0.80538 0.31721 0.0
C787 C 0.86511 0.79248 0.26423 0.0
C788 C 0.8783 0.78753 0.24505 0.0
C789 C 0.89267 0.77268 0.24718 0.0
C790 C 0.90746 0.77035 0.23103 0.0
C791 C 0.90832 0.78296 0.21238 0.0
C792 C 0.89302 0.79673 0.2095 0.0
C793 C 0.87819 0.799 0.22563 0.0
C794 C 0.79354 0.74983 0.27128 0.0
C795 C 0.79513 0.78329 0.22093 0.0
O796 O 0.75423 0.82014 0.27207 0.0
O797 O 0.74742 0.78166 0.26855 0.0
O798 O 0.79153 0.84088 0.26914 0.0
O799 O 0.81265 0.81967 0.26838 0.0
O800 O 0.78933 0.80298 0.30613 0.0
O801 O 0.82632 0.80349 0.30635 0.0
O802 O 0.85288 0.77412 0.27062 0.0
O803 O 0.85531 0.8099 0.26376 0.0
O804 O 0.81427 0.75098 0.27219 0.0
O805 O 0.79212 0.77106 0.26975 0.0
O806 O 0.81407 0.78292 0.23226 0.0
O807 O 0.77895 0.78957 0.23139 0.0
H808 H 0.71438 0.83203 0.28086 0.0
H809 H 0.68722 0.83242 0.30809 0.0
H810 H 0.70544 0.77361 0.33409 0.0
H811 H 0.73258 0.77325 0.30689 0.0
H812 H 0.89307 0.76359 0.26193 0.0
H813 H 0.91901 0.75967 0.23395 0.0
H814 H 0.89287 0.80628 0.1951 0.0
H815 H 0.86714 0.81038 0.22328 0.0
La816 La 0.81054 0.29167 0.74527 0.0
La817 La 0.78779 0.29921 0.79224 0.0
C818 C 0.81768 0.28752 0.70363 0.0
C819 C 0.82771 0.30632 0.69149 0.0
C820 C 0.84809 0.30645 0.68397 0.0
C821 C 0.85878 0.32546 0.67446 0.0
C822 C 0.84912 0.3445 0.67218 0.0
C823 C 0.82889 0.3445 0.68016 0.0
C824 C 0.81832 0.32565 0.68978 0.0
C825 C 0.83875 0.2977 0.78425 0.0
C826 C 0.80794 0.343 0.77021 0.0
C827 C 0.77954 0.3036 0.8335 0.0
C828 C 0.76897 0.28476 0.84525 0.0
C829 C 0.74793 0.28405 0.85122 0.0
C830 C 0.73658 0.26453 0.85958 0.0
C831 C 0.7462 0.24553 0.86216 0.0
C832 C 0.76722 0.24631 0.85599 0.0
C833 C 0.77845 0.26565 0.84759 0.0
C834 C 0.76007 0.2934 0.75273 0.0
C835 C 0.79064 0.24783 0.76775 0.0
O836 O 0.83082 0.28353 0.72034 0.0
O837 O 0.79846 0.28827 0.70989 0.0
O838 O 0.84385 0.29585 0.76311 0.0
O839 O 0.81874 0.29757 0.78223 0.0
O840 O 0.81089 0.32913 0.75093 0.0
O841 O 0.80185 0.33527 0.78922 0.0
O842 O 0.76689 0.30758 0.81635 0.0
O843 O 0.79898 0.30279 0.82791 0.0
O844 O 0.75468 0.29598 0.77374 0.0
O845 O 0.77987 0.29307 0.75546 0.0
O846 O 0.78729 0.26172 0.78681 0.0
O847 O 0.79708 0.25551 0.7488 0.0
H848 H 0.85582 0.29194 0.68562 0.0
H849 H 0.87437 0.32505 0.66845 0.0
H850 H 0.82072 0.35859 0.67811 0.0
H851 H 0.80279 0.32631 0.69584 0.0
H852 H 0.74018 0.29845 0.84911 0.0
H853 H 0.72051 0.26447 0.86443 0.0
H854 H 0.77548 0.2324 0.85852 0.0
H855 H 0.79452 0.26546 0.84283 0.0
La856 La 0.80739 0.81975 0.77613 0.0
La857 La 0.79078 0.76319 0.75632 0.0
C858 C 0.81648 0.86373 0.78045 0.0
C859 C 0.80313 0.8797 0.78882 0.0
C860 C 0.81215 0.89962 0.80657 0.0
C861 C 0.7997 0.91565 0.81345 0.0
C862 C 0.77829 0.91171 0.8025 0.0
C863 C 0.76853 0.89045 0.78669 0.0
C864 C 0.78096 0.87454 0.77976 0.0
C865 C 0.8035 0.79465 0.81082 0.0
C866 C 0.75717 0.7939 0.76935 0.0
C867 C 0.78347 0.71909 0.75213 0.0
C868 C 0.79786 0.70373 0.74459 0.0
C869 C 0.79048 0.68429 0.7259 0.0
C870 C 0.80401 0.66914 0.71955 0.0
C871 C 0.82496 0.6733 0.73196 0.0
C872 C 0.83282 0.69385 0.74946 0.0
C873 C 0.81944 0.70894 0.75567 0.0
C874 C 0.79589 0.78891 0.72223 0.0
C875 C 0.84038 0.78972 0.7614 0.0
O876 O 0.82393 0.85303 0.79633 0.0
O877 O 0.80859 0.84932 0.7603 0.0
O878 O 0.80986 0.81765 0.81378 0.0
O879 O 0.80002 0.78737 0.78886 0.0
O880 O 0.77227 0.81423 0.77206 0.0
O881 O 0.76101 0.77234 0.76495 0.0
O882 O 0.77567 0.7293 0.73599 0.0
O883 O 0.79056 0.73385 0.77219 0.0
O884 O 0.79087 0.76581 0.71872 0.0
O885 O 0.79737 0.7955 0.74409 0.0
O886 O 0.82595 0.76934 0.76047 0.0
O887 O 0.83626 0.81098 0.76498 0.0
H888 H 0.82903 0.90332 0.81425 0.0
H889 H 0.80731 0.93214 0.82566 0.0
H890 H 0.75207 0.88734 0.77786 0.0
H891 H 0.77349 0.85893 0.76639 0.0
H892 H 0.7741 0.68044 0.71672 0.0
H893 H 0.7977 0.65349 0.70586 0.0
H894 H 0.84874 0.6974 0.75966 0.0
H895 H 0.82584 0.72418 0.7698 0.0
La896 La 0.53342 0.53062 0.50535 0.0
La897 La 0.57267 0.55896 0.53474 0.0
C898 C 0.49364 0.51507 0.49058 0.0
C899 C 0.47743 0.52901 0.48894 0.0
C900 C 0.4594 0.52109 0.47146 0.0
C901 C 0.44419 0.53482 0.46978 0.0
C902 C 0.44725 0.55661 0.48534 0.0
C903 C 0.46612 0.56536 0.5016 0.0
C904 C 0.48107 0.55152 0.50355 0.0
C905 C 0.56397 0.53106 0.47579 0.0
C906 C 0.54614 0.5873 0.50825 0.0
C907 C 0.61251 0.57546 0.54918 0.0
C908 C 0.6298 0.56281 0.5503 0.0
C909 C 0.64726 0.57102 0.56844 0.0
C910 C 0.66245 0.55746 0.57131 0.0
C911 C 0.66013 0.53547 0.55619 0.0
C912 C 0.6424 0.52712 0.53827 0.0
C913 C 0.62734 0.54072 0.53533 0.0
C914 C 0.54175 0.55877 0.56418 0.0
C915 C 0.56023 0.50234 0.53165 0.0
O916 O 0.5085 0.51964 0.47693 0.0
O917 O 0.50203 0.51461 0.51183 0.0
O918 O 0.54404 0.51881 0.47177 0.0
O919 O 0.56719 0.54144 0.49773 0.0
O920 O 0.5317 0.56672 0.50104 0.0
O921 O 0.56424 0.58893 0.52193 0.0
O922 O 0.59792 0.56945 0.5628 0.0
O923 O 0.60369 0.57615 0.52818 0.0
O924 O 0.56179 0.57076 0.56833 0.0
O925 O 0.53882 0.54837 0.54226 0.0
O926 O 0.57487 0.52286 0.53833 0.0
O927 O 0.54181 0.50073 0.51849 0.0
H928 H 0.45678 0.50403 0.45968 0.0
H929 H 0.42935 0.52773 0.45754 0.0
H930 H 0.46832 0.58192 0.51409 0.0
H931 H 0.49505 0.55806 0.517 0.0
H932 H 0.64896 0.58772 0.58051 0.0
H933 H 0.67605 0.56415 0.58524 0.0
H934 H 0.64052 0.51042 0.52611 0.0
H935 H 0.61368 0.53389 0.52148 0.0
La936 La 0.07811 0.54508 0.01638 0.0
La937 La 0.0303 0.54466 0.02318 0.0
C938 C 0.11634 0.53921 0.01786 0.0
C939 C 0.12775 0.51967 0.01413 0.0
C940 C 0.14298 0.52002 0.99801 0.0
C941 C 0.15639 0.50391 0.99674 0.0
C942 C 0.15493 0.4873 0.01176 0.0
C943 C 0.13859 0.48585 0.02662 0.0
C944 C 0.12513 0.50184 0.0278 0.0
C945 C 0.05247 0.54728 0.98009 0.0
C946 C 0.04248 0.49557 0.01255 0.0
C947 C 0.99216 0.55068 0.02312 0.0
C948 C 0.98062 0.57019 0.02642 0.0
C949 C 0.97223 0.57569 0.04762 0.0
C950 C 0.95854 0.59141 0.04989 0.0
C951 C 0.95256 0.60175 0.03087 0.0
C952 C 0.96202 0.59734 0.01015 0.0
C953 C 0.97587 0.58172 0.00793 0.0
C954 C 0.05639 0.54443 0.06009 0.0
C955 C 0.06563 0.59379 0.02536 0.0
O956 O 0.10559 0.54313 0.99923 0.0
O957 O 0.10588 0.54113 0.03625 0.0
O958 O 0.07326 0.55633 0.98286 0.0
O959 O 0.04747 0.53508 0.99531 0.0
O960 O 0.06332 0.50739 0.01703 0.0
O961 O 0.02645 0.50663 0.01088 0.0
O962 O 0.00397 0.54804 0.04166 0.0
O963 O 1.00148 0.5473 1.00407 0.0
O964 O 0.03608 0.53306 0.0564 0.0
O965 O 0.06101 0.55581 0.0442 0.0
O966 O 0.0448 0.58203 0.02099 0.0
O967 O 0.08166 0.58298 0.0283 0.0
H968 H 0.14519 0.5335 0.98714 0.0
H969 H 0.1688 0.50546 0.98511 0.0
H970 H 0.13681 0.47293 0.03809 0.0
H971 H 0.11332 0.50083 0.04012 0.0
H972 H 0.97555 0.56711 0.06221 0.0
H973 H 0.95199 0.59474 0.06632 0.0
H974 H 0.95773 0.6048 0.99507 0.0
H975 H 0.98204 0.57788 0.99135 0.0
H976 H 0.04643 0.20062 0.931 0.0
H977 H 0.00922 0.10494 0.0096 0.0
H978 H 0.99989 0.21034 0.97891 0.0
H979 H 0.07569 0.12301 0.9953 0.0
H980 H 1.00289 0.14014 0.99471 0.0
H981 H 0.05505 0.16889 0.95029 0.0
C982 C 0.03788 0.19593 0.94547 0.0
C983 C 0.0222 0.20799 0.95315 0.0
C984 C 0.0189 0.13649 0.995 0.0
C985 C 0.03177 0.17133 0.9751 0.0
C986 C 0.02251 0.11637 1.00342 0.0
C987 C 0.04303 0.11105 1.00375 0.0
C988 C 0.0357 0.151 0.98608 0.0
C989 C 0.05966 0.12654 0.99553 0.0
C990 C 0.04294 0.17795 0.95657 0.0
C991 C 0.01197 0.20144 0.97231 0.0
N992 N 0.05555 0.14556 0.9867 0.0
N993 N 0.01665 0.18331 0.98236 0.0
H994 H 0.15448 0.78465 0.13956 0.0
H995 H 0.25251 0.84652 0.24425 0.0
H996 H 0.16482 0.85602 0.17925 0.0
H997 H 0.24038 0.77193 0.2131 0.0
H998 H 0.22159 0.85001 0.21834 0.0
H999 H 0.18612 0.77916 0.16414 0.0
C1000 C 0.16364 0.7993 0.1532 0.0
C1001 C 0.15717 0.82099 0.15717 0.0
C1002 C 0.22559 0.83282 0.21695 0.0
C1003 C 0.19352 0.81489 0.1853 0.0
C1004 C 0.2434 0.83081 0.23177 0.0
C1005 C 0.24928 0.80893 0.2309 0.0
C1006 C 0.21312 0.81279 0.20082 0.0
C1007 C 0.23668 0.78925 0.21427 0.0
C1008 C 0.18162 0.7961 0.16732 0.0
C1009 C 0.16926 0.83909 0.17548 0.0
N1010 N 0.21917 0.79162 0.19994 0.0
N1011 N 0.18682 0.83571 0.18864 0.0
H1012 H 0.56087 0.85472 0.46678 0.0
H1013 H 0.50398 0.96221 0.49625 0.0
H1014 H 0.49149 0.84645 0.45379 0.0
H1015 H 0.572 0.96736 0.5181 0.0
H1016 H 0.49843 0.9192 0.48348 0.0
H1017 H 0.56468 0.89499 0.48925 0.0
C1018 C 0.5464 0.86127 0.46928 0.0
C1019 C 0.52585 0.84738 0.45884 0.0
C1020 C 0.51449 0.92967 0.49139 0.0
C1021 C 0.53002 0.89359 0.48352 0.0
C1022 C 0.5177 0.95428 0.49872 0.0
C1023 C 0.53854 0.96848 0.50821 0.0
C1024 C 0.53225 0.91916 0.49352 0.0
C1025 C 0.55569 0.95717 0.51078 0.0
C1026 C 0.54854 0.88427 0.48192 0.0
C1027 C 0.50756 0.85663 0.46202 0.0
N1028 N 0.55219 0.93322 0.50331 0.0
N1029 N 0.5101 0.87936 0.47383 0.0
H1030 H 0.5271 0.25874 0.66307 0.0
H1031 H 0.43031 0.3203 0.69212 0.0
H1032 H 0.52466 0.32738 0.64657 0.0
H1033 H 0.42949 0.24735 0.69723 0.0
H1034 H 0.46287 0.32238 0.67241 0.0
H1035 H 0.49009 0.25352 0.67275 0.0
C1036 C 0.51875 0.27278 0.66147 0.0
C1037 C 0.52925 0.29379 0.65445 0.0
C1038 C 0.45543 0.30584 0.67761 0.0
C1039 C 0.48652 0.28791 0.66575 0.0
C1040 C 0.43668 0.30454 0.68877 0.0
C1041 C 0.42714 0.28369 0.69676 0.0
C1042 C 0.46492 0.28622 0.6745 0.0
C1043 C 0.43647 0.26402 0.69202 0.0
C1044 C 0.4975 0.26971 0.66691 0.0
C1045 C 0.51732 0.31103 0.65216 0.0
N1046 N 0.45489 0.26587 0.68148 0.0
N1047 N 0.4967 0.30789 0.65815 0.0
H1048 H 0.0176 0.84227 0.64533 0.0
H1049 H 0.05601 0.88243 0.52855 0.0
H1050 H 0.00623 0.79571 0.57735 0.0
H1051 H 0.05957 0.93225 0.59324 0.0
H1052 H 0.04358 0.8496 0.54849 0.0
H1053 H 0.03701 0.87482 0.62818 0.0
C1054 C 0.01879 0.83903 0.62669 0.0
C1055 C 0.00999 0.81638 0.61261 0.0
C1056 C 0.0473 0.86769 0.55842 0.0
C1057 C 0.03254 0.85331 0.5931 0.0
C1058 C 0.0547 0.88646 0.54713 0.0
C1059 C 0.05858 0.9101 0.55921 0.0
C1060 C 0.0436 0.8726 0.58191 0.0
C1061 C 0.05632 0.91425 0.58319 0.0
C1062 C 0.0301 0.85753 0.617 0.0
C1063 C 0.01253 0.81298 0.58874 0.0
N1064 N 0.04869 0.89562 0.59373 0.0
N1065 N 0.02358 0.83128 0.57973 0.0
H1066 H 0.5527 0.87091 0.84029 0.0
H1067 H 0.43611 0.78141 0.8027 0.0
H1068 H 0.54379 0.79626 0.84318 0.0
H1069 H 0.45681 0.84929 0.78137 0.0
H1070 H 0.47375 0.78567 0.82072 0.0
H1071 H 0.51458 0.86339 0.82426 0.0
C1072 C 0.54258 0.85288 0.83732 0.0
C1073 C 0.55117 0.83403 0.84232 0.0
C1074 C 0.46994 0.79936 0.81175 0.0
C1075 C 0.50795 0.82509 0.82354 0.0
C1076 C 0.44864 0.79692 0.80144 0.0
C1077 C 0.44347 0.81504 0.79055 0.0
C1078 C 0.48576 0.82019 0.81133 0.0
C1079 C 0.46011 0.83474 0.78927 0.0
C1080 C 0.52092 0.84853 0.82816 0.0
C1081 C 0.5375 0.81108 0.83909 0.0
N1082 N 0.48044 0.83688 0.79977 0.0
N1083 N 0.51638 0.80708 0.8295 0.0
H1084 H 0.50279 0.20222 0.08421 0.0
H1085 H 0.50639 0.06631 0.05127 0.0
H1086 H 0.48794 0.15379 0.13222 0.0
H1087 H 0.54812 0.12245 0.02549 0.0
H1088 H 0.49385 0.09649 0.07743 0.0
H1089 H 0.51268 0.17077 0.05744 0.0
C1090 C 0.50103 0.18475 0.0888 0.0
C1091 C 0.49454 0.18044 0.11037 0.0
C1092 C 0.50582 0.10216 0.06612 0.0
C1093 C 0.50602 0.14479 0.08013 0.0
C1094 C 0.51298 0.08507 0.0514 0.0
C1095 C 0.52833 0.09229 0.03672 0.0
C1096 C 0.51371 0.12636 0.06541 0.0
C1097 C 0.53631 0.11653 0.03688 0.0
C1098 C 0.50698 0.167 0.07371 0.0
C1099 C 0.49291 0.1577 0.11571 0.0
N1100 N 0.52876 0.13287 0.051 0.0
N1101 N 0.49869 0.14061 0.10064 0.0
H1102 H 0.14083 0.29173 0.3317 0.0
H1103 H 0.25548 0.34286 0.29368 0.0
H1104 H 0.19112 0.34741 0.37626 0.0
H1105 H 0.21973 0.26955 0.26872 0.0
H1106 H 0.22693 0.34926 0.31724 0.0
H1107 H 0.16611 0.28683 0.30319 0.0
C1108 C 0.15739 0.30265 0.33555 0.0
C1109 C 0.16421 0.31985 0.35622 0.0
C1110 C 0.22525 0.33191 0.30629 0.0
C1111 C 0.19261 0.31488 0.32369 0.0
C1112 C 0.24132 0.32831 0.29254 0.0
C1113 C 0.24005 0.30555 0.27955 0.0
C1114 C 0.20786 0.31266 0.30675 0.0
C1115 C 0.22139 0.2873 0.2788 0.0
C1116 C 0.17164 0.29995 0.31929 0.0
C1117 C 0.18556 0.33375 0.36057 0.0
N1118 N 0.20601 0.29117 0.29259 0.0
N1119 N 0.19911 0.33111 0.34418 0.0
H1120 H 0.99978 0.07454 0.20838 0.0
H1121 H 0.99433 0.04464 0.06455 0.0
H1122 H 0.9387 0.05499 0.16302 0.0
H1123 H 0.05357 0.07139 0.11285 0.0
H1124 H 0.97342 0.04623 0.09878 0.0
H1125 H 0.01895 0.07165 0.17344 0.0
C1126 C 0.99019 0.06965 0.19118 0.0
C1127 C 0.96716 0.06515 0.18943 0.0
C1128 C 0.99103 0.05171 0.10192 0.0
C1129 C 0.98979 0.06154 0.14784 0.0
C1130 C 1.00311 0.0507 0.08212 0.0
C1131 C 0.0262 0.0579 0.08508 0.0
C1132 C 1.00177 0.05977 0.12541 0.0
C1133 C 0.036 0.06567 0.10894 0.0
C1134 C 1.00133 0.06797 0.17091 0.0
C1135 C 0.9563 0.05878 0.16593 0.0
N1136 N 0.02405 0.0663 0.12758 0.0
N1137 N 0.96749 0.05719 0.14653 0.0
H1138 H 0.25776 0.70398 0.489 0.0
H1139 H 0.27704 0.7512 0.38778 0.0
H1140 H 0.29514 0.66714 0.44403 0.0
H1141 H 0.20982 0.71147 0.37425 0.0
H1142 H 0.2841 0.72748 0.41694 0.0
H1143 H 0.23777 0.71152 0.45421 0.0
C1144 C 0.26187 0.6977 0.4718 0.0
C1145 C 0.27887 0.68612 0.46919 0.0
C1146 C 0.26785 0.72392 0.40744 0.0
C1147 C 0.25562 0.69368 0.43002 0.0
C1148 C 0.26378 0.73749 0.3912 0.0
C1149 C 0.24289 0.73301 0.379 0.0
C1150 C 0.25084 0.70614 0.41163 0.0
C1151 C 0.22606 0.7152 0.3837 0.0
C1152 C 0.24997 0.70125 0.45211 0.0
C1153 C 0.28275 0.67706 0.44664 0.0
N1154 N 0.23034 0.70228 0.40017 0.0
N1155 N 0.27159 0.68169 0.42776 0.0
H1156 H 0.62084 0.01152 0.67756 0.0
H1157 H 0.59333 0.07584 0.57279 0.0
H1158 H 0.66622 0.07137 0.66093 0.0
H1159 H 0.54902 0.01708 0.59242 0.0
H1160 H 0.62011 0.07603 0.60573 0.0
H1161 H 0.5943 0.01402 0.6462 0.0
C1162 C 0.62532 0.02486 0.66685 0.0
C1163 C 0.64565 0.04108 0.67148 0.0
C1164 C 0.60451 0.06316 0.60284 0.0
C1165 C 0.61542 0.0443 0.63585 0.0
C1166 C 0.58933 0.06302 0.58413 0.0
C1167 C 0.56931 0.04614 0.57999 0.0
C1168 C 0.59943 0.04619 0.61712 0.0
C1169 C 0.56445 0.0302 0.59513 0.0
C1170 C 0.61012 0.02647 0.64913 0.0
C1171 C 0.65075 0.05827 0.65746 0.0
N1172 N 0.57958 0.0305 0.61306 0.0
N1173 N 0.63555 0.05952 0.64015 0.0
H1174 H 0.33532 0.39504 0.94962 0.0
H1175 H 0.28284 0.28799 0.84731 0.0
H1176 H 0.30032 0.32898 0.96607 0.0
H1177 H 0.34421 0.33652 0.84492 0.0
H1178 H 0.28683 0.30226 0.89001 0.0
H1179 H 0.33646 0.37425 0.91013 0.0
C1180 C 0.32799 0.37603 0.9449 0.0
C1181 C 0.31768 0.36367 0.96103 0.0
C1182 C 0.29956 0.30945 0.88015 0.0
C1183 C 0.31872 0.3398 0.91571 0.0
C1184 C 0.29725 0.30146 0.85588 0.0
C1185 C 0.31318 0.31129 0.84273 0.0
C1186 C 0.31757 0.32785 0.89105 0.0
C1187 C 0.33162 0.3285 0.8545 0.0
C1188 C 0.32878 0.36417 0.92241 0.0
C1189 C 0.30851 0.33906 0.95409 0.0
N1190 N 0.33311 0.33659 0.87796 0.0
N1191 N 0.3089 0.3279 0.93167 0.0
H1192 H 1.0035 0.04346 0.32272 0.0
H1193 H 0.01069 0.07909 0.46406 0.0
H1194 H 0.95687 0.07858 0.35316 0.0
H1195 H 0.03873 0.02474 0.42883 0.0
H1196 H 0.9936 0.08315 0.42545 0.0
H1197 H 0.01903 0.04123 0.36175 0.0
C1198 C 0.99634 0.0509 0.33751 0.0
C1199 C 0.97837 0.0612 0.33371 0.0
C1200 C 1.00352 0.07036 0.42609 0.0
C1201 C 0.99705 0.0586 0.3803 0.0
C1202 C 0.01346 0.06806 0.44831 0.0
C1203 C 0.02644 0.05146 0.45029 0.0
C1204 C 0.00679 0.05645 0.40505 0.0
C1205 C 0.02898 0.03773 0.42875 0.0
C1206 C 0.00542 0.04947 0.36015 0.0
C1207 C 0.9706 0.07051 0.35451 0.0
N1208 N 0.01959 0.04069 0.40747 0.0
N1209 N 0.97989 0.06901 0.3766 0.0
H1210 H 0.27546 0.6635 0.62349 0.0
H1211 H 0.29719 0.80058 0.68237 0.0
H1212 H 0.29595 0.72119 0.58653 0.0
H1213 H 0.28492 0.74132 0.71876 0.0
H1214 H 0.28863 0.77197 0.64489 0.0
H1215 H 0.27095 0.69224 0.65668 0.0
C1216 C 0.27906 0.68225 0.62241 0.0
C1217 C 0.28659 0.69011 0.60257 0.0
C1218 C 0.28731 0.7654 0.66115 0.0
C1219 C 0.28134 0.72303 0.64029 0.0
C1220 C 0.29214 0.78165 0.68241 0.0
C1221 C 0.2917 0.77319 0.7035 0.0
C1222 C 0.28213 0.74082 0.66139 0.0
C1223 C 0.28515 0.74861 0.70287 0.0
C1224 C 0.27634 0.69864 0.64127 0.0
C1225 C 0.29068 0.71452 0.60186 0.0
N1226 N 0.28082 0.73328 0.68213 0.0
N1227 N 0.28818 0.73025 0.62063 0.0
H1228 H 0.67341 0.08605 0.81378 0.0
H1229 H 0.58375 0.1143 0.89101 0.0
H1230 H 0.60408 0.05484 0.79923 0.0
H1231 H 0.64515 0.10906 0.92574 0.0
H1232 H 0.598 0.1102 0.85402 0.0
H1233 H 0.66827 0.10629 0.85255 0.0
C1234 C 0.65719 0.08307 0.81891 0.0
C1235 C 0.63898 0.06903 0.80326 0.0
C1236 C 0.60861 0.11073 0.86988 0.0
C1237 C 0.6332 0.09271 0.84659 0.0
C1238 C 0.60065 0.11353 0.89124 0.0
C1239 C 0.61287 0.11054 0.91138 0.0
C1240 C 0.62883 0.10511 0.86885 0.0
C1241 C 0.63482 0.11011 0.91029 0.0
C1242 C 0.65434 0.09488 0.84079 0.0
C1243 C 0.61841 0.06584 0.81063 0.0
N1244 N 0.64195 0.10628 0.88902 0.0
N1245 N 0.61605 0.07784 0.83175 0.0
H1246 H 0.31926 0.39389 0.1282 0.0
H1247 H 0.28542 0.27607 0.18281 0.0
H1248 H 0.30745 0.32288 0.08681 0.0
H1249 H 0.30921 0.34666 0.22484 0.0
H1250 H 0.2923 0.29253 0.14734 0.0
H1251 H 0.31396 0.37676 0.16331 0.0
C1252 C 0.31576 0.37466 0.12648 0.0
C1253 C 0.31405 0.35986 0.10444 0.0
C1254 C 0.29599 0.30447 0.16427 0.0
C1255 C 0.30783 0.34 0.1449 0.0
C1256 C 0.292 0.2951 0.18451 0.0
C1257 C 0.2966 0.31013 0.20673 0.0
C1258 C 0.30427 0.32915 0.16619 0.0
C1259 C 0.30543 0.33453 0.20803 0.0
C1260 C 0.31271 0.36488 0.14662 0.0
C1261 C 0.30907 0.33503 0.1034 0.0
N1262 N 0.30878 0.34331 0.18804 0.0
N1263 N 0.30614 0.32589 0.12332 0.0
H1264 H 0.25904 0.98325 0.98396 0.0
H1265 H 0.17944 1.00844 0.07858 0.0
H1266 H 0.25134 0.94568 0.04153 0.0
H1267 H 0.18112 0.03388 0.01319 0.0
H1268 H 0.20865 0.98839 0.06855 0.0
H1269 H 0.23257 1.00506 0.99729 0.0
C1270 C 0.25132 0.97942 0.99922 0.0
C1271 C 0.25645 0.9624 0.01135 0.0
C1272 C 0.20258 0.99845 0.05652 0.0
C1273 C 0.22701 0.98746 0.02721 0.0
C1274 C 0.18612 1.00984 0.06226 0.0
C1275 C 0.17799 0.02237 0.04643 0.0
C1276 C 0.21071 1.00003 0.03503 0.0
C1277 C 0.18692 0.02401 0.02558 0.0
C1278 C 0.23644 0.99191 0.00698 0.0
C1279 C 0.24687 0.95825 0.03142 0.0
N1280 N 0.20278 0.01288 0.02044 0.0
N1281 N 0.23246 0.97085 0.03888 0.0
H1282 H 0.72586 0.62914 0.01519 0.0
H1283 H 0.59976 0.58555 0.96985 0.0
H1284 H 0.69377 0.66914 0.97363 0.0
H1285 H 0.62475 0.57689 0.03833 0.0
H1286 H 0.63495 0.61238 0.96763 0.0
H1287 H 0.6901 0.60588 0.02085 0.0
C1288 C 0.71129 0.63298 0.00717 0.0
C1289 C 0.71282 0.65108 0.99381 0.0
C1290 C 0.63268 0.60479 0.98324 0.0
C1291 C 0.67181 0.62414 0.99986 0.0
C1292 C 0.61263 0.5895 0.98451 0.0
C1293 C 0.60927 0.57923 1.00439 0.0
C1294 C 0.64984 0.60926 1.00165 0.0
C1295 C 0.62658 0.58473 0.02282 0.0
C1296 C 0.69089 0.61978 0.01054 0.0
C1297 C 0.69335 0.65537 0.98404 0.0
N1298 N 0.64623 0.59909 0.02087 0.0
N1299 N 0.67369 0.64179 0.98696 0.0
H1300 H 0.73904 0.46962 0.25393 0.0
H1301 H 0.73742 0.33395 0.27582 0.0
H1302 H 0.68685 0.42848 0.28298 0.0
H1303 H 0.79235 0.37887 0.25424 0.0
H1304 H 0.71836 0.3667 0.27717 0.0
H1305 H 0.75745 0.43645 0.2522 0.0
C1306 C 0.7313 0.45379 0.26012 0.0
C1307 C 0.71094 0.45276 0.26877 0.0
C1308 C 0.73455 0.36952 0.272 0.0
C1309 C 0.73283 0.41317 0.26682 0.0
C1310 C 0.74562 0.3505 0.27116 0.0
C1311 C 0.76702 0.35284 0.26488 0.0
C1312 C 0.74435 0.39175 0.2662 0.0
C1313 C 0.77614 0.3755 0.25932 0.0
C1314 C 0.74202 0.43452 0.25909 0.0
C1315 C 0.7023 0.43087 0.27612 0.0
N1316 N 0.76497 0.39348 0.25999 0.0
N1317 N 0.71307 0.4125 0.27503 0.0
H1318 H 0.88099 0.47486 0.55229 0.0
H1319 H 0.97511 0.51409 0.47772 0.0
H1320 H 0.87735 0.44781 0.47804 0.0
H1321 H 0.98964 0.5089 0.55038 0.0
H1322 H 0.93679 0.49673 0.47925 0.0
H1323 H 0.92014 0.49214 0.55367 0.0
C1324 C 0.88864 0.47224 0.53648 0.0
C1325 C 0.87636 0.46028 0.51501 0.0
C1326 C 0.94849 0.49922 0.49475 0.0
C1327 C 0.9199 0.48028 0.51623 0.0
C1328 C 0.97022 0.50901 0.49387 0.0
C1329 C 0.98538 0.51208 0.51375 0.0
C1330 C 0.9422 0.49251 0.51558 0.0
C1331 C 0.97832 0.50633 0.53461 0.0
C1332 C 0.91071 0.48212 0.53722 0.0
C1333 C 0.88654 0.45696 0.49489 0.0
N1334 N 0.95704 0.49656 0.53499 0.0
N1335 N 0.90784 0.4674 0.49588 0.0
H1336 H 0.41967 0.10724 0.27157 0.0
H1337 H 0.30287 0.13427 0.25066 0.0
H1338 H 0.36315 0.07096 0.29862 0.0
H1339 H 0.36085 0.1746 0.22955 0.0
H1340 H 0.32358 0.10711 0.26357 0.0
H1341 H 0.39741 0.129 0.25216 0.0
C1342 C 0.40264 0.10452 0.27408 0.0
C1343 C 0.39322 0.08798 0.28729 0.0
C1344 C 0.33169 0.12153 0.2556 0.0
C1345 C 0.36764 0.1124 0.26481 0.0
C1346 C 0.31985 0.13677 0.24802 0.0
C1347 C 0.33031 0.15623 0.23888 0.0
C1348 C 0.35407 0.12601 0.254 0.0
C1349 C 0.35237 0.15949 0.23636 0.0
C1350 C 0.38989 0.11663 0.26267 0.0
C1351 C 0.37096 0.08405 0.28898 0.0
N1352 N 0.36365 0.14451 0.24406 0.0
N1353 N 0.35884 0.0964 0.27795 0.0
H1354 H 0.34959 0.16714 0.48286 0.0
H1355 H 0.4315 0.11769 0.56416 0.0
H1356 H 0.33903 0.15199 0.55144 0.0
H1357 H 0.43372 0.11542 0.48996 0.0
H1358 H 0.4019 0.13812 0.56204 0.0
H1359 H 0.38491 0.15629 0.48755 0.0
C1360 C 0.35488 0.16194 0.49902 0.0
C1361 C 0.34127 0.16006 0.51662 0.0
C1362 C 0.40903 0.13336 0.54626 0.0
C1363 C 0.38145 0.14783 0.52219 0.0
C1364 C 0.4259 0.1216 0.54745 0.0
C1365 C 0.43506 0.11453 0.52716 0.0
C1366 C 0.40119 0.13818 0.52465 0.0
C1367 C 0.42736 0.12063 0.50611 0.0
C1368 C 0.37493 0.15564 0.50166 0.0
C1369 C 0.34887 0.15324 0.53725 0.0
N1370 N 0.41078 0.13189 0.50537 0.0
N1371 N 0.36834 0.14729 0.53941 0.0
H1372 H 0.73893 0.60265 0.29354 0.0
H1373 H 0.74846 0.73186 0.25313 0.0
H1374 H 0.68584 0.62041 0.25454 0.0
H1375 H 0.80081 0.71395 0.29313 0.0
H1376 H 0.72516 0.69186 0.25366 0.0
H1377 H 0.76165 0.64296 0.2935 0.0
C1378 C 0.73199 0.61473 0.28476 0.0
C1379 C 0.71008 0.60747 0.27407 0.0
C1380 C 0.74169 0.69676 0.26258 0.0
C1381 C 0.73648 0.65465 0.27395 0.0
C1382 C 0.75503 0.71991 0.26246 0.0
C1383 C 0.77688 0.72696 0.27337 0.0
C1384 C 0.74998 0.68013 0.27375 0.0
C1385 C 0.78421 0.7098 0.28452 0.0
C1386 C 0.74503 0.63803 0.28483 0.0
C1387 C 0.70241 0.62471 0.26324 0.0
N1388 N 0.77105 0.68768 0.28443 0.0
N1389 N 0.71535 0.647 0.26345 0.0
H1390 H 0.90968 0.4443 0.7435 0.0
H1391 H 0.82025 0.37654 0.8104 0.0
H1392 H 0.90982 0.46099 0.81851 0.0
H1393 H 0.81556 0.3676 0.73481 0.0
H1394 H 0.85028 0.4112 0.81392 0.0
H1395 H 0.87502 0.41507 0.74024 0.0
C1396 C 0.90276 0.44103 0.75934 0.0
C1397 C 0.91219 0.45489 0.78124 0.0
C1398 C 0.84238 0.40198 0.79654 0.0
C1399 C 0.87252 0.42294 0.77767 0.0
C1400 C 0.82499 0.38241 0.79451 0.0
C1401 C 0.81653 0.36851 0.77225 0.0
C1402 C 0.85089 0.40735 0.77615 0.0
C1403 C 0.8226 0.37731 0.7523 0.0
C1404 C 0.88275 0.42496 0.75745 0.0
C1405 C 0.9027 0.45051 0.80132 0.0
N1406 N 0.84008 0.39587 0.75468 0.0
N1407 N 0.88309 0.43503 0.79904 0.0
H1408 H 0.11332 0.90696 0.10335 0.0
H1409 H 0.03067 0.95732 0.02459 0.0
H1410 H 0.05659 0.86016 0.05988 0.0
H1411 H 0.09669 0.99596 0.05211 0.0
H1412 H 0.03806 0.92205 0.03861 0.0
H1413 H 0.10588 0.94027 0.08619 0.0
C1414 C 0.09929 0.90371 0.09013 0.0
C1415 C 0.08567 0.88072 0.08295 0.0
C1416 C 0.05093 0.93823 0.04139 0.0
C1417 C 0.07664 0.91904 0.06347 0.0
C1418 C 0.04674 0.9584 0.03338 0.0
C1419 C 0.06305 0.97982 0.03716 0.0
C1420 C 0.07153 0.9395 0.05345 0.0
C1421 C 0.08352 0.98003 0.04879 0.0
C1422 C 0.09503 0.92273 0.08029 0.0
C1423 C 0.06768 0.87756 0.06571 0.0
N1424 N 0.08707 0.96035 0.05658 0.0
N1425 N 0.06354 0.89653 0.05673 0.0
H1426 H 0.93004 0.24715 0.87468 0.0
H1427 H 0.87784 0.32831 0.79795 0.0
H1428 H 0.96278 0.31549 0.86111 0.0
H1429 H 0.83693 0.26638 0.81571 0.0
H1430 H 0.90825 0.32367 0.82377 0.0
H1431 H 0.89521 0.25297 0.85606 0.0
C1432 C 0.92996 0.26339 0.8681 0.0
C1433 C 0.94965 0.28061 0.86916 0.0
C1434 C 0.89261 0.31123 0.82262 0.0
C1435 C 0.90993 0.28743 0.84792 0.0
C1436 C 0.87507 0.31413 0.80798 0.0
C1437 C 0.85456 0.29822 0.80511 0.0
C1438 C 0.89015 0.29175 0.83432 0.0
C1439 C 0.85229 0.27954 0.81794 0.0
C1440 C 0.91008 0.26669 0.8574 0.0
C1441 C 0.94833 0.30134 0.86035 0.0
N1442 N 0.8699 0.27664 0.83177 0.0
N1443 N 0.92915 0.30399 0.85016 0.0
H1444 H 0.61742 0.24564 0.56831 0.0
H1445 H 0.53155 0.11876 0.53574 0.0
H1446 H 0.55297 0.23142 0.58864 0.0
H1447 H 0.59968 0.1279 0.52759 0.0
H1448 H 0.53766 0.16165 0.54834 0.0
H1449 H 0.60942 0.20449 0.54578 0.0
C1450 C 0.60137 0.23402 0.56735 0.0
C1451 C 0.58567 0.24176 0.57994 0.0
C1452 C 0.55125 0.15437 0.54353 0.0
C1453 C 0.57667 0.19491 0.55513 0.0
C1454 C 0.54777 0.12981 0.53624 0.0
C1455 C 0.56515 0.11968 0.53059 0.0
C1456 C 0.57225 0.16907 0.54509 0.0
C1457 C 0.58584 0.13497 0.53187 0.0
C1458 C 0.5969 0.21055 0.55479 0.0
C1459 C 0.56531 0.22608 0.57878 0.0
N1460 N 0.58885 0.15896 0.53907 0.0
N1461 N 0.56145 0.20332 0.56676 0.0
H1462 H 0.56765 0.74916 0.36222 0.0
H1463 H 0.67908 0.83811 0.35012 0.0
H1464 H 0.59223 0.81532 0.41189 0.0
H1465 H 0.66515 0.76181 0.32637 0.0
H1466 H 0.64602 0.83271 0.36979 0.0
H1467 H 0.60186 0.75602 0.3453 0.0
C1468 C 0.58027 0.76517 0.36951 0.0
C1469 C 0.57716 0.78161 0.38851 0.0
C1470 C 0.65039 0.8172 0.36043 0.0
C1471 C 0.6163 0.78983 0.36901 0.0
C1472 C 0.66918 0.82025 0.34915 0.0
C1473 C 0.675 0.80034 0.33667 0.0
C1474 C 0.63712 0.79414 0.35873 0.0
C1475 C 0.66155 0.77764 0.33603 0.0
C1476 C 0.59982 0.76906 0.35993 0.0
C1477 C 0.5941 0.80208 0.39735 0.0
N1478 N 0.64323 0.77521 0.34667 0.0
N1479 N 0.61291 0.80576 0.38739 0.0
H1480 H 0.08056 0.29147 0.45497 0.0
H1481 H 0.05663 0.15051 0.44446 0.0
H1482 H 0.09174 0.24389 0.39483 0.0
H1483 H 0.04242 0.19886 0.50222 0.0
H1484 H 0.0659 0.1837 0.42374 0.0
H1485 H 0.06339 0.25697 0.47088 0.0
C1486 C 0.07954 0.27369 0.44528 0.0
C1487 C 0.08768 0.27031 0.42379 0.0
C1488 C 0.06039 0.18691 0.44078 0.0
C1489 C 0.06817 0.23093 0.44167 0.0
C1490 C 0.05515 0.16802 0.45261 0.0
C1491 C 0.04902 0.17204 0.47521 0.0
C1492 C 0.05957 0.20988 0.45176 0.0
C1493 C 0.04696 0.19491 0.4848 0.0
C1494 C 0.06959 0.25403 0.45419 0.0
C1495 C 0.08563 0.24706 0.41154 0.0
N1496 N 0.0525 0.21304 0.47313 0.0
N1497 N 0.07622 0.22815 0.42079 0.0
H1498 H 0.5641 0.2304 0.16866 0.0
H1499 H 0.66943 0.3088 0.24529 0.0
H1500 H 0.5632 0.30086 0.20432 0.0
H1501 H 0.64769 0.23383 0.24681 0.0
H1502 H 0.63253 0.30836 0.22794 0.0
H1503 H 0.59794 0.23287 0.19374 0.0
C1504 C 0.57128 0.24645 0.18165 0.0
C1505 C 0.56135 0.26556 0.18458 0.0
C1506 C 0.63583 0.29224 0.23269 0.0
C1507 C 0.59942 0.26851 0.21294 0.0
C1508 C 0.6567 0.29249 0.24253 0.0
C1509 C 0.66132 0.27133 0.24742 0.0
C1510 C 0.62001 0.27056 0.22725 0.0
C1511 C 0.64457 0.25051 0.24345 0.0
C1512 C 0.59027 0.24775 0.19606 0.0
C1513 C 0.57074 0.2859 0.20176 0.0
N1514 N 0.62465 0.25051 0.2331 0.0
N1515 N 0.58961 0.28704 0.21526 0.0
H1516 H 0.63729 0.9115 0.95056 0.0
H1517 H 0.54637 0.98352 0.9693 0.0
H1518 H 0.59205 0.91665 0.89288 0.0
H1519 H 0.6054 0.99665 0.01758 0.0
H1520 H 0.56151 0.95767 0.94103 0.0
H1521 H 0.62484 0.94209 0.97595 0.0
C1522 C 0.62505 0.91954 0.94325 0.0
C1523 C 0.61594 0.91221 0.91974 0.0
C1524 C 0.57115 0.96641 0.95775 0.0
C1525 C 0.60105 0.94615 0.94847 0.0
C1526 C 0.56252 0.981 0.97382 0.0
C1527 C 0.5747 0.99192 0.99569 0.0
C1528 C 0.5919 0.96276 0.96393 0.0
C1529 C 0.59547 0.98827 1.00093 0.0
C1530 C 0.61787 0.93683 0.95764 0.0
C1531 C 0.59978 0.92252 0.91091 0.0
N1532 N 0.6034 0.97385 0.98517 0.0
N1533 N 0.59256 0.93886 0.92543 0.0
H1534 H 0.95106 0.73989 0.72885 0.0
H1535 H 0.8494 0.79734 0.71924 0.0
H1536 H 0.92785 0.76178 0.66578 0.0
H1537 H 0.87521 0.77778 0.78223 0.0
H1538 H 0.87955 0.78729 0.69983 0.0
H1539 H 0.92385 0.75503 0.7488 0.0
C1540 C 0.93992 0.74747 0.71903 0.0
C1541 C 0.94162 0.74958 0.69563 0.0
C1542 C 0.8789 0.78561 0.71802 0.0
C1543 C 0.91064 0.76723 0.71851 0.0
C1544 C 0.86188 0.79146 0.72905 0.0
C1545 C 0.86023 0.78812 0.75207 0.0
C1546 C 0.89411 0.77648 0.73034 0.0
C1547 C 0.87621 0.7803 0.76431 0.0
C1548 C 0.92456 0.7564 0.73055 0.0
C1549 C 0.92701 0.75988 0.68388 0.0
N1550 N 0.89262 0.77458 0.75318 0.0
N1551 N 0.91201 0.76839 0.69552 0.0
H1552 H 0.15018 1.00908 0.86352 0.0
H1553 H 0.05747 0.05171 0.93797 0.0
H1554 H 0.10737 0.05114 0.84104 0.0
H1555 H 0.10336 0.01817 0.96945 0.0
H1556 H 0.07591 0.05043 0.90272 0.0
H1557 H 0.13407 1.01027 0.90104 0.0
C1558 C 0.13753 0.0186 0.86616 0.0
C1559 C 0.13062 0.03012 0.84819 0.0
C1560 C 0.08237 0.0436 0.91732 0.0
C1561 C 0.11157 0.03158 0.89236 0.0
C1562 C 0.07184 0.04459 0.9379 0.0
C1563 C 0.07901 0.03601 0.95786 0.0
C1564 C 0.10046 0.0333 0.91543 0.0
C1565 C 0.09739 0.02601 0.95538 0.0
C1566 C 0.12824 0.01932 0.88792 0.0
C1567 C 0.1138 0.04192 0.85365 0.0
N1568 N 0.10723 0.02491 0.93491 0.0
N1569 N 0.10518 0.04227 0.87459 0.0
H1570 H 0.83503 0.37969 0.54395 0.0
H1571 H 0.85134 0.39264 0.68026 0.0
H1572 H 0.82426 0.43961 0.59141 0.0
H1573 H 0.86624 0.33631 0.63134 0.0
H1574 H 0.85192 0.41645 0.64953 0.0
H1575 H 0.8555 0.36926 0.57637 0.0
C1576 C 0.83677 0.39043 0.56138 0.0
C1577 C 0.82733 0.40992 0.5654 0.0
C1578 C 0.85575 0.39919 0.64575 0.0
C1579 C 0.85072 0.39826 0.60254 0.0
C1580 C 0.85543 0.38562 0.66328 0.0
C1581 C 0.85785 0.36213 0.65798 0.0
C1582 C 0.85832 0.38895 0.62294 0.0
C1583 C 0.86385 0.35415 0.63607 0.0
C1584 C 0.84875 0.38476 0.57981 0.0
C1585 C 0.83086 0.42402 0.58792 0.0
N1586 N 0.86328 0.36731 0.61911 0.0
N1587 N 0.84192 0.4176 0.60587 0.0
H1588 H 0.47594 0.99234 0.34983 0.0
H1589 H 0.53541 0.07828 0.46134 0.0
H1590 H 0.45978 0.05995 0.37079 0.0
H1591 H 0.52534 1.00205 0.45488 0.0
H1592 H 0.50471 0.0717 0.43014 0.0
H1593 H 0.4897 0.99352 0.39043 0.0
C1594 C 0.47506 1.00727 0.36319 0.0
C1595 C 0.46771 0.02656 0.35722 0.0
C1596 C 0.50914 0.05645 0.43573 0.0
C1597 C 0.48358 0.02833 0.40317 0.0
C1598 C 0.52688 0.06024 0.45294 0.0
C1599 C 0.53311 0.0406 0.45947 0.0
C1600 C 0.49826 0.03292 0.42501 0.0
C1601 C 0.52116 0.01751 0.44944 0.0
C1602 C 0.48268 1.00787 0.38633 0.0
C1603 C 0.46602 0.04512 0.37493 0.0
N1604 N 0.50443 0.01423 0.4323 0.0
N1605 N 0.47464 0.04598 0.39726 0.0
H1606 H 0.81437 0.71568 0.08559 0.0
H1607 H 0.77054 0.79697 0.18611 0.0
H1608 H 0.76262 0.74953 0.06937 0.0
H1609 H 0.81402 0.75147 0.19719 0.0
H1610 H 0.76983 0.78479 0.14327 0.0
H1611 H 0.81857 0.73556 0.12645 0.0
C1612 C 0.80432 0.72795 0.09063 0.0
C1613 C 0.78825 0.73117 0.07425 0.0
C1614 C 0.77948 0.77756 0.1552 0.0
C1615 C 0.79217 0.75322 0.12124 0.0
C1616 C 0.77974 0.78433 0.17955 0.0
C1617 C 0.79247 0.77533 0.19518 0.0
C1618 C 0.79197 0.76169 0.14669 0.0
C1619 C 0.80423 0.75916 0.18585 0.0
C1620 C 0.80649 0.73907 0.11402 0.0
C1621 C 0.77534 0.74687 0.08161 0.0
N1622 N 0.80369 0.75293 0.16234 0.0
N1623 N 0.77736 0.75715 0.10476 0.0
H1624 H 0.15453 0.05664 0.70318 0.0
H1625 H 0.07368 0.99646 0.58212 0.0
H1626 H 0.11374 0.98558 0.69333 0.0
H1627 H 0.09526 0.07263 0.6051 0.0
H1628 H 0.09036 0.99121 0.62027 0.0
H1629 H 0.13566 0.06199 0.66625 0.0
C1630 C 0.14168 0.04201 0.69328 0.0
C1631 C 0.13602 0.02055 0.70192 0.0
C1632 C 0.09148 1.00911 0.61707 0.0
C1633 C 0.1142 0.02646 0.65819 0.0
C1634 C 0.08191 0.01218 0.59504 0.0
C1635 C 0.0828 0.03511 0.58975 0.0
C1636 C 0.10276 0.02904 0.6344 0.0
C1637 C 0.09387 0.05454 0.60786 0.0
C1638 C 0.13078 0.04515 0.67201 0.0
C1639 C 0.11888 1.00252 0.68785 0.0
N1640 N 0.10343 0.05108 0.62887 0.0
N1641 N 0.10896 1.00575 0.66686 0.0
H1642 H 0.79924 0.36079 0.44576 0.0
H1643 H 0.82206 0.34643 0.31576 0.0
H1644 H 0.83115 0.41954 0.41521 0.0
H1645 H 0.8065 0.28615 0.35033 0.0
H1646 H 0.83049 0.37304 0.3534 0.0
H1647 H 0.80548 0.33293 0.41266 0.0
C1648 C 0.80754 0.36783 0.43205 0.0
C1649 C 0.81417 0.39248 0.43284 0.0
C1650 C 0.82577 0.35399 0.35295 0.0
C1651 C 0.82161 0.36075 0.39523 0.0
C1652 C 0.82114 0.33869 0.33138 0.0
C1653 C 0.81374 0.31404 0.33002 0.0
C1654 C 0.82216 0.34464 0.37325 0.0
C1655 C 0.81211 0.30511 0.35077 0.0
C1656 C 0.81134 0.35191 0.41334 0.0
C1657 C 0.82534 0.40065 0.41499 0.0
N1658 N 0.81586 0.32053 0.37168 0.0
N1659 N 0.82848 0.38476 0.39671 0.0
H1660 H 0.4908 0.04741 0.23837 0.0
H1661 H 0.46226 0.96896 0.11553 0.0
H1662 H 0.4253 1.00485 0.21438 0.0
H1663 H 0.52675 0.98688 0.15445 0.0
H1664 H 0.44725 0.97528 0.1526 0.0
H1665 H 0.504 0.02216 0.20815 0.0
C1666 C 0.47924 0.03282 0.2266 0.0
C1667 C 0.45698 0.02862 0.22829 0.0
C1668 C 0.46461 0.9769 0.15303 0.0
C1669 C 0.47183 0.99922 0.19433 0.0
C1670 C 0.47312 0.97306 0.1319 0.0
C1671 C 0.49576 0.97812 0.13197 0.0
C1672 C 0.47902 0.98626 0.17393 0.0
C1673 C 0.50919 0.98312 0.15358 0.0
C1674 C 0.48676 0.01814 0.20968 0.0
C1675 C 0.44257 1.00921 0.21304 0.0
N1676 N 0.50068 0.98797 0.17374 0.0
N1677 N 0.45025 0.9953 0.19646 0.0
H1678 H 0.79586 0.76386 0.95087 0.0
H1679 H 0.78446 0.74662 0.81081 0.0
H1680 H 0.78531 0.69453 0.90645 0.0
H1681 H 0.81559 0.81329 0.85702 0.0
H1682 H 0.78203 0.72697 0.84485 0.0
H1683 H 0.80011 0.78229 0.91623 0.0
C1684 C 0.79447 0.75248 0.93384 0.0
C1685 C 0.7902 0.72756 0.93165 0.0
C1686 C 0.78959 0.74587 0.84747 0.0
C1687 C 0.79487 0.74863 0.89169 0.0
C1688 C 0.79131 0.75701 0.82787 0.0
C1689 C 0.80105 0.78146 0.8307 0.0
C1690 C 0.79701 0.75946 0.87022 0.0
C1691 C 0.80824 0.79431 0.85378 0.0
C1692 C 0.79693 0.76304 0.91404 0.0
C1693 C 0.7886 0.7138 0.90903 0.0
N1694 N 0.806 0.78325 0.87253 0.0
N1695 N 0.79079 0.72448 0.88996 0.0
H1696 H 0.82972 0.0787 0.03883 0.0
H1697 H 0.9405 0.10116 0.9833 0.0
H1698 H 0.85333 0.14229 0.0109 0.0
H1699 H 0.90486 0.03235 0.99303 0.0
H1700 H 0.90974 0.11798 0.99423 0.0
H1701 H 0.85964 0.06305 0.02492 0.0
C1702 C 0.8413 0.08944 0.02996 0.0
C1703 C 0.83903 0.1117 0.0259 0.0
C1704 C 0.90863 0.09914 0.99365 0.0
C1705 C 0.87295 0.09385 0.00965 0.0
C1706 C 0.92601 0.08963 0.98732 0.0
C1707 C 0.92486 0.06543 0.98717 0.0
C1708 C 0.89057 0.08433 1.00039 0.0
C1709 C 0.90605 0.05103 0.99265 0.0
C1710 C 0.85823 0.08043 0.02182 0.0
C1711 C 0.8545 0.12495 0.01434 0.0
N1712 N 0.8897 0.06079 0.99934 0.0
N1713 N 0.87085 0.11575 0.00651 0.0
H1714 H 0.38117 0.47482 0.01172 0.0
H1715 H 0.5069 0.49065 0.05894 0.0
H1716 H 0.40133 0.42792 0.05458 0.0
H1717 H 0.48352 0.52624 0.00646 0.0
H1718 H 0.46931 0.46713 0.05822 0.0
H1719 H 0.41887 0.49358 0.01067 0.0
C1720 C 0.39351 0.46843 0.02111 0.0
C1721 C 0.38776 0.44976 0.03353 0.0
C1722 C 0.47242 0.47997 0.04677 0.0
C1723 C 0.43187 0.47166 0.03225 0.0
C1724 C 0.49384 0.49336 0.04717 0.0
C1725 C 0.49827 0.51027 0.03264 0.0
C1726 C 0.45526 0.48398 0.03212 0.0
C1727 C 0.48084 0.5132 0.01776 0.0
C1728 C 0.41524 0.47921 0.02036 0.0
C1729 C 0.40486 0.44232 0.04494 0.0
N1730 N 0.46018 0.50039 0.01805 0.0
N1731 N 0.42615 0.45341 0.04417 0.0
H1732 H 0.40568 0.65041 0.79881 0.0
H1733 H 0.33839 0.72895 0.72955 0.0
H1734 H 0.38015 0.62811 0.72561 0.0
H1735 H 0.34316 0.73524 0.80449 0.0
H1736 H 0.35707 0.69586 0.72759 0.0
H1737 H 0.387 0.68351 0.80113 0.0
C1738 C 0.39633 0.65231 0.78304 0.0
C1739 C 0.39491 0.63552 0.76193 0.0
C1740 C 0.35417 0.70438 0.74457 0.0
C1741 C 0.37307 0.67529 0.76444 0.0
C1742 C 0.34341 0.72366 0.74575 0.0
C1743 C 0.33889 0.73581 0.76728 0.0
C1744 C 0.36117 0.69648 0.76509 0.0
C1745 C 0.3461 0.72715 0.78735 0.0
C1746 C 0.38545 0.67153 0.78444 0.0
C1747 C 0.38205 0.63989 0.74246 0.0
N1748 N 0.35673 0.70862 0.78577 0.0
N1749 N 0.37213 0.65898 0.74415 0.0
H1750 H 0.22054 0.61095 0.47959 0.0
H1751 H 0.12307 0.58446 0.55478 0.0
H1752 H 0.22801 0.62235 0.55523 0.0
H1753 H 0.11478 0.57031 0.47878 0.0
H1754 H 0.16221 0.59414 0.55504 0.0
H1755 H 0.18208 0.59106 0.47843 0.0
C1756 C 0.21396 0.6088 0.49584 0.0
C1757 C 0.22675 0.61818 0.51751 0.0
C1758 C 0.15184 0.58892 0.53829 0.0
C1759 C 0.1837 0.59602 0.51655 0.0
C1760 C 0.12951 0.58368 0.53814 0.0
C1761 C 0.1158 0.57716 0.51671 0.0
C1762 C 0.16037 0.58785 0.51688 0.0
C1763 C 0.12489 0.57574 0.49567 0.0
C1764 C 0.19221 0.59757 0.49526 0.0
C1765 C 0.21813 0.61537 0.53829 0.0
N1766 N 0.14676 0.58125 0.49628 0.0
N1767 N 0.19691 0.60459 0.53733 0.0
H1768 H 0.68942 0.99864 0.78301 0.0
H1769 H 0.79673 0.95075 0.78706 0.0
H1770 H 0.74222 0.02103 0.74362 0.0
H1771 H 0.73818 0.9168 0.81232 0.0
H1772 H 0.77884 0.98066 0.77599 0.0
H1773 H 0.70899 0.97213 0.79854 0.0
C1774 C 0.70516 0.99782 0.77759 0.0
C1775 C 0.71438 0.01178 0.76206 0.0
C1776 C 0.77005 0.96703 0.78444 0.0
C1777 C 0.73664 0.98174 0.77963 0.0
C1778 C 0.78033 0.95027 0.79111 0.0
C1779 C 0.76897 0.93199 0.80124 0.0
C1780 C 0.74834 0.9654 0.78804 0.0
C1781 C 0.74746 0.93114 0.80506 0.0
C1782 C 0.71628 0.98278 0.78647 0.0
C1783 C 0.73481 0.01052 0.75573 0.0
N1784 N 0.73771 0.94775 0.79838 0.0
N1785 N 0.74533 0.99552 0.76452 0.0
H1786 H 0.76372 0.94148 0.5669 0.0
H1787 H 0.67234 0.96519 0.47652 0.0
H1788 H 0.74835 0.90117 0.49605 0.0
H1789 H 0.67506 0.98172 0.55189 0.0
H1790 H 0.70167 0.94422 0.48151 0.0
H1791 H 0.73276 0.95907 0.56015 0.0
C1792 C 0.75372 0.9363 0.54992 0.0
C1793 C 0.75845 0.91977 0.5321 0.0
C1794 C 0.69562 0.95226 0.49687 0.0
C1795 C 0.72318 0.94023 0.52395 0.0
C1796 C 0.67898 0.96431 0.49406 0.0
C1797 C 0.67105 0.97509 0.51383 0.0
C1798 C 0.70464 0.95144 0.51962 0.0
C1799 C 0.68029 0.97336 0.53612 0.0
C1800 C 0.73603 0.9463 0.54604 0.0
C1801 C 0.74501 0.91366 0.51035 0.0
N1802 N 0.6966 0.96198 0.53837 0.0
N1803 N 0.72806 0.92409 0.50676 0.0
H1804 H 0.41496 0.46048 0.73997 0.0
H1805 H 0.30792 0.38664 0.7854 0.0
H1806 H 0.36873 0.49391 0.77329 0.0
H1807 H 0.35223 0.35132 0.75065 0.0
H1808 H 0.33071 0.42528 0.78218 0.0
H1809 H 0.39342 0.42131 0.74417 0.0
C1810 C 0.40022 0.4598 0.74811 0.0
C1811 C 0.39393 0.48127 0.75605 0.0
C1812 C 0.3357 0.40923 0.77533 0.0
C1813 C 0.36865 0.43508 0.76126 0.0
C1814 C 0.32261 0.38683 0.77725 0.0
C1815 C 0.32786 0.36498 0.76861 0.0
C1816 C 0.35467 0.41069 0.76433 0.0
C1817 C 0.34733 0.3672 0.75812 0.0
C1818 C 0.38785 0.4371 0.75055 0.0
C1819 C 0.37449 0.47836 0.76656 0.0
N1820 N 0.35977 0.38935 0.75623 0.0
N1821 N 0.36281 0.45608 0.76882 0.0
H1822 H 0.17397 0.64187 0.22048 0.0
H1823 H 0.283 0.72098 0.29622 0.0
H1824 H 0.1949 0.63299 0.29036 0.0
H1825 H 0.26663 0.71687 0.22184 0.0
H1826 H 0.25262 0.68677 0.29473 0.0
H1827 H 0.2072 0.67277 0.22274 0.0
C1828 C 0.18515 0.64726 0.23669 0.0
C1829 C 0.18222 0.63481 0.25505 0.0
C1830 C 0.25594 0.69308 0.27866 0.0
C1831 C 0.22036 0.66866 0.25731 0.0
C1832 C 0.2733 0.71239 0.27948 0.0
C1833 C 0.27601 0.72241 0.25943 0.0
C1834 C 0.24174 0.68419 0.25762 0.0
C1835 C 0.26422 0.71012 0.23787 0.0
C1836 C 0.2044 0.66426 0.23772 0.0
C1837 C 0.19702 0.64221 0.27574 0.0
N1838 N 0.24693 0.6919 0.23762 0.0
N1839 N 0.2159 0.65842 0.27615 0.0
H1840 H 0.50754 0.68027 0.41998 0.0
H1841 H 0.5633 0.63507 0.52767 0.0
H1842 H 0.53575 0.72799 0.48558 0.0
H1843 H 0.51995 0.58847 0.46889 0.0
H1844 H 0.55638 0.66975 0.51203 0.0
H1845 H 0.51514 0.64697 0.43685 0.0
C1846 C 0.51516 0.68376 0.43803 0.0
C1847 C 0.52073 0.70704 0.45139 0.0
C1848 C 0.54838 0.65192 0.50262 0.0
C1849 C 0.52976 0.66869 0.47093 0.0
C1850 C 0.55235 0.63212 0.51151 0.0
C1851 C 0.54207 0.60877 0.49967 0.0
C1852 C 0.53436 0.64834 0.48149 0.0
C1853 C 0.52805 0.60606 0.4788 0.0
C1854 C 0.51955 0.66468 0.44767 0.0
C1855 C 0.53093 0.71035 0.47464 0.0
N1856 N 0.52475 0.62551 0.47037 0.0
N1857 N 0.53515 0.69144 0.48364 0.0
H1858 H 0.63989 0.28601 0.66707 0.0
H1859 H 0.76443 0.33064 0.72876 0.0
H1860 H 0.68152 0.35228 0.65904 0.0
H1861 H 0.72213 0.26282 0.73111 0.0
H1862 H 0.73581 0.33845 0.70162 0.0
H1863 H 0.67073 0.27681 0.68877 0.0
C1864 C 0.65552 0.29876 0.67003 0.0
C1865 C 0.65796 0.32008 0.66138 0.0
C1866 C 0.73298 0.32159 0.70757 0.0
C1867 C 0.69381 0.30969 0.68665 0.0
C1868 C 0.74946 0.31698 0.72283 0.0
C1869 C 0.74594 0.2957 0.73171 0.0
C1870 C 0.71272 0.30483 0.70117 0.0
C1871 C 0.72577 0.2792 0.72432 0.0
C1872 C 0.67326 0.29343 0.68239 0.0
C1873 C 0.67886 0.33563 0.66538 0.0
N1874 N 0.71004 0.28409 0.70962 0.0
N1875 N 0.69588 0.33028 0.67791 0.0
H1876 H 0.99566 0.35518 0.93114 0.0
H1877 H 0.06833 0.46577 0.02269 0.0
H1878 H 0.04758 0.34781 0.98023 0.0
H1879 H 0.00495 0.4653 0.98848 0.0
H1880 H 0.06087 0.42255 0.00873 0.0
H1881 H 0.99822 0.39523 0.95315 0.0
C1882 C 0.00733 0.36195 0.9469 0.0
C1883 C 0.02135 0.34832 0.95405 0.0
C1884 C 0.0485 0.43187 1.00457 0.0
C1885 C 0.02489 0.39436 0.97897 0.0
C1886 C 0.05276 0.45654 0.01245 0.0
C1887 C 0.03729 0.46919 0.00661 0.0
C1888 C 0.02879 0.41984 0.9904 0.0
C1889 C 0.01735 0.45631 0.99343 0.0
C1890 C 0.00883 0.3848 0.95944 0.0
C1891 C 0.03637 0.35782 0.97438 0.0
N1892 N 0.01381 0.43242 0.9855 0.0
N1893 N 0.038 0.3805 0.986 0.0
H1894 H 0.02326 0.8308 0.14622 0.0
H1895 H 0.92684 0.74624 0.19516 0.0
H1896 H 0.02676 0.76339 0.16507 0.0
H1897 H 0.93126 0.82105 0.19583 0.0
H1898 H 0.9596 0.74928 0.1756 0.0
H1899 H 0.98565 0.82442 0.15585 0.0
C1900 C 0.01603 0.81458 0.15212 0.0
C1901 C 0.02826 0.79787 0.15541 0.0
C1902 C 0.95324 0.76496 0.17983 0.0
C1903 C 0.98537 0.79028 0.16606 0.0
C1904 C 0.93457 0.76326 0.19108 0.0
C1905 C 0.92633 0.78348 0.1975 0.0
C1906 C 0.96384 0.78703 0.17489 0.0
C1907 C 0.93684 0.80492 0.19116 0.0
C1908 C 0.99463 0.81095 0.15765 0.0
C1909 C 0.01807 0.77702 0.16287 0.0
N1910 N 0.95512 0.80618 0.18044 0.0
N1911 N 0.9973 0.77386 0.16802 0.0
H1912 H 0.5239 0.34315 0.14487 0.0
H1913 H 0.55654 0.38365 0.02633 0.0
H1914 H 0.50825 0.29726 0.07636 0.0
H1915 H 0.56331 0.4333 0.09184 0.0
H1916 H 0.54414 0.35082 0.04625 0.0
H1917 H 0.54202 0.3758 0.12703 0.0
C1918 C 0.52396 0.34008 0.12601 0.0
C1919 C 0.51444 0.31759 0.11196 0.0
C1920 C 0.54855 0.36887 0.05636 0.0
C1921 C 0.53538 0.35457 0.09166 0.0
C1922 C 0.55593 0.3876 0.04506 0.0
C1923 C 0.56082 0.41119 0.05746 0.0
C1924 C 0.54592 0.37378 0.08017 0.0
C1925 C 0.55937 0.41532 0.08162 0.0
C1926 C 0.53448 0.35863 0.11591 0.0
C1927 C 0.5153 0.31438 0.08776 0.0
N1928 N 0.5518 0.39673 0.09221 0.0
N1929 N 0.52565 0.33272 0.07835 0.0
H1930 H 0.05459 0.36927 0.33145 0.0
H1931 H 0.93543 0.28441 0.30894 0.0
H1932 H 0.04193 0.29994 0.35097 0.0
H1933 H 0.95684 0.34442 0.27527 0.0
H1934 H 0.97339 0.28899 0.32583 0.0
H1935 H 0.01696 0.36085 0.31372 0.0
C1936 C 0.04385 0.35216 0.33177 0.0
C1937 C 0.0513 0.33508 0.34219 0.0
C1938 C 0.96968 0.30081 0.3144 0.0
C1939 C 0.00837 0.32512 0.32172 0.0
C1940 C 0.94815 0.2982 0.30476 0.0
C1941 C 0.94306 0.31411 0.29077 0.0
C1942 C 0.98589 0.3196 0.31008 0.0
C1943 C 0.96 0.33156 0.28569 0.0
C1944 C 0.0224 0.3473 0.32163 0.0
C1945 C 0.03666 0.31345 0.34286 0.0
N1946 N 0.98061 0.33397 0.29557 0.0
N1947 N 0.01574 0.30894 0.33253 0.0
H1948 H 0.9659 0.66606 0.6009 0.0
H1949 H 0.06099 0.6075 0.55662 0.0
H1950 H 0.03413 0.69199 0.62788 0.0
H1951 H 0.99484 0.58557 0.52164 0.0
H1952 H 0.04998 0.63547 0.58623 0.0
H1953 H 0.97478 0.63338 0.57393 0.0
C1954 C 0.98267 0.66479 0.60097 0.0
C1955 C 0.99939 0.68122 0.61644 0.0
C1956 C 0.03781 0.6245 0.57212 0.0
C1957 C 0.00959 0.6448 0.58626 0.0
C1958 C 0.04412 0.60859 0.55533 0.0
C1959 C 0.02881 0.5948 0.53666 0.0
C1960 C 0.01608 0.62646 0.5701 0.0
C1961 C 0.00712 0.59647 0.53566 0.0
C1962 C 0.98773 0.64628 0.5858 0.0
C1963 C 0.02087 0.67924 0.61625 0.0
N1964 N 1.00134 0.61223 0.55218 0.0
N1965 N 0.02539 0.66134 0.60131 0.0
H1966 H 0.67468 0.85781 0.84962 0.0
H1967 H 0.72656 0.75937 0.782 0.0
H1968 H 0.6572 0.78351 0.85462 0.0
H1969 H 0.73932 0.83241 0.77177 0.0
H1970 H 0.69742 0.76647 0.80436 0.0
H1971 H 0.69707 0.84833 0.819 0.0
C1972 C 0.67607 0.83958 0.84449 0.0
C1973 C 0.66496 0.82142 0.85482 0.0
C1974 C 0.70632 0.78083 0.79684 0.0
C1975 C 0.68923 0.81022 0.81944 0.0
C1976 C 0.72283 0.77672 0.78386 0.0
C1977 C 0.73578 0.79561 0.77572 0.0
C1978 C 0.70294 0.80394 0.80166 0.0
C1979 C 0.73013 0.81761 0.77844 0.0
C1980 C 0.68842 0.83408 0.82682 0.0
C1981 C 0.6663 0.79795 0.84734 0.0
N1982 N 0.71434 0.82136 0.79166 0.0
N1983 N 0.67832 0.79295 0.83 0.0
H1984 H 0.4394 0.54144 0.664 0.0
H1985 H 0.55244 0.58376 0.6094 0.0
H1986 H 0.49885 0.58474 0.70497 0.0
H1987 H 0.49709 0.53364 0.56694 0.0
H1988 H 0.53223 0.58474 0.64307 0.0
H1989 H 0.45855 0.5388 0.62883 0.0
C1990 C 0.45643 0.55061 0.66583 0.0
C1991 C 0.46708 0.56351 0.68827 0.0
C1992 C 0.52425 0.57348 0.62653 0.0
C1993 C 0.48977 0.56056 0.64662 0.0
C1994 C 0.53592 0.57286 0.60682 0.0
C1995 C 0.52695 0.55866 0.58435 0.0
C1996 C 0.50268 0.55982 0.62481 0.0
C1997 C 0.50518 0.5451 0.58332 0.0
C1998 C 0.4675 0.54899 0.64542 0.0
C1999 C 0.48946 0.57457 0.68859 0.0
N2000 N 0.49404 0.54608 0.60291 0.0
N2001 N 0.4997 0.57295 0.66854 0.0
H2002 H 0.79496 0.16843 0.94161 0.0
H2003 H 0.72667 0.25211 0.9017 0.0
H2004 H 0.76796 0.21609 0.9886 0.0
H2005 H 0.74465 0.19753 0.85349 0.0
H2006 H 0.73044 0.2299 0.9327 0.0
H2007 H 0.77018 0.17271 0.90892 0.0
C2008 C 0.78412 0.18019 0.94492 0.0
C2009 C 0.78398 0.19254 0.96765 0.0
C2010 C 0.73295 0.22232 0.9152 0.0
C2011 C 0.75496 0.19669 0.93068 0.0
C2012 C 0.73044 0.23487 0.89729 0.0
C2013 C 0.73675 0.22732 0.87542 0.0
C2014 C 0.74235 0.2027 0.91106 0.0
C2015 C 0.74089 0.20455 0.87063 0.0
C2016 C 0.76961 0.18215 0.92641 0.0
C2017 C 0.76918 0.20694 0.9712 0.0
N2018 N 0.74466 0.19345 0.88867 0.0
N2019 N 0.75531 0.20867 0.95287 0.0
H2020 H 0.16677 0.57736 0.16777 0.0
H2021 H 0.05005 0.5181 0.09388 0.0
H2022 H 0.12486 0.5105 0.17465 0.0
H2023 H 0.09652 0.57409 0.07284 0.0
H2024 H 0.0764 0.51914 0.12734 0.0
H2025 H 0.14085 0.57928 0.13459 0.0
C2026 C 0.15245 0.56281 0.1618 0.0
C2027 C 0.14779 0.54363 0.17359 0.0
C2028 C 0.08089 0.53113 0.11533 0.0
C2029 C 0.11827 0.54604 0.1368 0.0
C2030 C 0.06585 0.53056 0.09639 0.0
C2031 C 0.0715 0.54563 0.08061 0.0
C2032 C 0.10161 0.54678 0.1182 0.0
C2033 C 0.09193 0.56181 0.08456 0.0
C2034 C 0.1376 0.56407 0.14322 0.0
C2035 C 0.12892 0.52549 0.16583 0.0
N2036 N 0.10647 0.56188 0.10303 0.0
N2037 N 0.11472 0.52724 0.14798 0.0
H2038 H 0.83903 0.89334 0.45173 0.0
H2039 H 0.78053 0.79041 0.34705 0.0
H2040 H 0.79609 0.8303 0.46541 0.0
H2041 H 0.84454 0.83433 0.34596 0.0
H2042 H 0.78446 0.80432 0.38976 0.0
H2043 H 0.83993 0.87226 0.41225 0.0
C2044 C 0.82996 0.87489 0.44642 0.0
C2045 C 0.81746 0.8635 0.46174 0.0
C2046 C 0.79774 0.8106 0.38019 0.0
C2047 C 0.8181 0.83935 0.41637 0.0
C2048 C 0.79548 0.80282 0.35588 0.0
C2049 C 0.81219 0.81144 0.34306 0.0
C2050 C 0.81659 0.8276 0.39153 0.0
C2051 C 0.8313 0.82726 0.35524 0.0
C2052 C 0.83056 0.86284 0.42392 0.0
C2053 C 0.80601 0.8396 0.45406 0.0
N2054 N 0.83281 0.83519 0.37875 0.0
N2055 N 0.80628 0.82835 0.43164 0.0
H2056 H 0.50308 0.54482 0.82206 0.0
H2057 H 0.508 0.57654 0.9637 0.0
H2058 H 0.45579 0.57795 0.85361 0.0
H2059 H 0.54022 0.52629 0.92826 0.0
H2060 H 0.49111 0.58071 0.92511 0.0
H2061 H 0.51897 0.54203 0.86097 0.0
C2062 C 0.4959 0.55169 0.83709 0.0
C2063 C 0.47769 0.56169 0.83374 0.0
C2064 C 0.50191 0.5688 0.92569 0.0
C2065 C 0.49658 0.55837 0.87994 0.0
C2066 C 0.51172 0.56643 0.94791 0.0
C2067 C 0.52578 0.55094 0.94982 0.0
C2068 C 0.50637 0.55608 0.90459 0.0
C2069 C 0.52955 0.53838 0.92821 0.0
C2070 C 0.50514 0.54995 0.85961 0.0
C2071 C 0.46973 0.5702 0.85469 0.0
N2072 N 0.5202 0.54136 0.90692 0.0
N2073 N 0.47913 0.56837 0.87656 0.0
H2074 H 0.75503 0.17623 0.10572 0.0
H2075 H 0.83234 0.28419 0.19897 0.0
H2076 H 0.82393 0.20223 0.1044 0.0
H2077 H 0.76266 0.26455 0.19779 0.0
H2078 H 0.82919 0.25378 0.16403 0.0
H2079 H 0.75703 0.20761 0.14002 0.0
C2080 C 0.77062 0.18831 0.11303 0.0
C2081 C 0.78943 0.1868 0.10263 0.0
C2082 C 0.81448 0.25635 0.17103 0.0
C2083 C 0.79179 0.22245 0.14116 0.0
C2084 C 0.81629 0.27387 0.19072 0.0
C2085 C 0.79765 0.27692 0.20058 0.0
C2086 C 0.79385 0.24187 0.16128 0.0
C2087 C 0.77727 0.26267 0.1902 0.0
C2088 C 0.77172 0.20628 0.13233 0.0
C2089 C 0.80915 0.20298 0.11211 0.0
N2090 N 0.77585 0.24557 0.17093 0.0
N2091 N 0.80983 0.22017 0.13094 0.0
H2092 H 0.11629 0.59757 0.295 0.0
H2093 H 0.14579 0.58881 0.42493 0.0
H2094 H 0.15803 0.55504 0.31924 0.0
H2095 H 0.0979 0.62386 0.3993 0.0
H2096 H 0.16333 0.59277 0.38974 0.0
H2097 H 0.12059 0.6204 0.33477 0.0
C2098 C 0.12583 0.5926 0.30892 0.0
C2099 C 0.13581 0.57359 0.30428 0.0
C2100 C 0.14947 0.60043 0.39229 0.0
C2101 C 0.14133 0.59998 0.34959 0.0
C2102 C 0.1395 0.59825 0.4124 0.0
C2103 C 0.11948 0.60441 0.41409 0.0
C2104 C 0.13914 0.60879 0.37417 0.0
C2105 C 0.11274 0.61777 0.3982 0.0
C2106 C 0.12879 0.60604 0.33145 0.0
C2107 C 0.14928 0.56893 0.32248 0.0
N2108 N 0.1221 0.61873 0.37835 0.0
N2109 N 0.15131 0.58175 0.34452 0.0
H2110 H 0.80555 0.89042 0.62659 0.0
H2111 H 0.81053 0.77436 0.68169 0.0
H2112 H 0.8188 0.82651 0.58857 0.0
H2113 H 0.79079 0.8344 0.71891 0.0
H2114 H 0.81532 0.79445 0.64837 0.0
H2115 H 0.80136 0.87147 0.66103 0.0
C2116 C 0.80775 0.87246 0.62552 0.0
C2117 C 0.81276 0.86015 0.60464 0.0
C2118 C 0.8102 0.80348 0.66389 0.0
C2119 C 0.80809 0.83834 0.64421 0.0
C2120 C 0.80753 0.79203 0.68302 0.0
C2121 C 0.80082 0.80296 0.70346 0.0
C2122 C 0.80597 0.82615 0.6649 0.0
C2123 C 0.7969 0.82573 0.70399 0.0
C2124 C 0.80529 0.86163 0.64521 0.0
C2125 C 0.81502 0.83675 0.60424 0.0
N2126 N 0.79949 0.83657 0.68499 0.0
N2127 N 0.8128 0.82672 0.62369 0.0
H2128 H 0.73127 0.42776 0.52423 0.0
H2129 H 0.70344 0.55408 0.55886 0.0
H2130 H 0.76567 0.49405 0.50727 0.0
H2131 H 0.65586 0.48765 0.55461 0.0
H2132 H 0.73091 0.53183 0.55077 0.0
H2133 H 0.70663 0.4492 0.54372 0.0
C2134 C 0.73341 0.44667 0.52433 0.0
C2135 C 0.75031 0.45916 0.51404 0.0
C2136 C 0.71455 0.52213 0.55203 0.0
C2137 C 0.72307 0.48358 0.53671 0.0
C2138 C 0.69896 0.53482 0.55691 0.0
C2139 C 0.67741 0.52256 0.55703 0.0
C2140 C 0.70839 0.49709 0.54713 0.0
C2141 C 0.67232 0.4976 0.55418 0.0
C2142 C 0.71962 0.45888 0.53566 0.0
C2143 C 0.75278 0.48371 0.51495 0.0
N2144 N 0.68772 0.48554 0.54895 0.0
N2145 N 0.73933 0.49512 0.52619 0.0
H2146 H 0.21861 0.11788 0.4718 0.0
H2147 H 0.11061 0.10064 0.53501 0.0
H2148 H 0.20262 0.17699 0.51553 0.0
H2149 H 0.11734 0.05427 0.47179 0.0
H2150 H 0.14619 0.12704 0.53251 0.0
H2151 H 0.18354 0.09233 0.47601 0.0
C2152 C 0.2077 0.12551 0.48224 0.0
C2153 C 0.21351 0.1497 0.49307 0.0
C2154 C 0.13979 0.11109 0.51921 0.0
C2155 C 0.17331 0.12035 0.49835 0.0
C2156 C 0.11951 0.09602 0.52064 0.0
C2157 C 0.11084 0.07528 0.50349 0.0
C2158 C 0.15165 0.1051 0.50075 0.0
C2159 C 0.12321 0.07012 0.48533 0.0
C2160 C 0.18765 0.11091 0.48465 0.0
C2161 C 0.19871 0.15853 0.50658 0.0
N2162 N 0.14292 0.08477 0.48454 0.0
N2163 N 0.17937 0.14386 0.50894 0.0
H2164 H 0.22402 0.95624 0.73658 0.0
H2165 H 0.25682 0.85137 0.80069 0.0
H2166 H 0.20148 0.94122 0.80113 0.0
H2167 H 0.27251 0.86034 0.73203 0.0
H2168 H 0.2381 0.88437 0.80179 0.0
H2169 H 0.24204 0.92266 0.7349 0.0
C2170 C 0.22285 0.94617 0.75063 0.0
C2171 C 0.21079 0.95248 0.76911 0.0
C2172 C 0.24536 0.8791 0.78627 0.0
C2173 C 0.23255 0.91271 0.76744 0.0
C2174 C 0.25617 0.85989 0.78558 0.0
C2175 C 0.26648 0.85209 0.7661 0.0
C2176 C 0.24425 0.89139 0.76727 0.0
C2177 C 0.26505 0.86506 0.74756 0.0
C2178 C 0.2333 0.92664 0.74959 0.0
C2179 C 0.21022 0.9377 0.78634 0.0
N2180 N 0.25435 0.88349 0.74858 0.0
N2181 N 0.22083 0.91918 0.78516 0.0
H2182 H 0.38171 0.94372 0.0187 0.0
H2183 H 0.47999 0.03991 1.00509 0.0
H2184 H 0.38192 0.0186 0.02842 0.0
H2185 H 0.48744 0.97241 0.0205 0.0
H2186 H 0.4445 0.033 0.01865 0.0
H2187 H 0.42099 0.95437 0.02845 0.0
C2188 C 0.39002 0.96246 0.02326 0.0
C2189 C 0.37899 0.98043 0.02094 0.0
C2190 C 0.45373 0.01953 0.01897 0.0
C2191 C 0.42351 0.99252 0.03207 0.0
C2192 C 0.47355 0.02313 0.01046 0.0
C2193 C 0.48572 1.00606 0.01073 0.0
C2194 C 0.44598 0.99844 0.02725 0.0
C2195 C 0.47773 0.98532 0.01918 0.0
C2196 C 0.41243 0.96851 0.02908 0.0
C2197 C 0.39019 1.00428 0.02843 0.0
N2198 N 0.45802 0.98184 0.02689 0.0
N2199 N 0.41213 1.00973 0.0331 0.0
H2200 H 0.85766 0.55511 0.77963 0.0
H2201 H 0.86888 0.67707 0.73285 0.0
H2202 H 0.91555 0.61304 0.79373 0.0
H2203 H 0.80752 0.62623 0.73017 0.0
H2204 H 0.88777 0.64902 0.74705 0.0
H2205 H 0.83967 0.57815 0.7564 0.0
C2206 C 0.86638 0.57289 0.77834 0.0
C2207 C 0.88807 0.58224 0.78866 0.0
C2208 C 0.87019 0.64384 0.74284 0.0
C2209 C 0.86802 0.6081 0.76147 0.0
C2210 C 0.85946 0.6597 0.73451 0.0
C2211 C 0.83662 0.65416 0.73095 0.0
C2212 C 0.85788 0.62246 0.74755 0.0
C2213 C 0.82515 0.6313 0.73289 0.0
C2214 C 0.85627 0.58582 0.76473 0.0
C2215 C 0.89874 0.60522 0.7862 0.0
N2216 N 0.83591 0.61643 0.74161 0.0
N2217 N 0.88865 0.61729 0.77264 0.0
H2218 H 0.85577 0.68327 1.00125 0.0
H2219 H 0.91562 0.59117 0.05162 0.0
H2220 H 0.8257 0.62388 0.03197 0.0
H2221 H 0.94793 0.6409 0.01138 0.0
H2222 H 0.88442 0.60837 0.04918 0.0
H2223 H 0.89101 0.67233 0.0079 0.0
C2224 C 0.85648 0.66796 0.00923 0.0
C2225 C 0.83759 0.65445 0.01593 0.0
C2226 C 0.89832 0.61572 0.04093 0.0
C2227 C 0.87767 0.64214 0.02383 0.0
C2228 C 0.9164 0.60604 0.0426 0.0
C2229 C 0.93457 0.61444 0.03161 0.0
C2230 C 0.89804 0.6339 0.02796 0.0
C2231 C 0.93415 0.63352 0.01976 0.0
C2232 C 0.87658 0.66181 0.01312 0.0
C2233 C 0.83961 0.63496 0.02645 0.0
N2234 N 0.91609 0.6425 0.01807 0.0
N2235 N 0.85912 0.6295 0.03002 0.0
H2236 H 0.18635 0.11748 0.75115 0.0
H2237 H 0.30044 0.2165 0.79657 0.0
H2238 H 0.23841 0.1052 0.79658 0.0
H2239 H 0.24945 0.22881 0.7498 0.0
H2240 H 0.27762 0.17708 0.79772 0.0
H2241 H 0.20848 0.15741 0.75066 0.0
C2242 C 0.20247 0.12301 0.76113 0.0
C2243 C 0.21013 0.10718 0.77397 0.0
C2244 C 0.2712 0.18828 0.78726 0.0
C2245 C 0.23619 0.15454 0.77366 0.0
C2246 C 0.28428 0.21116 0.78669 0.0
C2247 C 0.27712 0.22683 0.77337 0.0
C2248 C 0.25037 0.17994 0.77406 0.0
C2249 C 0.25586 0.21807 0.76082 0.0
C2250 C 0.2152 0.14615 0.7608 0.0
C2251 C 0.23147 0.11613 0.78623 0.0
N2252 N 0.2435 0.19548 0.76139 0.0
N2253 N 0.24346 0.1389 0.78584 0.0
H2254 H 0.38787 0.96865 0.24118 0.0
H2255 H 0.34773 0.86662 0.3124 0.0
H2256 H 0.43091 0.94387 0.28761 0.0
H2257 H 0.30957 0.87534 0.25073 0.0
H2258 H 0.37659 0.90031 0.3079 0.0
H2259 H 0.35777 0.93633 0.24563 0.0
C2260 C 0.391 0.95574 0.25161 0.0
C2261 C 0.41155 0.95852 0.26405 0.0
C2262 C 0.3617 0.89514 0.29565 0.0
C2263 C 0.37752 0.92287 0.27027 0.0
C2264 C 0.34512 0.87643 0.29857 0.0
C2265 C 0.32671 0.86851 0.28172 0.0
C2266 C 0.35934 0.90573 0.27594 0.0
C2267 C 0.32385 0.88118 0.26386 0.0
C2268 C 0.37388 0.93766 0.25447 0.0
C2269 C 0.41514 0.94189 0.27764 0.0
N2270 N 0.34029 0.89914 0.26117 0.0
N2271 N 0.39803 0.92482 0.2808 0.0
H2272 H 0.57341 0.36081 0.55272 0.0
H2273 H 0.58803 0.50192 0.56991 0.0
H2274 H 0.59588 0.40905 0.61923 0.0
H2275 H 0.54201 0.45424 0.51387 0.0
H2276 H 0.5946 0.46761 0.58549 0.0
H2277 H 0.56503 0.39411 0.5356 0.0
C2278 C 0.57671 0.37839 0.56369 0.0
C2279 C 0.58552 0.38214 0.58748 0.0
C2280 C 0.58309 0.46456 0.56975 0.0
C2281 C 0.57613 0.42029 0.56792 0.0
C2282 C 0.5794 0.4842 0.56072 0.0
C2283 C 0.5645 0.48105 0.54045 0.0
C2284 C 0.57214 0.44134 0.55831 0.0
C2285 C 0.55365 0.45753 0.52954 0.0
C2286 C 0.57179 0.39733 0.55393 0.0
C2287 C 0.58919 0.40526 0.60086 0.0
N2288 N 0.5578 0.43854 0.53849 0.0
N2289 N 0.58466 0.42339 0.59088 0.0
H2290 H 0.45307 0.81758 0.38321 0.0
H2291 H 0.34843 0.74661 0.29154 0.0
H2292 H 0.43776 0.74144 0.35907 0.0
H2293 H 0.35652 0.81996 0.32507 0.0
H2294 H 0.38048 0.74452 0.31683 0.0
H2295 H 0.41755 0.8188 0.36373 0.0
C2296 C 0.44199 0.801 0.37416 0.0
C2297 C 0.44836 0.77932 0.37301 0.0
C2298 C 0.3752 0.76102 0.31898 0.0
C2299 C 0.40767 0.7807 0.34985 0.0
C2300 C 0.35681 0.76227 0.30449 0.0
C2301 C 0.34956 0.78346 0.30617 0.0
C2302 C 0.38689 0.78122 0.33539 0.0
C2303 C 0.3613 0.80317 0.32325 0.0
C2304 C 0.42172 0.80175 0.36292 0.0
C2305 C 0.43345 0.75848 0.36077 0.0
N2306 N 0.37946 0.80162 0.33702 0.0
N2307 N 0.41398 0.75973 0.34946 0.0
H2308 H 0.06886 0.7219 0.11591 0.0
H2309 H 0.06034 0.62804 0.99981 0.0
H2310 H 0.09145 0.74862 0.05546 0.0
H2311 H 0.08088 0.61743 0.06904 0.0
H2312 H 0.06476 0.671 0.01602 0.0
H2313 H 0.06351 0.68137 0.09451 0.0
C2314 C 0.07267 0.71921 0.09803 0.0
C2315 C 0.08118 0.7386 0.08763 0.0
C2316 C 0.06847 0.65919 0.02747 0.0
C2317 C 0.07512 0.69211 0.06308 0.0
C2318 C 0.06598 0.63491 0.01831 0.0
C2319 C 0.0704 0.61959 0.03326 0.0
C2320 C 0.07458 0.66754 0.05171 0.0
C2321 C 0.07755 0.6289 0.05704 0.0
C2322 C 0.06963 0.69607 0.08588 0.0
C2323 C 0.08511 0.73405 0.06414 0.0
N2324 N 0.07911 0.65224 0.06561 0.0
N2325 N 0.08226 0.71107 0.05259 0.0
H2326 H 0.07029 0.24702 0.86838 0.0
H2327 H 0.17712 0.33872 0.84832 0.0
H2328 H 0.0908 0.31765 0.91104 0.0
H2329 H 0.16706 0.26217 0.83099 0.0
H2330 H 0.1444 0.33331 0.86856 0.0
H2331 H 0.10442 0.25401 0.85139 0.0
C2332 C 0.08203 0.26402 0.87416 0.0
C2333 C 0.07777 0.2817 0.89118 0.0
C2334 C 0.14955 0.31777 0.86049 0.0
C2335 C 0.11683 0.29009 0.87148 0.0
C2336 C 0.16814 0.32082 0.84887 0.0
C2337 C 0.17497 0.30085 0.83802 0.0
C2338 C 0.13748 0.29459 0.86081 0.0
C2339 C 0.16269 0.2781 0.83935 0.0
C2340 C 0.10155 0.26801 0.86452 0.0
C2341 C 0.09359 0.30345 0.89809 0.0
N2342 N 0.14455 0.27562 0.85029 0.0
N2343 N 0.11236 0.30715 0.88804 0.0
H2344 H 0.55578 0.76906 0.91215 0.0
H2345 H 0.59033 0.67168 0.97788 0.0
H2346 H 0.62156 0.77307 0.9419 0.0
H2347 H 0.52442 0.68053 0.97223 0.0
H2348 H 0.60099 0.70492 0.958 0.0
H2349 H 0.54302 0.73333 0.9288 0.0
C2350 C 0.56746 0.76235 0.92222 0.0
C2351 C 0.58965 0.77387 0.92595 0.0
C2352 C 0.58416 0.69955 0.96099 0.0
C2353 C 0.57543 0.73322 0.9443 0.0
C2354 C 0.578 0.68041 0.97209 0.0
C2355 C 0.55645 0.67338 0.97663 0.0
C2356 C 0.5687 0.71179 0.95438 0.0
C2357 C 0.54124 0.68561 0.96917 0.0
C2358 C 0.56021 0.7421 0.93166 0.0
C2359 C 0.60427 0.76475 0.93901 0.0
N2360 N 0.54768 0.70438 0.95837 0.0
N2361 N 0.5969 0.74478 0.9476 0.0
H2362 H 0.07912 0.78616 0.66049 0.0
H2363 H 0.1455 0.74597 0.75944 0.0
H2364 H 0.04796 0.75556 0.71494 0.0
H2365 H 0.17435 0.80393 0.72628 0.0
H2366 H 0.10943 0.74898 0.74392 0.0
H2367 H 0.11461 0.79173 0.68377 0.0
C2368 C 0.07986 0.78068 0.67737 0.0
C2369 C 0.0609 0.77047 0.686 0.0
C2370 C 0.12366 0.76138 0.7405 0.0
C2371 C 0.1009 0.77659 0.7124 0.0
C2372 C 0.1442 0.75978 0.74946 0.0
C2373 C 0.1628 0.7745 0.74378 0.0
C2374 C 0.12191 0.77759 0.7256 0.0
C2375 C 0.16031 0.79191 0.73056 0.0
C2376 C 0.09997 0.78405 0.6907 0.0
C2377 C 0.0624 0.76369 0.70792 0.0
N2378 N 0.14015 0.7927 0.72149 0.0
N2379 N 0.08219 0.7666 0.72034 0.0
H2380 H 0.08449 0.38447 0.43469 0.0
H2381 H 0.10558 0.51702 0.4966 0.0
H2382 H 0.13626 0.43737 0.4167 0.0
H2383 H 0.04067 0.47139 0.47985 0.0
H2384 H 0.11848 0.48877 0.46871 0.0
H2385 H 0.06978 0.41619 0.45436 0.0
C2386 C 0.09301 0.40282 0.43525 0.0
C2387 C 0.11182 0.40842 0.42438 0.0
C2388 C 0.10137 0.48514 0.47089 0.0
C2389 C 0.09483 0.44464 0.44652 0.0
C2390 C 0.09408 0.50107 0.48681 0.0
C2391 C 0.07225 0.49595 0.4906 0.0
C2392 C 0.08677 0.46381 0.45948 0.0
C2393 C 0.05771 0.47557 0.47738 0.0
C2394 C 0.08435 0.42085 0.44609 0.0
C2395 C 0.12185 0.43243 0.42511 0.0
N2396 N 0.06536 0.4598 0.46266 0.0
N2397 N 0.11332 0.44982 0.4363 0.0
H2398 H 0.46227 0.2894 0.20943 0.0
H2399 H 0.34224 0.2432 0.23774 0.0
H2400 H 0.4181 0.22335 0.17393 0.0
H2401 H 0.38144 0.3142 0.2673 0.0
H2402 H 0.37095 0.2355 0.2156 0.0
H2403 H 0.43324 0.29957 0.23098 0.0
C2404 C 0.44619 0.27738 0.20592 0.0
C2405 C 0.44212 0.25564 0.19018 0.0
C2406 C 0.37346 0.2527 0.2271 0.0
C2407 C 0.40945 0.2667 0.21453 0.0
C2408 C 0.3572 0.25696 0.24012 0.0
C2409 C 0.35965 0.27926 0.25454 0.0
C2410 C 0.39237 0.27081 0.22865 0.0
C2411 C 0.37908 0.29672 0.25637 0.0
C2412 C 0.42978 0.28306 0.21821 0.0
C2413 C 0.42151 0.24025 0.18611 0.0
N2414 N 0.39485 0.29212 0.24342 0.0
N2415 N 0.40579 0.24608 0.19838 0.0
H2416 H 0.66013 0.52758 0.36843 0.0
H2417 H 0.54897 0.52443 0.42929 0.0
H2418 H 0.5985 0.53035 0.33306 0.0
H2419 H 0.61073 0.54093 0.47315 0.0
H2420 H 0.56765 0.52349 0.39455 0.0
H2421 H 0.64392 0.52886 0.40589 0.0
C2422 C 0.64318 0.52807 0.36819 0.0
C2423 C 0.63095 0.52867 0.34669 0.0
C2424 C 0.5774 0.52742 0.41161 0.0
C2425 C 0.61184 0.53032 0.39068 0.0
C2426 C 0.5666 0.52802 0.4319 0.0
C2427 C 0.57784 0.53297 0.45504 0.0
C2428 C 0.60027 0.53135 0.41338 0.0
C2429 C 0.60091 0.5373 0.45618 0.0
C2430 C 0.63388 0.52906 0.38991 0.0
C2431 C 0.609 0.52978 0.34857 0.0
N2432 N 0.61115 0.53622 0.43593 0.0
N2433 N 0.60045 0.53041 0.36955 0.0
H2434 H 0.35589 0.94095 0.07905 0.0
H2435 H 0.34889 0.82367 0.1312 0.0
H2436 H 0.30389 0.8769 0.0588 0.0
H2437 H 0.37238 0.89262 0.17689 0.0
H2438 H 0.3433 0.84327 0.09834 0.0
H2439 H 0.37112 0.92344 0.11034 0.0
C2440 C 0.34755 0.92339 0.08143 0.0
C2441 C 0.32858 0.91025 0.06656 0.0
C2442 C 0.35028 0.8541 0.11542 0.0
C2443 C 0.3461 0.89034 0.10128 0.0
C2444 C 0.35376 0.84299 0.13407 0.0
C2445 C 0.36123 0.8567 0.15659 0.0
C2446 C 0.3543 0.879 0.11941 0.0
C2447 C 0.36663 0.88164 0.15963 0.0
C2448 C 0.35633 0.91347 0.09903 0.0
C2449 C 0.31857 0.8875 0.0699 0.0
N2450 N 0.36283 0.89217 0.1411 0.0
N2451 N 0.32752 0.87819 0.08694 0.0
H2452 H 0.9579 0.55309 0.87085 0.0
H2453 H 0.05412 0.51779 0.94061 0.0
H2454 H 0.99191 0.50086 0.84225 0.0
H2455 H 0.01882 0.5671 0.97203 0.0
H2456 H 0.02693 0.50639 0.90588 0.0
H2457 H 0.97397 0.55203 0.91032 0.0
C2458 C 0.96868 0.54137 0.87295 0.0
C2459 C 0.9748 0.52816 0.85346 0.0
C2460 C 0.02495 0.51961 0.92037 0.0
C2461 C 0.99278 0.52666 0.89787 0.0
C2462 C 0.04066 0.52637 0.93983 0.0
C2463 C 0.03853 0.54356 0.95846 0.0
C2464 C 0.00732 0.53049 0.9197 0.0
C2465 C 0.02073 0.55384 0.95755 0.0
C2466 C 0.97768 0.54063 0.89537 0.0
C2467 C 0.98787 0.51238 0.85688 0.0
N2468 N 0.00571 0.54727 0.9382 0.0
N2469 N 0.99676 0.51236 0.87874 0.0
H2470 H 0.27404 0.25609 0.5673 0.0
H2471 H 0.3016 0.24218 0.70019 0.0
H2472 H 0.30458 0.20334 0.59012 0.0
H2473 H 0.2794 0.30305 0.6845 0.0
H2474 H 0.30139 0.22805 0.65871 0.0
H2475 H 0.2765 0.27558 0.60889 0.0
C2476 C 0.28166 0.24898 0.58101 0.0
C2477 C 0.28878 0.22791 0.5755 0.0
C2478 C 0.29652 0.24453 0.66407 0.0
C2479 C 0.29127 0.24952 0.62245 0.0
C2480 C 0.29649 0.25246 0.6878 0.0
C2481 C 0.29051 0.27371 0.69559 0.0
C2482 C 0.29066 0.25799 0.64777 0.0
C2483 C 0.28391 0.2864 0.67894 0.0
C2484 C 0.28288 0.25992 0.60464 0.0
C2485 C 0.29853 0.21932 0.59371 0.0
N2486 N 0.28426 0.27838 0.65561 0.0
N2487 N 0.29929 0.23 0.61627 0.0
H2488 H 0.62375 0.55036 0.2169 0.0
H2489 H 0.58584 0.4993 0.07691 0.0
H2490 H 0.64282 0.49026 0.17912 0.0
H2491 H 0.58286 0.56988 0.10967 0.0
H2492 H 0.60289 0.49387 0.11469 0.0
H2493 H 0.60576 0.55608 0.17946 0.0
C2494 C 0.62396 0.53808 0.20086 0.0
C2495 C 0.63498 0.51963 0.2017 0.0
C2496 C 0.59858 0.51061 0.11373 0.0
C2497 C 0.61369 0.52599 0.15785 0.0
C2498 C 0.58869 0.51377 0.09192 0.0
C2499 C 0.58269 0.53521 0.08941 0.0
C2500 C 0.60267 0.52886 0.13395 0.0
C2501 C 0.587 0.55298 0.11019 0.0
C2502 C 0.61369 0.54148 0.17928 0.0
C2503 C 0.63473 0.50475 0.1798 0.0
N2504 N 0.59652 0.54942 0.13121 0.0
N2505 N 0.62425 0.50808 0.15921 0.0
H2506 H 0.33502 0.92522 0.91301 0.0
H2507 H 0.30678 0.78771 0.85263 0.0
H2508 H 0.30871 0.86759 0.94792 0.0
H2509 H 0.32134 0.84689 0.81642 0.0
H2510 H 0.31592 0.8162 0.89015 0.0
H2511 H 0.339 0.89589 0.87977 0.0
C2512 C 0.3301 0.90641 0.91367 0.0
C2513 C 0.32101 0.89875 0.93289 0.0
C2514 C 0.31764 0.82279 0.87393 0.0
C2515 C 0.32553 0.86525 0.89516 0.0
C2516 C 0.31246 0.80659 0.85264 0.0
C2517 C 0.31351 0.81505 0.83157 0.0
C2518 C 0.32387 0.84737 0.87383 0.0
C2519 C 0.32073 0.8396 0.8323 0.0
C2520 C 0.33249 0.8897 0.8948 0.0
C2521 C 0.31543 0.87422 0.93319 0.0
N2522 N 0.32549 0.85492 0.85311 0.0
N2523 N 0.31751 0.85826 0.9144 0.0
H2524 H 0.97521 0.55468 0.72956 0.0
H2525 H 0.97015 0.47135 0.61346 0.0
H2526 H 0.92239 0.49125 0.71412 0.0
H2527 H 0.03055 0.50191 0.6596 0.0
H2528 H 0.95026 0.47564 0.64757 0.0
H2529 H 0.99376 0.53628 0.69949 0.0
C2530 C 0.96743 0.537 0.71956 0.0
C2531 C 0.94729 0.52451 0.72406 0.0
C2532 C 0.96791 0.48046 0.6502 0.0
C2533 C 0.96851 0.50319 0.69033 0.0
C2534 C 0.97921 0.47784 0.63088 0.0
C2535 C 1.0019 0.48659 0.63384 0.0
C2536 C 0.97955 0.49249 0.67205 0.0
C2537 C 0.01303 0.49497 0.65662 0.0
C2538 C 0.97814 0.52636 0.70278 0.0
C2539 C 0.93779 0.50158 0.71077 0.0
N2540 N 1.00168 0.49852 0.67484 0.0
N2541 N 0.94853 0.49156 0.69427 0.0
H2542 H 0.31675 0.21137 0.42435 0.0
H2543 H 0.27033 0.27431 0.32687 0.0
H2544 H 0.26509 0.24722 0.43597 0.0
H2545 H 0.33775 0.27153 0.33673 0.0
H2546 H 0.26516 0.25918 0.36351 0.0
H2547 H 0.32206 0.22827 0.38892 0.0
C2548 C 0.3065 0.22278 0.41942 0.0
C2549 C 0.29042 0.22785 0.4331 0.0
C2550 C 0.28103 0.26179 0.35755 0.0
C2551 C 0.29614 0.24686 0.39228 0.0
C2552 C 0.28393 0.27016 0.33657 0.0
C2553 C 0.30445 0.27385 0.32869 0.0
C2554 C 0.29864 0.25655 0.37036 0.0
C2555 C 0.32165 0.26872 0.34215 0.0
C2556 C 0.30959 0.23247 0.39925 0.0
C2557 C 0.27771 0.24291 0.42595 0.0
N2558 N 0.31833 0.26011 0.36218 0.0
N2559 N 0.28065 0.25167 0.40586 0.0
H2560 H 0.34842 0.63557 0.50056 0.0
H2561 H 0.42178 0.54417 0.51677 0.0
H2562 H 0.34586 0.59328 0.55495 0.0
H2563 H 0.43093 0.58979 0.46565 0.0
H2564 H 0.39195 0.5608 0.52887 0.0
H2565 H 0.37745 0.61849 0.48595 0.0
C2566 C 0.3543 0.62304 0.50971 0.0
C2567 C 0.345 0.61588 0.52913 0.0
C2568 C 0.40027 0.56719 0.5149 0.0
C2569 C 0.3777 0.59627 0.51237 0.0
C2570 C 0.41715 0.55761 0.50797 0.0
C2571 C 0.42841 0.56573 0.49029 0.0
C2572 C 0.39475 0.58512 0.5041 0.0
C2573 C 0.42231 0.58322 0.47935 0.0
C2574 C 0.37067 0.61319 0.50122 0.0
C2575 C 0.35271 0.59928 0.54 0.0
N2576 N 0.40571 0.59254 0.48654 0.0
N2577 N 0.36867 0.59 0.53142 0.0
H2578 H 0.88327 0.96155 0.5011 0.0
H2579 H 1.00348 1.00747 0.57048 0.0
H2580 H 0.9007 0.93766 0.56482 0.0
H2581 H 0.98746 0.01073 0.49781 0.0
H2582 H 0.96653 0.98261 0.56987 0.0
H2583 H 0.92133 0.98032 0.50067 0.0
C2584 C 0.89514 0.96023 0.51511 0.0
C2585 C 0.88856 0.9482 0.53324 0.0
C2586 C 0.97115 0.98862 0.55403 0.0
C2587 C 0.93281 0.9701 0.53285 0.0
C2588 C 0.99221 1.00284 0.55438 0.0
C2589 C 0.99857 0.01116 0.53417 0.0
C2590 C 0.95611 0.98319 0.53348 0.0
C2591 C 0.98334 1.00458 0.51375 0.0
C2592 C 0.91701 0.97093 0.51475 0.0
C2593 C 0.90493 0.94683 0.55058 0.0
N2594 N 0.96283 0.99131 0.51403 0.0
N2595 N 0.92627 0.95793 0.55014 0.0
H2596 H 0.91637 0.15967 0.29218 0.0
H2597 H 0.81571 0.21058 0.23776 0.0
H2598 H 0.86974 0.12024 0.23293 0.0
H2599 H 0.86516 0.25376 0.29272 0.0
H2600 H 0.83476 0.178 0.23645 0.0
H2601 H 0.89799 0.19298 0.29375 0.0
C2602 C 0.90236 0.15777 0.27932 0.0
C2603 C 0.89507 0.13622 0.26234 0.0
C2604 C 0.84156 0.19446 0.24897 0.0
C2605 C 0.8732 0.17592 0.26402 0.0
C2606 C 0.8305 0.21342 0.24977 0.0
C2607 C 0.83837 0.23578 0.26536 0.0
C2608 C 0.86094 0.19677 0.26426 0.0
C2609 C 0.85807 0.23743 0.28012 0.0
C2610 C 0.89171 0.17716 0.28027 0.0
C2611 C 0.8764 0.13586 0.24655 0.0
N2612 N 0.86827 0.21856 0.27932 0.0
N2613 N 0.86648 0.15491 0.24777 0.0
H2614 H 0.72354 0.09806 0.99172 0.0
H2615 H 0.61798 0.10281 0.05457 0.0
H2616 H 0.71695 0.15967 0.04029 0.0
H2617 H 0.61901 0.05097 0.99281 0.0
H2618 H 0.65659 0.12073 0.05406 0.0
H2619 H 0.68642 0.07775 0.99536 0.0
C2620 C 0.71416 0.1073 1.00299 0.0
C2621 C 0.72309 0.13042 0.01574 0.0
C2622 C 0.6483 0.10541 0.04067 0.0
C2623 C 0.68122 0.10745 0.02026 0.0
C2624 C 0.62644 0.09523 0.04103 0.0
C2625 C 0.61552 0.076 0.02333 0.0
C2626 C 0.65896 0.09594 0.02265 0.0
C2627 C 0.62693 0.06635 0.00631 0.0
C2628 C 0.69312 0.09574 1.00515 0.0
C2629 C 0.71047 0.14183 0.03008 0.0
N2630 N 0.64815 0.07656 0.00631 0.0
N2631 N 0.69007 0.1301 0.03208 0.0
H2632 H 0.23319 0.5333 0.29154 0.0
H2633 H 0.26205 0.41313 0.24831 0.0
H2634 H 0.19416 0.48134 0.23322 0.0
H2635 H 0.2648 0.43717 0.32325 0.0
H2636 H 0.24167 0.44193 0.24122 0.0
H2637 H 0.25077 0.50228 0.3024 0.0
C2638 C 0.22863 0.51545 0.28099 0.0
C2639 C 0.21253 0.50948 0.26153 0.0
C2640 C 0.24658 0.44069 0.25921 0.0
C2641 C 0.23192 0.47483 0.27361 0.0
C2642 C 0.25802 0.42406 0.26337 0.0
C2643 C 0.26498 0.42247 0.2865 0.0
C2644 C 0.24267 0.45639 0.2782 0.0
C2645 C 0.25999 0.43801 0.30516 0.0
C2646 C 0.23827 0.49787 0.28733 0.0
C2647 C 0.20662 0.48631 0.24837 0.0
N2648 N 0.24926 0.45471 0.3006 0.0
N2649 N 0.21649 0.46972 0.25457 0.0
H2650 H 0.24859 0.39773 0.99602 0.0
H2651 H 0.17643 0.48246 0.05238 0.0
H2652 H 0.26434 0.44098 0.06562 0.0
H2653 H 0.17291 0.46213 0.9772 0.0
H2654 H 0.20546 0.46208 0.05749 0.0
H2655 H 0.21797 0.41632 0.98861 0.0
C2656 C 0.24538 0.41087 0.00982 0.0
C2657 C 0.25883 0.41775 0.03157 0.0
C2658 C 0.19834 0.46193 0.03983 0.0
C2659 C 0.22401 0.43882 0.02331 0.0
C2660 C 0.18157 0.47339 0.0369 0.0
C2661 C 0.17201 0.47378 0.01434 0.0
C2662 C 0.2057 0.45051 0.0201 0.0
C2663 C 0.17982 0.46221 0.99491 0.0
C2664 C 0.22808 0.42158 1.00552 0.0
C2665 C 0.25432 0.43516 0.04867 0.0
N2666 N 0.19619 0.4509 0.99823 0.0
N2667 N 0.23724 0.44493 0.04425 0.0
H2668 H 0.90563 0.9603 0.22771 0.0
H2669 H 0.81678 0.88518 0.29617 0.0
H2670 H 0.87643 0.99409 0.28355 0.0
H2671 H 0.8457 0.85153 0.24009 0.0
H2672 H 0.83919 0.92426 0.29291 0.0
H2673 H 0.88434 0.92119 0.23209 0.0
C2674 C 0.8946 0.9597 0.24084 0.0
C2675 C 0.893 0.98126 0.25501 0.0
C2676 C 0.84089 0.90845 0.28137 0.0
C2677 C 0.86824 0.93504 0.26063 0.0
C2678 C 0.82814 0.88584 0.28336 0.0
C2679 C 0.82935 0.86439 0.26879 0.0
C2680 C 0.85508 0.91045 0.26415 0.0
C2681 C 0.84432 0.86708 0.25226 0.0
C2682 C 0.8824 0.93703 0.2434 0.0
C2683 C 0.87823 0.97849 0.27177 0.0
N2684 N 0.85629 0.88939 0.25035 0.0
N2685 N 0.86671 0.95613 0.27411 0.0
H2686 H 0.69133 0.13616 0.78877 0.0
H2687 H 0.78001 0.21387 0.72774 0.0
H2688 H 0.68505 0.14035 0.71538 0.0
H2689 H 0.78148 0.22339 0.80309 0.0
H2690 H 0.74983 0.17913 0.7233 0.0
H2691 H 0.72627 0.16546 0.79514 0.0
C2692 C 0.69686 0.14431 0.77428 0.0
C2693 C 0.68557 0.13613 0.75155 0.0
C2694 C 0.75701 0.1886 0.74083 0.0
C2695 C 0.72565 0.16803 0.75825 0.0
C2696 C 0.77451 0.20817 0.74341 0.0
C2697 C 0.78209 0.22227 0.76576 0.0
C2698 C 0.74754 0.18338 0.76075 0.0
C2699 C 0.7751 0.21356 0.78547 0.0
C2700 C 0.71703 0.16037 0.77774 0.0
C2701 C 0.69335 0.14656 0.73316 0.0
N2702 N 0.75753 0.19497 0.78251 0.0
N2703 N 0.7133 0.16172 0.7368 0.0
loop_
_geom_bond_atom_site_label_1
_geom_bond_atom_site_label_2
_geom_bond_distance
_geom_bond_site_symmetry_2
_ccdc_geom_bond_type
C0 O1 1.306 . S
C0 O3 1.160 . S
O1 C0 1.306 . S
O1 Cd2 2.228 . S
Cd2 O1 2.228 . S
Cd2 O6 2.273 . S
Cd2 O10 2.277 . S
O3 C0 1.160 . S
O3 Cd4 2.203 . S
Cd4 O3 2.203 . S
Cd4 O6 2.411 . S
Cd4 O7 2.333 . S
Cd4 O8 2.352 . S
Cd4 O12 2.277 . S
Cd4 O13 2.356 . S
C5 O10 1.209 . S
C5 O12 1.226 . S
O6 Cd2 2.273 . S
O6 Cd4 2.411 . S
O6 C9 1.320 . S
O7 Cd4 2.333 . S
O7 C9 1.214 . S
O8 Cd4 2.352 . S
O8 C11 1.258 . S
C9 O6 1.320 . S
C9 O7 1.214 . S
O10 Cd2 2.277 . S
O10 C5 1.209 . S
C11 O8 1.258 . S
C11 O13 1.282 . S
O12 Cd4 2.277 . S
O12 C5 1.226 . S
O13 Cd4 2.356 . S
O13 C11 1.282 . S
C14 O15 1.306 . S
C14 O17 1.160 . S
O15 C14 1.306 . S
O15 Cd16 2.228 1_655 S
Cd16 O15 2.228 1_455 S
Cd16 O20 2.273 . S
Cd16 O24 2.277 1_455 S
O17 C14 1.160 . S
O17 Cd18 2.150 1_655 S
Cd18 O17 2.150 1_455 S
Cd18 O20 2.437 . S
Cd18 O21 2.387 . S
Cd18 O22 2.343 . S
Cd18 O26 2.281 1_455 S
Cd18 O27 2.360 . S
C19 O24 1.209 . S
C19 O26 1.226 . S
O20 Cd16 2.273 . S
O20 Cd18 2.437 . S
O20 C23 1.320 . S
O21 Cd18 2.387 . S
O21 C23 1.214 . S
O22 Cd18 2.343 . S
O22 C25 1.258 . S
C23 O20 1.320 . S
C23 O21 1.214 . S
O24 Cd16 2.277 1_655 S
O24 C19 1.209 . S
C25 O22 1.258 . S
C25 O27 1.282 . S
O26 Cd18 2.281 1_655 S
O26 C19 1.226 . S
O27 Cd18 2.360 . S
O27 C25 1.282 . S
C28 O29 1.306 . S
C28 O31 1.160 . S
O29 C28 1.306 . S
O29 Cd30 2.228 . S
Cd30 O29 2.228 . S
Cd30 O34 2.273 . S
Cd30 O38 2.277 . S
O31 C28 1.160 . S
O31 Cd32 2.203 . S
Cd32 O31 2.203 . S
Cd32 O34 2.411 . S
Cd32 O35 2.333 . S
Cd32 O36 2.352 . S
Cd32 O40 2.277 . S
Cd32 O41 2.356 . S
C33 O38 1.209 . S
C33 O40 1.226 . S
O34 Cd30 2.273 . S
O34 Cd32 2.411 . S
O34 C37 1.320 . S
O35 Cd32 2.333 . S
O35 C37 1.214 . S
O36 Cd32 2.352 . S
O36 C39 1.258 . S
C37 O34 1.320 . S
C37 O35 1.214 . S
O38 Cd30 2.277 . S
O38 C33 1.209 . S
C39 O36 1.258 . S
C39 O41 1.282 . S
O40 Cd32 2.277 . S
O40 C33 1.226 . S
O41 Cd32 2.356 . S
O41 C39 1.282 . S
C42 O43 1.306 . S
C42 O45 1.160 . S
O43 C42 1.306 . S
O43 Cd44 2.228 . S
Cd44 O43 2.228 . S
Cd44 O48 2.273 . S
Cd44 O52 2.277 . S
O45 C42 1.160 . S
O45 Cd46 2.203 . S
Cd46 O45 2.203 . S
Cd46 O48 2.411 . S
Cd46 O49 2.333 . S
Cd46 O50 2.352 . S
Cd46 O54 2.277 . S
Cd46 O55 2.356 . S
C47 O52 1.209 . S
C47 O54 1.226 . S
O48 Cd44 2.273 . S
O48 Cd46 2.411 . S
O48 C51 1.320 . S
O49 Cd46 2.333 . S
O49 C51 1.214 . S
O50 Cd46 2.352 . S
O50 C53 1.258 . S
C51 O48 1.320 . S
C51 O49 1.214 . S
O52 Cd44 2.277 . S
O52 C47 1.209 . S
C53 O50 1.258 . S
C53 O55 1.282 . S
O54 Cd46 2.277 . S
O54 C47 1.226 . S
O55 Cd46 2.356 . S
O55 C53 1.282 . S
C56 O57 1.306 . S
C56 O59 1.160 . S
O57 C56 1.306 . S
O57 Cd58 2.228 . S
Cd58 O57 2.228 . S
Cd58 O62 2.273 . S
Cd58 O66 2.277 . S
O59 C56 1.160 . S
O59 Cd60 2.203 . S
Cd60 O59 2.203 . S
Cd60 O62 2.411 . S
Cd60 O63 2.333 . S
Cd60 O64 2.352 . S
Cd60 O68 2.277 . S
Cd60 O69 2.356 . S
C61 O66 1.209 . S
C61 O68 1.226 . S
O62 Cd58 2.273 . S
O62 Cd60 2.411 . S
O62 C65 1.320 . S
O63 Cd60 2.333 . S
O63 C65 1.214 . S
O64 Cd60 2.352 . S
O64 C67 1.258 . S
C65 O62 1.320 . S
C65 O63 1.214 . S
O66 Cd58 2.277 . S
O66 C61 1.209 . S
C67 O64 1.258 . S
C67 O69 1.282 . S
O68 Cd60 2.277 . S
O68 C61 1.226 . S
O69 Cd60 2.356 . S
O69 C67 1.282 . S
C70 O71 1.306 . S
C70 O73 1.160 . S
O71 C70 1.306 . S
O71 Cd72 2.228 . S
Cd72 O71 2.228 . S
Cd72 O76 2.273 . S
Cd72 O80 2.277 . S
O73 C70 1.160 . S
O73 Cd74 2.203 . S
Cd74 O73 2.203 . S
Cd74 O76 2.411 . S
Cd74 O77 2.333 . S
Cd74 O78 2.352 . S
Cd74 O82 2.277 . S
Cd74 O83 2.356 . S
C75 O80 1.209 . S
C75 O82 1.226 . S
O76 Cd72 2.273 . S
O76 Cd74 2.411 . S
O76 C79 1.320 . S
O77 Cd74 2.333 . S
O77 C79 1.214 . S
O78 Cd74 2.352 . S
O78 C81 1.258 . S
C79 O76 1.320 . S
C79 O77 1.214 . S
O80 Cd72 2.277 . S
O80 C75 1.209 . S
C81 O78 1.258 . S
C81 O83 1.282 . S
O82 Cd74 2.277 . S
O82 C75 1.226 . S
O83 Cd74 2.356 . S
O83 C81 1.282 . S
C84 O85 1.306 . S
C84 O87 1.160 . S
O85 C84 1.306 . S
O85 Cd86 2.228 . S
Cd86 O85 2.228 . S
Cd86 O90 2.273 . S
Cd86 O94 2.277 . S
O87 C84 1.160 . S
O87 Cd88 2.203 . S
Cd88 O87 2.203 . S
Cd88 O90 2.411 . S
Cd88 O91 2.333 . S
Cd88 O92 2.352 . S
Cd88 O96 2.277 . S
Cd88 O97 2.356 . S
C89 O94 1.209 . S
C89 O96 1.226 . S
O90 Cd86 2.273 . S
O90 Cd88 2.411 . S
O90 C93 1.320 . S
O91 Cd88 2.333 . S
O91 C93 1.214 . S
O92 Cd88 2.352 . S
O92 C95 1.258 . S
C93 O90 1.320 . S
C93 O91 1.214 . S
O94 Cd86 2.277 . S
O94 C89 1.209 . S
C95 O92 1.258 . S
C95 O97 1.282 . S
O96 Cd88 2.277 . S
O96 C89 1.226 . S
O97 Cd88 2.356 . S
O97 C95 1.282 . S
C98 O99 1.306 . S
C98 O101 1.160 . S
O99 C98 1.306 . S
O99 Cd100 2.228 1_655 S
Cd100 O99 2.228 1_455 S
Cd100 O104 2.273 . S
Cd100 O108 2.277 . S
O101 C98 1.160 . S
O101 Cd102 2.203 1_655 S
Cd102 O101 2.203 1_455 S
Cd102 O104 2.411 . S
Cd102 O105 2.333 . S
Cd102 O106 2.352 . S
Cd102 O110 2.277 . S
Cd102 O111 2.356 . S
C103 O108 1.209 . S
C103 O110 1.226 . S
O104 Cd100 2.273 . S
O104 Cd102 2.411 . S
O104 C107 1.320 . S
O105 Cd102 2.333 . S
O105 C107 1.214 . S
O106 Cd102 2.352 . S
O106 C109 1.258 . S
C107 O104 1.320 . S
C107 O105 1.214 . S
O108 Cd100 2.277 . S
O108 C103 1.209 . S
C109 O106 1.258 . S
C109 O111 1.282 . S
O110 Cd102 2.277 . S
O110 C103 1.226 . S
O111 Cd102 2.356 . S
O111 C109 1.282 . S
C112 O113 1.306 1_545 S
C112 O115 1.160 . S
O113 C112 1.306 1_565 S
O113 Cd114 2.228 . S
Cd114 O113 2.228 . S
Cd114 O118 2.273 1_565 S
Cd114 O122 2.277 . S
O115 C112 1.160 . S
O115 Cd116 2.203 . S
Cd116 O115 2.203 . S
Cd116 O118 2.411 . S
Cd116 O119 2.333 1_545 S
Cd116 O120 2.352 . S
Cd116 O124 2.277 1_545 S
Cd116 O125 2.356 . S
C117 O122 1.209 . S
C117 O124 1.226 . S
O118 Cd114 2.273 1_545 S
O118 Cd116 2.411 . S
O118 C121 1.321 . S
O119 Cd116 2.333 1_565 S
O119 C121 1.215 1_565 S
O120 Cd116 2.352 . S
O120 C123 1.258 . S
C121 O118 1.321 . S
C121 O119 1.215 1_545 S
O122 Cd114 2.277 . S
O122 C117 1.209 . S
C123 O120 1.258 . S
C123 O125 1.282 . S
O124 Cd116 2.277 1_565 S
O124 C117 1.226 . S
O125 Cd116 2.356 . S
O125 C123 1.282 . S
C126 O127 1.306 . S
C126 O129 1.160 . S
O127 C126 1.306 . S
O127 Cd128 2.228 . S
Cd128 O127 2.228 . S
Cd128 O132 2.273 . S
Cd128 O136 2.277 . S
O129 C126 1.160 . S
O129 Cd130 2.203 . S
Cd130 O129 2.203 . S
Cd130 O132 2.411 . S
Cd130 O133 2.333 . S
Cd130 O134 2.352 . S
Cd130 O138 2.277 . S
Cd130 O139 2.356 . S
C131 O136 1.209 . S
C131 O138 1.226 . S
O132 Cd128 2.273 . S
O132 Cd130 2.411 . S
O132 C135 1.320 . S
O133 Cd130 2.333 . S
O133 C135 1.214 . S
O134 Cd130 2.352 . S
O134 C137 1.258 . S
C135 O132 1.320 . S
C135 O133 1.214 . S
O136 Cd128 2.277 . S
O136 C131 1.209 . S
C137 O134 1.258 . S
C137 O139 1.282 . S
O138 Cd130 2.277 . S
O138 C131 1.226 . S
O139 Cd130 2.356 . S
O139 C137 1.282 . S
C140 O141 1.306 . S
C140 O143 1.160 . S
O141 C140 1.306 . S
O141 Cd142 2.228 . S
Cd142 O141 2.228 . S
Cd142 O146 2.273 . S
Cd142 O150 2.277 . S
O143 C140 1.160 . S
O143 Cd144 2.203 . S
Cd144 O143 2.203 . S
Cd144 O146 2.411 . S
Cd144 O147 2.330 . S
Cd144 O148 2.352 1_545 S
Cd144 O152 2.277 . S
Cd144 O153 2.356 1_545 S
C145 O150 1.209 . S
C145 O152 1.226 . S
O146 Cd142 2.273 . S
O146 Cd144 2.411 . S
O146 C149 1.320 . S
O147 Cd144 2.330 . S
O147 C149 1.219 . S
O148 Cd144 2.352 1_565 S
O148 C151 1.258 . S
C149 O146 1.320 . S
C149 O147 1.219 . S
O150 Cd142 2.277 . S
O150 C145 1.209 . S
C151 O148 1.258 . S
C151 O153 1.282 . S
O152 Cd144 2.277 . S
O152 C145 1.226 . S
O153 Cd144 2.356 1_565 S
O153 C151 1.282 . S
C154 O155 1.306 1_554 S
C154 O157 1.160 . S
O155 C154 1.306 1_556 S
O155 Cd156 2.228 . S
Cd156 O155 2.228 . S
Cd156 O160 2.273 1_556 S
Cd156 O164 2.277 . S
O157 C154 1.160 . S
O157 Cd158 2.203 . S
Cd158 O157 2.203 . S
Cd158 O160 2.411 . S
Cd158 O161 2.333 . S
Cd158 O162 2.352 . S
Cd158 O166 2.277 1_554 S
Cd158 O167 2.356 . S
C159 O164 1.209 . S
C159 O166 1.226 . S
O160 Cd156 2.273 1_554 S
O160 Cd158 2.411 . S
O160 C163 1.320 . S
O161 Cd158 2.333 . S
O161 C163 1.214 . S
O162 Cd158 2.352 . S
O162 C165 1.258 . S
C163 O160 1.320 . S
C163 O161 1.214 . S
O164 Cd156 2.277 . S
O164 C159 1.209 . S
C165 O162 1.258 . S
C165 O167 1.282 . S
O166 Cd158 2.277 1_556 S
O166 C159 1.226 . S
O167 Cd158 2.356 . S
O167 C165 1.282 . S
C168 O169 1.306 . S
C168 O171 1.160 . S
O169 C168 1.306 . S
O169 Cd170 2.228 1_554 S
Cd170 O169 2.228 1_556 S
Cd170 O174 2.273 1_556 S
Cd170 O178 2.277 . S
O171 C168 1.160 . S
O171 Cd172 2.203 . S
Cd172 O171 2.203 . S
Cd172 O174 2.411 . S
Cd172 O175 2.333 . S
Cd172 O176 2.352 . S
Cd172 O180 2.277 1_554 S
Cd172 O181 2.356 . S
C173 O178 1.209 . S
C173 O180 1.226 . S
O174 Cd170 2.273 1_554 S
O174 Cd172 2.411 . S
O174 C177 1.320 . S
O175 Cd172 2.333 . S
O175 C177 1.214 . S
O176 Cd172 2.352 . S
O176 C179 1.258 . S
C177 O174 1.320 . S
C177 O175 1.214 . S
O178 Cd170 2.277 . S
O178 C173 1.209 . S
C179 O176 1.258 . S
C179 O181 1.282 . S
O180 Cd172 2.277 1_556 S
O180 C173 1.226 . S
O181 Cd172 2.356 . S
O181 C179 1.282 . S
C182 O183 1.306 . S
C182 O185 1.160 . S
O183 C182 1.306 . S
O183 Cd184 2.228 . S
Cd184 O183 2.228 . S
Cd184 O188 2.273 . S
Cd184 O192 2.277 . S
O185 C182 1.160 . S
O185 Cd186 2.203 . S
Cd186 O185 2.203 . S
Cd186 O188 2.411 . S
Cd186 O189 2.333 . S
Cd186 O190 2.352 1_554 S
Cd186 O194 2.277 . S
Cd186 O195 2.356 1_554 S
C187 O192 1.209 . S
C187 O194 1.226 . S
O188 Cd184 2.273 . S
O188 Cd186 2.411 . S
O188 C191 1.320 . S
O189 Cd186 2.333 . S
O189 C191 1.214 . S
O190 Cd186 2.352 1_556 S
O190 C193 1.258 . S
C191 O188 1.320 . S
C191 O189 1.214 . S
O192 Cd184 2.277 . S
O192 C187 1.209 . S
C193 O190 1.258 . S
C193 O195 1.282 . S
O194 Cd186 2.277 . S
O194 C187 1.226 . S
O195 Cd186 2.356 1_556 S
O195 C193 1.282 . S
C196 O197 1.306 . S
C196 O199 1.160 . S
O197 C196 1.306 . S
O197 Cd198 2.228 . S
Cd198 O197 2.228 . S
Cd198 O202 2.273 . S
Cd198 O206 2.277 . S
O199 C196 1.160 . S
O199 Cd200 2.203 . S
Cd200 O199 2.203 . S
Cd200 O202 2.411 . S
Cd200 O203 2.333 . S
Cd200 O204 2.352 . S
Cd200 O208 2.277 . S
Cd200 O209 2.356 . S
C201 O206 1.209 . S
C201 O208 1.226 . S
O202 Cd198 2.273 . S
O202 Cd200 2.411 . S
O202 C205 1.320 . S
O203 Cd200 2.333 . S
O203 C205 1.214 . S
O204 Cd200 2.352 . S
O204 C207 1.258 . S
C205 O202 1.320 . S
C205 O203 1.214 . S
O206 Cd198 2.277 . S
O206 C201 1.209 . S
C207 O204 1.258 . S
C207 O209 1.282 . S
O208 Cd200 2.277 . S
O208 C201 1.226 . S
O209 Cd200 2.356 . S
O209 C207 1.282 . S
C210 O211 1.306 . S
C210 O213 1.160 . S
O211 C210 1.306 . S
O211 Cd212 2.228 . S
Cd212 O211 2.228 . S
Cd212 O216 2.273 . S
Cd212 O220 2.277 . S
O213 C210 1.160 . S
O213 Cd214 2.203 . S
Cd214 O213 2.203 . S
Cd214 O216 2.411 . S
Cd214 O217 2.333 . S
Cd214 O218 2.352 . S
Cd214 O222 2.277 . S
Cd214 O223 2.356 . S
C215 O220 1.209 . S
C215 O222 1.226 . S
O216 Cd212 2.273 . S
O216 Cd214 2.411 . S
O216 C219 1.320 . S
O217 Cd214 2.333 . S
O217 C219 1.214 . S
O218 Cd214 2.352 . S
O218 C221 1.258 . S
C219 O216 1.320 . S
C219 O217 1.214 . S
O220 Cd212 2.277 . S
O220 C215 1.209 . S
C221 O218 1.258 . S
C221 O223 1.282 . S
O222 Cd214 2.277 . S
O222 C215 1.226 . S
O223 Cd214 2.356 . S
O223 C221 1.282 . S
C224 O225 1.306 . S
C224 O227 1.160 . S
O225 C224 1.306 . S
O225 Cd226 2.228 . S
Cd226 O225 2.228 . S
Cd226 O230 2.273 . S
Cd226 O234 2.277 . S
O227 C224 1.160 . S
O227 Cd228 2.203 . S
Cd228 O227 2.203 . S
Cd228 O230 2.411 . S
Cd228 O231 2.333 . S
Cd228 O232 2.352 . S
Cd228 O236 2.277 . S
Cd228 O237 2.356 . S
C229 O234 1.209 . S
C229 O236 1.226 . S
O230 Cd226 2.273 . S
O230 Cd228 2.411 . S
O230 C233 1.320 . S
O231 Cd228 2.333 . S
O231 C233 1.214 . S
O232 Cd228 2.352 . S
O232 C235 1.258 . S
C233 O230 1.320 . S
C233 O231 1.214 . S
O234 Cd226 2.277 . S
O234 C229 1.209 . S
C235 O232 1.258 . S
C235 O237 1.282 . S
O236 Cd228 2.277 . S
O236 C229 1.226 . S
O237 Cd228 2.356 . S
O237 C235 1.282 . S
C238 O239 1.306 . S
C238 O241 1.160 . S
O239 C238 1.306 . S
O239 Cd240 2.228 . S
Cd240 O239 2.228 . S
Cd240 O244 2.273 . S
Cd240 O248 2.277 . S
O241 C238 1.160 . S
O241 Cd242 2.203 . S
Cd242 O241 2.203 . S
Cd242 O244 2.411 . S
Cd242 O245 2.333 . S
Cd242 O246 2.352 . S
Cd242 O250 2.277 . S
Cd242 O251 2.356 . S
C243 O248 1.209 . S
C243 O250 1.226 . S
O244 Cd240 2.273 . S
O244 Cd242 2.411 . S
O244 C247 1.320 . S
O245 Cd242 2.333 . S
O245 C247 1.214 . S
O246 Cd242 2.352 . S
O246 C249 1.258 . S
C247 O244 1.320 . S
C247 O245 1.214 . S
O248 Cd240 2.277 . S
O248 C243 1.209 . S
C249 O246 1.258 . S
C249 O251 1.282 . S
O250 Cd242 2.277 . S
O250 C243 1.226 . S
O251 Cd242 2.356 . S
O251 C249 1.282 . S
C252 O253 1.306 . S
C252 O255 1.160 . S
O253 C252 1.306 . S
O253 Cd254 2.228 . S
Cd254 O253 2.228 . S
Cd254 O258 2.273 . S
Cd254 O262 2.277 . S
O255 C252 1.160 . S
O255 Cd256 2.203 . S
Cd256 O255 2.203 . S
Cd256 O258 2.411 . S
Cd256 O259 2.333 . S
Cd256 O260 2.352 . S
Cd256 O264 2.277 . S
Cd256 O265 2.356 . S
C257 O262 1.209 . S
C257 O264 1.226 . S
O258 Cd254 2.273 . S
O258 Cd256 2.411 . S
O258 C261 1.320 . S
O259 Cd256 2.333 . S
O259 C261 1.214 . S
O260 Cd256 2.352 . S
O260 C263 1.258 . S
C261 O258 1.320 . S
C261 O259 1.214 . S
O262 Cd254 2.277 . S
O262 C257 1.209 . S
C263 O260 1.258 . S
C263 O265 1.282 . S
O264 Cd256 2.277 . S
O264 C257 1.226 . S
O265 Cd256 2.356 . S
O265 C263 1.282 . S
C266 O267 1.306 . S
C266 O269 1.160 . S
O267 C266 1.306 . S
O267 Cd268 2.228 . S
Cd268 O267 2.228 . S
Cd268 O272 2.273 . S
Cd268 O276 2.277 . S
O269 C266 1.160 . S
O269 Cd270 2.203 . S
Cd270 O269 2.203 . S
Cd270 O272 2.411 . S
Cd270 O273 2.333 . S
Cd270 O274 2.352 . S
Cd270 O278 2.277 . S
Cd270 O279 2.356 . S
C271 O276 1.209 . S
C271 O278 1.226 . S
O272 Cd268 2.273 . S
O272 Cd270 2.411 . S
O272 C275 1.320 . S
O273 Cd270 2.333 . S
O273 C275 1.214 . S
O274 Cd270 2.352 . S
O274 C277 1.258 . S
C275 O272 1.320 . S
C275 O273 1.214 . S
O276 Cd268 2.277 . S
O276 C271 1.209 . S
C277 O274 1.258 . S
C277 O279 1.282 . S
O278 Cd270 2.277 . S
O278 C271 1.226 . S
O279 Cd270 2.356 . S
O279 C277 1.282 . S
C280 O281 1.306 . S
C280 O283 1.160 . S
O281 C280 1.306 . S
O281 Cd282 2.228 . S
Cd282 O281 2.228 . S
Cd282 O286 2.273 . S
Cd282 O290 2.277 . S
O283 C280 1.160 . S
O283 Cd284 2.203 . S
Cd284 O283 2.203 . S
Cd284 O286 2.411 . S
Cd284 O287 2.333 1_554 S
Cd284 O288 2.352 1_554 S
Cd284 O292 2.277 . S
Cd284 O293 2.356 1_554 S
C285 O290 1.209 . S
C285 O292 1.226 . S
O286 Cd282 2.273 . S
O286 Cd284 2.411 . S
O286 C289 1.320 . S
O287 Cd284 2.333 1_556 S
O287 C289 1.212 1_556 S
O288 Cd284 2.352 1_556 S
O288 C291 1.258 . S
C289 O286 1.320 . S
C289 O287 1.212 1_554 S
O290 Cd282 2.277 . S
O290 C285 1.209 . S
C291 O288 1.258 . S
C291 O293 1.282 . S
O292 Cd284 2.277 . S
O292 C285 1.226 . S
O293 Cd284 2.356 1_556 S
O293 C291 1.282 . S
C294 O295 1.306 . S
C294 O297 1.160 . S
O295 C294 1.306 . S
O295 Cd296 2.228 . S
Cd296 O295 2.228 . S
Cd296 O300 2.273 . S
Cd296 O304 2.277 . S
O297 C294 1.160 . S
O297 Cd298 2.203 . S
Cd298 O297 2.203 . S
Cd298 O300 2.411 . S
Cd298 O301 2.333 . S
Cd298 O302 2.352 . S
Cd298 O306 2.277 . S
Cd298 O307 2.356 . S
C299 O304 1.209 . S
C299 O306 1.226 . S
O300 Cd296 2.273 . S
O300 Cd298 2.411 . S
O300 C303 1.320 . S
O301 Cd298 2.333 . S
O301 C303 1.214 . S
O302 Cd298 2.352 . S
O302 C305 1.258 . S
C303 O300 1.320 . S
C303 O301 1.214 . S
O304 Cd296 2.277 . S
O304 C299 1.209 . S
C305 O302 1.258 . S
C305 O307 1.282 . S
O306 Cd298 2.277 . S
O306 C299 1.226 . S
O307 Cd298 2.356 . S
O307 C305 1.282 . S
C308 O309 1.306 . S
C308 O311 1.160 . S
O309 C308 1.306 . S
O309 Cd310 2.228 . S
Cd310 O309 2.228 . S
Cd310 O314 2.273 . S
Cd310 O318 2.277 . S
O311 C308 1.160 . S
O311 Cd312 2.203 . S
Cd312 O311 2.203 . S
Cd312 O314 2.411 . S
Cd312 O315 2.333 . S
Cd312 O316 2.352 . S
Cd312 O320 2.277 . S
Cd312 O321 2.356 . S
C313 O318 1.209 . S
C313 O320 1.226 . S
O314 Cd310 2.273 . S
O314 Cd312 2.411 . S
O314 C317 1.320 . S
O315 Cd312 2.333 . S
O315 C317 1.214 . S
O316 Cd312 2.352 . S
O316 C319 1.258 . S
C317 O314 1.320 . S
C317 O315 1.214 . S
O318 Cd310 2.277 . S
O318 C313 1.209 . S
C319 O316 1.258 . S
C319 O321 1.282 . S
O320 Cd312 2.277 . S
O320 C313 1.226 . S
O321 Cd312 2.356 . S
O321 C319 1.282 . S
C322 O323 1.306 . S
C322 O325 1.160 . S
O323 C322 1.306 . S
O323 Cd324 2.228 . S
Cd324 O323 2.228 . S
Cd324 O328 2.273 . S
Cd324 O332 2.277 . S
O325 C322 1.160 . S
O325 Cd326 2.203 . S
Cd326 O325 2.203 . S
Cd326 O328 2.411 . S
Cd326 O329 2.333 . S
Cd326 O330 2.352 . S
Cd326 O334 2.277 . S
Cd326 O335 2.356 . S
C327 O332 1.209 . S
C327 O334 1.226 . S
O328 Cd324 2.273 . S
O328 Cd326 2.411 . S
O328 C331 1.320 . S
O329 Cd326 2.333 . S
O329 C331 1.214 . S
O330 Cd326 2.352 . S
O330 C333 1.258 . S
C331 O328 1.320 . S
C331 O329 1.214 . S
O332 Cd324 2.277 . S
O332 C327 1.209 . S
C333 O330 1.258 . S
C333 O335 1.282 . S
O334 Cd326 2.277 . S
O334 C327 1.226 . S
O335 Cd326 2.356 . S
O335 C333 1.282 . S
La336 C338 2.931 1_455 S
La336 O356 2.530 1_455 S
La336 O357 2.624 1_456 S
La336 O358 2.570 . S
La336 O359 2.762 . S
La336 O360 2.476 . S
La336 O365 2.469 1_556 S
La336 O367 2.496 1_546 S
La337 C347 2.928 . S
La337 O359 2.482 1_554 S
La337 O361 2.503 . S
La337 O362 2.521 . S
La337 O363 2.628 . S
La337 O364 2.554 . S
La337 O365 2.757 . S
La337 O366 2.470 . S
C338 La336 2.931 1_655 S
C338 C339 1.503 . S
C338 O356 1.261 . S
C338 O357 1.243 1_556 S
C339 C338 1.503 . S
C339 C340 1.394 . S
C339 C344 1.373 1_556 S
C340 C339 1.394 . S
C340 C341 1.380 . S
C340 H368 0.930 . S
C341 C340 1.380 . S
C341 C342 1.376 . S
C341 H369 0.930 . S
C342 C341 1.376 . S
C342 C343 1.370 . S
C343 C342 1.370 . S
C343 C344 1.396 1_556 S
C343 H370 0.929 1_556 S
C344 C339 1.373 1_554 S
C344 C343 1.396 1_554 S
C344 H371 0.929 . S
C345 O358 1.240 . S
C345 O359 1.289 . S
C346 O360 1.258 1_554 S
C346 O361 1.256 . S
C347 La337 2.928 . S
C347 C348 1.503 . S
C347 O362 1.261 . S
C347 O363 1.243 . S
C348 C347 1.503 . S
C348 C349 1.394 . S
C348 C353 1.373 . S
C349 C348 1.394 . S
C349 C350 1.380 . S
C349 H372 0.930 . S
C350 C349 1.380 . S
C350 C351 1.376 . S
C350 H373 0.930 . S
C351 C350 1.376 . S
C351 C352 1.370 1_545 S
C352 C351 1.370 1_565 S
C352 C353 1.396 1_565 S
C352 H374 0.929 . S
C353 C348 1.373 . S
C353 C352 1.396 1_545 S
C353 H375 0.929 1_545 S
C354 O364 1.240 . S
C354 O365 1.289 . S
C355 O366 1.258 1_565 S
C355 O367 1.256 . S
O356 La336 2.530 1_655 S
O356 C338 1.261 . S
O357 La336 2.624 1_654 S
O357 C338 1.243 1_554 S
O358 La336 2.570 . S
O358 C345 1.240 . S
O359 La336 2.762 . S
O359 La337 2.482 1_556 S
O359 C345 1.289 . S
O360 La336 2.476 . S
O360 C346 1.258 1_556 S
O361 La337 2.503 . S
O361 C346 1.256 . S
O362 La337 2.521 . S
O362 C347 1.261 . S
O363 La337 2.628 . S
O363 C347 1.243 . S
O364 La337 2.554 . S
O364 C354 1.240 . S
O365 La336 2.469 1_554 S
O365 La337 2.757 . S
O365 C354 1.289 . S
O366 La337 2.470 . S
O366 C355 1.258 1_545 S
O367 La336 2.496 1_564 S
O367 C355 1.256 . S
H368 C340 0.930 . S
H369 C341 0.930 . S
H370 C343 0.929 1_554 S
H371 C344 0.929 . S
H372 C349 0.930 . S
H373 C350 0.930 . S
H374 C352 0.929 . S
H375 C353 0.929 1_565 S
La376 C378 2.928 . S
La376 O396 2.521 . S
La376 O397 2.628 . S
La376 O398 2.554 . S
La376 O399 2.757 . S
La376 O400 2.470 . S
La376 O405 2.482 . S
La376 O407 2.503 . S
La377 C387 2.928 . S
La377 O399 2.482 . S
La377 O401 2.503 . S
La377 O402 2.521 . S
La377 O403 2.628 . S
La377 O404 2.554 . S
La377 O405 2.757 . S
La377 O406 2.470 . S
C378 La376 2.928 . S
C378 C379 1.503 . S
C378 O396 1.261 . S
C378 O397 1.243 . S
C379 C378 1.503 . S
C379 C380 1.394 . S
C379 C384 1.373 . S
C380 C379 1.394 . S
C380 C381 1.380 . S
C380 H408 0.930 . S
C381 C380 1.380 . S
C381 C382 1.376 . S
C381 H409 0.930 . S
C382 C381 1.376 . S
C382 C383 1.370 . S
C383 C382 1.370 . S
C383 C384 1.396 . S
C383 H410 0.929 . S
C384 C379 1.373 . S
C384 C383 1.396 . S
C384 H411 0.929 . S
C385 O398 1.240 . S
C385 O399 1.289 . S
C386 O400 1.258 . S
C386 O401 1.256 . S
C387 La377 2.928 . S
C387 C388 1.503 . S
C387 O402 1.261 . S
C387 O403 1.243 . S
C388 C387 1.503 . S
C388 C389 1.394 . S
C388 C393 1.373 . S
C389 C388 1.394 . S
C389 C390 1.380 . S
C389 H412 0.930 . S
C390 C389 1.380 . S
C390 C391 1.376 . S
C390 H413 0.930 . S
C391 C390 1.376 . S
C391 C392 1.370 . S
C392 C391 1.370 . S
C392 C393 1.396 . S
C392 H414 0.929 . S
C393 C388 1.373 . S
C393 C392 1.396 . S
C393 H415 0.929 . S
C394 O404 1.240 . S
C394 O405 1.289 . S
C395 O406 1.258 . S
C395 O407 1.256 . S
O396 La376 2.521 . S
O396 C378 1.261 . S
O397 La376 2.628 . S
O397 C378 1.243 . S
O398 La376 2.554 . S
O398 C385 1.240 . S
O399 La376 2.757 . S
O399 La377 2.482 . S
O399 C385 1.289 . S
O400 La376 2.470 . S
O400 C386 1.258 . S
O401 La377 2.503 . S
O401 C386 1.256 . S
O402 La377 2.521 . S
O402 C387 1.261 . S
O403 La377 2.628 . S
O403 C387 1.243 . S
O404 La377 2.554 . S
O404 C394 1.240 . S
O405 La376 2.482 . S
O405 La377 2.757 . S
O405 C394 1.289 . S
O406 La377 2.470 . S
O406 C395 1.258 . S
O407 La376 2.503 . S
O407 C395 1.256 . S
H408 C380 0.930 . S
H409 C381 0.930 . S
H410 C383 0.929 . S
H411 C384 0.929 . S
H412 C389 0.930 . S
H413 C390 0.930 . S
H414 C392 0.929 . S
H415 C393 0.929 . S
La416 C418 2.928 . S
La416 O436 2.521 . S
La416 O437 2.628 . S
La416 O438 2.554 . S
La416 O439 2.757 . S
La416 O440 2.470 1_545 S
La416 O445 2.482 . S
La416 O447 2.503 . S
La417 C427 2.928 . S
La417 O439 2.482 . S
La417 O441 2.503 1_545 S
La417 O442 2.521 . S
La417 O443 2.628 . S
La417 O444 2.554 . S
La417 O445 2.757 . S
La417 O446 2.470 . S
C418 La416 2.928 . S
C418 C419 1.503 1_545 S
C418 O436 1.261 . S
C418 O437 1.243 . S
C419 C418 1.503 1_565 S
C419 C420 1.394 . S
C419 C424 1.373 . S
C420 C419 1.394 . S
C420 C421 1.380 . S
C420 H448 0.930 1_565 S
C421 C420 1.380 . S
C421 C422 1.376 . S
C421 H449 0.930 . S
C422 C421 1.376 . S
C422 C423 1.370 . S
C423 C422 1.370 . S
C423 C424 1.396 . S
C423 H450 0.929 . S
C424 C419 1.373 . S
C424 C423 1.396 . S
C424 H451 0.929 . S
C425 O438 1.240 . S
C425 O439 1.289 . S
C426 O440 1.258 . S
C426 O441 1.256 . S
C427 La417 2.928 . S
C427 C428 1.503 . S
C427 O442 1.261 . S
C427 O443 1.243 . S
C428 C427 1.503 . S
C428 C429 1.394 . S
C428 C433 1.373 . S
C429 C428 1.394 . S
C429 C430 1.380 . S
C429 H452 0.930 . S
C430 C429 1.380 . S
C430 C431 1.376 . S
C430 H453 0.930 . S
C431 C430 1.376 . S
C431 C432 1.370 . S
C432 C431 1.370 . S
C432 C433 1.396 . S
C432 H454 0.929 . S
C433 C428 1.373 . S
C433 C432 1.396 . S
C433 H455 0.929 . S
C434 O444 1.240 . S
C434 O445 1.289 . S
C435 O446 1.258 . S
C435 O447 1.256 . S
O436 La416 2.521 . S
O436 C418 1.261 . S
O437 La416 2.628 . S
O437 C418 1.243 . S
O438 La416 2.554 . S
O438 C425 1.240 . S
O439 La416 2.757 . S
O439 La417 2.482 . S
O439 C425 1.289 . S
O440 La416 2.470 1_565 S
O440 C426 1.258 . S
O441 La417 2.503 1_565 S
O441 C426 1.256 . S
O442 La417 2.521 . S
O442 C427 1.261 . S
O443 La417 2.628 . S
O443 C427 1.243 . S
O444 La417 2.554 . S
O444 C434 1.240 . S
O445 La416 2.482 . S
O445 La417 2.757 . S
O445 C434 1.289 . S
O446 La417 2.470 . S
O446 C435 1.258 . S
O447 La416 2.503 . S
O447 C435 1.256 . S
H448 C420 0.930 1_545 S
H449 C421 0.930 . S
H450 C423 0.929 . S
H451 C424 0.929 . S
H452 C429 0.930 . S
H453 C430 0.930 . S
H454 C432 0.929 . S
H455 C433 0.929 . S
La456 C458 2.928 . S
La456 O476 2.521 . S
La456 O477 2.628 . S
La456 O478 2.554 . S
La456 O479 2.757 . S
La456 O480 2.470 . S
La456 O485 2.482 . S
La456 O487 2.503 . S
La457 C467 2.928 . S
La457 O479 2.482 . S
La457 O481 2.503 . S
La457 O482 2.521 . S
La457 O483 2.628 . S
La457 O484 2.554 . S
La457 O485 2.757 . S
La457 O486 2.470 . S
C458 La456 2.928 . S
C458 C459 1.503 . S
C458 O476 1.261 . S
C458 O477 1.243 . S
C459 C458 1.503 . S
C459 C460 1.394 . S
C459 C464 1.373 . S
C460 C459 1.394 . S
C460 C461 1.380 . S
C460 H488 0.930 . S
C461 C460 1.380 . S
C461 C462 1.376 . S
C461 H489 0.930 . S
C462 C461 1.376 . S
C462 C463 1.370 . S
C463 C462 1.370 . S
C463 C464 1.396 . S
C463 H490 0.929 . S
C464 C459 1.373 . S
C464 C463 1.396 . S
C464 H491 0.929 . S
C465 O478 1.240 . S
C465 O479 1.289 . S
C466 O480 1.258 . S
C466 O481 1.256 . S
C467 La457 2.928 . S
C467 C468 1.503 . S
C467 O482 1.261 . S
C467 O483 1.243 . S
C468 C467 1.503 . S
C468 C469 1.394 . S
C468 C473 1.373 . S
C469 C468 1.394 . S
C469 C470 1.380 . S
C469 H492 0.930 . S
C470 C469 1.380 . S
C470 C471 1.376 . S
C470 H493 0.930 . S
C471 C470 1.376 . S
C471 C472 1.370 . S
C472 C471 1.370 . S
C472 C473 1.396 . S
C472 H494 0.929 . S
C473 C468 1.373 . S
C473 C472 1.396 . S
C473 H495 0.929 . S
C474 O484 1.240 . S
C474 O485 1.289 . S
C475 O486 1.258 . S
C475 O487 1.256 . S
O476 La456 2.521 . S
O476 C458 1.261 . S
O477 La456 2.628 . S
O477 C458 1.243 . S
O478 La456 2.554 . S
O478 C465 1.240 . S
O479 La456 2.757 . S
O479 La457 2.482 . S
O479 C465 1.289 . S
O480 La456 2.470 . S
O480 C466 1.258 . S
O481 La457 2.503 . S
O481 C466 1.256 . S
O482 La457 2.521 . S
O482 C467 1.261 . S
O483 La457 2.628 . S
O483 C467 1.243 . S
O484 La457 2.554 . S
O484 C474 1.240 . S
O485 La456 2.482 . S
O485 La457 2.757 . S
O485 C474 1.289 . S
O486 La457 2.470 . S
O486 C475 1.258 . S
O487 La456 2.503 . S
O487 C475 1.256 . S
H488 C460 0.930 . S
H489 C461 0.930 . S
H490 C463 0.929 . S
H491 C464 0.929 . S
H492 C469 0.930 . S
H493 C470 0.930 . S
H494 C472 0.929 . S
H495 C473 0.929 . S
La496 C498 2.928 . S
La496 O516 2.521 . S
La496 O517 2.628 . S
La496 O518 2.554 . S
La496 O519 2.757 . S
La496 O520 2.470 . S
La496 O525 2.482 . S
La496 O527 2.503 . S
La497 C507 2.926 . S
La497 O519 2.483 1_565 S
La497 O521 2.505 1_565 S
La497 O522 2.519 . S
La497 O523 2.626 . S
La497 O524 2.554 1_565 S
La497 O525 2.759 1_565 S
La497 O526 2.471 1_565 S
C498 La496 2.928 . S
C498 C499 1.503 . S
C498 O516 1.261 . S
C498 O517 1.243 . S
C499 C498 1.503 . S
C499 C500 1.394 . S
C499 C504 1.373 . S
C500 C499 1.394 . S
C500 C501 1.380 . S
C500 H528 0.930 . S
C501 C500 1.380 . S
C501 C502 1.376 . S
C501 H529 0.930 . S
C502 C501 1.376 . S
C502 C503 1.370 . S
C503 C502 1.370 . S
C503 C504 1.396 . S
C503 H530 0.929 . S
C504 C499 1.373 . S
C504 C503 1.396 . S
C504 H531 0.929 . S
C505 O518 1.240 . S
C505 O519 1.289 . S
C506 O520 1.258 . S
C506 O521 1.256 . S
C507 La497 2.926 . S
C507 C508 1.503 . S
C507 O522 1.261 . S
C507 O523 1.243 . S
C508 C507 1.503 . S
C508 C509 1.394 . S
C508 C513 1.373 . S
C509 C508 1.394 . S
C509 C510 1.380 . S
C509 H532 0.930 . S
C510 C509 1.380 . S
C510 C511 1.376 . S
C510 H533 0.930 . S
C511 C510 1.376 . S
C511 C512 1.370 . S
C512 C511 1.370 . S
C512 C513 1.396 . S
C512 H534 0.929 . S
C513 C508 1.373 . S
C513 C512 1.396 . S
C513 H535 0.929 . S
C514 O524 1.240 . S
C514 O525 1.289 . S
C515 O526 1.258 . S
C515 O527 1.256 . S
O516 La496 2.521 . S
O516 C498 1.261 . S
O517 La496 2.628 . S
O517 C498 1.243 . S
O518 La496 2.554 . S
O518 C505 1.240 . S
O519 La496 2.757 . S
O519 La497 2.483 1_545 S
O519 C505 1.289 . S
O520 La496 2.470 . S
O520 C506 1.258 . S
O521 La497 2.505 1_545 S
O521 C506 1.256 . S
O522 La497 2.519 . S
O522 C507 1.261 . S
O523 La497 2.626 . S
O523 C507 1.243 . S
O524 La497 2.554 1_545 S
O524 C514 1.240 . S
O525 La496 2.482 . S
O525 La497 2.759 1_545 S
O525 C514 1.289 . S
O526 La497 2.471 1_545 S
O526 C515 1.258 . S
O527 La496 2.503 . S
O527 C515 1.256 . S
H528 C500 0.930 . S
H529 C501 0.930 . S
H530 C503 0.929 . S
H531 C504 0.929 . S
H532 C509 0.930 . S
H533 C510 0.930 . S
H534 C512 0.929 . S
H535 C513 0.929 . S
La536 C538 2.928 . S
La536 O556 2.521 . S
La536 O557 2.628 . S
La536 O558 2.554 . S
La536 O559 2.757 . S
La536 O560 2.470 . S
La536 O565 2.482 . S
La536 O567 2.503 . S
La537 C547 2.928 . S
La537 O559 2.482 . S
La537 O561 2.503 . S
La537 O562 2.521 . S
La537 O563 2.628 . S
La537 O564 2.554 . S
La537 O565 2.757 . S
La537 O566 2.470 . S
C538 La536 2.928 . S
C538 C539 1.503 . S
C538 O556 1.261 . S
C538 O557 1.243 . S
C539 C538 1.503 . S
C539 C540 1.394 . S
C539 C544 1.373 . S
C540 C539 1.394 . S
C540 C541 1.380 . S
C540 H568 0.930 . S
C541 C540 1.380 . S
C541 C542 1.376 . S
C541 H569 0.930 . S
C542 C541 1.376 . S
C542 C543 1.370 . S
C543 C542 1.370 . S
C543 C544 1.396 . S
C543 H570 0.929 . S
C544 C539 1.373 . S
C544 C543 1.396 . S
C544 H571 0.929 . S
C545 O558 1.240 . S
C545 O559 1.289 . S
C546 O560 1.258 . S
C546 O561 1.256 . S
C547 La537 2.928 . S
C547 C548 1.503 . S
C547 O562 1.261 . S
C547 O563 1.243 . S
C548 C547 1.503 . S
C548 C549 1.394 . S
C548 C553 1.373 . S
C549 C548 1.394 . S
C549 C550 1.380 . S
C549 H572 0.930 . S
C550 C549 1.380 . S
C550 C551 1.376 . S
C550 H573 0.930 . S
C551 C550 1.376 . S
C551 C552 1.370 . S
C552 C551 1.370 . S
C552 C553 1.396 . S
C552 H574 0.929 . S
C553 C548 1.373 . S
C553 C552 1.396 . S
C553 H575 0.929 . S
C554 O564 1.240 . S
C554 O565 1.289 . S
C555 O566 1.258 . S
C555 O567 1.256 . S
O556 La536 2.521 . S
O556 C538 1.261 . S
O557 La536 2.628 . S
O557 C538 1.243 . S
O558 La536 2.554 . S
O558 C545 1.240 . S
O559 La536 2.757 . S
O559 La537 2.482 . S
O559 C545 1.289 . S
O560 La536 2.470 . S
O560 C546 1.258 . S
O561 La537 2.503 . S
O561 C546 1.256 . S
O562 La537 2.521 . S
O562 C547 1.261 . S
O563 La537 2.628 . S
O563 C547 1.243 . S
O564 La537 2.554 . S
O564 C554 1.240 . S
O565 La536 2.482 . S
O565 La537 2.757 . S
O565 C554 1.289 . S
O566 La537 2.470 . S
O566 C555 1.258 . S
O567 La536 2.503 . S
O567 C555 1.256 . S
H568 C540 0.930 . S
H569 C541 0.930 . S
H570 C543 0.929 . S
H571 C544 0.929 . S
H572 C549 0.930 . S
H573 C550 0.930 . S
H574 C552 0.929 . S
H575 C553 0.929 . S
La576 C578 2.928 . S
La576 O596 2.521 . S
La576 O597 2.628 . S
La576 O598 2.554 1_545 S
La576 O599 2.757 1_554 S
La576 O600 2.470 . S
La576 O605 2.482 . S
La576 O607 2.503 . S
La577 C587 2.928 . S
La577 O599 2.482 . S
La577 O601 2.503 . S
La577 O602 2.521 . S
La577 O603 2.628 . S
La577 O604 2.554 1_556 S
La577 O605 2.757 1_556 S
La577 O606 2.463 1_556 S
C578 La576 2.928 . S
C578 C579 1.503 . S
C578 O596 1.261 . S
C578 O597 1.243 . S
C579 C578 1.503 . S
C579 C580 1.394 1_545 S
C579 C584 1.373 . S
C580 C579 1.394 1_565 S
C580 C581 1.380 . S
C580 H608 0.930 . S
C581 C580 1.380 . S
C581 C582 1.376 . S
C581 H609 0.930 . S
C582 C581 1.376 . S
C582 C583 1.370 1_565 S
C583 C582 1.370 1_545 S
C583 C584 1.396 . S
C583 H610 0.929 . S
C584 C579 1.373 . S
C584 C583 1.396 . S
C584 H611 0.929 . S
C585 O598 1.228 1_556 S
C585 O599 1.294 1_565 S
C586 O600 1.258 . S
C586 O601 1.256 1_554 S
C587 La577 2.928 . S
C587 C588 1.503 . S
C587 O602 1.261 . S
C587 O603 1.243 . S
C588 C587 1.503 . S
C588 C589 1.394 . S
C588 C593 1.373 . S
C589 C588 1.394 . S
C589 C590 1.380 . S
C589 H612 0.930 . S
C590 C589 1.380 . S
C590 C591 1.376 . S
C590 H613 0.930 . S
C591 C590 1.376 . S
C591 C592 1.370 . S
C592 C591 1.370 . S
C592 C593 1.396 . S
C592 H614 0.929 . S
C593 C588 1.373 . S
C593 C592 1.396 . S
C593 H615 0.929 . S
C594 O604 1.240 . S
C594 O605 1.289 . S
C595 O606 1.272 . S
C595 O607 1.256 . S
O596 La576 2.521 . S
O596 C578 1.261 . S
O597 La576 2.628 . S
O597 C578 1.243 . S
O598 La576 2.554 1_565 S
O598 C585 1.228 1_554 S
O599 La576 2.757 1_556 S
O599 La577 2.482 . S
O599 C585 1.294 1_545 S
O600 La576 2.470 . S
O600 C586 1.258 . S
O601 La577 2.503 . S
O601 C586 1.256 1_556 S
O602 La577 2.521 . S
O602 C587 1.261 . S
O603 La577 2.628 . S
O603 C587 1.243 . S
O604 La577 2.554 1_554 S
O604 C594 1.240 . S
O605 La576 2.482 . S
O605 La577 2.757 1_554 S
O605 C594 1.289 . S
O606 La577 2.463 1_554 S
O606 C595 1.272 . S
O607 La576 2.503 . S
O607 C595 1.256 . S
H608 C580 0.930 . S
H609 C581 0.930 . S
H610 C583 0.929 . S
H611 C584 0.929 . S
H612 C589 0.930 . S
H613 C590 0.930 . S
H614 C592 0.929 . S
H615 C593 0.929 . S
La616 C618 2.928 . S
La616 O636 2.521 . S
La616 O637 2.628 . S
La616 O638 2.554 . S
La616 O639 2.757 . S
La616 O640 2.470 . S
La616 O645 2.482 . S
La616 O647 2.503 . S
La617 C627 2.928 . S
La617 O639 2.482 . S
La617 O641 2.503 . S
La617 O642 2.521 . S
La617 O643 2.628 . S
La617 O644 2.554 . S
La617 O645 2.757 . S
La617 O646 2.470 . S
C618 La616 2.928 . S
C618 C619 1.503 . S
C618 O636 1.261 . S
C618 O637 1.243 . S
C619 C618 1.503 . S
C619 C620 1.394 . S
C619 C624 1.373 . S
C620 C619 1.394 . S
C620 C621 1.380 . S
C620 H648 0.930 . S
C621 C620 1.380 . S
C621 C622 1.376 . S
C621 H649 0.930 . S
C622 C621 1.376 . S
C622 C623 1.370 . S
C623 C622 1.370 . S
C623 C624 1.396 . S
C623 H650 0.929 . S
C624 C619 1.373 . S
C624 C623 1.396 . S
C624 H651 0.929 . S
C625 O638 1.240 . S
C625 O639 1.289 . S
C626 O640 1.258 . S
C626 O641 1.256 . S
C627 La617 2.928 . S
C627 C628 1.503 . S
C627 O642 1.261 . S
C627 O643 1.243 . S
C628 C627 1.503 . S
C628 C629 1.394 . S
C628 C633 1.373 . S
C629 C628 1.394 . S
C629 C630 1.380 . S
C629 H652 0.930 . S
C630 C629 1.380 . S
C630 C631 1.376 . S
C630 H653 0.930 . S
C631 C630 1.376 . S
C631 C632 1.370 . S
C632 C631 1.370 . S
C632 C633 1.396 . S
C632 H654 0.929 . S
C633 C628 1.373 . S
C633 C632 1.396 . S
C633 H655 0.929 . S
C634 O644 1.240 . S
C634 O645 1.289 . S
C635 O646 1.258 . S
C635 O647 1.256 . S
O636 La616 2.521 . S
O636 C618 1.261 . S
O637 La616 2.628 . S
O637 C618 1.243 . S
O638 La616 2.554 . S
O638 C625 1.240 . S
O639 La616 2.757 . S
O639 La617 2.482 . S
O639 C625 1.289 . S
O640 La616 2.470 . S
O640 C626 1.258 . S
O641 La617 2.503 . S
O641 C626 1.256 . S
O642 La617 2.521 . S
O642 C627 1.261 . S
O643 La617 2.628 . S
O643 C627 1.243 . S
O644 La617 2.554 . S
O644 C634 1.240 . S
O645 La616 2.482 . S
O645 La617 2.757 . S
O645 C634 1.289 . S
O646 La617 2.470 . S
O646 C635 1.258 . S
O647 La616 2.503 . S
O647 C635 1.256 . S
H648 C620 0.930 . S
H649 C621 0.930 . S
H650 C623 0.929 . S
H651 C624 0.929 . S
H652 C629 0.930 . S
H653 C630 0.930 . S
H654 C632 0.929 . S
H655 C633 0.929 . S
La656 C658 2.935 . S
La656 O676 2.521 . S
La656 O677 2.628 1_554 S
La656 O678 2.554 . S
La656 O679 2.757 . S
La656 O680 2.470 1_554 S
La656 O685 2.482 . S
La656 O687 2.503 . S
La657 C667 2.937 . S
La657 O679 2.487 . S
La657 O681 2.491 1_554 S
La657 O682 2.526 . S
La657 O683 2.638 . S
La657 O684 2.554 . S
La657 O685 2.755 . S
La657 O686 2.482 . S
C658 La656 2.935 . S
C658 C659 1.496 1_554 S
C658 O676 1.269 . S
C658 O677 1.241 1_554 S
C659 C658 1.496 1_556 S
C659 C660 1.394 . S
C659 C664 1.373 . S
C660 C659 1.394 . S
C660 C661 1.380 . S
C660 H688 0.930 1_556 S
C661 C660 1.380 . S
C661 C662 1.376 . S
C661 H689 0.930 . S
C662 C661 1.376 . S
C662 C663 1.370 . S
C663 C662 1.370 . S
C663 C664 1.396 . S
C663 H690 0.929 . S
C664 C659 1.373 . S
C664 C663 1.396 . S
C664 H691 0.929 . S
C665 O678 1.240 . S
C665 O679 1.289 . S
C666 O680 1.258 . S
C666 O681 1.256 . S
C667 La657 2.937 . S
C667 C668 1.503 . S
C667 O682 1.261 . S
C667 O683 1.243 . S
C668 C667 1.503 . S
C668 C669 1.394 . S
C668 C673 1.373 . S
C669 C668 1.394 . S
C669 C670 1.380 . S
C669 H692 0.930 . S
C670 C669 1.380 . S
C670 C671 1.376 . S
C670 H693 0.930 . S
C671 C670 1.376 . S
C671 C672 1.370 . S
C672 C671 1.370 . S
C672 C673 1.396 . S
C672 H694 0.929 . S
C673 C668 1.373 . S
C673 C672 1.396 . S
C673 H695 0.929 . S
C674 O684 1.240 . S
C674 O685 1.289 . S
C675 O686 1.258 . S
C675 O687 1.256 . S
O676 La656 2.521 . S
O676 C658 1.269 . S
O677 La656 2.628 1_556 S
O677 C658 1.241 1_556 S
O678 La656 2.554 . S
O678 C665 1.240 . S
O679 La656 2.757 . S
O679 La657 2.487 . S
O679 C665 1.289 . S
O680 La656 2.470 1_556 S
O680 C666 1.258 . S
O681 La657 2.491 1_556 S
O681 C666 1.256 . S
O682 La657 2.526 . S
O682 C667 1.261 . S
O683 La657 2.638 . S
O683 C667 1.243 . S
O684 La657 2.554 . S
O684 C674 1.240 . S
O685 La656 2.482 . S
O685 La657 2.755 . S
O685 C674 1.289 . S
O686 La657 2.482 . S
O686 C675 1.258 . S
O687 La656 2.503 . S
O687 C675 1.256 . S
H688 C660 0.930 1_554 S
H689 C661 0.930 . S
H690 C663 0.929 . S
H691 C664 0.929 . S
H692 C669 0.930 . S
H693 C670 0.930 . S
H694 C672 0.929 . S
H695 C673 0.929 . S
La696 C698 2.928 . S
La696 O716 2.521 . S
La696 O717 2.628 . S
La696 O718 2.554 . S
La696 O719 2.757 . S
La696 O720 2.470 . S
La696 O725 2.482 . S
La696 O727 2.503 . S
La697 C707 2.928 . S
La697 O719 2.482 . S
La697 O721 2.503 . S
La697 O722 2.521 . S
La697 O723 2.628 . S
La697 O724 2.554 . S
La697 O725 2.757 . S
La697 O726 2.470 . S
C698 La696 2.928 . S
C698 C699 1.503 . S
C698 O716 1.261 . S
C698 O717 1.243 . S
C699 C698 1.503 . S
C699 C700 1.394 . S
C699 C704 1.373 . S
C700 C699 1.394 . S
C700 C701 1.380 . S
C700 H728 0.930 . S
C701 C700 1.380 . S
C701 C702 1.376 . S
C701 H729 0.930 . S
C702 C701 1.376 . S
C702 C703 1.370 . S
C703 C702 1.370 . S
C703 C704 1.396 . S
C703 H730 0.929 . S
C704 C699 1.373 . S
C704 C703 1.396 . S
C704 H731 0.929 . S
C705 O718 1.240 . S
C705 O719 1.289 . S
C706 O720 1.258 . S
C706 O721 1.256 . S
C707 La697 2.928 . S
C707 C708 1.503 . S
C707 O722 1.261 . S
C707 O723 1.243 . S
C708 C707 1.503 . S
C708 C709 1.394 . S
C708 C713 1.373 . S
C709 C708 1.394 . S
C709 C710 1.380 . S
C709 H732 0.930 . S
C710 C709 1.380 . S
C710 C711 1.376 . S
C710 H733 0.930 . S
C711 C710 1.376 . S
C711 C712 1.370 . S
C712 C711 1.370 . S
C712 C713 1.396 . S
C712 H734 0.929 . S
C713 C708 1.373 . S
C713 C712 1.396 . S
C713 H735 0.929 . S
C714 O724 1.240 . S
C714 O725 1.289 . S
C715 O726 1.258 . S
C715 O727 1.256 . S
O716 La696 2.521 . S
O716 C698 1.261 . S
O717 La696 2.628 . S
O717 C698 1.243 . S
O718 La696 2.554 . S
O718 C705 1.240 . S
O719 La696 2.757 . S
O719 La697 2.482 . S
O719 C705 1.289 . S
O720 La696 2.470 . S
O720 C706 1.258 . S
O721 La697 2.503 . S
O721 C706 1.256 . S
O722 La697 2.521 . S
O722 C707 1.261 . S
O723 La697 2.628 . S
O723 C707 1.243 . S
O724 La697 2.554 . S
O724 C714 1.240 . S
O725 La696 2.482 . S
O725 La697 2.757 . S
O725 C714 1.289 . S
O726 La697 2.470 . S
O726 C715 1.258 . S
O727 La696 2.503 . S
O727 C715 1.256 . S
H728 C700 0.930 . S
H729 C701 0.930 . S
H730 C703 0.929 . S
H731 C704 0.929 . S
H732 C709 0.930 . S
H733 C710 0.930 . S
H734 C712 0.929 . S
H735 C713 0.929 . S
La736 C738 2.928 . S
La736 O756 2.521 . S
La736 O757 2.628 . S
La736 O758 2.554 . S
La736 O759 2.757 . S
La736 O760 2.470 . S
La736 O765 2.482 . S
La736 O767 2.503 . S
La737 C747 2.928 . S
La737 O759 2.482 . S
La737 O761 2.503 . S
La737 O762 2.521 . S
La737 O763 2.628 . S
La737 O764 2.554 . S
La737 O765 2.757 . S
La737 O766 2.470 . S
C738 La736 2.928 . S
C738 C739 1.503 . S
C738 O756 1.261 . S
C738 O757 1.243 . S
C739 C738 1.503 . S
C739 C740 1.394 . S
C739 C744 1.377 . S
C740 C739 1.394 . S
C740 C741 1.380 . S
C740 H768 0.930 . S
C741 C740 1.380 . S
C741 C742 1.376 1_455 S
C741 H769 0.930 . S
C742 C741 1.376 1_655 S
C742 C743 1.370 . S
C743 C742 1.370 . S
C743 C744 1.393 1_655 S
C743 H770 0.929 . S
C744 C739 1.377 . S
C744 C743 1.393 1_455 S
C744 H771 0.928 1_455 S
C745 O758 1.240 . S
C745 O759 1.289 . S
C746 O760 1.258 . S
C746 O761 1.256 . S
C747 La737 2.928 . S
C747 C748 1.503 . S
C747 O762 1.261 . S
C747 O763 1.243 . S
C748 C747 1.503 . S
C748 C749 1.394 . S
C748 C753 1.373 . S
C749 C748 1.394 . S
C749 C750 1.380 . S
C749 H772 0.930 . S
C750 C749 1.380 . S
C750 C751 1.376 . S
C750 H773 0.930 . S
C751 C750 1.376 . S
C751 C752 1.370 . S
C752 C751 1.370 . S
C752 C753 1.396 . S
C752 H774 0.929 . S
C753 C748 1.373 . S
C753 C752 1.396 . S
C753 H775 0.929 . S
C754 O764 1.240 . S
C754 O765 1.289 . S
C755 O766 1.258 . S
C755 O767 1.256 . S
O756 La736 2.521 . S
O756 C738 1.261 . S
O757 La736 2.628 . S
O757 C738 1.243 . S
O758 La736 2.554 . S
O758 C745 1.240 . S
O759 La736 2.757 . S
O759 La737 2.482 . S
O759 C745 1.289 . S
O760 La736 2.470 . S
O760 C746 1.258 . S
O761 La737 2.503 . S
O761 C746 1.256 . S
O762 La737 2.521 . S
O762 C747 1.261 . S
O763 La737 2.628 . S
O763 C747 1.243 . S
O764 La737 2.554 . S
O764 C754 1.240 . S
O765 La736 2.482 . S
O765 La737 2.757 . S
O765 C754 1.289 . S
O766 La737 2.470 . S
O766 C755 1.258 . S
O767 La736 2.503 . S
O767 C755 1.256 . S
H768 C740 0.930 . S
H769 C741 0.930 . S
H770 C743 0.929 . S
H771 C744 0.928 1_655 S
H772 C749 0.930 . S
H773 C750 0.930 . S
H774 C752 0.929 . S
H775 C753 0.929 . S
La776 C778 2.928 . S
La776 O796 2.521 . S
La776 O797 2.628 . S
La776 O798 2.554 . S
La776 O799 2.757 . S
La776 O800 2.470 . S
La776 O805 2.482 . S
La776 O807 2.503 . S
La777 C787 2.928 . S
La777 O799 2.482 . S
La777 O801 2.503 . S
La777 O802 2.521 . S
La777 O803 2.628 . S
La777 O804 2.554 . S
La777 O805 2.757 . S
La777 O806 2.470 . S
C778 La776 2.928 . S
C778 C779 1.503 . S
C778 O796 1.261 . S
C778 O797 1.243 . S
C779 C778 1.503 . S
C779 C780 1.394 . S
C779 C784 1.373 . S
C780 C779 1.394 . S
C780 C781 1.380 . S
C780 H808 0.930 . S
C781 C780 1.380 . S
C781 C782 1.376 . S
C781 H809 0.930 . S
C782 C781 1.376 . S
C782 C783 1.370 . S
C783 C782 1.370 . S
C783 C784 1.396 . S
C783 H810 0.929 . S
C784 C779 1.373 . S
C784 C783 1.396 . S
C784 H811 0.929 . S
C785 O798 1.240 . S
C785 O799 1.289 . S
C786 O800 1.258 . S
C786 O801 1.256 . S
C787 La777 2.928 . S
C787 C788 1.503 . S
C787 O802 1.261 . S
C787 O803 1.243 . S
C788 C787 1.503 . S
C788 C789 1.394 . S
C788 C793 1.373 . S
C789 C788 1.394 . S
C789 C790 1.380 . S
C789 H812 0.930 . S
C790 C789 1.380 . S
C790 C791 1.376 . S
C790 H813 0.930 . S
C791 C790 1.376 . S
C791 C792 1.370 . S
C792 C791 1.370 . S
C792 C793 1.396 . S
C792 H814 0.929 . S
C793 C788 1.373 . S
C793 C792 1.396 . S
C793 H815 0.929 . S
C794 O804 1.240 . S
C794 O805 1.289 . S
C795 O806 1.258 . S
C795 O807 1.256 . S
O796 La776 2.521 . S
O796 C778 1.261 . S
O797 La776 2.628 . S
O797 C778 1.243 . S
O798 La776 2.554 . S
O798 C785 1.240 . S
O799 La776 2.757 . S
O799 La777 2.482 . S
O799 C785 1.289 . S
O800 La776 2.470 . S
O800 C786 1.258 . S
O801 La777 2.503 . S
O801 C786 1.256 . S
O802 La777 2.521 . S
O802 C787 1.261 . S
O803 La777 2.628 . S
O803 C787 1.243 . S
O804 La777 2.554 . S
O804 C794 1.240 . S
O805 La776 2.482 . S
O805 La777 2.757 . S
O805 C794 1.289 . S
O806 La777 2.470 . S
O806 C795 1.258 . S
O807 La776 2.503 . S
O807 C795 1.256 . S
H808 C780 0.930 . S
H809 C781 0.930 . S
H810 C783 0.929 . S
H811 C784 0.929 . S
H812 C789 0.930 . S
H813 C790 0.930 . S
H814 C792 0.929 . S
H815 C793 0.929 . S
La816 C818 2.928 . S
La816 O836 2.521 . S
La816 O837 2.628 . S
La816 O838 2.554 . S
La816 O839 2.757 . S
La816 O840 2.470 . S
La816 O845 2.482 . S
La816 O847 2.503 . S
La817 C827 2.928 . S
La817 O839 2.482 . S
La817 O841 2.503 . S
La817 O842 2.521 . S
La817 O843 2.628 . S
La817 O844 2.554 . S
La817 O845 2.757 . S
La817 O846 2.470 . S
C818 La816 2.928 . S
C818 C819 1.503 . S
C818 O836 1.261 . S
C818 O837 1.243 . S
C819 C818 1.503 . S
C819 C820 1.394 . S
C819 C824 1.373 . S
C820 C819 1.394 . S
C820 C821 1.380 . S
C820 H848 0.930 . S
C821 C820 1.380 . S
C821 C822 1.376 . S
C821 H849 0.930 . S
C822 C821 1.376 . S
C822 C823 1.370 . S
C823 C822 1.370 . S
C823 C824 1.396 . S
C823 H850 0.929 . S
C824 C819 1.373 . S
C824 C823 1.396 . S
C824 H851 0.929 . S
C825 O838 1.240 . S
C825 O839 1.289 . S
C826 O840 1.258 . S
C826 O841 1.256 . S
C827 La817 2.928 . S
C827 C828 1.503 . S
C827 O842 1.261 . S
C827 O843 1.243 . S
C828 C827 1.503 . S
C828 C829 1.394 . S
C828 C833 1.373 . S
C829 C828 1.394 . S
C829 C830 1.380 . S
C829 H852 0.930 . S
C830 C829 1.380 . S
C830 C831 1.376 . S
C830 H853 0.930 . S
C831 C830 1.376 . S
C831 C832 1.370 . S
C832 C831 1.370 . S
C832 C833 1.396 . S
C832 H854 0.929 . S
C833 C828 1.373 . S
C833 C832 1.396 . S
C833 H855 0.929 . S
C834 O844 1.240 . S
C834 O845 1.289 . S
C835 O846 1.258 . S
C835 O847 1.256 . S
O836 La816 2.521 . S
O836 C818 1.261 . S
O837 La816 2.628 . S
O837 C818 1.243 . S
O838 La816 2.554 . S
O838 C825 1.240 . S
O839 La816 2.757 . S
O839 La817 2.482 . S
O839 C825 1.289 . S
O840 La816 2.470 . S
O840 C826 1.258 . S
O841 La817 2.503 . S
O841 C826 1.256 . S
O842 La817 2.521 . S
O842 C827 1.261 . S
O843 La817 2.628 . S
O843 C827 1.243 . S
O844 La817 2.554 . S
O844 C834 1.240 . S
O845 La816 2.482 . S
O845 La817 2.757 . S
O845 C834 1.289 . S
O846 La817 2.470 . S
O846 C835 1.258 . S
O847 La816 2.503 . S
O847 C835 1.256 . S
H848 C820 0.930 . S
H849 C821 0.930 . S
H850 C823 0.929 . S
H851 C824 0.929 . S
H852 C829 0.930 . S
H853 C830 0.930 . S
H854 C832 0.929 . S
H855 C833 0.929 . S
La856 C858 2.928 . S
La856 O876 2.521 . S
La856 O877 2.628 . S
La856 O878 2.554 . S
La856 O879 2.757 . S
La856 O880 2.470 . S
La856 O885 2.482 . S
La856 O887 2.503 . S
La857 C867 2.928 . S
La857 O879 2.482 . S
La857 O881 2.503 . S
La857 O882 2.521 . S
La857 O883 2.628 . S
La857 O884 2.554 . S
La857 O885 2.757 . S
La857 O886 2.470 . S
C858 La856 2.928 . S
C858 C859 1.503 . S
C858 O876 1.261 . S
C858 O877 1.243 . S
C859 C858 1.503 . S
C859 C860 1.394 . S
C859 C864 1.373 . S
C860 C859 1.394 . S
C860 C861 1.380 . S
C860 H888 0.930 . S
C861 C860 1.380 . S
C861 C862 1.376 . S
C861 H889 0.930 . S
C862 C861 1.376 . S
C862 C863 1.370 . S
C863 C862 1.370 . S
C863 C864 1.396 . S
C863 H890 0.929 . S
C864 C859 1.373 . S
C864 C863 1.396 . S
C864 H891 0.929 . S
C865 O878 1.240 . S
C865 O879 1.289 . S
C866 O880 1.258 . S
C866 O881 1.256 . S
C867 La857 2.928 . S
C867 C868 1.503 . S
C867 O882 1.261 . S
C867 O883 1.243 . S
C868 C867 1.503 . S
C868 C869 1.394 . S
C868 C873 1.373 . S
C869 C868 1.394 . S
C869 C870 1.380 . S
C869 H892 0.930 . S
C870 C869 1.380 . S
C870 C871 1.376 . S
C870 H893 0.930 . S
C871 C870 1.376 . S
C871 C872 1.370 . S
C872 C871 1.370 . S
C872 C873 1.396 . S
C872 H894 0.929 . S
C873 C868 1.373 . S
C873 C872 1.396 . S
C873 H895 0.929 . S
C874 O884 1.240 . S
C874 O885 1.289 . S
C875 O886 1.258 . S
C875 O887 1.256 . S
O876 La856 2.521 . S
O876 C858 1.261 . S
O877 La856 2.628 . S
O877 C858 1.243 . S
O878 La856 2.554 . S
O878 C865 1.240 . S
O879 La856 2.757 . S
O879 La857 2.482 . S
O879 C865 1.289 . S
O880 La856 2.470 . S
O880 C866 1.258 . S
O881 La857 2.503 . S
O881 C866 1.256 . S
O882 La857 2.521 . S
O882 C867 1.261 . S
O883 La857 2.628 . S
O883 C867 1.243 . S
O884 La857 2.554 . S
O884 C874 1.240 . S
O885 La856 2.482 . S
O885 La857 2.757 . S
O885 C874 1.289 . S
O886 La857 2.470 . S
O886 C875 1.258 . S
O887 La856 2.503 . S
O887 C875 1.256 . S
H888 C860 0.930 . S
H889 C861 0.930 . S
H890 C863 0.929 . S
H891 C864 0.929 . S
H892 C869 0.930 . S
H893 C870 0.930 . S
H894 C872 0.929 . S
H895 C873 0.929 . S
La896 C898 2.928 . S
La896 O916 2.521 . S
La896 O917 2.628 . S
La896 O918 2.554 . S
La896 O919 2.757 . S
La896 O920 2.470 . S
La896 O925 2.482 . S
La896 O927 2.503 . S
La897 C907 2.928 . S
La897 O919 2.482 . S
La897 O921 2.503 . S
La897 O922 2.521 . S
La897 O923 2.628 . S
La897 O924 2.554 . S
La897 O925 2.757 . S
La897 O926 2.470 . S
C898 La896 2.928 . S
C898 C899 1.503 . S
C898 O916 1.261 . S
C898 O917 1.243 . S
C899 C898 1.503 . S
C899 C900 1.394 . S
C899 C904 1.373 . S
C900 C899 1.394 . S
C900 C901 1.380 . S
C900 H928 0.930 . S
C901 C900 1.380 . S
C901 C902 1.376 . S
C901 H929 0.930 . S
C902 C901 1.376 . S
C902 C903 1.370 . S
C903 C902 1.370 . S
C903 C904 1.396 . S
C903 H930 0.929 . S
C904 C899 1.373 . S
C904 C903 1.396 . S
C904 H931 0.929 . S
C905 O918 1.240 . S
C905 O919 1.289 . S
C906 O920 1.258 . S
C906 O921 1.256 . S
C907 La897 2.928 . S
C907 C908 1.503 . S
C907 O922 1.261 . S
C907 O923 1.243 . S
C908 C907 1.503 . S
C908 C909 1.394 . S
C908 C913 1.373 . S
C909 C908 1.394 . S
C909 C910 1.380 . S
C909 H932 0.930 . S
C910 C909 1.380 . S
C910 C911 1.376 . S
C910 H933 0.930 . S
C911 C910 1.376 . S
C911 C912 1.370 . S
C912 C911 1.370 . S
C912 C913 1.396 . S
C912 H934 0.929 . S
C913 C908 1.373 . S
C913 C912 1.396 . S
C913 H935 0.929 . S
C914 O924 1.240 . S
C914 O925 1.289 . S
C915 O926 1.258 . S
C915 O927 1.256 . S
O916 La896 2.521 . S
O916 C898 1.261 . S
O917 La896 2.628 . S
O917 C898 1.243 . S
O918 La896 2.554 . S
O918 C905 1.240 . S
O919 La896 2.757 . S
O919 La897 2.482 . S
O919 C905 1.289 . S
O920 La896 2.470 . S
O920 C906 1.258 . S
O921 La897 2.503 . S
O921 C906 1.256 . S
O922 La897 2.521 . S
O922 C907 1.261 . S
O923 La897 2.628 . S
O923 C907 1.243 . S
O924 La897 2.554 . S
O924 C914 1.240 . S
O925 La896 2.482 . S
O925 La897 2.757 . S
O925 C914 1.289 . S
O926 La897 2.470 . S
O926 C915 1.258 . S
O927 La896 2.503 . S
O927 C915 1.256 . S
H928 C900 0.930 . S
H929 C901 0.930 . S
H930 C903 0.929 . S
H931 C904 0.929 . S
H932 C909 0.930 . S
H933 C910 0.930 . S
H934 C912 0.929 . S
H935 C913 0.929 . S
La936 C938 2.928 1_554 S
La936 O956 2.521 1_554 S
La936 O957 2.628 . S
La936 O958 2.554 1_554 S
La936 O959 2.757 1_554 S
La936 O960 2.470 1_554 S
La936 O965 2.482 . S
La936 O967 2.503 . S
La937 C947 2.928 1_455 S
La937 O959 2.482 1_554 S
La937 O961 2.503 . S
La937 O962 2.521 1_455 S
La937 O963 2.628 1_455 S
La937 O964 2.554 . S
La937 O965 2.757 . S
La937 O966 2.470 . S
C938 La936 2.928 1_556 S
C938 C939 1.503 . S
C938 O956 1.261 . S
C938 O957 1.243 1_556 S
C939 C938 1.503 . S
C939 C940 1.394 . S
C939 C944 1.373 1_556 S
C940 C939 1.394 . S
C940 C941 1.380 . S
C940 H968 0.930 . S
C941 C940 1.380 . S
C941 C942 1.376 . S
C941 H969 0.930 . S
C942 C941 1.376 . S
C942 C943 1.370 1_556 S
C943 C942 1.370 1_554 S
C943 C944 1.396 . S
C943 H970 0.929 . S
C944 C939 1.373 1_554 S
C944 C943 1.396 . S
C944 H971 0.929 . S
C945 O958 1.240 . S
C945 O959 1.289 . S
C946 O960 1.258 1_554 S
C946 O961 1.256 . S
C947 La937 2.928 1_655 S
C947 C948 1.503 . S
C947 O962 1.261 . S
C947 O963 1.243 . S
C948 C947 1.503 . S
C948 C949 1.394 . S
C948 C953 1.373 . S
C949 C948 1.394 . S
C949 C950 1.380 . S
C949 H972 0.930 . S
C950 C949 1.380 . S
C950 C951 1.376 . S
C950 H973 0.930 . S
C951 C950 1.376 . S
C951 C952 1.370 . S
C952 C951 1.370 . S
C952 C953 1.396 . S
C952 H974 0.929 . S
C953 C948 1.373 . S
C953 C952 1.396 . S
C953 H975 0.929 . S
C954 O964 1.240 . S
C954 O965 1.289 . S
C955 O966 1.258 . S
C955 O967 1.256 . S
O956 La936 2.521 1_556 S
O956 C938 1.261 . S
O957 La936 2.628 . S
O957 C938 1.243 1_554 S
O958 La936 2.554 1_556 S
O958 C945 1.240 . S
O959 La936 2.757 1_556 S
O959 La937 2.482 1_556 S
O959 C945 1.289 . S
O960 La936 2.470 1_556 S
O960 C946 1.258 1_556 S
O961 La937 2.503 . S
O961 C946 1.256 . S
O962 La937 2.521 1_655 S
O962 C947 1.261 . S
O963 La937 2.628 1_655 S
O963 C947 1.243 . S
O964 La937 2.554 . S
O964 C954 1.240 . S
O965 La936 2.482 . S
O965 La937 2.757 . S
O965 C954 1.289 . S
O966 La937 2.470 . S
O966 C955 1.258 . S
O967 La936 2.503 . S
O967 C955 1.256 . S
H968 C940 0.930 . S
H969 C941 0.930 . S
H970 C943 0.929 . S
H971 C944 0.929 . S
H972 C949 0.930 . S
H973 C950 0.930 . S
H974 C952 0.929 . S
H975 C953 0.929 . S
H976 C982 0.930 . S
H977 C986 0.930 . S
H978 C991 0.929 1_655 S
H979 C989 0.929 . S
H980 C984 0.929 . S
H981 C990 0.929 . S
C982 H976 0.930 . S
C982 C983 1.367 . S
C982 C990 1.378 . S
C983 C982 1.367 . S
C983 C991 1.433 . S
C984 H980 0.929 . S
C984 C986 1.378 1_556 S
C984 C988 1.350 . S
C985 C988 1.463 . S
C985 C990 1.350 . S
C985 N993 1.427 . S
C986 H977 0.930 . S
C986 C984 1.378 1_554 S
C986 C987 1.367 1_554 S
C987 C986 1.367 1_556 S
C987 C989 1.433 . S
C988 C984 1.350 . S
C988 C985 1.463 . S
C988 N992 1.427 . S
C989 H979 0.929 . S
C989 C987 1.433 . S
C989 N992 1.384 . S
C990 H981 0.929 . S
C990 C982 1.378 . S
C990 C985 1.350 . S
C991 H978 0.929 1_455 S
C991 C983 1.433 . S
C991 N993 1.384 . S
N992 C988 1.427 . S
N992 C989 1.384 . S
N993 C985 1.427 . S
N993 C991 1.384 . S
H994 C1000 0.930 . S
H995 C1004 0.930 . S
H996 C1009 0.929 . S
H997 C1007 0.929 . S
H998 C1002 0.929 . S
H999 C1008 0.929 . S
C1000 H994 0.930 . S
C1000 C1001 1.367 . S
C1000 C1008 1.378 . S
C1001 C1000 1.367 . S
C1001 C1009 1.433 . S
C1002 H998 0.929 . S
C1002 C1004 1.378 . S
C1002 C1006 1.350 . S
C1003 C1006 1.463 . S
C1003 C1008 1.350 . S
C1003 N1011 1.427 . S
C1004 H995 0.930 . S
C1004 C1002 1.378 . S
C1004 C1005 1.367 . S
C1005 C1004 1.367 . S
C1005 C1007 1.433 . S
C1006 C1002 1.350 . S
C1006 C1003 1.463 . S
C1006 N1010 1.427 . S
C1007 H997 0.929 . S
C1007 C1005 1.433 . S
C1007 N1010 1.384 . S
C1008 H999 0.929 . S
C1008 C1000 1.378 . S
C1008 C1003 1.350 . S
C1009 H996 0.929 . S
C1009 C1001 1.433 . S
C1009 N1011 1.384 . S
N1010 C1006 1.427 . S
N1010 C1007 1.384 . S
N1011 C1003 1.427 . S
N1011 C1009 1.384 . S
H1012 C1018 0.930 . S
H1013 C1022 0.930 . S
H1014 C1027 0.929 . S
H1015 C1025 0.929 . S
H1016 C1020 0.929 . S
H1017 C1026 0.929 . S
C1018 H1012 0.930 . S
C1018 C1019 1.367 . S
C1018 C1026 1.378 . S
C1019 C1018 1.367 . S
C1019 C1027 1.433 . S
C1020 H1016 0.929 . S
C1020 C1022 1.378 . S
C1020 C1024 1.350 . S
C1021 C1024 1.463 . S
C1021 C1026 1.350 . S
C1021 N1029 1.427 . S
C1022 H1013 0.930 . S
C1022 C1020 1.378 . S
C1022 C1023 1.367 . S
C1023 C1022 1.367 . S
C1023 C1025 1.433 . S
C1024 C1020 1.350 . S
C1024 C1021 1.463 . S
C1024 N1028 1.427 . S
C1025 H1015 0.929 . S
C1025 C1023 1.433 . S
C1025 N1028 1.384 . S
C1026 H1017 0.929 . S
C1026 C1018 1.378 . S
C1026 C1021 1.350 . S
C1027 H1014 0.929 . S
C1027 C1019 1.433 . S
C1027 N1029 1.384 . S
N1028 C1024 1.427 . S
N1028 C1025 1.384 . S
N1029 C1021 1.427 . S
N1029 C1027 1.384 . S
H1030 C1036 0.930 . S
H1031 C1040 0.930 . S
H1032 C1045 0.929 . S
H1033 C1043 0.929 . S
H1034 C1038 0.929 . S
H1035 C1044 0.929 . S
C1036 H1030 0.930 . S
C1036 C1037 1.367 . S
C1036 C1044 1.378 . S
C1037 C1036 1.367 . S
C1037 C1045 1.433 . S
C1038 H1034 0.929 . S
C1038 C1040 1.378 . S
C1038 C1042 1.350 . S
C1039 C1042 1.463 . S
C1039 C1044 1.350 . S
C1039 N1047 1.427 . S
C1040 H1031 0.930 . S
C1040 C1038 1.378 . S
C1040 C1041 1.367 . S
C1041 C1040 1.367 . S
C1041 C1043 1.433 . S
C1042 C1038 1.350 . S
C1042 C1039 1.463 . S
C1042 N1046 1.427 . S
C1043 H1033 0.929 . S
C1043 C1041 1.433 . S
C1043 N1046 1.384 . S
C1044 H1035 0.929 . S
C1044 C1036 1.378 . S
C1044 C1039 1.350 . S
C1045 H1032 0.929 . S
C1045 C1037 1.433 . S
C1045 N1047 1.384 . S
N1046 C1042 1.427 . S
N1046 C1043 1.384 . S
N1047 C1039 1.427 . S
N1047 C1045 1.384 . S
H1048 C1054 0.930 . S
H1049 C1058 0.930 . S
H1050 C1063 0.929 . S
H1051 C1061 0.929 . S
H1052 C1056 0.929 . S
H1053 C1062 0.929 . S
C1054 H1048 0.930 . S
C1054 C1055 1.367 . S
C1054 C1062 1.378 . S
C1055 C1054 1.367 . S
C1055 C1063 1.433 . S
C1056 H1052 0.929 . S
C1056 C1058 1.378 . S
C1056 C1060 1.350 . S
C1057 C1060 1.463 . S
C1057 C1062 1.350 . S
C1057 N1065 1.427 . S
C1058 H1049 0.930 . S
C1058 C1056 1.378 . S
C1058 C1059 1.367 . S
C1059 C1058 1.367 . S
C1059 C1061 1.433 . S
C1060 C1056 1.350 . S
C1060 C1057 1.463 . S
C1060 N1064 1.427 . S
C1061 H1051 0.929 . S
C1061 C1059 1.433 . S
C1061 N1064 1.384 . S
C1062 H1053 0.929 . S
C1062 C1054 1.378 . S
C1062 C1057 1.350 . S
C1063 H1050 0.929 . S
C1063 C1055 1.433 . S
C1063 N1065 1.384 . S
N1064 C1060 1.427 . S
N1064 C1061 1.384 . S
N1065 C1057 1.427 . S
N1065 C1063 1.384 . S
H1066 C1072 0.930 . S
H1067 C1076 0.930 . S
H1068 C1081 0.929 . S
H1069 C1079 0.929 . S
H1070 C1074 0.929 . S
H1071 C1080 0.929 . S
C1072 H1066 0.930 . S
C1072 C1073 1.367 . S
C1072 C1080 1.378 . S
C1073 C1072 1.367 . S
C1073 C1081 1.433 . S
C1074 H1070 0.929 . S
C1074 C1076 1.378 . S
C1074 C1078 1.350 . S
C1075 C1078 1.463 . S
C1075 C1080 1.350 . S
C1075 N1083 1.427 . S
C1076 H1067 0.930 . S
C1076 C1074 1.378 . S
C1076 C1077 1.367 . S
C1077 C1076 1.367 . S
C1077 C1079 1.433 . S
C1078 C1074 1.350 . S
C1078 C1075 1.463 . S
C1078 N1082 1.427 . S
C1079 H1069 0.929 . S
C1079 C1077 1.433 . S
C1079 N1082 1.384 . S
C1080 H1071 0.929 . S
C1080 C1072 1.378 . S
C1080 C1075 1.350 . S
C1081 H1068 0.929 . S
C1081 C1073 1.433 . S
C1081 N1083 1.384 . S
N1082 C1078 1.427 . S
N1082 C1079 1.384 . S
N1083 C1075 1.427 . S
N1083 C1081 1.384 . S
H1084 C1090 0.930 . S
H1085 C1094 0.930 . S
H1086 C1099 0.929 . S
H1087 C1097 0.929 . S
H1088 C1092 0.929 . S
H1089 C1098 0.929 . S
C1090 H1084 0.930 . S
C1090 C1091 1.367 . S
C1090 C1098 1.378 . S
C1091 C1090 1.367 . S
C1091 C1099 1.433 . S
C1092 H1088 0.929 . S
C1092 C1094 1.378 . S
C1092 C1096 1.350 . S
C1093 C1096 1.463 . S
C1093 C1098 1.350 . S
C1093 N1101 1.427 . S
C1094 H1085 0.930 . S
C1094 C1092 1.378 . S
C1094 C1095 1.367 . S
C1095 C1094 1.367 . S
C1095 C1097 1.433 . S
C1096 C1092 1.350 . S
C1096 C1093 1.463 . S
C1096 N1100 1.427 . S
C1097 H1087 0.929 . S
C1097 C1095 1.433 . S
C1097 N1100 1.384 . S
C1098 H1089 0.929 . S
C1098 C1090 1.378 . S
C1098 C1093 1.350 . S
C1099 H1086 0.929 . S
C1099 C1091 1.433 . S
C1099 N1101 1.384 . S
N1100 C1096 1.427 . S
N1100 C1097 1.384 . S
N1101 C1093 1.427 . S
N1101 C1099 1.384 . S
H1102 C1108 0.930 . S
H1103 C1112 0.930 . S
H1104 C1117 0.929 . S
H1105 C1115 0.929 . S
H1106 C1110 0.929 . S
H1107 C1116 0.929 . S
C1108 H1102 0.930 . S
C1108 C1109 1.367 . S
C1108 C1116 1.378 . S
C1109 C1108 1.367 . S
C1109 C1117 1.433 . S
C1110 H1106 0.929 . S
C1110 C1112 1.378 . S
C1110 C1114 1.350 . S
C1111 C1114 1.463 . S
C1111 C1116 1.350 . S
C1111 N1119 1.427 . S
C1112 H1103 0.930 . S
C1112 C1110 1.378 . S
C1112 C1113 1.367 . S
C1113 C1112 1.367 . S
C1113 C1115 1.433 . S
C1114 C1110 1.350 . S
C1114 C1111 1.463 . S
C1114 N1118 1.427 . S
C1115 H1105 0.929 . S
C1115 C1113 1.433 . S
C1115 N1118 1.384 . S
C1116 H1107 0.929 . S
C1116 C1108 1.378 . S
C1116 C1111 1.350 . S
C1117 H1104 0.929 . S
C1117 C1109 1.433 . S
C1117 N1119 1.384 . S
N1118 C1114 1.427 . S
N1118 C1115 1.384 . S
N1119 C1111 1.427 . S
N1119 C1117 1.384 . S
H1120 C1126 0.930 1_455 S
H1121 C1130 0.930 1_655 S
H1122 C1135 0.929 . S
H1123 C1133 0.929 . S
H1124 C1128 0.929 . S
H1125 C1134 0.929 . S
C1126 H1120 0.930 1_655 S
C1126 C1127 1.367 . S
C1126 C1134 1.378 1_655 S
C1127 C1126 1.367 . S
C1127 C1135 1.433 . S
C1128 H1124 0.929 . S
C1128 C1130 1.378 1_655 S
C1128 C1132 1.350 1_655 S
C1129 C1132 1.463 1_655 S
C1129 C1134 1.350 1_655 S
C1129 N1137 1.427 . S
C1130 H1121 0.930 1_455 S
C1130 C1128 1.378 1_455 S
C1130 C1131 1.367 . S
C1131 C1130 1.367 . S
C1131 C1133 1.433 . S
C1132 C1128 1.350 1_455 S
C1132 C1129 1.463 1_455 S
C1132 N1136 1.427 . S
C1133 H1123 0.929 . S
C1133 C1131 1.433 . S
C1133 N1136 1.384 . S
C1134 H1125 0.929 . S
C1134 C1126 1.378 1_455 S
C1134 C1129 1.350 1_455 S
C1135 H1122 0.929 . S
C1135 C1127 1.433 . S
C1135 N1137 1.384 . S
N1136 C1132 1.427 . S
N1136 C1133 1.384 . S
N1137 C1129 1.427 . S
N1137 C1135 1.384 . S
H1138 C1144 0.930 . S
H1139 C1148 0.930 . S
H1140 C1153 0.929 . S
H1141 C1151 0.929 . S
H1142 C1146 0.929 . S
H1143 C1152 0.929 . S
C1144 H1138 0.930 . S
C1144 C1145 1.367 . S
C1144 C1152 1.378 . S
C1145 C1144 1.367 . S
C1145 C1153 1.433 . S
C1146 H1142 0.929 . S
C1146 C1148 1.378 . S
C1146 C1150 1.350 . S
C1147 C1150 1.463 . S
C1147 C1152 1.350 . S
C1147 N1155 1.427 . S
C1148 H1139 0.930 . S
C1148 C1146 1.378 . S
C1148 C1149 1.367 . S
C1149 C1148 1.367 . S
C1149 C1151 1.433 . S
C1150 C1146 1.350 . S
C1150 C1147 1.463 . S
C1150 N1154 1.427 . S
C1151 H1141 0.929 . S
C1151 C1149 1.433 . S
C1151 N1154 1.384 . S
C1152 H1143 0.929 . S
C1152 C1144 1.378 . S
C1152 C1147 1.350 . S
C1153 H1140 0.929 . S
C1153 C1145 1.433 . S
C1153 N1155 1.384 . S
N1154 C1150 1.427 . S
N1154 C1151 1.384 . S
N1155 C1147 1.427 . S
N1155 C1153 1.384 . S
H1156 C1162 0.930 . S
H1157 C1166 0.930 . S
H1158 C1171 0.929 . S
H1159 C1169 0.929 . S
H1160 C1164 0.929 . S
H1161 C1170 0.929 . S
C1162 H1156 0.930 . S
C1162 C1163 1.367 . S
C1162 C1170 1.378 . S
C1163 C1162 1.367 . S
C1163 C1171 1.433 . S
C1164 H1160 0.929 . S
C1164 C1166 1.378 . S
C1164 C1168 1.350 . S
C1165 C1168 1.463 . S
C1165 C1170 1.350 . S
C1165 N1173 1.427 . S
C1166 H1157 0.930 . S
C1166 C1164 1.378 . S
C1166 C1167 1.367 . S
C1167 C1166 1.367 . S
C1167 C1169 1.433 . S
C1168 C1164 1.350 . S
C1168 C1165 1.463 . S
C1168 N1172 1.427 . S
C1169 H1159 0.929 . S
C1169 C1167 1.433 . S
C1169 N1172 1.384 . S
C1170 H1161 0.929 . S
C1170 C1162 1.378 . S
C1170 C1165 1.350 . S
C1171 H1158 0.929 . S
C1171 C1163 1.433 . S
C1171 N1173 1.384 . S
N1172 C1168 1.427 . S
N1172 C1169 1.384 . S
N1173 C1165 1.427 . S
N1173 C1171 1.384 . S
H1174 C1180 0.930 . S
H1175 C1184 0.930 . S
H1176 C1189 0.929 . S
H1177 C1187 0.929 . S
H1178 C1182 0.929 . S
H1179 C1188 0.929 . S
C1180 H1174 0.930 . S
C1180 C1181 1.367 . S
C1180 C1188 1.378 . S
C1181 C1180 1.367 . S
C1181 C1189 1.433 . S
C1182 H1178 0.929 . S
C1182 C1184 1.378 . S
C1182 C1186 1.350 . S
C1183 C1186 1.463 . S
C1183 C1188 1.350 . S
C1183 N1191 1.427 . S
C1184 H1175 0.930 . S
C1184 C1182 1.378 . S
C1184 C1185 1.367 . S
C1185 C1184 1.367 . S
C1185 C1187 1.433 . S
C1186 C1182 1.350 . S
C1186 C1183 1.463 . S
C1186 N1190 1.427 . S
C1187 H1177 0.929 . S
C1187 C1185 1.433 . S
C1187 N1190 1.384 . S
C1188 H1179 0.929 . S
C1188 C1180 1.378 . S
C1188 C1183 1.350 . S
C1189 H1176 0.929 . S
C1189 C1181 1.433 . S
C1189 N1191 1.384 . S
N1190 C1186 1.427 . S
N1190 C1187 1.384 . S
N1191 C1183 1.427 . S
N1191 C1189 1.384 . S
H1192 C1198 0.930 . S
H1193 C1202 0.930 . S
H1194 C1207 0.929 . S
H1195 C1205 0.929 . S
H1196 C1200 0.937 . S
H1197 C1206 0.929 . S
C1198 H1192 0.930 . S
C1198 C1199 1.367 . S
C1198 C1206 1.378 1_655 S
C1199 C1198 1.367 . S
C1199 C1207 1.433 . S
C1200 H1196 0.937 . S
C1200 C1202 1.374 1_655 S
C1200 C1204 1.346 1_655 S
C1201 C1204 1.463 1_655 S
C1201 C1206 1.350 1_655 S
C1201 N1209 1.427 . S
C1202 H1193 0.930 . S
C1202 C1200 1.374 1_455 S
C1202 C1203 1.367 . S
C1203 C1202 1.367 . S
C1203 C1205 1.433 . S
C1204 C1200 1.346 1_455 S
C1204 C1201 1.463 1_455 S
C1204 N1208 1.427 . S
C1205 H1195 0.929 . S
C1205 C1203 1.433 . S
C1205 N1208 1.384 . S
C1206 H1197 0.929 . S
C1206 C1198 1.378 1_455 S
C1206 C1201 1.350 1_455 S
C1207 H1194 0.929 . S
C1207 C1199 1.433 . S
C1207 N1209 1.384 . S
N1208 C1204 1.427 . S
N1208 C1205 1.384 . S
N1209 C1201 1.427 . S
N1209 C1207 1.384 . S
H1210 C1216 0.930 . S
H1211 C1220 0.930 . S
H1212 C1225 0.929 . S
H1213 C1223 0.929 . S
H1214 C1218 0.929 . S
H1215 C1224 0.929 . S
C1216 H1210 0.930 . S
C1216 C1217 1.367 . S
C1216 C1224 1.378 . S
C1217 C1216 1.367 . S
C1217 C1225 1.433 . S
C1218 H1214 0.929 . S
C1218 C1220 1.378 . S
C1218 C1222 1.350 . S
C1219 C1222 1.463 . S
C1219 C1224 1.350 . S
C1219 N1227 1.427 . S
C1220 H1211 0.930 . S
C1220 C1218 1.378 . S
C1220 C1221 1.367 . S
C1221 C1220 1.367 . S
C1221 C1223 1.433 . S
C1222 C1218 1.350 . S
C1222 C1219 1.463 . S
C1222 N1226 1.427 . S
C1223 H1213 0.929 . S
C1223 C1221 1.433 . S
C1223 N1226 1.384 . S
C1224 H1215 0.929 . S
C1224 C1216 1.378 . S
C1224 C1219 1.350 . S
C1225 H1212 0.929 . S
C1225 C1217 1.433 . S
C1225 N1227 1.384 . S
N1226 C1222 1.427 . S
N1226 C1223 1.384 . S
N1227 C1219 1.427 . S
N1227 C1225 1.384 . S
H1228 C1234 0.930 . S
H1229 C1238 0.930 . S
H1230 C1243 0.929 . S
H1231 C1241 0.929 . S
H1232 C1236 0.929 . S
H1233 C1242 0.929 . S
C1234 H1228 0.930 . S
C1234 C1235 1.367 . S
C1234 C1242 1.378 . S
C1235 C1234 1.367 . S
C1235 C1243 1.433 . S
C1236 H1232 0.929 . S
C1236 C1238 1.378 . S
C1236 C1240 1.350 . S
C1237 C1240 1.463 . S
C1237 C1242 1.350 . S
C1237 N1245 1.427 . S
C1238 H1229 0.930 . S
C1238 C1236 1.378 . S
C1238 C1239 1.367 . S
C1239 C1238 1.367 . S
C1239 C1241 1.433 . S
C1240 C1236 1.350 . S
C1240 C1237 1.463 . S
C1240 N1244 1.427 . S
C1241 H1231 0.929 . S
C1241 C1239 1.433 . S
C1241 N1244 1.384 . S
C1242 H1233 0.929 . S
C1242 C1234 1.378 . S
C1242 C1237 1.350 . S
C1243 H1230 0.929 . S
C1243 C1235 1.433 . S
C1243 N1245 1.384 . S
N1244 C1240 1.427 . S
N1244 C1241 1.384 . S
N1245 C1237 1.427 . S
N1245 C1243 1.384 . S
H1246 C1252 0.930 . S
H1247 C1256 0.930 . S
H1248 C1261 0.929 . S
H1249 C1259 0.929 . S
H1250 C1254 0.929 . S
H1251 C1260 0.929 . S
C1252 H1246 0.930 . S
C1252 C1253 1.367 . S
C1252 C1260 1.378 . S
C1253 C1252 1.367 . S
C1253 C1261 1.433 . S
C1254 H1250 0.929 . S
C1254 C1256 1.378 . S
C1254 C1258 1.350 . S
C1255 C1258 1.463 . S
C1255 C1260 1.350 . S
C1255 N1263 1.427 . S
C1256 H1247 0.930 . S
C1256 C1254 1.378 . S
C1256 C1257 1.367 . S
C1257 C1256 1.367 . S
C1257 C1259 1.433 . S
C1258 C1254 1.350 . S
C1258 C1255 1.463 . S
C1258 N1262 1.427 . S
C1259 H1249 0.929 . S
C1259 C1257 1.433 . S
C1259 N1262 1.384 . S
C1260 H1251 0.929 . S
C1260 C1252 1.378 . S
C1260 C1255 1.350 . S
C1261 H1248 0.929 . S
C1261 C1253 1.433 . S
C1261 N1263 1.384 . S
N1262 C1258 1.427 . S
N1262 C1259 1.384 . S
N1263 C1255 1.427 . S
N1263 C1261 1.384 . S
H1264 C1270 0.930 . S
H1265 C1274 0.930 . S
H1266 C1279 0.929 . S
H1267 C1277 0.929 1_545 S
H1268 C1272 0.929 . S
H1269 C1278 0.929 1_556 S
C1270 H1264 0.930 . S
C1270 C1271 1.367 1_556 S
C1270 C1278 1.378 1_556 S
C1271 C1270 1.367 1_554 S
C1271 C1279 1.433 . S
C1272 H1268 0.929 . S
C1272 C1274 1.378 . S
C1272 C1276 1.350 . S
C1273 C1276 1.463 . S
C1273 C1278 1.350 . S
C1273 N1281 1.427 . S
C1274 H1265 0.930 . S
C1274 C1272 1.378 . S
C1274 C1275 1.367 . S
C1275 C1274 1.367 . S
C1275 C1277 1.433 . S
C1276 C1272 1.350 . S
C1276 C1273 1.463 . S
C1276 N1280 1.427 . S
C1277 H1267 0.929 1_565 S
C1277 C1275 1.433 . S
C1277 N1280 1.384 . S
C1278 H1269 0.929 1_554 S
C1278 C1270 1.378 1_554 S
C1278 C1273 1.350 . S
C1279 H1266 0.929 . S
C1279 C1271 1.433 . S
C1279 N1281 1.384 . S
N1280 C1276 1.427 . S
N1280 C1277 1.384 . S
N1281 C1273 1.427 . S
N1281 C1279 1.384 . S
H1282 C1288 0.930 . S
H1283 C1292 0.930 . S
H1284 C1297 0.929 . S
H1285 C1295 0.929 . S
H1286 C1290 0.929 . S
H1287 C1296 0.929 . S
C1288 H1282 0.930 . S
C1288 C1289 1.404 . S
C1288 C1296 1.378 . S
C1289 C1288 1.404 . S
C1289 C1297 1.406 1_554 S
C1290 H1286 0.929 . S
C1290 C1292 1.378 . S
C1290 C1294 1.350 1_556 S
C1291 C1294 1.463 . S
C1291 C1296 1.350 . S
C1291 N1299 1.427 1_554 S
C1292 H1283 0.930 . S
C1292 C1290 1.378 . S
C1292 C1293 1.367 1_556 S
C1293 C1292 1.367 1_554 S
C1293 C1295 1.433 . S
C1294 C1290 1.350 1_554 S
C1294 C1291 1.463 . S
C1294 N1298 1.427 . S
C1295 H1285 0.929 . S
C1295 C1293 1.433 . S
C1295 N1298 1.384 . S
C1296 H1287 0.929 . S
C1296 C1288 1.378 . S
C1296 C1291 1.350 . S
C1297 H1284 0.929 . S
C1297 C1289 1.406 1_556 S
C1297 N1299 1.384 . S
N1298 C1294 1.427 . S
N1298 C1295 1.384 . S
N1299 C1291 1.427 1_556 S
N1299 C1297 1.384 . S
H1300 C1306 0.930 . S
H1301 C1310 0.930 . S
H1302 C1315 0.929 . S
H1303 C1313 0.929 . S
H1304 C1308 0.929 . S
H1305 C1314 0.929 . S
C1306 H1300 0.930 . S
C1306 C1307 1.367 . S
C1306 C1314 1.378 . S
C1307 C1306 1.367 . S
C1307 C1315 1.433 . S
C1308 H1304 0.929 . S
C1308 C1310 1.378 . S
C1308 C1312 1.350 . S
C1309 C1312 1.463 . S
C1309 C1314 1.350 . S
C1309 N1317 1.427 . S
C1310 H1301 0.930 . S
C1310 C1308 1.378 . S
C1310 C1311 1.367 . S
C1311 C1310 1.367 . S
C1311 C1313 1.433 . S
C1312 C1308 1.350 . S
C1312 C1309 1.463 . S
C1312 N1316 1.427 . S
C1313 H1303 0.929 . S
C1313 C1311 1.433 . S
C1313 N1316 1.384 . S
C1314 H1305 0.929 . S
C1314 C1306 1.378 . S
C1314 C1309 1.350 . S
C1315 H1302 0.929 . S
C1315 C1307 1.433 . S
C1315 N1317 1.384 . S
N1316 C1312 1.427 . S
N1316 C1313 1.384 . S
N1317 C1309 1.427 . S
N1317 C1315 1.384 . S
H1318 C1324 0.930 . S
H1319 C1328 0.930 . S
H1320 C1333 0.929 . S
H1321 C1331 0.929 . S
H1322 C1326 0.929 . S
H1323 C1332 0.929 . S
C1324 H1318 0.930 . S
C1324 C1325 1.367 . S
C1324 C1332 1.378 . S
C1325 C1324 1.367 . S
C1325 C1333 1.433 . S
C1326 H1322 0.929 . S
C1326 C1328 1.378 . S
C1326 C1330 1.350 . S
C1327 C1330 1.463 . S
C1327 C1332 1.350 . S
C1327 N1335 1.427 . S
C1328 H1319 0.930 . S
C1328 C1326 1.378 . S
C1328 C1329 1.367 . S
C1329 C1328 1.367 . S
C1329 C1331 1.433 . S
C1330 C1326 1.350 . S
C1330 C1327 1.463 . S
C1330 N1334 1.427 . S
C1331 H1321 0.929 . S
C1331 C1329 1.433 . S
C1331 N1334 1.384 . S
C1332 H1323 0.929 . S
C1332 C1324 1.378 . S
C1332 C1327 1.350 . S
C1333 H1320 0.929 . S
C1333 C1325 1.433 . S
C1333 N1335 1.384 . S
N1334 C1330 1.427 . S
N1334 C1331 1.384 . S
N1335 C1327 1.427 . S
N1335 C1333 1.384 . S
H1336 C1342 0.930 . S
H1337 C1346 0.930 . S
H1338 C1351 0.929 . S
H1339 C1349 0.929 . S
H1340 C1344 0.929 . S
H1341 C1350 0.929 . S
C1342 H1336 0.930 . S
C1342 C1343 1.367 . S
C1342 C1350 1.378 . S
C1343 C1342 1.367 . S
C1343 C1351 1.433 . S
C1344 H1340 0.929 . S
C1344 C1346 1.378 . S
C1344 C1348 1.350 . S
C1345 C1348 1.463 . S
C1345 C1350 1.350 . S
C1345 N1353 1.427 . S
C1346 H1337 0.930 . S
C1346 C1344 1.378 . S
C1346 C1347 1.367 . S
C1347 C1346 1.367 . S
C1347 C1349 1.433 . S
C1348 C1344 1.350 . S
C1348 C1345 1.463 . S
C1348 N1352 1.427 . S
C1349 H1339 0.929 . S
C1349 C1347 1.433 . S
C1349 N1352 1.384 . S
C1350 H1341 0.929 . S
C1350 C1342 1.378 . S
C1350 C1345 1.350 . S
C1351 H1338 0.929 . S
C1351 C1343 1.433 . S
C1351 N1353 1.384 . S
N1352 C1348 1.427 . S
N1352 C1349 1.384 . S
N1353 C1345 1.427 . S
N1353 C1351 1.384 . S
H1354 C1360 0.930 . S
H1355 C1364 0.930 . S
H1356 C1369 0.929 . S
H1357 C1367 0.929 . S
H1358 C1362 0.929 . S
H1359 C1368 0.929 . S
C1360 H1354 0.930 . S
C1360 C1361 1.367 . S
C1360 C1368 1.378 . S
C1361 C1360 1.367 . S
C1361 C1369 1.433 . S
C1362 H1358 0.929 . S
C1362 C1364 1.378 . S
C1362 C1366 1.350 . S
C1363 C1366 1.463 . S
C1363 C1368 1.350 . S
C1363 N1371 1.427 . S
C1364 H1355 0.930 . S
C1364 C1362 1.378 . S
C1364 C1365 1.367 . S
C1365 C1364 1.367 . S
C1365 C1367 1.433 . S
C1366 C1362 1.350 . S
C1366 C1363 1.463 . S
C1366 N1370 1.427 . S
C1367 H1357 0.929 . S
C1367 C1365 1.433 . S
C1367 N1370 1.384 . S
C1368 H1359 0.929 . S
C1368 C1360 1.378 . S
C1368 C1363 1.350 . S
C1369 H1356 0.929 . S
C1369 C1361 1.433 . S
C1369 N1371 1.384 . S
N1370 C1366 1.427 . S
N1370 C1367 1.384 . S
N1371 C1363 1.427 . S
N1371 C1369 1.384 . S
H1372 C1378 0.930 . S
H1373 C1382 0.930 . S
H1374 C1387 0.929 . S
H1375 C1385 0.929 . S
H1376 C1380 0.929 . S
H1377 C1386 0.929 . S
C1378 H1372 0.930 . S
C1378 C1379 1.367 . S
C1378 C1386 1.378 . S
C1379 C1378 1.367 . S
C1379 C1387 1.433 . S
C1380 H1376 0.929 . S
C1380 C1382 1.378 . S
C1380 C1384 1.350 . S
C1381 C1384 1.463 . S
C1381 C1386 1.350 . S
C1381 N1389 1.427 . S
C1382 H1373 0.930 . S
C1382 C1380 1.378 . S
C1382 C1383 1.367 . S
C1383 C1382 1.367 . S
C1383 C1385 1.433 . S
C1384 C1380 1.350 . S
C1384 C1381 1.463 . S
C1384 N1388 1.427 . S
C1385 H1375 0.929 . S
C1385 C1383 1.433 . S
C1385 N1388 1.384 . S
C1386 H1377 0.929 . S
C1386 C1378 1.378 . S
C1386 C1381 1.350 . S
C1387 H1374 0.929 . S
C1387 C1379 1.433 . S
C1387 N1389 1.384 . S
N1388 C1384 1.427 . S
N1388 C1385 1.384 . S
N1389 C1381 1.427 . S
N1389 C1387 1.384 . S
H1390 C1396 0.930 . S
H1391 C1400 0.930 . S
H1392 C1405 0.929 . S
H1393 C1403 0.929 . S
H1394 C1398 0.929 . S
H1395 C1404 0.929 . S
C1396 H1390 0.930 . S
C1396 C1397 1.367 . S
C1396 C1404 1.378 . S
C1397 C1396 1.367 . S
C1397 C1405 1.433 . S
C1398 H1394 0.929 . S
C1398 C1400 1.378 . S
C1398 C1402 1.350 . S
C1399 C1402 1.463 . S
C1399 C1404 1.350 . S
C1399 N1407 1.427 . S
C1400 H1391 0.930 . S
C1400 C1398 1.378 . S
C1400 C1401 1.367 . S
C1401 C1400 1.367 . S
C1401 C1403 1.433 . S
C1402 C1398 1.350 . S
C1402 C1399 1.463 . S
C1402 N1406 1.427 . S
C1403 H1393 0.929 . S
C1403 C1401 1.433 . S
C1403 N1406 1.384 . S
C1404 H1395 0.929 . S
C1404 C1396 1.378 . S
C1404 C1399 1.350 . S
C1405 H1392 0.929 . S
C1405 C1397 1.433 . S
C1405 N1407 1.384 . S
N1406 C1402 1.427 . S
N1406 C1403 1.384 . S
N1407 C1399 1.427 . S
N1407 C1405 1.384 . S
H1408 C1414 0.930 . S
H1409 C1418 0.930 . S
H1410 C1423 0.929 . S
H1411 C1421 0.929 . S
H1412 C1416 0.929 . S
H1413 C1422 0.929 . S
C1414 H1408 0.930 . S
C1414 C1415 1.367 . S
C1414 C1422 1.378 . S
C1415 C1414 1.367 . S
C1415 C1423 1.433 . S
C1416 H1412 0.929 . S
C1416 C1418 1.378 . S
C1416 C1420 1.350 . S
C1417 C1420 1.463 . S
C1417 C1422 1.350 . S
C1417 N1425 1.427 . S
C1418 H1409 0.930 . S
C1418 C1416 1.378 . S
C1418 C1419 1.367 . S
C1419 C1418 1.367 . S
C1419 C1421 1.433 . S
C1420 C1416 1.350 . S
C1420 C1417 1.463 . S
C1420 N1424 1.427 . S
C1421 H1411 0.929 . S
C1421 C1419 1.433 . S
C1421 N1424 1.384 . S
C1422 H1413 0.929 . S
C1422 C1414 1.378 . S
C1422 C1417 1.350 . S
C1423 H1410 0.929 . S
C1423 C1415 1.433 . S
C1423 N1425 1.384 . S
N1424 C1420 1.427 . S
N1424 C1421 1.384 . S
N1425 C1417 1.427 . S
N1425 C1423 1.384 . S
H1426 C1432 0.930 . S
H1427 C1436 0.930 . S
H1428 C1441 0.929 . S
H1429 C1439 0.929 . S
H1430 C1434 0.929 . S
H1431 C1440 0.929 . S
C1432 H1426 0.930 . S
C1432 C1433 1.367 . S
C1432 C1440 1.378 . S
C1433 C1432 1.367 . S
C1433 C1441 1.433 . S
C1434 H1430 0.929 . S
C1434 C1436 1.378 . S
C1434 C1438 1.350 . S
C1435 C1438 1.463 . S
C1435 C1440 1.350 . S
C1435 N1443 1.427 . S
C1436 H1427 0.930 . S
C1436 C1434 1.378 . S
C1436 C1437 1.367 . S
C1437 C1436 1.367 . S
C1437 C1439 1.433 . S
C1438 C1434 1.350 . S
C1438 C1435 1.463 . S
C1438 N1442 1.427 . S
C1439 H1429 0.929 . S
C1439 C1437 1.433 . S
C1439 N1442 1.384 . S
C1440 H1431 0.929 . S
C1440 C1432 1.378 . S
C1440 C1435 1.350 . S
C1441 H1428 0.929 . S
C1441 C1433 1.433 . S
C1441 N1443 1.384 . S
N1442 C1438 1.427 . S
N1442 C1439 1.384 . S
N1443 C1435 1.427 . S
N1443 C1441 1.384 . S
H1444 C1450 0.930 . S
H1445 C1454 0.930 . S
H1446 C1459 0.929 . S
H1447 C1457 0.929 . S
H1448 C1452 0.929 . S
H1449 C1458 0.929 . S
C1450 H1444 0.930 . S
C1450 C1451 1.367 . S
C1450 C1458 1.378 . S
C1451 C1450 1.367 . S
C1451 C1459 1.433 . S
C1452 H1448 0.929 . S
C1452 C1454 1.378 . S
C1452 C1456 1.350 . S
C1453 C1456 1.463 . S
C1453 C1458 1.350 . S
C1453 N1461 1.427 . S
C1454 H1445 0.930 . S
C1454 C1452 1.378 . S
C1454 C1455 1.367 . S
C1455 C1454 1.367 . S
C1455 C1457 1.433 . S
C1456 C1452 1.350 . S
C1456 C1453 1.463 . S
C1456 N1460 1.427 . S
C1457 H1447 0.929 . S
C1457 C1455 1.433 . S
C1457 N1460 1.384 . S
C1458 H1449 0.929 . S
C1458 C1450 1.378 . S
C1458 C1453 1.350 . S
C1459 H1446 0.929 . S
C1459 C1451 1.433 . S
C1459 N1461 1.384 . S
N1460 C1456 1.427 . S
N1460 C1457 1.384 . S
N1461 C1453 1.427 . S
N1461 C1459 1.384 . S
H1462 C1468 0.930 . S
H1463 C1472 0.930 . S
H1464 C1477 0.929 . S
H1465 C1475 0.929 . S
H1466 C1470 0.929 . S
H1467 C1476 0.929 . S
C1468 H1462 0.930 . S
C1468 C1469 1.367 . S
C1468 C1476 1.378 . S
C1469 C1468 1.367 . S
C1469 C1477 1.433 . S
C1470 H1466 0.929 . S
C1470 C1472 1.378 . S
C1470 C1474 1.350 . S
C1471 C1474 1.463 . S
C1471 C1476 1.350 . S
C1471 N1479 1.427 . S
C1472 H1463 0.930 . S
C1472 C1470 1.378 . S
C1472 C1473 1.367 . S
C1473 C1472 1.367 . S
C1473 C1475 1.433 . S
C1474 C1470 1.350 . S
C1474 C1471 1.463 . S
C1474 N1478 1.427 . S
C1475 H1465 0.929 . S
C1475 C1473 1.433 . S
C1475 N1478 1.384 . S
C1476 H1467 0.929 . S
C1476 C1468 1.378 . S
C1476 C1471 1.350 . S
C1477 H1464 0.929 . S
C1477 C1469 1.433 . S
C1477 N1479 1.384 . S
N1478 C1474 1.427 . S
N1478 C1475 1.384 . S
N1479 C1471 1.427 . S
N1479 C1477 1.384 . S
H1480 C1486 0.930 . S
H1481 C1490 0.930 . S
H1482 C1495 0.929 . S
H1483 C1493 0.929 . S
H1484 C1488 0.929 . S
H1485 C1494 0.929 . S
C1486 H1480 0.930 . S
C1486 C1487 1.367 . S
C1486 C1494 1.378 . S
C1487 C1486 1.367 . S
C1487 C1495 1.433 . S
C1488 H1484 0.929 . S
C1488 C1490 1.378 . S
C1488 C1492 1.350 . S
C1489 C1492 1.463 . S
C1489 C1494 1.350 . S
C1489 N1497 1.427 . S
C1490 H1481 0.930 . S
C1490 C1488 1.378 . S
C1490 C1491 1.367 . S
C1491 C1490 1.367 . S
C1491 C1493 1.433 . S
C1492 C1488 1.350 . S
C1492 C1489 1.463 . S
C1492 N1496 1.427 . S
C1493 H1483 0.929 . S
C1493 C1491 1.433 . S
C1493 N1496 1.384 . S
C1494 H1485 0.929 . S
C1494 C1486 1.378 . S
C1494 C1489 1.350 . S
C1495 H1482 0.929 . S
C1495 C1487 1.433 . S
C1495 N1497 1.384 . S
N1496 C1492 1.427 . S
N1496 C1493 1.384 . S
N1497 C1489 1.427 . S
N1497 C1495 1.384 . S
H1498 C1504 0.930 . S
H1499 C1508 0.930 . S
H1500 C1513 0.929 . S
H1501 C1511 0.929 . S
H1502 C1506 0.929 . S
H1503 C1512 0.929 . S
C1504 H1498 0.930 . S
C1504 C1505 1.367 . S
C1504 C1512 1.378 . S
C1505 C1504 1.367 . S
C1505 C1513 1.433 . S
C1506 H1502 0.929 . S
C1506 C1508 1.378 . S
C1506 C1510 1.350 . S
C1507 C1510 1.463 . S
C1507 C1512 1.350 . S
C1507 N1515 1.427 . S
C1508 H1499 0.930 . S
C1508 C1506 1.378 . S
C1508 C1509 1.367 . S
C1509 C1508 1.367 . S
C1509 C1511 1.433 . S
C1510 C1506 1.350 . S
C1510 C1507 1.463 . S
C1510 N1514 1.427 . S
C1511 H1501 0.929 . S
C1511 C1509 1.433 . S
C1511 N1514 1.384 . S
C1512 H1503 0.929 . S
C1512 C1504 1.378 . S
C1512 C1507 1.350 . S
C1513 H1500 0.929 . S
C1513 C1505 1.433 . S
C1513 N1515 1.384 . S
N1514 C1510 1.427 . S
N1514 C1511 1.384 . S
N1515 C1507 1.427 . S
N1515 C1513 1.384 . S
H1516 C1522 0.930 . S
H1517 C1526 0.930 . S
H1518 C1531 0.929 . S
H1519 C1529 0.929 1_554 S
H1520 C1524 0.929 . S
H1521 C1530 0.929 . S
C1522 H1516 0.930 . S
C1522 C1523 1.367 . S
C1522 C1530 1.378 . S
C1523 C1522 1.367 . S
C1523 C1531 1.433 . S
C1524 H1520 0.929 . S
C1524 C1526 1.378 . S
C1524 C1528 1.350 . S
C1525 C1528 1.463 . S
C1525 C1530 1.350 . S
C1525 N1533 1.427 . S
C1526 H1517 0.930 . S
C1526 C1524 1.378 . S
C1526 C1527 1.367 . S
C1527 C1526 1.367 . S
C1527 C1529 1.433 . S
C1528 C1524 1.350 . S
C1528 C1525 1.463 . S
C1528 N1532 1.427 . S
C1529 H1519 0.929 1_556 S
C1529 C1527 1.433 . S
C1529 N1532 1.384 . S
C1530 H1521 0.929 . S
C1530 C1522 1.378 . S
C1530 C1525 1.350 . S
C1531 H1518 0.929 . S
C1531 C1523 1.433 . S
C1531 N1533 1.384 . S
N1532 C1528 1.427 . S
N1532 C1529 1.384 . S
N1533 C1525 1.427 . S
N1533 C1531 1.384 . S
H1534 C1540 0.930 . S
H1535 C1544 0.930 . S
H1536 C1549 0.929 . S
H1537 C1547 0.929 . S
H1538 C1542 0.929 . S
H1539 C1548 0.929 . S
C1540 H1534 0.930 . S
C1540 C1541 1.367 . S
C1540 C1548 1.378 . S
C1541 C1540 1.367 . S
C1541 C1549 1.433 . S
C1542 H1538 0.929 . S
C1542 C1544 1.378 . S
C1542 C1546 1.350 . S
C1543 C1546 1.463 . S
C1543 C1548 1.350 . S
C1543 N1551 1.427 . S
C1544 H1535 0.930 . S
C1544 C1542 1.378 . S
C1544 C1545 1.367 . S
C1545 C1544 1.367 . S
C1545 C1547 1.433 . S
C1546 C1542 1.350 . S
C1546 C1543 1.463 . S
C1546 N1550 1.427 . S
C1547 H1537 0.929 . S
C1547 C1545 1.433 . S
C1547 N1550 1.384 . S
C1548 H1539 0.929 . S
C1548 C1540 1.378 . S
C1548 C1543 1.350 . S
C1549 H1536 0.929 . S
C1549 C1541 1.433 . S
C1549 N1551 1.384 . S
N1550 C1546 1.427 . S
N1550 C1547 1.384 . S
N1551 C1543 1.427 . S
N1551 C1549 1.384 . S
H1552 C1558 0.954 . S
H1553 C1562 0.930 . S
H1554 C1567 0.929 . S
H1555 C1565 0.929 1_565 S
H1556 C1560 0.929 . S
H1557 C1566 0.907 1_565 S
C1558 H1552 0.954 . S
C1558 C1559 1.344 1_565 S
C1558 C1566 1.379 1_565 S
C1559 C1558 1.344 1_545 S
C1559 C1567 1.433 . S
C1560 H1556 0.929 . S
C1560 C1562 1.378 . S
C1560 C1564 1.350 . S
C1561 C1564 1.463 . S
C1561 C1566 1.372 . S
C1561 N1569 1.427 . S
C1562 H1553 0.930 . S
C1562 C1560 1.378 . S
C1562 C1563 1.367 . S
C1563 C1562 1.367 . S
C1563 C1565 1.433 . S
C1564 C1560 1.350 . S
C1564 C1561 1.463 . S
C1564 N1568 1.427 . S
C1565 H1555 0.929 1_545 S
C1565 C1563 1.433 . S
C1565 N1568 1.384 . S
C1566 H1557 0.907 1_545 S
C1566 C1558 1.379 1_545 S
C1566 C1561 1.372 . S
C1567 H1554 0.929 . S
C1567 C1559 1.433 . S
C1567 N1569 1.384 . S
N1568 C1564 1.427 . S
N1568 C1565 1.384 . S
N1569 C1561 1.427 . S
N1569 C1567 1.384 . S
H1570 C1576 0.930 . S
H1571 C1580 0.930 . S
H1572 C1585 0.929 . S
H1573 C1583 0.929 . S
H1574 C1578 0.929 . S
H1575 C1584 0.929 . S
C1576 H1570 0.930 . S
C1576 C1577 1.367 . S
C1576 C1584 1.378 . S
C1577 C1576 1.367 . S
C1577 C1585 1.433 . S
C1578 H1574 0.929 . S
C1578 C1580 1.378 . S
C1578 C1582 1.350 . S
C1579 C1582 1.463 . S
C1579 C1584 1.350 . S
C1579 N1587 1.427 . S
C1580 H1571 0.930 . S
C1580 C1578 1.378 . S
C1580 C1581 1.367 . S
C1581 C1580 1.367 . S
C1581 C1583 1.433 . S
C1582 C1578 1.350 . S
C1582 C1579 1.463 . S
C1582 N1586 1.427 . S
C1583 H1573 0.929 . S
C1583 C1581 1.433 . S
C1583 N1586 1.384 . S
C1584 H1575 0.929 . S
C1584 C1576 1.378 . S
C1584 C1579 1.350 . S
C1585 H1572 0.929 . S
C1585 C1577 1.433 . S
C1585 N1587 1.384 . S
N1586 C1582 1.427 . S
N1586 C1583 1.384 . S
N1587 C1579 1.427 . S
N1587 C1585 1.384 . S
H1588 C1594 0.930 . S
H1589 C1598 0.930 . S
H1590 C1603 0.929 . S
H1591 C1601 0.929 1_565 S
H1592 C1596 0.929 . S
H1593 C1602 0.929 . S
C1594 H1588 0.930 . S
C1594 C1595 1.367 1_565 S
C1594 C1602 1.378 . S
C1595 C1594 1.367 1_545 S
C1595 C1603 1.433 . S
C1596 H1592 0.929 . S
C1596 C1598 1.378 . S
C1596 C1600 1.350 . S
C1597 C1600 1.463 . S
C1597 C1602 1.350 1_545 S
C1597 N1605 1.427 . S
C1598 H1589 0.930 . S
C1598 C1596 1.378 . S
C1598 C1599 1.367 . S
C1599 C1598 1.367 . S
C1599 C1601 1.433 . S
C1600 C1596 1.350 . S
C1600 C1597 1.463 . S
C1600 N1604 1.427 . S
C1601 H1591 0.929 1_545 S
C1601 C1599 1.433 . S
C1601 N1604 1.384 . S
C1602 H1593 0.929 . S
C1602 C1594 1.378 . S
C1602 C1597 1.350 1_565 S
C1603 H1590 0.929 . S
C1603 C1595 1.433 . S
C1603 N1605 1.384 . S
N1604 C1600 1.427 . S
N1604 C1601 1.384 . S
N1605 C1597 1.427 . S
N1605 C1603 1.384 . S
H1606 C1612 0.930 . S
H1607 C1616 0.930 . S
H1608 C1621 0.929 . S
H1609 C1619 0.929 . S
H1610 C1614 0.929 . S
H1611 C1620 0.929 . S
C1612 H1606 0.930 . S
C1612 C1613 1.367 . S
C1612 C1620 1.378 . S
C1613 C1612 1.367 . S
C1613 C1621 1.433 . S
C1614 H1610 0.929 . S
C1614 C1616 1.378 . S
C1614 C1618 1.350 . S
C1615 C1618 1.463 . S
C1615 C1620 1.350 . S
C1615 N1623 1.427 . S
C1616 H1607 0.930 . S
C1616 C1614 1.378 . S
C1616 C1617 1.367 . S
C1617 C1616 1.367 . S
C1617 C1619 1.433 . S
C1618 C1614 1.350 . S
C1618 C1615 1.463 . S
C1618 N1622 1.427 . S
C1619 H1609 0.929 . S
C1619 C1617 1.433 . S
C1619 N1622 1.384 . S
C1620 H1611 0.929 . S
C1620 C1612 1.378 . S
C1620 C1615 1.350 . S
C1621 H1608 0.929 . S
C1621 C1613 1.433 . S
C1621 N1623 1.384 . S
N1622 C1618 1.427 . S
N1622 C1619 1.384 . S
N1623 C1615 1.427 . S
N1623 C1621 1.384 . S
H1624 C1630 0.930 . S
H1625 C1634 0.930 1_565 S
H1626 C1639 0.929 . S
H1627 C1637 0.929 . S
H1628 C1632 0.929 . S
H1629 C1638 0.929 . S
C1630 H1624 0.930 . S
C1630 C1631 1.367 . S
C1630 C1638 1.378 . S
C1631 C1630 1.367 . S
C1631 C1639 1.433 1_545 S
C1632 H1628 0.929 . S
C1632 C1634 1.378 1_565 S
C1632 C1636 1.350 1_565 S
C1633 C1636 1.463 . S
C1633 C1638 1.350 . S
C1633 N1641 1.427 1_545 S
C1634 H1625 0.930 1_545 S
C1634 C1632 1.378 1_545 S
C1634 C1635 1.367 . S
C1635 C1634 1.367 . S
C1635 C1637 1.433 . S
C1636 C1632 1.350 1_545 S
C1636 C1633 1.463 . S
C1636 N1640 1.427 . S
C1637 H1627 0.929 . S
C1637 C1635 1.433 . S
C1637 N1640 1.384 . S
C1638 H1629 0.929 . S
C1638 C1630 1.378 . S
C1638 C1633 1.350 . S
C1639 H1626 0.929 . S
C1639 C1631 1.433 1_565 S
C1639 N1641 1.384 . S
N1640 C1636 1.427 . S
N1640 C1637 1.384 . S
N1641 C1633 1.427 1_565 S
N1641 C1639 1.384 . S
H1642 C1648 0.930 . S
H1643 C1652 0.930 . S
H1644 C1657 0.929 . S
H1645 C1655 0.929 . S
H1646 C1650 0.929 . S
H1647 C1656 0.929 . S
C1648 H1642 0.930 . S
C1648 C1649 1.367 . S
C1648 C1656 1.378 . S
C1649 C1648 1.367 . S
C1649 C1657 1.433 . S
C1650 H1646 0.929 . S
C1650 C1652 1.378 . S
C1650 C1654 1.350 . S
C1651 C1654 1.463 . S
C1651 C1656 1.350 . S
C1651 N1659 1.427 . S
C1652 H1643 0.930 . S
C1652 C1650 1.378 . S
C1652 C1653 1.367 . S
C1653 C1652 1.367 . S
C1653 C1655 1.433 . S
C1654 C1650 1.350 . S
C1654 C1651 1.463 . S
C1654 N1658 1.427 . S
C1655 H1645 0.929 . S
C1655 C1653 1.433 . S
C1655 N1658 1.384 . S
C1656 H1647 0.929 . S
C1656 C1648 1.378 . S
C1656 C1651 1.350 . S
C1657 H1644 0.929 . S
C1657 C1649 1.433 . S
C1657 N1659 1.384 . S
N1658 C1654 1.427 . S
N1658 C1655 1.384 . S
N1659 C1651 1.427 . S
N1659 C1657 1.384 . S
H1660 C1666 0.930 . S
H1661 C1670 0.930 . S
H1662 C1675 0.929 . S
H1663 C1673 0.929 . S
H1664 C1668 0.929 . S
H1665 C1674 0.929 . S
C1666 H1660 0.930 . S
C1666 C1667 1.371 . S
C1666 C1674 1.378 . S
C1667 C1666 1.371 . S
C1667 C1675 1.429 1_545 S
C1668 H1664 0.929 . S
C1668 C1670 1.378 . S
C1668 C1672 1.350 . S
C1669 C1672 1.463 . S
C1669 C1674 1.350 1_565 S
C1669 N1677 1.427 . S
C1670 H1661 0.930 . S
C1670 C1668 1.378 . S
C1670 C1671 1.367 . S
C1671 C1670 1.367 . S
C1671 C1673 1.433 1_565 S
C1672 C1668 1.350 . S
C1672 C1669 1.463 . S
C1672 N1676 1.427 1_565 S
C1673 H1663 0.929 . S
C1673 C1671 1.433 1_545 S
C1673 N1676 1.384 . S
C1674 H1665 0.929 . S
C1674 C1666 1.378 . S
C1674 C1669 1.350 1_545 S
C1675 H1662 0.929 . S
C1675 C1667 1.429 1_565 S
C1675 N1677 1.384 . S
N1676 C1672 1.427 1_545 S
N1676 C1673 1.384 . S
N1677 C1669 1.427 . S
N1677 C1675 1.384 . S
H1678 C1684 0.930 . S
H1679 C1688 0.930 . S
H1680 C1693 0.929 . S
H1681 C1691 0.929 . S
H1682 C1686 0.929 . S
H1683 C1692 0.929 . S
C1684 H1678 0.930 . S
C1684 C1685 1.367 . S
C1684 C1692 1.378 . S
C1685 C1684 1.367 . S
C1685 C1693 1.433 . S
C1686 H1682 0.929 . S
C1686 C1688 1.378 . S
C1686 C1690 1.350 . S
C1687 C1690 1.463 . S
C1687 C1692 1.350 . S
C1687 N1695 1.427 . S
C1688 H1679 0.930 . S
C1688 C1686 1.378 . S
C1688 C1689 1.367 . S
C1689 C1688 1.367 . S
C1689 C1691 1.433 . S
C1690 C1686 1.350 . S
C1690 C1687 1.463 . S
C1690 N1694 1.427 . S
C1691 H1681 0.929 . S
C1691 C1689 1.433 . S
C1691 N1694 1.384 . S
C1692 H1683 0.929 . S
C1692 C1684 1.378 . S
C1692 C1687 1.350 . S
C1693 H1680 0.929 . S
C1693 C1685 1.433 . S
C1693 N1695 1.384 . S
N1694 C1690 1.427 . S
N1694 C1691 1.384 . S
N1695 C1687 1.427 . S
N1695 C1693 1.384 . S
H1696 C1702 0.930 . S
H1697 C1706 0.930 . S
H1698 C1711 0.937 . S
H1699 C1709 0.929 . S
H1700 C1704 0.929 . S
H1701 C1710 0.929 . S
C1702 H1696 0.930 . S
C1702 C1703 1.367 . S
C1702 C1710 1.378 . S
C1703 C1702 1.367 . S
C1703 C1711 1.420 1_554 S
C1704 H1700 0.929 . S
C1704 C1706 1.378 . S
C1704 C1708 1.350 . S
C1705 C1708 1.449 1_554 S
C1705 C1710 1.379 . S
C1705 N1713 1.410 1_554 S
C1706 H1697 0.930 . S
C1706 C1704 1.378 . S
C1706 C1707 1.367 . S
C1707 C1706 1.367 . S
C1707 C1709 1.433 . S
C1708 C1704 1.350 . S
C1708 C1705 1.449 1_556 S
C1708 N1712 1.421 1_556 S
C1709 H1699 0.929 . S
C1709 C1707 1.433 . S
C1709 N1712 1.379 1_556 S
C1710 H1701 0.929 . S
C1710 C1702 1.378 . S
C1710 C1705 1.379 . S
C1711 H1698 0.937 . S
C1711 C1703 1.420 1_556 S
C1711 N1713 1.389 . S
N1712 C1708 1.421 1_554 S
N1712 C1709 1.379 1_554 S
N1713 C1705 1.410 1_556 S
N1713 C1711 1.389 . S
H1714 C1720 0.930 . S
H1715 C1724 0.930 . S
H1716 C1729 0.929 . S
H1717 C1727 0.929 . S
H1718 C1722 0.929 . S
H1719 C1728 0.929 . S
C1720 H1714 0.930 . S
C1720 C1721 1.367 . S
C1720 C1728 1.378 . S
C1721 C1720 1.367 . S
C1721 C1729 1.433 . S
C1722 H1718 0.929 . S
C1722 C1724 1.378 . S
C1722 C1726 1.350 . S
C1723 C1726 1.463 . S
C1723 C1728 1.350 . S
C1723 N1731 1.427 . S
C1724 H1715 0.930 . S
C1724 C1722 1.378 . S
C1724 C1725 1.367 . S
C1725 C1724 1.367 . S
C1725 C1727 1.433 . S
C1726 C1722 1.350 . S
C1726 C1723 1.463 . S
C1726 N1730 1.427 . S
C1727 H1717 0.929 . S
C1727 C1725 1.433 . S
C1727 N1730 1.384 . S
C1728 H1719 0.929 . S
C1728 C1720 1.378 . S
C1728 C1723 1.350 . S
C1729 H1716 0.929 . S
C1729 C1721 1.433 . S
C1729 N1731 1.384 . S
N1730 C1726 1.427 . S
N1730 C1727 1.384 . S
N1731 C1723 1.427 . S
N1731 C1729 1.384 . S
H1732 C1738 0.930 . S
H1733 C1742 0.930 . S
H1734 C1747 0.929 . S
H1735 C1745 0.929 . S
H1736 C1740 0.929 . S
H1737 C1746 0.929 . S
C1738 H1732 0.930 . S
C1738 C1739 1.367 . S
C1738 C1746 1.378 . S
C1739 C1738 1.367 . S
C1739 C1747 1.433 . S
C1740 H1736 0.929 . S
C1740 C1742 1.378 . S
C1740 C1744 1.350 . S
C1741 C1744 1.463 . S
C1741 C1746 1.350 . S
C1741 N1749 1.427 . S
C1742 H1733 0.930 . S
C1742 C1740 1.378 . S
C1742 C1743 1.367 . S
C1743 C1742 1.367 . S
C1743 C1745 1.433 . S
C1744 C1740 1.350 . S
C1744 C1741 1.463 . S
C1744 N1748 1.427 . S
C1745 H1735 0.929 . S
C1745 C1743 1.433 . S
C1745 N1748 1.384 . S
C1746 H1737 0.929 . S
C1746 C1738 1.378 . S
C1746 C1741 1.350 . S
C1747 H1734 0.929 . S
C1747 C1739 1.433 . S
C1747 N1749 1.384 . S
N1748 C1744 1.427 . S
N1748 C1745 1.384 . S
N1749 C1741 1.427 . S
N1749 C1747 1.384 . S
H1750 C1756 0.930 . S
H1751 C1760 0.930 . S
H1752 C1765 0.929 . S
H1753 C1763 0.929 . S
H1754 C1758 0.929 . S
H1755 C1764 0.929 . S
C1756 H1750 0.930 . S
C1756 C1757 1.367 . S
C1756 C1764 1.378 . S
C1757 C1756 1.367 . S
C1757 C1765 1.433 . S
C1758 H1754 0.929 . S
C1758 C1760 1.378 . S
C1758 C1762 1.350 . S
C1759 C1762 1.463 . S
C1759 C1764 1.350 . S
C1759 N1767 1.427 . S
C1760 H1751 0.930 . S
C1760 C1758 1.378 . S
C1760 C1761 1.367 . S
C1761 C1760 1.367 . S
C1761 C1763 1.433 . S
C1762 C1758 1.350 . S
C1762 C1759 1.463 . S
C1762 N1766 1.427 . S
C1763 H1753 0.929 . S
C1763 C1761 1.433 . S
C1763 N1766 1.384 . S
C1764 H1755 0.929 . S
C1764 C1756 1.378 . S
C1764 C1759 1.350 . S
C1765 H1752 0.929 . S
C1765 C1757 1.433 . S
C1765 N1767 1.384 . S
N1766 C1762 1.427 . S
N1766 C1763 1.384 . S
N1767 C1759 1.427 . S
N1767 C1765 1.384 . S
H1768 C1774 0.920 1_545 S
H1769 C1778 0.930 . S
H1770 C1783 0.929 . S
H1771 C1781 0.929 . S
H1772 C1776 0.929 . S
H1773 C1782 0.929 . S
C1774 H1768 0.920 1_565 S
C1774 C1775 1.360 1_565 S
C1774 C1782 1.396 . S
C1775 C1774 1.360 1_545 S
C1775 C1783 1.433 1_545 S
C1776 H1772 0.929 . S
C1776 C1778 1.378 . S
C1776 C1780 1.350 . S
C1777 C1780 1.463 . S
C1777 C1782 1.350 . S
C1777 N1785 1.427 . S
C1778 H1769 0.930 . S
C1778 C1776 1.378 . S
C1778 C1779 1.367 . S
C1779 C1778 1.367 . S
C1779 C1781 1.433 . S
C1780 C1776 1.350 . S
C1780 C1777 1.463 . S
C1780 N1784 1.427 . S
C1781 H1771 0.929 . S
C1781 C1779 1.433 . S
C1781 N1784 1.384 . S
C1782 H1773 0.929 . S
C1782 C1774 1.396 . S
C1782 C1777 1.350 . S
C1783 H1770 0.929 . S
C1783 C1775 1.433 1_565 S
C1783 N1785 1.384 . S
N1784 C1780 1.427 . S
N1784 C1781 1.384 . S
N1785 C1777 1.427 . S
N1785 C1783 1.384 . S
H1786 C1792 0.930 . S
H1787 C1796 0.930 . S
H1788 C1801 0.929 . S
H1789 C1799 0.929 . S
H1790 C1794 0.929 . S
H1791 C1800 0.929 . S
C1792 H1786 0.930 . S
C1792 C1793 1.367 . S
C1792 C1800 1.378 . S
C1793 C1792 1.367 . S
C1793 C1801 1.433 . S
C1794 H1790 0.929 . S
C1794 C1796 1.378 . S
C1794 C1798 1.350 . S
C1795 C1798 1.463 . S
C1795 C1800 1.350 . S
C1795 N1803 1.427 . S
C1796 H1787 0.930 . S
C1796 C1794 1.378 . S
C1796 C1797 1.367 . S
C1797 C1796 1.367 . S
C1797 C1799 1.433 . S
C1798 C1794 1.350 . S
C1798 C1795 1.463 . S
C1798 N1802 1.427 . S
C1799 H1789 0.929 . S
C1799 C1797 1.433 . S
C1799 N1802 1.384 . S
C1800 H1791 0.929 . S
C1800 C1792 1.378 . S
C1800 C1795 1.350 . S
C1801 H1788 0.929 . S
C1801 C1793 1.433 . S
C1801 N1803 1.384 . S
N1802 C1798 1.427 . S
N1802 C1799 1.384 . S
N1803 C1795 1.427 . S
N1803 C1801 1.384 . S
H1804 C1810 0.930 . S
H1805 C1814 0.930 . S
H1806 C1819 0.929 . S
H1807 C1817 0.929 . S
H1808 C1812 0.929 . S
H1809 C1818 0.929 . S
C1810 H1804 0.930 . S
C1810 C1811 1.367 . S
C1810 C1818 1.378 . S
C1811 C1810 1.367 . S
C1811 C1819 1.433 . S
C1812 H1808 0.929 . S
C1812 C1814 1.378 . S
C1812 C1816 1.350 . S
C1813 C1816 1.463 . S
C1813 C1818 1.350 . S
C1813 N1821 1.427 . S
C1814 H1805 0.930 . S
C1814 C1812 1.378 . S
C1814 C1815 1.367 . S
C1815 C1814 1.367 . S
C1815 C1817 1.433 . S
C1816 C1812 1.350 . S
C1816 C1813 1.463 . S
C1816 N1820 1.427 . S
C1817 H1807 0.929 . S
C1817 C1815 1.433 . S
C1817 N1820 1.384 . S
C1818 H1809 0.929 . S
C1818 C1810 1.378 . S
C1818 C1813 1.350 . S
C1819 H1806 0.929 . S
C1819 C1811 1.433 . S
C1819 N1821 1.384 . S
N1820 C1816 1.427 . S
N1820 C1817 1.384 . S
N1821 C1813 1.427 . S
N1821 C1819 1.384 . S
H1822 C1828 0.930 . S
H1823 C1832 0.930 . S
H1824 C1837 0.929 . S
H1825 C1835 0.929 . S
H1826 C1830 0.929 . S
H1827 C1836 0.929 . S
C1828 H1822 0.930 . S
C1828 C1829 1.367 . S
C1828 C1836 1.378 . S
C1829 C1828 1.367 . S
C1829 C1837 1.433 . S
C1830 H1826 0.929 . S
C1830 C1832 1.378 . S
C1830 C1834 1.350 . S
C1831 C1834 1.463 . S
C1831 C1836 1.350 . S
C1831 N1839 1.427 . S
C1832 H1823 0.930 . S
C1832 C1830 1.378 . S
C1832 C1833 1.367 . S
C1833 C1832 1.367 . S
C1833 C1835 1.433 . S
C1834 C1830 1.350 . S
C1834 C1831 1.463 . S
C1834 N1838 1.427 . S
C1835 H1825 0.929 . S
C1835 C1833 1.433 . S
C1835 N1838 1.384 . S
C1836 H1827 0.929 . S
C1836 C1828 1.378 . S
C1836 C1831 1.350 . S
C1837 H1824 0.929 . S
C1837 C1829 1.433 . S
C1837 N1839 1.384 . S
N1838 C1834 1.427 . S
N1838 C1835 1.384 . S
N1839 C1831 1.427 . S
N1839 C1837 1.384 . S
H1840 C1846 0.930 . S
H1841 C1850 0.930 . S
H1842 C1855 0.929 . S
H1843 C1853 0.929 . S
H1844 C1848 0.929 . S
H1845 C1854 0.929 . S
C1846 H1840 0.930 . S
C1846 C1847 1.367 . S
C1846 C1854 1.378 . S
C1847 C1846 1.367 . S
C1847 C1855 1.433 . S
C1848 H1844 0.929 . S
C1848 C1850 1.378 . S
C1848 C1852 1.350 . S
C1849 C1852 1.463 . S
C1849 C1854 1.350 . S
C1849 N1857 1.427 . S
C1850 H1841 0.930 . S
C1850 C1848 1.378 . S
C1850 C1851 1.367 . S
C1851 C1850 1.367 . S
C1851 C1853 1.433 . S
C1852 C1848 1.350 . S
C1852 C1849 1.463 . S
C1852 N1856 1.427 . S
C1853 H1843 0.929 . S
C1853 C1851 1.433 . S
C1853 N1856 1.384 . S
C1854 H1845 0.929 . S
C1854 C1846 1.378 . S
C1854 C1849 1.350 . S
C1855 H1842 0.929 . S
C1855 C1847 1.433 . S
C1855 N1857 1.384 . S
N1856 C1852 1.427 . S
N1856 C1853 1.384 . S
N1857 C1849 1.427 . S
N1857 C1855 1.384 . S
H1858 C1864 0.930 . S
H1859 C1868 0.930 . S
H1860 C1873 0.929 . S
H1861 C1871 0.929 . S
H1862 C1866 0.929 . S
H1863 C1872 0.929 . S
C1864 H1858 0.930 . S
C1864 C1865 1.367 . S
C1864 C1872 1.378 . S
C1865 C1864 1.367 . S
C1865 C1873 1.433 . S
C1866 H1862 0.929 . S
C1866 C1868 1.378 . S
C1866 C1870 1.350 . S
C1867 C1870 1.463 . S
C1867 C1872 1.350 . S
C1867 N1875 1.427 . S
C1868 H1859 0.930 . S
C1868 C1866 1.378 . S
C1868 C1869 1.367 . S
C1869 C1868 1.367 . S
C1869 C1871 1.433 . S
C1870 C1866 1.350 . S
C1870 C1867 1.463 . S
C1870 N1874 1.427 . S
C1871 H1861 0.929 . S
C1871 C1869 1.433 . S
C1871 N1874 1.384 . S
C1872 H1863 0.929 . S
C1872 C1864 1.378 . S
C1872 C1867 1.350 . S
C1873 H1860 0.929 . S
C1873 C1865 1.433 . S
C1873 N1875 1.384 . S
N1874 C1870 1.427 . S
N1874 C1871 1.384 . S
N1875 C1867 1.427 . S
N1875 C1873 1.384 . S
H1876 C1882 0.930 . S
H1877 C1886 0.930 . S
H1878 C1891 0.929 . S
H1879 C1889 0.929 . S
H1880 C1884 0.914 1_554 S
H1881 C1890 0.929 . S
C1882 H1876 0.930 . S
C1882 C1883 1.367 . S
C1882 C1890 1.378 . S
C1883 C1882 1.367 . S
C1883 C1891 1.433 . S
C1884 H1880 0.914 1_556 S
C1884 C1886 1.370 1_556 S
C1884 C1888 1.374 . S
C1885 C1888 1.463 . S
C1885 C1890 1.350 . S
C1885 N1893 1.427 . S
C1886 H1877 0.930 . S
C1886 C1884 1.370 1_554 S
C1886 C1887 1.375 . S
C1887 C1886 1.375 . S
C1887 C1889 1.421 1_554 S
C1888 C1884 1.374 . S
C1888 C1885 1.463 . S
C1888 N1892 1.427 . S
C1889 H1879 0.929 . S
C1889 C1887 1.421 1_556 S
C1889 N1892 1.384 . S
C1890 H1881 0.929 . S
C1890 C1882 1.378 . S
C1890 C1885 1.350 . S
C1891 H1878 0.929 . S
C1891 C1883 1.433 . S
C1891 N1893 1.384 . S
N1892 C1888 1.427 . S
N1892 C1889 1.384 . S
N1893 C1885 1.427 . S
N1893 C1891 1.384 . S
H1894 C1900 0.930 . S
H1895 C1904 0.930 . S
H1896 C1909 0.929 . S
H1897 C1907 0.929 . S
H1898 C1902 0.929 . S
H1899 C1908 0.929 . S
C1900 H1894 0.930 . S
C1900 C1901 1.367 . S
C1900 C1908 1.378 1_455 S
C1901 C1900 1.367 . S
C1901 C1909 1.433 . S
C1902 H1898 0.929 . S
C1902 C1904 1.378 . S
C1902 C1906 1.350 . S
C1903 C1906 1.463 . S
C1903 C1908 1.350 . S
C1903 N1911 1.427 . S
C1904 H1895 0.930 . S
C1904 C1902 1.378 . S
C1904 C1905 1.367 . S
C1905 C1904 1.367 . S
C1905 C1907 1.433 . S
C1906 C1902 1.350 . S
C1906 C1903 1.463 . S
C1906 N1910 1.427 . S
C1907 H1897 0.929 . S
C1907 C1905 1.433 . S
C1907 N1910 1.384 . S
C1908 H1899 0.929 . S
C1908 C1900 1.378 1_655 S
C1908 C1903 1.350 . S
C1909 H1896 0.929 . S
C1909 C1901 1.433 . S
C1909 N1911 1.384 1_455 S
N1910 C1906 1.427 . S
N1910 C1907 1.384 . S
N1911 C1903 1.427 . S
N1911 C1909 1.384 1_655 S
H1912 C1918 0.930 . S
H1913 C1922 0.930 . S
H1914 C1927 0.929 . S
H1915 C1925 0.929 . S
H1916 C1920 0.929 . S
H1917 C1926 0.929 . S
C1918 H1912 0.930 . S
C1918 C1919 1.367 . S
C1918 C1926 1.378 . S
C1919 C1918 1.367 . S
C1919 C1927 1.433 . S
C1920 H1916 0.929 . S
C1920 C1922 1.378 . S
C1920 C1924 1.350 . S
C1921 C1924 1.463 . S
C1921 C1926 1.350 . S
C1921 N1929 1.427 . S
C1922 H1913 0.930 . S
C1922 C1920 1.378 . S
C1922 C1923 1.367 . S
C1923 C1922 1.367 . S
C1923 C1925 1.433 . S
C1924 C1920 1.350 . S
C1924 C1921 1.463 . S
C1924 N1928 1.427 . S
C1925 H1915 0.929 . S
C1925 C1923 1.433 . S
C1925 N1928 1.384 . S
C1926 H1917 0.929 . S
C1926 C1918 1.378 . S
C1926 C1921 1.350 . S
C1927 H1914 0.929 . S
C1927 C1919 1.433 . S
C1927 N1929 1.384 . S
N1928 C1924 1.427 . S
N1928 C1925 1.384 . S
N1929 C1921 1.427 . S
N1929 C1927 1.384 . S
H1930 C1936 0.930 . S
H1931 C1940 0.930 . S
H1932 C1945 0.929 . S
H1933 C1943 0.929 . S
H1934 C1938 0.929 . S
H1935 C1944 0.929 . S
C1936 H1930 0.930 . S
C1936 C1937 1.367 . S
C1936 C1944 1.378 . S
C1937 C1936 1.367 . S
C1937 C1945 1.433 . S
C1938 H1934 0.929 . S
C1938 C1940 1.378 . S
C1938 C1942 1.350 . S
C1939 C1942 1.463 1_455 S
C1939 C1944 1.350 . S
C1939 N1947 1.427 . S
C1940 H1931 0.930 . S
C1940 C1938 1.378 . S
C1940 C1941 1.367 . S
C1941 C1940 1.367 . S
C1941 C1943 1.433 . S
C1942 C1938 1.350 . S
C1942 C1939 1.463 1_655 S
C1942 N1946 1.427 . S
C1943 H1933 0.929 . S
C1943 C1941 1.433 . S
C1943 N1946 1.384 . S
C1944 H1935 0.929 . S
C1944 C1936 1.378 . S
C1944 C1939 1.350 . S
C1945 H1932 0.929 . S
C1945 C1937 1.433 . S
C1945 N1947 1.384 . S
N1946 C1942 1.427 . S
N1946 C1943 1.384 . S
N1947 C1939 1.427 . S
N1947 C1945 1.384 . S
H1948 C1954 0.930 . S
H1949 C1958 0.930 . S
H1950 C1963 0.929 . S
H1951 C1961 0.929 . S
H1952 C1956 0.929 . S
H1953 C1962 0.929 . S
C1954 H1948 0.930 . S
C1954 C1955 1.367 . S
C1954 C1962 1.378 . S
C1955 C1954 1.367 . S
C1955 C1963 1.433 1_655 S
C1956 H1952 0.929 . S
C1956 C1958 1.378 . S
C1956 C1960 1.350 . S
C1957 C1960 1.463 . S
C1957 C1962 1.350 1_455 S
C1957 N1965 1.427 . S
C1958 H1949 0.930 . S
C1958 C1956 1.378 . S
C1958 C1959 1.367 . S
C1959 C1958 1.367 . S
C1959 C1961 1.433 . S
C1960 C1956 1.350 . S
C1960 C1957 1.463 . S
C1960 N1964 1.427 . S
C1961 H1951 0.929 . S
C1961 C1959 1.433 . S
C1961 N1964 1.384 . S
C1962 H1953 0.929 . S
C1962 C1954 1.378 . S
C1962 C1957 1.350 1_655 S
C1963 H1950 0.929 . S
C1963 C1955 1.433 1_455 S
C1963 N1965 1.384 . S
N1964 C1960 1.427 . S
N1964 C1961 1.384 . S
N1965 C1957 1.427 . S
N1965 C1963 1.384 . S
H1966 C1972 0.930 . S
H1967 C1976 0.930 . S
H1968 C1981 0.929 . S
H1969 C1979 0.929 . S
H1970 C1974 0.929 . S
H1971 C1980 0.929 . S
C1972 H1966 0.930 . S
C1972 C1973 1.367 . S
C1972 C1980 1.378 . S
C1973 C1972 1.367 . S
C1973 C1981 1.433 . S
C1974 H1970 0.929 . S
C1974 C1976 1.378 . S
C1974 C1978 1.350 . S
C1975 C1978 1.463 . S
C1975 C1980 1.350 . S
C1975 N1983 1.427 . S
C1976 H1967 0.930 . S
C1976 C1974 1.378 . S
C1976 C1977 1.367 . S
C1977 C1976 1.367 . S
C1977 C1979 1.433 . S
C1978 C1974 1.350 . S
C1978 C1975 1.463 . S
C1978 N1982 1.427 . S
C1979 H1969 0.929 . S
C1979 C1977 1.433 . S
C1979 N1982 1.384 . S
C1980 H1971 0.929 . S
C1980 C1972 1.378 . S
C1980 C1975 1.350 . S
C1981 H1968 0.929 . S
C1981 C1973 1.433 . S
C1981 N1983 1.384 . S
N1982 C1978 1.427 . S
N1982 C1979 1.384 . S
N1983 C1975 1.427 . S
N1983 C1981 1.384 . S
H1984 C1990 0.930 . S
H1985 C1994 0.930 . S
H1986 C1999 0.929 . S
H1987 C1997 0.929 . S
H1988 C1992 0.929 . S
H1989 C1998 0.929 . S
C1990 H1984 0.930 . S
C1990 C1991 1.367 . S
C1990 C1998 1.378 . S
C1991 C1990 1.367 . S
C1991 C1999 1.433 . S
C1992 H1988 0.929 . S
C1992 C1994 1.378 . S
C1992 C1996 1.350 . S
C1993 C1996 1.463 . S
C1993 C1998 1.350 . S
C1993 N2001 1.427 . S
C1994 H1985 0.930 . S
C1994 C1992 1.378 . S
C1994 C1995 1.367 . S
C1995 C1994 1.367 . S
C1995 C1997 1.433 . S
C1996 C1992 1.350 . S
C1996 C1993 1.463 . S
C1996 N2000 1.427 . S
C1997 H1987 0.929 . S
C1997 C1995 1.433 . S
C1997 N2000 1.384 . S
C1998 H1989 0.929 . S
C1998 C1990 1.378 . S
C1998 C1993 1.350 . S
C1999 H1986 0.929 . S
C1999 C1991 1.433 . S
C1999 N2001 1.384 . S
N2000 C1996 1.427 . S
N2000 C1997 1.384 . S
N2001 C1993 1.427 . S
N2001 C1999 1.384 . S
H2002 C2008 0.930 . S
H2003 C2012 0.930 . S
H2004 C2017 0.929 . S
H2005 C2015 0.929 . S
H2006 C2010 0.929 . S
H2007 C2016 0.929 . S
C2008 H2002 0.930 . S
C2008 C2009 1.367 . S
C2008 C2016 1.378 . S
C2009 C2008 1.367 . S
C2009 C2017 1.433 . S
C2010 H2006 0.929 . S
C2010 C2012 1.378 . S
C2010 C2014 1.350 . S
C2011 C2014 1.463 . S
C2011 C2016 1.350 . S
C2011 N2019 1.427 . S
C2012 H2003 0.930 . S
C2012 C2010 1.378 . S
C2012 C2013 1.367 . S
C2013 C2012 1.367 . S
C2013 C2015 1.433 . S
C2014 C2010 1.350 . S
C2014 C2011 1.463 . S
C2014 N2018 1.427 . S
C2015 H2005 0.929 . S
C2015 C2013 1.433 . S
C2015 N2018 1.384 . S
C2016 H2007 0.929 . S
C2016 C2008 1.378 . S
C2016 C2011 1.350 . S
C2017 H2004 0.929 . S
C2017 C2009 1.433 . S
C2017 N2019 1.384 . S
N2018 C2014 1.427 . S
N2018 C2015 1.384 . S
N2019 C2011 1.427 . S
N2019 C2017 1.384 . S
H2020 C2026 0.930 . S
H2021 C2030 0.930 . S
H2022 C2035 0.929 . S
H2023 C2033 0.929 . S
H2024 C2028 0.929 . S
H2025 C2034 0.929 . S
C2026 H2020 0.930 . S
C2026 C2027 1.367 . S
C2026 C2034 1.378 . S
C2027 C2026 1.367 . S
C2027 C2035 1.433 . S
C2028 H2024 0.929 . S
C2028 C2030 1.378 . S
C2028 C2032 1.350 . S
C2029 C2032 1.463 . S
C2029 C2034 1.350 . S
C2029 N2037 1.427 . S
C2030 H2021 0.930 . S
C2030 C2028 1.378 . S
C2030 C2031 1.367 . S
C2031 C2030 1.367 . S
C2031 C2033 1.433 . S
C2032 C2028 1.350 . S
C2032 C2029 1.463 . S
C2032 N2036 1.427 . S
C2033 H2023 0.929 . S
C2033 C2031 1.433 . S
C2033 N2036 1.384 . S
C2034 H2025 0.929 . S
C2034 C2026 1.378 . S
C2034 C2029 1.350 . S
C2035 H2022 0.929 . S
C2035 C2027 1.433 . S
C2035 N2037 1.384 . S
N2036 C2032 1.427 . S
N2036 C2033 1.384 . S
N2037 C2029 1.427 . S
N2037 C2035 1.384 . S
H2038 C2044 0.930 . S
H2039 C2048 0.930 . S
H2040 C2053 0.929 . S
H2041 C2051 0.929 . S
H2042 C2046 0.929 . S
H2043 C2052 0.929 . S
C2044 H2038 0.930 . S
C2044 C2045 1.367 . S
C2044 C2052 1.378 . S
C2045 C2044 1.367 . S
C2045 C2053 1.433 . S
C2046 H2042 0.929 . S
C2046 C2048 1.378 . S
C2046 C2050 1.350 . S
C2047 C2050 1.463 . S
C2047 C2052 1.350 . S
C2047 N2055 1.427 . S
C2048 H2039 0.930 . S
C2048 C2046 1.378 . S
C2048 C2049 1.367 . S
C2049 C2048 1.367 . S
C2049 C2051 1.433 . S
C2050 C2046 1.350 . S
C2050 C2047 1.463 . S
C2050 N2054 1.427 . S
C2051 H2041 0.929 . S
C2051 C2049 1.433 . S
C2051 N2054 1.384 . S
C2052 H2043 0.929 . S
C2052 C2044 1.378 . S
C2052 C2047 1.350 . S
C2053 H2040 0.929 . S
C2053 C2045 1.433 . S
C2053 N2055 1.384 . S
N2054 C2050 1.427 . S
N2054 C2051 1.384 . S
N2055 C2047 1.427 . S
N2055 C2053 1.384 . S
H2056 C2062 0.930 . S
H2057 C2066 0.930 . S
H2058 C2071 0.929 . S
H2059 C2069 0.929 . S
H2060 C2064 0.929 . S
H2061 C2070 0.929 . S
C2062 H2056 0.930 . S
C2062 C2063 1.367 . S
C2062 C2070 1.378 . S
C2063 C2062 1.367 . S
C2063 C2071 1.433 . S
C2064 H2060 0.929 . S
C2064 C2066 1.378 . S
C2064 C2068 1.350 . S
C2065 C2068 1.463 . S
C2065 C2070 1.350 . S
C2065 N2073 1.427 . S
C2066 H2057 0.930 . S
C2066 C2064 1.378 . S
C2066 C2067 1.367 . S
C2067 C2066 1.367 . S
C2067 C2069 1.433 . S
C2068 C2064 1.350 . S
C2068 C2065 1.463 . S
C2068 N2072 1.427 . S
C2069 H2059 0.929 . S
C2069 C2067 1.433 . S
C2069 N2072 1.384 . S
C2070 H2061 0.929 . S
C2070 C2062 1.378 . S
C2070 C2065 1.350 . S
C2071 H2058 0.929 . S
C2071 C2063 1.433 . S
C2071 N2073 1.384 . S
N2072 C2068 1.427 . S
N2072 C2069 1.384 . S
N2073 C2065 1.427 . S
N2073 C2071 1.384 . S
H2074 C2080 0.930 . S
H2075 C2084 0.930 . S
H2076 C2089 0.929 . S
H2077 C2087 0.929 . S
H2078 C2082 0.929 . S
H2079 C2088 0.929 . S
C2080 H2074 0.930 . S
C2080 C2081 1.367 . S
C2080 C2088 1.378 . S
C2081 C2080 1.367 . S
C2081 C2089 1.433 . S
C2082 H2078 0.929 . S
C2082 C2084 1.378 . S
C2082 C2086 1.350 . S
C2083 C2086 1.463 . S
C2083 C2088 1.350 . S
C2083 N2091 1.427 . S
C2084 H2075 0.930 . S
C2084 C2082 1.378 . S
C2084 C2085 1.367 . S
C2085 C2084 1.367 . S
C2085 C2087 1.433 . S
C2086 C2082 1.350 . S
C2086 C2083 1.463 . S
C2086 N2090 1.427 . S
C2087 H2077 0.929 . S
C2087 C2085 1.433 . S
C2087 N2090 1.384 . S
C2088 H2079 0.929 . S
C2088 C2080 1.378 . S
C2088 C2083 1.350 . S
C2089 H2076 0.929 . S
C2089 C2081 1.433 . S
C2089 N2091 1.384 . S
N2090 C2086 1.427 . S
N2090 C2087 1.384 . S
N2091 C2083 1.427 . S
N2091 C2089 1.384 . S
H2092 C2098 0.930 . S
H2093 C2102 0.930 . S
H2094 C2107 0.929 . S
H2095 C2105 0.929 . S
H2096 C2100 0.929 . S
H2097 C2106 0.929 . S
C2098 H2092 0.930 . S
C2098 C2099 1.367 . S
C2098 C2106 1.378 . S
C2099 C2098 1.367 . S
C2099 C2107 1.433 . S
C2100 H2096 0.929 . S
C2100 C2102 1.378 . S
C2100 C2104 1.350 . S
C2101 C2104 1.463 . S
C2101 C2106 1.350 . S
C2101 N2109 1.427 . S
C2102 H2093 0.930 . S
C2102 C2100 1.378 . S
C2102 C2103 1.367 . S
C2103 C2102 1.367 . S
C2103 C2105 1.433 . S
C2104 C2100 1.350 . S
C2104 C2101 1.463 . S
C2104 N2108 1.427 . S
C2105 H2095 0.929 . S
C2105 C2103 1.433 . S
C2105 N2108 1.384 . S
C2106 H2097 0.929 . S
C2106 C2098 1.378 . S
C2106 C2101 1.350 . S
C2107 H2094 0.929 . S
C2107 C2099 1.433 . S
C2107 N2109 1.384 . S
N2108 C2104 1.427 . S
N2108 C2105 1.384 . S
N2109 C2101 1.427 . S
N2109 C2107 1.384 . S
H2110 C2116 0.930 . S
H2111 C2120 0.930 . S
H2112 C2125 0.929 . S
H2113 C2123 0.929 . S
H2114 C2118 0.929 . S
H2115 C2124 0.929 . S
C2116 H2110 0.930 . S
C2116 C2117 1.367 . S
C2116 C2124 1.378 . S
C2117 C2116 1.367 . S
C2117 C2125 1.433 . S
C2118 H2114 0.929 . S
C2118 C2120 1.378 . S
C2118 C2122 1.350 . S
C2119 C2122 1.463 . S
C2119 C2124 1.350 . S
C2119 N2127 1.427 . S
C2120 H2111 0.930 . S
C2120 C2118 1.378 . S
C2120 C2121 1.367 . S
C2121 C2120 1.367 . S
C2121 C2123 1.433 . S
C2122 C2118 1.350 . S
C2122 C2119 1.463 . S
C2122 N2126 1.427 . S
C2123 H2113 0.929 . S
C2123 C2121 1.433 . S
C2123 N2126 1.384 . S
C2124 H2115 0.929 . S
C2124 C2116 1.378 . S
C2124 C2119 1.350 . S
C2125 H2112 0.929 . S
C2125 C2117 1.433 . S
C2125 N2127 1.384 . S
N2126 C2122 1.427 . S
N2126 C2123 1.384 . S
N2127 C2119 1.427 . S
N2127 C2125 1.384 . S
H2128 C2134 0.930 . S
H2129 C2138 0.930 . S
H2130 C2143 0.929 . S
H2131 C2141 0.929 . S
H2132 C2136 0.929 . S
H2133 C2142 0.929 . S
C2134 H2128 0.930 . S
C2134 C2135 1.367 . S
C2134 C2142 1.378 . S
C2135 C2134 1.367 . S
C2135 C2143 1.433 . S
C2136 H2132 0.929 . S
C2136 C2138 1.378 . S
C2136 C2140 1.350 . S
C2137 C2140 1.463 . S
C2137 C2142 1.350 . S
C2137 N2145 1.427 . S
C2138 H2129 0.930 . S
C2138 C2136 1.378 . S
C2138 C2139 1.367 . S
C2139 C2138 1.367 . S
C2139 C2141 1.433 . S
C2140 C2136 1.350 . S
C2140 C2137 1.463 . S
C2140 N2144 1.427 . S
C2141 H2131 0.929 . S
C2141 C2139 1.433 . S
C2141 N2144 1.384 . S
C2142 H2133 0.929 . S
C2142 C2134 1.378 . S
C2142 C2137 1.350 . S
C2143 H2130 0.929 . S
C2143 C2135 1.433 . S
C2143 N2145 1.384 . S
N2144 C2140 1.427 . S
N2144 C2141 1.384 . S
N2145 C2137 1.427 . S
N2145 C2143 1.384 . S
H2146 C2152 0.930 . S
H2147 C2156 0.930 . S
H2148 C2161 0.929 . S
H2149 C2159 0.929 . S
H2150 C2154 0.929 . S
H2151 C2160 0.929 . S
C2152 H2146 0.930 . S
C2152 C2153 1.367 . S
C2152 C2160 1.378 . S
C2153 C2152 1.367 . S
C2153 C2161 1.433 . S
C2154 H2150 0.929 . S
C2154 C2156 1.378 . S
C2154 C2158 1.350 . S
C2155 C2158 1.463 . S
C2155 C2160 1.350 . S
C2155 N2163 1.427 . S
C2156 H2147 0.930 . S
C2156 C2154 1.378 . S
C2156 C2157 1.367 . S
C2157 C2156 1.367 . S
C2157 C2159 1.433 . S
C2158 C2154 1.350 . S
C2158 C2155 1.463 . S
C2158 N2162 1.427 . S
C2159 H2149 0.929 . S
C2159 C2157 1.433 . S
C2159 N2162 1.384 . S
C2160 H2151 0.929 . S
C2160 C2152 1.378 . S
C2160 C2155 1.350 . S
C2161 H2148 0.929 . S
C2161 C2153 1.433 . S
C2161 N2163 1.384 . S
N2162 C2158 1.427 . S
N2162 C2159 1.384 . S
N2163 C2155 1.427 . S
N2163 C2161 1.384 . S
H2164 C2170 0.930 . S
H2165 C2174 0.930 . S
H2166 C2179 0.929 . S
H2167 C2177 0.929 . S
H2168 C2172 0.929 . S
H2169 C2178 0.929 . S
C2170 H2164 0.930 . S
C2170 C2171 1.367 . S
C2170 C2178 1.378 . S
C2171 C2170 1.367 . S
C2171 C2179 1.433 . S
C2172 H2168 0.929 . S
C2172 C2174 1.378 . S
C2172 C2176 1.350 . S
C2173 C2176 1.463 . S
C2173 C2178 1.350 . S
C2173 N2181 1.427 . S
C2174 H2165 0.930 . S
C2174 C2172 1.378 . S
C2174 C2175 1.367 . S
C2175 C2174 1.367 . S
C2175 C2177 1.433 . S
C2176 C2172 1.350 . S
C2176 C2173 1.463 . S
C2176 N2180 1.427 . S
C2177 H2167 0.929 . S
C2177 C2175 1.433 . S
C2177 N2180 1.384 . S
C2178 H2169 0.929 . S
C2178 C2170 1.378 . S
C2178 C2173 1.350 . S
C2179 H2166 0.929 . S
C2179 C2171 1.433 . S
C2179 N2181 1.384 . S
N2180 C2176 1.427 . S
N2180 C2177 1.384 . S
N2181 C2173 1.427 . S
N2181 C2179 1.384 . S
H2182 C2188 0.930 . S
H2183 C2192 0.930 . S
H2184 C2197 0.929 . S
H2185 C2195 0.929 . S
H2186 C2190 0.929 . S
H2187 C2196 0.929 . S
C2188 H2182 0.930 . S
C2188 C2189 1.367 . S
C2188 C2196 1.378 . S
C2189 C2188 1.367 . S
C2189 C2197 1.433 . S
C2190 H2186 0.929 . S
C2190 C2192 1.378 . S
C2190 C2194 1.350 1_545 S
C2191 C2194 1.463 . S
C2191 C2196 1.350 . S
C2191 N2199 1.427 . S
C2192 H2183 0.930 . S
C2192 C2190 1.378 . S
C2192 C2193 1.367 . S
C2193 C2192 1.367 . S
C2193 C2195 1.433 1_545 S
C2194 C2190 1.350 1_565 S
C2194 C2191 1.463 . S
C2194 N2198 1.427 . S
C2195 H2185 0.929 . S
C2195 C2193 1.433 1_565 S
C2195 N2198 1.384 . S
C2196 H2187 0.929 . S
C2196 C2188 1.378 . S
C2196 C2191 1.350 . S
C2197 H2184 0.929 . S
C2197 C2189 1.433 . S
C2197 N2199 1.384 . S
N2198 C2194 1.427 . S
N2198 C2195 1.384 . S
N2199 C2191 1.427 . S
N2199 C2197 1.384 . S
H2200 C2206 0.930 . S
H2201 C2210 0.930 . S
H2202 C2215 0.929 . S
H2203 C2213 0.929 . S
H2204 C2208 0.929 . S
H2205 C2214 0.929 . S
C2206 H2200 0.930 . S
C2206 C2207 1.367 . S
C2206 C2214 1.378 . S
C2207 C2206 1.367 . S
C2207 C2215 1.433 . S
C2208 H2204 0.929 . S
C2208 C2210 1.378 . S
C2208 C2212 1.350 . S
C2209 C2212 1.463 . S
C2209 C2214 1.350 . S
C2209 N2217 1.427 . S
C2210 H2201 0.930 . S
C2210 C2208 1.378 . S
C2210 C2211 1.367 . S
C2211 C2210 1.367 . S
C2211 C2213 1.433 . S
C2212 C2208 1.350 . S
C2212 C2209 1.463 . S
C2212 N2216 1.427 . S
C2213 H2203 0.929 . S
C2213 C2211 1.433 . S
C2213 N2216 1.384 . S
C2214 H2205 0.929 . S
C2214 C2206 1.378 . S
C2214 C2209 1.350 . S
C2215 H2202 0.929 . S
C2215 C2207 1.433 . S
C2215 N2217 1.384 . S
N2216 C2212 1.427 . S
N2216 C2213 1.384 . S
N2217 C2209 1.427 . S
N2217 C2215 1.384 . S
H2218 C2224 0.930 . S
H2219 C2228 0.930 . S
H2220 C2233 0.929 . S
H2221 C2231 0.929 . S
H2222 C2226 0.929 . S
H2223 C2232 0.929 . S
C2224 H2218 0.930 . S
C2224 C2225 1.367 . S
C2224 C2232 1.378 . S
C2225 C2224 1.367 . S
C2225 C2233 1.433 . S
C2226 H2222 0.929 . S
C2226 C2228 1.378 . S
C2226 C2230 1.350 . S
C2227 C2230 1.463 . S
C2227 C2232 1.350 . S
C2227 N2235 1.427 . S
C2228 H2219 0.930 . S
C2228 C2226 1.378 . S
C2228 C2229 1.367 . S
C2229 C2228 1.367 . S
C2229 C2231 1.433 . S
C2230 C2226 1.350 . S
C2230 C2227 1.463 . S
C2230 N2234 1.427 . S
C2231 H2221 0.929 . S
C2231 C2229 1.433 . S
C2231 N2234 1.384 . S
C2232 H2223 0.929 . S
C2232 C2224 1.378 . S
C2232 C2227 1.350 . S
C2233 H2220 0.929 . S
C2233 C2225 1.433 . S
C2233 N2235 1.384 . S
N2234 C2230 1.427 . S
N2234 C2231 1.384 . S
N2235 C2227 1.427 . S
N2235 C2233 1.384 . S
H2236 C2242 0.930 . S
H2237 C2246 0.930 . S
H2238 C2251 0.929 . S
H2239 C2249 0.929 . S
H2240 C2244 0.929 . S
H2241 C2250 0.929 . S
C2242 H2236 0.930 . S
C2242 C2243 1.367 . S
C2242 C2250 1.378 . S
C2243 C2242 1.367 . S
C2243 C2251 1.433 . S
C2244 H2240 0.929 . S
C2244 C2246 1.378 . S
C2244 C2248 1.350 . S
C2245 C2248 1.463 . S
C2245 C2250 1.350 . S
C2245 N2253 1.427 . S
C2246 H2237 0.930 . S
C2246 C2244 1.378 . S
C2246 C2247 1.367 . S
C2247 C2246 1.367 . S
C2247 C2249 1.433 . S
C2248 C2244 1.350 . S
C2248 C2245 1.463 . S
C2248 N2252 1.427 . S
C2249 H2239 0.929 . S
C2249 C2247 1.433 . S
C2249 N2252 1.384 . S
C2250 H2241 0.929 . S
C2250 C2242 1.378 . S
C2250 C2245 1.350 . S
C2251 H2238 0.929 . S
C2251 C2243 1.433 . S
C2251 N2253 1.384 . S
N2252 C2248 1.427 . S
N2252 C2249 1.384 . S
N2253 C2245 1.427 . S
N2253 C2251 1.384 . S
H2254 C2260 0.930 . S
H2255 C2264 0.930 . S
H2256 C2269 0.929 . S
H2257 C2267 0.929 . S
H2258 C2262 0.929 . S
H2259 C2268 0.929 . S
C2260 H2254 0.930 . S
C2260 C2261 1.367 . S
C2260 C2268 1.378 . S
C2261 C2260 1.367 . S
C2261 C2269 1.433 . S
C2262 H2258 0.929 . S
C2262 C2264 1.378 . S
C2262 C2266 1.350 . S
C2263 C2266 1.463 . S
C2263 C2268 1.350 . S
C2263 N2271 1.427 . S
C2264 H2255 0.930 . S
C2264 C2262 1.378 . S
C2264 C2265 1.367 . S
C2265 C2264 1.367 . S
C2265 C2267 1.433 . S
C2266 C2262 1.350 . S
C2266 C2263 1.463 . S
C2266 N2270 1.427 . S
C2267 H2257 0.929 . S
C2267 C2265 1.433 . S
C2267 N2270 1.384 . S
C2268 H2259 0.929 . S
C2268 C2260 1.378 . S
C2268 C2263 1.350 . S
C2269 H2256 0.929 . S
C2269 C2261 1.433 . S
C2269 N2271 1.384 . S
N2270 C2266 1.427 . S
N2270 C2267 1.384 . S
N2271 C2263 1.427 . S
N2271 C2269 1.384 . S
H2272 C2278 0.930 . S
H2273 C2282 0.930 . S
H2274 C2287 0.929 . S
H2275 C2285 0.929 . S
H2276 C2280 0.929 . S
H2277 C2286 0.929 . S
C2278 H2272 0.930 . S
C2278 C2279 1.367 . S
C2278 C2286 1.378 . S
C2279 C2278 1.367 . S
C2279 C2287 1.433 . S
C2280 H2276 0.929 . S
C2280 C2282 1.378 . S
C2280 C2284 1.350 . S
C2281 C2284 1.463 . S
C2281 C2286 1.350 . S
C2281 N2289 1.427 . S
C2282 H2273 0.930 . S
C2282 C2280 1.378 . S
C2282 C2283 1.367 . S
C2283 C2282 1.367 . S
C2283 C2285 1.433 . S
C2284 C2280 1.350 . S
C2284 C2281 1.463 . S
C2284 N2288 1.427 . S
C2285 H2275 0.929 . S
C2285 C2283 1.433 . S
C2285 N2288 1.384 . S
C2286 H2277 0.929 . S
C2286 C2278 1.378 . S
C2286 C2281 1.350 . S
C2287 H2274 0.929 . S
C2287 C2279 1.433 . S
C2287 N2289 1.384 . S
N2288 C2284 1.427 . S
N2288 C2285 1.384 . S
N2289 C2281 1.427 . S
N2289 C2287 1.384 . S
H2290 C2296 0.930 . S
H2291 C2300 0.930 . S
H2292 C2305 0.929 . S
H2293 C2303 0.929 . S
H2294 C2298 0.929 . S
H2295 C2304 0.929 . S
C2296 H2290 0.930 . S
C2296 C2297 1.367 . S
C2296 C2304 1.378 . S
C2297 C2296 1.367 . S
C2297 C2305 1.433 . S
C2298 H2294 0.929 . S
C2298 C2300 1.378 . S
C2298 C2302 1.350 . S
C2299 C2302 1.463 . S
C2299 C2304 1.350 . S
C2299 N2307 1.427 . S
C2300 H2291 0.930 . S
C2300 C2298 1.378 . S
C2300 C2301 1.367 . S
C2301 C2300 1.367 . S
C2301 C2303 1.433 . S
C2302 C2298 1.350 . S
C2302 C2299 1.463 . S
C2302 N2306 1.427 . S
C2303 H2293 0.929 . S
C2303 C2301 1.433 . S
C2303 N2306 1.384 . S
C2304 H2295 0.929 . S
C2304 C2296 1.378 . S
C2304 C2299 1.350 . S
C2305 H2292 0.929 . S
C2305 C2297 1.433 . S
C2305 N2307 1.384 . S
N2306 C2302 1.427 . S
N2306 C2303 1.384 . S
N2307 C2299 1.427 . S
N2307 C2305 1.384 . S
H2308 C2314 0.930 . S
H2309 C2318 0.930 1_556 S
H2310 C2323 0.929 . S
H2311 C2321 0.929 . S
H2312 C2316 0.929 . S
H2313 C2322 0.929 . S
C2314 H2308 0.930 . S
C2314 C2315 1.367 . S
C2314 C2322 1.378 . S
C2315 C2314 1.367 . S
C2315 C2323 1.433 . S
C2316 H2312 0.929 . S
C2316 C2318 1.378 . S
C2316 C2320 1.350 . S
C2317 C2320 1.463 . S
C2317 C2322 1.350 . S
C2317 N2325 1.427 . S
C2318 H2309 0.930 1_554 S
C2318 C2316 1.378 . S
C2318 C2319 1.367 . S
C2319 C2318 1.367 . S
C2319 C2321 1.433 . S
C2320 C2316 1.350 . S
C2320 C2317 1.463 . S
C2320 N2324 1.427 . S
C2321 H2311 0.929 . S
C2321 C2319 1.433 . S
C2321 N2324 1.384 . S
C2322 H2313 0.929 . S
C2322 C2314 1.378 . S
C2322 C2317 1.350 . S
C2323 H2310 0.929 . S
C2323 C2315 1.433 . S
C2323 N2325 1.384 . S
N2324 C2320 1.427 . S
N2324 C2321 1.384 . S
N2325 C2317 1.427 . S
N2325 C2323 1.384 . S
H2326 C2332 0.930 . S
H2327 C2336 0.930 . S
H2328 C2341 0.929 . S
H2329 C2339 0.929 . S
H2330 C2334 0.929 . S
H2331 C2340 0.929 . S
C2332 H2326 0.930 . S
C2332 C2333 1.367 . S
C2332 C2340 1.378 . S
C2333 C2332 1.367 . S
C2333 C2341 1.433 . S
C2334 H2330 0.929 . S
C2334 C2336 1.378 . S
C2334 C2338 1.350 . S
C2335 C2338 1.463 . S
C2335 C2340 1.350 . S
C2335 N2343 1.427 . S
C2336 H2327 0.930 . S
C2336 C2334 1.378 . S
C2336 C2337 1.367 . S
C2337 C2336 1.367 . S
C2337 C2339 1.433 . S
C2338 C2334 1.350 . S
C2338 C2335 1.463 . S
C2338 N2342 1.427 . S
C2339 H2329 0.929 . S
C2339 C2337 1.433 . S
C2339 N2342 1.384 . S
C2340 H2331 0.929 . S
C2340 C2332 1.378 . S
C2340 C2335 1.350 . S
C2341 H2328 0.929 . S
C2341 C2333 1.433 . S
C2341 N2343 1.384 . S
N2342 C2338 1.427 . S
N2342 C2339 1.384 . S
N2343 C2335 1.427 . S
N2343 C2341 1.384 . S
H2344 C2350 0.930 . S
H2345 C2354 0.930 . S
H2346 C2359 0.929 . S
H2347 C2357 0.929 . S
H2348 C2352 0.929 . S
H2349 C2358 0.929 . S
C2350 H2344 0.930 . S
C2350 C2351 1.367 . S
C2350 C2358 1.378 . S
C2351 C2350 1.367 . S
C2351 C2359 1.433 . S
C2352 H2348 0.929 . S
C2352 C2354 1.378 . S
C2352 C2356 1.350 . S
C2353 C2356 1.463 . S
C2353 C2358 1.350 . S
C2353 N2361 1.427 . S
C2354 H2345 0.930 . S
C2354 C2352 1.378 . S
C2354 C2355 1.367 . S
C2355 C2354 1.367 . S
C2355 C2357 1.433 . S
C2356 C2352 1.350 . S
C2356 C2353 1.463 . S
C2356 N2360 1.427 . S
C2357 H2347 0.929 . S
C2357 C2355 1.433 . S
C2357 N2360 1.384 . S
C2358 H2349 0.929 . S
C2358 C2350 1.378 . S
C2358 C2353 1.350 . S
C2359 H2346 0.929 . S
C2359 C2351 1.433 . S
C2359 N2361 1.384 . S
N2360 C2356 1.427 . S
N2360 C2357 1.384 . S
N2361 C2353 1.427 . S
N2361 C2359 1.384 . S
H2362 C2368 0.930 . S
H2363 C2372 0.930 . S
H2364 C2377 0.929 . S
H2365 C2375 0.929 . S
H2366 C2370 0.929 . S
H2367 C2376 0.929 . S
C2368 H2362 0.930 . S
C2368 C2369 1.367 . S
C2368 C2376 1.378 . S
C2369 C2368 1.367 . S
C2369 C2377 1.433 . S
C2370 H2366 0.929 . S
C2370 C2372 1.378 . S
C2370 C2374 1.350 . S
C2371 C2374 1.463 . S
C2371 C2376 1.350 . S
C2371 N2379 1.427 . S
C2372 H2363 0.930 . S
C2372 C2370 1.378 . S
C2372 C2373 1.367 . S
C2373 C2372 1.367 . S
C2373 C2375 1.433 . S
C2374 C2370 1.350 . S
C2374 C2371 1.463 . S
C2374 N2378 1.427 . S
C2375 H2365 0.929 . S
C2375 C2373 1.433 . S
C2375 N2378 1.384 . S
C2376 H2367 0.929 . S
C2376 C2368 1.378 . S
C2376 C2371 1.350 . S
C2377 H2364 0.929 . S
C2377 C2369 1.433 . S
C2377 N2379 1.384 . S
N2378 C2374 1.427 . S
N2378 C2375 1.384 . S
N2379 C2371 1.427 . S
N2379 C2377 1.384 . S
H2380 C2386 0.930 . S
H2381 C2390 0.930 . S
H2382 C2395 0.929 . S
H2383 C2393 0.929 . S
H2384 C2388 0.929 . S
H2385 C2394 0.929 . S
C2386 H2380 0.930 . S
C2386 C2387 1.367 . S
C2386 C2394 1.378 . S
C2387 C2386 1.367 . S
C2387 C2395 1.433 . S
C2388 H2384 0.929 . S
C2388 C2390 1.378 . S
C2388 C2392 1.350 . S
C2389 C2392 1.463 . S
C2389 C2394 1.350 . S
C2389 N2397 1.427 . S
C2390 H2381 0.930 . S
C2390 C2388 1.378 . S
C2390 C2391 1.367 . S
C2391 C2390 1.367 . S
C2391 C2393 1.433 . S
C2392 C2388 1.350 . S
C2392 C2389 1.463 . S
C2392 N2396 1.427 . S
C2393 H2383 0.929 . S
C2393 C2391 1.433 . S
C2393 N2396 1.384 . S
C2394 H2385 0.929 . S
C2394 C2386 1.378 . S
C2394 C2389 1.350 . S
C2395 H2382 0.929 . S
C2395 C2387 1.433 . S
C2395 N2397 1.384 . S
N2396 C2392 1.427 . S
N2396 C2393 1.384 . S
N2397 C2389 1.427 . S
N2397 C2395 1.384 . S
H2398 C2404 0.930 . S
H2399 C2408 0.930 . S
H2400 C2413 0.929 . S
H2401 C2411 0.929 . S
H2402 C2406 0.929 . S
H2403 C2412 0.929 . S
C2404 H2398 0.930 . S
C2404 C2405 1.367 . S
C2404 C2412 1.378 . S
C2405 C2404 1.367 . S
C2405 C2413 1.433 . S
C2406 H2402 0.929 . S
C2406 C2408 1.378 . S
C2406 C2410 1.350 . S
C2407 C2410 1.463 . S
C2407 C2412 1.350 . S
C2407 N2415 1.427 . S
C2408 H2399 0.930 . S
C2408 C2406 1.378 . S
C2408 C2409 1.367 . S
C2409 C2408 1.367 . S
C2409 C2411 1.433 . S
C2410 C2406 1.350 . S
C2410 C2407 1.463 . S
C2410 N2414 1.427 . S
C2411 H2401 0.929 . S
C2411 C2409 1.433 . S
C2411 N2414 1.384 . S
C2412 H2403 0.929 . S
C2412 C2404 1.378 . S
C2412 C2407 1.350 . S
C2413 H2400 0.929 . S
C2413 C2405 1.433 . S
C2413 N2415 1.384 . S
N2414 C2410 1.427 . S
N2414 C2411 1.384 . S
N2415 C2407 1.427 . S
N2415 C2413 1.384 . S
H2416 C2422 0.930 . S
H2417 C2426 0.930 . S
H2418 C2431 0.929 . S
H2419 C2429 0.929 . S
H2420 C2424 0.929 . S
H2421 C2430 0.929 . S
C2422 H2416 0.930 . S
C2422 C2423 1.367 . S
C2422 C2430 1.378 . S
C2423 C2422 1.367 . S
C2423 C2431 1.433 . S
C2424 H2420 0.929 . S
C2424 C2426 1.378 . S
C2424 C2428 1.350 . S
C2425 C2428 1.463 . S
C2425 C2430 1.350 . S
C2425 N2433 1.427 . S
C2426 H2417 0.930 . S
C2426 C2424 1.378 . S
C2426 C2427 1.367 . S
C2427 C2426 1.367 . S
C2427 C2429 1.433 . S
C2428 C2424 1.350 . S
C2428 C2425 1.463 . S
C2428 N2432 1.427 . S
C2429 H2419 0.929 . S
C2429 C2427 1.433 . S
C2429 N2432 1.384 . S
C2430 H2421 0.929 . S
C2430 C2422 1.378 . S
C2430 C2425 1.350 . S
C2431 H2418 0.929 . S
C2431 C2423 1.433 . S
C2431 N2433 1.384 . S
N2432 C2428 1.427 . S
N2432 C2429 1.384 . S
N2433 C2425 1.427 . S
N2433 C2431 1.384 . S
H2434 C2440 0.930 . S
H2435 C2444 0.930 . S
H2436 C2449 0.929 . S
H2437 C2447 0.929 . S
H2438 C2442 0.929 . S
H2439 C2448 0.929 . S
C2440 H2434 0.930 . S
C2440 C2441 1.367 . S
C2440 C2448 1.378 . S
C2441 C2440 1.367 . S
C2441 C2449 1.433 . S
C2442 H2438 0.929 . S
C2442 C2444 1.378 . S
C2442 C2446 1.350 . S
C2443 C2446 1.463 . S
C2443 C2448 1.350 . S
C2443 N2451 1.427 . S
C2444 H2435 0.930 . S
C2444 C2442 1.378 . S
C2444 C2445 1.367 . S
C2445 C2444 1.367 . S
C2445 C2447 1.433 . S
C2446 C2442 1.350 . S
C2446 C2443 1.463 . S
C2446 N2450 1.427 . S
C2447 H2437 0.929 . S
C2447 C2445 1.433 . S
C2447 N2450 1.384 . S
C2448 H2439 0.929 . S
C2448 C2440 1.378 . S
C2448 C2443 1.350 . S
C2449 H2436 0.929 . S
C2449 C2441 1.433 . S
C2449 N2451 1.384 . S
N2450 C2446 1.427 . S
N2450 C2447 1.384 . S
N2451 C2443 1.427 . S
N2451 C2449 1.384 . S
H2452 C2458 0.930 . S
H2453 C2462 0.930 . S
H2454 C2467 0.929 . S
H2455 C2465 0.929 . S
H2456 C2460 0.929 . S
H2457 C2466 0.929 . S
C2458 H2452 0.930 . S
C2458 C2459 1.367 . S
C2458 C2466 1.378 . S
C2459 C2458 1.367 . S
C2459 C2467 1.433 . S
C2460 H2456 0.929 . S
C2460 C2462 1.378 . S
C2460 C2464 1.357 . S
C2461 C2464 1.459 1_655 S
C2461 C2466 1.350 . S
C2461 N2469 1.427 . S
C2462 H2453 0.930 . S
C2462 C2460 1.378 . S
C2462 C2463 1.367 . S
C2463 C2462 1.367 . S
C2463 C2465 1.433 . S
C2464 C2460 1.357 . S
C2464 C2461 1.459 1_455 S
C2464 N2468 1.423 1_455 S
C2465 H2455 0.929 . S
C2465 C2463 1.433 . S
C2465 N2468 1.384 1_455 S
C2466 H2457 0.929 . S
C2466 C2458 1.378 . S
C2466 C2461 1.350 . S
C2467 H2454 0.929 . S
C2467 C2459 1.433 . S
C2467 N2469 1.384 . S
N2468 C2464 1.423 1_655 S
N2468 C2465 1.384 1_655 S
N2469 C2461 1.427 . S
N2469 C2467 1.384 . S
H2470 C2476 0.930 . S
H2471 C2480 0.930 . S
H2472 C2485 0.929 . S
H2473 C2483 0.929 . S
H2474 C2478 0.929 . S
H2475 C2484 0.929 . S
C2476 H2470 0.930 . S
C2476 C2477 1.367 . S
C2476 C2484 1.378 . S
C2477 C2476 1.367 . S
C2477 C2485 1.433 . S
C2478 H2474 0.929 . S
C2478 C2480 1.378 . S
C2478 C2482 1.350 . S
C2479 C2482 1.463 . S
C2479 C2484 1.350 . S
C2479 N2487 1.427 . S
C2480 H2471 0.930 . S
C2480 C2478 1.378 . S
C2480 C2481 1.367 . S
C2481 C2480 1.367 . S
C2481 C2483 1.433 . S
C2482 C2478 1.350 . S
C2482 C2479 1.463 . S
C2482 N2486 1.427 . S
C2483 H2473 0.929 . S
C2483 C2481 1.433 . S
C2483 N2486 1.384 . S
C2484 H2475 0.929 . S
C2484 C2476 1.378 . S
C2484 C2479 1.350 . S
C2485 H2472 0.929 . S
C2485 C2477 1.433 . S
C2485 N2487 1.384 . S
N2486 C2482 1.427 . S
N2486 C2483 1.384 . S
N2487 C2479 1.427 . S
N2487 C2485 1.384 . S
H2488 C2494 0.930 . S
H2489 C2498 0.930 . S
H2490 C2503 0.929 . S
H2491 C2501 0.929 . S
H2492 C2496 0.929 . S
H2493 C2502 0.929 . S
C2494 H2488 0.930 . S
C2494 C2495 1.367 . S
C2494 C2502 1.378 . S
C2495 C2494 1.367 . S
C2495 C2503 1.433 . S
C2496 H2492 0.929 . S
C2496 C2498 1.378 . S
C2496 C2500 1.350 . S
C2497 C2500 1.463 . S
C2497 C2502 1.350 . S
C2497 N2505 1.427 . S
C2498 H2489 0.930 . S
C2498 C2496 1.378 . S
C2498 C2499 1.367 . S
C2499 C2498 1.367 . S
C2499 C2501 1.433 . S
C2500 C2496 1.350 . S
C2500 C2497 1.463 . S
C2500 N2504 1.427 . S
C2501 H2491 0.929 . S
C2501 C2499 1.433 . S
C2501 N2504 1.384 . S
C2502 H2493 0.929 . S
C2502 C2494 1.378 . S
C2502 C2497 1.350 . S
C2503 H2490 0.929 . S
C2503 C2495 1.433 . S
C2503 N2505 1.384 . S
N2504 C2500 1.427 . S
N2504 C2501 1.384 . S
N2505 C2497 1.427 . S
N2505 C2503 1.384 . S
H2506 C2512 0.930 . S
H2507 C2516 0.930 . S
H2508 C2521 0.929 . S
H2509 C2519 0.929 . S
H2510 C2514 0.929 . S
H2511 C2520 0.929 . S
C2512 H2506 0.930 . S
C2512 C2513 1.367 . S
C2512 C2520 1.378 . S
C2513 C2512 1.367 . S
C2513 C2521 1.433 . S
C2514 H2510 0.929 . S
C2514 C2516 1.378 . S
C2514 C2518 1.350 . S
C2515 C2518 1.463 . S
C2515 C2520 1.350 . S
C2515 N2523 1.427 . S
C2516 H2507 0.930 . S
C2516 C2514 1.378 . S
C2516 C2517 1.367 . S
C2517 C2516 1.367 . S
C2517 C2519 1.433 . S
C2518 C2514 1.350 . S
C2518 C2515 1.463 . S
C2518 N2522 1.427 . S
C2519 H2509 0.929 . S
C2519 C2517 1.433 . S
C2519 N2522 1.384 . S
C2520 H2511 0.929 . S
C2520 C2512 1.378 . S
C2520 C2515 1.350 . S
C2521 H2508 0.929 . S
C2521 C2513 1.433 . S
C2521 N2523 1.384 . S
N2522 C2518 1.427 . S
N2522 C2519 1.384 . S
N2523 C2515 1.427 . S
N2523 C2521 1.384 . S
H2524 C2530 0.930 . S
H2525 C2534 0.930 . S
H2526 C2539 0.929 . S
H2527 C2537 0.929 . S
H2528 C2532 0.929 . S
H2529 C2538 0.929 . S
C2530 H2524 0.930 . S
C2530 C2531 1.367 . S
C2530 C2538 1.378 . S
C2531 C2530 1.367 . S
C2531 C2539 1.433 . S
C2532 H2528 0.929 . S
C2532 C2534 1.378 . S
C2532 C2536 1.350 . S
C2533 C2536 1.463 . S
C2533 C2538 1.350 . S
C2533 N2541 1.427 . S
C2534 H2525 0.930 . S
C2534 C2532 1.378 . S
C2534 C2535 1.367 . S
C2535 C2534 1.367 . S
C2535 C2537 1.433 . S
C2536 C2532 1.350 . S
C2536 C2533 1.463 . S
C2536 N2540 1.427 . S
C2537 H2527 0.929 . S
C2537 C2535 1.433 . S
C2537 N2540 1.384 . S
C2538 H2529 0.929 . S
C2538 C2530 1.378 . S
C2538 C2533 1.350 . S
C2539 H2526 0.929 . S
C2539 C2531 1.433 . S
C2539 N2541 1.384 . S
N2540 C2536 1.427 . S
N2540 C2537 1.384 . S
N2541 C2533 1.427 . S
N2541 C2539 1.384 . S
H2542 C2548 0.930 . S
H2543 C2552 0.930 . S
H2544 C2557 0.929 . S
H2545 C2555 0.929 . S
H2546 C2550 0.929 . S
H2547 C2556 0.929 . S
C2548 H2542 0.930 . S
C2548 C2549 1.367 . S
C2548 C2556 1.378 . S
C2549 C2548 1.367 . S
C2549 C2557 1.433 . S
C2550 H2546 0.929 . S
C2550 C2552 1.378 . S
C2550 C2554 1.350 . S
C2551 C2554 1.463 . S
C2551 C2556 1.350 . S
C2551 N2559 1.427 . S
C2552 H2543 0.930 . S
C2552 C2550 1.378 . S
C2552 C2553 1.367 . S
C2553 C2552 1.367 . S
C2553 C2555 1.433 . S
C2554 C2550 1.350 . S
C2554 C2551 1.463 . S
C2554 N2558 1.427 . S
C2555 H2545 0.929 . S
C2555 C2553 1.433 . S
C2555 N2558 1.384 . S
C2556 H2547 0.929 . S
C2556 C2548 1.378 . S
C2556 C2551 1.350 . S
C2557 H2544 0.929 . S
C2557 C2549 1.433 . S
C2557 N2559 1.384 . S
N2558 C2554 1.427 . S
N2558 C2555 1.384 . S
N2559 C2551 1.427 . S
N2559 C2557 1.384 . S
H2560 C2566 0.930 . S
H2561 C2570 0.930 . S
H2562 C2575 0.929 . S
H2563 C2573 0.929 . S
H2564 C2568 0.929 . S
H2565 C2574 0.929 . S
C2566 H2560 0.930 . S
C2566 C2567 1.367 . S
C2566 C2574 1.378 . S
C2567 C2566 1.367 . S
C2567 C2575 1.433 . S
C2568 H2564 0.929 . S
C2568 C2570 1.378 . S
C2568 C2572 1.350 . S
C2569 C2572 1.463 . S
C2569 C2574 1.350 . S
C2569 N2577 1.427 . S
C2570 H2561 0.930 . S
C2570 C2568 1.378 . S
C2570 C2571 1.367 . S
C2571 C2570 1.367 . S
C2571 C2573 1.433 . S
C2572 C2568 1.350 . S
C2572 C2569 1.463 . S
C2572 N2576 1.427 . S
C2573 H2563 0.929 . S
C2573 C2571 1.433 . S
C2573 N2576 1.384 . S
C2574 H2565 0.929 . S
C2574 C2566 1.378 . S
C2574 C2569 1.350 . S
C2575 H2562 0.929 . S
C2575 C2567 1.433 . S
C2575 N2577 1.384 . S
N2576 C2572 1.427 . S
N2576 C2573 1.384 . S
N2577 C2569 1.427 . S
N2577 C2575 1.384 . S
H2578 C2584 0.930 . S
H2579 C2588 0.930 . S
H2580 C2593 0.929 . S
H2581 C2591 0.929 1_545 S
H2582 C2586 0.929 . S
H2583 C2592 0.929 . S
C2584 H2578 0.930 . S
C2584 C2585 1.367 . S
C2584 C2592 1.378 . S
C2585 C2584 1.367 . S
C2585 C2593 1.433 . S
C2586 H2582 0.929 . S
C2586 C2588 1.378 . S
C2586 C2590 1.350 . S
C2587 C2590 1.463 . S
C2587 C2592 1.350 . S
C2587 N2595 1.427 . S
C2588 H2579 0.930 . S
C2588 C2586 1.378 . S
C2588 C2589 1.367 . S
C2589 C2588 1.367 . S
C2589 C2591 1.433 . S
C2590 C2586 1.350 . S
C2590 C2587 1.463 . S
C2590 N2594 1.427 . S
C2591 H2581 0.929 1_565 S
C2591 C2589 1.433 . S
C2591 N2594 1.384 . S
C2592 H2583 0.929 . S
C2592 C2584 1.378 . S
C2592 C2587 1.350 . S
C2593 H2580 0.929 . S
C2593 C2585 1.433 . S
C2593 N2595 1.384 . S
N2594 C2590 1.427 . S
N2594 C2591 1.384 . S
N2595 C2587 1.427 . S
N2595 C2593 1.384 . S
H2596 C2602 0.930 . S
H2597 C2606 0.930 . S
H2598 C2611 0.929 . S
H2599 C2609 0.929 . S
H2600 C2604 0.929 . S
H2601 C2610 0.929 . S
C2602 H2596 0.930 . S
C2602 C2603 1.367 . S
C2602 C2610 1.378 . S
C2603 C2602 1.367 . S
C2603 C2611 1.433 . S
C2604 H2600 0.929 . S
C2604 C2606 1.378 . S
C2604 C2608 1.350 . S
C2605 C2608 1.463 . S
C2605 C2610 1.350 . S
C2605 N2613 1.427 . S
C2606 H2597 0.930 . S
C2606 C2604 1.378 . S
C2606 C2607 1.367 . S
C2607 C2606 1.367 . S
C2607 C2609 1.433 . S
C2608 C2604 1.350 . S
C2608 C2605 1.463 . S
C2608 N2612 1.427 . S
C2609 H2599 0.929 . S
C2609 C2607 1.433 . S
C2609 N2612 1.384 . S
C2610 H2601 0.929 . S
C2610 C2602 1.378 . S
C2610 C2605 1.350 . S
C2611 H2598 0.929 . S
C2611 C2603 1.433 . S
C2611 N2613 1.384 . S
N2612 C2608 1.427 . S
N2612 C2609 1.384 . S
N2613 C2605 1.427 . S
N2613 C2611 1.384 . S
H2614 C2620 0.930 . S
H2615 C2624 0.930 . S
H2616 C2629 0.929 . S
H2617 C2627 0.929 . S
H2618 C2622 0.929 . S
H2619 C2628 0.929 . S
C2620 H2614 0.930 . S
C2620 C2621 1.367 1_556 S
C2620 C2628 1.378 . S
C2621 C2620 1.367 1_554 S
C2621 C2629 1.433 . S
C2622 H2618 0.929 . S
C2622 C2624 1.378 . S
C2622 C2626 1.350 . S
C2623 C2626 1.463 . S
C2623 C2628 1.350 1_554 S
C2623 N2631 1.427 . S
C2624 H2615 0.930 . S
C2624 C2622 1.378 . S
C2624 C2625 1.367 . S
C2625 C2624 1.367 . S
C2625 C2627 1.433 1_554 S
C2626 C2622 1.350 . S
C2626 C2623 1.463 . S
C2626 N2630 1.427 1_554 S
C2627 H2617 0.929 . S
C2627 C2625 1.433 1_556 S
C2627 N2630 1.384 . S
C2628 H2619 0.929 . S
C2628 C2620 1.378 . S
C2628 C2623 1.350 1_556 S
C2629 H2616 0.929 . S
C2629 C2621 1.433 . S
C2629 N2631 1.384 . S
N2630 C2626 1.427 1_556 S
N2630 C2627 1.384 . S
N2631 C2623 1.427 . S
N2631 C2629 1.384 . S
H2632 C2638 0.930 . S
H2633 C2642 0.930 . S
H2634 C2647 0.929 . S
H2635 C2645 0.929 . S
H2636 C2640 0.929 . S
H2637 C2646 0.929 . S
C2638 H2632 0.930 . S
C2638 C2639 1.367 . S
C2638 C2646 1.378 . S
C2639 C2638 1.367 . S
C2639 C2647 1.433 . S
C2640 H2636 0.929 . S
C2640 C2642 1.378 . S
C2640 C2644 1.350 . S
C2641 C2644 1.463 . S
C2641 C2646 1.350 . S
C2641 N2649 1.427 . S
C2642 H2633 0.930 . S
C2642 C2640 1.378 . S
C2642 C2643 1.367 . S
C2643 C2642 1.367 . S
C2643 C2645 1.433 . S
C2644 C2640 1.350 . S
C2644 C2641 1.463 . S
C2644 N2648 1.427 . S
C2645 H2635 0.929 . S
C2645 C2643 1.433 . S
C2645 N2648 1.384 . S
C2646 H2637 0.929 . S
C2646 C2638 1.378 . S
C2646 C2641 1.350 . S
C2647 H2634 0.929 . S
C2647 C2639 1.433 . S
C2647 N2649 1.384 . S
N2648 C2644 1.427 . S
N2648 C2645 1.384 . S
N2649 C2641 1.427 . S
N2649 C2647 1.384 . S
H2650 C2656 0.930 . S
H2651 C2660 0.930 . S
H2652 C2665 0.929 . S
H2653 C2663 0.929 . S
H2654 C2658 0.929 . S
H2655 C2664 0.929 . S
C2656 H2650 0.930 . S
C2656 C2657 1.367 1_556 S
C2656 C2664 1.378 . S
C2657 C2656 1.367 1_554 S
C2657 C2665 1.433 . S
C2658 H2654 0.929 . S
C2658 C2660 1.378 . S
C2658 C2662 1.350 1_554 S
C2659 C2662 1.463 1_554 S
C2659 C2664 1.350 1_554 S
C2659 N2667 1.427 . S
C2660 H2651 0.930 . S
C2660 C2658 1.378 . S
C2660 C2661 1.367 1_554 S
C2661 C2660 1.367 1_556 S
C2661 C2663 1.433 . S
C2662 C2658 1.350 1_556 S
C2662 C2659 1.463 1_556 S
C2662 N2666 1.427 . S
C2663 H2653 0.929 . S
C2663 C2661 1.433 . S
C2663 N2666 1.384 . S
C2664 H2655 0.929 . S
C2664 C2656 1.378 . S
C2664 C2659 1.350 1_556 S
C2665 H2652 0.929 . S
C2665 C2657 1.433 . S
C2665 N2667 1.384 . S
N2666 C2662 1.427 . S
N2666 C2663 1.384 . S
N2667 C2659 1.427 . S
N2667 C2665 1.384 . S
H2668 C2674 0.930 . S
H2669 C2678 0.930 . S
H2670 C2683 0.929 . S
H2671 C2681 0.929 . S
H2672 C2676 0.929 . S
H2673 C2682 0.929 . S
C2674 H2668 0.930 . S
C2674 C2675 1.367 . S
C2674 C2682 1.378 . S
C2675 C2674 1.367 . S
C2675 C2683 1.433 . S
C2676 H2672 0.929 . S
C2676 C2678 1.378 . S
C2676 C2680 1.350 . S
C2677 C2680 1.463 . S
C2677 C2682 1.350 . S
C2677 N2685 1.427 . S
C2678 H2669 0.930 . S
C2678 C2676 1.378 . S
C2678 C2679 1.367 . S
C2679 C2678 1.367 . S
C2679 C2681 1.433 . S
C2680 C2676 1.350 . S
C2680 C2677 1.463 . S
C2680 N2684 1.427 . S
C2681 H2671 0.929 . S
C2681 C2679 1.433 . S
C2681 N2684 1.384 . S
C2682 H2673 0.929 . S
C2682 C2674 1.378 . S
C2682 C2677 1.350 . S
C2683 H2670 0.929 . S
C2683 C2675 1.433 . S
C2683 N2685 1.384 . S
N2684 C2680 1.427 . S
N2684 C2681 1.384 . S
N2685 C2677 1.427 . S
N2685 C2683 1.384 . S
H2686 C2692 0.930 . S
H2687 C2696 0.930 . S
H2688 C2701 0.929 . S
H2689 C2699 0.929 . S
H2690 C2694 0.929 . S
H2691 C2700 0.929 . S
C2692 H2686 0.930 . S
C2692 C2693 1.367 . S
C2692 C2700 1.378 . S
C2693 C2692 1.367 . S
C2693 C2701 1.433 . S
C2694 H2690 0.929 . S
C2694 C2696 1.378 . S
C2694 C2698 1.350 . S
C2695 C2698 1.463 . S
C2695 C2700 1.350 . S
C2695 N2703 1.427 . S
C2696 H2687 0.930 . S
C2696 C2694 1.378 . S
C2696 C2697 1.367 . S
C2697 C2696 1.367 . S
C2697 C2699 1.433 . S
C2698 C2694 1.350 . S
C2698 C2695 1.463 . S
C2698 N2702 1.427 . S
C2699 H2689 0.929 . S
C2699 C2697 1.433 . S
C2699 N2702 1.384 . S
C2700 H2691 0.929 . S
C2700 C2692 1.378 . S
C2700 C2695 1.350 . S
C2701 H2688 0.929 . S
C2701 C2693 1.433 . S
C2701 N2703 1.384 . S
N2702 C2698 1.427 . S
N2702 C2699 1.384 . S
N2703 C2695 1.427 . S
N2703 C2701 1.384 . S
C983 C109 2.249 . S
C987 C346 2.211 1_556 S
C1001 C65 2.136 . S
C1005 C394 2.136 . S
C1019 C75 1.237 . S
C1023 C426 1.191 . S
C1041 C471 1.379 . S
C1037 C84 1.384 . S
C1055 C25 1.355 . S
C1059 C511 1.326 . S
C1077 C542 0.508 . S
C1073 C28 0.486 . S
C1095 C594 1.359 . S
C1091 C47 1.314 . S
C1109 C9 1.853 . S
C1113 C626 1.779 . S
C1131 C354 2.559 . S
C1127 C233 2.570 . S
C1145 C249 0.522 . S
C1149 C391 0.546 . S
C1167 C434 1.318 . S
C1163 C275 1.325 . S
C1185 C466 1.330 . S
C1181 C173 1.349 . S
C1199 C224 1.945 . S
C1203 C506 1.941 . S
C1221 C545 1.434 . S
C1217 C243 1.454 . S
C1239 C591 0.377 . S
C1235 C266 0.323 . S
C1257 C634 2.038 . S
C1253 C179 2.052 . S
C1275 C351 1.534 1_565 S
C1271 C163 1.556 . S
C1289 C289 1.949 . S
C1293 C674 1.956 . S
C1311 C715 2.574 . S
C1307 C333 2.631 . S
C1329 C746 0.597 1_655 S
C1325 C308 0.600 . S
C1343 C123 1.521 . S
C1347 C631 1.497 . S
C1361 C126 1.590 . S
C1365 C431 1.589 . S
C1379 C327 2.295 . S
C1383 C794 2.279 . S
C1401 C826 0.663 . S
C1397 C299 0.645 . S
C1419 C355 2.217 . S
C1415 C67 2.272 . S
C1437 C825 2.164 . S
C1433 C98 2.124 . S
C1451 C89 1.268 . S
C1455 C435 1.231 . S
C1469 C79 1.446 . S
C1473 C782 1.430 . S
C1491 C502 1.306 . S
C1487 C11 1.348 . S
C1505 C51 0.503 . S
C1509 C711 0.524 . S
C1527 C585 1.439 . S
C1523 C33 1.397 . S
C1545 C875 1.753 . S
C1541 C14 1.848 . S
C1563 C345 2.538 . S
C1559 C140 2.543 . S
C1581 C822 0.536 . S
C1577 C319 0.498 . S
C1595 C112 1.336 . S
C1599 C425 1.340 . S
C1613 C285 1.372 . S
C1617 C795 1.350 . S
C1631 C149 2.006 . S
C1635 C515 1.968 . S
C1653 C714 1.463 . S
C1649 C313 1.479 . S
C1667 C121 0.333 . S
C1671 C582 0.423 . S
C1685 C291 2.083 . S
C1689 C865 2.068 . S
C1703 C182 1.570 . S
C1707 C342 1.518 . S
C1721 C168 1.939 . S
C1725 C665 1.974 . S
C1739 C263 2.679 . S
C1743 C546 2.619 . S
C1757 C247 0.661 . S
C1761 C755 0.660 . S
C1779 C862 1.470 . S
C1775 C277 1.511 . S
C1793 C219 1.634 . S
C1797 C422 1.602 . S
C1815 C465 2.316 . S
C1811 C257 2.338 . S
C1833 C395 0.666 . S
C1829 C201 0.631 . S
C1847 C81 2.253 . S
C1851 C906 2.212 . S
C1869 C834 2.136 . S
C1865 C93 2.136 . S
C1883 C103 1.235 . S
C1887 C946 1.204 . S
C1901 C56 1.392 . S
C1905 C791 1.389 . S
C1919 C53 1.354 . S
C1923 C671 1.325 . S
C1941 C702 0.503 . S
C1937 C0 0.484 . S
C1959 C754 1.363 . S
C1955 C19 1.326 . S
C1977 C866 1.780 . S
C1973 C37 1.861 . S
C1995 C914 2.556 . S
C1991 C261 2.570 . S
C2009 C193 0.555 . S
C2013 C831 0.588 . S
C2031 C954 1.316 . S
C2027 C205 1.327 . S
C2049 C786 1.330 . S
C2045 C215 1.349 . S
C2067 C666 1.941 . S
C2063 C252 1.945 . S
C2081 C187 1.452 . S
C2085 C705 1.428 . S
C2103 C751 0.368 . S
C2099 C196 0.304 . S
C2117 C221 2.051 . S
C2121 C874 2.037 . S
C2139 C911 1.523 . S
C2135 C317 1.545 . S
C2153 C135 1.959 . S
C2157 C514 1.957 . S
C2175 C555 2.573 . S
C2171 C151 2.632 . S
C2193 C586 0.607 . S
C2189 C154 0.595 . S
C2211 C871 1.500 . S
C2207 C305 1.521 . S
C2225 C280 1.590 . S
C2229 C951 1.586 . S
C2247 C474 2.275 . S
C2243 C145 2.293 . S
C2265 C386 0.645 . S
C2261 C117 0.633 . S
C2279 C95 2.269 . S
C2283 C915 2.214 . S
C2301 C385 2.164 . S
C2297 C70 2.117 . S
C2315 C61 1.266 . S
C2319 C955 1.238 . S
C2333 C107 1.446 . S
C2337 C462 1.430 . S
C2351 C39 1.349 . S
C2355 C662 1.306 . S
C2373 C551 0.529 . S
C2369 C23 0.492 . S
C2387 C5 1.383 . S
C2391 C745 1.423 . S
C2405 C42 1.841 . S
C2409 C635 1.756 . S
C2427 C905 2.537 . S
C2423 C322 2.542 . S
C2441 C165 0.512 . S
C2445 C382 0.538 . S
C2463 C945 1.334 . S
C2459 C294 1.343 . S
C2477 C131 1.375 . S
C2481 C475 1.343 . S
C2495 C331 2.003 . S
C2499 C675 1.967 . S
C2517 C554 1.458 . S
C2513 C159 1.483 . S
C2531 C303 0.330 . S
C2535 C742 0.425 . S
C2553 C625 2.062 . S
C2549 C137 2.084 . S
C2571 C902 1.506 . S
C2567 C238 1.566 . S
C2589 C505 1.974 1_665 S
C2585 C210 1.939 . S
C2603 C235 2.679 . S
C2607 C706 2.619 . S
C2625 C595 0.655 . S
C2621 C191 0.666 . S
C2639 C207 1.508 . S
C2643 C622 1.467 . S
C2657 C177 1.629 . S
C2661 C942 1.590 . S
C2679 C785 2.317 . S
C2675 C229 2.338 1_565 S
C2697 C835 0.652 . S
C2693 C271 0.636 . S
