# Generated by pormake.
# Topology fgl, (4,4)-cn, num edge types: 1
# Building blocks:
#     Node 0, Type 0, BuildingBlock: ESEHIV_clean_sbu_0, # of connection points: 4
#     Node 1, Type 0, BuildingBlock: ESEHIV_clean_sbu_0, # of connection points: 4
#     Node 2, Type 0, BuildingBlock: ESEHIV_clean_sbu_0, # of connection points: 4
#     Node 3, Type 0, BuildingBlock: ESEHIV_clean_sbu_0, # of connection points: 4
#     Node 4, Type 0, BuildingBlock: ESEHIV_clean_sbu_0, # of connection points: 4
#     Node 5, Type 0, BuildingBlock: ESEHIV_clean_sbu_0, # of connection points: 4
#     Node 6, Type 0, BuildingBlock: ESEHIV_clean_sbu_0, # of connection points: 4
#     Node 7, Type 0, BuildingBlock: ESEHIV_clean_sbu_0, # of connection points: 4
#     Node 8, Type 0, BuildingBlock: ESEHIV_clean_sbu_0, # of connection points: 4
#     Node 9, Type 0, BuildingBlock: ESEHIV_clean_sbu_0, # of connection points: 4
#     Node 10, Type 0, BuildingBlock: ESEHIV_clean_sbu_0, # of connection points: 4
#     Node 11, Type 0, BuildingBlock: ESEHIV_clean_sbu_0, # of connection points: 4
#     Node 12, Type 0, BuildingBlock: ESEHIV_clean_sbu_0, # of connection points: 4
#     Node 13, Type 0, BuildingBlock: ESEHIV_clean_sbu_0, # of connection points: 4
#     Node 14, Type 0, BuildingBlock: ESEHIV_clean_sbu_0, # of connection points: 4
#     Node 15, Type 0, BuildingBlock: ESEHIV_clean_sbu_0, # of connection points: 4
#     Node 16, Type 0, BuildingBlock: ESEHIV_clean_sbu_0, # of connection points: 4
#     Node 17, Type 0, BuildingBlock: ESEHIV_clean_sbu_0, # of connection points: 4
#     Node 18, Type 1, BuildingBlock: QUQFOY_clean_sbu_3, # of connection points: 4
#     Node 19, Type 1, BuildingBlock: QUQFOY_clean_sbu_3, # of connection points: 4
#     Node 20, Type 1, BuildingBlock: QUQFOY_clean_sbu_3, # of connection points: 4
#     Node 21, Type 1, BuildingBlock: QUQFOY_clean_sbu_3, # of connection points: 4
#     Node 22, Type 1, BuildingBlock: QUQFOY_clean_sbu_3, # of connection points: 4
#     Node 23, Type 1, BuildingBlock: QUQFOY_clean_sbu_3, # of connection points: 4
#     Node 24, Type 1, BuildingBlock: QUQFOY_clean_sbu_3, # of connection points: 4
#     Node 25, Type 1, BuildingBlock: QUQFOY_clean_sbu_3, # of connection points: 4
#     Node 26, Type 1, BuildingBlock: QUQFOY_clean_sbu_3, # of connection points: 4
#     Node 27, Type 1, BuildingBlock: QUQFOY_clean_sbu_3, # of connection points: 4
#     Node 28, Type 1, BuildingBlock: QUQFOY_clean_sbu_3, # of connection points: 4
#     Node 29, Type 1, BuildingBlock: QUQFOY_clean_sbu_3, # of connection points: 4
#     Node 30, Type 1, BuildingBlock: QUQFOY_clean_sbu_3, # of connection points: 4
#     Node 31, Type 1, BuildingBlock: QUQFOY_clean_sbu_3, # of connection points: 4
#     Node 32, Type 1, BuildingBlock: QUQFOY_clean_sbu_3, # of connection points: 4
#     Node 33, Type 1, BuildingBlock: QUQFOY_clean_sbu_3, # of connection points: 4
#     Node 34, Type 1, BuildingBlock: QUQFOY_clean_sbu_3, # of connection points: 4
#     Node 35, Type 1, BuildingBlock: QUQFOY_clean_sbu_3, # of connection points: 4
#     Edge 36, Type (0, 1), BuildingBlock: AJUNOK_clean_linker_0, # of connection points: 2
#     Edge 37, Type (0, 1), BuildingBlock: AJUNOK_clean_linker_0, # of connection points: 2
#     Edge 38, Type (0, 1), BuildingBlock: AJUNOK_clean_linker_0, # of connection points: 2
#     Edge 39, Type (0, 1), BuildingBlock: AJUNOK_clean_linker_0, # of connection points: 2
#     Edge 40, Type (0, 1), BuildingBlock: AJUNOK_clean_linker_0, # of connection points: 2
#     Edge 41, Type (0, 1), BuildingBlock: AJUNOK_clean_linker_0, # of connection points: 2
#     Edge 42, Type (0, 1), BuildingBlock: AJUNOK_clean_linker_0, # of connection points: 2
#     Edge 43, Type (0, 1), BuildingBlock: AJUNOK_clean_linker_0, # of connection points: 2
#     Edge 44, Type (0, 1), BuildingBlock: AJUNOK_clean_linker_0, # of connection points: 2
#     Edge 45, Type (0, 1), BuildingBlock: AJUNOK_clean_linker_0, # of connection points: 2
#     Edge 46, Type (0, 1), BuildingBlock: AJUNOK_clean_linker_0, # of connection points: 2
#     Edge 47, Type (0, 1), BuildingBlock: AJUNOK_clean_linker_0, # of connection points: 2
#     Edge 48, Type (0, 1), BuildingBlock: AJUNOK_clean_linker_0, # of connection points: 2
#     Edge 49, Type (0, 1), BuildingBlock: AJUNOK_clean_linker_0, # of connection points: 2
#     Edge 50, Type (0, 1), BuildingBlock: AJUNOK_clean_linker_0, # of connection points: 2
#     Edge 51, Type (0, 1), BuildingBlock: AJUNOK_clean_linker_0, # of connection points: 2
#     Edge 52, Type (0, 1), BuildingBlock: AJUNOK_clean_linker_0, # of connection points: 2
#     Edge 53, Type (0, 1), BuildingBlock: AJUNOK_clean_linker_0, # of connection points: 2
#     Edge 54, Type (0, 1), BuildingBlock: AJUNOK_clean_linker_0, # of connection points: 2
#     Edge 55, Type (0, 1), BuildingBlock: AJUNOK_clean_linker_0, # of connection points: 2
#     Edge 56, Type (0, 1), BuildingBlock: AJUNOK_clean_linker_0, # of connection points: 2
#     Edge 57, Type (0, 1), BuildingBlock: AJUNOK_clean_linker_0, # of connection points: 2
#     Edge 58, Type (0, 1), BuildingBlock: AJUNOK_clean_linker_0, # of connection points: 2
#     Edge 59, Type (0, 1), BuildingBlock: AJUNOK_clean_linker_0, # of connection points: 2
#     Edge 60, Type (0, 1), BuildingBlock: AJUNOK_clean_linker_0, # of connection points: 2
#     Edge 61, Type (0, 1), BuildingBlock: AJUNOK_clean_linker_0, # of connection points: 2
#     Edge 62, Type (0, 1), BuildingBlock: AJUNOK_clean_linker_0, # of connection points: 2
#     Edge 63, Type (0, 1), BuildingBlock: AJUNOK_clean_linker_0, # of connection points: 2
#     Edge 64, Type (0, 1), BuildingBlock: AJUNOK_clean_linker_0, # of connection points: 2
#     Edge 65, Type (0, 1), BuildingBlock: AJUNOK_clean_linker_0, # of connection points: 2
#     Edge 66, Type (0, 1), BuildingBlock: AJUNOK_clean_linker_0, # of connection points: 2
#     Edge 67, Type (0, 1), BuildingBlock: AJUNOK_clean_linker_0, # of connection points: 2
#     Edge 68, Type (0, 1), BuildingBlock: AJUNOK_clean_linker_0, # of connection points: 2
#     Edge 69, Type (0, 1), BuildingBlock: AJUNOK_clean_linker_0, # of connection points: 2
#     Edge 70, Type (0, 1), BuildingBlock: AJUNOK_clean_linker_0, # of connection points: 2
#     Edge 71, Type (0, 1), BuildingBlock: AJUNOK_clean_linker_0, # of connection points: 2
#     Edge 72, Type (0, 1), BuildingBlock: AJUNOK_clean_linker_0, # of connection points: 2
#     Edge 73, Type (0, 1), BuildingBlock: AJUNOK_clean_linker_0, # of connection points: 2
#     Edge 74, Type (0, 1), BuildingBlock: AJUNOK_clean_linker_0, # of connection points: 2
#     Edge 75, Type (0, 1), BuildingBlock: AJUNOK_clean_linker_0, # of connection points: 2
#     Edge 76, Type (0, 1), BuildingBlock: AJUNOK_clean_linker_0, # of connection points: 2
#     Edge 77, Type (0, 1), BuildingBlock: AJUNOK_clean_linker_0, # of connection points: 2
#     Edge 78, Type (0, 1), BuildingBlock: AJUNOK_clean_linker_0, # of connection points: 2
#     Edge 79, Type (0, 1), BuildingBlock: AJUNOK_clean_linker_0, # of connection points: 2
#     Edge 80, Type (0, 1), BuildingBlock: AJUNOK_clean_linker_0, # of connection points: 2
#     Edge 81, Type (0, 1), BuildingBlock: AJUNOK_clean_linker_0, # of connection points: 2
#     Edge 82, Type (0, 1), BuildingBlock: AJUNOK_clean_linker_0, # of connection points: 2
#     Edge 83, Type (0, 1), BuildingBlock: AJUNOK_clean_linker_0, # of connection points: 2
#     Edge 84, Type (0, 1), BuildingBlock: AJUNOK_clean_linker_0, # of connection points: 2
#     Edge 85, Type (0, 1), BuildingBlock: AJUNOK_clean_linker_0, # of connection points: 2
#     Edge 86, Type (0, 1), BuildingBlock: AJUNOK_clean_linker_0, # of connection points: 2
#     Edge 87, Type (0, 1), BuildingBlock: AJUNOK_clean_linker_0, # of connection points: 2
#     Edge 88, Type (0, 1), BuildingBlock: AJUNOK_clean_linker_0, # of connection points: 2
#     Edge 89, Type (0, 1), BuildingBlock: AJUNOK_clean_linker_0, # of connection points: 2
#     Edge 90, Type (0, 1), BuildingBlock: AJUNOK_clean_linker_0, # of connection points: 2
#     Edge 91, Type (0, 1), BuildingBlock: AJUNOK_clean_linker_0, # of connection points: 2
#     Edge 92, Type (0, 1), BuildingBlock: AJUNOK_clean_linker_0, # of connection points: 2
#     Edge 93, Type (0, 1), BuildingBlock: AJUNOK_clean_linker_0, # of connection points: 2
#     Edge 94, Type (0, 1), BuildingBlock: AJUNOK_clean_linker_0, # of connection points: 2
#     Edge 95, Type (0, 1), BuildingBlock: AJUNOK_clean_linker_0, # of connection points: 2
#     Edge 96, Type (0, 1), BuildingBlock: AJUNOK_clean_linker_0, # of connection points: 2
#     Edge 97, Type (0, 1), BuildingBlock: AJUNOK_clean_linker_0, # of connection points: 2
#     Edge 98, Type (0, 1), BuildingBlock: AJUNOK_clean_linker_0, # of connection points: 2
#     Edge 99, Type (0, 1), BuildingBlock: AJUNOK_clean_linker_0, # of connection points: 2
#     Edge 100, Type (0, 1), BuildingBlock: AJUNOK_clean_linker_0, # of connection points: 2
#     Edge 101, Type (0, 1), BuildingBlock: AJUNOK_clean_linker_0, # of connection points: 2
#     Edge 102, Type (0, 1), BuildingBlock: AJUNOK_clean_linker_0, # of connection points: 2
#     Edge 103, Type (0, 1), BuildingBlock: AJUNOK_clean_linker_0, # of connection points: 2
#     Edge 104, Type (0, 1), BuildingBlock: AJUNOK_clean_linker_0, # of connection points: 2
#     Edge 105, Type (0, 1), BuildingBlock: AJUNOK_clean_linker_0, # of connection points: 2
#     Edge 106, Type (0, 1), BuildingBlock: AJUNOK_clean_linker_0, # of connection points: 2
#     Edge 107, Type (0, 1), BuildingBlock: AJUNOK_clean_linker_0, # of connection points: 2
# Relax obj value: 0.022
# Max RMSD: 0.137
# Mean RMSD: 0.075
data_MOF--net-fgl--node1-ESEHIV_clean_sbu_0--node2-QUQFOY_clean_sbu_3--edge1-AJUNOK_clean_linker_0
_symmetry_space_group_name_H-M    P1
_symmetry_Int_Tables_number       1
_symmetry_cell_setting            triclinic
loop_
_symmetry_equiv_pos_as_xyz
'x, y, z'
_cell_length_a     57.190017
_cell_length_b     57.404674
_cell_length_c     39.347168
_cell_angle_alpha  88.720974
_cell_angle_beta   91.055262
_cell_angle_gamma 119.85671
loop_
_atom_site_label
_atom_site_type_symbol
_atom_site_fract_x
_atom_site_fract_y
_atom_site_fract_z
_atom_type_partial_charge
Cu0 Cu 0.01474 0.54763 0.01804 0.0
N1 N 0.99776 0.55007 0.05752 0.0
N2 N 0.99076 0.56863 0.10334 0.0
C3 C 0.00555 0.5729 0.07497 0.0
C4 C 0.97315 0.54188 0.10374 0.0
C5 C 0.97736 0.53061 0.0755 0.0
O6 O 0.02185 0.57922 0.99079 0.0
C7 C 0.03841 0.52271 0.04967 0.0
O8 O 0.01294 0.50777 0.05776 0.0
H9 H 0.02189 0.5923 0.06698 0.0
H10 H 0.96676 0.50956 0.06911 0.0
N11 N 0.99497 0.51703 0.99094 0.0
N12 N 0.9885 0.4877 0.94985 0.0
C13 C 0.00642 0.51023 0.9662 0.0
C14 C 0.96873 0.49815 0.99036 0.0
C15 C 0.96464 0.48018 0.96493 0.0
C16 C 1.00199 0.57709 0.97304 0.0
O17 O 0.9796 0.55383 0.97231 0.0
H18 H 0.0277 0.52168 0.96052 0.0
H19 H 0.95354 0.49779 0.00669 0.0
O20 O 0.04568 0.5441 0.03206 0.0
H21 H 0.9588 0.53087 0.1236 0.0
H22 H 0.94535 0.46345 0.95757 0.0
Cu23 Cu 0.51844 0.56204 0.03191 0.0
N24 N 0.5221 0.57162 0.98356 0.0
N25 N 0.53989 0.58717 0.9324 0.0
C26 C 0.54462 0.58203 0.96469 0.0
C27 C 0.5134 0.57943 0.93096 0.0
C28 C 0.50249 0.56991 0.96262 0.0
O29 O 0.54475 0.60183 0.04232 0.0
C30 C 0.49269 0.50719 1.00142 0.0
O31 O 0.51556 0.51552 0.98548 0.0
H32 H 0.56411 0.58621 0.97455 0.0
H33 H 0.48177 0.5623 0.96994 0.0
N34 N 0.51426 0.55191 0.08021 0.0
N35 N 0.49326 0.53352 0.12918 0.0
C36 C 0.49238 0.54515 0.09926 0.0
C37 C 0.52915 0.54375 0.09826 0.0
C38 C 0.51641 0.53267 0.1286 0.0
C39 C 0.56672 0.61176 0.0594 0.0
O40 O 0.57443 0.59582 0.07375 0.0
H41 H 0.47544 0.54723 0.0905 0.0
H42 H 0.54695 0.54398 0.08897 0.0
O43 O 0.49023 0.52311 0.02121 0.0
H44 H 0.5026 0.58029 0.90852 0.0
H45 H 0.52262 0.5228 0.14748 0.0
Cu46 Cu 0.51368 0.02589 0.02337 0.0
N47 N 0.49584 0.01173 0.98222 0.0
N48 N 0.47428 1.00259 0.93232 0.0
C49 C 0.48637 0.02107 0.9569 0.0
C50 C 0.47693 0.98138 0.94213 0.0
C51 C 0.49 0.987 0.9729 0.0
O52 O 0.48622 0.01041 0.0593 0.0
C53 C 0.55724 0.02675 0.99543 0.0
O54 O 0.54876 0.03741 0.97187 0.0
H55 H 0.48767 0.04054 0.95691 0.0
H56 H 0.49513 0.97401 0.98763 0.0
N57 N 0.53063 0.06323 0.02865 0.0
N58 N 0.56262 0.09442 0.06224 0.0
C59 C 0.55676 0.07586 0.03828 0.0
C60 C 0.51992 0.07589 0.04536 0.0
C61 C 0.53952 0.095 0.06614 0.0
C62 C 0.46449 0.01083 0.05216 0.0
O63 O 0.46227 0.02014 0.02225 0.0
H64 H 0.56973 0.06765 0.03386 0.0
H65 H 0.49856 0.06863 0.04734 0.0
O66 O 0.54395 0.0186 0.02322 0.0
H67 H 0.47014 0.96316 0.92791 0.0
H68 H 0.53591 0.10542 0.08618 0.0
Cu69 Cu 0.51439 0.03839 0.50307 0.0
N70 N 0.51443 0.02716 0.45907 0.0
N71 N 0.53019 0.03005 0.40671 0.0
C72 C 0.53583 0.0398 0.4385 0.0
C73 C 0.50425 0.01004 0.40754 0.0
C74 C 0.49449 0.00841 0.4399 0.0
O75 O 0.54751 0.0426 0.52493 0.0
C76 C 0.48752 0.06488 0.48438 0.0
O77 O 0.47076 0.0402 0.47494 0.0
H78 H 0.55516 0.05592 0.44693 0.0
H79 H 0.47414 0.99511 0.44847 0.0
N80 N 0.4848 0.01382 0.52857 0.0
N81 N 0.45433 1.00018 0.56999 0.0
C82 C 0.47554 0.02123 0.55494 0.0
C83 C 0.46883 0.98702 0.52649 0.0
C84 C 0.45006 0.9785 0.55222 0.0
C85 C 0.54782 0.02074 0.5308 0.0
O86 O 0.52622 0.99792 0.52325 0.0
H87 H 0.48433 0.04187 0.56288 0.0
H88 H 0.47101 0.97452 0.50811 0.0
O89 O 0.51002 0.07015 0.49816 0.0
H90 H 0.49293 0.99799 0.38606 0.0
H91 H 0.43516 0.95788 0.55801 0.0
Cu92 Cu 0.03126 0.55824 0.5286 0.0
N93 N 0.05376 0.5487 0.55298 0.0
N94 N 0.06033 0.5256 0.59538 0.0
C95 C 0.04888 0.54044 0.58578 0.0
C96 C 0.07306 0.52463 0.56726 0.0
C97 C 0.06884 0.53871 0.54119 0.0
O98 O 0.99893 0.52338 0.52342 0.0
C99 C 0.04911 0.60477 0.56418 0.0
O100 O 0.072 0.60525 0.5593 0.0
H101 H 0.0351 0.54326 0.60133 0.0
H102 H 0.07382 0.53898 0.51477 0.0
N103 N 0.04325 0.5755 0.48603 0.0
N104 N 0.04318 0.5994 0.44005 0.0
C105 C 0.03158 0.58823 0.47016 0.0
C106 C 0.06302 0.57858 0.46514 0.0
C107 C 0.06288 0.59316 0.43661 0.0
C108 C 0.99509 0.51034 0.49616 0.0
O109 O 0.00719 0.5236 0.46834 0.0
H110 H 0.01445 0.5888 0.48044 0.0
H111 H 0.07652 0.5708 0.47015 0.0
O112 O 0.02723 0.5842 0.55479 0.0
H113 H 0.08241 0.51239 0.56455 0.0
H114 H 0.07644 0.59903 0.41527 0.0
Cu115 Cu 0.51237 0.56816 0.5271 0.0
N116 N 0.52485 0.60138 0.50521 0.0
N117 N 0.55681 0.64046 0.48377 0.0
C118 C 0.5508 0.62086 0.50707 0.0
C119 C 0.53382 0.6331 0.46609 0.0
C120 C 0.51389 0.609 0.47976 0.0
O121 O 0.54059 0.57425 0.56073 0.0
C122 C 0.5085 0.54479 0.46164 0.0
O123 O 0.52682 0.569 0.45164 0.0
H124 H 0.5657 0.61942 0.52285 0.0
H125 H 0.49363 0.59681 0.46992 0.0
N126 N 0.47976 0.55649 0.54907 0.0
N127 N 0.43954 0.5258 0.56916 0.0
C128 C 0.46194 0.53023 0.55293 0.0
C129 C 0.46816 0.56946 0.56287 0.0
C130 C 0.44309 0.55043 0.57518 0.0
C131 C 0.53686 0.56561 0.59142 0.0
O132 O 0.51269 0.54706 0.60103 0.0
H133 H 0.46524 0.51462 0.54321 0.0
H134 H 0.47712 0.59106 0.56368 0.0
O135 O 0.50328 0.54023 0.49325 0.0
H136 H 0.53203 0.64351 0.4438 0.0
H137 H 0.42873 0.55437 0.58767 0.0
Cu138 Cu 0.71231 0.91115 0.33563 0.0
N139 N 0.72214 0.94299 0.31189 0.0
N140 N 0.71567 0.97509 0.28898 0.0
C141 C 0.70599 0.95369 0.31013 0.0
C142 C 0.73882 0.97807 0.27658 0.0
C143 C 0.74291 0.95818 0.29105 0.0
O144 O 0.69557 0.91391 0.37848 0.0
C145 C 0.70872 0.88399 0.27726 0.0
O146 O 0.7344 0.90196 0.27986 0.0
H147 H 0.68701 0.9454 0.32341 0.0
H148 H 0.75949 0.95475 0.28614 0.0
N149 N 0.74179 0.90786 0.34933 0.0
N150 N 0.76237 0.88593 0.36852 0.0
C151 C 0.73916 0.88385 0.35707 0.0
C152 C 0.76777 0.92603 0.35583 0.0
C153 C 0.78057 0.91243 0.36808 0.0
C154 C 0.71121 0.9351 0.39541 0.0
O155 O 0.73514 0.95138 0.38276 0.0
H156 H 0.72015 0.86519 0.35568 0.0
H157 H 0.77655 0.94754 0.35278 0.0
O158 O 0.69303 0.88254 0.30119 0.0
H159 H 0.75173 0.99345 0.25852 0.0
H160 H 0.80134 0.92126 0.37653 0.0
Cu161 Cu 0.19158 0.90421 0.37873 0.0
N162 N 0.158 0.88705 0.3562 0.0
N163 N 0.12315 0.85213 0.33076 0.0
C164 C 0.14427 0.86017 0.35234 0.0
C165 C 0.12327 0.87484 0.32078 0.0
C166 C 0.14481 0.89641 0.33657 0.0
O167 O 0.18555 0.87924 0.41695 0.0
C168 C 0.21765 0.92323 0.31933 0.0
O169 O 0.2032 0.93508 0.32198 0.0
H170 H 0.1504 0.84679 0.36404 0.0
H171 H 0.15089 0.9174 0.33303 0.0
N172 N 0.20356 0.93945 0.39401 0.0
N173 N 0.23285 0.98211 0.40834 0.0
C174 C 0.22975 0.95846 0.39773 0.0
C175 C 0.18951 0.95157 0.40228 0.0
C176 C 0.2075 0.97783 0.4112 0.0
C177 C 0.17914 0.88329 0.44628 0.0
O178 O 0.18251 0.90707 0.45297 0.0
H179 H 0.2463 0.95503 0.39246 0.0
H180 H 0.16775 0.9421 0.40147 0.0
O181 O 0.21722 0.90796 0.34372 0.0
H182 H 0.10891 0.87579 0.30334 0.0
H183 H 0.20229 0.99283 0.41808 0.0
Cu184 Cu 0.17178 0.37856 0.35069 0.0
N185 N 0.16416 0.36363 0.30797 0.0
N186 N 0.14829 0.35507 0.25518 0.0
C187 C 0.14643 0.36411 0.28563 0.0
C188 C 0.16797 0.34875 0.25817 0.0
C189 C 0.1776 0.35379 0.29116 0.0
O190 O 0.14489 0.38827 0.36274 0.0
C191 C 0.22332 0.41911 0.32645 0.0
O192 O 0.21084 0.41647 0.29722 0.0
H193 H 0.13377 0.37269 0.29085 0.0
H194 H 0.1943 0.35204 0.30159 0.0
N195 N 0.16936 0.3528 0.38152 0.0
N196 N 0.18388 0.33586 0.42257 0.0
C197 C 0.19091 0.3537 0.39674 0.0
C198 C 0.14771 0.33337 0.39781 0.0
C199 C 0.15668 0.32283 0.42342 0.0
C200 C 0.14374 0.39517 0.39288 0.0
O201 O 0.16289 0.39861 0.41459 0.0
H202 H 0.21147 0.36874 0.39088 0.0
H203 H 0.12711 0.32849 0.39285 0.0
O204 O 0.20945 0.40708 0.35264 0.0
H205 H 0.17567 0.34233 0.23762 0.0
H206 H 0.14433 0.30782 0.4422 0.0
Cu207 Cu 0.17584 0.34435 0.86094 0.0
N208 N 0.16953 0.32438 0.82212 0.0
N209 N 0.17901 0.3221 0.76802 0.0
C210 C 0.18896 0.3321 0.7989 0.0
C211 C 0.15209 0.30689 0.7721 0.0
C212 C 0.14625 0.30847 0.80563 0.0
O213 O 0.21336 0.35563 0.87516 0.0
C214 C 0.14001 0.36313 0.84681 0.0
O215 O 0.12319 0.3381 0.85545 0.0
H216 H 0.2098 0.3469 0.80395 0.0
H217 H 0.12639 0.30093 0.81616 0.0
N218 N 0.15359 0.32512 0.89701 0.0
N219 N 0.12934 0.32244 0.94206 0.0
C220 C 0.15129 0.33817 0.92339 0.0
C221 C 0.13258 0.2999 0.89915 0.0
C222 C 0.11737 0.29825 0.92701 0.0
C223 C 0.21691 0.33643 0.88621 0.0
O224 O 0.1958 0.31216 0.88785 0.0
H225 H 0.1637 0.35968 0.9263 0.0
H226 H 0.12727 0.28472 0.88013 0.0
O227 O 0.16544 0.3715 0.84748 0.0
H228 H 0.13751 0.29748 0.7518 0.0
H229 H 0.09814 0.28127 0.93421 0.0
Cu230 Cu 0.70226 0.87928 0.83505 0.0
N231 N 0.71722 0.85997 0.81613 0.0
N232 N 0.71936 0.82395 0.79964 0.0
C233 C 0.70312 0.83375 0.80799 0.0
C234 C 0.7447 0.84484 0.8028 0.0
C235 C 0.74332 0.86705 0.81283 0.0
O236 O 0.68115 0.8562 0.87356 0.0
C237 C 0.69843 0.90058 0.77155 0.0
O238 O 0.72233 0.90274 0.7695 0.0
H239 H 0.68144 0.82166 0.81036 0.0
H240 H 0.76016 0.8866 0.81882 0.0
N241 N 0.72808 0.91136 0.85488 0.0
N242 N 0.74004 0.94925 0.88291 0.0
C243 C 0.72389 0.9322 0.85875 0.0
C244 C 0.74801 0.91552 0.87696 0.0
C245 C 0.75556 0.93903 0.89419 0.0
C246 C 0.67708 0.86458 0.90146 0.0
O247 O 0.68092 0.88907 0.90267 0.0
H248 H 0.70734 0.93331 0.84655 0.0
H249 H 0.75459 0.90115 0.88268 0.0
O250 O 0.68462 0.88966 0.79847 0.0
H251 H 0.76291 0.84385 0.79927 0.0
H252 H 0.76937 0.94647 0.9156 0.0
Cu253 Cu 0.18407 0.88168 0.87711 0.0
N254 N 0.1686 0.88554 0.83664 0.0
N255 N 0.14908 0.87161 0.78566 0.0
C256 C 0.15207 0.86429 0.81754 0.0
C257 C 0.16357 0.89872 0.78503 0.0
C258 C 0.17582 0.90728 0.8165 0.0
O259 O 0.15724 0.848 0.89705 0.0
C260 C 0.22492 0.88104 0.83685 0.0
O261 O 0.20694 0.87182 0.81221 0.0
H262 H 0.14399 0.84371 0.82627 0.0
H263 H 0.19057 0.92761 0.82326 0.0
N264 N 0.19369 0.90893 0.90864 0.0
N265 N 0.2135 0.93269 0.95535 0.0
C266 C 0.20981 0.91217 0.93561 0.0
C267 C 0.18713 0.92831 0.91092 0.0
C268 C 0.19941 0.94308 0.93972 0.0
C269 C 0.13656 0.84755 0.90931 0.0
O270 O 0.13612 0.87017 0.91065 0.0
H271 H 0.21904 0.89987 0.94014 0.0
H272 H 0.17423 0.93136 0.8931 0.0
O273 O 0.21768 0.88302 0.86655 0.0
H274 H 0.16676 0.91129 0.7627 0.0
H275 H 0.1978 0.95991 0.94869 0.0
Cu276 Cu 0.36362 0.21546 0.71746 0.0
N277 N 0.33506 0.22121 0.70807 0.0
N278 N 0.31453 0.24313 0.68911 0.0
C279 C 0.33708 0.24146 0.68837 0.0
C280 C 0.29726 0.22291 0.70948 0.0
C281 C 0.3101 0.20928 0.72129 0.0
O282 O 0.38463 0.24135 0.75361 0.0
C283 C 0.39268 0.20604 0.66233 0.0
O284 O 0.4055 0.19951 0.68526 0.0
H285 H 0.35519 0.25549 0.67491 0.0
H286 H 0.30223 0.19268 0.73933 0.0
N287 N 0.3497 0.18179 0.73817 0.0
N288 N 0.34174 0.14071 0.75302 0.0
C289 C 0.35091 0.16005 0.72852 0.0
C290 C 0.33929 0.17598 0.76957 0.0
C291 C 0.3345 0.1508 0.77889 0.0
C292 C 0.38877 0.26534 0.75538 0.0
O293 O 0.38668 0.27722 0.72756 0.0
H294 H 0.35923 0.15878 0.70465 0.0
H295 H 0.33673 0.18976 0.78528 0.0
O296 O 0.37782 0.21542 0.67196 0.0
H297 H 0.27751 0.21922 0.71664 0.0
H298 H 0.32809 0.14161 0.80379 0.0
Cu299 Cu 0.8559 0.20483 0.68665 0.0
N300 N 0.88356 0.20942 0.65807 0.0
N301 N 0.90984 0.23138 0.61349 0.0
C302 C 0.88449 0.21813 0.62577 0.0
C303 C 0.92547 0.23058 0.63917 0.0
C304 C 0.90926 0.21721 0.66665 0.0
O305 O 0.86753 0.24285 0.69568 0.0
C306 C 0.81915 0.15878 0.65339 0.0
O307 O 0.84042 0.15575 0.65567 0.0
H308 H 0.86722 0.21744 0.61304 0.0
H309 H 0.91616 0.21651 0.69222 0.0
N310 N 0.8527 0.18656 0.72779 0.0
N311 N 0.83209 0.16455 0.77557 0.0
C312 C 0.8313 0.17865 0.74814 0.0
C313 C 0.86764 0.17694 0.74261 0.0
C314 C 0.85496 0.16337 0.77224 0.0
C315 C 0.88214 0.2541 0.72196 0.0
O316 O 0.883 0.23888 0.74675 0.0
H317 H 0.81521 0.18296 0.74261 0.0
H318 H 0.88598 0.17902 0.73226 0.0
O319 O 0.82135 0.18086 0.66363 0.0
H320 H 0.94728 0.24158 0.63963 0.0
H321 H 0.86153 0.15261 0.78919 0.0
Cu322 Cu 0.85224 0.68645 0.67074 0.0
N323 N 0.83866 0.68534 0.6267 0.0
N324 N 0.81813 0.68796 0.57925 0.0
C325 C 0.82811 0.6988 0.61 0.0
C326 C 0.82308 0.66749 0.57634 0.0
C327 C 0.83568 0.66596 0.60549 0.0
O328 O 0.82179 0.6599 0.69826 0.0
C329 C 0.89954 0.7008 0.64105 0.0
O330 O 0.89224 0.71767 0.62864 0.0
H331 H 0.82625 0.71494 0.62093 0.0
H332 H 0.84159 0.65113 0.61149 0.0
N333 N 0.86687 0.71832 0.69543 0.0
N334 N 0.8924 0.7381 0.74154 0.0
C335 C 0.89041 0.72599 0.71184 0.0
C336 C 0.8536 0.72674 0.71516 0.0
C337 C 0.86928 0.73891 0.7436 0.0
C338 C 0.80042 0.66155 0.69402 0.0
O339 O 0.80086 0.6795 0.67251 0.0
H340 H 0.90353 0.71824 0.70566 0.0
H341 H 0.83257 0.72087 0.71206 0.0
O342 O 0.88391 0.68267 0.6623 0.0
H343 H 0.81732 0.65412 0.55495 0.0
H344 H 0.86277 0.74487 0.76581 0.0
Cu345 Cu 0.83315 0.70766 0.16461 0.0
N346 N 0.83353 0.68897 0.12643 0.0
N347 N 0.85112 0.68095 0.08074 0.0
C348 C 0.85606 0.69598 0.1087 0.0
C349 C 0.82423 0.66376 0.0809 0.0
C350 C 0.81347 0.66867 0.10918 0.0
O351 O 0.86702 0.71688 0.18872 0.0
C352 C 0.80349 0.72785 0.13411 0.0
O353 O 0.78812 0.70183 0.13054 0.0
H354 H 0.87573 0.71215 0.11607 0.0
H355 H 0.7924 0.65875 0.11589 0.0
N356 N 0.80501 0.68755 0.1948 0.0
N357 N 0.77777 0.68169 0.23815 0.0
C358 C 0.80053 0.69889 0.22155 0.0
C359 C 0.7846 0.66197 0.19459 0.0
C360 C 0.7678 0.65825 0.22154 0.0
C361 C 0.86737 0.69652 0.20207 0.0
O362 O 0.84561 0.67284 0.19941 0.0
H363 H 0.81394 0.71953 0.22855 0.0
H364 H 0.78183 0.64725 0.17594 0.0
O365 O 0.82648 0.7367 0.14873 0.0
H366 H 0.81287 0.64945 0.06131 0.0
H367 H 0.74937 0.63997 0.22788 0.0
Cu368 Cu 0.36208 0.2311 0.20398 0.0
N369 N 0.34099 0.19532 0.19006 0.0
N370 N 0.33058 0.15285 0.18047 0.0
C371 C 0.34857 0.17662 0.19417 0.0
C372 C 0.31097 0.15684 0.16692 0.0
C373 C 0.31738 0.183 0.17294 0.0
O374 O 0.3815 0.22915 0.24513 0.0
C375 C 0.37653 0.24734 0.1339 0.0
O376 O 0.36297 0.22162 0.12715 0.0
H377 H 0.36748 0.18078 0.20596 0.0
H378 H 0.30604 0.19248 0.16441 0.0
N379 N 0.34226 0.24715 0.21788 0.0
N380 N 0.33724 0.28141 0.23515 0.0
C381 C 0.35363 0.27072 0.23429 0.0
C382 C 0.31761 0.24244 0.20832 0.0
C383 C 0.3144 0.26339 0.21914 0.0
C384 C 0.36571 0.21722 0.27017 0.0
O385 O 0.33981 0.20826 0.26565 0.0
H386 H 0.37396 0.28012 0.24436 0.0
H387 H 0.30355 0.22591 0.19288 0.0
O388 O 0.38207 0.25456 0.16496 0.0
H389 H 0.29333 0.14196 0.15343 0.0
H390 H 0.29714 0.2659 0.21379 0.0
Cu391 Cu 0.85257 0.25198 0.18556 0.0
N392 N 0.83071 0.24559 0.14713 0.0
N393 N 0.80508 0.22031 0.10422 0.0
C394 C 0.82264 0.22312 0.12923 0.0
C395 C 0.80228 0.24229 0.10603 0.0
C396 C 0.81799 0.2578 0.13288 0.0
O397 O 0.83225 0.21953 0.21225 0.0
C398 C 0.89829 0.27466 0.14585 0.0
O399 O 0.88266 0.2792 0.12519 0.0
H400 H 0.8296 0.20902 0.13474 0.0
H401 H 0.81952 0.27621 0.14176 0.0
N402 N 0.8597 0.28064 0.21332 0.0
N403 N 0.8801 0.30597 0.25859 0.0
C404 C 0.8697 0.28154 0.24473 0.0
C405 C 0.86387 0.30552 0.20673 0.0
C406 C 0.87632 0.32122 0.2349 0.0
C407 C 0.81151 0.21772 0.22637 0.0
O408 O 0.80831 0.23885 0.22565 0.0
H409 H 0.87095 0.26488 0.25627 0.0
H410 H 0.86017 0.31231 0.18241 0.0
O411 O 0.88814 0.25984 0.17214 0.0
H412 H 0.78926 0.24643 0.08979 0.0
H413 H 0.88388 0.34259 0.23669 0.0
C414 C 0.00854 0.65635 0.34592 0.0
O415 O 0.99366 0.66506 0.35696 0.0
Cd416 Cd 0.98072 0.69293 0.32493 0.0
O417 O 0.0154 0.66001 0.31463 0.0
Cd418 Cd 0.00638 0.68089 0.26126 0.0
C419 C 0.04344 0.7428 0.29826 0.0
O420 O 0.96089 0.67411 0.27124 0.0
O421 O 0.98404 0.7035 0.23259 0.0
O422 O 0.98745 0.63798 0.23195 0.0
C423 C 0.96178 0.69031 0.24802 0.0
O424 O 0.02304 0.73445 0.31743 0.0
C425 C 0.00408 0.6453 0.20772 0.0
O426 O 0.04419 0.72775 0.27518 0.0
O427 O 0.02323 0.66961 0.20832 0.0
C428 C 0.40645 0.47432 0.22469 0.0
O429 O 0.38237 0.4633 0.21341 0.0
Cd430 Cd 0.34283 0.43622 0.24691 0.0
O431 O 0.4111 0.47134 0.2559 0.0
Cd432 Cd 0.38675 0.44904 0.30989 0.0
C433 C 0.35723 0.38677 0.27257 0.0
O434 O 0.35173 0.46049 0.29818 0.0
O435 O 0.3448 0.43615 0.34291 0.0
O436 O 0.42518 0.48881 0.33493 0.0
C437 C 0.33658 0.44833 0.32308 0.0
O438 O 0.34185 0.39346 0.25654 0.0
C439 C 0.42849 0.47698 0.36066 0.0
O440 O 0.37637 0.40341 0.29164 0.0
O441 O 0.41236 0.45182 0.36316 0.0
C442 C 0.63135 0.08365 0.16065 0.0
O443 O 0.64651 0.07526 0.14957 0.0
Cd444 Cd 0.67264 0.06058 0.18373 0.0
O445 O 0.62803 0.0841 0.19248 0.0
Cd446 Cd 0.64508 0.07338 0.24543 0.0
C447 C 0.71069 0.11802 0.22847 0.0
O448 O 0.64944 0.03399 0.23218 0.0
O449 O 0.66917 0.05647 0.27757 0.0
O450 O 0.60089 0.04715 0.27097 0.0
C451 C 0.66333 0.03654 0.25898 0.0
O452 O 0.70914 0.10087 0.20727 0.0
C453 C 0.6052 0.06299 0.2953 0.0
O454 O 0.68976 0.11457 0.24408 0.0
O455 O 0.62797 0.0845 0.29583 0.0
C456 C 0.07344 0.39978 0.7784 0.0
O457 O 0.07207 0.39666 0.7464 0.0
Cd458 Cd 0.04334 0.40472 0.70819 0.0
O459 O 0.05814 0.40695 0.79283 0.0
Cd460 Cd 0.02253 0.41937 0.77361 0.0
C461 C 0.97822 0.36025 0.73125 0.0
O462 O 0.05077 0.44758 0.72622 0.0
O463 O 0.01229 0.44524 0.72908 0.0
O464 O 0.03442 0.45261 0.81984 0.0
C465 C 0.03507 0.4555 0.71476 0.0
O466 O 0.99619 0.36743 0.70851 0.0
C467 C 0.01149 0.44088 0.83398 0.0
O468 O 0.98322 0.37434 0.7579 0.0
O469 O 0.99381 0.41926 0.82034 0.0
C470 C 0.70822 0.64164 0.76972 0.0
O471 O 0.7098 0.64545 0.80152 0.0
Cd472 Cd 0.67817 0.65437 0.83019 0.0
O473 O 0.68909 0.64165 0.75249 0.0
Cd474 Cd 0.64781 0.64581 0.7605 0.0
C475 C 0.68432 0.71065 0.78879 0.0
O476 O 0.63218 0.62185 0.8158 0.0
O477 O 0.61391 0.6449 0.79785 0.0
O478 O 0.61915 0.60689 0.7242 0.0
C479 C 0.61445 0.62872 0.81987 0.0
O480 O 0.68893 0.70024 0.81517 0.0
C481 C 0.61442 0.61999 0.70134 0.0
O482 O 0.67084 0.69591 0.76384 0.0
O483 O 0.62541 0.64517 0.70566 0.0
C484 C 0.36414 0.05515 0.77759 0.0
O485 O 0.36553 0.05123 0.80926 0.0
Cd486 Cd 0.3821 0.02466 0.83653 0.0
O487 O 0.37095 0.04357 0.75578 0.0
Cd488 Cd 0.38528 0.00906 0.75884 0.0
C489 C 0.33327 0.96361 0.80767 0.0
O490 O 0.4187 0.0294 0.80402 0.0
O491 O 0.40747 0.98887 0.79148 0.0
O492 O 0.41571 0.02739 0.71086 0.0
C493 C 0.42198 0.00939 0.80922 0.0
O494 O 0.34545 0.97883 0.83263 0.0
C495 C 0.4039 0.00648 0.69286 0.0
O496 O 0.34179 0.97087 0.77737 0.0
O497 O 0.38262 0.98685 0.70504 0.0
C498 C 0.6747 0.96305 0.66988 0.0
O499 O 0.66327 0.97548 0.68087 0.0
Cd500 Cd 0.65653 0.00767 0.64801 0.0
O501 O 0.68289 0.96696 0.639 0.0
Cd502 Cd 0.68215 0.9951 0.58668 0.0
C503 C 0.72034 0.05687 0.62617 0.0
O504 O 0.63651 0.98954 0.59373 0.0
O505 O 0.66261 0.02124 0.55951 0.0
O506 O 0.66994 0.95827 0.54395 0.0
C507 C 0.6393 0.00748 0.5721 0.0
O508 O 0.69916 0.05027 0.64321 0.0
C509 C 0.69032 0.97151 0.52505 0.0
O510 O 0.72074 0.04009 0.60556 0.0
O511 O 0.70707 0.99499 0.53519 0.0
C512 C 0.09731 0.79876 0.53158 0.0
O513 O 0.07488 0.78386 0.51689 0.0
Cd514 Cd 0.03428 0.75 0.54517 0.0
O515 O 0.09969 0.79654 0.56362 0.0
Cd516 Cd 0.07108 0.7688 0.61284 0.0
C517 C 0.05572 0.70831 0.57958 0.0
O518 O 0.02677 0.76367 0.59888 0.0
O519 O 0.02819 0.73872 0.63997 0.0
O520 O 0.08703 0.80905 0.64718 0.0
C521 C 0.0142 0.74563 0.62155 0.0
O522 O 0.04054 0.71233 0.55912 0.0
C523 C 0.09881 0.8025 0.66992 0.0
O524 O 0.07144 0.72652 0.60027 0.0
O525 O 0.09804 0.78017 0.66601 0.0
C526 C 0.26659 0.35214 0.51985 0.0
O527 O 0.28656 0.34994 0.51072 0.0
Cd528 Cd 0.32014 0.35453 0.55161 0.0
O529 O 0.26501 0.35816 0.55027 0.0
Cd530 Cd 0.28935 0.36631 0.60423 0.0
C531 C 0.34811 0.4191 0.57984 0.0
O532 O 0.29506 0.32733 0.59919 0.0
O533 O 0.31562 0.35318 0.64153 0.0
O534 O 0.24393 0.34097 0.62601 0.0
C535 C 0.30736 0.33078 0.62731 0.0
O536 O 0.35126 0.40136 0.56511 0.0
C537 C 0.24768 0.35597 0.651 0.0
O538 O 0.32584 0.41291 0.59388 0.0
O539 O 0.27066 0.37706 0.65318 0.0
C540 C 0.73928 0.77315 0.08089 0.0
O541 O 0.73375 0.77026 0.04929 0.0
Cd542 Cd 0.69973 0.77465 0.01812 0.0
O543 O 0.72604 0.7798 0.10064 0.0
Cd544 Cd 0.68711 0.79001 0.09428 0.0
C545 C 0.64473 0.7263 0.0623 0.0
O546 O 0.70148 0.81365 0.03911 0.0
O547 O 0.6628 0.8066 0.05476 0.0
O548 O 0.70867 0.82765 0.13428 0.0
C549 C 0.68122 0.81636 0.03256 0.0
O550 O 0.6577 0.7349 0.0346 0.0
C551 C 0.68979 0.81935 0.15582 0.0
O552 O 0.65193 0.741 0.08873 0.0
O553 O 0.66923 0.79661 0.14974 0.0
C554 C 0.37832 0.99999 0.13927 0.0
O555 O 0.38148 0.00525 0.17076 0.0
Cd556 Cd 0.346 0.0044 0.20483 0.0
O557 O 0.35626 0.99498 0.12446 0.0
Cd558 Cd 0.3121 0.9917 0.13848 0.0
C559 C 0.3349 0.05393 0.17371 0.0
O560 O 0.30377 0.96427 0.19201 0.0
O561 O 0.27469 0.97622 0.17748 0.0
O562 O 0.28706 0.95725 0.09511 0.0
C563 C 0.28137 0.963 0.19766 0.0
O564 O 0.34344 0.04569 0.19868 0.0
C565 C 0.27989 0.97138 0.07727 0.0
O566 O 0.3246 0.03912 0.14783 0.0
O567 O 0.28804 0.99502 0.08752 0.0
C568 C 0.07156 0.44895 0.09467 0.0
O569 O 0.07204 0.4467 0.1268 0.0
Cd570 Cd 0.06999 0.40923 0.15729 0.0
O571 O 0.07026 0.43038 0.07609 0.0
Cd572 Cd 0.06931 0.3868 0.08907 0.0
C573 C 0.0108 0.35571 0.13026 0.0
O574 O 0.10248 0.3992 0.13512 0.0
O575 O 0.07311 0.35712 0.13138 0.0
O576 O 0.10223 0.39126 0.04788 0.0
C577 C 0.09536 0.37514 0.14342 0.0
O578 O 0.02447 0.37009 0.1552 0.0
C579 C 0.087 0.36932 0.03304 0.0
O580 O 0.02147 0.35958 0.10108 0.0
O581 O 0.06245 0.35674 0.04186 0.0
C582 C 0.36563 0.31287 0.02567 0.0
O583 O 0.35165 0.32334 0.03422 0.0
Cd584 Cd 0.33811 0.34835 0.99764 0.0
O585 O 0.37291 0.31449 0.99463 0.0
Cd586 Cd 0.3677 0.3371 0.93904 0.0
C587 C 0.40145 0.39906 0.97664 0.0
O588 O 0.31967 0.32504 0.94547 0.0
O589 O 0.34158 0.35597 0.9084 0.0
O590 O 0.36456 0.29907 0.90532 0.0
C591 C 0.31908 0.34034 0.92211 0.0
O592 O 0.37922 0.39148 0.99161 0.0
C593 C 0.38047 0.31336 0.88175 0.0
O594 O 0.40393 0.38299 0.95699 0.0
O595 O 0.39099 0.3386 0.88498 0.0
C596 C 0.7469 0.11075 0.87499 0.0
O597 O 0.72292 0.09705 0.86374 0.0
Cd598 Cd 0.68646 0.06383 0.89786 0.0
O599 O 0.75174 0.11005 0.90666 0.0
Cd600 Cd 0.72729 0.08998 0.96134 0.0
C601 C 0.72157 0.03303 0.92922 0.0
O602 O 0.68161 0.0815 0.94957 0.0
O603 O 0.68587 0.0603 0.99327 0.0
O604 O 0.74658 0.13616 0.98057 0.0
C605 C 0.67064 0.06547 0.97464 0.0
O606 O 0.70277 0.03298 0.91127 0.0
C607 C 0.75597 0.13282 0.00859 0.0
O608 O 0.73589 0.05233 0.94934 0.0
O609 O 0.75307 0.10958 0.01429 0.0
C610 C 0.95373 0.71703 0.84232 0.0
O611 O 0.96871 0.70865 0.83065 0.0
Cd612 Cd 0.99355 0.69238 0.86402 0.0
O613 O 0.95031 0.71681 0.87426 0.0
Cd614 Cd 0.96789 0.70473 0.92657 0.0
C615 C 0.0334 0.74911 0.90913 0.0
O616 O 0.96838 0.66384 0.91036 0.0
O617 O 0.9917 0.68437 0.95478 0.0
O618 O 0.92375 0.68073 0.95356 0.0
C619 C 0.98288 0.66426 0.93551 0.0
O620 O 0.03142 0.73198 0.88761 0.0
C621 C 0.92932 0.69689 0.97784 0.0
O622 O 0.01273 0.74568 0.92531 0.0
O623 O 0.95293 0.71725 0.97821 0.0
C624 C 0.43005 0.11949 0.44224 0.0
O625 O 0.42578 0.11888 0.41038 0.0
Cd626 Cd 0.39416 0.12853 0.38175 0.0
O627 O 0.41734 0.12653 0.46225 0.0
Cd628 Cd 0.38323 0.14301 0.45704 0.0
C629 C 0.33448 0.08299 0.42075 0.0
O630 O 0.40265 0.17047 0.40388 0.0
O631 O 0.36645 0.16829 0.42144 0.0
O632 O 0.40792 0.17093 0.50762 0.0
C633 C 0.38488 0.17728 0.39933 0.0
O634 O 0.34926 0.09076 0.39442 0.0
C635 C 0.38714 0.16695 0.52368 0.0
O636 O 0.34216 0.09722 0.4476 0.0
O637 O 0.36466 0.15203 0.50905 0.0
C638 C 0.04282 0.37721 0.44992 0.0
O639 O 0.04235 0.3784 0.48209 0.0
Cd640 Cd 1.00307 0.36093 0.51689 0.0
O641 O 0.02084 0.36716 0.43267 0.0
Cd642 Cd 0.97171 0.34897 0.44758 0.0
C643 C 0.98077 0.40334 0.49349 0.0
O644 O 0.9732 0.31844 0.49105 0.0
O645 O 0.93513 0.31699 0.48683 0.0
O646 O 0.95743 0.32616 0.39212 0.0
C647 C 0.94888 0.30731 0.5001 0.0
O648 O 0.98937 0.39513 0.51839 0.0
C649 C 0.94151 0.33505 0.38467 0.0
O650 O 0.97521 0.39121 0.46532 0.0
O651 O 0.9396 0.34988 0.40654 0.0
C652 C 0.74928 0.79019 0.4331 0.0
O653 O 0.74803 0.78897 0.46531 0.0
Cd654 Cd 0.7342 0.74843 0.49644 0.0
O655 O 0.74287 0.7692 0.41594 0.0
Cd656 Cd 0.72904 0.72088 0.4249 0.0
C657 C 0.67056 0.70715 0.46285 0.0
O658 O 0.76162 0.73319 0.47087 0.0
O659 O 0.73675 0.69076 0.46368 0.0
O660 O 0.75423 0.73015 0.37237 0.0
C661 C 0.75644 0.70975 0.47908 0.0
O662 O 0.68539 0.72059 0.48769 0.0
C663 C 0.74107 0.70659 0.3607 0.0
O664 O 0.6812 0.70472 0.43597 0.0
O665 O 0.72188 0.68926 0.37879 0.0
C666 C 0.06514 0.5116 0.08983 0.0
C667 C 0.05605 0.5113 0.05646 0.0
C668 C 0.07224 0.4926 0.10113 0.0
C669 C 0.06995 0.47218 0.07961 0.0
H670 H 0.06472 0.52524 0.1081 0.0
H671 H 0.07781 0.49289 0.12764 0.0
S672 S 0.04975 0.46486 0.98847 0.0
N673 N 0.04741 0.49088 1.00102 0.0
N674 N 0.06055 0.45493 0.02197 0.0
C675 C 0.06294 0.47312 0.04528 0.0
C676 C 0.05594 0.4927 0.03381 0.0
C677 C 0.60166 0.65303 0.08965 0.0
C678 C 0.58448 0.64145 0.06135 0.0
C679 C 0.61995 0.68085 0.09091 0.0
C680 C 0.62222 0.69803 0.06353 0.0
H681 H 0.60121 0.64044 0.11084 0.0
H682 H 0.63329 0.68874 0.11273 0.0
S683 S 0.58138 0.67807 0.98401 0.0
N684 N 0.57027 0.64971 0.00595 0.0
N685 N 0.60505 0.70161 0.00786 0.0
C686 C 0.60474 0.68679 0.03547 0.0
C687 C 0.58577 0.65864 0.03451 0.0
C688 C 0.41636 0.99511 0.06399 0.0
C689 C 0.44251 0.00381 0.07684 0.0
C690 C 0.39577 0.99322 0.08461 0.0
C691 C 0.40032 1.00008 0.11917 0.0
H692 H 0.4119 0.99053 0.03727 0.0
H693 H 0.37629 0.987 0.07292 0.0
S694 S 0.46495 0.02229 0.16601 0.0
N695 N 0.47161 0.01797 0.12673 0.0
N696 N 0.43294 0.01441 0.16588 0.0
C697 C 0.42614 0.00762 0.13285 0.0
C698 C 0.44718 0.00944 0.11165 0.0
C699 C 0.47891 0.09253 0.44251 0.0
C700 C 0.47977 0.08545 0.47666 0.0
C701 C 0.46407 0.10492 0.43216 0.0
C702 C 0.449 0.1104 0.45547 0.0
H703 H 0.48849 0.08698 0.42326 0.0
H704 H 0.46343 0.10903 0.40526 0.0
S705 S 0.44624 0.09719 0.54861 0.0
N706 N 0.46571 0.08595 0.53425 0.0
N707 N 0.43774 0.10934 0.51512 0.0
C708 C 0.45099 0.10475 0.49016 0.0
C709 C 0.4663 0.09217 0.50065 0.0
C710 C 0.97991 0.46691 0.46699 0.0
C711 C 0.98502 0.48093 0.49762 0.0
C712 C 0.97705 0.44123 0.46623 0.0
C713 C 0.97939 0.42848 0.49605 0.0
H714 H 0.9795 0.47641 0.44306 0.0
H715 H 0.97441 0.43198 0.44171 0.0
S716 S 0.98809 0.45447 0.58361 0.0
N717 N 0.98888 0.47861 0.5592 0.0
N718 N 0.98357 0.43036 0.55767 0.0
C719 C 0.98236 0.44133 0.5272 0.0
C720 C 0.98509 0.46749 0.52802 0.0
C721 C 0.5961 0.65814 0.44624 0.0
C722 C 0.58376 0.66071 0.47531 0.0
C723 C 0.62407 0.67403 0.44165 0.0
C724 C 0.64065 0.69301 0.46606 0.0
H725 H 0.58424 0.64269 0.42801 0.0
H726 H 0.63284 0.67056 0.41952 0.0
S727 S 0.61672 0.70949 0.54434 0.0
N728 N 0.58918 0.6848 0.52715 0.0
N729 N 0.6416 0.7152 0.51866 0.0
C730 C 0.62801 0.69676 0.49423 0.0
C731 C 0.59962 0.68044 0.49885 0.0
C732 C 0.01377 0.62514 0.97677 0.0
C733 C 1.00132 0.60087 0.95904 0.0
C734 C 0.00822 0.6458 0.96833 0.0
C735 C 0.99019 0.64303 0.94169 0.0
H736 H 0.02663 0.62761 0.99855 0.0
H737 H 0.01754 0.66374 0.98355 0.0
S738 S 0.9553 0.58461 0.88461 0.0
N739 N 0.97226 0.57611 0.9117 0.0
N740 N 0.96204 0.61495 0.89557 0.0
C741 C 0.97899 0.61948 0.92243 0.0
C742 C 0.98451 0.59841 0.93118 0.0
C743 C 0.47041 0.46312 0.97036 0.0
C744 C 0.46945 0.47955 0.99581 0.0
C745 C 0.4485 0.43723 0.96426 0.0
C746 C 0.42463 0.42661 0.98332 0.0
H747 H 0.48817 0.47035 0.95475 0.0
H748 H 0.45029 0.42554 0.94429 0.0
S749 S 0.41224 0.4609 0.05427 0.0
N750 N 0.44279 0.48275 0.04105 0.0
N751 N 0.40192 0.43457 0.02974 0.0
C752 C 0.42357 0.44278 0.00916 0.0
C753 C 0.44584 0.46904 0.01535 0.0
C754 C 0.60279 0.03718 0.01884 0.0
C755 C 0.5847 0.03058 0.99123 0.0
C756 C 0.63058 0.04746 0.01348 0.0
C757 C 0.64115 0.052 0.98033 0.0
H758 H 0.59575 0.03593 0.04463 0.0
H759 H 0.64402 0.05323 0.03528 0.0
S760 S 0.60172 0.03388 0.89991 0.0
N761 N 0.57901 0.02588 0.92987 0.0
N762 N 0.63098 0.04606 0.91996 0.0
C763 C 0.62305 0.04394 0.95281 0.0
C764 C 0.5949 0.03297 0.95818 0.0
C765 C 0.56829 0.99692 0.56232 0.0
C766 C 0.57197 0.01993 0.54413 0.0
C767 C 0.59016 0.99349 0.5719 0.0
C768 C 0.61677 0.01268 0.56321 0.0
H769 H 0.54817 0.98111 0.56883 0.0
H770 H 0.58604 0.97522 0.58546 0.0
S771 S 0.6376 0.07706 0.51669 0.0
N772 N 0.60444 0.06273 0.51883 0.0
N773 N 0.64563 0.05621 0.53627 0.0
C774 C 0.62086 0.03613 0.54565 0.0
C775 C 0.5985 0.0398 0.53632 0.0
C776 C 0.02894 0.63458 0.56133 0.0
C777 C 0.04965 0.62999 0.57309 0.0
C778 C 0.03106 0.65982 0.56419 0.0
C779 C 0.05385 0.68154 0.57927 0.0
H780 H 0.01145 0.61894 0.54838 0.0
H781 H 0.01476 0.66237 0.55391 0.0
S782 S 0.1126 0.67926 0.61701 0.0
N783 N 0.09297 0.64871 0.60241 0.0
N784 N 0.09677 0.69615 0.60815 0.0
C785 C 0.07414 0.67688 0.59265 0.0
C786 C 0.07209 0.65115 0.58943 0.0
C787 C 0.39006 0.49527 0.57224 0.0
C788 C 0.41651 0.49982 0.57654 0.0
C789 C 0.36766 0.46916 0.57473 0.0
C790 C 0.37113 0.44684 0.58122 0.0
H791 H 0.38676 0.5118 0.56545 0.0
H792 H 0.34768 0.46628 0.57004 0.0
S793 S 0.43569 0.44863 0.60049 0.0
N794 N 0.44438 0.48026 0.59253 0.0
N795 N 0.4026 0.43136 0.59587 0.0
C796 C 0.3973 0.45138 0.58745 0.0
C797 C 0.41992 0.47783 0.58547 0.0
C798 C 0.7527 0.83943 0.36523 0.0
C799 C 0.76478 0.86394 0.38246 0.0
C800 C 0.74906 0.81587 0.38124 0.0
C801 C 0.75699 0.81595 0.4153 0.0
H802 H 0.74489 0.83832 0.33967 0.0
H803 H 0.73866 0.79727 0.36736 0.0
S804 S 0.79237 0.87577 0.47018 0.0
N805 N 0.78677 0.88754 0.43412 0.0
N806 N 0.78003 0.84328 0.46459 0.0
C807 C 0.77067 0.84073 0.4321 0.0
C808 C 0.77459 0.86476 0.41556 0.0
C809 C 0.27948 0.01425 0.3902 0.0
C810 C 0.25804 0.00711 0.4127 0.0
C811 C 0.3039 0.0386 0.39328 0.0
C812 C 0.30829 0.05692 0.41933 0.0
H813 H 0.27718 1.00111 0.36953 0.0
H814 H 0.3195 0.04304 0.37491 0.0
S815 S 0.25893 0.0472 0.48596 0.0
N816 N 0.24303 0.01999 0.46263 0.0
N817 N 0.28893 0.06562 0.46866 0.0
C818 C 0.28715 0.0498 0.44244 0.0
C819 C 0.26207 0.02504 0.43902 0.0
C820 C 0.09434 0.38024 0.38716 0.0
C821 C 0.11895 0.39463 0.40503 0.0
C822 C 0.06991 0.37583 0.40096 0.0
C823 C 0.06911 0.38564 0.43316 0.0
H824 H 0.0937 0.37119 0.36305 0.0
H825 H 0.0514 0.36357 0.38696 0.0
S826 S 0.12853 0.42842 0.4876 0.0
N827 N 0.14132 0.42138 0.45473 0.0
N828 N 0.09571 0.4133 0.48052 0.0
C829 C 0.09384 0.40161 0.45016 0.0
C830 C 0.11864 0.40604 0.43616 0.0
C831 C 0.13273 0.3885 0.79911 0.0
C832 C 0.128 0.37911 0.83294 0.0
C833 C 0.11553 0.39604 0.78217 0.0
C834 C 0.09308 0.39479 0.79848 0.0
H835 H 0.14862 0.38819 0.78489 0.0
H836 H 0.11937 0.40206 0.75566 0.0
S837 S 0.07368 0.37388 0.88825 0.0
N838 N 0.10041 0.37051 0.88288 0.0
N839 N 0.06862 0.38532 0.85155 0.0
C840 C 0.08928 0.38708 0.83303 0.0
C841 C 0.10656 0.37904 0.85007 0.0
C842 C 0.72539 0.78472 0.81096 0.0
C843 C 0.71145 0.79614 0.7943 0.0
C844 C 0.71679 0.75725 0.80832 0.0
C845 C 0.69419 0.74009 0.78833 0.0
H846 H 0.74255 0.79695 0.82714 0.0
H847 H 0.72783 0.74934 0.82241 0.0
S848 S 0.65176 0.76056 0.7378 0.0
N849 N 0.67461 0.78853 0.75606 0.0
N850 N 0.65867 0.73699 0.75048 0.0
C851 C 0.68064 0.75149 0.77054 0.0
C852 C 0.68915 0.77944 0.77374 0.0
C853 C 0.26189 0.90636 0.79504 0.0
C854 C 0.25398 0.89665 0.8285 0.0
C855 C 0.28822 0.92689 0.78798 0.0
C856 C 0.30756 0.93841 0.81411 0.0
H857 H 0.24724 0.89949 0.77447 0.0
H858 H 0.29286 0.9349 0.76227 0.0
S859 S 0.29871 0.91581 0.90453 0.0
N860 N 0.26881 0.89697 0.88689 0.0
N861 N 0.31826 0.93539 0.87368 0.0
C862 C 0.30063 0.92699 0.84701 0.0
C863 C 0.27386 0.90612 0.85418 0.0
C864 C 0.6978 0.99537 0.24768 0.0
C865 C 0.70309 0.99085 0.28146 0.0
C866 C 0.68382 0.00927 0.24037 0.0
C867 C 0.67528 0.01943 0.26668 0.0
H868 H 0.70414 0.98775 0.22696 0.0
H869 H 0.68031 0.01267 0.21404 0.0
S870 S 0.68459 0.0128 0.35929 0.0
N871 N 0.6988 0.99731 0.34123 0.0
N872 N 0.67302 0.0238 0.32775 0.0
C873 C 0.68058 0.01499 0.30052 0.0
C874 C 0.69438 1.00059 0.30786 0.0
C875 C 0.09353 0.80452 0.3466 0.0
C876 C 0.1044 0.82476 0.32136 0.0
C877 C 0.07462 0.77791 0.33848 0.0
C878 C 0.06636 0.77021 0.30466 0.0
H879 H 0.0991 0.80952 0.373 0.0
H880 H 0.06604 0.76324 0.359 0.0
S881 S 0.09018 0.8152 0.22882 0.0
N882 N 0.10638 0.83517 0.26093 0.0
N883 N 0.07129 0.78488 0.24556 0.0
C884 C 0.07782 0.79001 0.27896 0.0
C885 C 0.09668 0.81736 0.28735 0.0
C886 C 0.26537 0.42408 0.3546 0.0
C887 C 0.25316 0.43061 0.32739 0.0
C888 C 0.29252 0.43065 0.35349 0.0
C889 C 0.30878 0.44429 0.3253 0.0
H890 H 0.2536 0.41273 0.3764 0.0
H891 H 0.3006 0.42429 0.37455 0.0
S892 S 0.28756 0.46882 0.24912 0.0
N893 N 0.26019 0.45351 0.27262 0.0
N894 N 0.31116 0.46614 0.27069 0.0
C895 C 0.29728 0.45233 0.29879 0.0
C896 C 0.26954 0.44543 0.2998 0.0
C897 C 0.24469 0.32056 0.91846 0.0
C898 C 0.24382 0.33993 0.89657 0.0
C899 C 0.269 0.32119 0.92676 0.0
C900 C 0.29377 0.34104 0.91329 0.0
H901 H 0.22627 0.30444 0.92922 0.0
H902 H 0.26821 0.30559 0.94353 0.0
S903 S 0.303 0.39692 0.85513 0.0
N904 N 0.2702 0.38002 0.86208 0.0
N905 N 0.31592 0.38115 0.87726 0.0
C906 C 0.29336 0.36086 0.89168 0.0
C907 C 0.26846 0.36036 0.88351 0.0
C908 C 0.71002 0.96541 0.9025 0.0
C909 C 0.73625 0.96959 0.89867 0.0
C910 C 0.70562 0.98558 0.91466 0.0
C911 C 0.72721 0.01083 0.92377 0.0
H912 H 0.69267 0.9465 0.89541 0.0
H913 H 0.68504 0.98163 0.91586 0.0
S914 S 0.79976 0.03145 0.92083 0.0
N915 N 0.78414 1.00033 0.90679 0.0
N916 N 0.77584 0.03845 0.92994 0.0
C917 C 0.75353 0.01486 0.92195 0.0
C918 C 0.75804 0.9942 0.90933 0.0
C919 C 0.1082 0.79826 0.90019 0.0
C920 C 0.11135 0.82173 0.91492 0.0
C921 C 0.08311 0.77471 0.89962 0.0
C922 C 0.06012 0.77354 0.91394 0.0
H923 H 0.12488 0.79835 0.88747 0.0
H924 H 0.08166 0.75749 0.8869 0.0
S925 S 0.05855 0.8285 0.9599 0.0
N926 N 0.09008 0.84167 0.94734 0.0
N927 N 0.04285 0.79729 0.94632 0.0
C928 C 0.06338 0.79635 0.93074 0.0
C929 C 0.08899 0.82046 0.93119 0.0
C930 C 0.36608 0.11675 0.7385 0.0
C931 C 0.34429 0.11694 0.75444 0.0
C932 C 0.37146 0.09566 0.7443 0.0
C933 C 0.35545 0.07432 0.76655 0.0
H934 H 0.37997 0.13366 0.72296 0.0
H935 H 0.38917 0.09688 0.73297 0.0
S936 S 0.29333 0.06266 0.80942 0.0
N937 N 0.30426 0.09166 0.78905 0.0
N938 N 0.31524 0.05277 0.80122 0.0
C939 C 0.33269 0.07335 0.78084 0.0
C940 C 0.32688 0.09447 0.77444 0.0
C941 C 0.91204 0.29654 0.75331 0.0
C942 C 0.90314 0.2832 0.72206 0.0
C943 C 0.93555 0.32184 0.75577 0.0
C944 C 0.9517 0.33476 0.72719 0.0
H945 H 0.90122 0.28687 0.77642 0.0
H946 H 0.94173 0.33075 0.78063 0.0
S947 S 0.93662 0.30911 0.63888 0.0
N948 N 0.91168 0.28556 0.6615 0.0
N949 N 0.95595 0.33273 0.666 0.0
C950 C 0.94245 0.32209 0.69548 0.0
C951 C 0.9182 0.29649 0.69293 0.0
C952 C 0.77797 0.65217 0.75035 0.0
C953 C 0.77618 0.64725 0.71533 0.0
C954 C 0.7553 0.64841 0.76849 0.0
C955 C 0.73017 0.63985 0.75211 0.0
H956 H 0.79742 0.66131 0.76308 0.0
H957 H 0.75807 0.65416 0.79492 0.0
S958 S 0.71436 0.61977 0.66184 0.0
N959 N 0.74684 0.63006 0.66597 0.0
N960 N 0.70432 0.62278 0.69975 0.0
C961 C 0.72773 0.63245 0.7178 0.0
C962 C 0.75072 0.63621 0.69952 0.0
C963 C 0.78314 0.74054 0.08641 0.0
C964 C 0.79328 0.74527 0.11983 0.0
C965 C 0.76698 0.75085 0.07387 0.0
C966 C 0.75957 0.76593 0.09442 0.0
H967 H 0.78672 0.72764 0.07017 0.0
H968 H 0.75913 0.74567 0.04821 0.0
S969 S 0.78297 0.78608 0.18313 0.0
N970 N 0.7966 0.76773 0.1727 0.0
N971 N 0.76576 0.78692 0.14939 0.0
C972 C 0.7707 0.77195 0.12752 0.0
C973 C 0.78765 0.7617 0.14014 0.0
C974 C 0.32335 0.11238 0.15019 0.0
C975 C 0.33248 0.12867 0.1791 0.0
C976 C 0.32481 0.08871 0.14841 0.0
C977 C 0.33531 0.08015 0.17556 0.0
H978 H 0.31517 0.11809 0.12862 0.0
H979 H 0.31733 0.07691 0.12558 0.0
S980 S 0.36111 0.11537 0.25765 0.0
N981 N 0.35179 0.13433 0.23585 0.0
N982 N 0.35482 0.09016 0.23262 0.0
C983 C 0.34461 0.09641 0.20465 0.0
C984 C 0.34313 0.12054 0.20638 0.0
C985 C 0.93928 0.30057 0.11063 0.0
C986 C 0.92772 0.29228 0.14296 0.0
C987 C 0.96623 0.32074 0.10685 0.0
C988 C 0.98253 0.33384 0.13526 0.0
H989 H 0.92721 0.29178 0.088 0.0
H990 H 0.97409 0.32654 0.08134 0.0
S991 S 0.96151 0.31948 0.22569 0.0
N992 N 0.93443 0.2984 0.20399 0.0
N993 N 0.98498 0.33653 0.19708 0.0
C994 C 0.97123 0.32539 0.16786 0.0
C995 C 0.94387 0.30454 0.17167 0.0
C996 C 0.2935 0.26048 0.64894 0.0
C997 C 0.31178 0.26488 0.67548 0.0
C998 C 0.29249 0.28208 0.63322 0.0
C999 C 0.30952 0.30866 0.64396 0.0
H1000 H 0.28044 0.24032 0.63986 0.0
H1001 H 0.27815 0.27786 0.61263 0.0
S1002 S 0.36024 0.32999 0.71371 0.0
N1003 N 0.34677 0.29702 0.71255 0.0
N1004 N 0.34481 0.33784 0.68349 0.0
C1005 C 0.32755 0.31311 0.67105 0.0
C1006 C 0.32871 0.29112 0.6867 0.0
C1007 C 0.7931 0.11519 0.62272 0.0
C1008 C 0.79292 0.13504 0.64308 0.0
C1009 C 0.76959 0.09048 0.61664 0.0
C1010 C 0.74472 0.08418 0.63102 0.0
H1011 H 0.81182 0.1185 0.61192 0.0
H1012 H 0.77117 0.0759 0.60129 0.0
S1013 S 0.73303 0.12965 0.68546 0.0
N1014 N 0.7655 0.14705 0.67672 0.0
N1015 N 0.72135 0.10082 0.66569 0.0
C1016 C 0.74409 0.10425 0.65069 0.0
C1017 C 0.76809 0.12957 0.65656 0.0
C1018 C 0.94405 0.70604 0.66013 0.0
C1019 C 0.9274 0.70695 0.63405 0.0
C1020 C 0.9721 0.71815 0.65563 0.0
C1021 C 0.98443 0.73179 0.62507 0.0
H1022 H 0.93563 0.69732 0.68471 0.0
H1023 H 0.98431 0.71772 0.67673 0.0
S1024 S 0.94898 0.73639 0.54754 0.0
N1025 N 0.92478 0.71994 0.57549 0.0
N1026 N 0.97726 0.74287 0.56727 0.0
C1027 C 0.96773 0.7315 0.5983 0.0
C1028 C 0.93929 0.719 0.60274 0.0
C1029 C 0.91768 0.71497 0.20377 0.0
C1030 C 0.89201 0.69793 0.21746 0.0
C1031 C 0.94023 0.71277 0.21427 0.0
C1032 C 0.93804 0.69362 0.23909 0.0
H1033 H 0.92013 0.7292 0.18367 0.0
H1034 H 0.95939 0.72579 0.20221 0.0
S1035 S 0.87567 0.64625 0.28538 0.0
N1036 N 0.8661 0.66269 0.25891 0.0
N1037 N 0.9082 0.65875 0.27879 0.0
C1038 C 0.91268 0.67742 0.2541 0.0
C1039 C 0.88979 0.67953 0.24325 0.0
C1040 C 0.32237 0.31161 0.25845 0.0
C1041 C 0.34333 0.30756 0.24724 0.0
C1042 C 0.32721 0.33714 0.2677 0.0
C1043 C 0.35331 0.35962 0.26688 0.0
H1044 H 0.30191 0.29496 0.25963 0.0
H1045 H 0.3103 0.33938 0.27519 0.0
S1046 S 0.41518 0.36074 0.23822 0.0
N1047 N 0.39128 0.32906 0.23456 0.0
N1048 N 0.40032 0.37657 0.25357 0.0
C1049 C 0.37459 0.35594 0.25654 0.0
C1050 C 0.36964 0.33005 0.24637 0.0
C1051 C 0.785 0.1683 0.21812 0.0
C1052 C 0.7879 0.1912 0.23414 0.0
C1053 C 0.7602 0.14445 0.2178 0.0
C1054 C 0.7373 0.14248 0.23355 0.0
H1055 H 0.80145 0.16921 0.20381 0.0
H1056 H 0.75882 0.12775 0.20384 0.0
S1057 S 0.73582 0.19544 0.28431 0.0
N1058 N 0.767 0.20953 0.27013 0.0
N1059 N 0.72026 0.16459 0.26949 0.0
C1060 C 0.74056 0.16457 0.2521 0.0
C1061 C 0.76589 0.18894 0.25239 0.0
C1062 C 0.01544 0.49109 0.89914 0.0
C1063 C 0.99399 0.47537 0.92145 0.0
C1064 C 0.02115 0.47975 0.87137 0.0
C1065 C 0.0055 0.45219 0.86431 0.0
H1066 H 0.02777 0.51251 0.90275 0.0
H1067 H 0.03771 0.49285 0.85491 0.0
S1068 S 0.9486 0.40151 0.91625 0.0
N1069 N 0.95833 0.43013 0.93571 0.0
N1070 N 0.96845 0.40913 0.88302 0.0
C1071 C 0.98423 0.43611 0.88658 0.0
C1072 C 0.97862 0.44759 0.91517 0.0
C1073 C 0.57806 0.59018 0.90016 0.0
C1074 C 0.559 0.59846 0.90505 0.0
C1075 C 0.59598 0.60011 0.87268 0.0
C1076 C 0.59566 0.61886 0.84921 0.0
H1077 H 0.57868 0.57547 0.9173 0.0
H1078 H 0.61003 0.59283 0.8697 0.0
S1079 S 0.55119 0.64881 0.85298 0.0
N1080 N 0.54204 0.62775 0.88574 0.0
N1081 N 0.57545 0.64641 0.83417 0.0
C1082 C 0.57709 0.6278 0.85448 0.0
C1083 C 0.55884 0.6176 0.88235 0.0
C1084 C 0.47099 0.02855 0.88342 0.0
C1085 C 0.46062 0.00436 0.9022 0.0
C1086 C 0.45849 0.03005 0.85307 0.0
C1087 C 0.43544 0.00733 0.84046 0.0
H1088 H 0.4891 0.04624 0.89196 0.0
H1089 H 0.46706 0.049 0.83919 0.0
S1090 S 0.39825 0.94041 0.88274 0.0
N1091 N 0.42433 0.95811 0.90796 0.0
N1092 N 0.40135 0.96068 0.85059 0.0
C1093 C 0.4245 0.98325 0.85949 0.0
C1094 C 0.43697 0.98184 0.89048 0.0
C1095 C 0.45537 0.02097 0.62458 0.0
C1096 C 0.44088 1.00118 0.60016 0.0
C1097 C 0.44302 0.02277 0.65396 0.0
C1098 C 0.41567 0.00469 0.66046 0.0
H1099 H 0.47664 0.03498 0.62133 0.0
H1100 H 0.45526 0.03818 0.67209 0.0
S1101 S 0.36813 0.95018 0.60381 0.0
N1102 N 0.39717 0.96401 0.58362 0.0
N1103 N 0.37408 0.96689 0.63952 0.0
C1104 C 0.40077 0.98489 0.63623 0.0
C1105 C 0.41334 0.98324 0.60598 0.0
C1106 C 0.03034 0.49926 0.64333 0.0
C1107 C 0.05514 0.50954 0.62633 0.0
C1108 C 0.02411 0.48204 0.67188 0.0
C1109 C 0.0425 0.47452 0.68503 0.0
H1110 H 0.01513 0.50379 0.63393 0.0
H1111 H 0.00453 0.47433 0.68346 0.0
S1112 S 0.11144 0.49817 0.65226 0.0
N1113 N 0.099 0.51249 0.62655 0.0
N1114 N 0.08744 0.48023 0.6799 0.0
C1115 C 0.06775 0.48538 0.66897 0.0
C1116 C 0.07402 0.50282 0.6398 0.0
C1117 C 0.55964 0.5652 0.64656 0.0
C1118 C 0.5585 0.57936 0.6175 0.0
C1119 C 0.57831 0.57833 0.673 0.0
C1120 C 0.59618 0.60631 0.67187 0.0
H1121 H 0.54582 0.54381 0.64906 0.0
H1122 H 0.57817 0.56653 0.69493 0.0
S1123 S 0.60123 0.65271 0.60155 0.0
N1124 N 0.57709 0.62297 0.58919 0.0
N1125 N 0.61168 0.64761 0.63887 0.0
C1126 C 0.59539 0.62065 0.64281 0.0
C1127 C 0.57672 0.6072 0.61566 0.0
C1128 C 0.01911 0.61095 0.13532 0.0
C1129 C 0.99373 0.58821 0.12847 0.0
C1130 C 0.02241 0.62959 0.16047 0.0
C1131 C 1.00051 0.62619 0.18008 0.0
H1132 H 0.03672 0.61411 0.12162 0.0
H1133 H 0.04236 0.64647 0.16505 0.0
S1134 S 0.92927 0.5721 0.16951 0.0
N1135 N 0.94591 0.56516 0.14141 0.0
N1136 N 0.95216 0.59934 0.18893 0.0
C1137 C 0.97495 0.60397 0.17284 0.0
C1138 C 0.97155 0.58524 0.14707 0.0
C1139 C 0.44486 0.50595 0.14281 0.0
C1140 C 0.4719 0.52026 0.15367 0.0
C1141 C 0.42396 0.49139 0.16595 0.0
C1142 C 0.42918 0.49056 0.20101 0.0
H1143 H 0.43984 0.50539 0.11607 0.0
H1144 H 0.40355 0.48039 0.15606 0.0
S1145 S 0.49662 0.52661 0.24267 0.0
N1146 N 0.50278 0.5341 0.20186 0.0
N1147 N 0.46368 0.50672 0.24548 0.0
C1148 C 0.45619 0.50536 0.21227 0.0
C1149 C 0.47746 0.52017 0.18861 0.0
C1150 C 0.57549 0.09375 0.1224 0.0
C1151 C 0.58292 0.09969 0.088 0.0
C1152 C 0.592 0.09004 0.14617 0.0
C1153 C 0.61639 0.09177 0.13638 0.0
H1154 H 0.55586 0.08982 0.13053 0.0
H1155 H 0.58473 0.08408 0.1719 0.0
S1156 S 0.64725 0.11192 0.05088 0.0
N1157 N 0.6181 0.11116 0.04662 0.0
N1158 N 0.6489 0.10362 0.09096 0.0
C1159 C 0.62508 0.09991 0.10275 0.0
C1160 C 0.60846 0.1041 0.07874 0.0
C1161 C 0.54652 0.02059 0.354 0.0
C1162 C 0.54813 0.03911 0.378 0.0
C1163 C 0.56464 0.02867 0.3269 0.0
C1164 C 0.58519 0.05562 0.32279 0.0
H1165 H 0.53158 0.99952 0.35668 0.0
H1166 H 0.56292 0.01349 0.30957 0.0
S1167 S 0.59607 0.11261 0.37631 0.0
N1168 N 0.57032 0.08612 0.39397 0.0
N1169 N 0.60483 0.10116 0.34364 0.0
C1170 C 0.58652 0.07451 0.34599 0.0
C1171 C 0.56791 0.06631 0.37344 0.0
C1172 C 0.03621 0.61189 0.38125 0.0
C1173 C 0.03578 0.61462 0.41672 0.0
C1174 C 0.02769 0.62557 0.35843 0.0
C1175 C 0.01836 0.64251 0.37017 0.0
H1176 H 0.04259 0.59859 0.37109 0.0
H1177 H 0.02797 0.62245 0.33143 0.0
S1178 S 0.01683 0.65932 0.46062 0.0
N1179 N 0.02784 0.63765 0.46222 0.0
N1180 N 0.01157 0.66291 0.41993 0.0
C1181 C 0.01874 0.64605 0.40563 0.0
C1182 C 0.0275 0.63225 0.4287 0.0
C1183 C 0.49157 0.53346 0.40158 0.0
C1184 C 0.48995 0.52519 0.43589 0.0
C1185 C 0.47197 0.51746 0.37752 0.0
C1186 C 0.44998 0.49224 0.38642 0.0
H1187 H 0.50757 0.55298 0.39331 0.0
H1188 H 0.47388 0.52521 0.35174 0.0
S1189 S 0.437 0.46011 0.47217 0.0
N1190 N 0.46495 0.48922 0.47706 0.0
N1191 N 0.42841 0.45907 0.43168 0.0
C1192 C 0.44867 0.48307 0.42021 0.0
C1193 C 0.46853 0.49953 0.44493 0.0
C1194 C 0.68147 0.83982 0.24568 0.0
C1195 C 0.69976 0.86769 0.24553 0.0
C1196 C 0.67752 0.82421 0.21638 0.0
C1197 C 0.69191 0.83589 0.18603 0.0
H1198 H 0.67114 0.82982 0.26891 0.0
H1199 H 0.66393 0.80273 0.21794 0.0
S1200 S 0.73904 0.90865 0.17112 0.0
N1201 N 0.72993 0.90656 0.2111 0.0
N1202 N 0.72293 0.8776 0.15708 0.0
C1203 C 0.70908 0.86391 0.18528 0.0
C1204 C 0.71287 0.87966 0.21469 0.0
C1205 C 0.26014 0.9349 0.28766 0.0
C1206 C 0.23272 0.92755 0.28746 0.0
C1207 C 0.27571 0.94503 0.25791 0.0
C1208 C 0.26429 0.94822 0.22728 0.0
H1209 H 0.26996 0.93441 0.31125 0.0
H1210 H 0.29708 0.95182 0.25941 0.0
S1211 S 0.19225 0.92728 0.21253 0.0
N1212 N 0.19411 0.92077 0.25325 0.0
N1213 N 0.22312 0.93978 0.19784 0.0
C1214 C 0.23647 0.93902 0.22643 0.0
C1215 C 0.22075 0.9287 0.25641 0.0
C1216 C 0.1083 0.34169 0.21946 0.0
C1217 C 0.13612 0.35795 0.22463 0.0
C1218 C 0.09534 0.34677 0.19218 0.0
C1219 C 0.10981 0.36879 0.16998 0.0
H1220 H 0.09652 0.32541 0.23716 0.0
H1221 H 0.07372 0.33407 0.18932 0.0
S1222 S 0.18335 0.41669 0.17269 0.0
N1223 N 0.17797 0.39601 0.20527 0.0
N1224 N 0.15364 0.40623 0.15425 0.0
C1225 C 0.1378 0.38483 0.17462 0.0
C1226 C 0.15098 0.37925 0.20196 0.0
C1227 C 0.09097 0.3251 0.96557 0.0
C1228 C 0.11833 0.33225 0.96687 0.0
C1229 C 0.08093 0.3374 0.98676 0.0
C1230 C 0.09801 0.35747 0.0096 0.0
H1231 H 0.07746 0.31054 0.94736 0.0
H1232 H 0.05976 0.33142 0.98491 0.0
S1233 S 0.1707 0.38126 0.02482 0.0
N1234 N 0.16177 0.35895 0.99445 0.0
N1235 N 0.14326 0.3825 0.03376 0.0
C1236 C 0.12528 0.36429 0.01158 0.0
C1237 C 0.13533 0.35155 0.99037 0.0
C1238 C 0.68824 0.83484 0.93795 0.0
C1239 C 0.67471 0.84963 0.93401 0.0
C1240 C 0.6901 0.82413 0.96978 0.0
C1241 C 0.67793 0.8271 0.99895 0.0
H1242 H 0.69855 0.83251 0.91659 0.0
H1243 H 0.70133 0.81352 0.97155 0.0
S1244 S 0.63887 0.86274 1.00213 0.0
N1245 N 0.64838 0.86608 0.96208 0.0
N1246 N 0.65093 0.84503 0.02142 0.0
C1247 C 0.66345 0.84092 0.99512 0.0
C1248 C 0.66212 0.85242 0.96286 0.0
C1249 C 0.24359 0.9693 0.99408 0.0
C1250 C 0.22953 0.94182 0.9862 0.0
C1251 C 0.25979 0.97864 0.02347 0.0
C1252 C 0.26268 0.96089 0.04621 0.0
H1253 H 0.24242 0.98379 0.9771 0.0
H1254 H 0.27032 1.00001 0.02821 0.0
S1255 S 0.22821 0.88668 0.03893 0.0
N1256 N 0.2181 0.89674 1.00497 0.0
N1257 N 0.24893 0.91427 0.05956 0.0
C1258 C 0.24841 0.9333 0.03889 0.0
C1259 C 0.23177 0.92378 0.0091 0.0
C1260 C 0.72235 0.96816 0.44222 0.0
C1261 C 0.70408 0.94284 0.42845 0.0
C1262 C 0.71767 0.97685 0.47314 0.0
C1263 C 0.69441 0.96078 0.49238 0.0
H1264 H 0.74076 0.98177 0.42899 0.0
H1265 H 0.7326 0.99654 0.48196 0.0
S1266 S 0.63971 0.89265 0.4684 0.0
N1267 N 0.66144 0.90168 0.43694 0.0
N1268 N 0.65252 0.91794 0.49515 0.0
C1269 C 0.67576 0.93534 0.47911 0.0
C1270 C 0.68058 0.92644 0.44726 0.0
C1271 C 0.14219 0.83566 0.45562 0.0
C1272 C 0.16177 0.86034 0.4693 0.0
C1273 C 0.12184 0.81568 0.47606 0.0
C1274 C 0.12051 0.81929 0.51118 0.0
H1275 H 0.14163 0.83229 0.42857 0.0
H1276 H 0.10669 0.79744 0.46407 0.0
S1277 S 0.16837 0.87944 0.55993 0.0
N1278 N 0.17937 0.88671 0.52045 0.0
N1279 N 0.14173 0.84899 0.55897 0.0
C1280 C 0.14084 0.84332 0.52546 0.0
C1281 C 0.16125 0.86385 0.50452 0.0
C1282 C 0.22695 0.33855 0.43736 0.0
C1283 C 0.20244 0.3361 0.44772 0.0
C1284 C 0.24747 0.34342 0.46087 0.0
C1285 C 0.24432 0.34638 0.49561 0.0
H1286 H 0.23045 0.33733 0.41067 0.0
H1287 H 0.26612 0.34548 0.45156 0.0
S1288 S 0.18343 0.34114 0.53562 0.0
N1289 N 0.17581 0.33654 0.49475 0.0
N1290 N 0.21414 0.3455 0.53931 0.0
C1291 C 0.21953 0.34332 0.50639 0.0
C1292 C 0.19861 0.33817 0.48237 0.0
C1293 C 0.21523 0.35735 0.73315 0.0
C1294 C 0.19385 0.33075 0.73675 0.0
C1295 C 0.23174 0.36568 0.70454 0.0
C1296 C 0.22742 0.34781 0.67821 0.0
H1297 H 0.21955 0.37182 0.75288 0.0
H1298 H 0.24846 0.38611 0.70354 0.0
S1299 S 0.17276 0.27652 0.67413 0.0
N1300 N 0.1683 0.28699 0.71091 0.0
N1301 N 0.19896 0.30263 0.65655 0.0
C1302 C 0.20518 0.32151 0.68061 0.0
C1303 C 0.18847 0.313 0.70999 0.0
C1304 C 0.67247 0.92348 0.75115 0.0
C1305 C 0.68977 0.91339 0.74411 0.0
C1306 C 0.66733 0.93887 0.72681 0.0
C1307 C 0.67902 0.94475 0.69407 0.0
H1308 H 0.66365 0.92039 0.77613 0.0
H1309 H 0.65441 0.94667 0.73409 0.0
S1310 S 0.7238 0.92076 0.66165 0.0
N1311 N 0.71717 0.90886 0.70101 0.0
N1312 N 0.70739 0.93741 0.65558 0.0
C1313 C 0.69541 0.93373 0.68626 0.0
C1314 C 0.70081 0.91823 0.71112 0.0
C1315 C 0.12213 0.85989 0.73249 0.0
C1316 C 0.13683 0.85418 0.75697 0.0
C1317 C 0.11 0.84312 0.70449 0.0
C1318 C 0.11225 0.82003 0.69967 0.0
H1319 H 0.1197 0.87729 0.73529 0.0
H1320 H 0.09863 0.84829 0.68657 0.0
S1321 S 0.15083 0.79759 0.75496 0.0
N1322 N 0.15455 0.8248 0.77337 0.0
N1323 N 0.13162 0.79322 0.72116 0.0
C1324 C 0.12739 0.8144 0.72369 0.0
C1325 C 0.1397 0.83147 0.7522 0.0
C1326 C 0.41258 0.19432 0.613 0.0
C1327 C 0.39211 0.19852 0.62583 0.0
C1328 C 0.41122 0.18492 0.57975 0.0
C1329 C 0.38899 0.17859 0.55807 0.0
H1330 H 0.42974 0.1981 0.62889 0.0
H1331 H 0.42739 0.18183 0.57135 0.0
S1332 S 0.33026 0.18654 0.57862 0.0
N1333 N 0.34923 0.19632 0.61329 0.0
N1334 N 0.34641 0.17806 0.55163 0.0
C1335 C 0.36857 0.183 0.57038 0.0
C1336 C 0.3702 0.19311 0.60393 0.0
C1337 C 0.90474 0.26167 0.57168 0.0
C1338 C 0.91881 0.24865 0.58352 0.0
C1339 C 0.91421 0.28006 0.54426 0.0
C1340 C 0.93823 0.28636 0.52755 0.0
H1341 H 0.88674 0.25843 0.58441 0.0
H1342 H 0.90295 0.28995 0.53675 0.0
S1343 S 0.98123 0.25589 0.54625 0.0
N1344 N 0.95687 0.24188 0.57451 0.0
N1345 N 0.97496 0.27669 0.52344 0.0
C1346 C 0.95208 0.27291 0.53843 0.0
C1347 C 0.94234 0.25407 0.56626 0.0
C1348 C 0.77996 0.6731 0.53927 0.0
C1349 C 0.80232 0.69408 0.5558 0.0
C1350 C 0.76507 0.67837 0.51485 0.0
C1351 C 0.772 0.70486 0.50595 0.0
H1352 H 0.77393 0.65238 0.54529 0.0
H1353 H 0.74816 0.66151 0.50269 0.0
S1354 S 0.82887 0.76696 0.54213 0.0
N1355 N 0.83069 0.74223 0.56188 0.0
N1356 N 0.80268 0.75245 0.51608 0.0
C1357 C 0.79413 0.72609 0.52272 0.0
C1358 C 0.80926 0.72063 0.54768 0.0
C1359 C 0.75327 0.66779 0.29278 0.0
C1360 C 0.76664 0.68748 0.26733 0.0
C1361 C 0.7442 0.67378 0.32256 0.0
C1362 C 0.74843 0.69976 0.32801 0.0
H1363 H 0.75055 0.64785 0.29017 0.0
H1364 H 0.73468 0.65825 0.34191 0.0
S1365 S 0.7786 0.75729 0.26722 0.0
N1366 N 0.7805 0.73306 0.24793 0.0
N1367 N 0.76448 0.74451 0.30426 0.0
C1368 C 0.76073 0.71926 0.3022 0.0
C1369 C 0.76957 0.71309 0.27177 0.0
C1370 C 0.39329 0.20259 0.30666 0.0
C1371 C 0.37479 0.21198 0.30386 0.0
C1372 C 0.39742 0.19243 0.33793 0.0
C1373 C 0.38318 0.19128 0.36752 0.0
H1374 H 0.4035 0.20168 0.28423 0.0
H1375 H 0.41096 0.18434 0.33852 0.0
S1376 S 0.33546 0.21707 0.37449 0.0
N1377 N 0.34434 0.22205 0.33415 0.0
N1378 N 0.35203 0.20322 0.39232 0.0
C1379 C 0.36591 0.20214 0.36529 0.0
C1380 C 0.36175 0.2124 0.33367 0.0
C1381 C 0.91286 0.30398 0.29868 0.0
C1382 C 0.89587 0.31438 0.28958 0.0
C1383 C 0.92765 0.31095 0.3292 0.0
C1384 C 0.92593 0.32847 0.35214 0.0
H1385 H 0.91488 0.29039 0.28193 0.0
H1386 H 0.94039 0.30234 0.3349 0.0
S1387 S 0.88398 0.361 0.34036 0.0
N1388 N 0.87804 0.34295 0.30586 0.0
N1389 N 0.9057 0.35618 0.36337 0.0
C1390 C 0.90907 0.33917 0.34324 0.0
C1391 C 0.89414 0.33214 0.31194 0.0
C1392 C 0.39732 0.30513 0.79058 0.0
C1393 C 0.39035 0.27786 0.78915 0.0
C1394 C 0.39508 0.3166 0.8208 0.0
C1395 C 0.38528 0.30128 0.85101 0.0
H1396 H 0.40393 0.31766 0.76785 0.0
H1397 H 0.40013 0.33746 0.82005 0.0
S1398 S 0.36589 0.22946 0.86202 0.0
N1399 N 0.37476 0.23631 0.82175 0.0
N1400 N 0.37 0.25762 0.878 0.0
C1401 C 0.37907 0.27424 0.85033 0.0
C1402 C 0.38178 0.26264 0.81966 0.0
C1403 C 0.78407 0.14056 0.79186 0.0
C1404 C 0.81142 0.15177 0.80109 0.0
C1405 C 0.76354 0.12791 0.81598 0.0
C1406 C 0.7694 0.12604 0.85056 0.0
H1407 H 0.77841 0.14108 0.76556 0.0
H1408 H 0.74284 0.11928 0.80724 0.0
S1409 S 0.83808 0.15358 0.8882 0.0
N1410 N 0.84345 0.16121 0.84732 0.0
N1411 N 0.80502 0.13741 0.89281 0.0
C1412 C 0.7968 0.13766 0.86025 0.0
C1413 C 0.81772 0.15042 0.83551 0.0
C1414 C 0.89942 0.72872 0.8016 0.0
C1415 C 0.9099 0.73889 0.76905 0.0
C1416 C 0.91424 0.72292 0.82591 0.0
C1417 C 0.93987 0.72666 0.81834 0.0
H1418 H 0.879 0.72358 0.80763 0.0
H1419 H 0.90491 0.71401 0.85005 0.0
S1420 S 0.9781 0.75707 0.739 0.0
N1421 N 0.94897 0.75598 0.7325 0.0
N1422 N 0.9764 0.7443 0.7775 0.0
C1423 C 0.95127 0.73852 0.78679 0.0
C1424 C 0.93643 0.74488 0.7624 0.0
C1425 C 0.89286 0.70987 0.04844 0.0
C1426 C 0.87043 0.6843 0.05509 0.0
C1427 C 0.91189 0.71372 0.0237 0.0
C1428 C 0.90916 0.69222 1.0043 0.0
H1429 H 0.89558 0.72721 0.06209 0.0
H1430 H 0.92864 0.73381 0.01941 0.0
S1431 S 0.85541 0.62088 0.01343 0.0
N1432 N 0.84772 0.63683 0.0416 0.0
N1433 N 0.88296 0.64415 0.99449 0.0
C1434 C 0.88702 0.66649 0.01086 0.0
C1435 C 0.8678 0.66252 0.03634 0.0
C1436 C 0.37706 0.25983 0.07178 0.0
C1437 C 0.37919 0.267 0.10633 0.0
C1438 C 0.37428 0.27548 0.0455 0.0
C1439 C 0.37293 0.29868 0.05268 0.0
H1440 H 0.37655 0.24139 0.06503 0.0
H1441 H 0.37174 0.26855 0.0196 0.0
S1442 S 0.37996 0.32776 0.13835 0.0
N1443 N 0.38183 0.30031 0.14566 0.0
N1444 N 0.37621 0.32926 0.09679 0.0
C1445 C 0.37636 0.30678 0.08692 0.0
C1446 C 0.37963 0.29113 0.11355 0.0
C1447 C 0.78832 0.20276 0.04662 0.0
C1448 C 0.79204 0.19816 0.081 0.0
C1449 C 0.77691 0.18157 0.0234 0.0
C1450 C 0.76878 0.15491 0.03363 0.0
H1451 H 0.79473 0.22297 0.03748 0.0
H1452 H 0.77462 0.1862 0.99713 0.0
S1453 S 0.77143 0.13182 0.12175 0.0
N1454 N 0.78463 0.16464 0.12474 0.0
N1455 N 0.76372 0.12501 0.08118 0.0
C1456 C 0.7719 0.15 0.06814 0.0
C1457 C 0.78337 0.17154 0.09178 0.0
loop_
_geom_bond_atom_site_label_1
_geom_bond_atom_site_label_2
_geom_bond_distance
_geom_bond_site_symmetry_2
_ccdc_geom_bond_type
Cu0 N1 1.999 . S
Cu0 O6 1.974 1_554 S
Cu0 N11 1.985 1_554 S
Cu0 O20 1.959 . S
N1 Cu0 1.999 . S
N1 C3 1.263 . S
N1 C5 1.389 . S
N2 C3 1.358 . S
N2 C4 1.400 . S
C3 N1 1.263 . S
C3 N2 1.358 . S
C3 H9 0.930 . S
C4 N2 1.400 . S
C4 C5 1.351 . S
C4 H21 0.930 . S
C5 N1 1.389 . S
C5 C4 1.351 . S
C5 H10 0.930 . S
O6 Cu0 1.974 1_556 S
O6 C16 1.282 . S
C7 O8 1.261 . S
C7 O20 1.251 . S
O8 C7 1.261 . S
H9 C3 0.930 . S
H10 C5 0.930 . S
N11 Cu0 1.985 1_556 S
N11 C13 1.335 . S
N11 C14 1.390 . S
N12 C13 1.345 . S
N12 C15 1.336 . S
C13 N11 1.335 . S
C13 N12 1.345 . S
C13 H18 0.930 . S
C14 N11 1.390 . S
C14 C15 1.346 . S
C14 H19 0.930 . S
C15 N12 1.336 . S
C15 C14 1.346 . S
C15 H22 0.929 . S
C16 O6 1.282 . S
C16 O17 1.216 . S
O17 C16 1.216 . S
H18 C13 0.930 . S
H19 C14 0.930 . S
O20 Cu0 1.959 . S
O20 C7 1.251 . S
H21 C4 0.930 . S
H22 C15 0.929 . S
Cu23 N24 1.999 1_554 S
Cu23 O29 1.974 . S
Cu23 N34 1.985 . S
Cu23 O43 1.959 1_554 S
N24 Cu23 1.999 1_556 S
N24 C26 1.263 . S
N24 C28 1.389 . S
N25 C26 1.358 . S
N25 C27 1.400 . S
C26 N24 1.263 . S
C26 N25 1.358 . S
C26 H32 0.930 . S
C27 N25 1.400 . S
C27 C28 1.351 . S
C27 H44 0.930 . S
C28 N24 1.389 . S
C28 C27 1.351 . S
C28 H33 0.930 . S
O29 Cu23 1.974 . S
O29 C39 1.282 . S
C30 O31 1.258 1_556 S
C30 O43 1.251 . S
O31 C30 1.258 1_554 S
H32 C26 0.930 . S
H33 C28 0.930 . S
N34 Cu23 1.985 . S
N34 C36 1.335 . S
N34 C37 1.390 . S
N35 C36 1.345 . S
N35 C38 1.336 . S
C36 N34 1.335 . S
C36 N35 1.345 . S
C36 H41 0.930 . S
C37 N34 1.390 . S
C37 C38 1.346 . S
C37 H42 0.930 . S
C38 N35 1.336 . S
C38 C37 1.346 . S
C38 H45 0.929 . S
C39 O29 1.282 . S
C39 O40 1.216 . S
O40 C39 1.216 . S
H41 C36 0.930 . S
H42 C37 0.930 . S
O43 Cu23 1.959 1_556 S
O43 C30 1.251 . S
H44 C27 0.930 . S
H45 C38 0.929 . S
Cu46 N47 1.999 1_544 S
Cu46 O52 1.974 1_545 S
Cu46 N57 1.985 . S
Cu46 O66 1.959 . S
N47 Cu46 1.999 1_566 S
N47 C49 1.263 1_565 S
N47 C51 1.389 . S
N48 C49 1.358 1_565 S
N48 C50 1.400 . S
C49 N47 1.263 1_545 S
C49 N48 1.358 1_545 S
C49 H55 0.930 . S
C50 N48 1.400 . S
C50 C51 1.351 . S
C50 H67 0.930 . S
C51 N47 1.389 . S
C51 C50 1.351 . S
C51 H56 0.930 . S
O52 Cu46 1.974 1_565 S
O52 C62 1.282 1_565 S
C53 O54 1.260 1_556 S
C53 O66 1.249 1_556 S
O54 C53 1.260 1_554 S
H55 C49 0.930 . S
H56 C51 0.930 . S
N57 Cu46 1.985 . S
N57 C59 1.335 . S
N57 C60 1.390 . S
N58 C59 1.345 . S
N58 C61 1.336 . S
C59 N57 1.335 . S
C59 N58 1.345 . S
C59 H64 0.930 . S
C60 N57 1.390 . S
C60 C61 1.346 . S
C60 H65 0.930 . S
C61 N58 1.336 . S
C61 C60 1.346 . S
C61 H68 0.929 . S
C62 O52 1.282 1_545 S
C62 O63 1.216 . S
O63 C62 1.216 . S
H64 C59 0.930 . S
H65 C60 0.930 . S
O66 Cu46 1.959 . S
O66 C53 1.249 1_554 S
H67 C50 0.930 . S
H68 C61 0.929 . S
Cu69 N70 1.999 . S
Cu69 O75 1.974 . S
Cu69 N80 1.985 . S
Cu69 O89 1.959 . S
N70 Cu69 1.999 . S
N70 C72 1.263 . S
N70 C74 1.389 . S
N71 C72 1.358 . S
N71 C73 1.400 . S
C72 N70 1.263 . S
C72 N71 1.358 . S
C72 H78 0.930 . S
C73 N71 1.400 . S
C73 C74 1.351 . S
C73 H90 0.930 . S
C74 N70 1.389 . S
C74 C73 1.351 . S
C74 H79 0.930 . S
O75 Cu69 1.974 . S
O75 C85 1.282 1_545 S
C76 O77 1.261 . S
C76 O89 1.251 . S
O77 C76 1.261 . S
H78 C72 0.930 . S
H79 C74 0.930 . S
N80 Cu69 1.985 . S
N80 C82 1.335 . S
N80 C83 1.390 . S
N81 C82 1.345 . S
N81 C84 1.336 . S
C82 N80 1.335 . S
C82 N81 1.345 . S
C82 H87 0.930 . S
C83 N80 1.390 . S
C83 C84 1.346 . S
C83 H88 0.930 1_545 S
C84 N81 1.336 . S
C84 C83 1.346 . S
C84 H91 0.929 1_545 S
C85 O75 1.282 1_565 S
C85 O86 1.216 . S
O86 C85 1.216 . S
H87 C82 0.930 . S
H88 C83 0.930 1_565 S
O89 Cu69 1.959 . S
O89 C76 1.251 . S
H90 C73 0.930 . S
H91 C84 0.929 1_565 S
Cu92 N93 1.999 . S
Cu92 O98 1.974 . S
Cu92 N103 1.985 . S
Cu92 O112 1.959 . S
N93 Cu92 1.999 . S
N93 C95 1.263 . S
N93 C97 1.389 . S
N94 C95 1.358 . S
N94 C96 1.400 . S
C95 N93 1.263 . S
C95 N94 1.358 . S
C95 H101 0.930 . S
C96 N94 1.400 . S
C96 C97 1.351 . S
C96 H113 0.930 . S
C97 N93 1.389 . S
C97 C96 1.351 . S
C97 H102 0.930 . S
O98 Cu92 1.974 . S
O98 C108 1.282 . S
C99 O100 1.261 . S
C99 O112 1.251 . S
O100 C99 1.261 . S
H101 C95 0.930 . S
H102 C97 0.930 . S
N103 Cu92 1.985 . S
N103 C105 1.335 . S
N103 C106 1.390 . S
N104 C105 1.345 . S
N104 C107 1.336 . S
C105 N103 1.335 . S
C105 N104 1.345 . S
C105 H110 0.930 . S
C106 N103 1.390 . S
C106 C107 1.346 . S
C106 H111 0.930 . S
C107 N104 1.336 . S
C107 C106 1.346 . S
C107 H114 0.929 . S
C108 O98 1.282 . S
C108 O109 1.216 . S
O109 C108 1.216 . S
H110 C105 0.930 . S
H111 C106 0.930 . S
O112 Cu92 1.959 . S
O112 C99 1.251 . S
H113 C96 0.930 . S
H114 C107 0.929 . S
Cu115 N116 1.999 . S
Cu115 O121 1.974 . S
Cu115 N126 1.985 . S
Cu115 O135 1.959 . S
N116 Cu115 1.999 . S
N116 C118 1.263 . S
N116 C120 1.389 . S
N117 C118 1.358 . S
N117 C119 1.400 . S
C118 N116 1.263 . S
C118 N117 1.358 . S
C118 H124 0.930 . S
C119 N117 1.400 . S
C119 C120 1.351 . S
C119 H136 0.930 . S
C120 N116 1.389 . S
C120 C119 1.351 . S
C120 H125 0.930 . S
O121 Cu115 1.974 . S
O121 C131 1.282 . S
C122 O123 1.261 . S
C122 O135 1.251 . S
O123 C122 1.261 . S
H124 C118 0.930 . S
H125 C120 0.930 . S
N126 Cu115 1.985 . S
N126 C128 1.335 . S
N126 C129 1.390 . S
N127 C128 1.345 . S
N127 C130 1.336 . S
C128 N126 1.335 . S
C128 N127 1.345 . S
C128 H133 0.930 . S
C129 N126 1.390 . S
C129 C130 1.346 . S
C129 H134 0.930 . S
C130 N127 1.336 . S
C130 C129 1.346 . S
C130 H137 0.929 . S
C131 O121 1.282 . S
C131 O132 1.216 . S
O132 C131 1.216 . S
H133 C128 0.930 . S
H134 C129 0.930 . S
O135 Cu115 1.959 . S
O135 C122 1.251 . S
H136 C119 0.930 . S
H137 C130 0.929 . S
Cu138 N139 1.999 . S
Cu138 O144 1.974 . S
Cu138 N149 1.985 . S
Cu138 O158 1.959 . S
N139 Cu138 1.999 . S
N139 C141 1.263 . S
N139 C143 1.389 . S
N140 C141 1.358 . S
N140 C142 1.400 . S
C141 N139 1.263 . S
C141 N140 1.358 . S
C141 H147 0.930 . S
C142 N140 1.400 . S
C142 C143 1.351 . S
C142 H159 0.930 . S
C143 N139 1.389 . S
C143 C142 1.351 . S
C143 H148 0.930 . S
O144 Cu138 1.974 . S
O144 C154 1.282 . S
C145 O146 1.261 . S
C145 O158 1.251 . S
O146 C145 1.261 . S
H147 C141 0.930 . S
H148 C143 0.930 . S
N149 Cu138 1.985 . S
N149 C151 1.335 . S
N149 C152 1.390 . S
N150 C151 1.345 . S
N150 C153 1.336 . S
C151 N149 1.335 . S
C151 N150 1.345 . S
C151 H156 0.930 . S
C152 N149 1.390 . S
C152 C153 1.346 . S
C152 H157 0.930 . S
C153 N150 1.336 . S
C153 C152 1.346 . S
C153 H160 0.929 . S
C154 O144 1.282 . S
C154 O155 1.216 . S
O155 C154 1.216 . S
H156 C151 0.930 . S
H157 C152 0.930 . S
O158 Cu138 1.959 . S
O158 C145 1.251 . S
H159 C142 0.930 . S
H160 C153 0.929 . S
Cu161 N162 1.999 . S
Cu161 O167 1.974 . S
Cu161 N172 1.985 . S
Cu161 O181 1.959 . S
N162 Cu161 1.999 . S
N162 C164 1.263 . S
N162 C166 1.389 . S
N163 C164 1.358 . S
N163 C165 1.400 . S
C164 N162 1.263 . S
C164 N163 1.358 . S
C164 H170 0.930 . S
C165 N163 1.400 . S
C165 C166 1.351 . S
C165 H182 0.930 . S
C166 N162 1.389 . S
C166 C165 1.351 . S
C166 H171 0.930 . S
O167 Cu161 1.974 . S
O167 C177 1.282 . S
C168 O169 1.261 . S
C168 O181 1.251 . S
O169 C168 1.261 . S
H170 C164 0.930 . S
H171 C166 0.930 . S
N172 Cu161 1.985 . S
N172 C174 1.335 . S
N172 C175 1.390 . S
N173 C174 1.345 . S
N173 C176 1.336 . S
C174 N172 1.335 . S
C174 N173 1.345 . S
C174 H179 0.930 . S
C175 N172 1.390 . S
C175 C176 1.346 . S
C175 H180 0.930 . S
C176 N173 1.336 . S
C176 C175 1.346 . S
C176 H183 0.929 . S
C177 O167 1.282 . S
C177 O178 1.216 . S
O178 C177 1.216 . S
H179 C174 0.930 . S
H180 C175 0.930 . S
O181 Cu161 1.959 . S
O181 C168 1.251 . S
H182 C165 0.930 . S
H183 C176 0.929 . S
Cu184 N185 1.999 . S
Cu184 O190 1.974 . S
Cu184 N195 1.985 . S
Cu184 O204 1.959 . S
N185 Cu184 1.999 . S
N185 C187 1.263 . S
N185 C189 1.389 . S
N186 C187 1.358 . S
N186 C188 1.400 . S
C187 N185 1.263 . S
C187 N186 1.358 . S
C187 H193 0.930 . S
C188 N186 1.400 . S
C188 C189 1.351 . S
C188 H205 0.930 . S
C189 N185 1.389 . S
C189 C188 1.351 . S
C189 H194 0.930 . S
O190 Cu184 1.974 . S
O190 C200 1.282 . S
C191 O192 1.261 . S
C191 O204 1.251 . S
O192 C191 1.261 . S
H193 C187 0.930 . S
H194 C189 0.930 . S
N195 Cu184 1.985 . S
N195 C197 1.335 . S
N195 C198 1.390 . S
N196 C197 1.345 . S
N196 C199 1.336 . S
C197 N195 1.335 . S
C197 N196 1.345 . S
C197 H202 0.930 . S
C198 N195 1.390 . S
C198 C199 1.346 . S
C198 H203 0.930 . S
C199 N196 1.336 . S
C199 C198 1.346 . S
C199 H206 0.929 . S
C200 O190 1.282 . S
C200 O201 1.216 . S
O201 C200 1.216 . S
H202 C197 0.930 . S
H203 C198 0.930 . S
O204 Cu184 1.959 . S
O204 C191 1.251 . S
H205 C188 0.930 . S
H206 C199 0.929 . S
Cu207 N208 1.999 . S
Cu207 O213 1.974 . S
Cu207 N218 1.985 . S
Cu207 O227 1.959 . S
N208 Cu207 1.999 . S
N208 C210 1.263 . S
N208 C212 1.389 . S
N209 C210 1.358 . S
N209 C211 1.400 . S
C210 N208 1.263 . S
C210 N209 1.358 . S
C210 H216 0.930 . S
C211 N209 1.400 . S
C211 C212 1.351 . S
C211 H228 0.930 . S
C212 N208 1.389 . S
C212 C211 1.351 . S
C212 H217 0.930 . S
O213 Cu207 1.974 . S
O213 C223 1.282 . S
C214 O215 1.261 . S
C214 O227 1.251 . S
O215 C214 1.261 . S
H216 C210 0.930 . S
H217 C212 0.930 . S
N218 Cu207 1.985 . S
N218 C220 1.335 . S
N218 C221 1.390 . S
N219 C220 1.345 . S
N219 C222 1.336 . S
C220 N218 1.335 . S
C220 N219 1.345 . S
C220 H225 0.930 . S
C221 N218 1.390 . S
C221 C222 1.346 . S
C221 H226 0.930 . S
C222 N219 1.336 . S
C222 C221 1.346 . S
C222 H229 0.929 . S
C223 O213 1.282 . S
C223 O224 1.216 . S
O224 C223 1.216 . S
H225 C220 0.930 . S
H226 C221 0.930 . S
O227 Cu207 1.959 . S
O227 C214 1.251 . S
H228 C211 0.930 . S
H229 C222 0.929 . S
Cu230 N231 1.999 . S
Cu230 O236 1.974 . S
Cu230 N241 1.985 . S
Cu230 O250 1.959 . S
N231 Cu230 1.999 . S
N231 C233 1.263 . S
N231 C235 1.389 . S
N232 C233 1.358 . S
N232 C234 1.400 . S
C233 N231 1.263 . S
C233 N232 1.358 . S
C233 H239 0.930 . S
C234 N232 1.400 . S
C234 C235 1.351 . S
C234 H251 0.930 . S
C235 N231 1.389 . S
C235 C234 1.351 . S
C235 H240 0.930 . S
O236 Cu230 1.974 . S
O236 C246 1.282 . S
C237 O238 1.261 . S
C237 O250 1.251 . S
O238 C237 1.261 . S
H239 C233 0.930 . S
H240 C235 0.930 . S
N241 Cu230 1.985 . S
N241 C243 1.335 . S
N241 C244 1.390 . S
N242 C243 1.345 . S
N242 C245 1.336 . S
C243 N241 1.335 . S
C243 N242 1.345 . S
C243 H248 0.930 . S
C244 N241 1.390 . S
C244 C245 1.346 . S
C244 H249 0.930 . S
C245 N242 1.336 . S
C245 C244 1.346 . S
C245 H252 0.929 . S
C246 O236 1.282 . S
C246 O247 1.216 . S
O247 C246 1.216 . S
H248 C243 0.930 . S
H249 C244 0.930 . S
O250 Cu230 1.959 . S
O250 C237 1.251 . S
H251 C234 0.930 . S
H252 C245 0.929 . S
Cu253 N254 1.999 . S
Cu253 O259 1.974 . S
Cu253 N264 1.985 . S
Cu253 O273 1.959 . S
N254 Cu253 1.999 . S
N254 C256 1.263 . S
N254 C258 1.389 . S
N255 C256 1.358 . S
N255 C257 1.400 . S
C256 N254 1.263 . S
C256 N255 1.358 . S
C256 H262 0.930 . S
C257 N255 1.400 . S
C257 C258 1.351 . S
C257 H274 0.930 . S
C258 N254 1.389 . S
C258 C257 1.351 . S
C258 H263 0.930 . S
O259 Cu253 1.974 . S
O259 C269 1.282 . S
C260 O261 1.261 . S
C260 O273 1.251 . S
O261 C260 1.261 . S
H262 C256 0.930 . S
H263 C258 0.930 . S
N264 Cu253 1.985 . S
N264 C266 1.335 . S
N264 C267 1.390 . S
N265 C266 1.345 . S
N265 C268 1.336 . S
C266 N264 1.335 . S
C266 N265 1.345 . S
C266 H271 0.930 . S
C267 N264 1.390 . S
C267 C268 1.346 . S
C267 H272 0.930 . S
C268 N265 1.336 . S
C268 C267 1.346 . S
C268 H275 0.929 . S
C269 O259 1.282 . S
C269 O270 1.216 . S
O270 C269 1.216 . S
H271 C266 0.930 . S
H272 C267 0.930 . S
O273 Cu253 1.959 . S
O273 C260 1.251 . S
H274 C257 0.930 . S
H275 C268 0.929 . S
Cu276 N277 1.999 . S
Cu276 O282 1.974 . S
Cu276 N287 1.985 . S
Cu276 O296 1.959 . S
N277 Cu276 1.999 . S
N277 C279 1.263 . S
N277 C281 1.389 . S
N278 C279 1.358 . S
N278 C280 1.400 . S
C279 N277 1.263 . S
C279 N278 1.358 . S
C279 H285 0.930 . S
C280 N278 1.400 . S
C280 C281 1.351 . S
C280 H297 0.930 . S
C281 N277 1.389 . S
C281 C280 1.351 . S
C281 H286 0.930 . S
O282 Cu276 1.974 . S
O282 C292 1.282 . S
C283 O284 1.261 . S
C283 O296 1.251 . S
O284 C283 1.261 . S
H285 C279 0.930 . S
H286 C281 0.930 . S
N287 Cu276 1.985 . S
N287 C289 1.335 . S
N287 C290 1.390 . S
N288 C289 1.345 . S
N288 C291 1.336 . S
C289 N287 1.335 . S
C289 N288 1.345 . S
C289 H294 0.930 . S
C290 N287 1.390 . S
C290 C291 1.346 . S
C290 H295 0.930 . S
C291 N288 1.336 . S
C291 C290 1.346 . S
C291 H298 0.929 . S
C292 O282 1.282 . S
C292 O293 1.216 . S
O293 C292 1.216 . S
H294 C289 0.930 . S
H295 C290 0.930 . S
O296 Cu276 1.959 . S
O296 C283 1.251 . S
H297 C280 0.930 . S
H298 C291 0.929 . S
Cu299 N300 1.999 . S
Cu299 O305 1.974 . S
Cu299 N310 1.985 . S
Cu299 O319 1.959 . S
N300 Cu299 1.999 . S
N300 C302 1.263 . S
N300 C304 1.389 . S
N301 C302 1.358 . S
N301 C303 1.400 . S
C302 N300 1.263 . S
C302 N301 1.358 . S
C302 H308 0.930 . S
C303 N301 1.400 . S
C303 C304 1.351 . S
C303 H320 0.930 . S
C304 N300 1.389 . S
C304 C303 1.351 . S
C304 H309 0.930 . S
O305 Cu299 1.974 . S
O305 C315 1.282 . S
C306 O307 1.261 . S
C306 O319 1.251 . S
O307 C306 1.261 . S
H308 C302 0.930 . S
H309 C304 0.930 . S
N310 Cu299 1.985 . S
N310 C312 1.335 . S
N310 C313 1.390 . S
N311 C312 1.345 . S
N311 C314 1.336 . S
C312 N310 1.335 . S
C312 N311 1.345 . S
C312 H317 0.930 . S
C313 N310 1.390 . S
C313 C314 1.346 . S
C313 H318 0.930 . S
C314 N311 1.336 . S
C314 C313 1.346 . S
C314 H321 0.929 . S
C315 O305 1.282 . S
C315 O316 1.216 . S
O316 C315 1.216 . S
H317 C312 0.930 . S
H318 C313 0.930 . S
O319 Cu299 1.959 . S
O319 C306 1.251 . S
H320 C303 0.930 . S
H321 C314 0.929 . S
Cu322 N323 1.999 . S
Cu322 O328 1.974 . S
Cu322 N333 1.985 . S
Cu322 O342 1.959 . S
N323 Cu322 1.999 . S
N323 C325 1.263 . S
N323 C327 1.389 . S
N324 C325 1.358 . S
N324 C326 1.400 . S
C325 N323 1.263 . S
C325 N324 1.358 . S
C325 H331 0.930 . S
C326 N324 1.400 . S
C326 C327 1.351 . S
C326 H343 0.930 . S
C327 N323 1.389 . S
C327 C326 1.351 . S
C327 H332 0.930 . S
O328 Cu322 1.974 . S
O328 C338 1.282 . S
C329 O330 1.261 . S
C329 O342 1.251 . S
O330 C329 1.261 . S
H331 C325 0.930 . S
H332 C327 0.930 . S
N333 Cu322 1.985 . S
N333 C335 1.335 . S
N333 C336 1.390 . S
N334 C335 1.345 . S
N334 C337 1.336 . S
C335 N333 1.335 . S
C335 N334 1.345 . S
C335 H340 0.930 . S
C336 N333 1.390 . S
C336 C337 1.346 . S
C336 H341 0.930 . S
C337 N334 1.336 . S
C337 C336 1.346 . S
C337 H344 0.929 . S
C338 O328 1.282 . S
C338 O339 1.216 . S
O339 C338 1.216 . S
H340 C335 0.930 . S
H341 C336 0.930 . S
O342 Cu322 1.959 . S
O342 C329 1.251 . S
H343 C326 0.930 . S
H344 C337 0.929 . S
Cu345 N346 1.999 . S
Cu345 O351 1.974 . S
Cu345 N356 1.985 . S
Cu345 O365 1.959 . S
N346 Cu345 1.999 . S
N346 C348 1.263 . S
N346 C350 1.389 . S
N347 C348 1.358 . S
N347 C349 1.400 . S
C348 N346 1.263 . S
C348 N347 1.358 . S
C348 H354 0.930 . S
C349 N347 1.400 . S
C349 C350 1.351 . S
C349 H366 0.930 . S
C350 N346 1.389 . S
C350 C349 1.351 . S
C350 H355 0.930 . S
O351 Cu345 1.974 . S
O351 C361 1.282 . S
C352 O353 1.261 . S
C352 O365 1.251 . S
O353 C352 1.261 . S
H354 C348 0.930 . S
H355 C350 0.930 . S
N356 Cu345 1.985 . S
N356 C358 1.335 . S
N356 C359 1.390 . S
N357 C358 1.345 . S
N357 C360 1.336 . S
C358 N356 1.335 . S
C358 N357 1.345 . S
C358 H363 0.930 . S
C359 N356 1.390 . S
C359 C360 1.346 . S
C359 H364 0.930 . S
C360 N357 1.336 . S
C360 C359 1.346 . S
C360 H367 0.929 . S
C361 O351 1.282 . S
C361 O362 1.216 . S
O362 C361 1.216 . S
H363 C358 0.930 . S
H364 C359 0.930 . S
O365 Cu345 1.959 . S
O365 C352 1.251 . S
H366 C349 0.930 . S
H367 C360 0.929 . S
Cu368 N369 1.999 . S
Cu368 O374 1.974 . S
Cu368 N379 1.985 . S
Cu368 O388 1.959 . S
N369 Cu368 1.999 . S
N369 C371 1.263 . S
N369 C373 1.389 . S
N370 C371 1.358 . S
N370 C372 1.400 . S
C371 N369 1.263 . S
C371 N370 1.358 . S
C371 H377 0.930 . S
C372 N370 1.400 . S
C372 C373 1.351 . S
C372 H389 0.930 . S
C373 N369 1.389 . S
C373 C372 1.351 . S
C373 H378 0.930 . S
O374 Cu368 1.974 . S
O374 C384 1.282 . S
C375 O376 1.261 . S
C375 O388 1.251 . S
O376 C375 1.261 . S
H377 C371 0.930 . S
H378 C373 0.930 . S
N379 Cu368 1.985 . S
N379 C381 1.335 . S
N379 C382 1.390 . S
N380 C381 1.345 . S
N380 C383 1.336 . S
C381 N379 1.335 . S
C381 N380 1.345 . S
C381 H386 0.930 . S
C382 N379 1.390 . S
C382 C383 1.346 . S
C382 H387 0.930 . S
C383 N380 1.336 . S
C383 C382 1.346 . S
C383 H390 0.929 . S
C384 O374 1.282 . S
C384 O385 1.216 . S
O385 C384 1.216 . S
H386 C381 0.930 . S
H387 C382 0.930 . S
O388 Cu368 1.959 . S
O388 C375 1.251 . S
H389 C372 0.930 . S
H390 C383 0.929 . S
Cu391 N392 1.999 . S
Cu391 O397 1.974 . S
Cu391 N402 1.985 . S
Cu391 O411 1.959 . S
N392 Cu391 1.999 . S
N392 C394 1.263 . S
N392 C396 1.389 . S
N393 C394 1.358 . S
N393 C395 1.400 . S
C394 N392 1.263 . S
C394 N393 1.358 . S
C394 H400 0.930 . S
C395 N393 1.400 . S
C395 C396 1.351 . S
C395 H412 0.930 . S
C396 N392 1.389 . S
C396 C395 1.351 . S
C396 H401 0.930 . S
O397 Cu391 1.974 . S
O397 C407 1.282 . S
C398 O399 1.261 . S
C398 O411 1.251 . S
O399 C398 1.261 . S
H400 C394 0.930 . S
H401 C396 0.930 . S
N402 Cu391 1.985 . S
N402 C404 1.335 . S
N402 C405 1.390 . S
N403 C404 1.345 . S
N403 C406 1.336 . S
C404 N402 1.335 . S
C404 N403 1.345 . S
C404 H409 0.930 . S
C405 N402 1.390 . S
C405 C406 1.346 . S
C405 H410 0.930 . S
C406 N403 1.336 . S
C406 C405 1.346 . S
C406 H413 0.929 . S
C407 O397 1.282 . S
C407 O408 1.216 . S
O408 C407 1.216 . S
H409 C404 0.930 . S
H410 C405 0.930 . S
O411 Cu391 1.959 . S
O411 C398 1.251 . S
H412 C395 0.930 . S
H413 C406 0.929 . S
C414 O415 1.306 1_455 S
C414 O417 1.160 . S
O415 C414 1.306 1_655 S
O415 Cd416 2.228 . S
Cd416 O415 2.228 . S
Cd416 O420 2.273 . S
Cd416 O424 2.277 1_655 S
O417 C414 1.160 . S
O417 Cd418 2.203 . S
Cd418 O417 2.203 . S
Cd418 O420 2.411 1_455 S
Cd418 O421 2.333 1_455 S
Cd418 O422 2.352 1_455 S
Cd418 O426 2.277 . S
Cd418 O427 2.356 . S
C419 O424 1.209 . S
C419 O426 1.226 . S
O420 Cd416 2.273 . S
O420 Cd418 2.411 1_655 S
O420 C423 1.320 . S
O421 Cd418 2.333 1_655 S
O421 C423 1.214 . S
O422 Cd418 2.352 1_655 S
O422 C425 1.258 1_655 S
C423 O420 1.320 . S
C423 O421 1.214 . S
O424 Cd416 2.277 1_455 S
O424 C419 1.209 . S
C425 O422 1.258 1_455 S
C425 O427 1.282 . S
O426 Cd418 2.277 . S
O426 C419 1.226 . S
O427 Cd418 2.356 . S
O427 C425 1.282 . S
C428 O429 1.306 . S
C428 O431 1.160 . S
O429 C428 1.306 . S
O429 Cd430 2.228 . S
Cd430 O429 2.228 . S
Cd430 O434 2.273 . S
Cd430 O438 2.277 . S
O431 C428 1.160 . S
O431 Cd432 2.203 . S
Cd432 O431 2.203 . S
Cd432 O434 2.411 . S
Cd432 O435 2.333 . S
Cd432 O436 2.352 . S
Cd432 O440 2.277 . S
Cd432 O441 2.356 . S
C433 O438 1.209 . S
C433 O440 1.226 . S
O434 Cd430 2.273 . S
O434 Cd432 2.411 . S
O434 C437 1.320 . S
O435 Cd432 2.333 . S
O435 C437 1.214 . S
O436 Cd432 2.352 . S
O436 C439 1.258 . S
C437 O434 1.320 . S
C437 O435 1.214 . S
O438 Cd430 2.277 . S
O438 C433 1.209 . S
C439 O436 1.258 . S
C439 O441 1.282 . S
O440 Cd432 2.277 . S
O440 C433 1.226 . S
O441 Cd432 2.356 . S
O441 C439 1.282 . S
C442 O443 1.306 . S
C442 O445 1.160 . S
O443 C442 1.306 . S
O443 Cd444 2.228 . S
Cd444 O443 2.228 . S
Cd444 O448 2.273 . S
Cd444 O452 2.277 . S
O445 C442 1.160 . S
O445 Cd446 2.203 . S
Cd446 O445 2.203 . S
Cd446 O448 2.411 . S
Cd446 O449 2.333 . S
Cd446 O450 2.352 . S
Cd446 O454 2.277 . S
Cd446 O455 2.356 . S
C447 O452 1.209 . S
C447 O454 1.226 . S
O448 Cd444 2.273 . S
O448 Cd446 2.411 . S
O448 C451 1.320 . S
O449 Cd446 2.333 . S
O449 C451 1.214 . S
O450 Cd446 2.352 . S
O450 C453 1.258 . S
C451 O448 1.320 . S
C451 O449 1.214 . S
O452 Cd444 2.277 . S
O452 C447 1.209 . S
C453 O450 1.258 . S
C453 O455 1.282 . S
O454 Cd446 2.277 . S
O454 C447 1.226 . S
O455 Cd446 2.356 . S
O455 C453 1.282 . S
C456 O457 1.306 . S
C456 O459 1.160 . S
O457 C456 1.306 . S
O457 Cd458 2.228 . S
Cd458 O457 2.228 . S
Cd458 O462 2.273 . S
Cd458 O466 2.277 1_455 S
O459 C456 1.160 . S
O459 Cd460 2.203 . S
Cd460 O459 2.203 . S
Cd460 O462 2.411 . S
Cd460 O463 2.333 . S
Cd460 O464 2.352 . S
Cd460 O468 2.277 1_455 S
Cd460 O469 2.356 1_455 S
C461 O466 1.209 . S
C461 O468 1.226 . S
O462 Cd458 2.273 . S
O462 Cd460 2.411 . S
O462 C465 1.320 . S
O463 Cd460 2.333 . S
O463 C465 1.214 . S
O464 Cd460 2.352 . S
O464 C467 1.258 . S
C465 O462 1.320 . S
C465 O463 1.214 . S
O466 Cd458 2.277 1_655 S
O466 C461 1.209 . S
C467 O464 1.258 . S
C467 O469 1.282 1_455 S
O468 Cd460 2.277 1_655 S
O468 C461 1.226 . S
O469 Cd460 2.356 1_655 S
O469 C467 1.282 1_655 S
C470 O471 1.306 . S
C470 O473 1.160 . S
O471 C470 1.306 . S
O471 Cd472 2.228 . S
Cd472 O471 2.228 . S
Cd472 O476 2.273 . S
Cd472 O480 2.277 . S
O473 C470 1.160 . S
O473 Cd474 2.203 . S
Cd474 O473 2.203 . S
Cd474 O476 2.411 . S
Cd474 O477 2.333 . S
Cd474 O478 2.352 . S
Cd474 O482 2.277 . S
Cd474 O483 2.356 . S
C475 O480 1.209 . S
C475 O482 1.226 . S
O476 Cd472 2.273 . S
O476 Cd474 2.411 . S
O476 C479 1.320 . S
O477 Cd474 2.333 . S
O477 C479 1.214 . S
O478 Cd474 2.352 . S
O478 C481 1.258 . S
C479 O476 1.320 . S
C479 O477 1.214 . S
O480 Cd472 2.277 . S
O480 C475 1.209 . S
C481 O478 1.258 . S
C481 O483 1.282 . S
O482 Cd474 2.277 . S
O482 C475 1.226 . S
O483 Cd474 2.356 . S
O483 C481 1.282 . S
C484 O485 1.306 . S
C484 O487 1.160 . S
O485 C484 1.306 . S
O485 Cd486 2.228 . S
Cd486 O485 2.228 . S
Cd486 O490 2.273 . S
Cd486 O494 2.277 . S
O487 C484 1.160 . S
O487 Cd488 2.203 . S
Cd488 O487 2.203 . S
Cd488 O490 2.411 . S
Cd488 O491 2.333 1_545 S
Cd488 O492 2.352 . S
Cd488 O496 2.277 1_545 S
Cd488 O497 2.356 1_545 S
C489 O494 1.209 1_565 S
C489 O496 1.226 . S
O490 Cd486 2.273 . S
O490 Cd488 2.411 . S
O490 C493 1.320 . S
O491 Cd488 2.333 1_565 S
O491 C493 1.214 1_565 S
O492 Cd488 2.352 . S
O492 C495 1.258 . S
C493 O490 1.320 . S
C493 O491 1.214 1_545 S
O494 Cd486 2.277 . S
O494 C489 1.209 1_545 S
C495 O492 1.258 . S
C495 O497 1.282 1_545 S
O496 Cd488 2.277 1_565 S
O496 C489 1.226 . S
O497 Cd488 2.356 1_565 S
O497 C495 1.282 1_565 S
C498 O499 1.306 . S
C498 O501 1.160 . S
O499 C498 1.306 . S
O499 Cd500 2.228 1_565 S
Cd500 O499 2.228 1_545 S
Cd500 O504 2.273 1_545 S
Cd500 O508 2.277 . S
O501 C498 1.160 . S
O501 Cd502 2.203 1_565 S
Cd502 O501 2.203 1_545 S
Cd502 O504 2.411 1_545 S
Cd502 O505 2.333 . S
Cd502 O506 2.352 1_545 S
Cd502 O510 2.277 . S
Cd502 O511 2.356 1_545 S
C503 O508 1.209 . S
C503 O510 1.226 . S
O504 Cd500 2.273 1_565 S
O504 Cd502 2.411 1_565 S
O504 C507 1.320 1_565 S
O505 Cd502 2.333 . S
O505 C507 1.214 . S
O506 Cd502 2.352 1_565 S
O506 C509 1.258 . S
C507 O504 1.320 1_545 S
C507 O505 1.214 . S
O508 Cd500 2.277 . S
O508 C503 1.209 . S
C509 O506 1.258 . S
C509 O511 1.282 . S
O510 Cd502 2.277 . S
O510 C503 1.226 . S
O511 Cd502 2.356 1_565 S
O511 C509 1.282 . S
C512 O513 1.306 . S
C512 O515 1.160 . S
O513 C512 1.306 . S
O513 Cd514 2.228 . S
Cd514 O513 2.228 . S
Cd514 O518 2.273 . S
Cd514 O522 2.277 . S
O515 C512 1.160 . S
O515 Cd516 2.203 . S
Cd516 O515 2.203 . S
Cd516 O518 2.411 . S
Cd516 O519 2.333 . S
Cd516 O520 2.352 . S
Cd516 O524 2.277 . S
Cd516 O525 2.356 . S
C517 O522 1.209 . S
C517 O524 1.226 . S
O518 Cd514 2.273 . S
O518 Cd516 2.411 . S
O518 C521 1.320 . S
O519 Cd516 2.333 . S
O519 C521 1.214 . S
O520 Cd516 2.352 . S
O520 C523 1.258 . S
C521 O518 1.320 . S
C521 O519 1.214 . S
O522 Cd514 2.277 . S
O522 C517 1.209 . S
C523 O520 1.258 . S
C523 O525 1.282 . S
O524 Cd516 2.277 . S
O524 C517 1.226 . S
O525 Cd516 2.356 . S
O525 C523 1.282 . S
C526 O527 1.306 . S
C526 O529 1.160 . S
O527 C526 1.306 . S
O527 Cd528 2.228 . S
Cd528 O527 2.228 . S
Cd528 O532 2.273 . S
Cd528 O536 2.277 . S
O529 C526 1.160 . S
O529 Cd530 2.203 . S
Cd530 O529 2.203 . S
Cd530 O532 2.411 . S
Cd530 O533 2.333 . S
Cd530 O534 2.352 . S
Cd530 O538 2.277 . S
Cd530 O539 2.356 . S
C531 O536 1.209 . S
C531 O538 1.226 . S
O532 Cd528 2.273 . S
O532 Cd530 2.411 . S
O532 C535 1.320 . S
O533 Cd530 2.333 . S
O533 C535 1.214 . S
O534 Cd530 2.352 . S
O534 C537 1.258 . S
C535 O532 1.320 . S
C535 O533 1.214 . S
O536 Cd528 2.277 . S
O536 C531 1.209 . S
C537 O534 1.258 . S
C537 O539 1.282 . S
O538 Cd530 2.277 . S
O538 C531 1.226 . S
O539 Cd530 2.356 . S
O539 C537 1.282 . S
C540 O541 1.306 . S
C540 O543 1.160 . S
O541 C540 1.306 . S
O541 Cd542 2.228 . S
Cd542 O541 2.228 . S
Cd542 O546 2.273 . S
Cd542 O550 2.277 . S
O543 C540 1.160 . S
O543 Cd544 2.203 . S
Cd544 O543 2.203 . S
Cd544 O546 2.411 . S
Cd544 O547 2.333 . S
Cd544 O548 2.352 . S
Cd544 O552 2.277 . S
Cd544 O553 2.356 . S
C545 O550 1.209 . S
C545 O552 1.226 . S
O546 Cd542 2.273 . S
O546 Cd544 2.411 . S
O546 C549 1.320 . S
O547 Cd544 2.333 . S
O547 C549 1.214 . S
O548 Cd544 2.352 . S
O548 C551 1.258 . S
C549 O546 1.320 . S
C549 O547 1.214 . S
O550 Cd542 2.277 . S
O550 C545 1.209 . S
C551 O548 1.258 . S
C551 O553 1.282 . S
O552 Cd544 2.277 . S
O552 C545 1.226 . S
O553 Cd544 2.356 . S
O553 C551 1.282 . S
C554 O555 1.313 . S
C554 O557 1.141 1_565 S
O555 C554 1.313 . S
O555 Cd556 2.239 . S
Cd556 O555 2.239 . S
Cd556 O560 2.281 . S
Cd556 O564 2.251 1_565 S
O557 C554 1.141 1_545 S
O557 Cd558 2.203 1_545 S
Cd558 O557 2.203 1_565 S
Cd558 O560 2.411 . S
Cd558 O561 2.333 . S
Cd558 O562 2.352 . S
Cd558 O566 2.277 1_565 S
Cd558 O567 2.356 . S
C559 O564 1.209 . S
C559 O566 1.226 . S
O560 Cd556 2.281 . S
O560 Cd558 2.411 . S
O560 C563 1.320 . S
O561 Cd558 2.333 . S
O561 C563 1.214 . S
O562 Cd558 2.352 . S
O562 C565 1.258 . S
C563 O560 1.320 . S
C563 O561 1.214 . S
O564 Cd556 2.251 1_545 S
O564 C559 1.209 . S
C565 O562 1.258 . S
C565 O567 1.282 . S
O566 Cd558 2.277 1_545 S
O566 C559 1.226 . S
O567 Cd558 2.356 . S
O567 C565 1.282 . S
C568 O569 1.306 . S
C568 O571 1.160 . S
O569 C568 1.306 . S
O569 Cd570 2.228 . S
Cd570 O569 2.228 . S
Cd570 O574 2.273 . S
Cd570 O578 2.277 . S
O571 C568 1.160 . S
O571 Cd572 2.203 . S
Cd572 O571 2.203 . S
Cd572 O574 2.411 . S
Cd572 O575 2.333 . S
Cd572 O576 2.352 . S
Cd572 O580 2.271 1_455 S
Cd572 O581 2.356 . S
C573 O578 1.209 1_655 S
C573 O580 1.230 . S
O574 Cd570 2.273 . S
O574 Cd572 2.411 . S
O574 C577 1.320 . S
O575 Cd572 2.333 . S
O575 C577 1.214 . S
O576 Cd572 2.352 . S
O576 C579 1.258 . S
C577 O574 1.320 . S
C577 O575 1.214 . S
O578 Cd570 2.277 . S
O578 C573 1.209 1_455 S
C579 O576 1.258 . S
C579 O581 1.282 . S
O580 Cd572 2.271 1_655 S
O580 C573 1.230 . S
O581 Cd572 2.356 . S
O581 C579 1.282 . S
C582 O583 1.306 . S
C582 O585 1.160 1_554 S
O583 C582 1.306 . S
O583 Cd584 2.228 . S
Cd584 O583 2.228 . S
Cd584 O588 2.273 1_554 S
Cd584 O592 2.277 1_554 S
O585 C582 1.160 1_556 S
O585 Cd586 2.203 . S
Cd586 O585 2.203 . S
Cd586 O588 2.411 . S
Cd586 O589 2.333 . S
Cd586 O590 2.352 . S
Cd586 O594 2.277 . S
Cd586 O595 2.356 . S
C587 O592 1.209 . S
C587 O594 1.226 . S
O588 Cd584 2.273 1_556 S
O588 Cd586 2.411 . S
O588 C591 1.320 . S
O589 Cd586 2.333 . S
O589 C591 1.214 . S
O590 Cd586 2.352 . S
O590 C593 1.258 . S
C591 O588 1.320 . S
C591 O589 1.214 . S
O592 Cd584 2.277 1_556 S
O592 C587 1.209 . S
C593 O590 1.258 . S
C593 O595 1.282 . S
O594 Cd586 2.277 . S
O594 C587 1.226 . S
O595 Cd586 2.356 . S
O595 C593 1.282 . S
C596 O597 1.306 . S
C596 O599 1.160 . S
O597 C596 1.306 . S
O597 Cd598 2.228 . S
Cd598 O597 2.228 . S
Cd598 O602 2.273 . S
Cd598 O606 2.277 . S
O599 C596 1.160 . S
O599 Cd600 2.203 . S
Cd600 O599 2.203 . S
Cd600 O602 2.411 . S
Cd600 O603 2.333 . S
Cd600 O604 2.352 . S
Cd600 O608 2.277 . S
Cd600 O609 2.356 . S
C601 O606 1.209 . S
C601 O608 1.226 . S
O602 Cd598 2.273 . S
O602 Cd600 2.411 . S
O602 C605 1.320 . S
O603 Cd600 2.333 . S
O603 C605 1.214 . S
O604 Cd600 2.352 . S
O604 C607 1.258 . S
C605 O602 1.320 . S
C605 O603 1.214 . S
O606 Cd598 2.277 . S
O606 C601 1.209 . S
C607 O604 1.258 . S
C607 O609 1.282 . S
O608 Cd600 2.277 . S
O608 C601 1.226 . S
O609 Cd600 2.356 . S
O609 C607 1.282 . S
C610 O611 1.306 . S
C610 O613 1.160 . S
O611 C610 1.306 . S
O611 Cd612 2.228 . S
Cd612 O611 2.228 . S
Cd612 O616 2.273 . S
Cd612 O620 2.277 1_655 S
O613 C610 1.160 . S
O613 Cd614 2.203 . S
Cd614 O613 2.203 . S
Cd614 O616 2.411 . S
Cd614 O617 2.333 . S
Cd614 O618 2.352 . S
Cd614 O622 2.277 1_655 S
Cd614 O623 2.356 . S
C615 O620 1.209 . S
C615 O622 1.226 . S
O616 Cd612 2.273 . S
O616 Cd614 2.411 . S
O616 C619 1.320 . S
O617 Cd614 2.333 . S
O617 C619 1.214 . S
O618 Cd614 2.352 . S
O618 C621 1.258 . S
C619 O616 1.320 . S
C619 O617 1.214 . S
O620 Cd612 2.277 1_455 S
O620 C615 1.209 . S
C621 O618 1.258 . S
C621 O623 1.282 . S
O622 Cd614 2.277 1_455 S
O622 C615 1.226 . S
O623 Cd614 2.356 . S
O623 C621 1.282 . S
C624 O625 1.306 . S
C624 O627 1.160 . S
O625 C624 1.306 . S
O625 Cd626 2.228 . S
Cd626 O625 2.228 . S
Cd626 O630 2.273 . S
Cd626 O634 2.277 . S
O627 C624 1.160 . S
O627 Cd628 2.203 . S
Cd628 O627 2.203 . S
Cd628 O630 2.411 . S
Cd628 O631 2.333 . S
Cd628 O632 2.352 . S
Cd628 O636 2.277 . S
Cd628 O637 2.356 . S
C629 O634 1.209 . S
C629 O636 1.226 . S
O630 Cd626 2.273 . S
O630 Cd628 2.411 . S
O630 C633 1.320 . S
O631 Cd628 2.333 . S
O631 C633 1.214 . S
O632 Cd628 2.352 . S
O632 C635 1.258 . S
C633 O630 1.320 . S
C633 O631 1.214 . S
O634 Cd626 2.277 . S
O634 C629 1.209 . S
C635 O632 1.258 . S
C635 O637 1.282 . S
O636 Cd628 2.277 . S
O636 C629 1.226 . S
O637 Cd628 2.356 . S
O637 C635 1.282 . S
C638 O639 1.306 . S
C638 O641 1.160 . S
O639 C638 1.306 . S
O639 Cd640 2.228 . S
Cd640 O639 2.228 . S
Cd640 O644 2.273 1_455 S
Cd640 O648 2.279 1_455 S
O641 C638 1.160 . S
O641 Cd642 2.203 1_455 S
Cd642 O641 2.203 1_655 S
Cd642 O644 2.411 . S
Cd642 O645 2.333 . S
Cd642 O646 2.352 . S
Cd642 O650 2.277 . S
Cd642 O651 2.356 . S
C643 O648 1.206 . S
C643 O650 1.226 . S
O644 Cd640 2.273 1_655 S
O644 Cd642 2.411 . S
O644 C647 1.320 . S
O645 Cd642 2.333 . S
O645 C647 1.214 . S
O646 Cd642 2.352 . S
O646 C649 1.258 . S
C647 O644 1.320 . S
C647 O645 1.214 . S
O648 Cd640 2.279 1_655 S
O648 C643 1.206 . S
C649 O646 1.258 . S
C649 O651 1.282 . S
O650 Cd642 2.277 . S
O650 C643 1.226 . S
O651 Cd642 2.356 . S
O651 C649 1.282 . S
C652 O653 1.306 . S
C652 O655 1.160 . S
O653 C652 1.306 . S
O653 Cd654 2.228 . S
Cd654 O653 2.228 . S
Cd654 O658 2.273 . S
Cd654 O662 2.277 . S
O655 C652 1.160 . S
O655 Cd656 2.203 . S
Cd656 O655 2.203 . S
Cd656 O658 2.411 . S
Cd656 O659 2.333 . S
Cd656 O660 2.352 . S
Cd656 O664 2.277 . S
Cd656 O665 2.356 . S
C657 O662 1.209 . S
C657 O664 1.226 . S
O658 Cd654 2.273 . S
O658 Cd656 2.411 . S
O658 C661 1.320 . S
O659 Cd656 2.333 . S
O659 C661 1.214 . S
O660 Cd656 2.352 . S
O660 C663 1.258 . S
C661 O658 1.320 . S
C661 O659 1.214 . S
O662 Cd654 2.277 . S
O662 C657 1.209 . S
C663 O660 1.258 . S
C663 O665 1.282 . S
O664 Cd656 2.277 . S
O664 C657 1.226 . S
O665 Cd656 2.356 . S
O665 C663 1.282 . S
C666 C667 1.369 . S
C666 C668 1.419 . S
C666 H670 0.930 . S
C667 C666 1.369 . S
C667 C676 1.429 . S
C668 C666 1.419 . S
C668 C669 1.363 . S
C668 H671 0.929 . S
C669 C668 1.363 . S
C669 C675 1.428 . S
H670 C666 0.930 . S
H671 C668 0.929 . S
S672 N673 1.613 1_656 S
S672 N674 1.610 1_656 S
N673 S672 1.613 1_454 S
N673 C676 1.350 . S
N674 S672 1.610 1_454 S
N674 C675 1.351 . S
C675 C669 1.428 . S
C675 N674 1.351 . S
C675 C676 1.434 . S
C676 C667 1.429 . S
C676 N673 1.350 . S
C676 C675 1.434 . S
C677 C678 1.369 . S
C677 C679 1.419 . S
C677 H681 0.930 . S
C678 C677 1.369 . S
C678 C687 1.429 . S
C679 C677 1.419 . S
C679 C680 1.363 . S
C679 H682 0.929 . S
C680 C679 1.363 . S
C680 C686 1.428 . S
H681 C677 0.930 . S
H682 C679 0.929 . S
S683 N684 1.613 . S
S683 N685 1.610 1_556 S
N684 S683 1.613 . S
N684 C687 1.350 1_556 S
N685 S683 1.610 1_554 S
N685 C686 1.351 . S
C686 C680 1.428 . S
C686 N685 1.351 . S
C686 C687 1.434 . S
C687 C678 1.429 . S
C687 N684 1.350 1_554 S
C687 C686 1.434 . S
C688 C689 1.373 1_565 S
C688 C690 1.412 . S
C688 H692 0.933 . S
C689 C688 1.373 1_545 S
C689 C698 1.429 . S
C690 C688 1.412 . S
C690 C691 1.358 1_565 S
C690 H693 0.929 . S
C691 C690 1.358 1_545 S
C691 C697 1.423 . S
H692 C688 0.933 . S
H693 C690 0.929 . S
S694 N695 1.613 . S
S694 N696 1.610 . S
N695 S694 1.613 . S
N695 C698 1.350 . S
N696 S694 1.610 . S
N696 C697 1.351 . S
C697 C691 1.423 . S
C697 N696 1.351 . S
C697 C698 1.434 . S
C698 C689 1.429 . S
C698 N695 1.350 . S
C698 C697 1.434 . S
C699 C700 1.369 . S
C699 C701 1.419 . S
C699 H703 0.930 . S
C700 C699 1.369 . S
C700 C709 1.429 . S
C701 C699 1.419 . S
C701 C702 1.363 . S
C701 H704 0.929 . S
C702 C701 1.363 . S
C702 C708 1.428 . S
H703 C699 0.930 . S
H704 C701 0.929 . S
S705 N706 1.613 . S
S705 N707 1.610 . S
N706 S705 1.613 . S
N706 C709 1.350 . S
N707 S705 1.610 . S
N707 C708 1.351 . S
C708 C702 1.428 . S
C708 N707 1.351 . S
C708 C709 1.434 . S
C709 C700 1.429 . S
C709 N706 1.350 . S
C709 C708 1.434 . S
C710 C711 1.369 . S
C710 C712 1.419 . S
C710 H714 0.930 . S
C711 C710 1.369 . S
C711 C720 1.429 . S
C712 C710 1.419 . S
C712 C713 1.363 . S
C712 H715 0.929 . S
C713 C712 1.363 . S
C713 C719 1.428 . S
H714 C710 0.930 . S
H715 C712 0.929 . S
S716 N717 1.613 1_655 S
S716 N718 1.610 . S
N717 S716 1.613 1_455 S
N717 C720 1.350 . S
N718 S716 1.610 . S
N718 C719 1.351 1_655 S
C719 C713 1.428 . S
C719 N718 1.351 1_455 S
C719 C720 1.434 . S
C720 C711 1.429 . S
C720 N717 1.350 . S
C720 C719 1.434 . S
C721 C722 1.369 . S
C721 C723 1.419 . S
C721 H725 0.930 . S
C722 C721 1.369 . S
C722 C731 1.429 . S
C723 C721 1.419 . S
C723 C724 1.363 . S
C723 H726 0.929 . S
C724 C723 1.363 . S
C724 C730 1.428 . S
H725 C721 0.930 . S
H726 C723 0.929 . S
S727 N728 1.613 . S
S727 N729 1.610 . S
N728 S727 1.613 . S
N728 C731 1.350 . S
N729 S727 1.610 . S
N729 C730 1.351 . S
C730 C724 1.428 . S
C730 N729 1.351 . S
C730 C731 1.434 . S
C731 C722 1.429 . S
C731 N728 1.350 . S
C731 C730 1.434 . S
C732 C733 1.369 . S
C732 C734 1.419 . S
C732 H736 0.930 1_556 S
C733 C732 1.369 . S
C733 C742 1.429 . S
C734 C732 1.419 . S
C734 C735 1.363 . S
C734 H737 0.914 1_456 S
C735 C734 1.363 . S
C735 C741 1.428 . S
H736 C732 0.930 1_554 S
H737 C734 0.914 1_654 S
S738 N739 1.613 . S
S738 N740 1.610 . S
N739 S738 1.613 . S
N739 C742 1.350 . S
N740 S738 1.610 . S
N740 C741 1.351 . S
C741 C735 1.428 . S
C741 N740 1.351 . S
C741 C742 1.434 . S
C742 C733 1.429 . S
C742 N739 1.350 . S
C742 C741 1.434 . S
C743 C744 1.369 . S
C743 C745 1.419 . S
C743 H747 0.930 . S
C744 C743 1.369 . S
C744 C753 1.429 1_556 S
C745 C743 1.419 . S
C745 C746 1.363 . S
C745 H748 0.929 . S
C746 C745 1.363 . S
C746 C752 1.428 1_556 S
H747 C743 0.930 . S
H748 C745 0.929 . S
S749 N750 1.613 . S
S749 N751 1.610 . S
N750 S749 1.613 . S
N750 C753 1.350 . S
N751 S749 1.610 . S
N751 C752 1.351 . S
C752 C746 1.428 1_554 S
C752 N751 1.351 . S
C752 C753 1.434 . S
C753 C744 1.429 1_554 S
C753 N750 1.350 . S
C753 C752 1.434 . S
C754 C755 1.369 1_554 S
C754 C756 1.419 1_554 S
C754 H758 0.930 . S
C755 C754 1.369 1_556 S
C755 C764 1.429 . S
C756 C754 1.419 1_556 S
C756 C757 1.363 . S
C756 H759 0.926 1_556 S
C757 C756 1.363 . S
C757 C763 1.428 . S
H758 C754 0.930 . S
H759 C756 0.926 1_554 S
S760 N761 1.613 . S
S760 N762 1.610 . S
N761 S760 1.613 . S
N761 C764 1.350 . S
N762 S760 1.610 . S
N762 C763 1.351 . S
C763 C757 1.428 . S
C763 N762 1.351 . S
C763 C764 1.434 . S
C764 C755 1.429 . S
C764 N761 1.350 . S
C764 C763 1.434 . S
C765 C766 1.369 . S
C765 C767 1.419 . S
C765 H769 0.930 . S
C766 C765 1.369 . S
C766 C775 1.429 1_565 S
C767 C765 1.419 . S
C767 C768 1.363 1_565 S
C767 H770 0.929 . S
C768 C767 1.363 1_545 S
C768 C774 1.428 . S
H769 C765 0.930 . S
H770 C767 0.929 . S
S771 N772 1.613 . S
S771 N773 1.610 . S
N772 S771 1.613 . S
N772 C775 1.350 . S
N773 S771 1.610 . S
N773 C774 1.351 . S
C774 C768 1.428 . S
C774 N773 1.351 . S
C774 C775 1.434 . S
C775 C766 1.429 1_545 S
C775 N772 1.350 . S
C775 C774 1.434 . S
C776 C777 1.369 . S
C776 C778 1.419 . S
C776 H780 0.930 . S
C777 C776 1.369 . S
C777 C786 1.429 . S
C778 C776 1.419 . S
C778 C779 1.363 . S
C778 H781 0.929 . S
C779 C778 1.363 . S
C779 C785 1.428 . S
H780 C776 0.930 . S
H781 C778 0.929 . S
S782 N783 1.613 . S
S782 N784 1.610 . S
N783 S782 1.613 . S
N783 C786 1.350 . S
N784 S782 1.610 . S
N784 C785 1.351 . S
C785 C779 1.428 . S
C785 N784 1.351 . S
C785 C786 1.434 . S
C786 C777 1.429 . S
C786 N783 1.350 . S
C786 C785 1.434 . S
C787 C788 1.369 . S
C787 C789 1.419 . S
C787 H791 0.930 . S
C788 C787 1.369 . S
C788 C797 1.429 . S
C789 C787 1.419 . S
C789 C790 1.363 . S
C789 H792 0.929 . S
C790 C789 1.363 . S
C790 C796 1.428 . S
H791 C787 0.930 . S
H792 C789 0.929 . S
S793 N794 1.613 . S
S793 N795 1.610 . S
N794 S793 1.613 . S
N794 C797 1.350 . S
N795 S793 1.610 . S
N795 C796 1.351 . S
C796 C790 1.428 . S
C796 N795 1.351 . S
C796 C797 1.434 . S
C797 C788 1.429 . S
C797 N794 1.350 . S
C797 C796 1.434 . S
C798 C799 1.369 . S
C798 C800 1.419 . S
C798 H802 0.930 . S
C799 C798 1.369 . S
C799 C808 1.429 . S
C800 C798 1.419 . S
C800 C801 1.363 . S
C800 H803 0.929 . S
C801 C800 1.363 . S
C801 C807 1.428 . S
H802 C798 0.930 . S
H803 C800 0.929 . S
S804 N805 1.613 . S
S804 N806 1.610 . S
N805 S804 1.613 . S
N805 C808 1.350 . S
N806 S804 1.610 . S
N806 C807 1.351 . S
C807 C801 1.428 . S
C807 N806 1.351 . S
C807 C808 1.434 . S
C808 C799 1.429 . S
C808 N805 1.350 . S
C808 C807 1.434 . S
C809 C810 1.369 . S
C809 C811 1.419 1_565 S
C809 H813 0.930 . S
C810 C809 1.369 . S
C810 C819 1.429 1_565 S
C811 C809 1.419 1_545 S
C811 C812 1.363 . S
C811 H814 0.929 . S
C812 C811 1.363 . S
C812 C818 1.428 . S
H813 C809 0.930 . S
H814 C811 0.929 . S
S815 N816 1.613 . S
S815 N817 1.610 . S
N816 S815 1.613 . S
N816 C819 1.350 . S
N817 S815 1.610 . S
N817 C818 1.351 . S
C818 C812 1.428 . S
C818 N817 1.351 . S
C818 C819 1.434 . S
C819 C810 1.429 1_545 S
C819 N816 1.350 . S
C819 C818 1.434 . S
C820 C821 1.369 . S
C820 C822 1.419 . S
C820 H824 0.930 . S
C821 C820 1.369 . S
C821 C830 1.429 . S
C822 C820 1.419 . S
C822 C823 1.363 . S
C822 H825 0.929 . S
C823 C822 1.363 . S
C823 C829 1.428 . S
H824 C820 0.930 . S
H825 C822 0.929 . S
S826 N827 1.613 . S
S826 N828 1.610 . S
N827 S826 1.613 . S
N827 C830 1.350 . S
N828 S826 1.610 . S
N828 C829 1.351 . S
C829 C823 1.428 . S
C829 N828 1.351 . S
C829 C830 1.434 . S
C830 C821 1.429 . S
C830 N827 1.350 . S
C830 C829 1.434 . S
C831 C832 1.369 . S
C831 C833 1.419 . S
C831 H835 0.930 . S
C832 C831 1.369 . S
C832 C841 1.429 . S
C833 C831 1.419 . S
C833 C834 1.363 . S
C833 H836 0.929 . S
C834 C833 1.363 . S
C834 C840 1.428 . S
H835 C831 0.930 . S
H836 C833 0.929 . S
S837 N838 1.613 . S
S837 N839 1.610 . S
N838 S837 1.613 . S
N838 C841 1.350 . S
N839 S837 1.610 . S
N839 C840 1.351 . S
C840 C834 1.428 . S
C840 N839 1.351 . S
C840 C841 1.434 . S
C841 C832 1.429 . S
C841 N838 1.350 . S
C841 C840 1.434 . S
C842 C843 1.369 . S
C842 C844 1.419 . S
C842 H846 0.930 . S
C843 C842 1.369 . S
C843 C852 1.429 . S
C844 C842 1.419 . S
C844 C845 1.363 . S
C844 H847 0.929 . S
C845 C844 1.363 . S
C845 C851 1.428 . S
H846 C842 0.930 . S
H847 C844 0.929 . S
S848 N849 1.613 . S
S848 N850 1.610 . S
N849 S848 1.613 . S
N849 C852 1.350 . S
N850 S848 1.610 . S
N850 C851 1.351 . S
C851 C845 1.428 . S
C851 N850 1.351 . S
C851 C852 1.434 . S
C852 C843 1.429 . S
C852 N849 1.350 . S
C852 C851 1.434 . S
C853 C854 1.369 . S
C853 C855 1.419 . S
C853 H857 0.930 . S
C854 C853 1.369 . S
C854 C863 1.429 . S
C855 C853 1.419 . S
C855 C856 1.363 . S
C855 H858 0.929 1_565 S
C856 C855 1.363 . S
C856 C862 1.428 . S
H857 C853 0.930 . S
H858 C855 0.929 1_545 S
S859 N860 1.613 . S
S859 N861 1.610 . S
N860 S859 1.613 . S
N860 C863 1.350 . S
N861 S859 1.610 . S
N861 C862 1.351 . S
C862 C856 1.428 . S
C862 N861 1.351 . S
C862 C863 1.434 . S
C863 C854 1.429 . S
C863 N860 1.350 . S
C863 C862 1.434 . S
C864 C865 1.369 . S
C864 C866 1.419 . S
C864 H868 0.930 . S
C865 C864 1.369 . S
C865 C874 1.429 1_565 S
C866 C864 1.419 . S
C866 C867 1.363 1_565 S
C866 H869 0.929 . S
C867 C866 1.363 1_545 S
C867 C873 1.428 . S
H868 C864 0.930 . S
H869 C866 0.929 . S
S870 N871 1.613 . S
S870 N872 1.610 . S
N871 S870 1.613 . S
N871 C874 1.350 . S
N872 S870 1.610 . S
N872 C873 1.351 . S
C873 C867 1.428 . S
C873 N872 1.351 . S
C873 C874 1.434 . S
C874 C865 1.429 1_545 S
C874 N871 1.350 . S
C874 C873 1.434 . S
C875 C876 1.369 . S
C875 C877 1.419 . S
C875 H879 0.930 . S
C876 C875 1.369 . S
C876 C885 1.429 . S
C877 C875 1.419 . S
C877 C878 1.363 . S
C877 H880 0.929 . S
C878 C877 1.363 . S
C878 C884 1.428 . S
H879 C875 0.930 . S
H880 C877 0.929 . S
S881 N882 1.613 . S
S881 N883 1.610 . S
N882 S881 1.613 . S
N882 C885 1.350 . S
N883 S881 1.610 . S
N883 C884 1.351 . S
C884 C878 1.428 . S
C884 N883 1.351 . S
C884 C885 1.434 . S
C885 C876 1.429 . S
C885 N882 1.350 . S
C885 C884 1.434 . S
C886 C887 1.369 . S
C886 C888 1.419 . S
C886 H890 0.930 . S
C887 C886 1.369 . S
C887 C896 1.429 . S
C888 C886 1.419 . S
C888 C889 1.363 . S
C888 H891 0.929 . S
C889 C888 1.363 . S
C889 C895 1.428 . S
H890 C886 0.930 . S
H891 C888 0.929 . S
S892 N893 1.613 . S
S892 N894 1.610 . S
N893 S892 1.613 . S
N893 C896 1.350 . S
N894 S892 1.610 . S
N894 C895 1.351 . S
C895 C889 1.428 . S
C895 N894 1.351 . S
C895 C896 1.434 . S
C896 C887 1.429 . S
C896 N893 1.350 . S
C896 C895 1.434 . S
C897 C898 1.369 . S
C897 C899 1.419 . S
C897 H901 0.930 . S
C898 C897 1.369 . S
C898 C907 1.429 . S
C899 C897 1.419 . S
C899 C900 1.363 . S
C899 H902 0.929 . S
C900 C899 1.363 . S
C900 C906 1.428 . S
H901 C897 0.930 . S
H902 C899 0.929 . S
S903 N904 1.613 . S
S903 N905 1.610 . S
N904 S903 1.613 . S
N904 C907 1.350 . S
N905 S903 1.610 . S
N905 C906 1.351 . S
C906 C900 1.428 . S
C906 N905 1.351 . S
C906 C907 1.434 . S
C907 C898 1.429 . S
C907 N904 1.350 . S
C907 C906 1.434 . S
C908 C909 1.369 . S
C908 C910 1.419 1_565 S
C908 H912 0.930 . S
C909 C908 1.369 . S
C909 C918 1.429 1_565 S
C910 C908 1.419 1_545 S
C910 C911 1.363 . S
C910 H913 0.929 1_545 S
C911 C910 1.363 . S
C911 C917 1.428 . S
H912 C908 0.930 . S
H913 C910 0.929 1_565 S
S914 N915 1.613 . S
S914 N916 1.610 . S
N915 S914 1.613 . S
N915 C918 1.350 . S
N916 S914 1.610 . S
N916 C917 1.351 . S
C917 C911 1.428 . S
C917 N916 1.351 . S
C917 C918 1.434 . S
C918 C909 1.429 1_545 S
C918 N915 1.350 . S
C918 C917 1.434 . S
C919 C920 1.369 . S
C919 C921 1.419 . S
C919 H923 0.930 . S
C920 C919 1.369 . S
C920 C929 1.429 . S
C921 C919 1.419 . S
C921 C922 1.363 . S
C921 H924 0.929 . S
C922 C921 1.363 . S
C922 C928 1.428 . S
H923 C919 0.930 . S
H924 C921 0.929 . S
S925 N926 1.613 . S
S925 N927 1.610 . S
N926 S925 1.613 . S
N926 C929 1.350 . S
N927 S925 1.610 . S
N927 C928 1.351 . S
C928 C922 1.428 . S
C928 N927 1.351 . S
C928 C929 1.434 . S
C929 C920 1.429 . S
C929 N926 1.350 . S
C929 C928 1.434 . S
C930 C931 1.369 . S
C930 C932 1.419 . S
C930 H934 0.930 . S
C931 C930 1.369 . S
C931 C940 1.429 . S
C932 C930 1.419 . S
C932 C933 1.363 . S
C932 H935 0.929 . S
C933 C932 1.363 . S
C933 C939 1.428 . S
H934 C930 0.930 . S
H935 C932 0.929 . S
S936 N937 1.613 . S
S936 N938 1.610 . S
N937 S936 1.613 . S
N937 C940 1.350 . S
N938 S936 1.610 . S
N938 C939 1.351 . S
C939 C933 1.428 . S
C939 N938 1.351 . S
C939 C940 1.434 . S
C940 C931 1.429 . S
C940 N937 1.350 . S
C940 C939 1.434 . S
C941 C942 1.369 . S
C941 C943 1.419 . S
C941 H945 0.930 . S
C942 C941 1.369 . S
C942 C951 1.429 . S
C943 C941 1.419 . S
C943 C944 1.363 . S
C943 H946 0.929 . S
C944 C943 1.363 . S
C944 C950 1.428 . S
H945 C941 0.930 . S
H946 C943 0.929 . S
S947 N948 1.613 . S
S947 N949 1.610 . S
N948 S947 1.613 . S
N948 C951 1.350 . S
N949 S947 1.610 . S
N949 C950 1.351 . S
C950 C944 1.428 . S
C950 N949 1.351 . S
C950 C951 1.434 . S
C951 C942 1.429 . S
C951 N948 1.350 . S
C951 C950 1.434 . S
C952 C953 1.369 . S
C952 C954 1.419 . S
C952 H956 0.930 . S
C953 C952 1.369 . S
C953 C962 1.429 . S
C954 C952 1.419 . S
C954 C955 1.363 . S
C954 H957 0.929 . S
C955 C954 1.363 . S
C955 C961 1.428 . S
H956 C952 0.930 . S
H957 C954 0.929 . S
S958 N959 1.613 . S
S958 N960 1.610 . S
N959 S958 1.613 . S
N959 C962 1.350 . S
N960 S958 1.610 . S
N960 C961 1.351 . S
C961 C955 1.428 . S
C961 N960 1.351 . S
C961 C962 1.434 . S
C962 C953 1.429 . S
C962 N959 1.350 . S
C962 C961 1.434 . S
C963 C964 1.369 . S
C963 C965 1.419 . S
C963 H967 0.930 . S
C964 C963 1.369 . S
C964 C973 1.429 . S
C965 C963 1.419 . S
C965 C966 1.363 . S
C965 H968 0.929 . S
C966 C965 1.363 . S
C966 C972 1.428 . S
H967 C963 0.930 . S
H968 C965 0.929 . S
S969 N970 1.613 . S
S969 N971 1.610 . S
N970 S969 1.613 . S
N970 C973 1.350 . S
N971 S969 1.610 . S
N971 C972 1.351 . S
C972 C966 1.428 . S
C972 N971 1.351 . S
C972 C973 1.434 . S
C973 C964 1.429 . S
C973 N970 1.350 . S
C973 C972 1.434 . S
C974 C975 1.369 . S
C974 C976 1.419 . S
C974 H978 0.930 . S
C975 C974 1.369 . S
C975 C984 1.429 . S
C976 C974 1.419 . S
C976 C977 1.363 . S
C976 H979 0.929 . S
C977 C976 1.363 . S
C977 C983 1.428 . S
H978 C974 0.930 . S
H979 C976 0.929 . S
S980 N981 1.613 . S
S980 N982 1.610 . S
N981 S980 1.613 . S
N981 C984 1.350 . S
N982 S980 1.610 . S
N982 C983 1.351 . S
C983 C977 1.428 . S
C983 N982 1.351 . S
C983 C984 1.434 . S
C984 C975 1.429 . S
C984 N981 1.350 . S
C984 C983 1.434 . S
C985 C986 1.369 . S
C985 C987 1.419 . S
C985 H989 0.930 . S
C986 C985 1.369 . S
C986 C995 1.429 . S
C987 C985 1.419 . S
C987 C988 1.363 . S
C987 H990 0.929 . S
C988 C987 1.363 . S
C988 C994 1.428 . S
H989 C985 0.930 . S
H990 C987 0.929 . S
S991 N992 1.613 . S
S991 N993 1.610 . S
N992 S991 1.613 . S
N992 C995 1.350 . S
N993 S991 1.610 . S
N993 C994 1.351 . S
C994 C988 1.428 . S
C994 N993 1.351 . S
C994 C995 1.434 . S
C995 C986 1.429 . S
C995 N992 1.350 . S
C995 C994 1.434 . S
C996 C997 1.369 . S
C996 C998 1.419 . S
C996 H1000 0.930 . S
C997 C996 1.369 . S
C997 C1006 1.429 . S
C998 C996 1.419 . S
C998 C999 1.363 . S
C998 H1001 0.929 . S
C999 C998 1.363 . S
C999 C1005 1.428 . S
H1000 C996 0.930 . S
H1001 C998 0.929 . S
S1002 N1003 1.613 . S
S1002 N1004 1.610 . S
N1003 S1002 1.613 . S
N1003 C1006 1.350 . S
N1004 S1002 1.610 . S
N1004 C1005 1.351 . S
C1005 C999 1.428 . S
C1005 N1004 1.351 . S
C1005 C1006 1.434 . S
C1006 C997 1.429 . S
C1006 N1003 1.350 . S
C1006 C1005 1.434 . S
C1007 C1008 1.369 . S
C1007 C1009 1.419 . S
C1007 H1011 0.930 . S
C1008 C1007 1.369 . S
C1008 C1017 1.429 . S
C1009 C1007 1.419 . S
C1009 C1010 1.363 . S
C1009 H1012 0.929 . S
C1010 C1009 1.363 . S
C1010 C1016 1.428 . S
H1011 C1007 0.930 . S
H1012 C1009 0.929 . S
S1013 N1014 1.613 . S
S1013 N1015 1.610 . S
N1014 S1013 1.613 . S
N1014 C1017 1.350 . S
N1015 S1013 1.610 . S
N1015 C1016 1.351 . S
C1016 C1010 1.428 . S
C1016 N1015 1.351 . S
C1016 C1017 1.434 . S
C1017 C1008 1.429 . S
C1017 N1014 1.350 . S
C1017 C1016 1.434 . S
C1018 C1019 1.369 . S
C1018 C1020 1.419 . S
C1018 H1022 0.930 . S
C1019 C1018 1.369 . S
C1019 C1028 1.429 . S
C1020 C1018 1.419 . S
C1020 C1021 1.363 . S
C1020 H1023 0.929 . S
C1021 C1020 1.363 . S
C1021 C1027 1.428 . S
H1022 C1018 0.930 . S
H1023 C1020 0.929 . S
S1024 N1025 1.613 . S
S1024 N1026 1.610 . S
N1025 S1024 1.613 . S
N1025 C1028 1.350 . S
N1026 S1024 1.610 . S
N1026 C1027 1.351 . S
C1027 C1021 1.428 . S
C1027 N1026 1.351 . S
C1027 C1028 1.434 . S
C1028 C1019 1.429 . S
C1028 N1025 1.350 . S
C1028 C1027 1.434 . S
C1029 C1030 1.369 . S
C1029 C1031 1.419 . S
C1029 H1033 0.930 . S
C1030 C1029 1.369 . S
C1030 C1039 1.429 . S
C1031 C1029 1.419 . S
C1031 C1032 1.363 . S
C1031 H1034 0.929 . S
C1032 C1031 1.363 . S
C1032 C1038 1.428 . S
H1033 C1029 0.930 . S
H1034 C1031 0.929 . S
S1035 N1036 1.613 . S
S1035 N1037 1.610 . S
N1036 S1035 1.613 . S
N1036 C1039 1.350 . S
N1037 S1035 1.610 . S
N1037 C1038 1.351 . S
C1038 C1032 1.428 . S
C1038 N1037 1.351 . S
C1038 C1039 1.434 . S
C1039 C1030 1.429 . S
C1039 N1036 1.350 . S
C1039 C1038 1.434 . S
C1040 C1041 1.369 . S
C1040 C1042 1.419 . S
C1040 H1044 0.930 . S
C1041 C1040 1.369 . S
C1041 C1050 1.429 . S
C1042 C1040 1.419 . S
C1042 C1043 1.363 . S
C1042 H1045 0.929 . S
C1043 C1042 1.363 . S
C1043 C1049 1.428 . S
H1044 C1040 0.930 . S
H1045 C1042 0.929 . S
S1046 N1047 1.613 . S
S1046 N1048 1.610 . S
N1047 S1046 1.613 . S
N1047 C1050 1.350 . S
N1048 S1046 1.610 . S
N1048 C1049 1.351 . S
C1049 C1043 1.428 . S
C1049 N1048 1.351 . S
C1049 C1050 1.434 . S
C1050 C1041 1.429 . S
C1050 N1047 1.350 . S
C1050 C1049 1.434 . S
C1051 C1052 1.369 . S
C1051 C1053 1.419 . S
C1051 H1055 0.930 . S
C1052 C1051 1.369 . S
C1052 C1061 1.429 . S
C1053 C1051 1.419 . S
C1053 C1054 1.363 . S
C1053 H1056 0.929 . S
C1054 C1053 1.363 . S
C1054 C1060 1.428 . S
H1055 C1051 0.930 . S
H1056 C1053 0.929 . S
S1057 N1058 1.613 . S
S1057 N1059 1.610 . S
N1058 S1057 1.613 . S
N1058 C1061 1.350 . S
N1059 S1057 1.610 . S
N1059 C1060 1.351 . S
C1060 C1054 1.428 . S
C1060 N1059 1.351 . S
C1060 C1061 1.434 . S
C1061 C1052 1.429 . S
C1061 N1058 1.350 . S
C1061 C1060 1.434 . S
C1062 C1063 1.369 . S
C1062 C1064 1.419 . S
C1062 H1066 0.930 . S
C1063 C1062 1.369 . S
C1063 C1072 1.429 . S
C1064 C1062 1.419 . S
C1064 C1065 1.363 . S
C1064 H1067 0.929 . S
C1065 C1064 1.363 . S
C1065 C1071 1.428 . S
H1066 C1062 0.930 . S
H1067 C1064 0.929 . S
S1068 N1069 1.613 1_655 S
S1068 N1070 1.611 1_655 S
N1069 S1068 1.613 1_455 S
N1069 C1072 1.350 . S
N1070 S1068 1.611 1_455 S
N1070 C1071 1.351 . S
C1071 C1065 1.428 . S
C1071 N1070 1.351 . S
C1071 C1072 1.434 . S
C1072 C1063 1.429 . S
C1072 N1069 1.350 . S
C1072 C1071 1.434 . S
C1073 C1074 1.369 . S
C1073 C1075 1.419 . S
C1073 H1077 0.930 . S
C1074 C1073 1.369 . S
C1074 C1083 1.429 . S
C1075 C1073 1.419 . S
C1075 C1076 1.363 . S
C1075 H1078 0.929 . S
C1076 C1075 1.363 . S
C1076 C1082 1.428 . S
H1077 C1073 0.930 . S
H1078 C1075 0.929 . S
S1079 N1080 1.613 . S
S1079 N1081 1.610 . S
N1080 S1079 1.613 . S
N1080 C1083 1.350 . S
N1081 S1079 1.610 . S
N1081 C1082 1.351 . S
C1082 C1076 1.428 . S
C1082 N1081 1.351 . S
C1082 C1083 1.434 . S
C1083 C1074 1.429 . S
C1083 N1080 1.350 . S
C1083 C1082 1.434 . S
C1084 C1085 1.369 . S
C1084 C1086 1.419 . S
C1084 H1088 0.930 . S
C1085 C1084 1.369 . S
C1085 C1094 1.429 1_545 S
C1086 C1084 1.419 . S
C1086 C1087 1.363 . S
C1086 H1089 0.929 . S
C1087 C1086 1.363 . S
C1087 C1093 1.428 1_545 S
H1088 C1084 0.930 . S
H1089 C1086 0.929 . S
S1090 N1091 1.613 . S
S1090 N1092 1.610 . S
N1091 S1090 1.613 . S
N1091 C1094 1.350 . S
N1092 S1090 1.610 . S
N1092 C1093 1.351 . S
C1093 C1087 1.428 1_565 S
C1093 N1092 1.351 . S
C1093 C1094 1.434 . S
C1094 C1085 1.429 1_565 S
C1094 N1091 1.350 . S
C1094 C1093 1.434 . S
C1095 C1096 1.369 . S
C1095 C1097 1.419 . S
C1095 H1099 0.930 . S
C1096 C1095 1.369 . S
C1096 C1105 1.429 . S
C1097 C1095 1.419 . S
C1097 C1098 1.363 . S
C1097 H1100 0.929 . S
C1098 C1097 1.363 . S
C1098 C1104 1.428 . S
H1099 C1095 0.930 . S
H1100 C1097 0.929 . S
S1101 N1102 1.613 . S
S1101 N1103 1.610 . S
N1102 S1101 1.613 . S
N1102 C1105 1.350 . S
N1103 S1101 1.610 . S
N1103 C1104 1.351 . S
C1104 C1098 1.428 . S
C1104 N1103 1.351 . S
C1104 C1105 1.434 . S
C1105 C1096 1.429 . S
C1105 N1102 1.350 . S
C1105 C1104 1.434 . S
C1106 C1107 1.369 . S
C1106 C1108 1.419 . S
C1106 H1110 0.930 . S
C1107 C1106 1.369 . S
C1107 C1116 1.429 . S
C1108 C1106 1.419 . S
C1108 C1109 1.363 . S
C1108 H1111 0.929 . S
C1109 C1108 1.363 . S
C1109 C1115 1.428 . S
H1110 C1106 0.930 . S
H1111 C1108 0.929 . S
S1112 N1113 1.613 . S
S1112 N1114 1.610 . S
N1113 S1112 1.613 . S
N1113 C1116 1.350 . S
N1114 S1112 1.610 . S
N1114 C1115 1.351 . S
C1115 C1109 1.428 . S
C1115 N1114 1.351 . S
C1115 C1116 1.434 . S
C1116 C1107 1.429 . S
C1116 N1113 1.350 . S
C1116 C1115 1.434 . S
C1117 C1118 1.369 . S
C1117 C1119 1.419 . S
C1117 H1121 0.930 . S
C1118 C1117 1.369 . S
C1118 C1127 1.429 . S
C1119 C1117 1.419 . S
C1119 C1120 1.363 . S
C1119 H1122 0.929 . S
C1120 C1119 1.363 . S
C1120 C1126 1.428 . S
H1121 C1117 0.930 . S
H1122 C1119 0.929 . S
S1123 N1124 1.613 . S
S1123 N1125 1.610 . S
N1124 S1123 1.613 . S
N1124 C1127 1.350 . S
N1125 S1123 1.610 . S
N1125 C1126 1.351 . S
C1126 C1120 1.428 . S
C1126 N1125 1.351 . S
C1126 C1127 1.434 . S
C1127 C1118 1.429 . S
C1127 N1124 1.350 . S
C1127 C1126 1.434 . S
C1128 C1129 1.369 . S
C1128 C1130 1.419 . S
C1128 H1132 0.930 . S
C1129 C1128 1.369 . S
C1129 C1138 1.429 . S
C1130 C1128 1.419 . S
C1130 C1131 1.363 . S
C1130 H1133 0.929 . S
C1131 C1130 1.363 . S
C1131 C1137 1.428 . S
H1132 C1128 0.930 . S
H1133 C1130 0.929 . S
S1134 N1135 1.646 . S
S1134 N1136 1.610 . S
N1135 S1134 1.646 . S
N1135 C1138 1.342 1_655 S
N1136 S1134 1.610 . S
N1136 C1137 1.351 1_655 S
C1137 C1131 1.428 . S
C1137 N1136 1.351 1_455 S
C1137 C1138 1.434 . S
C1138 C1129 1.429 . S
C1138 N1135 1.342 1_455 S
C1138 C1137 1.434 . S
C1139 C1140 1.369 . S
C1139 C1141 1.419 . S
C1139 H1143 0.930 . S
C1140 C1139 1.369 . S
C1140 C1149 1.429 . S
C1141 C1139 1.419 . S
C1141 C1142 1.363 . S
C1141 H1144 0.929 . S
C1142 C1141 1.363 . S
C1142 C1148 1.428 . S
H1143 C1139 0.930 . S
H1144 C1141 0.929 . S
S1145 N1146 1.613 . S
S1145 N1147 1.610 . S
N1146 S1145 1.613 . S
N1146 C1149 1.350 . S
N1147 S1145 1.610 . S
N1147 C1148 1.351 . S
C1148 C1142 1.428 . S
C1148 N1147 1.351 . S
C1148 C1149 1.434 . S
C1149 C1140 1.429 . S
C1149 N1146 1.350 . S
C1149 C1148 1.434 . S
C1150 C1151 1.369 . S
C1150 C1152 1.419 . S
C1150 H1154 0.930 . S
C1151 C1150 1.369 . S
C1151 C1160 1.429 . S
C1152 C1150 1.419 . S
C1152 C1153 1.363 . S
C1152 H1155 0.929 . S
C1153 C1152 1.363 . S
C1153 C1159 1.428 . S
H1154 C1150 0.930 . S
H1155 C1152 0.929 . S
S1156 N1157 1.613 . S
S1156 N1158 1.610 . S
N1157 S1156 1.613 . S
N1157 C1160 1.350 . S
N1158 S1156 1.610 . S
N1158 C1159 1.351 . S
C1159 C1153 1.428 . S
C1159 N1158 1.351 . S
C1159 C1160 1.434 . S
C1160 C1151 1.429 . S
C1160 N1157 1.350 . S
C1160 C1159 1.434 . S
C1161 C1162 1.369 . S
C1161 C1163 1.419 . S
C1161 H1165 0.930 . S
C1162 C1161 1.369 . S
C1162 C1171 1.429 . S
C1163 C1161 1.419 . S
C1163 C1164 1.363 . S
C1163 H1166 0.929 . S
C1164 C1163 1.363 . S
C1164 C1170 1.428 . S
H1165 C1161 0.930 . S
H1166 C1163 0.929 . S
S1167 N1168 1.613 . S
S1167 N1169 1.610 . S
N1168 S1167 1.613 . S
N1168 C1171 1.350 . S
N1169 S1167 1.610 . S
N1169 C1170 1.351 . S
C1170 C1164 1.428 . S
C1170 N1169 1.351 . S
C1170 C1171 1.434 . S
C1171 C1162 1.429 . S
C1171 N1168 1.350 . S
C1171 C1170 1.434 . S
C1172 C1173 1.369 . S
C1172 C1174 1.419 . S
C1172 H1176 0.930 . S
C1173 C1172 1.369 . S
C1173 C1182 1.429 . S
C1174 C1172 1.419 . S
C1174 C1175 1.363 . S
C1174 H1177 0.929 1_455 S
C1175 C1174 1.363 . S
C1175 C1181 1.428 . S
H1176 C1172 0.930 . S
H1177 C1174 0.929 1_655 S
S1178 N1179 1.613 . S
S1178 N1180 1.610 . S
N1179 S1178 1.613 . S
N1179 C1182 1.350 . S
N1180 S1178 1.610 . S
N1180 C1181 1.351 . S
C1181 C1175 1.428 . S
C1181 N1180 1.351 . S
C1181 C1182 1.434 . S
C1182 C1173 1.429 . S
C1182 N1179 1.350 . S
C1182 C1181 1.434 . S
C1183 C1184 1.369 . S
C1183 C1185 1.419 . S
C1183 H1187 0.930 . S
C1184 C1183 1.369 . S
C1184 C1193 1.429 . S
C1185 C1183 1.419 . S
C1185 C1186 1.363 . S
C1185 H1188 0.929 . S
C1186 C1185 1.363 . S
C1186 C1192 1.428 . S
H1187 C1183 0.930 . S
H1188 C1185 0.929 . S
S1189 N1190 1.613 . S
S1189 N1191 1.610 . S
N1190 S1189 1.613 . S
N1190 C1193 1.350 . S
N1191 S1189 1.610 . S
N1191 C1192 1.351 . S
C1192 C1186 1.428 . S
C1192 N1191 1.351 . S
C1192 C1193 1.434 . S
C1193 C1184 1.429 . S
C1193 N1190 1.350 . S
C1193 C1192 1.434 . S
C1194 C1195 1.369 . S
C1194 C1196 1.419 . S
C1194 H1198 0.930 . S
C1195 C1194 1.369 . S
C1195 C1204 1.429 . S
C1196 C1194 1.419 . S
C1196 C1197 1.363 . S
C1196 H1199 0.929 . S
C1197 C1196 1.363 . S
C1197 C1203 1.428 . S
H1198 C1194 0.930 . S
H1199 C1196 0.929 . S
S1200 N1201 1.613 . S
S1200 N1202 1.610 . S
N1201 S1200 1.613 . S
N1201 C1204 1.350 . S
N1202 S1200 1.610 . S
N1202 C1203 1.351 . S
C1203 C1197 1.428 . S
C1203 N1202 1.351 . S
C1203 C1204 1.434 . S
C1204 C1195 1.429 . S
C1204 N1201 1.350 . S
C1204 C1203 1.434 . S
C1205 C1206 1.369 . S
C1205 C1207 1.419 . S
C1205 H1209 0.930 . S
C1206 C1205 1.369 . S
C1206 C1215 1.429 . S
C1207 C1205 1.419 . S
C1207 C1208 1.363 . S
C1207 H1210 0.929 . S
C1208 C1207 1.363 . S
C1208 C1214 1.428 . S
H1209 C1205 0.930 . S
H1210 C1207 0.929 . S
S1211 N1212 1.613 . S
S1211 N1213 1.610 . S
N1212 S1211 1.613 . S
N1212 C1215 1.350 . S
N1213 S1211 1.610 . S
N1213 C1214 1.351 . S
C1214 C1208 1.428 . S
C1214 N1213 1.351 . S
C1214 C1215 1.434 . S
C1215 C1206 1.429 . S
C1215 N1212 1.350 . S
C1215 C1214 1.434 . S
C1216 C1217 1.369 . S
C1216 C1218 1.419 . S
C1216 H1220 0.930 . S
C1217 C1216 1.369 . S
C1217 C1226 1.429 . S
C1218 C1216 1.419 . S
C1218 C1219 1.363 . S
C1218 H1221 0.929 . S
C1219 C1218 1.363 . S
C1219 C1225 1.428 . S
H1220 C1216 0.930 . S
H1221 C1218 0.929 . S
S1222 N1223 1.613 . S
S1222 N1224 1.610 . S
N1223 S1222 1.613 . S
N1223 C1226 1.350 . S
N1224 S1222 1.610 . S
N1224 C1225 1.351 . S
C1225 C1219 1.428 . S
C1225 N1224 1.351 . S
C1225 C1226 1.434 . S
C1226 C1217 1.429 . S
C1226 N1223 1.350 . S
C1226 C1225 1.434 . S
C1227 C1228 1.369 . S
C1227 C1229 1.419 . S
C1227 H1231 0.930 . S
C1228 C1227 1.369 . S
C1228 C1237 1.429 1_556 S
C1229 C1227 1.419 . S
C1229 C1230 1.363 1_556 S
C1229 H1232 0.929 . S
C1230 C1229 1.363 1_554 S
C1230 C1236 1.428 . S
H1231 C1227 0.930 . S
H1232 C1229 0.929 . S
S1233 N1234 1.613 . S
S1233 N1235 1.610 . S
N1234 S1233 1.613 . S
N1234 C1237 1.350 . S
N1235 S1233 1.610 . S
N1235 C1236 1.351 . S
C1236 C1230 1.428 . S
C1236 N1235 1.351 . S
C1236 C1237 1.434 . S
C1237 C1228 1.429 1_554 S
C1237 N1234 1.350 . S
C1237 C1236 1.434 . S
C1238 C1239 1.369 . S
C1238 C1240 1.419 . S
C1238 H1242 0.930 . S
C1239 C1238 1.369 . S
C1239 C1248 1.429 . S
C1240 C1238 1.419 . S
C1240 C1241 1.363 1_556 S
C1240 H1243 0.929 . S
C1241 C1240 1.363 1_554 S
C1241 C1247 1.428 1_554 S
H1242 C1238 0.930 . S
H1243 C1240 0.929 . S
S1244 N1245 1.613 1_554 S
S1244 N1246 1.610 . S
N1245 S1244 1.613 1_556 S
N1245 C1248 1.350 . S
N1246 S1244 1.610 . S
N1246 C1247 1.351 1_554 S
C1247 C1241 1.428 1_556 S
C1247 N1246 1.351 1_556 S
C1247 C1248 1.434 . S
C1248 C1239 1.429 . S
C1248 N1245 1.350 . S
C1248 C1247 1.434 . S
C1249 C1250 1.369 . S
C1249 C1251 1.419 1_556 S
C1249 H1253 0.930 . S
C1250 C1249 1.369 . S
C1250 C1259 1.429 . S
C1251 C1249 1.419 1_554 S
C1251 C1252 1.363 . S
C1251 H1254 0.929 . S
C1252 C1251 1.363 . S
C1252 C1258 1.428 . S
H1253 C1249 0.930 . S
H1254 C1251 0.929 . S
S1255 N1256 1.613 . S
S1255 N1257 1.610 1_556 S
N1256 S1255 1.613 . S
N1256 C1259 1.350 . S
N1257 S1255 1.610 1_554 S
N1257 C1258 1.351 . S
C1258 C1252 1.428 . S
C1258 N1257 1.351 . S
C1258 C1259 1.434 1_554 S
C1259 C1250 1.429 . S
C1259 N1256 1.350 . S
C1259 C1258 1.434 1_556 S
C1260 C1261 1.369 . S
C1260 C1262 1.419 . S
C1260 H1264 0.930 . S
C1261 C1260 1.369 . S
C1261 C1270 1.429 . S
C1262 C1260 1.419 . S
C1262 C1263 1.363 . S
C1262 H1265 0.929 . S
C1263 C1262 1.363 . S
C1263 C1269 1.428 . S
H1264 C1260 0.930 . S
H1265 C1262 0.929 . S
S1266 N1267 1.613 . S
S1266 N1268 1.610 . S
N1267 S1266 1.613 . S
N1267 C1270 1.350 . S
N1268 S1266 1.610 . S
N1268 C1269 1.351 . S
C1269 C1263 1.428 . S
C1269 N1268 1.351 . S
C1269 C1270 1.434 . S
C1270 C1261 1.429 . S
C1270 N1267 1.350 . S
C1270 C1269 1.434 . S
C1271 C1272 1.369 . S
C1271 C1273 1.419 . S
C1271 H1275 0.930 . S
C1272 C1271 1.369 . S
C1272 C1281 1.429 . S
C1273 C1271 1.419 . S
C1273 C1274 1.363 . S
C1273 H1276 0.929 . S
C1274 C1273 1.363 . S
C1274 C1280 1.428 . S
H1275 C1271 0.930 . S
H1276 C1273 0.929 . S
S1277 N1278 1.613 . S
S1277 N1279 1.610 . S
N1278 S1277 1.613 . S
N1278 C1281 1.350 . S
N1279 S1277 1.610 . S
N1279 C1280 1.351 . S
C1280 C1274 1.428 . S
C1280 N1279 1.351 . S
C1280 C1281 1.434 . S
C1281 C1272 1.429 . S
C1281 N1278 1.350 . S
C1281 C1280 1.434 . S
C1282 C1283 1.369 . S
C1282 C1284 1.419 . S
C1282 H1286 0.930 . S
C1283 C1282 1.369 . S
C1283 C1292 1.429 . S
C1284 C1282 1.419 . S
C1284 C1285 1.363 . S
C1284 H1287 0.929 . S
C1285 C1284 1.363 . S
C1285 C1291 1.428 . S
H1286 C1282 0.930 . S
H1287 C1284 0.929 . S
S1288 N1289 1.613 . S
S1288 N1290 1.610 . S
N1289 S1288 1.613 . S
N1289 C1292 1.350 . S
N1290 S1288 1.610 . S
N1290 C1291 1.351 . S
C1291 C1285 1.428 . S
C1291 N1290 1.351 . S
C1291 C1292 1.434 . S
C1292 C1283 1.429 . S
C1292 N1289 1.350 . S
C1292 C1291 1.434 . S
C1293 C1294 1.369 . S
C1293 C1295 1.419 . S
C1293 H1297 0.930 . S
C1294 C1293 1.369 . S
C1294 C1303 1.429 . S
C1295 C1293 1.419 . S
C1295 C1296 1.363 . S
C1295 H1298 0.929 . S
C1296 C1295 1.363 . S
C1296 C1302 1.428 . S
H1297 C1293 0.930 . S
H1298 C1295 0.929 . S
S1299 N1300 1.613 . S
S1299 N1301 1.610 . S
N1300 S1299 1.613 . S
N1300 C1303 1.350 . S
N1301 S1299 1.610 . S
N1301 C1302 1.351 . S
C1302 C1296 1.428 . S
C1302 N1301 1.351 . S
C1302 C1303 1.434 . S
C1303 C1294 1.429 . S
C1303 N1300 1.350 . S
C1303 C1302 1.434 . S
C1304 C1305 1.369 . S
C1304 C1306 1.419 . S
C1304 H1308 0.930 . S
C1305 C1304 1.369 . S
C1305 C1314 1.429 . S
C1306 C1304 1.419 . S
C1306 C1307 1.363 . S
C1306 H1309 0.929 . S
C1307 C1306 1.363 . S
C1307 C1313 1.428 . S
H1308 C1304 0.930 . S
H1309 C1306 0.929 . S
S1310 N1311 1.613 . S
S1310 N1312 1.610 . S
N1311 S1310 1.613 . S
N1311 C1314 1.350 . S
N1312 S1310 1.610 . S
N1312 C1313 1.351 . S
C1313 C1307 1.428 . S
C1313 N1312 1.351 . S
C1313 C1314 1.434 . S
C1314 C1305 1.429 . S
C1314 N1311 1.350 . S
C1314 C1313 1.434 . S
C1315 C1316 1.369 . S
C1315 C1317 1.419 . S
C1315 H1319 0.930 . S
C1316 C1315 1.369 . S
C1316 C1325 1.429 . S
C1317 C1315 1.419 . S
C1317 C1318 1.363 . S
C1317 H1320 0.929 . S
C1318 C1317 1.363 . S
C1318 C1324 1.428 . S
H1319 C1315 0.930 . S
H1320 C1317 0.929 . S
S1321 N1322 1.613 . S
S1321 N1323 1.610 . S
N1322 S1321 1.613 . S
N1322 C1325 1.350 . S
N1323 S1321 1.610 . S
N1323 C1324 1.351 . S
C1324 C1318 1.428 . S
C1324 N1323 1.351 . S
C1324 C1325 1.434 . S
C1325 C1316 1.429 . S
C1325 N1322 1.350 . S
C1325 C1324 1.434 . S
C1326 C1327 1.369 . S
C1326 C1328 1.419 . S
C1326 H1330 0.930 . S
C1327 C1326 1.369 . S
C1327 C1336 1.429 . S
C1328 C1326 1.419 . S
C1328 C1329 1.363 . S
C1328 H1331 0.929 . S
C1329 C1328 1.363 . S
C1329 C1335 1.428 . S
H1330 C1326 0.930 . S
H1331 C1328 0.929 . S
S1332 N1333 1.613 . S
S1332 N1334 1.610 . S
N1333 S1332 1.613 . S
N1333 C1336 1.350 . S
N1334 S1332 1.610 . S
N1334 C1335 1.351 . S
C1335 C1329 1.428 . S
C1335 N1334 1.351 . S
C1335 C1336 1.434 . S
C1336 C1327 1.429 . S
C1336 N1333 1.350 . S
C1336 C1335 1.434 . S
C1337 C1338 1.369 . S
C1337 C1339 1.419 . S
C1337 H1341 0.930 . S
C1338 C1337 1.369 . S
C1338 C1347 1.429 . S
C1339 C1337 1.419 . S
C1339 C1340 1.363 . S
C1339 H1342 0.929 . S
C1340 C1339 1.363 . S
C1340 C1346 1.428 . S
H1341 C1337 0.930 . S
H1342 C1339 0.929 . S
S1343 N1344 1.613 . S
S1343 N1345 1.610 . S
N1344 S1343 1.613 . S
N1344 C1347 1.350 . S
N1345 S1343 1.610 . S
N1345 C1346 1.351 . S
C1346 C1340 1.428 . S
C1346 N1345 1.351 . S
C1346 C1347 1.434 . S
C1347 C1338 1.429 . S
C1347 N1344 1.350 . S
C1347 C1346 1.434 . S
C1348 C1349 1.369 . S
C1348 C1350 1.419 . S
C1348 H1352 0.930 . S
C1349 C1348 1.369 . S
C1349 C1358 1.429 . S
C1350 C1348 1.419 . S
C1350 C1351 1.363 . S
C1350 H1353 0.929 . S
C1351 C1350 1.363 . S
C1351 C1357 1.428 . S
H1352 C1348 0.930 . S
H1353 C1350 0.929 . S
S1354 N1355 1.613 . S
S1354 N1356 1.610 . S
N1355 S1354 1.613 . S
N1355 C1358 1.350 . S
N1356 S1354 1.610 . S
N1356 C1357 1.351 . S
C1357 C1351 1.428 . S
C1357 N1356 1.351 . S
C1357 C1358 1.434 . S
C1358 C1349 1.429 . S
C1358 N1355 1.350 . S
C1358 C1357 1.434 . S
C1359 C1360 1.369 . S
C1359 C1361 1.419 . S
C1359 H1363 0.930 . S
C1360 C1359 1.369 . S
C1360 C1369 1.429 . S
C1361 C1359 1.419 . S
C1361 C1362 1.363 . S
C1361 H1364 0.929 . S
C1362 C1361 1.363 . S
C1362 C1368 1.428 . S
H1363 C1359 0.930 . S
H1364 C1361 0.929 . S
S1365 N1366 1.613 . S
S1365 N1367 1.610 . S
N1366 S1365 1.613 . S
N1366 C1369 1.350 . S
N1367 S1365 1.610 . S
N1367 C1368 1.351 . S
C1368 C1362 1.428 . S
C1368 N1367 1.351 . S
C1368 C1369 1.434 . S
C1369 C1360 1.429 . S
C1369 N1366 1.350 . S
C1369 C1368 1.434 . S
C1370 C1371 1.369 . S
C1370 C1372 1.419 . S
C1370 H1374 0.930 . S
C1371 C1370 1.369 . S
C1371 C1380 1.429 . S
C1372 C1370 1.419 . S
C1372 C1373 1.363 . S
C1372 H1375 0.929 . S
C1373 C1372 1.363 . S
C1373 C1379 1.428 . S
H1374 C1370 0.930 . S
H1375 C1372 0.929 . S
S1376 N1377 1.613 . S
S1376 N1378 1.610 . S
N1377 S1376 1.613 . S
N1377 C1380 1.350 . S
N1378 S1376 1.610 . S
N1378 C1379 1.351 . S
C1379 C1373 1.428 . S
C1379 N1378 1.351 . S
C1379 C1380 1.434 . S
C1380 C1371 1.429 . S
C1380 N1377 1.350 . S
C1380 C1379 1.434 . S
C1381 C1382 1.369 . S
C1381 C1383 1.419 . S
C1381 H1385 0.930 . S
C1382 C1381 1.369 . S
C1382 C1391 1.429 . S
C1383 C1381 1.419 . S
C1383 C1384 1.363 . S
C1383 H1386 0.929 . S
C1384 C1383 1.363 . S
C1384 C1390 1.428 . S
H1385 C1381 0.930 . S
H1386 C1383 0.929 . S
S1387 N1388 1.613 . S
S1387 N1389 1.610 . S
N1388 S1387 1.613 . S
N1388 C1391 1.350 . S
N1389 S1387 1.610 . S
N1389 C1390 1.351 . S
C1390 C1384 1.428 . S
C1390 N1389 1.351 . S
C1390 C1391 1.434 . S
C1391 C1382 1.429 . S
C1391 N1388 1.350 . S
C1391 C1390 1.434 . S
C1392 C1393 1.369 . S
C1392 C1394 1.419 . S
C1392 H1396 0.930 . S
C1393 C1392 1.369 . S
C1393 C1402 1.429 . S
C1394 C1392 1.419 . S
C1394 C1395 1.363 . S
C1394 H1397 0.929 . S
C1395 C1394 1.363 . S
C1395 C1401 1.428 . S
H1396 C1392 0.930 . S
H1397 C1394 0.929 . S
S1398 N1399 1.613 . S
S1398 N1400 1.610 . S
N1399 S1398 1.613 . S
N1399 C1402 1.350 . S
N1400 S1398 1.610 . S
N1400 C1401 1.351 . S
C1401 C1395 1.428 . S
C1401 N1400 1.351 . S
C1401 C1402 1.434 . S
C1402 C1393 1.429 . S
C1402 N1399 1.350 . S
C1402 C1401 1.434 . S
C1403 C1404 1.369 . S
C1403 C1405 1.419 . S
C1403 H1407 0.930 . S
C1404 C1403 1.369 . S
C1404 C1413 1.429 . S
C1405 C1403 1.419 . S
C1405 C1406 1.363 . S
C1405 H1408 0.929 . S
C1406 C1405 1.363 . S
C1406 C1412 1.428 . S
H1407 C1403 0.930 . S
H1408 C1405 0.929 . S
S1409 N1410 1.613 . S
S1409 N1411 1.610 . S
N1410 S1409 1.613 . S
N1410 C1413 1.350 . S
N1411 S1409 1.610 . S
N1411 C1412 1.351 . S
C1412 C1406 1.428 . S
C1412 N1411 1.351 . S
C1412 C1413 1.434 . S
C1413 C1404 1.429 . S
C1413 N1410 1.350 . S
C1413 C1412 1.434 . S
C1414 C1415 1.369 . S
C1414 C1416 1.419 . S
C1414 H1418 0.930 . S
C1415 C1414 1.369 . S
C1415 C1424 1.429 . S
C1416 C1414 1.419 . S
C1416 C1417 1.363 . S
C1416 H1419 0.929 . S
C1417 C1416 1.363 . S
C1417 C1423 1.428 . S
H1418 C1414 0.930 . S
H1419 C1416 0.929 . S
S1420 N1421 1.613 . S
S1420 N1422 1.610 . S
N1421 S1420 1.613 . S
N1421 C1424 1.350 . S
N1422 S1420 1.610 . S
N1422 C1423 1.351 . S
C1423 C1417 1.428 . S
C1423 N1422 1.351 . S
C1423 C1424 1.434 . S
C1424 C1415 1.429 . S
C1424 N1421 1.350 . S
C1424 C1423 1.434 . S
C1425 C1426 1.369 . S
C1425 C1427 1.419 . S
C1425 H1429 0.930 . S
C1426 C1425 1.369 . S
C1426 C1435 1.429 . S
C1427 C1425 1.419 . S
C1427 C1428 1.363 . S
C1427 H1430 0.929 . S
C1428 C1427 1.363 . S
C1428 C1434 1.428 . S
H1429 C1425 0.930 . S
H1430 C1427 0.929 . S
S1431 N1432 1.601 1_556 S
S1431 N1433 1.616 . S
N1432 S1431 1.601 1_554 S
N1432 C1435 1.350 . S
N1433 S1431 1.616 . S
N1433 C1434 1.351 1_556 S
C1434 C1428 1.428 . S
C1434 N1433 1.351 1_554 S
C1434 C1435 1.434 . S
C1435 C1426 1.429 . S
C1435 N1432 1.350 . S
C1435 C1434 1.434 . S
C1436 C1437 1.369 . S
C1436 C1438 1.419 . S
C1436 H1440 0.930 . S
C1437 C1436 1.369 . S
C1437 C1446 1.429 . S
C1438 C1436 1.419 . S
C1438 C1439 1.363 . S
C1438 H1441 0.929 . S
C1439 C1438 1.363 . S
C1439 C1445 1.428 . S
H1440 C1436 0.930 . S
H1441 C1438 0.929 . S
S1442 N1443 1.613 . S
S1442 N1444 1.610 . S
N1443 S1442 1.613 . S
N1443 C1446 1.350 . S
N1444 S1442 1.610 . S
N1444 C1445 1.351 . S
C1445 C1439 1.428 . S
C1445 N1444 1.351 . S
C1445 C1446 1.434 . S
C1446 C1437 1.429 . S
C1446 N1443 1.350 . S
C1446 C1445 1.434 . S
C1447 C1448 1.369 . S
C1447 C1449 1.419 . S
C1447 H1451 0.930 . S
C1448 C1447 1.369 . S
C1448 C1457 1.429 . S
C1449 C1447 1.419 . S
C1449 C1450 1.363 . S
C1449 H1452 0.929 1_554 S
C1450 C1449 1.363 . S
C1450 C1456 1.428 . S
H1451 C1447 0.930 . S
H1452 C1449 0.929 1_556 S
S1453 N1454 1.613 . S
S1453 N1455 1.610 . S
N1454 S1453 1.613 . S
N1454 C1457 1.350 . S
N1455 S1453 1.610 . S
N1455 C1456 1.351 . S
C1456 C1450 1.428 . S
C1456 N1455 1.351 . S
C1456 C1457 1.434 . S
C1457 C1448 1.429 . S
C1457 N1454 1.350 . S
C1457 C1456 1.434 . S
C667 C7 1.440 . S
C669 C568 1.443 . S
C680 C545 1.816 . S
C678 C39 1.795 . S
C691 C554 1.640 1_545 S
C689 C62 1.585 . S
C700 C76 1.844 . S
C702 C624 1.845 . S
C711 C108 1.518 . S
C713 C643 1.517 1_455 S
C722 N117 1.424 . S
C724 C657 1.418 . S
C735 C619 1.439 1_455 S
C733 C16 1.426 . S
C744 C30 1.847 . S
C746 C587 1.849 . S
C757 C605 1.546 . S
C755 C53 1.553 . S
C766 C85 1.829 . S
C768 C507 1.828 . S
C779 C517 1.727 . S
C777 C99 1.716 . S
C788 N127 1.317 . S
C790 C531 1.393 . S
C799 N150 1.171 . S
C801 C652 1.191 . S
C812 C629 1.575 . S
C810 N173 1.557 . S
C823 C638 1.440 . S
C821 C200 1.411 . S
C832 C214 1.669 . S
C834 C456 1.681 . S
C843 N232 1.570 . S
C845 C475 1.582 . S
C854 C260 1.517 . S
C856 C489 1.538 . S
C867 C451 1.302 . S
C865 N140 1.266 . S
C876 N163 1.312 . S
C878 C419 1.346 . S
C889 C437 1.639 . S
C887 C191 1.632 . S
C900 C591 1.934 . S
C898 C223 1.946 . S
C911 C601 1.573 . S
C909 N242 1.500 . S
C922 C615 1.541 . S
C920 C269 1.549 . S
C931 N288 1.349 . S
C933 C484 1.360 . S
C942 C315 1.536 . S
C944 C461 1.575 . S
C953 C338 1.655 . S
C955 C470 1.672 . S
C964 C352 1.851 . S
C966 C540 1.851 . S
C977 C559 1.629 . S
C975 N370 1.624 . S
C988 C573 1.613 . S
C986 C398 1.597 . S
C999 C535 1.243 . S
C997 N278 1.182 . S
C1008 C306 1.740 . S
C1010 C503 1.749 . S
C1019 C329 1.649 . S
C1021 C521 1.647 1_655 S
C1032 C423 1.576 . S
C1030 C361 1.586 . S
C1041 N380 1.529 . S
C1043 C433 1.595 . S
C1054 C447 1.506 . S
C1052 C407 1.507 . S
C1065 C467 1.428 . S
C1063 N12 1.377 . S
C1074 N25 1.597 . S
C1076 C479 1.596 . S
C1087 C493 1.347 . S
C1085 N48 1.333 1_545 S
C1098 C495 1.346 . S
C1096 N81 1.331 . S
C1109 C465 1.546 . S
C1107 N94 1.506 . S
C1120 C481 1.570 . S
C1118 C131 1.557 . S
C1131 C425 1.421 . S
C1129 N2 1.432 . S
C1140 N35 1.482 . S
C1142 C428 1.525 . S
C1151 N58 1.331 . S
C1153 C442 1.359 . S
C1164 C453 1.296 . S
C1162 N71 1.256 . S
C1175 C414 1.406 . S
C1173 N104 1.387 . S
C1186 C439 1.587 . S
C1184 C122 1.598 . S
C1195 C145 2.005 . S
C1197 C551 2.021 . S
C1206 C168 1.758 . S
C1208 C563 1.758 . S
C1217 N186 1.440 . S
C1219 C577 1.438 . S
C1230 C579 1.367 . S
C1228 N219 1.362 . S
C1241 C549 1.805 . S
C1239 C246 1.779 . S
C1252 C565 1.473 . S
C1250 N265 1.450 . S
C1263 C509 1.908 . S
C1261 C154 1.931 . S
C1272 C177 1.855 . S
C1274 C512 1.840 . S
C1283 N196 1.264 . S
C1285 C526 1.299 . S
C1294 N209 1.157 . S
C1296 C537 1.220 . S
C1305 C237 1.832 . S
C1307 C498 1.818 . S
C1318 C523 1.427 . S
C1316 N255 1.382 . S
C1327 C283 1.771 . S
C1329 C635 1.771 . S
C1338 N301 1.473 . S
C1340 C647 1.469 . S
C1349 N324 1.341 . S
C1351 C661 1.340 . S
C1362 C663 1.187 . S
C1360 N357 1.166 . S
C1373 C633 1.784 . S
C1371 C384 1.775 . S
C1382 N403 1.324 . S
C1384 C649 1.339 . S
C1393 C292 1.871 . S
C1395 C593 1.850 . S
C1406 C596 1.393 . S
C1404 N311 1.354 . S
C1415 N334 1.402 . S
C1417 C610 1.443 . S
C1426 N347 1.319 . S
C1428 C621 1.343 1_554 S
C1439 C582 1.865 . S
C1437 C375 1.882 . S
C1448 N393 1.348 . S
C1450 C607 1.398 1_554 S
