# Generated by pormake.
# Topology gar, (4,6)-cn, num edge types: 1
# Building blocks:
#     Node 0, Type 0, BuildingBlock: QUQFOY_clean_sbu_3, # of connection points: 4
#     Node 1, Type 0, BuildingBlock: QUQFOY_clean_sbu_3, # of connection points: 4
#     Node 2, Type 0, BuildingBlock: QUQFOY_clean_sbu_3, # of connection points: 4
#     Node 3, Type 0, BuildingBlock: QUQFOY_clean_sbu_3, # of connection points: 4
#     Node 4, Type 0, BuildingBlock: QUQFOY_clean_sbu_3, # of connection points: 4
#     Node 5, Type 0, BuildingBlock: QUQFOY_clean_sbu_3, # of connection points: 4
#     Node 6, Type 0, BuildingBlock: QUQFOY_clean_sbu_3, # of connection points: 4
#     Node 7, Type 0, BuildingBlock: QUQFOY_clean_sbu_3, # of connection points: 4
#     Node 8, Type 0, BuildingBlock: QUQFOY_clean_sbu_3, # of connection points: 4
#     Node 9, Type 0, BuildingBlock: QUQFOY_clean_sbu_3, # of connection points: 4
#     Node 10, Type 0, BuildingBlock: QUQFOY_clean_sbu_3, # of connection points: 4
#     Node 11, Type 0, BuildingBlock: QUQFOY_clean_sbu_3, # of connection points: 4
#     Node 12, Type 0, BuildingBlock: QUQFOY_clean_sbu_3, # of connection points: 4
#     Node 13, Type 0, BuildingBlock: QUQFOY_clean_sbu_3, # of connection points: 4
#     Node 14, Type 0, BuildingBlock: QUQFOY_clean_sbu_3, # of connection points: 4
#     Node 15, Type 0, BuildingBlock: QUQFOY_clean_sbu_3, # of connection points: 4
#     Node 16, Type 0, BuildingBlock: QUQFOY_clean_sbu_3, # of connection points: 4
#     Node 17, Type 0, BuildingBlock: QUQFOY_clean_sbu_3, # of connection points: 4
#     Node 18, Type 0, BuildingBlock: QUQFOY_clean_sbu_3, # of connection points: 4
#     Node 19, Type 0, BuildingBlock: QUQFOY_clean_sbu_3, # of connection points: 4
#     Node 20, Type 0, BuildingBlock: QUQFOY_clean_sbu_3, # of connection points: 4
#     Node 21, Type 0, BuildingBlock: QUQFOY_clean_sbu_3, # of connection points: 4
#     Node 22, Type 0, BuildingBlock: QUQFOY_clean_sbu_3, # of connection points: 4
#     Node 23, Type 0, BuildingBlock: QUQFOY_clean_sbu_3, # of connection points: 4
#     Node 24, Type 1, BuildingBlock: CUWYAW_clean_sbu_0, # of connection points: 6
#     Node 25, Type 1, BuildingBlock: CUWYAW_clean_sbu_0, # of connection points: 6
#     Node 26, Type 1, BuildingBlock: CUWYAW_clean_sbu_0, # of connection points: 6
#     Node 27, Type 1, BuildingBlock: CUWYAW_clean_sbu_0, # of connection points: 6
#     Node 28, Type 1, BuildingBlock: CUWYAW_clean_sbu_0, # of connection points: 6
#     Node 29, Type 1, BuildingBlock: CUWYAW_clean_sbu_0, # of connection points: 6
#     Node 30, Type 1, BuildingBlock: CUWYAW_clean_sbu_0, # of connection points: 6
#     Node 31, Type 1, BuildingBlock: CUWYAW_clean_sbu_0, # of connection points: 6
#     Node 32, Type 1, BuildingBlock: CUWYAW_clean_sbu_0, # of connection points: 6
#     Node 33, Type 1, BuildingBlock: CUWYAW_clean_sbu_0, # of connection points: 6
#     Node 34, Type 1, BuildingBlock: CUWYAW_clean_sbu_0, # of connection points: 6
#     Node 35, Type 1, BuildingBlock: CUWYAW_clean_sbu_0, # of connection points: 6
#     Node 36, Type 1, BuildingBlock: CUWYAW_clean_sbu_0, # of connection points: 6
#     Node 37, Type 1, BuildingBlock: CUWYAW_clean_sbu_0, # of connection points: 6
#     Node 38, Type 1, BuildingBlock: CUWYAW_clean_sbu_0, # of connection points: 6
#     Node 39, Type 1, BuildingBlock: CUWYAW_clean_sbu_0, # of connection points: 6
#     Edge 40, Type (0, 1), None
#     Edge 41, Type (0, 1), None
#     Edge 42, Type (0, 1), None
#     Edge 43, Type (0, 1), None
#     Edge 44, Type (0, 1), None
#     Edge 45, Type (0, 1), None
#     Edge 46, Type (0, 1), None
#     Edge 47, Type (0, 1), None
#     Edge 48, Type (0, 1), None
#     Edge 49, Type (0, 1), None
#     Edge 50, Type (0, 1), None
#     Edge 51, Type (0, 1), None
#     Edge 52, Type (0, 1), None
#     Edge 53, Type (0, 1), None
#     Edge 54, Type (0, 1), None
#     Edge 55, Type (0, 1), None
#     Edge 56, Type (0, 1), None
#     Edge 57, Type (0, 1), None
#     Edge 58, Type (0, 1), None
#     Edge 59, Type (0, 1), None
#     Edge 60, Type (0, 1), None
#     Edge 61, Type (0, 1), None
#     Edge 62, Type (0, 1), None
#     Edge 63, Type (0, 1), None
#     Edge 64, Type (0, 1), None
#     Edge 65, Type (0, 1), None
#     Edge 66, Type (0, 1), None
#     Edge 67, Type (0, 1), None
#     Edge 68, Type (0, 1), None
#     Edge 69, Type (0, 1), None
#     Edge 70, Type (0, 1), None
#     Edge 71, Type (0, 1), None
#     Edge 72, Type (0, 1), None
#     Edge 73, Type (0, 1), None
#     Edge 74, Type (0, 1), None
#     Edge 75, Type (0, 1), None
#     Edge 76, Type (0, 1), None
#     Edge 77, Type (0, 1), None
#     Edge 78, Type (0, 1), None
#     Edge 79, Type (0, 1), None
#     Edge 80, Type (0, 1), None
#     Edge 81, Type (0, 1), None
#     Edge 82, Type (0, 1), None
#     Edge 83, Type (0, 1), None
#     Edge 84, Type (0, 1), None
#     Edge 85, Type (0, 1), None
#     Edge 86, Type (0, 1), None
#     Edge 87, Type (0, 1), None
#     Edge 88, Type (0, 1), None
#     Edge 89, Type (0, 1), None
#     Edge 90, Type (0, 1), None
#     Edge 91, Type (0, 1), None
#     Edge 92, Type (0, 1), None
#     Edge 93, Type (0, 1), None
#     Edge 94, Type (0, 1), None
#     Edge 95, Type (0, 1), None
#     Edge 96, Type (0, 1), None
#     Edge 97, Type (0, 1), None
#     Edge 98, Type (0, 1), None
#     Edge 99, Type (0, 1), None
#     Edge 100, Type (0, 1), None
#     Edge 101, Type (0, 1), None
#     Edge 102, Type (0, 1), None
#     Edge 103, Type (0, 1), None
#     Edge 104, Type (0, 1), None
#     Edge 105, Type (0, 1), None
#     Edge 106, Type (0, 1), None
#     Edge 107, Type (0, 1), None
#     Edge 108, Type (0, 1), None
#     Edge 109, Type (0, 1), None
#     Edge 110, Type (0, 1), None
#     Edge 111, Type (0, 1), None
#     Edge 112, Type (0, 1), None
#     Edge 113, Type (0, 1), None
#     Edge 114, Type (0, 1), None
#     Edge 115, Type (0, 1), None
#     Edge 116, Type (0, 1), None
#     Edge 117, Type (0, 1), None
#     Edge 118, Type (0, 1), None
#     Edge 119, Type (0, 1), None
#     Edge 120, Type (0, 1), None
#     Edge 121, Type (0, 1), None
#     Edge 122, Type (0, 1), None
#     Edge 123, Type (0, 1), None
#     Edge 124, Type (0, 1), None
#     Edge 125, Type (0, 1), None
#     Edge 126, Type (0, 1), None
#     Edge 127, Type (0, 1), None
#     Edge 128, Type (0, 1), None
#     Edge 129, Type (0, 1), None
#     Edge 130, Type (0, 1), None
#     Edge 131, Type (0, 1), None
#     Edge 132, Type (0, 1), None
#     Edge 133, Type (0, 1), None
#     Edge 134, Type (0, 1), None
#     Edge 135, Type (0, 1), None
# Relax obj value: 0.481
# Max RMSD: 0.441
# Mean RMSD: 0.206
data_MOF--net-gar--node1-QUQFOY_clean_sbu_3--node2-CUWYAW_clean_sbu_0--edge1-none
_symmetry_space_group_name_H-M    P1
_symmetry_Int_Tables_number       1
_symmetry_cell_setting            triclinic
loop_
_symmetry_equiv_pos_as_xyz
'x, y, z'
_cell_length_a     34.603197
_cell_length_b     25.84675
_cell_length_c     25.397286
_cell_angle_alpha  102.48537
_cell_angle_beta   95.611888
_cell_angle_gamma 97.47335
loop_
_atom_site_label
_atom_site_type_symbol
_atom_site_fract_x
_atom_site_fract_y
_atom_site_fract_z
_atom_type_partial_charge
C0 C 0.1187 0.4116 0.46394 0.0
O1 O 0.14269 0.43441 0.43804 0.0
Cd2 Cd 0.2085 0.44889 0.48216 0.0
O3 O 0.1304 0.3984 0.50774 0.0
Cd4 Cd 0.19027 0.3906 0.56403 0.0
C5 C 0.19748 0.50365 0.61603 0.0
O6 O 0.19136 0.35517 0.47115 0.0
O7 O 0.22903 0.3219 0.52387 0.0
O8 O 0.19281 0.3387 0.62854 0.0
C9 C 0.21196 0.31967 0.47655 0.0
O10 O 0.19136 0.50043 0.56529 0.0
C11 C 0.1568 0.3379 0.63462 0.0
O12 O 0.21774 0.47157 0.6318 0.0
O13 O 0.13575 0.35978 0.60474 0.0
C14 C 1.00191 0.7746 0.79272 0.0
O15 O 1.00592 0.72847 0.80037 0.0
Cd16 Cd 1.02261 0.64855 0.74732 0.0
O17 O 1.00382 0.78538 0.74628 0.0
Cd18 Cd 1.03656 0.73393 0.6788 0.0
C19 C 0.9965 0.61095 0.62694 0.0
O20 O 0.0821 0.69455 0.72846 0.0
O21 O 0.08725 0.7813 0.75105 0.0
O22 O 1.03753 0.79232 0.61828 0.0
C23 C 0.09837 0.73887 0.76012 0.0
O24 O 0.98596 0.58877 0.66414 0.0
C25 C 0.0612 0.76799 0.5904 0.0
O26 O 0.98942 0.65843 0.6328 0.0
O27 O 0.0732 0.72835 0.60493 0.0
C28 C 0.5908 0.88321 0.97459 0.0
O29 O 0.60202 0.90791 0.93928 0.0
Cd30 Cd 0.67027 0.93843 0.95073 0.0
O31 O 0.61521 0.87282 1.00961 0.0
Cd32 Cd 0.6813 0.87317 0.0451 0.0
C33 C 0.67115 0.95876 0.08522 0.0
O34 O 0.693 0.85699 0.95225 0.0
O35 O 0.71263 0.80222 0.99923 0.0
O36 O 0.62972 0.82973 0.07638 0.0
C37 C 0.70525 0.81315 0.9532 0.0
O38 O 0.67776 0.98031 0.04581 0.0
C39 C 0.65156 0.81911 0.11451 0.0
O40 O 0.70194 0.95394 0.11407 0.0
O41 O 0.68879 0.82849 0.11585 0.0
C42 C 0.55588 0.32677 0.34077 0.0
O43 O 0.58422 0.30413 0.355 0.0
Cd44 Cd 0.62847 0.27006 0.29701 0.0
O45 O 0.54428 0.32459 0.29114 0.0
Cd46 Cd 0.55614 0.28531 0.20056 0.0
C47 C 0.56719 0.17359 0.20258 0.0
O48 O 0.62384 0.32099 0.23148 0.0
O49 O 0.61357 0.26436 0.1537 0.0
O50 O 0.51673 0.34627 0.17161 0.0
C51 C 0.63791 0.29514 0.1916 0.0
O52 O 0.60154 0.19166 0.2275 0.0
C53 C 0.53311 0.31094 0.1424 0.0
O54 O 0.53849 0.19848 0.21164 0.0
O55 O 0.51128 0.26822 0.11493 0.0
C56 C 0.12041 0.82043 0.33757 0.0
O57 O 0.14609 0.80709 0.36909 0.0
Cd58 Cd 0.20712 0.78845 0.33969 0.0
O59 O 0.12912 0.83258 0.29373 0.0
Cd60 Cd 0.18342 0.84496 0.23896 0.0
C61 C 0.16388 0.71248 0.21242 0.0
O62 O 0.23867 0.86096 0.30893 0.0
O63 O 0.25309 0.82606 0.22958 0.0
O64 O 0.17408 0.93666 0.23544 0.0
C65 C 0.26434 0.84383 0.2802 0.0
O66 O 0.18226 0.71608 0.25939 0.0
C67 C 0.15919 0.92543 0.1858 0.0
O68 O 0.15784 0.75349 0.19478 0.0
O69 O 0.15808 0.87751 0.15908 0.0
C70 C 0.4527 0.7838 0.45493 0.0
O71 O 0.47445 0.80863 0.42796 0.0
Cd72 Cd 0.54395 0.82363 0.42566 0.0
O73 O 0.46786 0.76051 0.48981 0.0
Cd74 Cd 0.5409 0.76085 0.52479 0.0
C75 C 0.56771 0.89454 0.55699 0.0
O76 O 0.57415 0.75115 0.44112 0.0
O77 O 0.60958 0.77936 0.51929 0.0
O78 O 0.53621 0.66954 0.53832 0.0
C79 C 0.6082 0.76602 0.46824 0.0
O80 O 0.56895 0.89076 0.5065 0.0
C81 C 0.55539 0.68265 0.58581 0.0
O82 O 0.55361 0.85512 0.57574 0.0
O83 O 0.5642 0.73237 0.60759 0.0
C84 C 0.62122 0.30964 0.8373 0.0
O85 O 0.64795 0.2941 0.86519 0.0
Cd86 Cd 0.71 0.28325 0.83524 0.0
O87 O 0.62844 0.32663 0.79525 0.0
Cd88 Cd 0.68223 0.34427 0.74089 0.0
C89 C 0.66775 0.21138 0.70686 0.0
O90 O 0.73722 0.3632 0.81271 0.0
O91 O 0.75375 0.33494 0.73328 0.0
O92 O 0.66691 0.43273 0.73793 0.0
C93 C 0.7643 0.35198 0.78414 0.0
O94 O 0.68791 0.21308 0.75214 0.0
C95 C 0.65479 0.42213 0.6873 0.0
O96 O 0.65899 0.25335 0.69353 0.0
O97 O 0.65763 0.37586 0.65969 0.0
C98 C 0.95652 0.28944 0.948 0.0
O99 O 0.97921 0.31557 0.92321 0.0
Cd100 Cd 1.04895 0.32733 0.92343 0.0
O101 O 0.97041 0.26346 0.98126 0.0
Cd102 Cd 1.04177 0.26049 0.01959 0.0
C103 C 0.07053 0.39466 0.0558 0.0
O104 O 0.07556 0.25141 0.93702 0.0
O105 O 0.11069 0.27601 1.01564 0.0
O106 O 1.03616 0.16766 0.03095 0.0
C107 C 0.10949 0.26358 0.96459 0.0
O108 O 0.07335 0.39232 1.00589 0.0
C109 C 1.05371 0.18026 0.07938 0.0
O110 O 0.05515 0.35453 0.07251 0.0
O111 O 0.06181 0.22988 0.10193 0.0
C112 C 0.55578 0.05432 0.47954 0.0
O113 O 0.55052 1.00917 0.44625 0.0
Cd114 Cd 0.50858 1.01987 0.36833 0.0
O115 O 0.53791 0.09081 0.46423 0.0
Cd116 Cd 0.48652 0.07702 0.36677 0.0
C117 C 0.43781 0.94213 0.35275 0.0
O118 O 0.5476 0.06531 0.31315 0.0
O119 O 0.49433 0.04225 0.26013 0.0
O120 O 0.47223 0.18027 0.3903 0.0
C121 C 0.53168 0.04973 0.26427 0.0
O122 O 0.46652 0.93311 0.32665 0.0
C123 C 0.43638 0.17222 0.3688 0.0
O124 O 0.43747 0.99104 0.37759 0.0
O125 O 0.42412 0.12297 0.34657 0.0
C126 C 0.3549 0.09851 0.61078 0.0
O127 O 0.32751 0.06614 0.62118 0.0
Cd128 Cd 0.26663 0.09341 0.6377 0.0
O129 O 0.34776 0.14193 0.5985 0.0
Cd130 Cd 0.29049 0.189 0.58309 0.0
C131 C 0.30945 0.21811 0.71638 0.0
O132 O 0.23566 0.11528 0.55987 0.0
O133 O 0.22095 0.18647 0.60953 0.0
O134 O 0.30868 0.19986 0.49372 0.0
C135 C 0.20962 0.13842 0.58282 0.0
O136 O 0.28965 0.17207 0.71273 0.0
C137 C 0.31109 0.25065 0.50435 0.0
O138 O 0.31692 0.23504 0.6746 0.0
O139 O 0.3017 0.27285 0.55007 0.0
C140 C 0.17387 0.05067 1.00245 0.0
O141 O 0.17853 0.09771 0.99439 0.0
Cd142 Cd 0.2174 0.09458 0.9166 0.0
O143 O 0.18911 1.01512 0.96974 0.0
Cd144 Cd 0.23279 1.02066 0.88161 0.0
C145 C 0.29195 0.15752 0.89904 0.0
O146 O 0.18371 0.06523 0.82272 0.0
O147 O 0.20207 0.99312 0.78022 0.0
O148 O 0.24501 0.91878 0.85385 0.0
C149 C 0.18245 0.03109 0.77778 0.0
O150 O 0.26246 0.17614 0.91697 0.0
C151 C 0.2812 0.92534 0.87326 0.0
O152 O 0.29016 0.10589 0.88689 0.0
O153 O 0.29514 0.97409 0.89572 0.0
C154 C 0.34144 0.96733 0.03135 0.0
O155 O 0.31243 0.98435 1.00948 0.0
Cd156 Cd 0.24764 0.93879 0.01762 0.0
O157 O 0.33621 0.93205 0.05887 0.0
Cd158 Cd 0.29909 0.87289 0.1022 0.0
C159 C 0.26717 0.80647 0.98679 0.0
O160 O 0.25972 0.93478 0.10972 0.0
O161 O 0.28128 0.92571 0.18916 0.0
O162 O 0.3205 0.80247 0.13267 0.0
C163 C 0.26402 0.95287 0.16051 0.0
O164 O 0.26226 0.85092 0.97492 0.0
C165 C 0.35662 0.81919 0.13119 0.0
O166 O 0.26251 0.80027 0.03378 0.0
O167 O 0.36636 0.86584 0.12327 0.0
C168 C 0.51116 0.47426 0.14873 0.0
O169 O 0.49016 0.49831 0.12122 0.0
Cd170 Cd 0.42088 0.49878 0.10974 0.0
O171 O 0.49533 0.44281 0.17604 0.0
Cd172 Cd 0.42284 0.40322 0.17737 0.0
C173 C 0.39814 0.36877 0.03971 0.0
O174 O 0.39037 0.48371 0.18505 0.0
O175 O 0.35453 0.40596 0.1557 0.0
O176 O 0.41513 0.39252 0.27094 0.0
C177 C 0.3563 0.45627 0.16975 0.0
O178 O 0.39706 0.41818 0.04234 0.0
C179 C 0.40495 0.34191 0.257 0.0
O180 O 0.41053 0.35168 0.08088 0.0
O181 O 0.40746 0.31936 0.20804 0.0
C182 C 0.95979 0.14341 0.138 0.0
O183 O 0.96216 0.14919 0.18939 0.0
Cd184 Cd 0.94502 0.20735 0.26841 0.0
O185 O 0.94683 0.17787 0.11484 0.0
Cd186 Cd 0.9073 0.23006 0.16794 0.0
C187 C 0.95758 0.31395 0.27175 0.0
O188 O 0.87475 0.19139 0.23258 0.0
O189 O 0.87214 0.14194 0.15129 0.0
O190 O 0.86307 0.25041 0.10036 0.0
C191 C 0.85952 0.14906 0.19693 0.0
O192 O 0.9786 0.30194 0.3094 0.0
C193 C 0.85811 0.2942 0.13106 0.0
O194 O 0.96051 0.28672 0.22493 0.0
O195 O 0.87883 0.30985 0.17692 0.0
C196 C 0.15251 0.56553 0.47957 0.0
O197 O 0.14682 0.60576 0.46048 0.0
Cd198 Cd 0.16933 0.62366 0.37993 0.0
O199 O 0.1773 0.53485 0.4595 0.0
Cd200 Cd 0.22591 0.52255 0.37576 0.0
C201 C 0.26892 0.6669 0.39091 0.0
O202 O 0.16358 0.53377 0.32602 0.0
O203 O 0.2031 0.51472 0.26876 0.0
O204 O 0.24134 0.41959 0.35842 0.0
C205 C 0.16931 0.52686 0.27686 0.0
O206 O 0.23473 0.67971 0.39337 0.0
C207 C 0.27707 0.42836 0.38073 0.0
O208 O 0.27325 0.61691 0.3841 0.0
O209 O 0.28923 0.4782 0.40032 0.0
C210 C 1.00938 0.97579 0.64711 0.0
O211 O 0.98872 1.00221 0.62202 0.0
Cd212 Cd 0.91972 1.00469 0.60946 0.0
O213 O 0.99341 0.94209 0.67189 0.0
Cd214 Cd 0.9211 0.90528 0.67256 0.0
C215 C 0.89558 0.87636 0.53516 0.0
O216 O 0.88869 0.98564 0.68269 0.0
O217 O 0.8528 0.90774 0.65324 0.0
O218 O 0.91395 0.89548 0.7655 0.0
C219 C 0.85463 0.95808 0.6675 0.0
O220 O 0.89548 0.92624 0.53963 0.0
C221 C 0.90543 0.84467 0.75235 0.0
O222 O 0.90744 0.85721 0.57516 0.0
O223 O 0.90813 0.82167 0.70356 0.0
C224 C 1.04273 0.05021 0.46873 0.0
O225 O 1.04272 1.00975 0.43028 0.0
Cd226 Cd 0.99394 1.00775 0.35398 0.0
O227 O 1.02144 0.08519 0.4584 0.0
Cd228 Cd 0.9779 0.078 0.35875 0.0
C229 C 0.91826 0.94217 0.35393 0.0
O230 O 1.01385 1.02824 0.27063 0.0
O231 O 1.02868 0.11284 0.29883 0.0
O232 O 0.96022 0.17606 0.39585 0.0
C233 C 1.03293 0.07135 0.26363 0.0
O234 O 0.94942 0.92355 0.34375 0.0
C235 C 0.92745 0.17195 0.36637 0.0
O236 O 0.9196 0.99356 0.36056 0.0
O237 O 0.91803 0.12651 0.33267 0.0
C238 C 0.42445 0.61908 0.65914 0.0
O239 O 0.39774 0.60532 0.68672 0.0
Cd240 Cd 0.36453 0.66746 0.73825 0.0
O241 O 0.43468 0.66809 0.65715 0.0
Cd242 Cd 0.41504 0.75936 0.68516 0.0
C243 C 0.41961 0.78077 0.78091 0.0
O244 O 0.34844 0.7073 0.66498 0.0
O245 O 0.35023 0.79163 0.6954 0.0
O246 O 0.42496 0.77441 0.59811 0.0
C247 C 0.32983 0.74618 0.67464 0.0
O248 O 0.42133 0.73111 0.76753 0.0
C249 C 0.42889 0.82495 0.6157 0.0
O250 O 0.44925 0.81253 0.77656 0.0
O251 O 0.43998 0.84291 0.66597 0.0
C252 C 0.54439 0.5454 0.96428 0.0
O253 O 0.54588 0.50587 0.92547 0.0
Cd254 Cd 0.49555 0.49778 0.84947 0.0
O255 O 0.5207 0.57784 0.95512 0.0
Cd256 Cd 0.47698 0.56748 0.85709 0.0
C257 C 0.42183 0.42967 0.85433 0.0
O258 O 0.51473 0.52419 0.76801 0.0
O259 O 0.52935 0.60821 0.80099 0.0
O260 O 0.45322 0.6591 0.8988 0.0
C261 C 0.5346 0.56831 0.76438 0.0
O262 O 0.4528 0.41164 0.84185 0.0
C263 C 0.41916 0.6517 0.87171 0.0
O264 O 0.42249 0.48084 0.86105 0.0
O265 O 0.41195 0.60793 0.83527 0.0
C266 C 0.66568 0.08037 0.98803 0.0
O267 O 0.65475 0.11543 0.96437 0.0
Cd268 Cd 0.67292 0.12989 0.88036 0.0
O269 O 0.6897 0.04913 0.96658 0.0
Cd270 Cd 0.73084 0.03118 0.8756 0.0
C271 C 0.77199 0.17624 0.89263 0.0
O272 O 0.66679 0.03973 0.82534 0.0
O273 O 0.70711 1.02349 0.76866 0.0
O274 O 0.74308 0.92646 0.8589 0.0
C275 C 0.67265 0.0332 0.7761 0.0
O276 O 0.73739 0.18776 0.89356 0.0
C277 C 0.7796 0.93377 0.87706 0.0
O278 O 0.77719 0.12651 0.8854 0.0
O279 O 0.79354 0.98349 0.89384 0.0
C280 C 0.85311 0.60342 0.11199 0.0
O281 O 0.82528 0.57545 0.12705 0.0
Cd282 Cd 0.76341 0.60265 0.13639 0.0
O283 O 0.8469 0.64436 0.0938 0.0
Cd284 Cd 0.78887 0.69072 0.07647 0.0
C285 C 0.80445 0.72799 0.2114 0.0
O286 O 0.73503 0.61484 0.05162 0.0
O287 O 0.7187 0.68414 0.10217 0.0
O288 O 0.80677 0.7021 0.98628 0.0
C289 C 0.70826 0.63622 0.07458 0.0
O290 O 0.78248 0.68397 0.20965 0.0
C291 C 0.80865 0.75284 0.99675 0.0
O292 O 0.81476 0.74016 0.16844 0.0
O293 O 0.79898 0.77458 0.04243 0.0
C294 C 0.05777 0.56036 0.98655 0.0
O295 O 1.0536 0.51737 0.95025 0.0
Cd296 Cd 1.012 0.53394 0.87579 0.0
O297 O 1.03913 0.59757 0.97479 0.0
Cd298 Cd 0.99052 0.58628 0.87697 0.0
C299 C 0.94139 0.45343 0.85854 0.0
O300 O 0.05427 0.58939 0.82975 0.0
O301 O 1.00588 0.54308 0.77602 0.0
O302 O 0.97124 0.68595 0.89912 0.0
C303 C 1.04217 0.56273 0.78192 0.0
O304 O 0.97006 0.44631 0.83174 0.0
C305 C 0.93725 0.67661 0.87131 0.0
O306 O 0.94104 0.50138 0.88567 0.0
O307 O 0.92784 0.62772 0.84591 0.0
C308 C 0.86189 0.39451 0.55465 0.0
O309 O 0.84682 0.43571 0.54884 0.0
Cd310 Cd 0.77894 0.43545 0.51673 0.0
O311 O 0.84067 0.34886 0.54731 0.0
Cd312 Cd 0.77034 0.31452 0.53811 0.0
C313 C 0.77734 0.3151 0.43899 0.0
O314 O 0.75127 0.39648 0.58631 0.0
O315 O 0.75118 0.39718 0.58651 0.0
O316 O 0.74938 0.24121 0.58028 0.0
C317 C 0.75021 0.41625 0.63658 0.0
O318 O 0.77117 0.36212 0.43669 0.0
C319 C 0.7845 0.23054 0.58243 0.0
O320 O 0.74859 0.28209 0.44449 0.0
O321 O 0.81052 0.26143 0.56749 0.0
C322 C 0.67218 0.55259 0.49843 0.0
O323 O 0.67623 0.60017 0.49155 0.0
Cd324 Cd 0.71732 0.60504 0.41596 0.0
O325 O 0.68918 0.51883 0.46599 0.0
Cd326 Cd 0.73473 0.53133 0.37948 0.0
C327 C 0.79054 0.66966 0.39636 0.0
O328 O 0.68787 0.5766 0.31957 0.0
O329 O 0.69853 0.4977 0.282 0.0
O330 O 0.75848 0.43954 0.33766 0.0
C331 C 0.68287 0.53854 0.27694 0.0
O332 O 0.76208 0.68792 0.41795 0.0
C333 C 0.7933 0.44862 0.36278 0.0
O334 O 0.78858 0.6182 0.38242 0.0
O335 O 0.80125 0.49388 0.39673 0.0
C336 C 0.19337 0.1338 0.22371 0.0
Eu337 Eu 0.12714 0.08903 0.16902 0.0
C338 C 0.22609 0.10244 0.21758 0.0
C339 C 0.23381 0.07021 0.25446 0.0
C340 C 0.24867 1.02246 0.23727 0.0
C341 C 0.2554 1.00655 0.18309 0.0
C342 C 0.25291 0.04225 0.14886 0.0
C343 C 0.23922 0.09033 0.16634 0.0
C344 C 0.05968 0.07507 0.21822 0.0
C345 C 0.14137 0.96554 0.16236 0.0
C346 C 1.01832 0.96709 0.0413 0.0
Eu347 Eu 0.08318 1.016 0.09757 0.0
C348 C 0.98374 0.99394 0.05122 0.0
C349 C 0.97635 0.03323 0.02233 0.0
C350 C 0.96659 0.0818 0.04969 0.0
C351 C 0.96394 0.09066 0.10554 0.0
C352 C 0.96298 0.0471 0.13054 0.0
C353 C 0.97143 0.99838 0.10284 0.0
C354 C 0.14953 0.03823 0.04762 0.0
C355 C 0.06967 0.13987 0.10439 0.0
O356 O 0.17995 0.14864 0.18031 0.0
O357 O 0.16499 0.11361 0.24704 0.0
O358 O 0.08034 0.12064 0.21809 0.0
O359 O 0.07452 0.03695 0.18881 0.0
O360 O 0.15338 1.01645 0.18387 0.0
O361 O 0.11128 0.95134 0.12456 0.0
O362 O 1.03392 0.95021 0.08219 0.0
O363 O 1.04501 0.99316 0.01984 0.0
O364 O 0.13219 0.9905 0.04716 0.0
O365 O 0.13235 0.07225 0.07789 0.0
O366 O 0.05578 0.08886 0.08518 0.0
O367 O 0.10112 0.15383 0.14006 0.0
H368 H 0.22431 0.07878 0.29441 0.0
H369 H 0.25169 0.9961 0.26479 0.0
H370 H 0.25961 0.03186 0.10742 0.0
H371 H 0.23464 0.11463 0.13714 0.0
H372 H 0.98401 0.02993 0.98151 0.0
H373 H 0.96442 0.1136 0.02845 0.0
H374 H 0.95781 0.05126 0.17255 0.0
H375 H 0.97455 0.96764 0.1253 0.0
C376 C 0.31741 0.89487 0.494 0.0
Eu377 Eu 0.33929 0.84004 0.40762 0.0
C378 C 0.33813 0.89469 0.5473 0.0
C379 C 0.37594 0.92551 0.56369 0.0
C380 C 0.4062 0.90378 0.58747 0.0
C381 C 0.39862 0.85111 0.59349 0.0
C382 C 0.35979 0.82441 0.58499 0.0
C383 C 0.32935 0.84778 0.56578 0.0
C384 C 0.30355 0.84076 0.30717 0.0
C385 C 0.30193 0.71085 0.38818 0.0
C386 C 0.40267 0.71504 0.26196 0.0
Eu387 Eu 0.36976 0.7702 0.33888 0.0
C388 C 0.41459 0.7284 0.21231 0.0
C389 C 0.39071 0.70108 0.16398 0.0
C390 C 0.37517 0.73099 0.13026 0.0
C391 C 0.3858 0.78692 0.14384 0.0
C392 C 0.41839 0.81096 0.18226 0.0
C393 C 0.43345 0.78105 0.21644 0.0
C394 C 0.40963 0.77992 0.44016 0.0
C395 C 0.40801 0.89632 0.35885 0.0
O396 O 0.33873 0.91725 0.46316 0.0
O397 O 0.29787 0.84854 0.46701 0.0
O398 O 0.31854 0.88217 0.3448 0.0
O399 O 0.31104 0.79897 0.32264 0.0
O400 O 0.30548 0.75988 0.41989 0.0
O401 O 0.32332 0.70368 0.34829 0.0
O402 O 0.36475 0.71007 0.26342 0.0
O403 O 0.42218 0.74392 0.30753 0.0
O404 O 0.39139 0.73529 0.40933 0.0
O405 O 0.39866 0.81723 0.42045 0.0
O406 O 0.39889 0.85038 0.32156 0.0
O407 O 0.3922 0.89987 0.40401 0.0
H408 H 0.38333 0.96294 0.55166 0.0
H409 H 0.4357 0.9262 0.59724 0.0
H410 H 0.35303 0.78427 0.591 0.0
H411 H 0.30025 0.82407 0.55599 0.0
H412 H 0.37704 0.65982 0.15905 0.0
H413 H 0.35074 0.71177 0.09915 0.0
H414 H 0.42764 0.85402 0.19198 0.0
H415 H 0.45377 0.80227 0.25205 0.0
C416 C 0.51323 0.08217 0.68823 0.0
Eu417 Eu 0.58103 0.06198 0.66165 0.0
C418 C 0.47362 0.08316 0.66182 0.0
C419 C 0.44221 0.04687 0.66967 0.0
C420 C 0.40383 0.05014 0.6502 0.0
C421 C 0.39594 0.08992 0.62246 0.0
C422 C 0.42755 0.12516 0.61277 0.0
C423 C 0.46615 0.12171 0.63215 0.0
C424 C 0.64079 0.04044 0.73317 0.0
C425 C 0.64945 0.15943 0.6738 0.0
C426 C 0.7184 1.02507 0.57332 0.0
Eu427 Eu 0.6502 0.0446 0.59817 0.0
C428 C 0.75292 1.01162 0.60302 0.0
C429 C 0.79011 0.04162 0.60536 0.0
C430 C 0.82354 1.02702 0.63033 0.0
C431 C 0.81998 0.98152 0.65233 0.0
C432 C 0.78255 0.95296 0.65199 0.0
C433 C 0.74925 0.96817 0.62811 0.0
C434 C 0.58991 0.06488 0.52568 0.0
C435 C 0.58429 0.94584 0.59291 0.0
O436 O 0.54156 0.11942 0.68412 0.0
O437 O 0.52412 0.03489 0.684 0.0
O438 O 0.60636 0.04975 0.74446 0.0
O439 O 0.64172 0.04248 0.6836 0.0
O440 O 0.61121 0.1464 0.67105 0.0
O441 O 0.67189 0.12436 0.65546 0.0
O442 O 0.71078 0.07388 0.58982 0.0
O443 O 0.68683 0.98857 0.56179 0.0
O444 O 0.62474 0.05658 0.51536 0.0
O445 O 0.58935 0.06381 0.57568 0.0
O446 O 0.62248 0.96061 0.59665 0.0
O447 O 0.56069 0.98079 0.60666 0.0
H448 H 0.44722 1.01694 0.69252 0.0
H449 H 0.38024 1.02273 0.65905 0.0
H450 H 0.42241 0.15653 0.59193 0.0
H451 H 0.48989 0.15022 0.62533 0.0
H452 H 0.79335 0.07509 0.5861 0.0
H453 H 0.85217 0.04922 0.62945 0.0
H454 H 0.77917 0.91763 0.66863 0.0
H455 H 0.72085 0.94476 0.62781 0.0
C456 C 0.46089 0.23644 0.85609 0.0
Eu457 Eu 0.39211 0.26138 0.87098 0.0
C458 C 0.50125 0.26261 0.85627 0.0
C459 C 0.53164 0.25051 0.88991 0.0
C460 C 0.5707 0.26873 0.88607 0.0
C461 C 0.58015 0.29955 0.84846 0.0
C462 C 0.54956 0.31417 0.81678 0.0
C463 C 0.51036 0.29594 0.82073 0.0
C464 C 0.32779 0.19489 0.89198 0.0
C465 C 0.32679 0.2495 0.76987 0.0
C466 C 0.25237 0.35085 0.89883 0.0
Eu467 Eu 0.32147 0.3266 0.8849 0.0
C468 C 0.21596 0.3229 0.91162 0.0
C469 C 0.17985 0.3231 0.88127 0.0
C470 C 0.14472 0.30019 0.89578 0.0
C471 C 0.14552 0.27723 0.9411 0.0
C472 C 0.18183 0.27476 0.96964 0.0
C473 C 0.21678 0.29693 0.95478 0.0
C474 C 0.38595 0.39256 0.8623 0.0
C475 C 0.38311 0.33219 0.98763 0.0
O476 O 0.44761 0.24201 0.90328 0.0
O477 O 0.4345 0.23876 0.81628 0.0
O478 O 0.36146 0.18032 0.88313 0.0
O479 O 0.33068 0.24371 0.8889 0.0
O480 O 0.36453 0.25052 0.78456 0.0
O481 O 0.30316 0.26894 0.80388 0.0
O482 O 0.26229 0.33202 0.85073 0.0
O483 O 0.28232 0.36398 0.93758 0.0
O484 O 0.35203 0.40681 0.87002 0.0
O485 O 0.383 0.34407 0.86639 0.0
O486 O 0.34544 0.32903 0.9709 0.0
O487 O 0.40831 0.31737 0.95385 0.0
H488 H 0.52522 0.22497 0.91764 0.0
H489 H 0.59347 0.25618 0.91062 0.0
H490 H 0.55585 0.33777 0.78733 0.0
H491 H 0.48738 0.30629 0.79459 0.0
H492 H 0.17876 0.34242 0.84741 0.0
H493 H 0.11703 0.30313 0.87358 0.0
H494 H 0.18311 0.25722 1.00476 0.0
H495 H 0.24429 0.29517 0.9782 0.0
C496 C 0.15253 0.92476 0.54398 0.0
Eu497 Eu 0.12905 1.01106 0.59477 0.0
C498 C 0.12837 0.87261 0.52304 0.0
C499 C 0.144 0.82775 0.53242 0.0
C500 C 0.1197 0.78672 0.54595 0.0
C501 C 0.08016 0.79165 0.55075 0.0
C502 C 0.06324 0.83073 0.53034 0.0
C503 C 0.08739 0.87104 0.51575 0.0
C504 C 0.17181 0.10629 0.5871 0.0
C505 C 0.15999 0.03738 0.72491 0.0
C506 C 0.07647 0.17215 0.6989 0.0
Eu507 Eu 0.10048 0.08483 0.65237 0.0
C508 C 0.09905 0.225 0.70684 0.0
C509 C 0.07972 0.26683 0.69702 0.0
C510 C 0.09989 0.30799 0.6784 0.0
C511 C 0.13924 0.3068 0.66974 0.0
C512 C 0.15986 0.26921 0.68728 0.0
C513 C 0.13976 0.22817 0.7055 0.0
C514 C 1.05234 0.99083 0.65151 0.0
C515 C 0.06561 0.05135 0.52382 0.0
O516 O 0.144 0.96242 0.5203 0.0
O517 O 0.15617 0.94023 0.59689 0.0
O518 O 0.15722 0.06657 0.54751 0.0
O519 O 0.16203 0.09549 0.63085 0.0
O520 O 0.15297 0.99893 0.67982 0.0
O521 O 0.14673 0.08229 0.7224 0.0
O522 O 0.09164 0.14089 0.72612 0.0
O523 O 0.06616 0.14875 0.64777 0.0
O524 O 0.06887 1.02584 0.69434 0.0
O525 O 0.06655 1.0038 0.6115 0.0
O526 O 0.07629 0.09382 0.5651 0.0
O527 O 0.0771 1.00677 0.53131 0.0
H528 H 0.17553 0.8284 0.53791 0.0
H529 H 0.13318 0.75614 0.56076 0.0
H530 H 1.0325 0.83417 0.53242 0.0
H531 H 0.0746 0.90484 0.50728 0.0
H532 H 1.04826 0.26437 0.69748 0.0
H533 H 0.08383 0.33761 0.66603 0.0
H534 H 0.19038 0.26795 0.68147 0.0
H535 H 0.1551 0.19564 0.71202 0.0
C536 C 0.24857 0.6998 0.797 0.0
Eu537 Eu 0.31186 0.74732 0.85498 0.0
C538 C 0.21104 0.71843 0.80645 0.0
C539 C 0.18053 0.68502 0.82085 0.0
C540 C 0.14234 0.69692 0.81537 0.0
C541 C 0.13512 0.74153 0.79487 0.0
C542 C 0.16656 0.78076 0.79316 0.0
C543 C 0.20454 0.76911 0.7988 0.0
C544 C 0.29721 0.78048 0.95883 0.0
C545 C 0.30513 0.87897 0.87412 0.0
C546 C 0.42933 0.86239 0.99547 0.0
Eu547 Eu 0.37495 0.82061 0.91736 0.0
C548 C 0.47013 0.85882 0.98936 0.0
C549 C 0.48254 0.85972 0.93837 0.0
C550 C 0.52197 0.86543 0.93278 0.0
C551 C 0.54935 0.86832 0.97766 0.0
C552 C 0.53674 0.8606 0.027 0.0
C553 C 0.49696 0.85628 0.03299 0.0
C554 C 0.38979 0.79947 0.81395 0.0
C555 C 0.39053 0.69301 0.8806 0.0
O556 O 0.27396 0.7317 0.77868 0.0
O557 O 0.26421 0.67973 0.83559 0.0
O558 O 0.29111 0.73054 0.93352 0.0
O559 O 0.31431 0.80687 0.9302 0.0
O560 O 0.29279 0.82935 0.84356 0.0
O561 O 0.33674 0.88613 0.91039 0.0
O562 O 0.40713 0.81701 0.99464 0.0
O563 O 0.41375 0.89016 0.96403 0.0
O564 O 0.39733 0.84703 0.84598 0.0
O565 O 0.37232 0.76644 0.83664 0.0
O566 O 0.40225 0.74131 0.91367 0.0
O567 O 0.35576 0.68524 0.85006 0.0
H568 H 0.18534 0.64723 0.83021 0.0
H569 H 0.11822 0.668 0.82031 0.0
H570 H 0.16171 0.81644 0.77918 0.0
H571 H 0.22773 0.79732 0.79067 0.0
H572 H 0.46201 0.85923 0.90337 0.0
H573 H 0.53103 0.86958 0.89404 0.0
H574 H 0.55764 0.86223 0.06213 0.0
H575 H 0.48754 0.85409 0.07201 0.0
C576 C 0.70105 0.12186 0.22477 0.0
Eu577 Eu 0.63627 0.07568 0.16525 0.0
C578 C 0.74108 0.11639 0.21416 0.0
C579 C 0.76879 0.10974 0.25532 0.0
C580 C 0.80846 0.114 0.24796 0.0
C581 C 0.81983 0.1238 0.19909 0.0
C582 C 0.79126 0.12175 0.15526 0.0
C583 C 0.75208 0.11841 0.16289 0.0
C584 C 0.63703 0.97432 0.11309 0.0
C585 C 0.64461 0.07306 0.03616 0.0
C586 C 0.50402 1.00137 1.01196 0.0
Eu587 Eu 0.56275 0.03706 0.08699 0.0
C588 C 0.46238 1.00056 0.01779 0.0
C589 C 0.43502 1.00576 0.97535 0.0
C590 C 0.39483 1.00004 0.98087 0.0
C591 C 0.38233 0.9888 0.02873 0.0
C592 C 0.41033 0.98907 0.07274 0.0
C593 C 0.44994 0.99514 0.06741 0.0
C594 C 0.56333 0.13231 0.15357 0.0
C595 C 0.55584 0.04496 0.21654 0.0
O596 O 0.68116 0.14595 0.19326 0.0
O597 O 0.68089 0.0785 0.23247 0.0
O598 O 0.64346 0.99043 0.16544 0.0
O599 O 0.62016 1.00761 0.09381 0.0
O600 O 0.66335 0.08459 0.08665 0.0
O601 O 0.60591 0.05672 0.0273 0.0
O602 O 0.52179 0.97029 0.0378 0.0
O603 O 0.52413 0.04948 0.0193 0.0
O604 O 0.53141 0.09925 0.13473 0.0
O605 O 0.59193 0.11642 0.13179 0.0
O606 O 0.54149 1.01697 0.166 0.0
O607 O 0.59139 0.07363 0.22556 0.0
H608 H 0.76032 0.10607 0.29446 0.0
H609 H 0.83028 0.11468 0.2818 0.0
H610 H 0.79938 0.129 0.11702 0.0
H611 H 0.73115 0.12184 0.12989 0.0
H612 H 0.44447 1.0114 0.93728 0.0
H613 H 0.37365 1.00005 0.94656 0.0
H614 H 0.40147 0.98155 0.11054 0.0
H615 H 0.47068 0.99306 0.10143 0.0
C616 C 0.44436 0.39594 0.47186 0.0
Eu617 Eu 0.38141 0.33596 0.42013 0.0
C618 C 0.4819 0.39344 0.45012 0.0
C619 C 0.50647 0.35848 0.46529 0.0
C620 C 0.53304 0.33928 0.43126 0.0
C621 C 0.53496 0.35487 0.38199 0.0
C622 C 0.51414 0.39485 0.3703 0.0
C623 C 0.48817 0.41473 0.40468 0.0
C624 C 0.32658 0.28235 0.46687 0.0
C625 C 0.4092 0.21597 0.37046 0.0
C626 C 0.26456 0.20117 0.30378 0.0
Eu627 Eu 0.32977 0.26183 0.34096 0.0
C628 C 0.23224 0.20904 0.33713 0.0
C629 C 0.21053 0.24996 0.33079 0.0
C630 C 0.20191 0.28454 0.37664 0.0
C631 C 0.21326 0.27681 0.42876 0.0
C632 C 0.22602 0.22878 0.43361 0.0
C633 C 0.23516 0.19446 0.38767 0.0
C634 C 0.38594 0.31166 0.29327 0.0
C635 C 0.30383 0.38422 0.38301 0.0
O636 O 0.41813 0.41418 0.4433 0.0
O637 O 0.4297 0.35268 0.48619 0.0
O638 O 0.33834 0.33356 0.48195 0.0
O639 O 0.34407 0.26245 0.42799 0.0
O640 O 0.42055 0.26735 0.39681 0.0
O641 O 0.37272 0.20203 0.34582 0.0
O642 O 0.29393 0.18299 0.32619 0.0
O643 O 0.2765 0.24112 0.28213 0.0
O644 O 0.37009 0.26166 0.27603 0.0
O645 O 0.36936 0.33393 0.33241 0.0
O646 O 0.29216 0.3327 0.35795 0.0
O647 O 0.33991 0.39732 0.40951 0.0
H648 H 0.50261 0.34224 0.50068 0.0
H649 H 0.54953 0.30907 0.4413 0.0
H650 H 0.51621 0.40851 0.33306 0.0
H651 H 0.47035 0.44274 0.39259 0.0
H652 H 0.20622 0.2608 0.29196 0.0
H653 H 0.18965 0.31987 0.37138 0.0
H654 H 0.23144 0.2197 0.47308 0.0
H655 H 0.24983 0.16115 0.3934 0.0
C656 C 0.65147 0.41664 0.05629 0.0
Eu657 Eu 0.63036 0.50821 0.09326 0.0
C658 C 0.63387 0.37181 0.0772 0.0
C659 C 0.6052 0.33228 0.0426 0.0
C660 C 0.57191 0.31126 0.06295 0.0
C661 C 0.5659 0.33286 0.11688 0.0
C662 C 0.5948 0.3719 0.15056 0.0
C663 C 0.6305 0.38479 0.13273 0.0
C664 C 0.67136 0.60193 0.0794 0.0
C665 C 0.66046 0.54288 0.2235 0.0
C666 C 0.57382 0.66884 0.19535 0.0
Eu667 Eu 0.60037 0.58372 0.14889 0.0
C668 C 0.59405 0.72311 0.20381 0.0
C669 C 0.57354 0.75868 0.18263 0.0
C670 C 0.59335 0.79419 0.15707 0.0
C671 C 0.63367 0.79465 0.15403 0.0
C672 C 0.65528 0.76646 0.1842 0.0
C673 C 0.63542 0.73067 0.20946 0.0
C674 C 0.55424 0.48948 0.15234 0.0
C675 C 0.56815 0.54808 0.01873 0.0
O676 O 0.62526 0.43574 0.02894 0.0
O677 O 0.6749 0.45497 0.09173 0.0
O678 O 0.65891 0.55914 0.04203 0.0
O679 O 0.66122 0.59453 0.1243 0.0
O680 O 0.64989 0.50144 0.1817 0.0
O681 O 0.64989 0.58818 0.21691 0.0
O682 O 0.5903 0.63864 0.22265 0.0
O683 O 0.56435 0.64546 0.14398 0.0
O684 O 0.57092 0.5257 0.19409 0.0
O685 O 0.56806 0.50138 0.11157 0.0
O686 O 0.57422 0.58936 0.0616 0.0
O687 O 0.58395 0.50578 0.02375 0.0
H688 H 0.60674 0.32168 0.99933 0.0
H689 H 0.5501 0.28071 0.03598 0.0
H690 H 0.59138 0.38842 0.19256 0.0
H691 H 0.65414 0.40968 0.16168 0.0
H692 H 0.54168 0.75314 0.17799 0.0
H693 H 0.57645 0.81731 0.13537 0.0
H694 H 0.68663 0.7675 0.1833 0.0
H695 H 0.6519 0.70361 0.22596 0.0
C696 C 0.79098 0.24517 0.22664 0.0
Eu697 Eu 0.83771 0.28075 0.31622 0.0
C698 C 0.7532 0.26089 0.21458 0.0
C699 C 0.73694 0.28969 0.25792 0.0
C700 C 0.70067 0.30486 0.24905 0.0
C701 C 0.67905 0.2887 0.19718 0.0
C702 C 0.69559 0.26094 0.15322 0.0
C703 C 0.73311 0.24763 0.16188 0.0
C704 C 0.8094 0.29542 0.41121 0.0
C705 C 0.82194 0.40745 0.35558 0.0
C706 C 0.9543 0.4017 0.45091 0.0
Eu707 Eu 0.89495 0.34756 0.38598 0.0
C708 C 0.99555 0.39915 0.44402 0.0
C709 C 1.01826 0.44159 0.42914 0.0
C710 C 0.05867 0.44302 0.42973 0.0
C711 C 0.07655 0.40262 0.44633 0.0
C712 C 1.05341 0.35745 0.45543 0.0
C713 C 1.01297 0.35526 0.45345 0.0
C714 C 0.91859 0.325 0.28545 0.0
C715 C 0.90335 0.21861 0.3672 0.0
O716 O 0.82069 0.28351 0.23236 0.0
O717 O 0.79242 0.22068 0.26648 0.0
O718 O 0.80345 0.24957 0.37623 0.0
O719 O 0.83265 0.33 0.39721 0.0
O720 O 0.81381 0.36234 0.31704 0.0
O721 O 0.85198 0.4102 0.39317 0.0
O722 O 0.93395 0.35903 0.46049 0.0
O723 O 0.93541 0.42211 0.41532 0.0
O724 O 0.91633 0.37272 0.31231 0.0
O725 O 0.90069 0.29283 0.3085 0.0
O726 O 0.91583 0.26756 0.39848 0.0
O727 O 0.8717 0.21264 0.33138 0.0
H728 H 0.75171 0.29903 0.29918 0.0
H729 H 0.68879 0.32655 0.28367 0.0
H730 H 0.67919 0.24835 0.11285 0.0
H731 H 0.74573 0.22562 0.12822 0.0
H732 H 1.00522 0.47519 0.42033 0.0
H733 H 0.0762 0.47795 0.42222 0.0
H734 H 0.06685 0.3255 0.46757 0.0
H735 H 0.99602 0.32114 0.46329 0.0
C736 C 0.16565 0.70208 0.67361 0.0
Eu737 Eu 0.12497 0.60736 0.65671 0.0
C738 C 0.20501 0.71645 0.66002 0.0
C739 C 0.22594 0.67484 0.6408 0.0
C740 C 0.26651 0.68525 0.64316 0.0
C741 C 0.28672 0.73756 0.66443 0.0
C742 C 0.26533 0.78003 0.67848 0.0
C743 C 0.22444 0.76942 0.67624 0.0
C744 C 0.1658 0.52276 0.64633 0.0
C745 C 0.13158 0.56027 0.52857 0.0
C746 C 1.02872 0.41931 0.58066 0.0
Eu747 Eu 0.07284 0.51177 0.60485 0.0
C748 C 0.98689 0.41096 0.58711 0.0
C749 C 0.9679 0.4562 0.59567 0.0
C750 C 0.92723 0.45085 0.5869 0.0
C751 C 0.90457 0.39976 0.57101 0.0
C752 C 0.92338 0.35418 0.5691 0.0
C753 C 0.96457 0.35976 0.57607 0.0
C754 C 1.03461 0.59874 0.6095 0.0
C755 C 0.06678 0.5589 0.73496 0.0
O756 O 0.1376 0.68398 0.63293 0.0
O757 O 0.16515 0.67163 0.70826 0.0
O758 O 0.17318 0.56392 0.68721 0.0
O759 O 0.13668 0.5285 0.61623 0.0
O760 O 0.13175 0.60404 0.56675 0.0
O761 O 0.11278 0.51452 0.53581 0.0
O762 O 1.0536 0.43488 0.62545 0.0
O763 O 1.03616 0.44868 0.54593 0.0
O764 O 1.03318 0.56047 0.56647 0.0
O765 O 0.05984 0.59165 0.6454 0.0
O766 O 0.05741 0.51785 0.69231 0.0
O767 O 0.09305 0.59997 0.73166 0.0
H768 H 0.21125 0.63365 0.62793 0.0
H769 H 0.28213 0.65177 0.6311 0.0
H770 H 0.28029 0.82078 0.69421 0.0
H771 H 0.2085 0.80188 0.69097 0.0
H772 H 0.98479 0.49584 0.60497 0.0
H773 H 0.91376 0.48681 0.59046 0.0
H774 H 0.90652 0.3142 0.55796 0.0
H775 H 0.97875 0.32436 0.5694 0.0
C776 C 0.95826 0.75034 0.34876 0.0
Eu777 Eu 0.88913 0.77351 0.36464 0.0
C778 C 0.9989 0.77696 0.35101 0.0
C779 C 1.02806 0.76959 0.38988 0.0
C780 C 0.06758 0.78721 0.38781 0.0
C781 C 0.07874 0.8125 0.34671 0.0
C782 C 1.04933 0.82272 0.30969 0.0
C783 C 1.00974 0.80513 0.31182 0.0
C784 C 0.82572 0.70688 0.38748 0.0
C785 C 0.82232 0.76078 0.26447 0.0
C786 C 0.74782 0.85899 0.39764 0.0
Eu787 Eu 0.8173 0.83766 0.38103 0.0
C788 C 0.71243 0.82966 0.412 0.0
C789 C 0.67575 0.82547 0.381 0.0
C790 C 0.64152 0.80125 0.39679 0.0
C791 C 0.64371 0.78127 0.44403 0.0
C792 C 0.68066 0.78329 0.47341 0.0
C793 C 0.71471 0.80681 0.45738 0.0
C794 C 0.88175 0.90497 0.35991 0.0
C795 C 0.88033 0.84168 0.48225 0.0
O796 O 0.93221 0.75525 0.30972 0.0
O797 O 0.9444 0.75237 0.39529 0.0
O798 O 0.85912 0.69219 0.37698 0.0
O799 O 0.82837 0.75558 0.38437 0.0
O800 O 0.86013 0.76147 0.2786 0.0
O801 O 0.79907 0.78082 0.29895 0.0
O802 O 0.75705 0.84072 0.34897 0.0
O803 O 0.77847 0.87357 0.43528 0.0
O804 O 0.84775 0.91907 0.36786 0.0
O805 O 0.87848 0.85607 0.3625 0.0
O806 O 0.84249 0.83842 0.46625 0.0
O807 O 0.90544 0.82845 0.44781 0.0
H808 H 1.02045 0.74794 0.42044 0.0
H809 H 0.08943 0.77827 0.41667 0.0
H810 H 0.05692 0.84194 0.27738 0.0
H811 H 0.98788 0.81163 0.28137 0.0
H812 H 0.67346 0.84236 0.34551 0.0
H813 H 0.61335 0.80078 0.37384 0.0
H814 H 0.6831 0.76817 0.51002 0.0
H815 H 0.74263 0.80847 0.48153 0.0
C816 C 0.81466 0.40276 0.99383 0.0
Eu817 Eu 0.84164 0.34814 0.91062 0.0
C818 C 0.80454 0.38706 0.04306 0.0
C819 C 0.82871 0.41364 0.09143 0.0
C820 C 0.84307 0.38356 0.12598 0.0
C821 C 0.83213 0.3277 0.11199 0.0
C822 C 0.80079 0.30385 0.07139 0.0
C823 C 0.78618 0.33406 0.03745 0.0
C824 C 0.80344 0.34863 0.81106 0.0
C825 C 0.8042 0.22066 0.88903 0.0
C826 C 0.88281 0.22218 0.74362 0.0
Eu827 Eu 0.86861 0.27964 0.83409 0.0
C828 C 0.85271 0.19314 0.69918 0.0
C829 C 0.86297 0.17972 0.6468 0.0
C830 C 0.83522 0.17818 0.60276 0.0
C831 C 0.79821 0.1928 0.61208 0.0
C832 C 0.78543 0.19362 0.6626 0.0
C833 C 0.81299 0.19449 0.70649 0.0
C834 C 0.9139 0.28476 0.9306 0.0
C835 C 0.91089 0.40706 0.86177 0.0
O836 O 0.852 0.40452 0.98896 0.0
O837 O 0.79247 0.37778 0.94867 0.0
O838 O 0.82121 0.39042 0.84666 0.0
O839 O 0.81006 0.30744 0.82782 0.0
O840 O 0.8135 0.26641 0.92666 0.0
O841 O 0.81799 0.21878 0.84282 0.0
O842 O 0.88306 0.20477 0.78807 0.0
O843 O 0.88462 0.27427 0.75275 0.0
O844 O 0.89763 0.24109 0.8964 0.0
O845 O 0.90157 0.32351 0.9147 0.0
O846 O 0.90761 0.35877 0.82855 0.0
O847 O 0.8886 0.41363 0.90084 0.0
H848 H 0.84247 0.45482 0.09666 0.0
H849 H 0.86667 0.40272 0.15833 0.0
H850 H 0.79104 0.2609 0.06172 0.0
H851 H 0.76607 0.31321 1.0015 0.0
H852 H 0.89332 0.178 0.64044 0.0
H853 H 0.84511 0.1759 0.56323 0.0
H854 H 0.75686 0.20414 0.67046 0.0
H855 H 0.80429 0.20466 0.74648 0.0
C856 C 0.94695 0.8976 0.95935 0.0
Eu857 Eu 0.8818 0.83936 0.91551 0.0
C858 C 0.98106 0.88825 0.92989 0.0
C859 C 1.00041 0.84559 0.93795 0.0
C860 C 1.00907 0.80956 0.89308 0.0
C861 C 1.00004 0.81745 0.84044 0.0
C862 C 0.99044 0.86701 0.83466 0.0
C863 C 0.98146 0.90285 0.87954 0.0
C864 C 0.82558 0.7853 0.96047 0.0
C865 C 0.90933 0.719 0.86983 0.0
C866 C 0.76629 0.70464 0.78545 0.0
Eu867 Eu 0.83036 0.76449 0.83389 0.0
C868 C 0.73023 0.7118 0.81091 0.0
C869 C 0.71289 0.75714 0.80624 0.0
C870 C 0.70258 0.78941 0.85249 0.0
C871 C 0.70803 0.77499 0.90261 0.0
C872 C 0.71638 0.72367 0.90382 0.0
C873 C 0.72605 0.69119 0.85737 0.0
C874 C 0.88804 0.81453 0.78951 0.0
C875 C 0.80539 0.88842 0.87861 0.0
O876 O 0.91965 0.91712 0.93405 0.0
O877 O 0.93213 0.85778 0.97923 0.0
O878 O 0.83902 0.83614 0.9776 0.0
O879 O 0.84306 0.76543 0.92139 0.0
O880 O 0.92006 0.77013 0.89639 0.0
O881 O 0.87342 0.70482 0.84279 0.0
O882 O 0.79277 0.68668 0.81398 0.0
O883 O 0.7818 0.74538 0.7675 0.0
O884 O 0.87364 0.76411 0.77288 0.0
O885 O 0.87024 0.83635 0.8274 0.0
O886 O 0.79344 0.83683 0.85291 0.0
O887 O 0.84121 0.90111 0.9056 0.0
H888 H 1.00258 0.83487 0.97698 0.0
H889 H 1.02018 0.7738 0.89938 0.0
H890 H 0.98687 0.87623 0.79504 0.0
H891 H 0.96893 0.93749 0.87265 0.0
H892 H 0.71369 0.7726 0.76989 0.0
H893 H 0.69373 0.82756 0.84986 0.0
H894 H 0.7183 0.7102 0.94141 0.0
H895 H 0.73704 0.65459 0.86114 0.0
C896 C 0.70099 0.61757 0.70767 0.0
Eu897 Eu 0.62899 0.58672 0.66761 0.0
C898 C 0.72763 0.57715 0.69439 0.0
C899 C 0.73603 0.54496 0.73094 0.0
C900 C 0.74541 0.49358 0.712 0.0
C901 C 0.74627 0.47335 0.65635 0.0
C902 C 0.74213 0.50766 0.62073 0.0
C903 C 0.73352 0.55915 0.6397 0.0
C904 C 0.56328 0.57419 0.72112 0.0
C905 C 0.63836 0.46264 0.66314 0.0
C906 C 0.51457 0.47184 0.55256 0.0
Eu907 Eu 0.58327 0.51631 0.59817 0.0
C908 C 0.48093 0.49901 0.56763 0.0
C909 C 0.47477 0.54473 0.54823 0.0
C910 C 0.45628 0.58392 0.578 0.0
C911 C 0.44211 0.57681 0.6262 0.0
C912 C 0.44389 0.52831 0.64193 0.0
C913 C 0.46315 0.48965 0.61285 0.0
C914 C 0.64714 0.53817 0.54284 0.0
C915 C 0.57153 0.64199 0.61003 0.0
O916 O 0.68583 0.63466 0.66672 0.0
O917 O 0.67445 0.60628 0.73841 0.0
O918 O 0.58555 0.61969 0.72325 0.0
O919 O 0.57686 0.53611 0.68961 0.0
O920 O 0.64616 0.51236 0.69044 0.0
O921 O 0.61367 0.45022 0.6186 0.0
O922 O 0.53265 0.45426 0.59111 0.0
O923 O 0.53913 0.49604 0.52645 0.0
O924 O 0.62913 0.49032 0.54128 0.0
O925 O 0.63102 0.57175 0.57548 0.0
O926 O 0.55876 0.59132 0.58717 0.0
O927 O 0.60212 0.65501 0.64746 0.0
H928 H 0.73165 0.55734 0.7732 0.0
H929 H 0.74939 0.46828 0.74039 0.0
H930 H 0.74331 0.494 0.57763 0.0
H931 H 0.72778 0.58271 0.61016 0.0
H932 H 0.48755 0.55282 0.513 0.0
H933 H 0.45402 0.62032 0.56407 0.0
H934 H 0.43234 0.52148 0.67842 0.0
H935 H 0.46706 0.45465 0.6286 0.0
C936 C 1.00978 0.57794 0.18802 0.0
Eu937 Eu 0.0787 0.55978 0.16447 0.0
C938 C 0.97059 0.58083 0.1616 0.0
C939 C 0.93822 0.54837 0.17257 0.0
C940 C 0.90023 0.5541 0.15393 0.0
C941 C 0.89363 0.59248 0.12367 0.0
C942 C 0.92619 0.62375 0.1108 0.0
C943 C 0.96447 0.61789 0.12953 0.0
C944 C 0.13781 0.53572 0.23485 0.0
C945 C 0.14659 0.65968 0.1804 0.0
C946 C 0.22092 0.5303 0.08106 0.0
Eu947 Eu 0.15142 0.54642 0.10342 0.0
C948 C 0.25506 0.51432 0.10913 0.0
C949 C 0.29224 0.54585 0.11589 0.0
C950 C 0.32539 0.52891 0.13887 0.0
C951 C 0.32162 0.47997 0.15486 0.0
C952 C 0.28415 0.44975 0.15018 0.0
C953 C 0.25113 0.46691 0.12795 0.0
C954 C 0.09163 0.56897 0.03214 0.0
C955 C 0.08578 0.44563 0.0933 0.0
O956 O 1.0385 0.61605 0.18724 0.0
O957 O 1.02042 0.53032 0.18122 0.0
O958 O 0.1032 0.54431 0.24626 0.0
O959 O 0.13907 0.54034 0.18621 0.0
O960 O 0.10848 0.64502 0.17781 0.0
O961 O 0.17016 0.62636 0.16147 0.0
O962 O 0.21279 0.57796 0.10196 0.0
O963 O 0.18953 0.4937 0.06506 0.0
O964 O 0.12651 0.56106 0.02146 0.0
O965 O 0.091 0.56559 0.08133 0.0
O966 O 0.12401 0.46154 0.09902 0.0
O967 O 0.06115 0.47938 0.10669 0.0
H968 H 0.94225 0.5198 0.19745 0.0
H969 H 0.87602 0.53003 0.16568 0.0
H970 H 0.92213 0.65394 0.08796 0.0
H971 H 0.98906 0.64343 0.12036 0.0
H972 H 0.29577 0.5828 0.10203 0.0
H973 H 0.35403 0.55263 0.14157 0.0
H974 H 0.2805 0.4119 0.16235 0.0
H975 H 0.22275 0.44219 0.12417 0.0
loop_
_geom_bond_atom_site_label_1
_geom_bond_atom_site_label_2
_geom_bond_distance
_geom_bond_site_symmetry_2
_ccdc_geom_bond_type
C0 O1 1.306 . S
C0 O3 1.160 . S
O1 C0 1.306 . S
O1 Cd2 2.228 . S
Cd2 O1 2.228 . S
Cd2 O6 2.273 . S
Cd2 O10 2.277 . S
O3 C0 1.160 . S
O3 Cd4 2.203 . S
Cd4 O3 2.203 . S
Cd4 O6 2.411 . S
Cd4 O7 2.333 . S
Cd4 O8 2.352 . S
Cd4 O12 2.277 . S
Cd4 O13 2.356 . S
C5 O10 1.209 . S
C5 O12 1.226 . S
O6 Cd2 2.273 . S
O6 Cd4 2.411 . S
O6 C9 1.320 . S
O7 Cd4 2.333 . S
O7 C9 1.214 . S
O8 Cd4 2.352 . S
O8 C11 1.258 . S
C9 O6 1.320 . S
C9 O7 1.214 . S
O10 Cd2 2.277 . S
O10 C5 1.209 . S
C11 O8 1.258 . S
C11 O13 1.282 . S
O12 Cd4 2.277 . S
O12 C5 1.226 . S
O13 Cd4 2.356 . S
O13 C11 1.282 . S
C14 O15 1.306 . S
C14 O17 1.160 . S
O15 C14 1.306 . S
O15 Cd16 2.228 1_655 S
Cd16 O15 2.228 1_455 S
Cd16 O20 2.273 . S
Cd16 O24 2.277 . S
O17 C14 1.160 . S
O17 Cd18 2.203 1_655 S
Cd18 O17 2.203 1_455 S
Cd18 O20 2.411 . S
Cd18 O21 2.333 . S
Cd18 O22 2.352 . S
Cd18 O26 2.277 1_455 S
Cd18 O27 2.356 . S
C19 O24 1.209 1_655 S
C19 O26 1.226 . S
O20 Cd16 2.273 . S
O20 Cd18 2.411 . S
O20 C23 1.320 . S
O21 Cd18 2.333 . S
O21 C23 1.214 . S
O22 Cd18 2.352 . S
O22 C25 1.258 . S
C23 O20 1.320 . S
C23 O21 1.214 . S
O24 Cd16 2.277 . S
O24 C19 1.209 1_455 S
C25 O22 1.258 . S
C25 O27 1.282 . S
O26 Cd18 2.277 1_655 S
O26 C19 1.226 . S
O27 Cd18 2.356 . S
O27 C25 1.282 . S
C28 O29 1.306 . S
C28 O31 1.160 . S
O29 C28 1.306 . S
O29 Cd30 2.228 . S
Cd30 O29 2.228 . S
Cd30 O34 2.273 . S
Cd30 O38 2.277 1_566 S
O31 C28 1.160 . S
O31 Cd32 2.203 1_556 S
Cd32 O31 2.203 1_554 S
Cd32 O34 2.411 1_554 S
Cd32 O35 2.333 . S
Cd32 O36 2.352 1_554 S
Cd32 O40 2.277 . S
Cd32 O41 2.356 . S
C33 O38 1.209 . S
C33 O40 1.226 1_545 S
O34 Cd30 2.273 . S
O34 Cd32 2.411 1_556 S
O34 C37 1.320 . S
O35 Cd32 2.333 . S
O35 C37 1.214 1_554 S
O36 Cd32 2.352 1_556 S
O36 C39 1.258 1_556 S
C37 O34 1.320 . S
C37 O35 1.214 1_556 S
O38 Cd30 2.277 1_544 S
O38 C33 1.209 . S
C39 O36 1.258 1_554 S
C39 O41 1.282 . S
O40 Cd32 2.277 . S
O40 C33 1.226 1_565 S
O41 Cd32 2.356 . S
O41 C39 1.282 . S
C42 O43 1.306 . S
C42 O45 1.160 . S
O43 C42 1.306 . S
O43 Cd44 2.228 . S
Cd44 O43 2.228 . S
Cd44 O48 2.273 . S
Cd44 O52 2.277 . S
O45 C42 1.160 . S
O45 Cd46 2.203 . S
Cd46 O45 2.203 . S
Cd46 O48 2.411 . S
Cd46 O49 2.333 . S
Cd46 O50 2.352 . S
Cd46 O54 2.277 . S
Cd46 O55 2.356 . S
C47 O52 1.209 . S
C47 O54 1.226 . S
O48 Cd44 2.273 . S
O48 Cd46 2.411 . S
O48 C51 1.320 . S
O49 Cd46 2.333 . S
O49 C51 1.214 . S
O50 Cd46 2.352 . S
O50 C53 1.258 . S
C51 O48 1.320 . S
C51 O49 1.214 . S
O52 Cd44 2.277 . S
O52 C47 1.209 . S
C53 O50 1.258 . S
C53 O55 1.282 . S
O54 Cd46 2.277 . S
O54 C47 1.226 . S
O55 Cd46 2.356 . S
O55 C53 1.282 . S
C56 O57 1.306 . S
C56 O59 1.160 . S
O57 C56 1.306 . S
O57 Cd58 2.228 . S
Cd58 O57 2.228 . S
Cd58 O62 2.273 . S
Cd58 O66 2.277 . S
O59 C56 1.160 . S
O59 Cd60 2.203 . S
Cd60 O59 2.203 . S
Cd60 O62 2.411 . S
Cd60 O63 2.333 . S
Cd60 O64 2.352 . S
Cd60 O68 2.277 . S
Cd60 O69 2.356 . S
C61 O66 1.209 . S
C61 O68 1.226 . S
O62 Cd58 2.273 . S
O62 Cd60 2.411 . S
O62 C65 1.320 . S
O63 Cd60 2.333 . S
O63 C65 1.214 . S
O64 Cd60 2.352 . S
O64 C67 1.258 . S
C65 O62 1.320 . S
C65 O63 1.214 . S
O66 Cd58 2.277 . S
O66 C61 1.209 . S
C67 O64 1.258 . S
C67 O69 1.282 . S
O68 Cd60 2.277 . S
O68 C61 1.226 . S
O69 Cd60 2.356 . S
O69 C67 1.282 . S
C70 O71 1.306 . S
C70 O73 1.160 . S
O71 C70 1.306 . S
O71 Cd72 2.228 . S
Cd72 O71 2.228 . S
Cd72 O76 2.273 . S
Cd72 O80 2.277 . S
O73 C70 1.160 . S
O73 Cd74 2.203 . S
Cd74 O73 2.203 . S
Cd74 O76 2.411 . S
Cd74 O77 2.333 . S
Cd74 O78 2.352 . S
Cd74 O82 2.277 . S
Cd74 O83 2.356 . S
C75 O80 1.209 . S
C75 O82 1.226 . S
O76 Cd72 2.273 . S
O76 Cd74 2.411 . S
O76 C79 1.320 . S
O77 Cd74 2.333 . S
O77 C79 1.214 . S
O78 Cd74 2.352 . S
O78 C81 1.258 . S
C79 O76 1.320 . S
C79 O77 1.214 . S
O80 Cd72 2.277 . S
O80 C75 1.209 . S
C81 O78 1.258 . S
C81 O83 1.282 . S
O82 Cd74 2.277 . S
O82 C75 1.226 . S
O83 Cd74 2.356 . S
O83 C81 1.282 . S
C84 O85 1.306 . S
C84 O87 1.160 . S
O85 C84 1.306 . S
O85 Cd86 2.228 . S
Cd86 O85 2.228 . S
Cd86 O90 2.273 . S
Cd86 O94 2.277 . S
O87 C84 1.160 . S
O87 Cd88 2.203 . S
Cd88 O87 2.203 . S
Cd88 O90 2.411 . S
Cd88 O91 2.333 . S
Cd88 O92 2.352 . S
Cd88 O96 2.277 . S
Cd88 O97 2.356 . S
C89 O94 1.209 . S
C89 O96 1.226 . S
O90 Cd86 2.273 . S
O90 Cd88 2.411 . S
O90 C93 1.320 . S
O91 Cd88 2.333 . S
O91 C93 1.214 . S
O92 Cd88 2.352 . S
O92 C95 1.258 . S
C93 O90 1.320 . S
C93 O91 1.214 . S
O94 Cd86 2.277 . S
O94 C89 1.209 . S
C95 O92 1.258 . S
C95 O97 1.282 . S
O96 Cd88 2.277 . S
O96 C89 1.226 . S
O97 Cd88 2.356 . S
O97 C95 1.282 . S
C98 O99 1.306 . S
C98 O101 1.160 . S
O99 C98 1.306 . S
O99 Cd100 2.228 1_655 S
Cd100 O99 2.228 1_455 S
Cd100 O104 2.273 . S
Cd100 O108 2.277 . S
O101 C98 1.160 . S
O101 Cd102 2.203 1_656 S
Cd102 O101 2.203 1_454 S
Cd102 O104 2.411 1_554 S
Cd102 O105 2.333 . S
Cd102 O106 2.352 1_454 S
Cd102 O110 2.277 . S
Cd102 O111 2.356 . S
C103 O108 1.209 1_554 S
C103 O110 1.226 . S
O104 Cd100 2.273 . S
O104 Cd102 2.411 1_556 S
O104 C107 1.320 . S
O105 Cd102 2.333 . S
O105 C107 1.214 1_554 S
O106 Cd102 2.352 1_656 S
O106 C109 1.258 1_656 S
C107 O104 1.320 . S
C107 O105 1.214 1_556 S
O108 Cd100 2.277 . S
O108 C103 1.209 1_556 S
C109 O106 1.258 1_454 S
C109 O111 1.282 . S
O110 Cd102 2.277 . S
O110 C103 1.226 . S
O111 Cd102 2.356 . S
O111 C109 1.282 . S
C112 O113 1.306 . S
C112 O115 1.160 . S
O113 C112 1.306 . S
O113 Cd114 2.228 1_545 S
Cd114 O113 2.228 1_565 S
Cd114 O118 2.273 1_565 S
Cd114 O122 2.277 . S
O115 C112 1.160 . S
O115 Cd116 2.203 . S
Cd116 O115 2.203 . S
Cd116 O118 2.411 . S
Cd116 O119 2.333 . S
Cd116 O120 2.352 . S
Cd116 O124 2.277 1_545 S
Cd116 O125 2.356 . S
C117 O122 1.209 . S
C117 O124 1.226 . S
O118 Cd114 2.273 1_545 S
O118 Cd116 2.411 . S
O118 C121 1.320 . S
O119 Cd116 2.333 . S
O119 C121 1.214 . S
O120 Cd116 2.352 . S
O120 C123 1.258 . S
C121 O118 1.320 . S
C121 O119 1.214 . S
O122 Cd114 2.277 . S
O122 C117 1.209 . S
C123 O120 1.258 . S
C123 O125 1.282 . S
O124 Cd116 2.277 1_565 S
O124 C117 1.226 . S
O125 Cd116 2.356 . S
O125 C123 1.282 . S
C126 O127 1.306 . S
C126 O129 1.160 . S
O127 C126 1.306 . S
O127 Cd128 2.228 . S
Cd128 O127 2.228 . S
Cd128 O132 2.273 . S
Cd128 O136 2.277 . S
O129 C126 1.160 . S
O129 Cd130 2.203 . S
Cd130 O129 2.203 . S
Cd130 O132 2.411 . S
Cd130 O133 2.333 . S
Cd130 O134 2.352 . S
Cd130 O138 2.277 . S
Cd130 O139 2.356 . S
C131 O136 1.209 . S
C131 O138 1.226 . S
O132 Cd128 2.273 . S
O132 Cd130 2.411 . S
O132 C135 1.320 . S
O133 Cd130 2.333 . S
O133 C135 1.214 . S
O134 Cd130 2.352 . S
O134 C137 1.258 . S
C135 O132 1.320 . S
C135 O133 1.214 . S
O136 Cd128 2.277 . S
O136 C131 1.209 . S
C137 O134 1.258 . S
C137 O139 1.282 . S
O138 Cd130 2.277 . S
O138 C131 1.226 . S
O139 Cd130 2.356 . S
O139 C137 1.282 . S
C140 O141 1.306 . S
C140 O143 1.160 . S
O141 C140 1.306 . S
O141 Cd142 2.228 . S
Cd142 O141 2.228 . S
Cd142 O146 2.273 1_545 S
Cd142 O150 2.277 . S
O143 C140 1.160 . S
O143 Cd144 2.203 . S
Cd144 O143 2.203 . S
Cd144 O146 2.411 1_545 S
Cd144 O147 2.333 1_545 S
Cd144 O148 2.352 1_545 S
Cd144 O152 2.277 . S
Cd144 O153 2.356 1_545 S
C145 O150 1.209 . S
C145 O152 1.226 . S
O146 Cd142 2.273 1_565 S
O146 Cd144 2.411 1_565 S
O146 C149 1.320 . S
O147 Cd144 2.333 1_565 S
O147 C149 1.214 . S
O148 Cd144 2.352 1_565 S
O148 C151 1.258 . S
C149 O146 1.320 . S
C149 O147 1.214 . S
O150 Cd142 2.277 . S
O150 C145 1.209 . S
C151 O148 1.258 . S
C151 O153 1.282 . S
O152 Cd144 2.277 . S
O152 C145 1.226 . S
O153 Cd144 2.356 1_565 S
O153 C151 1.282 . S
C154 O155 1.306 1_554 S
C154 O157 1.160 . S
O155 C154 1.306 1_556 S
O155 Cd156 2.228 . S
Cd156 O155 2.228 . S
Cd156 O160 2.273 1_556 S
Cd156 O164 2.277 . S
O157 C154 1.160 . S
O157 Cd158 2.203 . S
Cd158 O157 2.203 . S
Cd158 O160 2.411 . S
Cd158 O161 2.332 . S
Cd158 O162 2.352 . S
Cd158 O166 2.277 1_554 S
Cd158 O167 2.356 . S
C159 O164 1.209 . S
C159 O166 1.226 . S
O160 Cd156 2.273 1_554 S
O160 Cd158 2.411 . S
O160 C163 1.320 . S
O161 Cd158 2.332 . S
O161 C163 1.210 . S
O162 Cd158 2.352 . S
O162 C165 1.258 . S
C163 O160 1.320 . S
C163 O161 1.210 . S
O164 Cd156 2.277 . S
O164 C159 1.209 . S
C165 O162 1.258 . S
C165 O167 1.282 . S
O166 Cd158 2.277 1_556 S
O166 C159 1.226 . S
O167 Cd158 2.356 . S
O167 C165 1.282 . S
C168 O169 1.306 . S
C168 O171 1.160 . S
O169 C168 1.306 . S
O169 Cd170 2.228 . S
Cd170 O169 2.228 . S
Cd170 O174 2.273 . S
Cd170 O178 2.277 . S
O171 C168 1.160 . S
O171 Cd172 2.203 . S
Cd172 O171 2.203 . S
Cd172 O174 2.411 . S
Cd172 O175 2.333 . S
Cd172 O176 2.352 . S
Cd172 O180 2.277 . S
Cd172 O181 2.356 . S
C173 O178 1.209 . S
C173 O180 1.226 . S
O174 Cd170 2.273 . S
O174 Cd172 2.411 . S
O174 C177 1.320 . S
O175 Cd172 2.333 . S
O175 C177 1.214 . S
O176 Cd172 2.352 . S
O176 C179 1.258 . S
C177 O174 1.320 . S
C177 O175 1.214 . S
O178 Cd170 2.277 . S
O178 C173 1.209 . S
C179 O176 1.258 . S
C179 O181 1.282 . S
O180 Cd172 2.277 . S
O180 C173 1.226 . S
O181 Cd172 2.356 . S
O181 C179 1.282 . S
C182 O183 1.306 . S
C182 O185 1.160 . S
O183 C182 1.306 . S
O183 Cd184 2.228 . S
Cd184 O183 2.228 . S
Cd184 O188 2.273 . S
Cd184 O192 2.277 . S
O185 C182 1.160 . S
O185 Cd186 2.203 . S
Cd186 O185 2.203 . S
Cd186 O188 2.411 . S
Cd186 O189 2.333 . S
Cd186 O190 2.352 . S
Cd186 O194 2.277 . S
Cd186 O195 2.356 . S
C187 O192 1.209 . S
C187 O194 1.226 . S
O188 Cd184 2.273 . S
O188 Cd186 2.411 . S
O188 C191 1.320 . S
O189 Cd186 2.333 . S
O189 C191 1.214 . S
O190 Cd186 2.352 . S
O190 C193 1.258 . S
C191 O188 1.320 . S
C191 O189 1.214 . S
O192 Cd184 2.277 . S
O192 C187 1.209 . S
C193 O190 1.258 . S
C193 O195 1.282 . S
O194 Cd186 2.277 . S
O194 C187 1.226 . S
O195 Cd186 2.356 . S
O195 C193 1.282 . S
C196 O197 1.306 . S
C196 O199 1.160 . S
O197 C196 1.306 . S
O197 Cd198 2.228 . S
Cd198 O197 2.228 . S
Cd198 O202 2.273 . S
Cd198 O206 2.277 . S
O199 C196 1.160 . S
O199 Cd200 2.203 . S
Cd200 O199 2.203 . S
Cd200 O202 2.411 . S
Cd200 O203 2.333 . S
Cd200 O204 2.352 . S
Cd200 O208 2.277 . S
Cd200 O209 2.356 . S
C201 O206 1.209 . S
C201 O208 1.226 . S
O202 Cd198 2.273 . S
O202 Cd200 2.411 . S
O202 C205 1.320 . S
O203 Cd200 2.333 . S
O203 C205 1.214 . S
O204 Cd200 2.352 . S
O204 C207 1.258 . S
C205 O202 1.320 . S
C205 O203 1.214 . S
O206 Cd198 2.277 . S
O206 C201 1.209 . S
C207 O204 1.258 . S
C207 O209 1.282 . S
O208 Cd200 2.277 . S
O208 C201 1.226 . S
O209 Cd200 2.356 . S
O209 C207 1.282 . S
C210 O211 1.306 . S
C210 O213 1.160 . S
O211 C210 1.306 . S
O211 Cd212 2.228 . S
Cd212 O211 2.228 . S
Cd212 O216 2.273 . S
Cd212 O220 2.277 . S
O213 C210 1.160 . S
O213 Cd214 2.203 . S
Cd214 O213 2.203 . S
Cd214 O216 2.411 . S
Cd214 O217 2.333 . S
Cd214 O218 2.352 . S
Cd214 O222 2.277 . S
Cd214 O223 2.356 . S
C215 O220 1.209 . S
C215 O222 1.226 . S
O216 Cd212 2.273 . S
O216 Cd214 2.411 . S
O216 C219 1.320 . S
O217 Cd214 2.333 . S
O217 C219 1.214 . S
O218 Cd214 2.352 . S
O218 C221 1.258 . S
C219 O216 1.320 . S
C219 O217 1.214 . S
O220 Cd212 2.277 . S
O220 C215 1.209 . S
C221 O218 1.258 . S
C221 O223 1.282 . S
O222 Cd214 2.277 . S
O222 C215 1.226 . S
O223 Cd214 2.356 . S
O223 C221 1.282 . S
C224 O225 1.306 . S
C224 O227 1.160 . S
O225 C224 1.306 . S
O225 Cd226 2.228 1_545 S
Cd226 O225 2.228 1_565 S
Cd226 O230 2.273 1_565 S
Cd226 O234 2.277 . S
O227 C224 1.160 . S
O227 Cd228 2.203 . S
Cd228 O227 2.203 . S
Cd228 O230 2.411 . S
Cd228 O231 2.333 . S
Cd228 O232 2.352 . S
Cd228 O236 2.277 1_545 S
Cd228 O237 2.356 . S
C229 O234 1.209 . S
C229 O236 1.226 . S
O230 Cd226 2.273 1_545 S
O230 Cd228 2.411 . S
O230 C233 1.320 . S
O231 Cd228 2.333 . S
O231 C233 1.214 . S
O232 Cd228 2.352 . S
O232 C235 1.258 . S
C233 O230 1.320 . S
C233 O231 1.214 . S
O234 Cd226 2.277 . S
O234 C229 1.209 . S
C235 O232 1.258 . S
C235 O237 1.282 . S
O236 Cd228 2.277 1_565 S
O236 C229 1.226 . S
O237 Cd228 2.356 . S
O237 C235 1.282 . S
C238 O239 1.306 . S
C238 O241 1.160 . S
O239 C238 1.306 . S
O239 Cd240 2.228 . S
Cd240 O239 2.228 . S
Cd240 O244 2.273 . S
Cd240 O248 2.277 . S
O241 C238 1.160 . S
O241 Cd242 2.203 . S
Cd242 O241 2.203 . S
Cd242 O244 2.411 . S
Cd242 O245 2.333 . S
Cd242 O246 2.352 . S
Cd242 O250 2.277 . S
Cd242 O251 2.356 . S
C243 O248 1.209 . S
C243 O250 1.226 . S
O244 Cd240 2.273 . S
O244 Cd242 2.411 . S
O244 C247 1.320 . S
O245 Cd242 2.333 . S
O245 C247 1.214 . S
O246 Cd242 2.352 . S
O246 C249 1.258 . S
C247 O244 1.320 . S
C247 O245 1.214 . S
O248 Cd240 2.277 . S
O248 C243 1.209 . S
C249 O246 1.258 . S
C249 O251 1.282 . S
O250 Cd242 2.277 . S
O250 C243 1.226 . S
O251 Cd242 2.356 . S
O251 C249 1.282 . S
C252 O253 1.306 . S
C252 O255 1.160 . S
O253 C252 1.306 . S
O253 Cd254 2.228 . S
Cd254 O253 2.228 . S
Cd254 O258 2.273 . S
Cd254 O262 2.277 . S
O255 C252 1.160 . S
O255 Cd256 2.203 . S
Cd256 O255 2.203 . S
Cd256 O258 2.411 . S
Cd256 O259 2.333 . S
Cd256 O260 2.352 . S
Cd256 O264 2.277 . S
Cd256 O265 2.356 . S
C257 O262 1.209 . S
C257 O264 1.226 . S
O258 Cd254 2.273 . S
O258 Cd256 2.411 . S
O258 C261 1.320 . S
O259 Cd256 2.333 . S
O259 C261 1.214 . S
O260 Cd256 2.352 . S
O260 C263 1.258 . S
C261 O258 1.320 . S
C261 O259 1.214 . S
O262 Cd254 2.277 . S
O262 C257 1.209 . S
C263 O260 1.258 . S
C263 O265 1.282 . S
O264 Cd256 2.277 . S
O264 C257 1.226 . S
O265 Cd256 2.356 . S
O265 C263 1.282 . S
C266 O267 1.306 . S
C266 O269 1.160 . S
O267 C266 1.306 . S
O267 Cd268 2.228 . S
Cd268 O267 2.228 . S
Cd268 O272 2.273 1_545 S
Cd268 O276 2.277 . S
O269 C266 1.160 . S
O269 Cd270 2.203 . S
Cd270 O269 2.203 . S
Cd270 O272 2.411 1_545 S
Cd270 O273 2.333 1_545 S
Cd270 O274 2.352 1_545 S
Cd270 O278 2.277 . S
Cd270 O279 2.356 1_545 S
C271 O276 1.209 . S
C271 O278 1.226 . S
O272 Cd268 2.273 1_565 S
O272 Cd270 2.411 1_565 S
O272 C275 1.320 . S
O273 Cd270 2.333 1_565 S
O273 C275 1.214 . S
O274 Cd270 2.352 1_565 S
O274 C277 1.258 . S
C275 O272 1.320 . S
C275 O273 1.214 . S
O276 Cd268 2.277 . S
O276 C271 1.209 . S
C277 O274 1.258 . S
C277 O279 1.282 . S
O278 Cd270 2.277 . S
O278 C271 1.226 . S
O279 Cd270 2.356 1_565 S
O279 C277 1.282 . S
C280 O281 1.306 . S
C280 O283 1.160 . S
O281 C280 1.306 . S
O281 Cd282 2.228 . S
Cd282 O281 2.228 . S
Cd282 O286 2.273 . S
Cd282 O290 2.277 . S
O283 C280 1.160 . S
O283 Cd284 2.203 . S
Cd284 O283 2.203 . S
Cd284 O286 2.411 . S
Cd284 O287 2.333 . S
Cd284 O288 2.352 1_554 S
Cd284 O292 2.277 . S
Cd284 O293 2.356 . S
C285 O290 1.209 . S
C285 O292 1.226 . S
O286 Cd282 2.273 . S
O286 Cd284 2.411 . S
O286 C289 1.320 . S
O287 Cd284 2.333 . S
O287 C289 1.214 . S
O288 Cd284 2.352 1_556 S
O288 C291 1.258 . S
C289 O286 1.320 . S
C289 O287 1.214 . S
O290 Cd282 2.277 . S
O290 C285 1.209 . S
C291 O288 1.258 . S
C291 O293 1.282 1_556 S
O292 Cd284 2.277 . S
O292 C285 1.226 . S
O293 Cd284 2.356 . S
O293 C291 1.282 1_554 S
C294 O295 1.306 . S
C294 O297 1.160 . S
O295 C294 1.306 . S
O295 Cd296 2.228 . S
Cd296 O295 2.228 . S
Cd296 O300 2.273 . S
Cd296 O304 2.277 . S
O297 C294 1.160 . S
O297 Cd298 2.203 . S
Cd298 O297 2.203 . S
Cd298 O300 2.411 . S
Cd298 O301 2.333 . S
Cd298 O302 2.352 . S
Cd298 O306 2.277 . S
Cd298 O307 2.356 . S
C299 O304 1.209 . S
C299 O306 1.226 . S
O300 Cd296 2.273 . S
O300 Cd298 2.411 . S
O300 C303 1.320 . S
O301 Cd298 2.333 . S
O301 C303 1.214 . S
O302 Cd298 2.352 . S
O302 C305 1.258 . S
C303 O300 1.320 . S
C303 O301 1.214 . S
O304 Cd296 2.277 . S
O304 C299 1.209 . S
C305 O302 1.258 . S
C305 O307 1.282 . S
O306 Cd298 2.277 . S
O306 C299 1.226 . S
O307 Cd298 2.356 . S
O307 C305 1.282 . S
C308 O309 1.306 . S
C308 O311 1.160 . S
O309 C308 1.306 . S
O309 Cd310 2.228 . S
Cd310 O309 2.228 . S
Cd310 O314 2.273 . S
Cd310 O318 2.277 . S
O311 C308 1.160 . S
O311 Cd312 2.203 . S
Cd312 O311 2.203 . S
Cd312 O314 2.411 . S
Cd312 O315 2.333 . S
Cd312 O316 2.352 . S
Cd312 O320 2.277 . S
Cd312 O321 2.356 . S
C313 O318 1.209 . S
C313 O320 1.226 . S
O314 Cd310 2.273 . S
O314 Cd312 2.411 . S
O314 C317 1.320 . S
O315 Cd312 2.333 . S
O315 C317 1.214 . S
O316 Cd312 2.352 . S
O316 C319 1.258 . S
C317 O314 1.320 . S
C317 O315 1.214 . S
O318 Cd310 2.277 . S
O318 C313 1.209 . S
C319 O316 1.258 . S
C319 O321 1.282 . S
O320 Cd312 2.277 . S
O320 C313 1.226 . S
O321 Cd312 2.356 . S
O321 C319 1.282 . S
C322 O323 1.306 . S
C322 O325 1.160 . S
O323 C322 1.306 . S
O323 Cd324 2.228 . S
Cd324 O323 2.228 . S
Cd324 O328 2.273 . S
Cd324 O332 2.277 . S
O325 C322 1.160 . S
O325 Cd326 2.203 . S
Cd326 O325 2.203 . S
Cd326 O328 2.411 . S
Cd326 O329 2.333 . S
Cd326 O330 2.352 . S
Cd326 O334 2.277 . S
Cd326 O335 2.356 . S
C327 O332 1.209 . S
C327 O334 1.226 . S
O328 Cd324 2.273 . S
O328 Cd326 2.411 . S
O328 C331 1.320 . S
O329 Cd326 2.333 . S
O329 C331 1.214 . S
O330 Cd326 2.352 . S
O330 C333 1.258 . S
C331 O328 1.320 . S
C331 O329 1.214 . S
O332 Cd324 2.277 . S
O332 C327 1.209 . S
C333 O330 1.258 . S
C333 O335 1.282 . S
O334 Cd326 2.277 . S
O334 C327 1.226 . S
O335 Cd326 2.356 . S
O335 C333 1.282 . S
C336 Eu337 2.835 . S
C336 C338 1.500 1_545 S
C336 O356 1.257 . S
C336 O357 1.260 . S
Eu337 C336 2.835 . S
Eu337 O356 2.473 . S
Eu337 O357 2.480 . S
Eu337 O358 2.430 . S
Eu337 O359 2.670 . S
Eu337 O360 2.394 1_545 S
Eu337 O365 2.355 . S
Eu337 O367 2.374 . S
C338 C336 1.500 1_565 S
C338 C339 1.375 . S
C338 C343 1.377 . S
C339 C338 1.375 . S
C339 C340 1.399 . S
C339 H368 0.928 1_565 S
C340 C339 1.399 . S
C340 C341 1.383 . S
C340 H369 0.931 . S
C341 C340 1.383 . S
C341 C342 1.394 . S
C342 C341 1.394 . S
C342 C343 1.378 . S
C342 H370 0.931 . S
C343 C338 1.377 . S
C343 C342 1.378 . S
C343 H371 0.931 . S
C344 O358 1.259 . S
C344 O359 1.270 . S
C345 O360 1.251 . S
C345 O361 1.251 . S
C346 Eu347 2.835 1_655 S
C346 C348 1.500 . S
C346 O362 1.257 . S
C346 O363 1.260 . S
Eu347 C346 2.835 1_455 S
Eu347 O359 2.355 . S
Eu347 O361 2.374 1_545 S
Eu347 O362 2.473 1_455 S
Eu347 O363 2.480 1_455 S
Eu347 O364 2.430 1_545 S
Eu347 O365 2.670 . S
Eu347 O366 2.394 . S
C348 C346 1.500 . S
C348 C349 1.377 . S
C348 C353 1.377 . S
C349 C348 1.377 . S
C349 C350 1.395 . S
C349 H372 0.931 1_554 S
C350 C349 1.395 . S
C350 C351 1.383 . S
C350 H373 0.931 1_554 S
C351 C350 1.383 . S
C351 C352 1.394 . S
C352 C351 1.394 . S
C352 C353 1.378 . S
C352 H374 0.931 . S
C353 C348 1.377 . S
C353 C352 1.378 . S
C353 H375 0.931 . S
C354 O364 1.259 1_545 S
C354 O365 1.270 . S
C355 O366 1.251 . S
C355 O367 1.251 . S
O356 C336 1.257 . S
O356 Eu337 2.473 . S
O357 C336 1.260 . S
O357 Eu337 2.480 . S
O358 Eu337 2.430 . S
O358 C344 1.259 . S
O359 Eu337 2.670 . S
O359 C344 1.270 . S
O359 Eu347 2.355 . S
O360 Eu337 2.394 1_565 S
O360 C345 1.251 . S
O361 C345 1.251 . S
O361 Eu347 2.374 1_565 S
O362 C346 1.257 . S
O362 Eu347 2.473 1_655 S
O363 C346 1.260 . S
O363 Eu347 2.480 1_655 S
O364 Eu347 2.430 1_565 S
O364 C354 1.259 1_565 S
O365 Eu337 2.355 . S
O365 Eu347 2.670 . S
O365 C354 1.270 . S
O366 Eu347 2.394 . S
O366 C355 1.251 . S
O367 Eu337 2.374 . S
O367 C355 1.251 . S
H368 C339 0.928 1_545 S
H369 C340 0.931 . S
H370 C342 0.931 . S
H371 C343 0.931 . S
H372 C349 0.931 1_556 S
H373 C350 0.931 1_556 S
H374 C352 0.931 . S
H375 C353 0.931 . S
C376 Eu377 2.835 . S
C376 C378 1.500 . S
C376 O396 1.257 . S
C376 O397 1.260 . S
Eu377 C376 2.835 . S
Eu377 O396 2.473 . S
Eu377 O397 2.480 . S
Eu377 O398 2.430 . S
Eu377 O399 2.670 . S
Eu377 O400 2.394 . S
Eu377 O405 2.355 . S
Eu377 O407 2.374 . S
C378 C376 1.500 . S
C378 C379 1.377 . S
C378 C383 1.377 . S
C379 C378 1.377 . S
C379 C380 1.395 . S
C379 H408 0.931 . S
C380 C379 1.395 . S
C380 C381 1.383 . S
C380 H409 0.931 . S
C381 C380 1.383 . S
C381 C382 1.394 . S
C382 C381 1.394 . S
C382 C383 1.378 . S
C382 H410 0.931 . S
C383 C378 1.377 . S
C383 C382 1.378 . S
C383 H411 0.931 . S
C384 O398 1.259 . S
C384 O399 1.270 . S
C385 O400 1.251 . S
C385 O401 1.251 . S
C386 Eu387 2.835 . S
C386 C388 1.500 . S
C386 O402 1.257 . S
C386 O403 1.260 . S
Eu387 C386 2.835 . S
Eu387 O399 2.355 . S
Eu387 O401 2.374 . S
Eu387 O402 2.473 . S
Eu387 O403 2.480 . S
Eu387 O404 2.430 . S
Eu387 O405 2.670 . S
Eu387 O406 2.394 . S
C388 C386 1.500 . S
C388 C389 1.377 . S
C388 C393 1.377 . S
C389 C388 1.377 . S
C389 C390 1.395 . S
C389 H412 0.931 . S
C390 C389 1.395 . S
C390 C391 1.383 . S
C390 H413 0.931 . S
C391 C390 1.383 . S
C391 C392 1.394 . S
C392 C391 1.394 . S
C392 C393 1.378 . S
C392 H414 0.931 . S
C393 C388 1.377 . S
C393 C392 1.378 . S
C393 H415 0.931 . S
C394 O404 1.259 . S
C394 O405 1.270 . S
C395 O406 1.251 . S
C395 O407 1.251 . S
O396 C376 1.257 . S
O396 Eu377 2.473 . S
O397 C376 1.260 . S
O397 Eu377 2.480 . S
O398 Eu377 2.430 . S
O398 C384 1.259 . S
O399 Eu377 2.670 . S
O399 C384 1.270 . S
O399 Eu387 2.355 . S
O400 Eu377 2.394 . S
O400 C385 1.251 . S
O401 C385 1.251 . S
O401 Eu387 2.374 . S
O402 C386 1.257 . S
O402 Eu387 2.473 . S
O403 C386 1.260 . S
O403 Eu387 2.480 . S
O404 Eu387 2.430 . S
O404 C394 1.259 . S
O405 Eu377 2.355 . S
O405 Eu387 2.670 . S
O405 C394 1.270 . S
O406 Eu387 2.394 . S
O406 C395 1.251 . S
O407 Eu377 2.374 . S
O407 C395 1.251 . S
H408 C379 0.931 . S
H409 C380 0.931 . S
H410 C382 0.931 . S
H411 C383 0.931 . S
H412 C389 0.931 . S
H413 C390 0.931 . S
H414 C392 0.931 . S
H415 C393 0.931 . S
C416 Eu417 2.835 . S
C416 C418 1.500 . S
C416 O436 1.257 . S
C416 O437 1.260 . S
Eu417 C416 2.835 . S
Eu417 O436 2.473 . S
Eu417 O437 2.480 . S
Eu417 O438 2.430 . S
Eu417 O439 2.670 . S
Eu417 O440 2.394 . S
Eu417 O445 2.355 . S
Eu417 O447 2.374 1_545 S
C418 C416 1.500 . S
C418 C419 1.377 . S
C418 C423 1.377 . S
C419 C418 1.377 . S
C419 C420 1.395 . S
C419 H448 0.931 . S
C420 C419 1.395 . S
C420 C421 1.383 . S
C420 H449 0.931 . S
C421 C420 1.383 . S
C421 C422 1.394 . S
C422 C421 1.394 . S
C422 C423 1.378 . S
C422 H450 0.931 . S
C423 C418 1.377 . S
C423 C422 1.378 . S
C423 H451 0.931 . S
C424 O438 1.259 . S
C424 O439 1.270 . S
C425 O440 1.251 . S
C425 O441 1.251 . S
C426 Eu427 2.835 1_565 S
C426 C428 1.500 . S
C426 O442 1.257 . S
C426 O443 1.260 . S
Eu427 C426 2.835 1_545 S
Eu427 O439 2.355 . S
Eu427 O441 2.374 . S
Eu427 O442 2.473 1_545 S
Eu427 O443 2.480 1_545 S
Eu427 O444 2.430 . S
Eu427 O445 2.670 . S
Eu427 O446 2.394 1_545 S
C428 C426 1.500 . S
C428 C429 1.377 . S
C428 C433 1.377 . S
C429 C428 1.377 . S
C429 C430 1.395 . S
C429 H452 0.931 . S
C430 C429 1.395 . S
C430 C431 1.383 . S
C430 H453 0.931 . S
C431 C430 1.383 . S
C431 C432 1.394 . S
C432 C431 1.394 . S
C432 C433 1.378 . S
C432 H454 0.931 . S
C433 C428 1.377 . S
C433 C432 1.378 . S
C433 H455 0.931 . S
C434 O444 1.259 . S
C434 O445 1.270 . S
C435 O446 1.251 . S
C435 O447 1.251 . S
O436 C416 1.257 . S
O436 Eu417 2.473 . S
O437 C416 1.260 . S
O437 Eu417 2.480 . S
O438 Eu417 2.430 . S
O438 C424 1.259 . S
O439 Eu417 2.670 . S
O439 C424 1.270 . S
O439 Eu427 2.355 . S
O440 Eu417 2.394 . S
O440 C425 1.251 . S
O441 C425 1.251 . S
O441 Eu427 2.374 . S
O442 C426 1.257 . S
O442 Eu427 2.473 1_565 S
O443 C426 1.260 . S
O443 Eu427 2.480 1_565 S
O444 Eu427 2.430 . S
O444 C434 1.259 . S
O445 Eu417 2.355 . S
O445 Eu427 2.670 . S
O445 C434 1.270 . S
O446 Eu427 2.394 1_565 S
O446 C435 1.251 . S
O447 Eu417 2.374 1_565 S
O447 C435 1.251 . S
H448 C419 0.931 . S
H449 C420 0.931 . S
H450 C422 0.931 . S
H451 C423 0.931 . S
H452 C429 0.931 . S
H453 C430 0.931 . S
H454 C432 0.931 . S
H455 C433 0.931 . S
C456 Eu457 2.835 . S
C456 C458 1.500 . S
C456 O476 1.257 . S
C456 O477 1.260 . S
Eu457 C456 2.835 . S
Eu457 O476 2.473 . S
Eu457 O477 2.480 . S
Eu457 O478 2.430 . S
Eu457 O479 2.670 . S
Eu457 O480 2.394 . S
Eu457 O485 2.355 . S
Eu457 O487 2.374 . S
C458 C456 1.500 . S
C458 C459 1.377 . S
C458 C463 1.377 . S
C459 C458 1.377 . S
C459 C460 1.395 . S
C459 H488 0.931 . S
C460 C459 1.395 . S
C460 C461 1.383 . S
C460 H489 0.931 . S
C461 C460 1.383 . S
C461 C462 1.394 . S
C462 C461 1.394 . S
C462 C463 1.378 . S
C462 H490 0.931 . S
C463 C458 1.377 . S
C463 C462 1.378 . S
C463 H491 0.931 . S
C464 O478 1.259 . S
C464 O479 1.270 . S
C465 O480 1.251 . S
C465 O481 1.251 . S
C466 Eu467 2.835 . S
C466 C468 1.500 . S
C466 O482 1.257 . S
C466 O483 1.260 . S
Eu467 C466 2.835 . S
Eu467 O479 2.355 . S
Eu467 O481 2.374 . S
Eu467 O482 2.473 . S
Eu467 O483 2.480 . S
Eu467 O484 2.430 . S
Eu467 O485 2.670 . S
Eu467 O486 2.394 . S
C468 C466 1.500 . S
C468 C469 1.377 . S
C468 C473 1.377 . S
C469 C468 1.377 . S
C469 C470 1.395 . S
C469 H492 0.931 . S
C470 C469 1.395 . S
C470 C471 1.383 . S
C470 H493 0.931 . S
C471 C470 1.383 . S
C471 C472 1.394 . S
C472 C471 1.394 . S
C472 C473 1.378 . S
C472 H494 0.931 1_556 S
C473 C468 1.377 . S
C473 C472 1.378 . S
C473 H495 0.931 . S
C474 O484 1.259 . S
C474 O485 1.270 . S
C475 O486 1.251 . S
C475 O487 1.251 . S
O476 C456 1.257 . S
O476 Eu457 2.473 . S
O477 C456 1.260 . S
O477 Eu457 2.480 . S
O478 Eu457 2.430 . S
O478 C464 1.259 . S
O479 Eu457 2.670 . S
O479 C464 1.270 . S
O479 Eu467 2.355 . S
O480 Eu457 2.394 . S
O480 C465 1.251 . S
O481 C465 1.251 . S
O481 Eu467 2.374 . S
O482 C466 1.257 . S
O482 Eu467 2.473 . S
O483 C466 1.260 . S
O483 Eu467 2.480 . S
O484 Eu467 2.430 . S
O484 C474 1.259 . S
O485 Eu457 2.355 . S
O485 Eu467 2.670 . S
O485 C474 1.270 . S
O486 Eu467 2.394 . S
O486 C475 1.251 . S
O487 Eu457 2.374 . S
O487 C475 1.251 . S
H488 C459 0.931 . S
H489 C460 0.931 . S
H490 C462 0.931 . S
H491 C463 0.931 . S
H492 C469 0.931 . S
H493 C470 0.931 . S
H494 C472 0.931 1_554 S
H495 C473 0.931 . S
C496 Eu497 2.835 . S
C496 C498 1.500 . S
C496 O516 1.257 . S
C496 O517 1.260 . S
Eu497 C496 2.835 . S
Eu497 O516 2.473 . S
Eu497 O517 2.480 . S
Eu497 O518 2.430 . S
Eu497 O519 2.670 1_565 S
Eu497 O520 2.394 . S
Eu497 O525 2.355 . S
Eu497 O527 2.374 . S
C498 C496 1.500 . S
C498 C499 1.377 . S
C498 C503 1.377 . S
C499 C498 1.377 . S
C499 C500 1.395 . S
C499 H528 0.931 . S
C500 C499 1.395 . S
C500 C501 1.383 . S
C500 H529 0.931 . S
C501 C500 1.383 . S
C501 C502 1.394 . S
C502 C501 1.394 . S
C502 C503 1.378 . S
C502 H530 0.931 . S
C503 C498 1.377 . S
C503 C502 1.378 . S
C503 H531 0.931 . S
C504 O518 1.259 1_545 S
C504 O519 1.270 . S
C505 O520 1.251 1_545 S
C505 O521 1.251 . S
C506 Eu507 2.835 . S
C506 C508 1.500 . S
C506 O522 1.257 . S
C506 O523 1.260 . S
Eu507 C506 2.835 . S
Eu507 O519 2.355 . S
Eu507 O521 2.374 . S
Eu507 O522 2.473 . S
Eu507 O523 2.480 . S
Eu507 O524 2.430 1_455 S
Eu507 O525 2.670 1_545 S
Eu507 O526 2.394 . S
C508 C506 1.500 . S
C508 C509 1.377 . S
C508 C513 1.377 . S
C509 C508 1.377 . S
C509 C510 1.395 . S
C509 H532 0.931 . S
C510 C509 1.395 . S
C510 C511 1.383 . S
C510 H533 0.931 . S
C511 C510 1.383 . S
C511 C512 1.394 . S
C512 C511 1.394 . S
C512 C513 1.378 . S
C512 H534 0.931 . S
C513 C508 1.377 . S
C513 C512 1.378 . S
C513 H535 0.931 . S
C514 O524 1.259 . S
C514 O525 1.270 1_645 S
C515 O526 1.251 . S
C515 O527 1.251 1_545 S
O516 C496 1.257 . S
O516 Eu497 2.473 . S
O517 C496 1.260 . S
O517 Eu497 2.480 . S
O518 Eu497 2.430 . S
O518 C504 1.259 1_565 S
O519 Eu497 2.670 1_545 S
O519 C504 1.270 . S
O519 Eu507 2.355 . S
O520 Eu497 2.394 . S
O520 C505 1.251 1_565 S
O521 C505 1.251 . S
O521 Eu507 2.374 . S
O522 C506 1.257 . S
O522 Eu507 2.473 . S
O523 C506 1.260 . S
O523 Eu507 2.480 . S
O524 Eu507 2.430 1_655 S
O524 C514 1.259 . S
O525 Eu497 2.355 . S
O525 Eu507 2.670 1_565 S
O525 C514 1.270 1_465 S
O526 Eu507 2.394 . S
O526 C515 1.251 . S
O527 Eu497 2.374 . S
O527 C515 1.251 1_565 S
H528 C499 0.931 . S
H529 C500 0.931 . S
H530 C502 0.931 . S
H531 C503 0.931 . S
H532 C509 0.931 . S
H533 C510 0.931 . S
H534 C512 0.931 . S
H535 C513 0.931 . S
C536 Eu537 2.835 . S
C536 C538 1.500 . S
C536 O556 1.257 . S
C536 O557 1.260 . S
Eu537 C536 2.835 . S
Eu537 O556 2.473 . S
Eu537 O557 2.480 . S
Eu537 O558 2.430 . S
Eu537 O559 2.670 . S
Eu537 O560 2.394 . S
Eu537 O565 2.355 . S
Eu537 O567 2.374 . S
C538 C536 1.500 . S
C538 C539 1.377 . S
C538 C543 1.377 . S
C539 C538 1.377 . S
C539 C540 1.395 . S
C539 H568 0.931 . S
C540 C539 1.395 . S
C540 C541 1.383 . S
C540 H569 0.931 . S
C541 C540 1.383 . S
C541 C542 1.394 . S
C542 C541 1.394 . S
C542 C543 1.378 . S
C542 H570 0.931 . S
C543 C538 1.377 . S
C543 C542 1.378 . S
C543 H571 0.931 . S
C544 O558 1.259 . S
C544 O559 1.270 . S
C545 O560 1.251 . S
C545 O561 1.251 . S
C546 Eu547 2.835 . S
C546 C548 1.500 . S
C546 O562 1.257 . S
C546 O563 1.260 . S
Eu547 C546 2.835 . S
Eu547 O559 2.355 . S
Eu547 O561 2.374 . S
Eu547 O562 2.473 . S
Eu547 O563 2.480 . S
Eu547 O564 2.430 . S
Eu547 O565 2.670 . S
Eu547 O566 2.394 . S
C548 C546 1.500 . S
C548 C549 1.377 . S
C548 C553 1.377 1_556 S
C549 C548 1.377 . S
C549 C550 1.395 . S
C549 H572 0.931 . S
C550 C549 1.395 . S
C550 C551 1.383 1_556 S
C550 H573 0.931 . S
C551 C550 1.383 1_554 S
C551 C552 1.394 . S
C552 C551 1.394 . S
C552 C553 1.378 . S
C552 H574 0.931 . S
C553 C548 1.377 1_554 S
C553 C552 1.378 . S
C553 H575 0.931 . S
C554 O564 1.259 . S
C554 O565 1.270 . S
C555 O566 1.251 . S
C555 O567 1.251 . S
O556 C536 1.257 . S
O556 Eu537 2.473 . S
O557 C536 1.260 . S
O557 Eu537 2.480 . S
O558 Eu537 2.430 . S
O558 C544 1.259 . S
O559 Eu537 2.670 . S
O559 C544 1.270 . S
O559 Eu547 2.355 . S
O560 Eu537 2.394 . S
O560 C545 1.251 . S
O561 C545 1.251 . S
O561 Eu547 2.374 . S
O562 C546 1.257 . S
O562 Eu547 2.473 . S
O563 C546 1.260 . S
O563 Eu547 2.480 . S
O564 Eu547 2.430 . S
O564 C554 1.259 . S
O565 Eu537 2.355 . S
O565 Eu547 2.670 . S
O565 C554 1.270 . S
O566 Eu547 2.394 . S
O566 C555 1.251 . S
O567 Eu537 2.374 . S
O567 C555 1.251 . S
H568 C539 0.931 . S
H569 C540 0.931 . S
H570 C542 0.931 . S
H571 C543 0.931 . S
H572 C549 0.931 . S
H573 C550 0.931 . S
H574 C552 0.931 . S
H575 C553 0.931 . S
C576 Eu577 2.835 . S
C576 C578 1.500 . S
C576 O596 1.257 . S
C576 O597 1.260 . S
Eu577 C576 2.835 . S
Eu577 O596 2.473 . S
Eu577 O597 2.480 . S
Eu577 O598 2.430 1_545 S
Eu577 O599 2.670 1_545 S
Eu577 O600 2.394 . S
Eu577 O605 2.355 . S
Eu577 O607 2.374 . S
C578 C576 1.500 . S
C578 C579 1.377 . S
C578 C583 1.377 . S
C579 C578 1.377 . S
C579 C580 1.395 . S
C579 H608 0.931 . S
C580 C579 1.395 . S
C580 C581 1.383 . S
C580 H609 0.931 . S
C581 C580 1.383 . S
C581 C582 1.394 . S
C582 C581 1.394 . S
C582 C583 1.378 . S
C582 H610 0.931 . S
C583 C578 1.377 . S
C583 C582 1.378 . S
C583 H611 0.931 . S
C584 O598 1.259 . S
C584 O599 1.270 . S
C585 O600 1.251 . S
C585 O601 1.251 . S
C586 Eu587 2.833 1_565 S
C586 C588 1.500 . S
C586 O602 1.257 . S
C586 O603 1.260 . S
Eu587 C586 2.833 1_545 S
Eu587 O599 2.353 1_545 S
Eu587 O601 2.375 . S
Eu587 O602 2.470 1_545 S
Eu587 O603 2.480 1_545 S
Eu587 O604 2.433 . S
Eu587 O605 2.672 . S
Eu587 O606 2.394 . S
C588 C586 1.500 . S
C588 C589 1.377 . S
C588 C593 1.377 . S
C589 C588 1.377 . S
C589 C590 1.395 . S
C589 H612 0.931 . S
C590 C589 1.395 . S
C590 C591 1.383 . S
C590 H613 0.931 . S
C591 C590 1.383 . S
C591 C592 1.394 . S
C592 C591 1.394 . S
C592 C593 1.378 . S
C592 H614 0.931 . S
C593 C588 1.377 . S
C593 C592 1.378 . S
C593 H615 0.931 . S
C594 O604 1.259 . S
C594 O605 1.270 . S
C595 O606 1.251 . S
C595 O607 1.251 . S
O596 C576 1.257 . S
O596 Eu577 2.473 . S
O597 C576 1.260 . S
O597 Eu577 2.480 . S
O598 Eu577 2.430 1_565 S
O598 C584 1.259 . S
O599 Eu577 2.670 1_565 S
O599 C584 1.270 . S
O599 Eu587 2.353 1_565 S
O600 Eu577 2.394 . S
O600 C585 1.251 . S
O601 C585 1.251 . S
O601 Eu587 2.375 . S
O602 C586 1.257 . S
O602 Eu587 2.470 1_565 S
O603 C586 1.260 . S
O603 Eu587 2.480 1_565 S
O604 Eu587 2.433 . S
O604 C594 1.259 . S
O605 Eu577 2.355 . S
O605 Eu587 2.672 . S
O605 C594 1.270 . S
O606 Eu587 2.394 . S
O606 C595 1.251 . S
O607 Eu577 2.374 . S
O607 C595 1.251 . S
H608 C579 0.931 . S
H609 C580 0.931 . S
H610 C582 0.931 . S
H611 C583 0.931 . S
H612 C589 0.931 . S
H613 C590 0.931 . S
H614 C592 0.931 . S
H615 C593 0.931 . S
C616 Eu617 2.835 . S
C616 C618 1.500 . S
C616 O636 1.257 . S
C616 O637 1.260 . S
Eu617 C616 2.835 . S
Eu617 O636 2.473 . S
Eu617 O637 2.480 . S
Eu617 O638 2.430 . S
Eu617 O639 2.670 . S
Eu617 O640 2.394 . S
Eu617 O645 2.355 . S
Eu617 O647 2.374 . S
C618 C616 1.500 . S
C618 C619 1.377 . S
C618 C623 1.377 . S
C619 C618 1.377 . S
C619 C620 1.395 . S
C619 H648 0.931 . S
C620 C619 1.395 . S
C620 C621 1.383 . S
C620 H649 0.931 . S
C621 C620 1.383 . S
C621 C622 1.394 . S
C622 C621 1.394 . S
C622 C623 1.378 . S
C622 H650 0.931 . S
C623 C618 1.377 . S
C623 C622 1.378 . S
C623 H651 0.931 . S
C624 O638 1.259 . S
C624 O639 1.270 . S
C625 O640 1.251 . S
C625 O641 1.251 . S
C626 Eu627 2.835 . S
C626 C628 1.500 . S
C626 O642 1.257 . S
C626 O643 1.260 . S
Eu627 C626 2.835 . S
Eu627 O639 2.355 . S
Eu627 O641 2.374 . S
Eu627 O642 2.473 . S
Eu627 O643 2.480 . S
Eu627 O644 2.430 . S
Eu627 O645 2.670 . S
Eu627 O646 2.394 . S
C628 C626 1.500 . S
C628 C629 1.377 . S
C628 C633 1.377 . S
C629 C628 1.377 . S
C629 C630 1.395 . S
C629 H652 0.931 . S
C630 C629 1.395 . S
C630 C631 1.383 . S
C630 H653 0.931 . S
C631 C630 1.383 . S
C631 C632 1.394 . S
C632 C631 1.394 . S
C632 C633 1.378 . S
C632 H654 0.931 . S
C633 C628 1.377 . S
C633 C632 1.378 . S
C633 H655 0.931 . S
C634 O644 1.259 . S
C634 O645 1.270 . S
C635 O646 1.251 . S
C635 O647 1.251 . S
O636 C616 1.257 . S
O636 Eu617 2.473 . S
O637 C616 1.260 . S
O637 Eu617 2.480 . S
O638 Eu617 2.430 . S
O638 C624 1.259 . S
O639 Eu617 2.670 . S
O639 C624 1.270 . S
O639 Eu627 2.355 . S
O640 Eu617 2.394 . S
O640 C625 1.251 . S
O641 C625 1.251 . S
O641 Eu627 2.374 . S
O642 C626 1.257 . S
O642 Eu627 2.473 . S
O643 C626 1.260 . S
O643 Eu627 2.480 . S
O644 Eu627 2.430 . S
O644 C634 1.259 . S
O645 Eu617 2.355 . S
O645 Eu627 2.670 . S
O645 C634 1.270 . S
O646 Eu627 2.394 . S
O646 C635 1.251 . S
O647 Eu617 2.374 . S
O647 C635 1.251 . S
H648 C619 0.931 . S
H649 C620 0.931 . S
H650 C622 0.931 . S
H651 C623 0.931 . S
H652 C629 0.931 . S
H653 C630 0.931 . S
H654 C632 0.931 . S
H655 C633 0.931 . S
C656 Eu657 2.835 . S
C656 C658 1.500 . S
C656 O676 1.257 . S
C656 O677 1.260 . S
Eu657 C656 2.835 . S
Eu657 O676 2.473 . S
Eu657 O677 2.480 . S
Eu657 O678 2.430 . S
Eu657 O679 2.670 . S
Eu657 O680 2.394 . S
Eu657 O685 2.355 . S
Eu657 O687 2.374 . S
C658 C656 1.500 . S
C658 C659 1.377 . S
C658 C663 1.377 . S
C659 C658 1.377 . S
C659 C660 1.395 . S
C659 H688 0.931 . S
C660 C659 1.395 . S
C660 C661 1.383 . S
C660 H689 0.931 . S
C661 C660 1.383 . S
C661 C662 1.394 . S
C662 C661 1.394 . S
C662 C663 1.378 . S
C662 H690 0.931 . S
C663 C658 1.377 . S
C663 C662 1.378 . S
C663 H691 0.931 . S
C664 O678 1.259 . S
C664 O679 1.270 . S
C665 O680 1.251 . S
C665 O681 1.251 . S
C666 Eu667 2.835 . S
C666 C668 1.500 . S
C666 O682 1.257 . S
C666 O683 1.260 . S
Eu667 C666 2.835 . S
Eu667 O679 2.355 . S
Eu667 O681 2.374 . S
Eu667 O682 2.473 . S
Eu667 O683 2.480 . S
Eu667 O684 2.430 . S
Eu667 O685 2.670 . S
Eu667 O686 2.394 . S
C668 C666 1.500 . S
C668 C669 1.377 . S
C668 C673 1.377 . S
C669 C668 1.377 . S
C669 C670 1.395 . S
C669 H692 0.931 . S
C670 C669 1.395 . S
C670 C671 1.383 . S
C670 H693 0.931 . S
C671 C670 1.383 . S
C671 C672 1.394 . S
C672 C671 1.394 . S
C672 C673 1.378 . S
C672 H694 0.931 . S
C673 C668 1.377 . S
C673 C672 1.378 . S
C673 H695 0.931 . S
C674 O684 1.259 . S
C674 O685 1.270 . S
C675 O686 1.251 . S
C675 O687 1.251 . S
O676 C656 1.257 . S
O676 Eu657 2.473 . S
O677 C656 1.260 . S
O677 Eu657 2.480 . S
O678 Eu657 2.430 . S
O678 C664 1.259 . S
O679 Eu657 2.670 . S
O679 C664 1.270 . S
O679 Eu667 2.355 . S
O680 Eu657 2.394 . S
O680 C665 1.251 . S
O681 C665 1.251 . S
O681 Eu667 2.374 . S
O682 C666 1.257 . S
O682 Eu667 2.473 . S
O683 C666 1.260 . S
O683 Eu667 2.480 . S
O684 Eu667 2.430 . S
O684 C674 1.259 . S
O685 Eu657 2.355 . S
O685 Eu667 2.670 . S
O685 C674 1.270 . S
O686 Eu667 2.394 . S
O686 C675 1.251 . S
O687 Eu657 2.374 . S
O687 C675 1.251 . S
H688 C659 0.931 . S
H689 C660 0.931 . S
H690 C662 0.931 . S
H691 C663 0.931 . S
H692 C669 0.931 . S
H693 C670 0.931 . S
H694 C672 0.931 . S
H695 C673 0.931 . S
C696 Eu697 2.835 . S
C696 C698 1.500 . S
C696 O716 1.257 . S
C696 O717 1.260 . S
Eu697 C696 2.835 . S
Eu697 O716 2.473 . S
Eu697 O717 2.480 . S
Eu697 O718 2.430 . S
Eu697 O719 2.670 . S
Eu697 O720 2.394 . S
Eu697 O725 2.355 . S
Eu697 O727 2.374 . S
C698 C696 1.500 . S
C698 C699 1.377 . S
C698 C703 1.377 . S
C699 C698 1.377 . S
C699 C700 1.395 . S
C699 H728 0.931 . S
C700 C699 1.395 . S
C700 C701 1.383 . S
C700 H729 0.931 . S
C701 C700 1.383 . S
C701 C702 1.394 . S
C702 C701 1.394 . S
C702 C703 1.378 . S
C702 H730 0.931 . S
C703 C698 1.377 . S
C703 C702 1.378 . S
C703 H731 0.931 . S
C704 O718 1.259 . S
C704 O719 1.270 . S
C705 O720 1.251 . S
C705 O721 1.251 . S
C706 Eu707 2.835 . S
C706 C708 1.500 . S
C706 O722 1.257 . S
C706 O723 1.260 . S
Eu707 C706 2.835 . S
Eu707 O719 2.355 . S
Eu707 O721 2.374 . S
Eu707 O722 2.473 . S
Eu707 O723 2.480 . S
Eu707 O724 2.430 . S
Eu707 O725 2.670 . S
Eu707 O726 2.394 . S
C708 C706 1.500 . S
C708 C709 1.377 . S
C708 C713 1.377 . S
C709 C708 1.377 . S
C709 C710 1.395 1_655 S
C709 H732 0.931 . S
C710 C709 1.395 1_455 S
C710 C711 1.383 . S
C710 H733 0.931 . S
C711 C710 1.383 . S
C711 C712 1.394 1_455 S
C712 C711 1.394 1_655 S
C712 C713 1.378 . S
C712 H734 0.931 . S
C713 C708 1.377 . S
C713 C712 1.378 . S
C713 H735 0.931 . S
C714 O724 1.259 . S
C714 O725 1.270 . S
C715 O726 1.251 . S
C715 O727 1.251 . S
O716 C696 1.257 . S
O716 Eu697 2.473 . S
O717 C696 1.260 . S
O717 Eu697 2.480 . S
O718 Eu697 2.430 . S
O718 C704 1.259 . S
O719 Eu697 2.670 . S
O719 C704 1.270 . S
O719 Eu707 2.355 . S
O720 Eu697 2.394 . S
O720 C705 1.251 . S
O721 C705 1.251 . S
O721 Eu707 2.374 . S
O722 C706 1.257 . S
O722 Eu707 2.473 . S
O723 C706 1.260 . S
O723 Eu707 2.480 . S
O724 Eu707 2.430 . S
O724 C714 1.259 . S
O725 Eu697 2.355 . S
O725 Eu707 2.670 . S
O725 C714 1.270 . S
O726 Eu707 2.394 . S
O726 C715 1.251 . S
O727 Eu697 2.374 . S
O727 C715 1.251 . S
H728 C699 0.931 . S
H729 C700 0.931 . S
H730 C702 0.931 . S
H731 C703 0.931 . S
H732 C709 0.931 . S
H733 C710 0.931 . S
H734 C712 0.931 . S
H735 C713 0.931 . S
C736 Eu737 2.835 . S
C736 C738 1.500 . S
C736 O756 1.257 . S
C736 O757 1.260 . S
Eu737 C736 2.835 . S
Eu737 O756 2.473 . S
Eu737 O757 2.480 . S
Eu737 O758 2.430 . S
Eu737 O759 2.670 . S
Eu737 O760 2.394 . S
Eu737 O765 2.355 . S
Eu737 O767 2.374 . S
C738 C736 1.500 . S
C738 C739 1.377 . S
C738 C743 1.377 . S
C739 C738 1.377 . S
C739 C740 1.395 . S
C739 H768 0.931 . S
C740 C739 1.395 . S
C740 C741 1.383 . S
C740 H769 0.931 . S
C741 C740 1.383 . S
C741 C742 1.394 . S
C742 C741 1.394 . S
C742 C743 1.378 . S
C742 H770 0.931 . S
C743 C738 1.377 . S
C743 C742 1.378 . S
C743 H771 0.931 . S
C744 O758 1.259 . S
C744 O759 1.270 . S
C745 O760 1.251 . S
C745 O761 1.251 . S
C746 Eu747 2.835 1_655 S
C746 C748 1.500 . S
C746 O762 1.257 . S
C746 O763 1.260 . S
Eu747 C746 2.835 1_455 S
Eu747 O759 2.355 . S
Eu747 O761 2.374 . S
Eu747 O762 2.473 1_455 S
Eu747 O763 2.480 1_455 S
Eu747 O764 2.430 1_455 S
Eu747 O765 2.670 . S
Eu747 O766 2.394 1_455 S
C748 C746 1.500 . S
C748 C749 1.377 . S
C748 C753 1.377 . S
C749 C748 1.377 . S
C749 C750 1.395 . S
C749 H772 0.931 . S
C750 C749 1.395 . S
C750 C751 1.383 . S
C750 H773 0.931 . S
C751 C750 1.383 . S
C751 C752 1.394 . S
C752 C751 1.394 . S
C752 C753 1.378 . S
C752 H774 0.931 . S
C753 C748 1.377 . S
C753 C752 1.378 . S
C753 H775 0.931 . S
C754 O764 1.259 1_455 S
C754 O765 1.270 . S
C755 O766 1.251 1_455 S
C755 O767 1.251 . S
O756 C736 1.257 . S
O756 Eu737 2.473 . S
O757 C736 1.260 . S
O757 Eu737 2.480 . S
O758 Eu737 2.430 . S
O758 C744 1.259 . S
O759 Eu737 2.670 . S
O759 C744 1.270 . S
O759 Eu747 2.355 . S
O760 Eu737 2.394 . S
O760 C745 1.251 . S
O761 C745 1.251 . S
O761 Eu747 2.374 . S
O762 C746 1.257 . S
O762 Eu747 2.473 1_655 S
O763 C746 1.260 . S
O763 Eu747 2.480 1_655 S
O764 Eu747 2.430 1_655 S
O764 C754 1.259 1_655 S
O765 Eu737 2.355 . S
O765 Eu747 2.670 . S
O765 C754 1.270 . S
O766 Eu747 2.394 1_655 S
O766 C755 1.251 1_655 S
O767 Eu737 2.374 . S
O767 C755 1.251 . S
H768 C739 0.931 . S
H769 C740 0.931 . S
H770 C742 0.931 . S
H771 C743 0.931 . S
H772 C749 0.931 . S
H773 C750 0.931 . S
H774 C752 0.931 . S
H775 C753 0.931 . S
C776 Eu777 2.835 . S
C776 C778 1.500 . S
C776 O796 1.257 . S
C776 O797 1.260 . S
Eu777 C776 2.835 . S
Eu777 O796 2.473 . S
Eu777 O797 2.480 . S
Eu777 O798 2.430 . S
Eu777 O799 2.670 . S
Eu777 O800 2.394 . S
Eu777 O805 2.355 . S
Eu777 O807 2.374 . S
C778 C776 1.500 . S
C778 C779 1.377 . S
C778 C783 1.377 . S
C779 C778 1.377 . S
C779 C780 1.395 . S
C779 H808 0.931 . S
C780 C779 1.395 . S
C780 C781 1.383 . S
C780 H809 0.931 . S
C781 C780 1.383 . S
C781 C782 1.394 . S
C782 C781 1.394 . S
C782 C783 1.378 . S
C782 H810 0.931 . S
C783 C778 1.377 . S
C783 C782 1.378 . S
C783 H811 0.931 . S
C784 O798 1.259 . S
C784 O799 1.270 . S
C785 O800 1.251 . S
C785 O801 1.251 . S
C786 Eu787 2.835 . S
C786 C788 1.500 . S
C786 O802 1.257 . S
C786 O803 1.260 . S
Eu787 C786 2.835 . S
Eu787 O799 2.355 . S
Eu787 O801 2.374 . S
Eu787 O802 2.473 . S
Eu787 O803 2.480 . S
Eu787 O804 2.430 . S
Eu787 O805 2.670 . S
Eu787 O806 2.394 . S
C788 C786 1.500 . S
C788 C789 1.377 . S
C788 C793 1.377 . S
C789 C788 1.377 . S
C789 C790 1.395 . S
C789 H812 0.931 . S
C790 C789 1.395 . S
C790 C791 1.383 . S
C790 H813 0.931 . S
C791 C790 1.383 . S
C791 C792 1.394 . S
C792 C791 1.394 . S
C792 C793 1.378 . S
C792 H814 0.931 . S
C793 C788 1.377 . S
C793 C792 1.378 . S
C793 H815 0.931 . S
C794 O804 1.259 . S
C794 O805 1.270 . S
C795 O806 1.251 . S
C795 O807 1.251 . S
O796 C776 1.257 . S
O796 Eu777 2.473 . S
O797 C776 1.260 . S
O797 Eu777 2.480 . S
O798 Eu777 2.430 . S
O798 C784 1.259 . S
O799 Eu777 2.670 . S
O799 C784 1.270 . S
O799 Eu787 2.355 . S
O800 Eu777 2.394 . S
O800 C785 1.251 . S
O801 C785 1.251 . S
O801 Eu787 2.374 . S
O802 C786 1.257 . S
O802 Eu787 2.473 . S
O803 C786 1.260 . S
O803 Eu787 2.480 . S
O804 Eu787 2.430 . S
O804 C794 1.259 . S
O805 Eu777 2.355 . S
O805 Eu787 2.670 . S
O805 C794 1.270 . S
O806 Eu787 2.394 . S
O806 C795 1.251 . S
O807 Eu777 2.374 . S
O807 C795 1.251 . S
H808 C779 0.931 . S
H809 C780 0.931 . S
H810 C782 0.931 . S
H811 C783 0.931 . S
H812 C789 0.931 . S
H813 C790 0.931 . S
H814 C792 0.931 . S
H815 C793 0.931 . S
C816 Eu817 2.835 1_554 S
C816 C818 1.500 . S
C816 O836 1.256 . S
C816 O837 1.260 . S
Eu817 C816 2.835 1_556 S
Eu817 O836 2.474 1_556 S
Eu817 O837 2.480 1_556 S
Eu817 O838 2.430 . S
Eu817 O839 2.670 . S
Eu817 O840 2.394 . S
Eu817 O845 2.355 . S
Eu817 O847 2.374 . S
C818 C816 1.500 . S
C818 C819 1.377 . S
C818 C823 1.377 . S
C819 C818 1.377 . S
C819 C820 1.395 . S
C819 H848 0.931 . S
C820 C819 1.395 . S
C820 C821 1.383 . S
C820 H849 0.931 . S
C821 C820 1.383 . S
C821 C822 1.394 . S
C822 C821 1.394 . S
C822 C823 1.378 . S
C822 H850 0.931 . S
C823 C818 1.377 . S
C823 C822 1.378 . S
C823 H851 0.931 . S
C824 O838 1.259 . S
C824 O839 1.270 . S
C825 O840 1.251 . S
C825 O841 1.251 . S
C826 Eu827 2.835 . S
C826 C828 1.500 . S
C826 O842 1.257 . S
C826 O843 1.260 . S
Eu827 C826 2.835 . S
Eu827 O839 2.355 . S
Eu827 O841 2.374 . S
Eu827 O842 2.473 . S
Eu827 O843 2.480 . S
Eu827 O844 2.430 . S
Eu827 O845 2.670 . S
Eu827 O846 2.394 . S
C828 C826 1.500 . S
C828 C829 1.377 . S
C828 C833 1.377 . S
C829 C828 1.377 . S
C829 C830 1.395 . S
C829 H852 0.931 . S
C830 C829 1.395 . S
C830 C831 1.383 . S
C830 H853 0.931 . S
C831 C830 1.383 . S
C831 C832 1.394 . S
C832 C831 1.394 . S
C832 C833 1.378 . S
C832 H854 0.931 . S
C833 C828 1.377 . S
C833 C832 1.378 . S
C833 H855 0.931 . S
C834 O844 1.259 . S
C834 O845 1.270 . S
C835 O846 1.251 . S
C835 O847 1.251 . S
O836 C816 1.256 . S
O836 Eu817 2.474 1_554 S
O837 C816 1.260 . S
O837 Eu817 2.480 1_554 S
O838 Eu817 2.430 . S
O838 C824 1.259 . S
O839 Eu817 2.670 . S
O839 C824 1.270 . S
O839 Eu827 2.355 . S
O840 Eu817 2.394 . S
O840 C825 1.251 . S
O841 C825 1.251 . S
O841 Eu827 2.374 . S
O842 C826 1.257 . S
O842 Eu827 2.473 . S
O843 C826 1.260 . S
O843 Eu827 2.480 . S
O844 Eu827 2.430 . S
O844 C834 1.259 . S
O845 Eu817 2.355 . S
O845 Eu827 2.670 . S
O845 C834 1.270 . S
O846 Eu827 2.394 . S
O846 C835 1.251 . S
O847 Eu817 2.374 . S
O847 C835 1.251 . S
H848 C819 0.931 . S
H849 C820 0.931 . S
H850 C822 0.931 . S
H851 C823 0.931 . S
H852 C829 0.931 . S
H853 C830 0.931 . S
H854 C832 0.931 . S
H855 C833 0.931 . S
C856 Eu857 2.835 . S
C856 C858 1.500 . S
C856 O876 1.257 . S
C856 O877 1.260 . S
Eu857 C856 2.835 . S
Eu857 O876 2.473 . S
Eu857 O877 2.480 . S
Eu857 O878 2.430 . S
Eu857 O879 2.670 . S
Eu857 O880 2.394 . S
Eu857 O885 2.355 . S
Eu857 O887 2.374 . S
C858 C856 1.500 . S
C858 C859 1.377 . S
C858 C863 1.377 . S
C859 C858 1.377 . S
C859 C860 1.395 1_655 S
C859 H888 0.931 . S
C860 C859 1.395 1_455 S
C860 C861 1.383 . S
C860 H889 0.931 . S
C861 C860 1.383 . S
C861 C862 1.394 1_455 S
C862 C861 1.394 1_655 S
C862 C863 1.378 . S
C862 H890 0.931 . S
C863 C858 1.377 . S
C863 C862 1.378 . S
C863 H891 0.931 . S
C864 O878 1.259 . S
C864 O879 1.270 . S
C865 O880 1.251 . S
C865 O881 1.251 . S
C866 Eu867 2.835 . S
C866 C868 1.500 . S
C866 O882 1.257 . S
C866 O883 1.260 . S
Eu867 C866 2.835 . S
Eu867 O879 2.355 . S
Eu867 O881 2.374 . S
Eu867 O882 2.473 . S
Eu867 O883 2.480 . S
Eu867 O884 2.430 . S
Eu867 O885 2.670 . S
Eu867 O886 2.394 . S
C868 C866 1.500 . S
C868 C869 1.377 . S
C868 C873 1.377 . S
C869 C868 1.377 . S
C869 C870 1.395 . S
C869 H892 0.931 . S
C870 C869 1.395 . S
C870 C871 1.383 . S
C870 H893 0.931 . S
C871 C870 1.383 . S
C871 C872 1.394 . S
C872 C871 1.394 . S
C872 C873 1.378 . S
C872 H894 0.931 . S
C873 C868 1.377 . S
C873 C872 1.378 . S
C873 H895 0.931 . S
C874 O884 1.259 . S
C874 O885 1.270 . S
C875 O886 1.251 . S
C875 O887 1.251 . S
O876 C856 1.257 . S
O876 Eu857 2.473 . S
O877 C856 1.260 . S
O877 Eu857 2.480 . S
O878 Eu857 2.430 . S
O878 C864 1.259 . S
O879 Eu857 2.670 . S
O879 C864 1.270 . S
O879 Eu867 2.355 . S
O880 Eu857 2.394 . S
O880 C865 1.251 . S
O881 C865 1.251 . S
O881 Eu867 2.374 . S
O882 C866 1.257 . S
O882 Eu867 2.473 . S
O883 C866 1.260 . S
O883 Eu867 2.480 . S
O884 Eu867 2.430 . S
O884 C874 1.259 . S
O885 Eu857 2.355 . S
O885 Eu867 2.670 . S
O885 C874 1.270 . S
O886 Eu867 2.394 . S
O886 C875 1.251 . S
O887 Eu857 2.374 . S
O887 C875 1.251 . S
H888 C859 0.931 . S
H889 C860 0.931 . S
H890 C862 0.931 . S
H891 C863 0.931 . S
H892 C869 0.931 . S
H893 C870 0.931 . S
H894 C872 0.931 . S
H895 C873 0.931 . S
C896 Eu897 2.835 . S
C896 C898 1.500 . S
C896 O916 1.257 . S
C896 O917 1.260 . S
Eu897 C896 2.835 . S
Eu897 O916 2.473 . S
Eu897 O917 2.480 . S
Eu897 O918 2.430 . S
Eu897 O919 2.670 . S
Eu897 O920 2.394 . S
Eu897 O925 2.355 . S
Eu897 O927 2.374 . S
C898 C896 1.500 . S
C898 C899 1.377 . S
C898 C903 1.377 . S
C899 C898 1.377 . S
C899 C900 1.395 . S
C899 H928 0.931 . S
C900 C899 1.395 . S
C900 C901 1.383 . S
C900 H929 0.931 . S
C901 C900 1.383 . S
C901 C902 1.394 . S
C902 C901 1.394 . S
C902 C903 1.378 . S
C902 H930 0.931 . S
C903 C898 1.377 . S
C903 C902 1.378 . S
C903 H931 0.931 . S
C904 O918 1.259 . S
C904 O919 1.270 . S
C905 O920 1.251 . S
C905 O921 1.251 . S
C906 Eu907 2.835 . S
C906 C908 1.500 . S
C906 O922 1.257 . S
C906 O923 1.260 . S
Eu907 C906 2.835 . S
Eu907 O919 2.355 . S
Eu907 O921 2.374 . S
Eu907 O922 2.473 . S
Eu907 O923 2.480 . S
Eu907 O924 2.430 . S
Eu907 O925 2.670 . S
Eu907 O926 2.394 . S
C908 C906 1.500 . S
C908 C909 1.377 . S
C908 C913 1.377 . S
C909 C908 1.377 . S
C909 C910 1.395 . S
C909 H932 0.931 . S
C910 C909 1.395 . S
C910 C911 1.383 . S
C910 H933 0.931 . S
C911 C910 1.383 . S
C911 C912 1.394 . S
C912 C911 1.394 . S
C912 C913 1.378 . S
C912 H934 0.931 . S
C913 C908 1.377 . S
C913 C912 1.378 . S
C913 H935 0.931 . S
C914 O924 1.259 . S
C914 O925 1.270 . S
C915 O926 1.251 . S
C915 O927 1.251 . S
O916 C896 1.257 . S
O916 Eu897 2.473 . S
O917 C896 1.260 . S
O917 Eu897 2.480 . S
O918 Eu897 2.430 . S
O918 C904 1.259 . S
O919 Eu897 2.670 . S
O919 C904 1.270 . S
O919 Eu907 2.355 . S
O920 Eu897 2.394 . S
O920 C905 1.251 . S
O921 C905 1.251 . S
O921 Eu907 2.374 . S
O922 C906 1.257 . S
O922 Eu907 2.473 . S
O923 C906 1.260 . S
O923 Eu907 2.480 . S
O924 Eu907 2.430 . S
O924 C914 1.259 . S
O925 Eu897 2.355 . S
O925 Eu907 2.670 . S
O925 C914 1.270 . S
O926 Eu907 2.394 . S
O926 C915 1.251 . S
O927 Eu897 2.374 . S
O927 C915 1.251 . S
H928 C899 0.931 . S
H929 C900 0.931 . S
H930 C902 0.931 . S
H931 C903 0.931 . S
H932 C909 0.931 . S
H933 C910 0.931 . S
H934 C912 0.931 . S
H935 C913 0.931 . S
C936 Eu937 2.835 1_655 S
C936 C938 1.500 . S
C936 O956 1.257 . S
C936 O957 1.260 . S
Eu937 C936 2.835 1_455 S
Eu937 O956 2.473 1_455 S
Eu937 O957 2.480 1_455 S
Eu937 O958 2.430 . S
Eu937 O959 2.670 . S
Eu937 O960 2.394 . S
Eu937 O965 2.355 . S
Eu937 O967 2.374 . S
C938 C936 1.500 . S
C938 C939 1.377 . S
C938 C943 1.377 . S
C939 C938 1.377 . S
C939 C940 1.395 . S
C939 H968 0.931 . S
C940 C939 1.395 . S
C940 C941 1.383 . S
C940 H969 0.931 . S
C941 C940 1.383 . S
C941 C942 1.394 . S
C942 C941 1.394 . S
C942 C943 1.378 . S
C942 H970 0.931 . S
C943 C938 1.377 . S
C943 C942 1.378 . S
C943 H971 0.931 . S
C944 O958 1.259 . S
C944 O959 1.270 . S
C945 O960 1.251 . S
C945 O961 1.251 . S
C946 Eu947 2.835 . S
C946 C948 1.500 . S
C946 O962 1.257 . S
C946 O963 1.260 . S
Eu947 C946 2.835 . S
Eu947 O959 2.355 . S
Eu947 O961 2.374 . S
Eu947 O962 2.473 . S
Eu947 O963 2.480 . S
Eu947 O964 2.430 . S
Eu947 O965 2.670 . S
Eu947 O966 2.394 . S
C948 C946 1.500 . S
C948 C949 1.377 . S
C948 C953 1.377 . S
C949 C948 1.377 . S
C949 C950 1.394 1_554 S
C949 H972 0.931 1_554 S
C950 C949 1.394 1_556 S
C950 C951 1.378 1_556 S
C950 H973 0.938 . S
C951 C950 1.378 1_554 S
C951 C952 1.394 . S
C952 C951 1.394 . S
C952 C953 1.378 . S
C952 H974 0.931 . S
C953 C948 1.377 . S
C953 C952 1.378 . S
C953 H975 0.931 . S
C954 O964 1.259 . S
C954 O965 1.270 . S
C955 O966 1.251 . S
C955 O967 1.251 . S
O956 C936 1.257 . S
O956 Eu937 2.473 1_655 S
O957 C936 1.260 . S
O957 Eu937 2.480 1_655 S
O958 Eu937 2.430 . S
O958 C944 1.259 . S
O959 Eu937 2.670 . S
O959 C944 1.270 . S
O959 Eu947 2.355 . S
O960 Eu937 2.394 . S
O960 C945 1.251 . S
O961 C945 1.251 . S
O961 Eu947 2.374 . S
O962 C946 1.257 . S
O962 Eu947 2.473 . S
O963 C946 1.260 . S
O963 Eu947 2.480 . S
O964 Eu947 2.430 . S
O964 C954 1.259 . S
O965 Eu937 2.355 . S
O965 Eu947 2.670 . S
O965 C954 1.270 . S
O966 Eu947 2.394 . S
O966 C955 1.251 . S
O967 Eu937 2.374 . S
O967 C955 1.251 . S
H968 C939 0.931 . S
H969 C940 0.931 . S
H970 C942 0.931 . S
H971 C943 0.931 . S
H972 C949 0.931 1_556 S
H973 C950 0.938 . S
H974 C952 0.931 . S
H975 C953 0.931 . S
C109 C355 3.236 . S
C65 C384 3.451 . S
C75 C435 1.397 . S
C461 C84 3.020 . S
C25 C501 2.058 . S
C551 C28 3.165 1_554 S
C594 C47 2.658 . S
C9 C631 4.947 . S
C344 C233 4.201 1_455 S
C249 C381 2.359 . S
C424 C275 3.409 1_545 S
C475 C173 1.620 1_556 S
C224 C515 2.791 1_655 S
C554 C243 2.942 . S
C585 C266 3.121 1_554 S
C634 C179 3.239 . S
C341 C163 5.138 . S
C289 C664 3.215 . S
C705 C333 3.408 . S
C751 C308 1.888 . S
C123 C625 4.019 . S
C126 C421 3.110 . S
C327 C784 3.223 . S
C835 C299 2.832 . S
C345 C67 3.115 . S
C834 C98 3.271 . S
C89 C425 1.440 . S
C79 C791 2.966 . S
C511 C11 2.005 . S
C51 C701 1.996 . S
C584 C33 2.914 1_565 S
C861 C14 4.827 1_455 S
C354 C140 3.911 1_554 S
C831 C319 2.611 . S
C112 C434 3.229 . S
C285 C785 1.676 . S
C149 C505 2.854 1_565 S
C704 C313 2.401 . S
C121 C595 3.334 . S
C291 C864 3.072 . S
C182 C351 5.533 . S
C168 C674 3.285 . S
C263 C555 3.414 . S
C247 C741 1.943 . S
C875 C277 3.792 . S
C219 C431 2.815 . S
C474 C257 3.298 . S
C385 C201 2.837 . S
C81 C915 3.066 . S
C824 C93 3.281 . S
C103 C955 1.518 . S
C56 C781 2.912 1_455 S
C53 C661 2.137 . S
C711 C0 1.693 . S
C754 C19 2.630 1_455 S
C871 C37 3.920 . S
C904 C261 4.180 . S
C193 C821 2.565 . S
C944 C205 3.558 . S
C795 C215 1.526 . S
C675 C252 2.681 1_554 S
C187 C714 2.168 . S
C745 C196 2.862 . S
C221 C874 3.147 . S
C901 C317 5.669 . S
C135 C504 3.267 . S
C545 C151 3.416 . S
C591 C154 0.491 . S
C865 C305 3.974 . S
C280 C941 2.896 . S
C464 C145 3.281 . S
C395 C117 2.978 . S
C95 C905 3.272 . S
C394 C70 3.228 . S
C61 C945 1.614 . S
C107 C471 2.801 . S
C39 C671 1.732 . S
C541 C23 1.091 . S
C5 C744 2.686 . S
C42 C621 4.626 . S
C914 C322 4.041 . S
C165 C391 2.734 . S
C954 C294 3.383 1_454 S
C131 C465 1.667 . S
C331 C665 3.058 . S
C544 C159 1.064 . S
C303 C755 3.035 1_655 S
C624 C137 3.265 . S
C911 C238 5.734 . S
C514 C210 3.142 1_545 S
C235 C715 3.436 . S
C581 C191 1.129 . S
C207 C635 3.900 . S
C177 C951 2.880 . S
C794 C229 3.266 . S
C825 C271 2.764 . S
