# Generated by pormake.
# Topology ctn, (3,4)-cn, num edge types: 1
# Building blocks:
#     Node 0, Type 0, BuildingBlock: WUSLED_clean_sbu_0, # of connection points: 3
#     Node 1, Type 0, BuildingBlock: WUSLED_clean_sbu_0, # of connection points: 3
#     Node 2, Type 0, BuildingBlock: WUSLED_clean_sbu_0, # of connection points: 3
#     Node 3, Type 0, BuildingBlock: WUSLED_clean_sbu_0, # of connection points: 3
#     Node 4, Type 0, BuildingBlock: WUSLED_clean_sbu_0, # of connection points: 3
#     Node 5, Type 0, BuildingBlock: WUSLED_clean_sbu_0, # of connection points: 3
#     Node 6, Type 0, BuildingBlock: WUSLED_clean_sbu_0, # of connection points: 3
#     Node 7, Type 0, BuildingBlock: WUSLED_clean_sbu_0, # of connection points: 3
#     Node 8, Type 0, BuildingBlock: WUSLED_clean_sbu_0, # of connection points: 3
#     Node 9, Type 0, BuildingBlock: WUSLED_clean_sbu_0, # of connection points: 3
#     Node 10, Type 0, BuildingBlock: WUSLED_clean_sbu_0, # of connection points: 3
#     Node 11, Type 0, BuildingBlock: WUSLED_clean_sbu_0, # of connection points: 3
#     Node 12, Type 0, BuildingBlock: WUSLED_clean_sbu_0, # of connection points: 3
#     Node 13, Type 0, BuildingBlock: WUSLED_clean_sbu_0, # of connection points: 3
#     Node 14, Type 0, BuildingBlock: WUSLED_clean_sbu_0, # of connection points: 3
#     Node 15, Type 0, BuildingBlock: WUSLED_clean_sbu_0, # of connection points: 3
#     Node 16, Type 1, BuildingBlock: NAHDIM_clean_sbu_0, # of connection points: 4
#     Node 17, Type 1, BuildingBlock: NAHDIM_clean_sbu_0, # of connection points: 4
#     Node 18, Type 1, BuildingBlock: NAHDIM_clean_sbu_0, # of connection points: 4
#     Node 19, Type 1, BuildingBlock: NAHDIM_clean_sbu_0, # of connection points: 4
#     Node 20, Type 1, BuildingBlock: NAHDIM_clean_sbu_0, # of connection points: 4
#     Node 21, Type 1, BuildingBlock: NAHDIM_clean_sbu_0, # of connection points: 4
#     Node 22, Type 1, BuildingBlock: NAHDIM_clean_sbu_0, # of connection points: 4
#     Node 23, Type 1, BuildingBlock: NAHDIM_clean_sbu_0, # of connection points: 4
#     Node 24, Type 1, BuildingBlock: NAHDIM_clean_sbu_0, # of connection points: 4
#     Node 25, Type 1, BuildingBlock: NAHDIM_clean_sbu_0, # of connection points: 4
#     Node 26, Type 1, BuildingBlock: NAHDIM_clean_sbu_0, # of connection points: 4
#     Node 27, Type 1, BuildingBlock: NAHDIM_clean_sbu_0, # of connection points: 4
#     Edge 28, Type (0, 1), BuildingBlock: XIVTED_clean_linker_0, # of connection points: 2
#     Edge 29, Type (0, 1), BuildingBlock: XIVTED_clean_linker_0, # of connection points: 2
#     Edge 30, Type (0, 1), BuildingBlock: XIVTED_clean_linker_0, # of connection points: 2
#     Edge 31, Type (0, 1), BuildingBlock: XIVTED_clean_linker_0, # of connection points: 2
#     Edge 32, Type (0, 1), BuildingBlock: XIVTED_clean_linker_0, # of connection points: 2
#     Edge 33, Type (0, 1), BuildingBlock: XIVTED_clean_linker_0, # of connection points: 2
#     Edge 34, Type (0, 1), BuildingBlock: XIVTED_clean_linker_0, # of connection points: 2
#     Edge 35, Type (0, 1), BuildingBlock: XIVTED_clean_linker_0, # of connection points: 2
#     Edge 36, Type (0, 1), BuildingBlock: XIVTED_clean_linker_0, # of connection points: 2
#     Edge 37, Type (0, 1), BuildingBlock: XIVTED_clean_linker_0, # of connection points: 2
#     Edge 38, Type (0, 1), BuildingBlock: XIVTED_clean_linker_0, # of connection points: 2
#     Edge 39, Type (0, 1), BuildingBlock: XIVTED_clean_linker_0, # of connection points: 2
#     Edge 40, Type (0, 1), BuildingBlock: XIVTED_clean_linker_0, # of connection points: 2
#     Edge 41, Type (0, 1), BuildingBlock: XIVTED_clean_linker_0, # of connection points: 2
#     Edge 42, Type (0, 1), BuildingBlock: XIVTED_clean_linker_0, # of connection points: 2
#     Edge 43, Type (0, 1), BuildingBlock: XIVTED_clean_linker_0, # of connection points: 2
#     Edge 44, Type (0, 1), BuildingBlock: XIVTED_clean_linker_0, # of connection points: 2
#     Edge 45, Type (0, 1), BuildingBlock: XIVTED_clean_linker_0, # of connection points: 2
#     Edge 46, Type (0, 1), BuildingBlock: XIVTED_clean_linker_0, # of connection points: 2
#     Edge 47, Type (0, 1), BuildingBlock: XIVTED_clean_linker_0, # of connection points: 2
#     Edge 48, Type (0, 1), BuildingBlock: XIVTED_clean_linker_0, # of connection points: 2
#     Edge 49, Type (0, 1), BuildingBlock: XIVTED_clean_linker_0, # of connection points: 2
#     Edge 50, Type (0, 1), BuildingBlock: XIVTED_clean_linker_0, # of connection points: 2
#     Edge 51, Type (0, 1), BuildingBlock: XIVTED_clean_linker_0, # of connection points: 2
#     Edge 52, Type (0, 1), BuildingBlock: XIVTED_clean_linker_0, # of connection points: 2
#     Edge 53, Type (0, 1), BuildingBlock: XIVTED_clean_linker_0, # of connection points: 2
#     Edge 54, Type (0, 1), BuildingBlock: XIVTED_clean_linker_0, # of connection points: 2
#     Edge 55, Type (0, 1), BuildingBlock: XIVTED_clean_linker_0, # of connection points: 2
#     Edge 56, Type (0, 1), BuildingBlock: XIVTED_clean_linker_0, # of connection points: 2
#     Edge 57, Type (0, 1), BuildingBlock: XIVTED_clean_linker_0, # of connection points: 2
#     Edge 58, Type (0, 1), BuildingBlock: XIVTED_clean_linker_0, # of connection points: 2
#     Edge 59, Type (0, 1), BuildingBlock: XIVTED_clean_linker_0, # of connection points: 2
#     Edge 60, Type (0, 1), BuildingBlock: XIVTED_clean_linker_0, # of connection points: 2
#     Edge 61, Type (0, 1), BuildingBlock: XIVTED_clean_linker_0, # of connection points: 2
#     Edge 62, Type (0, 1), BuildingBlock: XIVTED_clean_linker_0, # of connection points: 2
#     Edge 63, Type (0, 1), BuildingBlock: XIVTED_clean_linker_0, # of connection points: 2
#     Edge 64, Type (0, 1), BuildingBlock: XIVTED_clean_linker_0, # of connection points: 2
#     Edge 65, Type (0, 1), BuildingBlock: XIVTED_clean_linker_0, # of connection points: 2
#     Edge 66, Type (0, 1), BuildingBlock: XIVTED_clean_linker_0, # of connection points: 2
#     Edge 67, Type (0, 1), BuildingBlock: XIVTED_clean_linker_0, # of connection points: 2
#     Edge 68, Type (0, 1), BuildingBlock: XIVTED_clean_linker_0, # of connection points: 2
#     Edge 69, Type (0, 1), BuildingBlock: XIVTED_clean_linker_0, # of connection points: 2
#     Edge 70, Type (0, 1), BuildingBlock: XIVTED_clean_linker_0, # of connection points: 2
#     Edge 71, Type (0, 1), BuildingBlock: XIVTED_clean_linker_0, # of connection points: 2
#     Edge 72, Type (0, 1), BuildingBlock: XIVTED_clean_linker_0, # of connection points: 2
#     Edge 73, Type (0, 1), BuildingBlock: XIVTED_clean_linker_0, # of connection points: 2
#     Edge 74, Type (0, 1), BuildingBlock: XIVTED_clean_linker_0, # of connection points: 2
#     Edge 75, Type (0, 1), BuildingBlock: XIVTED_clean_linker_0, # of connection points: 2
# Relax obj value: 0.002
# Max RMSD: 0.034
# Mean RMSD: 0.019
data_MOF--net-ctn--node1-WUSLED_clean_sbu_0--node2-NAHDIM_clean_sbu_0--edge1-XIVTED_clean_linker_0
_symmetry_space_group_name_H-M    P1
_symmetry_Int_Tables_number       1
_symmetry_cell_setting            triclinic
loop_
_symmetry_equiv_pos_as_xyz
'x, y, z'
_cell_length_a     70.811293
_cell_length_b     71.823741
_cell_length_c     70.808938
_cell_angle_alpha  91.939933
_cell_angle_beta   89.944503
_cell_angle_gamma 92.407795
loop_
_atom_site_label
_atom_site_type_symbol
_atom_site_fract_x
_atom_site_fract_y
_atom_site_fract_z
_atom_type_partial_charge
C0 C 0.01185 0.06546 0.09112 0.0
C1 C 0.01778 0.05115 0.10245 0.0
C2 C 0.99065 0.05526 0.12327 0.0
C3 C 1.00726 0.04608 0.11839 0.0
C4 C 0.9848 0.06953 0.11174 0.0
C5 C 0.9953 0.07456 0.09584 0.0
U6 U 0.053 0.06036 0.05631 0.0
O7 O 0.05343 0.063 0.02544 0.0
O8 O 0.07108 0.08214 0.0434 0.0
C9 C 0.06472 0.07801 0.02628 0.0
C10 C 0.02271 0.07115 0.07439 0.0
C11 C 0.05854 0.09391 0.01558 0.0
C12 C 0.03558 0.1171 1.00901 0.0
C13 C 0.04115 0.10194 0.01932 0.0
C14 C 0.06478 0.11638 0.99121 0.0
C15 C 0.04733 0.12452 0.9948 0.0
C16 C 0.0703 0.10123 1.0015 0.0
C17 C 0.08838 0.0218 0.06305 0.0
C18 C 0.11011 1.00968 0.03946 0.0
C19 C 0.11406 1.00265 0.07239 0.0
C20 C 0.09838 0.01307 0.07708 0.0
C21 C 0.12006 1.00067 0.05349 0.0
C22 C 0.09443 0.02018 0.0442 0.0
C23 C 0.07153 0.03214 0.06843 0.0
O24 O 0.03976 0.07844 0.07777 0.0
O25 O 0.0221 0.05922 0.0599 0.0
O26 O 0.05701 0.03019 0.05686 0.0
O27 O 0.07472 0.04941 0.07472 0.0
H28 H 0.03056 0.04399 0.09901 0.0
H29 H 0.0123 0.03518 0.12704 0.0
H30 H 0.97195 0.07669 0.11486 0.0
H31 H 0.99048 0.08559 0.08719 0.0
H32 H 0.02196 0.12285 0.01203 0.0
H33 H 0.03188 0.09646 0.03017 0.0
H34 H 0.07434 0.12189 0.98063 0.0
H35 H 0.08383 0.09527 0.99849 0.0
H36 H 0.11418 1.00834 0.02475 0.0
H37 H 0.12155 0.99624 0.08363 0.0
H38 H 0.09399 0.01424 0.09173 0.0
H39 H 0.08693 0.02686 0.03313 0.0
C40 C 0.28206 0.74791 0.18275 0.0
C41 C 0.28973 0.76614 0.18566 0.0
C42 C 0.28144 0.77363 0.15341 0.0
C43 C 0.28935 0.77891 0.17114 0.0
C44 C 0.27395 0.75529 0.15059 0.0
C45 C 0.27424 0.7426 0.16511 0.0
U46 U 0.30214 0.72682 0.22744 0.0
O47 O 0.28706 0.71555 0.25203 0.0
O48 O 0.30434 0.69734 0.23426 0.0
C49 C 0.2924 0.69849 0.24842 0.0
C50 C 0.28175 0.73424 0.19785 0.0
C51 C 0.27739 0.6837 0.24877 0.0
C52 C 0.24897 0.66801 0.23573 0.0
C53 C 0.26288 0.68246 0.23524 0.0
C54 C 0.26394 0.65602 0.26329 0.0
C55 C 0.2494 0.65454 0.24972 0.0
C56 C 0.27778 0.67045 0.2628 0.0
C57 C 0.34728 0.74734 0.25101 0.0
C58 C 0.35789 0.7388 0.2821 0.0
C59 C 0.379 0.75645 0.26181 0.0
C60 C 0.36494 0.75624 0.24793 0.0
C61 C 0.37564 0.74779 0.2791 0.0
C62 C 0.34385 0.73851 0.26815 0.0
C63 C 0.33269 0.74731 0.23618 0.0
O64 O 0.29531 0.72228 0.19724 0.0
O65 O 0.27824 0.74071 0.21503 0.0
O66 O 0.31565 0.75151 0.24186 0.0
O67 O 0.33264 0.73311 0.22398 0.0
H68 H 0.29594 0.7705 0.19915 0.0
H69 H 0.29542 0.79286 0.17372 0.0
H70 H 0.26753 0.75081 0.13723 0.0
H71 H 0.26822 0.72862 0.1626 0.0
H72 H 0.23808 0.66719 0.22497 0.0
H73 H 0.26241 0.69258 0.22425 0.0
H74 H 0.26455 0.64611 0.27444 0.0
H75 H 0.28885 0.67124 0.27339 0.0
H76 H 0.35491 0.73181 0.29515 0.0
H77 H 0.39241 0.76368 0.25911 0.0
H78 H 0.36784 0.76311 0.23479 0.0
H79 H 0.33034 0.73141 0.27073 0.0
C80 C 0.96614 0.44227 1.00923 0.0
C81 C 0.97504 0.42783 0.01818 0.0
C82 C 0.97772 0.41072 0.988 0.0
C83 C 0.98069 0.41215 1.00766 0.0
C84 C 0.96889 0.4253 0.97915 0.0
C85 C 0.96314 0.44088 0.98967 0.0
U86 U 0.97038 0.47791 0.05076 0.0
O87 O 0.96755 0.50836 0.05101 0.0
O88 O 0.94826 0.4909 0.06787 0.0
C89 C 0.95239 0.50766 0.06171 0.0
C90 C 0.95991 0.45889 0.01992 0.0
C91 C 0.93635 0.51824 0.05522 0.0
C92 C 0.90599 0.51997 0.03941 0.0
C93 C 0.9213 0.50961 0.04488 0.0
C94 C 0.92082 0.54774 0.05421 0.0
C95 C 0.9055 0.53917 0.04412 0.0
C96 C 0.93604 0.53738 0.05971 0.0
C97 C 1.00982 0.47361 0.08765 0.0
C98 C 1.01091 0.48461 0.12056 0.0
C99 C 0.03994 0.478 0.10402 0.0
C100 C 0.02958 0.47296 0.08771 0.0
C101 C 0.03075 0.48371 0.12075 0.0
C102 C 1.00055 0.47966 0.10417 0.0
C103 C 0.9993 0.46741 0.0704 0.0
O104 O 0.9524 0.45596 0.03662 0.0
O105 O 0.97164 0.47355 0.01984 0.0
O106 O 1.00109 0.47837 0.05595 0.0
O107 O 0.98191 0.46072 0.07275 0.0
H108 H 0.97762 0.42869 0.03327 0.0
H109 H 0.98764 0.40127 0.01488 0.0
H110 H 0.96617 0.42455 0.96408 0.0
H111 H 0.95629 0.45187 0.98252 0.0
H112 H 0.8944 0.51284 0.03182 0.0
H113 H 0.92128 0.49485 0.0412 0.0
H114 H 0.92116 0.56253 0.05777 0.0
H115 H 0.94758 0.54432 0.06757 0.0
H116 H 1.00331 0.48876 0.13318 0.0
H117 H 0.05519 0.47747 0.10348 0.0
H118 H 0.03702 0.46842 0.0751 0.0
H119 H 0.9853 0.48034 0.10449 0.0
C120 C 0.71555 0.77015 0.18694 0.0
C121 C 0.7269 0.77851 0.17307 0.0
C122 C 0.72567 0.7495 0.15409 0.0
C123 C 0.73187 0.76829 0.15675 0.0
C124 C 0.7145 0.74116 0.1682 0.0
C125 C 0.70947 0.75142 0.18444 0.0
U126 U 0.72087 0.8121 0.22161 0.0
O127 O 0.69916 0.82894 0.23521 0.0
O128 O 0.71817 0.81335 0.25263 0.0
C129 C 0.70315 0.82349 0.25222 0.0
C130 C 0.70975 0.78078 0.20397 0.0
C131 C 0.68687 0.81671 0.26337 0.0
C132 C 0.65856 0.79674 0.26672 0.0
C133 C 0.67438 0.80252 0.2562 0.0
C134 C 0.66778 0.81902 0.29182 0.0
C135 C 0.65501 0.805 0.28462 0.0
C136 C 0.68354 0.82482 0.28127 0.0
C137 C 0.7599 0.84972 0.21337 0.0
C138 C 0.7694 0.87447 0.23613 0.0
C139 C 0.78087 0.87538 0.20392 0.0
C140 C 0.77074 0.85867 0.19953 0.0
C141 C 0.78037 0.88349 0.22228 0.0
C142 C 0.75919 0.85775 0.23169 0.0
C143 C 0.74955 0.83204 0.20834 0.0
O144 O 0.72188 0.78156 0.21804 0.0
O145 O 0.70229 0.79688 0.20099 0.0
O146 O 0.73206 0.83354 0.20258 0.0
O147 O 0.75148 0.81839 0.22001 0.0
H148 H 0.73184 0.79295 0.17482 0.0
H149 H 0.74068 0.77506 0.14629 0.0
H150 H 0.7093 0.7268 0.16651 0.0
H151 H 0.70069 0.74474 0.19501 0.0
H152 H 0.64916 0.78575 0.26086 0.0
H153 H 0.67679 0.79602 0.24242 0.0
H154 H 0.66538 0.82584 0.30544 0.0
H155 H 0.69302 0.83582 0.287 0.0
H156 H 0.76854 0.88043 0.25034 0.0
H157 H 0.78935 0.8818 0.19298 0.0
H158 H 0.77147 0.85266 0.18532 0.0
H159 H 0.75079 0.85109 0.24255 0.0
C160 C 1.00917 0.96844 0.43913 0.0
C161 C 0.01394 0.98476 0.42953 0.0
C162 C 0.98802 0.97798 0.40732 0.0
C163 C 1.00342 0.98952 0.41378 0.0
C164 C 0.98328 0.96173 0.41714 0.0
C165 C 0.99376 0.95702 0.43288 0.0
U166 U 0.05123 0.97484 0.47314 0.0
O167 O 0.05238 0.97138 0.50386 0.0
O168 O 0.06903 0.95367 0.48494 0.0
C169 C 0.06331 0.95706 0.50233 0.0
C170 C 0.02018 0.96293 0.45549 0.0
C171 C 0.05722 0.94058 0.51292 0.0
C172 C 0.03373 0.91634 0.52063 0.0
C173 C 0.03921 0.93197 0.5103 0.0
C174 C 0.06425 0.91771 0.53614 0.0
C175 C 0.04618 0.90902 0.53372 0.0
C176 C 0.06968 0.93333 0.52585 0.0
C177 C 0.08786 0.01492 0.46733 0.0
C178 C 0.11591 0.01892 0.48707 0.0
C179 C 0.10961 0.04159 0.46355 0.0
C180 C 0.09308 0.03139 0.45828 0.0
C181 C 0.12127 0.03548 0.47799 0.0
C182 C 0.09934 1.00873 0.48178 0.0
C183 C 0.07044 1.00439 0.46153 0.0
O184 O 0.03691 0.95656 0.45156 0.0
O185 O 0.02027 0.9745 0.47028 0.0
O186 O 0.05626 1.0053 0.47347 0.0
O187 O 0.07275 0.98746 0.45453 0.0
H188 H 0.02586 0.99372 0.43415 0.0
H189 H 1.00756 1.00204 0.40645 0.0
H190 H 0.97135 0.95267 0.41277 0.0
H191 H 0.98984 0.9444 0.44016 0.0
H192 H 0.01965 0.91015 0.51853 0.0
H193 H 0.02939 0.93738 0.50034 0.0
H194 H 0.07434 0.91231 0.54581 0.0
H195 H 0.08368 0.93974 0.52798 0.0
H196 H 0.12464 0.01369 0.49809 0.0
H197 H 0.11311 0.0544 0.45646 0.0
H198 H 0.08433 0.03641 0.44715 0.0
H199 H 0.09552 0.996 0.48891 0.0
C200 C 0.21599 0.7663 0.84415 0.0
C201 C 0.23225 0.77823 0.84388 0.0
C202 C 0.22672 0.78856 0.87654 0.0
C203 C 0.23755 0.7892 0.85987 0.0
C204 C 0.2105 0.77656 0.87679 0.0
C205 C 0.20516 0.76564 0.86078 0.0
U206 U 0.21961 0.72515 0.80812 0.0
O207 O 0.19712 0.70732 0.79465 0.0
O208 O 0.21611 0.72444 0.77719 0.0
C209 C 0.20082 0.71345 0.7777 0.0
C210 C 0.20962 0.75528 0.82703 0.0
C211 C 0.18446 0.71968 0.76716 0.0
C212 C 0.15724 0.739 0.76468 0.0
C213 C 0.17295 0.7335 0.77476 0.0
C214 C 0.16455 0.71714 0.73918 0.0
C215 C 0.15281 0.73085 0.74677 0.0
C216 C 0.1802 0.71161 0.7493 0.0
C217 C 0.25902 0.69016 0.81516 0.0
C218 C 0.27589 0.67062 0.7926 0.0
C219 C 0.27572 0.66353 0.82578 0.0
C220 C 0.2645 0.67874 0.82967 0.0
C221 C 0.28184 0.65943 0.80725 0.0
C222 C 0.26459 0.68585 0.79651 0.0
C223 C 0.24841 0.70691 0.82016 0.0
O224 O 0.22091 0.75566 0.81227 0.0
O225 O 0.20197 0.7386 0.82983 0.0
O226 O 0.23103 0.70392 0.82622 0.0
O227 O 0.25018 0.72098 0.80878 0.0
H228 H 0.24082 0.77932 0.83126 0.0
H229 H 0.24994 0.79849 0.85901 0.0
H230 H 0.20193 0.7755 0.88942 0.0
H231 H 0.19246 0.75673 0.86139 0.0
H232 H 0.14865 0.74976 0.77084 0.0
H233 H 0.17609 0.73997 0.78851 0.0
H234 H 0.16144 0.71039 0.72556 0.0
H235 H 0.18892 0.70091 0.74323 0.0
H236 H 0.28043 0.66796 0.77818 0.0
H237 H 0.27968 0.65503 0.83736 0.0
H238 H 0.26031 0.68176 0.84414 0.0
H239 H 0.26052 0.69443 0.78503 0.0
C240 C 0.96881 0.58713 0.52002 0.0
C241 C 0.98035 0.60136 0.51237 0.0
C242 C 0.97973 0.61912 0.54237 0.0
C243 C 0.98571 0.61727 0.52345 0.0
C244 C 0.96823 0.60474 0.5499 0.0
C245 C 0.96283 0.58894 0.53883 0.0
U246 U 0.97405 0.55123 0.47885 0.0
O247 O 0.96923 0.52076 0.47892 0.0
O248 O 0.95201 0.53745 0.46076 0.0
C249 C 0.9546 0.52093 0.46754 0.0
C250 C 0.96268 0.57034 0.50876 0.0
C251 C 0.93745 0.51073 0.47401 0.0
C252 C 0.91003 0.50815 0.4946 0.0
C253 C 0.92619 0.51814 0.4885 0.0
C254 C 0.91628 0.48323 0.47184 0.0
C255 C 0.90485 0.49055 0.48635 0.0
C256 C 0.9324 0.49324 0.46575 0.0
C257 C 0.01634 0.55592 0.44446 0.0
C258 C 0.01997 0.54778 0.41099 0.0
C259 C 0.04742 0.55006 0.4314 0.0
C260 C 0.03591 0.5546 0.44679 0.0
C261 C 0.03967 0.54684 0.41323 0.0
C262 C 1.00842 0.55226 0.42644 0.0
C263 C 1.00485 0.56201 0.46084 0.0
O264 O 0.95669 0.57305 0.49153 0.0
O265 O 0.9736 0.55606 0.50973 0.0
O266 O 1.00501 0.55141 0.47561 0.0
O267 O 0.98806 0.56821 0.45723 0.0
H268 H 0.9852 0.60018 0.49788 0.0
H269 H 0.99473 0.62799 0.51727 0.0
H270 H 0.96313 0.60581 0.56431 0.0
H271 H 0.95389 0.57812 0.54496 0.0
H272 H 0.90147 0.51433 0.50564 0.0
H273 H 0.92991 0.53164 0.49507 0.0
H274 H 0.91294 0.46962 0.46536 0.0
H275 H 0.941 0.48726 0.45462 0.0
H276 H 0.0135 0.54555 0.39721 0.0
H277 H 0.06245 0.54911 0.43379 0.0
H278 H 0.04235 0.55733 0.46053 0.0
H279 H 0.99337 0.55315 0.4242 0.0
C280 C 0.78372 0.78461 0.84924 0.0
C281 C 0.7932 0.7681 0.84553 0.0
C282 C 0.78348 0.75645 0.87619 0.0
C283 C 0.79303 0.75411 0.85886 0.0
C284 C 0.77414 0.77311 0.87983 0.0
C285 C 0.77426 0.78703 0.86647 0.0
U286 U 0.80289 0.80798 0.80494 0.0
O287 O 0.78782 0.82085 0.78194 0.0
O288 O 0.80798 0.83781 0.79948 0.0
C289 C 0.79508 0.83763 0.78613 0.0
C290 C 0.78357 0.79944 0.83537 0.0
C291 C 0.78169 0.85283 0.78729 0.0
C292 C 0.75079 0.86471 0.79489 0.0
C293 C 0.7634 0.85016 0.79469 0.0
C294 C 0.77473 0.88482 0.78067 0.0
C295 C 0.7563 0.88222 0.78783 0.0
C296 C 0.78726 0.87027 0.78039 0.0
C297 C 0.84422 0.78613 0.77793 0.0
C298 C 0.86658 0.80137 0.75669 0.0
C299 C 0.86321 0.76766 0.75635 0.0
C300 C 0.84949 0.76877 0.77051 0.0
C301 C 0.87204 0.78393 0.74935 0.0
C302 C 0.85274 0.80246 0.7708 0.0
C303 C 0.83023 0.78674 0.79339 0.0
O304 O 0.79843 0.81104 0.83566 0.0
O305 O 0.77819 0.79416 0.81818 0.0
O306 O 0.81248 0.78356 0.78842 0.0
O307 O 0.83261 0.80041 0.8061 0.0
H308 H 0.8007 0.76604 0.83233 0.0
H309 H 0.80054 0.74156 0.85568 0.0
H310 H 0.76645 0.77528 0.89289 0.0
H311 H 0.76686 0.79968 0.86958 0.0
H312 H 0.73678 0.86229 0.8007 0.0
H313 H 0.75883 0.83682 0.8002 0.0
H314 H 0.77938 0.89801 0.77489 0.0
H315 H 0.80128 0.8726 0.77456 0.0
H316 H 0.87294 0.81416 0.75145 0.0
H317 H 0.86721 0.75402 0.75119 0.0
H318 H 0.84312 0.75601 0.77585 0.0
H319 H 0.84881 0.81604 0.77622 0.0
C320 C 0.28153 0.28744 0.35174 0.0
C321 C 0.2916 0.27104 0.35006 0.0
C322 C 0.27907 0.26095 0.38036 0.0
C323 C 0.29039 0.25789 0.36426 0.0
C324 C 0.2694 0.27765 0.38208 0.0
C325 C 0.27061 0.29072 0.36791 0.0
U326 U 0.30207 0.30927 0.3068 0.0
O327 O 0.2869 0.31925 0.28219 0.0
O328 O 0.30481 0.33877 0.29952 0.0
C329 C 0.29243 0.33672 0.28569 0.0
C330 C 0.2817 0.30107 0.33666 0.0
C331 C 0.27745 0.35037 0.28562 0.0
C332 C 0.255 0.36996 0.30199 0.0
C333 C 0.26874 0.3565 0.30241 0.0
C334 C 0.25821 0.37098 0.26799 0.0
C335 C 0.24965 0.3775 0.28477 0.0
C336 C 0.27197 0.3576 0.26844 0.0
C337 C 0.34645 0.29033 0.28312 0.0
C338 C 0.35698 0.29707 0.25126 0.0
C339 C 0.37803 0.28265 0.27283 0.0
C340 C 0.36406 0.283 0.2868 0.0
C341 C 0.37465 0.28959 0.25485 0.0
C342 C 0.34303 0.2975 0.2653 0.0
C343 C 0.33189 0.2902 0.29802 0.0
O344 O 0.29576 0.31362 0.33708 0.0
O345 O 0.27785 0.29426 0.31956 0.0
O346 O 0.31464 0.28508 0.29258 0.0
O347 O 0.33248 0.30469 0.30987 0.0
H348 H 0.30015 0.26828 0.33766 0.0
H349 H 0.29792 0.24515 0.3624 0.0
H350 H 0.26085 0.28065 0.39442 0.0
H351 H 0.26282 0.30335 0.36949 0.0
H352 H 0.24887 0.37474 0.31521 0.0
H353 H 0.27272 0.35104 0.31585 0.0
H354 H 0.25421 0.37615 0.25443 0.0
H355 H 0.27843 0.35295 0.25532 0.0
H356 H 0.354 0.30272 0.23764 0.0
H357 H 0.39136 0.2766 0.27601 0.0
H358 H 0.36696 0.2774 0.30046 0.0
H359 H 0.32957 0.30336 0.26222 0.0
C360 C 0.46658 0.94288 0.50869 0.0
C361 C 0.47944 0.93042 0.51564 0.0
C362 C 0.47721 0.91181 0.48617 0.0
C363 C 0.48467 0.91498 0.50449 0.0
C364 C 0.46436 0.92442 0.47934 0.0
C365 C 0.45912 0.93978 0.49049 0.0
U366 U 0.47206 0.97725 0.55122 0.0
O367 O 0.46884 1.00759 0.5527 0.0
O368 O 0.45011 0.98939 0.56933 0.0
C369 C 0.45385 1.00637 0.56362 0.0
C370 C 0.46072 0.95913 0.52013 0.0
C371 C 0.43743 0.01652 0.55743 0.0
C372 C 0.41445 0.02363 0.53348 0.0
C373 C 0.4299 0.01361 0.53919 0.0
C374 C 0.4138 0.03939 0.56425 0.0
C375 C 0.40623 0.0367 0.54593 0.0
C376 C 0.42925 0.02941 0.56991 0.0
C377 C 0.51246 0.97199 0.58671 0.0
C378 C 0.51517 0.9878 0.61759 0.0
C379 C 0.5415 0.97097 0.60483 0.0
C380 C 0.53097 0.96614 0.58858 0.0
C381 C 0.53372 0.98175 0.61963 0.0
C382 C 0.50465 0.98298 0.60126 0.0
C383 C 0.50161 0.96628 0.56959 0.0
O384 O 0.45387 0.95555 0.53695 0.0
O385 O 0.47244 0.97381 0.5202 0.0
O386 O 0.50288 0.97779 0.55558 0.0
O387 O 0.48432 0.95952 0.57233 0.0
H388 H 0.48541 0.93265 0.52966 0.0
H389 H 0.49473 0.90567 0.51012 0.0
H390 H 0.45813 0.92229 0.46543 0.0
H391 H 0.44914 0.94923 0.48492 0.0
H392 H 0.40916 0.02132 0.51922 0.0
H393 H 0.43604 1.00369 0.52935 0.0
H394 H 0.40767 0.04907 0.57433 0.0
H395 H 0.43482 0.03176 0.58407 0.0
H396 H 0.50865 0.99597 0.62875 0.0
H397 H 0.55583 0.96636 0.60571 0.0
H398 H 0.53728 0.95775 0.57744 0.0
H399 H 0.49037 0.98768 0.60006 0.0
C400 C 0.21509 0.26563 0.68546 0.0
C401 C 0.23305 0.26949 0.67777 0.0
C402 C 0.22729 0.24535 0.65311 0.0
C403 C 0.23911 0.25941 0.66178 0.0
C404 C 0.20926 0.24166 0.66088 0.0
C405 C 0.20325 0.25169 0.67691 0.0
U406 U 0.21898 0.30751 0.72006 0.0
O407 O 0.19668 0.32429 0.73285 0.0
O408 O 0.21553 0.3092 0.75093 0.0
C409 C 0.20044 0.3192 0.75005 0.0
C410 C 0.20846 0.27613 0.70223 0.0
C411 C 0.18405 0.31259 0.76114 0.0
C412 C 0.16114 0.2882 0.76989 0.0
C413 C 0.17665 0.29421 0.75903 0.0
C414 C 0.16019 0.31896 0.78491 0.0
C415 C 0.15275 0.3005 0.78303 0.0
C416 C 0.17569 0.32491 0.77409 0.0
C417 C 0.25835 0.34503 0.71246 0.0
C418 C 0.26751 0.36998 0.73512 0.0
C419 C 0.2795 0.37057 0.70308 0.0
C420 C 0.26944 0.35382 0.69871 0.0
C421 C 0.27869 0.37887 0.72134 0.0
C422 C 0.25736 0.35323 0.73069 0.0
C423 C 0.24804 0.32734 0.7074 0.0
O424 O 0.21995 0.27701 0.71683 0.0
O425 O 0.20109 0.29217 0.69885 0.0
O426 O 0.23071 0.32884 0.70119 0.0
O427 O 0.24963 0.3138 0.71926 0.0
H428 H 0.24238 0.28025 0.68418 0.0
H429 H 0.25316 0.2625 0.65636 0.0
H430 H 0.19964 0.23118 0.65444 0.0
H431 H 0.18929 0.24862 0.68258 0.0
H432 H 0.15594 0.27385 0.76819 0.0
H433 H 0.18292 0.28449 0.74906 0.0
H434 H 0.15392 0.32891 0.7946 0.0
H435 H 0.18115 0.33919 0.77582 0.0
H436 H 0.26643 0.3761 0.74925 0.0
H437 H 0.28815 0.37688 0.69221 0.0
H438 H 0.2704 0.34768 0.68457 0.0
H439 H 0.24877 0.34668 0.74148 0.0
C440 C 0.77989 0.24738 0.68071 0.0
C441 C 0.79572 0.25953 0.67847 0.0
C442 C 0.77972 0.27502 0.65323 0.0
C443 C 0.79566 0.2732 0.66481 0.0
C444 C 0.76387 0.26285 0.65568 0.0
C445 C 0.76398 0.24917 0.66928 0.0
U446 U 0.80061 0.2249 0.72391 0.0
O447 O 0.78618 0.21222 0.74817 0.0
O448 O 0.80405 0.19532 0.72964 0.0
C449 C 0.79215 0.19551 0.7439 0.0
C450 C 0.77972 0.23274 0.6948 0.0
C451 C 0.77765 0.1802 0.74391 0.0
C452 C 0.75206 0.16162 0.72877 0.0
C453 C 0.76554 0.17648 0.72844 0.0
C454 C 0.76257 0.15424 0.76008 0.0
C455 C 0.75041 0.15031 0.74461 0.0
C456 C 0.77604 0.16902 0.75971 0.0
C457 C 0.84506 0.24788 0.74771 0.0
C458 C 0.8681 0.23352 0.76749 0.0
C459 C 0.86656 0.26714 0.76759 0.0
C460 C 0.85174 0.26547 0.75454 0.0
C461 C 0.87513 0.2512 0.77406 0.0
C462 C 0.85318 0.23187 0.75445 0.0
C463 C 0.83005 0.24675 0.73322 0.0
O464 O 0.79373 0.22131 0.69368 0.0
O465 O 0.77594 0.23826 0.71224 0.0
O466 O 0.81286 0.24973 0.7393 0.0
O467 O 0.8307 0.23292 0.72062 0.0
H468 H 0.80811 0.25841 0.68726 0.0
H469 H 0.80801 0.28246 0.66346 0.0
H470 H 0.75146 0.26367 0.64687 0.0
H471 H 0.75164 0.23989 0.67079 0.0
H472 H 0.7428 0.15912 0.71671 0.0
H473 H 0.76653 0.18504 0.71614 0.0
H474 H 0.76192 0.14568 0.77239 0.0
H475 H 0.78531 0.17166 0.77176 0.0
H476 H 0.87443 0.22095 0.77203 0.0
H477 H 0.8713 0.28096 0.77261 0.0
H478 H 0.84559 0.278 0.74962 0.0
H479 H 0.8482 0.21812 0.74944 0.0
C480 C 0.51464 0.56847 0.59528 0.0
C481 C 0.51241 0.55009 0.60137 0.0
C482 C 0.49439 0.56078 0.62876 0.0
C483 C 0.5023 0.54627 0.61792 0.0
C484 C 0.49686 0.57916 0.62266 0.0
C485 C 0.50685 0.58294 0.60609 0.0
U486 U 0.55327 0.56015 0.55809 0.0
O487 O 0.55189 0.5618 0.52712 0.0
O488 O 0.57146 0.58059 0.54339 0.0
C489 C 0.5639 0.57624 0.52679 0.0
C490 C 0.52477 0.57293 0.57768 0.0
C491 C 0.55786 0.59206 0.51591 0.0
C492 C 0.53854 0.61893 0.51231 0.0
C493 C 0.5439 0.60381 0.5228 0.0
C494 C 0.56095 0.61059 0.48791 0.0
C495 C 0.54706 0.62256 0.49475 0.0
C496 C 0.56629 0.59552 0.4984 0.0
C497 C 0.58723 0.52035 0.56409 0.0
C498 C 0.61318 0.51386 0.54265 0.0
C499 C 0.60755 0.49469 0.56974 0.0
C500 C 0.5922 0.50535 0.57493 0.0
C501 C 0.61831 0.49882 0.55357 0.0
C502 C 0.59778 0.52455 0.54788 0.0
C503 C 0.57116 0.53147 0.5701 0.0
O504 O 0.54224 0.57959 0.57975 0.0
O505 O 0.52272 0.56065 0.56355 0.0
O506 O 0.55607 0.5298 0.55928 0.0
O507 O 0.5754 0.5488 0.5756 0.0
H508 H 0.51843 0.5387 0.59331 0.0
H509 H 0.50085 0.53199 0.62233 0.0
H510 H 0.49077 0.59064 0.63053 0.0
H511 H 0.50838 0.59721 0.60162 0.0
H512 H 0.52795 0.62794 0.51812 0.0
H513 H 0.53724 0.60134 0.53632 0.0
H514 H 0.5676 0.61274 0.47434 0.0
H515 H 0.57704 0.58654 0.49283 0.0
H516 H 0.62124 0.51757 0.53022 0.0
H517 H 0.61086 0.48305 0.57831 0.0
H518 H 0.58417 0.50188 0.58746 0.0
H519 H 0.59415 0.53613 0.53936 0.0
C520 C 0.512 0.46833 0.93679 0.0
C521 C 0.51232 0.48679 0.9308 0.0
C522 C 0.4919 0.4774 0.9041 0.0
C523 C 0.50228 0.4913 0.91464 0.0
C524 C 0.49175 0.45893 0.91015 0.0
C525 C 0.50168 0.45447 0.92634 0.0
U526 U 0.55232 0.47582 0.97274 0.0
O527 O 0.55212 0.47294 1.00359 0.0
O528 O 0.5699 0.45523 0.9858 0.0
C529 C 0.56342 0.45887 1.00287 0.0
C530 C 0.52231 0.46318 0.95379 0.0
C531 C 0.55728 0.44255 0.01369 0.0
C532 C 0.53598 0.41572 0.01872 0.0
C533 C 0.54147 0.43123 1.0082 0.0
C534 C 0.56203 0.42279 0.0403 0.0
C535 C 0.54623 0.41128 0.0349 0.0
C536 C 0.56747 0.43825 0.02978 0.0
C537 C 0.58851 0.51654 0.96741 0.0
C538 C 0.61721 0.52064 0.98619 0.0
C539 C 0.6088 0.54445 0.96466 0.0
C540 C 0.59253 0.53383 0.95939 0.0
C541 C 0.62142 0.53797 0.97806 0.0
C542 C 0.60089 0.51003 0.98092 0.0
C543 C 0.5715 0.50547 0.96132 0.0
O544 O 0.53928 0.45696 0.95081 0.0
O545 O 0.52153 0.47481 0.96849 0.0
O546 O 0.55687 0.50635 0.9727 0.0
O547 O 0.57439 0.48847 0.95482 0.0
H548 H 0.52033 0.4977 0.93859 0.0
H549 H 0.50286 0.50561 0.91026 0.0
H550 H 0.48373 0.44793 0.90252 0.0
H551 H 0.50125 0.44016 0.93073 0.0
H552 H 0.52387 0.40708 0.01403 0.0
H553 H 0.53344 0.43435 0.99576 0.0
H554 H 0.57008 0.42001 0.05281 0.0
H555 H 0.57968 0.44688 0.03426 0.0
H556 H 0.62669 0.51512 0.9964 0.0
H557 H 0.61137 0.55784 0.95834 0.0
H558 H 0.58308 0.53911 0.949 0.0
H559 H 0.598 0.49669 0.98727 0.0
C560 C 0.71003 0.26505 0.34361 0.0
C561 C 0.72531 0.2598 0.35454 0.0
C562 C 0.72122 0.28651 0.37617 0.0
C563 C 0.73087 0.27044 0.37068 0.0
C564 C 0.70594 0.29168 0.36507 0.0
C565 C 0.70041 0.28103 0.34896 0.0
U566 U 0.71525 0.22419 0.30815 0.0
O567 O 0.69333 0.20527 0.29505 0.0
O568 O 0.71155 0.22291 0.2773 0.0
C569 C 0.69672 0.2113 0.27801 0.0
C570 C 0.70387 0.25398 0.32669 0.0
C571 C 0.68002 0.21642 0.26724 0.0
C572 C 0.65818 0.23932 0.25699 0.0
C573 C 0.67393 0.23478 0.2676 0.0
C574 C 0.65427 0.20715 0.24581 0.0
C575 C 0.64815 0.22554 0.24596 0.0
C576 C 0.67006 0.20266 0.25632 0.0
C577 C 0.75586 0.19098 0.31425 0.0
C578 C 0.75806 0.16048 0.29858 0.0
C579 C 0.78508 0.17448 0.3155 0.0
C580 C 0.77465 0.19007 0.32023 0.0
C581 C 0.77689 0.15943 0.30471 0.0
C582 C 0.74765 0.17615 0.30326 0.0
C583 C 0.74508 0.20736 0.31994 0.0
O584 O 0.71539 0.25472 0.31215 0.0
O585 O 0.69715 0.23702 0.32977 0.0
O586 O 0.7279 0.20384 0.32632 0.0
O587 O 0.74612 0.22134 0.30844 0.0
H588 H 0.73287 0.24744 0.35062 0.0
H589 H 0.74255 0.26592 0.379 0.0
H590 H 0.69837 0.3041 0.36868 0.0
H591 H 0.68861 0.28531 0.34064 0.0
H592 H 0.65371 0.25357 0.25761 0.0
H593 H 0.68136 0.2456 0.27606 0.0
H594 H 0.64704 0.19624 0.2373 0.0
H595 H 0.67456 0.18841 0.25585 0.0
H596 H 0.7514 0.14925 0.29006 0.0
H597 H 0.79944 0.17405 0.32065 0.0
H598 H 0.78121 0.20137 0.32875 0.0
H599 H 0.73318 0.17665 0.2984 0.0
C600 C 0.46756 0.09069 0.01782 0.0
C601 C 0.48305 0.10168 0.01162 0.0
C602 C 0.47865 0.1241 0.03778 0.0
C603 C 0.48854 0.11825 0.02151 0.0
C604 C 0.4631 0.11298 0.04384 0.0
C605 C 0.45763 0.09645 0.03395 0.0
U606 U 0.47425 0.05322 0.97894 0.0
O607 O 0.47123 0.02265 0.98035 0.0
O608 O 0.45317 0.03749 0.96126 0.0
C609 C 0.45671 0.02151 0.96877 0.0
C610 C 0.46176 0.07307 1.00784 0.0
C611 C 0.44017 0.01031 0.97523 0.0
C612 C 0.40962 1.00754 0.99091 0.0
C613 C 0.4252 0.01854 0.98499 0.0
C614 C 0.42392 0.98 0.97761 0.0
C615 C 0.40882 0.98812 0.98733 0.0
C616 C 0.43941 0.99099 0.97162 0.0
C617 C 0.51633 0.05886 0.9448 0.0
C618 C 0.52209 0.03821 0.91764 0.0
C619 C 0.54536 0.06253 0.92678 0.0
C620 C 0.53378 0.06814 0.94173 0.0
C621 C 0.53971 0.04746 0.91455 0.0
C622 C 0.51051 0.04383 0.93269 0.0
C623 C 0.50457 0.0651 0.96077 0.0
O624 O 0.45559 0.07456 0.99048 0.0
O625 O 0.47332 0.05938 1.00956 0.0
O626 O 0.5052 0.05511 0.97594 0.0
O627 O 0.48739 0.06985 0.95654 0.0
H628 H 0.49088 0.09742 0.99916 0.0
H629 H 0.50044 0.12655 0.0163 0.0
H630 H 0.45533 0.11687 0.05645 0.0
H631 H 0.44569 0.08808 0.03898 0.0
H632 H 0.39834 0.01421 0.99854 0.0
H633 H 0.42558 0.03343 0.98806 0.0
H634 H 0.42367 0.96514 0.97441 0.0
H635 H 0.45081 0.98439 0.9641 0.0
H636 H 0.51738 0.02646 0.90861 0.0
H637 H 0.55866 0.07017 0.92467 0.0
H638 H 0.53847 0.0798 0.95091 0.0
H639 H 0.49707 0.03645 0.9349 0.0
C640 C 0.23122 0.92197 0.02223 0.0
O641 O 0.2419 0.92598 1.00761 0.0
O642 O 0.2505 0.87633 1.00186 0.0
Zn643 Zn 0.25745 0.8923 0.02534 0.0
O644 O 0.28031 0.90951 0.01998 0.0
C645 C 0.26879 0.85937 0.04492 0.0
O646 O 0.27235 0.85327 0.02764 0.0
O647 O 0.23516 0.90814 0.03206 0.0
C648 C 0.29716 0.90567 0.02412 0.0
O649 O 0.30017 0.88994 0.03235 0.0
C650 C 0.26264 0.87141 0.98962 0.0
O651 O 0.28044 0.87684 0.99206 0.0
O652 O 0.26255 0.87564 0.04744 0.0
C653 C 0.15353 0.47697 0.28108 0.0
O654 O 0.13953 0.47769 0.29323 0.0
O655 O 0.1211 0.51466 0.28825 0.0
Zn656 Zn 0.13828 0.51111 0.26547 0.0
O657 O 0.15574 0.53396 0.26241 0.0
C658 C 0.10662 0.51321 0.23918 0.0
O659 O 0.09985 0.5243 0.25244 0.0
O660 O 0.15524 0.48931 0.26865 0.0
C661 C 0.15057 0.55015 0.25856 0.0
O662 O 0.13251 0.55292 0.25631 0.0
C663 C 0.12674 0.5242 0.3028 0.0
O664 O 0.14404 0.53157 0.30306 0.0
O665 O 0.12258 0.50615 0.2417 0.0
C666 C 0.79504 0.61428 1.00715 0.0
O667 O 0.78479 0.60963 0.99214 0.0
O668 O 0.77416 0.6621 0.99145 0.0
Zn669 Zn 0.76803 0.64383 0.01211 0.0
O670 O 0.74547 0.62698 1.00435 0.0
C671 C 0.75453 0.67442 0.03564 0.0
O672 O 0.75103 0.68141 0.01916 0.0
O673 O 0.79061 0.62829 0.01745 0.0
C674 C 0.73719 0.61659 0.01627 0.0
O675 O 0.74356 0.61685 0.0337 0.0
C676 C 0.7719 0.65802 0.97395 0.0
O677 O 0.76592 0.64105 0.96876 0.0
O678 O 0.76165 0.65847 0.03616 0.0
C679 C 0.85428 0.04662 0.27998 0.0
O680 O 0.84683 0.02998 0.28325 0.0
O681 O 0.90369 0.02119 0.29105 0.0
Zn682 Zn 0.88719 0.02573 0.26832 0.0
O683 O 0.87029 1.00269 0.26266 0.0
C684 C 0.91142 0.01885 0.23549 0.0
O685 O 0.9084 1.00127 0.23959 0.0
O686 O 0.87115 0.0481 0.27383 0.0
C687 C 0.8598 1.00116 0.24807 0.0
O688 O 0.85992 0.0149 0.23628 0.0
C689 C 0.9097 1.005 0.29353 0.0
O690 O 0.90506 0.99149 0.28122 0.0
O691 O 0.90387 0.03142 0.24571 0.0
C692 C 0.29454 0.11004 0.50894 0.0
O693 O 0.28171 0.10228 0.49745 0.0
O694 O 0.27425 0.15857 0.48873 0.0
Zn695 Zn 0.26889 0.14087 0.51004 0.0
O696 O 0.24692 0.12321 0.50233 0.0
C697 C 0.26805 0.17215 0.53731 0.0
O698 O 0.28024 0.17982 0.52559 0.0
O699 O 0.29215 0.12638 0.51579 0.0
C700 C 0.23742 0.11421 0.51454 0.0
O701 O 0.24223 0.11622 0.53244 0.0
C702 C 0.26071 0.16796 0.4829 0.0
O703 O 0.24404 0.16572 0.49086 0.0
O704 O 0.26143 0.15569 0.5336 0.0
C705 C 0.37052 0.55454 0.7862 0.0
O706 O 0.38383 0.55192 0.79862 0.0
O707 O 0.40231 0.51796 0.79051 0.0
Zn708 Zn 0.38554 0.52128 0.76772 0.0
O709 O 0.36891 0.49787 0.76352 0.0
C710 C 0.41518 0.53759 0.74451 0.0
O711 O 0.41823 0.54809 0.75985 0.0
O712 O 0.36872 0.54336 0.77192 0.0
C713 C 0.35831 0.49601 0.74903 0.0
O714 O 0.35836 0.5095 0.73694 0.0
C715 C 0.41395 0.50494 0.79028 0.0
O716 O 0.41492 0.49397 0.7751 0.0
O717 O 0.40186 0.52514 0.74451 0.0
C718 C 0.72537 0.41683 0.51687 0.0
O719 O 0.72911 0.41287 0.49904 0.0
O720 O 0.74725 0.3747 0.50078 0.0
Zn721 Zn 0.7555 0.39139 0.52324 0.0
O722 O 0.77957 0.40597 0.51636 0.0
C723 C 0.77422 0.36647 0.54878 0.0
O724 O 0.7884 0.3681 0.5369 0.0
O725 O 0.73488 0.4094 0.52964 0.0
C726 C 0.78921 0.41622 0.52811 0.0
O727 O 0.78364 0.41742 0.5458 0.0
C728 C 0.75939 0.36673 0.4904 0.0
O729 O 0.77742 0.36941 0.49445 0.0
O730 O 0.7593 0.37523 0.54584 0.0
C731 C 0.67073 0.99002 0.778 0.0
O732 O 0.6771 1.00705 0.78243 0.0
O733 O 0.61924 0.01272 0.78884 0.0
Zn734 Zn 0.63724 1.00929 0.76676 0.0
O735 O 0.65331 0.03317 0.76403 0.0
C736 C 0.61051 0.01517 0.73664 0.0
O737 O 0.60879 0.03123 0.7458 0.0
O738 O 0.65412 0.98757 0.77124 0.0
C739 C 0.66222 0.03679 0.7489 0.0
O740 O 0.66083 0.02484 0.73446 0.0
C741 C 0.6255 0.017 0.80532 0.0
O742 O 0.64386 0.01893 0.8079 0.0
O743 O 0.62192 1.00362 0.7429 0.0
C744 C 0.01212 0.23707 0.92336 0.0
O745 O 1.00247 0.25031 0.93158 0.0
O746 O 0.99026 0.25737 0.87437 0.0
Zn747 Zn 0.01301 0.26218 0.89164 0.0
O748 O 1.00789 0.28419 0.90957 0.0
C749 C 0.03931 0.26034 0.85993 0.0
O750 O 0.02711 0.24737 0.85349 0.0
O751 O 0.01784 0.23906 0.90647 0.0
C752 C 0.01343 0.30071 0.90564 0.0
O753 O 0.02282 0.3034 0.8899 0.0
C754 C 0.98689 0.26905 0.86181 0.0
O755 O 0.9983 0.28383 0.86036 0.0
O756 O 0.03629 0.2684 0.87587 0.0
C757 C 0.50905 0.73096 0.41846 0.0
O758 O 0.49169 0.73671 0.41893 0.0
O759 O 0.49359 0.75619 0.37521 0.0
Zn760 Zn 0.51573 0.76199 0.39304 0.0
O761 O 0.50995 0.78388 0.41067 0.0
C762 C 0.53847 0.77193 0.36011 0.0
O763 O 0.522 0.771 0.35154 0.0
O764 O 0.52133 0.73949 0.40842 0.0
C765 C 0.50842 0.80001 0.40407 0.0
O766 O 0.51057 0.80208 0.38582 0.0
C767 C 0.47659 0.75977 0.37931 0.0
O768 O 0.47281 0.767 0.39611 0.0
O769 O 0.5392 0.76875 0.37767 0.0
C770 C 0.01284 0.79543 0.60864 0.0
O771 O 1.00117 0.78235 0.60148 0.0
O772 O 0.99238 0.77426 0.65717 0.0
Zn773 Zn 0.01484 0.77 0.63981 0.0
O774 O 1.00944 0.74765 0.62195 0.0
C775 C 0.03746 0.76226 0.67305 0.0
O776 O 0.02107 0.76257 0.68174 0.0
O777 O 0.02025 0.79318 0.62473 0.0
C778 C 1.01004 0.7312 0.62798 0.0
O779 O 0.01404 0.72899 0.64586 0.0
C780 C 0.97588 0.76722 0.65381 0.0
O781 O 0.97296 0.75688 0.63835 0.0
O782 O 0.03817 0.76511 0.65541 0.0
C783 C 0.50688 0.30285 0.11488 0.0
O784 O 0.48901 0.29754 0.11663 0.0
O785 O 0.4915 0.27829 0.15832 0.0
Zn786 Zn 0.5128 0.27224 0.14014 0.0
O787 O 0.50507 0.24953 0.12365 0.0
C788 C 0.53527 0.25298 0.16661 0.0
O789 O 0.51966 0.24249 0.16747 0.0
O790 O 0.51934 0.2942 0.12362 0.0
C791 C 0.51724 0.23982 0.11507 0.0
O792 O 0.53526 0.24471 0.11689 0.0
C793 C 0.47427 0.27375 0.15474 0.0
O794 O 0.46993 0.26527 0.1385 0.0
O795 O 0.53585 0.26667 0.15566 0.0
H796 H 0.26241 0.79754 0.89025 0.0
H797 H 0.22687 0.85911 0.97883 0.0
H798 H 0.20358 0.80697 0.90152 0.0
H799 H 0.28546 0.85587 0.96266 0.0
H800 H 0.21802 0.83881 0.95153 0.0
H801 H 0.27107 0.81772 0.91758 0.0
C802 C 0.25129 0.80391 0.89839 0.0
C803 C 0.2322 0.80053 0.89346 0.0
C804 C 0.23281 0.84256 0.95395 0.0
C805 C 0.24208 0.82354 0.92506 0.0
C806 C 0.23788 0.85414 0.96955 0.0
C807 C 0.25695 0.85924 0.97306 0.0
C808 C 0.2469 0.83592 0.94179 0.0
C809 C 0.27059 0.85236 0.96052 0.0
C810 C 0.25626 0.81538 0.91408 0.0
C811 C 0.21845 0.80893 0.90486 0.0
N812 N 0.2653 0.84105 0.9455 0.0
N813 N 0.22366 0.82002 0.92008 0.0
H814 H 0.03311 0.52264 0.38259 0.0
H815 H 0.13392 0.54534 0.33505 0.0
H816 H 0.07488 0.56247 0.40593 0.0
H817 H 0.09041 0.51008 0.3079 0.0
H818 H 0.11277 0.55061 0.36173 0.0
H819 H 0.05401 0.51695 0.35562 0.0
C820 C 0.04661 0.53025 0.38205 0.0
C821 C 0.0522 0.54302 0.39668 0.0
C822 C 0.10781 0.54172 0.34995 0.0
C823 C 0.07633 0.53639 0.36587 0.0
C824 C 0.11992 0.53867 0.33469 0.0
C825 C 0.11396 0.52725 0.31916 0.0
C826 C 0.08955 0.53326 0.34981 0.0
C827 C 0.09561 0.51901 0.31955 0.0
C828 C 0.05859 0.52692 0.36667 0.0
C829 C 0.07003 0.55225 0.39524 0.0
N830 N 0.08407 0.52216 0.33462 0.0
N831 N 0.0814 0.54875 0.38017 0.0
H832 H 0.77892 0.71855 0.86994 0.0
H833 H 0.78169 0.69515 0.97987 0.0
H834 H 0.78701 0.76032 0.91478 0.0
H835 H 0.76926 0.6539 0.93537 0.0
H836 H 0.78557 0.71892 0.9561 0.0
H837 H 0.77734 0.69443 0.89353 0.0
C838 C 0.78052 0.72265 0.88473 0.0
C839 C 0.78305 0.74154 0.89035 0.0
C840 C 0.78204 0.70466 0.95152 0.0
C841 C 0.78108 0.71394 0.91751 0.0
C842 C 0.77986 0.69105 0.9651 0.0
C843 C 0.77509 0.67247 0.95964 0.0
C844 C 0.77948 0.6997 0.93229 0.0
C845 C 0.77289 0.66804 0.94027 0.0
C846 C 0.7795 0.70887 0.89821 0.0
C847 C 0.78477 0.74599 0.90977 0.0
N848 N 0.77507 0.68154 0.92732 0.0
N849 N 0.78375 0.73232 0.92262 0.0
H850 H 0.97642 0.01231 0.39693 0.0
H851 H 0.92383 0.97176 0.3031 0.0
H852 H 0.97455 0.95429 0.37881 0.0
H853 H 0.92281 0.02956 0.32173 0.0
H854 H 0.94322 0.96551 0.3304 0.0
H855 H 0.95782 0.01932 0.36908 0.0
C856 C 0.97221 1.00106 0.38706 0.0
C857 C 0.97702 0.98265 0.3903 0.0
C858 C 0.93879 0.97957 0.32856 0.0
C859 C 0.95559 0.99057 0.35844 0.0
C860 C 0.92769 0.98317 0.31293 0.0
C861 C 0.92163 1.00123 0.31009 0.0
C862 C 0.94395 0.99412 0.34154 0.0
C863 C 0.92713 0.01542 0.32335 0.0
C864 C 0.96149 1.00506 0.37121 0.0
C865 C 0.97095 0.96863 0.3771 0.0
N866 N 0.93797 0.01157 0.33849 0.0
N867 N 0.96059 0.97288 0.36181 0.0
H868 H 0.24819 0.25816 0.62307 0.0
H869 H 0.2447 0.15994 0.56571 0.0
H870 H 0.22093 0.20806 0.644 0.0
H871 H 0.27764 0.20828 0.54823 0.0
H872 H 0.23492 0.1776 0.59393 0.0
H873 H 0.25837 0.24035 0.59517 0.0
C874 C 0.24444 0.24339 0.6219 0.0
C875 C 0.23366 0.23465 0.63601 0.0
C876 C 0.24431 0.18434 0.58394 0.0
C877 C 0.24509 0.21416 0.60382 0.0
C878 C 0.24988 0.17426 0.56779 0.0
C879 C 0.26203 0.18262 0.55455 0.0
C880 C 0.25083 0.20296 0.58687 0.0
C881 C 0.26829 0.20124 0.55804 0.0
C882 C 0.25018 0.23324 0.60588 0.0
C883 C 0.22897 0.21551 0.63343 0.0
N884 N 0.2626 0.21077 0.57382 0.0
N885 N 0.23469 0.20594 0.61768 0.0
H886 H 0.49554 0.58043 0.66267 0.0
H887 H 0.41355 0.51777 0.71062 0.0
H888 H 0.46825 0.53219 0.63479 0.0
H889 H 0.44396 0.56365 0.73949 0.0
H890 H 0.43323 0.52281 0.68268 0.0
H891 H 0.4766 0.57452 0.69085 0.0
C892 C 0.48552 0.56861 0.66245 0.0
C893 C 0.48345 0.55684 0.64627 0.0
C894 C 0.43562 0.53175 0.69514 0.0
C895 C 0.4617 0.5499 0.67863 0.0
C896 C 0.42437 0.52889 0.71111 0.0
C897 C 0.42706 0.54032 0.72746 0.0
C898 C 0.44967 0.54618 0.69546 0.0
C899 C 0.44133 0.5545 0.72723 0.0
C900 C 0.47476 0.56518 0.6786 0.0
C901 C 0.47045 0.54155 0.64697 0.0
N902 N 0.45204 0.55704 0.7115 0.0
N903 N 0.46002 0.53857 0.66283 0.0
H904 H 0.80846 0.28569 0.62924 0.0
H905 H 0.74702 0.35883 0.5754 0.0
H906 H 0.75075 0.29715 0.64356 0.0
H907 H 0.8038 0.34552 0.55919 0.0
H908 H 0.74869 0.33739 0.60135 0.0
H909 H 0.80763 0.30869 0.60459 0.0
C910 C 0.79565 0.29314 0.62732 0.0
C911 C 0.77963 0.28939 0.6385 0.0
C912 C 0.76081 0.33917 0.59215 0.0
C913 C 0.77852 0.31569 0.6101 0.0
C914 C 0.75988 0.35145 0.57731 0.0
C915 C 0.77528 0.35398 0.56501 0.0
C916 C 0.77727 0.3293 0.59479 0.0
C917 C 0.79155 0.34401 0.56826 0.0
C918 C 0.79515 0.3062 0.61314 0.0
C919 C 0.76336 0.29934 0.63513 0.0
N920 N 0.79211 0.33211 0.58279 0.0
N921 N 0.76322 0.31198 0.62126 0.0
H922 H 0.55763 0.9596 0.63847 0.0
H923 H 0.5851 0.0368 0.71931 0.0
H924 H 0.53536 0.01467 0.64085 0.0
H925 H 0.60985 0.98293 0.71464 0.0
H926 H 0.56627 0.02877 0.69105 0.0
H927 H 0.57636 0.96774 0.66668 0.0
C928 C 0.55673 0.97346 0.64483 0.0
C929 C 0.54491 0.98649 0.63712 0.0
C930 C 0.57583 0.0187 0.69619 0.0
C931 C 0.56624 0.99584 0.66975 0.0
C932 C 0.58661 0.02328 0.71235 0.0
C933 C 0.59912 0.01052 0.7194 0.0
C934 C 0.57751 1.00122 0.68698 0.0
C935 C 0.60042 0.99322 0.70974 0.0
C936 C 0.56738 0.97806 0.66104 0.0
C937 C 0.54409 1.00409 0.64633 0.0
N938 N 0.58975 0.98908 0.69407 0.0
N939 N 0.55462 1.00824 0.66211 0.0
H940 H 0.88352 0.22951 0.80414 0.0
H941 H 0.97686 0.29091 0.83294 0.0
H942 H 0.90454 0.27732 0.77395 0.0
H943 H 0.95945 0.24066 0.86111 0.0
H944 H 0.94988 0.28629 0.81174 0.0
H945 H 0.91075 0.23332 0.82545 0.0
C946 C 0.89387 0.24075 0.80191 0.0
C947 C 0.89161 0.25316 0.78722 0.0
C948 C 0.95193 0.27623 0.82253 0.0
C949 C 0.92275 0.2577 0.81173 0.0
C950 C 0.96737 0.27887 0.83469 0.0
C951 C 0.97047 0.26616 0.84887 0.0
C952 C 0.93936 0.26075 0.8245 0.0
C953 C 0.95763 0.25082 0.85038 0.0
C954 C 0.90937 0.24297 0.81416 0.0
C955 C 0.90542 0.2676 0.78523 0.0
N956 N 0.94263 0.24856 0.83837 0.0
N957 N 0.92032 0.26946 0.79732 0.0
H958 H 0.48489 0.91053 0.44819 0.0
H959 H 0.50253 0.8009 0.44249 0.0
H960 H 0.48208 0.87578 0.49673 0.0
H961 H 0.50483 0.83625 0.39437 0.0
H962 H 0.49557 0.82806 0.46276 0.0
H963 H 0.49272 0.88344 0.42846 0.0
C964 C 0.48584 0.89718 0.45471 0.0
C965 C 0.4827 0.89546 0.47417 0.0
C966 C 0.49762 0.82987 0.44777 0.0
C967 C 0.49186 0.86426 0.45159 0.0
C968 C 0.50159 0.81436 0.43617 0.0
C969 C 0.50426 0.81626 0.41666 0.0
C970 C 0.49629 0.84743 0.43982 0.0
C971 C 0.50286 0.83407 0.4093 0.0
C972 C 0.49042 0.8817 0.44343 0.0
C973 C 0.48453 0.87783 0.48184 0.0
N974 N 0.49898 0.84891 0.42086 0.0
N975 N 0.48892 0.86292 0.47053 0.0
H976 H 0.14541 0.30955 0.82028 0.0
H977 H 0.04874 0.24767 0.82435 0.0
H978 H 0.12253 0.27698 0.77263 0.0
H979 H 0.06836 0.28536 0.86961 0.0
H980 H 0.07644 0.257 0.80575 0.0
H981 H 0.11804 0.29973 0.839 0.0
C982 C 0.1346 0.30041 0.81368 0.0
C983 C 0.13632 0.29419 0.79475 0.0
C984 C 0.0747 0.26323 0.81975 0.0
C985 C 0.10493 0.28263 0.81632 0.0
C986 C 0.05888 0.25788 0.83041 0.0
C987 C 0.05618 0.26574 0.8486 0.0
C988 C 0.08801 0.27649 0.82732 0.0
C989 C 0.06982 0.27894 0.85566 0.0
C990 C 0.119 0.29472 0.82445 0.0
C991 C 0.12198 0.282 0.78719 0.0
N992 N 0.08513 0.28388 0.84503 0.0
N993 N 0.10692 0.27666 0.79797 0.0
H994 H 0.57004 0.64613 0.47422 0.0
H995 H 0.48616 0.70889 0.44054 0.0
H996 H 0.51163 0.63611 0.48981 0.0
H997 H 0.54403 0.71636 0.42213 0.0
H998 H 0.49525 0.68265 0.45918 0.0
H999 H 0.56081 0.67223 0.45558 0.0
C1000 C 0.55524 0.64932 0.47366 0.0
C1001 C 0.5416 0.63877 0.4836 0.0
C1002 C 0.50596 0.69002 0.45106 0.0
C1003 C 0.53093 0.66895 0.46236 0.0
C1004 C 0.50078 0.70503 0.44039 0.0
C1005 C 0.51434 0.71489 0.42972 0.0
C1006 C 0.52487 0.68481 0.45113 0.0
C1007 C 0.53307 0.70919 0.43011 0.0
C1008 C 0.54999 0.66433 0.46307 0.0
C1009 C 0.52269 0.64391 0.48259 0.0
N1010 N 0.53777 0.69458 0.44064 0.0
N1011 N 0.51793 0.65859 0.47216 0.0
H1012 H 0.90576 0.80415 0.7475 0.0
H1013 H 0.93981 0.75191 0.65236 0.0
H1014 H 0.87268 0.76063 0.71784 0.0
H1015 H 0.97613 0.78954 0.68613 0.0
H1016 H 0.91429 0.75665 0.67502 0.0
H1017 H 0.93079 0.80086 0.72389 0.0
C1018 C 0.90368 0.79401 0.73594 0.0
C1019 C 0.88708 0.78261 0.7347 0.0
C1020 C 0.92783 0.7639 0.67748 0.0
C1021 C 0.91578 0.77868 0.70767 0.0
C1022 C 0.94243 0.76121 0.66451 0.0
C1023 C 0.9602 0.77031 0.66733 0.0
C1024 C 0.93093 0.77584 0.6934 0.0
C1025 C 0.9627 0.7822 0.68338 0.0
C1026 C 0.91804 0.79205 0.72253 0.0
C1027 C 0.88531 0.76955 0.71952 0.0
N1028 N 0.94824 0.78462 0.69579 0.0
N1029 N 0.89945 0.76795 0.70663 0.0
H1030 H 0.02523 0.87761 0.52191 0.0
H1031 H 0.0349 0.82614 0.61994 0.0
H1032 H 0.05407 0.90238 0.57086 0.0
H1033 H 1.00133 0.80364 0.573 0.0
H1034 H 0.04253 0.85392 0.60195 0.0
H1035 H 0.01658 0.8503 0.54022 0.0
C1036 C 0.02964 0.8774 0.53654 0.0
C1037 C 0.04046 0.89238 0.54479 0.0
C1038 C 0.03347 0.84292 0.59559 0.0
C1039 C 0.03078 0.86093 0.56582 0.0
C1040 C 0.02912 0.82702 0.60586 0.0
C1041 C 0.01746 0.81248 0.59799 0.0
C1042 C 0.02619 0.84432 0.57726 0.0
C1043 C 1.01037 0.81447 0.57967 0.0
C1044 C 0.02478 0.86173 0.54697 0.0
C1045 C 0.04599 0.89109 0.56375 0.0
N1046 N 0.01488 0.83005 0.56993 0.0
N1047 N 0.04113 0.87567 0.57358 0.0
H1048 H 0.11745 0.73785 0.76058 0.0
H1049 H 0.07356 0.75878 0.65945 0.0
H1050 H 0.14947 0.73639 0.7087 0.0
H1051 H 0.04099 0.75675 0.71096 0.0
H1052 H 0.1018 0.75181 0.67735 0.0
H1053 H 0.08967 0.7462 0.7428 0.0
C1054 C 0.1187 0.73942 0.74547 0.0
C1055 C 0.13587 0.73637 0.73615 0.0
C1056 C 0.08848 0.75291 0.68474 0.0
C1057 C 0.10396 0.74578 0.71561 0.0
C1058 C 0.07233 0.75691 0.67452 0.0
C1059 C 0.05483 0.75833 0.68368 0.0
C1060 C 0.08716 0.75035 0.7043 0.0
C1061 C 0.05414 0.75575 0.70326 0.0
C1062 C 0.10277 0.74408 0.73529 0.0
C1063 C 0.1365 0.73835 0.71647 0.0
N1064 N 0.07004 0.75189 0.71288 0.0
N1065 N 0.1208 0.74292 0.70688 0.0
H1066 H 0.98147 0.6559 0.53247 0.0
H1067 H 1.01077 0.69437 0.63646 0.0
H1068 H 0.9907 0.62075 0.57954 0.0
H1069 H 1.00064 0.73034 0.59024 0.0
H1070 H 1.00429 0.6673 0.61539 0.0
H1071 H 0.98954 0.68332 0.55285 0.0
C1072 C 0.98534 0.65392 0.54704 0.0
C1073 C 0.98531 0.63595 0.5543 0.0
C1074 C 1.00349 0.6811 0.60981 0.0
C1075 C 0.9944 0.66732 0.57778 0.0
C1076 C 1.00718 0.6966 0.62187 0.0
C1077 C 1.00622 0.7147 0.61515 0.0
C1078 C 0.99876 0.68362 0.59083 0.0
C1079 C 1.00154 0.71666 0.59606 0.0
C1080 C 0.98983 0.6696 0.5587 0.0
C1081 C 0.99023 0.6343 0.57337 0.0
N1082 N 0.99796 0.70132 0.58458 0.0
N1083 N 0.99453 0.64974 0.58441 0.0
H1084 H 0.80124 0.89281 0.25419 0.0
H1085 H 0.83621 0.99311 0.21798 0.0
H1086 H 0.78472 0.91452 0.20085 0.0
H1087 H 0.85551 0.97034 0.26985 0.0
H1088 H 0.81634 0.96488 0.21211 0.0
H1089 H 0.82004 0.92163 0.26092 0.0
C1090 C 0.80143 0.90369 0.24395 0.0
C1091 C 0.7914 0.90118 0.22689 0.0
C1092 C 0.82491 0.96605 0.22478 0.0
C1093 C 0.81308 0.93419 0.23444 0.0
C1094 C 0.83627 0.98219 0.22816 0.0
C1095 C 0.8476 0.98412 0.24442 0.0
C1096 C 0.8248 0.95168 0.23777 0.0
C1097 C 0.84705 0.96947 0.2571 0.0
C1098 C 0.81228 0.9201 0.24775 0.0
C1099 C 0.79242 0.91569 0.21406 0.0
N1100 N 0.83586 0.95389 0.2535 0.0
N1101 N 0.80305 0.93153 0.21809 0.0
H1102 H 0.76482 0.1226 0.30522 0.0
H1103 H 0.86552 0.08334 0.27593 0.0
H1104 H 0.81413 0.15786 0.29404 0.0
H1105 H 0.81735 0.04826 0.29138 0.0
H1106 H 0.84662 0.11075 0.28131 0.0
H1107 H 0.78343 0.09519 0.29873 0.0
C1108 C 0.77952 0.1246 0.30125 0.0
C1109 C 0.7879 0.14261 0.30021 0.0
C1110 C 0.84018 0.09706 0.28353 0.0
C1111 C 0.8094 0.1112 0.29293 0.0
C1112 C 0.85097 0.08138 0.28046 0.0
C1113 C 0.84304 0.06343 0.28324 0.0
C1114 C 0.82127 0.09482 0.28938 0.0
C1115 C 0.8241 0.0618 0.28909 0.0
C1116 C 0.79018 0.10892 0.29767 0.0
C1117 C 0.80712 0.14427 0.29526 0.0
N1118 N 0.81388 0.07727 0.29195 0.0
N1119 N 0.81719 0.1288 0.29181 0.0
H1120 H 0.4091 0.95394 1.00341 0.0
H1121 H 0.29628 0.93976 1.00767 0.0
H1122 H 0.37101 0.99531 0.98567 0.0
H1123 H 0.33491 0.90079 0.02944 0.0
H1124 H 0.32329 0.96026 0.99932 0.0
H1125 H 0.38198 0.93424 0.01275 0.0
C1126 C 0.39502 0.95886 1.00141 0.0
C1127 C 0.39237 0.9763 0.99365 0.0
C1128 C 0.32584 0.94724 1.00597 0.0
C1129 C 0.36112 0.95378 1.00445 0.0
C1130 C 0.31042 0.93551 0.01073 0.0
C1131 C 0.3133 0.91848 0.01926 0.0
C1132 C 0.34431 0.94191 1.00968 0.0
C1133 C 0.33197 0.91375 0.02288 0.0
C1134 C 0.37952 0.94764 1.00685 0.0
C1135 C 0.37376 0.98206 0.99173 0.0
N1136 N 0.34672 0.92536 0.01804 0.0
N1137 N 0.35886 0.9708 0.997 0.0
H1138 H 0.2498 0.40812 0.26255 0.0
H1139 H 0.1541 0.44792 0.30535 0.0
H1140 H 0.21713 0.38078 0.3059 0.0
H1141 H 0.18467 0.47201 0.25873 0.0
H1142 H 0.17734 0.42368 0.30646 0.0
H1143 H 0.22637 0.43197 0.26157 0.0
C1144 C 0.23764 0.40702 0.27179 0.0
C1145 C 0.23546 0.39227 0.28426 0.0
C1146 C 0.17894 0.43426 0.29598 0.0
C1147 C 0.20857 0.41989 0.2834 0.0
C1148 C 0.16567 0.44812 0.29533 0.0
C1149 C 0.16739 0.46206 0.28191 0.0
C1150 C 0.1941 0.43433 0.28315 0.0
C1151 C 0.18272 0.46158 0.26931 0.0
C1152 C 0.22429 0.42076 0.2713 0.0
C1153 C 0.21956 0.39194 0.29618 0.0
N1154 N 0.19545 0.44799 0.27026 0.0
N1155 N 0.20674 0.40551 0.29544 0.0
H1156 H 0.13575 0.04251 0.51368 0.0
H1157 H 0.2235 0.10671 0.47878 0.0
H1158 H 0.147 0.0535 0.45508 0.0
H1159 H 0.21346 0.09392 0.53716 0.0
H1160 H 0.19568 0.08709 0.4698 0.0
H1161 H 0.16438 0.06092 0.5225 0.0
C1162 C 0.14429 0.04867 0.50263 0.0
C1163 C 0.13887 0.04643 0.48358 0.0
C1164 C 0.19958 0.08854 0.48457 0.0
C1165 C 0.17165 0.06779 0.49365 0.0
C1166 C 0.21549 0.09975 0.48972 0.0
C1167 C 0.22084 0.10201 0.50878 0.0
C1168 C 0.18889 0.07952 0.49856 0.0
C1169 C 0.20988 0.09262 0.52231 0.0
C1170 C 0.1606 0.05929 0.5077 0.0
C1171 C 0.15041 0.05504 0.46996 0.0
N1172 N 0.19444 0.08184 0.51695 0.0
N1173 N 0.1662 0.06532 0.47526 0.0
H1174 H 0.7282 0.13905 0.77428 0.0
H1175 H 0.68266 0.0491 0.71851 0.0
H1176 H 0.74043 0.12502 0.71593 0.0
H1177 H 0.6697 0.06382 0.77655 0.0
H1178 H 0.7033 0.07716 0.71706 0.0
H1179 H 0.70625 0.11193 0.77515 0.0
C1180 C 0.72631 0.13025 0.76165 0.0
C1181 C 0.7363 0.13432 0.74503 0.0
C1182 C 0.69591 0.07429 0.7301 0.0
C1183 C 0.71099 0.1032 0.7459 0.0
C1184 C 0.68411 0.05824 0.73095 0.0
C1185 C 0.67443 0.05403 0.7477 0.0
C1186 C 0.69812 0.08626 0.74612 0.0
C1187 C 0.67687 0.06646 0.76334 0.0
C1188 C 0.71368 0.1148 0.76213 0.0
C1189 C 0.73296 0.12256 0.72901 0.0
N1190 N 0.68849 0.08196 0.76218 0.0
N1191 N 0.72067 0.10752 0.72987 0.0
H1192 H 0.37584 0.02465 0.52386 0.0
H1193 H 0.32436 0.12196 0.5317 0.0
H1194 H 0.39915 0.07346 0.55419 0.0
H1195 H 0.30316 0.0744 0.49802 0.0
H1196 H 0.35168 0.10434 0.54037 0.0
H1197 H 0.34908 0.04259 0.51437 0.0
C1198 C 0.37543 0.03917 0.52843 0.0
C1199 C 0.38985 0.0475 0.53989 0.0
C1200 C 0.34107 0.09777 0.53105 0.0
C1201 C 0.35899 0.06812 0.52923 0.0
C1202 C 0.32544 0.10783 0.5261 0.0
C1203 C 0.31139 0.09967 0.51411 0.0
C1204 C 0.34269 0.07936 0.52403 0.0
C1205 C 0.31361 0.08129 0.5073 0.0
C1206 C 0.36006 0.04939 0.52309 0.0
C1207 C 0.38829 0.06632 0.54561 0.0
N1208 N 0.32891 0.07177 0.51238 0.0
N1209 N 0.37316 0.07595 0.54024 0.0
H1210 H 0.64477 0.48468 0.5769 0.0
H1211 H 0.70133 0.43379 0.49315 0.0
H1212 H 0.6295 0.48697 0.51805 0.0
H1213 H 0.71432 0.42885 0.55227 0.0
H1214 H 0.67577 0.45425 0.50187 0.0
H1215 H 0.67097 0.46516 0.56803 0.0
C1216 C 0.64685 0.48103 0.5621 0.0
C1217 C 0.63477 0.48744 0.54823 0.0
C1218 C 0.68422 0.44872 0.51294 0.0
C1219 C 0.66502 0.46517 0.53792 0.0
C1220 C 0.69885 0.43703 0.50798 0.0
C1221 C 0.71001 0.42953 0.522 0.0
C1222 C 0.68069 0.45302 0.53209 0.0
C1223 C 0.70609 0.43425 0.54097 0.0
C1224 C 0.66191 0.46994 0.55704 0.0
C1225 C 0.6385 0.48253 0.52924 0.0
N1226 N 0.69177 0.44567 0.54544 0.0
N1227 N 0.65323 0.47166 0.52467 0.0
H1228 H 0.75721 0.29566 0.38889 0.0
H1229 H 0.72332 0.35773 0.47792 0.0
H1230 H 0.69861 0.30345 0.40265 0.0
H1231 H 0.78181 0.34821 0.46513 0.0
H1232 H 0.71395 0.33793 0.45043 0.0
H1233 H 0.76645 0.3147 0.41687 0.0
C1234 C 0.74627 0.30125 0.39785 0.0
C1235 C 0.72708 0.29792 0.39333 0.0
C1236 C 0.72884 0.34016 0.45365 0.0
C1237 C 0.73761 0.32 0.42538 0.0
C1238 C 0.7342 0.35148 0.46935 0.0
C1239 C 0.75339 0.35467 0.47387 0.0
C1240 C 0.74275 0.33197 0.44232 0.0
C1241 C 0.76685 0.34617 0.46222 0.0
C1242 C 0.75157 0.31223 0.41379 0.0
C1243 C 0.71357 0.30584 0.40537 0.0
N1244 N 0.76128 0.33525 0.44701 0.0
N1245 N 0.71908 0.31649 0.4208 0.0
H1246 H 0.57822 0.04481 0.91493 0.0
H1247 H 0.5866 0.01577 0.80497 0.0
H1248 H 0.52989 0.03658 0.87806 0.0
H1249 H 0.63443 0.02571 0.84225 0.0
H1250 H 0.56544 0.02206 0.83161 0.0
H1251 H 0.59881 0.03662 0.88858 0.0
C1252 C 0.57192 0.04134 0.90127 0.0
C1253 C 0.55226 0.04155 0.89872 0.0
C1254 C 0.58056 0.02282 0.83396 0.0
C1255 C 0.57586 0.03194 0.86837 0.0
C1256 C 0.59267 0.01922 0.81875 0.0
C1257 C 0.61236 0.02026 0.82134 0.0
C1258 C 0.58818 0.02748 0.85191 0.0
C1259 C 0.61937 0.02478 0.83954 0.0
C1260 C 0.5837 0.03656 0.88622 0.0
C1261 C 0.54493 0.0365 0.88074 0.0
N1262 N 0.60732 0.02825 0.85407 0.0
N1263 N 0.55673 0.03199 0.86624 0.0
H1264 H 0.30621 0.23904 0.39502 0.0
H1265 H 0.23444 0.18966 0.46737 0.0
H1266 H 0.24691 0.25016 0.39935 0.0
H1267 H 0.29335 0.17686 0.46335 0.0
H1268 H 0.23905 0.2118 0.4423 0.0
H1269 H 0.30205 0.216 0.41961 0.0
C1270 C 0.2923 0.2366 0.40105 0.0
C1271 C 0.27691 0.24669 0.39513 0.0
C1272 C 0.251 0.20416 0.44685 0.0
C1273 C 0.27209 0.22042 0.42341 0.0
C1274 C 0.24837 0.19148 0.46121 0.0
C1275 C 0.26353 0.18135 0.46753 0.0
C1276 C 0.26894 0.20683 0.43864 0.0
C1277 C 0.28126 0.18436 0.45894 0.0
C1278 C 0.28996 0.2235 0.41516 0.0
C1279 C 0.25927 0.24302 0.40364 0.0
N1280 N 0.28348 0.19683 0.44496 0.0
N1281 N 0.25737 0.23024 0.4173 0.0
H1282 H 0.48938 0.45777 0.87025 0.0
H1283 H 0.41621 0.52522 0.82392 0.0
H1284 H 0.47009 0.50758 0.89862 0.0
H1285 H 0.4391 0.4775 0.79471 0.0
H1286 H 0.43574 0.51919 0.8514 0.0
H1287 H 0.47093 0.4649 0.8425 0.0
C1288 C 0.48121 0.47019 0.87067 0.0
C1289 C 0.48123 0.48203 0.88687 0.0
C1290 C 0.43652 0.51008 0.83896 0.0
C1291 C 0.46007 0.49038 0.85498 0.0
C1292 C 0.42535 0.5135 0.82325 0.0
C1293 C 0.42595 0.50182 0.80696 0.0
C1294 C 0.44834 0.49483 0.83842 0.0
C1295 C 0.43811 0.48687 0.80693 0.0
C1296 C 0.47074 0.47431 0.85476 0.0
C1297 C 0.47062 0.49812 0.88642 0.0
N1298 N 0.44875 0.48378 0.8224 0.0
N1299 N 0.46041 0.50177 0.87079 0.0
H1300 H 0.72592 0.76114 0.11757 0.0
H1301 H 0.75809 0.66363 0.0723 0.0
H1302 H 0.73637 0.71319 0.15055 0.0
H1303 H 0.74185 0.70986 0.03937 0.0
H1304 H 0.75151 0.68189 0.10119 0.0
H1305 H 0.73328 0.74301 0.08888 0.0
C1306 C 0.7299 0.74684 0.11881 0.0
C1307 C 0.73052 0.7387 0.13654 0.0
C1308 C 0.74938 0.68803 0.08764 0.0
C1309 C 0.73881 0.71774 0.10364 0.0
C1310 C 0.75314 0.67761 0.07112 0.0
C1311 C 0.75051 0.6852 0.05334 0.0
C1312 C 0.743 0.70622 0.0864 0.0
C1313 C 0.74406 0.7034 0.05273 0.0
C1314 C 0.73398 0.73644 0.10239 0.0
C1315 C 0.73549 0.71999 0.13719 0.0
N1316 N 0.74056 0.71327 0.06899 0.0
N1317 N 0.73946 0.71017 0.12101 0.0
H1318 H 0.97318 0.07842 0.14886 0.0
H1319 H 0.92993 0.99558 0.2109 0.0
H1320 H 0.98251 0.02025 0.13657 0.0
H1321 H 0.92038 0.05378 0.22271 0.0
H1322 H 0.94956 1.0043 0.18392 0.0
H1323 H 0.95411 0.06962 0.17614 0.0
C1324 C 0.97117 0.06377 0.15183 0.0
C1325 C 0.97944 0.05006 0.14028 0.0
C1326 C 0.94319 0.01517 0.19242 0.0
C1327 C 0.95768 0.03987 0.17175 0.0
C1328 C 0.93195 0.0102 0.20784 0.0
C1329 C 0.92345 0.02396 0.21912 0.0
C1330 C 0.94597 0.03406 0.18818 0.0
C1331 C 0.92662 0.04268 0.21444 0.0
C1332 C 0.96034 0.05877 0.1675 0.0
C1333 C 0.97659 0.03133 0.14513 0.0
N1334 N 0.9376 0.04716 0.19934 0.0
N1335 N 0.96592 0.0268 0.16043 0.0
H1336 H 0.27291 0.81068 0.15569 0.0
H1337 H 0.28164 0.82398 0.04398 0.0
H1338 H 0.28853 0.76735 0.11569 0.0
H1339 H 0.26271 0.86692 0.0828 0.0
H1340 H 0.28574 0.80371 0.07046 0.0
H1341 H 0.27078 0.83213 0.12967 0.0
C1342 C 0.27605 0.80571 0.14147 0.0
C1343 C 0.28082 0.78712 0.1379 0.0
C1344 C 0.28071 0.81757 0.07324 0.0
C1345 C 0.27826 0.81159 0.10799 0.0
C1346 C 0.27837 0.82919 0.05809 0.0
C1347 C 0.27175 0.84721 0.06112 0.0
C1348 C 0.27642 0.82393 0.09166 0.0
C1349 C 0.2678 0.85314 0.07977 0.0
C1350 C 0.27471 0.81794 0.1266 0.0
C1351 C 0.28451 0.78144 0.11912 0.0
N1352 N 0.27016 0.84153 0.09432 0.0
N1353 N 0.28313 0.79358 0.10493 0.0
H1354 H 0.02479 0.51136 0.1478 0.0
H1355 H 0.11505 0.48884 0.20999 0.0
H1356 H 0.06204 0.46681 0.13397 0.0
H1357 H 0.07331 0.52772 0.22816 0.0
H1358 H 0.0967 0.48179 0.18122 0.0
H1359 H 0.04309 0.51856 0.17658 0.0
C1360 C 0.03674 0.50301 0.15082 0.0
C1361 C 0.04183 0.48843 0.13833 0.0
C1362 C 0.09154 0.49186 0.1915 0.0
C1363 C 0.06306 0.49683 0.17124 0.0
C1364 C 0.10204 0.49592 0.20794 0.0
C1365 C 0.09572 0.50889 0.22157 0.0
C1366 C 0.07461 0.50088 0.18856 0.0
C1367 C 0.07873 0.51761 0.21809 0.0
C1368 C 0.04725 0.50721 0.16723 0.0
C1369 C 0.0577 0.47836 0.14293 0.0
N1370 N 0.06879 0.51347 0.20194 0.0
N1371 N 0.06772 0.48275 0.15896 0.0
H1372 H 0.41369 0.74303 0.27468 0.0
H1373 H 0.43859 0.76433 0.38385 0.0
H1374 H 0.37167 0.75378 0.3174 0.0
H1375 H 0.47985 0.74838 0.34208 0.0
H1376 H 0.4139 0.76047 0.35976 0.0
H1377 H 0.43811 0.74502 0.29913 0.0
C1378 C 0.40959 0.74585 0.2892 0.0
C1379 C 0.39057 0.74831 0.29395 0.0
C1380 C 0.42834 0.75774 0.35587 0.0
C1381 C 0.41852 0.75051 0.32211 0.0
C1382 C 0.44247 0.75995 0.36963 0.0
C1383 C 0.46137 0.75671 0.365 0.0
C1384 C 0.4331 0.75234 0.33727 0.0
C1385 C 0.4655 0.75103 0.34632 0.0
C1386 C 0.42354 0.74688 0.30318 0.0
C1387 C 0.3861 0.75163 0.31308 0.0
N1388 N 0.45151 0.74911 0.33315 0.0
N1389 N 0.39997 0.75272 0.32642 0.0
H1390 H 0.97414 0.37371 0.99675 0.0
H1391 H 0.02168 0.33766 0.90019 0.0
H1392 H 0.99512 0.40997 0.9534 0.0
H1393 H 0.99508 0.30062 0.93995 0.0
H1394 H 0.01376 0.36419 0.92063 0.0
H1395 H 0.98349 0.34673 0.97736 0.0
C1396 C 0.98083 0.37601 0.98322 0.0
C1397 C 0.98377 0.39416 0.97668 0.0
C1398 C 1.00965 0.35028 0.92492 0.0
C1399 C 0.99442 0.36331 0.95435 0.0
C1400 C 0.0142 0.33507 0.91325 0.0
C1401 C 1.009 0.31683 0.9183 0.0
C1402 C 0.99984 0.34731 0.94188 0.0
C1403 C 0.99933 0.31442 0.93545 0.0
C1404 C 0.98606 0.36059 0.97211 0.0
C1405 C 0.99231 0.39625 0.95892 0.0
N1406 N 0.99506 0.32948 0.94661 0.0
N1407 N 0.99733 0.38106 0.94842 0.0
H1408 H 0.61897 0.7975 0.27145 0.0
H1409 H 0.57495 0.77632 0.3733 0.0
H1410 H 0.65185 0.79976 0.32282 0.0
H1411 H 0.54186 0.77795 0.32226 0.0
H1412 H 0.60346 0.78385 0.35502 0.0
H1413 H 0.59083 0.78901 0.28973 0.0
C1414 C 0.62032 0.79606 0.28656 0.0
C1415 C 0.63785 0.79936 0.29558 0.0
C1416 C 0.58995 0.78256 0.34783 0.0
C1417 C 0.60554 0.78982 0.31671 0.0
C1418 C 0.57366 0.77825 0.35826 0.0
C1419 C 0.55594 0.77651 0.34933 0.0
C1420 C 0.58856 0.7851 0.32829 0.0
C1421 C 0.55518 0.77917 0.32979 0.0
C1422 C 0.60419 0.79134 0.29702 0.0
C1423 C 0.63862 0.79758 0.31527 0.0
N1424 N 0.57122 0.78332 0.31995 0.0
N1425 N 0.62272 0.79292 0.32516 0.0
H1426 H 0.05258 0.13063 0.95697 0.0
H1427 H 1.00338 0.22921 0.96004 0.0
H1428 H 0.02883 0.1555 1.00752 0.0
H1429 H 0.03114 0.2065 0.91063 0.0
H1430 H 0.01137 0.2017 0.97725 0.0
H1431 H 0.0438 0.1577 0.93949 0.0
C1432 C 0.0456 0.1418 0.96445 0.0
C1433 C 0.04154 0.14074 0.98383 0.0
C1434 C 0.0157 0.20271 0.96264 0.0
C1435 C 0.03119 0.17179 0.96373 0.0
C1436 C 1.01113 0.21843 0.95277 0.0
C1437 C 0.01661 0.22023 0.93383 0.0
C1438 C 0.02582 0.18859 0.95354 0.0
C1439 C 0.02663 0.20576 0.92521 0.0
C1440 C 0.04049 0.15723 0.9544 0.0
C1441 C 0.03209 0.15554 0.99259 0.0
N1442 N 0.03091 0.19058 0.93512 0.0
N1443 N 0.02728 0.17043 0.9825 0.0
H1444 H 0.41288 0.29701 0.25836 0.0
H1445 H 0.43603 0.26722 0.15103 0.0
H1446 H 0.37013 0.28006 0.21717 0.0
H1447 H 0.47838 0.28835 0.19095 0.0
H1448 H 0.41171 0.27211 0.17497 0.0
H1449 H 0.43703 0.2941 0.23387 0.0
C1450 C 0.40856 0.29265 0.24417 0.0
C1451 C 0.38942 0.2887 0.23987 0.0
C1452 C 0.42631 0.27574 0.17848 0.0
C1453 C 0.41706 0.28543 0.21166 0.0
C1454 C 0.44023 0.27294 0.16481 0.0
C1455 C 0.45932 0.27733 0.16897 0.0
C1456 C 0.43146 0.28292 0.19654 0.0
C1457 C 0.46386 0.28475 0.18709 0.0
C1458 C 0.42237 0.29108 0.23015 0.0
C1459 C 0.38467 0.28341 0.22113 0.0
N1460 N 0.45006 0.28723 0.20021 0.0
N1461 N 0.39839 0.28183 0.20777 0.0
H1462 H 0.56914 0.38657 0.05153 0.0
H1463 H 0.48378 0.32538 0.09567 0.0
H1464 H 0.51036 0.39824 0.04405 0.0
H1465 H 0.54263 0.31646 0.10651 0.0
H1466 H 0.49318 0.3514 0.07586 0.0
H1467 H 0.55965 0.36025 0.07082 0.0
C1468 C 0.55422 0.38368 0.054 0.0
C1469 C 0.54055 0.39478 0.04618 0.0
C1470 C 0.50405 0.34376 0.08257 0.0
C1471 C 0.52954 0.36438 0.06818 0.0
C1472 C 0.49869 0.32887 0.09389 0.0
C1473 C 0.51243 0.31869 0.10282 0.0
C1474 C 0.52331 0.34853 0.08005 0.0
C1475 C 0.53153 0.32391 0.09996 0.0
C1476 C 0.54881 0.36855 0.06496 0.0
C1477 C 0.52142 0.39002 0.04959 0.0
N1478 N 0.53639 0.33843 0.08883 0.0
N1479 N 0.5165 0.37523 0.06035 0.0
H1480 H 0.64363 0.25629 0.22456 0.0
H1481 H 0.53891 0.22421 0.19055 0.0
H1482 H 0.6145 0.20553 0.24138 0.0
H1483 H 0.56939 0.27261 0.16971 0.0
H1484 H 0.56612 0.21784 0.21009 0.0
H1485 H 0.61618 0.26331 0.20545 0.0
C1486 C 0.63142 0.24668 0.22434 0.0
C1487 C 0.63142 0.23026 0.23458 0.0
C1488 C 0.56689 0.22985 0.20124 0.0
C1489 C 0.59997 0.23815 0.21259 0.0
C1490 C 0.55133 0.23351 0.19006 0.0
C1491 C 0.55183 0.24897 0.17843 0.0
C1492 C 0.58314 0.24175 0.20088 0.0
C1493 C 0.56835 0.26051 0.17843 0.0
C1494 C 0.6158 0.25064 0.21333 0.0
C1495 C 0.61527 0.21822 0.23354 0.0
N1496 N 0.58333 0.25668 0.18949 0.0
N1497 N 0.60024 0.22241 0.22278 0.0
H1498 H 0.51472 0.13789 0.04564 0.0
H1499 H 0.48116 0.22612 0.10744 0.0
H1500 H 0.45619 0.15023 0.05462 0.0
H1501 H 0.53965 0.21533 0.09593 0.0
H1502 H 0.47173 0.19834 0.08824 0.0
H1503 H 0.5241 0.16626 0.06386 0.0
C1504 C 0.50382 0.14662 0.0513 0.0
C1505 C 0.4846 0.14158 0.04855 0.0
C1506 C 0.48663 0.20206 0.08989 0.0
C1507 C 0.4953 0.17407 0.06973 0.0
C1508 C 0.49203 0.21793 0.10087 0.0
C1509 C 0.51125 0.2231 0.10334 0.0
C1510 C 0.50052 0.1912 0.08131 0.0
C1511 C 0.52468 0.21192 0.09445 0.0
C1512 C 0.5092 0.16278 0.06182 0.0
C1513 C 0.47116 0.15335 0.05656 0.0
N1514 N 0.51906 0.19651 0.08388 0.0
N1515 N 0.47675 0.16899 0.06677 0.0
H1516 H 0.283 0.40963 0.6996 0.0
H1517 H 0.35397 0.46562 0.77145 0.0
H1518 H 0.2992 0.38869 0.75338 0.0
H1519 H 0.33494 0.4873 0.71895 0.0
H1520 H 0.33402 0.4374 0.76528 0.0
H1521 H 0.30196 0.43819 0.70661 0.0
C1522 C 0.29059 0.41101 0.71288 0.0
C1523 C 0.28956 0.39666 0.72587 0.0
C1524 C 0.33419 0.44835 0.75514 0.0
C1525 C 0.31128 0.42949 0.73408 0.0
C1526 C 0.34559 0.46447 0.75864 0.0
C1527 C 0.34617 0.47887 0.74568 0.0
C1528 C 0.3233 0.44657 0.73854 0.0
C1529 C 0.33498 0.47659 0.72934 0.0
C1530 C 0.30136 0.42738 0.71693 0.0
C1531 C 0.29945 0.39942 0.74301 0.0
N1532 N 0.32407 0.46076 0.72623 0.0
N1533 N 0.30996 0.41546 0.74657 0.0
H1534 H 0.28184 0.63415 0.77701 0.0
H1535 H 0.37015 0.58023 0.81559 0.0
H1536 H 0.31169 0.64935 0.82875 0.0
H1537 H 0.34142 0.56451 0.76335 0.0
H1538 H 0.34874 0.60567 0.82038 0.0
H1539 H 0.30348 0.60881 0.77139 0.0
C1540 C 0.29296 0.63224 0.78715 0.0
C1541 C 0.29483 0.64391 0.80344 0.0
C1542 C 0.3471 0.5967 0.80784 0.0
C1543 C 0.31959 0.61479 0.79715 0.0
C1544 C 0.35935 0.58213 0.80509 0.0
C1545 C 0.35762 0.57017 0.78903 0.0
C1546 C 0.33292 0.59942 0.79446 0.0
C1547 C 0.3433 0.57337 0.77594 0.0
C1548 C 0.30526 0.61769 0.78398 0.0
C1549 C 0.30943 0.64056 0.81617 0.0
N1550 N 0.3315 0.58767 0.77895 0.0
N1551 N 0.32119 0.62637 0.81275 0.0
H1552 H 0.89132 0.4872 0.52259 0.0
H1553 H 0.80393 0.41799 0.49232 0.0
H1554 H 0.87911 0.46931 0.46492 0.0
H1555 H 0.81357 0.43895 0.5495 0.0
H1556 H 0.8319 0.43608 0.4822 0.0
H1557 H 0.86325 0.46929 0.53283 0.0
C1558 C 0.8827 0.47962 0.51204 0.0
C1559 C 0.88767 0.47981 0.49283 0.0
C1560 C 0.82791 0.43673 0.49697 0.0
C1561 C 0.85555 0.45901 0.50454 0.0
C1562 C 0.81193 0.42637 0.50278 0.0
C1563 C 0.80633 0.42694 0.52182 0.0
C1564 C 0.83848 0.44775 0.51027 0.0
C1565 C 0.81731 0.43808 0.53468 0.0
C1566 C 0.86671 0.46929 0.51793 0.0
C1567 C 0.87605 0.46941 0.4799 0.0
N1568 N 0.83283 0.44803 0.52868 0.0
N1569 N 0.86058 0.45946 0.48598 0.0
H1570 H 0.71847 0.88038 0.77877 0.0
H1571 H 0.70704 0.99075 0.7913 0.0
H1572 H 0.76357 0.91939 0.79637 0.0
H1573 H 0.66244 0.95272 0.77041 0.0
H1574 H 0.72734 0.96446 0.7947 0.0
H1575 H 0.69715 0.90628 0.77729 0.0
C1576 C 0.72386 0.89436 0.78249 0.0
C1577 C 0.7429 0.89768 0.78763 0.0
C1578 C 0.71311 0.96182 0.78939 0.0
C1579 C 0.71857 0.92746 0.7858 0.0
C1580 C 0.70147 0.97686 0.78745 0.0
C1581 C 0.68297 0.97399 0.7805 0.0
C1582 C 0.70628 0.94368 0.78437 0.0
C1583 C 0.6766 0.95562 0.77579 0.0
C1584 C 0.7117 0.90916 0.78152 0.0
C1585 C 0.74911 0.91615 0.79205 0.0
N1586 N 0.68823 0.94119 0.77778 0.0
N1587 N 0.73701 0.9303 0.79102 0.0
H1588 H 0.64508 0.55844 0.95511 0.0
H1589 H 0.71552 0.59375 0.03862 0.0
H1590 H 0.63775 0.54324 0.01321 0.0
H1591 H 0.72057 0.61197 0.98129 0.0
H1592 H 0.68769 0.57432 0.02935 0.0
H1593 H 0.67325 0.57735 0.96425 0.0
C1594 C 0.64931 0.55913 0.96982 0.0
C1595 C 0.6389 0.54924 0.98341 0.0
C1596 C 0.69488 0.58256 0.01879 0.0
C1597 C 0.67143 0.57078 0.99395 0.0
C1598 C 0.71081 0.59366 0.02406 0.0
C1599 C 0.72042 0.60456 0.01073 0.0
C1600 C 0.68847 0.58228 1.00001 0.0
C1601 C 0.71361 0.60384 0.99208 0.0
C1602 C 0.6655 0.56988 0.97501 0.0
C1603 C 0.64539 0.55043 1.00219 0.0
N1604 N 0.69808 0.59291 0.98728 0.0
N1605 N 0.66118 0.56101 1.00689 0.0
H1606 H 0.25464 0.61787 0.25708 0.0
H1607 H 0.14481 0.58646 0.24981 0.0
H1608 H 0.21107 0.65546 0.24342 0.0
H1609 H 0.18897 0.54935 0.26304 0.0
H1610 H 0.16871 0.61184 0.24699 0.0
H1611 H 0.23067 0.59261 0.25894 0.0
C1612 C 0.24001 0.62085 0.25454 0.0
C1613 C 0.2349 0.63891 0.2502 0.0
C1614 C 0.17316 0.59814 0.25049 0.0
C1615 C 0.20727 0.60985 0.25214 0.0
C1616 C 0.15951 0.58363 0.25212 0.0
C1617 C 0.16485 0.56571 0.2567 0.0
C1618 C 0.19232 0.59475 0.25348 0.0
C1619 C 0.18415 0.5629 0.2595 0.0
C1620 C 0.22632 0.60636 0.25551 0.0
C1621 C 0.21572 0.64177 0.24667 0.0
N1622 N 0.19714 0.57724 0.25787 0.0
N1623 N 0.20261 0.62743 0.24778 0.0
H1624 H 0.88878 0.56704 0.06482 0.0
H1625 H 0.80934 0.58439 0.98757 0.0
H1626 H 0.88447 0.53654 0.0113 0.0
H1627 H 0.81798 0.61864 0.03835 0.0
H1628 H 0.83606 0.56601 0.9964 0.0
H1629 H 0.86225 0.58538 0.05572 0.0
C1630 C 0.88237 0.56425 0.05108 0.0
C1631 C 0.88904 0.55022 0.03879 0.0
C1632 C 0.83213 0.57756 1.0056 0.0
C1633 C 0.85828 0.57111 0.02836 0.0
C1634 C 0.81685 0.58808 1.00057 0.0
C1635 C 0.81137 0.60312 0.01222 0.0
C1636 C 0.84201 0.58204 0.02246 0.0
C1637 C 0.82168 0.6072 0.0289 0.0
C1638 C 0.8671 0.57469 0.04594 0.0
C1639 C 0.87976 0.54703 0.02135 0.0
N1640 N 0.83644 0.59671 0.03352 0.0
N1641 N 0.86489 0.55739 0.01667 0.0
H1642 H 0.1479 1.00729 0.02705 0.0
H1643 H 0.20503 0.91676 0.05041 0.0
H1644 H 0.12986 0.9676 0.06853 0.0
H1645 H 0.21988 0.95327 1.00505 0.0
H1646 H 0.178 0.93578 0.05793 0.0
H1647 H 0.17473 0.98813 0.01928 0.0
C1648 C 0.14948 0.99451 0.03446 0.0
C1649 C 0.13652 0.98913 0.04851 0.0
C1650 C 0.18716 0.93963 0.04632 0.0
C1651 C 0.16748 0.96718 0.03982 0.0
C1652 C 0.20264 0.92878 0.04203 0.0
C1653 C 0.21479 0.9334 0.02706 0.0
C1654 C 0.1838 0.95529 0.03563 0.0
C1655 C 0.21092 0.94915 0.01671 0.0
C1656 C 0.1649 0.98361 0.03008 0.0
C1657 C 0.13958 0.97252 0.05782 0.0
N1658 N 0.1958 0.95952 0.02119 0.0
N1659 N 0.15471 0.96219 0.05333 0.0
loop_
_geom_bond_atom_site_label_1
_geom_bond_atom_site_label_2
_geom_bond_distance
_geom_bond_site_symmetry_2
_ccdc_geom_bond_type
C0 C1 1.264 . S
C0 C5 1.479 . S
C0 C10 1.465 1_655 S
C1 C0 1.264 . S
C1 C3 1.339 . S
C1 H28 0.931 1_655 S
C2 C3 1.395 . S
C2 C4 1.320 . S
C3 C1 1.339 . S
C3 C2 1.395 . S
C3 H29 0.929 . S
C4 C2 1.320 . S
C4 C5 1.405 . S
C4 H30 0.930 . S
C5 C0 1.479 . S
C5 C4 1.405 . S
C5 H31 0.931 . S
U6 O7 2.454 . S
U6 O8 2.458 . S
U6 C9 2.984 . S
U6 C10 2.847 . S
U6 C23 2.882 . S
U6 O24 2.441 . S
U6 O25 2.420 . S
U6 O26 2.455 . S
U6 O27 2.449 . S
O7 U6 2.454 . S
O7 C9 1.353 . S
O8 U6 2.458 . S
O8 C9 1.286 . S
C9 U6 2.984 . S
C9 O7 1.353 . S
C9 O8 1.286 . S
C9 C11 1.363 . S
C10 C0 1.465 1_455 S
C10 U6 2.847 . S
C10 O24 1.249 . S
C10 O25 1.202 . S
C11 C9 1.363 . S
C11 C13 1.408 . S
C11 C16 1.342 1_554 S
C12 C13 1.310 1_556 S
C12 C15 1.461 . S
C12 H32 0.932 . S
C13 C11 1.408 . S
C13 C12 1.310 1_554 S
C13 H33 0.930 . S
C14 C15 1.474 . S
C14 C16 1.285 . S
C14 H34 0.929 . S
C15 C12 1.461 . S
C15 C14 1.474 . S
C16 C11 1.342 1_556 S
C16 C14 1.285 . S
C16 H35 0.930 . S
C17 C20 1.424 1_545 S
C17 C22 1.245 . S
C17 C23 1.428 . S
C18 C21 1.260 . S
C18 C22 1.477 1_565 S
C18 H36 0.932 . S
C19 C20 1.384 . S
C19 C21 1.479 . S
C19 H37 0.929 . S
C20 C17 1.424 1_565 S
C20 C19 1.384 . S
C20 H38 0.928 . S
C21 C18 1.260 . S
C21 C19 1.479 . S
C22 C17 1.245 . S
C22 C18 1.477 1_545 S
C22 H39 0.932 . S
C23 U6 2.882 . S
C23 C17 1.428 . S
C23 O26 1.301 . S
C23 O27 1.282 . S
O24 U6 2.441 . S
O24 C10 1.249 . S
O25 U6 2.420 . S
O25 C10 1.202 . S
O26 U6 2.455 . S
O26 C23 1.301 . S
O27 U6 2.449 . S
O27 C23 1.282 . S
H28 C1 0.931 1_455 S
H29 C3 0.929 . S
H30 C4 0.930 . S
H31 C5 0.931 . S
H32 C12 0.932 . S
H33 C13 0.930 . S
H34 C14 0.929 . S
H35 C16 0.930 . S
H36 C18 0.932 . S
H37 C19 0.929 . S
H38 C20 0.928 . S
H39 C22 0.932 . S
C40 C41 1.264 . S
C40 C45 1.479 . S
C40 C50 1.465 . S
C41 C40 1.264 . S
C41 C43 1.339 . S
C41 H68 0.931 . S
C42 C43 1.395 . S
C42 C44 1.320 . S
C43 C41 1.339 . S
C43 C42 1.395 . S
C43 H69 0.929 . S
C44 C42 1.320 . S
C44 C45 1.405 . S
C44 H70 0.930 . S
C45 C40 1.479 . S
C45 C44 1.405 . S
C45 H71 0.931 . S
U46 O47 2.454 . S
U46 O48 2.458 . S
U46 C49 2.984 . S
U46 C50 2.847 . S
U46 C63 2.882 . S
U46 O64 2.441 . S
U46 O65 2.420 . S
U46 O66 2.455 . S
U46 O67 2.449 . S
O47 U46 2.454 . S
O47 C49 1.353 . S
O48 U46 2.458 . S
O48 C49 1.286 . S
C49 U46 2.984 . S
C49 O47 1.353 . S
C49 O48 1.286 . S
C49 C51 1.363 . S
C50 C40 1.465 . S
C50 U46 2.847 . S
C50 O64 1.249 . S
C50 O65 1.202 . S
C51 C49 1.363 . S
C51 C53 1.408 . S
C51 C56 1.342 . S
C52 C53 1.310 . S
C52 C55 1.461 . S
C52 H72 0.932 . S
C53 C51 1.408 . S
C53 C52 1.310 . S
C53 H73 0.930 . S
C54 C55 1.474 . S
C54 C56 1.285 . S
C54 H74 0.929 . S
C55 C52 1.461 . S
C55 C54 1.474 . S
C56 C51 1.342 . S
C56 C54 1.285 . S
C56 H75 0.930 . S
C57 C60 1.424 . S
C57 C62 1.245 . S
C57 C63 1.428 . S
C58 C61 1.260 . S
C58 C62 1.477 . S
C58 H76 0.932 . S
C59 C60 1.384 . S
C59 C61 1.479 . S
C59 H77 0.929 . S
C60 C57 1.424 . S
C60 C59 1.384 . S
C60 H78 0.928 . S
C61 C58 1.260 . S
C61 C59 1.479 . S
C62 C57 1.245 . S
C62 C58 1.477 . S
C62 H79 0.932 . S
C63 U46 2.882 . S
C63 C57 1.428 . S
C63 O66 1.301 . S
C63 O67 1.282 . S
O64 U46 2.441 . S
O64 C50 1.249 . S
O65 U46 2.420 . S
O65 C50 1.202 . S
O66 U46 2.455 . S
O66 C63 1.301 . S
O67 U46 2.449 . S
O67 C63 1.282 . S
H68 C41 0.931 . S
H69 C43 0.929 . S
H70 C44 0.930 . S
H71 C45 0.931 . S
H72 C52 0.932 . S
H73 C53 0.930 . S
H74 C54 0.929 . S
H75 C56 0.930 . S
H76 C58 0.932 . S
H77 C59 0.929 . S
H78 C60 0.928 . S
H79 C62 0.932 . S
C80 C81 1.264 . S
C80 C85 1.479 . S
C80 C90 1.465 1_556 S
C81 C80 1.264 . S
C81 C83 1.339 . S
C81 H108 0.931 1_656 S
C82 C83 1.395 . S
C82 C84 1.320 . S
C83 C81 1.339 . S
C83 C82 1.395 . S
C83 H109 0.929 1_655 S
C84 C82 1.320 . S
C84 C85 1.405 . S
C84 H110 0.930 . S
C85 C80 1.479 . S
C85 C84 1.405 . S
C85 H111 0.931 . S
U86 O87 2.454 . S
U86 O88 2.458 . S
U86 C89 2.984 . S
U86 C90 2.847 . S
U86 C103 2.882 . S
U86 O104 2.441 . S
U86 O105 2.420 . S
U86 O106 2.455 . S
U86 O107 2.445 1_655 S
O87 U86 2.454 . S
O87 C89 1.353 . S
O88 U86 2.458 . S
O88 C89 1.286 . S
C89 U86 2.984 . S
C89 O87 1.353 . S
C89 O88 1.286 . S
C89 C91 1.363 . S
C90 C80 1.465 1_554 S
C90 U86 2.847 . S
C90 O104 1.249 . S
C90 O105 1.202 . S
C91 C89 1.363 . S
C91 C93 1.408 . S
C91 C96 1.342 . S
C92 C93 1.310 . S
C92 C95 1.461 . S
C92 H112 0.910 1_554 S
C93 C91 1.408 . S
C93 C92 1.310 . S
C93 H113 0.930 . S
C94 C95 1.474 . S
C94 C96 1.285 . S
C94 H114 0.929 . S
C95 C92 1.461 . S
C95 C94 1.474 . S
C96 C91 1.342 . S
C96 C94 1.285 . S
C96 H115 0.930 . S
C97 C100 1.424 . S
C97 C102 1.245 . S
C97 C103 1.428 1_455 S
C98 C101 1.260 . S
C98 C102 1.477 . S
C98 H116 0.932 . S
C99 C100 1.384 . S
C99 C101 1.479 . S
C99 H117 0.929 . S
C100 C97 1.424 . S
C100 C99 1.384 . S
C100 H118 0.928 . S
C101 C98 1.260 . S
C101 C99 1.479 . S
C102 C97 1.245 . S
C102 C98 1.477 . S
C102 H119 0.932 1_455 S
C103 U86 2.882 . S
C103 C97 1.428 1_655 S
C103 O106 1.301 . S
C103 O107 1.281 1_655 S
O104 U86 2.441 . S
O104 C90 1.249 . S
O105 U86 2.420 . S
O105 C90 1.202 . S
O106 U86 2.455 . S
O106 C103 1.301 . S
O107 U86 2.445 1_455 S
O107 C103 1.281 1_455 S
H108 C81 0.931 1_454 S
H109 C83 0.929 1_455 S
H110 C84 0.930 . S
H111 C85 0.931 . S
H112 C92 0.910 1_556 S
H113 C93 0.930 . S
H114 C94 0.929 . S
H115 C96 0.930 . S
H116 C98 0.932 . S
H117 C99 0.929 . S
H118 C100 0.928 . S
H119 C102 0.932 1_655 S
C120 C121 1.264 . S
C120 C125 1.479 . S
C120 C130 1.465 . S
C121 C120 1.264 . S
C121 C123 1.339 . S
C121 H148 0.931 . S
C122 C123 1.395 . S
C122 C124 1.320 . S
C123 C121 1.339 . S
C123 C122 1.395 . S
C123 H149 0.929 . S
C124 C122 1.320 . S
C124 C125 1.405 . S
C124 H150 0.930 . S
C125 C120 1.479 . S
C125 C124 1.405 . S
C125 H151 0.931 . S
U126 O127 2.454 . S
U126 O128 2.458 . S
U126 C129 2.984 . S
U126 C130 2.847 . S
U126 C143 2.882 . S
U126 O144 2.441 . S
U126 O145 2.420 . S
U126 O146 2.455 . S
U126 O147 2.449 . S
O127 U126 2.454 . S
O127 C129 1.353 . S
O128 U126 2.458 . S
O128 C129 1.286 . S
C129 U126 2.984 . S
C129 O127 1.353 . S
C129 O128 1.286 . S
C129 C131 1.363 . S
C130 C120 1.465 . S
C130 U126 2.847 . S
C130 O144 1.249 . S
C130 O145 1.202 . S
C131 C129 1.363 . S
C131 C133 1.408 . S
C131 C136 1.342 . S
C132 C133 1.310 . S
C132 C135 1.461 . S
C132 H152 0.932 . S
C133 C131 1.408 . S
C133 C132 1.310 . S
C133 H153 0.930 . S
C134 C135 1.474 . S
C134 C136 1.285 . S
C134 H154 0.929 . S
C135 C132 1.461 . S
C135 C134 1.474 . S
C136 C131 1.342 . S
C136 C134 1.285 . S
C136 H155 0.930 . S
C137 C140 1.424 . S
C137 C142 1.245 . S
C137 C143 1.428 . S
C138 C141 1.260 . S
C138 C142 1.477 . S
C138 H156 0.932 . S
C139 C140 1.384 . S
C139 C141 1.479 . S
C139 H157 0.929 . S
C140 C137 1.424 . S
C140 C139 1.384 . S
C140 H158 0.928 . S
C141 C138 1.260 . S
C141 C139 1.479 . S
C142 C137 1.245 . S
C142 C138 1.477 . S
C142 H159 0.932 . S
C143 U126 2.882 . S
C143 C137 1.428 . S
C143 O146 1.301 . S
C143 O147 1.282 . S
O144 U126 2.441 . S
O144 C130 1.249 . S
O145 U126 2.420 . S
O145 C130 1.202 . S
O146 U126 2.455 . S
O146 C143 1.301 . S
O147 U126 2.449 . S
O147 C143 1.282 . S
H148 C121 0.931 . S
H149 C123 0.929 . S
H150 C124 0.930 . S
H151 C125 0.931 . S
H152 C132 0.932 . S
H153 C133 0.930 . S
H154 C134 0.929 . S
H155 C136 0.930 . S
H156 C138 0.932 . S
H157 C139 0.929 . S
H158 C140 0.928 . S
H159 C142 0.932 . S
C160 C161 1.244 1_665 S
C160 C165 1.479 . S
C160 C170 1.465 1_655 S
C161 C160 1.244 1_445 S
C161 C163 1.326 1_455 S
C161 H188 0.964 . S
C162 C163 1.395 1_565 S
C162 C164 1.320 . S
C163 C161 1.326 1_655 S
C163 C162 1.395 1_545 S
C163 H189 0.929 . S
C164 C162 1.320 . S
C164 C165 1.405 . S
C164 H190 0.930 . S
C165 C160 1.479 . S
C165 C164 1.405 . S
C165 H191 0.931 . S
U166 O167 2.454 . S
U166 O168 2.458 . S
U166 C169 2.984 . S
U166 C170 2.847 . S
U166 C183 2.882 1_565 S
U166 O184 2.441 . S
U166 O185 2.420 . S
U166 O186 2.455 . S
U166 O187 2.449 1_565 S
O167 U166 2.454 . S
O167 C169 1.353 . S
O168 U166 2.458 . S
O168 C169 1.286 . S
C169 U166 2.984 . S
C169 O167 1.353 . S
C169 O168 1.286 . S
C169 C171 1.363 . S
C170 C160 1.465 1_455 S
C170 U166 2.847 . S
C170 O184 1.249 . S
C170 O185 1.202 . S
C171 C169 1.363 . S
C171 C173 1.408 . S
C171 C176 1.342 . S
C172 C173 1.310 . S
C172 C175 1.461 . S
C172 H192 0.932 . S
C173 C171 1.408 . S
C173 C172 1.310 . S
C173 H193 0.930 . S
C174 C175 1.474 . S
C174 C176 1.285 . S
C174 H194 0.929 . S
C175 C172 1.461 . S
C175 C174 1.474 . S
C176 C171 1.342 . S
C176 C174 1.285 . S
C176 H195 0.930 . S
C177 C180 1.424 . S
C177 C182 1.245 . S
C177 C183 1.428 . S
C178 C181 1.260 . S
C178 C182 1.477 . S
C178 H196 0.932 . S
C179 C180 1.384 . S
C179 C181 1.479 . S
C179 H197 0.929 . S
C180 C177 1.424 . S
C180 C179 1.384 . S
C180 H198 0.928 . S
C181 C178 1.260 . S
C181 C179 1.479 . S
C182 C177 1.245 . S
C182 C178 1.477 . S
C182 H199 0.923 1_545 S
C183 U166 2.882 1_545 S
C183 C177 1.428 . S
C183 O186 1.301 1_545 S
C183 O187 1.282 . S
O184 U166 2.441 . S
O184 C170 1.249 . S
O185 U166 2.420 . S
O185 C170 1.202 . S
O186 U166 2.455 . S
O186 C183 1.301 1_565 S
O187 U166 2.449 1_545 S
O187 C183 1.282 . S
H188 C161 0.964 . S
H189 C163 0.929 . S
H190 C164 0.930 . S
H191 C165 0.931 . S
H192 C172 0.932 . S
H193 C173 0.930 . S
H194 C174 0.929 . S
H195 C176 0.930 . S
H196 C178 0.932 . S
H197 C179 0.929 . S
H198 C180 0.928 . S
H199 C182 0.923 1_565 S
C200 C201 1.264 . S
C200 C205 1.479 . S
C200 C210 1.465 . S
C201 C200 1.264 . S
C201 C203 1.339 . S
C201 H228 0.931 . S
C202 C203 1.395 . S
C202 C204 1.320 . S
C203 C201 1.339 . S
C203 C202 1.395 . S
C203 H229 0.929 . S
C204 C202 1.320 . S
C204 C205 1.405 . S
C204 H230 0.930 . S
C205 C200 1.479 . S
C205 C204 1.405 . S
C205 H231 0.931 . S
U206 O207 2.454 . S
U206 O208 2.458 . S
U206 C209 2.984 . S
U206 C210 2.847 . S
U206 C223 2.882 . S
U206 O224 2.441 . S
U206 O225 2.420 . S
U206 O226 2.455 . S
U206 O227 2.449 . S
O207 U206 2.454 . S
O207 C209 1.353 . S
O208 U206 2.458 . S
O208 C209 1.286 . S
C209 U206 2.984 . S
C209 O207 1.353 . S
C209 O208 1.286 . S
C209 C211 1.363 . S
C210 C200 1.465 . S
C210 U206 2.847 . S
C210 O224 1.249 . S
C210 O225 1.202 . S
C211 C209 1.363 . S
C211 C213 1.408 . S
C211 C216 1.342 . S
C212 C213 1.310 . S
C212 C215 1.461 . S
C212 H232 0.932 . S
C213 C211 1.408 . S
C213 C212 1.310 . S
C213 H233 0.930 . S
C214 C215 1.474 . S
C214 C216 1.285 . S
C214 H234 0.929 . S
C215 C212 1.461 . S
C215 C214 1.474 . S
C216 C211 1.342 . S
C216 C214 1.285 . S
C216 H235 0.930 . S
C217 C220 1.424 . S
C217 C222 1.245 . S
C217 C223 1.428 . S
C218 C221 1.260 . S
C218 C222 1.477 . S
C218 H236 0.932 . S
C219 C220 1.384 . S
C219 C221 1.479 . S
C219 H237 0.929 . S
C220 C217 1.424 . S
C220 C219 1.384 . S
C220 H238 0.928 . S
C221 C218 1.260 . S
C221 C219 1.479 . S
C222 C217 1.245 . S
C222 C218 1.477 . S
C222 H239 0.932 . S
C223 U206 2.882 . S
C223 C217 1.428 . S
C223 O226 1.301 . S
C223 O227 1.282 . S
O224 U206 2.441 . S
O224 C210 1.249 . S
O225 U206 2.420 . S
O225 C210 1.202 . S
O226 U206 2.455 . S
O226 C223 1.301 . S
O227 U206 2.449 . S
O227 C223 1.282 . S
H228 C201 0.931 . S
H229 C203 0.929 . S
H230 C204 0.930 . S
H231 C205 0.931 . S
H232 C212 0.932 . S
H233 C213 0.930 . S
H234 C214 0.929 . S
H235 C216 0.930 . S
H236 C218 0.932 . S
H237 C219 0.929 . S
H238 C220 0.928 . S
H239 C222 0.932 . S
C240 C241 1.264 . S
C240 C245 1.479 . S
C240 C250 1.465 . S
C241 C240 1.264 . S
C241 C243 1.339 . S
C241 H268 0.931 1_655 S
C242 C243 1.395 . S
C242 C244 1.320 . S
C243 C241 1.339 . S
C243 C242 1.395 . S
C243 H269 0.929 1_655 S
C244 C242 1.320 . S
C244 C245 1.405 . S
C244 H270 0.930 . S
C245 C240 1.479 . S
C245 C244 1.405 . S
C245 H271 0.931 . S
U246 O247 2.454 . S
U246 O248 2.458 . S
U246 C249 2.984 . S
U246 C250 2.847 . S
U246 C263 2.882 . S
U246 O264 2.441 . S
U246 O265 2.420 . S
U246 O266 2.455 . S
U246 O267 2.449 . S
O247 U246 2.454 . S
O247 C249 1.353 . S
O248 U246 2.458 . S
O248 C249 1.286 . S
C249 U246 2.984 . S
C249 O247 1.353 . S
C249 O248 1.286 . S
C249 C251 1.363 . S
C250 C240 1.465 . S
C250 U246 2.847 . S
C250 O264 1.249 . S
C250 O265 1.202 . S
C251 C249 1.363 . S
C251 C253 1.408 . S
C251 C256 1.342 . S
C252 C253 1.310 . S
C252 C255 1.461 . S
C252 H272 0.932 . S
C253 C251 1.408 . S
C253 C252 1.310 . S
C253 H273 0.930 . S
C254 C255 1.474 . S
C254 C256 1.285 . S
C254 H274 0.929 . S
C255 C252 1.461 . S
C255 C254 1.474 . S
C256 C251 1.342 . S
C256 C254 1.285 . S
C256 H275 0.930 . S
C257 C260 1.424 . S
C257 C262 1.245 . S
C257 C263 1.428 1_455 S
C258 C261 1.260 . S
C258 C262 1.477 . S
C258 H276 0.932 . S
C259 C260 1.384 . S
C259 C261 1.479 . S
C259 H277 0.929 . S
C260 C257 1.424 . S
C260 C259 1.384 . S
C260 H278 0.928 . S
C261 C258 1.260 . S
C261 C259 1.479 . S
C262 C257 1.245 . S
C262 C258 1.477 . S
C262 H279 0.932 1_455 S
C263 U246 2.882 . S
C263 C257 1.428 1_655 S
C263 O266 1.301 . S
C263 O267 1.282 . S
O264 U246 2.441 . S
O264 C250 1.249 . S
O265 U246 2.420 . S
O265 C250 1.202 . S
O266 U246 2.455 . S
O266 C263 1.301 . S
O267 U246 2.449 . S
O267 C263 1.282 . S
H268 C241 0.931 1_455 S
H269 C243 0.929 1_455 S
H270 C244 0.930 . S
H271 C245 0.931 . S
H272 C252 0.932 . S
H273 C253 0.930 . S
H274 C254 0.929 . S
H275 C256 0.930 . S
H276 C258 0.932 . S
H277 C259 0.929 . S
H278 C260 0.928 . S
H279 C262 0.932 1_655 S
C280 C281 1.264 . S
C280 C285 1.479 . S
C280 C290 1.465 . S
C281 C280 1.264 . S
C281 C283 1.339 . S
C281 H308 0.931 . S
C282 C283 1.395 . S
C282 C284 1.320 . S
C283 C281 1.339 . S
C283 C282 1.395 . S
C283 H309 0.929 . S
C284 C282 1.320 . S
C284 C285 1.405 . S
C284 H310 0.930 . S
C285 C280 1.479 . S
C285 C284 1.405 . S
C285 H311 0.931 . S
U286 O287 2.454 . S
U286 O288 2.458 . S
U286 C289 2.984 . S
U286 C290 2.847 . S
U286 C303 2.882 . S
U286 O304 2.441 . S
U286 O305 2.420 . S
U286 O306 2.455 . S
U286 O307 2.449 . S
O287 U286 2.454 . S
O287 C289 1.353 . S
O288 U286 2.458 . S
O288 C289 1.286 . S
C289 U286 2.984 . S
C289 O287 1.353 . S
C289 O288 1.286 . S
C289 C291 1.363 . S
C290 C280 1.465 . S
C290 U286 2.847 . S
C290 O304 1.249 . S
C290 O305 1.202 . S
C291 C289 1.363 . S
C291 C293 1.408 . S
C291 C296 1.342 . S
C292 C293 1.310 . S
C292 C295 1.461 . S
C292 H312 0.932 . S
C293 C291 1.408 . S
C293 C292 1.310 . S
C293 H313 0.930 . S
C294 C295 1.474 . S
C294 C296 1.285 . S
C294 H314 0.929 . S
C295 C292 1.461 . S
C295 C294 1.474 . S
C296 C291 1.342 . S
C296 C294 1.285 . S
C296 H315 0.930 . S
C297 C300 1.424 . S
C297 C302 1.245 . S
C297 C303 1.428 . S
C298 C301 1.260 . S
C298 C302 1.477 . S
C298 H316 0.932 . S
C299 C300 1.384 . S
C299 C301 1.479 . S
C299 H317 0.929 . S
C300 C297 1.424 . S
C300 C299 1.384 . S
C300 H318 0.928 . S
C301 C298 1.260 . S
C301 C299 1.479 . S
C302 C297 1.245 . S
C302 C298 1.477 . S
C302 H319 0.932 . S
C303 U286 2.882 . S
C303 C297 1.428 . S
C303 O306 1.301 . S
C303 O307 1.282 . S
O304 U286 2.441 . S
O304 C290 1.249 . S
O305 U286 2.420 . S
O305 C290 1.202 . S
O306 U286 2.455 . S
O306 C303 1.301 . S
O307 U286 2.449 . S
O307 C303 1.282 . S
H308 C281 0.931 . S
H309 C283 0.929 . S
H310 C284 0.930 . S
H311 C285 0.931 . S
H312 C292 0.932 . S
H313 C293 0.930 . S
H314 C294 0.929 . S
H315 C296 0.930 . S
H316 C298 0.932 . S
H317 C299 0.929 . S
H318 C300 0.928 . S
H319 C302 0.932 . S
C320 C321 1.264 . S
C320 C325 1.479 . S
C320 C330 1.465 . S
C321 C320 1.264 . S
C321 C323 1.339 . S
C321 H348 0.931 . S
C322 C323 1.395 . S
C322 C324 1.320 . S
C323 C321 1.339 . S
C323 C322 1.395 . S
C323 H349 0.929 . S
C324 C322 1.320 . S
C324 C325 1.405 . S
C324 H350 0.930 . S
C325 C320 1.479 . S
C325 C324 1.405 . S
C325 H351 0.931 . S
U326 O327 2.454 . S
U326 O328 2.458 . S
U326 C329 2.984 . S
U326 C330 2.847 . S
U326 C343 2.882 . S
U326 O344 2.441 . S
U326 O345 2.420 . S
U326 O346 2.455 . S
U326 O347 2.449 . S
O327 U326 2.454 . S
O327 C329 1.353 . S
O328 U326 2.458 . S
O328 C329 1.286 . S
C329 U326 2.984 . S
C329 O327 1.353 . S
C329 O328 1.286 . S
C329 C331 1.363 . S
C330 C320 1.465 . S
C330 U326 2.847 . S
C330 O344 1.249 . S
C330 O345 1.202 . S
C331 C329 1.363 . S
C331 C333 1.408 . S
C331 C336 1.342 . S
C332 C333 1.310 . S
C332 C335 1.461 . S
C332 H352 0.932 . S
C333 C331 1.408 . S
C333 C332 1.310 . S
C333 H353 0.930 . S
C334 C335 1.474 . S
C334 C336 1.285 . S
C334 H354 0.929 . S
C335 C332 1.461 . S
C335 C334 1.474 . S
C336 C331 1.342 . S
C336 C334 1.285 . S
C336 H355 0.930 . S
C337 C340 1.424 . S
C337 C342 1.245 . S
C337 C343 1.428 . S
C338 C341 1.260 . S
C338 C342 1.477 . S
C338 H356 0.932 . S
C339 C340 1.384 . S
C339 C341 1.479 . S
C339 H357 0.929 . S
C340 C337 1.424 . S
C340 C339 1.384 . S
C340 H358 0.928 . S
C341 C338 1.260 . S
C341 C339 1.479 . S
C342 C337 1.245 . S
C342 C338 1.477 . S
C342 H359 0.932 . S
C343 U326 2.882 . S
C343 C337 1.428 . S
C343 O346 1.301 . S
C343 O347 1.282 . S
O344 U326 2.441 . S
O344 C330 1.249 . S
O345 U326 2.420 . S
O345 C330 1.202 . S
O346 U326 2.455 . S
O346 C343 1.301 . S
O347 U326 2.449 . S
O347 C343 1.282 . S
H348 C321 0.931 . S
H349 C323 0.929 . S
H350 C324 0.930 . S
H351 C325 0.931 . S
H352 C332 0.932 . S
H353 C333 0.930 . S
H354 C334 0.929 . S
H355 C336 0.930 . S
H356 C338 0.932 . S
H357 C339 0.929 . S
H358 C340 0.928 . S
H359 C342 0.932 . S
C360 C361 1.264 . S
C360 C365 1.479 . S
C360 C370 1.465 . S
C361 C360 1.264 . S
C361 C363 1.339 . S
C361 H388 0.931 . S
C362 C363 1.395 . S
C362 C364 1.320 . S
C363 C361 1.339 . S
C363 C362 1.395 . S
C363 H389 0.929 . S
C364 C362 1.320 . S
C364 C365 1.405 . S
C364 H390 0.930 . S
C365 C360 1.479 . S
C365 C364 1.405 . S
C365 H391 0.931 . S
U366 O367 2.454 . S
U366 O368 2.458 . S
U366 C369 2.984 . S
U366 C370 2.847 . S
U366 C383 2.882 . S
U366 O384 2.441 . S
U366 O385 2.420 . S
U366 O386 2.455 . S
U366 O387 2.449 . S
O367 U366 2.454 . S
O367 C369 1.353 . S
O368 U366 2.458 . S
O368 C369 1.286 . S
C369 U366 2.984 . S
C369 O367 1.353 . S
C369 O368 1.286 . S
C369 C371 1.363 1_565 S
C370 C360 1.465 . S
C370 U366 2.847 . S
C370 O384 1.249 . S
C370 O385 1.202 . S
C371 C369 1.363 1_545 S
C371 C373 1.408 . S
C371 C376 1.342 . S
C372 C373 1.310 . S
C372 C375 1.461 . S
C372 H392 0.932 . S
C373 C371 1.408 . S
C373 C372 1.310 . S
C373 H393 0.930 1_545 S
C374 C375 1.474 . S
C374 C376 1.285 . S
C374 H394 0.929 . S
C375 C372 1.461 . S
C375 C374 1.474 . S
C376 C371 1.342 . S
C376 C374 1.285 . S
C376 H395 0.930 . S
C377 C380 1.424 . S
C377 C382 1.245 . S
C377 C383 1.428 . S
C378 C381 1.260 . S
C378 C382 1.477 . S
C378 H396 0.932 1_565 S
C379 C380 1.384 . S
C379 C381 1.479 . S
C379 H397 0.929 . S
C380 C377 1.424 . S
C380 C379 1.384 . S
C380 H398 0.928 . S
C381 C378 1.260 . S
C381 C379 1.479 . S
C382 C377 1.245 . S
C382 C378 1.477 . S
C382 H399 0.932 1_565 S
C383 U366 2.882 . S
C383 C377 1.428 . S
C383 O386 1.301 . S
C383 O387 1.282 . S
O384 U366 2.441 . S
O384 C370 1.249 . S
O385 U366 2.420 . S
O385 C370 1.202 . S
O386 U366 2.455 . S
O386 C383 1.301 . S
O387 U366 2.449 . S
O387 C383 1.282 . S
H388 C361 0.931 . S
H389 C363 0.929 . S
H390 C364 0.930 . S
H391 C365 0.931 . S
H392 C372 0.932 . S
H393 C373 0.930 1_565 S
H394 C374 0.929 . S
H395 C376 0.930 . S
H396 C378 0.932 1_545 S
H397 C379 0.929 . S
H398 C380 0.928 . S
H399 C382 0.932 1_545 S
C400 C401 1.264 . S
C400 C405 1.479 . S
C400 C410 1.465 . S
C401 C400 1.264 . S
C401 C403 1.339 . S
C401 H428 0.931 . S
C402 C403 1.395 . S
C402 C404 1.320 . S
C403 C401 1.339 . S
C403 C402 1.395 . S
C403 H429 0.929 . S
C404 C402 1.320 . S
C404 C405 1.405 . S
C404 H430 0.930 . S
C405 C400 1.479 . S
C405 C404 1.405 . S
C405 H431 0.931 . S
U406 O407 2.454 . S
U406 O408 2.458 . S
U406 C409 2.984 . S
U406 C410 2.847 . S
U406 C423 2.882 . S
U406 O424 2.441 . S
U406 O425 2.420 . S
U406 O426 2.455 . S
U406 O427 2.449 . S
O407 U406 2.454 . S
O407 C409 1.353 . S
O408 U406 2.458 . S
O408 C409 1.286 . S
C409 U406 2.984 . S
C409 O407 1.353 . S
C409 O408 1.286 . S
C409 C411 1.363 . S
C410 C400 1.465 . S
C410 U406 2.847 . S
C410 O424 1.249 . S
C410 O425 1.202 . S
C411 C409 1.363 . S
C411 C413 1.408 . S
C411 C416 1.342 . S
C412 C413 1.310 . S
C412 C415 1.461 . S
C412 H432 0.932 . S
C413 C411 1.408 . S
C413 C412 1.310 . S
C413 H433 0.930 . S
C414 C415 1.474 . S
C414 C416 1.285 . S
C414 H434 0.929 . S
C415 C412 1.461 . S
C415 C414 1.474 . S
C416 C411 1.342 . S
C416 C414 1.285 . S
C416 H435 0.930 . S
C417 C420 1.424 . S
C417 C422 1.245 . S
C417 C423 1.428 . S
C418 C421 1.260 . S
C418 C422 1.477 . S
C418 H436 0.932 . S
C419 C420 1.384 . S
C419 C421 1.479 . S
C419 H437 0.929 . S
C420 C417 1.424 . S
C420 C419 1.384 . S
C420 H438 0.928 . S
C421 C418 1.260 . S
C421 C419 1.479 . S
C422 C417 1.245 . S
C422 C418 1.477 . S
C422 H439 0.932 . S
C423 U406 2.882 . S
C423 C417 1.428 . S
C423 O426 1.301 . S
C423 O427 1.282 . S
O424 U406 2.441 . S
O424 C410 1.249 . S
O425 U406 2.420 . S
O425 C410 1.202 . S
O426 U406 2.455 . S
O426 C423 1.301 . S
O427 U406 2.449 . S
O427 C423 1.282 . S
H428 C401 0.931 . S
H429 C403 0.929 . S
H430 C404 0.930 . S
H431 C405 0.931 . S
H432 C412 0.932 . S
H433 C413 0.930 . S
H434 C414 0.929 . S
H435 C416 0.930 . S
H436 C418 0.932 . S
H437 C419 0.929 . S
H438 C420 0.928 . S
H439 C422 0.932 . S
C440 C441 1.264 . S
C440 C445 1.479 . S
C440 C450 1.465 . S
C441 C440 1.264 . S
C441 C443 1.339 . S
C441 H468 0.931 . S
C442 C443 1.395 . S
C442 C444 1.320 . S
C443 C441 1.339 . S
C443 C442 1.395 . S
C443 H469 0.929 . S
C444 C442 1.320 . S
C444 C445 1.405 . S
C444 H470 0.930 . S
C445 C440 1.479 . S
C445 C444 1.405 . S
C445 H471 0.931 . S
U446 O447 2.454 . S
U446 O448 2.458 . S
U446 C449 2.984 . S
U446 C450 2.847 . S
U446 C463 2.882 . S
U446 O464 2.441 . S
U446 O465 2.420 . S
U446 O466 2.455 . S
U446 O467 2.449 . S
O447 U446 2.454 . S
O447 C449 1.353 . S
O448 U446 2.458 . S
O448 C449 1.286 . S
C449 U446 2.984 . S
C449 O447 1.353 . S
C449 O448 1.286 . S
C449 C451 1.363 . S
C450 C440 1.465 . S
C450 U446 2.847 . S
C450 O464 1.249 . S
C450 O465 1.202 . S
C451 C449 1.363 . S
C451 C453 1.408 . S
C451 C456 1.342 . S
C452 C453 1.310 . S
C452 C455 1.461 . S
C452 H472 0.932 . S
C453 C451 1.408 . S
C453 C452 1.310 . S
C453 H473 0.930 . S
C454 C455 1.474 . S
C454 C456 1.285 . S
C454 H474 0.929 . S
C455 C452 1.461 . S
C455 C454 1.474 . S
C456 C451 1.342 . S
C456 C454 1.285 . S
C456 H475 0.930 . S
C457 C460 1.424 . S
C457 C462 1.245 . S
C457 C463 1.428 . S
C458 C461 1.260 . S
C458 C462 1.477 . S
C458 H476 0.932 . S
C459 C460 1.384 . S
C459 C461 1.479 . S
C459 H477 0.929 . S
C460 C457 1.424 . S
C460 C459 1.384 . S
C460 H478 0.928 . S
C461 C458 1.260 . S
C461 C459 1.479 . S
C462 C457 1.245 . S
C462 C458 1.477 . S
C462 H479 0.932 . S
C463 U446 2.882 . S
C463 C457 1.428 . S
C463 O466 1.301 . S
C463 O467 1.282 . S
O464 U446 2.441 . S
O464 C450 1.249 . S
O465 U446 2.420 . S
O465 C450 1.202 . S
O466 U446 2.455 . S
O466 C463 1.301 . S
O467 U446 2.449 . S
O467 C463 1.282 . S
H468 C441 0.931 . S
H469 C443 0.929 . S
H470 C444 0.930 . S
H471 C445 0.931 . S
H472 C452 0.932 . S
H473 C453 0.930 . S
H474 C454 0.929 . S
H475 C456 0.930 . S
H476 C458 0.932 . S
H477 C459 0.929 . S
H478 C460 0.928 . S
H479 C462 0.932 . S
C480 C481 1.264 . S
C480 C485 1.479 . S
C480 C490 1.465 . S
C481 C480 1.264 . S
C481 C483 1.339 . S
C481 H508 0.931 . S
C482 C483 1.395 . S
C482 C484 1.320 . S
C483 C481 1.339 . S
C483 C482 1.395 . S
C483 H509 0.929 . S
C484 C482 1.320 . S
C484 C485 1.405 . S
C484 H510 0.930 . S
C485 C480 1.479 . S
C485 C484 1.405 . S
C485 H511 0.931 . S
U486 O487 2.454 . S
U486 O488 2.458 . S
U486 C489 2.984 . S
U486 C490 2.847 . S
U486 C503 2.882 . S
U486 O504 2.441 . S
U486 O505 2.420 . S
U486 O506 2.455 . S
U486 O507 2.449 . S
O487 U486 2.454 . S
O487 C489 1.353 . S
O488 U486 2.458 . S
O488 C489 1.286 . S
C489 U486 2.984 . S
C489 O487 1.353 . S
C489 O488 1.286 . S
C489 C491 1.363 . S
C490 C480 1.465 . S
C490 U486 2.847 . S
C490 O504 1.249 . S
C490 O505 1.202 . S
C491 C489 1.363 . S
C491 C493 1.408 . S
C491 C496 1.342 . S
C492 C493 1.310 . S
C492 C495 1.461 . S
C492 H512 0.932 . S
C493 C491 1.408 . S
C493 C492 1.310 . S
C493 H513 0.930 . S
C494 C495 1.474 . S
C494 C496 1.285 . S
C494 H514 0.929 . S
C495 C492 1.461 . S
C495 C494 1.474 . S
C496 C491 1.342 . S
C496 C494 1.285 . S
C496 H515 0.930 . S
C497 C500 1.424 . S
C497 C502 1.245 . S
C497 C503 1.428 . S
C498 C501 1.260 . S
C498 C502 1.477 . S
C498 H516 0.932 . S
C499 C500 1.384 . S
C499 C501 1.479 . S
C499 H517 0.929 . S
C500 C497 1.424 . S
C500 C499 1.384 . S
C500 H518 0.928 . S
C501 C498 1.260 . S
C501 C499 1.479 . S
C502 C497 1.245 . S
C502 C498 1.477 . S
C502 H519 0.932 . S
C503 U486 2.882 . S
C503 C497 1.428 . S
C503 O506 1.301 . S
C503 O507 1.282 . S
O504 U486 2.441 . S
O504 C490 1.249 . S
O505 U486 2.420 . S
O505 C490 1.202 . S
O506 U486 2.455 . S
O506 C503 1.301 . S
O507 U486 2.449 . S
O507 C503 1.282 . S
H508 C481 0.931 . S
H509 C483 0.929 . S
H510 C484 0.930 . S
H511 C485 0.931 . S
H512 C492 0.932 . S
H513 C493 0.930 . S
H514 C494 0.929 . S
H515 C496 0.930 . S
H516 C498 0.932 . S
H517 C499 0.929 . S
H518 C500 0.928 . S
H519 C502 0.932 . S
C520 C521 1.264 . S
C520 C525 1.479 . S
C520 C530 1.465 . S
C521 C520 1.264 . S
C521 C523 1.339 . S
C521 H548 0.931 . S
C522 C523 1.395 . S
C522 C524 1.320 . S
C523 C521 1.339 . S
C523 C522 1.395 . S
C523 H549 0.929 . S
C524 C522 1.320 . S
C524 C525 1.405 . S
C524 H550 0.930 . S
C525 C520 1.479 . S
C525 C524 1.405 . S
C525 H551 0.931 . S
U526 O527 2.454 . S
U526 O528 2.458 . S
U526 C529 2.984 . S
U526 C530 2.847 . S
U526 C543 2.882 . S
U526 O544 2.441 . S
U526 O545 2.420 . S
U526 O546 2.455 . S
U526 O547 2.449 . S
O527 U526 2.454 . S
O527 C529 1.353 . S
O528 U526 2.458 . S
O528 C529 1.286 . S
C529 U526 2.984 . S
C529 O527 1.353 . S
C529 O528 1.286 . S
C529 C531 1.334 1_556 S
C530 C520 1.465 . S
C530 U526 2.847 . S
C530 O544 1.249 . S
C530 O545 1.202 . S
C531 C529 1.334 1_554 S
C531 C533 1.402 1_554 S
C531 C536 1.376 . S
C532 C533 1.310 1_554 S
C532 C535 1.461 . S
C532 H552 0.932 . S
C533 C531 1.402 1_556 S
C533 C532 1.310 1_556 S
C533 H553 0.930 . S
C534 C535 1.474 . S
C534 C536 1.285 . S
C534 H554 0.929 . S
C535 C532 1.461 . S
C535 C534 1.474 . S
C536 C531 1.376 . S
C536 C534 1.285 . S
C536 H555 0.930 . S
C537 C540 1.424 . S
C537 C542 1.245 . S
C537 C543 1.428 . S
C538 C541 1.260 . S
C538 C542 1.477 . S
C538 H556 0.932 . S
C539 C540 1.384 . S
C539 C541 1.479 . S
C539 H557 0.929 . S
C540 C537 1.424 . S
C540 C539 1.384 . S
C540 H558 0.928 . S
C541 C538 1.260 . S
C541 C539 1.479 . S
C542 C537 1.245 . S
C542 C538 1.477 . S
C542 H559 0.932 . S
C543 U526 2.882 . S
C543 C537 1.428 . S
C543 O546 1.301 . S
C543 O547 1.282 . S
O544 U526 2.441 . S
O544 C530 1.249 . S
O545 U526 2.420 . S
O545 C530 1.202 . S
O546 U526 2.455 . S
O546 C543 1.301 . S
O547 U526 2.449 . S
O547 C543 1.282 . S
H548 C521 0.931 . S
H549 C523 0.929 . S
H550 C524 0.930 . S
H551 C525 0.931 . S
H552 C532 0.932 . S
H553 C533 0.930 . S
H554 C534 0.929 . S
H555 C536 0.930 . S
H556 C538 0.932 . S
H557 C539 0.929 . S
H558 C540 0.928 . S
H559 C542 0.932 . S
C560 C561 1.264 . S
C560 C565 1.479 . S
C560 C570 1.465 . S
C561 C560 1.264 . S
C561 C563 1.339 . S
C561 H588 0.931 . S
C562 C563 1.395 . S
C562 C564 1.320 . S
C563 C561 1.339 . S
C563 C562 1.395 . S
C563 H589 0.929 . S
C564 C562 1.320 . S
C564 C565 1.405 . S
C564 H590 0.930 . S
C565 C560 1.479 . S
C565 C564 1.405 . S
C565 H591 0.931 . S
U566 O567 2.454 . S
U566 O568 2.458 . S
U566 C569 2.984 . S
U566 C570 2.847 . S
U566 C583 2.882 . S
U566 O584 2.441 . S
U566 O585 2.420 . S
U566 O586 2.455 . S
U566 O587 2.449 . S
O567 U566 2.454 . S
O567 C569 1.353 . S
O568 U566 2.458 . S
O568 C569 1.286 . S
C569 U566 2.984 . S
C569 O567 1.353 . S
C569 O568 1.286 . S
C569 C571 1.363 . S
C570 C560 1.465 . S
C570 U566 2.847 . S
C570 O584 1.249 . S
C570 O585 1.202 . S
C571 C569 1.363 . S
C571 C573 1.408 . S
C571 C576 1.342 . S
C572 C573 1.310 . S
C572 C575 1.461 . S
C572 H592 0.932 . S
C573 C571 1.408 . S
C573 C572 1.310 . S
C573 H593 0.930 . S
C574 C575 1.474 . S
C574 C576 1.285 . S
C574 H594 0.929 . S
C575 C572 1.461 . S
C575 C574 1.474 . S
C576 C571 1.342 . S
C576 C574 1.285 . S
C576 H595 0.930 . S
C577 C580 1.424 . S
C577 C582 1.245 . S
C577 C583 1.428 . S
C578 C581 1.260 . S
C578 C582 1.477 . S
C578 H596 0.932 . S
C579 C580 1.384 . S
C579 C581 1.479 . S
C579 H597 0.929 . S
C580 C577 1.424 . S
C580 C579 1.384 . S
C580 H598 0.928 . S
C581 C578 1.260 . S
C581 C579 1.479 . S
C582 C577 1.245 . S
C582 C578 1.477 . S
C582 H599 0.932 . S
C583 U566 2.882 . S
C583 C577 1.428 . S
C583 O586 1.301 . S
C583 O587 1.282 . S
O584 U566 2.441 . S
O584 C570 1.249 . S
O585 U566 2.420 . S
O585 C570 1.202 . S
O586 U566 2.455 . S
O586 C583 1.301 . S
O587 U566 2.449 . S
O587 C583 1.282 . S
H588 C561 0.931 . S
H589 C563 0.929 . S
H590 C564 0.930 . S
H591 C565 0.931 . S
H592 C572 0.932 . S
H593 C573 0.930 . S
H594 C574 0.929 . S
H595 C576 0.930 . S
H596 C578 0.932 . S
H597 C579 0.929 . S
H598 C580 0.928 . S
H599 C582 0.932 . S
C600 C601 1.264 . S
C600 C605 1.479 . S
C600 C610 1.465 . S
C601 C600 1.264 . S
C601 C603 1.339 . S
C601 H628 0.931 1_554 S
C602 C603 1.395 . S
C602 C604 1.320 . S
C603 C601 1.339 . S
C603 C602 1.395 . S
C603 H629 0.929 . S
C604 C602 1.320 . S
C604 C605 1.405 . S
C604 H630 0.930 . S
C605 C600 1.479 . S
C605 C604 1.405 . S
C605 H631 0.931 . S
U606 O607 2.454 . S
U606 O608 2.458 . S
U606 C609 2.984 . S
U606 C610 2.847 1_556 S
U606 C623 2.882 . S
U606 O624 2.441 1_556 S
U606 O625 2.420 . S
U606 O626 2.455 . S
U606 O627 2.449 . S
O607 U606 2.454 . S
O607 C609 1.353 . S
O608 U606 2.458 . S
O608 C609 1.286 . S
C609 U606 2.984 . S
C609 O607 1.353 . S
C609 O608 1.286 . S
C609 C611 1.363 . S
C610 C600 1.465 . S
C610 U606 2.847 1_554 S
C610 O624 1.249 . S
C610 O625 1.202 1_554 S
C611 C609 1.363 . S
C611 C613 1.408 . S
C611 C616 1.342 1_545 S
C612 C613 1.310 1_565 S
C612 C615 1.461 . S
C612 H632 0.932 1_556 S
C613 C611 1.408 . S
C613 C612 1.310 1_545 S
C613 H633 0.930 1_556 S
C614 C615 1.474 . S
C614 C616 1.285 . S
C614 H634 0.929 . S
C615 C612 1.461 . S
C615 C614 1.474 . S
C616 C611 1.342 1_565 S
C616 C614 1.285 . S
C616 H635 0.930 . S
C617 C620 1.424 . S
C617 C622 1.245 . S
C617 C623 1.428 . S
C618 C621 1.260 . S
C618 C622 1.477 . S
C618 H636 0.932 . S
C619 C620 1.384 . S
C619 C621 1.479 . S
C619 H637 0.929 . S
C620 C617 1.424 . S
C620 C619 1.384 . S
C620 H638 0.928 . S
C621 C618 1.260 . S
C621 C619 1.479 . S
C622 C617 1.245 . S
C622 C618 1.477 . S
C622 H639 0.932 . S
C623 U606 2.882 . S
C623 C617 1.428 . S
C623 O626 1.301 . S
C623 O627 1.282 . S
O624 U606 2.441 1_554 S
O624 C610 1.249 . S
O625 U606 2.420 . S
O625 C610 1.202 1_556 S
O626 U606 2.455 . S
O626 C623 1.301 . S
O627 U606 2.449 . S
O627 C623 1.282 . S
H628 C601 0.931 1_556 S
H629 C603 0.929 . S
H630 C604 0.930 . S
H631 C605 0.931 . S
H632 C612 0.932 1_554 S
H633 C613 0.930 1_554 S
H634 C614 0.929 . S
H635 C616 0.930 . S
H636 C618 0.932 . S
H637 C619 0.929 . S
H638 C620 0.928 . S
H639 C622 0.932 . S
C640 O641 1.183 . S
C640 O647 1.185 . S
O641 C640 1.183 . S
O642 Zn643 1.899 1_556 S
O642 C650 1.284 . S
Zn643 O642 1.899 1_554 S
Zn643 O644 2.032 . S
Zn643 O647 2.086 . S
Zn643 O652 1.977 . S
O644 Zn643 2.032 . S
O644 C648 1.278 . S
C645 O646 1.203 . S
C645 O652 1.267 . S
O646 C645 1.203 . S
O647 C640 1.185 . S
O647 Zn643 2.086 . S
C648 O644 1.278 . S
C648 O649 1.211 . S
O649 C648 1.211 . S
C650 O642 1.284 . S
C650 O651 1.273 . S
O651 C650 1.273 . S
O652 Zn643 1.977 . S
O652 C645 1.267 . S
C653 O654 1.160 . S
C653 O660 1.185 . S
O654 C653 1.160 . S
O655 Zn656 1.899 . S
O655 C663 1.284 . S
Zn656 O655 1.899 . S
Zn656 O657 2.032 . S
Zn656 O660 2.086 . S
Zn656 O665 1.977 . S
O657 Zn656 2.032 . S
O657 C661 1.278 . S
C658 O659 1.203 . S
C658 O665 1.267 . S
O659 C658 1.203 . S
O660 C653 1.185 . S
O660 Zn656 2.086 . S
C661 O657 1.278 . S
C661 O662 1.211 . S
O662 C661 1.211 . S
C663 O655 1.284 . S
C663 O664 1.273 . S
O664 C663 1.273 . S
O665 Zn656 1.977 . S
O665 C658 1.267 . S
C666 O667 1.160 1_554 S
C666 O673 1.185 . S
O667 C666 1.160 1_556 S
O668 Zn669 1.899 1_556 S
O668 C676 1.284 . S
Zn669 O668 1.899 1_554 S
Zn669 O670 2.032 1_554 S
Zn669 O673 2.086 . S
Zn669 O678 1.977 . S
O670 Zn669 2.032 1_556 S
O670 C674 1.278 . S
C671 O672 1.203 . S
C671 O678 1.267 . S
O672 C671 1.203 . S
O673 C666 1.185 . S
O673 Zn669 2.086 . S
C674 O670 1.278 . S
C674 O675 1.211 1_556 S
O675 C674 1.211 1_554 S
C676 O668 1.284 . S
C676 O677 1.273 . S
O677 C676 1.273 . S
O678 Zn669 1.977 . S
O678 C671 1.267 . S
C679 O680 1.160 . S
C679 O686 1.185 . S
O680 C679 1.160 . S
O681 Zn682 1.899 . S
O681 C689 1.284 . S
Zn682 O681 1.899 . S
Zn682 O683 2.045 . S
Zn682 O686 2.086 . S
Zn682 O691 1.977 . S
O683 Zn682 2.045 . S
O683 C687 1.260 1_545 S
C684 O685 1.203 . S
C684 O691 1.267 . S
O685 C684 1.203 . S
O686 C679 1.185 . S
O686 Zn682 2.086 . S
C687 O683 1.260 1_565 S
C687 O688 1.211 . S
O688 C687 1.211 . S
C689 O681 1.284 . S
C689 O690 1.273 1_545 S
O690 C689 1.273 1_565 S
O691 Zn682 1.977 . S
O691 C684 1.267 . S
C692 O693 1.160 . S
C692 O699 1.185 . S
O693 C692 1.160 . S
O694 Zn695 1.899 . S
O694 C702 1.284 . S
Zn695 O694 1.899 . S
Zn695 O696 2.032 . S
Zn695 O699 2.086 . S
Zn695 O704 1.977 . S
O696 Zn695 2.032 . S
O696 C700 1.278 . S
C697 O698 1.203 . S
C697 O704 1.267 . S
O698 C697 1.203 . S
O699 C692 1.185 . S
O699 Zn695 2.086 . S
C700 O696 1.278 . S
C700 O701 1.211 . S
O701 C700 1.211 . S
C702 O694 1.284 . S
C702 O703 1.273 . S
O703 C702 1.273 . S
O704 Zn695 1.977 . S
O704 C697 1.267 . S
C705 O706 1.160 . S
C705 O712 1.185 . S
O706 C705 1.160 . S
O707 Zn708 1.899 . S
O707 C715 1.284 . S
Zn708 O707 1.899 . S
Zn708 O709 2.032 . S
Zn708 O712 2.086 . S
Zn708 O717 1.977 . S
O709 Zn708 2.032 . S
O709 C713 1.278 . S
C710 O711 1.203 . S
C710 O717 1.267 . S
O711 C710 1.203 . S
O712 C705 1.185 . S
O712 Zn708 2.086 . S
C713 O709 1.278 . S
C713 O714 1.211 . S
O714 C713 1.211 . S
C715 O707 1.284 . S
C715 O716 1.273 . S
O716 C715 1.273 . S
O717 Zn708 1.977 . S
O717 C710 1.267 . S
C718 O719 1.160 . S
C718 O725 1.185 . S
O719 C718 1.160 . S
O720 Zn721 1.899 . S
O720 C728 1.284 . S
Zn721 O720 1.899 . S
Zn721 O722 2.032 . S
Zn721 O725 2.086 . S
Zn721 O730 1.977 . S
O722 Zn721 2.032 . S
O722 C726 1.278 . S
C723 O724 1.203 . S
C723 O730 1.267 . S
O724 C723 1.203 . S
O725 C718 1.185 . S
O725 Zn721 2.086 . S
C726 O722 1.278 . S
C726 O727 1.211 . S
O727 C726 1.211 . S
C728 O720 1.284 . S
C728 O729 1.273 . S
O729 C728 1.273 . S
O730 Zn721 1.977 . S
O730 C723 1.267 . S
C731 O732 1.160 . S
C731 O738 1.185 . S
O732 C731 1.160 . S
O733 Zn734 1.899 . S
O733 C741 1.284 1_565 S
Zn734 O733 1.899 . S
Zn734 O735 2.032 1_565 S
Zn734 O738 2.086 . S
Zn734 O743 1.977 . S
O735 Zn734 2.032 1_545 S
O735 C739 1.278 . S
C736 O737 1.203 1_565 S
C736 O743 1.267 . S
O737 C736 1.203 1_545 S
O738 C731 1.185 . S
O738 Zn734 2.086 . S
C739 O735 1.278 . S
C739 O740 1.211 . S
O740 C739 1.211 . S
C741 O733 1.284 1_545 S
C741 O742 1.273 . S
O742 C741 1.273 . S
O743 Zn734 1.977 . S
O743 C736 1.267 . S
C744 O745 1.160 1_455 S
C744 O751 1.185 . S
O745 C744 1.160 1_655 S
O746 Zn747 1.899 1_655 S
O746 C754 1.284 . S
Zn747 O746 1.899 1_455 S
Zn747 O748 2.034 . S
Zn747 O751 2.086 . S
Zn747 O756 1.977 . S
O748 Zn747 2.034 . S
O748 C752 1.278 . S
C749 O750 1.203 . S
C749 O756 1.267 . S
O750 C749 1.203 . S
O751 C744 1.185 . S
O751 Zn747 2.086 . S
C752 O748 1.278 . S
C752 O753 1.211 . S
O753 C752 1.211 . S
C754 O746 1.284 . S
C754 O755 1.273 . S
O755 C754 1.273 . S
O756 Zn747 1.977 . S
O756 C749 1.267 . S
C757 O758 1.160 . S
C757 O764 1.185 . S
O758 C757 1.160 . S
O759 Zn760 1.899 . S
O759 C767 1.284 . S
Zn760 O759 1.899 . S
Zn760 O761 2.032 . S
Zn760 O764 2.086 . S
Zn760 O769 1.977 . S
O761 Zn760 2.032 . S
O761 C765 1.278 . S
C762 O763 1.203 . S
C762 O769 1.267 . S
O763 C762 1.203 . S
O764 C757 1.185 . S
O764 Zn760 2.086 . S
C765 O761 1.278 . S
C765 O766 1.211 . S
O766 C765 1.211 . S
C767 O759 1.284 . S
C767 O768 1.273 . S
O768 C767 1.273 . S
O769 Zn760 1.977 . S
O769 C762 1.267 . S
C770 O771 1.160 1_455 S
C770 O777 1.185 . S
O771 C770 1.160 1_655 S
O772 Zn773 1.899 1_655 S
O772 C780 1.284 . S
Zn773 O772 1.899 1_455 S
Zn773 O774 2.033 . S
Zn773 O777 2.086 . S
Zn773 O782 1.977 . S
O774 Zn773 2.033 . S
O774 C778 1.278 . S
C775 O776 1.203 . S
C775 O782 1.267 . S
O776 C775 1.203 . S
O777 C770 1.185 . S
O777 Zn773 2.086 . S
C778 O774 1.278 . S
C778 O779 1.211 . S
O779 C778 1.211 . S
C780 O772 1.284 . S
C780 O781 1.273 . S
O781 C780 1.273 . S
O782 Zn773 1.977 . S
O782 C775 1.267 . S
C783 O784 1.160 . S
C783 O790 1.185 . S
O784 C783 1.160 . S
O785 Zn786 1.899 . S
O785 C793 1.284 . S
Zn786 O785 1.899 . S
Zn786 O787 2.032 . S
Zn786 O790 2.086 . S
Zn786 O795 1.977 . S
O787 Zn786 2.032 . S
O787 C791 1.278 . S
C788 O789 1.203 . S
C788 O795 1.267 . S
O789 C788 1.203 . S
O790 C783 1.185 . S
O790 Zn786 2.086 . S
C791 O787 1.278 . S
C791 O792 1.211 . S
O792 C791 1.211 . S
C793 O785 1.284 . S
C793 O794 1.273 . S
O794 C793 1.273 . S
O795 Zn786 1.977 . S
O795 C788 1.267 . S
H796 C802 0.930 . S
H797 C806 0.930 . S
H798 C811 0.929 . S
H799 C809 0.929 . S
H800 C804 0.929 . S
H801 C810 0.929 . S
C802 H796 0.930 . S
C802 C803 1.367 . S
C802 C810 1.378 . S
C803 C802 1.367 . S
C803 C811 1.433 . S
C804 H800 0.929 . S
C804 C806 1.378 . S
C804 C808 1.350 . S
C805 C808 1.463 . S
C805 C810 1.350 . S
C805 N813 1.427 . S
C806 H797 0.930 . S
C806 C804 1.378 . S
C806 C807 1.367 . S
C807 C806 1.367 . S
C807 C809 1.433 . S
C808 C804 1.350 . S
C808 C805 1.463 . S
C808 N812 1.427 . S
C809 H799 0.929 . S
C809 C807 1.433 . S
C809 N812 1.384 . S
C810 H801 0.929 . S
C810 C802 1.378 . S
C810 C805 1.350 . S
C811 H798 0.929 . S
C811 C803 1.433 . S
C811 N813 1.384 . S
N812 C808 1.427 . S
N812 C809 1.384 . S
N813 C805 1.427 . S
N813 C811 1.384 . S
H814 C820 0.930 . S
H815 C824 0.930 . S
H816 C829 0.929 . S
H817 C827 0.929 . S
H818 C822 0.929 . S
H819 C828 0.929 . S
C820 H814 0.930 . S
C820 C821 1.367 . S
C820 C828 1.378 . S
C821 C820 1.367 . S
C821 C829 1.433 . S
C822 H818 0.929 . S
C822 C824 1.378 . S
C822 C826 1.350 . S
C823 C826 1.463 . S
C823 C828 1.350 . S
C823 N831 1.427 . S
C824 H815 0.930 . S
C824 C822 1.378 . S
C824 C825 1.367 . S
C825 C824 1.367 . S
C825 C827 1.433 . S
C826 C822 1.350 . S
C826 C823 1.463 . S
C826 N830 1.427 . S
C827 H817 0.929 . S
C827 C825 1.433 . S
C827 N830 1.384 . S
C828 H819 0.929 . S
C828 C820 1.378 . S
C828 C823 1.350 . S
C829 H816 0.929 . S
C829 C821 1.433 . S
C829 N831 1.384 . S
N830 C826 1.427 . S
N830 C827 1.384 . S
N831 C823 1.427 . S
N831 C829 1.384 . S
H832 C838 0.930 . S
H833 C842 0.930 . S
H834 C847 0.929 . S
H835 C845 0.929 . S
H836 C840 0.929 . S
H837 C846 0.929 . S
C838 H832 0.930 . S
C838 C839 1.367 . S
C838 C846 1.378 . S
C839 C838 1.367 . S
C839 C847 1.433 . S
C840 H836 0.929 . S
C840 C842 1.378 . S
C840 C844 1.350 . S
C841 C844 1.463 . S
C841 C846 1.350 . S
C841 N849 1.427 . S
C842 H833 0.930 . S
C842 C840 1.378 . S
C842 C843 1.367 . S
C843 C842 1.367 . S
C843 C845 1.433 . S
C844 C840 1.350 . S
C844 C841 1.463 . S
C844 N848 1.427 . S
C845 H835 0.929 . S
C845 C843 1.433 . S
C845 N848 1.384 . S
C846 H837 0.929 . S
C846 C838 1.378 . S
C846 C841 1.350 . S
C847 H834 0.929 . S
C847 C839 1.433 . S
C847 N849 1.384 . S
N848 C844 1.427 . S
N848 C845 1.384 . S
N849 C841 1.427 . S
N849 C847 1.384 . S
H850 C856 0.930 . S
H851 C860 0.930 . S
H852 C865 0.929 . S
H853 C863 0.929 . S
H854 C858 0.929 . S
H855 C864 0.929 . S
C856 H850 0.930 . S
C856 C857 1.367 1_545 S
C856 C864 1.378 . S
C857 C856 1.367 1_565 S
C857 C865 1.433 . S
C858 H854 0.929 . S
C858 C860 1.378 . S
C858 C862 1.356 . S
C859 C862 1.464 . S
C859 C864 1.350 1_565 S
C859 N867 1.427 . S
C860 H851 0.930 . S
C860 C858 1.378 . S
C860 C861 1.367 1_565 S
C861 C860 1.367 1_545 S
C861 C863 1.433 . S
C862 C858 1.356 . S
C862 C859 1.464 . S
C862 N866 1.420 1_565 S
C863 H853 0.929 . S
C863 C861 1.433 . S
C863 N866 1.384 . S
C864 H855 0.929 . S
C864 C856 1.378 . S
C864 C859 1.350 1_545 S
C865 H852 0.929 . S
C865 C857 1.433 . S
C865 N867 1.384 . S
N866 C862 1.420 1_545 S
N866 C863 1.384 . S
N867 C859 1.427 . S
N867 C865 1.384 . S
H868 C874 0.930 . S
H869 C878 0.930 . S
H870 C883 0.929 . S
H871 C881 0.929 . S
H872 C876 0.929 . S
H873 C882 0.929 . S
C874 H868 0.930 . S
C874 C875 1.367 . S
C874 C882 1.378 . S
C875 C874 1.367 . S
C875 C883 1.433 . S
C876 H872 0.929 . S
C876 C878 1.378 . S
C876 C880 1.350 . S
C877 C880 1.463 . S
C877 C882 1.350 . S
C877 N885 1.427 . S
C878 H869 0.930 . S
C878 C876 1.378 . S
C878 C879 1.367 . S
C879 C878 1.367 . S
C879 C881 1.433 . S
C880 C876 1.350 . S
C880 C877 1.463 . S
C880 N884 1.427 . S
C881 H871 0.929 . S
C881 C879 1.433 . S
C881 N884 1.384 . S
C882 H873 0.929 . S
C882 C874 1.378 . S
C882 C877 1.350 . S
C883 H870 0.929 . S
C883 C875 1.433 . S
C883 N885 1.384 . S
N884 C880 1.427 . S
N884 C881 1.384 . S
N885 C877 1.427 . S
N885 C883 1.384 . S
H886 C892 0.930 . S
H887 C896 0.930 . S
H888 C901 0.929 . S
H889 C899 0.929 . S
H890 C894 0.929 . S
H891 C900 0.929 . S
C892 H886 0.930 . S
C892 C893 1.367 . S
C892 C900 1.378 . S
C893 C892 1.367 . S
C893 C901 1.433 . S
C894 H890 0.929 . S
C894 C896 1.378 . S
C894 C898 1.350 . S
C895 C898 1.463 . S
C895 C900 1.350 . S
C895 N903 1.427 . S
C896 H887 0.930 . S
C896 C894 1.378 . S
C896 C897 1.367 . S
C897 C896 1.367 . S
C897 C899 1.433 . S
C898 C894 1.350 . S
C898 C895 1.463 . S
C898 N902 1.427 . S
C899 H889 0.929 . S
C899 C897 1.433 . S
C899 N902 1.384 . S
C900 H891 0.929 . S
C900 C892 1.378 . S
C900 C895 1.350 . S
C901 H888 0.929 . S
C901 C893 1.433 . S
C901 N903 1.384 . S
N902 C898 1.427 . S
N902 C899 1.384 . S
N903 C895 1.427 . S
N903 C901 1.384 . S
H904 C910 0.930 . S
H905 C914 0.930 . S
H906 C919 0.929 . S
H907 C917 0.929 . S
H908 C912 0.929 . S
H909 C918 0.929 . S
C910 H904 0.930 . S
C910 C911 1.367 . S
C910 C918 1.378 . S
C911 C910 1.367 . S
C911 C919 1.433 . S
C912 H908 0.929 . S
C912 C914 1.378 . S
C912 C916 1.350 . S
C913 C916 1.463 . S
C913 C918 1.350 . S
C913 N921 1.427 . S
C914 H905 0.930 . S
C914 C912 1.378 . S
C914 C915 1.367 . S
C915 C914 1.367 . S
C915 C917 1.433 . S
C916 C912 1.350 . S
C916 C913 1.463 . S
C916 N920 1.427 . S
C917 H907 0.929 . S
C917 C915 1.433 . S
C917 N920 1.384 . S
C918 H909 0.929 . S
C918 C910 1.378 . S
C918 C913 1.350 . S
C919 H906 0.929 . S
C919 C911 1.433 . S
C919 N921 1.384 . S
N920 C916 1.427 . S
N920 C917 1.384 . S
N921 C913 1.427 . S
N921 C919 1.384 . S
H922 C928 0.930 . S
H923 C932 0.930 . S
H924 C937 0.929 . S
H925 C935 0.929 . S
H926 C930 0.929 . S
H927 C936 0.929 . S
C928 H922 0.930 . S
C928 C929 1.367 . S
C928 C936 1.378 . S
C929 C928 1.367 . S
C929 C937 1.433 1_565 S
C930 H926 0.929 . S
C930 C932 1.378 . S
C930 C934 1.350 1_545 S
C931 C934 1.463 . S
C931 C936 1.350 . S
C931 N939 1.427 1_565 S
C932 H923 0.930 . S
C932 C930 1.378 . S
C932 C933 1.367 1_545 S
C933 C932 1.367 1_565 S
C933 C935 1.433 . S
C934 C930 1.350 1_565 S
C934 C931 1.463 . S
C934 N938 1.427 . S
C935 H925 0.929 . S
C935 C933 1.433 . S
C935 N938 1.384 . S
C936 H927 0.929 . S
C936 C928 1.378 . S
C936 C931 1.350 . S
C937 H924 0.929 . S
C937 C929 1.433 1_545 S
C937 N939 1.384 . S
N938 C934 1.427 . S
N938 C935 1.384 . S
N939 C931 1.427 1_545 S
N939 C937 1.384 . S
H940 C946 0.930 . S
H941 C950 0.930 . S
H942 C955 0.929 . S
H943 C953 0.929 . S
H944 C948 0.929 . S
H945 C954 0.929 . S
C946 H940 0.930 . S
C946 C947 1.367 . S
C946 C954 1.378 . S
C947 C946 1.367 . S
C947 C955 1.433 . S
C948 H944 0.929 . S
C948 C950 1.378 . S
C948 C952 1.350 . S
C949 C952 1.463 . S
C949 C954 1.350 . S
C949 N957 1.427 . S
C950 H941 0.930 . S
C950 C948 1.378 . S
C950 C951 1.367 . S
C951 C950 1.367 . S
C951 C953 1.433 . S
C952 C948 1.350 . S
C952 C949 1.463 . S
C952 N956 1.427 . S
C953 H943 0.929 . S
C953 C951 1.433 . S
C953 N956 1.384 . S
C954 H945 0.929 . S
C954 C946 1.378 . S
C954 C949 1.350 . S
C955 H942 0.929 . S
C955 C947 1.433 . S
C955 N957 1.384 . S
N956 C952 1.427 . S
N956 C953 1.384 . S
N957 C949 1.427 . S
N957 C955 1.384 . S
H958 C964 0.930 . S
H959 C968 0.930 . S
H960 C973 0.929 . S
H961 C971 0.929 . S
H962 C966 0.929 . S
H963 C972 0.929 . S
C964 H958 0.930 . S
C964 C965 1.367 . S
C964 C972 1.378 . S
C965 C964 1.367 . S
C965 C973 1.433 . S
C966 H962 0.929 . S
C966 C968 1.378 . S
C966 C970 1.350 . S
C967 C970 1.463 . S
C967 C972 1.350 . S
C967 N975 1.427 . S
C968 H959 0.930 . S
C968 C966 1.378 . S
C968 C969 1.367 . S
C969 C968 1.367 . S
C969 C971 1.433 . S
C970 C966 1.350 . S
C970 C967 1.463 . S
C970 N974 1.427 . S
C971 H961 0.929 . S
C971 C969 1.433 . S
C971 N974 1.384 . S
C972 H963 0.929 . S
C972 C964 1.378 . S
C972 C967 1.350 . S
C973 H960 0.929 . S
C973 C965 1.433 . S
C973 N975 1.384 . S
N974 C970 1.427 . S
N974 C971 1.384 . S
N975 C967 1.427 . S
N975 C973 1.384 . S
H976 C982 0.930 . S
H977 C986 0.930 . S
H978 C991 0.929 . S
H979 C989 0.929 . S
H980 C984 0.929 . S
H981 C990 0.929 . S
C982 H976 0.930 . S
C982 C983 1.367 . S
C982 C990 1.378 . S
C983 C982 1.367 . S
C983 C991 1.433 . S
C984 H980 0.929 . S
C984 C986 1.378 . S
C984 C988 1.350 . S
C985 C988 1.463 . S
C985 C990 1.350 . S
C985 N993 1.427 . S
C986 H977 0.930 . S
C986 C984 1.378 . S
C986 C987 1.367 . S
C987 C986 1.367 . S
C987 C989 1.433 . S
C988 C984 1.350 . S
C988 C985 1.463 . S
C988 N992 1.427 . S
C989 H979 0.929 . S
C989 C987 1.433 . S
C989 N992 1.384 . S
C990 H981 0.929 . S
C990 C982 1.378 . S
C990 C985 1.350 . S
C991 H978 0.929 . S
C991 C983 1.433 . S
C991 N993 1.384 . S
N992 C988 1.427 . S
N992 C989 1.384 . S
N993 C985 1.427 . S
N993 C991 1.384 . S
H994 C1000 0.930 . S
H995 C1004 0.930 . S
H996 C1009 0.929 . S
H997 C1007 0.929 . S
H998 C1002 0.929 . S
H999 C1008 0.929 . S
C1000 H994 0.930 . S
C1000 C1001 1.367 . S
C1000 C1008 1.378 . S
C1001 C1000 1.367 . S
C1001 C1009 1.433 . S
C1002 H998 0.929 . S
C1002 C1004 1.378 . S
C1002 C1006 1.350 . S
C1003 C1006 1.463 . S
C1003 C1008 1.350 . S
C1003 N1011 1.427 . S
C1004 H995 0.930 . S
C1004 C1002 1.378 . S
C1004 C1005 1.367 . S
C1005 C1004 1.367 . S
C1005 C1007 1.433 . S
C1006 C1002 1.350 . S
C1006 C1003 1.463 . S
C1006 N1010 1.427 . S
C1007 H997 0.929 . S
C1007 C1005 1.433 . S
C1007 N1010 1.384 . S
C1008 H999 0.929 . S
C1008 C1000 1.378 . S
C1008 C1003 1.350 . S
C1009 H996 0.929 . S
C1009 C1001 1.433 . S
C1009 N1011 1.384 . S
N1010 C1006 1.427 . S
N1010 C1007 1.384 . S
N1011 C1003 1.427 . S
N1011 C1009 1.384 . S
H1012 C1018 0.930 . S
H1013 C1022 0.930 . S
H1014 C1027 0.929 . S
H1015 C1025 0.929 . S
H1016 C1020 0.929 . S
H1017 C1026 0.929 . S
C1018 H1012 0.930 . S
C1018 C1019 1.367 . S
C1018 C1026 1.378 . S
C1019 C1018 1.367 . S
C1019 C1027 1.433 . S
C1020 H1016 0.929 . S
C1020 C1022 1.378 . S
C1020 C1024 1.350 . S
C1021 C1024 1.463 . S
C1021 C1026 1.350 . S
C1021 N1029 1.427 . S
C1022 H1013 0.930 . S
C1022 C1020 1.378 . S
C1022 C1023 1.367 . S
C1023 C1022 1.367 . S
C1023 C1025 1.433 . S
C1024 C1020 1.350 . S
C1024 C1021 1.463 . S
C1024 N1028 1.427 . S
C1025 H1015 0.929 . S
C1025 C1023 1.433 . S
C1025 N1028 1.384 . S
C1026 H1017 0.929 . S
C1026 C1018 1.378 . S
C1026 C1021 1.350 . S
C1027 H1014 0.929 . S
C1027 C1019 1.433 . S
C1027 N1029 1.384 . S
N1028 C1024 1.427 . S
N1028 C1025 1.384 . S
N1029 C1021 1.427 . S
N1029 C1027 1.384 . S
H1030 C1036 0.930 . S
H1031 C1040 0.930 . S
H1032 C1045 0.929 . S
H1033 C1043 0.929 . S
H1034 C1038 0.929 . S
H1035 C1044 0.929 . S
C1036 H1030 0.930 . S
C1036 C1037 1.367 . S
C1036 C1044 1.378 . S
C1037 C1036 1.367 . S
C1037 C1045 1.433 . S
C1038 H1034 0.929 . S
C1038 C1040 1.378 . S
C1038 C1042 1.350 . S
C1039 C1042 1.463 . S
C1039 C1044 1.350 . S
C1039 N1047 1.427 . S
C1040 H1031 0.930 . S
C1040 C1038 1.378 . S
C1040 C1041 1.367 . S
C1041 C1040 1.367 . S
C1041 C1043 1.433 . S
C1042 C1038 1.350 . S
C1042 C1039 1.463 . S
C1042 N1046 1.427 . S
C1043 H1033 0.929 . S
C1043 C1041 1.433 . S
C1043 N1046 1.384 . S
C1044 H1035 0.929 . S
C1044 C1036 1.378 . S
C1044 C1039 1.350 . S
C1045 H1032 0.929 . S
C1045 C1037 1.433 . S
C1045 N1047 1.384 . S
N1046 C1042 1.427 . S
N1046 C1043 1.384 . S
N1047 C1039 1.427 . S
N1047 C1045 1.384 . S
H1048 C1054 0.930 . S
H1049 C1058 0.930 . S
H1050 C1063 0.929 . S
H1051 C1061 0.929 . S
H1052 C1056 0.929 . S
H1053 C1062 0.929 . S
C1054 H1048 0.930 . S
C1054 C1055 1.367 . S
C1054 C1062 1.378 . S
C1055 C1054 1.367 . S
C1055 C1063 1.433 . S
C1056 H1052 0.929 . S
C1056 C1058 1.378 . S
C1056 C1060 1.350 . S
C1057 C1060 1.463 . S
C1057 C1062 1.350 . S
C1057 N1065 1.427 . S
C1058 H1049 0.930 . S
C1058 C1056 1.378 . S
C1058 C1059 1.367 . S
C1059 C1058 1.367 . S
C1059 C1061 1.433 . S
C1060 C1056 1.350 . S
C1060 C1057 1.463 . S
C1060 N1064 1.427 . S
C1061 H1051 0.929 . S
C1061 C1059 1.433 . S
C1061 N1064 1.384 . S
C1062 H1053 0.929 . S
C1062 C1054 1.378 . S
C1062 C1057 1.350 . S
C1063 H1050 0.929 . S
C1063 C1055 1.433 . S
C1063 N1065 1.384 . S
N1064 C1060 1.427 . S
N1064 C1061 1.384 . S
N1065 C1057 1.427 . S
N1065 C1063 1.384 . S
H1066 C1072 0.930 1_455 S
H1067 C1076 0.930 . S
H1068 C1081 0.929 . S
H1069 C1079 0.929 . S
H1070 C1074 0.929 . S
H1071 C1080 0.953 . S
C1072 H1066 0.930 1_655 S
C1072 C1073 1.367 . S
C1072 C1080 1.375 1_655 S
C1073 C1072 1.367 . S
C1073 C1081 1.433 . S
C1074 H1070 0.929 . S
C1074 C1076 1.378 . S
C1074 C1078 1.350 . S
C1075 C1078 1.463 . S
C1075 C1080 1.329 1_655 S
C1075 N1083 1.427 . S
C1076 H1067 0.930 . S
C1076 C1074 1.378 . S
C1076 C1077 1.367 . S
C1077 C1076 1.367 . S
C1077 C1079 1.433 1_655 S
C1078 C1074 1.350 . S
C1078 C1075 1.463 . S
C1078 N1082 1.427 1_655 S
C1079 H1069 0.929 . S
C1079 C1077 1.433 1_455 S
C1079 N1082 1.384 . S
C1080 H1071 0.953 . S
C1080 C1072 1.375 1_455 S
C1080 C1075 1.329 1_455 S
C1081 H1068 0.929 . S
C1081 C1073 1.433 . S
C1081 N1083 1.384 . S
N1082 C1078 1.427 1_455 S
N1082 C1079 1.384 . S
N1083 C1075 1.427 . S
N1083 C1081 1.384 . S
H1084 C1090 0.930 . S
H1085 C1094 0.930 . S
H1086 C1099 0.929 . S
H1087 C1097 0.929 . S
H1088 C1092 0.929 . S
H1089 C1098 0.929 . S
C1090 H1084 0.930 . S
C1090 C1091 1.367 . S
C1090 C1098 1.378 . S
C1091 C1090 1.367 . S
C1091 C1099 1.433 . S
C1092 H1088 0.929 . S
C1092 C1094 1.378 . S
C1092 C1096 1.350 . S
C1093 C1096 1.463 . S
C1093 C1098 1.350 . S
C1093 N1101 1.427 . S
C1094 H1085 0.930 . S
C1094 C1092 1.378 . S
C1094 C1095 1.367 . S
C1095 C1094 1.367 . S
C1095 C1097 1.433 . S
C1096 C1092 1.350 . S
C1096 C1093 1.463 . S
C1096 N1100 1.427 . S
C1097 H1087 0.929 . S
C1097 C1095 1.433 . S
C1097 N1100 1.384 . S
C1098 H1089 0.929 . S
C1098 C1090 1.378 . S
C1098 C1093 1.350 . S
C1099 H1086 0.929 . S
C1099 C1091 1.433 . S
C1099 N1101 1.384 . S
N1100 C1096 1.427 . S
N1100 C1097 1.384 . S
N1101 C1093 1.427 . S
N1101 C1099 1.384 . S
H1102 C1108 0.930 . S
H1103 C1112 0.930 . S
H1104 C1117 0.929 . S
H1105 C1115 0.929 . S
H1106 C1110 0.929 . S
H1107 C1116 0.929 . S
C1108 H1102 0.930 . S
C1108 C1109 1.367 . S
C1108 C1116 1.378 . S
C1109 C1108 1.367 . S
C1109 C1117 1.433 . S
C1110 H1106 0.929 . S
C1110 C1112 1.378 . S
C1110 C1114 1.350 . S
C1111 C1114 1.463 . S
C1111 C1116 1.350 . S
C1111 N1119 1.427 . S
C1112 H1103 0.930 . S
C1112 C1110 1.378 . S
C1112 C1113 1.367 . S
C1113 C1112 1.367 . S
C1113 C1115 1.433 . S
C1114 C1110 1.350 . S
C1114 C1111 1.463 . S
C1114 N1118 1.427 . S
C1115 H1105 0.929 . S
C1115 C1113 1.433 . S
C1115 N1118 1.384 . S
C1116 H1107 0.929 . S
C1116 C1108 1.378 . S
C1116 C1111 1.350 . S
C1117 H1104 0.929 . S
C1117 C1109 1.433 . S
C1117 N1119 1.384 . S
N1118 C1114 1.427 . S
N1118 C1115 1.384 . S
N1119 C1111 1.427 . S
N1119 C1117 1.384 . S
H1120 C1126 0.930 . S
H1121 C1130 0.930 . S
H1122 C1135 0.929 . S
H1123 C1133 0.932 . S
H1124 C1128 0.929 . S
H1125 C1134 0.929 . S
C1126 H1120 0.930 . S
C1126 C1127 1.367 . S
C1126 C1134 1.378 . S
C1127 C1126 1.367 . S
C1127 C1135 1.433 . S
C1128 H1124 0.929 . S
C1128 C1130 1.378 . S
C1128 C1132 1.338 1_554 S
C1129 C1132 1.472 . S
C1129 C1134 1.350 . S
C1129 N1137 1.427 . S
C1130 H1121 0.930 . S
C1130 C1128 1.378 . S
C1130 C1131 1.367 . S
C1131 C1130 1.367 . S
C1131 C1133 1.427 1_554 S
C1132 C1128 1.338 1_556 S
C1132 C1129 1.472 . S
C1132 N1136 1.433 . S
C1133 H1123 0.932 . S
C1133 C1131 1.427 1_556 S
C1133 N1136 1.388 . S
C1134 H1125 0.929 . S
C1134 C1126 1.378 . S
C1134 C1129 1.350 . S
C1135 H1122 0.929 . S
C1135 C1127 1.433 . S
C1135 N1137 1.384 . S
N1136 C1132 1.433 . S
N1136 C1133 1.388 . S
N1137 C1129 1.427 . S
N1137 C1135 1.384 . S
H1138 C1144 0.930 . S
H1139 C1148 0.930 . S
H1140 C1153 0.929 . S
H1141 C1151 0.929 . S
H1142 C1146 0.929 . S
H1143 C1152 0.929 . S
C1144 H1138 0.930 . S
C1144 C1145 1.367 . S
C1144 C1152 1.378 . S
C1145 C1144 1.367 . S
C1145 C1153 1.433 . S
C1146 H1142 0.929 . S
C1146 C1148 1.378 . S
C1146 C1150 1.350 . S
C1147 C1150 1.463 . S
C1147 C1152 1.350 . S
C1147 N1155 1.427 . S
C1148 H1139 0.930 . S
C1148 C1146 1.378 . S
C1148 C1149 1.367 . S
C1149 C1148 1.367 . S
C1149 C1151 1.433 . S
C1150 C1146 1.350 . S
C1150 C1147 1.463 . S
C1150 N1154 1.427 . S
C1151 H1141 0.929 . S
C1151 C1149 1.433 . S
C1151 N1154 1.384 . S
C1152 H1143 0.929 . S
C1152 C1144 1.378 . S
C1152 C1147 1.350 . S
C1153 H1140 0.929 . S
C1153 C1145 1.433 . S
C1153 N1155 1.384 . S
N1154 C1150 1.427 . S
N1154 C1151 1.384 . S
N1155 C1147 1.427 . S
N1155 C1153 1.384 . S
H1156 C1162 0.930 . S
H1157 C1166 0.930 . S
H1158 C1171 0.929 . S
H1159 C1169 0.929 . S
H1160 C1164 0.929 . S
H1161 C1170 0.929 . S
C1162 H1156 0.930 . S
C1162 C1163 1.367 . S
C1162 C1170 1.378 . S
C1163 C1162 1.367 . S
C1163 C1171 1.433 . S
C1164 H1160 0.929 . S
C1164 C1166 1.378 . S
C1164 C1168 1.350 . S
C1165 C1168 1.463 . S
C1165 C1170 1.350 . S
C1165 N1173 1.427 . S
C1166 H1157 0.930 . S
C1166 C1164 1.378 . S
C1166 C1167 1.367 . S
C1167 C1166 1.367 . S
C1167 C1169 1.433 . S
C1168 C1164 1.350 . S
C1168 C1165 1.463 . S
C1168 N1172 1.427 . S
C1169 H1159 0.929 . S
C1169 C1167 1.433 . S
C1169 N1172 1.384 . S
C1170 H1161 0.929 . S
C1170 C1162 1.378 . S
C1170 C1165 1.350 . S
C1171 H1158 0.929 . S
C1171 C1163 1.433 . S
C1171 N1173 1.384 . S
N1172 C1168 1.427 . S
N1172 C1169 1.384 . S
N1173 C1165 1.427 . S
N1173 C1171 1.384 . S
H1174 C1180 0.930 . S
H1175 C1184 0.930 . S
H1176 C1189 0.929 . S
H1177 C1187 0.929 . S
H1178 C1182 0.929 . S
H1179 C1188 0.929 . S
C1180 H1174 0.930 . S
C1180 C1181 1.367 . S
C1180 C1188 1.378 . S
C1181 C1180 1.367 . S
C1181 C1189 1.433 . S
C1182 H1178 0.929 . S
C1182 C1184 1.378 . S
C1182 C1186 1.350 . S
C1183 C1186 1.463 . S
C1183 C1188 1.350 . S
C1183 N1191 1.427 . S
C1184 H1175 0.930 . S
C1184 C1182 1.378 . S
C1184 C1185 1.367 . S
C1185 C1184 1.367 . S
C1185 C1187 1.433 . S
C1186 C1182 1.350 . S
C1186 C1183 1.463 . S
C1186 N1190 1.427 . S
C1187 H1177 0.929 . S
C1187 C1185 1.433 . S
C1187 N1190 1.384 . S
C1188 H1179 0.929 . S
C1188 C1180 1.378 . S
C1188 C1183 1.350 . S
C1189 H1176 0.929 . S
C1189 C1181 1.433 . S
C1189 N1191 1.384 . S
N1190 C1186 1.427 . S
N1190 C1187 1.384 . S
N1191 C1183 1.427 . S
N1191 C1189 1.384 . S
H1192 C1198 0.930 . S
H1193 C1202 0.930 . S
H1194 C1207 0.929 . S
H1195 C1205 0.929 . S
H1196 C1200 0.929 . S
H1197 C1206 0.929 . S
C1198 H1192 0.930 . S
C1198 C1199 1.367 . S
C1198 C1206 1.378 . S
C1199 C1198 1.367 . S
C1199 C1207 1.433 . S
C1200 H1196 0.929 . S
C1200 C1202 1.378 . S
C1200 C1204 1.350 . S
C1201 C1204 1.463 . S
C1201 C1206 1.350 . S
C1201 N1209 1.427 . S
C1202 H1193 0.930 . S
C1202 C1200 1.378 . S
C1202 C1203 1.367 . S
C1203 C1202 1.367 . S
C1203 C1205 1.433 . S
C1204 C1200 1.350 . S
C1204 C1201 1.463 . S
C1204 N1208 1.427 . S
C1205 H1195 0.929 . S
C1205 C1203 1.433 . S
C1205 N1208 1.384 . S
C1206 H1197 0.929 . S
C1206 C1198 1.378 . S
C1206 C1201 1.350 . S
C1207 H1194 0.929 . S
C1207 C1199 1.433 . S
C1207 N1209 1.384 . S
N1208 C1204 1.427 . S
N1208 C1205 1.384 . S
N1209 C1201 1.427 . S
N1209 C1207 1.384 . S
H1210 C1216 0.930 . S
H1211 C1220 0.930 . S
H1212 C1225 0.929 . S
H1213 C1223 0.929 . S
H1214 C1218 0.929 . S
H1215 C1224 0.929 . S
C1216 H1210 0.930 . S
C1216 C1217 1.367 . S
C1216 C1224 1.378 . S
C1217 C1216 1.367 . S
C1217 C1225 1.433 . S
C1218 H1214 0.929 . S
C1218 C1220 1.378 . S
C1218 C1222 1.350 . S
C1219 C1222 1.463 . S
C1219 C1224 1.350 . S
C1219 N1227 1.427 . S
C1220 H1211 0.930 . S
C1220 C1218 1.378 . S
C1220 C1221 1.367 . S
C1221 C1220 1.367 . S
C1221 C1223 1.433 . S
C1222 C1218 1.350 . S
C1222 C1219 1.463 . S
C1222 N1226 1.427 . S
C1223 H1213 0.929 . S
C1223 C1221 1.433 . S
C1223 N1226 1.384 . S
C1224 H1215 0.929 . S
C1224 C1216 1.378 . S
C1224 C1219 1.350 . S
C1225 H1212 0.929 . S
C1225 C1217 1.433 . S
C1225 N1227 1.384 . S
N1226 C1222 1.427 . S
N1226 C1223 1.384 . S
N1227 C1219 1.427 . S
N1227 C1225 1.384 . S
H1228 C1234 0.930 . S
H1229 C1238 0.930 . S
H1230 C1243 0.929 . S
H1231 C1241 0.929 . S
H1232 C1236 0.929 . S
H1233 C1242 0.929 . S
C1234 H1228 0.930 . S
C1234 C1235 1.367 . S
C1234 C1242 1.378 . S
C1235 C1234 1.367 . S
C1235 C1243 1.433 . S
C1236 H1232 0.929 . S
C1236 C1238 1.378 . S
C1236 C1240 1.350 . S
C1237 C1240 1.463 . S
C1237 C1242 1.350 . S
C1237 N1245 1.427 . S
C1238 H1229 0.930 . S
C1238 C1236 1.378 . S
C1238 C1239 1.367 . S
C1239 C1238 1.367 . S
C1239 C1241 1.433 . S
C1240 C1236 1.350 . S
C1240 C1237 1.463 . S
C1240 N1244 1.427 . S
C1241 H1231 0.929 . S
C1241 C1239 1.433 . S
C1241 N1244 1.384 . S
C1242 H1233 0.929 . S
C1242 C1234 1.378 . S
C1242 C1237 1.350 . S
C1243 H1230 0.929 . S
C1243 C1235 1.433 . S
C1243 N1245 1.384 . S
N1244 C1240 1.427 . S
N1244 C1241 1.384 . S
N1245 C1237 1.427 . S
N1245 C1243 1.384 . S
H1246 C1252 0.930 . S
H1247 C1256 0.930 . S
H1248 C1261 0.929 . S
H1249 C1259 0.929 . S
H1250 C1254 0.929 . S
H1251 C1260 0.929 . S
C1252 H1246 0.930 . S
C1252 C1253 1.367 . S
C1252 C1260 1.378 . S
C1253 C1252 1.367 . S
C1253 C1261 1.433 . S
C1254 H1250 0.929 . S
C1254 C1256 1.378 . S
C1254 C1258 1.350 . S
C1255 C1258 1.463 . S
C1255 C1260 1.350 . S
C1255 N1263 1.427 . S
C1256 H1247 0.930 . S
C1256 C1254 1.378 . S
C1256 C1257 1.367 . S
C1257 C1256 1.367 . S
C1257 C1259 1.433 . S
C1258 C1254 1.350 . S
C1258 C1255 1.463 . S
C1258 N1262 1.427 . S
C1259 H1249 0.929 . S
C1259 C1257 1.433 . S
C1259 N1262 1.384 . S
C1260 H1251 0.929 . S
C1260 C1252 1.378 . S
C1260 C1255 1.350 . S
C1261 H1248 0.929 . S
C1261 C1253 1.433 . S
C1261 N1263 1.384 . S
N1262 C1258 1.427 . S
N1262 C1259 1.384 . S
N1263 C1255 1.427 . S
N1263 C1261 1.384 . S
H1264 C1270 0.930 . S
H1265 C1274 0.930 . S
H1266 C1279 0.929 . S
H1267 C1277 0.929 . S
H1268 C1272 0.929 . S
H1269 C1278 0.929 . S
C1270 H1264 0.930 . S
C1270 C1271 1.367 . S
C1270 C1278 1.378 . S
C1271 C1270 1.367 . S
C1271 C1279 1.433 . S
C1272 H1268 0.929 . S
C1272 C1274 1.378 . S
C1272 C1276 1.350 . S
C1273 C1276 1.463 . S
C1273 C1278 1.350 . S
C1273 N1281 1.427 . S
C1274 H1265 0.930 . S
C1274 C1272 1.378 . S
C1274 C1275 1.367 . S
C1275 C1274 1.367 . S
C1275 C1277 1.433 . S
C1276 C1272 1.350 . S
C1276 C1273 1.463 . S
C1276 N1280 1.427 . S
C1277 H1267 0.929 . S
C1277 C1275 1.433 . S
C1277 N1280 1.384 . S
C1278 H1269 0.929 . S
C1278 C1270 1.378 . S
C1278 C1273 1.350 . S
C1279 H1266 0.929 . S
C1279 C1271 1.433 . S
C1279 N1281 1.384 . S
N1280 C1276 1.427 . S
N1280 C1277 1.384 . S
N1281 C1273 1.427 . S
N1281 C1279 1.384 . S
H1282 C1288 0.930 . S
H1283 C1292 0.930 . S
H1284 C1297 0.929 . S
H1285 C1295 0.929 . S
H1286 C1290 0.929 . S
H1287 C1296 0.929 . S
C1288 H1282 0.930 . S
C1288 C1289 1.367 . S
C1288 C1296 1.378 . S
C1289 C1288 1.367 . S
C1289 C1297 1.433 . S
C1290 H1286 0.929 . S
C1290 C1292 1.378 . S
C1290 C1294 1.350 . S
C1291 C1294 1.463 . S
C1291 C1296 1.350 . S
C1291 N1299 1.427 . S
C1292 H1283 0.930 . S
C1292 C1290 1.378 . S
C1292 C1293 1.367 . S
C1293 C1292 1.367 . S
C1293 C1295 1.433 . S
C1294 C1290 1.350 . S
C1294 C1291 1.463 . S
C1294 N1298 1.427 . S
C1295 H1285 0.929 . S
C1295 C1293 1.433 . S
C1295 N1298 1.384 . S
C1296 H1287 0.929 . S
C1296 C1288 1.378 . S
C1296 C1291 1.350 . S
C1297 H1284 0.929 . S
C1297 C1289 1.433 . S
C1297 N1299 1.384 . S
N1298 C1294 1.427 . S
N1298 C1295 1.384 . S
N1299 C1291 1.427 . S
N1299 C1297 1.384 . S
H1300 C1306 0.930 . S
H1301 C1310 0.930 . S
H1302 C1315 0.929 . S
H1303 C1313 0.929 . S
H1304 C1308 0.929 . S
H1305 C1314 0.929 . S
C1306 H1300 0.930 . S
C1306 C1307 1.367 . S
C1306 C1314 1.378 . S
C1307 C1306 1.367 . S
C1307 C1315 1.433 . S
C1308 H1304 0.929 . S
C1308 C1310 1.378 . S
C1308 C1312 1.350 . S
C1309 C1312 1.463 . S
C1309 C1314 1.350 . S
C1309 N1317 1.427 . S
C1310 H1301 0.930 . S
C1310 C1308 1.378 . S
C1310 C1311 1.367 . S
C1311 C1310 1.367 . S
C1311 C1313 1.433 . S
C1312 C1308 1.350 . S
C1312 C1309 1.463 . S
C1312 N1316 1.427 . S
C1313 H1303 0.929 . S
C1313 C1311 1.433 . S
C1313 N1316 1.384 . S
C1314 H1305 0.929 . S
C1314 C1306 1.378 . S
C1314 C1309 1.350 . S
C1315 H1302 0.929 . S
C1315 C1307 1.433 . S
C1315 N1317 1.384 . S
N1316 C1312 1.427 . S
N1316 C1313 1.384 . S
N1317 C1309 1.427 . S
N1317 C1315 1.384 . S
H1318 C1324 0.930 . S
H1319 C1328 0.930 1_565 S
H1320 C1333 0.929 . S
H1321 C1331 0.929 . S
H1322 C1326 0.929 1_565 S
H1323 C1332 0.929 . S
C1324 H1318 0.930 . S
C1324 C1325 1.367 . S
C1324 C1332 1.378 . S
C1325 C1324 1.367 . S
C1325 C1333 1.433 . S
C1326 H1322 0.929 1_545 S
C1326 C1328 1.378 . S
C1326 C1330 1.350 . S
C1327 C1330 1.463 . S
C1327 C1332 1.350 . S
C1327 N1335 1.427 . S
C1328 H1319 0.930 1_545 S
C1328 C1326 1.378 . S
C1328 C1329 1.367 . S
C1329 C1328 1.367 . S
C1329 C1331 1.433 . S
C1330 C1326 1.350 . S
C1330 C1327 1.463 . S
C1330 N1334 1.427 . S
C1331 H1321 0.929 . S
C1331 C1329 1.433 . S
C1331 N1334 1.384 . S
C1332 H1323 0.929 . S
C1332 C1324 1.378 . S
C1332 C1327 1.350 . S
C1333 H1320 0.929 . S
C1333 C1325 1.433 . S
C1333 N1335 1.384 . S
N1334 C1330 1.427 . S
N1334 C1331 1.384 . S
N1335 C1327 1.427 . S
N1335 C1333 1.384 . S
H1336 C1342 0.930 . S
H1337 C1346 0.930 . S
H1338 C1351 0.929 . S
H1339 C1349 0.929 . S
H1340 C1344 0.929 . S
H1341 C1350 0.929 . S
C1342 H1336 0.930 . S
C1342 C1343 1.367 . S
C1342 C1350 1.378 . S
C1343 C1342 1.367 . S
C1343 C1351 1.433 . S
C1344 H1340 0.929 . S
C1344 C1346 1.378 . S
C1344 C1348 1.350 . S
C1345 C1348 1.463 . S
C1345 C1350 1.350 . S
C1345 N1353 1.427 . S
C1346 H1337 0.930 . S
C1346 C1344 1.378 . S
C1346 C1347 1.367 . S
C1347 C1346 1.367 . S
C1347 C1349 1.433 . S
C1348 C1344 1.350 . S
C1348 C1345 1.463 . S
C1348 N1352 1.427 . S
C1349 H1339 0.929 . S
C1349 C1347 1.433 . S
C1349 N1352 1.384 . S
C1350 H1341 0.929 . S
C1350 C1342 1.378 . S
C1350 C1345 1.350 . S
C1351 H1338 0.929 . S
C1351 C1343 1.433 . S
C1351 N1353 1.384 . S
N1352 C1348 1.427 . S
N1352 C1349 1.384 . S
N1353 C1345 1.427 . S
N1353 C1351 1.384 . S
H1354 C1360 0.930 . S
H1355 C1364 0.930 . S
H1356 C1369 0.929 . S
H1357 C1367 0.929 . S
H1358 C1362 0.929 . S
H1359 C1368 0.929 . S
C1360 H1354 0.930 . S
C1360 C1361 1.367 . S
C1360 C1368 1.378 . S
C1361 C1360 1.367 . S
C1361 C1369 1.433 . S
C1362 H1358 0.929 . S
C1362 C1364 1.378 . S
C1362 C1366 1.350 . S
C1363 C1366 1.463 . S
C1363 C1368 1.350 . S
C1363 N1371 1.427 . S
C1364 H1355 0.930 . S
C1364 C1362 1.378 . S
C1364 C1365 1.367 . S
C1365 C1364 1.367 . S
C1365 C1367 1.433 . S
C1366 C1362 1.350 . S
C1366 C1363 1.463 . S
C1366 N1370 1.427 . S
C1367 H1357 0.929 . S
C1367 C1365 1.433 . S
C1367 N1370 1.384 . S
C1368 H1359 0.929 . S
C1368 C1360 1.378 . S
C1368 C1363 1.350 . S
C1369 H1356 0.929 . S
C1369 C1361 1.433 . S
C1369 N1371 1.384 . S
N1370 C1366 1.427 . S
N1370 C1367 1.384 . S
N1371 C1363 1.427 . S
N1371 C1369 1.384 . S
H1372 C1378 0.930 . S
H1373 C1382 0.930 . S
H1374 C1387 0.929 . S
H1375 C1385 0.929 . S
H1376 C1380 0.929 . S
H1377 C1386 0.929 . S
C1378 H1372 0.930 . S
C1378 C1379 1.367 . S
C1378 C1386 1.378 . S
C1379 C1378 1.367 . S
C1379 C1387 1.433 . S
C1380 H1376 0.929 . S
C1380 C1382 1.378 . S
C1380 C1384 1.350 . S
C1381 C1384 1.463 . S
C1381 C1386 1.350 . S
C1381 N1389 1.427 . S
C1382 H1373 0.930 . S
C1382 C1380 1.378 . S
C1382 C1383 1.367 . S
C1383 C1382 1.367 . S
C1383 C1385 1.433 . S
C1384 C1380 1.350 . S
C1384 C1381 1.463 . S
C1384 N1388 1.427 . S
C1385 H1375 0.929 . S
C1385 C1383 1.433 . S
C1385 N1388 1.384 . S
C1386 H1377 0.929 . S
C1386 C1378 1.378 . S
C1386 C1381 1.350 . S
C1387 H1374 0.929 . S
C1387 C1379 1.433 . S
C1387 N1389 1.384 . S
N1388 C1384 1.427 . S
N1388 C1385 1.384 . S
N1389 C1381 1.427 . S
N1389 C1387 1.384 . S
H1390 C1396 0.930 . S
H1391 C1400 0.934 . S
H1392 C1405 0.929 . S
H1393 C1403 0.929 . S
H1394 C1398 0.929 . S
H1395 C1404 0.929 . S
C1396 H1390 0.930 . S
C1396 C1397 1.367 . S
C1396 C1404 1.378 . S
C1397 C1396 1.367 . S
C1397 C1405 1.433 . S
C1398 H1394 0.929 . S
C1398 C1400 1.376 1_655 S
C1398 C1402 1.350 . S
C1399 C1402 1.463 . S
C1399 C1404 1.350 . S
C1399 N1407 1.427 . S
C1400 H1391 0.934 . S
C1400 C1398 1.376 1_455 S
C1400 C1401 1.365 1_455 S
C1401 C1400 1.365 1_655 S
C1401 C1403 1.433 . S
C1402 C1398 1.350 . S
C1402 C1399 1.463 . S
C1402 N1406 1.427 . S
C1403 H1393 0.929 . S
C1403 C1401 1.433 . S
C1403 N1406 1.384 . S
C1404 H1395 0.929 . S
C1404 C1396 1.378 . S
C1404 C1399 1.350 . S
C1405 H1392 0.929 . S
C1405 C1397 1.433 . S
C1405 N1407 1.384 . S
N1406 C1402 1.427 . S
N1406 C1403 1.384 . S
N1407 C1399 1.427 . S
N1407 C1405 1.384 . S
H1408 C1414 0.930 . S
H1409 C1418 0.930 . S
H1410 C1423 0.929 . S
H1411 C1421 0.929 . S
H1412 C1416 0.929 . S
H1413 C1422 0.929 . S
C1414 H1408 0.930 . S
C1414 C1415 1.367 . S
C1414 C1422 1.378 . S
C1415 C1414 1.367 . S
C1415 C1423 1.433 . S
C1416 H1412 0.929 . S
C1416 C1418 1.378 . S
C1416 C1420 1.350 . S
C1417 C1420 1.463 . S
C1417 C1422 1.350 . S
C1417 N1425 1.427 . S
C1418 H1409 0.930 . S
C1418 C1416 1.378 . S
C1418 C1419 1.367 . S
C1419 C1418 1.367 . S
C1419 C1421 1.433 . S
C1420 C1416 1.350 . S
C1420 C1417 1.463 . S
C1420 N1424 1.427 . S
C1421 H1411 0.929 . S
C1421 C1419 1.433 . S
C1421 N1424 1.384 . S
C1422 H1413 0.929 . S
C1422 C1414 1.378 . S
C1422 C1417 1.350 . S
C1423 H1410 0.929 . S
C1423 C1415 1.433 . S
C1423 N1425 1.384 . S
N1424 C1420 1.427 . S
N1424 C1421 1.384 . S
N1425 C1417 1.427 . S
N1425 C1423 1.384 . S
H1426 C1432 0.930 . S
H1427 C1436 0.930 . S
H1428 C1441 0.929 . S
H1429 C1439 0.929 . S
H1430 C1434 0.929 . S
H1431 C1440 0.929 . S
C1432 H1426 0.930 . S
C1432 C1433 1.367 . S
C1432 C1440 1.378 . S
C1433 C1432 1.367 . S
C1433 C1441 1.433 . S
C1434 H1430 0.929 . S
C1434 C1436 1.378 . S
C1434 C1438 1.350 . S
C1435 C1438 1.463 . S
C1435 C1440 1.350 . S
C1435 N1443 1.427 . S
C1436 H1427 0.930 . S
C1436 C1434 1.378 . S
C1436 C1437 1.367 . S
C1437 C1436 1.367 . S
C1437 C1439 1.433 . S
C1438 C1434 1.350 . S
C1438 C1435 1.463 . S
C1438 N1442 1.427 . S
C1439 H1429 0.929 . S
C1439 C1437 1.433 . S
C1439 N1442 1.384 . S
C1440 H1431 0.929 . S
C1440 C1432 1.378 . S
C1440 C1435 1.350 . S
C1441 H1428 0.929 . S
C1441 C1433 1.433 . S
C1441 N1443 1.384 . S
N1442 C1438 1.427 . S
N1442 C1439 1.384 . S
N1443 C1435 1.427 . S
N1443 C1441 1.384 . S
H1444 C1450 0.930 . S
H1445 C1454 0.930 . S
H1446 C1459 0.929 . S
H1447 C1457 0.929 . S
H1448 C1452 0.929 . S
H1449 C1458 0.929 . S
C1450 H1444 0.930 . S
C1450 C1451 1.367 . S
C1450 C1458 1.378 . S
C1451 C1450 1.367 . S
C1451 C1459 1.433 . S
C1452 H1448 0.929 . S
C1452 C1454 1.378 . S
C1452 C1456 1.350 . S
C1453 C1456 1.463 . S
C1453 C1458 1.350 . S
C1453 N1461 1.427 . S
C1454 H1445 0.930 . S
C1454 C1452 1.378 . S
C1454 C1455 1.367 . S
C1455 C1454 1.367 . S
C1455 C1457 1.433 . S
C1456 C1452 1.350 . S
C1456 C1453 1.463 . S
C1456 N1460 1.427 . S
C1457 H1447 0.929 . S
C1457 C1455 1.433 . S
C1457 N1460 1.384 . S
C1458 H1449 0.929 . S
C1458 C1450 1.378 . S
C1458 C1453 1.350 . S
C1459 H1446 0.929 . S
C1459 C1451 1.433 . S
C1459 N1461 1.384 . S
N1460 C1456 1.427 . S
N1460 C1457 1.384 . S
N1461 C1453 1.427 . S
N1461 C1459 1.384 . S
H1462 C1468 0.930 . S
H1463 C1472 0.930 . S
H1464 C1477 0.929 . S
H1465 C1475 0.929 . S
H1466 C1470 0.929 . S
H1467 C1476 0.929 . S
C1468 H1462 0.930 . S
C1468 C1469 1.367 . S
C1468 C1476 1.378 . S
C1469 C1468 1.367 . S
C1469 C1477 1.433 . S
C1470 H1466 0.929 . S
C1470 C1472 1.378 . S
C1470 C1474 1.350 . S
C1471 C1474 1.463 . S
C1471 C1476 1.350 . S
C1471 N1479 1.427 . S
C1472 H1463 0.930 . S
C1472 C1470 1.378 . S
C1472 C1473 1.367 . S
C1473 C1472 1.367 . S
C1473 C1475 1.433 . S
C1474 C1470 1.350 . S
C1474 C1471 1.463 . S
C1474 N1478 1.427 . S
C1475 H1465 0.929 . S
C1475 C1473 1.433 . S
C1475 N1478 1.384 . S
C1476 H1467 0.929 . S
C1476 C1468 1.378 . S
C1476 C1471 1.350 . S
C1477 H1464 0.929 . S
C1477 C1469 1.433 . S
C1477 N1479 1.384 . S
N1478 C1474 1.427 . S
N1478 C1475 1.384 . S
N1479 C1471 1.427 . S
N1479 C1477 1.384 . S
H1480 C1486 0.930 . S
H1481 C1490 0.930 . S
H1482 C1495 0.929 . S
H1483 C1493 0.929 . S
H1484 C1488 0.929 . S
H1485 C1494 0.929 . S
C1486 H1480 0.930 . S
C1486 C1487 1.367 . S
C1486 C1494 1.378 . S
C1487 C1486 1.367 . S
C1487 C1495 1.433 . S
C1488 H1484 0.929 . S
C1488 C1490 1.378 . S
C1488 C1492 1.350 . S
C1489 C1492 1.463 . S
C1489 C1494 1.350 . S
C1489 N1497 1.427 . S
C1490 H1481 0.930 . S
C1490 C1488 1.378 . S
C1490 C1491 1.367 . S
C1491 C1490 1.367 . S
C1491 C1493 1.433 . S
C1492 C1488 1.350 . S
C1492 C1489 1.463 . S
C1492 N1496 1.427 . S
C1493 H1483 0.929 . S
C1493 C1491 1.433 . S
C1493 N1496 1.384 . S
C1494 H1485 0.929 . S
C1494 C1486 1.378 . S
C1494 C1489 1.350 . S
C1495 H1482 0.929 . S
C1495 C1487 1.433 . S
C1495 N1497 1.384 . S
N1496 C1492 1.427 . S
N1496 C1493 1.384 . S
N1497 C1489 1.427 . S
N1497 C1495 1.384 . S
H1498 C1504 0.930 . S
H1499 C1508 0.930 . S
H1500 C1513 0.929 . S
H1501 C1511 0.929 . S
H1502 C1506 0.929 . S
H1503 C1512 0.929 . S
C1504 H1498 0.930 . S
C1504 C1505 1.367 . S
C1504 C1512 1.378 . S
C1505 C1504 1.367 . S
C1505 C1513 1.433 . S
C1506 H1502 0.929 . S
C1506 C1508 1.378 . S
C1506 C1510 1.350 . S
C1507 C1510 1.463 . S
C1507 C1512 1.350 . S
C1507 N1515 1.427 . S
C1508 H1499 0.930 . S
C1508 C1506 1.378 . S
C1508 C1509 1.367 . S
C1509 C1508 1.367 . S
C1509 C1511 1.433 . S
C1510 C1506 1.350 . S
C1510 C1507 1.463 . S
C1510 N1514 1.427 . S
C1511 H1501 0.929 . S
C1511 C1509 1.433 . S
C1511 N1514 1.384 . S
C1512 H1503 0.929 . S
C1512 C1504 1.378 . S
C1512 C1507 1.350 . S
C1513 H1500 0.929 . S
C1513 C1505 1.433 . S
C1513 N1515 1.384 . S
N1514 C1510 1.427 . S
N1514 C1511 1.384 . S
N1515 C1507 1.427 . S
N1515 C1513 1.384 . S
H1516 C1522 0.930 . S
H1517 C1526 0.930 . S
H1518 C1531 0.929 . S
H1519 C1529 0.929 . S
H1520 C1524 0.929 . S
H1521 C1530 0.929 . S
C1522 H1516 0.930 . S
C1522 C1523 1.367 . S
C1522 C1530 1.378 . S
C1523 C1522 1.367 . S
C1523 C1531 1.433 . S
C1524 H1520 0.929 . S
C1524 C1526 1.378 . S
C1524 C1528 1.350 . S
C1525 C1528 1.463 . S
C1525 C1530 1.350 . S
C1525 N1533 1.427 . S
C1526 H1517 0.930 . S
C1526 C1524 1.378 . S
C1526 C1527 1.367 . S
C1527 C1526 1.367 . S
C1527 C1529 1.433 . S
C1528 C1524 1.350 . S
C1528 C1525 1.463 . S
C1528 N1532 1.427 . S
C1529 H1519 0.929 . S
C1529 C1527 1.433 . S
C1529 N1532 1.384 . S
C1530 H1521 0.929 . S
C1530 C1522 1.378 . S
C1530 C1525 1.350 . S
C1531 H1518 0.929 . S
C1531 C1523 1.433 . S
C1531 N1533 1.384 . S
N1532 C1528 1.427 . S
N1532 C1529 1.384 . S
N1533 C1525 1.427 . S
N1533 C1531 1.384 . S
H1534 C1540 0.930 . S
H1535 C1544 0.930 . S
H1536 C1549 0.929 . S
H1537 C1547 0.929 . S
H1538 C1542 0.929 . S
H1539 C1548 0.929 . S
C1540 H1534 0.930 . S
C1540 C1541 1.367 . S
C1540 C1548 1.378 . S
C1541 C1540 1.367 . S
C1541 C1549 1.433 . S
C1542 H1538 0.929 . S
C1542 C1544 1.378 . S
C1542 C1546 1.350 . S
C1543 C1546 1.463 . S
C1543 C1548 1.350 . S
C1543 N1551 1.427 . S
C1544 H1535 0.930 . S
C1544 C1542 1.378 . S
C1544 C1545 1.367 . S
C1545 C1544 1.367 . S
C1545 C1547 1.433 . S
C1546 C1542 1.350 . S
C1546 C1543 1.463 . S
C1546 N1550 1.427 . S
C1547 H1537 0.929 . S
C1547 C1545 1.433 . S
C1547 N1550 1.384 . S
C1548 H1539 0.929 . S
C1548 C1540 1.378 . S
C1548 C1543 1.350 . S
C1549 H1536 0.929 . S
C1549 C1541 1.433 . S
C1549 N1551 1.384 . S
N1550 C1546 1.427 . S
N1550 C1547 1.384 . S
N1551 C1543 1.427 . S
N1551 C1549 1.384 . S
H1552 C1558 0.930 . S
H1553 C1562 0.930 . S
H1554 C1567 0.929 . S
H1555 C1565 0.929 . S
H1556 C1560 0.929 . S
H1557 C1566 0.929 . S
C1558 H1552 0.930 . S
C1558 C1559 1.367 . S
C1558 C1566 1.378 . S
C1559 C1558 1.367 . S
C1559 C1567 1.433 . S
C1560 H1556 0.929 . S
C1560 C1562 1.378 . S
C1560 C1564 1.350 . S
C1561 C1564 1.463 . S
C1561 C1566 1.350 . S
C1561 N1569 1.427 . S
C1562 H1553 0.930 . S
C1562 C1560 1.378 . S
C1562 C1563 1.367 . S
C1563 C1562 1.367 . S
C1563 C1565 1.433 . S
C1564 C1560 1.350 . S
C1564 C1561 1.463 . S
C1564 N1568 1.427 . S
C1565 H1555 0.929 . S
C1565 C1563 1.433 . S
C1565 N1568 1.384 . S
C1566 H1557 0.929 . S
C1566 C1558 1.378 . S
C1566 C1561 1.350 . S
C1567 H1554 0.929 . S
C1567 C1559 1.433 . S
C1567 N1569 1.384 . S
N1568 C1564 1.427 . S
N1568 C1565 1.384 . S
N1569 C1561 1.427 . S
N1569 C1567 1.384 . S
H1570 C1576 0.930 . S
H1571 C1580 0.930 . S
H1572 C1585 0.929 . S
H1573 C1583 0.929 . S
H1574 C1578 0.929 . S
H1575 C1584 0.929 . S
C1576 H1570 0.930 . S
C1576 C1577 1.367 . S
C1576 C1584 1.378 . S
C1577 C1576 1.367 . S
C1577 C1585 1.433 . S
C1578 H1574 0.929 . S
C1578 C1580 1.378 . S
C1578 C1582 1.350 . S
C1579 C1582 1.463 . S
C1579 C1584 1.350 . S
C1579 N1587 1.427 . S
C1580 H1571 0.930 . S
C1580 C1578 1.378 . S
C1580 C1581 1.367 . S
C1581 C1580 1.367 . S
C1581 C1583 1.433 . S
C1582 C1578 1.350 . S
C1582 C1579 1.463 . S
C1582 N1586 1.427 . S
C1583 H1573 0.929 . S
C1583 C1581 1.433 . S
C1583 N1586 1.384 . S
C1584 H1575 0.929 . S
C1584 C1576 1.378 . S
C1584 C1579 1.350 . S
C1585 H1572 0.929 . S
C1585 C1577 1.433 . S
C1585 N1587 1.384 . S
N1586 C1582 1.427 . S
N1586 C1583 1.384 . S
N1587 C1579 1.427 . S
N1587 C1585 1.384 . S
H1588 C1594 0.930 . S
H1589 C1598 0.930 . S
H1590 C1603 0.929 1_554 S
H1591 C1601 0.929 . S
H1592 C1596 0.929 . S
H1593 C1602 0.929 . S
C1594 H1588 0.930 . S
C1594 C1595 1.367 . S
C1594 C1602 1.378 . S
C1595 C1594 1.367 . S
C1595 C1603 1.433 . S
C1596 H1592 0.929 . S
C1596 C1598 1.378 . S
C1596 C1600 1.350 1_554 S
C1597 C1600 1.463 . S
C1597 C1602 1.350 . S
C1597 N1605 1.427 . S
C1598 H1589 0.930 . S
C1598 C1596 1.378 . S
C1598 C1599 1.367 1_554 S
C1599 C1598 1.367 1_556 S
C1599 C1601 1.433 . S
C1600 C1596 1.350 1_556 S
C1600 C1597 1.463 . S
C1600 N1604 1.427 . S
C1601 H1591 0.929 . S
C1601 C1599 1.433 . S
C1601 N1604 1.384 . S
C1602 H1593 0.929 . S
C1602 C1594 1.378 . S
C1602 C1597 1.350 . S
C1603 H1590 0.929 1_556 S
C1603 C1595 1.433 . S
C1603 N1605 1.384 . S
N1604 C1600 1.427 . S
N1604 C1601 1.384 . S
N1605 C1597 1.427 . S
N1605 C1603 1.384 . S
H1606 C1612 0.930 . S
H1607 C1616 0.930 . S
H1608 C1621 0.929 . S
H1609 C1619 0.929 . S
H1610 C1614 0.929 . S
H1611 C1620 0.929 . S
C1612 H1606 0.930 . S
C1612 C1613 1.367 . S
C1612 C1620 1.378 . S
C1613 C1612 1.367 . S
C1613 C1621 1.433 . S
C1614 H1610 0.929 . S
C1614 C1616 1.378 . S
C1614 C1618 1.350 . S
C1615 C1618 1.463 . S
C1615 C1620 1.350 . S
C1615 N1623 1.427 . S
C1616 H1607 0.930 . S
C1616 C1614 1.378 . S
C1616 C1617 1.367 . S
C1617 C1616 1.367 . S
C1617 C1619 1.433 . S
C1618 C1614 1.350 . S
C1618 C1615 1.463 . S
C1618 N1622 1.427 . S
C1619 H1609 0.929 . S
C1619 C1617 1.433 . S
C1619 N1622 1.384 . S
C1620 H1611 0.929 . S
C1620 C1612 1.378 . S
C1620 C1615 1.350 . S
C1621 H1608 0.929 . S
C1621 C1613 1.433 . S
C1621 N1623 1.384 . S
N1622 C1618 1.427 . S
N1622 C1619 1.384 . S
N1623 C1615 1.427 . S
N1623 C1621 1.384 . S
H1624 C1630 0.930 . S
H1625 C1634 0.930 . S
H1626 C1639 0.929 1_556 S
H1627 C1637 0.929 . S
H1628 C1632 0.929 . S
H1629 C1638 0.929 . S
C1630 H1624 0.930 . S
C1630 C1631 1.367 . S
C1630 C1638 1.378 . S
C1631 C1630 1.367 . S
C1631 C1639 1.433 . S
C1632 H1628 0.929 . S
C1632 C1634 1.378 . S
C1632 C1636 1.350 1_556 S
C1633 C1636 1.463 . S
C1633 C1638 1.350 . S
C1633 N1641 1.427 . S
C1634 H1625 0.930 . S
C1634 C1632 1.378 . S
C1634 C1635 1.367 1_556 S
C1635 C1634 1.367 1_554 S
C1635 C1637 1.433 . S
C1636 C1632 1.350 1_554 S
C1636 C1633 1.463 . S
C1636 N1640 1.427 . S
C1637 H1627 0.929 . S
C1637 C1635 1.433 . S
C1637 N1640 1.384 . S
C1638 H1629 0.929 . S
C1638 C1630 1.378 . S
C1638 C1633 1.350 . S
C1639 H1626 0.929 1_554 S
C1639 C1631 1.433 . S
C1639 N1641 1.384 . S
N1640 C1636 1.427 . S
N1640 C1637 1.384 . S
N1641 C1633 1.427 . S
N1641 C1639 1.384 . S
H1642 C1648 0.930 . S
H1643 C1652 0.930 . S
H1644 C1657 0.929 . S
H1645 C1655 0.966 . S
H1646 C1650 0.929 . S
H1647 C1656 0.929 . S
C1648 H1642 0.930 . S
C1648 C1649 1.367 . S
C1648 C1656 1.378 . S
C1649 C1648 1.367 . S
C1649 C1657 1.433 . S
C1650 H1646 0.929 . S
C1650 C1652 1.378 . S
C1650 C1654 1.350 . S
C1651 C1654 1.463 . S
C1651 C1656 1.350 . S
C1651 N1659 1.427 . S
C1652 H1643 0.930 . S
C1652 C1650 1.378 . S
C1652 C1653 1.367 . S
C1653 C1652 1.367 . S
C1653 C1655 1.433 . S
C1654 C1650 1.350 . S
C1654 C1651 1.463 . S
C1654 N1658 1.427 . S
C1655 H1645 0.966 . S
C1655 C1653 1.433 . S
C1655 N1658 1.384 . S
C1656 H1647 0.929 . S
C1656 C1648 1.378 . S
C1656 C1651 1.350 . S
C1657 H1644 0.929 . S
C1657 C1649 1.433 . S
C1657 N1659 1.384 . S
N1658 C1654 1.427 . S
N1658 C1655 1.384 . S
N1659 C1651 1.427 . S
N1659 C1657 1.384 . S
C807 C650 1.402 . S
C803 C202 1.402 . S
C825 C663 1.617 . S
C821 C261 1.627 . S
C839 C282 1.444 . S
C843 C676 1.451 . S
C861 C689 1.524 . S
C857 C162 1.528 . S
C879 C697 1.454 . S
C875 C402 1.472 . S
C897 C710 1.415 . S
C893 C482 1.428 . S
C911 C442 1.517 . S
C915 C723 1.502 . S
C933 C736 1.508 . S
C929 C381 1.524 . S
C947 C461 1.466 . S
C951 C754 1.463 . S
C969 C765 1.489 . S
C965 C362 1.505 . S
C983 C415 1.415 . S
C987 C749 1.382 . S
C1005 C757 1.472 . S
C1001 C495 1.506 . S
C1019 C301 1.530 . S
C1023 C780 1.523 . S
C1037 C175 1.536 . S
C1041 C770 1.499 . S
C1055 C215 1.471 . S
C1059 C775 1.444 . S
C1073 C242 1.543 . S
C1077 C778 1.517 1_655 S
C1091 C141 1.487 . S
C1095 C687 1.457 . S
C1109 C581 1.451 . S
C1113 C679 1.439 . S
C1131 C648 1.509 . S
C1127 C615 1.533 . S
C1149 C653 1.474 . S
C1145 C335 1.500 . S
C1163 C181 1.592 . S
C1167 C700 1.572 . S
C1185 C739 1.486 . S
C1181 C455 1.515 . S
C1203 C692 1.434 . S
C1199 C375 1.464 . S
C1221 C718 1.493 . S
C1217 C501 1.528 . S
C1239 C728 1.404 . S
C1235 C562 1.403 . S
C1253 C621 1.626 . S
C1257 C741 1.623 . S
C1271 C322 1.447 . S
C1275 C702 1.444 . S
C1293 C715 1.528 . S
C1289 C522 1.529 . S
C1307 C122 1.471 . S
C1311 C671 1.451 . S
C1329 C684 1.410 . S
C1325 C2 1.424 . S
C1347 C645 1.497 . S
C1343 C42 1.512 . S
C1365 C658 1.514 . S
C1361 C101 1.522 . S
C1379 C61 1.470 . S
C1383 C767 1.460 . S
C1397 C82 1.510 . S
C1401 C752 1.479 1_655 S
C1415 C135 1.416 . S
C1419 C762 1.394 . S
C1433 C15 1.506 . S
C1437 C744 1.482 . S
C1455 C793 1.523 . S
C1451 C341 1.531 . S
C1473 C783 1.498 . S
C1469 C535 1.536 . S
C1491 C788 1.434 . S
C1487 C575 1.470 . S
C1505 C602 1.540 . S
C1509 C791 1.524 . S
C1523 C421 1.485 . S
C1527 C713 1.466 . S
C1545 C705 1.434 . S
C1541 C221 1.453 . S
C1563 C726 1.509 . S
C1559 C255 1.531 . S
C1581 C731 1.481 . S
C1577 C295 1.503 . S
C1595 C541 1.595 . S
C1599 C674 1.568 . S
C1617 C661 1.490 . S
C1613 C55 1.519 . S
C1631 C95 1.464 . S
C1635 C666 1.435 . S
C1653 C640 1.500 . S
C1649 C21 1.526 . S
