# Generated by pormake.
# Topology dag, (6,3)-cn, num edge types: 1
# Building blocks:
#     Node 0, Type 0, BuildingBlock: MIDCAF_clean_sbu_0, # of connection points: 6
#     Node 1, Type 0, BuildingBlock: MIDCAF_clean_sbu_0, # of connection points: 6
#     Node 2, Type 0, BuildingBlock: MIDCAF_clean_sbu_0, # of connection points: 6
#     Node 3, Type 0, BuildingBlock: MIDCAF_clean_sbu_0, # of connection points: 6
#     Node 4, Type 1, BuildingBlock: OLANEW_clean_sbu_2, # of connection points: 3
#     Node 5, Type 1, BuildingBlock: OLANEW_clean_sbu_2, # of connection points: 3
#     Node 6, Type 1, BuildingBlock: OLANEW_clean_sbu_2, # of connection points: 3
#     Node 7, Type 1, BuildingBlock: OLANEW_clean_sbu_2, # of connection points: 3
#     Node 8, Type 1, BuildingBlock: OLANEW_clean_sbu_2, # of connection points: 3
#     Node 9, Type 1, BuildingBlock: OLANEW_clean_sbu_2, # of connection points: 3
#     Node 10, Type 1, BuildingBlock: OLANEW_clean_sbu_2, # of connection points: 3
#     Node 11, Type 1, BuildingBlock: OLANEW_clean_sbu_2, # of connection points: 3
#     Edge 12, Type (0, 1), BuildingBlock: XIVTED_clean_linker_0, # of connection points: 2
#     Edge 13, Type (0, 1), BuildingBlock: XIVTED_clean_linker_0, # of connection points: 2
#     Edge 14, Type (0, 1), BuildingBlock: XIVTED_clean_linker_0, # of connection points: 2
#     Edge 15, Type (0, 1), BuildingBlock: XIVTED_clean_linker_0, # of connection points: 2
#     Edge 16, Type (0, 1), BuildingBlock: XIVTED_clean_linker_0, # of connection points: 2
#     Edge 17, Type (0, 1), BuildingBlock: XIVTED_clean_linker_0, # of connection points: 2
#     Edge 18, Type (0, 1), BuildingBlock: XIVTED_clean_linker_0, # of connection points: 2
#     Edge 19, Type (0, 1), BuildingBlock: XIVTED_clean_linker_0, # of connection points: 2
#     Edge 20, Type (0, 1), BuildingBlock: XIVTED_clean_linker_0, # of connection points: 2
#     Edge 21, Type (0, 1), BuildingBlock: XIVTED_clean_linker_0, # of connection points: 2
#     Edge 22, Type (0, 1), BuildingBlock: XIVTED_clean_linker_0, # of connection points: 2
#     Edge 23, Type (0, 1), BuildingBlock: XIVTED_clean_linker_0, # of connection points: 2
#     Edge 24, Type (0, 1), BuildingBlock: XIVTED_clean_linker_0, # of connection points: 2
#     Edge 25, Type (0, 1), BuildingBlock: XIVTED_clean_linker_0, # of connection points: 2
#     Edge 26, Type (0, 1), BuildingBlock: XIVTED_clean_linker_0, # of connection points: 2
#     Edge 27, Type (0, 1), BuildingBlock: XIVTED_clean_linker_0, # of connection points: 2
#     Edge 28, Type (0, 1), BuildingBlock: XIVTED_clean_linker_0, # of connection points: 2
#     Edge 29, Type (0, 1), BuildingBlock: XIVTED_clean_linker_0, # of connection points: 2
#     Edge 30, Type (0, 1), BuildingBlock: XIVTED_clean_linker_0, # of connection points: 2
#     Edge 31, Type (0, 1), BuildingBlock: XIVTED_clean_linker_0, # of connection points: 2
#     Edge 32, Type (0, 1), BuildingBlock: XIVTED_clean_linker_0, # of connection points: 2
#     Edge 33, Type (0, 1), BuildingBlock: XIVTED_clean_linker_0, # of connection points: 2
#     Edge 34, Type (0, 1), BuildingBlock: XIVTED_clean_linker_0, # of connection points: 2
#     Edge 35, Type (0, 1), BuildingBlock: XIVTED_clean_linker_0, # of connection points: 2
# Relax obj value: 0.174
# Max RMSD: 0.159
# Mean RMSD: 0.139
data_MOF--net-dag--node1-MIDCAF_clean_sbu_0--node2-OLANEW_clean_sbu_2--edge1-XIVTED_clean_linker_0
_symmetry_space_group_name_H-M    P1
_symmetry_Int_Tables_number       1
_symmetry_cell_setting            triclinic
loop_
_symmetry_equiv_pos_as_xyz
'x, y, z'
_cell_length_a     43.904545
_cell_length_b     41.693259
_cell_length_c     33.23607
_cell_angle_alpha  91.893455
_cell_angle_beta   92.876667
_cell_angle_gamma 90.986975
loop_
_atom_site_label
_atom_site_type_symbol
_atom_site_fract_x
_atom_site_fract_y
_atom_site_fract_z
_atom_type_partial_charge
Zn0 Zn 0.10591 0.8568 0.09867 0.0
Zn1 Zn 0.09528 0.91718 0.96176 0.0
Zn2 Zn 0.10433 0.88696 0.02994 0.0
C3 C 0.11001 0.96486 0.01847 0.0
C4 C 0.04441 0.87914 0.96653 0.0
O5 O 0.14225 0.85219 0.02906 0.0
O6 O 0.13596 0.82439 0.08369 0.0
C7 C 0.12236 0.92213 0.11506 0.0
O8 O 0.1139 0.93982 0.03987 0.0
O9 O 0.09959 0.96186 0.98246 0.0
O10 O 0.05419 0.90017 0.94374 0.0
O11 O 0.05971 0.8726 0.99931 0.0
O12 O 0.12141 0.89524 0.13143 0.0
O13 O 0.11533 0.92438 0.07718 0.0
O14 O 0.0588 0.86555 0.04055 0.0
O15 O 0.0624 0.84321 0.09996 0.0
C16 C 0.0465 0.85035 0.06895 0.0
O17 O 0.1371 0.86552 0.9903 0.0
O18 O 0.13104 0.8958 0.93716 0.0
C19 C 0.15014 0.82926 0.05228 0.0
C20 C 0.14424 0.87298 0.95468 0.0
Zn21 Zn 0.61198 0.58107 0.41676 0.0
Zn22 Zn 0.61651 0.62414 0.55004 0.0
Zn23 Zn 0.61666 0.6081 0.4778 0.0
C24 C 0.61751 0.55501 0.53942 0.0
C25 C 0.565 0.65129 0.51155 0.0
O26 O 0.65366 0.62957 0.44327 0.0
O27 O 0.62616 0.62028 0.38684 0.0
C28 C 0.66786 0.5683 0.4529 0.0
O29 O 0.61381 0.56177 0.50242 0.0
O30 O 0.61933 0.57752 0.56609 0.0
O31 O 0.57681 0.64728 0.54646 0.0
O32 O 0.57743 0.6392 0.48051 0.0
O33 O 0.64578 0.55214 0.4359 0.0
O34 O 0.66379 0.59764 0.4646 0.0
O35 O 0.57607 0.62065 0.4397 0.0
O36 O 0.56682 0.57252 0.41192 0.0
C37 C 0.55861 0.60124 0.41767 0.0
O38 O 0.66146 0.63293 0.48692 0.0
O39 O 0.65525 0.65046 0.5495 0.0
C40 C 0.64773 0.63561 0.40589 0.0
C41 C 0.6712 0.64918 0.51884 0.0
Zn42 Zn 0.89654 0.15311 0.94446 0.0
Zn43 Zn 0.81438 0.12554 0.04544 0.0
Zn44 Zn 0.85649 0.13908 0.99745 0.0
C45 C 0.86847 0.09185 0.06568 0.0
C46 C 0.79475 0.10454 0.96834 0.0
O47 O 0.83126 0.14798 0.93896 0.0
O48 O 0.86758 0.16395 0.89982 0.0
C49 C 0.90449 0.19661 0.01154 0.0
O50 O 0.87383 0.0983 0.02912 0.0
O51 O 0.84521 0.10325 0.08158 0.0
O52 O 0.78992 0.09939 1.0047 0.0
O53 O 0.81565 0.12496 0.95997 0.0
O54 O 0.91601 0.18804 0.97891 0.0
O55 O 0.8803 0.18241 0.02296 0.0
O56 O 0.8867 0.0976 0.99209 0.0
O57 O 0.91565 0.11025 0.94216 0.0
C58 C 0.90706 0.09008 0.96697 0.0
O59 O 0.85281 0.17828 0.04395 0.0
O60 O 0.80478 0.17101 0.05867 0.0
C61 C 0.83971 0.15882 0.90525 0.0
C62 C 0.82894 0.18802 0.06153 0.0
Zn63 Zn 0.3606 0.41 0.65692 0.0
Zn64 Zn 0.36704 0.3673 0.50851 0.0
Zn65 Zn 0.36374 0.38794 0.58307 0.0
C66 C 0.42686 0.3782 0.53759 0.0
C67 C 0.33616 0.42425 0.50479 0.0
O68 O 0.33546 0.35324 0.61569 0.0
O69 O 0.32747 0.38064 0.67219 0.0
C70 C 0.42064 0.39435 0.64835 0.0
O71 O 0.41298 0.38253 0.57059 0.0
O72 O 0.41179 0.37313 0.5046 0.0
O73 O 0.34052 0.39974 0.48263 0.0
O74 O 0.34441 0.42454 0.54259 0.0
O75 O 0.40292 0.40057 0.67618 0.0
O76 O 0.41021 0.39051 0.61153 0.0
O77 O 0.34275 0.43625 0.58267 0.0
O78 O 0.35048 0.45493 0.64551 0.0
C79 C 0.34116 0.4591 0.60958 0.0
O80 O 0.33797 0.34143 0.57573 0.0
O81 O 0.35037 0.32356 0.5154 0.0
C82 C 0.3226 0.35591 0.64968 0.0
C83 C 0.33699 0.31932 0.54759 0.0
O84 O 0.16698 0.06045 0.38025 0.0
Cd85 Cd 0.16479 0.07881 0.45126 0.0
O86 O 0.12533 0.08683 0.36557 0.0
Cd87 Cd 0.08831 0.10143 0.32411 0.0
O88 O 0.05454 0.09625 0.27387 0.0
C89 C 0.03246 0.07638 0.27611 0.0
O90 O 0.02992 0.06045 0.30927 0.0
C91 C 0.14577 0.0675 0.35477 0.0
C92 C 0.20363 0.12929 0.47968 0.0
O93 O 0.21292 0.10031 0.47804 0.0
O94 O 0.17624 0.13459 0.46674 0.0
O95 O 0.21119 0.66567 0.62874 0.0
Cd96 Cd 0.18189 0.71351 0.64373 0.0
O97 O 0.24574 0.69475 0.60039 0.0
Cd98 Cd 0.28738 0.70028 0.56765 0.0
O99 O 0.33213 0.69729 0.54225 0.0
C100 C 0.35326 0.71739 0.55323 0.0
O101 O 0.34751 0.74067 0.57921 0.0
C102 C 0.23599 0.66749 0.61078 0.0
C103 C 0.19136 0.73917 0.72227 0.0
O104 O 0.17192 0.7163 0.71409 0.0
O105 O 0.20687 0.74943 0.6935 0.0
O106 O 0.8225 0.75438 0.0927 0.0
Cd107 Cd 0.77126 0.73257 0.10163 0.0
O108 O 0.80561 0.789 0.0491 0.0
Cd109 Cd 0.80449 0.8273 1.00515 0.0
O110 O 0.79103 0.8715 0.97551 0.0
C111 C 0.80342 0.88289 0.94513 0.0
O112 O 0.82598 0.86749 0.92919 0.0
C113 C 0.82794 0.77678 0.06881 0.0
C114 C 0.75693 0.72214 0.18138 0.0
O115 O 0.77151 0.70123 0.1612 0.0
O116 O 0.74985 0.74829 0.16428 0.0
O117 O 0.75752 0.35792 0.59296 0.0
Cd118 Cd 0.7962 0.31904 0.61165 0.0
O119 O 0.74244 0.35693 0.65477 0.0
Cd120 Cd 0.709 0.36879 0.69871 0.0
O121 O 0.66187 0.38264 0.70239 0.0
C122 C 0.64225 0.36307 0.71469 0.0
O123 O 0.65127 0.33543 0.72845 0.0
C124 C 0.73991 0.36802 0.61957 0.0
C125 C 0.78181 0.28134 0.67624 0.0
O126 O 0.7932 0.30972 0.68207 0.0
O127 O 0.77662 0.2709 0.63979 0.0
O128 O 0.80119 0.36453 0.42535 0.0
Cd129 Cd 0.81372 0.30915 0.40784 0.0
O130 O 0.75822 0.34836 0.44983 0.0
Cd131 Cd 0.71224 0.35407 0.47261 0.0
O132 O 0.66531 0.35647 0.4929 0.0
C133 C 0.64869 0.37989 0.48295 0.0
O134 O 0.65994 0.40189 0.46016 0.0
C135 C 0.7765 0.37113 0.44199 0.0
C136 C 0.81869 0.2985 0.32498 0.0
O137 O 0.79282 0.29681 0.34111 0.0
O138 O 0.84234 0.3055 0.34798 0.0
O139 O 0.24 0.16594 0.97472 0.0
Cd140 Cd 0.26918 0.212 0.95139 0.0
O141 O 0.20781 0.19883 1.00187 0.0
Cd142 Cd 0.1682 0.21303 0.03547 0.0
O143 O 0.12329 0.23004 0.05106 0.0
C144 C 0.10986 0.22171 0.08219 0.0
O145 O 0.12365 0.20243 0.10742 0.0
C146 C 0.21645 0.17028 0.99489 0.0
C147 C 0.26538 0.22567 0.86916 0.0
O148 O 0.28567 0.20674 0.8833 0.0
O149 O 0.24615 0.23698 0.89348 0.0
O150 O 0.41846 0.67811 0.18005 0.0
Cd151 Cd 0.39893 0.68275 0.10982 0.0
O152 O 0.37623 0.66007 0.2053 0.0
Cd153 Cd 0.35223 0.64158 0.25632 0.0
O154 O 0.34208 0.6167 0.31119 0.0
C155 C 0.31965 0.59706 0.31164 0.0
O156 O 0.30173 0.59275 0.27898 0.0
C157 C 0.40454 0.66721 0.20951 0.0
C158 C 0.34402 0.71344 0.09307 0.0
O159 O 0.34456 0.68356 0.10106 0.0
O160 O 0.36943 0.72918 0.0946 0.0
O161 O 0.93781 0.74107 0.73696 0.0
Cd162 Cd 0.93392 0.73512 0.66287 0.0
O163 O 0.91608 0.7878 0.73197 0.0
Cd164 Cd 0.90671 0.83551 0.75722 0.0
O165 O 0.90444 0.87508 0.8015 0.0
C166 C 0.92912 0.88749 0.81704 0.0
O167 O 0.95527 0.87682 0.80507 0.0
C168 C 0.92899 0.76691 0.75372 0.0
C169 C 0.87705 0.71989 0.62488 0.0
O170 O 0.89606 0.69786 0.6336 0.0
O171 O 0.88454 0.74897 0.63525 0.0
H172 H 0.17225 0.92976 0.16586 0.0
H173 H 0.09476 0.0481 0.30903 0.0
H174 H 0.09114 0.97789 0.1242 0.0
H175 H 0.19292 0.04785 0.30938 0.0
H176 H 0.09214 0.02114 0.24281 0.0
H177 H 0.18079 0.97127 0.21938 0.0
C178 C 0.15665 0.94957 0.16753 0.0
C179 C 0.13098 0.95057 0.1408 0.0
C180 C 0.11426 0.02777 0.25684 0.0
C181 C 0.13993 0.99725 0.20259 0.0
C182 C 0.11579 0.04376 0.29442 0.0
C183 C 0.1441 0.0519 0.31394 0.0
C184 C 0.14125 0.01841 0.23936 0.0
C185 C 0.17062 0.04254 0.2951 0.0
C186 C 0.16151 0.97318 0.198 0.0
C187 C 0.11126 0.97648 0.14422 0.0
N188 N 0.16856 0.02595 0.25904 0.0
N189 N 0.11573 0.99847 0.17529 0.0
H190 H 0.51411 0.62824 0.46998 0.0
H191 H 0.40496 0.75266 0.57576 0.0
H192 H 0.54718 0.70661 0.54865 0.0
H193 H 0.37295 0.67159 0.5001 0.0
H194 H 0.45719 0.74121 0.55831 0.0
H195 H 0.46268 0.64916 0.47171 0.0
C196 C 0.51071 0.65068 0.48611 0.0
C197 C 0.535 0.6664 0.50787 0.0
C198 C 0.4387 0.72612 0.54523 0.0
C199 C 0.47586 0.68945 0.51252 0.0
C200 C 0.40886 0.73264 0.55517 0.0
C201 C 0.38456 0.71281 0.53978 0.0
C202 C 0.4443 0.69954 0.51976 0.0
C203 C 0.39098 0.68734 0.51303 0.0
C204 C 0.48121 0.66229 0.48791 0.0
C205 C 0.529 0.69409 0.53098 0.0
N206 N 0.42024 0.68129 0.50416 0.0
N207 N 0.49997 0.70467 0.53291 0.0
H208 H 0.74043 0.07173 0.96407 0.0
H209 H 0.83162 0.92026 0.89097 0.0
H210 H 0.82653 0.07779 0.9077 0.0
H211 H 0.75469 0.91851 0.96668 0.0
H212 H 0.82136 0.97657 0.87713 0.0
H213 H 0.73538 0.01546 0.9418 0.0
C214 C 0.75758 0.06162 0.9453 0.0
C215 C 0.78425 0.07922 0.93853 0.0
C216 C 0.80639 0.96364 0.89614 0.0
C217 C 0.77934 0.0145 0.91455 0.0
C218 C 0.81234 0.93156 0.90422 0.0
C219 C 0.79458 0.91495 0.931 0.0
C220 C 0.78226 0.97906 0.91462 0.0
C221 C 0.76945 0.93056 0.94659 0.0
C222 C 0.75495 0.02931 0.93313 0.0
C223 C 0.80572 0.06498 0.91396 0.0
N224 N 0.76429 0.96178 0.93857 0.0
N225 N 0.80334 0.03308 0.90399 0.0
H226 H 0.4684 0.42203 0.61238 0.0
H227 H 0.59415 0.33058 0.74458 0.0
H228 H 0.44647 0.36035 0.70873 0.0
H229 H 0.61572 0.41027 0.67058 0.0
H230 H 0.5399 0.33938 0.72971 0.0
H231 H 0.52283 0.41609 0.63059 0.0
C232 C 0.47519 0.40708 0.6372 0.0
C233 C 0.45327 0.39114 0.65869 0.0
C234 C 0.55652 0.35508 0.71699 0.0
C235 C 0.51497 0.38455 0.68005 0.0
C236 C 0.58747 0.35006 0.72546 0.0
C237 C 0.60945 0.36971 0.70882 0.0
C238 C 0.54754 0.37966 0.6913 0.0
C239 C 0.59953 0.39462 0.68421 0.0
C240 C 0.50612 0.4039 0.64782 0.0
C241 C 0.4629 0.37272 0.69126 0.0
N242 N 0.56928 0.39872 0.67593 0.0
N243 N 0.49311 0.36968 0.70078 0.0
H244 H 0.68847 0.54236 0.52227 0.0
H245 H 0.79121 0.42246 0.39785 0.0
H246 H 0.71 0.55449 0.39872 0.0
H247 H 0.74521 0.39698 0.50406 0.0
H248 H 0.77471 0.47786 0.40737 0.0
H249 H 0.72301 0.49677 0.52561 0.0
C250 C 0.70166 0.53632 0.49649 0.0
C251 C 0.6967 0.55202 0.46023 0.0
C252 C 0.76838 0.46018 0.42876 0.0
C253 C 0.73548 0.49992 0.46338 0.0
C254 C 0.77775 0.4286 0.42333 0.0
C255 C 0.76858 0.40497 0.44948 0.0
C256 C 0.75003 0.46822 0.46084 0.0
C257 C 0.75155 0.41425 0.48231 0.0
C258 C 0.72102 0.51011 0.49821 0.0
C259 C 0.71362 0.54303 0.42729 0.0
N260 N 0.74256 0.44514 0.48692 0.0
N261 N 0.73204 0.51724 0.42945 0.0
H262 H 0.93125 0.25408 0.99735 0.0
H263 H 0.06987 0.19817 0.13545 0.0
H264 H 0.92463 0.18247 0.08709 0.0
H265 H 0.07601 0.26435 0.0389 0.0
H266 H 0.01459 0.20492 0.13325 0.0
H267 H 0.98035 0.27206 0.02873 0.0
C268 C 0.93946 0.24326 0.02494 0.0
C269 C 0.92399 0.21678 0.03967 0.0
C270 C 0.0281 0.21847 0.1131 0.0
C271 C 0.98084 0.23587 0.07439 0.0
C272 C 0.0597 0.2146 0.11431 0.0
C273 C 0.07751 0.23005 0.08657 0.0
C274 C 0.01426 0.23787 0.08388 0.0
C275 C 0.0631 0.25135 0.06022 0.0
C276 C 0.96772 0.25317 0.04255 0.0
C277 C 0.93578 0.20318 0.07506 0.0
N278 N 0.03231 0.25421 0.05908 0.0
N279 N 0.96396 0.21227 0.0906 0.0
H280 H 0.29255 0.42825 0.44424 0.0
H281 H 0.3521 0.60001 0.3845 0.0
H282 H 0.35627 0.48603 0.51961 0.0
H283 H 0.27878 0.5475 0.31898 0.0
H284 H 0.3497 0.56184 0.43856 0.0
H285 H 0.28244 0.47458 0.40278 0.0
C286 C 0.30386 0.45099 0.45256 0.0
C287 C 0.32514 0.45345 0.48541 0.0
C288 C 0.33386 0.5589 0.41261 0.0
C289 C 0.31445 0.50635 0.4375 0.0
C290 C 0.33526 0.58067 0.38165 0.0
C291 C 0.31592 0.57668 0.34682 0.0
C292 C 0.3132 0.53275 0.40855 0.0
C293 C 0.29437 0.55135 0.34503 0.0
C294 C 0.29816 0.47742 0.42885 0.0
C295 C 0.33938 0.48331 0.49481 0.0
N296 N 0.29387 0.53013 0.37517 0.0
N297 N 0.33414 0.50851 0.47058 0.0
H298 H 0.98935 0.898 0.93479 0.0
H299 H 0.89653 0.79975 0.80995 0.0
H300 H 0.04132 0.81407 0.96218 0.0
H301 H 0.98137 0.75122 0.79558 0.0
H302 H 0.91712 0.82341 0.87439 0.0
H303 H 0.95265 0.86415 0.89432 0.0
C304 C 0.9925 0.87228 0.93306 0.0
C305 C 0.0183 0.85871 0.9516 0.0
C306 C 0.93116 0.80744 0.85723 0.0
C307 C 0.97736 0.82012 0.90375 0.0
C308 C 0.91949 0.79407 0.82041 0.0
C309 C 0.93787 0.77484 0.79652 0.0
C310 C 0.96133 0.80121 0.87032 0.0
C311 C 0.9667 0.76655 0.81264 0.0
C312 C 0.97159 0.85294 0.9099 0.0
C313 C 0.02156 0.82533 0.94833 0.0
N314 N 0.97776 0.78022 0.84826 0.0
N315 N 0.00187 0.80727 0.92367 0.0
H316 H 0.96047 0.0686 0.93858 0.0
H317 H 0.88067 0.90678 0.8598 0.0
H318 H 0.87454 0.03553 0.98094 0.0
H319 H 0.97621 0.92703 0.84601 0.0
H320 H 0.87945 0.95176 0.90885 0.0
H321 H 0.96918 0.01473 0.91097 0.0
C322 C 0.94384 0.04972 0.94305 0.0
C323 C 0.91662 0.05655 0.96165 0.0
C324 C 0.90073 0.94614 0.89538 0.0
C325 C 0.9259 0.99517 0.929 0.0
C326 C 0.90138 0.92067 0.86713 0.0
C327 C 0.92842 0.91359 0.84819 0.0
C328 C 0.92717 0.96498 0.90431 0.0
C329 C 0.95475 0.93196 0.85943 0.0
C330 C 0.94874 0.01899 0.92713 0.0
C331 C 0.89584 0.03125 0.96677 0.0
N332 N 0.95337 0.95711 0.88632 0.0
N333 N 0.90056 0.00181 0.94962 0.0
H334 H 0.47056 0.34478 0.58002 0.0
H335 H 0.60697 0.42579 0.46463 0.0
H336 H 0.45876 0.41743 0.49168 0.0
H337 H 0.61815 0.3396 0.53188 0.0
H338 H 0.55407 0.42794 0.48343 0.0
H339 H 0.52605 0.34719 0.57161 0.0
C340 C 0.47977 0.36148 0.55929 0.0
C341 C 0.46032 0.38111 0.53668 0.0
C342 C 0.56807 0.40856 0.49418 0.0
C343 C 0.52322 0.38382 0.52657 0.0
C344 C 0.59835 0.40732 0.48345 0.0
C345 C 0.61698 0.3822 0.49617 0.0
C346 C 0.55614 0.38454 0.51791 0.0
C347 C 0.60452 0.35919 0.52096 0.0
C348 C 0.5113 0.36275 0.55432 0.0
C349 C 0.47313 0.40204 0.50978 0.0
N350 N 0.57483 0.3608 0.53085 0.0
N351 N 0.50371 0.40286 0.5055 0.0
H352 H 0.0825 0.02161 0.00567 0.0
H353 H 0.24014 0.11426 0.02088 0.0
H354 H 0.16314 0.98117 0.06143 0.0
H355 H 0.15469 0.16216 1.0013 0.0
H356 H 0.21221 0.06636 0.04042 0.0
H357 H 0.10722 0.07459 0.01063 0.0
C358 C 0.10515 0.02413 0.02008 0.0
C359 C 0.12092 0.99705 0.03294 0.0
C360 C 0.19958 0.08755 0.03262 0.0
C361 C 0.14986 0.05738 0.03727 0.0
C362 C 0.21549 0.1148 0.02118 0.0
C363 C 0.19971 0.14229 0.00969 0.0
C364 C 0.16756 0.08749 0.03167 0.0
C365 C 0.1678 0.14175 0.01069 0.0
C366 C 0.11934 0.05435 0.02271 0.0
C367 C 0.15022 0.00152 0.05124 0.0
N368 N 0.15276 0.11465 0.02093 0.0
N369 N 0.16408 0.03103 0.05198 0.0
H370 H 0.54503 0.66336 0.40108 0.0
H371 H 0.40023 0.61413 0.25491 0.0
H372 H 0.51068 0.56617 0.38198 0.0
H373 H 0.45041 0.70339 0.24781 0.0
H374 H 0.43352 0.60009 0.31256 0.0
H375 H 0.50357 0.68185 0.35609 0.0
C376 C 0.52851 0.64596 0.38789 0.0
C377 C 0.53143 0.61312 0.39502 0.0
C378 C 0.43695 0.62299 0.29884 0.0
C379 C 0.4841 0.63412 0.34343 0.0
C380 C 0.41766 0.63124 0.2663 0.0
C381 C 0.42218 0.6603 0.24715 0.0
C382 C 0.46106 0.64386 0.31221 0.0
C383 C 0.44607 0.68086 0.26196 0.0
C384 C 0.50496 0.65653 0.36209 0.0
C385 C 0.50941 0.59166 0.37705 0.0
N386 N 0.46468 0.67223 0.2936 0.0
N387 N 0.48676 0.60251 0.35194 0.0
H388 H 0.2897 0.47108 0.56276 0.0
H389 H 0.29772 0.65974 0.6174 0.0
H390 H 0.36273 0.51785 0.63521 0.0
H391 H 0.21322 0.6082 0.58731 0.0
H392 H 0.32539 0.6098 0.60809 0.0
H393 H 0.26505 0.52335 0.55558 0.0
C394 C 0.30077 0.49246 0.57643 0.0
C395 C 0.32816 0.49035 0.59965 0.0
C396 C 0.30083 0.60951 0.603 0.0
C397 C 0.3003 0.54969 0.59185 0.0
C398 C 0.28507 0.63805 0.60789 0.0
C399 C 0.25321 0.63809 0.60264 0.0
C400 C 0.28459 0.58084 0.5927 0.0
C401 C 0.23783 0.60908 0.5917 0.0
C402 C 0.28667 0.52213 0.57259 0.0
C403 C 0.34151 0.51857 0.61721 0.0
N404 N 0.25366 0.58156 0.58709 0.0
N405 N 0.32743 0.54707 0.61303 0.0
H406 H 0.99819 0.87992 0.0305 0.0
H407 H 0.87886 0.74266 0.08495 0.0
H408 H 0.02122 0.79708 0.09934 0.0
H409 H 0.85039 0.83512 0.04397 0.0
H410 H 0.93181 0.75996 0.08145 0.0
H411 H 0.94458 0.86152 0.02601 0.0
C412 C 0.99201 0.85769 0.04421 0.0
C413 C 0.01415 0.83982 0.06501 0.0
C414 C 0.91402 0.77646 0.07293 0.0
C415 C 0.95311 0.81897 0.06059 0.0
C416 C 0.8837 0.76659 0.07493 0.0
C417 C 0.85998 0.78734 0.06438 0.0
C418 C 0.92093 0.80743 0.06039 0.0
C419 C 0.86778 0.81801 0.05142 0.0
C420 C 0.96143 0.84737 0.04196 0.0
C421 C 0.00486 0.81163 0.08311 0.0
N422 N 0.89763 0.8272 0.04989 0.0
N423 N 0.97512 0.80208 0.08041 0.0
H424 H 0.62889 0.50276 0.49001 0.0
H425 H 0.72024 0.41742 0.66744 0.0
H426 H 0.626 0.53248 0.61541 0.0
H427 H 0.70836 0.37486 0.5478 0.0
H428 H 0.68321 0.45802 0.6492 0.0
H429 H 0.65478 0.45398 0.51027 0.0
C430 C 0.63288 0.49865 0.52183 0.0
C431 C 0.62561 0.52206 0.55101 0.0
C432 C 0.68827 0.43956 0.62697 0.0
C433 C 0.65542 0.46627 0.57433 0.0
C434 C 0.70918 0.41608 0.63759 0.0
C435 C 0.71673 0.39219 0.60934 0.0
C436 C 0.67534 0.4397 0.58744 0.0
C437 C 0.70302 0.39285 0.57037 0.0
C438 C 0.64781 0.4708 0.53336 0.0
C439 C 0.63149 0.51536 0.59178 0.0
N440 N 0.68314 0.41634 0.56043 0.0
N441 N 0.6464 0.48835 0.60216 0.0
H442 H 0.86233 0.06606 0.13953 0.0
H443 H 0.03696 0.09478 0.1984 0.0
H444 H 0.92909 0.08522 0.05194 0.0
H445 H 0.97633 0.04678 0.27623 0.0
H446 H 0.99797 0.08918 0.14345 0.0
H447 H 0.90369 0.05499 0.18879 0.0
C448 C 0.88564 0.06717 0.13033 0.0
C449 C 0.89222 0.07695 0.09166 0.0
C450 C 0.9933 0.07954 0.17241 0.0
C451 C 0.93964 0.0651 0.14813 0.0
C452 C 0.01547 0.08295 0.20388 0.0
C453 C 0.00972 0.07159 0.24207 0.0
C454 C 0.96498 0.0651 0.17932 0.0
C455 C 0.98163 0.05609 0.24732 0.0
C456 C 0.90925 0.06094 0.15852 0.0
C457 C 0.92285 0.07786 0.08135 0.0
N458 N 0.96012 0.05368 0.21644 0.0
N459 N 0.94545 0.07269 0.10969 0.0
H460 H 0.20377 0.84709 0.01921 0.0
H461 H 0.28639 0.68741 0.09149 0.0
H462 H 0.15804 0.76711 0.0709 0.0
H463 H 0.33548 0.77465 0.06707 0.0
H464 H 0.23869 0.71319 0.07194 0.0
H465 H 0.25163 0.8172 0.02294 0.0
C466 C 0.20366 0.82296 0.03035 0.0
C467 C 0.17709 0.80961 0.04517 0.0
C468 C 0.2599 0.7267 0.07073 0.0
C469 C 0.23142 0.77564 0.04995 0.0
C470 C 0.28716 0.712 0.08201 0.0
C471 C 0.31497 0.729 0.08136 0.0
C472 C 0.26033 0.75864 0.05853 0.0
C473 C 0.31453 0.76076 0.06844 0.0
C474 C 0.23097 0.80608 0.03287 0.0
C475 C 0.17814 0.77839 0.05957 0.0
N476 N 0.28762 0.77461 0.05765 0.0
N477 N 0.20488 0.76259 0.0619 0.0
H478 H 0.7241 0.62661 0.48869 0.0
H479 H 0.82795 0.75877 0.61405 0.0
H480 H 0.68812 0.7049 0.55861 0.0
H481 H 0.85895 0.6634 0.58545 0.0
H482 H 0.77878 0.74497 0.57934 0.0
H483 H 0.7761 0.64615 0.50866 0.0
C484 C 0.72717 0.64839 0.50727 0.0
C485 C 0.70193 0.66412 0.5223 0.0
C486 C 0.79643 0.72714 0.58048 0.0
C487 C 0.76087 0.68636 0.54524 0.0
C488 C 0.82448 0.73497 0.60032 0.0
C489 C 0.84746 0.71207 0.60311 0.0
C490 C 0.7914 0.69631 0.56285 0.0
C491 C 0.84172 0.68166 0.58448 0.0
C492 C 0.75675 0.6593 0.51898 0.0
C493 C 0.70706 0.69199 0.54666 0.0
N494 N 0.81423 0.67463 0.56519 0.0
N495 N 0.73592 0.70214 0.55753 0.0
H496 H 0.87877 0.21362 0.1051 0.0
H497 H 0.77252 0.29112 0.26697 0.0
H498 H 0.78166 0.2238 0.08636 0.0
H499 H 0.87057 0.28886 0.28371 0.0
H500 H 0.77658 0.27352 0.1968 0.0
H501 H 0.87783 0.24889 0.1653 0.0
C502 C 0.85746 0.22414 0.11282 0.0
C503 C 0.83029 0.21556 0.09083 0.0
C504 C 0.79728 0.27719 0.21561 0.0
C505 C 0.82873 0.25512 0.16036 0.0
C506 C 0.79495 0.28717 0.25579 0.0
C507 C 0.82121 0.29105 0.28141 0.0
C508 C 0.82607 0.27061 0.20093 0.0
C509 C 0.8497 0.28592 0.26509 0.0
C510 C 0.85682 0.244 0.14752 0.0
C511 C 0.80313 0.22947 0.10272 0.0
N512 N 0.85135 0.27553 0.22602 0.0
N513 N 0.80297 0.24813 0.13696 0.0
H514 H 0.33576 0.29187 0.6492 0.0
H515 H 0.22651 0.267 0.83124 0.0
H516 H 0.2704 0.36024 0.68942 0.0
H517 H 0.30577 0.2099 0.81137 0.0
H518 H 0.23295 0.29198 0.76673 0.0
H519 H 0.31524 0.25263 0.695 0.0
C520 C 0.31636 0.29817 0.66654 0.0
C521 C 0.30487 0.32934 0.66593 0.0
C522 C 0.24869 0.27363 0.77617 0.0
C523 C 0.28171 0.28506 0.71855 0.0
C524 C 0.245 0.25931 0.81304 0.0
C525 C 0.26595 0.23671 0.82717 0.0
C526 C 0.27358 0.26546 0.75316 0.0
C527 C 0.28929 0.22751 0.80195 0.0
C528 C 0.30488 0.27594 0.69297 0.0
C529 C 0.28001 0.33649 0.68931 0.0
N530 N 0.29274 0.24225 0.76645 0.0
N531 N 0.26951 0.31471 0.71499 0.0
H532 H 0.62968 0.68191 0.35565 0.0
H533 H 0.77551 0.67429 0.23136 0.0
H534 H 0.70998 0.63534 0.40304 0.0
H535 H 0.71426 0.75396 0.22367 0.0
H536 H 0.75291 0.65931 0.29425 0.0
H537 H 0.66062 0.70895 0.30739 0.0
C538 C 0.65404 0.67801 0.35637 0.0
C539 C 0.66743 0.6566 0.38326 0.0
C540 C 0.74483 0.68039 0.27912 0.0
C541 C 0.70278 0.68641 0.32727 0.0
C542 C 0.7576 0.68887 0.24315 0.0
C543 C 0.74652 0.71522 0.22199 0.0
C544 C 0.72041 0.69798 0.29351 0.0
C545 C 0.72341 0.73337 0.23882 0.0
C546 C 0.67168 0.69338 0.32885 0.0
C547 C 0.69898 0.65198 0.38289 0.0
N548 N 0.71076 0.72408 0.27317 0.0
N549 N 0.71557 0.66626 0.35461 0.0
H550 H 0.78908 0.1954 0.91183 0.0
H551 H 0.77631 0.29925 0.75539 0.0
H552 H 0.84121 0.14341 0.82563 0.0
H553 H 0.77812 0.21578 0.67536 0.0
H554 H 0.77822 0.26422 0.81295 0.0
H555 H 0.7629 0.22301 0.85602 0.0
C556 C 0.79419 0.18903 0.88106 0.0
C557 C 0.81747 0.1675 0.87307 0.0
C558 C 0.77718 0.25346 0.78281 0.0
C559 C 0.78843 0.19916 0.80971 0.0
C560 C 0.77642 0.27349 0.74994 0.0
C561 C 0.7774 0.2604 0.7106 0.0
C562 C 0.77954 0.22015 0.77627 0.0
C563 C 0.77744 0.22687 0.70521 0.0
C564 C 0.77964 0.20508 0.84936 0.0
C565 C 0.82355 0.16016 0.83286 0.0
N566 N 0.77934 0.20793 0.73774 0.0
N567 N 0.80933 0.1762 0.80264 0.0
H568 H 0.28001 0.31136 0.57658 0.0
H569 H 0.26528 0.12819 0.49607 0.0
H570 H 0.35297 0.25961 0.52352 0.0
H571 H 0.18805 0.19052 0.50211 0.0
H572 H 0.29855 0.17254 0.52227 0.0
H573 H 0.24706 0.26301 0.56666 0.0
C574 C 0.28929 0.28957 0.56392 0.0
C575 C 0.3191 0.28934 0.55065 0.0
C576 C 0.27429 0.17642 0.51807 0.0
C577 C 0.28182 0.23449 0.53901 0.0
C578 C 0.25529 0.15115 0.50308 0.0
C579 C 0.22388 0.15577 0.49641 0.0
C580 C 0.2618 0.20646 0.52697 0.0
C581 C 0.21219 0.18603 0.5063 0.0
C582 C 0.27046 0.26218 0.55787 0.0
C583 C 0.33001 0.26071 0.53392 0.0
N584 N 0.23116 0.21027 0.52103 0.0
N585 N 0.31136 0.23449 0.5284 0.0
H586 H 0.18144 0.89058 0.89577 0.0
H587 H 0.16695 0.71904 0.79163 0.0
H588 H 0.15024 0.80793 0.95775 0.0
H589 H 0.22158 0.79527 0.74559 0.0
H590 H 0.16539 0.74926 0.85576 0.0
H591 H 0.20205 0.85494 0.8445 0.0
C592 C 0.1797 0.86487 0.89914 0.0
C593 C 0.16395 0.85216 0.93084 0.0
C594 C 0.17818 0.75914 0.8319 0.0
C595 C 0.18656 0.81119 0.8716 0.0
C596 C 0.17898 0.74194 0.79518 0.0
C597 C 0.19403 0.75487 0.76296 0.0
C598 C 0.19209 0.78975 0.83622 0.0
C599 C 0.20946 0.78451 0.76945 0.0
C600 C 0.19137 0.8445 0.86979 0.0
C601 C 0.16231 0.8187 0.93384 0.0
N602 N 0.20764 0.80118 0.80508 0.0
N603 N 0.17282 0.79933 0.90403 0.0
loop_
_geom_bond_atom_site_label_1
_geom_bond_atom_site_label_2
_geom_bond_distance
_geom_bond_site_symmetry_2
_ccdc_geom_bond_type
Zn0 O6 1.920 . S
Zn0 O12 1.898 . S
Zn0 O15 1.905 . S
Zn1 O9 1.905 . S
Zn1 O10 1.898 . S
Zn1 O18 1.920 . S
Zn2 O5 2.082 . S
Zn2 O8 2.112 1_554 S
Zn2 O11 2.117 1_554 S
Zn2 O13 2.123 . S
Zn2 O14 2.116 . S
Zn2 O17 2.078 1_554 S
C3 O8 1.166 . S
C3 O9 1.182 . S
C4 O10 1.167 . S
C4 O11 1.299 . S
O5 Zn2 2.082 . S
O5 C19 1.305 . S
O6 Zn0 1.920 . S
O6 C19 1.234 . S
C7 O12 1.167 . S
C7 O13 1.299 . S
O8 Zn2 2.112 1_556 S
O8 C3 1.166 . S
O9 Zn1 1.905 . S
O9 C3 1.182 . S
O10 Zn1 1.898 . S
O10 C4 1.167 . S
O11 Zn2 2.117 1_556 S
O11 C4 1.299 . S
O12 Zn0 1.898 . S
O12 C7 1.167 . S
O13 Zn2 2.123 . S
O13 C7 1.299 . S
O14 Zn2 2.116 . S
O14 C16 1.166 . S
O15 Zn0 1.905 . S
O15 C16 1.182 . S
C16 O14 1.166 . S
C16 O15 1.182 . S
O17 Zn2 2.078 1_556 S
O17 C20 1.305 . S
O18 Zn1 1.920 . S
O18 C20 1.234 . S
C19 O5 1.305 . S
C19 O6 1.234 . S
C20 O17 1.305 . S
C20 O18 1.234 . S
Zn21 O27 1.920 . S
Zn21 O33 1.898 . S
Zn21 O36 1.905 . S
Zn22 O30 1.905 . S
Zn22 O31 1.898 . S
Zn22 O39 1.920 . S
Zn23 O26 2.080 . S
Zn23 O29 2.114 . S
Zn23 O32 2.120 . S
Zn23 O34 2.120 . S
Zn23 O35 2.114 . S
Zn23 O38 2.080 . S
C24 O29 1.166 . S
C24 O30 1.182 . S
C25 O31 1.167 . S
C25 O32 1.299 . S
O26 Zn23 2.080 . S
O26 C40 1.305 . S
O27 Zn21 1.920 . S
O27 C40 1.234 . S
C28 O33 1.167 . S
C28 O34 1.299 . S
O29 Zn23 2.114 . S
O29 C24 1.166 . S
O30 Zn22 1.905 . S
O30 C24 1.182 . S
O31 Zn22 1.898 . S
O31 C25 1.167 . S
O32 Zn23 2.120 . S
O32 C25 1.299 . S
O33 Zn21 1.898 . S
O33 C28 1.167 . S
O34 Zn23 2.120 . S
O34 C28 1.299 . S
O35 Zn23 2.114 . S
O35 C37 1.166 . S
O36 Zn21 1.905 . S
O36 C37 1.182 . S
C37 O35 1.166 . S
C37 O36 1.182 . S
O38 Zn23 2.080 . S
O38 C41 1.305 . S
O39 Zn22 1.920 . S
O39 C41 1.234 . S
C40 O26 1.305 . S
C40 O27 1.234 . S
C41 O38 1.305 . S
C41 O39 1.234 . S
Zn42 O48 1.920 . S
Zn42 O54 1.898 . S
Zn42 O57 1.905 . S
Zn43 O51 1.905 . S
Zn43 O52 1.898 . S
Zn43 O60 1.920 . S
Zn44 O47 2.080 1_554 S
Zn44 O50 2.114 . S
Zn44 O53 2.120 . S
Zn44 O55 2.120 1_554 S
Zn44 O56 2.114 1_554 S
Zn44 O59 2.080 . S
C45 O50 1.166 . S
C45 O51 1.182 . S
C46 O52 1.167 . S
C46 O53 1.299 . S
O47 Zn44 2.080 1_556 S
O47 C61 1.305 . S
O48 Zn42 1.920 . S
O48 C61 1.234 . S
C49 O54 1.167 . S
C49 O55 1.299 . S
O50 Zn44 2.114 . S
O50 C45 1.166 . S
O51 Zn43 1.905 . S
O51 C45 1.182 . S
O52 Zn43 1.898 . S
O52 C46 1.167 . S
O53 Zn44 2.120 . S
O53 C46 1.299 . S
O54 Zn42 1.898 . S
O54 C49 1.167 . S
O55 Zn44 2.120 1_556 S
O55 C49 1.299 . S
O56 Zn44 2.114 1_556 S
O56 C58 1.166 . S
O57 Zn42 1.905 . S
O57 C58 1.182 . S
C58 O56 1.166 . S
C58 O57 1.182 . S
O59 Zn44 2.080 . S
O59 C62 1.305 . S
O60 Zn43 1.920 . S
O60 C62 1.234 . S
C61 O47 1.305 . S
C61 O48 1.234 . S
C62 O59 1.305 . S
C62 O60 1.234 . S
Zn63 O69 1.920 . S
Zn63 O75 1.898 . S
Zn63 O78 1.905 . S
Zn64 O72 1.905 . S
Zn64 O73 1.898 . S
Zn64 O81 1.920 . S
Zn65 O68 2.080 . S
Zn65 O71 2.114 . S
Zn65 O74 2.120 . S
Zn65 O76 2.120 . S
Zn65 O77 2.114 . S
Zn65 O80 2.080 . S
C66 O71 1.166 . S
C66 O72 1.182 . S
C67 O73 1.167 . S
C67 O74 1.299 . S
O68 Zn65 2.080 . S
O68 C82 1.305 . S
O69 Zn63 1.920 . S
O69 C82 1.234 . S
C70 O75 1.167 . S
C70 O76 1.299 . S
O71 Zn65 2.114 . S
O71 C66 1.166 . S
O72 Zn64 1.905 . S
O72 C66 1.182 . S
O73 Zn64 1.898 . S
O73 C67 1.167 . S
O74 Zn65 2.120 . S
O74 C67 1.299 . S
O75 Zn63 1.898 . S
O75 C70 1.167 . S
O76 Zn65 2.120 . S
O76 C70 1.299 . S
O77 Zn65 2.114 . S
O77 C79 1.166 . S
O78 Zn63 1.905 . S
O78 C79 1.182 . S
C79 O77 1.166 . S
C79 O78 1.182 . S
O80 Zn65 2.080 . S
O80 C83 1.305 . S
O81 Zn64 1.920 . S
O81 C83 1.234 . S
C82 O68 1.305 . S
C82 O69 1.234 . S
C83 O80 1.305 . S
C83 O81 1.234 . S
O84 Cd85 2.300 . S
O84 C91 1.275 . S
Cd85 O84 2.300 . S
Cd85 O93 2.381 . S
Cd85 O94 2.378 . S
O86 Cd87 2.385 . S
O86 C91 1.255 . S
Cd87 O86 2.385 . S
Cd87 O88 2.317 . S
O88 Cd87 2.317 . S
O88 C89 1.232 . S
C89 O88 1.232 . S
C89 O90 1.218 . S
O90 C89 1.218 . S
C91 O84 1.275 . S
C91 O86 1.255 . S
C92 O93 1.258 . S
C92 O94 1.256 . S
O93 Cd85 2.381 . S
O93 C92 1.258 . S
O94 Cd85 2.378 . S
O94 C92 1.256 . S
O95 Cd96 2.300 . S
O95 C102 1.275 . S
Cd96 O95 2.300 . S
Cd96 O104 2.381 . S
Cd96 O105 2.378 . S
O97 Cd98 2.385 . S
O97 C102 1.255 . S
Cd98 O97 2.385 . S
Cd98 O99 2.317 . S
O99 Cd98 2.317 . S
O99 C100 1.232 . S
C100 O99 1.232 . S
C100 O101 1.218 . S
O101 C100 1.218 . S
C102 O95 1.275 . S
C102 O97 1.255 . S
C103 O104 1.258 . S
C103 O105 1.256 . S
O104 Cd96 2.381 . S
O104 C103 1.258 . S
O105 Cd96 2.378 . S
O105 C103 1.256 . S
O106 Cd107 2.300 . S
O106 C113 1.275 . S
Cd107 O106 2.300 . S
Cd107 O115 2.381 . S
Cd107 O116 2.378 . S
O108 Cd109 2.385 . S
O108 C113 1.255 . S
Cd109 O108 2.385 . S
Cd109 O110 2.317 . S
O110 Cd109 2.317 . S
O110 C111 1.232 . S
C111 O110 1.232 . S
C111 O112 1.218 . S
O112 C111 1.218 . S
C113 O106 1.275 . S
C113 O108 1.255 . S
C114 O115 1.258 . S
C114 O116 1.256 . S
O115 Cd107 2.381 . S
O115 C114 1.258 . S
O116 Cd107 2.378 . S
O116 C114 1.256 . S
O117 Cd118 2.300 . S
O117 C124 1.275 . S
Cd118 O117 2.300 . S
Cd118 O126 2.381 . S
Cd118 O127 2.378 . S
O119 Cd120 2.385 . S
O119 C124 1.255 . S
Cd120 O119 2.385 . S
Cd120 O121 2.317 . S
O121 Cd120 2.317 . S
O121 C122 1.232 . S
C122 O121 1.232 . S
C122 O123 1.218 . S
O123 C122 1.218 . S
C124 O117 1.275 . S
C124 O119 1.255 . S
C125 O126 1.258 . S
C125 O127 1.256 . S
O126 Cd118 2.381 . S
O126 C125 1.258 . S
O127 Cd118 2.378 . S
O127 C125 1.256 . S
O128 Cd129 2.300 . S
O128 C135 1.275 . S
Cd129 O128 2.300 . S
Cd129 O137 2.381 . S
Cd129 O138 2.378 . S
O130 Cd131 2.385 . S
O130 C135 1.255 . S
Cd131 O130 2.385 . S
Cd131 O132 2.317 . S
O132 Cd131 2.317 . S
O132 C133 1.232 . S
C133 O132 1.232 . S
C133 O134 1.218 . S
O134 C133 1.218 . S
C135 O128 1.275 . S
C135 O130 1.255 . S
C136 O137 1.258 . S
C136 O138 1.256 . S
O137 Cd129 2.381 . S
O137 C136 1.258 . S
O138 Cd129 2.378 . S
O138 C136 1.256 . S
O139 Cd140 2.300 . S
O139 C146 1.275 . S
Cd140 O139 2.300 . S
Cd140 O148 2.381 . S
Cd140 O149 2.378 . S
O141 Cd142 2.385 . S
O141 C146 1.255 . S
Cd142 O141 2.385 . S
Cd142 O143 2.317 . S
O143 Cd142 2.317 . S
O143 C144 1.232 . S
C144 O143 1.232 . S
C144 O145 1.218 . S
O145 C144 1.218 . S
C146 O139 1.275 . S
C146 O141 1.255 . S
C147 O148 1.258 . S
C147 O149 1.256 . S
O148 Cd140 2.381 . S
O148 C147 1.258 . S
O149 Cd140 2.378 . S
O149 C147 1.256 . S
O150 Cd151 2.300 . S
O150 C157 1.275 . S
Cd151 O150 2.300 . S
Cd151 O159 2.381 . S
Cd151 O160 2.378 . S
O152 Cd153 2.385 . S
O152 C157 1.255 . S
Cd153 O152 2.385 . S
Cd153 O154 2.317 . S
O154 Cd153 2.317 . S
O154 C155 1.232 . S
C155 O154 1.232 . S
C155 O156 1.218 . S
O156 C155 1.218 . S
C157 O150 1.275 . S
C157 O152 1.255 . S
C158 O159 1.258 . S
C158 O160 1.256 . S
O159 Cd151 2.381 . S
O159 C158 1.258 . S
O160 Cd151 2.378 . S
O160 C158 1.256 . S
O161 Cd162 2.300 . S
O161 C168 1.275 . S
Cd162 O161 2.300 . S
Cd162 O170 2.381 . S
Cd162 O171 2.378 . S
O163 Cd164 2.385 . S
O163 C168 1.255 . S
Cd164 O163 2.385 . S
Cd164 O165 2.317 . S
O165 Cd164 2.317 . S
O165 C166 1.232 . S
C166 O165 1.232 . S
C166 O167 1.218 . S
O167 C166 1.218 . S
C168 O161 1.275 . S
C168 O163 1.255 . S
C169 O170 1.258 . S
C169 O171 1.256 . S
O170 Cd162 2.381 . S
O170 C169 1.258 . S
O171 Cd162 2.378 . S
O171 C169 1.256 . S
H172 C178 0.930 . S
H173 C182 0.930 . S
H174 C187 0.929 . S
H175 C185 0.929 . S
H176 C180 0.929 . S
H177 C186 0.929 . S
C178 H172 0.930 . S
C178 C179 1.367 . S
C178 C186 1.378 . S
C179 C178 1.367 . S
C179 C187 1.433 . S
C180 H176 0.929 . S
C180 C182 1.378 . S
C180 C184 1.350 1_545 S
C181 C184 1.463 . S
C181 C186 1.350 . S
C181 N189 1.427 . S
C182 H173 0.930 . S
C182 C180 1.378 . S
C182 C183 1.367 . S
C183 C182 1.367 . S
C183 C185 1.433 . S
C184 C180 1.350 1_565 S
C184 C181 1.463 . S
C184 N188 1.427 . S
C185 H175 0.929 . S
C185 C183 1.433 . S
C185 N188 1.384 1_545 S
C186 H177 0.929 . S
C186 C178 1.378 . S
C186 C181 1.350 . S
C187 H174 0.929 . S
C187 C179 1.433 . S
C187 N189 1.384 . S
N188 C184 1.427 . S
N188 C185 1.384 1_565 S
N189 C181 1.427 . S
N189 C187 1.384 . S
H190 C196 0.930 . S
H191 C200 0.930 . S
H192 C205 0.929 . S
H193 C203 0.929 . S
H194 C198 0.929 . S
H195 C204 0.929 . S
C196 H190 0.930 . S
C196 C197 1.367 . S
C196 C204 1.378 . S
C197 C196 1.367 . S
C197 C205 1.433 . S
C198 H194 0.929 . S
C198 C200 1.378 . S
C198 C202 1.350 . S
C199 C202 1.463 . S
C199 C204 1.350 . S
C199 N207 1.427 . S
C200 H191 0.930 . S
C200 C198 1.378 . S
C200 C201 1.367 . S
C201 C200 1.367 . S
C201 C203 1.433 . S
C202 C198 1.350 . S
C202 C199 1.463 . S
C202 N206 1.427 . S
C203 H193 0.929 . S
C203 C201 1.433 . S
C203 N206 1.384 . S
C204 H195 0.929 . S
C204 C196 1.378 . S
C204 C199 1.350 . S
C205 H192 0.929 . S
C205 C197 1.433 . S
C205 N207 1.384 . S
N206 C202 1.427 . S
N206 C203 1.384 . S
N207 C199 1.427 . S
N207 C205 1.384 . S
H208 C214 0.930 . S
H209 C218 0.930 . S
H210 C223 0.929 . S
H211 C221 0.929 . S
H212 C216 0.929 . S
H213 C222 0.929 . S
C214 H208 0.930 . S
C214 C215 1.367 . S
C214 C222 1.378 . S
C215 C214 1.367 . S
C215 C223 1.433 . S
C216 H212 0.929 . S
C216 C218 1.378 . S
C216 C220 1.350 . S
C217 C220 1.463 1_545 S
C217 C222 1.350 . S
C217 N225 1.427 . S
C218 H209 0.930 . S
C218 C216 1.378 . S
C218 C219 1.367 . S
C219 C218 1.367 . S
C219 C221 1.433 . S
C220 C216 1.350 . S
C220 C217 1.463 1_565 S
C220 N224 1.427 . S
C221 H211 0.929 . S
C221 C219 1.433 . S
C221 N224 1.384 . S
C222 H213 0.929 . S
C222 C214 1.378 . S
C222 C217 1.350 . S
C223 H210 0.929 . S
C223 C215 1.433 . S
C223 N225 1.384 . S
N224 C220 1.427 . S
N224 C221 1.384 . S
N225 C217 1.427 . S
N225 C223 1.384 . S
H226 C232 0.930 . S
H227 C236 0.930 . S
H228 C241 0.929 . S
H229 C239 0.929 . S
H230 C234 0.929 . S
H231 C240 0.929 . S
C232 H226 0.930 . S
C232 C233 1.367 . S
C232 C240 1.378 . S
C233 C232 1.367 . S
C233 C241 1.433 . S
C234 H230 0.929 . S
C234 C236 1.378 . S
C234 C238 1.350 . S
C235 C238 1.463 . S
C235 C240 1.350 . S
C235 N243 1.427 . S
C236 H227 0.930 . S
C236 C234 1.378 . S
C236 C237 1.367 . S
C237 C236 1.367 . S
C237 C239 1.433 . S
C238 C234 1.350 . S
C238 C235 1.463 . S
C238 N242 1.427 . S
C239 H229 0.929 . S
C239 C237 1.433 . S
C239 N242 1.384 . S
C240 H231 0.929 . S
C240 C232 1.378 . S
C240 C235 1.350 . S
C241 H228 0.929 . S
C241 C233 1.433 . S
C241 N243 1.384 . S
N242 C238 1.427 . S
N242 C239 1.384 . S
N243 C235 1.427 . S
N243 C241 1.384 . S
H244 C250 0.930 . S
H245 C254 0.930 . S
H246 C259 0.929 . S
H247 C257 0.929 . S
H248 C252 0.929 . S
H249 C258 0.929 . S
C250 H244 0.930 . S
C250 C251 1.367 . S
C250 C258 1.378 . S
C251 C250 1.367 . S
C251 C259 1.433 . S
C252 H248 0.929 . S
C252 C254 1.378 . S
C252 C256 1.350 . S
C253 C256 1.463 . S
C253 C258 1.350 . S
C253 N261 1.427 . S
C254 H245 0.930 . S
C254 C252 1.378 . S
C254 C255 1.367 . S
C255 C254 1.367 . S
C255 C257 1.433 . S
C256 C252 1.350 . S
C256 C253 1.463 . S
C256 N260 1.427 . S
C257 H247 0.929 . S
C257 C255 1.433 . S
C257 N260 1.384 . S
C258 H249 0.929 . S
C258 C250 1.378 . S
C258 C253 1.350 . S
C259 H246 0.929 . S
C259 C251 1.433 . S
C259 N261 1.384 . S
N260 C256 1.427 . S
N260 C257 1.384 . S
N261 C253 1.427 . S
N261 C259 1.384 . S
H262 C268 0.930 . S
H263 C272 0.930 . S
H264 C277 0.929 . S
H265 C275 0.929 . S
H266 C270 0.929 . S
H267 C276 0.929 . S
C268 H262 0.930 . S
C268 C269 1.367 . S
C268 C276 1.378 . S
C269 C268 1.367 . S
C269 C277 1.433 1_556 S
C270 H266 0.929 . S
C270 C272 1.378 . S
C270 C274 1.350 . S
C271 C274 1.463 1_655 S
C271 C276 1.350 . S
C271 N279 1.427 . S
C272 H263 0.930 . S
C272 C270 1.378 . S
C272 C273 1.367 . S
C273 C272 1.367 . S
C273 C275 1.433 . S
C274 C270 1.350 . S
C274 C271 1.463 1_455 S
C274 N278 1.427 . S
C275 H265 0.929 . S
C275 C273 1.433 . S
C275 N278 1.384 . S
C276 H267 0.929 . S
C276 C268 1.378 . S
C276 C271 1.350 . S
C277 H264 0.929 . S
C277 C269 1.433 1_554 S
C277 N279 1.384 1_554 S
N278 C274 1.427 . S
N278 C275 1.384 . S
N279 C271 1.427 . S
N279 C277 1.384 1_556 S
H280 C286 0.930 . S
H281 C290 0.930 . S
H282 C295 0.929 . S
H283 C293 0.929 . S
H284 C288 0.929 . S
H285 C294 0.929 . S
C286 H280 0.930 . S
C286 C287 1.367 . S
C286 C294 1.378 . S
C287 C286 1.367 . S
C287 C295 1.433 . S
C288 H284 0.929 . S
C288 C290 1.378 . S
C288 C292 1.350 . S
C289 C292 1.463 . S
C289 C294 1.350 . S
C289 N297 1.427 . S
C290 H281 0.930 . S
C290 C288 1.378 . S
C290 C291 1.367 . S
C291 C290 1.367 . S
C291 C293 1.433 . S
C292 C288 1.350 . S
C292 C289 1.463 . S
C292 N296 1.427 . S
C293 H283 0.929 . S
C293 C291 1.433 . S
C293 N296 1.384 . S
C294 H285 0.929 . S
C294 C286 1.378 . S
C294 C289 1.350 . S
C295 H282 0.929 . S
C295 C287 1.433 . S
C295 N297 1.384 . S
N296 C292 1.427 . S
N296 C293 1.384 . S
N297 C289 1.427 . S
N297 C295 1.384 . S
H298 C304 0.930 . S
H299 C308 0.930 . S
H300 C313 0.929 . S
H301 C311 0.929 . S
H302 C306 0.929 . S
H303 C312 0.929 . S
C304 H298 0.930 . S
C304 C305 1.367 . S
C304 C312 1.378 . S
C305 C304 1.367 . S
C305 C313 1.433 . S
C306 H302 0.929 . S
C306 C308 1.378 . S
C306 C310 1.350 1_655 S
C307 C310 1.463 . S
C307 C312 1.350 . S
C307 N315 1.427 . S
C308 H299 0.930 . S
C308 C306 1.378 . S
C308 C309 1.367 . S
C309 C308 1.367 . S
C309 C311 1.433 . S
C310 C306 1.350 1_455 S
C310 C307 1.463 . S
C310 N314 1.435 . S
C311 H301 0.929 . S
C311 C309 1.433 . S
C311 N314 1.359 1_655 S
C312 H303 0.929 . S
C312 C304 1.378 . S
C312 C307 1.350 . S
C313 H300 0.929 . S
C313 C305 1.433 . S
C313 N315 1.384 . S
N314 C310 1.435 . S
N314 C311 1.359 1_455 S
N315 C307 1.427 . S
N315 C313 1.384 . S
H316 C322 0.930 . S
H317 C326 0.930 . S
H318 C331 0.929 . S
H319 C329 0.929 . S
H320 C324 0.929 . S
H321 C330 0.929 . S
C322 H316 0.930 . S
C322 C323 1.367 . S
C322 C330 1.378 . S
C323 C322 1.367 . S
C323 C331 1.433 . S
C324 H320 0.929 . S
C324 C326 1.378 . S
C324 C328 1.350 . S
C325 C328 1.463 1_545 S
C325 C330 1.350 . S
C325 N333 1.427 . S
C326 H317 0.930 . S
C326 C324 1.378 . S
C326 C327 1.367 . S
C327 C326 1.367 . S
C327 C329 1.433 . S
C328 C324 1.350 . S
C328 C325 1.463 1_565 S
C328 N332 1.427 . S
C329 H319 0.929 . S
C329 C327 1.433 . S
C329 N332 1.384 . S
C330 H321 0.929 . S
C330 C322 1.378 . S
C330 C325 1.350 . S
C331 H318 0.929 . S
C331 C323 1.433 . S
C331 N333 1.384 . S
N332 C328 1.427 . S
N332 C329 1.384 . S
N333 C325 1.427 . S
N333 C331 1.384 . S
H334 C340 0.930 . S
H335 C344 0.930 . S
H336 C349 0.929 . S
H337 C347 0.929 . S
H338 C342 0.929 . S
H339 C348 0.929 . S
C340 H334 0.930 . S
C340 C341 1.367 . S
C340 C348 1.378 . S
C341 C340 1.367 . S
C341 C349 1.433 . S
C342 H338 0.929 . S
C342 C344 1.378 . S
C342 C346 1.350 . S
C343 C346 1.463 . S
C343 C348 1.350 . S
C343 N351 1.427 . S
C344 H335 0.930 . S
C344 C342 1.378 . S
C344 C345 1.367 . S
C345 C344 1.367 . S
C345 C347 1.433 . S
C346 C342 1.350 . S
C346 C343 1.463 . S
C346 N350 1.427 . S
C347 H337 0.929 . S
C347 C345 1.433 . S
C347 N350 1.384 . S
C348 H339 0.929 . S
C348 C340 1.378 . S
C348 C343 1.350 . S
C349 H336 0.929 . S
C349 C341 1.433 . S
C349 N351 1.384 . S
N350 C346 1.427 . S
N350 C347 1.384 . S
N351 C343 1.427 . S
N351 C349 1.384 . S
H352 C358 0.930 . S
H353 C362 0.930 . S
H354 C367 0.929 . S
H355 C365 0.929 . S
H356 C360 0.929 . S
H357 C366 0.929 . S
C358 H352 0.930 . S
C358 C359 1.367 1_545 S
C358 C366 1.378 . S
C359 C358 1.367 1_565 S
C359 C367 1.433 . S
C360 H356 0.929 . S
C360 C362 1.378 . S
C360 C364 1.350 . S
C361 C364 1.463 . S
C361 C366 1.350 . S
C361 N369 1.427 . S
C362 H353 0.930 . S
C362 C360 1.378 . S
C362 C363 1.367 . S
C363 C362 1.367 . S
C363 C365 1.433 . S
C364 C360 1.350 . S
C364 C361 1.463 . S
C364 N368 1.427 . S
C365 H355 0.929 . S
C365 C363 1.433 . S
C365 N368 1.384 . S
C366 H357 0.929 . S
C366 C358 1.378 . S
C366 C361 1.350 . S
C367 H354 0.929 . S
C367 C359 1.433 . S
C367 N369 1.384 1_565 S
N368 C364 1.427 . S
N368 C365 1.384 . S
N369 C361 1.427 . S
N369 C367 1.384 1_545 S
H370 C376 0.930 . S
H371 C380 0.930 . S
H372 C385 0.929 . S
H373 C383 0.929 . S
H374 C378 0.929 . S
H375 C384 0.929 . S
C376 H370 0.930 . S
C376 C377 1.367 . S
C376 C384 1.378 . S
C377 C376 1.367 . S
C377 C385 1.433 . S
C378 H374 0.929 . S
C378 C380 1.378 . S
C378 C382 1.350 . S
C379 C382 1.463 . S
C379 C384 1.350 . S
C379 N387 1.427 . S
C380 H371 0.930 . S
C380 C378 1.378 . S
C380 C381 1.367 . S
C381 C380 1.367 . S
C381 C383 1.433 . S
C382 C378 1.350 . S
C382 C379 1.463 . S
C382 N386 1.427 . S
C383 H373 0.929 . S
C383 C381 1.433 . S
C383 N386 1.384 . S
C384 H375 0.929 . S
C384 C376 1.378 . S
C384 C379 1.350 . S
C385 H372 0.929 . S
C385 C377 1.433 . S
C385 N387 1.384 . S
N386 C382 1.427 . S
N386 C383 1.384 . S
N387 C379 1.427 . S
N387 C385 1.384 . S
H388 C394 0.930 . S
H389 C398 0.930 . S
H390 C403 0.929 . S
H391 C401 0.929 . S
H392 C396 0.929 . S
H393 C402 0.929 . S
C394 H388 0.930 . S
C394 C395 1.367 . S
C394 C402 1.378 . S
C395 C394 1.367 . S
C395 C403 1.433 . S
C396 H392 0.929 . S
C396 C398 1.378 . S
C396 C400 1.350 . S
C397 C400 1.463 . S
C397 C402 1.350 . S
C397 N405 1.427 . S
C398 H389 0.930 . S
C398 C396 1.378 . S
C398 C399 1.367 . S
C399 C398 1.367 . S
C399 C401 1.433 . S
C400 C396 1.350 . S
C400 C397 1.463 . S
C400 N404 1.427 . S
C401 H391 0.929 . S
C401 C399 1.433 . S
C401 N404 1.384 . S
C402 H393 0.929 . S
C402 C394 1.378 . S
C402 C397 1.350 . S
C403 H390 0.929 . S
C403 C395 1.433 . S
C403 N405 1.384 . S
N404 C400 1.427 . S
N404 C401 1.384 . S
N405 C397 1.427 . S
N405 C403 1.384 . S
H406 C412 0.930 . S
H407 C416 0.930 . S
H408 C421 0.929 . S
H409 C419 0.929 . S
H410 C414 0.929 . S
H411 C420 0.929 . S
C412 H406 0.930 . S
C412 C413 1.367 . S
C412 C420 1.378 1_455 S
C413 C412 1.367 . S
C413 C421 1.433 . S
C414 H410 0.929 . S
C414 C416 1.378 . S
C414 C418 1.350 . S
C415 C418 1.463 . S
C415 C420 1.350 . S
C415 N423 1.427 . S
C416 H407 0.930 . S
C416 C414 1.378 . S
C416 C417 1.367 . S
C417 C416 1.367 . S
C417 C419 1.433 . S
C418 C414 1.350 . S
C418 C415 1.463 . S
C418 N422 1.427 . S
C419 H409 0.929 . S
C419 C417 1.433 . S
C419 N422 1.384 . S
C420 H411 0.929 . S
C420 C412 1.378 1_655 S
C420 C415 1.350 . S
C421 H408 0.929 . S
C421 C413 1.433 . S
C421 N423 1.384 1_455 S
N422 C418 1.427 . S
N422 C419 1.384 . S
N423 C415 1.427 . S
N423 C421 1.384 1_655 S
H424 C430 0.930 . S
H425 C434 0.930 . S
H426 C439 0.929 . S
H427 C437 0.929 . S
H428 C432 0.929 . S
H429 C438 0.929 . S
C430 H424 0.930 . S
C430 C431 1.367 . S
C430 C438 1.378 . S
C431 C430 1.367 . S
C431 C439 1.433 . S
C432 H428 0.929 . S
C432 C434 1.378 . S
C432 C436 1.350 . S
C433 C436 1.463 . S
C433 C438 1.350 . S
C433 N441 1.427 . S
C434 H425 0.930 . S
C434 C432 1.378 . S
C434 C435 1.367 . S
C435 C434 1.367 . S
C435 C437 1.433 . S
C436 C432 1.350 . S
C436 C433 1.463 . S
C436 N440 1.427 . S
C437 H427 0.929 . S
C437 C435 1.433 . S
C437 N440 1.384 . S
C438 H429 0.929 . S
C438 C430 1.378 . S
C438 C433 1.350 . S
C439 H426 0.929 . S
C439 C431 1.433 . S
C439 N441 1.384 . S
N440 C436 1.427 . S
N440 C437 1.384 . S
N441 C433 1.427 . S
N441 C439 1.384 . S
H442 C448 0.930 . S
H443 C452 0.930 . S
H444 C457 0.929 . S
H445 C455 0.929 . S
H446 C450 0.929 . S
H447 C456 0.929 . S
C448 H442 0.930 . S
C448 C449 1.367 . S
C448 C456 1.378 . S
C449 C448 1.367 . S
C449 C457 1.433 . S
C450 H446 0.929 . S
C450 C452 1.378 . S
C450 C454 1.350 . S
C451 C454 1.463 1_655 S
C451 C456 1.350 . S
C451 N459 1.427 . S
C452 H443 0.930 . S
C452 C450 1.378 . S
C452 C453 1.367 . S
C453 C452 1.367 . S
C453 C455 1.433 . S
C454 C450 1.350 . S
C454 C451 1.463 1_455 S
C454 N458 1.427 . S
C455 H445 0.929 . S
C455 C453 1.433 . S
C455 N458 1.384 . S
C456 H447 0.929 . S
C456 C448 1.378 . S
C456 C451 1.350 . S
C457 H444 0.929 . S
C457 C449 1.433 . S
C457 N459 1.384 . S
N458 C454 1.427 . S
N458 C455 1.384 . S
N459 C451 1.427 . S
N459 C457 1.384 . S
H460 C466 0.930 . S
H461 C470 0.930 . S
H462 C475 0.929 . S
H463 C473 0.929 . S
H464 C468 0.929 . S
H465 C474 0.929 . S
C466 H460 0.930 . S
C466 C467 1.367 . S
C466 C474 1.378 . S
C467 C466 1.367 . S
C467 C475 1.433 . S
C468 H464 0.929 . S
C468 C470 1.378 . S
C468 C472 1.350 . S
C469 C472 1.463 . S
C469 C474 1.350 . S
C469 N477 1.427 . S
C470 H461 0.930 . S
C470 C468 1.378 . S
C470 C471 1.367 . S
C471 C470 1.367 . S
C471 C473 1.433 . S
C472 C468 1.350 . S
C472 C469 1.463 . S
C472 N476 1.427 . S
C473 H463 0.929 . S
C473 C471 1.433 . S
C473 N476 1.384 . S
C474 H465 0.929 . S
C474 C466 1.378 . S
C474 C469 1.350 . S
C475 H462 0.929 . S
C475 C467 1.433 . S
C475 N477 1.384 . S
N476 C472 1.427 . S
N476 C473 1.384 . S
N477 C469 1.427 . S
N477 C475 1.384 . S
H478 C484 0.930 . S
H479 C488 0.930 . S
H480 C493 0.929 . S
H481 C491 0.929 . S
H482 C486 0.929 . S
H483 C492 0.929 . S
C484 H478 0.930 . S
C484 C485 1.367 . S
C484 C492 1.378 . S
C485 C484 1.367 . S
C485 C493 1.433 . S
C486 H482 0.929 . S
C486 C488 1.378 . S
C486 C490 1.350 . S
C487 C490 1.463 . S
C487 C492 1.350 . S
C487 N495 1.427 . S
C488 H479 0.930 . S
C488 C486 1.378 . S
C488 C489 1.367 . S
C489 C488 1.367 . S
C489 C491 1.433 . S
C490 C486 1.350 . S
C490 C487 1.463 . S
C490 N494 1.427 . S
C491 H481 0.929 . S
C491 C489 1.433 . S
C491 N494 1.384 . S
C492 H483 0.929 . S
C492 C484 1.378 . S
C492 C487 1.350 . S
C493 H480 0.929 . S
C493 C485 1.433 . S
C493 N495 1.384 . S
N494 C490 1.427 . S
N494 C491 1.384 . S
N495 C487 1.427 . S
N495 C493 1.384 . S
H496 C502 0.930 . S
H497 C506 0.930 . S
H498 C511 0.929 . S
H499 C509 0.929 . S
H500 C504 0.929 . S
H501 C510 0.929 . S
C502 H496 0.930 . S
C502 C503 1.367 . S
C502 C510 1.378 . S
C503 C502 1.367 . S
C503 C511 1.433 . S
C504 H500 0.929 . S
C504 C506 1.378 . S
C504 C508 1.350 . S
C505 C508 1.463 . S
C505 C510 1.350 . S
C505 N513 1.427 . S
C506 H497 0.930 . S
C506 C504 1.378 . S
C506 C507 1.367 . S
C507 C506 1.367 . S
C507 C509 1.433 . S
C508 C504 1.350 . S
C508 C505 1.463 . S
C508 N512 1.427 . S
C509 H499 0.929 . S
C509 C507 1.433 . S
C509 N512 1.384 . S
C510 H501 0.929 . S
C510 C502 1.378 . S
C510 C505 1.350 . S
C511 H498 0.929 . S
C511 C503 1.433 . S
C511 N513 1.384 . S
N512 C508 1.427 . S
N512 C509 1.384 . S
N513 C505 1.427 . S
N513 C511 1.384 . S
H514 C520 0.930 . S
H515 C524 0.930 . S
H516 C529 0.929 . S
H517 C527 0.929 . S
H518 C522 0.929 . S
H519 C528 0.929 . S
C520 H514 0.930 . S
C520 C521 1.367 . S
C520 C528 1.378 . S
C521 C520 1.367 . S
C521 C529 1.433 . S
C522 H518 0.929 . S
C522 C524 1.378 . S
C522 C526 1.350 . S
C523 C526 1.463 . S
C523 C528 1.350 . S
C523 N531 1.427 . S
C524 H515 0.930 . S
C524 C522 1.378 . S
C524 C525 1.367 . S
C525 C524 1.367 . S
C525 C527 1.433 . S
C526 C522 1.350 . S
C526 C523 1.463 . S
C526 N530 1.427 . S
C527 H517 0.929 . S
C527 C525 1.433 . S
C527 N530 1.384 . S
C528 H519 0.929 . S
C528 C520 1.378 . S
C528 C523 1.350 . S
C529 H516 0.929 . S
C529 C521 1.433 . S
C529 N531 1.384 . S
N530 C526 1.427 . S
N530 C527 1.384 . S
N531 C523 1.427 . S
N531 C529 1.384 . S
H532 C538 0.930 . S
H533 C542 0.930 . S
H534 C547 0.929 . S
H535 C545 0.929 . S
H536 C540 0.929 . S
H537 C546 0.929 . S
C538 H532 0.930 . S
C538 C539 1.367 . S
C538 C546 1.378 . S
C539 C538 1.367 . S
C539 C547 1.433 . S
C540 H536 0.929 . S
C540 C542 1.378 . S
C540 C544 1.350 . S
C541 C544 1.463 . S
C541 C546 1.350 . S
C541 N549 1.427 . S
C542 H533 0.930 . S
C542 C540 1.378 . S
C542 C543 1.367 . S
C543 C542 1.367 . S
C543 C545 1.433 . S
C544 C540 1.350 . S
C544 C541 1.463 . S
C544 N548 1.427 . S
C545 H535 0.929 . S
C545 C543 1.433 . S
C545 N548 1.384 . S
C546 H537 0.929 . S
C546 C538 1.378 . S
C546 C541 1.350 . S
C547 H534 0.929 . S
C547 C539 1.433 . S
C547 N549 1.384 . S
N548 C544 1.427 . S
N548 C545 1.384 . S
N549 C541 1.427 . S
N549 C547 1.384 . S
H550 C556 0.930 . S
H551 C560 0.930 . S
H552 C565 0.929 . S
H553 C563 0.929 . S
H554 C558 0.929 . S
H555 C564 0.929 . S
C556 H550 0.930 . S
C556 C557 1.367 . S
C556 C564 1.378 . S
C557 C556 1.367 . S
C557 C565 1.433 . S
C558 H554 0.929 . S
C558 C560 1.378 . S
C558 C562 1.350 . S
C559 C562 1.463 . S
C559 C564 1.350 . S
C559 N567 1.427 . S
C560 H551 0.930 . S
C560 C558 1.378 . S
C560 C561 1.367 . S
C561 C560 1.367 . S
C561 C563 1.433 . S
C562 C558 1.350 . S
C562 C559 1.463 . S
C562 N566 1.427 . S
C563 H553 0.929 . S
C563 C561 1.433 . S
C563 N566 1.384 . S
C564 H555 0.929 . S
C564 C556 1.378 . S
C564 C559 1.350 . S
C565 H552 0.929 . S
C565 C557 1.433 . S
C565 N567 1.384 . S
N566 C562 1.427 . S
N566 C563 1.384 . S
N567 C559 1.427 . S
N567 C565 1.384 . S
H568 C574 0.930 . S
H569 C578 0.930 . S
H570 C583 0.929 . S
H571 C581 0.929 . S
H572 C576 0.929 . S
H573 C582 0.929 . S
C574 H568 0.930 . S
C574 C575 1.367 . S
C574 C582 1.378 . S
C575 C574 1.367 . S
C575 C583 1.433 . S
C576 H572 0.929 . S
C576 C578 1.378 . S
C576 C580 1.350 . S
C577 C580 1.463 . S
C577 C582 1.350 . S
C577 N585 1.427 . S
C578 H569 0.930 . S
C578 C576 1.378 . S
C578 C579 1.367 . S
C579 C578 1.367 . S
C579 C581 1.433 . S
C580 C576 1.350 . S
C580 C577 1.463 . S
C580 N584 1.427 . S
C581 H571 0.929 . S
C581 C579 1.433 . S
C581 N584 1.384 . S
C582 H573 0.929 . S
C582 C574 1.378 . S
C582 C577 1.350 . S
C583 H570 0.929 . S
C583 C575 1.433 . S
C583 N585 1.384 . S
N584 C580 1.427 . S
N584 C581 1.384 . S
N585 C577 1.427 . S
N585 C583 1.384 . S
H586 C592 0.930 . S
H587 C596 0.930 . S
H588 C601 0.929 . S
H589 C599 0.929 . S
H590 C594 0.929 . S
H591 C600 0.929 . S
C592 H586 0.930 . S
C592 C593 1.367 . S
C592 C600 1.378 . S
C593 C592 1.367 . S
C593 C601 1.433 . S
C594 H590 0.929 . S
C594 C596 1.378 . S
C594 C598 1.350 . S
C595 C598 1.463 . S
C595 C600 1.350 . S
C595 N603 1.427 . S
C596 H587 0.930 . S
C596 C594 1.378 . S
C596 C597 1.367 . S
C597 C596 1.367 . S
C597 C599 1.433 . S
C598 C594 1.350 . S
C598 C595 1.463 . S
C598 N602 1.427 . S
C599 H589 0.929 . S
C599 C597 1.433 . S
C599 N602 1.384 . S
C600 H591 0.929 . S
C600 C592 1.378 . S
C600 C595 1.350 . S
C601 H588 0.929 . S
C601 C593 1.433 . S
C601 N603 1.384 . S
N602 C598 1.427 . S
N602 C599 1.384 . S
N603 C595 1.427 . S
N603 C601 1.384 . S
C179 C7 0.920 . S
C183 C91 0.960 . S
C197 C25 0.954 . S
C201 C100 0.879 . S
C215 C46 0.709 . S
C219 C111 0.754 . S
C237 C122 0.696 . S
C233 C70 0.557 . S
C255 C135 0.598 . S
C251 C28 0.658 . S
C269 C49 0.661 . S
C273 C144 0.761 . S
C287 C67 0.719 . S
C291 C155 0.703 . S
C305 C4 0.928 . S
C309 C168 0.979 . S
C323 C58 1.404 . S
C327 C166 1.199 . S
C345 C133 1.421 . S
C341 C66 1.531 . S
C363 C146 1.979 . S
C359 C3 1.947 . S
C377 C37 1.945 . S
C381 C157 2.081 . S
C399 C102 1.836 . S
C395 C79 1.768 . S
C413 C16 1.926 . S
C417 C113 1.952 . S
C435 C124 1.771 . S
C431 C24 1.672 . S
C453 C89 1.202 . S
C449 C45 1.395 . S
C471 C158 1.478 . S
C467 C19 1.350 . S
C489 C169 1.458 . S
C485 C41 1.385 . S
C503 C62 1.064 . S
C507 C136 1.217 . S
C525 C147 1.384 . S
C521 C82 1.247 . S
C543 C114 1.412 . S
C539 C40 1.278 . S
C557 C61 1.067 . S
C561 C125 1.150 . S
C579 C92 1.412 . S
C575 C83 1.315 . S
C597 C103 1.509 . S
C593 C20 1.361 . S
