# Generated by pormake.
# Topology iac, (4,6)-cn, num edge types: 1
# Building blocks:
#     Node 0, Type 0, BuildingBlock: GALJAG_clean_sbu_0, # of connection points: 4
#     Node 1, Type 0, BuildingBlock: GALJAG_clean_sbu_0, # of connection points: 4
#     Node 2, Type 0, BuildingBlock: GALJAG_clean_sbu_0, # of connection points: 4
#     Node 3, Type 0, BuildingBlock: GALJAG_clean_sbu_0, # of connection points: 4
#     Node 4, Type 0, BuildingBlock: GALJAG_clean_sbu_0, # of connection points: 4
#     Node 5, Type 0, BuildingBlock: GALJAG_clean_sbu_0, # of connection points: 4
#     Node 6, Type 0, BuildingBlock: GALJAG_clean_sbu_0, # of connection points: 4
#     Node 7, Type 0, BuildingBlock: GALJAG_clean_sbu_0, # of connection points: 4
#     Node 8, Type 0, BuildingBlock: GALJAG_clean_sbu_0, # of connection points: 4
#     Node 9, Type 0, BuildingBlock: GALJAG_clean_sbu_0, # of connection points: 4
#     Node 10, Type 0, BuildingBlock: GALJAG_clean_sbu_0, # of connection points: 4
#     Node 11, Type 0, BuildingBlock: GALJAG_clean_sbu_0, # of connection points: 4
#     Node 12, Type 0, BuildingBlock: GALJAG_clean_sbu_0, # of connection points: 4
#     Node 13, Type 0, BuildingBlock: GALJAG_clean_sbu_0, # of connection points: 4
#     Node 14, Type 0, BuildingBlock: GALJAG_clean_sbu_0, # of connection points: 4
#     Node 15, Type 0, BuildingBlock: GALJAG_clean_sbu_0, # of connection points: 4
#     Node 16, Type 0, BuildingBlock: GALJAG_clean_sbu_0, # of connection points: 4
#     Node 17, Type 0, BuildingBlock: GALJAG_clean_sbu_0, # of connection points: 4
#     Node 18, Type 0, BuildingBlock: GALJAG_clean_sbu_0, # of connection points: 4
#     Node 19, Type 0, BuildingBlock: GALJAG_clean_sbu_0, # of connection points: 4
#     Node 20, Type 0, BuildingBlock: GALJAG_clean_sbu_0, # of connection points: 4
#     Node 21, Type 0, BuildingBlock: GALJAG_clean_sbu_0, # of connection points: 4
#     Node 22, Type 0, BuildingBlock: GALJAG_clean_sbu_0, # of connection points: 4
#     Node 23, Type 0, BuildingBlock: GALJAG_clean_sbu_0, # of connection points: 4
#     Node 24, Type 1, BuildingBlock: CIFDUS_clean_sbu_1, # of connection points: 6
#     Node 25, Type 1, BuildingBlock: CIFDUS_clean_sbu_1, # of connection points: 6
#     Node 26, Type 1, BuildingBlock: CIFDUS_clean_sbu_1, # of connection points: 6
#     Node 27, Type 1, BuildingBlock: CIFDUS_clean_sbu_1, # of connection points: 6
#     Node 28, Type 1, BuildingBlock: CIFDUS_clean_sbu_1, # of connection points: 6
#     Node 29, Type 1, BuildingBlock: CIFDUS_clean_sbu_1, # of connection points: 6
#     Node 30, Type 1, BuildingBlock: CIFDUS_clean_sbu_1, # of connection points: 6
#     Node 31, Type 1, BuildingBlock: CIFDUS_clean_sbu_1, # of connection points: 6
#     Node 32, Type 1, BuildingBlock: CIFDUS_clean_sbu_1, # of connection points: 6
#     Node 33, Type 1, BuildingBlock: CIFDUS_clean_sbu_1, # of connection points: 6
#     Node 34, Type 1, BuildingBlock: CIFDUS_clean_sbu_1, # of connection points: 6
#     Node 35, Type 1, BuildingBlock: CIFDUS_clean_sbu_1, # of connection points: 6
#     Node 36, Type 1, BuildingBlock: CIFDUS_clean_sbu_1, # of connection points: 6
#     Node 37, Type 1, BuildingBlock: CIFDUS_clean_sbu_1, # of connection points: 6
#     Node 38, Type 1, BuildingBlock: CIFDUS_clean_sbu_1, # of connection points: 6
#     Node 39, Type 1, BuildingBlock: CIFDUS_clean_sbu_1, # of connection points: 6
#     Edge 40, Type (0, 1), None
#     Edge 41, Type (0, 1), None
#     Edge 42, Type (0, 1), None
#     Edge 43, Type (0, 1), None
#     Edge 44, Type (0, 1), None
#     Edge 45, Type (0, 1), None
#     Edge 46, Type (0, 1), None
#     Edge 47, Type (0, 1), None
#     Edge 48, Type (0, 1), None
#     Edge 49, Type (0, 1), None
#     Edge 50, Type (0, 1), None
#     Edge 51, Type (0, 1), None
#     Edge 52, Type (0, 1), None
#     Edge 53, Type (0, 1), None
#     Edge 54, Type (0, 1), None
#     Edge 55, Type (0, 1), None
#     Edge 56, Type (0, 1), None
#     Edge 57, Type (0, 1), None
#     Edge 58, Type (0, 1), None
#     Edge 59, Type (0, 1), None
#     Edge 60, Type (0, 1), None
#     Edge 61, Type (0, 1), None
#     Edge 62, Type (0, 1), None
#     Edge 63, Type (0, 1), None
#     Edge 64, Type (0, 1), None
#     Edge 65, Type (0, 1), None
#     Edge 66, Type (0, 1), None
#     Edge 67, Type (0, 1), None
#     Edge 68, Type (0, 1), None
#     Edge 69, Type (0, 1), None
#     Edge 70, Type (0, 1), None
#     Edge 71, Type (0, 1), None
#     Edge 72, Type (0, 1), None
#     Edge 73, Type (0, 1), None
#     Edge 74, Type (0, 1), None
#     Edge 75, Type (0, 1), None
#     Edge 76, Type (0, 1), None
#     Edge 77, Type (0, 1), None
#     Edge 78, Type (0, 1), None
#     Edge 79, Type (0, 1), None
#     Edge 80, Type (0, 1), None
#     Edge 81, Type (0, 1), None
#     Edge 82, Type (0, 1), None
#     Edge 83, Type (0, 1), None
#     Edge 84, Type (0, 1), None
#     Edge 85, Type (0, 1), None
#     Edge 86, Type (0, 1), None
#     Edge 87, Type (0, 1), None
#     Edge 88, Type (0, 1), None
#     Edge 89, Type (0, 1), None
#     Edge 90, Type (0, 1), None
#     Edge 91, Type (0, 1), None
#     Edge 92, Type (0, 1), None
#     Edge 93, Type (0, 1), None
#     Edge 94, Type (0, 1), None
#     Edge 95, Type (0, 1), None
#     Edge 96, Type (0, 1), None
#     Edge 97, Type (0, 1), None
#     Edge 98, Type (0, 1), None
#     Edge 99, Type (0, 1), None
#     Edge 100, Type (0, 1), None
#     Edge 101, Type (0, 1), None
#     Edge 102, Type (0, 1), None
#     Edge 103, Type (0, 1), None
#     Edge 104, Type (0, 1), None
#     Edge 105, Type (0, 1), None
#     Edge 106, Type (0, 1), None
#     Edge 107, Type (0, 1), None
#     Edge 108, Type (0, 1), None
#     Edge 109, Type (0, 1), None
#     Edge 110, Type (0, 1), None
#     Edge 111, Type (0, 1), None
#     Edge 112, Type (0, 1), None
#     Edge 113, Type (0, 1), None
#     Edge 114, Type (0, 1), None
#     Edge 115, Type (0, 1), None
#     Edge 116, Type (0, 1), None
#     Edge 117, Type (0, 1), None
#     Edge 118, Type (0, 1), None
#     Edge 119, Type (0, 1), None
#     Edge 120, Type (0, 1), None
#     Edge 121, Type (0, 1), None
#     Edge 122, Type (0, 1), None
#     Edge 123, Type (0, 1), None
#     Edge 124, Type (0, 1), None
#     Edge 125, Type (0, 1), None
#     Edge 126, Type (0, 1), None
#     Edge 127, Type (0, 1), None
#     Edge 128, Type (0, 1), None
#     Edge 129, Type (0, 1), None
#     Edge 130, Type (0, 1), None
#     Edge 131, Type (0, 1), None
#     Edge 132, Type (0, 1), None
#     Edge 133, Type (0, 1), None
#     Edge 134, Type (0, 1), None
#     Edge 135, Type (0, 1), None
# Relax obj value: 0.125
# Max RMSD: 0.168
# Mean RMSD: 0.133
data_MOF--net-iac--node1-GALJAG_clean_sbu_0--node2-CIFDUS_clean_sbu_1--edge1-none
_symmetry_space_group_name_H-M    P1
_symmetry_Int_Tables_number       1
_symmetry_cell_setting            triclinic
loop_
_symmetry_equiv_pos_as_xyz
'x, y, z'
_cell_length_a     25.001709
_cell_length_b     24.796525
_cell_length_c     24.999185
_cell_angle_alpha  89.10135
_cell_angle_beta   88.461317
_cell_angle_gamma 89.196243
loop_
_atom_site_label
_atom_site_type_symbol
_atom_site_fract_x
_atom_site_fract_y
_atom_site_fract_z
_atom_type_partial_charge
In0 In 0.00663 0.26143 0.13368 0.0
O1 O 0.0028 0.21555 0.05457 0.0
O2 O 0.00013 0.16757 0.12405 0.0
C3 C 0.00737 0.35541 0.0746 0.0
C4 C 0.92417 0.24729 0.20509 0.0
C5 C 0.10623 0.27026 0.1744 0.0
O6 O 0.98879 0.3118 0.05859 0.0
O7 O 0.01844 0.35325 0.12346 0.0
O8 O 0.06463 0.28274 0.20105 0.0
O9 O 0.0976 0.25164 0.1287 0.0
C10 C 0.99764 0.16858 0.07368 0.0
O11 O 0.97271 0.23894 0.21446 0.0
O12 O 0.91592 0.26734 0.15922 0.0
In13 In 0.00048 0.76447 0.38219 0.0
O14 O 0.05517 0.71489 0.32751 0.0
O15 O 0.0841 0.79008 0.35414 0.0
C16 C 0.9216 0.77906 0.31395 0.0
C17 C 0.01199 0.67575 0.44428 0.0
C18 C 0.98043 0.84726 0.44615 0.0
O19 O 0.96964 0.78764 0.30069 0.0
O20 O 0.91367 0.761 0.36078 0.0
O21 O 0.96716 0.79986 0.45842 0.0
O22 O 0.00607 0.85279 0.40229 0.0
C23 C 0.09315 0.74788 0.32731 0.0
O24 O 0.04261 0.71564 0.44642 0.0
O25 O 0.97468 0.6812 0.41133 0.0
In26 In 0.50666 0.76146 0.63373 0.0
O27 O 0.48862 0.81193 0.55877 0.0
O28 O 0.51865 0.85326 0.62355 0.0
C29 C 0.49755 0.66877 0.57351 0.0
C30 C 0.60632 0.77034 0.67429 0.0
C31 C 0.42427 0.74714 0.70521 0.0
O32 O 0.50219 0.71585 0.55454 0.0
O33 O 0.50064 0.66756 0.62384 0.0
O34 O 0.4728 0.73853 0.71443 0.0
O35 O 0.41601 0.76756 0.6595 0.0
C36 C 0.50736 0.85549 0.57474 0.0
O37 O 0.56475 0.78264 0.70107 0.0
O38 O 0.59764 0.75187 0.62854 0.0
In39 In 0.50041 0.26451 0.8822 0.0
O40 O 0.55511 0.21514 0.82735 0.0
O41 O 0.58407 0.29017 0.85436 0.0
C42 C 0.42154 0.27911 0.81396 0.0
C43 C 0.51187 0.17569 0.94417 0.0
C44 C 0.48039 0.3473 0.94614 0.0
O45 O 0.46958 0.28768 0.80071 0.0
O46 O 0.41359 0.26109 0.86081 0.0
O47 O 0.46714 0.2999 0.95843 0.0
O48 O 0.50598 0.35284 0.90225 0.0
C49 C 0.59311 0.2481 0.82734 0.0
O50 O 0.54248 0.21559 0.94641 0.0
O51 O 0.47461 0.18119 0.91118 0.0
In52 In 0.13484 0.00527 0.2617 0.0
O53 O 0.2101 0.95513 0.27913 0.0
O54 O 0.14522 0.91345 0.24971 0.0
C55 C 0.19542 0.09772 0.27111 0.0
C56 C 0.0939 0.99629 0.16222 0.0
C57 C 0.06315 0.02007 0.34377 0.0
O58 O 0.21411 0.05044 0.2679 0.0
O59 O 0.14527 0.09924 0.26637 0.0
O60 O 0.05435 0.02902 0.29521 0.0
O61 O 0.10851 0.99905 0.35229 0.0
C62 C 0.19411 0.91145 0.26072 0.0
O63 O 0.06788 0.98264 0.20388 0.0
O64 O 0.13925 0.01591 0.17069 0.0
In65 In 0.26709 0.88355 0.50106 0.0
O66 O 0.20812 0.95353 0.51801 0.0
O67 O 0.17811 0.87953 0.49035 0.0
C68 C 0.34783 0.95088 0.48463 0.0
C69 C 0.26181 0.84044 0.60022 0.0
C70 C 0.28371 0.81629 0.42042 0.0
O71 O 0.30045 0.96355 0.47339 0.0
O72 O 0.35468 0.90386 0.50356 0.0
O73 O 0.29484 0.80366 0.46785 0.0
O74 O 0.26475 0.86327 0.41345 0.0
C75 C 0.16794 0.92657 0.50646 0.0
O76 O 0.25004 0.81354 0.56011 0.0
O77 O 0.27805 0.88746 0.58997 0.0
In78 In 0.38631 0.00266 0.76774 0.0
O79 O 0.32186 0.05145 0.72594 0.0
O80 O 0.35746 0.08587 0.79359 0.0
C81 C 0.32247 0.91969 0.78783 0.0
C82 C 0.44077 0.01955 0.67487 0.0
C83 C 0.45453 0.98808 0.84664 0.0
O84 O 0.31017 0.96706 0.80105 0.0
O85 O 0.36632 0.91426 0.76217 0.0
O86 O 0.46788 0.97985 0.79857 0.0
O87 O 0.40761 0.00577 0.85459 0.0
C88 C 0.32429 0.09134 0.75648 0.0
O89 O 0.44066 0.05252 0.71281 0.0
O90 O 0.41415 0.97719 0.68407 0.0
In91 In 0.26534 0.13344 0.00297 0.0
O92 O 0.29267 0.05522 0.03683 0.0
O93 O 0.35232 0.09843 0.99208 0.0
C94 C 0.17421 0.07868 0.98091 0.0
C95 C 0.2874 0.18781 0.09428 0.0
C96 C 0.24659 0.20887 0.92714 0.0
O97 O 0.21852 0.07168 0.9563 0.0
O98 O 0.17575 0.11255 0.01824 0.0
O99 O 0.23163 0.21174 0.97552 0.0
O100 O 0.27628 0.16851 0.91595 0.0
C101 C 0.34104 0.05807 0.02184 0.0
O102 O 0.31222 0.1948 0.05006 0.0
O103 O 0.24979 0.15422 0.09255 0.0
In104 In 0.76723 0.38358 0.00108 0.0
O105 O 0.74986 0.31359 0.06004 0.0
O106 O 0.77837 0.38727 0.08999 0.0
C107 C 0.78393 0.31635 0.92043 0.0
C108 C 0.6681 0.42661 0.00648 0.0
C109 C 0.84793 0.45097 0.9847 0.0
O110 O 0.79509 0.30373 0.96786 0.0
O111 O 0.76491 0.36331 0.91347 0.0
O112 O 0.80054 0.46364 0.9735 0.0
O113 O 0.8548 0.40392 0.00356 0.0
C114 C 0.76187 0.34033 0.10019 0.0
O115 O 0.70826 0.4535 0.01822 0.0
O116 O 0.67828 0.37964 0.99018 0.0
In117 In 0.88629 0.50278 0.26778 0.0
O118 O 0.94053 0.55272 0.21281 0.0
O119 O 0.91424 0.47728 0.18414 0.0
C120 C 0.95457 0.48825 0.34666 0.0
C121 C 0.82424 0.59143 0.25648 0.0
C122 C 0.82239 0.41983 0.2878 0.0
O123 O 0.96791 0.48007 0.29858 0.0
O124 O 0.90762 0.50585 0.35464 0.0
O125 O 0.8101 0.4672 0.30101 0.0
O126 O 0.86628 0.41438 0.2622 0.0
C127 C 0.94076 0.51971 0.17491 0.0
O128 O 0.82188 0.55156 0.22592 0.0
O129 O 0.85736 0.58596 0.29364 0.0
In130 In 0.76538 0.6334 0.50296 0.0
O131 O 0.7927 0.55511 0.53669 0.0
O132 O 0.85237 0.59842 0.49205 0.0
C133 C 0.67418 0.57878 0.4809 0.0
C134 C 0.78748 0.68768 0.59429 0.0
C135 C 0.74667 0.70888 0.42718 0.0
O136 O 0.71846 0.57176 0.45624 0.0
O137 O 0.67578 0.61258 0.51828 0.0
O138 O 0.73178 0.71176 0.47558 0.0
O139 O 0.77628 0.66848 0.41594 0.0
C140 C 0.84108 0.55801 0.52174 0.0
O141 O 0.81232 0.69467 0.55007 0.0
O142 O 0.74985 0.65412 0.59254 0.0
In143 In 0.63482 0.50522 0.76177 0.0
O144 O 0.70999 0.45499 0.77934 0.0
O145 O 0.64517 0.41342 0.74966 0.0
C146 C 0.6954 0.59768 0.77116 0.0
C147 C 0.59396 0.49632 0.66224 0.0
C148 C 0.56314 0.51998 0.8439 0.0
O149 O 0.71409 0.5504 0.76803 0.0
O150 O 0.64526 0.59921 0.76636 0.0
O151 O 0.5543 0.52893 0.79535 0.0
O152 O 0.60852 0.49897 0.85236 0.0
C153 C 0.69402 0.41135 0.76081 0.0
O154 O 0.56777 0.48293 0.70389 0.0
O155 O 0.6394 0.51568 0.67076 0.0
In156 In 0.01406 0.75503 0.88172 0.0
O157 O 0.04585 0.78594 0.80291 0.0
O158 O 0.10292 0.74585 0.85063 0.0
C159 C 0.91688 0.74157 0.83703 0.0
C160 C 0.00605 0.66934 0.95051 0.0
C161 C 0.0309 0.84176 0.94653 0.0
O162 O 0.95602 0.71011 0.82863 0.0
O163 O 0.92613 0.77944 0.86875 0.0
O164 O 0.0435 0.79343 0.95681 0.0
O165 O 0.00701 0.8478 0.90271 0.0
C166 C 0.09401 0.77264 0.80838 0.0
O167 O 0.00903 0.71771 0.96416 0.0
O168 O 0.0118 0.66276 0.90062 0.0
In169 In 0.01697 0.25132 0.63681 0.0
O170 O 0.97415 0.3009 0.57375 0.0
O171 O 0.0433 0.33442 0.60753 0.0
C172 C 0.03451 0.16956 0.57068 0.0
C173 C 0.09611 0.23658 0.70501 0.0
C174 C 0.92474 0.26928 0.69215 0.0
O175 O 0.04698 0.21723 0.55865 0.0
O176 O 0.01148 0.16304 0.61579 0.0
O177 O 0.96272 0.30225 0.69067 0.0
O178 O 0.9336 0.22622 0.66661 0.0
C179 C 0.00527 0.34044 0.57544 0.0
O180 O 0.04815 0.22732 0.71805 0.0
O181 O 0.10392 0.25491 0.65823 0.0
In182 In 0.51406 0.25511 0.3817 0.0
O183 O 0.5458 0.28579 0.30276 0.0
O184 O 0.6029 0.24592 0.35062 0.0
C185 C 0.41703 0.24147 0.33674 0.0
C186 C 0.50543 0.16991 0.45089 0.0
C187 C 0.53137 0.34168 0.44649 0.0
O188 O 0.45592 0.20943 0.32941 0.0
O189 O 0.42644 0.28003 0.36759 0.0
O190 O 0.54461 0.29342 0.45628 0.0
O191 O 0.50663 0.34776 0.40316 0.0
C192 C 0.59398 0.27259 0.3083 0.0
O193 O 0.50724 0.21847 0.46421 0.0
O194 O 0.51257 0.16288 0.4012 0.0
In195 In 0.51703 0.75137 0.13685 0.0
O196 O 0.5474 0.71715 0.05889 0.0
O197 O 0.5116 0.66305 0.11592 0.0
C198 C 0.50525 0.84038 0.07533 0.0
C199 C 0.42471 0.76934 0.19204 0.0
C200 C 0.59608 0.73689 0.20519 0.0
O201 O 0.47418 0.8008 0.07368 0.0
O202 O 0.54327 0.83445 0.10744 0.0
O203 O 0.54812 0.72764 0.21822 0.0
O204 O 0.60393 0.75509 0.15837 0.0
C205 C 0.53488 0.6695 0.07091 0.0
O206 O 0.46267 0.80234 0.19057 0.0
O207 O 0.43364 0.72624 0.16658 0.0
In208 In 0.88702 0.0119 0.75388 0.0
O209 O 0.96753 0.98513 0.72212 0.0
O210 O 0.91714 0.02107 0.66484 0.0
C211 C 0.93431 0.02749 0.84947 0.0
C212 C 0.81496 0.0929 0.76783 0.0
C213 C 0.82268 0.9259 0.73386 0.0
O214 O 0.93245 0.06306 0.81302 0.0
O215 O 0.91168 0.98383 0.83831 0.0
O216 O 0.81586 0.97359 0.71704 0.0
O217 O 0.86284 0.91995 0.76343 0.0
C218 C 0.96072 0.99665 0.67368 0.0
O219 O 0.80559 0.04351 0.77455 0.0
O220 O 0.86169 0.10299 0.74984 0.0
In221 In 0.7531 0.13351 0.51536 0.0
O222 O 0.80824 0.07356 0.47263 0.0
O223 O 0.83692 0.11058 0.54223 0.0
C224 C 0.67239 0.06488 0.52985 0.0
C225 C 0.73888 0.20208 0.59602 0.0
C226 C 0.76404 0.18858 0.42214 0.0
O227 O 0.72042 0.05096 0.53615 0.0
O228 O 0.66494 0.11337 0.51564 0.0
O229 O 0.79572 0.1935 0.46003 0.0
O230 O 0.72599 0.15645 0.43161 0.0
C231 C 0.84624 0.07848 0.50419 0.0
O232 O 0.73269 0.2161 0.54797 0.0
O233 O 0.75287 0.15355 0.6035 0.0
In234 In 0.63131 0.01533 0.25132 0.0
O235 O 0.6946 0.96572 0.29377 0.0
O236 O 0.66029 0.93228 0.2249 0.0
C237 C 0.69725 0.09741 0.23379 0.0
C238 C 0.56283 0.02959 0.17234 0.0
C239 C 0.57654 0.99728 0.34387 0.0
O240 O 0.70943 0.04976 0.22151 0.0
O241 O 0.65202 0.10379 0.25658 0.0
O242 O 0.57787 0.96426 0.30599 0.0
O243 O 0.60191 0.04045 0.33476 0.0
C244 C 0.69262 0.9262 0.26271 0.0
O245 O 0.54969 0.0382 0.22038 0.0
O246 O 0.60989 0.01224 0.16434 0.0
In247 In 0.75246 0.88348 0.01556 0.0
O248 O 0.72381 0.96246 0.98472 0.0
O249 O 0.6642 0.91565 0.02529 0.0
C250 C 0.84418 0.93907 0.03378 0.0
C251 C 0.77027 0.80927 0.09294 0.0
C252 C 0.73344 0.82841 0.92375 0.0
O253 O 0.80023 0.94727 0.05865 0.0
O254 O 0.84214 0.90298 0.99865 0.0
O255 O 0.70845 0.82044 0.96769 0.0
O256 O 0.76917 0.86394 0.92584 0.0
C257 C 0.67523 0.95777 0.99808 0.0
O258 O 0.78358 0.80463 0.04434 0.0
O259 O 0.74297 0.85129 0.10391 0.0
In260 In 0.25319 0.63347 0.01538 0.0
O261 O 0.23234 0.71599 0.04794 0.0
O262 O 0.2529 0.65356 0.10348 0.0
C263 C 0.26365 0.68788 0.92174 0.0
C264 C 0.34667 0.57896 0.00469 0.0
C265 C 0.17245 0.56497 0.0303 0.0
O266 O 0.29476 0.69413 0.95987 0.0
O267 O 0.22645 0.65477 0.93117 0.0
O268 O 0.22047 0.55108 0.03679 0.0
O269 O 0.16503 0.61338 0.01577 0.0
C270 C 0.2387 0.70203 0.09599 0.0
O271 O 0.30844 0.5728 0.97368 0.0
O272 O 0.33743 0.61203 0.04189 0.0
In273 In 0.13134 0.51529 0.75131 0.0
O274 O 0.19483 0.46557 0.7934 0.0
O275 O 0.15987 0.4321 0.7249 0.0
C276 C 0.19717 0.59738 0.73341 0.0
C277 C 0.06284 0.52967 0.67238 0.0
C278 C 0.07684 0.49742 0.84404 0.0
O279 O 0.20935 0.54972 0.72117 0.0
O280 O 0.15204 0.60375 0.75641 0.0
O281 O 0.07777 0.46448 0.8061 0.0
O282 O 0.10249 0.54042 0.8349 0.0
C283 C 0.19246 0.426 0.76247 0.0
O284 O 0.04972 0.53826 0.72043 0.0
O285 O 0.10988 0.51225 0.66436 0.0
In286 In 0.25251 0.38344 0.51561 0.0
O287 O 0.28375 0.30462 0.54432 0.0
O288 O 0.24294 0.3511 0.6039 0.0
C289 C 0.23352 0.32833 0.42383 0.0
C290 C 0.17531 0.45774 0.49806 0.0
C291 C 0.34422 0.43897 0.53405 0.0
O292 O 0.20856 0.32032 0.46779 0.0
O293 O 0.26921 0.36391 0.4259 0.0
O294 O 0.30027 0.44707 0.55894 0.0
O295 O 0.34219 0.40303 0.49877 0.0
C296 C 0.27035 0.30916 0.5929 0.0
O297 O 0.22389 0.46237 0.48465 0.0
O298 O 0.16427 0.41567 0.52536 0.0
In299 In 0.38696 0.51189 0.25398 0.0
O300 O 0.46695 0.48361 0.22239 0.0
O301 O 0.41767 0.52123 0.16509 0.0
C302 C 0.43368 0.52705 0.34991 0.0
C303 C 0.31542 0.59377 0.26671 0.0
C304 C 0.32241 0.42591 0.2343 0.0
O305 O 0.43403 0.56199 0.31281 0.0
O306 O 0.40905 0.4844 0.33927 0.0
O307 O 0.31542 0.47366 0.21772 0.0
O308 O 0.36283 0.4199 0.2635 0.0
C309 C 0.46071 0.49584 0.17402 0.0
O310 O 0.30504 0.54444 0.27164 0.0
O311 O 0.36301 0.60335 0.2511 0.0
O312 O 0.08233 0.05118 0.99385 0.0
Mn313 Mn 0.00986 0.0076 0.00839 0.0
O314 O 0.14397 0.99186 0.96682 0.0
Mn315 Mn 0.10913 0.94112 0.00831 0.0
O316 O 0.93679 0.96555 0.02339 0.0
O317 O 0.97731 0.08179 0.02892 0.0
Mn318 Mn 0.91204 0.08109 0.0025 0.0
O319 O 0.98578 0.01523 0.92838 0.0
O320 O 0.87244 0.02799 0.03663 0.0
O321 O 0.03393 0.99926 0.0884 0.0
O322 O 0.113 0.95551 0.08058 0.0
O323 O 0.91643 0.14702 0.03254 0.0
O324 O 0.91608 0.07358 0.92876 0.0
C325 C 0.06056 0.88468 0.9733 0.0
C326 C 0.12997 0.03999 0.97598 0.0
C327 C 0.88768 0.97904 0.03448 0.0
C328 C 0.96385 0.13035 0.04514 0.0
C329 C 0.94777 0.04085 0.90469 0.0
C330 C 0.07824 0.98184 0.10794 0.0
O331 O 0.04207 0.93265 0.98739 0.0
O332 O 0.10959 0.87303 0.98514 0.0
O333 O 0.33971 0.75562 0.23438 0.0
Mn334 Mn 0.25899 0.75724 0.25926 0.0
O335 O 0.35317 0.82866 0.1815 0.0
Mn336 Mn 0.28147 0.8403 0.16829 0.0
O337 O 0.17796 0.75946 0.28351 0.0
O338 O 0.27096 0.68083 0.28844 0.0
Mn339 Mn 0.23736 0.67933 0.35164 0.0
O340 O 0.2772 0.79197 0.33091 0.0
O341 O 0.16539 0.69095 0.34188 0.0
O342 O 0.24142 0.72397 0.18669 0.0
O343 O 0.25241 0.78971 0.12395 0.0
O344 O 0.26462 0.6119 0.34502 0.0
O345 O 0.26949 0.72812 0.39513 0.0
C346 C 0.23104 0.882 0.2248 0.0
C347 C 0.37025 0.78687 0.20623 0.0
C348 C 0.14778 0.73033 0.31421 0.0
C349 C 0.28313 0.63069 0.29966 0.0
C350 C 0.28016 0.77588 0.37955 0.0
C351 C 0.24125 0.74142 0.13815 0.0
O352 O 0.24737 0.83257 0.2303 0.0
O353 O 0.24835 0.90573 0.18139 0.0
O354 O 0.43739 0.97489 0.49125 0.0
Mn355 Mn 0.50915 0.00937 0.5094 0.0
O356 O 0.37339 0.03913 0.49852 0.0
Mn357 Mn 0.41658 0.08854 0.5304 0.0
O358 O 0.58169 0.04281 0.52697 0.0
O359 O 0.53809 0.93417 0.52123 0.0
Mn360 Mn 0.60021 0.92644 0.48738 0.0
O361 O 0.53414 0.01094 0.42876 0.0
O362 O 0.64443 0.97713 0.51649 0.0
O363 O 0.48455 0.0075 0.59026 0.0
O364 O 0.4268 0.07667 0.60243 0.0
O365 O 0.58685 0.86104 0.52067 0.0
O366 O 0.58724 0.93811 0.41561 0.0
C367 C 0.47066 0.13514 0.4837 0.0
C368 C 0.38883 0.99122 0.48817 0.0
C369 C 0.63022 0.02544 0.52737 0.0
C370 C 0.54342 0.88479 0.53774 0.0
C371 C 0.56244 0.97978 0.39838 0.0
C372 C 0.45405 0.03699 0.6202 0.0
O373 O 0.47979 0.08515 0.49731 0.0
O374 O 0.42576 0.15554 0.5014 0.0
O375 O 0.33147 0.27648 0.79205 0.0
Mn376 Mn 0.25867 0.25879 0.75982 0.0
O377 O 0.39452 0.26626 0.72744 0.0
Mn378 Mn 0.34904 0.23277 0.68236 0.0
O379 O 0.18601 0.24097 0.7273 0.0
O380 O 0.23049 0.25019 0.83772 0.0
Mn381 Mn 0.1676 0.28391 0.83665 0.0
O382 O 0.23706 0.34086 0.75473 0.0
O383 O 0.12277 0.24898 0.7919 0.0
O384 O 0.28033 0.17669 0.76493 0.0
O385 O 0.33838 0.16112 0.6969 0.0
O386 O 0.17178 0.26211 0.90502 0.0
O387 O 0.17683 0.35563 0.82111 0.0
C388 C 0.3 0.27632 0.63158 0.0
C389 C 0.38008 0.27773 0.77494 0.0
C390 C 0.13744 0.23835 0.74426 0.0
C391 C 0.21713 0.24175 0.88822 0.0
C392 C 0.20571 0.37206 0.78197 0.0
C393 C 0.31039 0.14503 0.7368 0.0
O394 O 0.28682 0.26759 0.68204 0.0
O395 O 0.34502 0.25558 0.61433 0.0
O396 O 0.99278 0.9366 0.47061 0.0
Mn397 Mn 0.01005 0.00792 0.50837 0.0
O398 O 0.97654 0.87436 0.53396 0.0
Mn399 Mn 0.02111 0.9087 0.57879 0.0
O400 O 0.02725 0.07946 0.54551 0.0
O401 O 0.02181 0.03946 0.43276 0.0
Mn402 Mn 0.99194 0.10439 0.43505 0.0
O403 O 0.92919 0.03122 0.5115 0.0
O404 O 0.0284 0.14478 0.48256 0.0
O405 O 0.09054 0.98377 0.50625 0.0
O406 O 0.09157 0.90693 0.55572 0.0
O407 O 0.01602 0.09952 0.36672 0.0
O408 O 0.91999 0.09809 0.45058 0.0
C409 C 0.98893 0.96335 0.63388 0.0
C410 C 0.9781 0.88943 0.4854 0.0
C411 C 0.03406 0.12844 0.5304 0.0
C412 C 0.03299 0.05256 0.38291 0.0
C413 C 0.90094 0.06658 0.48652 0.0
C414 C 0.11406 0.94115 0.5245 0.0
O415 O 0.99901 0.97642 0.58387 0.0
O416 O 0.0028 0.91494 0.64872 0.0
O417 O 0.2978 0.83038 0.77532 0.0
Mn418 Mn 0.25969 0.75912 0.75822 0.0
O419 O 0.23471 0.89258 0.79181 0.0
Mn420 Mn 0.19008 0.85823 0.74717 0.0
O421 O 0.2223 0.68753 0.7412 0.0
O422 O 0.33523 0.72757 0.74639 0.0
Mn423 Mn 0.33269 0.66237 0.77576 0.0
O424 O 0.25679 0.73579 0.83907 0.0
O425 O 0.2853 0.62243 0.73869 0.0
O426 O 0.26173 0.78313 0.67765 0.0
O427 O 0.21302 0.8603 0.67673 0.0
O428 O 0.40112 0.66742 0.75199 0.0
O429 O 0.31668 0.66793 0.8477 0.0
C430 C 0.13433 0.80481 0.77956 0.0
C431 C 0.2832 0.87749 0.79018 0.0
C432 C 0.23738 0.63868 0.73371 0.0
C433 C 0.38506 0.71449 0.73521 0.0
C434 C 0.28125 0.69979 0.86701 0.0
C435 C 0.24383 0.8259 0.65415 0.0
O436 O 0.18411 0.79061 0.7696 0.0
O437 O 0.12018 0.85329 0.76511 0.0
O438 O 0.47627 0.99031 0.93678 0.0
Mn439 Mn 0.5083 0.008 0.00965 0.0
O440 O 0.54093 0.00132 0.87385 0.0
Mn441 Mn 0.58597 0.03452 0.91958 0.0
O442 O 0.54058 0.02585 0.08238 0.0
O443 O 0.43034 0.01652 0.0377 0.0
Mn444 Mn 0.43116 0.98196 0.10022 0.0
O445 O 0.51345 0.92588 0.03132 0.0
O446 O 0.47612 0.01599 0.14557 0.0
O447 O 0.50317 0.09014 0.98792 0.0
O448 O 0.57162 0.10612 0.93047 0.0
O449 O 0.36294 0.00412 0.09626 0.0
O450 O 0.44605 0.91031 0.09015 0.0
C451 C 0.63661 0.99073 0.96851 0.0
C452 C 0.49346 0.98947 0.88818 0.0
C453 C 0.52361 0.02751 0.13099 0.0
C454 C 0.37986 0.0249 0.05109 0.0
C455 C 0.4857 0.89425 0.06186 0.0
C456 C 0.53149 0.122 0.95817 0.0
O457 O 0.58614 0.99935 0.98168 0.0
O458 O 0.65394 0.01172 0.92358 0.0
O459 O 0.33977 0.25104 0.28258 0.0
Mn460 Mn 0.25991 0.25932 0.25842 0.0
O461 O 0.33712 0.19669 0.35558 0.0
Mn462 Mn 0.2636 0.18713 0.35723 0.0
O463 O 0.17987 0.26793 0.23463 0.0
O464 O 0.28137 0.33452 0.22608 0.0
Mn465 Mn 0.26038 0.3248 0.15913 0.0
O466 O 0.2741 0.2154 0.18609 0.0
O467 O 0.1882 0.31022 0.15485 0.0
O468 O 0.2453 0.30171 0.3314 0.0
O469 O 0.22732 0.23987 0.39511 0.0
O470 O 0.28295 0.39287 0.15702 0.0
O471 O 0.30224 0.27435 0.12461 0.0
C472 C 0.22314 0.13656 0.30493 0.0
C473 C 0.36217 0.22756 0.32269 0.0
C474 C 0.16054 0.28465 0.18998 0.0
C475 C 0.29516 0.38219 0.20618 0.0
C476 C 0.29254 0.22633 0.13858 0.0
C477 C 0.2319 0.28868 0.38013 0.0
O478 O 0.23919 0.18516 0.29116 0.0
O479 O 0.23491 0.12055 0.35281 0.0
O480 O 0.49293 0.4366 0.97066 0.0
Mn481 Mn 0.51019 0.50788 0.00853 0.0
O482 O 0.47658 0.37436 0.03394 0.0
Mn483 Mn 0.52123 0.40866 0.07868 0.0
O484 O 0.52735 0.57941 0.04576 0.0
O485 O 0.52194 0.53946 0.93294 0.0
Mn486 Mn 0.49249 0.60458 0.93538 0.0
O487 O 0.42936 0.53119 0.01157 0.0
O488 O 0.52944 0.64464 0.98277 0.0
O489 O 0.59069 0.48381 0.0064 0.0
O490 O 0.59167 0.40681 0.05559 0.0
O491 O 0.5163 0.59958 0.86695 0.0
O492 O 0.42056 0.59878 0.95132 0.0
C493 C 0.48907 0.46291 0.13402 0.0
C494 C 0.47813 0.38946 0.9854 0.0
C495 C 0.53463 0.62832 0.03067 0.0
C496 C 0.53311 0.55254 0.88308 0.0
C497 C 0.40134 0.567 0.98695 0.0
C498 C 0.6142 0.44112 0.02451 0.0
O499 O 0.49908 0.47636 0.08407 0.0
O500 O 0.50309 0.41446 0.14863 0.0
O501 O 0.79772 0.33049 0.27538 0.0
Mn502 Mn 0.75967 0.2592 0.25829 0.0
O503 O 0.7346 0.39275 0.29158 0.0
Mn504 Mn 0.68997 0.35827 0.24702 0.0
O505 O 0.72238 0.18759 0.24127 0.0
O506 O 0.83522 0.22768 0.24647 0.0
Mn507 Mn 0.83292 0.1627 0.27632 0.0
O508 O 0.75668 0.23592 0.33918 0.0
O509 O 0.78534 0.12239 0.23986 0.0
O510 O 0.76179 0.28316 0.17771 0.0
O511 O 0.7129 0.36021 0.17657 0.0
O512 O 0.90123 0.16769 0.25218 0.0
O513 O 0.81739 0.16891 0.34828 0.0
C514 C 0.63428 0.3048 0.27948 0.0
C515 C 0.7831 0.37764 0.29009 0.0
C516 C 0.73748 0.13866 0.23434 0.0
C517 C 0.88505 0.21465 0.23522 0.0
C518 C 0.78159 0.20046 0.36738 0.0
C519 C 0.74381 0.32583 0.1541 0.0
O520 O 0.68407 0.29068 0.26956 0.0
O521 O 0.62007 0.35325 0.26498 0.0
O522 O 0.97634 0.49035 0.43681 0.0
Mn523 Mn 0.00836 0.50803 0.50969 0.0
O524 O 0.04096 0.50159 0.37388 0.0
Mn525 Mn 0.08606 0.53464 0.41968 0.0
O526 O 0.04062 0.52588 0.58242 0.0
O527 O 0.93039 0.51653 0.53771 0.0
Mn528 Mn 0.93121 0.4821 0.6003 0.0
O529 O 0.01348 0.42591 0.53136 0.0
O530 O 0.97611 0.51625 0.6456 0.0
O531 O 0.00323 0.59017 0.48796 0.0
O532 O 0.07181 0.60622 0.43071 0.0
O533 O 0.86298 0.50419 0.59627 0.0
O534 O 0.94619 0.41044 0.59036 0.0
C535 C 0.13668 0.49073 0.46854 0.0
C536 C 0.99352 0.48964 0.3882 0.0
C537 C 0.02363 0.52766 0.63102 0.0
C538 C 0.8799 0.52491 0.55107 0.0
C539 C 0.98579 0.39434 0.56201 0.0
C540 C 0.03162 0.62208 0.45832 0.0
O541 O 0.08621 0.49935 0.48173 0.0
O542 O 0.154 0.51176 0.42362 0.0
O543 O 0.83151 0.77659 0.29207 0.0
Mn544 Mn 0.75868 0.75892 0.2599 0.0
O545 O 0.89452 0.76621 0.22744 0.0
Mn546 Mn 0.84896 0.73283 0.18236 0.0
O547 O 0.68599 0.7411 0.22747 0.0
O548 O 0.73054 0.7503 0.33782 0.0
Mn549 Mn 0.66775 0.78421 0.33686 0.0
O550 O 0.73706 0.841 0.25481 0.0
O551 O 0.62277 0.74955 0.29204 0.0
O552 O 0.78034 0.67682 0.265 0.0
O553 O 0.83821 0.66118 0.19685 0.0
O554 O 0.67192 0.76226 0.40518 0.0
O555 O 0.67723 0.85592 0.3215 0.0
C556 C 0.79994 0.77645 0.13162 0.0
C557 C 0.88012 0.77774 0.27494 0.0
C558 C 0.63741 0.73872 0.24443 0.0
C559 C 0.71722 0.74183 0.38832 0.0
C560 C 0.70594 0.87228 0.2822 0.0
C561 C 0.81031 0.64512 0.23682 0.0
O562 O 0.78677 0.76772 0.18209 0.0
O563 O 0.84493 0.75568 0.11435 0.0
O564 O 0.83972 0.2555 0.73446 0.0
Mn565 Mn 0.75899 0.25713 0.75934 0.0
O566 O 0.85325 0.3287 0.68181 0.0
Mn567 Mn 0.78158 0.3403 0.66849 0.0
O568 O 0.67793 0.25946 0.78349 0.0
O569 O 0.77093 0.18052 0.78841 0.0
Mn570 Mn 0.73731 0.17963 0.85166 0.0
O571 O 0.77724 0.29194 0.83096 0.0
O572 O 0.66534 0.1913 0.8422 0.0
O573 O 0.74145 0.22393 0.68674 0.0
O574 O 0.75265 0.28971 0.62407 0.0
O575 O 0.76399 0.11205 0.8457 0.0
O576 O 0.76966 0.22817 0.8952 0.0
C577 C 0.73103 0.38193 0.72494 0.0
C578 C 0.8703 0.28683 0.70643 0.0
C579 C 0.64774 0.23052 0.81434 0.0
C580 C 0.78268 0.13036 0.80021 0.0
C581 C 0.78034 0.27591 0.87959 0.0
C582 C 0.74142 0.24142 0.63821 0.0
O583 O 0.74738 0.3325 0.73043 0.0
O584 O 0.7484 0.4057 0.68156 0.0
O585 O 0.8398 0.75087 0.78256 0.0
Mn586 Mn 0.75996 0.75929 0.75838 0.0
O587 O 0.83688 0.69696 0.85588 0.0
Mn588 Mn 0.76338 0.68726 0.85727 0.0
O589 O 0.67992 0.76801 0.73459 0.0
O590 O 0.78159 0.8345 0.72609 0.0
Mn591 Mn 0.76058 0.82458 0.65918 0.0
O592 O 0.77412 0.71531 0.68608 0.0
O593 O 0.68841 0.8101 0.65474 0.0
O594 O 0.74538 0.80174 0.83134 0.0
O595 O 0.72694 0.73999 0.89499 0.0
O596 O 0.78311 0.89262 0.65677 0.0
O597 O 0.80245 0.77417 0.62466 0.0
C598 C 0.72309 0.63657 0.80495 0.0
C599 C 0.86205 0.72762 0.82288 0.0
C600 C 0.66066 0.78465 0.68988 0.0
C601 C 0.79537 0.8821 0.70595 0.0
C602 C 0.79265 0.72617 0.6386 0.0
C603 C 0.73176 0.78878 0.88004 0.0
O604 O 0.73915 0.68516 0.79112 0.0
O605 O 0.73479 0.62064 0.85288 0.0
O606 O 0.58231 0.55128 0.49395 0.0
Mn607 Mn 0.50985 0.50764 0.50845 0.0
O608 O 0.64387 0.49203 0.46667 0.0
Mn609 Mn 0.60908 0.44136 0.50825 0.0
O610 O 0.4368 0.46551 0.52339 0.0
O611 O 0.47728 0.58182 0.529 0.0
Mn612 Mn 0.41182 0.58083 0.50302 0.0
O613 O 0.48574 0.51541 0.42849 0.0
O614 O 0.37257 0.52781 0.53765 0.0
O615 O 0.5339 0.49922 0.58847 0.0
O616 O 0.61309 0.45576 0.5805 0.0
O617 O 0.41624 0.64691 0.53273 0.0
O618 O 0.4153 0.57288 0.42932 0.0
C619 C 0.56077 0.38474 0.47331 0.0
C620 C 0.6299 0.54014 0.47594 0.0
C621 C 0.38775 0.47889 0.53498 0.0
C622 C 0.46376 0.6304 0.54516 0.0
C623 C 0.44726 0.54056 0.40505 0.0
C624 C 0.57829 0.48193 0.60795 0.0
O625 O 0.54203 0.43265 0.48735 0.0
O626 O 0.60984 0.37327 0.48521 0.0
O627 O 0.9375 0.47493 0.99129 0.0
Mn628 Mn 0.00926 0.50937 0.00949 0.0
O629 O 0.87351 0.53922 0.99859 0.0
Mn630 Mn 0.91665 0.58876 0.0304 0.0
O631 O 0.08177 0.54286 0.02716 0.0
O632 O 0.03822 0.43417 0.0213 0.0
Mn633 Mn 0.10047 0.42655 0.98767 0.0
O634 O 0.03431 0.51096 0.92888 0.0
O635 O 0.14455 0.47717 0.01709 0.0
O636 O 0.98455 0.50753 0.09031 0.0
O637 O 0.92696 0.57688 0.10244 0.0
O638 O 0.08701 0.36108 0.02077 0.0
O639 O 0.0878 0.43838 0.91585 0.0
C640 C 0.97106 0.63499 0.98353 0.0
C641 C 0.88895 0.4913 0.98824 0.0
C642 C 0.13029 0.5255 0.02783 0.0
C643 C 0.04351 0.38477 0.03774 0.0
C644 C 0.06284 0.47993 0.89857 0.0
C645 C 0.95409 0.53711 0.12023 0.0
O646 O 0.97986 0.58504 0.9974 0.0
O647 O 0.92624 0.65567 0.0011 0.0
loop_
_geom_bond_atom_site_label_1
_geom_bond_atom_site_label_2
_geom_bond_distance
_geom_bond_site_symmetry_2
_ccdc_geom_bond_type
In0 O1 2.294 1_455 S
In0 O2 2.326 1_455 S
In0 O6 2.266 . S
In0 O7 2.326 . S
In0 O8 2.266 . S
In0 O9 2.326 . S
In0 O11 2.294 1_455 S
In0 O12 2.326 1_455 S
O1 In0 2.294 1_655 S
O1 C10 1.240 . S
O2 In0 2.326 1_655 S
O2 C10 1.252 . S
C3 O6 1.252 . S
C3 O7 1.260 . S
C4 O11 1.240 . S
C4 O12 1.252 . S
C5 O8 1.252 . S
C5 O9 1.260 . S
O6 In0 2.266 . S
O6 C3 1.252 . S
O7 In0 2.326 . S
O7 C3 1.260 . S
O8 In0 2.266 . S
O8 C5 1.252 . S
O9 In0 2.326 . S
O9 C5 1.260 . S
C10 O1 1.240 . S
C10 O2 1.252 . S
O11 In0 2.294 1_655 S
O11 C4 1.240 . S
O12 In0 2.326 1_655 S
O12 C4 1.252 . S
In13 O14 2.294 . S
In13 O15 2.326 . S
In13 O19 2.266 1_455 S
In13 O20 2.326 1_455 S
In13 O21 2.266 1_455 S
In13 O22 2.326 . S
In13 O24 2.294 . S
In13 O25 2.326 . S
O14 In13 2.294 . S
O14 C23 1.240 . S
O15 In13 2.326 . S
O15 C23 1.252 . S
C16 O19 1.252 . S
C16 O20 1.260 . S
C17 O24 1.240 . S
C17 O25 1.252 . S
C18 O21 1.252 . S
C18 O22 1.260 1_655 S
O19 In13 2.266 1_655 S
O19 C16 1.252 . S
O20 In13 2.326 1_655 S
O20 C16 1.260 . S
O21 In13 2.266 1_655 S
O21 C18 1.252 . S
O22 In13 2.326 . S
O22 C18 1.260 1_455 S
C23 O14 1.240 . S
C23 O15 1.252 . S
O24 In13 2.294 . S
O24 C17 1.240 . S
O25 In13 2.326 . S
O25 C17 1.252 . S
In26 O27 2.294 . S
In26 O28 2.326 . S
In26 O32 2.266 . S
In26 O33 2.326 . S
In26 O34 2.266 . S
In26 O35 2.326 . S
In26 O37 2.294 . S
In26 O38 2.326 . S
O27 In26 2.294 . S
O27 C36 1.240 . S
O28 In26 2.326 . S
O28 C36 1.252 . S
C29 O32 1.252 . S
C29 O33 1.260 . S
C30 O37 1.240 . S
C30 O38 1.252 . S
C31 O34 1.252 . S
C31 O35 1.260 . S
O32 In26 2.266 . S
O32 C29 1.252 . S
O33 In26 2.326 . S
O33 C29 1.260 . S
O34 In26 2.266 . S
O34 C31 1.252 . S
O35 In26 2.326 . S
O35 C31 1.260 . S
C36 O27 1.240 . S
C36 O28 1.252 . S
O37 In26 2.294 . S
O37 C30 1.240 . S
O38 In26 2.326 . S
O38 C30 1.252 . S
In39 O40 2.294 . S
In39 O41 2.326 . S
In39 O45 2.266 . S
In39 O46 2.326 . S
In39 O47 2.266 . S
In39 O48 2.326 . S
In39 O50 2.294 . S
In39 O51 2.326 . S
O40 In39 2.294 . S
O40 C49 1.240 . S
O41 In39 2.326 . S
O41 C49 1.252 . S
C42 O45 1.252 . S
C42 O46 1.260 . S
C43 O50 1.240 . S
C43 O51 1.252 . S
C44 O47 1.252 . S
C44 O48 1.260 . S
O45 In39 2.266 . S
O45 C42 1.252 . S
O46 In39 2.326 . S
O46 C42 1.260 . S
O47 In39 2.266 . S
O47 C44 1.252 . S
O48 In39 2.326 . S
O48 C44 1.260 . S
C49 O40 1.240 . S
C49 O41 1.252 . S
O50 In39 2.294 . S
O50 C43 1.240 . S
O51 In39 2.326 . S
O51 C43 1.252 . S
In52 O53 2.294 1_545 S
In52 O54 2.326 1_545 S
In52 O58 2.266 . S
In52 O59 2.326 . S
In52 O60 2.266 . S
In52 O61 2.326 . S
In52 O63 2.294 1_545 S
In52 O64 2.326 1_545 S
O53 In52 2.294 1_565 S
O53 C62 1.240 . S
O54 In52 2.326 1_565 S
O54 C62 1.252 . S
C55 O58 1.252 . S
C55 O59 1.260 . S
C56 O63 1.240 . S
C56 O64 1.252 . S
C57 O60 1.252 . S
C57 O61 1.260 . S
O58 In52 2.266 . S
O58 C55 1.252 . S
O59 In52 2.326 . S
O59 C55 1.260 . S
O60 In52 2.266 . S
O60 C57 1.252 . S
O61 In52 2.326 . S
O61 C57 1.260 . S
C62 O53 1.240 . S
C62 O54 1.252 . S
O63 In52 2.294 1_565 S
O63 C56 1.240 . S
O64 In52 2.326 1_565 S
O64 C56 1.252 . S
In65 O66 2.294 . S
In65 O67 2.326 . S
In65 O71 2.266 . S
In65 O72 2.326 . S
In65 O73 2.266 . S
In65 O74 2.326 . S
In65 O76 2.294 . S
In65 O77 2.326 . S
O66 In65 2.294 . S
O66 C75 1.240 . S
O67 In65 2.326 . S
O67 C75 1.252 . S
C68 O71 1.252 . S
C68 O72 1.260 . S
C69 O76 1.240 . S
C69 O77 1.252 . S
C70 O73 1.252 . S
C70 O74 1.260 . S
O71 In65 2.266 . S
O71 C68 1.252 . S
O72 In65 2.326 . S
O72 C68 1.260 . S
O73 In65 2.266 . S
O73 C70 1.252 . S
O74 In65 2.326 . S
O74 C70 1.260 . S
C75 O66 1.240 . S
C75 O67 1.252 . S
O76 In65 2.294 . S
O76 C69 1.240 . S
O77 In65 2.326 . S
O77 C69 1.252 . S
In78 O79 2.294 . S
In78 O80 2.326 . S
In78 O84 2.266 1_545 S
In78 O85 2.326 1_545 S
In78 O86 2.266 1_545 S
In78 O87 2.326 . S
In78 O89 2.294 . S
In78 O90 2.326 . S
O79 In78 2.294 . S
O79 C88 1.240 . S
O80 In78 2.326 . S
O80 C88 1.252 . S
C81 O84 1.252 . S
C81 O85 1.260 . S
C82 O89 1.240 . S
C82 O90 1.252 . S
C83 O86 1.252 . S
C83 O87 1.260 1_565 S
O84 In78 2.266 1_565 S
O84 C81 1.252 . S
O85 In78 2.326 1_565 S
O85 C81 1.260 . S
O86 In78 2.266 1_565 S
O86 C83 1.252 . S
O87 In78 2.326 . S
O87 C83 1.260 1_545 S
C88 O79 1.240 . S
C88 O80 1.252 . S
O89 In78 2.294 . S
O89 C82 1.240 . S
O90 In78 2.326 . S
O90 C82 1.252 . S
In91 O92 2.294 . S
In91 O93 2.326 . S
In91 O97 2.266 1_554 S
In91 O98 2.326 . S
In91 O99 2.266 1_554 S
In91 O100 2.326 1_554 S
In91 O102 2.294 . S
In91 O103 2.326 . S
O92 In91 2.294 . S
O92 C101 1.240 . S
O93 In91 2.326 . S
O93 C101 1.252 . S
C94 O97 1.252 . S
C94 O98 1.260 1_556 S
C95 O102 1.240 . S
C95 O103 1.252 . S
C96 O99 1.252 . S
C96 O100 1.260 . S
O97 In91 2.266 1_556 S
O97 C94 1.252 . S
O98 In91 2.326 . S
O98 C94 1.260 1_554 S
O99 In91 2.266 1_556 S
O99 C96 1.252 . S
O100 In91 2.326 1_556 S
O100 C96 1.260 . S
C101 O92 1.240 . S
C101 O93 1.252 . S
O102 In91 2.294 . S
O102 C95 1.240 . S
O103 In91 2.326 . S
O103 C95 1.252 . S
In104 O105 2.294 . S
In104 O106 2.326 . S
In104 O110 2.266 1_554 S
In104 O111 2.326 1_554 S
In104 O112 2.266 1_554 S
In104 O113 2.326 . S
In104 O115 2.294 . S
In104 O116 2.326 . S
O105 In104 2.294 . S
O105 C114 1.240 . S
O106 In104 2.326 . S
O106 C114 1.252 . S
C107 O110 1.252 . S
C107 O111 1.260 . S
C108 O115 1.240 . S
C108 O116 1.252 . S
C109 O112 1.252 . S
C109 O113 1.260 1_556 S
O110 In104 2.266 1_556 S
O110 C107 1.252 . S
O111 In104 2.326 1_556 S
O111 C107 1.260 . S
O112 In104 2.266 1_556 S
O112 C109 1.252 . S
O113 In104 2.326 . S
O113 C109 1.260 1_554 S
C114 O105 1.240 . S
C114 O106 1.252 . S
O115 In104 2.294 . S
O115 C108 1.240 . S
O116 In104 2.326 . S
O116 C108 1.252 . S
In117 O118 2.294 . S
In117 O119 2.326 . S
In117 O123 2.266 . S
In117 O124 2.326 . S
In117 O125 2.266 . S
In117 O126 2.326 . S
In117 O128 2.294 . S
In117 O129 2.326 . S
O118 In117 2.294 . S
O118 C127 1.240 . S
O119 In117 2.326 . S
O119 C127 1.252 . S
C120 O123 1.252 . S
C120 O124 1.260 . S
C121 O128 1.240 . S
C121 O129 1.252 . S
C122 O125 1.252 . S
C122 O126 1.260 . S
O123 In117 2.266 . S
O123 C120 1.252 . S
O124 In117 2.326 . S
O124 C120 1.260 . S
O125 In117 2.266 . S
O125 C122 1.252 . S
O126 In117 2.326 . S
O126 C122 1.260 . S
C127 O118 1.240 . S
C127 O119 1.252 . S
O128 In117 2.294 . S
O128 C121 1.240 . S
O129 In117 2.326 . S
O129 C121 1.252 . S
In130 O131 2.294 . S
In130 O132 2.326 . S
In130 O136 2.266 . S
In130 O137 2.326 . S
In130 O138 2.266 . S
In130 O139 2.326 . S
In130 O141 2.294 . S
In130 O142 2.326 . S
O131 In130 2.294 . S
O131 C140 1.240 . S
O132 In130 2.326 . S
O132 C140 1.252 . S
C133 O136 1.252 . S
C133 O137 1.260 . S
C134 O141 1.240 . S
C134 O142 1.252 . S
C135 O138 1.252 . S
C135 O139 1.260 . S
O136 In130 2.266 . S
O136 C133 1.252 . S
O137 In130 2.326 . S
O137 C133 1.260 . S
O138 In130 2.266 . S
O138 C135 1.252 . S
O139 In130 2.326 . S
O139 C135 1.260 . S
C140 O131 1.240 . S
C140 O132 1.252 . S
O141 In130 2.294 . S
O141 C134 1.240 . S
O142 In130 2.326 . S
O142 C134 1.252 . S
In143 O144 2.294 . S
In143 O145 2.326 . S
In143 O149 2.266 . S
In143 O150 2.326 . S
In143 O151 2.266 . S
In143 O152 2.326 . S
In143 O154 2.294 . S
In143 O155 2.326 . S
O144 In143 2.294 . S
O144 C153 1.240 . S
O145 In143 2.326 . S
O145 C153 1.252 . S
C146 O149 1.252 . S
C146 O150 1.260 . S
C147 O154 1.240 . S
C147 O155 1.252 . S
C148 O151 1.252 . S
C148 O152 1.260 . S
O149 In143 2.266 . S
O149 C146 1.252 . S
O150 In143 2.326 . S
O150 C146 1.260 . S
O151 In143 2.266 . S
O151 C148 1.252 . S
O152 In143 2.326 . S
O152 C148 1.260 . S
C153 O144 1.240 . S
C153 O145 1.252 . S
O154 In143 2.294 . S
O154 C147 1.240 . S
O155 In143 2.326 . S
O155 C147 1.252 . S
In156 O157 2.294 . S
In156 O158 2.326 . S
In156 O162 2.266 1_455 S
In156 O163 2.326 1_455 S
In156 O164 2.267 . S
In156 O165 2.326 . S
In156 O167 2.294 . S
In156 O168 2.326 . S
O157 In156 2.294 . S
O157 C166 1.240 . S
O158 In156 2.326 . S
O158 C166 1.252 . S
C159 O162 1.252 . S
C159 O163 1.260 . S
C160 O167 1.240 . S
C160 O168 1.252 . S
C161 O164 1.252 . S
C161 O165 1.260 . S
O162 In156 2.266 1_655 S
O162 C159 1.252 . S
O163 In156 2.326 1_655 S
O163 C159 1.260 . S
O164 In156 2.267 . S
O164 C161 1.252 . S
O165 In156 2.326 . S
O165 C161 1.260 . S
C166 O157 1.240 . S
C166 O158 1.252 . S
O167 In156 2.294 . S
O167 C160 1.240 . S
O168 In156 2.326 . S
O168 C160 1.252 . S
In169 O170 2.294 . S
In169 O171 2.326 . S
In169 O175 2.266 1_455 S
In169 O176 2.326 . S
In169 O177 2.266 1_455 S
In169 O178 2.326 1_455 S
In169 O180 2.294 . S
In169 O181 2.326 . S
O170 In169 2.294 . S
O170 C179 1.240 . S
O171 In169 2.326 . S
O171 C179 1.252 . S
C172 O175 1.252 . S
C172 O176 1.260 1_655 S
C173 O180 1.240 . S
C173 O181 1.252 . S
C174 O177 1.252 . S
C174 O178 1.260 . S
O175 In169 2.266 1_655 S
O175 C172 1.252 . S
O176 In169 2.326 . S
O176 C172 1.260 1_455 S
O177 In169 2.266 1_655 S
O177 C174 1.252 . S
O178 In169 2.326 1_655 S
O178 C174 1.260 . S
C179 O170 1.240 . S
C179 O171 1.252 . S
O180 In169 2.294 . S
O180 C173 1.240 . S
O181 In169 2.326 . S
O181 C173 1.252 . S
In182 O183 2.294 . S
In182 O184 2.326 . S
In182 O188 2.266 . S
In182 O189 2.326 . S
In182 O190 2.266 . S
In182 O191 2.326 . S
In182 O193 2.294 . S
In182 O194 2.326 . S
O183 In182 2.294 . S
O183 C192 1.240 . S
O184 In182 2.326 . S
O184 C192 1.252 . S
C185 O188 1.252 . S
C185 O189 1.260 . S
C186 O193 1.240 . S
C186 O194 1.252 . S
C187 O190 1.252 . S
C187 O191 1.260 . S
O188 In182 2.266 . S
O188 C185 1.252 . S
O189 In182 2.326 . S
O189 C185 1.260 . S
O190 In182 2.266 . S
O190 C187 1.252 . S
O191 In182 2.326 . S
O191 C187 1.260 . S
C192 O183 1.240 . S
C192 O184 1.252 . S
O193 In182 2.294 . S
O193 C186 1.240 . S
O194 In182 2.326 . S
O194 C186 1.252 . S
In195 O196 2.294 . S
In195 O197 2.326 . S
In195 O201 2.266 . S
In195 O202 2.326 . S
In195 O203 2.266 . S
In195 O204 2.326 . S
In195 O206 2.294 . S
In195 O207 2.326 . S
O196 In195 2.294 . S
O196 C205 1.240 . S
O197 In195 2.326 . S
O197 C205 1.252 . S
C198 O201 1.252 . S
C198 O202 1.260 . S
C199 O206 1.240 . S
C199 O207 1.252 . S
C200 O203 1.252 . S
C200 O204 1.260 . S
O201 In195 2.266 . S
O201 C198 1.252 . S
O202 In195 2.326 . S
O202 C198 1.260 . S
O203 In195 2.266 . S
O203 C200 1.252 . S
O204 In195 2.326 . S
O204 C200 1.260 . S
C205 O196 1.240 . S
C205 O197 1.252 . S
O206 In195 2.294 . S
O206 C199 1.240 . S
O207 In195 2.326 . S
O207 C199 1.252 . S
In208 O209 2.294 . S
In208 O210 2.326 . S
In208 O214 2.266 1_545 S
In208 O215 2.325 1_545 S
In208 O216 2.266 1_545 S
In208 O217 2.326 1_545 S
In208 O219 2.294 . S
In208 O220 2.326 . S
O209 In208 2.294 . S
O209 C218 1.240 . S
O210 In208 2.326 . S
O210 C218 1.252 . S
C211 O214 1.252 . S
C211 O215 1.260 . S
C212 O219 1.240 . S
C212 O220 1.252 . S
C213 O216 1.252 . S
C213 O217 1.260 . S
O214 In208 2.266 1_565 S
O214 C211 1.252 . S
O215 In208 2.325 1_565 S
O215 C211 1.260 . S
O216 In208 2.266 1_565 S
O216 C213 1.252 . S
O217 In208 2.326 1_565 S
O217 C213 1.260 . S
C218 O209 1.240 . S
C218 O210 1.252 . S
O219 In208 2.294 . S
O219 C212 1.240 . S
O220 In208 2.326 . S
O220 C212 1.252 . S
In221 O222 2.294 . S
In221 O223 2.326 . S
In221 O227 2.266 . S
In221 O228 2.326 . S
In221 O229 2.266 . S
In221 O230 2.326 . S
In221 O232 2.294 . S
In221 O233 2.326 . S
O222 In221 2.294 . S
O222 C231 1.240 . S
O223 In221 2.326 . S
O223 C231 1.252 . S
C224 O227 1.252 . S
C224 O228 1.260 . S
C225 O232 1.240 . S
C225 O233 1.252 . S
C226 O229 1.252 . S
C226 O230 1.260 . S
O227 In221 2.266 . S
O227 C224 1.252 . S
O228 In221 2.326 . S
O228 C224 1.260 . S
O229 In221 2.266 . S
O229 C226 1.252 . S
O230 In221 2.326 . S
O230 C226 1.260 . S
C231 O222 1.240 . S
C231 O223 1.252 . S
O232 In221 2.294 . S
O232 C225 1.240 . S
O233 In221 2.326 . S
O233 C225 1.252 . S
In234 O235 2.294 1_545 S
In234 O236 2.326 1_545 S
In234 O240 2.266 . S
In234 O241 2.326 . S
In234 O242 2.266 . S
In234 O243 2.326 . S
In234 O245 2.294 1_545 S
In234 O246 2.326 1_545 S
O235 In234 2.294 1_565 S
O235 C244 1.240 . S
O236 In234 2.326 1_565 S
O236 C244 1.252 . S
C237 O240 1.252 . S
C237 O241 1.260 . S
C238 O245 1.240 . S
C238 O246 1.252 . S
C239 O242 1.252 . S
C239 O243 1.260 . S
O240 In234 2.266 . S
O240 C237 1.252 . S
O241 In234 2.326 . S
O241 C237 1.260 . S
O242 In234 2.266 . S
O242 C239 1.252 . S
O243 In234 2.326 . S
O243 C239 1.260 . S
C244 O235 1.240 . S
C244 O236 1.252 . S
O245 In234 2.294 1_565 S
O245 C238 1.240 . S
O246 In234 2.326 1_565 S
O246 C238 1.252 . S
In247 O248 2.294 . S
In247 O249 2.326 . S
In247 O253 2.266 . S
In247 O254 2.326 . S
In247 O255 2.266 1_554 S
In247 O256 2.326 1_554 S
In247 O258 2.294 . S
In247 O259 2.326 . S
O248 In247 2.294 . S
O248 C257 1.240 . S
O249 In247 2.326 . S
O249 C257 1.252 . S
C250 O253 1.252 . S
C250 O254 1.260 . S
C251 O258 1.240 . S
C251 O259 1.252 . S
C252 O255 1.252 . S
C252 O256 1.260 . S
O253 In247 2.266 . S
O253 C250 1.252 . S
O254 In247 2.326 . S
O254 C250 1.260 . S
O255 In247 2.266 1_556 S
O255 C252 1.252 . S
O256 In247 2.326 1_556 S
O256 C252 1.260 . S
C257 O248 1.240 . S
C257 O249 1.252 . S
O258 In247 2.294 . S
O258 C251 1.240 . S
O259 In247 2.326 . S
O259 C251 1.252 . S
In260 O261 2.294 . S
In260 O262 2.326 . S
In260 O266 2.266 1_554 S
In260 O267 2.326 1_554 S
In260 O268 2.266 1_554 S
In260 O269 2.325 1_554 S
In260 O271 2.294 . S
In260 O272 2.326 . S
O261 In260 2.294 . S
O261 C270 1.240 . S
O262 In260 2.326 . S
O262 C270 1.252 . S
C263 O266 1.252 . S
C263 O267 1.260 . S
C264 O271 1.240 . S
C264 O272 1.252 . S
C265 O268 1.252 . S
C265 O269 1.261 . S
O266 In260 2.266 1_556 S
O266 C263 1.252 . S
O267 In260 2.326 1_556 S
O267 C263 1.260 . S
O268 In260 2.266 1_556 S
O268 C265 1.252 . S
O269 In260 2.325 1_556 S
O269 C265 1.261 . S
C270 O261 1.240 . S
C270 O262 1.252 . S
O271 In260 2.294 . S
O271 C264 1.240 . S
O272 In260 2.326 . S
O272 C264 1.252 . S
In273 O274 2.294 . S
In273 O275 2.326 . S
In273 O279 2.266 . S
In273 O280 2.326 . S
In273 O281 2.266 . S
In273 O282 2.326 . S
In273 O284 2.294 . S
In273 O285 2.326 . S
O274 In273 2.294 . S
O274 C283 1.240 . S
O275 In273 2.326 . S
O275 C283 1.252 . S
C276 O279 1.252 . S
C276 O280 1.260 . S
C277 O284 1.240 . S
C277 O285 1.252 . S
C278 O281 1.252 . S
C278 O282 1.260 . S
O279 In273 2.266 . S
O279 C276 1.252 . S
O280 In273 2.326 . S
O280 C276 1.260 . S
O281 In273 2.266 . S
O281 C278 1.252 . S
O282 In273 2.326 . S
O282 C278 1.260 . S
C283 O274 1.240 . S
C283 O275 1.252 . S
O284 In273 2.294 . S
O284 C277 1.240 . S
O285 In273 2.326 . S
O285 C277 1.252 . S
In286 O287 2.294 . S
In286 O288 2.326 . S
In286 O292 2.266 . S
In286 O293 2.326 . S
In286 O294 2.266 . S
In286 O295 2.326 . S
In286 O297 2.294 . S
In286 O298 2.326 . S
O287 In286 2.294 . S
O287 C296 1.240 . S
O288 In286 2.326 . S
O288 C296 1.252 . S
C289 O292 1.252 . S
C289 O293 1.260 . S
C290 O297 1.240 . S
C290 O298 1.252 . S
C291 O294 1.252 . S
C291 O295 1.260 . S
O292 In286 2.266 . S
O292 C289 1.252 . S
O293 In286 2.326 . S
O293 C289 1.260 . S
O294 In286 2.266 . S
O294 C291 1.252 . S
O295 In286 2.326 . S
O295 C291 1.260 . S
C296 O287 1.240 . S
C296 O288 1.252 . S
O297 In286 2.294 . S
O297 C290 1.240 . S
O298 In286 2.326 . S
O298 C290 1.252 . S
In299 O300 2.294 . S
In299 O301 2.326 . S
In299 O305 2.266 . S
In299 O306 2.326 . S
In299 O307 2.266 . S
In299 O308 2.326 . S
In299 O310 2.294 . S
In299 O311 2.326 . S
O300 In299 2.294 . S
O300 C309 1.240 . S
O301 In299 2.326 . S
O301 C309 1.252 . S
C302 O305 1.252 . S
C302 O306 1.260 . S
C303 O310 1.240 . S
C303 O311 1.252 . S
C304 O307 1.252 . S
C304 O308 1.260 . S
O305 In299 2.266 . S
O305 C302 1.252 . S
O306 In299 2.326 . S
O306 C302 1.260 . S
O307 In299 2.266 . S
O307 C304 1.252 . S
O308 In299 2.326 . S
O308 C304 1.260 . S
C309 O300 1.240 . S
C309 O301 1.252 . S
O310 In299 2.294 . S
O310 C303 1.240 . S
O311 In299 2.326 . S
O311 C303 1.252 . S
O312 Mn313 2.163 1_556 S
O312 C326 1.244 . S
Mn313 O312 2.163 1_554 S
Mn313 O316 2.160 1_445 S
Mn313 O317 2.221 1_455 S
Mn313 O319 2.163 1_454 S
Mn313 O321 2.160 1_545 S
Mn313 O331 2.221 1_544 S
O314 Mn315 2.087 1_556 S
O314 C326 1.256 1_565 S
Mn315 O314 2.087 1_554 S
Mn315 O322 2.089 . S
Mn315 O331 2.290 1_554 S
Mn315 O332 2.251 1_554 S
O316 Mn313 2.160 1_665 S
O316 C327 1.239 . S
O317 Mn313 2.221 1_655 S
O317 Mn318 2.290 1_554 S
O317 C328 1.278 . S
Mn318 O317 2.290 1_556 S
Mn318 O320 2.089 1_556 S
Mn318 O323 2.251 1_556 S
Mn318 O324 2.087 . S
O319 Mn313 2.163 1_656 S
O319 C329 1.244 . S
O320 Mn318 2.089 1_554 S
O320 C327 1.256 1_545 S
O321 Mn313 2.160 1_565 S
O321 C330 1.239 . S
O322 Mn315 2.089 . S
O322 C330 1.256 . S
O323 Mn318 2.251 1_554 S
O323 C328 1.241 . S
O324 Mn318 2.087 . S
O324 C329 1.256 . S
C325 O331 1.278 . S
C325 O332 1.241 . S
C326 O312 1.244 . S
C326 O314 1.256 1_545 S
C327 O316 1.239 . S
C327 O320 1.256 1_565 S
C328 O317 1.278 . S
C328 O323 1.241 . S
C329 O319 1.244 . S
C329 O324 1.256 . S
C330 O321 1.239 . S
C330 O322 1.256 . S
O331 Mn313 2.221 1_566 S
O331 Mn315 2.290 1_556 S
O331 C325 1.278 . S
O332 Mn315 2.251 1_556 S
O332 C325 1.241 . S
O333 Mn334 2.163 . S
O333 C347 1.244 . S
Mn334 O333 2.163 . S
Mn334 O337 2.160 . S
Mn334 O338 2.221 . S
Mn334 O340 2.163 . S
Mn334 O342 2.160 . S
Mn334 O352 2.221 . S
O335 Mn336 2.087 . S
O335 C347 1.256 . S
Mn336 O335 2.087 . S
Mn336 O343 2.089 . S
Mn336 O352 2.290 . S
Mn336 O353 2.251 . S
O337 Mn334 2.160 . S
O337 C348 1.239 . S
O338 Mn334 2.221 . S
O338 Mn339 2.290 . S
O338 C349 1.278 . S
Mn339 O338 2.290 . S
Mn339 O341 2.089 . S
Mn339 O344 2.251 . S
Mn339 O345 2.087 . S
O340 Mn334 2.163 . S
O340 C350 1.244 . S
O341 Mn339 2.089 . S
O341 C348 1.256 . S
O342 Mn334 2.160 . S
O342 C351 1.239 . S
O343 Mn336 2.089 . S
O343 C351 1.256 . S
O344 Mn339 2.251 . S
O344 C349 1.241 . S
O345 Mn339 2.087 . S
O345 C350 1.256 . S
C346 O352 1.278 . S
C346 O353 1.241 . S
C347 O333 1.244 . S
C347 O335 1.256 . S
C348 O337 1.239 . S
C348 O341 1.256 . S
C349 O338 1.278 . S
C349 O344 1.241 . S
C350 O340 1.244 . S
C350 O345 1.256 . S
C351 O342 1.239 . S
C351 O343 1.256 . S
O352 Mn334 2.221 . S
O352 Mn336 2.290 . S
O352 C346 1.278 . S
O353 Mn336 2.251 . S
O353 C346 1.241 . S
O354 Mn355 2.163 1_565 S
O354 C368 1.244 . S
Mn355 O354 2.163 1_545 S
Mn355 O358 2.160 . S
Mn355 O359 2.221 1_545 S
Mn355 O361 2.163 . S
Mn355 O363 2.160 . S
Mn355 O373 2.221 . S
O356 Mn357 2.087 . S
O356 C368 1.256 1_545 S
Mn357 O356 2.087 . S
Mn357 O364 2.089 . S
Mn357 O373 2.290 . S
Mn357 O374 2.251 . S
O358 Mn355 2.160 . S
O358 C369 1.239 . S
O359 Mn355 2.221 1_565 S
O359 Mn360 2.290 . S
O359 C370 1.278 . S
Mn360 O359 2.290 . S
Mn360 O362 2.089 1_565 S
Mn360 O365 2.251 . S
Mn360 O366 2.087 . S
O361 Mn355 2.163 . S
O361 C371 1.244 1_545 S
O362 Mn360 2.089 1_545 S
O362 C369 1.256 . S
O363 Mn355 2.160 . S
O363 C372 1.239 . S
O364 Mn357 2.089 . S
O364 C372 1.256 . S
O365 Mn360 2.251 . S
O365 C370 1.241 . S
O366 Mn360 2.087 . S
O366 C371 1.256 . S
C367 O373 1.278 . S
C367 O374 1.241 . S
C368 O354 1.244 . S
C368 O356 1.256 1_565 S
C369 O358 1.239 . S
C369 O362 1.256 . S
C370 O359 1.278 . S
C370 O365 1.241 . S
C371 O361 1.244 1_565 S
C371 O366 1.256 . S
C372 O363 1.239 . S
C372 O364 1.256 . S
O373 Mn355 2.221 . S
O373 Mn357 2.290 . S
O373 C367 1.278 . S
O374 Mn357 2.251 . S
O374 C367 1.241 . S
O375 Mn376 2.163 . S
O375 C389 1.244 . S
Mn376 O375 2.163 . S
Mn376 O379 2.160 . S
Mn376 O380 2.221 . S
Mn376 O382 2.163 . S
Mn376 O384 2.160 . S
Mn376 O394 2.221 . S
O377 Mn378 2.087 . S
O377 C389 1.256 . S
Mn378 O377 2.087 . S
Mn378 O385 2.089 . S
Mn378 O394 2.290 . S
Mn378 O395 2.251 . S
O379 Mn376 2.160 . S
O379 C390 1.239 . S
O380 Mn376 2.221 . S
O380 Mn381 2.290 . S
O380 C391 1.278 . S
Mn381 O380 2.290 . S
Mn381 O383 2.089 . S
Mn381 O386 2.251 . S
Mn381 O387 2.087 . S
O382 Mn376 2.163 . S
O382 C392 1.244 . S
O383 Mn381 2.089 . S
O383 C390 1.256 . S
O384 Mn376 2.160 . S
O384 C393 1.239 . S
O385 Mn378 2.089 . S
O385 C393 1.256 . S
O386 Mn381 2.251 . S
O386 C391 1.241 . S
O387 Mn381 2.087 . S
O387 C392 1.256 . S
C388 O394 1.278 . S
C388 O395 1.241 . S
C389 O375 1.244 . S
C389 O377 1.256 . S
C390 O379 1.239 . S
C390 O383 1.256 . S
C391 O380 1.278 . S
C391 O386 1.241 . S
C392 O382 1.244 . S
C392 O387 1.256 . S
C393 O384 1.239 . S
C393 O385 1.256 . S
O394 Mn376 2.221 . S
O394 Mn378 2.290 . S
O394 C388 1.278 . S
O395 Mn378 2.251 . S
O395 C388 1.241 . S
O396 Mn397 2.163 1_665 S
O396 C410 1.244 . S
Mn397 O396 2.163 1_445 S
Mn397 O400 2.160 . S
Mn397 O401 2.221 . S
Mn397 O403 2.163 1_455 S
Mn397 O405 2.160 1_545 S
Mn397 O415 2.221 1_445 S
O398 Mn399 2.087 1_655 S
O398 C410 1.256 . S
Mn399 O398 2.087 1_455 S
Mn399 O406 2.089 . S
Mn399 O415 2.290 1_455 S
Mn399 O416 2.251 1_455 S
O400 Mn397 2.160 . S
O400 C411 1.239 . S
O401 Mn397 2.221 . S
O401 Mn402 2.290 1_455 S
O401 C412 1.278 . S
Mn402 O401 2.290 1_655 S
Mn402 O404 2.089 1_655 S
Mn402 O407 2.251 1_655 S
Mn402 O408 2.087 . S
O403 Mn397 2.163 1_655 S
O403 C413 1.244 . S
O404 Mn402 2.089 1_455 S
O404 C411 1.256 . S
O405 Mn397 2.160 1_565 S
O405 C414 1.239 . S
O406 Mn399 2.089 . S
O406 C414 1.256 . S
O407 Mn402 2.251 1_455 S
O407 C412 1.241 . S
O408 Mn402 2.087 . S
O408 C413 1.256 . S
C409 O415 1.278 . S
C409 O416 1.241 . S
C410 O396 1.244 . S
C410 O398 1.256 . S
C411 O400 1.239 . S
C411 O404 1.256 . S
C412 O401 1.278 . S
C412 O407 1.241 . S
C413 O403 1.244 . S
C413 O408 1.256 . S
C414 O405 1.239 . S
C414 O406 1.256 . S
O415 Mn397 2.221 1_665 S
O415 Mn399 2.290 1_655 S
O415 C409 1.278 . S
O416 Mn399 2.251 1_655 S
O416 C409 1.241 . S
O417 Mn418 2.163 . S
O417 C431 1.244 . S
Mn418 O417 2.163 . S
Mn418 O421 2.160 . S
Mn418 O422 2.221 . S
Mn418 O424 2.163 . S
Mn418 O426 2.160 . S
Mn418 O436 2.221 . S
O419 Mn420 2.087 . S
O419 C431 1.256 . S
Mn420 O419 2.087 . S
Mn420 O427 2.089 . S
Mn420 O436 2.290 . S
Mn420 O437 2.251 . S
O421 Mn418 2.160 . S
O421 C432 1.239 . S
O422 Mn418 2.221 . S
O422 Mn423 2.290 . S
O422 C433 1.278 . S
Mn423 O422 2.290 . S
Mn423 O425 2.089 . S
Mn423 O428 2.251 . S
Mn423 O429 2.087 . S
O424 Mn418 2.163 . S
O424 C434 1.244 . S
O425 Mn423 2.089 . S
O425 C432 1.256 . S
O426 Mn418 2.160 . S
O426 C435 1.239 . S
O427 Mn420 2.089 . S
O427 C435 1.256 . S
O428 Mn423 2.251 . S
O428 C433 1.241 . S
O429 Mn423 2.087 . S
O429 C434 1.256 . S
C430 O436 1.278 . S
C430 O437 1.241 . S
C431 O417 1.244 . S
C431 O419 1.256 . S
C432 O421 1.239 . S
C432 O425 1.256 . S
C433 O422 1.278 . S
C433 O428 1.241 . S
C434 O424 1.244 . S
C434 O429 1.256 . S
C435 O426 1.239 . S
C435 O427 1.256 . S
O436 Mn418 2.221 . S
O436 Mn420 2.290 . S
O436 C430 1.278 . S
O437 Mn420 2.251 . S
O437 C430 1.241 . S
O438 Mn439 2.163 1_566 S
O438 C452 1.244 . S
Mn439 O438 2.163 1_544 S
Mn439 O442 2.160 . S
Mn439 O443 2.221 . S
Mn439 O445 2.163 1_545 S
Mn439 O447 2.160 1_554 S
Mn439 O457 2.221 1_544 S
O440 Mn441 2.087 1_565 S
O440 C452 1.256 . S
Mn441 O440 2.087 1_545 S
Mn441 O448 2.089 . S
Mn441 O457 2.290 1_545 S
Mn441 O458 2.251 1_545 S
O442 Mn439 2.160 . S
O442 C453 1.239 . S
O443 Mn439 2.221 . S
O443 Mn444 2.290 1_545 S
O443 C454 1.278 . S
Mn444 O443 2.290 1_565 S
Mn444 O446 2.089 . S
Mn444 O449 2.251 1_565 S
Mn444 O450 2.087 . S
O445 Mn439 2.163 1_565 S
O445 C455 1.244 . S
O446 Mn444 2.089 . S
O446 C453 1.256 1_565 S
O447 Mn439 2.160 1_556 S
O447 C456 1.239 . S
O448 Mn441 2.089 . S
O448 C456 1.256 . S
O449 Mn444 2.251 1_545 S
O449 C454 1.241 . S
O450 Mn444 2.087 . S
O450 C455 1.256 . S
C451 O457 1.278 . S
C451 O458 1.241 . S
C452 O438 1.244 . S
C452 O440 1.256 . S
C453 O442 1.239 . S
C453 O446 1.256 1_545 S
C454 O443 1.278 . S
C454 O449 1.241 . S
C455 O445 1.244 . S
C455 O450 1.256 . S
C456 O447 1.239 . S
C456 O448 1.256 . S
O457 Mn439 2.221 1_566 S
O457 Mn441 2.290 1_565 S
O457 C451 1.278 . S
O458 Mn441 2.251 1_565 S
O458 C451 1.241 . S
O459 Mn460 2.163 . S
O459 C473 1.244 . S
Mn460 O459 2.163 . S
Mn460 O463 2.160 . S
Mn460 O464 2.221 . S
Mn460 O466 2.163 . S
Mn460 O468 2.160 . S
Mn460 O478 2.221 . S
O461 Mn462 2.087 . S
O461 C473 1.256 . S
Mn462 O461 2.087 . S
Mn462 O469 2.089 . S
Mn462 O478 2.290 . S
Mn462 O479 2.251 . S
O463 Mn460 2.160 . S
O463 C474 1.239 . S
O464 Mn460 2.221 . S
O464 Mn465 2.290 . S
O464 C475 1.278 . S
Mn465 O464 2.290 . S
Mn465 O467 2.089 . S
Mn465 O470 2.251 . S
Mn465 O471 2.087 . S
O466 Mn460 2.163 . S
O466 C476 1.244 . S
O467 Mn465 2.089 . S
O467 C474 1.256 . S
O468 Mn460 2.160 . S
O468 C477 1.239 . S
O469 Mn462 2.089 . S
O469 C477 1.256 . S
O470 Mn465 2.251 . S
O470 C475 1.241 . S
O471 Mn465 2.087 . S
O471 C476 1.256 . S
C472 O478 1.278 . S
C472 O479 1.241 . S
C473 O459 1.244 . S
C473 O461 1.256 . S
C474 O463 1.239 . S
C474 O467 1.256 . S
C475 O464 1.278 . S
C475 O470 1.241 . S
C476 O466 1.244 . S
C476 O471 1.256 . S
C477 O468 1.239 . S
C477 O469 1.256 . S
O478 Mn460 2.221 . S
O478 Mn462 2.290 . S
O478 C472 1.278 . S
O479 Mn462 2.251 . S
O479 C472 1.241 . S
O480 Mn481 2.163 1_556 S
O480 C494 1.244 . S
Mn481 O480 2.163 1_554 S
Mn481 O484 2.160 . S
Mn481 O485 2.221 1_554 S
Mn481 O487 2.163 . S
Mn481 O489 2.160 . S
Mn481 O499 2.221 . S
O482 Mn483 2.087 . S
O482 C494 1.256 1_554 S
Mn483 O482 2.087 . S
Mn483 O490 2.089 . S
Mn483 O499 2.290 . S
Mn483 O500 2.251 . S
O484 Mn481 2.160 . S
O484 C495 1.239 . S
O485 Mn481 2.221 1_556 S
O485 Mn486 2.290 . S
O485 C496 1.278 . S
Mn486 O485 2.290 . S
Mn486 O488 2.089 1_556 S
Mn486 O491 2.251 . S
Mn486 O492 2.087 . S
O487 Mn481 2.163 . S
O487 C497 1.244 1_554 S
O488 Mn486 2.089 1_554 S
O488 C495 1.256 . S
O489 Mn481 2.160 . S
O489 C498 1.239 . S
O490 Mn483 2.089 . S
O490 C498 1.256 . S
O491 Mn486 2.251 . S
O491 C496 1.241 . S
O492 Mn486 2.087 . S
O492 C497 1.256 . S
C493 O499 1.278 . S
C493 O500 1.241 . S
C494 O480 1.244 . S
C494 O482 1.256 1_556 S
C495 O484 1.239 . S
C495 O488 1.256 . S
C496 O485 1.278 . S
C496 O491 1.241 . S
C497 O487 1.244 1_556 S
C497 O492 1.256 . S
C498 O489 1.239 . S
C498 O490 1.256 . S
O499 Mn481 2.221 . S
O499 Mn483 2.290 . S
O499 C493 1.278 . S
O500 Mn483 2.251 . S
O500 C493 1.241 . S
O501 Mn502 2.163 . S
O501 C515 1.244 . S
Mn502 O501 2.163 . S
Mn502 O505 2.160 . S
Mn502 O506 2.221 . S
Mn502 O508 2.163 . S
Mn502 O510 2.160 . S
Mn502 O520 2.221 . S
O503 Mn504 2.087 . S
O503 C515 1.256 . S
Mn504 O503 2.087 . S
Mn504 O511 2.089 . S
Mn504 O520 2.290 . S
Mn504 O521 2.251 . S
O505 Mn502 2.160 . S
O505 C516 1.239 . S
O506 Mn502 2.221 . S
O506 Mn507 2.290 . S
O506 C517 1.278 . S
Mn507 O506 2.290 . S
Mn507 O509 2.089 . S
Mn507 O512 2.251 . S
Mn507 O513 2.087 . S
O508 Mn502 2.163 . S
O508 C518 1.244 . S
O509 Mn507 2.089 . S
O509 C516 1.256 . S
O510 Mn502 2.160 . S
O510 C519 1.239 . S
O511 Mn504 2.089 . S
O511 C519 1.256 . S
O512 Mn507 2.251 . S
O512 C517 1.241 . S
O513 Mn507 2.087 . S
O513 C518 1.256 . S
C514 O520 1.278 . S
C514 O521 1.241 . S
C515 O501 1.244 . S
C515 O503 1.256 . S
C516 O505 1.239 . S
C516 O509 1.256 . S
C517 O506 1.278 . S
C517 O512 1.241 . S
C518 O508 1.244 . S
C518 O513 1.256 . S
C519 O510 1.239 . S
C519 O511 1.256 . S
O520 Mn502 2.221 . S
O520 Mn504 2.290 . S
O520 C514 1.278 . S
O521 Mn504 2.251 . S
O521 C514 1.241 . S
O522 Mn523 2.163 1_655 S
O522 C536 1.244 . S
Mn523 O522 2.163 1_455 S
Mn523 O526 2.160 . S
Mn523 O527 2.221 1_455 S
Mn523 O529 2.163 . S
Mn523 O531 2.160 . S
Mn523 O541 2.221 . S
O524 Mn525 2.087 . S
O524 C536 1.256 1_455 S
Mn525 O524 2.087 . S
Mn525 O532 2.089 . S
Mn525 O541 2.290 . S
Mn525 O542 2.251 . S
O526 Mn523 2.160 . S
O526 C537 1.239 . S
O527 Mn523 2.221 1_655 S
O527 Mn528 2.290 . S
O527 C538 1.278 . S
Mn528 O527 2.290 . S
Mn528 O530 2.089 1_655 S
Mn528 O533 2.251 . S
Mn528 O534 2.087 . S
O529 Mn523 2.163 . S
O529 C539 1.244 1_455 S
O530 Mn528 2.089 1_455 S
O530 C537 1.256 . S
O531 Mn523 2.160 . S
O531 C540 1.239 . S
O532 Mn525 2.089 . S
O532 C540 1.256 . S
O533 Mn528 2.251 . S
O533 C538 1.241 . S
O534 Mn528 2.087 . S
O534 C539 1.256 . S
C535 O541 1.278 . S
C535 O542 1.241 . S
C536 O522 1.244 . S
C536 O524 1.256 1_655 S
C537 O526 1.239 . S
C537 O530 1.256 . S
C538 O527 1.278 . S
C538 O533 1.241 . S
C539 O529 1.244 1_655 S
C539 O534 1.256 . S
C540 O531 1.239 . S
C540 O532 1.256 . S
O541 Mn523 2.221 . S
O541 Mn525 2.290 . S
O541 C535 1.278 . S
O542 Mn525 2.251 . S
O542 C535 1.241 . S
O543 Mn544 2.163 . S
O543 C557 1.244 . S
Mn544 O543 2.163 . S
Mn544 O547 2.160 . S
Mn544 O548 2.221 . S
Mn544 O550 2.163 . S
Mn544 O552 2.160 . S
Mn544 O562 2.221 . S
O545 Mn546 2.087 . S
O545 C557 1.256 . S
Mn546 O545 2.087 . S
Mn546 O553 2.089 . S
Mn546 O562 2.290 . S
Mn546 O563 2.251 . S
O547 Mn544 2.160 . S
O547 C558 1.239 . S
O548 Mn544 2.221 . S
O548 Mn549 2.290 . S
O548 C559 1.278 . S
Mn549 O548 2.290 . S
Mn549 O551 2.089 . S
Mn549 O554 2.251 . S
Mn549 O555 2.087 . S
O550 Mn544 2.163 . S
O550 C560 1.244 . S
O551 Mn549 2.089 . S
O551 C558 1.256 . S
O552 Mn544 2.160 . S
O552 C561 1.239 . S
O553 Mn546 2.089 . S
O553 C561 1.256 . S
O554 Mn549 2.251 . S
O554 C559 1.241 . S
O555 Mn549 2.087 . S
O555 C560 1.256 . S
C556 O562 1.278 . S
C556 O563 1.241 . S
C557 O543 1.244 . S
C557 O545 1.256 . S
C558 O547 1.239 . S
C558 O551 1.256 . S
C559 O548 1.278 . S
C559 O554 1.241 . S
C560 O550 1.244 . S
C560 O555 1.256 . S
C561 O552 1.239 . S
C561 O553 1.256 . S
O562 Mn544 2.221 . S
O562 Mn546 2.290 . S
O562 C556 1.278 . S
O563 Mn546 2.251 . S
O563 C556 1.241 . S
O564 Mn565 2.163 . S
O564 C578 1.244 . S
Mn565 O564 2.163 . S
Mn565 O568 2.160 . S
Mn565 O569 2.221 . S
Mn565 O571 2.163 . S
Mn565 O573 2.160 . S
Mn565 O583 2.221 . S
O566 Mn567 2.087 . S
O566 C578 1.256 . S
Mn567 O566 2.087 . S
Mn567 O574 2.089 . S
Mn567 O583 2.290 . S
Mn567 O584 2.251 . S
O568 Mn565 2.160 . S
O568 C579 1.239 . S
O569 Mn565 2.221 . S
O569 Mn570 2.290 . S
O569 C580 1.278 . S
Mn570 O569 2.290 . S
Mn570 O572 2.089 . S
Mn570 O575 2.251 . S
Mn570 O576 2.087 . S
O571 Mn565 2.163 . S
O571 C581 1.244 . S
O572 Mn570 2.089 . S
O572 C579 1.256 . S
O573 Mn565 2.160 . S
O573 C582 1.239 . S
O574 Mn567 2.089 . S
O574 C582 1.256 . S
O575 Mn570 2.251 . S
O575 C580 1.241 . S
O576 Mn570 2.087 . S
O576 C581 1.256 . S
C577 O583 1.278 . S
C577 O584 1.241 . S
C578 O564 1.244 . S
C578 O566 1.256 . S
C579 O568 1.239 . S
C579 O572 1.256 . S
C580 O569 1.278 . S
C580 O575 1.241 . S
C581 O571 1.244 . S
C581 O576 1.256 . S
C582 O573 1.239 . S
C582 O574 1.256 . S
O583 Mn565 2.221 . S
O583 Mn567 2.290 . S
O583 C577 1.278 . S
O584 Mn567 2.251 . S
O584 C577 1.241 . S
O585 Mn586 2.163 . S
O585 C599 1.244 . S
Mn586 O585 2.163 . S
Mn586 O589 2.160 . S
Mn586 O590 2.221 . S
Mn586 O592 2.163 . S
Mn586 O594 2.160 . S
Mn586 O604 2.221 . S
O587 Mn588 2.087 . S
O587 C599 1.256 . S
Mn588 O587 2.087 . S
Mn588 O595 2.089 . S
Mn588 O604 2.290 . S
Mn588 O605 2.251 . S
O589 Mn586 2.160 . S
O589 C600 1.239 . S
O590 Mn586 2.221 . S
O590 Mn591 2.290 . S
O590 C601 1.278 . S
Mn591 O590 2.290 . S
Mn591 O593 2.089 . S
Mn591 O596 2.251 . S
Mn591 O597 2.087 . S
O592 Mn586 2.163 . S
O592 C602 1.244 . S
O593 Mn591 2.089 . S
O593 C600 1.256 . S
O594 Mn586 2.160 . S
O594 C603 1.239 . S
O595 Mn588 2.089 . S
O595 C603 1.256 . S
O596 Mn591 2.251 . S
O596 C601 1.241 . S
O597 Mn591 2.087 . S
O597 C602 1.256 . S
C598 O604 1.278 . S
C598 O605 1.241 . S
C599 O585 1.244 . S
C599 O587 1.256 . S
C600 O589 1.239 . S
C600 O593 1.256 . S
C601 O590 1.278 . S
C601 O596 1.241 . S
C602 O592 1.244 . S
C602 O597 1.256 . S
C603 O594 1.239 . S
C603 O595 1.256 . S
O604 Mn586 2.221 . S
O604 Mn588 2.290 . S
O604 C598 1.278 . S
O605 Mn588 2.251 . S
O605 C598 1.241 . S
O606 Mn607 2.163 . S
O606 C620 1.244 . S
Mn607 O606 2.163 . S
Mn607 O610 2.160 . S
Mn607 O611 2.221 . S
Mn607 O613 2.163 . S
Mn607 O615 2.160 . S
Mn607 O625 2.221 . S
O608 Mn609 2.087 . S
O608 C620 1.256 . S
Mn609 O608 2.087 . S
Mn609 O616 2.089 . S
Mn609 O625 2.290 . S
Mn609 O626 2.251 . S
O610 Mn607 2.160 . S
O610 C621 1.239 . S
O611 Mn607 2.221 . S
O611 Mn612 2.290 . S
O611 C622 1.278 . S
Mn612 O611 2.290 . S
Mn612 O614 2.089 . S
Mn612 O617 2.251 . S
Mn612 O618 2.087 . S
O613 Mn607 2.163 . S
O613 C623 1.244 . S
O614 Mn612 2.089 . S
O614 C621 1.256 . S
O615 Mn607 2.160 . S
O615 C624 1.239 . S
O616 Mn609 2.089 . S
O616 C624 1.256 . S
O617 Mn612 2.251 . S
O617 C622 1.241 . S
O618 Mn612 2.087 . S
O618 C623 1.256 . S
C619 O625 1.278 . S
C619 O626 1.241 . S
C620 O606 1.244 . S
C620 O608 1.256 . S
C621 O610 1.239 . S
C621 O614 1.256 . S
C622 O611 1.278 . S
C622 O617 1.241 . S
C623 O613 1.244 . S
C623 O618 1.256 . S
C624 O615 1.239 . S
C624 O616 1.256 . S
O625 Mn607 2.221 . S
O625 Mn609 2.290 . S
O625 C619 1.278 . S
O626 Mn609 2.251 . S
O626 C619 1.241 . S
O627 Mn628 2.163 1_656 S
O627 C641 1.244 . S
Mn628 O627 2.163 1_454 S
Mn628 O631 2.160 . S
Mn628 O632 2.221 . S
Mn628 O634 2.163 1_554 S
Mn628 O636 2.160 1_455 S
Mn628 O646 2.221 1_454 S
O629 Mn630 2.087 1_556 S
O629 C641 1.256 . S
Mn630 O629 2.087 1_554 S
Mn630 O637 2.089 . S
Mn630 O646 2.290 1_554 S
Mn630 O647 2.251 1_554 S
O631 Mn628 2.160 . S
O631 C642 1.239 . S
O632 Mn628 2.221 . S
O632 Mn633 2.290 1_554 S
O632 C643 1.278 . S
Mn633 O632 2.290 1_556 S
Mn633 O635 2.089 . S
Mn633 O638 2.251 1_556 S
Mn633 O639 2.087 . S
O634 Mn628 2.163 1_556 S
O634 C644 1.244 . S
O635 Mn633 2.089 . S
O635 C642 1.256 1_556 S
O636 Mn628 2.160 1_655 S
O636 C645 1.239 . S
O637 Mn630 2.089 . S
O637 C645 1.256 . S
O638 Mn633 2.251 1_554 S
O638 C643 1.241 . S
O639 Mn633 2.087 . S
O639 C644 1.256 . S
C640 O646 1.278 . S
C640 O647 1.241 . S
C641 O627 1.244 . S
C641 O629 1.256 . S
C642 O631 1.239 . S
C642 O635 1.256 1_554 S
C643 O632 1.278 . S
C643 O638 1.241 . S
C644 O634 1.244 . S
C644 O639 1.256 . S
C645 O636 1.239 . S
C645 O637 1.256 . S
O646 Mn628 2.221 1_656 S
O646 Mn630 2.290 1_556 S
O646 C640 1.278 . S
O647 Mn630 2.251 1_556 S
O647 C640 1.241 . S
C328 C10 1.737 . S
C23 C348 1.407 . S
C36 C370 1.802 . S
C389 C42 1.644 . S
C18 C410 1.654 . S
C433 C31 1.969 . S
C456 C43 1.383 . S
C5 C474 1.533 . S
C56 C330 1.515 . S
C70 C350 1.701 . S
C372 C82 1.408 . S
C391 C96 1.874 . S
C57 C412 1.967 . S
C435 C69 1.382 . S
C452 C83 1.647 . S
C476 C95 1.689 . S
C326 C94 1.701 . S
C498 C108 1.381 . S
C122 C515 1.657 . S
C538 C140 1.852 . S
C55 C472 1.756 . S
C368 C68 1.703 . S
C121 C561 1.385 . S
C577 C153 1.801 . S
C161 C325 1.736 . S
C578 C174 1.390 . S
C186 C367 1.844 . S
C200 C558 1.502 . S
C411 C172 1.475 1_455 S
C514 C192 1.770 . S
C455 C198 1.448 . S
C599 C159 1.565 . S
C329 C211 1.563 1_545 S
C225 C582 1.446 . S
C371 C239 1.381 1_565 S
C251 C556 1.865 . S
C218 C409 1.779 1_545 S
C226 C518 1.403 . S
C453 C238 1.480 1_545 S
C252 C603 1.411 . S
C250 C327 1.408 . S
C264 C497 1.412 1_554 S
C276 C432 1.467 . S
C290 C535 1.873 . S
C601 C213 1.733 . S
C369 C224 1.456 . S
C392 C283 1.447 . S
C349 C303 1.860 . S
C29 C622 1.761 . S
C579 C49 1.406 . S
C643 C3 1.827 . S
C16 C557 1.643 . S
C44 C494 1.656 . S
C517 C4 1.944 . S
C540 C17 1.383 . S
C600 C30 1.516 . S
C624 C147 1.516 . S
C107 C581 1.704 . S
C127 C645 1.408 . S
C559 C135 1.877 . S
C496 C148 1.964 . S
C114 C519 1.383 . S
C536 C120 1.644 . S
C134 C602 1.683 . S
C620 C133 1.701 . S
C414 C75 1.382 . S
C431 C81 1.657 . S
C101 C454 1.854 . S
C598 C146 1.757 . S
C109 C641 1.703 . S
C393 C88 1.384 . S
C346 C62 1.799 . S
C187 C619 1.736 . S
C347 C199 1.389 . S
C640 C160 1.844 1_655 S
C173 C390 1.489 . S
C205 C495 1.462 . S
C166 C430 1.770 . S
C179 C539 1.446 1_455 S
C185 C473 1.565 . S
C623 C302 1.567 . S
C270 C351 1.453 . S
C644 C278 1.384 . S
C296 C388 1.872 . S
C309 C493 1.786 . S
C434 C263 1.407 . S
C277 C537 1.487 . S
C477 C289 1.410 . S
C621 C291 1.411 . S
C413 C231 1.406 . S
C237 C516 1.463 . S
C451 C257 1.867 1_556 S
C475 C304 1.736 . S
C265 C642 1.460 1_556 S
C560 C244 1.442 . S
C580 C212 1.855 . S
