# Generated by pormake.
# Topology bcu-b, (8,8)-cn, num edge types: 1
# Building blocks:
#     Node 0, Type 0, BuildingBlock: TAGTUT_clean_sbu_1, # of connection points: 8
#     Node 1, Type 1, BuildingBlock: GIZVER_clean_sbu_0, # of connection points: 8
#     Edge 2, Type (0, 1), BuildingBlock: UVAHIK_clean_linker_0, # of connection points: 2
#     Edge 3, Type (0, 1), BuildingBlock: UVAHIK_clean_linker_0, # of connection points: 2
#     Edge 4, Type (0, 1), BuildingBlock: UVAHIK_clean_linker_0, # of connection points: 2
#     Edge 5, Type (0, 1), BuildingBlock: UVAHIK_clean_linker_0, # of connection points: 2
#     Edge 6, Type (0, 1), BuildingBlock: UVAHIK_clean_linker_0, # of connection points: 2
#     Edge 7, Type (0, 1), BuildingBlock: UVAHIK_clean_linker_0, # of connection points: 2
#     Edge 8, Type (0, 1), BuildingBlock: UVAHIK_clean_linker_0, # of connection points: 2
#     Edge 9, Type (0, 1), BuildingBlock: UVAHIK_clean_linker_0, # of connection points: 2
# Relax obj value: 0.110
# Max RMSD: 0.178
# Mean RMSD: 0.172
data_MOF--net-bcu-b--node1-TAGTUT_clean_sbu_1--node2-GIZVER_clean_sbu_0--edge1-UVAHIK_clean_linker_0
_symmetry_space_group_name_H-M    P1
_symmetry_Int_Tables_number       1
_symmetry_cell_setting            triclinic
loop_
_symmetry_equiv_pos_as_xyz
'x, y, z'
_cell_length_a     26.032649
_cell_length_b     27.854643
_cell_length_c     22.024688
_cell_angle_alpha  88.359738
_cell_angle_beta   94.014044
_cell_angle_gamma 105.72408
loop_
_atom_site_label
_atom_site_type_symbol
_atom_site_fract_x
_atom_site_fract_y
_atom_site_fract_z
_atom_type_partial_charge
C0 C 0.90321 0.12356 0.08891 0.0
C1 C 0.93418 0.11632 0.90012 0.0
C2 C 0.9009 0.9205 0.9396 0.0
Mg3 Mg 1.00173 0.11818 0.02028 0.0
O4 O 0.97198 0.0499 0.03457 0.0
Mg5 Mg 0.89574 0.02242 0.00252 0.0
Mg6 Mg 1.00511 0.0026 0.99572 0.0
O7 O 0.03815 0.95511 0.9571 0.0
Mg8 Mg 0.00846 0.88669 0.97086 0.0
Mg9 Mg 0.11439 0.98254 0.989 0.0
C10 C 0.10916 0.08453 0.05266 0.0
C11 C 0.08389 0.06344 0.89385 0.0
O12 O 0.87669 0.08168 0.06491 0.0
O13 O 0.95245 0.14379 0.07925 0.0
O14 O 0.90161 0.07768 0.92156 0.0
O15 O 0.97869 0.13687 0.92869 0.0
O16 O 0.08476 0.11893 0.04454 0.0
O17 O 0.08524 0.03796 0.04609 0.0
C18 C 0.92596 0.94102 0.097 0.0
O19 O 0.97082 0.94719 0.07267 0.0
O20 O 0.89299 0.96636 0.08006 0.0
O21 O 0.13326 0.92344 0.92633 0.0
O22 O 0.05739 0.86161 0.91096 0.0
O23 O 0.10909 0.92731 0.06975 0.0
C24 C 0.10671 0.88186 0.90167 0.0
O25 O 0.03269 0.86733 0.06191 0.0
O26 O 0.92509 0.88593 0.94763 0.0
C27 C 0.07701 0.88816 0.0907 0.0
O28 O 0.92509 0.96704 0.94569 0.0
O29 O 0.03919 0.05797 0.91827 0.0
O30 O 0.11666 0.0381 0.91143 0.0
Co31 Co 0.57032 0.41288 0.48586 0.0
Co32 Co 0.57886 0.4542 0.59075 0.0
Co33 Co 0.50707 0.50331 0.49781 0.0
O34 O 0.57192 0.47831 0.51283 0.0
H35 H 0.6044 0.5031 0.50349 0.0
O36 O 0.44229 0.52848 0.4823 0.0
Co37 Co 0.44368 0.59393 0.50928 0.0
Co38 Co 0.43652 0.55338 0.40421 0.0
H39 H 0.4097 0.50363 0.49114 0.0
O40 O 0.64582 0.45512 0.62394 0.0
O41 O 0.58788 0.39302 0.57063 0.0
O42 O 0.51784 0.44322 0.63872 0.0
O43 O 0.46429 0.46054 0.56266 0.0
O44 O 0.53825 0.55685 0.55776 0.0
O45 O 0.44014 0.65183 0.536 0.0
O46 O 0.37376 0.58081 0.52553 0.0
O47 O 0.51772 0.61547 0.49979 0.0
O48 O 0.55 0.54602 0.43331 0.0
O49 O 0.49829 0.56553 0.35691 0.0
O50 O 0.42671 0.61418 0.42439 0.0
O51 O 0.36989 0.55205 0.36995 0.0
C52 C 0.62305 0.37953 0.45171 0.0
C53 C 0.46909 0.40363 0.45131 0.0
C54 C 0.47161 0.44301 0.61595 0.0
C55 C 0.63363 0.41055 0.60134 0.0
C56 C 0.39074 0.6273 0.54277 0.0
C57 C 0.54408 0.60289 0.5454 0.0
C58 C 0.54397 0.56472 0.38046 0.0
C59 C 0.38141 0.59651 0.39278 0.0
O60 O 0.57379 0.35494 0.45914 0.0
O61 O 0.64012 0.42606 0.4688 0.0
O62 O 0.47565 0.44963 0.43806 0.0
O63 O 0.49637 0.39108 0.49612 0.0
C64 C 0.18271 0.07852 0.12824 0.0
C65 C 0.16545 0.10043 0.07524 0.0
C66 C 0.22794 0.10495 0.16334 0.0
C67 C 0.27777 0.23337 0.19939 0.0
H68 H 0.39477 0.20131 0.29552 0.0
C69 C 0.42035 0.38007 0.35055 0.0
C70 C 0.43814 0.36544 0.40795 0.0
C71 C 0.39294 0.34449 0.30824 0.0
C72 C 0.36185 0.21048 0.26938 0.0
H73 H 0.18542 0.16261 0.012 0.0
H74 H 0.26489 0.2081 0.07234 0.0
H75 H 0.34146 0.14157 0.21998 0.0
H76 H 0.44118 0.30193 0.46609 0.0
H77 H 0.39127 0.23947 0.39254 0.0
H78 H 0.29557 0.30069 0.24954 0.0
C79 C 0.24311 0.17139 0.08771 0.0
C80 C 0.33179 0.17651 0.22599 0.0
C81 C 0.19785 0.14537 0.05317 0.0
C82 C 0.42783 0.31431 0.42219 0.0
C83 C 0.39972 0.27855 0.37989 0.0
C84 C 0.30706 0.26672 0.24292 0.0
C85 C 0.25613 0.15309 0.14513 0.0
C86 C 0.29003 0.18819 0.19008 0.0
C87 C 0.38175 0.29333 0.32252 0.0
C88 C 0.34991 0.25614 0.27793 0.0
H89 H 0.1581 0.04386 0.14604 0.0
H90 H 0.23735 0.09008 0.20744 0.0
H91 H 0.2446 0.24255 0.1737 0.0
H92 H 0.4282 0.41911 0.33777 0.0
H93 H 0.38078 0.35724 0.26402 0.0
C94 C 0.90291 0.19802 0.15026 0.0
C95 C 0.87634 0.14992 0.12891 0.0
C96 C 0.87784 0.22341 0.18737 0.0
C97 C 0.74389 0.22556 0.23145 0.0
H98 H 0.82378 0.30656 0.3651 0.0
C99 C 0.6381 0.30318 0.40836 0.0
C100 C 0.65799 0.354 0.42279 0.0
C101 C 0.66753 0.27928 0.37539 0.0
C102 C 0.80115 0.28446 0.32759 0.0
H103 H 0.80255 0.09068 0.1308 0.0
H104 H 0.75912 0.13462 0.19638 0.0
H105 H 0.86893 0.26188 0.302 0.0
H106 H 0.72582 0.41893 0.41643 0.0
H107 H 0.7778 0.37671 0.3585 0.0
H108 H 0.67606 0.24762 0.25739 0.0
C109 C 0.79911 0.15309 0.18344 0.0
C110 C 0.82694 0.25887 0.29136 0.0
C111 C 0.82412 0.12773 0.14605 0.0
C112 C 0.70933 0.37982 0.40583 0.0
C113 C 0.73908 0.35565 0.3728 0.0
C114 C 0.71815 0.25083 0.26779 0.0
C115 C 0.82558 0.20136 0.20438 0.0
C116 C 0.79852 0.22887 0.243 0.0
C117 C 0.71778 0.30541 0.35602 0.0
C118 C 0.74634 0.28028 0.31652 0.0
H119 H 0.94308 0.21647 0.13785 0.0
H120 H 0.89918 0.26075 0.20181 0.0
H121 H 0.721 0.20382 0.19382 0.0
H122 H 0.599 0.28183 0.42129 0.0
H123 H 0.65055 0.24029 0.36436 0.0
C124 C 0.9125 0.85166 0.12656 0.0
C125 C 0.90731 0.89911 0.13953 0.0
C126 C 0.88392 0.80953 0.1578 0.0
C127 C 0.80376 0.76672 0.2911 0.0
H128 H 0.71672 0.66531 0.18185 0.0
C129 C 0.58833 0.6138 0.29183 0.0
C130 C 0.5925 0.59152 0.34941 0.0
C131 C 0.6337 0.64447 0.26642 0.0
C132 C 0.74097 0.69316 0.21293 0.0
H133 H 0.87045 0.94028 0.19696 0.0
H134 H 0.82127 0.86695 0.25237 0.0
H135 H 0.7871 0.73327 0.14176 0.0
H136 H 0.64835 0.58207 0.42391 0.0
H137 H 0.72715 0.63566 0.37953 0.0
H138 H 0.75634 0.7277 0.36186 0.0
C139 C 0.84754 0.86215 0.21837 0.0
C140 C 0.78161 0.73177 0.19015 0.0
C141 C 0.8756 0.90412 0.18666 0.0
C142 C 0.64347 0.59877 0.37961 0.0
C143 C 0.6887 0.6297 0.35439 0.0
C144 C 0.76347 0.72787 0.31398 0.0
C145 C 0.84995 0.81425 0.20281 0.0
C146 C 0.8126 0.76958 0.22876 0.0
C147 C 0.68413 0.65374 0.29818 0.0
C148 C 0.73084 0.69132 0.27489 0.0
H149 H 0.93519 0.84656 0.08913 0.0
H150 H 0.88661 0.77307 0.14499 0.0
H151 H 0.82714 0.79526 0.3219 0.0
H152 H 0.54979 0.60897 0.26723 0.0
H153 H 0.62886 0.66277 0.22317 0.0
C154 C 0.06758 0.81381 0.16043 0.0
C155 C 0.09559 0.8627 0.14461 0.0
C156 C 0.09101 0.78579 0.20198 0.0
C157 C 0.20518 0.79042 0.31549 0.0
H158 H 0.20137 0.66345 0.24521 0.0
C159 C 0.36004 0.67943 0.38506 0.0
C160 C 0.34344 0.62723 0.38032 0.0
C161 C 0.32474 0.70809 0.36712 0.0
C162 C 0.20214 0.6982 0.26653 0.0
H163 H 0.16792 0.92207 0.16482 0.0
H164 H 0.20857 0.87318 0.23699 0.0
H165 H 0.14643 0.71348 0.19792 0.0
H166 H 0.27569 0.56392 0.35813 0.0
H167 H 0.21401 0.61337 0.32907 0.0
H168 H 0.26171 0.7752 0.38378 0.0
C169 C 0.16868 0.85639 0.21714 0.0
C170 C 0.17048 0.72699 0.23923 0.0
C171 C 0.1454 0.88435 0.17542 0.0
C172 C 0.29009 0.60415 0.36099 0.0
C173 C 0.25473 0.6326 0.34403 0.0
C174 C 0.23668 0.7613 0.34327 0.0
C175 C 0.14273 0.80614 0.2289 0.0
C176 C 0.17205 0.77371 0.26283 0.0
C177 C 0.27194 0.68501 0.34492 0.0
C178 C 0.23603 0.71502 0.31867 0.0
H179 H 0.02892 0.79608 0.13813 0.0
H180 H 0.06959 0.74742 0.21103 0.0
H181 H 0.20707 0.8262 0.3349 0.0
H182 H 0.40084 0.69823 0.40024 0.0
H183 H 0.33959 0.74833 0.36826 0.0
C184 C 0.18617 0.8781 0.84508 0.0
C185 C 0.13373 0.85585 0.86145 0.0
C186 C 0.21149 0.85301 0.80775 0.0
C187 C 0.18486 0.74805 0.69889 0.0
H188 H 0.33519 0.75838 0.73599 0.0
C189 C 0.30377 0.62711 0.58682 0.0
C190 C 0.35551 0.65284 0.57104 0.0
C191 C 0.27358 0.65126 0.61918 0.0
C192 C 0.29327 0.75544 0.72472 0.0
H193 H 0.06683 0.78955 0.85105 0.0
H194 H 0.11128 0.74569 0.78716 0.0
H195 H 0.28943 0.80198 0.79877 0.0
H196 H 0.4148 0.72483 0.57391 0.0
H197 H 0.36247 0.76636 0.62967 0.0
H198 H 0.18901 0.70081 0.62507 0.0
C199 C 0.13256 0.78288 0.80221 0.0
C200 C 0.26707 0.7806 0.76059 0.0
C201 C 0.10718 0.80802 0.83927 0.0
C202 C 0.3754 0.70356 0.58594 0.0
C203 C 0.34551 0.72745 0.61823 0.0
C204 C 0.21112 0.72258 0.66311 0.0
C205 C 0.18511 0.80494 0.78612 0.0
C206 C 0.21263 0.7776 0.74791 0.0
C207 C 0.29482 0.70139 0.63643 0.0
C208 C 0.26575 0.72644 0.67534 0.0
H209 H 0.20772 0.91498 0.86095 0.0
H210 H 0.25169 0.87149 0.79549 0.0
H211 H 0.14304 0.7453 0.68741 0.0
H212 H 0.28728 0.58807 0.57583 0.0
H213 H 0.23452 0.63027 0.6326 0.0
C214 C 0.10012 0.15252 0.86087 0.0
C215 C 0.10263 0.10388 0.84946 0.0
C216 C 0.13166 0.19321 0.82956 0.0
C217 C 0.19798 0.27323 0.74428 0.0
H218 H 0.34181 0.25827 0.74306 0.0
C219 C 0.37235 0.40721 0.62029 0.0
C220 C 0.42422 0.41552 0.64848 0.0
C221 C 0.32863 0.37444 0.64641 0.0
C222 C 0.30202 0.26333 0.74357 0.0
H223 H 0.1359 0.05897 0.79307 0.0
H224 H 0.18963 0.12954 0.7373 0.0
H225 H 0.27074 0.18986 0.77879 0.0
H226 H 0.46988 0.39888 0.72877 0.0
H227 H 0.39369 0.34222 0.77432 0.0
H228 H 0.23014 0.34734 0.70932 0.0
C229 C 0.16443 0.13659 0.77122 0.0
C230 C 0.26102 0.22376 0.76314 0.0
C231 C 0.13334 0.09616 0.8027 0.0
C232 C 0.43071 0.39296 0.70537 0.0
C233 C 0.38705 0.36026 0.73138 0.0
C234 C 0.23921 0.31297 0.72415 0.0
C235 C 0.16609 0.18566 0.7865 0.0
C236 C 0.20849 0.22806 0.76354 0.0
C237 C 0.33588 0.34932 0.7012 0.0
C238 C 0.29173 0.30841 0.72388 0.0
H239 H 0.0778 0.15955 0.89769 0.0
H240 H 0.13222 0.23058 0.84248 0.0
H241 H 0.1579 0.27763 0.74427 0.0
H242 H 0.36577 0.42411 0.57656 0.0
H243 H 0.28973 0.36671 0.62199 0.0
C244 C 0.86592 0.12063 0.81548 0.0
C245 C 0.91617 0.14157 0.84571 0.0
C246 C 0.84342 0.14877 0.77322 0.0
C247 C 0.84522 0.27873 0.74934 0.0
H248 H 0.7512 0.23049 0.6068 0.0
C249 C 0.72527 0.40247 0.63045 0.0
C250 C 0.67151 0.37963 0.61269 0.0
C251 C 0.76065 0.37379 0.64621 0.0
C252 C 0.77706 0.24442 0.64673 0.0
H253 H 0.98442 0.2069 0.85051 0.0
H254 H 0.94509 0.25588 0.77669 0.0
H255 H 0.80516 0.17868 0.65517 0.0
H256 H 0.61327 0.3088 0.59426 0.0
H257 H 0.67454 0.25832 0.62428 0.0
H258 H 0.81576 0.34309 0.74347 0.0
C259 C 0.92274 0.21796 0.78661 0.0
C260 C 0.80816 0.21483 0.6742 0.0
C261 C 0.94537 0.18976 0.82871 0.0
C262 C 0.65442 0.32743 0.60827 0.0
C263 C 0.68973 0.29854 0.62503 0.0
C264 C 0.81395 0.30799 0.72237 0.0
C265 C 0.87063 0.19848 0.76034 0.0
C266 C 0.84217 0.2315 0.72624 0.0
C267 C 0.74302 0.32139 0.6457 0.0
C268 C 0.77898 0.29112 0.67106 0.0
H269 H 0.84249 0.08344 0.82697 0.0
H270 H 0.8032 0.13266 0.75389 0.0
H271 H 0.87003 0.29225 0.79017 0.0
H272 H 0.74 0.44271 0.63297 0.0
H273 H 0.80171 0.39282 0.65999 0.0
C274 C 0.82594 0.92463 0.86535 0.0
C275 C 0.84407 0.90484 0.91937 0.0
C276 C 0.7788 0.89798 0.83371 0.0
C277 C 0.71727 0.76679 0.81275 0.0
H278 H 0.6153 0.80744 0.70021 0.0
C279 C 0.57868 0.62506 0.65207 0.0
C280 C 0.57042 0.64033 0.59174 0.0
C281 C 0.60249 0.65998 0.69664 0.0
C282 C 0.64381 0.79569 0.73122 0.0
H283 H 0.82436 0.84664 0.98783 0.0
H284 H 0.74106 0.80119 0.93406 0.0
H285 H 0.66993 0.86713 0.77466 0.0
H286 H 0.57971 0.70418 0.53084 0.0
H287 H 0.62394 0.7654 0.60848 0.0
H288 H 0.69411 0.69673 0.76826 0.0
C289 C 0.76379 0.83608 0.91483 0.0
C290 C 0.6747 0.82971 0.77401 0.0
C291 C 0.81119 0.86213 0.94575 0.0
C292 C 0.58588 0.69141 0.57701 0.0
C293 C 0.61066 0.72646 0.6216 0.0
C294 C 0.68703 0.73321 0.76999 0.0
C295 C 0.74936 0.85172 0.8564 0.0
C296 C 0.71181 0.81549 0.81512 0.0
C297 C 0.61974 0.71102 0.68184 0.0
C298 C 0.65002 0.74712 0.72852 0.0
H299 H 0.85094 0.95756 0.84429 0.0
H300 H 0.76857 0.91101 0.78887 0.0
H301 H 0.74674 0.75508 0.84237 0.0
H302 H 0.56623 0.58605 0.66521 0.0
H303 H 0.6076 0.64683 0.74283 0.0
loop_
_geom_bond_atom_site_label_1
_geom_bond_atom_site_label_2
_geom_bond_distance
_geom_bond_site_symmetry_2
_ccdc_geom_bond_type
C0 O12 1.241 . S
C0 O13 1.280 . S
C1 O14 1.277 . S
C1 O15 1.245 . S
C2 O26 1.247 . S
C2 O28 1.289 . S
Mg3 O4 1.926 . S
Mg3 O13 1.984 . S
Mg3 O15 1.988 1_554 S
Mg3 O16 2.061 1_655 S
O4 Mg3 1.926 . S
O4 Mg5 1.986 1_554 S
O4 Mg6 1.917 1_655 S
Mg5 O4 1.986 1_556 S
Mg5 O12 2.042 1_556 S
Mg5 O14 2.041 . S
Mg5 O20 2.038 1_546 S
Mg5 O28 2.238 1_545 S
Mg6 O4 1.917 1_455 S
Mg6 O7 1.917 1_544 S
Mg6 O17 2.107 . S
Mg6 O19 2.079 1_445 S
Mg6 O28 2.106 1_444 S
Mg6 O29 2.079 1_554 S
O7 Mg6 1.917 1_566 S
O7 Mg8 1.926 . S
O7 Mg9 1.986 1_556 S
Mg8 O7 1.926 . S
Mg8 O22 1.984 . S
Mg8 O25 1.988 1_556 S
Mg8 O26 2.061 1_455 S
Mg9 O7 1.986 1_554 S
Mg9 O17 2.238 1_565 S
Mg9 O21 2.042 1_554 S
Mg9 O23 2.041 . S
Mg9 O30 2.038 1_564 S
C10 O16 1.247 . S
C10 O17 1.289 . S
C11 O29 1.245 . S
C11 O30 1.274 . S
O12 C0 1.241 . S
O12 Mg5 2.042 1_554 S
O13 C0 1.280 . S
O13 Mg3 1.984 . S
O14 C1 1.277 . S
O14 Mg5 2.041 . S
O15 C1 1.245 . S
O15 Mg3 1.988 1_556 S
O16 Mg3 2.061 1_455 S
O16 C10 1.247 . S
O17 Mg6 2.107 . S
O17 Mg9 2.238 1_545 S
O17 C10 1.289 . S
C18 O19 1.245 . S
C18 O20 1.274 . S
O19 Mg6 2.079 1_665 S
O19 C18 1.245 . S
O20 Mg5 2.038 1_564 S
O20 C18 1.274 . S
O21 Mg9 2.042 1_556 S
O21 C24 1.241 . S
O22 Mg8 1.984 . S
O22 C24 1.280 . S
O23 Mg9 2.041 . S
O23 C27 1.277 . S
C24 O21 1.241 . S
C24 O22 1.280 . S
O25 Mg8 1.988 1_554 S
O25 C27 1.245 . S
O26 C2 1.247 . S
O26 Mg8 2.061 1_655 S
C27 O23 1.277 . S
C27 O25 1.245 . S
O28 C2 1.289 . S
O28 Mg5 2.238 1_565 S
O28 Mg6 2.106 1_666 S
O29 Mg6 2.079 1_556 S
O29 C11 1.245 . S
O30 Mg9 2.038 1_546 S
O30 C11 1.274 . S
Co31 O34 2.042 . S
Co31 O41 2.264 . S
Co31 O60 2.286 . S
Co31 O61 2.069 . S
Co31 O63 2.015 . S
Co32 O34 2.122 . S
Co32 O40 2.073 . S
Co32 O41 2.327 . S
Co32 O42 1.976 . S
Co33 O34 2.087 . S
Co33 O36 2.087 . S
Co33 O43 2.111 . S
Co33 O44 2.143 . S
Co33 O48 2.111 . S
Co33 O62 2.143 . S
O34 Co31 2.042 . S
O34 Co32 2.122 . S
O34 Co33 2.087 . S
O34 H35 0.980 . S
H35 O34 0.980 . S
O36 Co33 2.087 . S
O36 Co37 2.042 . S
O36 Co38 2.122 . S
O36 H39 0.980 . S
Co37 O36 2.042 . S
Co37 O45 2.286 . S
Co37 O46 2.069 . S
Co37 O47 2.015 . S
Co37 O50 2.264 . S
Co38 O36 2.122 . S
Co38 O49 1.976 . S
Co38 O50 2.327 . S
Co38 O51 2.073 . S
H39 O36 0.980 . S
O40 Co32 2.073 . S
O40 C55 1.245 . S
O41 Co31 2.264 . S
O41 Co32 2.327 . S
O41 C55 1.257 . S
O42 Co32 1.976 . S
O42 C54 1.251 . S
O43 Co33 2.111 . S
O43 C54 1.274 . S
O44 Co33 2.143 . S
O44 C57 1.246 . S
O45 Co37 2.286 . S
O45 C56 1.259 . S
O46 Co37 2.069 . S
O46 C56 1.289 . S
O47 Co37 2.015 . S
O47 C57 1.257 . S
O48 Co33 2.111 . S
O48 C58 1.274 . S
O49 Co38 1.976 . S
O49 C58 1.251 . S
O50 Co37 2.264 . S
O50 Co38 2.327 . S
O50 C59 1.257 . S
O51 Co38 2.073 . S
O51 C59 1.245 . S
C52 O60 1.259 . S
C52 O61 1.289 . S
C53 O62 1.246 . S
C53 O63 1.257 . S
C54 O42 1.251 . S
C54 O43 1.274 . S
C55 O40 1.245 . S
C55 O41 1.257 . S
C56 O45 1.259 . S
C56 O46 1.289 . S
C57 O44 1.246 . S
C57 O47 1.257 . S
C58 O48 1.274 . S
C58 O49 1.251 . S
C59 O50 1.257 . S
C59 O51 1.245 . S
O60 Co31 2.286 . S
O60 C52 1.259 . S
O61 Co31 2.069 . S
O61 C52 1.289 . S
O62 Co33 2.143 . S
O62 C53 1.246 . S
O63 Co31 2.015 . S
O63 C53 1.257 . S
C64 C65 1.349 . S
C64 C66 1.327 . S
C64 H89 0.950 . S
C65 C64 1.349 . S
C65 C81 1.349 . S
C66 C64 1.327 . S
C66 C85 1.429 . S
C66 H90 0.950 . S
C67 C84 1.574 . S
C67 C86 1.368 . S
C67 H91 0.949 . S
H68 C72 0.949 . S
C69 C70 1.349 . S
C69 C71 1.327 . S
C69 H92 0.950 . S
C70 C69 1.349 . S
C70 C82 1.349 . S
C71 C69 1.327 . S
C71 C87 1.429 . S
C71 H93 0.950 . S
C72 H68 0.949 . S
C72 C80 1.574 . S
C72 C88 1.368 . S
H73 C81 0.950 . S
H74 C79 0.950 . S
H75 C80 0.949 . S
H76 C82 0.950 . S
H77 C83 0.950 . S
H78 C84 0.949 . S
C79 H74 0.950 . S
C79 C81 1.327 . S
C79 C85 1.429 . S
C80 C72 1.574 . S
C80 H75 0.949 . S
C80 C86 1.368 . S
C81 C65 1.349 . S
C81 H73 0.950 . S
C81 C79 1.327 . S
C82 C70 1.349 . S
C82 H76 0.950 . S
C82 C83 1.327 . S
C83 H77 0.950 . S
C83 C82 1.327 . S
C83 C87 1.429 . S
C84 C67 1.574 . S
C84 H78 0.949 . S
C84 C88 1.368 . S
C85 C66 1.429 . S
C85 C79 1.429 . S
C85 C86 1.523 . S
C86 C67 1.368 . S
C86 C80 1.368 . S
C86 C85 1.523 . S
C87 C71 1.429 . S
C87 C83 1.429 . S
C87 C88 1.523 . S
C88 C72 1.368 . S
C88 C84 1.368 . S
C88 C87 1.523 . S
H89 C64 0.950 . S
H90 C66 0.950 . S
H91 C67 0.949 . S
H92 C69 0.950 . S
H93 C71 0.950 . S
C94 C95 1.349 . S
C94 C96 1.327 . S
C94 H119 0.950 . S
C95 C94 1.349 . S
C95 C111 1.349 . S
C96 C94 1.327 . S
C96 C115 1.429 . S
C96 H120 0.950 . S
C97 C114 1.574 . S
C97 C116 1.368 . S
C97 H121 0.949 . S
H98 C102 0.949 . S
C99 C100 1.349 . S
C99 C101 1.327 . S
C99 H122 0.950 . S
C100 C99 1.349 . S
C100 C112 1.349 . S
C101 C99 1.327 . S
C101 C117 1.429 . S
C101 H123 0.950 . S
C102 H98 0.949 . S
C102 C110 1.574 . S
C102 C118 1.368 . S
H103 C111 0.950 . S
H104 C109 0.950 . S
H105 C110 0.949 . S
H106 C112 0.950 . S
H107 C113 0.950 . S
H108 C114 0.949 . S
C109 H104 0.950 . S
C109 C111 1.327 . S
C109 C115 1.429 . S
C110 C102 1.574 . S
C110 H105 0.949 . S
C110 C116 1.368 . S
C111 C95 1.349 . S
C111 H103 0.950 . S
C111 C109 1.327 . S
C112 C100 1.349 . S
C112 H106 0.950 . S
C112 C113 1.327 . S
C113 H107 0.950 . S
C113 C112 1.327 . S
C113 C117 1.429 . S
C114 C97 1.574 . S
C114 H108 0.949 . S
C114 C118 1.368 . S
C115 C96 1.429 . S
C115 C109 1.429 . S
C115 C116 1.523 . S
C116 C97 1.368 . S
C116 C110 1.368 . S
C116 C115 1.523 . S
C117 C101 1.429 . S
C117 C113 1.429 . S
C117 C118 1.523 . S
C118 C102 1.368 . S
C118 C114 1.368 . S
C118 C117 1.523 . S
H119 C94 0.950 . S
H120 C96 0.950 . S
H121 C97 0.949 . S
H122 C99 0.950 . S
H123 C101 0.950 . S
C124 C125 1.349 . S
C124 C126 1.327 . S
C124 H149 0.950 . S
C125 C124 1.349 . S
C125 C141 1.349 . S
C126 C124 1.327 . S
C126 C145 1.429 . S
C126 H150 0.950 . S
C127 C144 1.574 . S
C127 C146 1.368 . S
C127 H151 0.949 . S
H128 C132 0.949 . S
C129 C130 1.349 . S
C129 C131 1.327 . S
C129 H152 0.950 . S
C130 C129 1.349 . S
C130 C142 1.349 . S
C131 C129 1.327 . S
C131 C147 1.429 . S
C131 H153 0.950 . S
C132 H128 0.949 . S
C132 C140 1.574 . S
C132 C148 1.368 . S
H133 C141 0.950 . S
H134 C139 0.950 . S
H135 C140 0.949 . S
H136 C142 0.950 . S
H137 C143 0.950 . S
H138 C144 0.949 . S
C139 H134 0.950 . S
C139 C141 1.327 . S
C139 C145 1.429 . S
C140 C132 1.574 . S
C140 H135 0.949 . S
C140 C146 1.368 . S
C141 C125 1.349 . S
C141 H133 0.950 . S
C141 C139 1.327 . S
C142 C130 1.349 . S
C142 H136 0.950 . S
C142 C143 1.327 . S
C143 H137 0.950 . S
C143 C142 1.327 . S
C143 C147 1.429 . S
C144 C127 1.574 . S
C144 H138 0.949 . S
C144 C148 1.368 . S
C145 C126 1.429 . S
C145 C139 1.429 . S
C145 C146 1.523 . S
C146 C127 1.368 . S
C146 C140 1.368 . S
C146 C145 1.523 . S
C147 C131 1.429 . S
C147 C143 1.429 . S
C147 C148 1.523 . S
C148 C132 1.368 . S
C148 C144 1.368 . S
C148 C147 1.523 . S
H149 C124 0.950 . S
H150 C126 0.950 . S
H151 C127 0.949 . S
H152 C129 0.950 . S
H153 C131 0.950 . S
C154 C155 1.349 . S
C154 C156 1.327 . S
C154 H179 0.950 . S
C155 C154 1.349 . S
C155 C171 1.349 . S
C156 C154 1.327 . S
C156 C175 1.429 . S
C156 H180 0.950 . S
C157 C174 1.574 . S
C157 C176 1.368 . S
C157 H181 0.949 . S
H158 C162 0.949 . S
C159 C160 1.349 . S
C159 C161 1.327 . S
C159 H182 0.950 . S
C160 C159 1.349 . S
C160 C172 1.349 . S
C161 C159 1.327 . S
C161 C177 1.429 . S
C161 H183 0.950 . S
C162 H158 0.949 . S
C162 C170 1.574 . S
C162 C178 1.368 . S
H163 C171 0.950 . S
H164 C169 0.950 . S
H165 C170 0.949 . S
H166 C172 0.950 . S
H167 C173 0.950 . S
H168 C174 0.949 . S
C169 H164 0.950 . S
C169 C171 1.327 . S
C169 C175 1.429 . S
C170 C162 1.574 . S
C170 H165 0.949 . S
C170 C176 1.368 . S
C171 C155 1.349 . S
C171 H163 0.950 . S
C171 C169 1.327 . S
C172 C160 1.349 . S
C172 H166 0.950 . S
C172 C173 1.327 . S
C173 H167 0.950 . S
C173 C172 1.327 . S
C173 C177 1.429 . S
C174 C157 1.574 . S
C174 H168 0.949 . S
C174 C178 1.368 . S
C175 C156 1.429 . S
C175 C169 1.429 . S
C175 C176 1.523 . S
C176 C157 1.368 . S
C176 C170 1.368 . S
C176 C175 1.523 . S
C177 C161 1.429 . S
C177 C173 1.429 . S
C177 C178 1.523 . S
C178 C162 1.368 . S
C178 C174 1.368 . S
C178 C177 1.523 . S
H179 C154 0.950 . S
H180 C156 0.950 . S
H181 C157 0.949 . S
H182 C159 0.950 . S
H183 C161 0.950 . S
C184 C185 1.349 . S
C184 C186 1.327 . S
C184 H209 0.950 . S
C185 C184 1.349 . S
C185 C201 1.349 . S
C186 C184 1.327 . S
C186 C205 1.429 . S
C186 H210 0.950 . S
C187 C204 1.574 . S
C187 C206 1.368 . S
C187 H211 0.949 . S
H188 C192 0.949 . S
C189 C190 1.349 . S
C189 C191 1.327 . S
C189 H212 0.950 . S
C190 C189 1.349 . S
C190 C202 1.349 . S
C191 C189 1.327 . S
C191 C207 1.429 . S
C191 H213 0.950 . S
C192 H188 0.949 . S
C192 C200 1.574 . S
C192 C208 1.368 . S
H193 C201 0.950 . S
H194 C199 0.950 . S
H195 C200 0.949 . S
H196 C202 0.950 . S
H197 C203 0.950 . S
H198 C204 0.949 . S
C199 H194 0.950 . S
C199 C201 1.327 . S
C199 C205 1.429 . S
C200 C192 1.574 . S
C200 H195 0.949 . S
C200 C206 1.368 . S
C201 C185 1.349 . S
C201 H193 0.950 . S
C201 C199 1.327 . S
C202 C190 1.349 . S
C202 H196 0.950 . S
C202 C203 1.327 . S
C203 H197 0.950 . S
C203 C202 1.327 . S
C203 C207 1.429 . S
C204 C187 1.574 . S
C204 H198 0.949 . S
C204 C208 1.368 . S
C205 C186 1.429 . S
C205 C199 1.429 . S
C205 C206 1.523 . S
C206 C187 1.368 . S
C206 C200 1.368 . S
C206 C205 1.523 . S
C207 C191 1.429 . S
C207 C203 1.429 . S
C207 C208 1.523 . S
C208 C192 1.368 . S
C208 C204 1.368 . S
C208 C207 1.523 . S
H209 C184 0.950 . S
H210 C186 0.950 . S
H211 C187 0.949 . S
H212 C189 0.950 . S
H213 C191 0.950 . S
C214 C215 1.349 . S
C214 C216 1.327 . S
C214 H239 0.950 . S
C215 C214 1.349 . S
C215 C231 1.349 . S
C216 C214 1.327 . S
C216 C235 1.429 . S
C216 H240 0.950 . S
C217 C234 1.574 . S
C217 C236 1.368 . S
C217 H241 0.949 . S
H218 C222 0.949 . S
C219 C220 1.349 . S
C219 C221 1.327 . S
C219 H242 0.950 . S
C220 C219 1.349 . S
C220 C232 1.349 . S
C221 C219 1.327 . S
C221 C237 1.429 . S
C221 H243 0.950 . S
C222 H218 0.949 . S
C222 C230 1.574 . S
C222 C238 1.368 . S
H223 C231 0.950 . S
H224 C229 0.950 . S
H225 C230 0.949 . S
H226 C232 0.950 . S
H227 C233 0.950 . S
H228 C234 0.949 . S
C229 H224 0.950 . S
C229 C231 1.327 . S
C229 C235 1.429 . S
C230 C222 1.574 . S
C230 H225 0.949 . S
C230 C236 1.368 . S
C231 C215 1.349 . S
C231 H223 0.950 . S
C231 C229 1.327 . S
C232 C220 1.349 . S
C232 H226 0.950 . S
C232 C233 1.327 . S
C233 H227 0.950 . S
C233 C232 1.327 . S
C233 C237 1.429 . S
C234 C217 1.574 . S
C234 H228 0.949 . S
C234 C238 1.368 . S
C235 C216 1.429 . S
C235 C229 1.429 . S
C235 C236 1.523 . S
C236 C217 1.368 . S
C236 C230 1.368 . S
C236 C235 1.523 . S
C237 C221 1.429 . S
C237 C233 1.429 . S
C237 C238 1.523 . S
C238 C222 1.368 . S
C238 C234 1.368 . S
C238 C237 1.523 . S
H239 C214 0.950 . S
H240 C216 0.950 . S
H241 C217 0.949 . S
H242 C219 0.950 . S
H243 C221 0.950 . S
C244 C245 1.349 . S
C244 C246 1.327 . S
C244 H269 0.950 . S
C245 C244 1.349 . S
C245 C261 1.349 . S
C246 C244 1.327 . S
C246 C265 1.429 . S
C246 H270 0.950 . S
C247 C264 1.574 . S
C247 C266 1.368 . S
C247 H271 0.949 . S
H248 C252 0.949 . S
C249 C250 1.349 . S
C249 C251 1.327 . S
C249 H272 0.950 . S
C250 C249 1.349 . S
C250 C262 1.349 . S
C251 C249 1.327 . S
C251 C267 1.429 . S
C251 H273 0.950 . S
C252 H248 0.949 . S
C252 C260 1.574 . S
C252 C268 1.368 . S
H253 C261 0.950 . S
H254 C259 0.950 . S
H255 C260 0.949 . S
H256 C262 0.950 . S
H257 C263 0.950 . S
H258 C264 0.949 . S
C259 H254 0.950 . S
C259 C261 1.327 . S
C259 C265 1.429 . S
C260 C252 1.574 . S
C260 H255 0.949 . S
C260 C266 1.368 . S
C261 C245 1.349 . S
C261 H253 0.950 . S
C261 C259 1.327 . S
C262 C250 1.349 . S
C262 H256 0.950 . S
C262 C263 1.327 . S
C263 H257 0.950 . S
C263 C262 1.327 . S
C263 C267 1.429 . S
C264 C247 1.574 . S
C264 H258 0.949 . S
C264 C268 1.368 . S
C265 C246 1.429 . S
C265 C259 1.429 . S
C265 C266 1.523 . S
C266 C247 1.368 . S
C266 C260 1.368 . S
C266 C265 1.523 . S
C267 C251 1.429 . S
C267 C263 1.429 . S
C267 C268 1.523 . S
C268 C252 1.368 . S
C268 C264 1.368 . S
C268 C267 1.523 . S
H269 C244 0.950 . S
H270 C246 0.950 . S
H271 C247 0.949 . S
H272 C249 0.950 . S
H273 C251 0.950 . S
C274 C275 1.349 . S
C274 C276 1.327 . S
C274 H299 0.950 . S
C275 C274 1.349 . S
C275 C291 1.349 . S
C276 C274 1.327 . S
C276 C295 1.429 . S
C276 H300 0.950 . S
C277 C294 1.574 . S
C277 C296 1.368 . S
C277 H301 0.949 . S
H278 C282 0.949 . S
C279 C280 1.349 . S
C279 C281 1.327 . S
C279 H302 0.950 . S
C280 C279 1.349 . S
C280 C292 1.349 . S
C281 C279 1.327 . S
C281 C297 1.429 . S
C281 H303 0.950 . S
C282 H278 0.949 . S
C282 C290 1.574 . S
C282 C298 1.368 . S
H283 C291 0.950 . S
H284 C289 0.950 . S
H285 C290 0.949 . S
H286 C292 0.950 . S
H287 C293 0.950 . S
H288 C294 0.949 . S
C289 H284 0.950 . S
C289 C291 1.327 . S
C289 C295 1.429 . S
C290 C282 1.574 . S
C290 H285 0.949 . S
C290 C296 1.368 . S
C291 C275 1.349 . S
C291 H283 0.950 . S
C291 C289 1.327 . S
C292 C280 1.349 . S
C292 H286 0.950 . S
C292 C293 1.327 . S
C293 H287 0.950 . S
C293 C292 1.327 . S
C293 C297 1.429 . S
C294 C277 1.574 . S
C294 H288 0.949 . S
C294 C298 1.368 . S
C295 C276 1.429 . S
C295 C289 1.429 . S
C295 C296 1.523 . S
C296 C277 1.368 . S
C296 C290 1.368 . S
C296 C295 1.523 . S
C297 C281 1.429 . S
C297 C293 1.429 . S
C297 C298 1.523 . S
C298 C282 1.368 . S
C298 C294 1.368 . S
C298 C297 1.523 . S
H299 C274 0.950 . S
H300 C276 0.950 . S
H301 C277 0.949 . S
H302 C279 0.950 . S
H303 C281 0.950 . S
C65 C10 1.036 . S
C70 C53 1.052 . S
C95 C0 1.741 . S
C100 C52 1.796 . S
C125 C18 1.440 . S
C130 C58 1.407 . S
C155 C27 1.628 . S
C160 C59 1.597 . S
C185 C24 1.741 . S
C190 C56 1.798 . S
C220 C54 1.407 . S
C215 C11 1.442 . S
C245 C1 1.628 . S
C250 C55 1.598 . S
C280 C57 1.053 . S
C275 C2 1.038 . S
