# Generated by pormake.
# Topology zzz, (3,6)-cn, num edge types: 1
# Building blocks:
#     Node 0, Type 0, BuildingBlock: WUSLED_clean_sbu_0, # of connection points: 3
#     Node 1, Type 0, BuildingBlock: WUSLED_clean_sbu_0, # of connection points: 3
#     Node 2, Type 0, BuildingBlock: WUSLED_clean_sbu_0, # of connection points: 3
#     Node 3, Type 0, BuildingBlock: WUSLED_clean_sbu_0, # of connection points: 3
#     Node 4, Type 0, BuildingBlock: WUSLED_clean_sbu_0, # of connection points: 3
#     Node 5, Type 0, BuildingBlock: WUSLED_clean_sbu_0, # of connection points: 3
#     Node 6, Type 0, BuildingBlock: WUSLED_clean_sbu_0, # of connection points: 3
#     Node 7, Type 0, BuildingBlock: WUSLED_clean_sbu_0, # of connection points: 3
#     Node 8, Type 1, BuildingBlock: CUWYAW_clean_sbu_0, # of connection points: 6
#     Node 9, Type 1, BuildingBlock: CUWYAW_clean_sbu_0, # of connection points: 6
#     Node 10, Type 1, BuildingBlock: CUWYAW_clean_sbu_0, # of connection points: 6
#     Node 11, Type 1, BuildingBlock: CUWYAW_clean_sbu_0, # of connection points: 6
#     Edge 12, Type (0, 1), BuildingBlock: XUDNAN_clean_linker_2, # of connection points: 2
#     Edge 13, Type (0, 1), BuildingBlock: XUDNAN_clean_linker_2, # of connection points: 2
#     Edge 14, Type (0, 1), BuildingBlock: XUDNAN_clean_linker_2, # of connection points: 2
#     Edge 15, Type (0, 1), BuildingBlock: XUDNAN_clean_linker_2, # of connection points: 2
#     Edge 16, Type (0, 1), BuildingBlock: XUDNAN_clean_linker_2, # of connection points: 2
#     Edge 17, Type (0, 1), BuildingBlock: XUDNAN_clean_linker_2, # of connection points: 2
#     Edge 18, Type (0, 1), BuildingBlock: XUDNAN_clean_linker_2, # of connection points: 2
#     Edge 19, Type (0, 1), BuildingBlock: XUDNAN_clean_linker_2, # of connection points: 2
#     Edge 20, Type (0, 1), BuildingBlock: XUDNAN_clean_linker_2, # of connection points: 2
#     Edge 21, Type (0, 1), BuildingBlock: XUDNAN_clean_linker_2, # of connection points: 2
#     Edge 22, Type (0, 1), BuildingBlock: XUDNAN_clean_linker_2, # of connection points: 2
#     Edge 23, Type (0, 1), BuildingBlock: XUDNAN_clean_linker_2, # of connection points: 2
#     Edge 24, Type (0, 1), BuildingBlock: XUDNAN_clean_linker_2, # of connection points: 2
#     Edge 25, Type (0, 1), BuildingBlock: XUDNAN_clean_linker_2, # of connection points: 2
#     Edge 26, Type (0, 1), BuildingBlock: XUDNAN_clean_linker_2, # of connection points: 2
#     Edge 27, Type (0, 1), BuildingBlock: XUDNAN_clean_linker_2, # of connection points: 2
#     Edge 28, Type (0, 1), BuildingBlock: XUDNAN_clean_linker_2, # of connection points: 2
#     Edge 29, Type (0, 1), BuildingBlock: XUDNAN_clean_linker_2, # of connection points: 2
#     Edge 30, Type (0, 1), BuildingBlock: XUDNAN_clean_linker_2, # of connection points: 2
#     Edge 31, Type (0, 1), BuildingBlock: XUDNAN_clean_linker_2, # of connection points: 2
#     Edge 32, Type (0, 1), BuildingBlock: XUDNAN_clean_linker_2, # of connection points: 2
#     Edge 33, Type (0, 1), BuildingBlock: XUDNAN_clean_linker_2, # of connection points: 2
#     Edge 34, Type (0, 1), BuildingBlock: XUDNAN_clean_linker_2, # of connection points: 2
#     Edge 35, Type (0, 1), BuildingBlock: XUDNAN_clean_linker_2, # of connection points: 2
# Relax obj value: 0.397
# Max RMSD: 0.244
# Mean RMSD: 0.224
data_MOF--net-zzz--node1-WUSLED_clean_sbu_0--node2-CUWYAW_clean_sbu_0--edge1-XUDNAN_clean_linker_2
_symmetry_space_group_name_H-M    P1
_symmetry_Int_Tables_number       1
_symmetry_cell_setting            triclinic
loop_
_symmetry_equiv_pos_as_xyz
'x, y, z'
_cell_length_a     62.514509
_cell_length_b     62.696599
_cell_length_c     20.23956
_cell_angle_alpha  90.042196
_cell_angle_beta   89.870535
_cell_angle_gamma 89.932125
loop_
_atom_site_label
_atom_site_type_symbol
_atom_site_fract_x
_atom_site_fract_y
_atom_site_fract_z
_atom_type_partial_charge
C0 C 0.78419 0.52409 0.46347 0.0
C1 C 0.79964 0.51719 0.41766 0.0
C2 C 0.82786 0.51912 0.50187 0.0
C3 C 0.82116 0.51476 0.43656 0.0
C4 C 0.81233 0.52648 0.54707 0.0
C5 C 0.79082 0.52889 0.5281 0.0
U6 U 0.7382 0.5238 0.33612 0.0
O7 O 0.70631 0.50886 0.34227 0.0
O8 O 0.70899 0.54331 0.32628 0.0
C9 C 0.69625 0.52662 0.32724 0.0
C10 C 0.76113 0.52582 0.44552 0.0
C11 C 0.6801 0.52499 0.27342 0.0
C12 C 0.64397 0.51541 0.23915 0.0
C13 C 0.65967 0.51714 0.28825 0.0
C14 C 0.66888 0.52919 0.15834 0.0
C15 C 0.64825 0.52133 0.17317 0.0
C16 C 0.68462 0.53096 0.20781 0.0
C17 C 0.77016 0.51357 0.16499 0.0
C18 C 0.78035 0.48885 0.07881 0.0
C19 C 0.8019 0.52026 0.10007 0.0
C20 C 0.78741 0.52674 0.14841 0.0
C21 C 0.79908 0.50064 0.06753 0.0
C22 C 0.76605 0.49517 0.12787 0.0
C23 C 0.75864 0.51723 0.22662 0.0
O24 O 0.75546 0.54271 0.41124 0.0
O25 O 0.75203 0.50825 0.42395 0.0
O26 O 0.7513 0.50141 0.26267 0.0
O27 O 0.75518 0.53657 0.24949 0.0
H28 H 0.79504 0.51348 0.36737 0.0
H29 H 0.83257 0.50944 0.39973 0.0
H30 H 0.81664 0.52983 0.5978 0.0
H31 H 0.77924 0.53422 0.56443 0.0
H32 H 0.62832 0.50968 0.2535 0.0
H33 H 0.65575 0.51239 0.3383 0.0
H34 H 0.67305 0.53366 0.1083 0.0
H35 H 0.70033 0.53691 0.1947 0.0
H36 H 0.77763 0.47387 0.05344 0.0
H37 H 0.81626 0.52963 0.09295 0.0
H38 H 0.79078 0.54103 0.1767 0.0
H39 H 0.75258 0.48499 0.13961 0.0
C40 C 1.01712 0.78127 0.44864 0.0
C41 C 0.02762 0.79812 0.4157 0.0
C42 C 1.01801 0.82327 0.50453 0.0
C43 C 0.02792 0.81892 0.44314 0.0
C44 C 1.00697 0.80645 0.53567 0.0
C45 C 1.00654 0.78591 0.50823 0.0
U46 U 1.01629 0.73187 0.3251 0.0
O47 O 0.03478 0.70187 0.33056 0.0
O48 O 0.99994 0.70108 0.3396 0.0
C49 C 1.01747 0.69 0.32847 0.0
C50 C 1.01807 0.75842 0.42671 0.0
C51 C 1.01625 0.67487 0.27179 0.0
C52 C 1.01813 0.6388 0.22581 0.0
C53 C 0.02016 0.65293 0.2797 0.0
C54 C 1.00876 0.66843 0.15514 0.0
C55 C 1.01198 0.64632 0.16302 0.0
C56 C 1.01089 0.68246 0.20864 0.0
C57 C 1.01303 0.76611 0.1677 0.0
C58 C 1.01625 0.78313 0.06132 0.0
C59 C 1.01825 0.80412 0.16218 0.0
C60 C 1.01523 0.78577 0.1996 0.0
C61 C 0.0192 0.80279 0.09287 0.0
C62 C 1.01315 0.76484 0.09873 0.0
C63 C 1.01307 0.74642 0.2047 0.0
O64 O 1.00023 0.74968 0.40554 0.0
O65 O 0.03509 0.7517 0.39436 0.0
O66 O 0.03141 0.74186 0.23284 0.0
O67 O 0.99633 0.74279 0.24243 0.0
H68 H 0.03599 0.79514 0.3697 0.0
H69 H 0.03662 0.83138 0.41765 0.0
H70 H 0.99883 0.80909 0.58228 0.0
H71 H 0.99833 0.77336 0.5349 0.0
H72 H 0.02067 0.62191 0.23381 0.0
H73 H 0.02445 0.64668 0.32774 0.0
H74 H 1.00436 0.67491 0.10746 0.0
H75 H 1.00801 0.6993 0.2008 0.0
H76 H 1.0168 0.78187 1.00795 0.0
H77 H 0.02077 0.81916 0.18738 0.0
H78 H 1.01541 0.78676 0.25306 0.0
H79 H 1.01162 0.74959 0.07392 0.0
C80 C 0.75681 1.01609 0.44418 0.0
C81 C 0.74344 0.03284 0.42305 0.0
C82 C 0.71325 0.01911 0.48848 0.0
C83 C 0.72205 0.03422 0.4444 0.0
C84 C 0.72639 1.00191 0.50763 0.0
C85 C 0.74782 1.00047 0.48594 0.0
U86 U 0.80656 1.01405 0.32584 0.0
O87 O 0.83743 0.9972 0.33485 0.0
O88 O 0.83681 0.03205 0.3295 0.0
C89 C 0.84858 1.01471 0.32502 0.0
C90 C 0.78039 1.01575 0.42877 0.0
C91 C 0.86342 1.01403 0.2676 0.0
C92 C 0.89939 1.01051 0.22109 0.0
C93 C 0.88566 1.01222 0.27616 0.0
C94 C 0.86884 1.01288 0.14831 0.0
C95 C 0.89109 1.01039 0.15643 0.0
C96 C 0.85522 1.01465 0.20307 0.0
C97 C 0.76584 1.0117 0.19275 0.0
C98 C 0.73753 1.00318 0.11647 0.0
C99 C 0.72928 0.01945 0.22253 0.0
C100 C 0.75082 0.01944 0.2382 0.0
C101 C 0.72244 1.01137 0.1615 0.0
C102 C 0.75922 1.00341 0.13207 0.0
C103 C 0.78828 1.01176 0.21039 0.0
O104 O 0.78857 0.99785 0.40591 0.0
O105 O 0.78863 0.03271 0.40006 0.0
O106 O 0.79444 0.99481 0.24334 0.0
O107 O 0.79493 0.0298 0.23628 0.0
H108 H 0.74961 0.04525 0.39111 0.0
H109 H 0.71248 0.04748 0.42703 0.0
H110 H 0.72043 0.99 0.54169 0.0
H111 H 0.75763 0.98744 0.50373 0.0
H112 H 0.91639 1.00847 0.22915 0.0
H113 H 0.89236 1.01172 0.32542 0.0
H114 H 0.86189 1.01312 0.09934 0.0
H115 H 0.83816 1.01614 0.19499 0.0
H116 H 0.73259 0.99672 0.06926 0.0
H117 H 0.71808 0.02631 0.25757 0.0
H118 H 0.75584 0.02573 0.28549 0.0
H119 H 0.77077 0.99717 0.09702 0.0
C120 C 0.52349 0.75079 0.44475 0.0
C121 C 0.51072 0.73461 0.41674 0.0
C122 C 0.5215 0.7093 0.50354 0.0
C123 C 0.50987 0.71403 0.44557 0.0
C124 C 0.53469 0.72541 0.52972 0.0
C125 C 0.53567 0.74571 0.50082 0.0
U126 U 0.52404 0.80028 0.32074 0.0
O127 O 0.5077 0.8312 0.33383 0.0
O128 O 0.54268 0.82996 0.33142 0.0
C129 C 0.52556 0.84213 0.32866 0.0
C130 C 0.52339 0.77355 0.42196 0.0
C131 C 0.52589 0.85906 0.27703 0.0
C132 C 0.53294 0.89594 0.2454 0.0
C133 C 0.53195 0.87989 0.29368 0.0
C134 C 0.52168 0.87067 0.16226 0.0
C135 C 0.52804 0.89162 0.17864 0.0
C136 C 0.52067 0.85461 0.2108 0.0
C137 C 0.52027 0.76676 0.16158 0.0
C138 C 0.50667 0.75051 0.06217 0.0
C139 C 0.51738 0.72843 0.15512 0.0
C140 C 0.52303 0.74665 0.19048 0.0
C141 C 0.50865 0.73044 0.09158 0.0
C142 C 0.51258 0.76861 0.097 0.0
C143 C 0.52282 0.7862 0.19936 0.0
O144 O 0.54109 0.78114 0.39584 0.0
O145 O 0.506 0.78129 0.39427 0.0
O146 O 0.50571 0.79191 0.23271 0.0
O147 O 0.54078 0.78851 0.23224 0.0
H148 H 0.50106 0.73797 0.37364 0.0
H149 H 0.49949 0.70211 0.42402 0.0
H150 H 0.54413 0.72241 0.57356 0.0
H151 H 0.54562 0.75776 0.52375 0.0
H152 H 0.53749 0.91183 0.26077 0.0
H153 H 0.53602 0.88378 0.34427 0.0
H154 H 0.51798 0.8665 0.11165 0.0
H155 H 0.51602 0.83862 0.19642 0.0
H156 H 0.49994 0.75218 1.01313 0.0
H157 H 0.51878 0.71294 0.17842 0.0
H158 H 0.52871 0.74514 0.24081 0.0
H159 H 0.51027 0.78415 0.07463 0.0
C160 C 0.25643 0.51245 0.96711 0.0
C161 C 0.24163 0.5246 1.00367 0.0
C162 C 0.21302 0.51695 0.92372 0.0
C163 C 0.22026 0.5266 0.98279 0.0
C164 C 0.22781 0.5044 0.88809 0.0
C165 C 0.24912 0.50217 0.90956 0.0
U166 U 0.30637 0.50757 0.08495 0.0
O167 O 0.3373 0.49109 0.07121 0.0
O168 O 0.33631 0.52591 0.07865 0.0
C169 C 0.34836 0.50874 0.07952 0.0
C170 C 0.27976 0.51171 0.98406 0.0
C171 C 0.36486 0.50832 0.1323 0.0
C172 C 0.40234 0.50979 0.16504 0.0
C173 C 0.38661 0.50913 0.11567 0.0
C174 C 0.37484 0.5087 0.24912 0.0
C175 C 0.39677 0.50982 0.23269 0.0
C176 C 0.3591 0.50797 0.19955 0.0
C177 C 0.26949 0.50509 0.23375 0.0
C178 C 0.24894 0.51135 0.33295 0.0
C179 C 0.23338 0.51834 0.22513 0.0
C180 C 0.25199 0.51108 0.19492 0.0
C181 C 0.23217 0.51921 0.29419 0.0
C182 C 0.2677 0.50443 0.30263 0.0
C183 C 0.29054 0.50379 0.20399 0.0
O184 O 0.28771 0.52791 0.01728 0.0
O185 O 0.28776 0.49328 1.00299 0.0
O186 O 0.29414 0.4873 0.16542 0.0
O187 O 0.297 0.52197 0.17884 0.0
H188 H 0.24665 0.53299 0.04773 0.0
H189 H 0.20948 0.53599 1.01297 0.0
H190 H 0.22321 0.49686 0.84216 0.0
H191 H 0.26015 0.49288 0.87981 0.0
H192 H 0.41895 0.51019 0.14987 0.0
H193 H 0.39147 0.50942 0.06427 0.0
H194 H 0.36974 0.50893 0.30026 0.0
H195 H 0.34239 0.50745 0.21376 0.0
H196 H 0.24807 0.51198 0.3864 0.0
H197 H 0.22039 0.52425 0.19485 0.0
H198 H 0.25333 0.51155 0.14165 0.0
H199 H 0.28126 0.49997 0.33292 0.0
C200 C 0.02405 0.25315 0.96048 0.0
C201 C 0.03957 0.23746 0.9749 0.0
C202 C 0.0218 0.21153 0.90191 0.0
C203 C 0.03838 0.21687 0.9463 0.0
C204 C 1.00597 0.22709 0.88997 0.0
C205 C 1.00712 0.24746 0.91854 0.0
U206 U 0.03159 0.30179 0.08416 0.0
O207 O 0.04763 0.33285 0.07055 0.0
O208 O 1.01287 0.33156 0.08312 0.0
C209 C 0.02996 0.34371 0.08194 0.0
C210 C 0.0258 0.27602 0.98198 0.0
C211 C 0.03096 0.36013 0.13499 0.0
C212 C 0.028 0.39735 0.16904 0.0
C213 C 0.02769 0.38167 0.11949 0.0
C214 C 0.03473 0.37023 0.25122 0.0
C215 C 0.03168 0.39198 0.2358 0.0
C216 C 0.03435 0.35451 0.20146 0.0
C217 C 0.03586 0.26324 0.22599 0.0
C218 C 0.02551 0.24078 0.3172 0.0
C219 C 0.02588 0.2267 0.20531 0.0
C220 C 0.0332 0.24621 0.18197 0.0
C221 C 0.02102 0.22423 0.27262 0.0
C222 C 0.03288 0.26028 0.29381 0.0
C223 C 0.0369 0.28479 0.20071 0.0
O224 O 1.01004 0.28392 0.01754 0.0
O225 O 0.04464 0.28342 0.99976 0.0
O226 O 0.05297 0.28906 0.1609 0.0
O227 O 1.01836 0.29164 0.17892 0.0
H228 H 0.05291 0.24124 1.00686 0.0
H229 H 0.0509 0.20544 0.95691 0.0
H230 H 0.99268 0.22365 0.85747 0.0
H231 H 0.99493 0.25908 0.90614 0.0
H232 H 0.02506 0.41373 0.15481 0.0
H233 H 0.02474 0.38639 0.06885 0.0
H234 H 0.03778 0.36531 0.3016 0.0
H235 H 0.03673 0.33795 0.21489 0.0
H236 H 0.02181 0.23922 0.36929 0.0
H237 H 0.02291 0.21395 0.17034 0.0
H238 H 0.03526 0.24847 0.12926 0.0
H239 H 0.03467 0.27348 0.32795 0.0
C240 C 0.28215 0.01992 0.952 0.0
C241 C 0.29771 0.0353 0.96869 0.0
C242 C 0.32539 1.01596 0.90599 0.0
C243 C 0.31906 0.03333 0.94601 0.0
C244 C 0.30958 1.0009 0.8889 0.0
C245 C 0.28847 1.00281 0.91162 0.0
U246 U 0.23322 0.02363 0.07446 0.0
O247 O 0.20231 1.0066 0.07108 0.0
O248 O 0.20306 0.04147 0.06428 0.0
C249 C 0.19128 0.02443 0.07521 0.0
C250 C 0.25897 0.0218 0.97072 0.0
C251 C 0.17632 0.02591 0.13231 0.0
C252 C 0.14195 0.01783 0.18438 0.0
C253 C 0.15609 1.01617 0.13036 0.0
C254 C 0.16827 0.03857 0.24367 0.0
C255 C 0.14772 0.02942 0.24129 0.0
C256 C 0.18239 0.03675 0.19015 0.0
C257 C 0.27265 0.02434 0.21412 0.0
C258 C 0.29797 0.02328 0.30364 0.0
C259 C 0.31041 0.02529 0.18989 0.0
C260 C 0.28938 0.02529 0.16815 0.0
C261 C 0.31482 0.02428 0.25776 0.0
C262 C 0.2769 0.02333 0.28178 0.0
C263 C 0.25075 0.02434 0.19133 0.0
O264 O 0.25005 1.00493 0.99778 0.0
O265 O 0.25214 0.03982 0.99678 0.0
O266 O 0.24514 0.04169 0.15939 0.0
O267 O 0.24484 1.00662 0.16195 0.0
H268 H 0.29343 0.04887 0.99911 0.0
H269 H 0.33064 0.04525 0.96064 0.0
H270 H 0.31339 0.98758 0.85688 0.0
H271 H 0.27689 0.99092 0.89662 0.0
H272 H 0.12628 1.01059 0.18082 0.0
H273 H 0.15114 1.00745 0.08679 0.0
H274 H 0.17345 0.04723 0.2871 0.0
H275 H 0.19806 0.04401 0.19385 0.0
H276 H 0.30112 0.02252 0.35622 0.0
H277 H 0.3232 0.02565 0.15369 0.0
H278 H 0.28613 0.02592 0.11562 0.0
H279 H 0.26397 0.02255 0.31745 0.0
C280 C 0.51504 0.27903 0.94587 0.0
C281 C 0.51219 0.29727 0.98566 0.0
C282 C 0.51886 0.32092 0.89059 0.0
C283 C 0.51423 0.31797 0.95845 0.0
C284 C 0.52085 0.30243 0.85117 0.0
C285 C 0.51921 0.28197 0.87843 0.0
U286 U 0.51552 0.23162 0.07585 0.0
O287 O 0.49511 0.20303 0.07553 0.0
O288 O 0.52977 0.19963 0.06299 0.0
C289 C 0.51152 0.18988 0.07446 0.0
C290 C 0.51338 0.25664 0.97079 0.0
C291 C 0.51192 0.17331 0.12699 0.0
C292 C 0.51907 0.13663 0.16048 0.0
C293 C 0.51888 0.1526 0.11193 0.0
C294 C 0.50549 0.16185 0.2407 0.0
C295 C 0.51215 0.14087 0.22562 0.0
C296 C 0.50548 0.17787 0.19214 0.0
C297 C 0.524 0.2711 0.21285 0.0
C298 C 0.51813 0.29788 0.29667 0.0
C299 C 0.52861 0.30829 0.18559 0.0
C300 C 0.52932 0.28697 0.16706 0.0
C301 C 0.52273 0.31385 0.25025 0.0
C302 C 0.51865 0.27653 0.27784 0.0
C303 C 0.52186 0.24916 0.19119 0.0
O304 O 0.5311 0.24736 0.99071 0.0
O305 O 0.49665 0.25145 1.00685 0.0
O306 O 0.50275 0.24453 0.16853 0.0
O307 O 0.53753 0.24199 0.15382 0.0
H308 H 0.50842 0.29556 0.03755 0.0
H309 H 0.51251 0.3316 0.9909 0.0
H310 H 0.52357 0.30361 0.79849 0.0
H311 H 0.52109 0.26828 0.84621 0.0
H312 H 0.52485 0.12096 0.14676 0.0
H313 H 0.52416 0.14874 0.06233 0.0
H314 H 0.49984 0.16589 0.28972 0.0
H315 H 0.50022 0.19378 0.20539 0.0
H316 H 0.51356 0.30194 0.34681 0.0
H317 H 0.53259 0.32041 0.14946 0.0
H318 H 0.53358 0.28286 0.11674 0.0
H319 H 0.51436 0.26433 0.31336 0.0
C320 C 0.98111 0.02795 0.53789 0.0
Eu321 Eu 1.0015 0.02022 0.64577 0.0
C322 C 0.98083 0.04679 0.49617 0.0
C323 C 0.96107 0.05535 0.4773 0.0
C324 C 0.96003 0.07583 0.45119 0.0
C325 C 0.97879 0.08784 0.44342 0.0
C326 C 0.99867 0.07877 0.4594 0.0
C327 C 0.99967 0.05845 0.48626 0.0
C328 C 0.98402 1.00914 0.76502 0.0
C329 C 0.01929 0.06246 0.72786 0.0
C330 C 0.05805 1.00698 0.86414 0.0
Eu331 Eu 0.03859 1.01516 0.75518 0.0
C332 C 0.05521 0.98841 0.90618 0.0
C333 C 0.07331 0.97704 0.92667 0.0
C334 C 0.07126 0.95593 0.94692 0.0
C335 C 0.05109 0.94615 0.94691 0.0
C336 C 0.03282 0.95807 0.93116 0.0
C337 C 0.03486 0.97907 0.91071 0.0
C338 C 0.05532 0.02542 0.63403 0.0
C339 C 0.02109 0.97303 0.67254 0.0
O340 O 0.99901 1.01696 0.53911 0.0
O341 O 0.97295 0.03133 0.59659 0.0
O342 O 0.97331 1.0113 0.71086 0.0
O343 O 1.00354 1.0122 0.75194 0.0
O344 O 1.00905 0.05487 0.675 0.0
O345 O 0.03021 0.05001 0.76849 0.0
O346 O 0.04176 0.02019 0.86102 0.0
O347 O 0.06609 1.00221 0.80612 0.0
O348 O 0.06683 0.02329 0.6867 0.0
O349 O 0.03613 0.02276 0.65035 0.0
O350 O 0.03064 0.98058 0.72662 0.0
O351 O 1.01059 0.98554 0.63096 0.0
H352 H 0.94637 0.04666 0.48627 0.0
H353 H 0.94452 0.08257 0.43966 0.0
H354 H 1.01343 0.08754 0.45249 0.0
H355 H 1.01506 0.0523 0.50191 0.0
H356 H 0.08913 0.98393 0.92206 0.0
H357 H 0.08549 0.94697 0.95961 0.0
H358 H 1.01712 0.95075 0.93014 0.0
H359 H 0.02072 0.98736 0.89341 0.0
C360 C 0.50731 0.97409 0.55526 0.0
Eu361 Eu 0.51773 0.9963 0.65721 0.0
C362 C 0.4892 0.97893 0.51326 0.0
C363 C 0.48254 0.96507 0.46319 0.0
C364 C 0.46482 0.97051 0.42477 0.0
C365 C 0.45415 0.98985 0.43638 0.0
C366 C 0.46063 1.0034 0.48719 0.0
C367 C 0.4779 0.99782 0.52593 0.0
C368 C 0.52802 0.98325 0.78177 0.0
C369 C 0.4752 1.01617 0.73551 0.0
C370 C 0.531 0.05906 0.85459 0.0
Eu371 Eu 0.52215 0.03696 0.75073 0.0
C372 C 0.54922 0.0561 0.89754 0.0
C373 C 0.55188 0.06819 0.95497 0.0
C374 C 0.56963 0.06448 0.99512 0.0
C375 C 0.58466 0.04888 0.97702 0.0
C376 C 0.58182 0.03687 0.91948 0.0
C377 C 0.56417 0.04043 0.88019 0.0
C378 C 0.51224 0.05041 0.6266 0.0
C379 C 0.56458 0.01783 0.67002 0.0
O380 O 0.52253 0.98847 0.55362 0.0
O381 O 0.50183 0.96867 0.61537 0.0
O382 O 0.52555 0.97041 0.73218 0.0
O383 O 0.52584 1.00217 0.76102 0.0
O384 O 0.48328 1.00284 0.69077 0.0
O385 O 0.48692 0.03065 0.76595 0.0
O386 O 0.51742 0.04315 0.85532 0.0
O387 O 0.53614 0.06521 0.79481 0.0
O388 O 0.51401 0.06289 0.6774 0.0
O389 O 0.51435 0.03127 0.64599 0.0
O390 O 0.55654 0.031 0.71543 0.0
O391 O 0.55288 1.00315 0.64005 0.0
H392 H 0.49095 0.95024 0.45405 0.0
H393 H 0.45957 0.95987 0.38586 0.0
H394 H 0.45225 0.01822 0.49703 0.0
H395 H 0.4826 1.00843 0.56547 0.0
H396 H 0.54031 0.0803 0.96867 0.0
H397 H 0.57172 0.0738 0.03974 0.0
H398 H 0.59307 0.02447 0.90551 0.0
H399 H 0.56206 0.03075 0.83656 0.0
C400 C 0.56237 0.50673 0.54946 0.0
Eu401 Eu 0.54079 0.51461 0.65537 0.0
C402 C 0.55769 0.49163 0.49652 0.0
C403 C 0.57325 0.47674 0.47759 0.0
C404 C 0.56755 0.45937 0.4385 0.0
C405 C 0.54627 0.45686 0.41786 0.0
C406 C 0.53097 0.4723 0.43426 0.0
C407 C 0.53664 0.48949 0.4736 0.0
C408 C 0.55492 0.52308 0.78073 0.0
C409 C 0.52147 0.47152 0.73092 0.0
C410 C 0.48011 0.52588 0.86682 0.0
Eu411 Eu 0.50125 0.51795 0.76 0.0
C412 C 0.47456 0.54652 0.89628 0.0
C413 C 0.46152 0.56105 0.8619 0.0
C414 C 0.46031 0.5822 0.88217 0.0
C415 C 0.47211 0.58908 0.93687 0.0
C416 C 0.48401 0.57431 0.97375 0.0
C417 C 0.48516 0.55313 0.95368 0.0
C418 C 0.48683 0.51046 0.63411 0.0
C419 C 0.51814 0.56082 0.67903 0.0
O420 O 0.54937 0.52311 0.55471 0.0
O421 O 0.56659 0.49767 0.60628 0.0
O422 O 0.56749 0.52229 0.72975 0.0
O423 O 0.53614 0.52059 0.76006 0.0
O424 O 0.5319 0.47981 0.67928 0.0
O425 O 0.50997 0.48333 0.77198 0.0
O426 O 0.50059 0.52135 0.86678 0.0
O427 O 0.4708 0.52133 0.81067 0.0
O428 O 0.4744 0.51184 0.68538 0.0
O429 O 0.50587 0.51215 0.65401 0.0
O430 O 0.50727 0.55288 0.73037 0.0
O431 O 0.53066 0.54897 0.64075 0.0
H432 H 0.58947 0.47793 0.49597 0.0
H433 H 0.57958 0.44755 0.42613 0.0
H434 H 0.51438 0.47046 0.41984 0.0
H435 H 0.52428 0.50041 0.48902 0.0
H436 H 0.45322 0.55647 0.81719 0.0
H437 H 0.45115 0.59339 0.85283 0.0
H438 H 0.49302 0.57931 0.01672 0.0
H439 H 0.49534 0.54222 0.98077 0.0
C440 C 0.03284 0.55844 0.54808 0.0
Eu441 Eu 0.02399 0.53719 0.65406 0.0
C442 C 0.05291 0.56123 0.51134 0.0
C443 C 0.0665 0.57835 0.52698 0.0
C444 C 0.08734 0.57877 0.50294 0.0
C445 C 0.09475 0.56215 0.46271 0.0
C446 C 0.08075 0.5459 0.44302 0.0
C447 C 0.05989 0.54552 0.46677 0.0
C448 C 1.01194 0.55266 0.77484 0.0
C449 C 0.06541 0.5194 0.73984 0.0
C450 C 1.00876 0.47886 0.86751 0.0
Eu451 Eu 1.01795 0.49869 0.75946 0.0
C452 C 0.9884 0.47689 0.90301 0.0
C453 C 0.97774 0.45723 0.90214 0.0
C454 C 0.95653 0.45591 0.92236 0.0
C455 C 0.94573 0.47416 0.94508 0.0
C456 C 0.95687 0.49356 0.95004 0.0
C457 C 0.97799 0.49496 0.92867 0.0
C458 C 0.0281 0.48298 0.63695 0.0
C459 C 0.97674 0.51615 0.67287 0.0
O460 O 0.02427 0.53935 0.5468 0.0
O461 O 0.03263 0.56695 0.60715 0.0
O462 O 1.01421 0.5644 0.72269 0.0
O463 O 1.01515 0.53352 0.75825 0.0
O464 O 0.05817 0.53181 0.69128 0.0
O465 O 0.05314 0.50594 0.77323 0.0
O466 O 1.01772 0.49778 0.8669 0.0
O467 O 1.00905 0.46953 0.80961 0.0
O468 O 0.02485 0.47117 0.68863 0.0
O469 O 0.02656 0.50224 0.65504 0.0
O470 O 0.98365 0.5047 0.72402 0.0
O471 O 0.98932 0.52863 0.63711 0.0
H472 H 0.06143 0.59084 0.56058 0.0
H473 H 0.09795 0.59147 0.51845 0.0
H474 H 0.08613 0.53318 0.41068 0.0
H475 H 0.0496 0.53244 0.45247 0.0
H476 H 0.98543 0.44313 0.88208 0.0
H477 H 0.94833 0.4408 0.91709 0.0
H478 H 0.94911 0.50779 0.96877 0.0
H479 H 0.98579 0.51038 0.92976 0.0
H480 H 0.12053 1.0003 0.3025 0.0
H481 H 0.13984 0.06676 0.30624 0.0
H482 H 0.11544 0.07332 0.39979 0.0
H483 H 0.06399 1.00938 0.34799 0.0
H484 H 0.06253 0.98593 0.3993 0.0
H485 H 0.08042 0.98649 0.32932 0.0
H486 H 0.11226 0.97717 0.40563 0.0
H487 H 0.09445 0.97648 0.47561 0.0
H488 H 0.11757 0.99364 0.47678 0.0
H489 H 0.09058 0.07272 0.49613 0.0
H490 H 0.06831 0.06426 0.59381 0.0
H491 H 0.06443 0.99839 0.53064 0.0
C492 C 0.11937 1.01629 0.32245 0.0
C493 C 0.13221 0.03302 0.29676 0.0
C494 C 0.13043 0.05362 0.32521 0.0
C495 C 0.11645 0.05757 0.37814 0.0
C496 C 0.10417 0.04079 0.40253 0.0
C497 C 0.1055 0.02051 0.37597 0.0
C498 C 0.09133 1.00512 0.41436 0.0
C499 C 0.07351 0.9962 0.37009 0.0
C500 C 0.10471 0.98704 0.44492 0.0
C501 C 0.0822 0.01986 0.46724 0.0
C502 C 0.08964 0.04044 0.45869 0.0
C503 C 0.08437 0.05676 0.50273 0.0
C504 C 0.0716 0.05188 0.5578 0.0
C505 C 0.06411 0.03092 0.5684 0.0
C506 C 0.0693 1.01473 0.52216 0.0
H507 H 0.5191 0.14403 0.36087 0.0
H508 H 0.50378 0.0979 0.20796 0.0
H509 H 0.50328 0.06932 0.29151 0.0
H510 H 0.55249 0.10947 0.45914 0.0
H511 H 0.54297 0.12008 0.53658 0.0
H512 H 0.54331 0.13669 0.46401 0.0
H513 H 0.50283 0.14437 0.4787 0.0
H514 H 0.50239 0.12785 0.5514 0.0
H515 H 0.48435 0.12237 0.48414 0.0
H516 H 0.50566 0.04496 0.39465 0.0
H517 H 0.50776 0.02884 0.50656 0.0
H518 H 0.51704 0.09168 0.59057 0.0
C519 C 0.51543 0.12801 0.34456 0.0
C520 C 0.51168 0.12346 0.27693 0.0
C521 C 0.50726 0.10199 0.25875 0.0
C522 C 0.50678 0.08555 0.30613 0.0
C523 C 0.51057 0.09065 0.37212 0.0
C524 C 0.51463 0.11144 0.39126 0.0
C525 C 0.51761 0.11293 0.46538 0.0
C526 C 0.54045 0.12022 0.48225 0.0
C527 C 0.50078 0.12775 0.49673 0.0
C528 C 0.51407 0.08988 0.48519 0.0
C529 C 0.51049 0.07708 0.43086 0.0
C530 C 0.50798 0.05499 0.43757 0.0
C531 C 0.50891 0.04591 0.50143 0.0
C532 C 0.51155 0.05896 0.55785 0.0
C533 C 0.51436 0.0812 0.54884 0.0
H534 H 0.39768 0.49129 0.35778 0.0
H535 H 0.4345 0.53256 0.22824 0.0
H536 H 0.46264 0.53516 0.3128 0.0
H537 H 0.4096 0.51952 0.50734 0.0
H538 H 0.41103 0.4958 0.55745 0.0
H539 H 0.3943 0.49624 0.48518 0.0
H540 H 0.41393 0.46285 0.4399 0.0
H541 H 0.43083 0.46241 0.5119 0.0
H542 H 0.44262 0.46337 0.4306 0.0
H543 H 0.48678 0.5343 0.41457 0.0
H544 H 0.50334 0.53109 0.52556 0.0
H545 H 0.45072 0.49118 0.58905 0.0
C546 C 0.41157 0.50098 0.347 0.0
C547 C 0.41375 0.51148 0.28523 0.0
C548 C 0.43245 0.52386 0.27397 0.0
C549 C 0.44857 0.52557 0.32209 0.0
C550 C 0.44594 0.51492 0.38198 0.0
C551 C 0.42783 0.50295 0.39469 0.0
C552 C 0.42859 0.49361 0.46387 0.0
C553 C 0.40976 0.50179 0.50593 0.0
C554 C 0.42902 0.4691 0.46139 0.0
C555 C 0.44977 0.50242 0.48836 0.0
C556 C 0.45969 0.51451 0.44023 0.0
C557 C 0.47923 0.52464 0.45223 0.0
C558 C 0.48868 0.52255 0.51515 0.0
C559 C 0.47871 0.51032 0.56513 0.0
C560 C 0.45898 0.50022 0.55124 0.0
H561 H 1.01821 0.39011 0.3671 0.0
H562 H 0.0475 0.4329 0.2247 0.0
H563 H 0.04855 0.46126 0.30892 0.0
H564 H 0.9859 0.42972 0.45052 0.0
H565 H 0.98981 0.41829 0.53128 0.0
H566 H 0.99062 0.40149 0.45908 0.0
H567 H 0.02831 0.38807 0.49211 0.0
H568 H 0.02756 0.40475 0.56452 0.0
H569 H 0.04935 0.40715 0.50653 0.0
H570 H 0.04682 0.48553 0.41141 0.0
H571 H 0.04348 0.50202 0.52291 0.0
H572 H 1.01655 0.44319 0.59764 0.0
C573 C 0.02502 0.40535 0.35344 0.0
C574 C 0.03258 0.40908 0.28827 0.0
C575 C 0.04112 0.42953 0.27332 0.0
C576 C 0.04193 0.44582 0.32118 0.0
C577 C 0.03427 0.44161 0.38456 0.0
C578 C 0.02605 0.42181 0.40079 0.0
C579 C 0.01917 0.42124 0.47275 0.0
C580 C 0.99494 0.41746 0.47873 0.0
C581 C 0.03186 0.4043 0.51123 0.0
C582 C 0.02509 0.44366 0.49464 0.0
C583 C 0.03358 0.45531 0.44307 0.0
C584 C 0.04012 0.47649 0.452 0.0
C585 C 0.03806 0.48585 0.51526 0.0
C586 C 0.02967 0.47404 0.56881 0.0
C587 C 0.0231 0.45269 0.55779 0.0
H588 H 0.93073 0.02797 0.12219 0.0
H589 H 0.88287 0.9825 0.05707 0.0
H590 H 0.90432 0.97477 0.95801 0.0
H591 H 0.94221 0.04938 0.96307 0.0
H592 H 0.97059 0.05236 0.9758 0.0
H593 H 0.95258 0.05327 0.04527 0.0
H594 H 0.97381 0.02281 0.10133 0.0
H595 H 0.99181 0.02171 0.03162 0.0
H596 H 0.97784 0.99804 0.05777 0.0
H597 H 0.92922 0.9725 0.86507 0.0
H598 H 0.95487 0.97849 0.77501 0.0
H599 H 0.98765 0.02601 0.89299 0.0
C600 C 0.92497 1.0162 0.08739 0.0
C601 C 0.905 1.00584 0.09767 0.0
C602 C 0.89791 0.99079 0.05033 0.0
C603 C 0.91011 0.98613 0.99405 0.0
C604 C 0.92954 0.99658 0.98519 0.0
C605 C 0.93698 1.01143 0.02995 0.0
C606 C 0.95789 0.02122 1.00518 0.0
C607 C 0.95567 0.0455 0.99681 0.0
C608 C 0.97644 1.01562 0.05177 0.0
C609 C 0.96055 1.00999 0.93869 0.0
C610 C 0.94415 0.9955 0.92956 0.0
C611 C 0.94228 0.9836 0.87191 0.0
C612 C 0.95705 0.98702 0.8211 0.0
C613 C 0.97355 1.00231 0.82735 0.0
C614 C 0.97566 1.01368 0.88768 0.0
H615 H 0.50334 0.8984 0.06583 0.0
H616 H 0.55801 0.92378 0.17187 0.0
H617 H 0.5618 0.95203 0.08827 0.0
H618 H 0.52447 0.90589 0.90452 0.0
H619 H 0.49928 0.91333 0.86791 0.0
H620 H 0.49973 0.89616 0.9391 0.0
H621 H 0.47466 0.92234 1.00112 0.0
H622 H 0.4743 0.93969 0.93016 0.0
H623 H 0.48232 0.94991 1.00955 0.0
H624 H 0.5604 0.97757 0.98979 0.0
H625 H 0.5556 0.99531 0.88114 0.0
H626 H 0.50334 0.95247 0.83687 0.0
C627 C 0.51616 0.90983 0.07167 0.0
C628 C 0.53017 0.90878 0.12673 0.0
C629 C 0.54663 0.92433 0.13169 0.0
C630 C 0.54902 0.94049 0.08402 0.0
C631 C 0.5349 0.9411 0.03087 0.0
C632 C 0.51885 0.92608 0.02424 0.0
C633 C 0.50636 0.92975 0.96092 0.0
C634 C 0.50755 0.91012 0.91543 0.0
C635 C 0.48303 0.93578 0.97638 0.0
C636 C 0.5184 0.94862 0.9319 0.0
C637 C 0.53448 0.95532 0.97368 0.0
C638 C 0.54774 0.9725 0.957 0.0
C639 C 0.54479 0.9827 0.89552 0.0
C640 C 0.52893 0.97554 0.85114 0.0
C641 C 0.51549 0.95842 0.87018 0.0
H642 H 0.6408 0.54683 0.0626 0.0
H643 H 0.61707 0.49035 0.16296 0.0
H644 H 0.58839 0.48713 0.08052 0.0
H645 H 0.58879 0.56741 1.01101 0.0
H646 H 0.59845 0.57651 0.93198 0.0
H647 H 0.61627 0.5756 1.00185 0.0
H648 H 0.64256 0.55169 0.93572 0.0
H649 H 0.62496 0.55277 0.86559 0.0
H650 H 0.63294 0.52733 0.89894 0.0
H651 H 0.56163 0.49002 0.98595 0.0
H652 H 0.54283 0.49596 0.87962 0.0
H653 H 0.58582 0.54816 0.83534 0.0
C654 C 0.6297 0.53368 0.06736 0.0
C655 C 0.63124 0.51909 0.12081 0.0
C656 C 0.6161 0.50222 0.12428 0.0
C657 C 0.5997 0.50015 0.07725 0.0
C658 C 0.5985 0.51495 0.02607 0.0
C659 C 0.61329 0.53123 0.02032 0.0
C660 C 0.60909 0.54437 0.95861 0.0
C661 C 0.60278 0.56734 0.97698 0.0
C662 C 0.62854 0.544 0.91195 0.0
C663 C 0.59018 0.53248 0.92939 0.0
C664 C 0.58385 0.51596 0.97009 0.0
C665 C 0.56647 0.50296 0.95386 0.0
C666 C 0.55571 0.50656 0.89374 0.0
C667 C 0.56268 0.52269 0.84988 0.0
C668 C 0.58 0.53589 0.86846 0.0
H669 H 0.03571 0.61126 0.11847 0.0
H670 H 0.9779 0.64752 0.07947 0.0
H671 H 0.97002 0.62431 0.98463 0.0
H672 H 0.05051 0.60364 0.95008 0.0
H673 H 0.06041 0.57683 0.96035 0.0
H674 H 0.0609 0.59516 0.02884 0.0
H675 H 0.03924 0.56833 0.09937 0.0
H676 H 0.03857 0.54997 0.03075 0.0
H677 H 1.01398 0.55855 0.06912 0.0
H678 H 0.96883 0.59896 0.8913 0.0
H679 H 0.97604 0.57455 0.7984 0.0
H680 H 0.03455 0.5537 0.89275 0.0
C681 C 0.02124 0.61409 0.09047 0.0
C682 C 1.00743 0.63136 0.10679 0.0
C683 C 0.98887 0.63465 0.06797 0.0
C684 C 0.98413 0.62139 1.01418 0.0
C685 C 0.99801 0.60467 0.99923 0.0
C686 C 1.01629 0.60097 0.03575 0.0
C687 C 0.02907 0.58259 1.00579 0.0
C688 C 0.05155 0.59001 0.98501 0.0
C689 C 0.03029 0.56374 0.05416 0.0
C690 C 1.01537 0.57698 0.94596 0.0
C691 C 0.99734 0.58977 0.94427 0.0
C692 C 0.98267 0.5886 0.89269 0.0
C693 C 0.98678 0.57452 0.84035 0.0
C694 C 1.00535 0.56164 0.83949 0.0
C695 C 0.01971 0.56262 0.89364 0.0
H696 H 0.02862 0.2007 0.38321 0.0
H697 H 0.98682 0.20569 0.21293 0.0
H698 H 0.96729 0.1737 0.24954 0.0
H699 H 0.03468 0.14675 0.38025 0.0
H700 H 0.03453 0.14282 0.46847 0.0
H701 H 0.04304 0.16791 0.43477 0.0
H702 H 1.01464 0.18759 0.50585 0.0
H703 H 1.00605 0.16245 0.53993 0.0
H704 H 0.98695 0.17981 0.50049 0.0
H705 H 0.95602 0.13922 0.29404 0.0
H706 H 0.9542 0.10331 0.343 0.0
H707 H 1.00154 0.12179 0.48892 0.0
C708 C 1.01504 0.19529 0.3546 0.0
C709 C 1.00926 0.20539 0.29522 0.0
C710 C 0.99169 0.1978 0.25808 0.0
C711 C 0.9803 0.17992 0.27896 0.0
C712 C 0.98654 0.17014 0.33742 0.0
C713 C 1.00343 0.17757 0.37498 0.0
C714 C 1.00829 0.16287 0.43199 0.0
C715 C 0.0315 0.1546 0.42858 0.0
C716 C 1.0037 0.17384 0.4985 0.0
C717 C 0.9923 0.14543 0.41812 0.0
C718 C 0.97962 0.15014 0.36424 0.0
C719 C 0.96538 0.13548 0.33742 0.0
C720 C 0.96445 0.11517 0.36549 0.0
C721 C 0.97776 0.10989 0.41944 0.0
C722 C 0.99128 0.12544 0.44736 0.0
H723 H 0.33159 0.99677 0.34733 0.0
H724 H 0.34783 0.04939 0.21731 0.0
H725 H 0.38586 0.04562 0.2479 0.0
H726 H 0.37034 1.01007 0.47651 0.0
H727 H 0.37592 0.98246 0.49427 0.0
H728 H 0.34989 0.99019 0.4647 0.0
H729 H 0.35352 0.96308 0.36859 0.0
H730 H 0.3797 0.95552 0.39712 0.0
H731 H 0.37617 0.96477 0.31353 0.0
H732 H 0.42155 0.03572 0.28944 0.0
H733 H 0.45361 0.02083 0.34441 0.0
H734 H 0.41403 0.97438 0.44533 0.0
C735 C 0.34312 1.00774 0.32638 0.0
C736 C 0.33702 0.02335 0.28013 0.0
C737 C 0.35244 0.03724 0.25253 0.0
C738 C 0.37395 0.03527 0.26968 0.0
C739 C 0.37953 0.01939 0.31436 0.0
C740 C 0.3646 1.00599 0.34287 0.0
C741 C 0.3749 0.99001 0.3886 0.0
C742 C 0.36732 0.9934 0.46026 0.0
C743 C 0.37083 0.96699 0.36552 0.0
C744 C 0.39803 0.99621 0.37989 0.0
C745 C 0.4003 1.0133 0.33729 0.0
C746 C 0.42009 0.02224 0.32251 0.0
C747 C 0.4381 1.01364 0.35316 0.0
C748 C 0.43595 0.99626 0.39687 0.0
C749 C 0.41584 0.98731 0.41023 0.0
H750 H 0.54056 0.3323 0.35808 0.0
H751 H 0.50262 0.34577 0.18375 0.0
H752 H 0.50284 0.38415 0.21154 0.0
H753 H 0.51619 0.37335 0.46541 0.0
H754 H 0.54135 0.37942 0.50444 0.0
H755 H 0.53623 0.35286 0.47433 0.0
H756 H 0.57081 0.35459 0.40366 0.0
H757 H 0.57592 0.38119 0.43288 0.0
H758 H 0.57424 0.37606 0.3454 0.0
H759 H 0.50921 0.42066 0.25345 0.0
H760 H 0.52149 0.45379 0.30771 0.0
H761 H 0.55541 0.4162 0.45396 0.0
C762 C 0.53192 0.34333 0.32673 0.0
C763 C 0.52153 0.33634 0.26909 0.0
C764 C 0.51074 0.35107 0.22802 0.0
C765 C 0.51067 0.37276 0.24357 0.0
C766 C 0.52142 0.37923 0.30023 0.0
C767 C 0.53177 0.36498 0.34136 0.0
C768 C 0.54328 0.3762 0.39681 0.0
C769 C 0.53367 0.3701 0.46423 0.0
C770 C 0.56749 0.37175 0.39447 0.0
C771 C 0.53828 0.39904 0.37914 0.0
C772 C 0.52542 0.40042 0.32386 0.0
C773 C 0.51915 0.41987 0.29708 0.0
C774 C 0.52621 0.4385 0.32791 0.0
C775 C 0.53951 0.43734 0.38418 0.0
C776 C 0.54553 0.41741 0.41022 0.0
H777 H 0.20219 0.50244 0.37559 0.0
H778 H 0.22262 0.56092 0.28074 0.0
H779 H 0.19142 0.5799 0.32786 0.0
H780 H 0.14893 0.5083 0.33924 0.0
H781 H 0.13876 0.49716 0.41514 0.0
H782 H 0.1646 0.48918 0.38481 0.0
H783 H 0.18195 0.50049 0.4957 0.0
H784 H 0.15607 0.50841 0.52667 0.0
H785 H 0.17788 0.52718 0.52647 0.0
H786 H 0.1567 0.59122 0.37316 0.0
H787 H 0.11912 0.59398 0.41053 0.0
H788 H 0.1209 0.52786 0.47343 0.0
C789 C 0.20022 0.51935 0.36641 0.0
C790 C 0.21448 0.53045 0.32539 0.0
C791 C 0.21156 0.55239 0.31242 0.0
C792 C 0.19411 0.56326 0.3393 0.0
C793 C 0.17994 0.55181 0.37867 0.0
C794 C 0.18275 0.53034 0.39219 0.0
C795 C 0.16386 0.52118 0.4289 0.0
C796 C 0.15343 0.50289 0.38965 0.0
C797 C 0.17033 0.51389 0.49858 0.0
C798 C 0.14968 0.54066 0.4314 0.0
C799 C 0.15944 0.55826 0.40354 0.0
C800 C 0.14894 0.5777 0.39615 0.0
C801 C 0.12769 0.57912 0.41721 0.0
C802 C 0.11734 0.56109 0.44417 0.0
C803 C 0.12856 0.54179 0.45242 0.0
H804 H 1.00168 0.84215 0.1043 0.0
H805 H 0.04942 0.80582 0.99629 0.0
H806 H 0.06144 0.83873 0.9404 0.0
H807 H 0.98966 0.88091 0.97161 0.0
H808 H 0.98663 0.90248 0.02982 0.0
H809 H 0.97997 0.87563 0.05394 0.0
H810 H 1.00601 0.87857 0.15323 0.0
H811 H 1.01292 0.90529 0.12915 0.0
H812 H 0.0336 0.88547 0.1384 0.0
H813 H 0.07068 0.87573 0.90647 0.0
H814 H 0.0753 0.9146 0.89177 0.0
H815 H 0.02208 0.92622 0.02511 0.0
C816 C 1.0144 0.84113 0.068 0.0
C817 C 0.02462 0.82168 0.05404 0.0
C818 C 0.04125 0.8207 1.00657 0.0
C819 C 0.0482 0.83924 0.97489 0.0
C820 C 0.03816 0.85835 0.9912 0.0
C821 C 0.02148 0.85939 0.03609 0.0
C822 C 1.01437 0.882 0.0484 0.0
C823 C 0.99129 0.88545 0.02449 0.0
C824 C 1.01689 0.88818 0.12162 0.0
C825 C 0.03019 0.89359 1.00531 0.0
C826 C 0.04363 0.8797 0.97215 0.0
C827 C 0.06015 0.8868 0.93161 0.0
C828 C 0.06282 0.9088 0.92429 0.0
C829 C 0.0491 0.92318 0.95782 0.0
C830 C 0.03264 0.91546 0.9987 0.0
H831 H 0.70621 0.02323 0.04243 0.0
H832 H 0.68773 1.0039 0.24062 0.0
H833 H 0.65013 1.01244 0.21524 0.0
H834 H 0.67222 0.06638 0.02625 0.0
H835 H 0.66546 0.06167 0.94095 0.0
H836 H 0.69082 0.05276 0.97256 0.0
H837 H 0.68266 1.01409 0.93498 0.0
H838 H 0.65746 0.02297 0.90189 0.0
H839 H 0.65815 1.0015 0.96104 0.0
H840 H 0.61557 0.02578 0.17212 0.0
H841 H 0.5846 0.03875 0.10737 0.0
H842 H 0.62591 0.04796 0.9373 0.0
C843 C 0.6942 0.02017 0.07988 0.0
C844 C 0.69979 1.01306 0.14354 0.0
C845 C 0.6837 1.00966 0.19177 0.0
C846 C 0.66237 1.01438 0.17786 0.0
C847 C 0.65754 0.02211 0.11534 0.0
C848 C 0.67288 0.02454 0.06665 0.0
C849 C 0.66348 0.03327 1.00367 0.0
C850 C 0.6736 0.0548 0.98483 0.0
C851 C 0.66555 1.01698 0.94707 0.0
C852 C 0.64056 0.03592 0.02546 0.0
C853 C 0.63746 0.02945 0.08999 0.0
C854 C 0.61766 0.03077 0.12135 0.0
C855 C 0.60032 0.03835 0.08479 0.0
C856 C 0.60318 0.04431 0.01814 0.0
C857 C 0.62353 0.04344 0.98847 0.0
H858 H 0.52977 0.69448 0.05529 0.0
H859 H 0.46749 0.72494 0.05548 0.0
H860 H 0.45141 0.69247 1.00717 0.0
H861 H 0.52151 0.66473 0.89766 0.0
H862 H 0.53637 0.642 0.92699 0.0
H863 H 0.54317 0.66841 0.95516 0.0
H864 H 0.53865 0.65599 0.07661 0.0
H865 H 0.53165 0.62966 0.04891 0.0
H866 H 0.5137 0.64419 0.10238 0.0
H867 H 0.44175 0.65603 0.97114 0.0
H868 H 0.43918 0.61764 0.94425 0.0
H869 H 0.50808 0.61168 0.96315 0.0
C870 C 0.51283 0.69428 0.04402 0.0
C871 C 0.49971 0.71187 0.05843 0.0
C872 C 0.47763 0.71142 0.04378 0.0
C873 C 0.46844 0.69318 0.01647 0.0
C874 C 0.48173 0.67588 1.0034 0.0
C875 C 0.50349 0.67635 0.01577 0.0
C876 C 0.51402 0.65533 0.99958 0.0
C877 C 0.52969 0.65777 0.94138 0.0
C878 C 0.52514 0.64574 0.06052 0.0
C879 C 0.49456 0.64265 0.9799 0.0
C880 C 0.47616 0.65485 0.98147 0.0
C881 C 0.45605 0.64632 0.96855 0.0
C882 C 0.45473 0.62461 0.95355 0.0
C883 C 0.47341 0.61188 0.95227 0.0
C884 C 0.49354 0.62108 0.96479 0.0
H885 H 0.82802 0.51948 0.98385 0.0
H886 H 0.81249 0.45967 0.08086 0.0
H887 H 0.84733 0.44509 0.04838 0.0
H888 H 0.86232 0.49619 0.84752 0.0
H889 H 0.88081 0.51817 0.85271 0.0
H890 H 0.85286 0.52235 0.87051 0.0
H891 H 0.86311 0.53806 0.98465 0.0
H892 H 0.89098 0.53348 0.96773 0.0
H893 H 0.87891 0.52226 0.04079 0.0
H894 H 0.88541 0.43953 0.02739 0.0
H895 H 0.92408 0.4417 1.00583 0.0
H896 H 0.91528 0.50451 0.91906 0.0
C897 C 0.83169 0.50306 0.99605 0.0
C898 C 0.81744 0.49062 0.03391 0.0
C899 C 0.82287 0.46931 0.05015 0.0
C900 C 0.84273 0.46091 0.03246 0.0
C901 C 0.85683 0.47395 0.99815 0.0
C902 C 0.8515 0.49443 0.97892 0.0
C903 C 0.87045 0.50581 0.94864 0.0
C904 C 0.86636 0.51092 0.87548 0.0
C905 C 0.87619 0.52609 0.98782 0.0
C906 C 0.88737 0.48877 0.95647 0.0
C907 C 0.87914 0.47053 0.98489 0.0
C908 C 0.89201 0.45341 1.00304 0.0
C909 C 0.91393 0.4548 0.99065 0.0
C910 C 0.92267 0.47314 0.96009 0.0
C911 C 0.90913 0.49029 0.9427 0.0
H912 H 0.03172 0.17019 0.94615 0.0
H913 H 1.01102 0.20501 0.77226 0.0
H914 H 1.00827 0.17133 0.71055 0.0
H915 H 0.06383 0.13057 0.85768 0.0
H916 H 0.05643 0.10888 0.91146 0.0
H917 H 0.05701 0.13579 0.94278 0.0
H918 H 1.01765 0.13211 0.98099 0.0
H919 H 1.01696 0.10522 0.94961 0.0
H920 H 0.99751 0.12446 0.92197 0.0
H921 H 1.00655 0.13367 0.66696 0.0
H922 H 1.00731 0.09495 0.64452 0.0
H923 H 0.03009 0.08363 0.84396 0.0
C924 C 0.02678 0.17077 0.89496 0.0
C925 C 0.0213 0.19055 0.86484 0.0
C926 C 1.01484 0.19028 0.79755 0.0
C927 C 1.01335 0.17114 0.76164 0.0
C928 C 1.01846 0.15203 0.79293 0.0
C929 C 0.02517 0.15163 0.85799 0.0
C930 C 0.02952 0.12872 0.87955 0.0
C931 C 0.0531 0.12582 0.89901 0.0
C932 C 1.01452 0.12225 0.9364 0.0
C933 C 0.02428 0.11644 0.8165 0.0
C934 C 1.01783 0.13024 0.76729 0.0
C935 C 1.01166 0.12273 0.70516 0.0
C936 C 1.01208 0.10061 0.69285 0.0
C937 C 1.01878 0.08601 0.74209 0.0
C938 C 0.02501 0.09423 0.80479 0.0
H939 H 0.35613 0.04636 0.86713 0.0
H940 H 0.34714 0.97819 0.89401 0.0
H941 H 0.38313 0.9716 0.85021 0.0
H942 H 0.38749 0.04271 0.7159 0.0
H943 H 0.40545 0.0641 0.73706 0.0
H944 H 0.3785 0.06404 0.76894 0.0
H945 H 0.39308 0.06659 0.8882 0.0
H946 H 0.42005 0.06674 0.85661 0.0
H947 H 0.41213 0.04707 0.91679 0.0
H948 H 0.41925 0.97152 0.79883 0.0
H949 H 0.45534 0.97838 0.75438 0.0
H950 H 0.44406 0.04652 0.76839 0.0
C951 C 0.36177 0.03006 0.86439 0.0
C952 C 0.34823 1.01278 0.88311 0.0
C953 C 0.35657 0.99175 0.87836 0.0
C954 C 0.37719 0.98779 0.85381 0.0
C955 C 0.38981 1.00497 0.83458 0.0
C956 C 0.38265 0.02574 0.84031 0.0
C957 C 0.39999 0.04119 0.81694 0.0
C958 C 0.3924 0.05375 0.75611 0.0
C959 C 0.40671 0.05629 0.873 0.0
C960 C 0.418 0.02579 0.79851 0.0
C961 C 0.41146 1.00497 0.80788 0.0
C962 C 0.42462 0.98776 0.79173 0.0
C963 C 0.44508 0.99181 0.766 0.0
C964 C 0.45261 1.01292 0.75769 0.0
C965 C 0.43882 0.03018 0.77444 0.0
H966 H 0.49999 0.36037 0.9238 0.0
H967 H 0.54589 0.33177 0.78837 0.0
H968 H 0.55006 0.36609 0.73222 0.0
H969 H 0.47527 0.39644 0.80861 0.0
H970 H 0.47306 0.4183 0.8661 0.0
H971 H 0.47291 0.39123 0.89593 0.0
H972 H 0.50477 0.39977 0.97296 0.0
H973 H 0.50492 0.42689 0.94353 0.0
H974 H 0.52888 0.41095 0.93847 0.0
H975 H 0.54918 0.40332 0.68757 0.0
H976 H 0.54508 0.44163 0.66327 0.0
H977 H 0.5016 0.44782 0.82995 0.0
C978 C 0.51107 0.36127 0.88275 0.0
C979 C 0.52213 0.34276 0.86009 0.0
C980 C 0.53648 0.34512 0.80593 0.0
C981 C 0.53919 0.36476 0.77371 0.0
C982 C 0.52781 0.3824 0.79633 0.0
C983 C 0.51424 0.38101 0.85015 0.0
C984 C 0.50446 0.40279 0.86512 0.0
C985 C 0.47997 0.40214 0.85853 0.0
C986 C 0.51116 0.41056 0.93411 0.0
C987 C 0.51453 0.41644 0.81094 0.0
C988 C 0.52787 0.40425 0.77174 0.0
C989 C 0.53884 0.41306 0.71819 0.0
C990 C 0.53636 0.43493 0.7046 0.0
C991 C 0.52305 0.44801 0.74437 0.0
C992 C 0.51193 0.43843 0.79825 0.0
H993 H 0.18606 0.48996 0.85055 0.0
H994 H 0.18877 0.55345 0.93661 0.0
H995 H 0.15236 0.56055 0.89728 0.0
H996 H 0.15583 0.50684 0.7027 0.0
H997 H 0.14053 0.48255 0.69881 0.0
H998 H 0.16719 0.48224 0.73255 0.0
H999 H 0.15259 0.46555 0.84055 0.0
H1000 H 0.12591 0.4659 0.80721 0.0
H1001 H 0.13137 0.47884 0.88495 0.0
H1002 H 0.11569 0.56156 0.84765 0.0
H1003 H 0.08046 0.55538 0.79574 0.0
H1004 H 0.0999 0.49123 0.74285 0.0
C1005 C 0.17915 0.50544 0.86084 0.0
C1006 C 0.19061 0.52097 0.89813 0.0
C1007 C 0.18052 0.54093 0.91017 0.0
C1008 C 0.15977 0.54528 0.8872 0.0
C1009 C 0.14902 0.52968 0.85127 0.0
C1010 C 0.15831 0.51015 0.83789 0.0
C1011 C 0.14299 0.49622 0.79813 0.0
C1012 C 0.15219 0.49169 0.72897 0.0
C1013 C 0.13791 0.4754 0.83495 0.0
C1014 C 0.12341 0.51069 0.7937 0.0
C1015 C 0.12753 0.53011 0.8234 0.0
C1016 C 0.11232 0.54643 0.82418 0.0
C1017 C 0.09239 0.54284 0.79424 0.0
C1018 C 0.08751 0.52298 0.76478 0.0
C1019 C 0.10324 0.50663 0.76479 0.0
H1020 H 1.01402 0.86475 0.45355 0.0
H1021 H 0.02685 0.83018 0.63489 0.0
H1022 H 0.02909 0.86412 0.69569 0.0
H1023 H 0.04933 0.90999 0.48852 0.0
H1024 H 0.03155 0.92952 0.45318 0.0
H1025 H 0.0315 0.90251 0.42259 0.0
H1026 H 0.99086 0.89992 0.44571 0.0
H1027 H 0.99082 0.92688 0.47651 0.0
H1028 H 0.98087 0.90552 0.52755 0.0
H1029 H 0.03047 0.90183 0.73825 0.0
H1030 H 0.02947 0.9406 0.75964 0.0
H1031 H 1.01447 0.95185 0.55325 0.0
C1032 C 1.01748 0.86435 0.50592 0.0
C1033 C 0.02012 0.84452 0.53918 0.0
C1034 C 0.02444 0.84492 0.60804 0.0
C1035 C 0.02587 0.86421 0.64317 0.0
C1036 C 0.02293 0.88334 0.60937 0.0
C1037 C 1.01877 0.88364 0.54229 0.0
C1038 C 1.01581 0.90657 0.5187 0.0
C1039 C 0.03308 0.91249 0.46772 0.0
C1040 C 0.99325 0.90991 0.49045 0.0
C1041 C 1.01884 0.91898 0.58297 0.0
C1042 C 0.02316 0.9052 0.63445 0.0
C1043 C 0.02703 0.91275 0.69826 0.0
C1044 C 0.02648 0.93489 0.70998 0.0
C1045 C 0.02183 0.94949 0.6585 0.0
C1046 C 1.01791 0.94124 0.59405 0.0
H1047 H 0.68164 0.98879 0.51963 0.0
H1048 H 0.69448 0.05684 0.52529 0.0
H1049 H 0.65881 0.06316 0.57256 0.0
H1050 H 0.62599 0.99249 0.47539 0.0
H1051 H 0.61736 0.97081 0.52747 0.0
H1052 H 0.64423 0.97114 0.49509 0.0
H1053 H 0.6593 0.96809 0.61368 0.0
H1054 H 0.63245 0.96774 0.64637 0.0
H1055 H 0.65132 0.98732 0.67526 0.0
H1056 H 0.62226 0.06264 0.62262 0.0
H1057 H 0.58596 0.05544 0.6647 0.0
H1058 H 0.59456 0.98801 0.624 0.0
C1059 C 0.67701 1.00502 0.53103 0.0
C1060 C 0.69114 0.02232 0.51754 0.0
C1061 C 0.68411 0.04327 0.53332 0.0
C1062 C 0.66382 0.04706 0.56097 0.0
C1063 C 0.65038 0.02979 0.57321 0.0
C1064 C 0.65656 1.00916 0.5586 0.0
C1065 C 0.63863 0.9936 0.57623 0.0
C1066 C 0.63111 0.98129 0.51487 0.0
C1067 C 0.64586 0.97828 0.63113 0.0
C1068 C 0.62134 1.00881 0.60152 0.0
C1069 C 0.62876 0.02956 0.60047 0.0
C1070 C 0.61627 0.04646 0.62343 0.0
C1071 C 0.59564 0.04218 0.64768 0.0
C1072 C 0.58725 0.0212 0.64795 0.0
C1073 C 0.60039 1.00427 0.62426 0.0
H1074 H 0.52179 0.66753 0.45397 0.0
H1075 H 0.51605 0.70353 0.6363 0.0
H1076 H 0.51376 0.67 0.69935 0.0
H1077 H 0.48551 0.62403 0.50214 0.0
H1078 H 0.5013 0.60363 0.4624 0.0
H1079 H 0.50144 0.63048 0.43055 0.0
H1080 H 0.54269 0.63151 0.4406 0.0
H1081 H 0.54265 0.60471 0.47258 0.0
H1082 H 0.555 0.62588 0.51916 0.0
H1083 H 0.51146 0.6324 0.74397 0.0
H1084 H 0.51194 0.59363 0.76665 0.0
H1085 H 0.52137 0.58115 0.55776 0.0
C1086 C 0.51983 0.66834 0.50706 0.0
C1087 C 0.51916 0.6884 0.53988 0.0
C1088 C 0.51683 0.68856 0.6097 0.0
C1089 C 0.51539 0.66952 0.64613 0.0
C1090 C 0.51635 0.65011 0.61261 0.0
C1091 C 0.51861 0.64932 0.54464 0.0
C1092 C 0.51994 0.62621 0.52141 0.0
C1093 C 0.50092 0.62077 0.47645 0.0
C1094 C 0.54135 0.62182 0.48638 0.0
C1095 C 0.51843 0.61425 0.5869 0.0
C1096 C 0.51595 0.62838 0.63873 0.0
C1097 C 0.5135 0.62121 0.70369 0.0
C1098 C 0.51372 0.5991 0.71618 0.0
C1099 C 0.51681 0.58423 0.66432 0.0
C1100 C 0.51919 0.59206 0.59874 0.0
H1101 H 0.85321 0.54242 0.58989 0.0
H1102 H 0.85448 0.48651 0.46307 0.0
H1103 H 0.89174 0.4796 0.49574 0.0
H1104 H 0.90685 0.55958 0.55924 0.0
H1105 H 0.91207 0.56784 0.643 0.0
H1106 H 0.88515 0.56834 0.6115 0.0
H1107 H 0.87265 0.54429 0.7081 0.0
H1108 H 0.89954 0.54373 0.74003 0.0
H1109 H 0.88585 0.51913 0.72203 0.0
H1110 H 0.92899 0.47836 0.54151 0.0
H1111 H 0.9642 0.48387 0.59439 0.0
H1112 H 0.94008 0.54068 0.69126 0.0
C1113 C 0.86123 0.52861 0.5693 0.0
C1114 C 0.85066 0.51515 0.52306 0.0
C1115 C 0.86207 0.49739 0.49728 0.0
C1116 C 0.88329 0.49318 0.51609 0.0
C1117 C 0.89317 0.50677 0.5612 0.0
C1118 C 0.88257 0.52415 0.58757 0.0
C1119 C 0.89718 0.53636 0.63449 0.0
C1120 C 0.90051 0.5594 0.6106 0.0
C1121 C 0.88827 0.53585 0.70536 0.0
C1122 C 0.91773 0.52337 0.62923 0.0
C1123 C 0.91487 0.50618 0.58731 0.0
C1124 C 0.93135 0.4917 0.57462 0.0
C1125 C 0.95127 0.49488 0.6051 0.0
C1126 C 0.95475 0.51244 0.64756 0.0
C1127 C 0.93775 0.52694 0.65965 0.0
loop_
_geom_bond_atom_site_label_1
_geom_bond_atom_site_label_2
_geom_bond_distance
_geom_bond_site_symmetry_2
_ccdc_geom_bond_type
C0 C1 1.264 . S
C0 C5 1.479 . S
C0 C10 1.465 . S
C1 C0 1.264 . S
C1 C3 1.339 . S
C1 H28 0.931 . S
C2 C3 1.395 . S
C2 C4 1.320 . S
C3 C1 1.339 . S
C3 C2 1.395 . S
C3 H29 0.929 . S
C4 C2 1.320 . S
C4 C5 1.405 . S
C4 H30 0.930 . S
C5 C0 1.479 . S
C5 C4 1.405 . S
C5 H31 0.931 . S
U6 O7 2.454 . S
U6 O8 2.458 . S
U6 C9 2.984 . S
U6 C10 2.847 . S
U6 C23 2.882 . S
U6 O24 2.441 . S
U6 O25 2.420 . S
U6 O26 2.455 . S
U6 O27 2.449 . S
O7 U6 2.454 . S
O7 C9 1.353 . S
O8 U6 2.458 . S
O8 C9 1.286 . S
C9 U6 2.984 . S
C9 O7 1.353 . S
C9 O8 1.286 . S
C9 C11 1.363 . S
C10 C0 1.465 . S
C10 U6 2.847 . S
C10 O24 1.249 . S
C10 O25 1.202 . S
C11 C9 1.363 . S
C11 C13 1.408 . S
C11 C16 1.342 . S
C12 C13 1.310 . S
C12 C15 1.461 . S
C12 H32 0.932 . S
C13 C11 1.408 . S
C13 C12 1.310 . S
C13 H33 0.930 . S
C14 C15 1.474 . S
C14 C16 1.285 . S
C14 H34 0.929 . S
C15 C12 1.461 . S
C15 C14 1.474 . S
C16 C11 1.342 . S
C16 C14 1.285 . S
C16 H35 0.930 . S
C17 C20 1.424 . S
C17 C22 1.245 . S
C17 C23 1.428 . S
C18 C21 1.260 . S
C18 C22 1.477 . S
C18 H36 0.932 . S
C19 C20 1.384 . S
C19 C21 1.479 . S
C19 H37 0.929 . S
C20 C17 1.424 . S
C20 C19 1.384 . S
C20 H38 0.928 . S
C21 C18 1.260 . S
C21 C19 1.479 . S
C22 C17 1.245 . S
C22 C18 1.477 . S
C22 H39 0.932 . S
C23 U6 2.882 . S
C23 C17 1.428 . S
C23 O26 1.301 . S
C23 O27 1.282 . S
O24 U6 2.441 . S
O24 C10 1.249 . S
O25 U6 2.420 . S
O25 C10 1.202 . S
O26 U6 2.455 . S
O26 C23 1.301 . S
O27 U6 2.449 . S
O27 C23 1.282 . S
H28 C1 0.931 . S
H29 C3 0.929 . S
H30 C4 0.930 . S
H31 C5 0.931 . S
H32 C12 0.932 . S
H33 C13 0.930 . S
H34 C14 0.929 . S
H35 C16 0.930 . S
H36 C18 0.932 . S
H37 C19 0.929 . S
H38 C20 0.928 . S
H39 C22 0.932 . S
C40 C41 1.264 . S
C40 C45 1.479 . S
C40 C50 1.465 . S
C41 C40 1.264 . S
C41 C43 1.339 . S
C41 H68 0.931 . S
C42 C43 1.395 . S
C42 C44 1.320 . S
C43 C41 1.339 . S
C43 C42 1.395 . S
C43 H69 0.929 . S
C44 C42 1.320 . S
C44 C45 1.405 . S
C44 H70 0.921 1_455 S
C45 C40 1.479 . S
C45 C44 1.405 . S
C45 H71 0.931 . S
U46 O47 2.454 . S
U46 O48 2.458 . S
U46 C49 2.984 . S
U46 C50 2.847 . S
U46 C63 2.882 . S
U46 O64 2.441 . S
U46 O65 2.420 . S
U46 O66 2.455 . S
U46 O67 2.449 . S
O47 U46 2.454 . S
O47 C49 1.353 . S
O48 U46 2.458 . S
O48 C49 1.286 . S
C49 U46 2.984 . S
C49 O47 1.353 . S
C49 O48 1.286 . S
C49 C51 1.363 . S
C50 C40 1.465 . S
C50 U46 2.847 . S
C50 O64 1.249 . S
C50 O65 1.202 . S
C51 C49 1.363 . S
C51 C53 1.408 . S
C51 C56 1.342 . S
C52 C53 1.310 . S
C52 C55 1.461 . S
C52 H72 0.932 . S
C53 C51 1.408 . S
C53 C52 1.310 . S
C53 H73 0.930 . S
C54 C55 1.474 1_655 S
C54 C56 1.285 1_655 S
C54 H74 0.930 . S
C55 C52 1.461 . S
C55 C54 1.474 1_455 S
C56 C51 1.342 . S
C56 C54 1.285 1_455 S
C56 H75 0.932 . S
C57 C60 1.424 . S
C57 C62 1.245 . S
C57 C63 1.428 . S
C58 C61 1.260 . S
C58 C62 1.477 . S
C58 H76 0.932 . S
C59 C60 1.384 . S
C59 C61 1.479 . S
C59 H77 0.929 . S
C60 C57 1.424 . S
C60 C59 1.384 . S
C60 H78 0.928 . S
C61 C58 1.260 . S
C61 C59 1.479 . S
C62 C57 1.245 . S
C62 C58 1.477 . S
C62 H79 0.932 . S
C63 U46 2.882 . S
C63 C57 1.428 . S
C63 O66 1.301 . S
C63 O67 1.282 . S
O64 U46 2.441 . S
O64 C50 1.249 . S
O65 U46 2.420 . S
O65 C50 1.202 . S
O66 U46 2.455 . S
O66 C63 1.301 . S
O67 U46 2.449 . S
O67 C63 1.282 . S
H68 C41 0.931 . S
H69 C43 0.929 . S
H70 C44 0.921 1_655 S
H71 C45 0.931 . S
H72 C52 0.932 . S
H73 C53 0.930 . S
H74 C54 0.930 . S
H75 C56 0.932 . S
H76 C58 0.932 . S
H77 C59 0.929 . S
H78 C60 0.928 . S
H79 C62 0.932 . S
C80 C81 1.264 . S
C80 C85 1.479 . S
C80 C90 1.465 . S
C81 C80 1.264 . S
C81 C83 1.339 . S
C81 H108 0.931 . S
C82 C83 1.395 . S
C82 C84 1.320 . S
C83 C81 1.339 . S
C83 C82 1.395 . S
C83 H109 0.929 . S
C84 C82 1.320 . S
C84 C85 1.405 . S
C84 H110 0.921 1_545 S
C85 C80 1.479 . S
C85 C84 1.405 . S
C85 H111 0.931 . S
U86 O87 2.454 . S
U86 O88 2.458 . S
U86 C89 2.984 . S
U86 C90 2.847 . S
U86 C103 2.882 . S
U86 O104 2.441 . S
U86 O105 2.420 . S
U86 O106 2.455 . S
U86 O107 2.449 . S
O87 U86 2.454 . S
O87 C89 1.353 . S
O88 U86 2.458 . S
O88 C89 1.286 . S
C89 U86 2.984 . S
C89 O87 1.353 . S
C89 O88 1.286 . S
C89 C91 1.363 . S
C90 C80 1.465 . S
C90 U86 2.847 . S
C90 O104 1.249 . S
C90 O105 1.202 . S
C91 C89 1.363 . S
C91 C93 1.408 . S
C91 C96 1.342 . S
C92 C93 1.310 . S
C92 C95 1.461 . S
C92 H112 0.932 . S
C93 C91 1.408 . S
C93 C92 1.310 . S
C93 H113 0.930 . S
C94 C95 1.474 1_565 S
C94 C96 1.285 1_565 S
C94 H114 0.930 . S
C95 C92 1.461 . S
C95 C94 1.474 1_545 S
C96 C91 1.342 . S
C96 C94 1.285 1_545 S
C96 H115 0.932 . S
C97 C100 1.424 . S
C97 C102 1.245 . S
C97 C103 1.428 . S
C98 C101 1.260 . S
C98 C102 1.477 . S
C98 H116 0.932 . S
C99 C100 1.384 . S
C99 C101 1.479 . S
C99 H117 0.929 . S
C100 C97 1.424 . S
C100 C99 1.384 . S
C100 H118 0.928 . S
C101 C98 1.260 . S
C101 C99 1.479 . S
C102 C97 1.245 . S
C102 C98 1.477 . S
C102 H119 0.932 . S
C103 U86 2.882 . S
C103 C97 1.428 . S
C103 O106 1.301 . S
C103 O107 1.282 . S
O104 U86 2.441 . S
O104 C90 1.249 . S
O105 U86 2.420 . S
O105 C90 1.202 . S
O106 U86 2.455 . S
O106 C103 1.301 . S
O107 U86 2.449 . S
O107 C103 1.282 . S
H108 C81 0.931 . S
H109 C83 0.929 . S
H110 C84 0.921 1_565 S
H111 C85 0.931 . S
H112 C92 0.932 . S
H113 C93 0.930 . S
H114 C94 0.930 . S
H115 C96 0.932 . S
H116 C98 0.932 . S
H117 C99 0.929 . S
H118 C100 0.928 . S
H119 C102 0.932 . S
C120 C121 1.264 . S
C120 C125 1.479 . S
C120 C130 1.465 . S
C121 C120 1.264 . S
C121 C123 1.339 . S
C121 H148 0.931 . S
C122 C123 1.395 . S
C122 C124 1.320 . S
C123 C121 1.339 . S
C123 C122 1.395 . S
C123 H149 0.929 . S
C124 C122 1.320 . S
C124 C125 1.405 . S
C124 H150 0.930 . S
C125 C120 1.479 . S
C125 C124 1.405 . S
C125 H151 0.931 . S
U126 O127 2.454 . S
U126 O128 2.458 . S
U126 C129 2.984 . S
U126 C130 2.847 . S
U126 C143 2.882 . S
U126 O144 2.441 . S
U126 O145 2.420 . S
U126 O146 2.455 . S
U126 O147 2.449 . S
O127 U126 2.454 . S
O127 C129 1.353 . S
O128 U126 2.458 . S
O128 C129 1.286 . S
C129 U126 2.984 . S
C129 O127 1.353 . S
C129 O128 1.286 . S
C129 C131 1.363 . S
C130 C120 1.465 . S
C130 U126 2.847 . S
C130 O144 1.249 . S
C130 O145 1.202 . S
C131 C129 1.363 . S
C131 C133 1.408 . S
C131 C136 1.342 . S
C132 C133 1.310 . S
C132 C135 1.461 . S
C132 H152 0.932 . S
C133 C131 1.408 . S
C133 C132 1.310 . S
C133 H153 0.930 . S
C134 C135 1.474 . S
C134 C136 1.285 . S
C134 H154 0.929 . S
C135 C132 1.461 . S
C135 C134 1.474 . S
C136 C131 1.342 . S
C136 C134 1.285 . S
C136 H155 0.930 . S
C137 C140 1.424 . S
C137 C142 1.245 . S
C137 C143 1.428 . S
C138 C141 1.260 . S
C138 C142 1.477 . S
C138 H156 0.932 . S
C139 C140 1.384 . S
C139 C141 1.479 . S
C139 H157 0.929 . S
C140 C137 1.424 . S
C140 C139 1.384 . S
C140 H158 0.928 . S
C141 C138 1.260 . S
C141 C139 1.479 . S
C142 C137 1.245 . S
C142 C138 1.477 . S
C142 H159 0.932 . S
C143 U126 2.882 . S
C143 C137 1.428 . S
C143 O146 1.301 . S
C143 O147 1.282 . S
O144 U126 2.441 . S
O144 C130 1.249 . S
O145 U126 2.420 . S
O145 C130 1.202 . S
O146 U126 2.455 . S
O146 C143 1.301 . S
O147 U126 2.449 . S
O147 C143 1.282 . S
H148 C121 0.931 . S
H149 C123 0.929 . S
H150 C124 0.930 . S
H151 C125 0.931 . S
H152 C132 0.932 . S
H153 C133 0.930 . S
H154 C134 0.929 . S
H155 C136 0.930 . S
H156 C138 0.932 . S
H157 C139 0.929 . S
H158 C140 0.928 . S
H159 C142 0.932 . S
C160 C161 1.264 . S
C160 C165 1.479 . S
C160 C170 1.465 . S
C161 C160 1.264 . S
C161 C163 1.339 . S
C161 H188 0.931 . S
C162 C163 1.395 . S
C162 C164 1.320 . S
C163 C161 1.339 . S
C163 C162 1.395 . S
C163 H189 0.929 . S
C164 C162 1.320 . S
C164 C165 1.405 . S
C164 H190 0.930 . S
C165 C160 1.479 . S
C165 C164 1.405 . S
C165 H191 0.931 . S
U166 O167 2.454 . S
U166 O168 2.458 . S
U166 C169 2.984 . S
U166 C170 2.847 1_554 S
U166 C183 2.882 . S
U166 O184 2.441 1_554 S
U166 O185 2.420 1_554 S
U166 O186 2.455 . S
U166 O187 2.449 . S
O167 U166 2.454 . S
O167 C169 1.353 . S
O168 U166 2.458 . S
O168 C169 1.286 . S
C169 U166 2.984 . S
C169 O167 1.353 . S
C169 O168 1.286 . S
C169 C171 1.363 . S
C170 C160 1.465 . S
C170 U166 2.847 1_556 S
C170 O184 1.249 . S
C170 O185 1.202 . S
C171 C169 1.363 . S
C171 C173 1.408 . S
C171 C176 1.342 . S
C172 C173 1.310 . S
C172 C175 1.461 . S
C172 H192 0.932 . S
C173 C171 1.408 . S
C173 C172 1.310 . S
C173 H193 0.930 . S
C174 C175 1.474 . S
C174 C176 1.285 . S
C174 H194 0.929 . S
C175 C172 1.461 . S
C175 C174 1.474 . S
C176 C171 1.342 . S
C176 C174 1.285 . S
C176 H195 0.930 . S
C177 C180 1.424 . S
C177 C182 1.245 . S
C177 C183 1.428 . S
C178 C181 1.260 . S
C178 C182 1.477 . S
C178 H196 0.932 . S
C179 C180 1.384 . S
C179 C181 1.479 . S
C179 H197 0.929 . S
C180 C177 1.424 . S
C180 C179 1.384 . S
C180 H198 0.928 . S
C181 C178 1.260 . S
C181 C179 1.479 . S
C182 C177 1.245 . S
C182 C178 1.477 . S
C182 H199 0.932 . S
C183 U166 2.882 . S
C183 C177 1.428 . S
C183 O186 1.301 . S
C183 O187 1.282 . S
O184 U166 2.441 1_556 S
O184 C170 1.249 . S
O185 U166 2.420 1_556 S
O185 C170 1.202 . S
O186 U166 2.455 . S
O186 C183 1.301 . S
O187 U166 2.449 . S
O187 C183 1.282 . S
H188 C161 0.931 . S
H189 C163 0.929 . S
H190 C164 0.930 . S
H191 C165 0.931 . S
H192 C172 0.932 . S
H193 C173 0.930 . S
H194 C174 0.929 . S
H195 C176 0.930 . S
H196 C178 0.932 . S
H197 C179 0.929 . S
H198 C180 0.928 . S
H199 C182 0.932 . S
C200 C201 1.264 . S
C200 C205 1.479 . S
C200 C210 1.465 . S
C201 C200 1.264 . S
C201 C203 1.339 . S
C201 H228 0.931 . S
C202 C203 1.395 . S
C202 C204 1.320 . S
C203 C201 1.339 . S
C203 C202 1.395 . S
C203 H229 0.929 . S
C204 C202 1.320 . S
C204 C205 1.405 . S
C204 H230 0.923 1_455 S
C205 C200 1.479 . S
C205 C204 1.405 . S
C205 H231 0.931 . S
U206 O207 2.454 . S
U206 O208 2.458 . S
U206 C209 2.984 . S
U206 C210 2.847 1_554 S
U206 C223 2.882 . S
U206 O224 2.441 1_554 S
U206 O225 2.420 1_554 S
U206 O226 2.455 . S
U206 O227 2.449 . S
O207 U206 2.454 . S
O207 C209 1.353 . S
O208 U206 2.458 . S
O208 C209 1.286 . S
C209 U206 2.984 . S
C209 O207 1.353 . S
C209 O208 1.286 . S
C209 C211 1.363 . S
C210 C200 1.465 . S
C210 U206 2.847 1_556 S
C210 O224 1.249 . S
C210 O225 1.202 . S
C211 C209 1.363 . S
C211 C213 1.408 . S
C211 C216 1.342 . S
C212 C213 1.310 . S
C212 C215 1.462 . S
C212 H232 0.932 . S
C213 C211 1.408 . S
C213 C212 1.310 . S
C213 H233 0.930 . S
C214 C215 1.474 1_655 S
C214 C216 1.286 1_655 S
C214 H234 0.929 . S
C215 C212 1.462 . S
C215 C214 1.474 1_455 S
C216 C211 1.342 . S
C216 C214 1.286 1_455 S
C216 H235 0.934 . S
C217 C220 1.424 . S
C217 C222 1.245 . S
C217 C223 1.428 . S
C218 C221 1.260 . S
C218 C222 1.477 . S
C218 H236 0.932 . S
C219 C220 1.384 . S
C219 C221 1.479 . S
C219 H237 0.929 . S
C220 C217 1.424 . S
C220 C219 1.384 . S
C220 H238 0.928 . S
C221 C218 1.260 . S
C221 C219 1.479 . S
C222 C217 1.245 . S
C222 C218 1.477 . S
C222 H239 0.932 . S
C223 U206 2.882 . S
C223 C217 1.428 . S
C223 O226 1.301 . S
C223 O227 1.282 . S
O224 U206 2.441 1_556 S
O224 C210 1.249 . S
O225 U206 2.420 1_556 S
O225 C210 1.202 . S
O226 U206 2.455 . S
O226 C223 1.301 . S
O227 U206 2.449 . S
O227 C223 1.282 . S
H228 C201 0.931 . S
H229 C203 0.929 . S
H230 C204 0.923 1_655 S
H231 C205 0.931 . S
H232 C212 0.932 . S
H233 C213 0.930 . S
H234 C214 0.929 . S
H235 C216 0.934 . S
H236 C218 0.932 . S
H237 C219 0.929 . S
H238 C220 0.928 . S
H239 C222 0.932 . S
C240 C241 1.264 . S
C240 C245 1.479 . S
C240 C250 1.465 . S
C241 C240 1.264 . S
C241 C243 1.339 . S
C241 H268 0.931 . S
C242 C243 1.395 . S
C242 C244 1.320 . S
C243 C241 1.339 . S
C243 C242 1.395 . S
C243 H269 0.929 . S
C244 C242 1.320 . S
C244 C245 1.405 . S
C244 H270 0.923 1_545 S
C245 C240 1.479 . S
C245 C244 1.405 . S
C245 H271 0.931 . S
U246 O247 2.454 . S
U246 O248 2.458 . S
U246 C249 2.984 . S
U246 C250 2.847 1_554 S
U246 C263 2.882 . S
U246 O264 2.441 1_554 S
U246 O265 2.420 1_554 S
U246 O266 2.455 . S
U246 O267 2.449 . S
O247 U246 2.454 . S
O247 C249 1.353 . S
O248 U246 2.458 . S
O248 C249 1.286 . S
C249 U246 2.984 . S
C249 O247 1.353 . S
C249 O248 1.286 . S
C249 C251 1.363 . S
C250 C240 1.465 . S
C250 U246 2.847 1_556 S
C250 O264 1.249 . S
C250 O265 1.202 . S
C251 C249 1.363 . S
C251 C253 1.408 . S
C251 C256 1.342 . S
C252 C253 1.310 . S
C252 C255 1.462 . S
C252 H272 0.932 . S
C253 C251 1.408 . S
C253 C252 1.310 . S
C253 H273 0.930 . S
C254 C255 1.474 1_565 S
C254 C256 1.286 1_565 S
C254 H274 0.929 . S
C255 C252 1.462 . S
C255 C254 1.474 1_545 S
C256 C251 1.342 . S
C256 C254 1.286 1_545 S
C256 H275 0.933 . S
C257 C260 1.424 . S
C257 C262 1.245 . S
C257 C263 1.428 . S
C258 C261 1.260 . S
C258 C262 1.477 . S
C258 H276 0.932 . S
C259 C260 1.384 . S
C259 C261 1.479 . S
C259 H277 0.929 . S
C260 C257 1.424 . S
C260 C259 1.384 . S
C260 H278 0.928 . S
C261 C258 1.260 . S
C261 C259 1.479 . S
C262 C257 1.245 . S
C262 C258 1.477 . S
C262 H279 0.932 . S
C263 U246 2.882 . S
C263 C257 1.428 . S
C263 O266 1.301 . S
C263 O267 1.282 . S
O264 U246 2.441 1_556 S
O264 C250 1.249 . S
O265 U246 2.420 1_556 S
O265 C250 1.202 . S
O266 U246 2.455 . S
O266 C263 1.301 . S
O267 U246 2.449 . S
O267 C263 1.282 . S
H268 C241 0.931 . S
H269 C243 0.929 . S
H270 C244 0.923 1_565 S
H271 C245 0.931 . S
H272 C252 0.932 . S
H273 C253 0.930 . S
H274 C254 0.929 . S
H275 C256 0.933 . S
H276 C258 0.932 . S
H277 C259 0.929 . S
H278 C260 0.928 . S
H279 C262 0.932 . S
C280 C281 1.264 . S
C280 C285 1.479 . S
C280 C290 1.465 . S
C281 C280 1.264 . S
C281 C283 1.339 . S
C281 H308 0.931 . S
C282 C283 1.395 . S
C282 C284 1.320 . S
C283 C281 1.339 . S
C283 C282 1.395 . S
C283 H309 0.929 . S
C284 C282 1.320 . S
C284 C285 1.405 . S
C284 H310 0.930 . S
C285 C280 1.479 . S
C285 C284 1.405 . S
C285 H311 0.931 . S
U286 O287 2.454 . S
U286 O288 2.458 . S
U286 C289 2.984 . S
U286 C290 2.847 1_554 S
U286 C303 2.882 . S
U286 O304 2.441 1_554 S
U286 O305 2.420 1_554 S
U286 O306 2.455 . S
U286 O307 2.449 . S
O287 U286 2.454 . S
O287 C289 1.353 . S
O288 U286 2.458 . S
O288 C289 1.286 . S
C289 U286 2.984 . S
C289 O287 1.353 . S
C289 O288 1.286 . S
C289 C291 1.363 . S
C290 C280 1.465 . S
C290 U286 2.847 1_556 S
C290 O304 1.249 . S
C290 O305 1.202 . S
C291 C289 1.363 . S
C291 C293 1.408 . S
C291 C296 1.342 . S
C292 C293 1.310 . S
C292 C295 1.461 . S
C292 H312 0.932 . S
C293 C291 1.408 . S
C293 C292 1.310 . S
C293 H313 0.930 . S
C294 C295 1.474 . S
C294 C296 1.285 . S
C294 H314 0.929 . S
C295 C292 1.461 . S
C295 C294 1.474 . S
C296 C291 1.342 . S
C296 C294 1.285 . S
C296 H315 0.930 . S
C297 C300 1.424 . S
C297 C302 1.245 . S
C297 C303 1.428 . S
C298 C301 1.260 . S
C298 C302 1.477 . S
C298 H316 0.932 . S
C299 C300 1.384 . S
C299 C301 1.479 . S
C299 H317 0.929 . S
C300 C297 1.424 . S
C300 C299 1.384 . S
C300 H318 0.928 . S
C301 C298 1.260 . S
C301 C299 1.479 . S
C302 C297 1.245 . S
C302 C298 1.477 . S
C302 H319 0.932 . S
C303 U286 2.882 . S
C303 C297 1.428 . S
C303 O306 1.301 . S
C303 O307 1.282 . S
O304 U286 2.441 1_556 S
O304 C290 1.249 . S
O305 U286 2.420 1_556 S
O305 C290 1.202 . S
O306 U286 2.455 . S
O306 C303 1.301 . S
O307 U286 2.449 . S
O307 C303 1.282 . S
H308 C281 0.931 . S
H309 C283 0.929 . S
H310 C284 0.930 . S
H311 C285 0.931 . S
H312 C292 0.932 . S
H313 C293 0.930 . S
H314 C294 0.929 . S
H315 C296 0.930 . S
H316 C298 0.932 . S
H317 C299 0.929 . S
H318 C300 0.928 . S
H319 C302 0.932 . S
C320 Eu321 2.835 . S
C320 C322 1.500 . S
C320 O340 1.257 . S
C320 O341 1.260 . S
Eu321 C320 2.835 . S
Eu321 O340 2.473 . S
Eu321 O341 2.480 . S
Eu321 O342 2.430 . S
Eu321 O343 2.670 1_545 S
Eu321 O344 2.394 . S
Eu321 O349 2.355 1_655 S
Eu321 O351 2.374 1_545 S
C322 C320 1.500 . S
C322 C323 1.377 . S
C322 C327 1.377 . S
C323 C322 1.377 . S
C323 C324 1.395 . S
C323 H352 0.931 . S
C324 C323 1.395 . S
C324 C325 1.383 . S
C324 H353 0.931 . S
C325 C324 1.383 . S
C325 C326 1.394 . S
C326 C325 1.394 . S
C326 C327 1.378 . S
C326 H354 0.931 1_655 S
C327 C322 1.377 . S
C327 C326 1.378 . S
C327 H355 0.931 1_655 S
C328 O342 1.284 . S
C328 O343 1.253 1_545 S
C329 O344 1.251 1_455 S
C329 O345 1.251 . S
C330 Eu331 2.835 . S
C330 C332 1.500 . S
C330 O346 1.257 . S
C330 O347 1.260 . S
Eu331 C330 2.835 . S
Eu331 O343 2.355 1_455 S
Eu331 O345 2.374 1_565 S
Eu331 O346 2.473 . S
Eu331 O347 2.480 . S
Eu331 O348 2.430 . S
Eu331 O349 2.670 1_565 S
Eu331 O350 2.394 . S
C332 C330 1.500 . S
C332 C333 1.377 . S
C332 C337 1.377 . S
C333 C332 1.377 . S
C333 C334 1.395 . S
C333 H356 0.931 . S
C334 C333 1.395 . S
C334 C335 1.383 . S
C334 H357 0.931 . S
C335 C334 1.383 . S
C335 C336 1.394 . S
C336 C335 1.394 . S
C336 C337 1.378 . S
C336 H358 0.931 1_455 S
C337 C332 1.377 . S
C337 C336 1.378 . S
C337 H359 0.931 1_455 S
C338 O348 1.277 . S
C338 O349 1.257 1_565 S
C339 O350 1.251 1_655 S
C339 O351 1.251 . S
O340 C320 1.257 . S
O340 Eu321 2.473 . S
O341 C320 1.260 . S
O341 Eu321 2.480 . S
O342 Eu321 2.430 . S
O342 C328 1.284 . S
O343 Eu321 2.670 1_565 S
O343 C328 1.253 1_565 S
O343 Eu331 2.355 1_655 S
O344 Eu321 2.394 . S
O344 C329 1.251 1_655 S
O345 C329 1.251 . S
O345 Eu331 2.374 1_545 S
O346 C330 1.257 . S
O346 Eu331 2.473 . S
O347 C330 1.260 . S
O347 Eu331 2.480 . S
O348 Eu331 2.430 . S
O348 C338 1.277 . S
O349 Eu321 2.355 1_455 S
O349 Eu331 2.670 1_545 S
O349 C338 1.257 1_545 S
O350 Eu331 2.394 . S
O350 C339 1.251 1_455 S
O351 Eu321 2.374 1_565 S
O351 C339 1.251 . S
H352 C323 0.931 . S
H353 C324 0.931 . S
H354 C326 0.931 1_455 S
H355 C327 0.931 1_455 S
H356 C333 0.931 . S
H357 C334 0.931 . S
H358 C336 0.931 1_655 S
H359 C337 0.931 1_655 S
C360 Eu361 2.835 . S
C360 C362 1.500 . S
C360 O380 1.257 . S
C360 O381 1.260 . S
Eu361 C360 2.835 . S
Eu361 O380 2.473 . S
Eu361 O381 2.480 . S
Eu361 O382 2.430 . S
Eu361 O383 2.670 . S
Eu361 O384 2.394 . S
Eu361 O389 2.355 1_565 S
Eu361 O391 2.374 . S
C362 C360 1.500 . S
C362 C363 1.377 . S
C362 C367 1.377 . S
C363 C362 1.377 . S
C363 C364 1.395 . S
C363 H392 0.931 . S
C364 C363 1.395 . S
C364 C365 1.383 . S
C364 H393 0.931 . S
C365 C364 1.383 . S
C365 C366 1.394 . S
C366 C365 1.394 . S
C366 C367 1.378 . S
C366 H394 0.931 1_565 S
C367 C362 1.377 . S
C367 C366 1.378 . S
C367 H395 0.931 1_565 S
C368 O382 1.259 . S
C368 O383 1.270 . S
C369 O384 1.251 1_545 S
C369 O385 1.251 . S
C370 Eu371 2.835 . S
C370 C372 1.500 . S
C370 O386 1.257 . S
C370 O387 1.260 . S
Eu371 C370 2.835 . S
Eu371 O383 2.355 1_545 S
Eu371 O385 2.374 . S
Eu371 O386 2.473 . S
Eu371 O387 2.480 . S
Eu371 O388 2.430 . S
Eu371 O389 2.670 . S
Eu371 O390 2.394 . S
C372 C370 1.500 . S
C372 C373 1.377 . S
C372 C377 1.377 . S
C373 C372 1.377 . S
C373 C374 1.395 . S
C373 H396 0.931 . S
C374 C373 1.395 . S
C374 C375 1.383 . S
C374 H397 0.931 . S
C375 C374 1.383 . S
C375 C376 1.394 . S
C376 C375 1.394 . S
C376 C377 1.378 . S
C376 H398 0.931 1_545 S
C377 C372 1.377 . S
C377 C376 1.378 . S
C377 H399 0.931 1_545 S
C378 O388 1.259 . S
C378 O389 1.270 . S
C379 O390 1.251 1_565 S
C379 O391 1.251 . S
O380 C360 1.257 . S
O380 Eu361 2.473 . S
O381 C360 1.260 . S
O381 Eu361 2.480 . S
O382 Eu361 2.430 . S
O382 C368 1.259 . S
O383 Eu361 2.670 . S
O383 C368 1.270 . S
O383 Eu371 2.355 1_565 S
O384 Eu361 2.394 . S
O384 C369 1.251 1_565 S
O385 C369 1.251 . S
O385 Eu371 2.374 . S
O386 C370 1.257 . S
O386 Eu371 2.473 . S
O387 C370 1.260 . S
O387 Eu371 2.480 . S
O388 Eu371 2.430 . S
O388 C378 1.259 . S
O389 Eu361 2.355 1_545 S
O389 Eu371 2.670 . S
O389 C378 1.270 . S
O390 Eu371 2.394 . S
O390 C379 1.251 1_545 S
O391 Eu361 2.374 . S
O391 C379 1.251 . S
H392 C363 0.931 . S
H393 C364 0.931 . S
H394 C366 0.931 1_545 S
H395 C367 0.931 1_545 S
H396 C373 0.931 . S
H397 C374 0.931 . S
H398 C376 0.931 1_565 S
H399 C377 0.931 1_565 S
C400 Eu401 2.835 . S
C400 C402 1.500 . S
C400 O420 1.257 . S
C400 O421 1.260 . S
Eu401 C400 2.835 . S
Eu401 O420 2.473 . S
Eu401 O421 2.480 . S
Eu401 O422 2.430 . S
Eu401 O423 2.670 . S
Eu401 O424 2.394 . S
Eu401 O429 2.355 . S
Eu401 O431 2.374 . S
C402 C400 1.500 . S
C402 C403 1.377 . S
C402 C407 1.377 . S
C403 C402 1.377 . S
C403 C404 1.395 . S
C403 H432 0.931 . S
C404 C403 1.395 . S
C404 C405 1.383 . S
C404 H433 0.931 . S
C405 C404 1.383 . S
C405 C406 1.394 . S
C406 C405 1.394 . S
C406 C407 1.378 . S
C406 H434 0.931 . S
C407 C402 1.377 . S
C407 C406 1.378 . S
C407 H435 0.931 . S
C408 O422 1.259 . S
C408 O423 1.270 . S
C409 O424 1.251 . S
C409 O425 1.251 . S
C410 Eu411 2.835 . S
C410 C412 1.500 . S
C410 O426 1.257 . S
C410 O427 1.260 . S
Eu411 C410 2.835 . S
Eu411 O423 2.355 . S
Eu411 O425 2.374 . S
Eu411 O426 2.473 . S
Eu411 O427 2.480 . S
Eu411 O428 2.430 . S
Eu411 O429 2.670 . S
Eu411 O430 2.394 . S
C412 C410 1.500 . S
C412 C413 1.377 . S
C412 C417 1.377 . S
C413 C412 1.377 . S
C413 C414 1.395 . S
C413 H436 0.931 . S
C414 C413 1.395 . S
C414 C415 1.383 . S
C414 H437 0.931 . S
C415 C414 1.383 . S
C415 C416 1.394 . S
C416 C415 1.394 . S
C416 C417 1.378 . S
C416 H438 0.931 . S
C417 C412 1.377 . S
C417 C416 1.378 . S
C417 H439 0.931 . S
C418 O428 1.259 . S
C418 O429 1.270 . S
C419 O430 1.251 . S
C419 O431 1.251 . S
O420 C400 1.257 . S
O420 Eu401 2.473 . S
O421 C400 1.260 . S
O421 Eu401 2.480 . S
O422 Eu401 2.430 . S
O422 C408 1.259 . S
O423 Eu401 2.670 . S
O423 C408 1.270 . S
O423 Eu411 2.355 . S
O424 Eu401 2.394 . S
O424 C409 1.251 . S
O425 C409 1.251 . S
O425 Eu411 2.374 . S
O426 C410 1.257 . S
O426 Eu411 2.473 . S
O427 C410 1.260 . S
O427 Eu411 2.480 . S
O428 Eu411 2.430 . S
O428 C418 1.259 . S
O429 Eu401 2.355 . S
O429 Eu411 2.670 . S
O429 C418 1.270 . S
O430 Eu411 2.394 . S
O430 C419 1.251 . S
O431 Eu401 2.374 . S
O431 C419 1.251 . S
H432 C403 0.931 . S
H433 C404 0.931 . S
H434 C406 0.931 . S
H435 C407 0.931 . S
H436 C413 0.931 . S
H437 C414 0.931 . S
H438 C416 0.931 . S
H439 C417 0.931 . S
C440 Eu441 2.835 . S
C440 C442 1.500 . S
C440 O460 1.257 . S
C440 O461 1.260 . S
Eu441 C440 2.835 . S
Eu441 O460 2.473 . S
Eu441 O461 2.480 . S
Eu441 O462 2.430 . S
Eu441 O463 2.670 1_455 S
Eu441 O464 2.394 . S
Eu441 O469 2.355 . S
Eu441 O471 2.374 1_455 S
C442 C440 1.500 . S
C442 C443 1.377 . S
C442 C447 1.377 . S
C443 C442 1.377 . S
C443 C444 1.395 . S
C443 H472 0.931 . S
C444 C443 1.395 . S
C444 C445 1.383 . S
C444 H473 0.931 . S
C445 C444 1.383 . S
C445 C446 1.394 . S
C446 C445 1.394 . S
C446 C447 1.378 . S
C446 H474 0.931 . S
C447 C442 1.377 . S
C447 C446 1.378 . S
C447 H475 0.931 . S
C448 O462 1.272 . S
C448 O463 1.261 1_455 S
C449 O464 1.251 . S
C449 O465 1.251 . S
C450 Eu451 2.835 . S
C450 C452 1.500 . S
C450 O466 1.257 . S
C450 O467 1.260 . S
Eu451 C450 2.835 . S
Eu451 O463 2.355 . S
Eu451 O465 2.374 1_655 S
Eu451 O466 2.473 . S
Eu451 O467 2.480 . S
Eu451 O468 2.430 . S
Eu451 O469 2.670 1_655 S
Eu451 O470 2.394 . S
C452 C450 1.500 . S
C452 C453 1.377 . S
C452 C457 1.377 . S
C453 C452 1.377 . S
C453 C454 1.395 . S
C453 H476 0.931 . S
C454 C453 1.395 . S
C454 C455 1.383 . S
C454 H477 0.931 . S
C455 C454 1.383 . S
C455 C456 1.394 . S
C456 C455 1.394 . S
C456 C457 1.378 . S
C456 H478 0.931 . S
C457 C452 1.377 . S
C457 C456 1.378 . S
C457 H479 0.931 . S
C458 O468 1.266 . S
C458 O469 1.265 1_655 S
C459 O470 1.251 . S
C459 O471 1.251 . S
O460 C440 1.257 . S
O460 Eu441 2.473 . S
O461 C440 1.260 . S
O461 Eu441 2.480 . S
O462 Eu441 2.430 . S
O462 C448 1.272 . S
O463 Eu441 2.670 1_655 S
O463 C448 1.261 1_655 S
O463 Eu451 2.355 . S
O464 Eu441 2.394 . S
O464 C449 1.251 . S
O465 C449 1.251 . S
O465 Eu451 2.374 1_455 S
O466 C450 1.257 . S
O466 Eu451 2.473 . S
O467 C450 1.260 . S
O467 Eu451 2.480 . S
O468 Eu451 2.430 . S
O468 C458 1.266 . S
O469 Eu441 2.355 . S
O469 Eu451 2.670 1_455 S
O469 C458 1.265 1_455 S
O470 Eu451 2.394 . S
O470 C459 1.251 . S
O471 Eu441 2.374 1_655 S
O471 C459 1.251 . S
H472 C443 0.931 . S
H473 C444 0.931 . S
H474 C446 0.931 . S
H475 C447 0.931 . S
H476 C453 0.931 . S
H477 C454 0.931 . S
H478 C456 0.931 . S
H479 C457 0.931 . S
H480 C492 0.930 . S
H481 C494 0.930 . S
H482 C495 0.930 . S
H483 C499 0.959 . S
H484 C499 0.959 . S
H485 C499 0.961 . S
H486 C500 0.960 . S
H487 C500 0.961 . S
H488 C500 0.959 . S
H489 C503 0.929 . S
H490 C504 0.931 . S
H491 C506 0.930 . S
C492 H480 0.930 . S
C492 C493 1.399 1_565 S
C492 C497 1.399 . S
C493 C492 1.399 1_545 S
C493 C494 1.376 . S
C494 H481 0.930 . S
C494 C493 1.376 . S
C494 C495 1.388 . S
C495 H482 0.930 . S
C495 C494 1.388 . S
C495 C496 1.390 . S
C496 C495 1.390 . S
C496 C497 1.394 1_545 S
C496 C502 1.465 . S
C497 C492 1.399 . S
C497 C496 1.394 1_565 S
C497 C498 1.516 . S
C498 C497 1.516 . S
C498 C499 1.502 . S
C498 C500 1.561 . S
C498 C501 1.526 . S
C499 H483 0.959 . S
C499 H484 0.959 . S
C499 H485 0.961 . S
C499 C498 1.502 . S
C500 H486 0.960 . S
C500 H487 0.961 . S
C500 H488 0.959 . S
C500 C498 1.561 . S
C501 C498 1.526 . S
C501 C502 1.396 1_565 S
C501 C506 1.390 . S
C502 C496 1.465 . S
C502 C501 1.396 1_545 S
C502 C503 1.399 . S
C503 H489 0.929 . S
C503 C502 1.399 . S
C503 C504 1.385 . S
C504 H490 0.931 . S
C504 C503 1.385 . S
C504 C505 1.389 . S
C505 C504 1.389 . S
C505 C506 1.387 1_545 S
C506 H491 0.930 . S
C506 C501 1.390 . S
C506 C505 1.387 1_565 S
H507 C519 0.930 . S
H508 C521 0.930 . S
H509 C522 0.930 . S
H510 C526 0.959 . S
H511 C526 0.959 . S
H512 C526 0.961 . S
H513 C527 0.960 . S
H514 C527 0.961 . S
H515 C527 0.959 . S
H516 C530 0.929 . S
H517 C531 0.931 . S
H518 C533 0.930 . S
C519 H507 0.930 . S
C519 C520 1.399 . S
C519 C524 1.399 . S
C520 C519 1.399 . S
C520 C521 1.376 . S
C521 H508 0.930 . S
C521 C520 1.376 . S
C521 C522 1.388 . S
C522 H509 0.930 . S
C522 C521 1.388 . S
C522 C523 1.390 . S
C523 C522 1.390 . S
C523 C524 1.394 . S
C523 C529 1.465 . S
C524 C519 1.399 . S
C524 C523 1.394 . S
C524 C525 1.516 . S
C525 C524 1.516 . S
C525 C526 1.502 . S
C525 C527 1.561 . S
C525 C528 1.526 . S
C526 H510 0.959 . S
C526 H511 0.959 . S
C526 H512 0.961 . S
C526 C525 1.502 . S
C527 H513 0.960 . S
C527 H514 0.961 . S
C527 H515 0.959 . S
C527 C525 1.561 . S
C528 C525 1.526 . S
C528 C529 1.396 . S
C528 C533 1.390 . S
C529 C523 1.465 . S
C529 C528 1.396 . S
C529 C530 1.399 . S
C530 H516 0.929 . S
C530 C529 1.399 . S
C530 C531 1.385 . S
C531 H517 0.931 . S
C531 C530 1.385 . S
C531 C532 1.389 . S
C532 C531 1.389 . S
C532 C533 1.387 . S
C533 H518 0.930 . S
C533 C528 1.390 . S
C533 C532 1.387 . S
H534 C546 0.930 . S
H535 C548 0.930 . S
H536 C549 0.930 . S
H537 C553 0.959 . S
H538 C553 0.959 . S
H539 C553 0.961 . S
H540 C554 0.960 . S
H541 C554 0.961 . S
H542 C554 0.959 . S
H543 C557 0.929 . S
H544 C558 0.931 . S
H545 C560 0.930 . S
C546 H534 0.930 . S
C546 C547 1.399 . S
C546 C551 1.399 . S
C547 C546 1.399 . S
C547 C548 1.376 . S
C548 H535 0.930 . S
C548 C547 1.376 . S
C548 C549 1.388 . S
C549 H536 0.930 . S
C549 C548 1.388 . S
C549 C550 1.390 . S
C550 C549 1.390 . S
C550 C551 1.394 . S
C550 C556 1.465 . S
C551 C546 1.399 . S
C551 C550 1.394 . S
C551 C552 1.516 . S
C552 C551 1.516 . S
C552 C553 1.502 . S
C552 C554 1.561 . S
C552 C555 1.526 . S
C553 H537 0.959 . S
C553 H538 0.959 . S
C553 H539 0.961 . S
C553 C552 1.502 . S
C554 H540 0.960 . S
C554 H541 0.961 . S
C554 H542 0.959 . S
C554 C552 1.561 . S
C555 C552 1.526 . S
C555 C556 1.396 . S
C555 C560 1.390 . S
C556 C550 1.465 . S
C556 C555 1.396 . S
C556 C557 1.399 . S
C557 H543 0.929 . S
C557 C556 1.399 . S
C557 C558 1.385 . S
C558 H544 0.931 . S
C558 C557 1.385 . S
C558 C559 1.389 . S
C559 C558 1.389 . S
C559 C560 1.387 . S
C560 H545 0.930 . S
C560 C555 1.390 . S
C560 C559 1.387 . S
H561 C573 0.930 . S
H562 C575 0.930 . S
H563 C576 0.930 . S
H564 C580 0.959 . S
H565 C580 0.959 . S
H566 C580 0.961 . S
H567 C581 0.953 1_655 S
H568 C581 0.961 1_655 S
H569 C581 0.959 . S
H570 C584 0.929 . S
H571 C585 0.931 . S
H572 C587 0.930 . S
C573 H561 0.930 . S
C573 C574 1.399 1_655 S
C573 C578 1.399 . S
C574 C573 1.399 1_455 S
C574 C575 1.376 . S
C575 H562 0.930 . S
C575 C574 1.376 . S
C575 C576 1.388 . S
C576 H563 0.930 . S
C576 C575 1.388 . S
C576 C577 1.390 . S
C577 C576 1.390 . S
C577 C578 1.394 1_455 S
C577 C583 1.465 . S
C578 C573 1.399 . S
C578 C577 1.394 1_655 S
C578 C579 1.516 . S
C579 C578 1.516 . S
C579 C580 1.502 . S
C579 C581 1.561 1_655 S
C579 C582 1.526 . S
C580 H564 0.959 . S
C580 H565 0.959 . S
C580 H566 0.961 . S
C580 C579 1.502 . S
C581 H567 0.953 1_455 S
C581 H568 0.961 1_455 S
C581 H569 0.959 . S
C581 C579 1.561 1_455 S
C582 C579 1.526 . S
C582 C583 1.396 1_655 S
C582 C587 1.390 . S
C583 C577 1.465 . S
C583 C582 1.396 1_455 S
C583 C584 1.399 . S
C584 H570 0.929 . S
C584 C583 1.399 . S
C584 C585 1.385 . S
C585 H571 0.931 . S
C585 C584 1.385 . S
C585 C586 1.389 . S
C586 C585 1.389 . S
C586 C587 1.387 1_455 S
C587 H572 0.930 . S
C587 C582 1.390 . S
C587 C586 1.387 1_655 S
H588 C600 0.936 . S
H589 C602 0.930 . S
H590 C603 0.930 . S
H591 C607 0.959 . S
H592 C607 0.959 . S
H593 C607 0.961 . S
H594 C608 0.960 . S
H595 C608 0.961 . S
H596 C608 0.959 . S
H597 C611 0.929 . S
H598 C612 0.931 . S
H599 C614 0.931 . S
C600 H588 0.936 . S
C600 C601 1.397 1_545 S
C600 C605 1.395 1_545 S
C601 C600 1.397 1_565 S
C601 C602 1.376 . S
C602 H589 0.930 . S
C602 C601 1.376 . S
C602 C603 1.388 . S
C603 H590 0.930 . S
C603 C602 1.388 . S
C603 C604 1.390 . S
C604 C603 1.390 . S
C604 C605 1.401 . S
C604 C610 1.465 1_554 S
C605 C600 1.395 1_565 S
C605 C604 1.401 . S
C605 C606 1.516 . S
C606 C605 1.516 . S
C606 C607 1.490 1_565 S
C606 C608 1.574 . S
C606 C609 1.525 1_554 S
C607 H591 0.959 . S
C607 H592 0.959 . S
C607 H593 0.961 . S
C607 C606 1.490 1_545 S
C608 H594 0.960 . S
C608 H595 0.961 . S
C608 H596 0.959 . S
C608 C606 1.574 . S
C609 C606 1.525 1_556 S
C609 C610 1.403 . S
C609 C614 1.388 1_565 S
C610 C604 1.465 1_556 S
C610 C609 1.403 . S
C610 C611 1.399 . S
C611 H597 0.929 . S
C611 C610 1.399 . S
C611 C612 1.385 . S
C612 H598 0.931 . S
C612 C611 1.385 . S
C612 C613 1.396 . S
C613 C612 1.396 . S
C613 C614 1.385 1_565 S
C614 H599 0.931 . S
C614 C609 1.388 1_545 S
C614 C613 1.385 1_545 S
H615 C627 0.930 . S
H616 C629 0.930 . S
H617 C630 0.930 . S
H618 C634 0.959 . S
H619 C634 0.959 . S
H620 C634 0.961 1_554 S
H621 C635 0.960 . S
H622 C635 0.961 1_556 S
H623 C635 0.959 . S
H624 C638 0.929 . S
H625 C639 0.931 . S
H626 C641 0.930 . S
C627 H615 0.930 . S
C627 C628 1.399 . S
C627 C632 1.399 . S
C628 C627 1.399 . S
C628 C629 1.376 . S
C629 H616 0.930 . S
C629 C628 1.376 . S
C629 C630 1.388 . S
C630 H617 0.930 . S
C630 C629 1.388 . S
C630 C631 1.390 . S
C631 C630 1.390 . S
C631 C632 1.394 . S
C631 C637 1.465 1_554 S
C632 C627 1.399 . S
C632 C631 1.394 . S
C632 C633 1.516 1_554 S
C633 C632 1.516 1_556 S
C633 C634 1.502 . S
C633 C635 1.561 1_556 S
C633 C636 1.526 . S
C634 H618 0.959 . S
C634 H619 0.959 . S
C634 H620 0.961 1_556 S
C634 C633 1.502 . S
C635 H621 0.960 . S
C635 H622 0.961 1_554 S
C635 H623 0.959 . S
C635 C633 1.561 1_554 S
C636 C633 1.526 . S
C636 C637 1.396 . S
C636 C641 1.390 . S
C637 C631 1.465 1_556 S
C637 C636 1.396 . S
C637 C638 1.399 . S
C638 H624 0.929 . S
C638 C637 1.399 . S
C638 C639 1.385 . S
C639 H625 0.931 . S
C639 C638 1.385 . S
C639 C640 1.389 . S
C640 C639 1.389 . S
C640 C641 1.387 . S
C641 H626 0.930 . S
C641 C636 1.390 . S
C641 C640 1.387 . S
H642 C654 0.930 . S
H643 C656 0.930 . S
H644 C657 0.930 . S
H645 C661 0.959 . S
H646 C661 0.959 1_556 S
H647 C661 0.961 . S
H648 C662 0.960 1_554 S
H649 C662 0.961 . S
H650 C662 0.959 . S
H651 C665 0.929 . S
H652 C666 0.931 . S
H653 C668 0.930 . S
C654 H642 0.930 . S
C654 C655 1.399 . S
C654 C659 1.399 . S
C655 C654 1.399 . S
C655 C656 1.376 . S
C656 H643 0.930 . S
C656 C655 1.376 . S
C656 C657 1.388 . S
C657 H644 0.930 . S
C657 C656 1.388 . S
C657 C658 1.390 . S
C658 C657 1.390 . S
C658 C659 1.394 . S
C658 C664 1.465 1_554 S
C659 C654 1.399 . S
C659 C658 1.394 . S
C659 C660 1.521 . S
C660 C659 1.521 . S
C660 C661 1.504 . S
C660 C662 1.559 1_554 S
C660 C663 1.520 1_554 S
C661 H645 0.959 . S
C661 H646 0.959 1_554 S
C661 H647 0.961 . S
C661 C660 1.504 . S
C662 H648 0.960 1_556 S
C662 H649 0.961 . S
C662 H650 0.959 . S
C662 C660 1.559 1_556 S
C663 C660 1.520 1_556 S
C663 C664 1.396 . S
C663 C668 1.390 . S
C664 C658 1.465 1_556 S
C664 C663 1.396 . S
C664 C665 1.399 . S
C665 H651 0.929 . S
C665 C664 1.399 . S
C665 C666 1.385 . S
C666 H652 0.931 . S
C666 C665 1.385 . S
C666 C667 1.389 . S
C667 C666 1.389 . S
C667 C668 1.387 . S
C668 H653 0.930 . S
C668 C663 1.390 . S
C668 C667 1.387 . S
H669 C681 0.930 . S
H670 C683 0.930 . S
H671 C684 0.930 . S
H672 C688 0.959 . S
H673 C688 0.959 . S
H674 C688 0.961 . S
H675 C689 0.960 . S
H676 C689 0.971 . S
H677 C689 0.959 . S
H678 C692 0.929 . S
H679 C693 0.931 . S
H680 C695 0.930 . S
C681 H669 0.930 . S
C681 C682 1.399 1_455 S
C681 C686 1.399 . S
C682 C681 1.399 1_655 S
C682 C683 1.376 . S
C683 H670 0.930 . S
C683 C682 1.376 . S
C683 C684 1.388 . S
C684 H671 0.930 . S
C684 C683 1.388 . S
C684 C685 1.390 . S
C685 C684 1.390 . S
C685 C686 1.394 1_655 S
C685 C691 1.465 1_554 S
C686 C681 1.399 . S
C686 C685 1.394 1_455 S
C686 C687 1.516 . S
C687 C686 1.516 . S
C687 C688 1.502 . S
C687 C689 1.561 1_455 S
C687 C690 1.526 1_554 S
C688 H672 0.959 . S
C688 H673 0.959 . S
C688 H674 0.961 . S
C688 C687 1.502 . S
C689 H675 0.960 . S
C689 H676 0.971 . S
C689 H677 0.959 . S
C689 C687 1.561 1_655 S
C690 C687 1.526 1_556 S
C690 C691 1.396 1_455 S
C690 C695 1.390 . S
C691 C685 1.465 1_556 S
C691 C690 1.396 1_655 S
C691 C692 1.399 . S
C692 H678 0.929 . S
C692 C691 1.399 . S
C692 C693 1.385 . S
C693 H679 0.931 . S
C693 C692 1.385 . S
C693 C694 1.389 . S
C694 C693 1.389 . S
C694 C695 1.387 1_655 S
C695 H680 0.930 . S
C695 C690 1.390 . S
C695 C694 1.387 1_455 S
H696 C708 0.930 . S
H697 C710 0.930 . S
H698 C711 0.930 . S
H699 C715 0.959 . S
H700 C715 0.959 . S
H701 C715 0.961 . S
H702 C716 0.960 . S
H703 C716 0.961 . S
H704 C716 0.959 . S
H705 C719 0.929 . S
H706 C720 0.931 . S
H707 C722 0.930 . S
C708 H696 0.930 . S
C708 C709 1.402 . S
C708 C713 1.399 1_455 S
C709 C708 1.402 . S
C709 C710 1.368 1_455 S
C710 H697 0.930 . S
C710 C709 1.368 1_655 S
C710 C711 1.388 . S
C711 H698 0.930 . S
C711 C710 1.388 . S
C711 C712 1.390 . S
C712 C711 1.390 . S
C712 C713 1.394 . S
C712 C718 1.465 . S
C713 C708 1.399 1_655 S
C713 C712 1.394 . S
C713 C714 1.516 . S
C714 C713 1.516 . S
C714 C715 1.502 1_655 S
C714 C716 1.561 . S
C714 C717 1.526 . S
C715 H699 0.959 . S
C715 H700 0.959 . S
C715 H701 0.961 . S
C715 C714 1.502 1_455 S
C716 H702 0.960 . S
C716 H703 0.961 . S
C716 H704 0.959 . S
C716 C714 1.561 . S
C717 C714 1.526 . S
C717 C718 1.396 . S
C717 C722 1.390 . S
C718 C712 1.465 . S
C718 C717 1.396 . S
C718 C719 1.399 . S
C719 H705 0.929 . S
C719 C718 1.399 . S
C719 C720 1.385 . S
C720 H706 0.931 . S
C720 C719 1.385 . S
C720 C721 1.389 . S
C721 C720 1.389 . S
C721 C722 1.387 . S
C722 H707 0.930 . S
C722 C717 1.390 . S
C722 C721 1.387 . S
H723 C735 0.930 . S
H724 C737 0.930 . S
H725 C738 0.930 . S
H726 C742 0.959 . S
H727 C742 0.959 . S
H728 C742 0.961 . S
H729 C743 0.960 . S
H730 C743 0.961 . S
H731 C743 0.959 . S
H732 C746 0.929 1_545 S
H733 C747 0.931 . S
H734 C749 0.930 . S
C735 H723 0.930 . S
C735 C736 1.399 1_565 S
C735 C740 1.399 . S
C736 C735 1.399 1_545 S
C736 C737 1.376 . S
C737 H724 0.930 . S
C737 C736 1.376 . S
C737 C738 1.388 . S
C738 H725 0.930 . S
C738 C737 1.388 . S
C738 C739 1.390 1_545 S
C739 C738 1.390 1_565 S
C739 C740 1.394 . S
C739 C745 1.465 . S
C740 C735 1.399 . S
C740 C739 1.394 . S
C740 C741 1.516 . S
C741 C740 1.516 . S
C741 C742 1.502 . S
C741 C743 1.561 . S
C741 C744 1.526 . S
C742 H726 0.959 . S
C742 H727 0.959 . S
C742 H728 0.961 . S
C742 C741 1.502 . S
C743 H729 0.960 . S
C743 H730 0.961 . S
C743 H731 0.959 . S
C743 C741 1.561 . S
C744 C741 1.526 . S
C744 C745 1.396 . S
C744 C749 1.390 . S
C745 C739 1.465 . S
C745 C744 1.396 . S
C745 C746 1.399 . S
C746 H732 0.929 1_565 S
C746 C745 1.399 . S
C746 C747 1.385 . S
C747 H733 0.931 . S
C747 C746 1.385 . S
C747 C748 1.389 . S
C748 C747 1.389 . S
C748 C749 1.387 . S
C749 H734 0.930 . S
C749 C744 1.390 . S
C749 C748 1.387 . S
H750 C762 0.930 . S
H751 C764 0.930 . S
H752 C765 0.930 . S
H753 C769 0.959 . S
H754 C769 0.959 . S
H755 C769 0.961 . S
H756 C770 0.960 . S
H757 C770 0.961 . S
H758 C770 0.959 . S
H759 C773 0.929 . S
H760 C774 0.931 . S
H761 C776 0.930 . S
C762 H750 0.930 . S
C762 C763 1.399 . S
C762 C767 1.399 . S
C763 C762 1.399 . S
C763 C764 1.376 . S
C764 H751 0.930 . S
C764 C763 1.376 . S
C764 C765 1.388 . S
C765 H752 0.930 . S
C765 C764 1.388 . S
C765 C766 1.390 . S
C766 C765 1.390 . S
C766 C767 1.394 . S
C766 C772 1.465 . S
C767 C762 1.399 . S
C767 C766 1.394 . S
C767 C768 1.516 . S
C768 C767 1.516 . S
C768 C769 1.502 . S
C768 C770 1.561 . S
C768 C771 1.526 . S
C769 H753 0.959 . S
C769 H754 0.959 . S
C769 H755 0.961 . S
C769 C768 1.502 . S
C770 H756 0.960 . S
C770 H757 0.961 . S
C770 H758 0.959 . S
C770 C768 1.561 . S
C771 C768 1.526 . S
C771 C772 1.396 . S
C771 C776 1.390 . S
C772 C766 1.465 . S
C772 C771 1.396 . S
C772 C773 1.399 . S
C773 H759 0.929 . S
C773 C772 1.399 . S
C773 C774 1.385 . S
C774 H760 0.931 . S
C774 C773 1.385 . S
C774 C775 1.389 . S
C775 C774 1.389 . S
C775 C776 1.387 . S
C776 H761 0.930 . S
C776 C771 1.390 . S
C776 C775 1.387 . S
H777 C789 0.930 . S
H778 C791 0.930 . S
H779 C792 0.930 . S
H780 C796 0.959 . S
H781 C796 0.959 . S
H782 C796 0.961 . S
H783 C797 0.960 . S
H784 C797 0.961 . S
H785 C797 0.959 . S
H786 C800 0.929 . S
H787 C801 0.931 . S
H788 C803 0.930 . S
C789 H777 0.930 . S
C789 C790 1.399 . S
C789 C794 1.399 . S
C790 C789 1.399 . S
C790 C791 1.376 . S
C791 H778 0.930 . S
C791 C790 1.376 . S
C791 C792 1.388 . S
C792 H779 0.930 . S
C792 C791 1.388 . S
C792 C793 1.390 . S
C793 C792 1.390 . S
C793 C794 1.394 . S
C793 C799 1.465 . S
C794 C789 1.399 . S
C794 C793 1.394 . S
C794 C795 1.516 . S
C795 C794 1.516 . S
C795 C796 1.502 . S
C795 C797 1.561 . S
C795 C798 1.526 . S
C796 H780 0.959 . S
C796 H781 0.959 . S
C796 H782 0.961 . S
C796 C795 1.502 . S
C797 H783 0.960 . S
C797 H784 0.961 . S
C797 H785 0.959 . S
C797 C795 1.561 . S
C798 C795 1.526 . S
C798 C799 1.396 . S
C798 C803 1.390 . S
C799 C793 1.465 . S
C799 C798 1.396 . S
C799 C800 1.399 . S
C800 H786 0.929 . S
C800 C799 1.399 . S
C800 C801 1.385 . S
C801 H787 0.931 . S
C801 C800 1.385 . S
C801 C802 1.389 . S
C802 C801 1.389 . S
C802 C803 1.387 . S
C803 H788 0.930 . S
C803 C798 1.390 . S
C803 C802 1.387 . S
H804 C816 0.930 . S
H805 C818 0.930 . S
H806 C819 0.930 . S
H807 C823 0.959 . S
H808 C823 0.959 . S
H809 C823 0.961 1_554 S
H810 C824 0.960 . S
H811 C824 0.961 . S
H812 C824 0.959 1_455 S
H813 C827 0.929 . S
H814 C828 0.931 . S
H815 C830 0.930 . S
C816 H804 0.930 . S
C816 C817 1.398 . S
C816 C821 1.399 1_655 S
C817 C816 1.398 . S
C817 C818 1.378 1_655 S
C818 H805 0.930 . S
C818 C817 1.378 1_455 S
C818 C819 1.388 1_554 S
C819 H806 0.930 . S
C819 C818 1.388 1_556 S
C819 C820 1.390 . S
C820 C819 1.390 . S
C820 C821 1.394 1_556 S
C820 C826 1.465 . S
C821 C816 1.399 1_455 S
C821 C820 1.394 1_554 S
C821 C822 1.516 1_455 S
C822 C821 1.516 1_655 S
C822 C823 1.502 1_554 S
C822 C824 1.561 . S
C822 C825 1.526 1_654 S
C823 H807 0.959 . S
C823 H808 0.959 . S
C823 H809 0.961 1_556 S
C823 C822 1.502 1_556 S
C824 H810 0.960 . S
C824 H811 0.961 . S
C824 H812 0.959 1_655 S
C824 C822 1.561 . S
C825 C822 1.526 1_456 S
C825 C826 1.396 . S
C825 C830 1.390 . S
C826 C820 1.465 . S
C826 C825 1.396 . S
C826 C827 1.399 . S
C827 H813 0.929 . S
C827 C826 1.399 . S
C827 C828 1.385 . S
C828 H814 0.931 . S
C828 C827 1.385 . S
C828 C829 1.389 . S
C829 C828 1.389 . S
C829 C830 1.387 . S
C830 H815 0.930 . S
C830 C825 1.390 . S
C830 C829 1.387 . S
H831 C843 0.932 . S
H832 C845 0.926 1_565 S
H833 C846 0.930 . S
H834 C850 0.959 . S
H835 C850 0.959 . S
H836 C850 0.961 . S
H837 C851 0.960 . S
H838 C851 0.961 . S
H839 C851 0.959 . S
H840 C854 0.929 . S
H841 C855 0.931 1_554 S
H842 C857 0.930 . S
C843 H831 0.932 . S
C843 C844 1.401 1_556 S
C843 C848 1.395 1_565 S
C844 C843 1.401 1_554 S
C844 C845 1.371 1_565 S
C845 H832 0.926 1_545 S
C845 C844 1.371 1_545 S
C845 C846 1.399 . S
C846 H833 0.930 . S
C846 C845 1.399 . S
C846 C847 1.390 . S
C847 C846 1.390 . S
C847 C848 1.394 1_554 S
C847 C853 1.465 . S
C848 C843 1.395 1_545 S
C848 C847 1.394 1_556 S
C848 C849 1.516 . S
C849 C848 1.516 . S
C849 C850 1.502 . S
C849 C851 1.561 1_545 S
C849 C852 1.526 . S
C850 H834 0.959 . S
C850 H835 0.959 . S
C850 H836 0.961 . S
C850 C849 1.502 . S
C851 H837 0.960 . S
C851 H838 0.961 . S
C851 H839 0.959 . S
C851 C849 1.561 1_565 S
C852 C849 1.526 . S
C852 C853 1.396 1_556 S
C852 C857 1.390 . S
C853 C847 1.465 . S
C853 C852 1.396 1_554 S
C853 C854 1.399 . S
C854 H840 0.929 . S
C854 C853 1.399 . S
C854 C855 1.385 1_554 S
C855 H841 0.931 1_556 S
C855 C854 1.385 1_556 S
C855 C856 1.389 . S
C856 C855 1.389 . S
C856 C857 1.387 . S
C857 H842 0.930 . S
C857 C852 1.390 . S
C857 C856 1.387 . S
H858 C870 0.930 . S
H859 C872 0.930 . S
H860 C873 0.930 . S
H861 C877 0.959 . S
H862 C877 0.959 . S
H863 C877 0.961 . S
H864 C878 0.960 . S
H865 C878 0.961 . S
H866 C878 0.959 . S
H867 C881 0.932 . S
H868 C882 0.931 . S
H869 C884 0.930 . S
C870 H858 0.930 . S
C870 C871 1.399 . S
C870 C875 1.399 . S
C871 C870 1.399 . S
C871 C872 1.376 . S
C872 H859 0.930 . S
C872 C871 1.376 . S
C872 C873 1.388 . S
C873 H860 0.930 . S
C873 C872 1.388 . S
C873 C874 1.390 . S
C874 C873 1.390 . S
C874 C875 1.394 . S
C874 C880 1.465 1_554 S
C875 C870 1.399 . S
C875 C874 1.394 . S
C875 C876 1.516 1_554 S
C876 C875 1.516 1_556 S
C876 C877 1.502 . S
C876 C878 1.561 1_556 S
C876 C879 1.526 . S
C877 H861 0.959 . S
C877 H862 0.959 . S
C877 H863 0.961 . S
C877 C876 1.502 . S
C878 H864 0.960 . S
C878 H865 0.961 . S
C878 H866 0.959 . S
C878 C876 1.561 1_554 S
C879 C876 1.526 . S
C879 C880 1.396 . S
C879 C884 1.390 . S
C880 C874 1.465 1_556 S
C880 C879 1.396 . S
C880 C881 1.399 . S
C881 H867 0.932 . S
C881 C880 1.399 . S
C881 C882 1.385 . S
C882 H868 0.931 . S
C882 C881 1.385 . S
C882 C883 1.389 . S
C883 C882 1.389 . S
C883 C884 1.387 . S
C884 H869 0.930 . S
C884 C879 1.390 . S
C884 C883 1.387 . S
H885 C897 0.930 1_556 S
H886 C899 0.930 . S
H887 C900 0.930 . S
H888 C904 0.959 . S
H889 C904 0.959 . S
H890 C904 0.961 . S
H891 C905 0.960 . S
H892 C905 0.961 . S
H893 C905 0.959 . S
H894 C908 0.929 . S
H895 C909 0.931 . S
H896 C911 0.930 . S
C897 H885 0.930 1_554 S
C897 C898 1.399 . S
C897 C902 1.399 1_554 S
C898 C897 1.399 . S
C898 C899 1.376 . S
C899 H886 0.930 . S
C899 C898 1.376 . S
C899 C900 1.388 . S
C900 H887 0.930 . S
C900 C899 1.388 . S
C900 C901 1.390 . S
C901 C900 1.390 . S
C901 C902 1.394 1_554 S
C901 C907 1.463 1_554 S
C902 C897 1.399 1_556 S
C902 C901 1.394 1_556 S
C902 C903 1.516 . S
C903 C902 1.516 . S
C903 C904 1.502 . S
C903 C905 1.561 . S
C903 C906 1.526 . S
C904 H888 0.959 . S
C904 H889 0.959 . S
C904 H890 0.961 . S
C904 C903 1.502 . S
C905 H891 0.960 . S
C905 H892 0.961 . S
C905 H893 0.959 . S
C905 C903 1.561 . S
C906 C903 1.526 . S
C906 C907 1.401 . S
C906 C911 1.390 . S
C907 C901 1.463 1_556 S
C907 C906 1.401 . S
C907 C908 1.397 1_556 S
C908 H894 0.929 . S
C908 C907 1.397 1_554 S
C908 C909 1.385 1_554 S
C909 H895 0.931 . S
C909 C908 1.385 1_556 S
C909 C910 1.389 . S
C910 C909 1.389 . S
C910 C911 1.387 . S
C911 H896 0.930 . S
C911 C906 1.390 . S
C911 C910 1.387 . S
H912 C924 0.930 . S
H913 C926 0.930 . S
H914 C927 0.930 . S
H915 C931 0.959 . S
H916 C931 0.959 . S
H917 C931 0.961 . S
H918 C932 0.960 . S
H919 C932 0.961 . S
H920 C932 0.959 . S
H921 C935 0.936 . S
H922 C936 0.931 . S
H923 C938 0.930 . S
C924 H912 0.930 . S
C924 C925 1.408 . S
C924 C929 1.399 . S
C925 C924 1.408 . S
C925 C926 1.367 1_455 S
C926 H913 0.930 . S
C926 C925 1.367 1_655 S
C926 C927 1.388 . S
C927 H914 0.930 . S
C927 C926 1.388 . S
C927 C928 1.391 1_655 S
C928 C927 1.391 1_455 S
C928 C929 1.393 . S
C928 C934 1.465 . S
C929 C924 1.399 . S
C929 C928 1.393 . S
C929 C930 1.516 . S
C930 C929 1.516 . S
C930 C931 1.502 . S
C930 C932 1.561 1_455 S
C930 C933 1.526 . S
C931 H915 0.959 . S
C931 H916 0.959 . S
C931 H917 0.961 . S
C931 C930 1.502 . S
C932 H918 0.960 . S
C932 H919 0.961 . S
C932 H920 0.959 . S
C932 C930 1.561 1_655 S
C933 C930 1.526 . S
C933 C934 1.396 . S
C933 C938 1.390 . S
C934 C928 1.465 . S
C934 C933 1.396 . S
C934 C935 1.396 1_455 S
C935 H921 0.936 . S
C935 C934 1.396 1_655 S
C935 C936 1.382 1_655 S
C936 H922 0.931 . S
C936 C935 1.382 1_455 S
C936 C937 1.389 . S
C937 C936 1.389 . S
C937 C938 1.387 . S
C938 H923 0.930 . S
C938 C933 1.390 . S
C938 C937 1.387 . S
H939 C951 0.930 . S
H940 C953 0.930 . S
H941 C954 0.930 . S
H942 C958 0.959 . S
H943 C958 0.959 . S
H944 C958 0.961 . S
H945 C959 0.960 . S
H946 C959 0.961 . S
H947 C959 0.959 . S
H948 C962 0.929 . S
H949 C963 0.931 . S
H950 C965 0.930 . S
C951 H939 0.930 . S
C951 C952 1.399 . S
C951 C956 1.399 . S
C952 C951 1.399 . S
C952 C953 1.376 1_545 S
C953 H940 0.930 . S
C953 C952 1.376 1_565 S
C953 C954 1.388 . S
C954 H941 0.930 . S
C954 C953 1.388 . S
C954 C955 1.390 . S
C955 C954 1.390 . S
C955 C956 1.394 1_565 S
C955 C961 1.465 . S
C956 C951 1.399 . S
C956 C955 1.394 1_545 S
C956 C957 1.516 . S
C957 C956 1.516 . S
C957 C958 1.502 . S
C957 C959 1.561 . S
C957 C960 1.526 . S
C958 H942 0.959 . S
C958 H943 0.959 . S
C958 H944 0.961 . S
C958 C957 1.502 . S
C959 H945 0.960 . S
C959 H946 0.961 . S
C959 H947 0.959 . S
C959 C957 1.561 . S
C960 C957 1.526 . S
C960 C961 1.396 1_545 S
C960 C965 1.390 . S
C961 C955 1.465 . S
C961 C960 1.396 1_565 S
C961 C962 1.399 . S
C962 H948 0.929 . S
C962 C961 1.399 . S
C962 C963 1.385 . S
C963 H949 0.931 . S
C963 C962 1.385 . S
C963 C964 1.389 1_565 S
C964 C963 1.389 1_545 S
C964 C965 1.387 . S
C965 H950 0.930 . S
C965 C960 1.390 . S
C965 C964 1.387 . S
H966 C978 0.930 . S
H967 C980 0.930 . S
H968 C981 0.930 . S
H969 C985 0.959 . S
H970 C985 0.959 . S
H971 C985 0.961 . S
H972 C986 0.960 . S
H973 C986 0.961 . S
H974 C986 0.959 . S
H975 C989 0.929 . S
H976 C990 0.931 . S
H977 C992 0.930 . S
C978 H966 0.930 . S
C978 C979 1.399 . S
C978 C983 1.399 . S
C979 C978 1.399 . S
C979 C980 1.376 . S
C980 H967 0.930 . S
C980 C979 1.376 . S
C980 C981 1.388 . S
C981 H968 0.930 . S
C981 C980 1.388 . S
C981 C982 1.390 . S
C982 C981 1.390 . S
C982 C983 1.394 . S
C982 C988 1.465 . S
C983 C978 1.399 . S
C983 C982 1.394 . S
C983 C984 1.516 . S
C984 C983 1.516 . S
C984 C985 1.502 . S
C984 C986 1.561 . S
C984 C987 1.526 . S
C985 H969 0.959 . S
C985 H970 0.959 . S
C985 H971 0.961 . S
C985 C984 1.502 . S
C986 H972 0.960 . S
C986 H973 0.961 . S
C986 H974 0.959 . S
C986 C984 1.561 . S
C987 C984 1.526 . S
C987 C988 1.396 . S
C987 C992 1.390 . S
C988 C982 1.465 . S
C988 C987 1.396 . S
C988 C989 1.399 . S
C989 H975 0.929 . S
C989 C988 1.399 . S
C989 C990 1.385 . S
C990 H976 0.931 . S
C990 C989 1.385 . S
C990 C991 1.389 . S
C991 C990 1.389 . S
C991 C992 1.387 . S
C992 H977 0.930 . S
C992 C987 1.390 . S
C992 C991 1.387 . S
H993 C1005 0.930 . S
H994 C1007 0.930 . S
H995 C1008 0.930 . S
H996 C1012 0.959 . S
H997 C1012 0.959 . S
H998 C1012 0.961 . S
H999 C1013 0.960 . S
H1000 C1013 0.961 . S
H1001 C1013 0.959 . S
H1002 C1016 0.929 . S
H1003 C1017 0.931 . S
H1004 C1019 0.930 . S
C1005 H993 0.930 . S
C1005 C1006 1.399 . S
C1005 C1010 1.399 . S
C1006 C1005 1.399 . S
C1006 C1007 1.376 . S
C1007 H994 0.930 . S
C1007 C1006 1.376 . S
C1007 C1008 1.388 . S
C1008 H995 0.930 . S
C1008 C1007 1.388 . S
C1008 C1009 1.390 . S
C1009 C1008 1.390 . S
C1009 C1010 1.394 . S
C1009 C1015 1.465 . S
C1010 C1005 1.399 . S
C1010 C1009 1.394 . S
C1010 C1011 1.516 . S
C1011 C1010 1.516 . S
C1011 C1012 1.502 . S
C1011 C1013 1.561 . S
C1011 C1014 1.526 . S
C1012 H996 0.959 . S
C1012 H997 0.959 . S
C1012 H998 0.961 . S
C1012 C1011 1.502 . S
C1013 H999 0.960 . S
C1013 H1000 0.961 . S
C1013 H1001 0.959 . S
C1013 C1011 1.561 . S
C1014 C1011 1.526 . S
C1014 C1015 1.396 . S
C1014 C1019 1.390 . S
C1015 C1009 1.465 . S
C1015 C1014 1.396 . S
C1015 C1016 1.399 . S
C1016 H1002 0.929 . S
C1016 C1015 1.399 . S
C1016 C1017 1.385 . S
C1017 H1003 0.931 . S
C1017 C1016 1.385 . S
C1017 C1018 1.389 . S
C1018 C1017 1.389 . S
C1018 C1019 1.387 . S
C1019 H1004 0.930 . S
C1019 C1014 1.390 . S
C1019 C1018 1.387 . S
H1020 C1032 0.925 1_455 S
H1021 C1034 0.930 . S
H1022 C1035 0.930 . S
H1023 C1039 0.959 . S
H1024 C1039 0.959 . S
H1025 C1039 0.961 . S
H1026 C1040 0.960 . S
H1027 C1040 0.961 . S
H1028 C1040 0.959 . S
H1029 C1043 0.929 . S
H1030 C1044 0.931 . S
H1031 C1046 0.930 . S
C1032 H1020 0.925 1_655 S
C1032 C1033 1.401 . S
C1032 C1037 1.401 . S
C1033 C1032 1.401 . S
C1033 C1034 1.376 . S
C1034 H1021 0.930 . S
C1034 C1033 1.376 . S
C1034 C1035 1.388 . S
C1035 H1022 0.930 . S
C1035 C1034 1.388 . S
C1035 C1036 1.390 . S
C1036 C1035 1.390 . S
C1036 C1037 1.394 . S
C1036 C1042 1.465 . S
C1037 C1032 1.401 . S
C1037 C1036 1.394 . S
C1037 C1038 1.516 . S
C1038 C1037 1.516 . S
C1038 C1039 1.502 1_655 S
C1038 C1040 1.561 . S
C1038 C1041 1.526 . S
C1039 H1023 0.959 . S
C1039 H1024 0.959 . S
C1039 H1025 0.961 . S
C1039 C1038 1.502 1_455 S
C1040 H1026 0.960 . S
C1040 H1027 0.961 . S
C1040 H1028 0.959 . S
C1040 C1038 1.561 . S
C1041 C1038 1.526 . S
C1041 C1042 1.396 . S
C1041 C1046 1.390 . S
C1042 C1036 1.465 . S
C1042 C1041 1.396 . S
C1042 C1043 1.399 . S
C1043 H1029 0.929 . S
C1043 C1042 1.399 . S
C1043 C1044 1.385 . S
C1044 H1030 0.931 . S
C1044 C1043 1.385 . S
C1044 C1045 1.389 . S
C1045 C1044 1.389 . S
C1045 C1046 1.387 . S
C1046 H1031 0.930 . S
C1046 C1041 1.390 . S
C1046 C1045 1.387 . S
H1047 C1059 0.930 . S
H1048 C1061 0.930 . S
H1049 C1062 0.930 . S
H1050 C1066 0.959 . S
H1051 C1066 0.959 . S
H1052 C1066 0.961 . S
H1053 C1067 0.960 . S
H1054 C1067 0.961 . S
H1055 C1067 0.959 . S
H1056 C1070 0.929 . S
H1057 C1071 0.931 . S
H1058 C1073 0.930 . S
C1059 H1047 0.930 . S
C1059 C1060 1.393 1_565 S
C1059 C1064 1.399 . S
C1060 C1059 1.393 1_545 S
C1060 C1061 1.383 . S
C1061 H1048 0.930 . S
C1061 C1060 1.383 . S
C1061 C1062 1.388 . S
C1062 H1049 0.930 . S
C1062 C1061 1.388 . S
C1062 C1063 1.390 . S
C1063 C1062 1.390 . S
C1063 C1064 1.394 1_545 S
C1063 C1069 1.465 . S
C1064 C1059 1.399 . S
C1064 C1063 1.394 1_565 S
C1064 C1065 1.516 . S
C1065 C1064 1.516 . S
C1065 C1066 1.502 . S
C1065 C1067 1.561 . S
C1065 C1068 1.526 . S
C1066 H1050 0.959 . S
C1066 H1051 0.959 . S
C1066 H1052 0.961 . S
C1066 C1065 1.502 . S
C1067 H1053 0.960 . S
C1067 H1054 0.961 . S
C1067 H1055 0.959 . S
C1067 C1065 1.561 . S
C1068 C1065 1.526 . S
C1068 C1069 1.396 1_565 S
C1068 C1073 1.390 . S
C1069 C1063 1.465 . S
C1069 C1068 1.396 1_545 S
C1069 C1070 1.399 . S
C1070 H1056 0.929 . S
C1070 C1069 1.399 . S
C1070 C1071 1.385 . S
C1071 H1057 0.931 . S
C1071 C1070 1.385 . S
C1071 C1072 1.389 1_545 S
C1072 C1071 1.389 1_565 S
C1072 C1073 1.387 . S
C1073 H1058 0.930 . S
C1073 C1068 1.390 . S
C1073 C1072 1.387 . S
H1074 C1086 0.930 . S
H1075 C1088 0.930 . S
H1076 C1089 0.930 . S
H1077 C1093 0.959 . S
H1078 C1093 0.959 . S
H1079 C1093 0.961 . S
H1080 C1094 0.960 . S
H1081 C1094 0.961 . S
H1082 C1094 0.959 . S
H1083 C1097 0.929 . S
H1084 C1098 0.931 . S
H1085 C1100 0.930 . S
C1086 H1074 0.930 . S
C1086 C1087 1.399 . S
C1086 C1091 1.399 . S
C1087 C1086 1.399 . S
C1087 C1088 1.376 . S
C1088 H1075 0.930 . S
C1088 C1087 1.376 . S
C1088 C1089 1.388 . S
C1089 H1076 0.930 . S
C1089 C1088 1.388 . S
C1089 C1090 1.390 . S
C1090 C1089 1.390 . S
C1090 C1091 1.394 . S
C1090 C1096 1.465 . S
C1091 C1086 1.399 . S
C1091 C1090 1.394 . S
C1091 C1092 1.516 . S
C1092 C1091 1.516 . S
C1092 C1093 1.502 . S
C1092 C1094 1.561 . S
C1092 C1095 1.526 . S
C1093 H1077 0.959 . S
C1093 H1078 0.959 . S
C1093 H1079 0.961 . S
C1093 C1092 1.502 . S
C1094 H1080 0.960 . S
C1094 H1081 0.961 . S
C1094 H1082 0.959 . S
C1094 C1092 1.561 . S
C1095 C1092 1.526 . S
C1095 C1096 1.396 . S
C1095 C1100 1.390 . S
C1096 C1090 1.465 . S
C1096 C1095 1.396 . S
C1096 C1097 1.399 . S
C1097 H1083 0.929 . S
C1097 C1096 1.399 . S
C1097 C1098 1.385 . S
C1098 H1084 0.931 . S
C1098 C1097 1.385 . S
C1098 C1099 1.389 . S
C1099 C1098 1.389 . S
C1099 C1100 1.387 . S
C1100 H1085 0.930 . S
C1100 C1095 1.390 . S
C1100 C1099 1.387 . S
H1101 C1113 0.930 . S
H1102 C1115 0.930 . S
H1103 C1116 0.930 . S
H1104 C1120 0.959 . S
H1105 C1120 0.959 . S
H1106 C1120 0.961 . S
H1107 C1121 0.960 . S
H1108 C1121 0.961 . S
H1109 C1121 0.959 . S
H1110 C1124 0.929 . S
H1111 C1125 0.931 . S
H1112 C1127 0.930 . S
C1113 H1101 0.930 . S
C1113 C1114 1.399 . S
C1113 C1118 1.399 . S
C1114 C1113 1.399 . S
C1114 C1115 1.376 . S
C1115 H1102 0.930 . S
C1115 C1114 1.376 . S
C1115 C1116 1.388 . S
C1116 H1103 0.930 . S
C1116 C1115 1.388 . S
C1116 C1117 1.390 . S
C1117 C1116 1.390 . S
C1117 C1118 1.394 . S
C1117 C1123 1.465 . S
C1118 C1113 1.399 . S
C1118 C1117 1.394 . S
C1118 C1119 1.516 . S
C1119 C1118 1.516 . S
C1119 C1120 1.502 . S
C1119 C1121 1.561 . S
C1119 C1122 1.526 . S
C1120 H1104 0.959 . S
C1120 H1105 0.959 . S
C1120 H1106 0.961 . S
C1120 C1119 1.502 . S
C1121 H1107 0.960 . S
C1121 H1108 0.961 . S
C1121 H1109 0.959 . S
C1121 C1119 1.561 . S
C1122 C1119 1.526 . S
C1122 C1123 1.396 . S
C1122 C1127 1.390 . S
C1123 C1117 1.465 . S
C1123 C1122 1.396 . S
C1123 C1124 1.399 . S
C1124 H1110 0.929 . S
C1124 C1123 1.399 . S
C1124 C1125 1.385 . S
C1125 H1111 0.931 . S
C1125 C1124 1.385 . S
C1125 C1126 1.389 . S
C1126 C1125 1.389 . S
C1126 C1127 1.387 . S
C1127 H1112 0.930 . S
C1127 C1122 1.390 . S
C1127 C1126 1.387 . S
C493 C255 2.255 . S
C505 C338 2.507 1_545 S
C532 C378 2.514 . S
C520 C295 2.306 . S
C559 C418 2.508 . S
C547 C175 2.326 . S
C586 C458 2.506 1_455 S
C574 C215 2.307 . S
C613 C328 2.510 1_565 S
C601 C95 2.254 1_565 S
C628 C135 2.314 . S
C640 C368 2.522 . S
C655 C15 2.273 . S
C667 C408 2.512 . S
C682 C55 2.263 1_655 S
C694 C448 2.513 1_655 S
C721 C325 0.503 . S
C709 C221 0.335 . S
C748 C365 0.384 . S
C736 C261 0.283 . S
C775 C405 0.427 . S
C763 C301 0.275 . S
C790 C181 0.405 . S
C802 C445 0.501 . S
C817 C61 0.397 1_655 S
C829 C335 0.484 . S
C856 C375 0.447 . S
C844 C101 0.446 1_565 S
C883 C415 0.505 . S
C871 C141 0.334 . S
C898 C21 0.366 . S
C910 C455 0.488 . S
C925 C202 3.152 . S
C937 C329 3.443 . S
C952 C242 3.079 . S
C964 C369 3.437 . S
C991 C409 3.422 . S
C979 C282 3.117 . S
C1018 C449 3.448 . S
C1006 C162 3.077 . S
C1033 C42 3.163 1_655 S
C1045 C339 3.464 . S
C1072 C379 3.431 . S
C1060 C82 3.116 . S
C1099 C419 3.437 . S
C1087 C122 3.135 . S
C1114 C2 3.115 . S
C1126 C459 3.450 . S
