# Generated by pormake.
# Topology gar, (4,6)-cn, num edge types: 1
# Building blocks:
#     Node 0, Type 0, BuildingBlock: KUFVIS_clean_sbu_0, # of connection points: 4
#     Node 1, Type 0, BuildingBlock: KUFVIS_clean_sbu_0, # of connection points: 4
#     Node 2, Type 0, BuildingBlock: KUFVIS_clean_sbu_0, # of connection points: 4
#     Node 3, Type 0, BuildingBlock: KUFVIS_clean_sbu_0, # of connection points: 4
#     Node 4, Type 0, BuildingBlock: KUFVIS_clean_sbu_0, # of connection points: 4
#     Node 5, Type 0, BuildingBlock: KUFVIS_clean_sbu_0, # of connection points: 4
#     Node 6, Type 0, BuildingBlock: KUFVIS_clean_sbu_0, # of connection points: 4
#     Node 7, Type 0, BuildingBlock: KUFVIS_clean_sbu_0, # of connection points: 4
#     Node 8, Type 0, BuildingBlock: KUFVIS_clean_sbu_0, # of connection points: 4
#     Node 9, Type 0, BuildingBlock: KUFVIS_clean_sbu_0, # of connection points: 4
#     Node 10, Type 0, BuildingBlock: KUFVIS_clean_sbu_0, # of connection points: 4
#     Node 11, Type 0, BuildingBlock: KUFVIS_clean_sbu_0, # of connection points: 4
#     Node 12, Type 0, BuildingBlock: KUFVIS_clean_sbu_0, # of connection points: 4
#     Node 13, Type 0, BuildingBlock: KUFVIS_clean_sbu_0, # of connection points: 4
#     Node 14, Type 0, BuildingBlock: KUFVIS_clean_sbu_0, # of connection points: 4
#     Node 15, Type 0, BuildingBlock: KUFVIS_clean_sbu_0, # of connection points: 4
#     Node 16, Type 0, BuildingBlock: KUFVIS_clean_sbu_0, # of connection points: 4
#     Node 17, Type 0, BuildingBlock: KUFVIS_clean_sbu_0, # of connection points: 4
#     Node 18, Type 0, BuildingBlock: KUFVIS_clean_sbu_0, # of connection points: 4
#     Node 19, Type 0, BuildingBlock: KUFVIS_clean_sbu_0, # of connection points: 4
#     Node 20, Type 0, BuildingBlock: KUFVIS_clean_sbu_0, # of connection points: 4
#     Node 21, Type 0, BuildingBlock: KUFVIS_clean_sbu_0, # of connection points: 4
#     Node 22, Type 0, BuildingBlock: KUFVIS_clean_sbu_0, # of connection points: 4
#     Node 23, Type 0, BuildingBlock: KUFVIS_clean_sbu_0, # of connection points: 4
#     Node 24, Type 1, BuildingBlock: BETDIP_clean_sbu_0, # of connection points: 6
#     Node 25, Type 1, BuildingBlock: BETDIP_clean_sbu_0, # of connection points: 6
#     Node 26, Type 1, BuildingBlock: BETDIP_clean_sbu_0, # of connection points: 6
#     Node 27, Type 1, BuildingBlock: BETDIP_clean_sbu_0, # of connection points: 6
#     Node 28, Type 1, BuildingBlock: BETDIP_clean_sbu_0, # of connection points: 6
#     Node 29, Type 1, BuildingBlock: BETDIP_clean_sbu_0, # of connection points: 6
#     Node 30, Type 1, BuildingBlock: BETDIP_clean_sbu_0, # of connection points: 6
#     Node 31, Type 1, BuildingBlock: BETDIP_clean_sbu_0, # of connection points: 6
#     Node 32, Type 1, BuildingBlock: BETDIP_clean_sbu_0, # of connection points: 6
#     Node 33, Type 1, BuildingBlock: BETDIP_clean_sbu_0, # of connection points: 6
#     Node 34, Type 1, BuildingBlock: BETDIP_clean_sbu_0, # of connection points: 6
#     Node 35, Type 1, BuildingBlock: BETDIP_clean_sbu_0, # of connection points: 6
#     Node 36, Type 1, BuildingBlock: BETDIP_clean_sbu_0, # of connection points: 6
#     Node 37, Type 1, BuildingBlock: BETDIP_clean_sbu_0, # of connection points: 6
#     Node 38, Type 1, BuildingBlock: BETDIP_clean_sbu_0, # of connection points: 6
#     Node 39, Type 1, BuildingBlock: BETDIP_clean_sbu_0, # of connection points: 6
#     Edge 40, Type (0, 1), BuildingBlock: XIVTED_clean_linker_0, # of connection points: 2
#     Edge 41, Type (0, 1), BuildingBlock: XIVTED_clean_linker_0, # of connection points: 2
#     Edge 42, Type (0, 1), BuildingBlock: XIVTED_clean_linker_0, # of connection points: 2
#     Edge 43, Type (0, 1), BuildingBlock: XIVTED_clean_linker_0, # of connection points: 2
#     Edge 44, Type (0, 1), BuildingBlock: XIVTED_clean_linker_0, # of connection points: 2
#     Edge 45, Type (0, 1), BuildingBlock: XIVTED_clean_linker_0, # of connection points: 2
#     Edge 46, Type (0, 1), BuildingBlock: XIVTED_clean_linker_0, # of connection points: 2
#     Edge 47, Type (0, 1), BuildingBlock: XIVTED_clean_linker_0, # of connection points: 2
#     Edge 48, Type (0, 1), BuildingBlock: XIVTED_clean_linker_0, # of connection points: 2
#     Edge 49, Type (0, 1), BuildingBlock: XIVTED_clean_linker_0, # of connection points: 2
#     Edge 50, Type (0, 1), BuildingBlock: XIVTED_clean_linker_0, # of connection points: 2
#     Edge 51, Type (0, 1), BuildingBlock: XIVTED_clean_linker_0, # of connection points: 2
#     Edge 52, Type (0, 1), BuildingBlock: XIVTED_clean_linker_0, # of connection points: 2
#     Edge 53, Type (0, 1), BuildingBlock: XIVTED_clean_linker_0, # of connection points: 2
#     Edge 54, Type (0, 1), BuildingBlock: XIVTED_clean_linker_0, # of connection points: 2
#     Edge 55, Type (0, 1), BuildingBlock: XIVTED_clean_linker_0, # of connection points: 2
#     Edge 56, Type (0, 1), BuildingBlock: XIVTED_clean_linker_0, # of connection points: 2
#     Edge 57, Type (0, 1), BuildingBlock: XIVTED_clean_linker_0, # of connection points: 2
#     Edge 58, Type (0, 1), BuildingBlock: XIVTED_clean_linker_0, # of connection points: 2
#     Edge 59, Type (0, 1), BuildingBlock: XIVTED_clean_linker_0, # of connection points: 2
#     Edge 60, Type (0, 1), BuildingBlock: XIVTED_clean_linker_0, # of connection points: 2
#     Edge 61, Type (0, 1), BuildingBlock: XIVTED_clean_linker_0, # of connection points: 2
#     Edge 62, Type (0, 1), BuildingBlock: XIVTED_clean_linker_0, # of connection points: 2
#     Edge 63, Type (0, 1), BuildingBlock: XIVTED_clean_linker_0, # of connection points: 2
#     Edge 64, Type (0, 1), BuildingBlock: XIVTED_clean_linker_0, # of connection points: 2
#     Edge 65, Type (0, 1), BuildingBlock: XIVTED_clean_linker_0, # of connection points: 2
#     Edge 66, Type (0, 1), BuildingBlock: XIVTED_clean_linker_0, # of connection points: 2
#     Edge 67, Type (0, 1), BuildingBlock: XIVTED_clean_linker_0, # of connection points: 2
#     Edge 68, Type (0, 1), BuildingBlock: XIVTED_clean_linker_0, # of connection points: 2
#     Edge 69, Type (0, 1), BuildingBlock: XIVTED_clean_linker_0, # of connection points: 2
#     Edge 70, Type (0, 1), BuildingBlock: XIVTED_clean_linker_0, # of connection points: 2
#     Edge 71, Type (0, 1), BuildingBlock: XIVTED_clean_linker_0, # of connection points: 2
#     Edge 72, Type (0, 1), BuildingBlock: XIVTED_clean_linker_0, # of connection points: 2
#     Edge 73, Type (0, 1), BuildingBlock: XIVTED_clean_linker_0, # of connection points: 2
#     Edge 74, Type (0, 1), BuildingBlock: XIVTED_clean_linker_0, # of connection points: 2
#     Edge 75, Type (0, 1), BuildingBlock: XIVTED_clean_linker_0, # of connection points: 2
#     Edge 76, Type (0, 1), BuildingBlock: XIVTED_clean_linker_0, # of connection points: 2
#     Edge 77, Type (0, 1), BuildingBlock: XIVTED_clean_linker_0, # of connection points: 2
#     Edge 78, Type (0, 1), BuildingBlock: XIVTED_clean_linker_0, # of connection points: 2
#     Edge 79, Type (0, 1), BuildingBlock: XIVTED_clean_linker_0, # of connection points: 2
#     Edge 80, Type (0, 1), BuildingBlock: XIVTED_clean_linker_0, # of connection points: 2
#     Edge 81, Type (0, 1), BuildingBlock: XIVTED_clean_linker_0, # of connection points: 2
#     Edge 82, Type (0, 1), BuildingBlock: XIVTED_clean_linker_0, # of connection points: 2
#     Edge 83, Type (0, 1), BuildingBlock: XIVTED_clean_linker_0, # of connection points: 2
#     Edge 84, Type (0, 1), BuildingBlock: XIVTED_clean_linker_0, # of connection points: 2
#     Edge 85, Type (0, 1), BuildingBlock: XIVTED_clean_linker_0, # of connection points: 2
#     Edge 86, Type (0, 1), BuildingBlock: XIVTED_clean_linker_0, # of connection points: 2
#     Edge 87, Type (0, 1), BuildingBlock: XIVTED_clean_linker_0, # of connection points: 2
#     Edge 88, Type (0, 1), BuildingBlock: XIVTED_clean_linker_0, # of connection points: 2
#     Edge 89, Type (0, 1), BuildingBlock: XIVTED_clean_linker_0, # of connection points: 2
#     Edge 90, Type (0, 1), BuildingBlock: XIVTED_clean_linker_0, # of connection points: 2
#     Edge 91, Type (0, 1), BuildingBlock: XIVTED_clean_linker_0, # of connection points: 2
#     Edge 92, Type (0, 1), BuildingBlock: XIVTED_clean_linker_0, # of connection points: 2
#     Edge 93, Type (0, 1), BuildingBlock: XIVTED_clean_linker_0, # of connection points: 2
#     Edge 94, Type (0, 1), BuildingBlock: XIVTED_clean_linker_0, # of connection points: 2
#     Edge 95, Type (0, 1), BuildingBlock: XIVTED_clean_linker_0, # of connection points: 2
#     Edge 96, Type (0, 1), BuildingBlock: XIVTED_clean_linker_0, # of connection points: 2
#     Edge 97, Type (0, 1), BuildingBlock: XIVTED_clean_linker_0, # of connection points: 2
#     Edge 98, Type (0, 1), BuildingBlock: XIVTED_clean_linker_0, # of connection points: 2
#     Edge 99, Type (0, 1), BuildingBlock: XIVTED_clean_linker_0, # of connection points: 2
#     Edge 100, Type (0, 1), BuildingBlock: XIVTED_clean_linker_0, # of connection points: 2
#     Edge 101, Type (0, 1), BuildingBlock: XIVTED_clean_linker_0, # of connection points: 2
#     Edge 102, Type (0, 1), BuildingBlock: XIVTED_clean_linker_0, # of connection points: 2
#     Edge 103, Type (0, 1), BuildingBlock: XIVTED_clean_linker_0, # of connection points: 2
#     Edge 104, Type (0, 1), BuildingBlock: XIVTED_clean_linker_0, # of connection points: 2
#     Edge 105, Type (0, 1), BuildingBlock: XIVTED_clean_linker_0, # of connection points: 2
#     Edge 106, Type (0, 1), BuildingBlock: XIVTED_clean_linker_0, # of connection points: 2
#     Edge 107, Type (0, 1), BuildingBlock: XIVTED_clean_linker_0, # of connection points: 2
#     Edge 108, Type (0, 1), BuildingBlock: XIVTED_clean_linker_0, # of connection points: 2
#     Edge 109, Type (0, 1), BuildingBlock: XIVTED_clean_linker_0, # of connection points: 2
#     Edge 110, Type (0, 1), BuildingBlock: XIVTED_clean_linker_0, # of connection points: 2
#     Edge 111, Type (0, 1), BuildingBlock: XIVTED_clean_linker_0, # of connection points: 2
#     Edge 112, Type (0, 1), BuildingBlock: XIVTED_clean_linker_0, # of connection points: 2
#     Edge 113, Type (0, 1), BuildingBlock: XIVTED_clean_linker_0, # of connection points: 2
#     Edge 114, Type (0, 1), BuildingBlock: XIVTED_clean_linker_0, # of connection points: 2
#     Edge 115, Type (0, 1), BuildingBlock: XIVTED_clean_linker_0, # of connection points: 2
#     Edge 116, Type (0, 1), BuildingBlock: XIVTED_clean_linker_0, # of connection points: 2
#     Edge 117, Type (0, 1), BuildingBlock: XIVTED_clean_linker_0, # of connection points: 2
#     Edge 118, Type (0, 1), BuildingBlock: XIVTED_clean_linker_0, # of connection points: 2
#     Edge 119, Type (0, 1), BuildingBlock: XIVTED_clean_linker_0, # of connection points: 2
#     Edge 120, Type (0, 1), BuildingBlock: XIVTED_clean_linker_0, # of connection points: 2
#     Edge 121, Type (0, 1), BuildingBlock: XIVTED_clean_linker_0, # of connection points: 2
#     Edge 122, Type (0, 1), BuildingBlock: XIVTED_clean_linker_0, # of connection points: 2
#     Edge 123, Type (0, 1), BuildingBlock: XIVTED_clean_linker_0, # of connection points: 2
#     Edge 124, Type (0, 1), BuildingBlock: XIVTED_clean_linker_0, # of connection points: 2
#     Edge 125, Type (0, 1), BuildingBlock: XIVTED_clean_linker_0, # of connection points: 2
#     Edge 126, Type (0, 1), BuildingBlock: XIVTED_clean_linker_0, # of connection points: 2
#     Edge 127, Type (0, 1), BuildingBlock: XIVTED_clean_linker_0, # of connection points: 2
#     Edge 128, Type (0, 1), BuildingBlock: XIVTED_clean_linker_0, # of connection points: 2
#     Edge 129, Type (0, 1), BuildingBlock: XIVTED_clean_linker_0, # of connection points: 2
#     Edge 130, Type (0, 1), BuildingBlock: XIVTED_clean_linker_0, # of connection points: 2
#     Edge 131, Type (0, 1), BuildingBlock: XIVTED_clean_linker_0, # of connection points: 2
#     Edge 132, Type (0, 1), BuildingBlock: XIVTED_clean_linker_0, # of connection points: 2
#     Edge 133, Type (0, 1), BuildingBlock: XIVTED_clean_linker_0, # of connection points: 2
#     Edge 134, Type (0, 1), BuildingBlock: XIVTED_clean_linker_0, # of connection points: 2
#     Edge 135, Type (0, 1), BuildingBlock: XIVTED_clean_linker_0, # of connection points: 2
# Relax obj value: 0.176
# Max RMSD: 0.301
# Mean RMSD: 0.147
data_MOF--net-gar--node1-KUFVIS_clean_sbu_0--node2-BETDIP_clean_sbu_0--edge1-XIVTED_clean_linker_0
_symmetry_space_group_name_H-M    P1
_symmetry_Int_Tables_number       1
_symmetry_cell_setting            triclinic
loop_
_symmetry_equiv_pos_as_xyz
'x, y, z'
_cell_length_a     63.158195
_cell_length_b     56.91119
_cell_length_c     55.715249
_cell_angle_alpha  97.038968
_cell_angle_beta   98.550217
_cell_angle_gamma 101.09126
loop_
_atom_site_label
_atom_site_type_symbol
_atom_site_fract_x
_atom_site_fract_y
_atom_site_fract_z
_atom_type_partial_charge
Mn0 Mn 0.03354 0.30233 0.39935 0.0
Mn1 Mn 1.01475 0.3333 0.35594 0.0
C2 C 0.9965 0.29776 0.38777 0.0
C3 C 0.04833 0.27047 0.41073 0.0
C4 C 0.03326 0.35584 0.40899 0.0
O5 O 0.05975 0.31367 0.38386 0.0
O6 O 0.0447 0.32881 0.35165 0.0
C7 C 1.01105 0.29716 0.31163 0.0
N8 N 1.00165 0.31172 0.32608 0.0
C9 C 0.96692 0.29892 0.29865 0.0
C10 C 0.97628 0.28394 0.28338 0.0
C11 C 0.99842 0.283 0.28995 0.0
C12 C 0.98031 0.3126 0.32004 0.0
H13 H 0.02805 0.29632 0.31661 0.0
C14 C 0.0606 0.32163 0.36359 0.0
O15 O 0.05237 0.2912 0.42494 0.0
O16 O 0.03527 0.26796 0.38976 0.0
N17 N 0.98579 0.33845 0.35722 0.0
C18 C 0.97896 0.3531 0.37437 0.0
C19 C 0.95713 0.35579 0.37068 0.0
C20 C 0.94257 0.34361 0.3493 0.0
C21 C 0.94999 0.32885 0.33178 0.0
C22 C 0.97198 0.32699 0.33638 0.0
H23 H 0.99002 0.36259 0.39081 0.0
O24 O 1.00437 0.29174 0.40848 0.0
O25 O 1.01051 0.30545 0.37401 0.0
O26 O 0.03557 0.33616 0.41644 0.0
O27 O 0.02713 0.35732 0.38638 0.0
C28 C 0.93631 0.31558 0.31015 0.0
C29 C 0.94475 0.30055 0.29364 0.0
H30 H 0.96659 0.27295 0.26666 0.0
H31 H 1.00574 0.27139 0.27832 0.0
H32 H 0.95153 0.3672 0.3843 0.0
H33 H 0.92569 0.34558 0.34662 0.0
H34 H 0.9192 0.31652 0.30621 0.0
H35 H 0.934 0.29017 0.27725 0.0
Mn36 Mn 0.07817 0.76003 0.71591 0.0
Mn37 Mn 0.10517 0.79537 0.76857 0.0
C38 C 0.11524 0.77494 0.72087 0.0
C39 C 0.06564 0.72284 0.69065 0.0
C40 C 0.07992 0.81458 0.72849 0.0
O41 O 0.05608 0.7538 0.73849 0.0
O42 O 0.07421 0.78115 0.77127 0.0
C43 C 0.10581 0.75513 0.79752 0.0
N44 N 0.1168 0.77419 0.78855 0.0
C45 C 0.15166 0.76709 0.80649 0.0
C46 C 0.14069 0.74746 0.81602 0.0
C47 C 0.11767 0.74147 0.81151 0.0
C48 C 0.13896 0.78011 0.79278 0.0
H49 H 0.08812 0.75033 0.79397 0.0
C50 C 0.05704 0.76575 0.75969 0.0
O51 O 0.05699 0.74126 0.68663 0.0
O52 O 0.08022 0.7256 0.71037 0.0
N53 N 0.13511 0.81034 0.76891 0.0
C54 C 0.14318 0.83012 0.75889 0.0
C55 C 0.16596 0.83858 0.76183 0.0
C56 C 0.18019 0.82676 0.77521 0.0
C57 C 0.17148 0.80685 0.78591 0.0
C58 C 0.14864 0.79941 0.7826 0.0
H59 H 0.13231 0.83915 0.74845 0.0
O60 O 0.10349 0.76842 0.69912 0.0
O61 O 0.10499 0.77223 0.73937 0.0
O62 O 0.07202 0.79388 0.71529 0.0
O63 O 0.09401 0.81804 0.7483 0.0
C64 C 0.18456 0.79392 0.79952 0.0
C65 C 0.17468 0.77409 0.80984 0.0
H66 H 0.14979 0.73682 0.82673 0.0
H67 H 0.10909 0.72629 0.81873 0.0
H68 H 0.17255 0.85406 0.75363 0.0
H69 H 0.19776 0.83316 0.77721 0.0
H70 H 0.20223 0.79896 0.80196 0.0
H71 H 0.18495 0.76429 0.82024 0.0
Mn72 Mn 0.52774 0.80423 0.89851 0.0
Mn73 Mn 0.50673 0.83109 0.85248 0.0
C74 C 0.4906 0.79975 0.889 0.0
C75 C 0.54258 0.77335 0.91245 0.0
C76 C 0.52545 0.85761 0.90411 0.0
O77 O 0.55313 0.81376 0.88136 0.0
O78 O 0.53751 0.82853 0.84924 0.0
C79 C 0.50522 0.79185 0.81164 0.0
N80 N 0.49481 0.80676 0.82431 0.0
C81 C 0.46032 0.78922 0.79756 0.0
C82 C 0.47074 0.77391 0.78406 0.0
C83 C 0.49326 0.77517 0.79119 0.0
C84 C 0.47307 0.80544 0.81781 0.0
H85 H 0.52248 0.79258 0.81716 0.0
C86 C 0.55386 0.8223 0.86142 0.0
O87 O 0.54743 0.79507 0.92486 0.0
O88 O 0.52905 0.76948 0.89166 0.0
N89 N 0.47712 0.83467 0.85223 0.0
C90 C 0.46951 0.85082 0.86704 0.0
C91 C 0.44729 0.85196 0.86228 0.0
C92 C 0.43317 0.83675 0.84214 0.0
C93 C 0.44143 0.82066 0.82683 0.0
C94 C 0.46378 0.82048 0.83235 0.0
H95 H 0.48025 0.86268 0.88248 0.0
O96 O 0.49954 0.79532 0.91001 0.0
O97 O 0.50358 0.80541 0.87342 0.0
O98 O 0.53009 0.83916 0.91264 0.0
O99 O 0.51768 0.85725 0.88144 0.0
C100 C 0.42833 0.80469 0.80638 0.0
C101 C 0.43775 0.78889 0.79182 0.0
H102 H 0.46157 0.76101 0.76828 0.0
H103 H 0.50139 0.76328 0.78098 0.0
H104 H 0.44106 0.86451 0.87413 0.0
H105 H 0.41602 0.83759 0.8386 0.0
H106 H 0.41097 0.80428 0.80178 0.0
H107 H 0.42747 0.77656 0.77626 0.0
Mn108 Mn 0.56728 0.24636 0.20816 0.0
Mn109 Mn 0.52391 0.21282 0.1679 0.0
C110 C 0.5668 0.20667 0.19271 0.0
C111 C 0.60218 0.27112 0.21513 0.0
C112 C 0.52287 0.22836 0.22189 0.0
O113 O 0.55205 0.27167 0.19481 0.0
O114 O 0.52552 0.24762 0.1653 0.0
C115 C 0.53793 0.22176 0.12085 0.0
N116 N 0.53182 0.20602 0.13636 0.0
C117 C 0.53517 0.17202 0.10799 0.0
C118 C 0.54144 0.18787 0.09168 0.0
C119 C 0.54286 0.21284 0.09817 0.0
C120 C 0.5304 0.18195 0.13031 0.0
H121 H 0.5391 0.24098 0.12581 0.0
C122 C 0.53603 0.26853 0.17687 0.0
O123 O 0.59002 0.27097 0.23205 0.0
O124 O 0.59345 0.2582 0.19396 0.0
N125 N 0.52145 0.17889 0.169 0.0
C126 C 0.51653 0.16628 0.18743 0.0
C127 C 0.51518 0.14113 0.18422 0.0
C128 C 0.51888 0.12921 0.1621 0.0
C129 C 0.52392 0.14257 0.14339 0.0
C130 C 0.52492 0.16758 0.14759 0.0
H131 H 0.51372 0.17536 0.20448 0.0
O132 O 0.579 0.21661 0.2137 0.0
O133 O 0.55459 0.21989 0.18274 0.0
O134 O 0.5432 0.23814 0.22858 0.0
O135 O 0.51429 0.21862 0.1998 0.0
C136 C 0.52834 0.13214 0.1209 0.0
C137 C 0.53391 0.14684 0.10319 0.0
H138 H 0.54539 0.18109 0.07423 0.0
H139 H 0.54779 0.2252 0.08573 0.0
H140 H 0.51134 0.13094 0.19877 0.0
H141 H 0.51794 0.10983 0.15975 0.0
H142 H 0.52776 0.11286 0.11715 0.0
H143 H 0.53752 0.13866 0.08609 0.0
Mn144 Mn 0.09128 0.80409 0.16596 0.0
Mn145 Mn 0.05198 0.78568 0.11508 0.0
C146 C 0.08059 0.76294 0.14831 0.0
C147 C 0.12829 0.81509 0.187 0.0
C148 C 0.04131 0.79739 0.16604 0.0
O149 O 0.09038 0.83675 0.15238 0.0
O150 O 0.0637 0.8213 0.11959 0.0
C151 C 0.08062 0.79602 0.07842 0.0
N152 N 0.0659 0.78009 0.08733 0.0
C153 C 0.06672 0.74772 0.05557 0.0
C154 C 0.08179 0.76382 0.04598 0.0
C155 C 0.08879 0.78806 0.05748 0.0
C156 C 0.05913 0.7567 0.07646 0.0
H157 H 0.08611 0.81464 0.08724 0.0
C158 C 0.07751 0.8393 0.13306 0.0
O159 O 0.11215 0.81999 0.19722 0.0
O160 O 0.12325 0.80606 0.16383 0.0
N161 N 0.03917 0.7517 0.10806 0.0
C162 C 0.02464 0.73846 0.11967 0.0
C163 C 0.01604 0.71382 0.11045 0.0
C164 C 0.02229 0.70311 0.08929 0.0
C165 C 0.03691 0.71722 0.07737 0.0
C166 C 0.04476 0.74175 0.08726 0.0
H167 H 0.01975 0.74658 0.13593 0.0
O168 O 0.08939 0.76938 0.17128 0.0
O169 O 0.07796 0.78066 0.13627 0.0
O170 O 0.06127 0.80386 0.17715 0.0
O171 O 0.0361 0.79026 0.14285 0.0
C172 C 0.04418 0.70784 0.05622 0.0
C173 C 0.05913 0.72307 0.04537 0.0
H174 H 0.08818 0.75774 0.02986 0.0
H175 H 0.10048 0.80057 0.05024 0.0
H176 H 1.0047 0.70308 0.11971 0.0
H177 H 1.01581 0.68404 0.08239 0.0
H178 H 0.03851 0.6889 0.04827 0.0
H179 H 0.06473 0.71561 0.02923 0.0
Mn180 Mn 0.51255 0.76266 0.44441 0.0
Mn181 Mn 0.50695 0.79194 0.39483 0.0
C182 C 0.47739 0.76298 0.42311 0.0
C183 C 0.51761 0.72822 0.46333 0.0
C184 C 0.51632 0.81834 0.44717 0.0
O185 O 0.54354 0.76745 0.43542 0.0
O186 O 0.53747 0.78759 0.40366 0.0
C187 C 0.51362 0.75207 0.35923 0.0
N188 N 0.50133 0.76813 0.36599 0.0
C189 C 0.47474 0.75403 0.32883 0.0
C190 C 0.48719 0.73745 0.3214 0.0
C191 C 0.50666 0.7364 0.33672 0.0
C192 C 0.4824 0.76903 0.35156 0.0
H193 H 0.52861 0.75121 0.37093 0.0
C194 C 0.55006 0.77843 0.41826 0.0
O195 O 0.52262 0.75004 0.47547 0.0
O196 O 0.50981 0.72622 0.44006 0.0
N197 N 0.47874 0.79803 0.38307 0.0
C198 C 0.46884 0.81536 0.39266 0.0
C199 C 0.44947 0.81924 0.37931 0.0
C200 C 0.44058 0.80546 0.35608 0.0
C201 C 0.45126 0.78806 0.34633 0.0
C202 C 0.4707 0.78525 0.36035 0.0
H203 H 0.47555 0.82599 0.41048 0.0
O204 O 0.48024 0.75847 0.4455 0.0
O205 O 0.49505 0.76651 0.41336 0.0
O206 O 0.51765 0.79959 0.45748 0.0
O207 O 0.51204 0.81744 0.42385 0.0
C208 C 0.44334 0.77331 0.3233 0.0
C209 C 0.45499 0.75619 0.31463 0.0
H210 H 0.48191 0.72539 0.30401 0.0
H211 H 0.51632 0.7236 0.33116 0.0
H212 H 0.44135 0.83273 0.38696 0.0
H213 H 0.42551 0.80831 0.34595 0.0
H214 H 0.42823 0.7749 0.31217 0.0
H215 H 0.44866 0.74484 0.29697 0.0
Mn216 Mn 0.58865 0.30227 0.665 0.0
Mn217 Mn 0.54812 0.28344 0.6153 0.0
C218 C 0.57763 0.26107 0.64792 0.0
C219 C 0.62616 0.31338 0.68429 0.0
C220 C 0.53903 0.29613 0.6669 0.0
O221 O 0.58719 0.33458 0.65103 0.0
O222 O 0.56 0.31896 0.61873 0.0
C223 C 0.57541 0.29241 0.57713 0.0
N224 N 0.56106 0.27694 0.58696 0.0
C225 C 0.56091 0.24375 0.55563 0.0
C226 C 0.57557 0.25937 0.54509 0.0
C227 C 0.58287 0.2838 0.55591 0.0
C228 C 0.55399 0.25338 0.57674 0.0
H229 H 0.58115 0.31117 0.58543 0.0
C230 C 0.57409 0.33696 0.63181 0.0
O231 O 0.61062 0.31861 0.69542 0.0
O232 O 0.62018 0.30394 0.66129 0.0
N233 N 0.53517 0.24949 0.60941 0.0
C234 C 0.52124 0.23673 0.62201 0.0
C235 C 0.5125 0.21196 0.61362 0.0
C236 C 0.51802 0.20062 0.59228 0.0
C237 C 0.53207 0.21423 0.57938 0.0
C238 C 0.54009 0.23891 0.58847 0.0
H239 H 0.51692 0.24532 0.63842 0.0
O240 O 0.58707 0.26772 0.67067 0.0
O241 O 0.57454 0.27862 0.63583 0.0
O242 O 0.55918 0.3023 0.67745 0.0
O243 O 0.53322 0.28897 0.64376 0.0
C244 C 0.53864 0.2042 0.55803 0.0
C245 C 0.55309 0.21894 0.5462 0.0
H246 H 0.58143 0.25278 0.52878 0.0
H247 H 0.59426 0.29594 0.54795 0.0
H248 H 0.50161 0.2016 0.62365 0.0
H249 H 0.51144 0.18145 0.58603 0.0
H250 H 0.53283 0.18513 0.55067 0.0
H251 H 0.55818 0.21098 0.52992 0.0
Mn252 Mn 1.01257 0.26466 0.945 0.0
Mn253 Mn 1.00474 0.29238 0.89465 0.0
C254 C 0.97682 0.2653 0.92573 0.0
C255 C 0.01817 0.23067 0.96452 0.0
C256 C 0.01678 0.32025 0.94642 0.0
O257 O 0.04264 0.26814 0.93376 0.0
O258 O 0.03533 0.28775 0.90192 0.0
C259 C 1.0094 0.25127 0.85917 0.0
N260 N 0.99766 0.26776 0.86636 0.0
C261 C 0.96946 0.25292 0.8307 0.0
C262 C 0.98132 0.23589 0.82282 0.0
C263 C 1.00133 0.235 0.83718 0.0
C264 C 0.97823 0.26853 0.85287 0.0
H265 H 0.02479 0.25052 0.87012 0.0
C266 C 0.04842 0.27866 0.916 0.0
O267 O 0.02449 0.25281 0.97584 0.0
O268 O 1.00874 0.22814 0.94171 0.0
N269 N 0.97632 0.29863 0.88426 0.0
C270 C 0.9671 0.31646 0.89414 0.0
C271 C 0.94731 0.32024 0.88169 0.0
C272 C 0.9373 0.30585 0.85906 0.0
C273 C 0.94728 0.28794 0.84898 0.0
C274 C 0.96718 0.28525 0.86207 0.0
H275 H 0.97467 0.32757 0.9115 0.0
O276 O 0.98077 0.2616 0.94834 0.0
O277 O 0.99372 0.26792 0.91466 0.0
O278 O 0.01877 0.30187 0.95711 0.0
O279 O 1.01126 0.31866 0.92313 0.0
C280 C 0.93823 0.27258 0.82651 0.0
C281 C 0.94924 0.25498 0.81745 0.0
H282 H 0.97519 0.22336 0.80583 0.0
H283 H 1.01054 0.22184 0.83128 0.0
H284 H 0.93973 0.33414 0.88958 0.0
H285 H 0.92191 0.30865 0.84963 0.0
H286 H 0.92276 0.27407 0.81612 0.0
H287 H 0.94206 0.24316 0.80024 0.0
Mn288 Mn 0.42754 0.05256 0.28517 0.0
Mn289 Mn 0.38715 0.04535 0.3206 0.0
C290 C 0.40787 1.01163 0.29024 0.0
C291 C 0.4444 0.05451 0.24574 0.0
C292 C 0.43627 0.05765 0.3442 0.0
O293 O 0.41651 0.08773 0.28741 0.0
O294 O 0.39054 0.07866 0.31038 0.0
C295 C 0.34999 0.04576 0.28133 0.0
N296 N 0.35918 0.0349 0.29946 0.0
C297 C 0.32754 1.002 0.29196 0.0
C298 C 0.31757 1.01313 0.2736 0.0
C299 C 0.32891 0.03503 0.26816 0.0
C300 C 0.3486 1.01354 0.30446 0.0
H301 H 0.35872 0.06239 0.27678 0.0
C302 C 0.40053 0.09366 0.29812 0.0
O303 O 0.45484 0.06279 0.26788 0.0
O304 O 0.42364 0.04679 0.24597 0.0
N305 N 0.38056 1.0147 0.33189 0.0
C306 C 0.3926 1.0059 0.34974 0.0
C307 C 0.38366 0.98394 0.3571 0.0
C308 C 0.36235 0.97135 0.34628 0.0
C309 C 0.3501 0.98094 0.32833 0.0
C310 C 0.35978 1.00305 0.32191 0.0
H311 H 0.40896 0.01542 0.35826 0.0
O312 O 0.42711 0.01568 0.28407 0.0
O313 O 0.40052 0.03155 0.29334 0.0
O314 O 0.44322 0.0585 0.32344 0.0
O315 O 0.41568 0.05479 0.3448 0.0
C316 C 0.32874 0.96927 0.31635 0.0
C317 C 0.31752 0.97972 0.29808 0.0
H318 H 0.30133 1.00488 0.26336 0.0
H319 H 0.32145 0.04358 0.25379 0.0
H320 H 0.39321 0.97671 0.37104 0.0
H321 H 0.3556 0.95428 0.35182 0.0
H322 H 0.32092 0.95208 0.32082 0.0
H323 H 0.30124 0.9704 0.28874 0.0
Mn324 Mn 0.26639 0.17676 0.53751 0.0
Mn325 Mn 0.25077 0.12912 0.49157 0.0
C326 C 0.22941 0.15571 0.52715 0.0
C327 C 0.27785 0.19389 0.57951 0.0
C328 C 0.26376 0.18142 0.48234 0.0
O329 O 0.29556 0.16582 0.53458 0.0
O330 O 0.28244 0.13287 0.50532 0.0
C331 C 0.25598 0.08867 0.51912 0.0
N332 N 0.24301 0.09951 0.50425 0.0
C333 C 0.21163 0.06729 0.50241 0.0
C334 C 0.22468 0.05575 0.51762 0.0
C335 C 0.24695 0.0665 0.52601 0.0
C336 C 0.2216 0.08923 0.49591 0.0
H337 H 0.27307 0.09691 0.52573 0.0
C338 C 0.29812 0.1469 0.52106 0.0
O339 O 0.28096 0.20654 0.56201 0.0
O340 O 0.26901 0.17105 0.57271 0.0
N341 N 0.22032 0.12366 0.47758 0.0
C342 C 0.20961 0.13811 0.46479 0.0
C343 C 0.18697 0.13053 0.45603 0.0
C344 C 0.1756 0.10821 0.46052 0.0
C345 C 0.18697 0.09366 0.47376 0.0
C346 C 0.20956 0.10207 0.48186 0.0
H347 H 0.21824 0.15537 0.46145 0.0
O348 O 0.2345 0.17821 0.53757 0.0
O349 O 0.24599 0.14684 0.52207 0.0
O350 O 0.26673 0.19118 0.50487 0.0
O351 O 0.25803 0.15846 0.47574 0.0
C352 C 0.17667 0.07143 0.47975 0.0
C353 C 0.189 0.05823 0.49401 0.0
H354 H 0.21773 0.03877 0.52319 0.0
H355 H 0.2571 0.05776 0.53785 0.0
H356 H 0.17829 0.14192 0.44595 0.0
H357 H 0.1581 0.10254 0.45395 0.0
H358 H 0.15921 0.06451 0.4738 0.0
H359 H 0.18084 0.04135 0.4988 0.0
Mn360 Mn 0.15395 0.07074 0.83103 0.0
Mn361 Mn 0.19766 0.08525 0.87734 0.0
C362 C 0.17433 0.11088 0.84257 0.0
C363 C 0.13875 0.05975 0.78857 0.0
C364 C 0.15076 0.07273 0.88638 0.0
O365 O 0.16247 0.03789 0.83336 0.0
O366 O 0.19176 0.05021 0.86412 0.0
C367 C 0.23168 0.07668 0.84805 0.0
N368 N 0.22378 0.09184 0.8636 0.0
C369 C 0.25449 0.12456 0.86452 0.0
C370 C 0.26301 0.10927 0.84861 0.0
C371 C 0.25152 0.08525 0.84029 0.0
C372 C 0.23462 0.11503 0.87157 0.0
H373 H 0.2229 0.05822 0.84157 0.0
C374 C 0.17858 0.0338 0.84799 0.0
O375 O 0.12698 0.05564 0.80545 0.0
O376 O 0.15932 0.06948 0.79632 0.0
N377 N 0.20517 0.11886 0.89127 0.0
C378 C 0.19418 0.1316 0.90554 0.0
C379 C 0.20333 0.15606 0.9151 0.0
C380 C 0.2237 0.16712 0.90999 0.0
C381 C 0.23474 0.15362 0.89533 0.0
C382 C 0.22487 0.12928 0.8864 0.0
H383 H 0.17854 0.12317 0.90955 0.0
O384 O 0.154 0.10659 0.83171 0.0
O385 O 0.18135 0.09178 0.84729 0.0
O386 O 0.1416 0.06921 0.86369 0.0
O387 O 0.17153 0.0792 0.89336 0.0
C388 C 0.25502 0.16341 0.88897 0.0
C389 C 0.26481 0.14896 0.87343 0.0
H390 H 0.27829 0.11582 0.84255 0.0
H391 H 0.25794 0.07336 0.82792 0.0
H392 H 0.19469 0.16638 0.92637 0.0
H393 H 0.23064 0.18603 0.91728 0.0
H394 H 0.26312 0.18213 0.89574 0.0
H395 H 0.28022 0.15682 0.86834 0.0
Mn396 Mn 0.25513 0.89304 0.9875 0.0
Mn397 Mn 0.25447 0.93403 0.94874 0.0
C398 C 0.28742 0.91229 0.97736 0.0
C399 C 0.2559 0.88212 0.02617 0.0
C400 C 0.23935 0.87984 0.93243 0.0
O401 O 0.22562 0.90188 0.98789 0.0
O402 O 0.22833 0.93195 0.96488 0.0
C403 C 0.2601 0.97886 0.98434 0.0
N404 N 0.26721 0.96593 0.9661 0.0
C405 C 0.29814 0.9985 0.96731 0.0
C406 C 0.29107 1.0122 0.986 0.0
C407 C 0.27198 1.00232 0.99456 0.0
C408 C 0.28553 0.97529 0.95767 0.0
H409 H 0.24551 0.9713 0.99109 0.0
C410 C 0.21856 0.91911 0.979 0.0
O411 O 0.24743 0.86662 1.00643 0.0
O412 O 0.26385 0.9043 0.02354 0.0
N413 N 0.27944 0.93788 0.93271 0.0
C414 C 0.28479 0.92176 0.91567 0.0
C415 C 0.30373 0.92862 0.90562 0.0
C416 C 0.31703 0.95193 0.91324 0.0
C417 C 0.31121 0.9682 0.93081 0.0
C418 C 0.29197 0.96046 0.93993 0.0
H419 H 0.27476 0.90376 0.90989 0.0
O420 O 0.28622 0.89163 0.98531 0.0
O421 O 0.26971 0.92079 0.97551 0.0
O422 O 0.24464 0.87403 0.95339 0.0
O423 O 0.24152 0.9018 0.92869 0.0
C424 C 0.32398 0.99162 0.93999 0.0
C425 C 0.31746 1.00675 0.95824 0.0
H426 H 0.30028 0.03024 0.99407 0.0
H427 H 0.26648 1.01274 1.00907 0.0
H428 H 0.30815 0.91592 0.89213 0.0
H429 H 0.33177 0.95706 0.90566 0.0
H430 H 0.339 0.99806 0.93338 0.0
H431 H 0.32758 0.02459 0.96539 0.0
Mn432 Mn 0.3359 0.40283 0.08436 0.0
Mn433 Mn 0.34857 0.45199 0.05591 0.0
C434 C 0.37292 0.42062 0.08353 0.0
C435 C 0.32854 0.38417 0.11938 0.0
C436 C 0.33199 0.40067 0.02791 0.0
O437 O 0.30697 0.41561 0.08098 0.0
O438 O 0.31855 0.44835 0.06368 0.0
C439 C 0.34921 0.48949 0.09803 0.0
N440 N 0.35922 0.48035 0.08011 0.0
C441 C 0.39057 0.51355 0.0918 0.0
C442 C 0.3805 0.52346 0.11022 0.0
C443 C 0.35977 0.51131 0.11342 0.0
C444 C 0.37929 0.4917 0.07711 0.0
H445 H 0.33331 0.48018 0.10059 0.0
C446 C 0.30389 0.43496 0.07256 0.0
O447 O 0.32198 0.37292 0.09704 0.0
O448 O 0.33884 0.40661 0.12151 0.0
N449 N 0.3771 0.45858 0.04717 0.0
C450 C 0.38491 0.44623 0.02911 0.0
C451 C 0.40548 0.45592 0.02358 0.0
C452 C 0.41774 0.47832 0.03648 0.0
C453 C 0.40928 0.49084 0.05481 0.0
C454 C 0.38859 0.48039 0.05935 0.0
H455 H 0.37563 0.42899 0.01916 0.0
O456 O 0.36728 0.3984 0.08729 0.0
O457 O 0.35693 0.43194 0.08063 0.0
O458 O 0.33001 0.3902 0.0468 0.0
O459 O 0.33843 0.42362 0.02944 0.0
C460 C 0.42075 0.51308 0.06903 0.0
C461 C 0.41145 0.52435 0.08762 0.0
H462 H 0.38858 0.54029 0.12212 0.0
H463 H 0.35196 0.51876 0.1277 0.0
H464 H 0.41192 0.44609 1.00946 0.0
H465 H 0.4337 0.48562 0.03234 0.0
H466 H 0.43686 0.52149 0.06608 0.0
H467 H 0.42056 0.54127 0.09867 0.0
Mn468 Mn 0.81845 0.16475 0.10918 0.0
Mn469 Mn 0.78187 0.11421 0.08009 0.0
C470 C 0.78682 0.15182 0.12422 0.0
C471 C 0.8484 0.18626 0.13811 0.0
C472 C 0.78594 0.16227 0.06179 0.0
O473 O 0.83656 0.14819 0.08798 0.0
O474 O 0.81079 0.1151 0.0699 0.0
C475 C 0.80268 0.07853 0.1038 0.0
N476 N 0.78481 0.08824 0.09817 0.0
C477 C 0.76278 0.0593 0.11739 0.0
C478 C 0.78092 0.04891 0.12331 0.0
C479 C 0.80098 0.05864 0.11657 0.0
C480 C 0.76551 0.0792 0.10481 0.0
H481 H 0.81809 0.08589 0.09856 0.0
C482 C 0.83022 0.12818 0.07323 0.0
O483 O 0.8418 0.19448 0.11826 0.0
O484 O 0.83875 0.16442 0.14011 0.0
N485 N 0.7531 0.11062 0.08807 0.0
C486 C 0.73738 0.1232 0.08161 0.0
C487 C 0.71637 0.11592 0.08722 0.0
C488 C 0.71163 0.09558 0.09901 0.0
C489 C 0.72799 0.08275 0.10518 0.0
C490 C 0.74863 0.09086 0.09916 0.0
H491 H 0.74086 0.13867 0.07228 0.0
O492 O 0.79706 0.17435 0.12942 0.0
O493 O 0.79525 0.13744 0.11024 0.0
O494 O 0.80145 0.17356 0.07895 0.0
O495 O 0.77718 0.13985 0.06014 0.0
C496 C 0.72471 0.06237 0.1173 0.0
C497 C 0.74213 0.05077 0.12358 0.0
H498 H 0.77966 0.03352 0.13309 0.0
H499 H 0.81507 0.05076 0.12114 0.0
H500 H 0.70383 0.12592 0.08238 0.0
H501 H 0.69543 0.09006 0.10337 0.0
H502 H 0.70891 0.05562 0.12209 0.0
H503 H 0.73948 0.03533 0.1332 0.0
Mn504 Mn 0.17446 0.52247 0.30861 0.0
Mn505 Mn 0.21745 0.53686 0.35598 0.0
C506 C 0.19506 0.56462 0.32094 0.0
C507 C 0.15543 0.5155 0.26452 0.0
C508 C 0.16945 0.52535 0.36571 0.0
O509 O 0.18616 0.48812 0.30956 0.0
O510 O 0.21404 0.50121 0.34161 0.0
C511 C 0.25355 0.53103 0.32873 0.0
N512 N 0.24433 0.54517 0.34386 0.0
C513 C 0.27397 0.5795 0.34609 0.0
C514 C 0.28385 0.5652 0.33076 0.0
C515 C 0.27357 0.54087 0.32202 0.0
C516 C 0.2541 0.56864 0.35236 0.0
H517 H 0.2457 0.5124 0.32167 0.0
C518 C 0.20319 0.48418 0.32409 0.0
O519 O 0.14596 0.50935 0.28257 0.0
O520 O 0.17647 0.52322 0.27141 0.0
N521 N 0.2235 0.57028 0.37071 0.0
C522 C 0.21115 0.58219 0.3839 0.0
C523 C 0.21882 0.60693 0.39324 0.0
C524 C 0.23905 0.61922 0.3889 0.0
C525 C 0.25146 0.60664 0.37527 0.0
C526 C 0.2431 0.58191 0.36662 0.0
H527 H 0.19549 0.57301 0.38717 0.0
O528 O 0.17454 0.55912 0.31081 0.0
O529 O 0.20249 0.54528 0.32511 0.0
O530 O 0.16107 0.52135 0.34247 0.0
O531 O 0.19043 0.52984 0.37218 0.0
C532 C 0.27158 0.61782 0.36948 0.0
C533 C 0.28283 0.60426 0.35492 0.0
H534 H 0.29919 0.57278 0.32537 0.0
H535 H 0.28101 0.52976 0.31003 0.0
H536 H 0.20908 0.61655 0.40363 0.0
H537 H 0.24479 0.63837 0.39592 0.0
H538 H 0.2784 0.63692 0.37586 0.0
H539 H 0.29814 0.61314 0.35031 0.0
Mn540 Mn 0.83521 0.9019 0.5833 0.0
Mn541 Mn 0.84536 0.95039 0.55331 0.0
C542 C 0.87163 0.92162 0.58245 0.0
C543 C 0.8283 0.88279 0.61816 0.0
C544 C 0.83228 0.89864 0.52667 0.0
O545 O 0.80545 0.91269 0.57953 0.0
O546 O 0.8145 0.94362 0.55882 0.0
C547 C 0.84102 0.98721 0.59368 0.0
N548 N 0.85286 0.97925 0.57706 0.0
C549 C 0.88175 1.01491 0.58989 0.0
C550 C 0.86981 0.02357 0.60704 0.0
C551 C 0.8494 1.00961 0.609 0.0
C552 C 0.87263 0.9924 0.57523 0.0
H553 H 0.82532 0.97657 0.59523 0.0
C554 C 0.80066 0.93004 0.56856 0.0
O555 O 0.82242 0.87153 0.59579 0.0
O556 O 0.83784 0.90554 0.62049 0.0
N557 N 0.87428 0.95995 0.5463 0.0
C558 C 0.88389 0.94889 0.52907 0.0
C559 C 0.90434 0.96056 0.52467 0.0
C560 C 0.91458 0.98362 0.53777 0.0
C561 C 0.90424 0.99482 0.55513 0.0
C562 C 0.88378 0.98239 0.55858 0.0
H563 H 0.87612 0.93119 0.51893 0.0
O564 O 0.86703 0.89939 0.58653 0.0
O565 O 0.85492 0.93192 0.57921 0.0
O566 O 0.82978 0.88884 0.54585 0.0
O567 O 0.8384 0.92152 0.52747 0.0
C568 C 0.91358 0.01768 0.56941 0.0
C569 C 0.9024 0.02765 0.58688 0.0
H570 H 0.87619 0.04085 0.61886 0.0
H571 H 0.84012 0.01612 0.62226 0.0
H572 H 0.91221 0.95177 0.51126 0.0
H573 H 0.93045 0.99245 0.53451 0.0
H574 H 0.92947 0.02762 0.56731 0.0
H575 H 0.90986 0.04512 0.59795 0.0
Mn576 Mn 0.95003 1.00482 0.27956 0.0
Mn577 Mn 0.90746 1.00048 0.31077 0.0
C578 C 0.92871 0.96679 0.28146 0.0
C579 C 0.96473 1.01129 0.2435 0.0
C580 C 0.95512 1.01161 0.33615 0.0
O581 O 0.94403 0.0392 0.28319 0.0
O582 O 0.91399 0.03297 0.30098 0.0
C583 C 0.87236 1.00298 0.27016 0.0
N584 N 0.88025 0.9913 0.2883 0.0
C585 C 0.847 0.96055 0.28031 0.0
C586 C 0.83846 0.97231 0.26161 0.0
C587 C 0.85124 0.99355 0.25644 0.0
C588 C 0.86821 0.9707 0.29322 0.0
H589 H 0.88212 0.01938 0.26624 0.0
C590 C 0.92813 0.04635 0.29149 0.0
O591 O 0.97684 0.01613 0.26518 0.0
O592 O 0.94405 1.00234 0.2426 0.0
N593 N 0.89898 0.96997 0.32162 0.0
C594 C 0.9099 0.96044 0.33972 0.0
C595 C 0.89948 0.93904 0.34699 0.0
C596 C 0.87783 0.92788 0.3359 0.0
C597 C 0.8668 0.93822 0.31758 0.0
C598 C 0.87802 0.95957 0.31111 0.0
H599 H 0.92643 0.96912 0.34858 0.0
O600 O 0.9483 0.9687 0.27625 0.0
O601 O 0.92219 0.987 0.28519 0.0
O602 O 0.96355 1.00937 0.31667 0.0
O603 O 0.93457 1.00958 0.3357 0.0
C604 C 0.84523 0.92799 0.30524 0.0
C605 C 0.83539 0.93905 0.2865 0.0
H606 H 0.82216 0.96512 0.25102 0.0
H607 H 0.8448 1.00268 0.24198 0.0
H608 H 0.90808 0.9312 0.36119 0.0
H609 H 0.86987 0.91132 0.34149 0.0
H610 H 0.83619 0.91139 0.30974 0.0
H611 H 0.81893 0.9308 0.27687 0.0
Mn612 Mn 0.31789 0.68417 0.6122 0.0
Mn613 Mn 0.2804 0.63386 0.58444 0.0
C614 C 0.28776 0.67141 0.62964 0.0
C615 C 0.35006 0.70451 0.63821 0.0
C616 C 0.28335 0.68241 0.56705 0.0
O617 O 0.33408 0.66769 0.58884 0.0
O618 O 0.30881 0.63349 0.57311 0.0
C619 C 0.30083 0.59747 0.60734 0.0
N620 N 0.28322 0.60776 0.60238 0.0
C621 C 0.26127 0.57939 0.62225 0.0
C622 C 0.27913 0.56839 0.62746 0.0
C623 C 0.29902 0.57756 0.62007 0.0
C624 C 0.2641 0.59929 0.60968 0.0
H625 H 0.31612 0.6044 0.60161 0.0
C626 C 0.32796 0.64699 0.57534 0.0
O627 O 0.34167 0.71344 0.61963 0.0
O628 O 0.34029 0.68295 0.64097 0.0
N629 N 0.25212 0.6313 0.59366 0.0
C630 C 0.23672 0.6445 0.58799 0.0
C631 C 0.21593 0.63785 0.59434 0.0
C632 C 0.21106 0.61749 0.60607 0.0
C633 C 0.2271 0.60406 0.61151 0.0
C634 C 0.24753 0.61156 0.60476 0.0
H635 H 0.24025 0.65998 0.57868 0.0
O636 O 0.29848 0.69379 0.63496 0.0
O637 O 0.29508 0.657 0.6144 0.0
O638 O 0.299 0.69373 0.58399 0.0
O639 O 0.27555 0.65967 0.56469 0.0
C640 C 0.22369 0.58368 0.62359 0.0
C641 C 0.24081 0.57146 0.62914 0.0
H642 H 0.27778 0.55298 0.63721 0.0
H643 H 0.3129 0.56922 0.6241 0.0
H644 H 0.20364 0.64831 0.59009 0.0
H645 H 0.19501 0.61241 0.61095 0.0
H646 H 0.20803 0.57741 0.62893 0.0
H647 H 0.23808 0.55603 0.63877 0.0
Mn648 Mn 0.45266 0.50356 0.77855 0.0
Mn649 Mn 0.41019 0.50117 0.80981 0.0
C650 C 0.43037 0.46607 0.78069 0.0
C651 C 0.46783 0.50987 0.74271 0.0
C652 C 0.45783 0.51108 0.83511 0.0
O653 O 0.44767 0.53831 0.78204 0.0
O654 O 0.41735 0.53335 0.79942 0.0
C655 C 0.37529 0.50393 0.76909 0.0
N656 N 0.3829 0.49234 0.78745 0.0
C657 C 0.34918 0.46233 0.77993 0.0
C658 C 0.34092 0.474 0.761 0.0
C659 C 0.35408 0.49482 0.75548 0.0
C660 C 0.3705 0.47213 0.7927 0.0
H661 H 0.38534 0.52 0.7649 0.0
C662 C 0.43191 0.54613 0.78994 0.0
O663 O 0.47976 0.5141 0.76446 0.0
O664 O 0.44702 0.50129 0.74153 0.0
N665 N 0.4011 0.47107 0.82121 0.0
C666 C 0.41175 0.46158 0.83954 0.0
C667 C 0.40091 0.4406 0.8472 0.0
C668 C 0.37915 0.42982 0.83623 0.0
C669 C 0.36842 0.44011 0.81766 0.0
C670 C 0.38003 0.46105 0.81083 0.0
H671 H 0.42836 0.46998 0.84831 0.0
O672 O 0.44987 0.46725 0.77535 0.0
O673 O 0.42447 0.48666 0.78429 0.0
O674 O 0.46606 0.50796 0.81561 0.0
O675 O 0.43739 0.50997 0.83469 0.0
C676 C 0.34675 0.43022 0.80543 0.0
C677 C 0.33719 0.44123 0.78646 0.0
H678 H 0.32455 0.46706 0.7505 0.0
H679 H 0.34785 0.50387 0.74084 0.0
H680 H 0.40929 0.43281 0.86159 0.0
H681 H 0.37088 0.41359 0.84212 0.0
H682 H 0.33741 0.41394 0.8102 0.0
H683 H 0.32065 0.43324 0.77693 0.0
Mn684 Mn 0.67353 0.02077 0.80853 0.0
Mn685 Mn 0.71666 0.03535 0.85582 0.0
C686 C 0.69372 0.06302 0.82109 0.0
C687 C 0.65446 1.01384 0.76442 0.0
C688 C 0.66876 0.02303 0.86565 0.0
O689 O 0.68552 0.98658 0.80933 0.0
O690 O 0.71362 0.99988 0.84113 0.0
C691 C 0.75272 0.03055 0.8282 0.0
N692 N 0.74339 0.0443 0.84358 0.0
C693 C 0.77254 0.07914 0.84585 0.0
C694 C 0.78254 0.06523 0.83028 0.0
C695 C 0.77256 0.04085 0.82139 0.0
C696 C 0.75285 0.06783 0.8522 0.0
H697 H 0.74507 1.01188 0.82101 0.0
C698 C 0.70274 0.9828 0.82369 0.0
O699 O 0.64505 1.00748 0.78245 0.0
O700 O 0.67548 0.02176 0.77133 0.0
N701 N 0.72234 0.06863 0.8709 0.0
C702 C 0.70998 0.08008 0.88452 0.0
C703 C 0.71741 0.10478 0.89418 0.0
C704 C 0.73743 0.11751 0.88973 0.0
C705 C 0.74988 0.10539 0.87568 0.0
C706 C 0.74176 0.08068 0.86674 0.0
H707 H 0.69448 0.07055 0.8879 0.0
O708 O 0.67322 0.0573 0.8109 0.0
O709 O 0.70142 0.04381 0.82513 0.0
O710 O 0.66029 0.01932 0.84244 0.0
O711 O 0.68974 0.0276 0.87206 0.0
C712 C 0.76979 0.11702 0.86978 0.0
C713 C 0.78111 0.1039 0.85488 0.0
H714 H 0.79775 0.07316 0.82482 0.0
H715 H 0.78008 0.03004 0.8092 0.0
H716 H 0.70765 0.11403 0.9049 0.0
H717 H 0.74299 0.13662 0.89699 0.0
H718 H 0.77641 0.13613 0.87636 0.0
H719 H 0.79628 0.11312 0.85023 0.0
Mn720 Mn 0.76638 0.67638 0.03693 0.0
Mn721 Mn 0.75123 0.62937 0.99034 0.0
C722 C 0.72939 0.65577 0.0255 0.0
C723 C 0.77685 0.69274 0.07917 0.0
C724 C 0.76497 0.68185 0.98205 0.0
O725 O 0.79544 0.66506 0.03475 0.0
O726 O 0.78278 0.63278 1.00463 0.0
C727 C 0.75569 0.58842 0.0174 0.0
N728 N 0.74302 0.59956 1.00254 0.0
C729 C 0.71134 0.56753 0.99999 0.0
C730 C 0.72408 0.55568 0.01518 0.0
C731 C 0.74635 0.56617 0.02393 0.0
C732 C 0.72161 0.58952 0.99385 0.0
H733 H 0.77278 0.59646 0.02428 0.0
C734 C 0.79821 0.64642 0.02098 0.0
O735 O 0.78116 0.70562 0.06214 0.0
O736 O 0.7675 0.67012 0.07176 0.0
N737 N 0.72093 0.62424 0.97587 0.0
C738 C 0.71052 0.63897 0.96314 0.0
C739 C 0.68792 0.63166 0.95408 0.0
C740 C 0.67625 0.60933 0.95822 0.0
C741 C 0.68731 0.59451 0.97142 0.0
C742 C 0.70988 0.60265 0.97983 0.0
H743 H 0.71937 0.65624 0.96008 0.0
O744 O 0.73448 0.67824 0.03606 0.0
O745 O 0.746 0.64683 0.02072 0.0
O746 O 0.76786 0.69126 1.00468 0.0
O747 O 0.75896 0.65896 0.97503 0.0
C748 C 0.67671 0.57224 0.97704 0.0
C749 C 0.68873 0.55873 0.99125 0.0
H750 H 0.71688 0.53865 0.02048 0.0
H751 H 0.75626 0.55719 0.03576 0.0
H752 H 0.67948 0.64327 0.94404 0.0
H753 H 0.65878 0.60387 0.95141 0.0
H754 H 0.65925 0.56551 0.97084 0.0
H755 H 0.68034 0.54181 0.99575 0.0
Mn756 Mn 0.92679 0.55157 0.7851 0.0
Mn757 Mn 0.88718 0.54536 0.82162 0.0
C758 C 0.90688 0.51077 0.79043 0.0
C759 C 0.94371 0.55353 0.7457 0.0
C760 C 0.93652 0.55705 0.84412 0.0
O761 O 0.9161 0.58684 0.78729 0.0
O762 O 0.89066 0.57853 0.81106 0.0
C763 C 0.84906 0.54642 0.78391 0.0
N764 N 0.85856 0.53565 0.80191 0.0
C765 C 0.82551 0.50527 0.79835 0.0
C766 C 0.81523 0.51636 0.78015 0.0
C767 C 0.82712 0.53692 0.77277 0.0
C768 C 0.84741 0.51559 0.80881 0.0
H769 H 0.85815 0.5621 0.77803 0.0
C770 C 0.90044 0.59314 0.79829 0.0
O771 O 0.95406 0.56174 0.76786 0.0
O772 O 0.92293 0.54575 0.74583 0.0
N773 N 0.88047 0.51498 0.83332 0.0
C774 C 0.89335 0.50506 0.84933 0.0
C775 C 0.88425 0.48366 0.85758 0.0
C776 C 0.86197 0.47285 0.84961 0.0
C777 C 0.84899 0.48343 0.83326 0.0
C778 C 0.85895 0.5048 0.82569 0.0
H779 H 0.91046 0.5133 0.85568 0.0
O780 O 0.92608 0.51475 0.78411 0.0
O781 O 0.89962 0.5308 0.7937 0.0
O782 O 0.9431 0.55766 0.82317 0.0
O783 O 0.91604 0.55436 0.84508 0.0
C784 C 0.82672 0.47328 0.82369 0.0
C785 C 0.81502 0.48411 0.80615 0.0
H786 H 0.79833 0.50904 0.77147 0.0
H787 H 0.81939 0.5454 0.75852 0.0
H788 H 0.8944 0.47554 0.8701 0.0
H789 H 0.85505 0.45628 0.85594 0.0
H790 H 0.81852 0.4569 0.82936 0.0
H791 H 0.79805 0.47583 0.79852 0.0
Mn792 Mn 0.75324 0.39146 0.49112 0.0
Mn793 Mn 0.74437 0.43733 0.4607 0.0
C794 C 0.78188 0.41562 0.47878 0.0
C795 C 0.76071 0.37571 0.52702 0.0
C796 C 0.73229 0.38465 0.43699 0.0
O797 O 0.72415 0.39654 0.49889 0.0
O798 O 0.72011 0.4283 0.47933 0.0
C799 C 0.74886 0.47574 0.50331 0.0
N800 N 0.7554 0.46754 0.48219 0.0
C801 C 0.78289 0.50418 0.48604 0.0
C802 C 0.77633 0.51306 0.50772 0.0
C803 C 0.75925 0.49876 0.51639 0.0
C804 C 0.77175 0.48122 0.47362 0.0
H805 H 0.73586 0.46478 0.5102 0.0
C806 C 0.71404 0.41301 0.49343 0.0
O807 O 0.75068 0.36187 0.50666 0.0
O808 O 0.76622 0.39883 0.52659 0.0
N809 N 0.76717 0.44814 0.44286 0.0
C810 C 0.77297 0.43608 0.42303 0.0
C811 C 0.79035 0.44753 0.41265 0.0
C812 C 0.80166 0.47122 0.42278 0.0
C813 C 0.79557 0.4832 0.44333 0.0
C814 C 0.77794 0.47098 0.45274 0.0
H815 H 0.76475 0.41769 0.41552 0.0
O816 O 0.78312 0.39388 0.48277 0.0
O817 O 0.76385 0.42239 0.4819 0.0
O818 O 0.73926 0.37637 0.45612 0.0
O819 O 0.73309 0.40718 0.43655 0.0
C820 C 0.80674 0.5065 0.4553 0.0
C821 C 0.8004 0.51699 0.47663 0.0
H822 H 0.78445 0.53071 0.518 0.0
H823 H 0.75418 0.50542 0.53319 0.0
H824 H 0.79525 0.43798 0.39712 0.0
H825 H 0.81527 0.47985 0.41493 0.0
H826 H 0.82049 0.51634 0.44849 0.0
H827 H 0.80935 0.53476 0.48588 0.0
Mn828 Mn 0.65447 0.56975 0.32972 0.0
Mn829 Mn 0.69675 0.58426 0.37781 0.0
C830 C 0.67506 0.6096 0.34108 0.0
C831 C 0.6403 0.55816 0.28717 0.0
C832 C 0.64913 0.57209 0.38431 0.0
O833 O 0.66262 0.53702 0.33313 0.0
O834 O 0.69125 0.54914 0.36479 0.0
C835 C 0.73307 0.57536 0.35236 0.0
N836 N 0.72406 0.59071 0.36639 0.0
C837 C 0.75545 0.62327 0.36968 0.0
C838 C 0.76509 0.60778 0.35532 0.0
C839 C 0.75384 0.58374 0.34661 0.0
C840 C 0.7348 0.61384 0.37501 0.0
H841 H 0.72447 0.55688 0.34557 0.0
C842 C 0.67834 0.53284 0.34826 0.0
O843 O 0.62802 0.55456 0.30366 0.0
O844 O 0.66084 0.56781 0.29537 0.0
N845 N 0.70362 0.61797 0.39131 0.0
C846 C 0.69125 0.63107 0.4031 0.0
C847 C 0.6997 0.65579 0.41201 0.0
C848 C 0.72076 0.66676 0.40872 0.0
C849 C 0.73317 0.6529 0.39649 0.0
C850 C 0.72394 0.62831 0.38813 0.0
H851 H 0.675 0.62276 0.40552 0.0
O852 O 0.65489 0.60548 0.32968 0.0
O853 O 0.68181 0.59055 0.34666 0.0
O854 O 0.64075 0.56869 0.36144 0.0
O855 O 0.66975 0.57832 0.39213 0.0
C856 C 0.75413 0.66264 0.39178 0.0
C857 C 0.76526 0.64784 0.37839 0.0
H858 H 0.78103 0.61423 0.35067 0.0
H859 H 0.76114 0.57171 0.33543 0.0
H860 H 0.68997 0.6664 0.4213 0.0
H861 H 0.72715 0.68588 0.41544 0.0
H862 H 0.76168 0.6816 0.39801 0.0
H863 H 0.7812 0.65565 0.37452 0.0
Tb864 Tb 0.03158 0.02718 0.04482 0.0
Tb865 Tb 0.07088 0.05673 0.07645 0.0
C866 C 0.99231 1.00905 0.02538 0.0
C867 C 0.97342 0.01943 0.01724 0.0
C868 C 0.95326 1.01026 0.02384 0.0
C869 C 0.93642 0.0229 0.02116 0.0
C870 C 0.93958 0.04504 0.01202 0.0
C871 C 0.95927 0.05334 1.00385 0.0
C872 C 0.97602 0.04048 1.00626 0.0
C873 C 0.06645 0.03205 0.02284 0.0
C874 C 0.04097 0.08533 0.0472 0.0
C875 C 0.11011 0.07413 0.09615 0.0
C876 C 0.12887 0.06224 0.09674 0.0
C877 C 0.14519 0.07025 0.08328 0.0
C878 C 0.15732 0.05425 0.07419 0.0
C879 C 0.15324 0.03011 0.07852 0.0
C880 C 0.13943 0.02338 0.0952 0.0
C881 C 0.12742 0.03946 0.10441 0.0
C882 C 0.03606 0.05194 0.09833 0.0
C883 C 0.0619 0.9984 0.07261 0.0
O884 O 0.99936 1.01358 0.04909 0.0
O885 O 1.00839 1.01187 0.01295 0.0
O886 O 0.06136 0.04803 0.03742 0.0
O887 O 0.05124 1.01249 0.01986 0.0
O888 O 0.02659 0.06427 0.04117 0.0
O889 O 0.06041 0.08676 0.0606 0.0
O890 O 0.10167 0.07685 0.07405 0.0
O891 O 0.09493 0.06599 0.10851 0.0
O892 O 0.04124 0.03581 0.08399 0.0
O893 O 0.05106 0.07161 0.10085 0.0
O894 O 0.07661 0.0193 0.0776 0.0
O895 O 0.0419 0.99741 0.06094 0.0
H896 H 0.95099 0.99408 0.03242 0.0
H897 H 0.92148 0.01616 0.02781 0.0
H898 H 0.96201 0.07021 0.99649 0.0
H899 H 0.99136 0.04756 1.00065 0.0
H900 H 0.14682 0.08789 0.07743 0.0
H901 H 0.16845 0.06012 0.06201 0.0
H902 H 0.13618 1.00499 0.09916 0.0
H903 H 0.11537 0.03311 0.11537 0.0
Tb904 Tb 0.30622 0.77827 0.28062 0.0
Tb905 Tb 0.30037 0.79693 0.33201 0.0
C906 C 0.30489 0.77064 0.23514 0.0
C907 C 0.30059 0.78457 0.21532 0.0
C908 C 0.29526 0.80729 0.22023 0.0
C909 C 0.28947 0.81964 0.20097 0.0
C910 C 0.28869 0.80924 0.17658 0.0
C911 C 0.29445 0.78667 0.17183 0.0
C912 C 0.30038 0.77443 0.19111 0.0
C913 C 0.33565 0.7707 0.31641 0.0
C914 C 0.32455 0.83615 0.3024 0.0
C915 C 0.30526 0.80415 0.37783 0.0
C916 C 0.29232 0.79403 0.39549 0.0
C917 C 0.28437 0.76891 0.39323 0.0
C918 C 0.27412 0.75917 0.41134 0.0
C919 C 0.27133 0.77433 0.43202 0.0
C920 C 0.27797 0.79963 0.43336 0.0
C921 C 0.28851 0.80937 0.4153 0.0
C922 C 0.26519 0.79973 0.29969 0.0
C923 C 0.2798 0.73958 0.30932 0.0
O924 O 0.28806 0.76376 0.24575 0.0
O925 O 0.32311 0.7793 0.25097 0.0
O926 O 0.32746 0.7893 0.31575 0.0
O927 O 0.32837 0.75642 0.29565 0.0
O928 O 0.31812 0.81868 0.28273 0.0
O929 O 0.32087 0.83102 0.3244 0.0
O930 O 0.31437 0.7889 0.36547 0.0
O931 O 0.2965 0.81813 0.36408 0.0
O932 O 0.28197 0.79198 0.29589 0.0
O933 O 0.26793 0.80628 0.32323 0.0
O934 O 0.28475 0.75722 0.32881 0.0
O935 O 0.28553 0.74434 0.28801 0.0
H936 H 0.29501 0.81518 0.23884 0.0
H937 H 0.28491 0.8369 0.20508 0.0
H938 H 0.29421 0.77842 0.15318 0.0
H939 H 0.30439 0.75685 0.18709 0.0
H940 H 0.28684 0.75661 0.37798 0.0
H941 H 0.26957 0.73963 0.40971 0.0
H942 H 0.2757 0.81189 0.44876 0.0
H943 H 0.29423 0.82882 0.41718 0.0
Tb944 Tb 0.57159 0.04006 0.54495 0.0
Tb945 Tb 0.52559 0.03505 0.56146 0.0
C946 C 0.61121 0.03796 0.54402 0.0
C947 C 0.62736 0.02214 0.54904 0.0
C948 C 0.64268 0.02686 0.57112 0.0
C949 C 0.65972 1.01411 0.57429 0.0
C950 C 0.66211 0.99647 0.55535 0.0
C951 C 0.64631 0.99125 0.53363 0.0
C952 C 0.6293 1.00387 0.53051 0.0
C953 C 0.54051 0.04691 0.50722 0.0
C954 C 0.53911 0.98815 0.53802 0.0
C955 C 0.48608 0.03711 0.5631 0.0
C956 C 0.46966 0.05239 0.55747 0.0
C957 C 0.458 0.05094 0.53357 0.0
C958 C 0.44111 0.06362 0.52913 0.0
C959 C 0.43508 0.07789 0.54851 0.0
C960 C 0.44703 0.07956 0.57235 0.0
C961 C 0.46398 0.06701 0.57674 0.0
C962 C 0.55655 0.02742 0.59879 0.0
C963 C 0.55778 0.08717 0.56821 0.0
O964 O 0.6048 0.04947 0.56259 0.0
O965 O 0.59514 0.02996 0.52533 0.0
O966 O 0.53863 0.04258 0.52898 0.0
O967 O 0.56131 0.04837 0.50726 0.0
O968 O 0.55958 1.00072 0.54114 0.0
O969 O 0.52263 0.99822 0.54283 0.0
O970 O 0.49221 0.02477 0.54484 0.0
O971 O 0.50247 0.04621 0.58121 0.0
O972 O 0.55847 0.03239 0.57728 0.0
O973 O 0.53569 0.02545 0.59861 0.0
O974 O 0.53757 0.07421 0.56599 0.0
O975 O 0.57422 0.07756 0.56221 0.0
H976 H 0.64195 0.04097 0.58571 0.0
H977 H 0.67158 0.01884 0.59122 0.0
H978 H 0.64725 0.97757 0.51874 0.0
H979 H 0.61802 0.99973 0.51315 0.0
H980 H 0.46156 0.03961 0.51828 0.0
H981 H 0.43269 0.06204 0.51043 0.0
H982 H 0.44284 0.0899 0.58791 0.0
H983 H 0.47228 0.06825 0.59547 0.0
Tb984 Tb 0.28024 0.29246 0.80278 0.0
Tb985 Tb 0.32573 0.28018 0.8123 0.0
C986 C 0.2404 0.29302 0.80362 0.0
C987 C 0.22386 0.29311 0.82011 0.0
C988 C 0.22254 0.27853 0.83875 0.0
C989 C 0.20534 0.2775 0.85235 0.0
C990 C 0.18902 0.29102 0.84765 0.0
C991 C 0.19067 0.30571 0.82908 0.0
C992 C 0.2078 0.30674 0.81562 0.0
C993 C 0.31288 0.32454 0.79295 0.0
C994 C 0.30941 0.30499 0.85729 0.0
C995 C 0.36523 0.27757 0.81134 0.0
C996 C 0.3814 0.27835 0.79438 0.0
C997 C 0.37959 0.29017 0.77366 0.0
C998 C 0.39621 0.29244 0.75927 0.0
C999 C 0.41515 0.28308 0.76534 0.0
C1000 C 0.4166 0.27091 0.78589 0.0
C1001 C 0.39998 0.26859 0.80015 0.0
C1002 C 0.29271 0.24889 0.82241 0.0
C1003 C 0.29729 0.26969 0.75732 0.0
O1004 O 0.24785 0.27321 0.79958 0.0
O1005 O 0.25571 0.31266 0.80559 0.0
O1006 O 0.31348 0.31222 0.81023 0.0
O1007 O 0.29272 0.32072 0.78152 0.0
O1008 O 0.28961 0.30022 0.84335 0.0
O1009 O 0.32688 0.30078 0.84833 0.0
O1010 O 0.35879 0.29768 0.81721 0.0
O1011 O 0.34904 0.25856 0.8078 0.0
O1012 O 0.29255 0.26047 0.80461 0.0
O1013 O 0.31261 0.2532 0.83468 0.0
O1014 O 0.31669 0.27299 0.7718 0.0
O1015 O 0.27978 0.27445 0.76578 0.0
H1016 H 0.23462 0.26768 0.8426 0.0
H1017 H 0.20488 0.26615 0.86658 0.0
H1018 H 0.17835 0.31601 0.82438 0.0
H1019 H 0.2082 0.31785 0.80115 0.0
H1020 H 0.36553 0.29807 0.76888 0.0
H1021 H 0.39449 0.30211 0.74378 0.0
H1022 H 0.43062 0.26307 0.791 0.0
H1023 H 0.40184 0.25947 0.81606 0.0
Tb1024 Tb 0.05021 0.05961 0.56431 0.0
Tb1025 Tb 0.05823 1.00556 0.55401 0.0
C1026 C 0.05614 0.10441 0.56508 0.0
C1027 C 0.06266 0.11959 0.54691 0.0
C1028 C 0.06285 0.10882 0.52293 0.0
C1029 C 0.06809 0.12307 0.5052 0.0
C1030 C 0.07303 0.14841 0.51107 0.0
C1031 C 0.07345 0.1592 0.53533 0.0
C1032 C 0.0683 0.14484 0.55315 0.0
C1033 C 0.0176 0.02648 0.5744 0.0
C1034 C 0.03626 0.02791 0.50981 0.0
C1035 C 0.05377 0.96088 0.55262 0.0
C1036 C 0.04951 0.94571 0.57148 0.0
C1037 C 0.03778 0.95258 0.58977 0.0
C1038 C 0.03755 0.94096 0.61041 0.0
C1039 C 0.04948 0.92281 0.61319 0.0
C1040 C 0.06051 0.91536 0.5945 0.0
C1041 C 0.06042 0.92668 0.57369 0.0
C1042 C 0.0915 0.03916 0.54552 0.0
C1043 C 0.07151 0.03663 0.6084 0.0
O1044 O 0.0712 0.09381 0.57503 0.0
O1045 O 0.03684 0.08968 0.5584 0.0
O1046 O 0.0346 0.02373 0.56605 0.0
O1047 O 0.01906 0.04977 0.5784 0.0
O1048 O 0.03978 0.04921 0.52429 0.0
O1049 O 0.04119 1.00817 0.51768 0.0
O1050 O 0.03784 0.97096 0.54384 0.0
O1051 O 0.07287 0.97604 0.55798 0.0
O1052 O 0.0735 0.04147 0.55162 0.0
O1053 O 0.09084 0.01607 0.54331 0.0
O1054 O 0.06612 1.01486 0.59445 0.0
O1055 O 0.06861 0.05678 0.59985 0.0
H1056 H 0.05887 0.08937 0.5178 0.0
H1057 H 0.06792 0.11425 0.48678 0.0
H1058 H 0.07691 0.17873 0.5403 0.0
H1059 H 0.06824 0.15342 0.5716 0.0
H1060 H 0.02974 0.96769 0.58871 0.0
H1061 H 0.02907 0.94697 0.62476 0.0
H1062 H 0.06971 0.90126 0.59636 0.0
H1063 H 0.06982 0.92144 0.55995 0.0
Tb1064 Tb 0.30335 0.76259 0.77642 0.0
Tb1065 Tb 0.30922 0.8179 0.79299 0.0
C1066 C 0.3074 0.72318 0.75404 0.0
C1067 C 0.32395 0.70807 0.7571 0.0
C1068 C 0.33355 0.70074 0.73707 0.0
C1069 C 0.34925 0.68646 0.73968 0.0
C1070 C 0.35569 0.67909 0.7624 0.0
C1071 C 0.34608 0.68665 0.78245 0.0
C1072 C 0.33054 0.70107 0.77988 0.0
C1073 C 0.27677 0.77582 0.80487 0.0
C1074 C 0.33574 0.78601 0.8256 0.0
C1075 C 0.30593 0.85693 0.81686 0.0
C1076 C 0.28847 0.87064 0.8192 0.0
C1077 C 0.28322 0.87657 0.84244 0.0
C1078 C 0.26746 0.89033 0.84548 0.0
C1079 C 0.2566 0.89872 0.82537 0.0
C1080 C 0.26148 0.89217 0.80192 0.0
C1081 C 0.27719 0.87821 0.79885 0.0
C1082 C 0.33683 0.80518 0.7657 0.0
C1083 C 0.27464 0.79305 0.74506 0.0
O1084 O 0.31397 0.74416 0.74703 0.0
O1085 O 0.29533 0.72466 0.77122 0.0
O1086 O 0.28434 0.78643 0.78873 0.0
O1087 O 0.28248 0.75501 0.80442 0.0
O1088 O 0.32906 0.7671 0.80789 0.0
O1089 O 0.32929 0.80682 0.824 0.0
O1090 O 0.30334 0.83631 0.82544 0.0
O1091 O 0.3134 0.85565 0.79606 0.0
O1092 O 0.32864 0.79415 0.7813 0.0
O1093 O 0.33119 0.82601 0.76632 0.0
O1094 O 0.28158 0.81204 0.7628 0.0
O1095 O 0.28262 0.77306 0.7457 0.0
H1096 H 0.32892 0.70613 0.71937 0.0
H1097 H 0.35643 0.68135 0.7239 0.0
H1098 H 0.35018 0.68105 0.80013 0.0
H1099 H 0.32358 0.70657 0.79575 0.0
H1100 H 0.2915 0.87073 0.8584 0.0
H1101 H 0.26396 0.89451 0.86372 0.0
H1102 H 0.25374 0.89844 0.78598 0.0
H1103 H 0.28074 0.87375 0.78061 0.0
Tb1104 Tb 0.53771 0.04612 0.03772 0.0
Tb1105 Tb 0.5686 0.02434 0.06828 0.0
C1106 C 0.50414 0.05255 1.01096 0.0
C1107 C 0.48032 0.04433 1.00825 0.0
C1108 C 0.47037 0.03831 0.02822 0.0
C1109 C 0.44825 0.02669 0.02432 0.0
C1110 C 0.4359 0.02069 1.00038 0.0
C1111 C 0.44574 0.02764 0.98062 0.0
C1112 C 0.46776 0.03941 0.98455 0.0
C1113 C 0.57099 0.07778 0.06561 0.0
C1114 C 0.52865 0.03747 0.09339 0.0
C1115 C 0.60288 0.01666 0.09245 0.0
C1116 C 0.6188 0.02683 0.115 0.0
C1117 C 0.61517 0.04521 0.13208 0.0
C1118 C 0.63287 0.06024 0.14857 0.0
C1119 C 0.65429 0.05665 0.14841 0.0
C1120 C 0.65726 0.03627 0.1333 0.0
C1121 C 0.63967 0.02161 0.11661 0.0
C1122 C 0.53609 0.99223 0.03908 0.0
C1123 C 0.57868 0.03508 0.01287 0.0
O1124 O 0.51432 0.03524 1.00563 0.0
O1125 O 0.51447 0.0676 0.03074 0.0
O1126 O 0.56052 0.05861 0.07087 0.0
O1127 O 0.56184 0.08055 0.04394 0.0
O1128 O 0.51982 0.03838 0.06999 0.0
O1129 O 0.54952 0.03503 0.09751 0.0
O1130 O 0.58313 1.00568 0.0944 0.0
O1131 O 0.60269 0.03099 0.0758 0.0
O1132 O 0.54632 1.01195 0.03487 0.0
O1133 O 0.54535 0.98916 0.0605 0.0
O1134 O 0.58515 0.02801 0.03451 0.0
O1135 O 0.55995 0.04294 1.0099 0.0
H1136 H 0.47984 0.04172 0.04662 0.0
H1137 H 0.44111 0.02136 0.03986 0.0
H1138 H 0.43654 0.02349 0.96204 0.0
H1139 H 0.47525 0.04378 0.96891 0.0
H1140 H 0.59898 0.04891 0.13153 0.0
H1141 H 0.63003 0.07558 0.16025 0.0
H1142 H 0.67349 0.03298 0.13254 0.0
H1143 H 0.64275 1.00747 0.10354 0.0
Tb1144 Tb 0.2817 0.27253 0.29391 0.0
Tb1145 Tb 0.32161 0.30468 0.31848 0.0
C1146 C 0.2421 0.25101 0.28649 0.0
C1147 C 0.22185 0.26027 0.28676 0.0
C1148 C 0.2218 0.28096 0.30334 0.0
C1149 C 0.2027 0.2896 0.30404 0.0
C1150 C 0.18303 0.27734 0.28872 0.0
C1151 C 0.18296 0.25664 0.27206 0.0
C1152 C 0.20235 0.24832 0.2709 0.0
C1153 C 0.30438 0.29283 0.2627 0.0
C1154 C 0.28055 0.33084 0.31221 0.0
C1155 C 0.36113 0.32636 0.32534 0.0
C1156 C 0.37961 0.3172 0.31712 0.0
C1157 C 0.37572 0.30062 0.29531 0.0
C1158 C 0.3924 0.29023 0.28803 0.0
C1159 C 0.41374 0.2966 0.30193 0.0
C1160 C 0.41774 0.31355 0.32367 0.0
C1161 C 0.40075 0.32364 0.33128 0.0
C1162 C 0.2988 0.28367 0.34936 0.0
C1163 C 0.32291 0.24666 0.29984 0.0
O1164 O 0.25517 0.25455 0.30775 0.0
O1165 O 0.25281 0.2559 0.26871 0.0
O1166 O 0.30184 0.30287 0.28338 0.0
O1167 O 0.29358 0.27042 0.25894 0.0
O1168 O 0.26997 0.30816 0.30192 0.0
O1169 O 0.3021 0.33418 0.32058 0.0
O1170 O 0.34622 0.32927 0.30766 0.0
O1171 O 0.35235 0.31549 0.34195 0.0
O1172 O 0.30162 0.27412 0.32866 0.0
O1173 O 0.30975 0.30606 0.35371 0.0
O1174 O 0.33374 0.26985 0.30726 0.0
O1175 O 0.30101 0.24283 0.29444 0.0
H1176 H 0.23634 0.29014 0.31637 0.0
H1177 H 0.20307 0.30521 0.3175 0.0
H1178 H 0.16788 0.24673 0.26028 0.0
H1179 H 0.202 0.23227 0.25806 0.0
H1180 H 0.3596 0.29529 0.28393 0.0
H1181 H 0.38828 0.27677 0.27162 0.0
H1182 H 0.43397 0.31917 0.33475 0.0
H1183 H 0.40408 0.33637 0.34821 0.0
Tb1184 Tb 0.5501 0.5562 0.06517 0.0
Tb1185 Tb 0.5588 0.50522 0.05271 0.0
C1186 C 0.54961 0.60023 0.06668 0.0
C1187 C 0.55301 0.61675 0.04884 0.0
C1188 C 0.55849 0.60863 0.02623 0.0
C1189 C 0.56168 0.62431 1.00915 0.0
C1190 C 0.55964 0.6484 0.01455 0.0
C1191 C 0.5544 0.65657 0.03736 0.0
C1192 C 0.55105 0.64078 0.05439 0.0
C1193 C 0.5215 0.52062 0.07723 0.0
C1194 C 0.53881 0.52883 1.00894 0.0
C1195 C 0.55297 0.45998 0.0475 0.0
C1196 C 0.54321 0.44189 0.0614 0.0
C1197 C 0.54136 0.41728 0.05305 0.0
C1198 C 0.53382 0.40001 0.06728 0.0
C1199 C 0.52815 0.40719 0.09013 0.0
C1200 C 0.52923 0.43187 0.09797 0.0
C1201 C 0.53664 0.44913 0.08363 0.0
C1202 C 0.59287 0.53868 0.04614 0.0
C1203 C 0.57369 0.53409 0.10709 0.0
O1204 O 0.56695 0.5923 0.07516 0.0
O1205 O 0.53188 0.58295 0.06063 0.0
O1206 O 0.53074 0.51985 0.05859 0.0
O1207 O 0.52733 0.54262 0.08904 0.0
O1208 O 0.53997 0.54858 0.02492 0.0
O1209 O 0.54521 0.50941 0.01561 0.0
O1210 O 0.53937 0.47138 0.03615 0.0
O1211 O 0.5712 0.47462 0.05912 0.0
O1212 O 0.57529 0.54142 0.053 0.0
O1213 O 0.59157 0.51547 0.04243 0.0
O1214 O 0.56573 0.51256 0.09328 0.0
O1215 O 0.57229 0.55438 0.09832 0.0
H1216 H 0.56041 0.59023 0.02179 0.0
H1217 H 0.56591 0.61765 0.99181 0.0
H1218 H 0.55246 0.67502 0.04182 0.0
H1219 H 0.54688 0.64729 0.07181 0.0
H1220 H 0.54635 0.41149 0.03589 0.0
H1221 H 0.53343 0.38113 0.06093 0.0
H1222 H 0.52481 0.43785 0.11541 0.0
H1223 H 0.5378 0.46813 0.09018 0.0
Tb1224 Tb 0.79622 0.26252 0.28071 0.0
Tb1225 Tb 0.80882 0.3176 0.29768 0.0
C1226 C 0.79812 0.21985 0.26474 0.0
C1227 C 0.81535 0.20536 0.26737 0.0
C1228 C 0.82816 0.20257 0.24904 0.0
C1229 C 0.84436 0.18887 0.25154 0.0
C1230 C 0.8481 0.17754 0.27238 0.0
C1231 C 0.83513 0.18023 0.29059 0.0
C1232 C 0.81899 0.19391 0.28812 0.0
C1233 C 0.77808 0.27869 0.31709 0.0
C1234 C 0.84109 0.28767 0.31811 0.0
C1235 C 0.80896 0.36121 0.31231 0.0
C1236 C 0.79214 0.37522 0.31641 0.0
C1237 C 0.79732 0.39547 0.33489 0.0
C1238 C 0.78166 0.40909 0.33906 0.0
C1239 C 0.76037 0.40257 0.32499 0.0
C1240 C 0.75518 0.38207 0.30659 0.0
C1241 C 0.77095 0.3686 0.30228 0.0
C1242 C 0.82691 0.3006 0.26164 0.0
C1243 C 0.76242 0.29208 0.26399 0.0
O1244 O 0.80135 0.23776 0.25207 0.0
O1245 O 0.79015 0.22578 0.28449 0.0
O1246 O 0.7972 0.28647 0.31343 0.0
O1247 O 0.76874 0.25975 0.30084 0.0
O1248 O 0.82989 0.26924 0.30123 0.0
O1249 O 0.83434 0.30812 0.32241 0.0
O1250 O 0.81151 0.34542 0.32712 0.0
O1251 O 0.8092 0.35261 0.28944 0.0
O1252 O 0.80761 0.29365 0.26497 0.0
O1253 O 0.83681 0.31892 0.27829 0.0
O1254 O 0.77395 0.30983 0.28138 0.0
O1255 O 0.76969 0.27234 0.25739 0.0
H1256 H 0.82566 0.21097 0.23272 0.0
H1257 H 0.85408 0.18727 0.23723 0.0
H1258 H 0.83712 0.17135 0.30664 0.0
H1259 H 0.80928 0.19536 0.30249 0.0
H1260 H 0.81359 0.40091 0.34596 0.0
H1261 H 0.7864 0.42506 0.35297 0.0
H1262 H 0.73893 0.37637 0.29556 0.0
H1263 H 0.76661 0.35315 0.28779 0.0
Tb1264 Tb 0.03457 0.54376 0.5351 0.0
Tb1265 Tb 0.071 0.53355 0.5695 0.0
C1266 C 0.99875 0.53821 0.50643 0.0
C1267 C 0.97528 0.53684 0.50565 0.0
C1268 C 0.96511 0.53033 0.52531 0.0
C1269 C 0.94227 0.52353 0.522 0.0
C1270 C 0.92941 0.52304 0.49896 0.0
C1271 C 0.93967 0.53142 0.47998 0.0
C1272 C 0.96245 0.53826 0.48333 0.0
C1273 C 0.06071 0.58295 0.56169 0.0
C1274 C 0.02763 0.53916 0.59285 0.0
C1275 C 0.10786 0.53658 0.59528 0.0
C1276 C 0.12226 0.54801 0.61855 0.0
C1277 C 0.11767 0.56743 0.63345 0.0
C1278 C 0.13436 0.5826 0.65113 0.0
C1279 C 0.1558 0.57843 0.65407 0.0
C1280 C 0.15946 0.55718 0.64106 0.0
C1281 C 0.14284 0.5422 0.62338 0.0
C1282 C 0.04488 0.49482 0.54173 0.0
C1283 C 0.07842 0.53943 0.51207 0.0
O1284 O 1.00633 0.52044 0.51498 0.0
O1285 O 1.01213 0.55935 0.51389 0.0
O1286 O 0.05474 0.56272 0.56829 0.0
O1287 O 0.05101 0.58189 0.53918 0.0
O1288 O 0.0184 0.5388 0.56922 0.0
O1289 O 0.04916 0.53935 0.59749 0.0
O1290 O 0.09068 0.5197 0.59583 0.0
O1291 O 0.10378 0.55131 0.57968 0.0
O1292 O 0.05129 0.5153 0.53621 0.0
O1293 O 0.05477 0.49492 0.56388 0.0
O1294 O 0.08699 0.53774 0.53531 0.0
O1295 O 0.05735 0.54111 0.50753 0.0
H1296 H 0.97481 0.52905 0.54265 0.0
H1297 H 0.93481 0.51702 0.53691 0.0
H1298 H 0.93013 0.53153 0.46217 0.0
H1299 H 0.9701 0.54322 0.46797 0.0
H1300 H 0.10171 0.57181 0.63029 0.0
H1301 H 0.13086 0.59851 0.6612 0.0
H1302 H 0.17567 0.55328 0.64266 0.0
H1303 H 0.14664 0.5272 0.61207 0.0
Tb1304 Tb 0.78024 0.79242 0.30309 0.0
Tb1305 Tb 0.82559 0.77942 0.30984 0.0
C1306 C 0.74117 0.79579 0.30556 0.0
C1307 C 0.72489 0.79466 0.32241 0.0
C1308 C 0.72269 0.77749 0.33856 0.0
C1309 C 0.70571 0.77561 0.35248 0.0
C1310 C 0.6905 0.79083 0.3506 0.0
C1311 C 0.69306 0.80812 0.33456 0.0
C1312 C 0.70998 0.80999 0.32076 0.0
C1313 C 0.81261 0.82446 0.29257 0.0
C1314 C 0.81062 0.80267 0.35652 0.0
C1315 C 0.86455 0.77618 0.30652 0.0
C1316 C 0.88092 0.78004 0.28971 0.0
C1317 C 0.88028 0.76291 0.26896 0.0
C1318 C 0.89709 0.76569 0.25488 0.0
C1319 C 0.91514 0.78559 0.26119 0.0
C1320 C 0.91549 0.80292 0.28169 0.0
C1321 C 0.89869 0.80016 0.29572 0.0
C1322 C 0.79309 0.74729 0.32023 0.0
C1323 C 0.79587 0.77065 0.2563 0.0
O1324 O 0.74696 0.77565 0.29815 0.0
O1325 O 0.75773 0.81445 0.30996 0.0
O1326 O 0.81359 0.81178 0.30948 0.0
O1327 O 0.79231 0.82084 0.28174 0.0
O1328 O 0.79043 0.79746 0.34347 0.0
O1329 O 0.82778 0.79934 0.34644 0.0
O1330 O 0.85923 0.79544 0.31723 0.0
O1331 O 0.84761 0.75794 0.3 0.0
O1332 O 0.79223 0.76004 0.30338 0.0
O1333 O 0.81342 0.75076 0.33095 0.0
O1334 O 0.8159 0.77615 0.26966 0.0
O1335 O 0.7784 0.77302 0.26622 0.0
H1336 H 0.73389 0.76531 0.34017 0.0
H1337 H 0.70453 0.76223 0.36473 0.0
H1338 H 0.68158 0.81986 0.33203 0.0
H1339 H 0.71108 0.82315 0.30824 0.0
H1340 H 0.86704 0.74703 0.26386 0.0
H1341 H 0.89624 0.75178 0.23945 0.0
H1342 H 0.92881 0.8187 0.28701 0.0
H1343 H 0.89985 0.81364 0.31166 0.0
Tb1344 Tb 0.80546 0.27746 0.78471 0.0
Tb1345 Tb 0.795 0.29689 0.82941 0.0
C1346 C 0.80913 0.26822 0.74042 0.0
C1347 C 0.80822 0.28181 0.71983 0.0
C1348 C 0.80069 0.30348 0.72168 0.0
C1349 C 0.7977 0.31513 0.70123 0.0
C1350 C 0.80214 0.3052 0.67863 0.0
C1351 C 0.81037 0.28389 0.67712 0.0
C1352 C 0.81338 0.27227 0.69762 0.0
C1353 C 0.83229 0.27004 0.8231 0.0
C1354 C 0.82293 0.33594 0.80394 0.0
C1355 C 0.78971 0.30484 0.87329 0.0
C1356 C 0.7842 0.28907 0.8914 0.0
C1357 C 0.78961 0.26621 0.89017 0.0
C1358 C 0.7843 0.25134 0.90748 0.0
C1359 C 0.7735 0.25907 0.92634 0.0
C1360 C 0.76775 0.28181 0.92719 0.0
C1361 C 0.77305 0.29667 0.90982 0.0
C1362 C 0.76861 0.30473 0.79088 0.0
C1363 C 0.77805 0.23823 0.8104 0.0
O1364 O 0.79068 0.26296 0.74851 0.0
O1365 O 0.82589 0.27622 0.75826 0.0
O1366 O 0.82518 0.28919 0.82093 0.0
O1367 O 0.82497 0.25496 0.80291 0.0
O1368 O 0.81911 0.31748 0.78543 0.0
O1369 O 0.8158 0.33175 0.82463 0.0
O1370 O 0.80884 0.30527 0.8668 0.0
O1371 O 0.77421 0.30319 0.85447 0.0
O1372 O 0.77533 0.28533 0.79313 0.0
O1373 O 0.77636 0.31997 0.81091 0.0
O1374 O 0.78074 0.25695 0.82836 0.0
O1375 O 0.78591 0.24226 0.79014 0.0
H1376 H 0.79641 0.31093 0.7387 0.0
H1377 H 0.79109 0.33134 0.70286 0.0
H1378 H 0.81417 0.27602 0.65999 0.0
H1379 H 0.81919 0.25553 0.69597 0.0
H1380 H 0.79821 0.25997 0.87605 0.0
H1381 H 0.78927 0.23411 0.90653 0.0
H1382 H 0.75922 0.28815 0.94133 0.0
H1383 H 0.76855 0.31416 0.91085 0.0
Tb1384 Tb 0.78085 0.77154 0.79304 0.0
Tb1385 Tb 0.82177 0.8038 0.81682 0.0
C1386 C 0.74118 0.75076 0.78766 0.0
C1387 C 0.72214 0.76086 0.79281 0.0
C1388 C 0.72477 0.77951 0.81272 0.0
C1389 C 0.70706 0.7892 0.81798 0.0
C1390 C 0.68601 0.78011 0.80392 0.0
C1391 C 0.68338 0.76166 0.78368 0.0
C1392 C 0.70134 0.75217 0.77814 0.0
C1393 C 0.80292 0.79196 0.7615 0.0
C1394 C 0.78053 0.82997 0.81161 0.0
C1395 C 0.86131 0.82553 0.82253 0.0
C1396 C 0.88135 0.81694 0.81852 0.0
C1397 C 0.88026 0.79755 0.79986 0.0
C1398 C 0.8991 0.78945 0.7958 0.0
C1399 C 0.91972 0.80088 0.80989 0.0
C1400 C 0.92078 0.82034 0.82866 0.0
C1401 C 0.90174 0.8282 0.83298 0.0
C1402 C 0.79943 0.78294 0.84814 0.0
C1403 C 0.82206 0.74531 0.79847 0.0
O1404 O 0.75575 0.75091 0.80702 0.0
O1405 O 0.75033 0.75804 0.76952 0.0
O1406 O 0.80091 0.80181 0.78247 0.0
O1407 O 0.79174 0.76965 0.75746 0.0
O1408 O 0.76956 0.80711 0.80267 0.0
O1409 O 0.80235 0.83346 0.81836 0.0
O1410 O 0.84691 0.82418 0.80267 0.0
O1411 O 0.85206 0.81808 0.84055 0.0
O1412 O 0.80174 0.77352 0.82719 0.0
O1413 O 0.81085 0.80515 0.85264 0.0
O1414 O 0.83319 0.7683 0.80667 0.0
O1415 O 0.80018 0.74182 0.79236 0.0
H1416 H 0.74052 0.78651 0.82455 0.0
H1417 H 0.7099 0.80375 0.83333 0.0
H1418 H 0.66737 0.7541 0.77256 0.0
H1419 H 0.69894 0.73782 0.76268 0.0
H1420 H 0.86484 0.78869 0.78814 0.0
H1421 H 0.89739 0.77413 0.78155 0.0
H1422 H 0.93633 0.82988 0.83969 0.0
H1423 H 0.90299 0.84328 0.84739 0.0
Tb1424 Tb 0.53004 0.52688 0.54319 0.0
Tb1425 Tb 0.57223 0.55347 0.57314 0.0
C1426 C 0.48942 0.51393 0.52767 0.0
C1427 C 0.47214 0.52771 0.52933 0.0
C1428 C 0.47658 0.54938 0.54588 0.0
C1429 C 0.46069 0.56304 0.54751 0.0
C1430 C 0.43954 0.55487 0.53337 0.0
C1431 C 0.43505 0.53297 0.51681 0.0
C1432 C 0.45133 0.51958 0.51468 0.0
C1433 C 0.56304 0.52991 0.51848 0.0
C1434 C 0.54407 0.58483 0.54644 0.0
C1435 C 0.61232 0.56693 0.59114 0.0
C1436 C 0.62817 0.55283 0.60014 0.0
C1437 C 0.6479 0.55513 0.59108 0.0
C1438 C 0.65893 0.5361 0.59047 0.0
C1439 C 0.6502 0.5146 0.59881 0.0
C1440 C 0.63234 0.51382 0.61112 0.0
C1441 C 0.62138 0.53291 0.61186 0.0
C1442 C 0.53872 0.55083 0.59719 0.0
C1443 C 0.55891 0.4948 0.56855 0.0
O1444 O 0.49906 0.50999 0.54877 0.0
O1445 O 0.50357 0.52134 0.51384 0.0
O1446 O 0.55987 0.54587 0.53459 0.0
O1447 O 0.54649 0.51155 0.51494 0.0
O1448 O 0.52781 0.5656 0.54418 0.0
O1449 O 0.56432 0.58365 0.5555 0.0
O1450 O 0.60469 0.561 0.56758 0.0
O1451 O 0.59678 0.56921 0.60382 0.0
O1452 O 0.54232 0.53451 0.58178 0.0
O1453 O 0.55475 0.56961 0.59978 0.0
O1454 O 0.5741 0.51518 0.57573 0.0
O1455 O 0.53963 0.49484 0.55549 0.0
H1456 H 0.49231 0.55574 0.55784 0.0
H1457 H 0.46512 0.58004 0.56 0.0
H1458 H 0.41892 0.52591 0.50583 0.0
H1459 H 0.4476 0.50279 0.50188 0.0
H1460 H 0.6534 0.57036 0.58195 0.0
H1461 H 0.6727 0.53707 0.58085 0.0
H1462 H 0.6257 0.4975 0.61803 0.0
H1463 H 0.60633 0.5309 0.61927 0.0
Tb1464 Tb 0.07286 0.54158 0.04494 0.0
Tb1465 Tb 0.02693 0.5366 0.06139 0.0
C1466 C 0.11251 0.53974 0.04414 0.0
C1467 C 0.12951 0.52576 0.05193 0.0
C1468 C 0.14878 0.53761 0.06836 0.0
C1469 C 0.16637 0.52606 0.07327 0.0
C1470 C 0.16537 0.50225 0.06178 0.0
C1471 C 0.14569 0.49001 0.04609 0.0
C1472 C 0.12805 0.5016 0.04118 0.0
C1473 C 0.04176 0.54799 1.00698 0.0
C1474 C 0.04081 0.48968 0.03879 0.0
C1475 C 0.98732 0.53825 0.06287 0.0
C1476 C 0.97059 0.55306 0.05686 0.0
C1477 C 0.95881 0.55094 0.0329 0.0
C1478 C 0.94159 0.56309 0.02815 0.0
C1479 C 0.93534 0.57749 0.04726 0.0
C1480 C 0.94743 0.57987 0.07115 0.0
C1481 C 0.96471 0.56785 0.07585 0.0
C1482 C 0.05784 0.52916 0.09886 0.0
C1483 C 0.05903 0.58873 0.06821 0.0
O1484 O 0.1063 0.55365 0.06114 0.0
O1485 O 0.09611 0.52888 0.02658 0.0
O1486 O 0.0399 0.5439 0.0288 0.0
O1487 O 0.06255 0.5494 1.00703 0.0
O1488 O 0.06126 0.50234 0.04243 0.0
O1489 O 0.02415 0.49973 0.0429 0.0
O1490 O 0.99356 0.52572 0.04486 0.0
O1491 O 1.00368 0.54789 0.08087 0.0
O1492 O 0.05983 0.53405 0.07736 0.0
O1493 O 0.03697 0.52718 0.09862 0.0
O1494 O 0.03879 0.57581 0.06583 0.0
O1495 O 0.07547 0.57902 0.06237 0.0
H1496 H 0.15056 0.55621 0.07689 0.0
H1497 H 0.18096 0.53604 0.08585 0.0
H1498 H 0.14419 0.47179 0.03672 0.0
H1499 H 0.11355 0.49184 0.02831 0.0
H1500 H 0.96254 0.53947 0.01782 0.0
H1501 H 0.93306 0.56098 1.00941 0.0
H1502 H 0.94308 0.59034 0.08651 0.0
H1503 H 0.9731 0.56959 0.09462 0.0
H1504 H 0.04415 0.23088 1.00887 0.0
H1505 H 1.0062 0.08838 0.01201 0.0
H1506 H 0.99957 0.18196 0.9495 0.0
H1507 H 0.06482 0.13267 0.05762 0.0
H1508 H 1.00048 0.12326 0.99217 0.0
H1509 H 0.04911 0.19623 0.02971 0.0
C1510 C 0.03536 0.21287 1.00017 0.0
C1511 C 0.02144 0.20948 0.97725 0.0
C1512 C 1.01457 0.1254 1.00657 0.0
C1513 C 0.02687 0.16945 1.00139 0.0
C1514 C 0.01781 0.1054 0.01807 0.0
C1515 C 0.03608 0.10725 0.03661 0.0
C1516 C 0.02954 0.1478 0.01375 0.0
C1517 C 0.05049 0.13013 0.04347 0.0
C1518 C 0.03824 0.19304 0.01212 0.0
C1519 C 1.01054 0.18557 0.96704 0.0
N1520 N 0.0469 0.14938 0.03214 0.0
N1521 N 1.01338 0.1666 0.97918 0.0
H1522 H 0.16416 0.80002 0.17219 0.0
H1523 H 0.23055 0.81788 0.3104 0.0
H1524 H 0.14279 0.83141 0.23634 0.0
H1525 H 0.25593 0.78884 0.24824 0.0
H1526 H 0.19894 0.82352 0.28269 0.0
H1527 H 0.19821 0.79692 0.19839 0.0
C1528 C 0.16671 0.80662 0.1917 0.0
C1529 C 0.15042 0.81609 0.20194 0.0
C1530 C 0.21134 0.81592 0.27492 0.0
C1531 C 0.18946 0.8122 0.23224 0.0
C1532 C 0.2295 0.81263 0.29083 0.0
C1533 C 0.24604 0.80275 0.28178 0.0
C1534 C 0.20932 0.80926 0.24942 0.0
C1535 C 0.2436 0.79641 0.25612 0.0
C1536 C 0.18616 0.80469 0.20669 0.0
C1537 C 0.15473 0.82406 0.22745 0.0
N1538 N 0.2256 0.79971 0.24087 0.0
N1539 N 0.17363 0.82182 0.24158 0.0
H1540 H 0.53889 0.83432 0.49478 0.0
H1541 H 0.5013 0.96041 0.50969 0.0
H1542 H 0.50098 0.85799 0.43497 0.0
H1543 H 0.56663 0.9562 0.542 0.0
H1544 H 0.49531 0.91839 0.4891 0.0
H1545 H 0.54409 0.87499 0.51898 0.0
C1546 C 0.53148 0.84788 0.48679 0.0
C1547 C 0.51938 0.84253 0.46273 0.0
C1548 C 0.51087 0.92663 0.50092 0.0
C1549 C 0.52486 0.88878 0.49054 0.0
C1550 C 0.51426 0.95055 0.5128 0.0
C1551 C 0.53452 0.96192 0.52757 0.0
C1552 C 0.52763 0.91367 0.50427 0.0
C1553 C 0.55079 0.94821 0.53069 0.0
C1554 C 0.53453 0.87106 0.50059 0.0
C1555 C 0.51032 0.86101 0.45337 0.0
N1556 N 0.54697 0.92479 0.51925 0.0
N1557 N 0.51306 0.88311 0.46731 0.0
H1558 H 0.54269 0.30494 0.71758 0.0
H1559 H 0.41233 0.28088 0.71505 0.0
H1560 H 0.4944 0.28702 0.65096 0.0
H1561 H 0.45991 0.29238 0.7818 0.0
H1562 H 0.4423 0.28538 0.69155 0.0
H1563 H 0.51291 0.30266 0.74151 0.0
C1564 C 0.52589 0.30069 0.70792 0.0
C1565 C 0.52124 0.29619 0.68206 0.0
C1566 C 0.44621 0.28693 0.71135 0.0
C1567 C 0.48684 0.29346 0.70957 0.0
C1568 C 0.42904 0.2845 0.72486 0.0
C1569 C 0.43339 0.28614 0.75059 0.0
C1570 C 0.46811 0.29121 0.72352 0.0
C1571 C 0.45556 0.29057 0.76203 0.0
C1572 C 0.50885 0.2993 0.72165 0.0
C1573 C 0.49899 0.29065 0.67077 0.0
N1574 N 0.47197 0.29295 0.7485 0.0
N1575 N 0.48276 0.28944 0.68451 0.0
H1576 H 0.10349 0.86129 0.73452 0.0
H1577 H 0.01716 0.89765 0.63343 0.0
H1578 H 0.04065 0.81542 0.7014 0.0
H1579 H 0.08702 0.92492 0.64471 0.0
H1580 H 0.02236 0.87602 0.66875 0.0
H1581 H 0.09393 0.89338 0.71217 0.0
C1582 C 0.08752 0.85818 0.72299 0.0
C1583 C 0.07303 0.83555 0.71926 0.0
C1584 C 0.03647 0.88712 0.66372 0.0
C1585 C 0.06201 0.87198 0.694 0.0
C1586 C 0.0335 0.89938 0.64369 0.0
C1587 C 0.05176 0.91255 0.63613 0.0
C1588 C 0.05779 0.88841 0.67624 0.0
C1589 C 0.07263 0.9145 0.64989 0.0
C1590 C 0.08211 0.87643 0.71023 0.0
C1591 C 0.05248 0.83247 0.70427 0.0
N1592 N 0.07513 0.90236 0.66923 0.0
N1593 N 0.04765 0.85041 0.69195 0.0
H1594 H 0.46306 0.7678 0.85228 0.0
H1595 H 0.36144 0.82357 0.85984 0.0
H1596 H 0.46443 0.82191 0.91407 0.0
H1597 H 0.35459 0.74755 0.83261 0.0
H1598 H 0.39874 0.82464 0.88052 0.0
H1599 H 0.42294 0.76119 0.84356 0.0
C1600 C 0.4548 0.77834 0.86386 0.0
C1601 C 0.46677 0.79604 0.88324 0.0
C1602 C 0.38878 0.80763 0.8705 0.0
C1603 C 0.42134 0.78844 0.87385 0.0
C1604 C 0.36748 0.80697 0.85876 0.0
C1605 C 0.35504 0.78559 0.84397 0.0
C1606 C 0.39764 0.78692 0.86695 0.0
C1607 C 0.36373 0.7646 0.84334 0.0
C1608 C 0.43201 0.77437 0.85917 0.0
C1609 C 0.45553 0.80861 0.89849 0.0
N1610 N 0.38471 0.76595 0.8541 0.0
N1611 N 0.43335 0.80501 0.89313 0.0
H1612 H 0.58197 0.21412 0.15126 0.0
H1613 H 0.58298 0.07562 0.11362 0.0
H1614 H 0.57024 0.16011 0.19837 0.0
H1615 H 0.58102 0.12645 0.06252 0.0
H1616 H 0.58973 0.10877 0.14767 0.0
H1617 H 0.5922 0.18469 0.122 0.0
C1618 C 0.58165 0.19596 0.15541 0.0
C1619 C 0.57453 0.18906 0.17667 0.0
C1620 C 0.58839 0.1128 0.12907 0.0
C1621 C 0.58648 0.1555 0.14355 0.0
C1622 C 0.5848 0.0939 0.10962 0.0
C1623 C 0.58125 0.09826 0.08527 0.0
C1624 C 0.58831 0.13629 0.12407 0.0
C1625 C 0.58349 0.12228 0.08104 0.0
C1626 C 0.58764 0.17927 0.13882 0.0
C1627 C 0.57516 0.16577 0.18181 0.0
N1628 N 0.5865 0.14043 0.10031 0.0
N1629 N 0.58064 0.14956 0.16504 0.0
H1630 H 0.08975 0.29375 0.37575 0.0
H1631 H 0.17331 0.3224 0.28995 0.0
H1632 H 0.07429 0.34125 0.3239 0.0
H1633 H 0.14666 0.24879 0.2983 0.0
H1634 H 0.1422 0.33508 0.3059 0.0
H1635 H 0.11744 0.28329 0.35306 0.0
C1636 C 0.09238 0.30238 0.35983 0.0
C1637 C 0.07957 0.31847 0.35174 0.0
C1638 C 0.143 0.31611 0.30362 0.0
C1639 C 0.11141 0.3063 0.32568 0.0
C1640 C 0.16063 0.30887 0.29458 0.0
C1641 C 0.16244 0.28452 0.29284 0.0
C1642 C 0.12764 0.29894 0.3116 0.0
C1643 C 0.14575 0.26767 0.29919 0.0
C1644 C 0.10805 0.29611 0.34676 0.0
C1645 C 0.08378 0.32878 0.33077 0.0
N1646 N 0.12928 0.27529 0.30882 0.0
N1647 N 0.09952 0.32261 0.31844 0.0
H1648 H 0.94787 0.99239 0.19478 0.0
H1649 H 0.03752 0.08094 0.14172 0.0
H1650 H 1.00293 0.04248 0.24105 0.0
H1651 H 1.00583 1.01044 0.10095 0.0
H1652 H 0.01965 0.07078 0.17627 0.0
H1653 H 0.96393 1.00197 0.15847 0.0
C1654 C 0.96329 1.00542 0.19733 0.0
C1655 C 0.97408 0.01658 0.2211 0.0
C1656 C 0.01649 0.05755 0.15973 0.0
C1657 C 0.99229 0.02797 0.17955 0.0
C1658 C 0.0266 0.06339 0.13987 0.0
C1659 C 0.02327 0.04651 0.11829 0.0
C1660 C 1.0025 0.03479 0.15806 0.0
C1661 C 1.0089 0.02402 0.11717 0.0
C1662 C 0.97246 1.01081 0.1766 0.0
C1663 C 0.99405 0.0333 0.22319 0.0
N1664 N 0.99899 0.01884 0.13671 0.0
N1665 N 1.00235 0.03862 0.20278 0.0
H1666 H 0.28768 0.73136 0.57276 0.0
H1667 H 0.24123 0.73208 0.4321 0.0
H1668 H 0.2582 0.66623 0.521 0.0
H1669 H 0.28621 0.79158 0.48093 0.0
H1670 H 0.23779 0.71018 0.46696 0.0
H1671 H 0.27726 0.75552 0.54175 0.0
C1672 C 0.27887 0.72209 0.55488 0.0
C1673 C 0.27434 0.69671 0.54923 0.0
C1674 C 0.24804 0.72824 0.47001 0.0
C1675 C 0.26237 0.72442 0.51358 0.0
C1676 C 0.25011 0.74074 0.45015 0.0
C1677 C 0.26451 0.76352 0.45338 0.0
C1678 C 0.26025 0.73871 0.49326 0.0
C1679 C 0.27495 0.77413 0.47735 0.0
C1680 C 0.27285 0.73594 0.53721 0.0
C1681 C 0.26234 0.68575 0.52598 0.0
N1682 N 0.27285 0.76149 0.49627 0.0
N1683 N 0.25707 0.69972 0.50879 0.0
H1684 H 0.66913 0.02905 0.72193 0.0
H1685 H 0.54671 1.01176 0.64109 0.0
H1686 H 0.60926 1.00086 0.74651 0.0
H1687 H 0.6041 0.03626 0.61033 0.0
H1688 H 0.57008 1.00799 0.67887 0.0
H1689 H 0.64737 0.03193 0.68191 0.0
C1690 C 0.65147 0.02322 0.71909 0.0
C1691 C 0.64146 1.01444 0.73841 0.0
C1692 C 0.57782 1.01414 0.66402 0.0
C1693 C 0.61571 0.0181 0.69137 0.0
C1694 C 0.56429 0.01632 0.642 0.0
C1695 C 0.57287 0.02432 0.62157 0.0
C1696 C 0.60089 0.02007 0.66682 0.0
C1697 C 0.59618 0.02988 0.62496 0.0
C1698 C 0.63891 0.02498 0.69595 0.0
C1699 C 0.61822 1.00759 0.73277 0.0
N1700 N 0.60911 0.02775 0.64682 0.0
N1701 N 0.60651 1.00959 0.71034 0.0
H1702 H 0.34569 0.41397 0.98613 0.0
H1703 H 0.27976 0.30133 0.88909 0.0
H1704 H 0.30845 0.35332 0.01201 0.0
H1705 H 0.3456 0.33653 0.88464 0.0
H1706 H 0.28479 0.32329 0.93128 0.0
H1707 H 0.34043 0.38944 0.94578 0.0
C1708 C 0.33638 0.3955 0.98345 0.0
C1709 C 0.32776 0.38574 1.00287 0.0
C1710 C 0.29813 0.32601 0.92106 0.0
C1711 C 0.32115 0.35761 0.95596 0.0
C1712 C 0.29528 0.31359 0.89699 0.0
C1713 C 0.31233 0.317 0.88329 0.0
C1714 C 0.31791 0.34258 0.93121 0.0
C1715 C 0.33207 0.33314 0.89451 0.0
C1716 C 0.33342 0.38149 0.96029 0.0
C1717 C 0.31558 0.36164 0.99778 0.0
N1718 N 0.33419 0.34554 0.91758 0.0
N1719 N 0.31246 0.34847 0.97478 0.0
H1720 H 0.94951 0.03832 0.37785 0.0
H1721 H 0.03551 0.99288 0.47051 0.0
H1722 H 0.99268 0.99512 0.35113 0.0
H1723 H 1.01374 0.05915 0.48877 0.0
H1724 H 0.01777 0.9903 0.42761 0.0
H1725 H 0.97057 0.04325 0.41936 0.0
C1726 C 0.96355 0.02999 0.38069 0.0
C1727 C 0.96937 0.01636 0.36088 0.0
C1728 C 0.01701 1.00545 0.44102 0.0
C1729 C 0.99337 0.02152 0.40876 0.0
C1730 C 0.02704 1.0069 0.46557 0.0
C1731 C 0.02612 0.02624 0.48346 0.0
C1732 C 1.00554 0.02318 0.43431 0.0
C1733 C 1.01496 0.0439 0.47577 0.0
C1734 C 0.97559 0.03285 0.40443 0.0
C1735 C 0.98773 1.00597 0.36578 0.0
N1736 N 1.00496 0.0418 0.45194 0.0
N1737 N 0.99891 1.00849 0.38926 0.0
H1738 H 0.36596 0.69468 0.68361 0.0
H1739 H 0.35162 0.82229 0.72606 0.0
H1740 H 0.37076 0.75137 0.63866 0.0
H1741 H 0.35797 0.76889 0.77375 0.0
H1742 H 0.37133 0.80188 0.69823 0.0
H1743 H 0.37773 0.72543 0.72017 0.0
C1744 C 0.37021 0.71356 0.68139 0.0
C1745 C 0.36618 0.72061 0.6582 0.0
C1746 C 0.3689 0.79492 0.71508 0.0
C1747 C 0.37859 0.75576 0.69979 0.0
C1748 C 0.35756 0.80654 0.73086 0.0
C1749 C 0.35239 0.79655 0.7515 0.0
C1750 C 0.37466 0.77302 0.71994 0.0
C1751 C 0.36089 0.77655 0.75739 0.0
C1752 C 0.37678 0.73118 0.70231 0.0
C1753 C 0.37267 0.74523 0.65634 0.0
N1754 N 0.37115 0.76506 0.74136 0.0
N1755 N 0.37772 0.76205 0.67693 0.0
H1756 H 0.62323 0.02351 0.86415 0.0
H1757 H 0.62127 0.02573 0.012 0.0
H1758 H 0.68054 0.0243 0.9169 0.0
H1759 H 0.56775 0.03966 0.96242 0.0
H1760 H 0.64181 0.02256 0.97766 0.0
H1761 H 0.60222 0.02651 0.89822 0.0
C1762 C 0.6316 0.02405 0.88269 0.0
C1763 C 0.65427 0.02338 0.88665 0.0
C1764 C 0.62558 0.02632 0.97407 0.0
C1765 C 0.62928 0.02696 0.92741 0.0
C1766 C 0.61359 0.02817 0.99404 0.0
C1767 C 0.5922 0.03319 0.99111 0.0
C1768 C 0.61656 0.02905 0.94989 0.0
C1769 C 0.58395 0.03594 0.96652 0.0
C1770 C 0.61937 0.02592 0.90251 0.0
C1771 C 0.66336 0.02454 0.91197 0.0
N1772 N 0.5958 0.03377 0.94745 0.0
N1773 N 0.65114 0.0261 0.93071 0.0
H1774 H 0.33852 0.40317 0.16899 0.0
H1775 H 0.30127 0.27449 0.21409 0.0
H1776 H 0.31114 0.33605 0.1198 0.0
H1777 H 0.31933 0.34212 0.26387 0.0
H1778 H 0.30726 0.29672 0.17987 0.0
H1779 H 0.33367 0.38148 0.20407 0.0
C1780 C 0.33144 0.38391 0.16549 0.0
C1781 C 0.32519 0.37155 0.1412 0.0
C1782 C 0.31 0.30678 0.19825 0.0
C1783 C 0.31977 0.34638 0.18158 0.0
C1784 C 0.30666 0.29403 0.21791 0.0
C1785 C 0.30975 0.30635 0.24206 0.0
C1786 C 0.31665 0.33223 0.20253 0.0
C1787 C 0.31674 0.33178 0.24565 0.0
C1788 C 0.32869 0.3715 0.1856 0.0
C1789 C 0.31616 0.34649 0.13805 0.0
N1790 N 0.31992 0.34381 0.2262 0.0
N1791 N 0.31382 0.33485 0.15785 0.0
H1792 H 0.20249 0.90824 0.0203 0.0
H1793 H 0.15162 0.02595 0.02914 0.0
H1794 H 0.1949 0.95101 0.96189 0.0
H1795 H 0.16908 0.99066 0.09125 0.0
H1796 H 0.16107 0.99407 1.00226 0.0
H1797 H 0.1823 0.9325 0.04358 0.0
C1798 C 0.19604 0.92224 0.01201 0.0
C1799 C 0.20085 0.92799 0.98933 0.0
C1800 C 0.16286 0.99326 0.02176 0.0
C1801 C 0.17813 0.956 0.0161 0.0
C1802 C 0.15779 1.01166 0.0372 0.0
C1803 C 0.16014 1.0113 0.06259 0.0
C1804 C 0.17035 0.97427 0.03171 0.0
C1805 C 0.16727 0.99175 0.07182 0.0
C1806 C 0.18471 0.93625 0.02547 0.0
C1807 C 0.19195 0.94625 0.97952 0.0
N1808 N 0.1723 0.97407 0.05637 0.0
N1809 N 0.18134 0.95989 0.99316 0.0
H1810 H 0.68675 0.66216 0.01372 0.0
H1811 H 0.63318 0.53129 0.04148 0.0
H1812 H 0.72405 0.61379 0.04454 0.0
H1813 H 0.5971 0.58825 0.04423 0.0
H1814 H 0.66541 0.56029 0.03639 0.0
H1815 H 0.65269 0.6349 0.01904 0.0
C1816 C 0.68776 0.64575 0.02139 0.0
C1817 C 0.70825 0.63976 0.02778 0.0
C1818 C 0.6505 0.56658 0.03809 0.0
C1819 C 0.6695 0.60872 0.03421 0.0
C1820 C 0.63199 0.54997 0.04099 0.0
C1821 C 0.6123 0.55727 0.04342 0.0
C1822 C 0.6495 0.59088 0.03711 0.0
C1823 C 0.6119 0.58181 0.04255 0.0
C1824 C 0.66836 0.63026 0.02451 0.0
C1825 C 0.70862 0.61864 0.03835 0.0
N1826 N 0.63016 0.59772 0.0393 0.0
N1827 N 0.68967 0.60385 0.04092 0.0
H1828 H 0.67014 0.49852 0.30676 0.0
H1829 H 0.75324 0.42436 0.36882 0.0
H1830 H 0.69973 0.51234 0.38349 0.0
H1831 H 0.73009 0.41505 0.29069 0.0
H1832 H 0.72865 0.4518 0.37526 0.0
H1833 H 0.68634 0.46275 0.30141 0.0
C1834 C 0.67958 0.49372 0.32259 0.0
C1835 C 0.6838 0.5086 0.34554 0.0
C1836 C 0.72878 0.44361 0.35669 0.0
C1837 C 0.70257 0.46798 0.33951 0.0
C1838 C 0.74293 0.42802 0.35301 0.0
C1839 C 0.74397 0.41756 0.32917 0.0
C1840 C 0.71557 0.44901 0.33637 0.0
C1841 C 0.72982 0.42259 0.30941 0.0
C1842 C 0.68898 0.47342 0.31948 0.0
C1843 C 0.69629 0.50159 0.36538 0.0
N1844 N 0.71638 0.43815 0.31343 0.0
N1845 N 0.70538 0.48197 0.36186 0.0
H1846 H 0.81241 0.41221 0.44946 0.0
H1847 H 0.89801 0.52762 0.52738 0.0
H1848 H 0.79755 0.45805 0.50933 0.0
H1849 H 0.90772 0.49007 0.45909 0.0
H1850 H 0.8606 0.50321 0.52047 0.0
H1851 H 0.84731 0.44107 0.45213 0.0
C1852 C 0.81648 0.42854 0.46294 0.0
C1853 C 0.80203 0.4333 0.47871 0.0
C1854 C 0.87084 0.50053 0.50685 0.0
C1855 C 0.84183 0.46587 0.48243 0.0
C1856 C 0.89217 0.51442 0.51083 0.0
C1857 C 0.90595 0.51084 0.49381 0.0
C1858 C 0.86341 0.4827 0.4859 0.0
C1859 C 0.89756 0.4936 0.47257 0.0
C1860 C 0.83628 0.445 0.46447 0.0
C1861 C 0.80809 0.45426 0.49635 0.0
N1862 N 0.87692 0.47999 0.46935 0.0
N1863 N 0.82758 0.4698 0.49779 0.0
H1864 H 0.35908 0.10053 0.30447 0.0
H1865 H 0.36851 0.24603 0.30195 0.0
H1866 H 0.41774 0.14331 0.28845 0.0
H1867 H 0.30719 0.19537 0.29488 0.0
H1868 H 0.38749 0.21168 0.30009 0.0
H1869 H 0.3419 0.13547 0.30399 0.0
C1870 C 0.36872 0.11711 0.3007 0.0
C1871 C 0.39053 0.11748 0.29628 0.0
C1872 C 0.36987 0.20783 0.29886 0.0
C1873 C 0.36968 0.16037 0.29638 0.0
C1874 C 0.35873 0.22785 0.29993 0.0
C1875 C 0.33552 0.22472 0.29841 0.0
C1876 C 0.35834 0.18336 0.29675 0.0
C1877 C 0.32478 0.19979 0.29602 0.0
C1878 C 0.35851 0.13758 0.30049 0.0
C1879 C 0.40108 0.14081 0.2918 0.0
N1880 N 0.33599 0.18086 0.29551 0.0
N1881 N 0.39085 0.16072 0.29219 0.0
H1882 H 0.30983 0.11041 0.4927 0.0
H1883 H 0.42928 0.12159 0.57217 0.0
H1884 H 0.33596 0.16537 0.55635 0.0
H1885 H 0.39655 0.06208 0.51483 0.0
H1886 H 0.39713 0.13982 0.56548 0.0
H1887 H 0.34323 0.09519 0.49896 0.0
C1888 C 0.32263 0.11949 0.508 0.0
C1889 C 0.31977 0.13931 0.52406 0.0
C1890 C 0.39706 0.12282 0.55433 0.0
C1891 C 0.35869 0.12149 0.53144 0.0
C1892 C 0.41542 0.11224 0.5582 0.0
C1893 C 0.41592 0.09007 0.54408 0.0
C1894 C 0.37893 0.1113 0.5361 0.0
C1895 C 0.39739 0.0793 0.52598 0.0
C1896 C 0.34182 0.11063 0.51159 0.0
C1897 C 0.33728 0.15011 0.54343 0.0
N1898 N 0.37983 0.08995 0.52259 0.0
N1899 N 0.35591 0.14103 0.54662 0.0
H1900 H 0.67295 0.6578 0.35237 0.0
H1901 H 0.75162 0.73305 0.29309 0.0
H1902 H 0.71288 0.61169 0.32344 0.0
H1903 H 0.79249 0.71805 0.35602 0.0
H1904 H 0.72103 0.70245 0.30029 0.0
H1905 H 0.70085 0.69364 0.34841 0.0
C1906 C 0.6876 0.65524 0.3454 0.0
C1907 C 0.69103 0.63181 0.33904 0.0
C1908 C 0.73662 0.70625 0.31271 0.0
C1909 C 0.72264 0.67224 0.3346 0.0
C1910 C 0.75403 0.72382 0.30879 0.0
C1911 C 0.77449 0.72873 0.32445 0.0
C1912 C 0.73988 0.69291 0.33194 0.0
C1913 C 0.77696 0.71508 0.34367 0.0
C1914 C 0.70343 0.67558 0.34321 0.0
C1915 C 0.71002 0.62945 0.32947 0.0
N1916 N 0.75994 0.69752 0.34666 0.0
N1917 N 0.72524 0.64936 0.32784 0.0
H1918 H 0.9229 0.47251 0.80832 0.0
H1919 H 0.81626 0.38142 0.82285 0.0
H1920 H 0.86234 0.48729 0.77403 0.0
H1921 H 0.85795 0.35084 0.77924 0.0
H1922 H 0.83556 0.42242 0.81856 0.0
H1923 H 0.90327 0.431 0.81063 0.0
C1924 C 0.90542 0.46736 0.80154 0.0
C1925 C 0.89441 0.48465 0.79205 0.0
C1926 C 0.84057 0.40682 0.80993 0.0
C1927 C 0.87123 0.43582 0.79481 0.0
C1928 C 0.8295 0.3831 0.81243 0.0
C1929 C 0.83505 0.36185 0.80136 0.0
C1930 C 0.85828 0.41017 0.79699 0.0
C1931 C 0.85263 0.36614 0.7881 0.0
C1932 C 0.89414 0.44337 0.80287 0.0
C1933 C 0.87167 0.47569 0.78286 0.0
N1934 N 0.86362 0.38937 0.78667 0.0
N1935 N 0.86098 0.45254 0.78492 0.0
H1936 H 0.05316 0.84843 0.09184 0.0
H1937 H 0.0954 0.99305 0.10903 0.0
H1938 H 0.10174 0.88635 0.15437 0.0
H1939 H 0.03972 0.95143 0.05661 0.0
H1940 H 0.10102 0.95544 0.12437 0.0
H1941 H 0.05124 0.88645 0.07766 0.0
C1942 C 0.06355 0.86473 0.1028 0.0
C1943 C 0.07759 0.86369 0.12469 0.0
C1944 C 0.08766 0.95457 0.10943 0.0
C1945 C 0.07534 0.90853 0.10786 0.0
C1946 C 0.08454 0.97608 0.10046 0.0
C1947 C 0.06711 0.97568 0.08126 0.0
C1948 C 0.07334 0.93228 0.09905 0.0
C1949 C 0.05339 0.95295 0.07137 0.0
C1950 C 0.06238 0.88671 0.09451 0.0
C1951 C 0.09061 0.88597 0.1375 0.0
N1952 N 0.05681 0.93245 0.08028 0.0
N1953 N 0.08916 0.90741 0.12895 0.0
H1954 H 0.94728 0.29141 0.9401 0.0
H1955 H 0.85458 0.23357 0.82124 0.0
H1956 H 0.95393 0.23583 0.88372 0.0
H1957 H 0.85532 0.30181 0.86489 0.0
H1958 H 0.88802 0.23068 0.8479 0.0
H1959 H 0.91066 0.29146 0.91734 0.0
C1960 C 0.94094 0.27909 0.92301 0.0
C1961 C 0.95399 0.26427 0.91325 0.0
C1962 C 0.88087 0.24625 0.85182 0.0
C1963 C 0.91191 0.26375 0.88742 0.0
C1964 C 0.86168 0.24794 0.83656 0.0
C1965 C 0.85205 0.26806 0.84065 0.0
C1966 C 0.89063 0.26464 0.87175 0.0
C1967 C 0.86214 0.28601 0.86095 0.0
C1968 C 0.92007 0.27916 0.91001 0.0
C1969 C 0.94474 0.24816 0.89144 0.0
N1970 N 0.88085 0.28389 0.87571 0.0
N1971 N 0.92441 0.24844 0.87922 0.0
H1972 H 0.55639 0.21998 0.66203 0.0
H1973 H 0.59177 0.12532 0.56546 0.0
H1974 H 0.59415 0.24421 0.60802 0.0
H1975 H 0.53277 0.10884 0.59611 0.0
H1976 H 0.59726 0.16801 0.58465 0.0
H1977 H 0.55229 0.17787 0.64243 0.0
C1978 C 0.56375 0.21638 0.64598 0.0
C1979 C 0.5749 0.23557 0.63606 0.0
C1980 C 0.58312 0.15496 0.58706 0.0
C1981 C 0.57101 0.18743 0.61401 0.0
C1982 C 0.58 0.1306 0.57617 0.0
C1983 C 0.56173 0.11335 0.57902 0.0
C1984 C 0.56818 0.16199 0.60143 0.0
C1985 C 0.54702 0.12137 0.59316 0.0
C1986 C 0.56143 0.19239 0.63479 0.0
C1987 C 0.58477 0.22991 0.61569 0.0
N1988 N 0.55066 0.14491 0.60392 0.0
N1989 N 0.58259 0.20636 0.60531 0.0
H1990 H 0.5756 0.81772 0.40631 0.0
H1991 H 0.66582 0.74953 0.36296 0.0
H1992 H 0.57664 0.74479 0.41918 0.0
H1993 H 0.67206 0.82708 0.37073 0.0
H1994 H 0.63367 0.74658 0.38328 0.0
H1995 H 0.61098 0.82078 0.39305 0.0
C1996 C 0.58346 0.8024 0.40666 0.0
C1997 C 0.57312 0.78101 0.41401 0.0
C1998 C 0.6422 0.76423 0.38066 0.0
C1999 C 0.61378 0.78417 0.3981 0.0
C2000 C 0.66069 0.76599 0.36911 0.0
C2001 C 0.67176 0.7886 0.36468 0.0
C2002 C 0.63452 0.78519 0.38776 0.0
C2003 C 0.66394 0.80915 0.373 0.0
C2004 C 0.60372 0.80415 0.39902 0.0
C2005 C 0.58412 0.76173 0.41394 0.0
N2006 N 0.64585 0.8069 0.38384 0.0
N2007 N 0.60371 0.76363 0.40579 0.0
H2008 H 0.0349 0.22182 0.39337 0.0
H2009 H 0.10292 0.19074 0.51282 0.0
H2010 H 0.08305 0.27394 0.44698 0.0
H2011 H 0.0489 0.14045 0.46481 0.0
H2012 H 0.10263 0.21851 0.48267 0.0
H2013 H 0.04677 0.18911 0.41294 0.0
C2014 C 0.04824 0.22632 0.40895 0.0
C2015 C 0.05764 0.25052 0.41904 0.0
C2016 C 0.09108 0.20121 0.47856 0.0
C2017 C 0.0712 0.2135 0.44142 0.0
C2018 C 0.09119 0.18544 0.49581 0.0
C2019 C 0.07564 0.16352 0.4915 0.0
C2020 C 0.07516 0.19508 0.45704 0.0
C2021 C 0.06114 0.15722 0.46891 0.0
C2022 C 0.05498 0.2077 0.42013 0.0
C2023 C 0.075 0.25547 0.43904 0.0
N2024 N 0.06101 0.17313 0.45268 0.0
N2025 N 0.08102 0.23712 0.44981 0.0
H2026 H 0.62711 0.29631 0.25865 0.0
H2027 H 0.7364 0.26813 0.22073 0.0
H2028 H 0.63148 0.26924 0.18409 0.0
H2029 H 0.73648 0.31819 0.28557 0.0
H2030 H 0.69774 0.26828 0.20692 0.0
H2031 H 0.66722 0.30559 0.26893 0.0
C2032 C 0.63649 0.29281 0.24434 0.0
C2033 C 0.62594 0.28175 0.22057 0.0
C2034 C 0.70635 0.27951 0.224 0.0
C2035 C 0.67165 0.29175 0.23229 0.0
C2036 C 0.72835 0.27932 0.2319 0.0
C2037 C 0.73968 0.29324 0.25422 0.0
C2038 C 0.69553 0.29332 0.23879 0.0
C2039 C 0.72848 0.30743 0.26805 0.0
C2040 C 0.65937 0.29801 0.25022 0.0
C2041 C 0.63891 0.27757 0.20273 0.0
N2042 N 0.70695 0.30689 0.26025 0.0
N2043 N 0.66106 0.28217 0.20905 0.0
H2044 H 0.5129 0.90072 0.89713 0.0
H2045 H 0.5279 0.94381 0.04196 0.0
H2046 H 0.54024 0.86355 0.95337 0.0
H2047 H 0.52546 0.99417 0.99019 0.0
H2048 H 0.52311 0.91093 1.0077 0.0
H2049 H 0.5106 0.93316 0.92958 0.0
C2050 C 0.51861 0.89945 0.91615 0.0
C2051 C 0.52671 0.87927 0.92243 0.0
C2052 C 0.5233 0.92916 1.00384 0.0
C2053 C 0.52346 0.91572 0.95939 0.0
C2054 C 0.5258 0.94786 0.02337 0.0
C2055 C 0.52737 0.97176 0.01891 0.0
C2056 C 0.52229 0.93443 0.97974 0.0
C2057 C 0.52445 0.97598 0.99441 0.0
C2058 C 0.5171 0.91782 0.93461 0.0
C2059 C 0.53377 0.87858 0.94745 0.0
N2060 N 0.52234 0.95752 0.97569 0.0
N2061 N 0.53181 0.89638 0.96492 0.0
H2062 H 1.01505 0.74464 0.7365 0.0
H2063 H 0.95739 0.80002 0.84205 0.0
H2064 H 0.05187 0.78499 0.8057 0.0
H2065 H 0.92852 0.78354 0.76495 0.0
H2066 H 0.99046 0.78759 0.83188 0.0
H2067 H 0.98121 0.75027 0.75027 0.0
C2068 C 0.01606 0.75426 0.75479 0.0
C2069 C 0.03646 0.76462 0.76982 0.0
C2070 C 0.97675 0.78657 0.81729 0.0
C2071 C 0.99762 0.77133 0.78558 0.0
C2072 C 0.9579 0.79385 0.82302 0.0
C2073 C 0.93994 0.79289 0.80438 0.0
C2074 C 0.97759 0.77799 0.7928 0.0
C2075 C 0.94159 0.78421 0.78012 0.0
C2076 C 0.99669 0.75765 0.76255 0.0
C2077 C 0.03657 0.77691 0.79336 0.0
N2078 N 0.96001 0.77712 0.77509 0.0
N2079 N 0.01746 0.7801 0.80044 0.0
H2080 H 0.10973 0.04299 0.88205 0.0
H2081 H 0.09923 0.07209 0.02399 0.0
H2082 H 0.16087 0.09119 0.93566 0.0
H2083 H 0.06406 1.00588 0.97725 0.0
H2084 H 0.11931 0.08263 0.99087 0.0
H2085 H 0.08963 0.03288 0.91531 0.0
C2086 C 0.11663 0.05171 0.90071 0.0
C2087 C 0.1371 0.06802 0.90589 0.0
C2088 C 0.10726 0.06575 0.98789 0.0
C2089 C 0.11405 0.05649 0.94424 0.0
C2090 C 0.09582 0.05969 1.00686 0.0
C2091 C 0.07997 0.03798 1.00357 0.0
C2092 C 0.10255 0.05029 0.96514 0.0
C2093 C 0.07618 0.02273 0.98076 0.0
C2094 C 0.10521 0.04576 0.91975 0.0
C2095 C 0.14522 0.07849 0.93064 0.0
N2096 N 0.08719 0.02925 0.96244 0.0
N2097 N 0.1337 0.07266 0.94874 0.0
H2098 H 0.75151 0.3282 0.53297 0.0
H2099 H 0.80992 0.35338 0.674 0.0
H2100 H 0.7822 0.39976 0.57224 0.0
H2101 H 0.78197 0.28201 0.63282 0.0
H2102 H 0.7993 0.371 0.63732 0.0
H2103 H 0.76172 0.31118 0.56996 0.0
C2104 C 0.76036 0.34035 0.54942 0.0
C2105 C 0.76609 0.36541 0.54955 0.0
C2106 C 0.79557 0.35149 0.63631 0.0
C2107 C 0.7779 0.34605 0.59193 0.0
C2108 C 0.80157 0.34144 0.65723 0.0
C2109 C 0.79689 0.31621 0.65639 0.0
C2110 C 0.78473 0.33616 0.61447 0.0
C2111 C 0.78621 0.30154 0.63417 0.0
C2112 C 0.76622 0.33061 0.57053 0.0
C2113 C 0.77751 0.38031 0.57136 0.0
N2114 N 0.78044 0.31174 0.61411 0.0
N2115 N 0.78309 0.37038 0.59172 0.0
H2116 H 0.42664 0.05561 0.39152 0.0
H2117 H 0.54915 0.05366 0.46139 0.0
H2118 H 0.48234 0.05957 0.35494 0.0
H2119 H 0.4938 0.04515 0.49851 0.0
H2120 H 0.5252 0.05688 0.42364 0.0
H2121 H 0.45016 0.05311 0.43007 0.0
C2122 C 0.44385 0.0562 0.39132 0.0
C2123 C 0.45198 0.05807 0.36897 0.0
C2124 C 0.51806 0.05433 0.43988 0.0
C2125 C 0.47996 0.0549 0.41486 0.0
C2126 C 0.53191 0.05246 0.46188 0.0
C2127 C 0.52403 0.04904 0.48407 0.0
C2128 C 0.49541 0.05294 0.43903 0.0
C2129 C 0.50115 0.04773 0.48244 0.0
C2130 C 0.45742 0.05464 0.41376 0.0
C2131 C 0.47476 0.05842 0.37106 0.0
N2132 N 0.48794 0.04967 0.46071 0.0
N2133 N 0.48759 0.05689 0.39311 0.0
H2134 H 0.75721 0.67536 0.11597 0.0
H2135 H 0.82605 0.77701 0.22559 0.0
H2136 H 0.80467 0.73547 0.10257 0.0
H2137 H 0.75964 0.74083 0.22648 0.0
H2138 H 0.8219 0.75832 0.18253 0.0
H2139 H 0.76152 0.69497 0.15868 0.0
C2140 C 0.76873 0.69256 0.12206 0.0
C2141 C 0.78063 0.70374 0.10559 0.0
C2142 C 0.80822 0.75459 0.19214 0.0
C2143 C 0.78573 0.72624 0.15465 0.0
C2144 C 0.81056 0.76522 0.21673 0.0
C2145 C 0.79311 0.76062 0.22972 0.0
C2146 C 0.78849 0.73868 0.18052 0.0
C2147 C 0.77346 0.74511 0.2172 0.0
C2148 C 0.77104 0.70382 0.14641 0.0
C2149 C 0.79516 0.72618 0.11457 0.0
N2150 N 0.77176 0.73451 0.19345 0.0
N2151 N 0.79742 0.73659 0.13849 0.0
H2152 H 0.15551 0.08001 0.75155 0.0
H2153 H 0.06631 1.00221 0.63925 0.0
H2154 H 0.10004 0.0289 0.76444 0.0
H2155 H 0.09901 0.07585 0.6382 0.0
H2156 H 0.08238 1.00686 0.68314 0.0
H2157 H 0.13915 0.07375 0.70792 0.0
C2158 C 0.13996 0.0673 0.7452 0.0
C2159 C 0.12915 0.05501 0.7618 0.0
C2160 C 0.08599 0.02196 0.67324 0.0
C2161 C 0.1104 0.04752 0.71155 0.0
C2162 C 0.07692 0.0193 0.64817 0.0
C2163 C 0.08123 0.03871 0.63494 0.0
C2164 C 0.09997 0.04394 0.68504 0.0
C2165 C 0.09507 0.06045 0.64759 0.0
C2166 C 0.13059 0.06384 0.72027 0.0
C2167 C 0.10894 0.03884 0.75237 0.0
N2168 N 0.10406 0.06238 0.67175 0.0
N2169 N 0.1003 0.03543 0.72787 0.0
H2170 H 0.73174 0.39512 0.39006 0.0
H2171 H 0.796 0.31609 0.3538 0.0
H2172 H 0.72114 0.33513 0.43046 0.0
H2173 H 0.73368 0.27292 0.31537 0.0
H2174 H 0.77668 0.34227 0.37649 0.0
H2175 H 0.73806 0.36755 0.3557 0.0
C2176 C 0.72998 0.37608 0.39142 0.0
C2177 C 0.72702 0.36762 0.41358 0.0
C2178 C 0.76733 0.32718 0.36285 0.0
C2179 C 0.73326 0.33617 0.37425 0.0
C2180 C 0.77827 0.31236 0.34993 0.0
C2181 C 0.76639 0.29281 0.33233 0.0
C2182 C 0.7444 0.32193 0.35864 0.0
C2183 C 0.74337 0.28795 0.3288 0.0
C2184 C 0.73347 0.36041 0.37178 0.0
C2185 C 0.72414 0.34256 0.414 0.0
N2186 N 0.73298 0.30236 0.34212 0.0
N2187 N 0.72793 0.32776 0.39483 0.0
H2188 H 0.42683 0.04063 0.19434 0.0
H2189 H 0.54394 0.04572 0.14467 0.0
H2190 H 0.48948 0.06353 0.24205 0.0
H2191 H 0.48301 0.03597 0.09474 0.0
H2192 H 0.5243 0.05025 0.17951 0.0
H2193 H 0.44591 0.03702 0.15864 0.0
C2194 C 0.44458 0.04503 0.19766 0.0
C2195 C 0.45602 0.05265 0.22229 0.0
C2196 C 0.515 0.04707 0.16103 0.0
C2197 C 0.47893 0.04799 0.17972 0.0
C2198 C 0.5264 0.04437 0.14067 0.0
C2199 C 0.5157 0.04023 0.11566 0.0
C2200 C 0.49199 0.04544 0.15747 0.0
C2201 C 0.49262 0.03903 0.11304 0.0
C2202 C 0.45566 0.0429 0.17685 0.0
C2203 C 0.47932 0.05774 0.22407 0.0
N2204 N 0.4819 0.0414 0.13314 0.0
N2205 N 0.4896 0.05525 0.20371 0.0
H2206 H 0.77956 0.73194 0.98759 0.0
H2207 H 0.78281 0.73396 0.84351 0.0
H2208 H 0.75978 0.66845 0.93189 0.0
H2209 H 0.80088 0.79867 0.8975 0.0
H2210 H 0.77368 0.71012 0.87574 0.0
H2211 H 0.7869 0.75685 0.95543 0.0
C2212 C 0.77667 0.72316 0.96867 0.0
C2213 C 0.76902 0.69784 0.96272 0.0
C2214 C 0.77954 0.72954 0.88063 0.0
C2215 C 0.77753 0.72654 0.92548 0.0
C2216 C 0.78471 0.74324 0.86212 0.0
C2217 C 0.7926 0.76849 0.86763 0.0
C2218 C 0.78231 0.74099 0.90513 0.0
C2219 C 0.79483 0.77931 0.89227 0.0
C2220 C 0.7809 0.73747 0.95025 0.0
C2221 C 0.76568 0.68777 0.93767 0.0
N2222 N 0.78981 0.76557 0.91002 0.0
N2223 N 0.76997 0.70202 0.92019 0.0
H2224 H 0.82172 0.08909 0.03684 0.0
H2225 H 0.94763 0.0933 0.03019 0.0
H2226 H 0.87468 0.14607 0.07792 0.0
H2227 H 0.8949 0.03192 0.99919 0.0
H2228 H 0.9207 0.11669 0.04073 0.0
H2229 H 0.84792 0.07185 0.01649 0.0
C2230 C 0.83886 0.09809 0.04156 0.0
C2231 C 0.84602 0.1189 0.05948 0.0
C2232 C 0.91502 0.09823 0.03129 0.0
C2233 C 0.8762 0.09908 0.03606 0.0
C2234 C 0.93035 0.08494 0.02506 0.0
C2235 C 0.92344 0.06057 0.01402 0.0
C2236 C 0.89266 0.08704 0.02637 0.0
C2237 C 0.9009 0.05055 1.00802 0.0
C2238 C 0.85383 0.08821 0.02983 0.0
C2239 C 0.86843 0.12989 0.06442 0.0
N2240 N 0.88632 0.06376 0.01449 0.0
N2241 N 0.88278 0.11969 0.05294 0.0
H2242 H 0.39545 0.46182 0.11419 0.0
H2243 H 0.50094 0.47656 0.04857 0.0
H2244 H 0.4042 0.40653 0.05883 0.0
H2245 H 0.49612 0.52463 0.11263 0.0
H2246 H 0.46653 0.44984 0.05267 0.0
H2247 H 0.43315 0.48372 0.11538 0.0
C2248 C 0.40538 0.45428 0.1023 0.0
C2249 C 0.39643 0.43279 0.08574 0.0
C2250 C 0.47312 0.46609 0.06599 0.0
C2251 C 0.4398 0.45781 0.08691 0.0
C2252 C 0.49282 0.48138 0.06366 0.0
C2253 C 0.50155 0.50296 0.08027 0.0
C2254 C 0.46184 0.47246 0.08497 0.0
C2255 C 0.49008 0.50826 0.09934 0.0
C2256 C 0.42698 0.46673 0.10305 0.0
C2257 C 0.4103 0.42337 0.07142 0.0
N2258 N 0.47086 0.49332 0.10103 0.0
N2259 N 0.43109 0.43616 0.07193 0.0
H2260 H 0.42622 0.58108 0.82451 0.0
H2261 H 0.36173 0.64261 0.72821 0.0
H2262 H 0.42847 0.56551 0.74741 0.0
H2263 H 0.38663 0.67859 0.80282 0.0
H2264 H 0.38593 0.61438 0.73437 0.0
H2265 H 0.41197 0.61713 0.81715 0.0
C2266 C 0.42426 0.58571 0.80613 0.0
C2267 C 0.4287 0.57055 0.78657 0.0
C2268 C 0.38626 0.62866 0.74927 0.0
C2269 C 0.41155 0.61109 0.77779 0.0
C2270 C 0.37246 0.64491 0.74577 0.0
C2271 C 0.37177 0.66299 0.76511 0.0
C2272 C 0.39924 0.63015 0.77238 0.0
C2273 C 0.38597 0.6646 0.78754 0.0
C2274 C 0.41605 0.60619 0.8019 0.0
C2275 C 0.42553 0.57701 0.76301 0.0
N2276 N 0.39884 0.64821 0.79065 0.0
N2277 N 0.4167 0.59656 0.75915 0.0
H2278 H 0.28535 0.63404 0.65577 0.0
H2279 H 0.16083 0.62706 0.65262 0.0
H2280 H 0.25241 0.69041 0.63641 0.0
H2281 H 0.19489 0.57491 0.68161 0.0
H2282 H 0.19549 0.65586 0.65821 0.0
H2283 H 0.25486 0.61744 0.67553 0.0
C2284 C 0.27162 0.64289 0.65579 0.0
C2285 C 0.27057 0.66269 0.64339 0.0
C2286 C 0.19541 0.63838 0.66403 0.0
C2287 C 0.23596 0.64426 0.66613 0.0
C2288 C 0.17546 0.62188 0.66106 0.0
C2289 C 0.17495 0.59812 0.66585 0.0
C2290 C 0.21499 0.63093 0.67138 0.0
C2291 C 0.1946 0.59271 0.67678 0.0
C2292 C 0.25438 0.63367 0.66734 0.0
C2293 C 0.25322 0.67446 0.64499 0.0
N2294 N 0.21392 0.60873 0.67849 0.0
N2295 N 0.23624 0.66467 0.65556 0.0
H2296 H 0.74289 0.97509 0.84645 0.0
H2297 H 0.73613 0.83183 0.79356 0.0
H2298 H 0.68698 0.93402 0.79425 0.0
H2299 H 0.7953 0.88014 0.83286 0.0
H2300 H 0.71722 0.8662 0.7952 0.0
H2301 H 0.76025 0.94018 0.84331 0.0
C2302 C 0.73386 0.95885 0.83423 0.0
C2303 C 0.71273 0.95886 0.82073 0.0
C2304 C 0.73434 0.86952 0.80355 0.0
C2305 C 0.73385 0.91622 0.81712 0.0
C2306 C 0.74543 0.84948 0.80268 0.0
C2307 C 0.76801 0.85196 0.81305 0.0
C2308 C 0.74527 0.89333 0.81522 0.0
C2309 C 0.77819 0.87625 0.82442 0.0
C2310 C 0.74417 0.93843 0.83244 0.0
C2311 C 0.703 0.93609 0.80534 0.0
N2312 N 0.76702 0.89521 0.82523 0.0
N2313 N 0.71334 0.9163 0.80417 0.0
H2314 H 0.77094 0.92521 0.601 0.0
H2315 H 0.68612 0.98601 0.51973 0.0
H2316 H 0.77958 0.94881 0.53179 0.0
H2317 H 0.683 0.97997 0.59561 0.0
H2318 H 0.71786 0.9674 0.52281 0.0
H2319 H 0.73642 0.93999 0.59833 0.0
C2320 C 0.76546 0.9331 0.5851 0.0
C2321 C 0.77831 0.93575 0.56662 0.0
C2322 C 0.71026 0.97002 0.53884 0.0
C2323 C 0.73887 0.95277 0.56346 0.0
C2324 C 0.69191 0.98056 0.53704 0.0
C2325 C 0.68157 0.98459 0.55738 0.0
C2326 C 0.71861 0.96317 0.56115 0.0
C2327 C 0.69041 0.97744 0.57944 0.0
C2328 C 0.74585 0.94174 0.58369 0.0
C2329 C 0.77041 0.94644 0.54659 0.0
N2330 N 0.70832 0.96707 0.58072 0.0
N2331 N 0.75139 0.95445 0.54558 0.0
H2332 H 0.39075 0.45018 0.75065 0.0
H2333 H 0.35311 0.3413 0.8224 0.0
H2334 H 0.4351 0.42811 0.80556 0.0
H2335 H 0.31485 0.3511 0.75506 0.0
H2336 H 0.38349 0.37235 0.81603 0.0
H2337 H 0.36338 0.41314 0.75047 0.0
C2338 C 0.39473 0.43738 0.76257 0.0
C2339 C 0.41486 0.44251 0.77875 0.0
C2340 C 0.36859 0.3675 0.80242 0.0
C2341 C 0.38364 0.40012 0.77878 0.0
C2342 C 0.35124 0.34964 0.806 0.0
C2343 C 0.33151 0.34322 0.78901 0.0
C2344 C 0.36615 0.37948 0.7819 0.0
C2345 C 0.32979 0.35539 0.76858 0.0
C2346 C 0.37916 0.41618 0.76239 0.0
C2347 C 0.41953 0.42504 0.79324 0.0
N2348 N 0.34679 0.37301 0.76569 0.0
N2349 N 0.40386 0.40488 0.79333 0.0
H2350 H 0.23404 0.57798 0.30297 0.0
H2351 H 0.27665 0.6957 0.27883 0.0
H2352 H 0.18838 0.61082 0.33796 0.0
H2353 H 0.25487 0.72241 0.34445 0.0
H2354 H 0.25803 0.65439 0.28198 0.0
H2355 H 0.25475 0.61864 0.30024 0.0
C2356 C 0.2284 0.59366 0.31044 0.0
C2357 C 0.20931 0.59024 0.32119 0.0
C2358 C 0.25732 0.6691 0.2959 0.0
C2359 C 0.23336 0.63842 0.31751 0.0
C2360 C 0.26799 0.69311 0.294 0.0
C2361 C 0.26779 0.71342 0.31137 0.0
C2362 C 0.24553 0.66446 0.31516 0.0
C2363 C 0.2559 0.70788 0.33048 0.0
C2364 C 0.24023 0.61721 0.30857 0.0
C2365 C 0.20297 0.61198 0.32977 0.0
N2366 N 0.24528 0.68442 0.33165 0.0
N2367 N 0.21488 0.63467 0.32802 0.0
H2368 H 0.51121 0.7205 0.50965 0.0
H2369 H 0.5707 0.61248 0.52143 0.0
H2370 H 0.53091 0.68712 0.44536 0.0
H2371 H 0.50817 0.6064 0.54502 0.0
H2372 H 0.56344 0.64654 0.50059 0.0
H2373 H 0.51658 0.68543 0.53 0.0
C2374 C 0.51671 0.70584 0.49982 0.0
C2375 C 0.52053 0.70678 0.47567 0.0
C2376 C 0.55139 0.63783 0.51047 0.0
C2377 C 0.52734 0.66691 0.49923 0.0
C2378 C 0.55557 0.61852 0.52256 0.0
C2379 C 0.5401 0.60659 0.53522 0.0
C2380 C 0.5319 0.64598 0.51162 0.0
C2381 C 0.5206 0.61506 0.5356 0.0
C2382 C 0.51967 0.68581 0.51143 0.0
C2383 C 0.52762 0.68714 0.46388 0.0
N2384 N 0.5172 0.63443 0.52431 0.0
N2385 N 0.53114 0.66827 0.47588 0.0
H2386 H 0.65808 0.29083 0.66979 0.0
H2387 H 0.7451 0.34009 0.7947 0.0
H2388 H 0.64568 0.33763 0.73064 0.0
H2389 H 0.7466 0.27472 0.74749 0.0
H2390 H 0.71171 0.34339 0.76812 0.0
H2391 H 0.6932 0.28888 0.69444 0.0
C2392 C 0.66286 0.30104 0.68818 0.0
C2393 C 0.64878 0.31455 0.69802 0.0
C2394 C 0.7193 0.32832 0.76347 0.0
C2395 C 0.68921 0.31228 0.72648 0.0
C2396 C 0.73849 0.32642 0.77865 0.0
C2397 C 0.74874 0.30696 0.77354 0.0
C2398 C 0.7102 0.31088 0.74255 0.0
C2399 C 0.73926 0.28994 0.7523 0.0
C2400 C 0.68287 0.29971 0.70233 0.0
C2401 C 0.65589 0.32706 0.72215 0.0
N2402 N 0.72061 0.29232 0.73759 0.0
N2403 N 0.67552 0.32569 0.73543 0.0
H2404 H 1.00201 0.35989 0.93323 0.0
H2405 H 0.06858 0.45815 0.04381 0.0
H2406 H 0.03947 0.33701 0.99396 0.0
H2407 H 1.00359 0.46157 1.00955 0.0
H2408 H 0.06233 0.41599 0.0232 0.0
H2409 H 1.00668 0.39961 0.95777 0.0
C2410 C 1.01118 0.36308 0.95174 0.0
C2411 C 0.02014 0.34474 0.96151 0.0
C2412 C 0.04939 0.42593 0.02046 0.0
C2413 C 0.02604 0.39089 0.98963 0.0
C2414 C 0.05293 0.44999 0.03215 0.0
C2415 C 0.03654 0.46344 0.02849 0.0
C2416 C 0.02959 0.41547 1.00438 0.0
C2417 C 0.01662 0.45189 0.01309 0.0
C2418 C 1.01379 0.38586 0.96577 0.0
C2419 C 0.03212 0.35043 0.98566 0.0
N2420 N 1.01385 0.42877 1.00132 0.0
N2421 N 0.03494 0.37308 0.9988 0.0
H2422 H 0.04383 0.81048 0.21617 0.0
H2423 H 0.91334 0.77412 0.21112 0.0
H2424 H 0.99681 0.7834 0.14927 0.0
H2425 H 0.9596 0.80255 0.27832 0.0
H2426 H 0.94378 0.77756 0.18837 0.0
H2427 H 1.01348 0.80823 0.23925 0.0
C2428 C 0.02719 0.80416 0.20626 0.0
C2429 C 0.02307 0.79717 0.18059 0.0
C2430 C 0.9473 0.7831 0.2081 0.0
C2431 C 0.98802 0.79441 0.20712 0.0
C2432 C 0.92986 0.781 0.22119 0.0
C2433 C 0.93369 0.78802 0.24684 0.0
C2434 C 0.96896 0.79225 0.22059 0.0
C2435 C 0.95563 0.79719 0.25859 0.0
C2436 C 1.00981 0.80285 0.2195 0.0
C2437 C 1.00099 0.78907 0.16895 0.0
N2438 N 0.97233 0.79896 0.24545 0.0
N2439 N 0.98444 0.78789 0.18224 0.0
H2440 H 0.50328 0.26986 0.13919 0.0
H2441 H 0.54439 0.4112 0.13902 0.0
H2442 H 0.55469 0.31655 0.19405 0.0
H2443 H 0.50142 0.36196 0.07852 0.0
H2444 H 0.54165 0.37868 0.16398 0.0
H2445 H 0.4962 0.30523 0.12153 0.0
C2446 C 0.51297 0.28755 0.14771 0.0
C2447 C 0.52992 0.29013 0.1679 0.0
C2448 C 0.53255 0.37509 0.14537 0.0
C2449 C 0.52184 0.33074 0.14763 0.0
C2450 C 0.53396 0.39369 0.13118 0.0
C2451 C 0.52334 0.38911 0.10658 0.0
C2452 C 0.52044 0.35181 0.13485 0.0
C2453 C 0.51019 0.36606 0.09728 0.0
C2454 C 0.50888 0.30776 0.13759 0.0
C2455 C 0.54168 0.31361 0.17828 0.0
N2456 N 0.50931 0.34817 0.11135 0.0
N2457 N 0.53758 0.33299 0.16784 0.0
H2458 H 0.97303 0.2689 0.34634 0.0
H2459 H 0.86531 0.31671 0.35968 0.0
H2460 H 0.96646 0.31398 0.4116 0.0
H2461 H 0.86568 0.25458 0.30687 0.0
H2462 H 0.90218 0.31552 0.37939 0.0
H2463 H 0.93339 0.26215 0.33201 0.0
C2464 C 0.96311 0.27737 0.35756 0.0
C2465 C 0.9728 0.29282 0.37955 0.0
C2466 C 0.89406 0.30193 0.36371 0.0
C2467 C 0.92784 0.28508 0.36369 0.0
C2468 C 0.87306 0.30268 0.35237 0.0
C2469 C 0.86248 0.28581 0.33153 0.0
C2470 C 0.90465 0.28441 0.35393 0.0
C2471 C 0.87325 0.26795 0.32291 0.0
C2472 C 0.94055 0.27334 0.34958 0.0
C2473 C 0.95943 0.30257 0.39412 0.0
N2474 N 0.89389 0.2679 0.33398 0.0
N2475 N 0.93759 0.29897 0.38568 0.0
H2476 H 0.04599 0.71658 0.64232 0.0
H2477 H 0.07539 0.58739 0.61029 0.0
H2478 H 0.07844 0.68041 0.69581 0.0
H2479 H 0.05476 0.6285 0.55462 0.0
H2480 H 0.07606 0.62118 0.64189 0.0
H2481 H 0.04663 0.68348 0.61003 0.0
C2482 C 0.05287 0.70147 0.64734 0.0
C2483 C 0.06216 0.70122 0.67179 0.0
C2484 C 0.07169 0.62306 0.62278 0.0
C2485 C 0.06334 0.66365 0.63496 0.0
C2486 C 0.07164 0.60386 0.60474 0.0
C2487 C 0.06532 0.60523 0.57986 0.0
C2488 C 0.06503 0.6438 0.61595 0.0
C2489 C 0.05992 0.62677 0.57362 0.0
C2490 C 0.05348 0.68276 0.62886 0.0
C2491 C 0.07109 0.68135 0.67721 0.0
N2492 N 0.05966 0.64517 0.5916 0.0
N2493 N 0.07151 0.66343 0.65895 0.0
H2494 H 0.55952 0.81784 0.81294 0.0
H2495 H 0.67876 0.79173 0.85056 0.0
H2496 H 0.59481 0.82713 0.88717 0.0
H2497 H 0.64954 0.78863 0.77475 0.0
H2498 H 0.64831 0.80686 0.8634 0.0
H2499 H 0.59255 0.81014 0.79765 0.0
C2500 C 0.57431 0.81879 0.82598 0.0
C2501 C 0.57433 0.82279 0.85138 0.0
C2502 C 0.6485 0.80307 0.84392 0.0
C2503 C 0.6119 0.81377 0.8341 0.0
C2504 C 0.66606 0.7945 0.83652 0.0
C2505 C 0.66696 0.78909 0.81148 0.0
C2506 C 0.63133 0.80606 0.82624 0.0
C2507 C 0.6495 0.79239 0.79426 0.0
C2508 C 0.59308 0.81422 0.81725 0.0
C2509 C 0.59392 0.82376 0.86745 0.0
N2510 N 0.63233 0.8006 0.80195 0.0
N2511 N 0.61175 0.81906 0.85856 0.0
H2512 H 0.50711 0.53973 0.74178 0.0
H2513 H 0.50594 0.51124 0.59781 0.0
H2514 H 0.45082 0.49387 0.69334 0.0
H2515 H 0.54277 0.57786 0.64259 0.0
H2516 H 0.48757 0.50138 0.63242 0.0
H2517 H 0.52286 0.55034 0.70596 0.0
C2518 C 0.49807 0.53176 0.72361 0.0
C2519 C 0.47756 0.51583 0.72069 0.0
C2520 C 0.49953 0.51825 0.63457 0.0
C2521 C 0.49576 0.52784 0.6793 0.0
C2522 C 0.51 0.52393 0.61478 0.0
C2523 C 0.52589 0.5455 0.61714 0.0
C2524 C 0.50534 0.53395 0.65716 0.0
C2525 C 0.5306 0.56109 0.63978 0.0
C2526 C 0.50706 0.53796 0.70312 0.0
C2527 C 0.46664 0.50625 0.69654 0.0
N2528 N 0.52062 0.55489 0.65889 0.0
N2529 N 0.47593 0.51222 0.67682 0.0
H2530 H 0.78978 0.21106 0.06581 0.0
H2531 H 0.75958 0.2096 0.92176 0.0
H2532 H 0.76533 0.14494 0.01409 0.0
H2533 H 0.77909 0.27457 0.97568 0.0
H2534 H 0.75785 0.18535 0.95507 0.0
H2535 H 0.78192 0.23432 0.03306 0.0
C2536 C 0.78259 0.20141 0.04754 0.0
C2537 C 0.77851 0.17603 0.04258 0.0
C2538 C 0.76222 0.20492 0.95957 0.0
C2539 C 0.76962 0.20264 1.00479 0.0
C2540 C 0.76333 0.21877 0.94059 0.0
C2541 C 0.7697 0.24416 0.94595 0.0
C2542 C 0.76767 0.21656 0.98407 0.0
C2543 C 0.77398 0.25509 0.97064 0.0
C2544 C 0.77805 0.21472 0.02882 0.0
C2545 C 0.76884 0.1645 0.01865 0.0
N2546 N 0.77311 0.24122 0.98875 0.0
N2547 N 0.76501 0.17793 1.00051 0.0
H2548 H 0.17023 0.53041 0.22199 0.0
H2549 H 0.0479 0.51372 0.14121 0.0
H2550 H 0.11025 0.50279 0.24665 0.0
H2551 H 0.10534 0.53776 0.11035 0.0
H2552 H 0.07122 0.50992 0.179 0.0
H2553 H 0.14853 0.53332 0.18195 0.0
C2554 C 0.15256 0.52472 0.21916 0.0
C2555 C 0.14249 0.51609 0.2385 0.0
C2556 C 0.07899 0.51598 0.16413 0.0
C2557 C 0.11683 0.51977 0.19145 0.0
C2558 C 0.06549 0.51817 0.14211 0.0
C2559 C 0.07411 0.52606 0.12166 0.0
C2560 C 0.10205 0.52177 0.1669 0.0
C2561 C 0.09741 0.53149 0.12502 0.0
C2562 C 0.14004 0.52649 0.19601 0.0
C2563 C 0.11925 0.50939 0.23288 0.0
N2564 N 0.11032 0.52934 0.14688 0.0
N2565 N 0.10757 0.51141 0.21045 0.0
H2566 H 0.80727 0.85203 0.51153 0.0
H2567 H 0.84785 0.83287 0.3833 0.0
H2568 H 0.84876 0.90937 0.48552 0.0
H2569 H 0.78172 0.80009 0.38927 0.0
H2570 H 0.85292 0.85512 0.425 0.0
H2571 H 0.80173 0.82717 0.47067 0.0
C2572 C 0.81532 0.85937 0.49739 0.0
C2573 C 0.82859 0.88291 0.50217 0.0
C2574 C 0.83736 0.84291 0.41724 0.0
C2575 C 0.82266 0.85433 0.45561 0.0
C2576 C 0.83448 0.83005 0.39348 0.0
C2577 C 0.81431 0.81454 0.38267 0.0
C2578 C 0.82016 0.8399 0.43069 0.0
C2579 C 0.79752 0.81189 0.39681 0.0
C2580 C 0.81207 0.8452 0.47407 0.0
C2581 C 0.83847 0.89141 0.48293 0.0
N2582 N 0.80084 0.82432 0.42013 0.0
N2583 N 0.8355 0.8771 0.46072 0.0
H2584 H 0.49654 0.4964 0.84896 0.0
H2585 H 0.51474 0.55957 0.98943 0.0
H2586 H 0.45169 0.536 0.87776 0.0
H2587 H 0.54042 0.49662 0.96828 0.0
H2588 H 0.49677 0.55671 0.94679 0.0
H2589 H 0.51788 0.50177 0.8908 0.0
C2590 C 0.49133 0.50647 0.86397 0.0
C2591 C 0.47223 0.51571 0.85977 0.0
C2592 C 0.50642 0.54358 0.95146 0.0
C2593 C 0.49667 0.52208 0.90762 0.0
C2594 C 0.51679 0.54524 0.97584 0.0
C2595 C 0.52905 0.5282 0.98265 0.0
C2596 C 0.50855 0.52499 0.93348 0.0
C2597 C 0.53102 0.51006 0.96402 0.0
C2598 C 0.50343 0.50938 0.88785 0.0
C2599 C 0.4662 0.52843 0.88006 0.0
N2600 N 0.52094 0.50896 0.94033 0.0
N2601 N 0.47837 0.5313 0.90296 0.0
H2602 H 0.8705 0.23283 0.13959 0.0
H2603 H 0.80742 0.27266 0.21856 0.0
H2604 H 0.85369 0.1795 0.18628 0.0
H2605 H 0.87008 0.29693 0.26679 0.0
H2606 H 0.82379 0.24641 0.19201 0.0
H2607 H 0.87378 0.26489 0.17428 0.0
C2608 C 0.86861 0.22779 0.15741 0.0
C2609 C 0.86095 0.20348 0.15984 0.0
C2610 C 0.83393 0.25773 0.20831 0.0
C2611 C 0.86485 0.23995 0.19925 0.0
C2612 C 0.82468 0.27261 0.22337 0.0
C2613 C 0.83747 0.28682 0.24475 0.0
C2614 C 0.85607 0.25707 0.2147 0.0
C2615 C 0.85981 0.28622 0.25026 0.0
C2616 C 0.87054 0.24614 0.17716 0.0
C2617 C 0.85908 0.19803 0.18342 0.0
N2618 N 0.86851 0.27126 0.23535 0.0
N2619 N 0.8601 0.21622 0.20206 0.0
H2620 H 0.12326 0.52239 0.36358 0.0
H2621 H 0.12326 0.53773 0.5128 0.0
H2622 H 0.18164 0.53105 0.41741 0.0
H2623 H 0.06563 0.53627 0.46029 0.0
H2624 H 0.14399 0.53406 0.47868 0.0
H2625 H 0.102 0.52582 0.39739 0.0
C2626 C 0.13185 0.5248 0.38232 0.0
C2627 C 0.15489 0.52614 0.38665 0.0
C2628 C 0.12681 0.53455 0.47439 0.0
C2629 C 0.12961 0.53037 0.42712 0.0
C2630 C 0.11471 0.53671 0.49424 0.0
C2631 C 0.09209 0.53756 0.49042 0.0
C2632 C 0.11675 0.5329 0.44948 0.0
C2633 C 0.08279 0.53593 0.46509 0.0
C2634 C 0.11946 0.5269 0.40199 0.0
C2635 C 0.16419 0.52964 0.41219 0.0
N2636 N 0.09484 0.53369 0.4462 0.0
N2637 N 0.15185 0.5315 0.43079 0.0
H2638 H 0.81113 0.83456 0.61749 0.0
H2639 H 0.81892 0.84113 0.76398 0.0
H2640 H 0.83757 0.90094 0.66814 0.0
H2641 H 0.79939 0.77466 0.71244 0.0
H2642 H 0.82555 0.86359 0.72982 0.0
H2643 H 0.80608 0.81293 0.65219 0.0
C2644 C 0.81585 0.84469 0.63592 0.0
C2645 C 0.8248 0.86977 0.63968 0.0
C2646 C 0.81992 0.84409 0.72598 0.0
C2647 C 0.81899 0.84474 0.68005 0.0
C2648 C 0.81618 0.8312 0.74553 0.0
C2649 C 0.80859 0.80585 0.74122 0.0
C2650 C 0.81593 0.83166 0.70173 0.0
C2651 C 0.80525 0.79412 0.71679 0.0
C2652 C 0.81299 0.83222 0.65584 0.0
C2653 C 0.8306 0.88167 0.66419 0.0
N2654 N 0.80882 0.80704 0.69812 0.0
N2655 N 0.82757 0.86912 0.68334 0.0
H2656 H 0.67895 0.43364 0.48091 0.0
H2657 H 0.62259 0.47572 0.57023 0.0
H2658 H 0.71297 0.40573 0.54048 0.0
H2659 H 0.69057 0.50286 0.60323 0.0
H2660 H 0.63305 0.44323 0.54443 0.0
H2661 H 0.6586 0.45171 0.50988 0.0
C2662 C 0.6816 0.43066 0.49986 0.0
C2663 C 0.69758 0.41815 0.50831 0.0
C2664 C 0.6455 0.45591 0.55787 0.0
C2665 C 0.67507 0.43924 0.54135 0.0
C2666 C 0.63961 0.47425 0.5727 0.0
C2667 C 0.65584 0.49188 0.58881 0.0
C2668 C 0.66765 0.45505 0.55963 0.0
C2669 C 0.67767 0.48954 0.59102 0.0
C2670 C 0.67003 0.44092 0.51631 0.0
C2671 C 0.70064 0.41507 0.53316 0.0
N2672 N 0.68301 0.47144 0.57642 0.0
N2673 N 0.69001 0.42626 0.54902 0.0
H2674 H 0.18692 0.1622 0.51471 0.0
H2675 H 0.13241 0.03206 0.5439 0.0
H2676 H 0.22366 0.11379 0.54639 0.0
H2677 H 0.09587 0.08844 0.5418 0.0
H2678 H 0.16502 0.06082 0.53947 0.0
H2679 H 0.15263 0.1351 0.51958 0.0
C2680 C 0.18777 0.14581 0.5225 0.0
C2681 C 0.20818 0.13977 0.52926 0.0
C2682 C 0.14992 0.06708 0.54002 0.0
C2683 C 0.16912 0.10891 0.53522 0.0
C2684 C 0.13118 0.05059 0.54254 0.0
C2685 C 0.11119 0.05779 0.5434 0.0
C2686 C 0.14892 0.09119 0.53788 0.0
C2687 C 0.11083 0.08212 0.54141 0.0
C2688 C 0.16822 0.13041 0.52536 0.0
C2689 C 0.20831 0.11869 0.53995 0.0
N2690 N 0.12933 0.09792 0.53858 0.0
N2691 N 0.18922 0.104 0.54231 0.0
H2692 H 0.19941 1.01394 0.88393 0.0
H2693 H 0.21913 0.9023 0.79426 0.0
H2694 H 0.17066 0.99852 0.80694 0.0
H2695 H 0.25901 0.93353 0.86511 0.0
H2696 H 0.19617 0.932 0.80012 0.0
H2697 H 0.21507 0.97819 0.87909 0.0
C2698 C 0.19612 1.0028 0.86601 0.0
C2699 C 0.18393 1.00945 0.84573 0.0
C2700 C 0.20986 0.93211 0.8144 0.0
C2701 C 0.20221 0.96843 0.83997 0.0
C2702 C 0.22311 0.91527 0.81104 0.0
C2703 C 0.24126 0.91532 0.82913 0.0
C2704 C 0.21462 0.94898 0.8361 0.0
C2705 C 0.24513 0.93231 0.85072 0.0
C2706 C 0.20517 0.98241 0.86325 0.0
C2707 C 0.17998 0.99408 0.82305 0.0
N2708 N 0.23201 0.94838 0.85351 0.0
N2709 N 0.18937 0.97441 0.82068 0.0
H2710 H 0.32128 0.90365 0.95454 0.0
H2711 H 0.40257 0.02625 0.02539 0.0
H2712 H 0.30237 0.95639 1.00468 0.0
H2713 H 0.41806 0.98113 0.96524 0.0
H2714 H 0.36597 1.00011 0.01873 0.0
H2715 H 0.35743 0.93092 0.9589 0.0
C2716 C 0.32479 0.92104 0.96633 0.0
C2717 C 0.30888 0.92824 0.97878 0.0
C2718 C 0.37733 0.99598 1.0069 0.0
C2719 C 0.34991 0.95904 0.98437 0.0
C2720 C 0.39822 1.01085 1.01077 0.0
C2721 C 0.41331 1.00583 0.99584 0.0
C2722 C 0.3716 0.97576 0.98818 0.0
C2723 C 0.40681 0.98577 0.977 0.0
C2724 C 0.3453 0.93658 0.96881 0.0
C2725 C 0.31415 0.9506 0.99429 0.0
N2726 N 0.38647 0.97135 0.97379 0.0
N2727 N 0.33422 0.96524 0.99665 0.0
H2728 H 0.91787 0.64157 0.78676 0.0
H2729 H 0.80541 0.69449 0.79392 0.0
H2730 H 0.85946 0.60127 0.80578 0.0
H2731 H 0.86757 0.74351 0.80045 0.0
H2732 H 0.82432 0.66029 0.79324 0.0
H2733 H 0.90042 0.67739 0.78664 0.0
C2734 C 0.90142 0.63974 0.79071 0.0
C2735 C 0.8907 0.61706 0.79625 0.0
C2736 C 0.83405 0.67844 0.7947 0.0
C2737 C 0.86961 0.65978 0.79584 0.0
C2738 C 0.82302 0.69844 0.79504 0.0
C2739 C 0.83426 0.72307 0.79721 0.0
C2740 C 0.85715 0.68184 0.79602 0.0
C2741 C 0.85749 0.72554 0.7987 0.0
C2742 C 0.89129 0.66068 0.79076 0.0
C2743 C 0.86912 0.61747 0.80131 0.0
N2744 N 0.86775 0.70578 0.79791 0.0
N2745 N 0.85969 0.63763 0.80078 0.0
H2746 H 0.83615 0.6663 0.05555 0.0
H2747 H 0.89678 0.56001 0.01403 0.0
H2748 H 0.80975 0.60853 0.99444 0.0
H2749 H 0.92866 0.62122 0.06983 0.0
H2750 H 0.86492 0.5781 1.00717 0.0
H2751 H 0.87009 0.6508 0.06166 0.0
C2752 C 0.83746 0.65054 0.0433 0.0
C2753 C 0.81983 0.63882 0.02444 0.0
C2754 C 0.87889 0.58769 0.02088 0.0
C2755 C 0.8587 0.62079 0.03151 0.0
C2756 C 0.89731 0.57739 0.02472 0.0
C2757 C 0.91579 0.58898 0.04252 0.0
C2758 C 0.87857 0.60984 0.03499 0.0
C2759 C 0.91486 0.61129 0.05611 0.0
C2760 C 0.85686 0.64165 0.04685 0.0
C2761 C 0.82267 0.61833 1.00928 0.0
N2762 N 0.89664 0.62091 0.05211 0.0
N2763 N 0.84151 0.61003 0.01321 0.0
H2764 H 0.20558 0.1121 0.8145 0.0
H2765 H 0.27787 0.2408 0.86524 0.0
H2766 H 0.17889 0.15913 0.86276 0.0
H2767 H 0.26485 0.21486 0.78743 0.0
H2768 H 0.24657 0.20919 0.87 0.0
H2769 H 0.23298 0.14707 0.80936 0.0
C2770 C 0.2055 0.12986 0.824 0.0
C2771 C 0.1901 0.13272 0.83926 0.0
C2772 C 0.25068 0.21046 0.85196 0.0
C2773 C 0.22168 0.17277 0.83374 0.0
C2774 C 0.26853 0.22833 0.84925 0.0
C2775 C 0.274 0.23023 0.82594 0.0
C2776 C 0.23895 0.19378 0.83138 0.0
C2777 C 0.2612 0.21392 0.80572 0.0
C2778 C 0.22108 0.14977 0.821 0.0
C2779 C 0.19059 0.15619 0.85096 0.0
N2780 N 0.2446 0.19608 0.80897 0.0
N2781 N 0.20643 0.17534 0.84834 0.0
H2782 H 0.36672 0.98618 0.26428 0.0
H2783 H 0.32365 0.85981 0.26096 0.0
H2784 H 0.41958 0.97615 0.31749 0.0
H2785 H 0.3534 0.87295 0.33735 0.0
H2786 H 0.3425 0.90094 0.25693 0.0
H2787 H 0.34666 0.94476 0.26575 0.0
C2788 C 0.3742 0.97544 0.27644 0.0
C2789 C 0.39501 0.9856 0.29117 0.0
C2790 C 0.34495 0.89502 0.27468 0.0
C2791 C 0.37149 0.93669 0.29302 0.0
C2792 C 0.33412 0.87116 0.27701 0.0
C2793 C 0.33644 0.86213 0.29965 0.0
C2794 C 0.35911 0.91063 0.29492 0.0
C2795 C 0.35062 0.87854 0.31947 0.0
C2796 C 0.36266 0.95142 0.27715 0.0
C2797 C 0.4036 0.9698 0.30598 0.0
N2798 N 0.36137 0.90139 0.31659 0.0
N2799 N 0.39183 0.94679 0.30686 0.0
H2800 H 0.59716 0.38387 0.65402 0.0
H2801 H 0.53933 0.4477 0.54784 0.0
H2802 H 0.55127 0.34584 0.58936 0.0
H2803 H 0.58663 0.48883 0.60955 0.0
H2804 H 0.54446 0.41032 0.56321 0.0
H2805 H 0.59487 0.42245 0.63861 0.0
C2806 C 0.5867 0.38348 0.63665 0.0
C2807 C 0.57433 0.36123 0.62322 0.0
C2808 C 0.55397 0.42747 0.57336 0.0
C2809 C 0.57157 0.40554 0.60541 0.0
C2810 C 0.55102 0.44893 0.56451 0.0
C2811 C 0.56293 0.47165 0.57706 0.0
C2812 C 0.5688 0.42843 0.59524 0.0
C2813 C 0.57768 0.47182 0.59877 0.0
C2814 C 0.58537 0.40557 0.62785 0.0
C2815 C 0.56108 0.36223 0.60073 0.0
N2816 N 0.58016 0.4507 0.60718 0.0
N2817 N 0.56005 0.38373 0.59274 0.0
H2818 H 0.44716 0.78833 0.4367 0.0
H2819 H 0.35821 0.73448 0.31372 0.0
H2820 H 0.45611 0.73495 0.37953 0.0
H2821 H 0.35785 0.80129 0.35926 0.0
H2822 H 0.39103 0.73076 0.34105 0.0
H2823 H 0.41128 0.78902 0.41264 0.0
C2824 C 0.44148 0.77664 0.41914 0.0
C2825 C 0.455 0.7623 0.4096 0.0
C2826 C 0.38374 0.74617 0.34523 0.0
C2827 C 0.41372 0.76248 0.38224 0.0
C2828 C 0.36492 0.74833 0.3296 0.0
C2829 C 0.35512 0.76825 0.33411 0.0
C2830 C 0.39293 0.76387 0.36593 0.0
C2831 C 0.36472 0.78557 0.35506 0.0
C2832 C 0.42103 0.77707 0.4054 0.0
C2833 C 0.44656 0.74694 0.38713 0.0
N2834 N 0.38304 0.78298 0.37017 0.0
N2835 N 0.4266 0.74755 0.37417 0.0
H2836 H 0.05832 0.72205 0.16185 0.0
H2837 H 0.09355 0.62648 0.06603 0.0
H2838 H 0.09765 0.74568 0.10894 0.0
H2839 H 0.03385 0.61091 0.09552 0.0
H2840 H 0.09947 0.66917 0.08532 0.0
H2841 H 0.05374 0.67989 0.14214 0.0
C2842 C 0.06594 0.71831 0.14603 0.0
C2843 C 0.07767 0.73739 0.13642 0.0
C2844 C 0.08507 0.65633 0.08746 0.0
C2845 C 0.07319 0.68913 0.11425 0.0
C2846 C 0.0817 0.63196 0.0765 0.0
C2847 C 0.06312 0.61495 0.079 0.0
C2848 C 0.07006 0.66364 0.10156 0.0
C2849 C 0.04834 0.62325 0.09285 0.0
C2850 C 0.06333 0.69428 0.13477 0.0
C2851 C 0.08782 0.73151 0.11635 0.0
N2852 N 0.05222 0.6468 0.10371 0.0
N2853 N 0.08535 0.70792 0.1059 0.0
H2854 H 0.07697 0.2473 0.92211 0.0
H2855 H 0.1684 0.32752 0.86203 0.0
H2856 H 0.07153 0.31479 0.89661 0.0
H2857 H 0.16628 0.25174 0.86534 0.0
H2858 H 0.13595 0.3247 0.88115 0.0
H2859 H 0.11257 0.25022 0.90797 0.0
C2860 C 0.08337 0.26287 0.91392 0.0
C2861 C 0.07113 0.28079 0.91051 0.0
C2862 C 0.14257 0.30865 0.87777 0.0
C2863 C 0.11181 0.28427 0.89436 0.0
C2864 C 0.16114 0.3102 0.86665 0.0
C2865 C 0.17013 0.28975 0.86149 0.0
C2866 C 0.13269 0.28653 0.88417 0.0
C2867 C 0.16013 0.26807 0.86889 0.0
C2868 C 0.1036 0.26444 0.90569 0.0
C2869 C 0.08021 0.30043 0.89952 0.0
N2870 N 0.14194 0.267 0.8797 0.0
N2871 N 0.09984 0.30163 0.89194 0.0
H2872 H 0.57582 0.77777 0.95085 0.0
H2873 H 0.54238 0.63893 0.96553 0.0
H2874 H 0.5284 0.72439 0.89768 0.0
H2875 H 0.58282 0.69512 0.02188 0.0
H2876 H 0.54358 0.66786 0.93645 0.0
H2877 H 0.58528 0.74556 0.97252 0.0
C2878 C 0.56759 0.75919 0.94356 0.0
C2879 C 0.55097 0.75371 0.92278 0.0
C2880 C 0.55243 0.67376 0.95509 0.0
C2881 C 0.56151 0.71683 0.94764 0.0
C2882 C 0.5518 0.65727 0.97164 0.0
C2883 C 0.56224 0.66484 0.99619 0.0
C2884 C 0.56358 0.69791 0.9632 0.0
C2885 C 0.57416 0.68876 1.00323 0.0
C2886 C 0.573 0.74082 0.95594 0.0
C2887 C 0.54113 0.72935 0.91384 0.0
N2888 N 0.57434 0.70452 0.98686 0.0
N2889 N 0.54629 0.71176 0.9266 0.0
H2890 H 0.14233 0.74999 0.74397 0.0
H2891 H 0.25391 0.82947 0.73396 0.0
H2892 H 0.14161 0.80776 0.70079 0.0
H2893 H 0.2444 0.7515 0.7254 0.0
H2894 H 0.21402 0.82521 0.72495 0.0
H2895 H 0.1816 0.75376 0.74313 0.0
C2896 C 0.15062 0.76374 0.73471 0.0
C2897 C 0.13913 0.77913 0.72311 0.0
C2898 C 0.2208 0.80909 0.72439 0.0
C2899 C 0.1835 0.78312 0.7215 0.0
C2900 C 0.24352 0.81146 0.72929 0.0
C2901 C 0.25254 0.79083 0.73067 0.0
C2902 C 0.20717 0.786 0.7214 0.0
C2903 C 0.23826 0.76794 0.72463 0.0
C2904 C 0.17281 0.76562 0.73388 0.0
C2905 C 0.15023 0.79602 0.71044 0.0
N2906 N 0.21624 0.76616 0.72097 0.0
N2907 N 0.172 0.7979 0.71031 0.0
H2908 H 0.04891 0.35975 0.45799 0.0
H2909 H 0.02996 0.49307 0.49312 0.0
H2910 H 0.02322 0.40036 0.40412 0.0
H2911 H 0.04675 0.44782 0.54658 0.0
H2912 H 0.02659 0.45936 0.46031 0.0
H2913 H 0.04895 0.39241 0.49034 0.0
C2914 C 0.0434 0.37563 0.45286 0.0
C2915 C 0.03593 0.37718 0.42816 0.0
C2916 C 0.03072 0.45666 0.4792 0.0
C2917 C 0.03579 0.41476 0.4655 0.0
C2918 C 0.03246 0.47584 0.49799 0.0
C2919 C 0.03864 0.47321 0.52263 0.0
C2920 C 0.03539 0.43473 0.48506 0.0
C2921 C 0.04192 0.45059 0.52784 0.0
C2922 C 0.04331 0.39424 0.47147 0.0
C2923 C 0.02914 0.39834 0.42285 0.0
N2924 N 0.04048 0.43227 0.50916 0.0
N2925 N 0.02917 0.4163 0.4414 0.0
H2926 H 0.47876 0.20982 0.21474 0.0
H2927 H 0.44953 0.28492 0.32963 0.0
H2928 H 0.53188 0.25538 0.26837 0.0
H2929 H 0.41868 0.28282 0.25448 0.0
H2930 H 0.477 0.26462 0.31419 0.0
H2931 H 0.45269 0.22456 0.23758 0.0
C2932 C 0.48503 0.22248 0.23161 0.0
C2933 C 0.50763 0.23183 0.23925 0.0
C2934 C 0.46403 0.26857 0.3013 0.0
C2935 C 0.47769 0.24859 0.26548 0.0
C2936 C 0.44845 0.28033 0.30999 0.0
C2937 C 0.43138 0.28538 0.29341 0.0
C2938 C 0.46213 0.26132 0.27597 0.0
C2939 C 0.43088 0.27866 0.26815 0.0
C2940 C 0.47008 0.23093 0.24455 0.0
C2941 C 0.51462 0.24792 0.26158 0.0
N2942 N 0.44581 0.26678 0.26028 0.0
N2943 N 0.49965 0.25612 0.2738 0.0
H2944 H 0.60818 0.54182 0.37859 0.0
H2945 H 0.59579 0.56981 0.52006 0.0
H2946 H 0.65764 0.591 0.4333 0.0
H2947 H 0.56033 0.50419 0.47247 0.0
H2948 H 0.61589 0.5808 0.48723 0.0
H2949 H 0.58728 0.53125 0.41113 0.0
C2950 C 0.6145 0.55068 0.39733 0.0
C2951 C 0.63476 0.56738 0.40309 0.0
C2952 C 0.6038 0.56393 0.48398 0.0
C2953 C 0.61088 0.55527 0.44053 0.0
C2954 C 0.59236 0.55757 0.5028 0.0
C2955 C 0.57646 0.53589 0.4992 0.0
C2956 C 0.59909 0.54876 0.46108 0.0
C2957 C 0.57255 0.52098 0.4762 0.0
C2958 C 0.60266 0.54445 0.41594 0.0
C2959 C 0.64218 0.578 0.42787 0.0
N2960 N 0.58363 0.52775 0.45802 0.0
N2961 N 0.63028 0.57185 0.44553 0.0
H2962 H 0.27903 0.90714 0.07056 0.0
H2963 H 0.25908 0.78906 0.13514 0.0
H2964 H 0.23619 0.83879 0.03671 0.0
H2965 H 0.30094 0.85702 0.17156 0.0
H2966 H 0.248 0.80859 0.10025 0.0
H2967 H 0.28453 0.89095 0.10929 0.0
C2968 C 0.27058 0.88887 0.07138 0.0
C2969 C 0.25739 0.87414 0.05038 0.0
C2970 C 0.25954 0.81934 0.11588 0.0
C2971 C 0.26364 0.85556 0.09432 0.0
C2972 C 0.26596 0.80813 0.13571 0.0
C2973 C 0.28117 0.8214 0.15602 0.0
C2974 C 0.26852 0.84398 0.11624 0.0
C2975 C 0.2892 0.84619 0.15615 0.0
C2976 C 0.27375 0.87963 0.09343 0.0
C2977 C 0.24675 0.85066 0.05239 0.0
N2978 N 0.28294 0.85667 0.13639 0.0
N2979 N 0.25026 0.84205 0.0739 0.0
H2980 H 0.92727 0.55503 0.89152 0.0
H2981 H 0.05021 0.55425 0.96094 0.0
H2982 H 0.98271 0.55927 0.85448 0.0
H2983 H 0.99507 0.54607 0.9984 0.0
H2984 H 0.02607 0.55704 0.92315 0.0
H2985 H 0.95107 0.55295 0.92999 0.0
C2986 C 0.94448 0.55577 0.8912 0.0
C2987 C 0.95246 0.5576 0.86875 0.0
C2988 C 0.01901 0.55465 0.93947 0.0
C2989 C 0.98077 0.55491 0.91456 0.0
C2990 C 0.03297 0.55304 0.96149 0.0
C2991 C 0.02521 0.54984 0.98378 0.0
C2992 C 0.99637 0.55322 0.93871 0.0
C2993 C 1.00233 0.54848 0.98224 0.0
C2994 C 0.95821 0.55445 0.91359 0.0
C2995 C 0.97525 0.55813 0.87069 0.0
N2996 N 0.98902 0.55017 0.9605 0.0
N2997 N 0.98825 0.55683 0.89272 0.0
H2998 H 0.28796 0.17315 0.62064 0.0
H2999 H 0.26977 0.27786 0.71753 0.0
H3000 H 0.2777 0.24062 0.59841 0.0
H3001 H 0.31966 0.23796 0.7368 0.0
H3002 H 0.2662 0.2601 0.67415 0.0
H3003 H 0.29368 0.19218 0.66394 0.0
C3004 C 0.28698 0.19196 0.62485 0.0
C3005 C 0.28251 0.20535 0.60584 0.0
C3006 C 0.27794 0.25531 0.68792 0.0
C3007 C 0.28834 0.22695 0.6553 0.0
C3008 C 0.27993 0.26535 0.71267 0.0
C3009 C 0.2951 0.25948 0.73086 0.0
C3010 C 0.29068 0.23865 0.68135 0.0
C3011 C 0.30787 0.24315 0.72341 0.0
C3012 C 0.29027 0.20279 0.64954 0.0
C3013 C 0.28133 0.22967 0.61244 0.0
N3014 N 0.30518 0.23308 0.69933 0.0
N3015 N 0.28392 0.23958 0.63655 0.0
H3016 H 0.65866 0.57612 0.24988 0.0
H3017 H 0.56633 0.50074 0.13864 0.0
H3018 H 0.60117 0.52839 0.26309 0.0
H3019 H 0.60436 0.57152 0.13554 0.0
H3020 H 0.58265 0.50534 0.18245 0.0
H3021 H 0.64286 0.56923 0.20604 0.0
C3022 C 0.64279 0.564 0.24356 0.0
C3023 C 0.63122 0.55287 0.26029 0.0
C3024 C 0.58741 0.5198 0.1721 0.0
C3025 C 0.61311 0.5447 0.20987 0.0
C3026 C 0.57821 0.51714 0.14708 0.0
C3027 C 0.58392 0.53581 0.13335 0.0
C3028 C 0.60286 0.54099 0.18332 0.0
C3029 C 0.59934 0.55672 0.14536 0.0
C3030 C 0.63374 0.56018 0.21851 0.0
C3031 C 0.61064 0.53743 0.25091 0.0
N3032 N 0.60835 0.55865 0.1695 0.0
N3033 N 0.60229 0.5337 0.22634 0.0
H3034 H 0.23453 0.83105 0.9329 0.0
H3035 H 0.25637 0.81243 0.79692 0.0
H3036 H 0.23076 0.88344 0.88334 0.0
H3037 H 0.26476 0.76173 0.84729 0.0
H3038 H 0.2379 0.83359 0.82497 0.0
H3039 H 0.23527 0.80066 0.89849 0.0
C3040 C 0.23342 0.8361 0.9147 0.0
C3041 C 0.23352 0.86016 0.91116 0.0
C3042 C 0.24343 0.81763 0.82983 0.0
C3043 C 0.2345 0.82538 0.87177 0.0
C3044 C 0.25407 0.80555 0.81384 0.0
C3045 C 0.26257 0.78569 0.82019 0.0
C3046 C 0.24118 0.80977 0.85235 0.0
C3047 C 0.25867 0.77721 0.84198 0.0
C3048 C 0.23387 0.81867 0.89506 0.0
C3049 C 0.23141 0.86534 0.88708 0.0
N3050 N 0.24852 0.78959 0.85757 0.0
N3051 N 0.23249 0.84821 0.86835 0.0
H3052 H 0.98872 0.56373 0.74298 0.0
H3053 H 0.98172 0.53499 0.59304 0.0
H3054 H 0.92694 0.53914 0.69383 0.0
H3055 H 0.04212 0.54803 0.64454 0.0
H3056 H 0.96173 0.53822 0.62799 0.0
H3057 H 1.00778 0.56018 0.70755 0.0
C3058 C 0.97887 0.55768 0.72484 0.0
C3059 C 0.95561 0.55191 0.72246 0.0
C3060 C 0.97937 0.54039 0.63185 0.0
C3061 C 0.97843 0.5477 0.67981 0.0
C3062 C 0.99105 0.53853 0.61153 0.0
C3063 C 1.01424 0.54103 0.61482 0.0
C3064 C 0.99045 0.5452 0.65669 0.0
C3065 C 0.0245 0.54571 0.64009 0.0
C3066 C 0.99004 0.55556 0.70422 0.0
C3067 C 0.94466 0.54402 0.69756 0.0
N3068 N 1.01286 0.54767 0.65936 0.0
N3069 N 0.9559 0.54231 0.67783 0.0
H3070 H 0.25817 0.16715 0.43229 0.0
H3071 H 0.2998 0.30012 0.39836 0.0
H3072 H 0.27814 0.23154 0.48684 0.0
H3073 H 0.2825 0.23456 0.34553 0.0
H3074 H 0.29057 0.27606 0.43063 0.0
H3075 H 0.26555 0.19195 0.40046 0.0
C3076 C 0.26405 0.18653 0.43771 0.0
C3077 C 0.26752 0.19705 0.46262 0.0
C3078 C 0.2887 0.26692 0.41198 0.0
C3079 C 0.27614 0.22597 0.42559 0.0
C3080 C 0.29393 0.28069 0.39346 0.0
C3081 C 0.29196 0.26945 0.36903 0.0
C3082 C 0.28135 0.24157 0.40619 0.0
C3083 C 0.28428 0.24413 0.36399 0.0
C3084 C 0.2683 0.20076 0.41935 0.0
C3085 C 0.27516 0.22242 0.46805 0.0
N3086 N 0.27934 0.23116 0.38229 0.0
N3087 N 0.27922 0.2359 0.44981 0.0
H3088 H 0.37243 0.66193 0.58738 0.0
H3089 H 0.40516 0.56038 0.49881 0.0
H3090 H 0.32159 0.60846 0.53813 0.0
H3091 H 0.43428 0.58157 0.57567 0.0
H3092 H 0.37773 0.58471 0.50541 0.0
H3093 H 0.39969 0.6406 0.5741 0.0
C3094 C 0.367 0.64602 0.57339 0.0
C3095 C 0.34464 0.63677 0.56409 0.0
C3096 C 0.39033 0.58401 0.52063 0.0
C3097 C 0.37581 0.61246 0.54886 0.0
C3098 C 0.40587 0.57002 0.517 0.0
C3099 C 0.42237 0.56904 0.53663 0.0
C3100 C 0.39166 0.59747 0.54382 0.0
C3101 C 0.42249 0.58226 0.55971 0.0
C3102 C 0.38257 0.63381 0.56597 0.0
C3103 C 0.33864 0.61602 0.54599 0.0
N3104 N 0.40754 0.59606 0.56258 0.0
N3105 N 0.35418 0.60441 0.53901 0.0
H3106 H 0.89246 0.96446 0.61156 0.0
H3107 H 1.00171 0.97864 0.55168 0.0
H3108 H 0.90406 0.90829 0.55921 0.0
H3109 H 0.98915 0.03291 0.6054 0.0
H3110 H 0.96808 0.95097 0.55657 0.0
H3111 H 0.92968 0.98767 0.6127 0.0
C3112 C 0.9029 0.95703 0.60028 0.0
C3113 C 0.89485 0.93487 0.58453 0.0
C3114 C 0.97287 0.96879 0.56761 0.0
C3115 C 0.93777 0.96135 0.58574 0.0
C3116 C 0.99229 0.98451 0.56501 0.0
C3117 C 0.99868 1.00801 0.57854 0.0
C3118 C 0.95956 0.97664 0.58377 0.0
C3119 C 0.98507 1.01493 0.59472 0.0
C3120 C 0.92423 0.97023 0.601 0.0
C3121 C 0.90942 0.92563 0.5711 0.0
N3122 N 0.96629 0.99946 0.59681 0.0
N3123 N 0.92997 0.93908 0.57161 0.0
H3124 H 0.92552 0.06815 0.25026 0.0
H3125 H 0.87547 0.17376 0.31431 0.0
H3126 H 0.92065 0.07912 0.32697 0.0
H3127 H 0.85957 0.14693 0.23645 0.0
H3128 H 0.90019 0.14589 0.31903 0.0
H3129 H 0.90991 0.10407 0.245 0.0
C3130 C 0.92186 0.07862 0.26612 0.0
C3131 C 0.92441 0.07082 0.28909 0.0
C3132 C 0.89142 0.14626 0.30088 0.0
C3133 C 0.90642 0.11147 0.28323 0.0
C3134 C 0.87715 0.16206 0.29817 0.0
C3135 C 0.86499 0.16245 0.275 0.0
C3136 C 0.89376 0.13073 0.28029 0.0
C3137 C 0.86854 0.14735 0.25468 0.0
C3138 C 0.91273 0.09889 0.26307 0.0
C3139 C 0.91897 0.08463 0.30898 0.0
N3140 N 0.88244 0.13196 0.25783 0.0
N3141 N 0.91015 0.10418 0.30558 0.0
H3142 H 0.78483 0.11497 0.15091 0.0
H3143 H 0.65898 0.1052 0.1475 0.0
H3144 H 0.7503 0.1694 0.12932 0.0
H3145 H 0.69414 0.05262 0.1733 0.0
H3146 H 0.69358 0.13427 0.15226 0.0
H3147 H 0.75407 0.09742 0.16974 0.0
C3148 C 0.77069 0.1232 0.15025 0.0
C3149 C 0.76937 0.14274 0.13753 0.0
C3150 C 0.69375 0.11663 0.15759 0.0
C3151 C 0.73436 0.12316 0.15916 0.0
C3152 C 0.6739 0.10002 0.1551 0.0
C3153 C 0.6737 0.0762 0.15943 0.0
C3154 C 0.71351 0.10925 0.16417 0.0
C3155 C 0.69362 0.07061 0.16914 0.0
C3156 C 0.75326 0.11341 0.16123 0.0
C3157 C 0.7514 0.15368 0.13821 0.0
N3158 N 0.71278 0.08681 0.17061 0.0
N3159 N 0.73427 0.14334 0.14826 0.0
H3160 H 0.24245 0.47556 0.34837 0.0
H3161 H 0.2369 0.33349 0.29142 0.0
H3162 H 0.18801 0.43598 0.29332 0.0
H3163 H 0.29455 0.38032 0.33582 0.0
H3164 H 0.21806 0.36792 0.29311 0.0
H3165 H 0.25966 0.44053 0.34525 0.0
C3166 C 0.2337 0.45962 0.33552 0.0
C3167 C 0.21302 0.4601 0.32125 0.0
C3168 C 0.23483 0.37091 0.30257 0.0
C3169 C 0.23399 0.4173 0.31759 0.0
C3170 C 0.24587 0.35082 0.30169 0.0
C3171 C 0.26801 0.35285 0.31348 0.0
C3172 C 0.24536 0.39434 0.31565 0.0
C3173 C 0.27779 0.37677 0.32623 0.0
C3174 C 0.24393 0.43913 0.33375 0.0
C3175 C 0.20366 0.43768 0.30506 0.0
N3176 N 0.26668 0.39579 0.32698 0.0
N3177 N 0.21392 0.41782 0.30389 0.0
H3178 H 0.29787 0.48066 0.06978 0.0
H3179 H 0.16765 0.45416 0.0646 0.0
H3180 H 0.26193 0.40995 0.07675 0.0
H3181 H 0.20877 0.52443 0.06597 0.0
H3182 H 0.20061 0.43677 0.06864 0.0
H3183 H 0.2646 0.49584 0.06836 0.0
C3184 C 0.28295 0.46816 0.07105 0.0
C3185 C 0.28297 0.44377 0.07326 0.0
C3186 C 0.20236 0.45601 0.0682 0.0
C3187 C 0.24393 0.46151 0.0715 0.0
C3188 C 0.18351 0.466 0.06576 0.0
C3189 C 0.18521 0.49099 0.06505 0.0
C3190 C 0.22316 0.47102 0.06975 0.0
C3191 C 0.20639 0.50524 0.06686 0.0
C3192 C 0.26378 0.47699 0.07026 0.0
C3193 C 0.26285 0.42885 0.07505 0.0
N3194 N 0.2243 0.4951 0.06902 0.0
N3195 N 0.24413 0.43789 0.07395 0.0
H3196 H 0.8894 0.95071 0.25104 0.0
H3197 H 0.85373 0.83925 0.32017 0.0
H3198 H 0.9342 0.92834 0.30522 0.0
H3199 H 0.8136 0.85227 0.25564 0.0
H3200 H 0.88398 0.87027 0.31357 0.0
H3201 H 0.86252 0.91312 0.25002 0.0
C3202 C 0.89358 0.93771 0.26261 0.0
C3203 C 0.91365 0.9429 0.27888 0.0
C3204 C 0.86869 0.86614 0.3006 0.0
C3205 C 0.88302 0.89988 0.27795 0.0
C3206 C 0.85141 0.84832 0.30432 0.0
C3207 C 0.83118 0.84289 0.28824 0.0
C3208 C 0.86569 0.87903 0.28085 0.0
C3209 C 0.82892 0.85584 0.26847 0.0
C3210 C 0.87829 0.9162 0.26195 0.0
C3211 C 0.91864 0.9252 0.29288 0.0
N3212 N 0.84589 0.87341 0.26544 0.0
N3213 N 0.90322 0.9047 0.29252 0.0
H3214 H 0.68631 0.10787 0.84043 0.0
H3215 H 0.77841 0.19342 0.78342 0.0
H3216 H 0.73221 0.07864 0.80246 0.0
H3217 H 0.75022 0.2222 0.84325 0.0
H3218 H 0.75962 0.1522 0.78725 0.0
H3219 H 0.70674 0.14924 0.83913 0.0
C3220 C 0.70078 0.10996 0.83197 0.0
C3221 C 0.70753 0.08901 0.82215 0.0
C3222 C 0.75745 0.16743 0.7996 0.0
C3223 C 0.7311 0.13768 0.81956 0.0
C3224 C 0.76826 0.19132 0.79739 0.0
C3225 C 0.76626 0.21216 0.81295 0.0
C3226 C 0.74371 0.16351 0.81724 0.0
C3227 C 0.75262 0.20727 0.83066 0.0
C3228 C 0.71254 0.13388 0.83119 0.0
C3229 C 0.72637 0.09373 0.81094 0.0
N3230 N 0.74192 0.18394 0.83209 0.0
N3231 N 0.73715 0.11709 0.80983 0.0
loop_
_geom_bond_atom_site_label_1
_geom_bond_atom_site_label_2
_geom_bond_distance
_geom_bond_site_symmetry_2
_ccdc_geom_bond_type
Mn0 O5 2.095 . S
Mn0 O15 2.162 . S
Mn0 O16 2.297 1_455 S
Mn0 O24 2.385 1_455 S
Mn0 O25 2.209 1_455 S
Mn0 O26 2.094 . S
Mn1 O6 2.076 1_655 S
Mn1 N8 2.266 . S
Mn1 N17 2.329 . S
Mn1 O25 2.232 . S
Mn1 O27 2.122 1_655 S
C2 O24 1.234 . S
C2 O25 1.283 . S
C3 O15 1.284 1_655 S
C3 O16 1.237 . S
C4 O26 1.240 . S
C4 O27 1.264 . S
O5 Mn0 2.095 . S
O5 C14 1.250 . S
O6 Mn1 2.076 1_455 S
O6 C14 1.258 . S
C7 N8 1.326 . S
C7 C11 1.460 . S
C7 H13 0.929 1_655 S
N8 Mn1 2.266 . S
N8 C7 1.326 . S
N8 C12 1.362 . S
C9 C10 1.258 . S
C9 C12 1.431 . S
C9 C29 1.449 . S
C10 C9 1.258 . S
C10 C11 1.477 . S
C10 H30 0.931 . S
C11 C7 1.460 . S
C11 C10 1.477 . S
C11 H31 0.930 . S
C12 N8 1.362 . S
C12 C9 1.431 . S
C12 C22 1.476 . S
H13 C7 0.929 1_455 S
C14 O5 1.250 . S
C14 O6 1.258 . S
O15 Mn0 2.162 . S
O15 C3 1.284 1_455 S
O16 Mn0 2.297 1_655 S
O16 C3 1.237 . S
N17 Mn1 2.329 . S
N17 C18 1.328 . S
N17 C22 1.318 . S
C18 N17 1.328 . S
C18 C19 1.457 . S
C18 H23 0.929 . S
C19 C18 1.457 . S
C19 C20 1.291 . S
C19 H32 0.931 . S
C20 C19 1.291 . S
C20 C21 1.373 . S
C20 H33 0.929 . S
C21 C20 1.373 . S
C21 C22 1.396 . S
C21 C28 1.403 . S
C22 C12 1.476 . S
C22 N17 1.318 . S
C22 C21 1.396 . S
H23 C18 0.929 . S
O24 Mn0 2.385 1_655 S
O24 C2 1.234 . S
O25 Mn0 2.209 1_655 S
O25 Mn1 2.232 . S
O25 C2 1.283 . S
O26 Mn0 2.094 . S
O26 C4 1.240 . S
O27 Mn1 2.122 1_455 S
O27 C4 1.264 . S
C28 C21 1.403 . S
C28 C29 1.399 . S
C28 H34 0.929 . S
C29 C9 1.449 . S
C29 C28 1.399 . S
C29 H35 0.930 . S
H30 C10 0.931 . S
H31 C11 0.930 . S
H32 C19 0.931 . S
H33 C20 0.929 . S
H34 C28 0.929 . S
H35 C29 0.930 . S
Mn36 O41 2.095 . S
Mn36 O51 2.162 . S
Mn36 O52 2.297 . S
Mn36 O60 2.385 . S
Mn36 O61 2.209 . S
Mn36 O62 2.094 . S
Mn37 O42 2.121 . S
Mn37 N44 2.257 . S
Mn37 N53 2.282 . S
Mn37 O61 2.215 . S
Mn37 O63 2.117 . S
C38 O60 1.234 . S
C38 O61 1.283 . S
C39 O51 1.281 . S
C39 O52 1.236 . S
C40 O62 1.240 . S
C40 O63 1.264 . S
O41 Mn36 2.095 . S
O41 C50 1.250 . S
O42 Mn37 2.121 . S
O42 C50 1.258 . S
C43 N44 1.326 . S
C43 C47 1.460 . S
C43 H49 0.929 . S
N44 Mn37 2.257 . S
N44 C43 1.326 . S
N44 C48 1.362 . S
C45 C46 1.258 . S
C45 C48 1.431 . S
C45 C65 1.449 . S
C46 C45 1.258 . S
C46 C47 1.477 . S
C46 H66 0.931 . S
C47 C43 1.460 . S
C47 C46 1.477 . S
C47 H67 0.930 . S
C48 N44 1.362 . S
C48 C45 1.431 . S
C48 C58 1.476 . S
H49 C43 0.929 . S
C50 O41 1.250 . S
C50 O42 1.258 . S
O51 Mn36 2.162 . S
O51 C39 1.281 . S
O52 Mn36 2.297 . S
O52 C39 1.236 . S
N53 Mn37 2.282 . S
N53 C54 1.328 . S
N53 C58 1.318 . S
C54 N53 1.328 . S
C54 C55 1.457 . S
C54 H59 0.929 . S
C55 C54 1.457 . S
C55 C56 1.291 . S
C55 H68 0.931 . S
C56 C55 1.291 . S
C56 C57 1.373 . S
C56 H69 0.929 . S
C57 C56 1.373 . S
C57 C58 1.396 . S
C57 C64 1.403 . S
C58 C48 1.476 . S
C58 N53 1.318 . S
C58 C57 1.396 . S
H59 C54 0.929 . S
O60 Mn36 2.385 . S
O60 C38 1.234 . S
O61 Mn36 2.209 . S
O61 Mn37 2.215 . S
O61 C38 1.283 . S
O62 Mn36 2.094 . S
O62 C40 1.240 . S
O63 Mn37 2.117 . S
O63 C40 1.264 . S
C64 C57 1.403 . S
C64 C65 1.399 . S
C64 H70 0.929 . S
C65 C45 1.449 . S
C65 C64 1.399 . S
C65 H71 0.930 . S
H66 C46 0.931 . S
H67 C47 0.930 . S
H68 C55 0.931 . S
H69 C56 0.929 . S
H70 C64 0.929 . S
H71 C65 0.930 . S
Mn72 O77 2.095 . S
Mn72 O87 2.162 . S
Mn72 O88 2.297 . S
Mn72 O96 2.385 . S
Mn72 O97 2.209 . S
Mn72 O98 2.094 . S
Mn73 O78 2.121 . S
Mn73 N80 2.257 . S
Mn73 N89 2.282 . S
Mn73 O97 2.215 . S
Mn73 O99 2.117 . S
C74 O96 1.234 . S
C74 O97 1.283 . S
C75 O87 1.281 . S
C75 O88 1.236 . S
C76 O98 1.240 . S
C76 O99 1.264 . S
O77 Mn72 2.095 . S
O77 C86 1.250 . S
O78 Mn73 2.121 . S
O78 C86 1.258 . S
C79 N80 1.326 . S
C79 C83 1.460 . S
C79 H85 0.929 . S
N80 Mn73 2.257 . S
N80 C79 1.326 . S
N80 C84 1.362 . S
C81 C82 1.258 . S
C81 C84 1.431 . S
C81 C101 1.449 . S
C82 C81 1.258 . S
C82 C83 1.477 . S
C82 H102 0.931 . S
C83 C79 1.460 . S
C83 C82 1.477 . S
C83 H103 0.930 . S
C84 N80 1.362 . S
C84 C81 1.431 . S
C84 C94 1.476 . S
H85 C79 0.929 . S
C86 O77 1.250 . S
C86 O78 1.258 . S
O87 Mn72 2.162 . S
O87 C75 1.281 . S
O88 Mn72 2.297 . S
O88 C75 1.236 . S
N89 Mn73 2.282 . S
N89 C90 1.328 . S
N89 C94 1.318 . S
C90 N89 1.328 . S
C90 C91 1.457 . S
C90 H95 0.929 . S
C91 C90 1.457 . S
C91 C92 1.291 . S
C91 H104 0.931 . S
C92 C91 1.291 . S
C92 C93 1.373 . S
C92 H105 0.929 . S
C93 C92 1.373 . S
C93 C94 1.396 . S
C93 C100 1.403 . S
C94 C84 1.476 . S
C94 N89 1.318 . S
C94 C93 1.396 . S
H95 C90 0.929 . S
O96 Mn72 2.385 . S
O96 C74 1.234 . S
O97 Mn72 2.209 . S
O97 Mn73 2.215 . S
O97 C74 1.283 . S
O98 Mn72 2.094 . S
O98 C76 1.240 . S
O99 Mn73 2.117 . S
O99 C76 1.264 . S
C100 C93 1.403 . S
C100 C101 1.399 . S
C100 H106 0.929 . S
C101 C81 1.449 . S
C101 C100 1.399 . S
C101 H107 0.930 . S
H102 C82 0.931 . S
H103 C83 0.930 . S
H104 C91 0.931 . S
H105 C92 0.929 . S
H106 C100 0.929 . S
H107 C101 0.930 . S
Mn108 O113 2.095 . S
Mn108 O123 2.162 . S
Mn108 O124 2.297 . S
Mn108 O132 2.385 . S
Mn108 O133 2.209 . S
Mn108 O134 2.094 . S
Mn109 O114 2.121 . S
Mn109 N116 2.257 . S
Mn109 N125 2.282 . S
Mn109 O133 2.215 . S
Mn109 O135 2.117 . S
C110 O132 1.234 . S
C110 O133 1.283 . S
C111 O123 1.281 . S
C111 O124 1.236 . S
C112 O134 1.240 . S
C112 O135 1.264 . S
O113 Mn108 2.095 . S
O113 C122 1.250 . S
O114 Mn109 2.121 . S
O114 C122 1.258 . S
C115 N116 1.326 . S
C115 C119 1.460 . S
C115 H121 0.929 . S
N116 Mn109 2.257 . S
N116 C115 1.326 . S
N116 C120 1.362 . S
C117 C118 1.258 . S
C117 C120 1.431 . S
C117 C137 1.449 . S
C118 C117 1.258 . S
C118 C119 1.477 . S
C118 H138 0.931 . S
C119 C115 1.460 . S
C119 C118 1.477 . S
C119 H139 0.930 . S
C120 N116 1.362 . S
C120 C117 1.431 . S
C120 C130 1.476 . S
H121 C115 0.929 . S
C122 O113 1.250 . S
C122 O114 1.258 . S
O123 Mn108 2.162 . S
O123 C111 1.281 . S
O124 Mn108 2.297 . S
O124 C111 1.236 . S
N125 Mn109 2.282 . S
N125 C126 1.328 . S
N125 C130 1.318 . S
C126 N125 1.328 . S
C126 C127 1.457 . S
C126 H131 0.929 . S
C127 C126 1.457 . S
C127 C128 1.291 . S
C127 H140 0.931 . S
C128 C127 1.291 . S
C128 C129 1.373 . S
C128 H141 0.929 . S
C129 C128 1.373 . S
C129 C130 1.396 . S
C129 C136 1.403 . S
C130 C120 1.476 . S
C130 N125 1.318 . S
C130 C129 1.396 . S
H131 C126 0.929 . S
O132 Mn108 2.385 . S
O132 C110 1.234 . S
O133 Mn108 2.209 . S
O133 Mn109 2.215 . S
O133 C110 1.283 . S
O134 Mn108 2.094 . S
O134 C112 1.240 . S
O135 Mn109 2.117 . S
O135 C112 1.264 . S
C136 C129 1.403 . S
C136 C137 1.399 . S
C136 H142 0.929 . S
C137 C117 1.449 . S
C137 C136 1.399 . S
C137 H143 0.930 . S
H138 C118 0.931 . S
H139 C119 0.930 . S
H140 C127 0.931 . S
H141 C128 0.929 . S
H142 C136 0.929 . S
H143 C137 0.930 . S
Mn144 O149 2.095 . S
Mn144 O159 2.162 . S
Mn144 O160 2.297 . S
Mn144 O168 2.385 . S
Mn144 O169 2.209 . S
Mn144 O170 2.094 . S
Mn145 O150 2.121 . S
Mn145 N152 2.257 . S
Mn145 N161 2.282 1_455 S
Mn145 O169 2.215 . S
Mn145 O171 2.117 . S
C146 O168 1.234 . S
C146 O169 1.283 . S
C147 O159 1.281 . S
C147 O160 1.236 . S
C148 O170 1.240 . S
C148 O171 1.264 . S
O149 Mn144 2.095 . S
O149 C158 1.250 . S
O150 Mn145 2.121 . S
O150 C158 1.258 . S
C151 N152 1.326 . S
C151 C155 1.460 . S
C151 H157 0.929 . S
N152 Mn145 2.257 . S
N152 C151 1.326 . S
N152 C156 1.362 . S
C153 C154 1.258 . S
C153 C156 1.431 . S
C153 C173 1.449 1_455 S
C154 C153 1.258 . S
C154 C155 1.477 . S
C154 H174 0.931 1_554 S
C155 C151 1.460 . S
C155 C154 1.477 . S
C155 H175 0.930 . S
C156 N152 1.362 . S
C156 C153 1.431 . S
C156 C166 1.476 1_455 S
H157 C151 0.929 . S
C158 O149 1.250 . S
C158 O150 1.258 . S
O159 Mn144 2.162 . S
O159 C147 1.281 . S
O160 Mn144 2.297 . S
O160 C147 1.236 . S
N161 Mn145 2.282 1_655 S
N161 C162 1.328 . S
N161 C166 1.318 . S
C162 N161 1.328 . S
C162 C163 1.457 . S
C162 H167 0.929 . S
C163 C162 1.457 . S
C163 C164 1.291 . S
C163 H176 0.931 . S
C164 C163 1.291 . S
C164 C165 1.373 . S
C164 H177 0.929 . S
C165 C164 1.373 . S
C165 C166 1.396 . S
C165 C172 1.403 . S
C166 C156 1.476 1_655 S
C166 N161 1.318 . S
C166 C165 1.396 . S
H167 C162 0.929 . S
O168 Mn144 2.385 . S
O168 C146 1.234 . S
O169 Mn144 2.209 . S
O169 Mn145 2.215 . S
O169 C146 1.283 . S
O170 Mn144 2.094 . S
O170 C148 1.240 . S
O171 Mn145 2.117 . S
O171 C148 1.264 . S
C172 C165 1.403 . S
C172 C173 1.399 . S
C172 H178 0.929 . S
C173 C153 1.449 1_655 S
C173 C172 1.399 . S
C173 H179 0.930 . S
H174 C154 0.931 1_556 S
H175 C155 0.930 . S
H176 C163 0.931 . S
H177 C164 0.929 . S
H178 C172 0.929 . S
H179 C173 0.930 . S
Mn180 O185 2.095 . S
Mn180 O195 2.162 . S
Mn180 O196 2.297 . S
Mn180 O204 2.385 . S
Mn180 O205 2.209 . S
Mn180 O206 2.094 . S
Mn181 O186 2.121 . S
Mn181 N188 2.257 . S
Mn181 N197 2.282 . S
Mn181 O205 2.215 . S
Mn181 O207 2.117 . S
C182 O204 1.234 . S
C182 O205 1.283 . S
C183 O195 1.281 . S
C183 O196 1.236 . S
C184 O206 1.240 . S
C184 O207 1.264 . S
O185 Mn180 2.095 . S
O185 C194 1.250 . S
O186 Mn181 2.121 . S
O186 C194 1.258 . S
C187 N188 1.326 . S
C187 C191 1.460 . S
C187 H193 0.929 . S
N188 Mn181 2.257 . S
N188 C187 1.326 . S
N188 C192 1.362 . S
C189 C190 1.258 . S
C189 C192 1.431 . S
C189 C209 1.449 . S
C190 C189 1.258 . S
C190 C191 1.477 . S
C190 H210 0.931 . S
C191 C187 1.460 . S
C191 C190 1.477 . S
C191 H211 0.930 . S
C192 N188 1.362 . S
C192 C189 1.431 . S
C192 C202 1.476 . S
H193 C187 0.929 . S
C194 O185 1.250 . S
C194 O186 1.258 . S
O195 Mn180 2.162 . S
O195 C183 1.281 . S
O196 Mn180 2.297 . S
O196 C183 1.236 . S
N197 Mn181 2.282 . S
N197 C198 1.328 . S
N197 C202 1.318 . S
C198 N197 1.328 . S
C198 C199 1.457 . S
C198 H203 0.929 . S
C199 C198 1.457 . S
C199 C200 1.291 . S
C199 H212 0.931 . S
C200 C199 1.291 . S
C200 C201 1.373 . S
C200 H213 0.929 . S
C201 C200 1.373 . S
C201 C202 1.396 . S
C201 C208 1.403 . S
C202 C192 1.476 . S
C202 N197 1.318 . S
C202 C201 1.396 . S
H203 C198 0.929 . S
O204 Mn180 2.385 . S
O204 C182 1.234 . S
O205 Mn180 2.209 . S
O205 Mn181 2.215 . S
O205 C182 1.283 . S
O206 Mn180 2.094 . S
O206 C184 1.240 . S
O207 Mn181 2.117 . S
O207 C184 1.264 . S
C208 C201 1.403 . S
C208 C209 1.399 . S
C208 H214 0.929 . S
C209 C189 1.449 . S
C209 C208 1.399 . S
C209 H215 0.930 . S
H210 C190 0.931 . S
H211 C191 0.930 . S
H212 C199 0.931 . S
H213 C200 0.929 . S
H214 C208 0.929 . S
H215 C209 0.930 . S
Mn216 O221 2.095 . S
Mn216 O231 2.162 . S
Mn216 O232 2.297 . S
Mn216 O240 2.385 . S
Mn216 O241 2.209 . S
Mn216 O242 2.094 . S
Mn217 O222 2.121 . S
Mn217 N224 2.257 . S
Mn217 N233 2.282 . S
Mn217 O241 2.215 . S
Mn217 O243 2.117 . S
C218 O240 1.234 . S
C218 O241 1.283 . S
C219 O231 1.281 . S
C219 O232 1.236 . S
C220 O242 1.240 . S
C220 O243 1.264 . S
O221 Mn216 2.095 . S
O221 C230 1.250 . S
O222 Mn217 2.121 . S
O222 C230 1.258 . S
C223 N224 1.326 . S
C223 C227 1.460 . S
C223 H229 0.929 . S
N224 Mn217 2.257 . S
N224 C223 1.326 . S
N224 C228 1.362 . S
C225 C226 1.258 . S
C225 C228 1.431 . S
C225 C245 1.449 . S
C226 C225 1.258 . S
C226 C227 1.477 . S
C226 H246 0.931 . S
C227 C223 1.460 . S
C227 C226 1.477 . S
C227 H247 0.930 . S
C228 N224 1.362 . S
C228 C225 1.431 . S
C228 C238 1.476 . S
H229 C223 0.929 . S
C230 O221 1.250 . S
C230 O222 1.258 . S
O231 Mn216 2.162 . S
O231 C219 1.281 . S
O232 Mn216 2.297 . S
O232 C219 1.236 . S
N233 Mn217 2.282 . S
N233 C234 1.328 . S
N233 C238 1.318 . S
C234 N233 1.328 . S
C234 C235 1.457 . S
C234 H239 0.929 . S
C235 C234 1.457 . S
C235 C236 1.291 . S
C235 H248 0.931 . S
C236 C235 1.291 . S
C236 C237 1.373 . S
C236 H249 0.929 . S
C237 C236 1.373 . S
C237 C238 1.396 . S
C237 C244 1.403 . S
C238 C228 1.476 . S
C238 N233 1.318 . S
C238 C237 1.396 . S
H239 C234 0.929 . S
O240 Mn216 2.385 . S
O240 C218 1.234 . S
O241 Mn216 2.209 . S
O241 Mn217 2.215 . S
O241 C218 1.283 . S
O242 Mn216 2.094 . S
O242 C220 1.240 . S
O243 Mn217 2.117 . S
O243 C220 1.264 . S
C244 C237 1.403 . S
C244 C245 1.399 . S
C244 H250 0.929 . S
C245 C225 1.449 . S
C245 C244 1.399 . S
C245 H251 0.930 . S
H246 C226 0.931 . S
H247 C227 0.930 . S
H248 C235 0.931 . S
H249 C236 0.929 . S
H250 C244 0.929 . S
H251 C245 0.930 . S
Mn252 O257 2.095 . S
Mn252 O267 2.162 . S
Mn252 O268 2.297 . S
Mn252 O276 2.385 1_455 S
Mn252 O277 2.209 1_455 S
Mn252 O278 2.094 . S
Mn253 O258 2.121 . S
Mn253 N260 2.257 1_455 S
Mn253 N269 2.282 1_455 S
Mn253 O277 2.215 1_455 S
Mn253 O279 2.117 . S
C254 O276 1.234 . S
C254 O277 1.283 . S
C255 O267 1.281 . S
C255 O268 1.236 . S
C256 O278 1.240 . S
C256 O279 1.264 . S
O257 Mn252 2.095 . S
O257 C266 1.250 . S
O258 Mn253 2.121 . S
O258 C266 1.258 . S
C259 N260 1.326 1_455 S
C259 C263 1.460 1_455 S
C259 H265 0.929 . S
N260 Mn253 2.257 1_655 S
N260 C259 1.326 1_655 S
N260 C264 1.362 . S
C261 C262 1.258 . S
C261 C264 1.431 . S
C261 C281 1.449 . S
C262 C261 1.258 . S
C262 C263 1.477 . S
C262 H282 0.931 . S
C263 C259 1.460 1_655 S
C263 C262 1.477 . S
C263 H283 0.930 1_655 S
C264 N260 1.362 . S
C264 C261 1.431 . S
C264 C274 1.476 . S
H265 C259 0.929 . S
C266 O257 1.250 . S
C266 O258 1.258 . S
O267 Mn252 2.162 . S
O267 C255 1.281 . S
O268 Mn252 2.297 . S
O268 C255 1.236 . S
N269 Mn253 2.282 1_655 S
N269 C270 1.328 . S
N269 C274 1.318 . S
C270 N269 1.328 . S
C270 C271 1.457 . S
C270 H275 0.929 . S
C271 C270 1.457 . S
C271 C272 1.291 . S
C271 H284 0.931 . S
C272 C271 1.291 . S
C272 C273 1.373 . S
C272 H285 0.929 . S
C273 C272 1.373 . S
C273 C274 1.396 . S
C273 C280 1.403 . S
C274 C264 1.476 . S
C274 N269 1.318 . S
C274 C273 1.396 . S
H275 C270 0.929 . S
O276 Mn252 2.385 1_655 S
O276 C254 1.234 . S
O277 Mn252 2.209 1_655 S
O277 Mn253 2.215 1_655 S
O277 C254 1.283 . S
O278 Mn252 2.094 . S
O278 C256 1.240 . S
O279 Mn253 2.117 . S
O279 C256 1.264 . S
C280 C273 1.403 . S
C280 C281 1.399 . S
C280 H286 0.929 . S
C281 C261 1.449 . S
C281 C280 1.399 . S
C281 H287 0.930 . S
H282 C262 0.931 . S
H283 C263 0.930 1_455 S
H284 C271 0.931 . S
H285 C272 0.929 . S
H286 C280 0.929 . S
H287 C281 0.930 . S
Mn288 O293 2.095 . S
Mn288 O303 2.162 . S
Mn288 O304 2.297 . S
Mn288 O312 2.385 1_545 S
Mn288 O313 2.209 . S
Mn288 O314 2.094 . S
Mn289 O294 2.121 . S
Mn289 N296 2.257 . S
Mn289 N305 2.282 1_545 S
Mn289 O313 2.215 . S
Mn289 O315 2.117 . S
C290 O312 1.234 . S
C290 O313 1.283 1_565 S
C291 O303 1.281 . S
C291 O304 1.236 . S
C292 O314 1.240 . S
C292 O315 1.264 . S
O293 Mn288 2.095 . S
O293 C302 1.250 . S
O294 Mn289 2.121 . S
O294 C302 1.258 . S
C295 N296 1.326 . S
C295 C299 1.460 . S
C295 H301 0.929 . S
N296 Mn289 2.257 . S
N296 C295 1.326 . S
N296 C300 1.362 1_545 S
C297 C298 1.258 . S
C297 C300 1.431 . S
C297 C317 1.449 . S
C298 C297 1.258 . S
C298 C299 1.477 1_565 S
C298 H318 0.931 . S
C299 C295 1.460 . S
C299 C298 1.477 1_545 S
C299 H319 0.930 . S
C300 N296 1.362 1_565 S
C300 C297 1.431 . S
C300 C310 1.476 . S
H301 C295 0.929 . S
C302 O293 1.250 . S
C302 O294 1.258 . S
O303 Mn288 2.162 . S
O303 C291 1.281 . S
O304 Mn288 2.297 . S
O304 C291 1.236 . S
N305 Mn289 2.282 1_565 S
N305 C306 1.328 . S
N305 C310 1.318 . S
C306 N305 1.328 . S
C306 C307 1.457 . S
C306 H311 0.929 . S
C307 C306 1.457 . S
C307 C308 1.291 . S
C307 H320 0.931 . S
C308 C307 1.291 . S
C308 C309 1.373 . S
C308 H321 0.929 . S
C309 C308 1.373 . S
C309 C310 1.396 . S
C309 C316 1.403 . S
C310 C300 1.476 . S
C310 N305 1.318 . S
C310 C309 1.396 . S
H311 C306 0.929 . S
O312 Mn288 2.385 1_565 S
O312 C290 1.234 . S
O313 Mn288 2.209 . S
O313 Mn289 2.215 . S
O313 C290 1.283 1_545 S
O314 Mn288 2.094 . S
O314 C292 1.240 . S
O315 Mn289 2.117 . S
O315 C292 1.264 . S
C316 C309 1.403 . S
C316 C317 1.399 . S
C316 H322 0.929 . S
C317 C297 1.449 . S
C317 C316 1.399 . S
C317 H323 0.930 . S
H318 C298 0.931 . S
H319 C299 0.930 . S
H320 C307 0.931 . S
H321 C308 0.929 . S
H322 C316 0.929 . S
H323 C317 0.930 . S
Mn324 O329 2.095 . S
Mn324 O339 2.162 . S
Mn324 O340 2.297 . S
Mn324 O348 2.385 . S
Mn324 O349 2.209 . S
Mn324 O350 2.094 . S
Mn325 O330 2.121 . S
Mn325 N332 2.257 . S
Mn325 N341 2.282 . S
Mn325 O349 2.215 . S
Mn325 O351 2.117 . S
C326 O348 1.234 . S
C326 O349 1.283 . S
C327 O339 1.281 . S
C327 O340 1.236 . S
C328 O350 1.240 . S
C328 O351 1.264 . S
O329 Mn324 2.095 . S
O329 C338 1.250 . S
O330 Mn325 2.121 . S
O330 C338 1.258 . S
C331 N332 1.326 . S
C331 C335 1.460 . S
C331 H337 0.929 . S
N332 Mn325 2.257 . S
N332 C331 1.326 . S
N332 C336 1.362 . S
C333 C334 1.258 . S
C333 C336 1.431 . S
C333 C353 1.449 . S
C334 C333 1.258 . S
C334 C335 1.477 . S
C334 H354 0.931 . S
C335 C331 1.460 . S
C335 C334 1.477 . S
C335 H355 0.930 . S
C336 N332 1.362 . S
C336 C333 1.431 . S
C336 C346 1.476 . S
H337 C331 0.929 . S
C338 O329 1.250 . S
C338 O330 1.258 . S
O339 Mn324 2.162 . S
O339 C327 1.281 . S
O340 Mn324 2.297 . S
O340 C327 1.236 . S
N341 Mn325 2.282 . S
N341 C342 1.328 . S
N341 C346 1.318 . S
C342 N341 1.328 . S
C342 C343 1.457 . S
C342 H347 0.929 . S
C343 C342 1.457 . S
C343 C344 1.291 . S
C343 H356 0.931 . S
C344 C343 1.291 . S
C344 C345 1.373 . S
C344 H357 0.929 . S
C345 C344 1.373 . S
C345 C346 1.396 . S
C345 C352 1.403 . S
C346 C336 1.476 . S
C346 N341 1.318 . S
C346 C345 1.396 . S
H347 C342 0.929 . S
O348 Mn324 2.385 . S
O348 C326 1.234 . S
O349 Mn324 2.209 . S
O349 Mn325 2.215 . S
O349 C326 1.283 . S
O350 Mn324 2.094 . S
O350 C328 1.240 . S
O351 Mn325 2.117 . S
O351 C328 1.264 . S
C352 C345 1.403 . S
C352 C353 1.399 . S
C352 H358 0.929 . S
C353 C333 1.449 . S
C353 C352 1.399 . S
C353 H359 0.930 . S
H354 C334 0.931 . S
H355 C335 0.930 . S
H356 C343 0.931 . S
H357 C344 0.929 . S
H358 C352 0.929 . S
H359 C353 0.930 . S
Mn360 O365 2.095 . S
Mn360 O375 2.162 . S
Mn360 O376 2.297 . S
Mn360 O384 2.385 . S
Mn360 O385 2.209 . S
Mn360 O386 2.094 . S
Mn361 O366 2.121 . S
Mn361 N368 2.257 . S
Mn361 N377 2.282 . S
Mn361 O385 2.215 . S
Mn361 O387 2.117 . S
C362 O384 1.234 . S
C362 O385 1.283 . S
C363 O375 1.281 . S
C363 O376 1.236 . S
C364 O386 1.240 . S
C364 O387 1.264 . S
O365 Mn360 2.095 . S
O365 C374 1.250 . S
O366 Mn361 2.121 . S
O366 C374 1.258 . S
C367 N368 1.326 . S
C367 C371 1.460 . S
C367 H373 0.929 . S
N368 Mn361 2.257 . S
N368 C367 1.326 . S
N368 C372 1.362 . S
C369 C370 1.258 . S
C369 C372 1.431 . S
C369 C389 1.449 . S
C370 C369 1.258 . S
C370 C371 1.477 . S
C370 H390 0.931 . S
C371 C367 1.460 . S
C371 C370 1.477 . S
C371 H391 0.930 . S
C372 N368 1.362 . S
C372 C369 1.431 . S
C372 C382 1.476 . S
H373 C367 0.929 . S
C374 O365 1.250 . S
C374 O366 1.258 . S
O375 Mn360 2.162 . S
O375 C363 1.281 . S
O376 Mn360 2.297 . S
O376 C363 1.236 . S
N377 Mn361 2.282 . S
N377 C378 1.328 . S
N377 C382 1.318 . S
C378 N377 1.328 . S
C378 C379 1.457 . S
C378 H383 0.929 . S
C379 C378 1.457 . S
C379 C380 1.291 . S
C379 H392 0.931 . S
C380 C379 1.291 . S
C380 C381 1.373 . S
C380 H393 0.929 . S
C381 C380 1.373 . S
C381 C382 1.396 . S
C381 C388 1.403 . S
C382 C372 1.476 . S
C382 N377 1.318 . S
C382 C381 1.396 . S
H383 C378 0.929 . S
O384 Mn360 2.385 . S
O384 C362 1.234 . S
O385 Mn360 2.209 . S
O385 Mn361 2.215 . S
O385 C362 1.283 . S
O386 Mn360 2.094 . S
O386 C364 1.240 . S
O387 Mn361 2.117 . S
O387 C364 1.264 . S
C388 C381 1.403 . S
C388 C389 1.399 . S
C388 H394 0.929 . S
C389 C369 1.449 . S
C389 C388 1.399 . S
C389 H395 0.930 . S
H390 C370 0.931 . S
H391 C371 0.930 . S
H392 C379 0.931 . S
H393 C380 0.929 . S
H394 C388 0.929 . S
H395 C389 0.930 . S
Mn396 O401 2.095 1_554 S
Mn396 O411 2.162 . S
Mn396 O412 2.297 . S
Mn396 O420 2.385 . S
Mn396 O421 2.209 . S
Mn396 O422 2.094 1_554 S
Mn397 O402 2.121 . S
Mn397 N404 2.257 . S
Mn397 N413 2.282 . S
Mn397 O421 2.215 1_556 S
Mn397 O423 2.117 . S
C398 O420 1.234 . S
C398 O421 1.283 . S
C399 O411 1.281 . S
C399 O412 1.236 . S
C400 O422 1.240 . S
C400 O423 1.264 . S
O401 Mn396 2.095 1_556 S
O401 C410 1.250 . S
O402 Mn397 2.121 . S
O402 C410 1.258 . S
C403 N404 1.326 . S
C403 C407 1.460 . S
C403 H409 0.929 . S
N404 Mn397 2.257 . S
N404 C403 1.326 . S
N404 C408 1.362 . S
C405 C406 1.258 . S
C405 C408 1.431 . S
C405 C425 1.449 . S
C406 C405 1.258 . S
C406 C407 1.477 . S
C406 H426 0.931 . S
C407 C403 1.460 . S
C407 C406 1.477 . S
C407 H427 0.930 1_556 S
C408 N404 1.362 . S
C408 C405 1.431 . S
C408 C418 1.476 . S
H409 C403 0.929 . S
C410 O401 1.250 . S
C410 O402 1.258 . S
O411 Mn396 2.162 . S
O411 C399 1.281 . S
O412 Mn396 2.297 . S
O412 C399 1.236 . S
N413 Mn397 2.282 . S
N413 C414 1.328 . S
N413 C418 1.318 . S
C414 N413 1.328 . S
C414 C415 1.457 . S
C414 H419 0.929 . S
C415 C414 1.457 . S
C415 C416 1.291 . S
C415 H428 0.931 . S
C416 C415 1.291 . S
C416 C417 1.373 . S
C416 H429 0.929 . S
C417 C416 1.373 . S
C417 C418 1.396 . S
C417 C424 1.403 . S
C418 C408 1.476 . S
C418 N413 1.318 . S
C418 C417 1.396 . S
H419 C414 0.929 . S
O420 Mn396 2.385 . S
O420 C398 1.234 . S
O421 Mn396 2.209 . S
O421 Mn397 2.215 1_554 S
O421 C398 1.283 . S
O422 Mn396 2.094 1_556 S
O422 C400 1.240 . S
O423 Mn397 2.117 . S
O423 C400 1.264 . S
C424 C417 1.403 . S
C424 C425 1.399 . S
C424 H430 0.929 . S
C425 C405 1.449 . S
C425 C424 1.399 . S
C425 H431 0.930 . S
H426 C406 0.931 . S
H427 C407 0.930 1_554 S
H428 C415 0.931 . S
H429 C416 0.929 . S
H430 C424 0.929 . S
H431 C425 0.930 . S
Mn432 O437 2.095 . S
Mn432 O447 2.162 . S
Mn432 O448 2.297 . S
Mn432 O456 2.385 . S
Mn432 O457 2.209 . S
Mn432 O458 2.094 . S
Mn433 O438 2.121 . S
Mn433 N440 2.257 . S
Mn433 N449 2.265 1_554 S
Mn433 O457 2.215 . S
Mn433 O459 2.117 1_554 S
C434 O456 1.234 . S
C434 O457 1.283 . S
C435 O447 1.281 . S
C435 O448 1.236 . S
C436 O458 1.240 1_556 S
C436 O459 1.264 . S
O437 Mn432 2.095 . S
O437 C446 1.250 . S
O438 Mn433 2.121 . S
O438 C446 1.258 . S
C439 N440 1.326 . S
C439 C443 1.460 . S
C439 H445 0.929 . S
N440 Mn433 2.257 . S
N440 C439 1.326 . S
N440 C444 1.362 . S
C441 C442 1.258 . S
C441 C444 1.431 . S
C441 C461 1.449 . S
C442 C441 1.258 . S
C442 C443 1.477 . S
C442 H462 0.931 . S
C443 C439 1.460 . S
C443 C442 1.477 . S
C443 H463 0.930 . S
C444 N440 1.362 . S
C444 C441 1.431 . S
C444 C454 1.476 . S
H445 C439 0.929 . S
C446 O437 1.250 . S
C446 O438 1.258 . S
O447 Mn432 2.162 . S
O447 C435 1.281 . S
O448 Mn432 2.297 . S
O448 C435 1.236 . S
N449 Mn433 2.265 1_556 S
N449 C450 1.342 . S
N449 C454 1.320 1_556 S
C450 N449 1.342 . S
C450 C451 1.457 . S
C450 H455 0.929 . S
C451 C450 1.457 . S
C451 C452 1.291 . S
C451 H464 0.931 . S
C452 C451 1.291 . S
C452 C453 1.373 . S
C452 H465 0.929 . S
C453 C452 1.373 . S
C453 C454 1.396 1_556 S
C453 C460 1.403 1_556 S
C454 C444 1.476 . S
C454 N449 1.320 1_554 S
C454 C453 1.396 1_554 S
H455 C450 0.929 . S
O456 Mn432 2.385 . S
O456 C434 1.234 . S
O457 Mn432 2.209 . S
O457 Mn433 2.215 . S
O457 C434 1.283 . S
O458 Mn432 2.094 . S
O458 C436 1.240 1_554 S
O459 Mn433 2.117 1_556 S
O459 C436 1.264 . S
C460 C453 1.403 1_554 S
C460 C461 1.399 . S
C460 H466 0.929 1_554 S
C461 C441 1.449 . S
C461 C460 1.399 . S
C461 H467 0.930 . S
H462 C442 0.931 . S
H463 C443 0.930 . S
H464 C451 0.931 . S
H465 C452 0.929 . S
H466 C460 0.929 1_556 S
H467 C461 0.930 . S
Mn468 O473 2.095 . S
Mn468 O483 2.162 . S
Mn468 O484 2.297 . S
Mn468 O492 2.385 . S
Mn468 O493 2.209 . S
Mn468 O494 2.094 . S
Mn469 O474 2.121 . S
Mn469 N476 2.257 . S
Mn469 N485 2.282 . S
Mn469 O493 2.215 . S
Mn469 O495 2.117 . S
C470 O492 1.234 . S
C470 O493 1.283 . S
C471 O483 1.281 . S
C471 O484 1.236 . S
C472 O494 1.240 . S
C472 O495 1.264 . S
O473 Mn468 2.095 . S
O473 C482 1.250 . S
O474 Mn469 2.121 . S
O474 C482 1.258 . S
C475 N476 1.326 . S
C475 C479 1.460 . S
C475 H481 0.929 . S
N476 Mn469 2.257 . S
N476 C475 1.326 . S
N476 C480 1.362 . S
C477 C478 1.258 . S
C477 C480 1.431 . S
C477 C497 1.449 . S
C478 C477 1.258 . S
C478 C479 1.477 . S
C478 H498 0.931 . S
C479 C475 1.460 . S
C479 C478 1.477 . S
C479 H499 0.930 . S
C480 N476 1.362 . S
C480 C477 1.431 . S
C480 C490 1.476 . S
H481 C475 0.929 . S
C482 O473 1.250 . S
C482 O474 1.258 . S
O483 Mn468 2.162 . S
O483 C471 1.281 . S
O484 Mn468 2.297 . S
O484 C471 1.236 . S
N485 Mn469 2.282 . S
N485 C486 1.328 . S
N485 C490 1.318 . S
C486 N485 1.328 . S
C486 C487 1.457 . S
C486 H491 0.929 . S
C487 C486 1.457 . S
C487 C488 1.291 . S
C487 H500 0.931 1_554 S
C488 C487 1.291 . S
C488 C489 1.373 . S
C488 H501 0.929 1_554 S
C489 C488 1.373 . S
C489 C490 1.396 . S
C489 C496 1.403 . S
C490 C480 1.476 . S
C490 N485 1.318 . S
C490 C489 1.396 . S
H491 C486 0.929 . S
O492 Mn468 2.385 . S
O492 C470 1.234 . S
O493 Mn468 2.209 . S
O493 Mn469 2.215 . S
O493 C470 1.283 . S
O494 Mn468 2.094 . S
O494 C472 1.240 . S
O495 Mn469 2.117 . S
O495 C472 1.264 . S
C496 C489 1.403 . S
C496 C497 1.399 . S
C496 H502 0.917 1_554 S
C497 C477 1.449 . S
C497 C496 1.399 . S
C497 H503 0.930 . S
H498 C478 0.931 . S
H499 C479 0.930 . S
H500 C487 0.931 1_556 S
H501 C488 0.929 1_556 S
H502 C496 0.917 1_556 S
H503 C497 0.930 . S
Mn504 O509 2.095 . S
Mn504 O519 2.162 . S
Mn504 O520 2.297 . S
Mn504 O528 2.385 . S
Mn504 O529 2.209 . S
Mn504 O530 2.094 . S
Mn505 O510 2.121 . S
Mn505 N512 2.257 . S
Mn505 N521 2.282 . S
Mn505 O529 2.215 . S
Mn505 O531 2.117 . S
C506 O528 1.234 . S
C506 O529 1.283 . S
C507 O519 1.281 . S
C507 O520 1.236 . S
C508 O530 1.240 . S
C508 O531 1.264 . S
O509 Mn504 2.095 . S
O509 C518 1.250 . S
O510 Mn505 2.121 . S
O510 C518 1.258 . S
C511 N512 1.326 . S
C511 C515 1.460 . S
C511 H517 0.929 . S
N512 Mn505 2.257 . S
N512 C511 1.326 . S
N512 C516 1.362 . S
C513 C514 1.258 . S
C513 C516 1.431 . S
C513 C533 1.449 . S
C514 C513 1.258 . S
C514 C515 1.477 . S
C514 H534 0.931 . S
C515 C511 1.460 . S
C515 C514 1.477 . S
C515 H535 0.930 . S
C516 N512 1.362 . S
C516 C513 1.431 . S
C516 C526 1.476 . S
H517 C511 0.929 . S
C518 O509 1.250 . S
C518 O510 1.258 . S
O519 Mn504 2.162 . S
O519 C507 1.281 . S
O520 Mn504 2.297 . S
O520 C507 1.236 . S
N521 Mn505 2.282 . S
N521 C522 1.328 . S
N521 C526 1.318 . S
C522 N521 1.328 . S
C522 C523 1.457 . S
C522 H527 0.929 . S
C523 C522 1.457 . S
C523 C524 1.291 . S
C523 H536 0.931 . S
C524 C523 1.291 . S
C524 C525 1.373 . S
C524 H537 0.929 . S
C525 C524 1.373 . S
C525 C526 1.396 . S
C525 C532 1.403 . S
C526 C516 1.476 . S
C526 N521 1.318 . S
C526 C525 1.396 . S
H527 C522 0.929 . S
O528 Mn504 2.385 . S
O528 C506 1.234 . S
O529 Mn504 2.209 . S
O529 Mn505 2.215 . S
O529 C506 1.283 . S
O530 Mn504 2.094 . S
O530 C508 1.240 . S
O531 Mn505 2.117 . S
O531 C508 1.264 . S
C532 C525 1.403 . S
C532 C533 1.399 . S
C532 H538 0.929 . S
C533 C513 1.449 . S
C533 C532 1.399 . S
C533 H539 0.930 . S
H534 C514 0.931 . S
H535 C515 0.930 . S
H536 C523 0.931 . S
H537 C524 0.929 . S
H538 C532 0.929 . S
H539 C533 0.930 . S
Mn540 O545 2.095 . S
Mn540 O555 2.162 . S
Mn540 O556 2.297 . S
Mn540 O564 2.385 . S
Mn540 O565 2.209 . S
Mn540 O566 2.094 . S
Mn541 O546 2.121 . S
Mn541 N548 2.257 . S
Mn541 N557 2.282 . S
Mn541 O565 2.215 . S
Mn541 O567 2.117 . S
C542 O564 1.234 . S
C542 O565 1.283 . S
C543 O555 1.281 . S
C543 O556 1.236 . S
C544 O566 1.240 . S
C544 O567 1.264 . S
O545 Mn540 2.095 . S
O545 C554 1.250 . S
O546 Mn541 2.121 . S
O546 C554 1.258 . S
C547 N548 1.326 . S
C547 C551 1.460 . S
C547 H553 0.929 . S
N548 Mn541 2.257 . S
N548 C547 1.326 . S
N548 C552 1.362 . S
C549 C550 1.258 . S
C549 C552 1.431 . S
C549 C569 1.449 . S
C550 C549 1.258 . S
C550 C551 1.477 . S
C550 H570 0.931 1_565 S
C551 C547 1.460 . S
C551 C550 1.477 . S
C551 H571 0.930 . S
C552 N548 1.362 . S
C552 C549 1.431 . S
C552 C562 1.476 . S
H553 C547 0.929 . S
C554 O545 1.250 . S
C554 O546 1.258 . S
O555 Mn540 2.162 . S
O555 C543 1.281 . S
O556 Mn540 2.297 . S
O556 C543 1.236 . S
N557 Mn541 2.282 . S
N557 C558 1.328 . S
N557 C562 1.318 . S
C558 N557 1.328 . S
C558 C559 1.457 . S
C558 H563 0.929 . S
C559 C558 1.457 . S
C559 C560 1.291 . S
C559 H572 0.931 . S
C560 C559 1.291 . S
C560 C561 1.373 . S
C560 H573 0.929 . S
C561 C560 1.373 . S
C561 C562 1.396 . S
C561 C568 1.403 . S
C562 C552 1.476 . S
C562 N557 1.318 . S
C562 C561 1.396 . S
H563 C558 0.929 . S
O564 Mn540 2.385 . S
O564 C542 1.234 . S
O565 Mn540 2.209 . S
O565 Mn541 2.215 . S
O565 C542 1.283 . S
O566 Mn540 2.094 . S
O566 C544 1.240 . S
O567 Mn541 2.117 . S
O567 C544 1.264 . S
C568 C561 1.403 . S
C568 C569 1.399 . S
C568 H574 0.929 . S
C569 C549 1.449 . S
C569 C568 1.399 . S
C569 H575 0.914 1_565 S
H570 C550 0.931 1_545 S
H571 C551 0.930 . S
H572 C559 0.931 . S
H573 C560 0.929 . S
H574 C568 0.929 . S
H575 C569 0.914 1_545 S
Mn576 O581 2.087 1_565 S
Mn576 O591 2.161 1_565 S
Mn576 O592 2.296 . S
Mn576 O600 2.393 . S
Mn576 O601 2.212 . S
Mn576 O602 2.095 1_565 S
Mn577 O582 2.121 1_565 S
Mn577 N584 2.257 . S
Mn577 N593 2.282 . S
Mn577 O601 2.215 . S
Mn577 O603 2.117 1_565 S
C578 O600 1.234 . S
C578 O601 1.283 . S
C579 O591 1.281 1_565 S
C579 O592 1.236 . S
C580 O602 1.240 . S
C580 O603 1.264 . S
O581 Mn576 2.087 1_545 S
O581 C590 1.250 . S
O582 Mn577 2.121 1_545 S
O582 C590 1.258 . S
C583 N584 1.326 . S
C583 C587 1.460 . S
C583 H589 0.929 1_565 S
N584 Mn577 2.257 . S
N584 C583 1.326 . S
N584 C588 1.362 . S
C585 C586 1.258 . S
C585 C588 1.431 . S
C585 C605 1.449 . S
C586 C585 1.258 . S
C586 C587 1.477 . S
C586 H606 0.931 . S
C587 C583 1.460 . S
C587 C586 1.477 . S
C587 H607 0.930 . S
C588 N584 1.362 . S
C588 C585 1.431 . S
C588 C598 1.476 . S
H589 C583 0.929 1_545 S
C590 O581 1.250 . S
C590 O582 1.258 . S
O591 Mn576 2.161 1_545 S
O591 C579 1.281 1_545 S
O592 Mn576 2.296 . S
O592 C579 1.236 . S
N593 Mn577 2.282 . S
N593 C594 1.328 . S
N593 C598 1.318 . S
C594 N593 1.328 . S
C594 C595 1.457 . S
C594 H599 0.929 . S
C595 C594 1.457 . S
C595 C596 1.291 . S
C595 H608 0.931 . S
C596 C595 1.291 . S
C596 C597 1.373 . S
C596 H609 0.929 . S
C597 C596 1.373 . S
C597 C598 1.396 . S
C597 C604 1.403 . S
C598 C588 1.476 . S
C598 N593 1.318 . S
C598 C597 1.396 . S
H599 C594 0.929 . S
O600 Mn576 2.393 . S
O600 C578 1.234 . S
O601 Mn576 2.212 . S
O601 Mn577 2.215 . S
O601 C578 1.283 . S
O602 Mn576 2.095 1_545 S
O602 C580 1.240 . S
O603 Mn577 2.117 1_545 S
O603 C580 1.264 . S
C604 C597 1.403 . S
C604 C605 1.399 . S
C604 H610 0.929 . S
C605 C585 1.449 . S
C605 C604 1.399 . S
C605 H611 0.930 . S
H606 C586 0.931 . S
H607 C587 0.930 . S
H608 C595 0.931 . S
H609 C596 0.929 . S
H610 C604 0.929 . S
H611 C605 0.930 . S
Mn612 O617 2.095 . S
Mn612 O627 2.162 . S
Mn612 O628 2.297 . S
Mn612 O636 2.385 . S
Mn612 O637 2.209 . S
Mn612 O638 2.094 . S
Mn613 O618 2.121 . S
Mn613 N620 2.257 . S
Mn613 N629 2.282 . S
Mn613 O637 2.215 . S
Mn613 O639 2.117 . S
C614 O636 1.234 . S
C614 O637 1.283 . S
C615 O627 1.281 . S
C615 O628 1.236 . S
C616 O638 1.240 . S
C616 O639 1.264 . S
O617 Mn612 2.095 . S
O617 C626 1.250 . S
O618 Mn613 2.121 . S
O618 C626 1.258 . S
C619 N620 1.326 . S
C619 C623 1.460 . S
C619 H625 0.929 . S
N620 Mn613 2.257 . S
N620 C619 1.326 . S
N620 C624 1.362 . S
C621 C622 1.258 . S
C621 C624 1.431 . S
C621 C641 1.449 . S
C622 C621 1.258 . S
C622 C623 1.477 . S
C622 H642 0.931 . S
C623 C619 1.460 . S
C623 C622 1.477 . S
C623 H643 0.930 . S
C624 N620 1.362 . S
C624 C621 1.431 . S
C624 C634 1.476 . S
H625 C619 0.929 . S
C626 O617 1.250 . S
C626 O618 1.258 . S
O627 Mn612 2.162 . S
O627 C615 1.281 . S
O628 Mn612 2.297 . S
O628 C615 1.236 . S
N629 Mn613 2.282 . S
N629 C630 1.328 . S
N629 C634 1.318 . S
C630 N629 1.328 . S
C630 C631 1.457 . S
C630 H635 0.929 . S
C631 C630 1.457 . S
C631 C632 1.291 . S
C631 H644 0.931 . S
C632 C631 1.291 . S
C632 C633 1.373 . S
C632 H645 0.929 . S
C633 C632 1.373 . S
C633 C634 1.396 . S
C633 C640 1.403 . S
C634 C624 1.476 . S
C634 N629 1.318 . S
C634 C633 1.396 . S
H635 C630 0.929 . S
O636 Mn612 2.385 . S
O636 C614 1.234 . S
O637 Mn612 2.209 . S
O637 Mn613 2.215 . S
O637 C614 1.283 . S
O638 Mn612 2.094 . S
O638 C616 1.240 . S
O639 Mn613 2.117 . S
O639 C616 1.264 . S
C640 C633 1.403 . S
C640 C641 1.399 . S
C640 H646 0.929 . S
C641 C621 1.449 . S
C641 C640 1.399 . S
C641 H647 0.930 . S
H642 C622 0.931 . S
H643 C623 0.930 . S
H644 C631 0.931 . S
H645 C632 0.929 . S
H646 C640 0.929 . S
H647 C641 0.930 . S
Mn648 O653 2.095 . S
Mn648 O663 2.162 . S
Mn648 O664 2.297 . S
Mn648 O672 2.385 . S
Mn648 O673 2.209 . S
Mn648 O674 2.094 . S
Mn649 O654 2.121 . S
Mn649 N656 2.257 . S
Mn649 N665 2.282 . S
Mn649 O673 2.215 . S
Mn649 O675 2.117 . S
C650 O672 1.234 . S
C650 O673 1.283 . S
C651 O663 1.281 . S
C651 O664 1.236 . S
C652 O674 1.240 . S
C652 O675 1.264 . S
O653 Mn648 2.095 . S
O653 C662 1.250 . S
O654 Mn649 2.121 . S
O654 C662 1.258 . S
C655 N656 1.326 . S
C655 C659 1.460 . S
C655 H661 0.929 . S
N656 Mn649 2.257 . S
N656 C655 1.326 . S
N656 C660 1.362 . S
C657 C658 1.258 . S
C657 C660 1.431 . S
C657 C677 1.449 . S
C658 C657 1.258 . S
C658 C659 1.477 . S
C658 H678 0.931 . S
C659 C655 1.460 . S
C659 C658 1.477 . S
C659 H679 0.930 . S
C660 N656 1.362 . S
C660 C657 1.431 . S
C660 C670 1.476 . S
H661 C655 0.929 . S
C662 O653 1.250 . S
C662 O654 1.258 . S
O663 Mn648 2.162 . S
O663 C651 1.281 . S
O664 Mn648 2.297 . S
O664 C651 1.236 . S
N665 Mn649 2.282 . S
N665 C666 1.328 . S
N665 C670 1.318 . S
C666 N665 1.328 . S
C666 C667 1.457 . S
C666 H671 0.929 . S
C667 C666 1.457 . S
C667 C668 1.291 . S
C667 H680 0.931 . S
C668 C667 1.291 . S
C668 C669 1.373 . S
C668 H681 0.929 . S
C669 C668 1.373 . S
C669 C670 1.396 . S
C669 C676 1.403 . S
C670 C660 1.476 . S
C670 N665 1.318 . S
C670 C669 1.396 . S
H671 C666 0.929 . S
O672 Mn648 2.385 . S
O672 C650 1.234 . S
O673 Mn648 2.209 . S
O673 Mn649 2.215 . S
O673 C650 1.283 . S
O674 Mn648 2.094 . S
O674 C652 1.240 . S
O675 Mn649 2.117 . S
O675 C652 1.264 . S
C676 C669 1.403 . S
C676 C677 1.399 . S
C676 H682 0.929 . S
C677 C657 1.449 . S
C677 C676 1.399 . S
C677 H683 0.930 . S
H678 C658 0.931 . S
H679 C659 0.930 . S
H680 C667 0.931 . S
H681 C668 0.929 . S
H682 C676 0.929 . S
H683 C677 0.930 . S
Mn684 O689 2.095 1_545 S
Mn684 O699 2.162 . S
Mn684 O700 2.297 . S
Mn684 O708 2.385 . S
Mn684 O709 2.209 . S
Mn684 O710 2.094 . S
Mn685 O690 2.084 1_545 S
Mn685 N692 2.257 . S
Mn685 N701 2.282 . S
Mn685 O709 2.215 . S
Mn685 O711 2.117 . S
C686 O708 1.234 . S
C686 O709 1.283 . S
C687 O699 1.281 . S
C687 O700 1.236 . S
C688 O710 1.240 . S
C688 O711 1.264 . S
O689 Mn684 2.095 1_565 S
O689 C698 1.250 . S
O690 Mn685 2.084 1_565 S
O690 C698 1.276 . S
C691 N692 1.326 . S
C691 C695 1.460 . S
C691 H697 0.929 . S
N692 Mn685 2.257 . S
N692 C691 1.326 . S
N692 C696 1.362 . S
C693 C694 1.258 . S
C693 C696 1.431 . S
C693 C713 1.449 . S
C694 C693 1.258 . S
C694 C695 1.477 . S
C694 H714 0.931 . S
C695 C691 1.460 . S
C695 C694 1.477 . S
C695 H715 0.930 . S
C696 N692 1.362 . S
C696 C693 1.431 . S
C696 C706 1.476 . S
H697 C691 0.929 . S
C698 O689 1.250 . S
C698 O690 1.276 . S
O699 Mn684 2.162 . S
O699 C687 1.281 . S
O700 Mn684 2.297 . S
O700 C687 1.236 . S
N701 Mn685 2.282 . S
N701 C702 1.328 . S
N701 C706 1.318 . S
C702 N701 1.328 . S
C702 C703 1.457 . S
C702 H707 0.929 . S
C703 C702 1.457 . S
C703 C704 1.291 . S
C703 H716 0.931 . S
C704 C703 1.291 . S
C704 C705 1.373 . S
C704 H717 0.929 . S
C705 C704 1.373 . S
C705 C706 1.396 . S
C705 C712 1.403 . S
C706 C696 1.476 . S
C706 N701 1.318 . S
C706 C705 1.396 . S
H707 C702 0.929 . S
O708 Mn684 2.385 . S
O708 C686 1.234 . S
O709 Mn684 2.209 . S
O709 Mn685 2.215 . S
O709 C686 1.283 . S
O710 Mn684 2.094 . S
O710 C688 1.240 . S
O711 Mn685 2.117 . S
O711 C688 1.264 . S
C712 C705 1.403 . S
C712 C713 1.399 . S
C712 H718 0.929 . S
C713 C693 1.449 . S
C713 C712 1.399 . S
C713 H719 0.930 . S
H714 C694 0.931 . S
H715 C695 0.930 . S
H716 C703 0.931 . S
H717 C704 0.929 . S
H718 C712 0.929 . S
H719 C713 0.930 . S
Mn720 O725 2.095 . S
Mn720 O735 2.162 . S
Mn720 O736 2.297 . S
Mn720 O744 2.385 . S
Mn720 O745 2.209 . S
Mn720 O746 2.094 . S
Mn721 O726 2.121 1_556 S
Mn721 N728 2.257 . S
Mn721 N737 2.282 . S
Mn721 O745 2.215 1_556 S
Mn721 O747 2.117 . S
C722 O744 1.234 . S
C722 O745 1.283 . S
C723 O735 1.281 . S
C723 O736 1.236 . S
C724 O746 1.240 1_556 S
C724 O747 1.264 . S
O725 Mn720 2.095 . S
O725 C734 1.250 . S
O726 Mn721 2.121 1_554 S
O726 C734 1.258 . S
C727 N728 1.326 1_554 S
C727 C731 1.460 . S
C727 H733 0.929 . S
N728 Mn721 2.257 . S
N728 C727 1.326 1_556 S
N728 C732 1.362 . S
C729 C730 1.258 . S
C729 C732 1.431 . S
C729 C749 1.449 . S
C730 C729 1.258 . S
C730 C731 1.477 1_556 S
C730 H750 0.931 . S
C731 C727 1.460 . S
C731 C730 1.477 1_554 S
C731 H751 0.930 . S
C732 N728 1.362 . S
C732 C729 1.431 . S
C732 C742 1.476 . S
H733 C727 0.929 . S
C734 O725 1.250 . S
C734 O726 1.258 . S
O735 Mn720 2.162 . S
O735 C723 1.281 . S
O736 Mn720 2.297 . S
O736 C723 1.236 . S
N737 Mn721 2.282 . S
N737 C738 1.328 . S
N737 C742 1.318 . S
C738 N737 1.328 . S
C738 C739 1.457 . S
C738 H743 0.929 . S
C739 C738 1.457 . S
C739 C740 1.291 . S
C739 H752 0.931 . S
C740 C739 1.291 . S
C740 C741 1.373 . S
C740 H753 0.929 . S
C741 C740 1.373 . S
C741 C742 1.396 . S
C741 C748 1.403 . S
C742 C732 1.476 . S
C742 N737 1.318 . S
C742 C741 1.396 . S
H743 C738 0.929 . S
O744 Mn720 2.385 . S
O744 C722 1.234 . S
O745 Mn720 2.209 . S
O745 Mn721 2.215 1_554 S
O745 C722 1.283 . S
O746 Mn720 2.094 . S
O746 C724 1.240 1_554 S
O747 Mn721 2.117 . S
O747 C724 1.264 . S
C748 C741 1.403 . S
C748 C749 1.399 . S
C748 H754 0.929 . S
C749 C729 1.449 . S
C749 C748 1.399 . S
C749 H755 0.930 . S
H750 C730 0.931 . S
H751 C731 0.930 . S
H752 C739 0.931 . S
H753 C740 0.929 . S
H754 C748 0.929 . S
H755 C749 0.930 . S
Mn756 O761 2.095 . S
Mn756 O771 2.162 . S
Mn756 O772 2.297 . S
Mn756 O780 2.385 . S
Mn756 O781 2.209 . S
Mn756 O782 2.094 . S
Mn757 O762 2.121 . S
Mn757 N764 2.257 . S
Mn757 N773 2.282 . S
Mn757 O781 2.215 . S
Mn757 O783 2.117 . S
C758 O780 1.234 . S
C758 O781 1.283 . S
C759 O771 1.281 . S
C759 O772 1.236 . S
C760 O782 1.240 . S
C760 O783 1.264 . S
O761 Mn756 2.095 . S
O761 C770 1.250 . S
O762 Mn757 2.121 . S
O762 C770 1.258 . S
C763 N764 1.326 . S
C763 C767 1.460 . S
C763 H769 0.929 . S
N764 Mn757 2.257 . S
N764 C763 1.326 . S
N764 C768 1.362 . S
C765 C766 1.258 . S
C765 C768 1.431 . S
C765 C785 1.449 . S
C766 C765 1.258 . S
C766 C767 1.477 . S
C766 H786 0.931 . S
C767 C763 1.460 . S
C767 C766 1.477 . S
C767 H787 0.930 . S
C768 N764 1.362 . S
C768 C765 1.431 . S
C768 C778 1.476 . S
H769 C763 0.929 . S
C770 O761 1.250 . S
C770 O762 1.258 . S
O771 Mn756 2.162 . S
O771 C759 1.281 . S
O772 Mn756 2.297 . S
O772 C759 1.236 . S
N773 Mn757 2.282 . S
N773 C774 1.328 . S
N773 C778 1.318 . S
C774 N773 1.328 . S
C774 C775 1.457 . S
C774 H779 0.929 . S
C775 C774 1.457 . S
C775 C776 1.291 . S
C775 H788 0.931 . S
C776 C775 1.291 . S
C776 C777 1.373 . S
C776 H789 0.929 . S
C777 C776 1.373 . S
C777 C778 1.396 . S
C777 C784 1.403 . S
C778 C768 1.476 . S
C778 N773 1.318 . S
C778 C777 1.396 . S
H779 C774 0.929 . S
O780 Mn756 2.385 . S
O780 C758 1.234 . S
O781 Mn756 2.209 . S
O781 Mn757 2.215 . S
O781 C758 1.283 . S
O782 Mn756 2.094 . S
O782 C760 1.240 . S
O783 Mn757 2.117 . S
O783 C760 1.264 . S
C784 C777 1.403 . S
C784 C785 1.399 . S
C784 H790 0.929 . S
C785 C765 1.449 . S
C785 C784 1.399 . S
C785 H791 0.930 . S
H786 C766 0.931 . S
H787 C767 0.930 . S
H788 C775 0.931 . S
H789 C776 0.929 . S
H790 C784 0.929 . S
H791 C785 0.930 . S
Mn792 O797 2.095 . S
Mn792 O807 2.162 . S
Mn792 O808 2.297 . S
Mn792 O816 2.385 . S
Mn792 O817 2.209 . S
Mn792 O818 2.094 . S
Mn793 O798 2.121 . S
Mn793 N800 2.257 . S
Mn793 N809 2.282 . S
Mn793 O817 2.215 . S
Mn793 O819 2.117 . S
C794 O816 1.234 . S
C794 O817 1.283 . S
C795 O807 1.281 . S
C795 O808 1.236 . S
C796 O818 1.240 . S
C796 O819 1.264 . S
O797 Mn792 2.095 . S
O797 C806 1.250 . S
O798 Mn793 2.121 . S
O798 C806 1.258 . S
C799 N800 1.326 . S
C799 C803 1.460 . S
C799 H805 0.929 . S
N800 Mn793 2.257 . S
N800 C799 1.326 . S
N800 C804 1.362 . S
C801 C802 1.258 . S
C801 C804 1.431 . S
C801 C821 1.449 . S
C802 C801 1.258 . S
C802 C803 1.477 . S
C802 H822 0.931 . S
C803 C799 1.460 . S
C803 C802 1.477 . S
C803 H823 0.930 . S
C804 N800 1.362 . S
C804 C801 1.431 . S
C804 C814 1.476 . S
H805 C799 0.929 . S
C806 O797 1.250 . S
C806 O798 1.258 . S
O807 Mn792 2.162 . S
O807 C795 1.281 . S
O808 Mn792 2.297 . S
O808 C795 1.236 . S
N809 Mn793 2.282 . S
N809 C810 1.328 . S
N809 C814 1.318 . S
C810 N809 1.328 . S
C810 C811 1.457 . S
C810 H815 0.929 . S
C811 C810 1.457 . S
C811 C812 1.291 . S
C811 H824 0.931 . S
C812 C811 1.291 . S
C812 C813 1.373 . S
C812 H825 0.929 . S
C813 C812 1.373 . S
C813 C814 1.396 . S
C813 C820 1.403 . S
C814 C804 1.476 . S
C814 N809 1.318 . S
C814 C813 1.396 . S
H815 C810 0.929 . S
O816 Mn792 2.385 . S
O816 C794 1.234 . S
O817 Mn792 2.209 . S
O817 Mn793 2.215 . S
O817 C794 1.283 . S
O818 Mn792 2.094 . S
O818 C796 1.240 . S
O819 Mn793 2.117 . S
O819 C796 1.264 . S
C820 C813 1.403 . S
C820 C821 1.399 . S
C820 H826 0.929 . S
C821 C801 1.449 . S
C821 C820 1.399 . S
C821 H827 0.930 . S
H822 C802 0.931 . S
H823 C803 0.930 . S
H824 C811 0.931 . S
H825 C812 0.929 . S
H826 C820 0.929 . S
H827 C821 0.930 . S
Mn828 O833 2.095 . S
Mn828 O843 2.162 . S
Mn828 O844 2.297 . S
Mn828 O852 2.385 . S
Mn828 O853 2.209 . S
Mn828 O854 2.094 . S
Mn829 O834 2.121 . S
Mn829 N836 2.257 . S
Mn829 N845 2.282 . S
Mn829 O853 2.215 . S
Mn829 O855 2.117 . S
C830 O852 1.234 . S
C830 O853 1.283 . S
C831 O843 1.281 . S
C831 O844 1.236 . S
C832 O854 1.240 . S
C832 O855 1.264 . S
O833 Mn828 2.095 . S
O833 C842 1.250 . S
O834 Mn829 2.121 . S
O834 C842 1.258 . S
C835 N836 1.326 . S
C835 C839 1.460 . S
C835 H841 0.929 . S
N836 Mn829 2.257 . S
N836 C835 1.326 . S
N836 C840 1.362 . S
C837 C838 1.258 . S
C837 C840 1.431 . S
C837 C857 1.449 . S
C838 C837 1.258 . S
C838 C839 1.477 . S
C838 H858 0.931 . S
C839 C835 1.460 . S
C839 C838 1.477 . S
C839 H859 0.930 . S
C840 N836 1.362 . S
C840 C837 1.431 . S
C840 C850 1.476 . S
H841 C835 0.929 . S
C842 O833 1.250 . S
C842 O834 1.258 . S
O843 Mn828 2.162 . S
O843 C831 1.281 . S
O844 Mn828 2.297 . S
O844 C831 1.236 . S
N845 Mn829 2.282 . S
N845 C846 1.328 . S
N845 C850 1.318 . S
C846 N845 1.328 . S
C846 C847 1.457 . S
C846 H851 0.929 . S
C847 C846 1.457 . S
C847 C848 1.291 . S
C847 H860 0.931 . S
C848 C847 1.291 . S
C848 C849 1.373 . S
C848 H861 0.929 . S
C849 C848 1.373 . S
C849 C850 1.396 . S
C849 C856 1.403 . S
C850 C840 1.476 . S
C850 N845 1.318 . S
C850 C849 1.396 . S
H851 C846 0.929 . S
O852 Mn828 2.385 . S
O852 C830 1.234 . S
O853 Mn828 2.209 . S
O853 Mn829 2.215 . S
O853 C830 1.283 . S
O854 Mn828 2.094 . S
O854 C832 1.240 . S
O855 Mn829 2.117 . S
O855 C832 1.264 . S
C856 C849 1.403 . S
C856 C857 1.399 . S
C856 H862 0.929 . S
C857 C837 1.449 . S
C857 C856 1.399 . S
C857 H863 0.930 . S
H858 C838 0.931 . S
H859 C839 0.930 . S
H860 C847 0.931 . S
H861 C848 0.929 . S
H862 C856 0.929 . S
H863 C857 0.930 . S
Tb864 C866 2.809 . S
Tb864 O884 2.484 . S
Tb864 O885 2.440 . S
Tb864 O886 2.658 1_655 S
Tb864 O887 2.409 1_654 S
Tb864 O888 2.378 1_655 S
Tb864 O892 2.325 1_655 S
Tb864 O895 2.341 1_645 S
Tb865 C875 2.809 1_545 S
Tb865 O886 2.325 . S
Tb865 O889 2.341 . S
Tb865 O890 2.484 1_545 S
Tb865 O891 2.440 . S
Tb865 O892 2.658 . S
Tb865 O893 2.409 . S
Tb865 O894 2.378 1_545 S
C866 Tb864 2.809 . S
C866 C867 1.514 . S
C866 O884 1.248 . S
C866 O885 1.266 . S
C867 C866 1.514 . S
C867 C868 1.359 . S
C867 C872 1.348 1_554 S
C868 C867 1.359 . S
C868 C869 1.380 . S
C868 H896 0.929 . S
C869 C868 1.380 . S
C869 C870 1.347 . S
C869 H897 0.931 . S
C870 C869 1.347 . S
C870 C871 1.369 1_554 S
C871 C870 1.369 1_556 S
C871 C872 1.408 . S
C871 H898 0.930 . S
C872 C867 1.348 1_556 S
C872 C871 1.408 . S
C872 H899 0.930 . S
C873 O886 1.281 1_556 S
C873 O887 1.254 . S
C874 O888 1.236 . S
C874 O889 1.266 . S
C875 Tb865 2.809 1_565 S
C875 C876 1.514 . S
C875 O890 1.248 . S
C875 O891 1.266 1_565 S
C876 C875 1.514 . S
C876 C877 1.359 . S
C876 C881 1.348 . S
C877 C876 1.359 . S
C877 C878 1.380 . S
C877 H900 0.929 . S
C878 C877 1.380 . S
C878 C879 1.347 . S
C878 H901 0.931 . S
C879 C878 1.347 . S
C879 C880 1.369 . S
C880 C879 1.369 . S
C880 C881 1.408 . S
C880 H902 0.930 . S
C881 C876 1.348 . S
C881 C880 1.408 . S
C881 H903 0.930 . S
C882 O892 1.281 . S
C882 O893 1.254 . S
C883 O894 1.236 . S
C883 O895 1.266 . S
O884 Tb864 2.484 . S
O884 C866 1.248 . S
O885 Tb864 2.440 . S
O885 C866 1.266 . S
O886 Tb864 2.658 1_455 S
O886 Tb865 2.325 . S
O886 C873 1.281 1_554 S
O887 Tb864 2.409 1_456 S
O887 C873 1.254 . S
O888 Tb864 2.378 1_455 S
O888 C874 1.236 . S
O889 Tb865 2.341 . S
O889 C874 1.266 . S
O890 Tb865 2.484 1_565 S
O890 C875 1.248 . S
O891 Tb865 2.440 . S
O891 C875 1.266 1_545 S
O892 Tb864 2.325 1_455 S
O892 Tb865 2.658 . S
O892 C882 1.281 . S
O893 Tb865 2.409 . S
O893 C882 1.254 . S
O894 Tb865 2.378 1_565 S
O894 C883 1.236 . S
O895 Tb864 2.341 1_465 S
O895 C883 1.266 . S
H896 C868 0.929 . S
H897 C869 0.931 . S
H898 C871 0.930 . S
H899 C872 0.930 . S
H900 C877 0.929 . S
H901 C878 0.931 . S
H902 C880 0.930 . S
H903 C881 0.930 . S
Tb904 C906 2.809 . S
Tb904 O924 2.484 . S
Tb904 O925 2.440 . S
Tb904 O926 2.658 . S
Tb904 O927 2.409 . S
Tb904 O928 2.378 . S
Tb904 O932 2.325 . S
Tb904 O935 2.341 . S
Tb905 C915 2.809 . S
Tb905 O926 2.325 . S
Tb905 O929 2.341 . S
Tb905 O930 2.484 . S
Tb905 O931 2.440 . S
Tb905 O932 2.658 . S
Tb905 O933 2.409 . S
Tb905 O934 2.378 . S
C906 Tb904 2.809 . S
C906 C907 1.514 . S
C906 O924 1.248 . S
C906 O925 1.266 . S
C907 C906 1.514 . S
C907 C908 1.359 . S
C907 C912 1.348 . S
C908 C907 1.359 . S
C908 C909 1.380 . S
C908 H936 0.929 . S
C909 C908 1.380 . S
C909 C910 1.347 . S
C909 H937 0.931 . S
C910 C909 1.347 . S
C910 C911 1.369 . S
C911 C910 1.369 . S
C911 C912 1.408 . S
C911 H938 0.930 . S
C912 C907 1.348 . S
C912 C911 1.408 . S
C912 H939 0.930 . S
C913 O926 1.281 . S
C913 O927 1.254 . S
C914 O928 1.236 . S
C914 O929 1.266 . S
C915 Tb905 2.809 . S
C915 C916 1.514 . S
C915 O930 1.248 . S
C915 O931 1.266 . S
C916 C915 1.514 . S
C916 C917 1.359 . S
C916 C921 1.348 . S
C917 C916 1.359 . S
C917 C918 1.380 . S
C917 H940 0.929 . S
C918 C917 1.380 . S
C918 C919 1.347 . S
C918 H941 0.931 . S
C919 C918 1.347 . S
C919 C920 1.369 . S
C920 C919 1.369 . S
C920 C921 1.408 . S
C920 H942 0.930 . S
C921 C916 1.348 . S
C921 C920 1.408 . S
C921 H943 0.930 . S
C922 O932 1.281 . S
C922 O933 1.254 . S
C923 O934 1.236 . S
C923 O935 1.266 . S
O924 Tb904 2.484 . S
O924 C906 1.248 . S
O925 Tb904 2.440 . S
O925 C906 1.266 . S
O926 Tb904 2.658 . S
O926 Tb905 2.325 . S
O926 C913 1.281 . S
O927 Tb904 2.409 . S
O927 C913 1.254 . S
O928 Tb904 2.378 . S
O928 C914 1.236 . S
O929 Tb905 2.341 . S
O929 C914 1.266 . S
O930 Tb905 2.484 . S
O930 C915 1.248 . S
O931 Tb905 2.440 . S
O931 C915 1.266 . S
O932 Tb904 2.325 . S
O932 Tb905 2.658 . S
O932 C922 1.281 . S
O933 Tb905 2.409 . S
O933 C922 1.254 . S
O934 Tb905 2.378 . S
O934 C923 1.236 . S
O935 Tb904 2.341 . S
O935 C923 1.266 . S
H936 C908 0.929 . S
H937 C909 0.931 . S
H938 C911 0.930 . S
H939 C912 0.930 . S
H940 C917 0.929 . S
H941 C918 0.931 . S
H942 C920 0.930 . S
H943 C921 0.930 . S
Tb944 C946 2.809 . S
Tb944 O964 2.484 . S
Tb944 O965 2.440 . S
Tb944 O966 2.658 . S
Tb944 O967 2.409 . S
Tb944 O968 2.378 1_545 S
Tb944 O972 2.325 . S
Tb944 O975 2.341 . S
Tb945 C955 2.809 . S
Tb945 O966 2.325 . S
Tb945 O969 2.341 1_545 S
Tb945 O970 2.484 . S
Tb945 O971 2.440 . S
Tb945 O972 2.658 . S
Tb945 O973 2.409 . S
Tb945 O974 2.378 . S
C946 Tb944 2.809 . S
C946 C947 1.514 1_545 S
C946 O964 1.248 . S
C946 O965 1.266 . S
C947 C946 1.514 1_565 S
C947 C948 1.359 . S
C947 C952 1.348 . S
C948 C947 1.359 . S
C948 C949 1.380 . S
C948 H976 0.929 . S
C949 C948 1.380 . S
C949 C950 1.347 . S
C949 H977 0.931 . S
C950 C949 1.347 . S
C950 C951 1.369 . S
C951 C950 1.369 . S
C951 C952 1.408 . S
C951 H978 0.930 . S
C952 C947 1.348 . S
C952 C951 1.408 . S
C952 H979 0.930 . S
C953 O966 1.281 . S
C953 O967 1.254 . S
C954 O968 1.236 . S
C954 O969 1.266 . S
C955 Tb945 2.809 . S
C955 C956 1.514 . S
C955 O970 1.248 . S
C955 O971 1.266 . S
C956 C955 1.514 . S
C956 C957 1.359 . S
C956 C961 1.348 . S
C957 C956 1.359 . S
C957 C958 1.380 . S
C957 H980 0.929 . S
C958 C957 1.380 . S
C958 C959 1.347 . S
C958 H981 0.931 . S
C959 C958 1.347 . S
C959 C960 1.369 . S
C960 C959 1.369 . S
C960 C961 1.408 . S
C960 H982 0.930 . S
C961 C956 1.348 . S
C961 C960 1.408 . S
C961 H983 0.930 . S
C962 O972 1.281 . S
C962 O973 1.254 . S
C963 O974 1.236 . S
C963 O975 1.266 . S
O964 Tb944 2.484 . S
O964 C946 1.248 . S
O965 Tb944 2.440 . S
O965 C946 1.266 . S
O966 Tb944 2.658 . S
O966 Tb945 2.325 . S
O966 C953 1.281 . S
O967 Tb944 2.409 . S
O967 C953 1.254 . S
O968 Tb944 2.378 1_565 S
O968 C954 1.236 . S
O969 Tb945 2.341 1_565 S
O969 C954 1.266 . S
O970 Tb945 2.484 . S
O970 C955 1.248 . S
O971 Tb945 2.440 . S
O971 C955 1.266 . S
O972 Tb944 2.325 . S
O972 Tb945 2.658 . S
O972 C962 1.281 . S
O973 Tb945 2.409 . S
O973 C962 1.254 . S
O974 Tb945 2.378 . S
O974 C963 1.236 . S
O975 Tb944 2.341 . S
O975 C963 1.266 . S
H976 C948 0.929 . S
H977 C949 0.931 . S
H978 C951 0.930 . S
H979 C952 0.930 . S
H980 C957 0.929 . S
H981 C958 0.931 . S
H982 C960 0.930 . S
H983 C961 0.930 . S
Tb984 C986 2.809 . S
Tb984 O1004 2.484 . S
Tb984 O1005 2.440 . S
Tb984 O1006 2.658 . S
Tb984 O1007 2.409 . S
Tb984 O1008 2.378 . S
Tb984 O1012 2.325 . S
Tb984 O1015 2.341 . S
Tb985 C995 2.809 . S
Tb985 O1006 2.325 . S
Tb985 O1009 2.341 . S
Tb985 O1010 2.484 . S
Tb985 O1011 2.440 . S
Tb985 O1012 2.658 . S
Tb985 O1013 2.409 . S
Tb985 O1014 2.378 . S
C986 Tb984 2.809 . S
C986 C987 1.514 . S
C986 O1004 1.248 . S
C986 O1005 1.266 . S
C987 C986 1.514 . S
C987 C988 1.359 . S
C987 C992 1.348 . S
C988 C987 1.359 . S
C988 C989 1.380 . S
C988 H1016 0.929 . S
C989 C988 1.380 . S
C989 C990 1.347 . S
C989 H1017 0.931 . S
C990 C989 1.347 . S
C990 C991 1.369 . S
C991 C990 1.369 . S
C991 C992 1.408 . S
C991 H1018 0.930 . S
C992 C987 1.348 . S
C992 C991 1.408 . S
C992 H1019 0.930 . S
C993 O1006 1.281 . S
C993 O1007 1.254 . S
C994 O1008 1.236 . S
C994 O1009 1.266 . S
C995 Tb985 2.809 . S
C995 C996 1.514 . S
C995 O1010 1.248 . S
C995 O1011 1.266 . S
C996 C995 1.514 . S
C996 C997 1.359 . S
C996 C1001 1.348 . S
C997 C996 1.359 . S
C997 C998 1.380 . S
C997 H1020 0.929 . S
C998 C997 1.380 . S
C998 C999 1.347 . S
C998 H1021 0.931 . S
C999 C998 1.347 . S
C999 C1000 1.369 . S
C1000 C999 1.369 . S
C1000 C1001 1.408 . S
C1000 H1022 0.930 . S
C1001 C996 1.348 . S
C1001 C1000 1.408 . S
C1001 H1023 0.930 . S
C1002 O1012 1.281 . S
C1002 O1013 1.254 . S
C1003 O1014 1.236 . S
C1003 O1015 1.266 . S
O1004 Tb984 2.484 . S
O1004 C986 1.248 . S
O1005 Tb984 2.440 . S
O1005 C986 1.266 . S
O1006 Tb984 2.658 . S
O1006 Tb985 2.325 . S
O1006 C993 1.281 . S
O1007 Tb984 2.409 . S
O1007 C993 1.254 . S
O1008 Tb984 2.378 . S
O1008 C994 1.236 . S
O1009 Tb985 2.341 . S
O1009 C994 1.266 . S
O1010 Tb985 2.484 . S
O1010 C995 1.248 . S
O1011 Tb985 2.440 . S
O1011 C995 1.266 . S
O1012 Tb984 2.325 . S
O1012 Tb985 2.658 . S
O1012 C1002 1.281 . S
O1013 Tb985 2.409 . S
O1013 C1002 1.254 . S
O1014 Tb985 2.378 . S
O1014 C1003 1.236 . S
O1015 Tb984 2.341 . S
O1015 C1003 1.266 . S
H1016 C988 0.929 . S
H1017 C989 0.931 . S
H1018 C991 0.930 . S
H1019 C992 0.930 . S
H1020 C997 0.929 . S
H1021 C998 0.931 . S
H1022 C1000 0.930 . S
H1023 C1001 0.930 . S
Tb1024 C1026 2.809 . S
Tb1024 O1044 2.484 . S
Tb1024 O1045 2.463 . S
Tb1024 O1046 2.658 . S
Tb1024 O1047 2.409 1_455 S
Tb1024 O1048 2.378 . S
Tb1024 O1052 2.325 . S
Tb1024 O1055 2.341 . S
Tb1025 C1035 2.809 . S
Tb1025 O1046 2.325 1_565 S
Tb1025 O1049 2.341 1_565 S
Tb1025 O1050 2.484 . S
Tb1025 O1051 2.440 . S
Tb1025 O1052 2.658 1_565 S
Tb1025 O1053 2.409 1_565 S
Tb1025 O1054 2.378 1_565 S
C1026 Tb1024 2.809 . S
C1026 C1027 1.514 . S
C1026 O1044 1.248 . S
C1026 O1045 1.290 . S
C1027 C1026 1.514 . S
C1027 C1028 1.359 . S
C1027 C1032 1.348 1_455 S
C1028 C1027 1.359 . S
C1028 C1029 1.380 . S
C1028 H1056 0.929 . S
C1029 C1028 1.380 . S
C1029 C1030 1.331 1_455 S
C1029 H1057 0.931 . S
C1030 C1029 1.331 1_655 S
C1030 C1031 1.380 . S
C1031 C1030 1.380 . S
C1031 C1032 1.408 . S
C1031 H1058 0.930 . S
C1032 C1027 1.348 1_655 S
C1032 C1031 1.408 . S
C1032 H1059 0.930 . S
C1033 O1046 1.281 1_655 S
C1033 O1047 1.254 . S
C1034 O1048 1.236 . S
C1034 O1049 1.266 . S
C1035 Tb1025 2.809 . S
C1035 C1036 1.514 . S
C1035 O1050 1.248 . S
C1035 O1051 1.266 . S
C1036 C1035 1.514 . S
C1036 C1037 1.359 . S
C1036 C1041 1.348 . S
C1037 C1036 1.359 . S
C1037 C1038 1.380 . S
C1037 H1060 0.929 . S
C1038 C1037 1.380 . S
C1038 C1039 1.347 . S
C1038 H1061 0.931 . S
C1039 C1038 1.347 . S
C1039 C1040 1.369 . S
C1040 C1039 1.369 . S
C1040 C1041 1.408 . S
C1040 H1062 0.930 . S
C1041 C1036 1.348 . S
C1041 C1040 1.408 . S
C1041 H1063 0.930 . S
C1042 O1052 1.281 . S
C1042 O1053 1.254 . S
C1043 O1054 1.236 . S
C1043 O1055 1.266 . S
O1044 Tb1024 2.484 . S
O1044 C1026 1.248 . S
O1045 Tb1024 2.463 . S
O1045 C1026 1.290 . S
O1046 Tb1024 2.658 . S
O1046 Tb1025 2.325 1_545 S
O1046 C1033 1.281 1_455 S
O1047 Tb1024 2.409 1_655 S
O1047 C1033 1.254 . S
O1048 Tb1024 2.378 . S
O1048 C1034 1.236 . S
O1049 Tb1025 2.341 1_545 S
O1049 C1034 1.266 . S
O1050 Tb1025 2.484 . S
O1050 C1035 1.248 . S
O1051 Tb1025 2.440 . S
O1051 C1035 1.266 . S
O1052 Tb1024 2.325 . S
O1052 Tb1025 2.658 1_545 S
O1052 C1042 1.281 . S
O1053 Tb1025 2.409 1_545 S
O1053 C1042 1.254 . S
O1054 Tb1025 2.378 1_545 S
O1054 C1043 1.236 . S
O1055 Tb1024 2.341 . S
O1055 C1043 1.266 . S
H1056 C1028 0.929 . S
H1057 C1029 0.931 . S
H1058 C1031 0.930 . S
H1059 C1032 0.930 . S
H1060 C1037 0.929 . S
H1061 C1038 0.931 . S
H1062 C1040 0.930 . S
H1063 C1041 0.930 . S
Tb1064 C1066 2.809 . S
Tb1064 O1084 2.484 . S
Tb1064 O1085 2.440 . S
Tb1064 O1086 2.658 . S
Tb1064 O1087 2.409 . S
Tb1064 O1088 2.378 . S
Tb1064 O1092 2.325 . S
Tb1064 O1095 2.341 . S
Tb1065 C1075 2.809 . S
Tb1065 O1086 2.325 . S
Tb1065 O1089 2.341 . S
Tb1065 O1090 2.484 . S
Tb1065 O1091 2.440 . S
Tb1065 O1092 2.658 . S
Tb1065 O1093 2.409 . S
Tb1065 O1094 2.378 . S
C1066 Tb1064 2.809 . S
C1066 C1067 1.514 . S
C1066 O1084 1.248 . S
C1066 O1085 1.266 . S
C1067 C1066 1.514 . S
C1067 C1068 1.359 . S
C1067 C1072 1.348 . S
C1068 C1067 1.359 . S
C1068 C1069 1.380 . S
C1068 H1096 0.929 . S
C1069 C1068 1.380 . S
C1069 C1070 1.347 . S
C1069 H1097 0.931 . S
C1070 C1069 1.347 . S
C1070 C1071 1.369 . S
C1071 C1070 1.369 . S
C1071 C1072 1.408 . S
C1071 H1098 0.930 . S
C1072 C1067 1.348 . S
C1072 C1071 1.408 . S
C1072 H1099 0.930 . S
C1073 O1086 1.281 . S
C1073 O1087 1.254 . S
C1074 O1088 1.236 . S
C1074 O1089 1.266 . S
C1075 Tb1065 2.809 . S
C1075 C1076 1.514 . S
C1075 O1090 1.248 . S
C1075 O1091 1.266 . S
C1076 C1075 1.514 . S
C1076 C1077 1.359 . S
C1076 C1081 1.348 . S
C1077 C1076 1.359 . S
C1077 C1078 1.380 . S
C1077 H1100 0.929 . S
C1078 C1077 1.380 . S
C1078 C1079 1.347 . S
C1078 H1101 0.931 . S
C1079 C1078 1.347 . S
C1079 C1080 1.369 . S
C1080 C1079 1.369 . S
C1080 C1081 1.408 . S
C1080 H1102 0.930 . S
C1081 C1076 1.348 . S
C1081 C1080 1.408 . S
C1081 H1103 0.930 . S
C1082 O1092 1.281 . S
C1082 O1093 1.254 . S
C1083 O1094 1.236 . S
C1083 O1095 1.266 . S
O1084 Tb1064 2.484 . S
O1084 C1066 1.248 . S
O1085 Tb1064 2.440 . S
O1085 C1066 1.266 . S
O1086 Tb1064 2.658 . S
O1086 Tb1065 2.325 . S
O1086 C1073 1.281 . S
O1087 Tb1064 2.409 . S
O1087 C1073 1.254 . S
O1088 Tb1064 2.378 . S
O1088 C1074 1.236 . S
O1089 Tb1065 2.341 . S
O1089 C1074 1.266 . S
O1090 Tb1065 2.484 . S
O1090 C1075 1.248 . S
O1091 Tb1065 2.440 . S
O1091 C1075 1.266 . S
O1092 Tb1064 2.325 . S
O1092 Tb1065 2.658 . S
O1092 C1082 1.281 . S
O1093 Tb1065 2.409 . S
O1093 C1082 1.254 . S
O1094 Tb1065 2.378 . S
O1094 C1083 1.236 . S
O1095 Tb1064 2.341 . S
O1095 C1083 1.266 . S
H1096 C1068 0.929 . S
H1097 C1069 0.931 . S
H1098 C1071 0.930 . S
H1099 C1072 0.930 . S
H1100 C1077 0.929 . S
H1101 C1078 0.931 . S
H1102 C1080 0.930 . S
H1103 C1081 0.930 . S
Tb1104 C1106 2.809 . S
Tb1104 O1124 2.484 1_545 S
Tb1104 O1125 2.440 . S
Tb1104 O1126 2.658 . S
Tb1104 O1127 2.409 . S
Tb1104 O1128 2.378 . S
Tb1104 O1132 2.366 . S
Tb1104 O1135 2.341 . S
Tb1105 C1115 2.809 . S
Tb1105 O1126 2.325 . S
Tb1105 O1129 2.341 . S
Tb1105 O1130 2.484 . S
Tb1105 O1131 2.440 . S
Tb1105 O1132 2.675 . S
Tb1105 O1133 2.409 1_545 S
Tb1105 O1134 2.378 . S
C1106 Tb1104 2.809 . S
C1106 C1107 1.514 1_545 S
C1106 O1124 1.248 1_545 S
C1106 O1125 1.266 . S
C1107 C1106 1.514 1_565 S
C1107 C1108 1.359 . S
C1107 C1112 1.348 1_565 S
C1108 C1107 1.359 . S
C1108 C1109 1.380 . S
C1108 H1136 0.929 . S
C1109 C1108 1.380 . S
C1109 C1110 1.347 . S
C1109 H1137 0.931 . S
C1110 C1109 1.347 . S
C1110 C1111 1.369 1_565 S
C1111 C1110 1.369 1_545 S
C1111 C1112 1.408 . S
C1111 H1138 0.930 . S
C1112 C1107 1.348 1_545 S
C1112 C1111 1.408 . S
C1112 H1139 0.930 . S
C1113 O1126 1.281 . S
C1113 O1127 1.254 . S
C1114 O1128 1.236 . S
C1114 O1129 1.266 . S
C1115 Tb1105 2.809 . S
C1115 C1116 1.514 . S
C1115 O1130 1.248 . S
C1115 O1131 1.266 . S
C1116 C1115 1.514 . S
C1116 C1117 1.359 . S
C1116 C1121 1.348 . S
C1117 C1116 1.359 . S
C1117 C1118 1.380 . S
C1117 H1140 0.929 . S
C1118 C1117 1.380 . S
C1118 C1119 1.347 . S
C1118 H1141 0.931 . S
C1119 C1118 1.347 . S
C1119 C1120 1.369 . S
C1120 C1119 1.369 . S
C1120 C1121 1.408 . S
C1120 H1142 0.930 . S
C1121 C1116 1.348 . S
C1121 C1120 1.408 . S
C1121 H1143 0.930 . S
C1122 O1132 1.239 1_565 S
C1122 O1133 1.254 . S
C1123 O1134 1.236 . S
C1123 O1135 1.266 . S
O1124 Tb1104 2.484 1_565 S
O1124 C1106 1.248 1_565 S
O1125 Tb1104 2.440 . S
O1125 C1106 1.266 . S
O1126 Tb1104 2.658 . S
O1126 Tb1105 2.325 . S
O1126 C1113 1.281 . S
O1127 Tb1104 2.409 . S
O1127 C1113 1.254 . S
O1128 Tb1104 2.378 . S
O1128 C1114 1.236 . S
O1129 Tb1105 2.341 . S
O1129 C1114 1.266 . S
O1130 Tb1105 2.484 . S
O1130 C1115 1.248 . S
O1131 Tb1105 2.440 . S
O1131 C1115 1.266 . S
O1132 Tb1104 2.366 . S
O1132 Tb1105 2.675 . S
O1132 C1122 1.239 1_545 S
O1133 Tb1105 2.409 1_565 S
O1133 C1122 1.254 . S
O1134 Tb1105 2.378 . S
O1134 C1123 1.236 . S
O1135 Tb1104 2.341 . S
O1135 C1123 1.266 . S
H1136 C1108 0.929 . S
H1137 C1109 0.931 . S
H1138 C1111 0.930 . S
H1139 C1112 0.930 . S
H1140 C1117 0.929 . S
H1141 C1118 0.931 . S
H1142 C1120 0.930 . S
H1143 C1121 0.930 . S
Tb1144 C1146 2.809 . S
Tb1144 O1164 2.484 . S
Tb1144 O1165 2.440 . S
Tb1144 O1166 2.658 . S
Tb1144 O1167 2.409 . S
Tb1144 O1168 2.378 . S
Tb1144 O1172 2.325 . S
Tb1144 O1175 2.341 . S
Tb1145 C1155 2.809 . S
Tb1145 O1166 2.325 . S
Tb1145 O1169 2.341 . S
Tb1145 O1170 2.484 . S
Tb1145 O1171 2.440 . S
Tb1145 O1172 2.658 . S
Tb1145 O1173 2.409 . S
Tb1145 O1174 2.378 . S
C1146 Tb1144 2.809 . S
C1146 C1147 1.514 . S
C1146 O1164 1.248 . S
C1146 O1165 1.266 . S
C1147 C1146 1.514 . S
C1147 C1148 1.359 . S
C1147 C1152 1.348 . S
C1148 C1147 1.359 . S
C1148 C1149 1.380 . S
C1148 H1176 0.929 . S
C1149 C1148 1.380 . S
C1149 C1150 1.347 . S
C1149 H1177 0.931 . S
C1150 C1149 1.347 . S
C1150 C1151 1.369 . S
C1151 C1150 1.369 . S
C1151 C1152 1.408 . S
C1151 H1178 0.930 . S
C1152 C1147 1.348 . S
C1152 C1151 1.408 . S
C1152 H1179 0.930 . S
C1153 O1166 1.281 . S
C1153 O1167 1.254 . S
C1154 O1168 1.236 . S
C1154 O1169 1.266 . S
C1155 Tb1145 2.809 . S
C1155 C1156 1.514 . S
C1155 O1170 1.248 . S
C1155 O1171 1.266 . S
C1156 C1155 1.514 . S
C1156 C1157 1.359 . S
C1156 C1161 1.348 . S
C1157 C1156 1.359 . S
C1157 C1158 1.380 . S
C1157 H1180 0.929 . S
C1158 C1157 1.380 . S
C1158 C1159 1.347 . S
C1158 H1181 0.931 . S
C1159 C1158 1.347 . S
C1159 C1160 1.369 . S
C1160 C1159 1.369 . S
C1160 C1161 1.408 . S
C1160 H1182 0.930 . S
C1161 C1156 1.348 . S
C1161 C1160 1.408 . S
C1161 H1183 0.930 . S
C1162 O1172 1.281 . S
C1162 O1173 1.254 . S
C1163 O1174 1.236 . S
C1163 O1175 1.266 . S
O1164 Tb1144 2.484 . S
O1164 C1146 1.248 . S
O1165 Tb1144 2.440 . S
O1165 C1146 1.266 . S
O1166 Tb1144 2.658 . S
O1166 Tb1145 2.325 . S
O1166 C1153 1.281 . S
O1167 Tb1144 2.409 . S
O1167 C1153 1.254 . S
O1168 Tb1144 2.378 . S
O1168 C1154 1.236 . S
O1169 Tb1145 2.341 . S
O1169 C1154 1.266 . S
O1170 Tb1145 2.484 . S
O1170 C1155 1.248 . S
O1171 Tb1145 2.440 . S
O1171 C1155 1.266 . S
O1172 Tb1144 2.325 . S
O1172 Tb1145 2.658 . S
O1172 C1162 1.281 . S
O1173 Tb1145 2.409 . S
O1173 C1162 1.254 . S
O1174 Tb1145 2.378 . S
O1174 C1163 1.236 . S
O1175 Tb1144 2.341 . S
O1175 C1163 1.266 . S
H1176 C1148 0.929 . S
H1177 C1149 0.931 . S
H1178 C1151 0.930 . S
H1179 C1152 0.930 . S
H1180 C1157 0.929 . S
H1181 C1158 0.931 . S
H1182 C1160 0.930 . S
H1183 C1161 0.930 . S
Tb1184 C1186 2.809 . S
Tb1184 O1204 2.484 . S
Tb1184 O1205 2.440 . S
Tb1184 O1206 2.658 . S
Tb1184 O1207 2.409 . S
Tb1184 O1208 2.378 . S
Tb1184 O1212 2.325 . S
Tb1184 O1215 2.341 . S
Tb1185 C1195 2.809 . S
Tb1185 O1206 2.325 . S
Tb1185 O1209 2.339 . S
Tb1185 O1210 2.484 . S
Tb1185 O1211 2.440 . S
Tb1185 O1212 2.658 . S
Tb1185 O1213 2.409 . S
Tb1185 O1214 2.378 . S
C1186 Tb1184 2.809 . S
C1186 C1187 1.514 . S
C1186 O1204 1.248 . S
C1186 O1205 1.266 . S
C1187 C1186 1.514 . S
C1187 C1188 1.359 1_554 S
C1187 C1192 1.348 . S
C1188 C1187 1.359 1_556 S
C1188 C1189 1.380 . S
C1188 H1216 0.929 . S
C1189 C1188 1.380 . S
C1189 C1190 1.347 . S
C1189 H1217 0.931 . S
C1190 C1189 1.347 . S
C1190 C1191 1.369 . S
C1191 C1190 1.369 . S
C1191 C1192 1.408 1_556 S
C1191 H1218 0.930 . S
C1192 C1187 1.348 . S
C1192 C1191 1.408 1_554 S
C1192 H1219 0.930 . S
C1193 O1206 1.281 . S
C1193 O1207 1.254 . S
C1194 O1208 1.236 1_556 S
C1194 O1209 1.267 1_556 S
C1195 Tb1185 2.809 . S
C1195 C1196 1.514 . S
C1195 O1210 1.248 . S
C1195 O1211 1.266 . S
C1196 C1195 1.514 . S
C1196 C1197 1.359 . S
C1196 C1201 1.348 . S
C1197 C1196 1.359 . S
C1197 C1198 1.380 . S
C1197 H1220 0.929 . S
C1198 C1197 1.380 . S
C1198 C1199 1.347 . S
C1198 H1221 0.931 . S
C1199 C1198 1.347 . S
C1199 C1200 1.369 . S
C1200 C1199 1.369 . S
C1200 C1201 1.408 . S
C1200 H1222 0.930 . S
C1201 C1196 1.348 . S
C1201 C1200 1.408 . S
C1201 H1223 0.930 . S
C1202 O1212 1.281 . S
C1202 O1213 1.254 . S
C1203 O1214 1.236 . S
C1203 O1215 1.266 . S
O1204 Tb1184 2.484 . S
O1204 C1186 1.248 . S
O1205 Tb1184 2.440 . S
O1205 C1186 1.266 . S
O1206 Tb1184 2.658 . S
O1206 Tb1185 2.325 . S
O1206 C1193 1.281 . S
O1207 Tb1184 2.409 . S
O1207 C1193 1.254 . S
O1208 Tb1184 2.378 . S
O1208 C1194 1.236 1_554 S
O1209 Tb1185 2.339 . S
O1209 C1194 1.267 1_554 S
O1210 Tb1185 2.484 . S
O1210 C1195 1.248 . S
O1211 Tb1185 2.440 . S
O1211 C1195 1.266 . S
O1212 Tb1184 2.325 . S
O1212 Tb1185 2.658 . S
O1212 C1202 1.281 . S
O1213 Tb1185 2.409 . S
O1213 C1202 1.254 . S
O1214 Tb1185 2.378 . S
O1214 C1203 1.236 . S
O1215 Tb1184 2.341 . S
O1215 C1203 1.266 . S
H1216 C1188 0.929 . S
H1217 C1189 0.931 . S
H1218 C1191 0.930 . S
H1219 C1192 0.930 . S
H1220 C1197 0.929 . S
H1221 C1198 0.931 . S
H1222 C1200 0.930 . S
H1223 C1201 0.930 . S
Tb1224 C1226 2.809 . S
Tb1224 O1244 2.484 . S
Tb1224 O1245 2.440 . S
Tb1224 O1246 2.658 . S
Tb1224 O1247 2.409 . S
Tb1224 O1248 2.378 . S
Tb1224 O1252 2.325 . S
Tb1224 O1255 2.341 . S
Tb1225 C1235 2.809 . S
Tb1225 O1246 2.325 . S
Tb1225 O1249 2.341 . S
Tb1225 O1250 2.484 . S
Tb1225 O1251 2.440 . S
Tb1225 O1252 2.658 . S
Tb1225 O1253 2.409 . S
Tb1225 O1254 2.378 . S
C1226 Tb1224 2.809 . S
C1226 C1227 1.514 . S
C1226 O1244 1.248 . S
C1226 O1245 1.266 . S
C1227 C1226 1.514 . S
C1227 C1228 1.359 . S
C1227 C1232 1.348 . S
C1228 C1227 1.359 . S
C1228 C1229 1.380 . S
C1228 H1256 0.929 . S
C1229 C1228 1.380 . S
C1229 C1230 1.347 . S
C1229 H1257 0.931 . S
C1230 C1229 1.347 . S
C1230 C1231 1.369 . S
C1231 C1230 1.369 . S
C1231 C1232 1.408 . S
C1231 H1258 0.930 . S
C1232 C1227 1.348 . S
C1232 C1231 1.408 . S
C1232 H1259 0.930 . S
C1233 O1246 1.281 . S
C1233 O1247 1.254 . S
C1234 O1248 1.236 . S
C1234 O1249 1.266 . S
C1235 Tb1225 2.809 . S
C1235 C1236 1.514 . S
C1235 O1250 1.248 . S
C1235 O1251 1.266 . S
C1236 C1235 1.514 . S
C1236 C1237 1.359 . S
C1236 C1241 1.348 . S
C1237 C1236 1.359 . S
C1237 C1238 1.380 . S
C1237 H1260 0.929 . S
C1238 C1237 1.380 . S
C1238 C1239 1.347 . S
C1238 H1261 0.931 . S
C1239 C1238 1.347 . S
C1239 C1240 1.369 . S
C1240 C1239 1.369 . S
C1240 C1241 1.408 . S
C1240 H1262 0.930 . S
C1241 C1236 1.348 . S
C1241 C1240 1.408 . S
C1241 H1263 0.930 . S
C1242 O1252 1.281 . S
C1242 O1253 1.254 . S
C1243 O1254 1.236 . S
C1243 O1255 1.266 . S
O1244 Tb1224 2.484 . S
O1244 C1226 1.248 . S
O1245 Tb1224 2.440 . S
O1245 C1226 1.266 . S
O1246 Tb1224 2.658 . S
O1246 Tb1225 2.325 . S
O1246 C1233 1.281 . S
O1247 Tb1224 2.409 . S
O1247 C1233 1.254 . S
O1248 Tb1224 2.378 . S
O1248 C1234 1.236 . S
O1249 Tb1225 2.341 . S
O1249 C1234 1.266 . S
O1250 Tb1225 2.484 . S
O1250 C1235 1.248 . S
O1251 Tb1225 2.440 . S
O1251 C1235 1.266 . S
O1252 Tb1224 2.325 . S
O1252 Tb1225 2.658 . S
O1252 C1242 1.281 . S
O1253 Tb1225 2.409 . S
O1253 C1242 1.254 . S
O1254 Tb1225 2.378 . S
O1254 C1243 1.236 . S
O1255 Tb1224 2.341 . S
O1255 C1243 1.266 . S
H1256 C1228 0.929 . S
H1257 C1229 0.931 . S
H1258 C1231 0.930 . S
H1259 C1232 0.930 . S
H1260 C1237 0.929 . S
H1261 C1238 0.931 . S
H1262 C1240 0.930 . S
H1263 C1241 0.930 . S
Tb1264 C1266 2.809 1_455 S
Tb1264 O1284 2.484 1_455 S
Tb1264 O1285 2.440 1_455 S
Tb1264 O1286 2.658 . S
Tb1264 O1287 2.409 . S
Tb1264 O1288 2.378 . S
Tb1264 O1292 2.325 . S
Tb1264 O1295 2.341 . S
Tb1265 C1275 2.809 . S
Tb1265 O1286 2.325 . S
Tb1265 O1289 2.341 . S
Tb1265 O1290 2.484 . S
Tb1265 O1291 2.440 . S
Tb1265 O1292 2.658 . S
Tb1265 O1293 2.409 . S
Tb1265 O1294 2.378 . S
C1266 Tb1264 2.809 1_655 S
C1266 C1267 1.514 . S
C1266 O1284 1.248 . S
C1266 O1285 1.266 . S
C1267 C1266 1.514 . S
C1267 C1268 1.359 . S
C1267 C1272 1.348 . S
C1268 C1267 1.359 . S
C1268 C1269 1.380 . S
C1268 H1296 0.929 . S
C1269 C1268 1.380 . S
C1269 C1270 1.347 . S
C1269 H1297 0.931 . S
C1270 C1269 1.347 . S
C1270 C1271 1.369 . S
C1271 C1270 1.369 . S
C1271 C1272 1.408 . S
C1271 H1298 0.930 . S
C1272 C1267 1.348 . S
C1272 C1271 1.408 . S
C1272 H1299 0.930 . S
C1273 O1286 1.281 . S
C1273 O1287 1.254 . S
C1274 O1288 1.236 . S
C1274 O1289 1.266 . S
C1275 Tb1265 2.809 . S
C1275 C1276 1.514 . S
C1275 O1290 1.248 . S
C1275 O1291 1.266 . S
C1276 C1275 1.514 . S
C1276 C1277 1.359 . S
C1276 C1281 1.348 . S
C1277 C1276 1.359 . S
C1277 C1278 1.380 . S
C1277 H1300 0.929 . S
C1278 C1277 1.380 . S
C1278 C1279 1.347 . S
C1278 H1301 0.931 . S
C1279 C1278 1.347 . S
C1279 C1280 1.369 . S
C1280 C1279 1.369 . S
C1280 C1281 1.408 . S
C1280 H1302 0.930 . S
C1281 C1276 1.348 . S
C1281 C1280 1.408 . S
C1281 H1303 0.930 . S
C1282 O1292 1.281 . S
C1282 O1293 1.254 . S
C1283 O1294 1.236 . S
C1283 O1295 1.266 . S
O1284 Tb1264 2.484 1_655 S
O1284 C1266 1.248 . S
O1285 Tb1264 2.440 1_655 S
O1285 C1266 1.266 . S
O1286 Tb1264 2.658 . S
O1286 Tb1265 2.325 . S
O1286 C1273 1.281 . S
O1287 Tb1264 2.409 . S
O1287 C1273 1.254 . S
O1288 Tb1264 2.378 . S
O1288 C1274 1.236 . S
O1289 Tb1265 2.341 . S
O1289 C1274 1.266 . S
O1290 Tb1265 2.484 . S
O1290 C1275 1.248 . S
O1291 Tb1265 2.440 . S
O1291 C1275 1.266 . S
O1292 Tb1264 2.325 . S
O1292 Tb1265 2.658 . S
O1292 C1282 1.281 . S
O1293 Tb1265 2.409 . S
O1293 C1282 1.254 . S
O1294 Tb1265 2.378 . S
O1294 C1283 1.236 . S
O1295 Tb1264 2.341 . S
O1295 C1283 1.266 . S
H1296 C1268 0.929 . S
H1297 C1269 0.931 . S
H1298 C1271 0.930 . S
H1299 C1272 0.930 . S
H1300 C1277 0.929 . S
H1301 C1278 0.931 . S
H1302 C1280 0.930 . S
H1303 C1281 0.930 . S
Tb1304 C1306 2.809 . S
Tb1304 O1324 2.484 . S
Tb1304 O1325 2.440 . S
Tb1304 O1326 2.658 . S
Tb1304 O1327 2.409 . S
Tb1304 O1328 2.378 . S
Tb1304 O1332 2.325 . S
Tb1304 O1335 2.341 . S
Tb1305 C1315 2.809 . S
Tb1305 O1326 2.325 . S
Tb1305 O1329 2.341 . S
Tb1305 O1330 2.484 . S
Tb1305 O1331 2.440 . S
Tb1305 O1332 2.658 . S
Tb1305 O1333 2.409 . S
Tb1305 O1334 2.378 . S
C1306 Tb1304 2.809 . S
C1306 C1307 1.514 . S
C1306 O1324 1.248 . S
C1306 O1325 1.266 . S
C1307 C1306 1.514 . S
C1307 C1308 1.359 . S
C1307 C1312 1.348 . S
C1308 C1307 1.359 . S
C1308 C1309 1.380 . S
C1308 H1336 0.929 . S
C1309 C1308 1.380 . S
C1309 C1310 1.347 . S
C1309 H1337 0.931 . S
C1310 C1309 1.347 . S
C1310 C1311 1.369 . S
C1311 C1310 1.369 . S
C1311 C1312 1.408 . S
C1311 H1338 0.930 . S
C1312 C1307 1.348 . S
C1312 C1311 1.408 . S
C1312 H1339 0.930 . S
C1313 O1326 1.281 . S
C1313 O1327 1.254 . S
C1314 O1328 1.236 . S
C1314 O1329 1.266 . S
C1315 Tb1305 2.809 . S
C1315 C1316 1.514 . S
C1315 O1330 1.248 . S
C1315 O1331 1.266 . S
C1316 C1315 1.514 . S
C1316 C1317 1.359 . S
C1316 C1321 1.348 . S
C1317 C1316 1.359 . S
C1317 C1318 1.380 . S
C1317 H1340 0.929 . S
C1318 C1317 1.380 . S
C1318 C1319 1.347 . S
C1318 H1341 0.931 . S
C1319 C1318 1.347 . S
C1319 C1320 1.369 . S
C1320 C1319 1.369 . S
C1320 C1321 1.408 . S
C1320 H1342 0.930 . S
C1321 C1316 1.348 . S
C1321 C1320 1.408 . S
C1321 H1343 0.930 . S
C1322 O1332 1.281 . S
C1322 O1333 1.254 . S
C1323 O1334 1.236 . S
C1323 O1335 1.266 . S
O1324 Tb1304 2.484 . S
O1324 C1306 1.248 . S
O1325 Tb1304 2.440 . S
O1325 C1306 1.266 . S
O1326 Tb1304 2.658 . S
O1326 Tb1305 2.325 . S
O1326 C1313 1.281 . S
O1327 Tb1304 2.409 . S
O1327 C1313 1.254 . S
O1328 Tb1304 2.378 . S
O1328 C1314 1.236 . S
O1329 Tb1305 2.341 . S
O1329 C1314 1.266 . S
O1330 Tb1305 2.484 . S
O1330 C1315 1.248 . S
O1331 Tb1305 2.440 . S
O1331 C1315 1.266 . S
O1332 Tb1304 2.325 . S
O1332 Tb1305 2.658 . S
O1332 C1322 1.281 . S
O1333 Tb1305 2.409 . S
O1333 C1322 1.254 . S
O1334 Tb1305 2.378 . S
O1334 C1323 1.236 . S
O1335 Tb1304 2.341 . S
O1335 C1323 1.266 . S
H1336 C1308 0.929 . S
H1337 C1309 0.931 . S
H1338 C1311 0.930 . S
H1339 C1312 0.930 . S
H1340 C1317 0.929 . S
H1341 C1318 0.931 . S
H1342 C1320 0.930 . S
H1343 C1321 0.930 . S
Tb1344 C1346 2.809 . S
Tb1344 O1364 2.484 . S
Tb1344 O1365 2.440 . S
Tb1344 O1366 2.658 . S
Tb1344 O1367 2.409 . S
Tb1344 O1368 2.378 . S
Tb1344 O1372 2.325 . S
Tb1344 O1375 2.341 . S
Tb1345 C1355 2.809 . S
Tb1345 O1366 2.325 . S
Tb1345 O1369 2.341 . S
Tb1345 O1370 2.484 . S
Tb1345 O1371 2.440 . S
Tb1345 O1372 2.658 . S
Tb1345 O1373 2.409 . S
Tb1345 O1374 2.378 . S
C1346 Tb1344 2.809 . S
C1346 C1347 1.514 . S
C1346 O1364 1.248 . S
C1346 O1365 1.266 . S
C1347 C1346 1.514 . S
C1347 C1348 1.359 . S
C1347 C1352 1.348 . S
C1348 C1347 1.359 . S
C1348 C1349 1.380 . S
C1348 H1376 0.929 . S
C1349 C1348 1.380 . S
C1349 C1350 1.347 . S
C1349 H1377 0.931 . S
C1350 C1349 1.347 . S
C1350 C1351 1.369 . S
C1351 C1350 1.369 . S
C1351 C1352 1.408 . S
C1351 H1378 0.930 . S
C1352 C1347 1.348 . S
C1352 C1351 1.408 . S
C1352 H1379 0.930 . S
C1353 O1366 1.281 . S
C1353 O1367 1.254 . S
C1354 O1368 1.236 . S
C1354 O1369 1.266 . S
C1355 Tb1345 2.809 . S
C1355 C1356 1.514 . S
C1355 O1370 1.248 . S
C1355 O1371 1.266 . S
C1356 C1355 1.514 . S
C1356 C1357 1.359 . S
C1356 C1361 1.348 . S
C1357 C1356 1.359 . S
C1357 C1358 1.380 . S
C1357 H1380 0.929 . S
C1358 C1357 1.380 . S
C1358 C1359 1.347 . S
C1358 H1381 0.931 . S
C1359 C1358 1.347 . S
C1359 C1360 1.369 . S
C1360 C1359 1.369 . S
C1360 C1361 1.408 . S
C1360 H1382 0.930 . S
C1361 C1356 1.348 . S
C1361 C1360 1.408 . S
C1361 H1383 0.930 . S
C1362 O1372 1.281 . S
C1362 O1373 1.254 . S
C1363 O1374 1.236 . S
C1363 O1375 1.266 . S
O1364 Tb1344 2.484 . S
O1364 C1346 1.248 . S
O1365 Tb1344 2.440 . S
O1365 C1346 1.266 . S
O1366 Tb1344 2.658 . S
O1366 Tb1345 2.325 . S
O1366 C1353 1.281 . S
O1367 Tb1344 2.409 . S
O1367 C1353 1.254 . S
O1368 Tb1344 2.378 . S
O1368 C1354 1.236 . S
O1369 Tb1345 2.341 . S
O1369 C1354 1.266 . S
O1370 Tb1345 2.484 . S
O1370 C1355 1.248 . S
O1371 Tb1345 2.440 . S
O1371 C1355 1.266 . S
O1372 Tb1344 2.325 . S
O1372 Tb1345 2.658 . S
O1372 C1362 1.281 . S
O1373 Tb1345 2.409 . S
O1373 C1362 1.254 . S
O1374 Tb1345 2.378 . S
O1374 C1363 1.236 . S
O1375 Tb1344 2.341 . S
O1375 C1363 1.266 . S
H1376 C1348 0.929 . S
H1377 C1349 0.931 . S
H1378 C1351 0.930 . S
H1379 C1352 0.930 . S
H1380 C1357 0.929 . S
H1381 C1358 0.931 . S
H1382 C1360 0.930 . S
H1383 C1361 0.930 . S
Tb1384 C1386 2.809 . S
Tb1384 O1404 2.484 . S
Tb1384 O1405 2.440 . S
Tb1384 O1406 2.658 . S
Tb1384 O1407 2.409 . S
Tb1384 O1408 2.378 . S
Tb1384 O1412 2.325 . S
Tb1384 O1415 2.341 . S
Tb1385 C1395 2.809 . S
Tb1385 O1406 2.325 . S
Tb1385 O1409 2.341 . S
Tb1385 O1410 2.484 . S
Tb1385 O1411 2.440 . S
Tb1385 O1412 2.658 . S
Tb1385 O1413 2.409 . S
Tb1385 O1414 2.378 . S
C1386 Tb1384 2.809 . S
C1386 C1387 1.514 . S
C1386 O1404 1.248 . S
C1386 O1405 1.266 . S
C1387 C1386 1.514 . S
C1387 C1388 1.359 . S
C1387 C1392 1.348 . S
C1388 C1387 1.359 . S
C1388 C1389 1.380 . S
C1388 H1416 0.929 . S
C1389 C1388 1.380 . S
C1389 C1390 1.347 . S
C1389 H1417 0.931 . S
C1390 C1389 1.347 . S
C1390 C1391 1.369 . S
C1391 C1390 1.369 . S
C1391 C1392 1.408 . S
C1391 H1418 0.930 . S
C1392 C1387 1.348 . S
C1392 C1391 1.408 . S
C1392 H1419 0.930 . S
C1393 O1406 1.281 . S
C1393 O1407 1.254 . S
C1394 O1408 1.236 . S
C1394 O1409 1.266 . S
C1395 Tb1385 2.809 . S
C1395 C1396 1.514 . S
C1395 O1410 1.248 . S
C1395 O1411 1.266 . S
C1396 C1395 1.514 . S
C1396 C1397 1.359 . S
C1396 C1401 1.348 . S
C1397 C1396 1.359 . S
C1397 C1398 1.380 . S
C1397 H1420 0.929 . S
C1398 C1397 1.380 . S
C1398 C1399 1.347 . S
C1398 H1421 0.931 . S
C1399 C1398 1.347 . S
C1399 C1400 1.369 . S
C1400 C1399 1.369 . S
C1400 C1401 1.408 . S
C1400 H1422 0.930 . S
C1401 C1396 1.348 . S
C1401 C1400 1.408 . S
C1401 H1423 0.930 . S
C1402 O1412 1.281 . S
C1402 O1413 1.254 . S
C1403 O1414 1.236 . S
C1403 O1415 1.266 . S
O1404 Tb1384 2.484 . S
O1404 C1386 1.248 . S
O1405 Tb1384 2.440 . S
O1405 C1386 1.266 . S
O1406 Tb1384 2.658 . S
O1406 Tb1385 2.325 . S
O1406 C1393 1.281 . S
O1407 Tb1384 2.409 . S
O1407 C1393 1.254 . S
O1408 Tb1384 2.378 . S
O1408 C1394 1.236 . S
O1409 Tb1385 2.341 . S
O1409 C1394 1.266 . S
O1410 Tb1385 2.484 . S
O1410 C1395 1.248 . S
O1411 Tb1385 2.440 . S
O1411 C1395 1.266 . S
O1412 Tb1384 2.325 . S
O1412 Tb1385 2.658 . S
O1412 C1402 1.281 . S
O1413 Tb1385 2.409 . S
O1413 C1402 1.254 . S
O1414 Tb1385 2.378 . S
O1414 C1403 1.236 . S
O1415 Tb1384 2.341 . S
O1415 C1403 1.266 . S
H1416 C1388 0.929 . S
H1417 C1389 0.931 . S
H1418 C1391 0.930 . S
H1419 C1392 0.930 . S
H1420 C1397 0.929 . S
H1421 C1398 0.931 . S
H1422 C1400 0.930 . S
H1423 C1401 0.930 . S
Tb1424 C1426 2.809 . S
Tb1424 O1444 2.484 . S
Tb1424 O1445 2.440 . S
Tb1424 O1446 2.658 . S
Tb1424 O1447 2.409 . S
Tb1424 O1448 2.378 . S
Tb1424 O1452 2.325 . S
Tb1424 O1455 2.341 . S
Tb1425 C1435 2.809 . S
Tb1425 O1446 2.325 . S
Tb1425 O1449 2.341 . S
Tb1425 O1450 2.484 . S
Tb1425 O1451 2.440 . S
Tb1425 O1452 2.658 . S
Tb1425 O1453 2.409 . S
Tb1425 O1454 2.378 . S
C1426 Tb1424 2.809 . S
C1426 C1427 1.514 . S
C1426 O1444 1.248 . S
C1426 O1445 1.266 . S
C1427 C1426 1.514 . S
C1427 C1428 1.359 . S
C1427 C1432 1.348 . S
C1428 C1427 1.359 . S
C1428 C1429 1.380 . S
C1428 H1456 0.929 . S
C1429 C1428 1.380 . S
C1429 C1430 1.347 . S
C1429 H1457 0.931 . S
C1430 C1429 1.347 . S
C1430 C1431 1.369 . S
C1431 C1430 1.369 . S
C1431 C1432 1.408 . S
C1431 H1458 0.930 . S
C1432 C1427 1.348 . S
C1432 C1431 1.408 . S
C1432 H1459 0.930 . S
C1433 O1446 1.281 . S
C1433 O1447 1.254 . S
C1434 O1448 1.236 . S
C1434 O1449 1.266 . S
C1435 Tb1425 2.809 . S
C1435 C1436 1.514 . S
C1435 O1450 1.248 . S
C1435 O1451 1.266 . S
C1436 C1435 1.514 . S
C1436 C1437 1.359 . S
C1436 C1441 1.348 . S
C1437 C1436 1.359 . S
C1437 C1438 1.380 . S
C1437 H1460 0.929 . S
C1438 C1437 1.380 . S
C1438 C1439 1.347 . S
C1438 H1461 0.931 . S
C1439 C1438 1.347 . S
C1439 C1440 1.369 . S
C1440 C1439 1.369 . S
C1440 C1441 1.408 . S
C1440 H1462 0.930 . S
C1441 C1436 1.348 . S
C1441 C1440 1.408 . S
C1441 H1463 0.930 . S
C1442 O1452 1.281 . S
C1442 O1453 1.254 . S
C1443 O1454 1.236 . S
C1443 O1455 1.266 . S
O1444 Tb1424 2.484 . S
O1444 C1426 1.248 . S
O1445 Tb1424 2.440 . S
O1445 C1426 1.266 . S
O1446 Tb1424 2.658 . S
O1446 Tb1425 2.325 . S
O1446 C1433 1.281 . S
O1447 Tb1424 2.409 . S
O1447 C1433 1.254 . S
O1448 Tb1424 2.378 . S
O1448 C1434 1.236 . S
O1449 Tb1425 2.341 . S
O1449 C1434 1.266 . S
O1450 Tb1425 2.484 . S
O1450 C1435 1.248 . S
O1451 Tb1425 2.440 . S
O1451 C1435 1.266 . S
O1452 Tb1424 2.325 . S
O1452 Tb1425 2.658 . S
O1452 C1442 1.281 . S
O1453 Tb1425 2.409 . S
O1453 C1442 1.254 . S
O1454 Tb1425 2.378 . S
O1454 C1443 1.236 . S
O1455 Tb1424 2.341 . S
O1455 C1443 1.266 . S
H1456 C1428 0.929 . S
H1457 C1429 0.931 . S
H1458 C1431 0.930 . S
H1459 C1432 0.930 . S
H1460 C1437 0.929 . S
H1461 C1438 0.931 . S
H1462 C1440 0.930 . S
H1463 C1441 0.930 . S
Tb1464 C1466 2.809 . S
Tb1464 O1484 2.484 . S
Tb1464 O1485 2.440 . S
Tb1464 O1486 2.658 . S
Tb1464 O1487 2.409 1_554 S
Tb1464 O1488 2.378 . S
Tb1464 O1492 2.325 . S
Tb1464 O1495 2.341 . S
Tb1465 C1475 2.809 1_455 S
Tb1465 O1486 2.325 . S
Tb1465 O1489 2.341 . S
Tb1465 O1490 2.484 1_455 S
Tb1465 O1491 2.440 1_455 S
Tb1465 O1492 2.658 . S
Tb1465 O1493 2.409 . S
Tb1465 O1494 2.378 . S
C1466 Tb1464 2.809 . S
C1466 C1467 1.514 . S
C1466 O1484 1.248 . S
C1466 O1485 1.266 . S
C1467 C1466 1.514 . S
C1467 C1468 1.359 . S
C1467 C1472 1.348 . S
C1468 C1467 1.359 . S
C1468 C1469 1.380 . S
C1468 H1496 0.929 . S
C1469 C1468 1.380 . S
C1469 C1470 1.347 . S
C1469 H1497 0.931 . S
C1470 C1469 1.347 . S
C1470 C1471 1.369 1_554 S
C1471 C1470 1.369 1_556 S
C1471 C1472 1.408 1_556 S
C1471 H1498 0.930 . S
C1472 C1467 1.348 . S
C1472 C1471 1.408 1_554 S
C1472 H1499 0.930 1_554 S
C1473 O1486 1.281 1_556 S
C1473 O1487 1.254 . S
C1474 O1488 1.236 . S
C1474 O1489 1.266 . S
C1475 Tb1465 2.809 1_655 S
C1475 C1476 1.514 . S
C1475 O1490 1.248 . S
C1475 O1491 1.266 . S
C1476 C1475 1.514 . S
C1476 C1477 1.359 . S
C1476 C1481 1.348 . S
C1477 C1476 1.359 . S
C1477 C1478 1.380 . S
C1477 H1500 0.929 . S
C1478 C1477 1.380 . S
C1478 C1479 1.347 . S
C1478 H1501 0.931 . S
C1479 C1478 1.347 . S
C1479 C1480 1.369 . S
C1480 C1479 1.369 . S
C1480 C1481 1.408 . S
C1480 H1502 0.930 . S
C1481 C1476 1.348 . S
C1481 C1480 1.408 . S
C1481 H1503 0.930 . S
C1482 O1492 1.281 . S
C1482 O1493 1.254 . S
C1483 O1494 1.236 . S
C1483 O1495 1.266 . S
O1484 Tb1464 2.484 . S
O1484 C1466 1.248 . S
O1485 Tb1464 2.440 . S
O1485 C1466 1.266 . S
O1486 Tb1464 2.658 . S
O1486 Tb1465 2.325 . S
O1486 C1473 1.281 1_554 S
O1487 Tb1464 2.409 1_556 S
O1487 C1473 1.254 . S
O1488 Tb1464 2.378 . S
O1488 C1474 1.236 . S
O1489 Tb1465 2.341 . S
O1489 C1474 1.266 . S
O1490 Tb1465 2.484 1_655 S
O1490 C1475 1.248 . S
O1491 Tb1465 2.440 1_655 S
O1491 C1475 1.266 . S
O1492 Tb1464 2.325 . S
O1492 Tb1465 2.658 . S
O1492 C1482 1.281 . S
O1493 Tb1465 2.409 . S
O1493 C1482 1.254 . S
O1494 Tb1465 2.378 . S
O1494 C1483 1.236 . S
O1495 Tb1464 2.341 . S
O1495 C1483 1.266 . S
H1496 C1468 0.929 . S
H1497 C1469 0.931 . S
H1498 C1471 0.930 . S
H1499 C1472 0.930 1_556 S
H1500 C1477 0.929 . S
H1501 C1478 0.931 . S
H1502 C1480 0.930 . S
H1503 C1481 0.930 . S
H1504 C1510 0.930 . S
H1505 C1514 0.930 1_556 S
H1506 C1519 0.929 . S
H1507 C1517 0.929 . S
H1508 C1512 0.929 . S
H1509 C1518 0.929 . S
C1510 H1504 0.930 . S
C1510 C1511 1.367 1_554 S
C1510 C1518 1.378 . S
C1511 C1510 1.367 1_556 S
C1511 C1519 1.433 . S
C1512 H1508 0.929 . S
C1512 C1514 1.378 1_556 S
C1512 C1516 1.350 1_556 S
C1513 C1516 1.463 1_556 S
C1513 C1518 1.350 1_556 S
C1513 N1521 1.427 . S
C1514 H1505 0.930 1_554 S
C1514 C1512 1.378 1_554 S
C1514 C1515 1.367 . S
C1515 C1514 1.367 . S
C1515 C1517 1.433 . S
C1516 C1512 1.350 1_554 S
C1516 C1513 1.463 1_554 S
C1516 N1520 1.427 . S
C1517 H1507 0.929 . S
C1517 C1515 1.433 . S
C1517 N1520 1.384 . S
C1518 H1509 0.929 . S
C1518 C1510 1.378 . S
C1518 C1513 1.350 1_554 S
C1519 H1506 0.929 . S
C1519 C1511 1.433 . S
C1519 N1521 1.384 . S
N1520 C1516 1.427 . S
N1520 C1517 1.384 . S
N1521 C1513 1.427 . S
N1521 C1519 1.384 . S
H1522 C1528 0.930 . S
H1523 C1532 0.930 . S
H1524 C1537 0.929 . S
H1525 C1535 0.929 . S
H1526 C1530 0.929 . S
H1527 C1536 0.929 . S
C1528 H1522 0.930 . S
C1528 C1529 1.367 . S
C1528 C1536 1.378 . S
C1529 C1528 1.367 . S
C1529 C1537 1.433 . S
C1530 H1526 0.929 . S
C1530 C1532 1.378 . S
C1530 C1534 1.350 . S
C1531 C1534 1.463 . S
C1531 C1536 1.350 . S
C1531 N1539 1.427 . S
C1532 H1523 0.930 . S
C1532 C1530 1.378 . S
C1532 C1533 1.367 . S
C1533 C1532 1.367 . S
C1533 C1535 1.433 . S
C1534 C1530 1.350 . S
C1534 C1531 1.463 . S
C1534 N1538 1.427 . S
C1535 H1525 0.929 . S
C1535 C1533 1.433 . S
C1535 N1538 1.384 . S
C1536 H1527 0.929 . S
C1536 C1528 1.378 . S
C1536 C1531 1.350 . S
C1537 H1524 0.929 . S
C1537 C1529 1.433 . S
C1537 N1539 1.384 . S
N1538 C1534 1.427 . S
N1538 C1535 1.384 . S
N1539 C1531 1.427 . S
N1539 C1537 1.384 . S
H1540 C1546 0.930 . S
H1541 C1550 0.930 . S
H1542 C1555 0.929 . S
H1543 C1553 0.929 . S
H1544 C1548 0.929 . S
H1545 C1554 0.929 . S
C1546 H1540 0.930 . S
C1546 C1547 1.367 . S
C1546 C1554 1.378 . S
C1547 C1546 1.367 . S
C1547 C1555 1.433 . S
C1548 H1544 0.929 . S
C1548 C1550 1.378 . S
C1548 C1552 1.350 . S
C1549 C1552 1.463 . S
C1549 C1554 1.350 . S
C1549 N1557 1.427 . S
C1550 H1541 0.930 . S
C1550 C1548 1.378 . S
C1550 C1551 1.367 . S
C1551 C1550 1.367 . S
C1551 C1553 1.433 . S
C1552 C1548 1.350 . S
C1552 C1549 1.463 . S
C1552 N1556 1.427 . S
C1553 H1543 0.929 . S
C1553 C1551 1.433 . S
C1553 N1556 1.384 . S
C1554 H1545 0.929 . S
C1554 C1546 1.378 . S
C1554 C1549 1.350 . S
C1555 H1542 0.929 . S
C1555 C1547 1.433 . S
C1555 N1557 1.384 . S
N1556 C1552 1.427 . S
N1556 C1553 1.384 . S
N1557 C1549 1.427 . S
N1557 C1555 1.384 . S
H1558 C1564 0.930 . S
H1559 C1568 0.930 . S
H1560 C1573 0.929 . S
H1561 C1571 0.929 . S
H1562 C1566 0.929 . S
H1563 C1572 0.929 . S
C1564 H1558 0.930 . S
C1564 C1565 1.367 . S
C1564 C1572 1.378 . S
C1565 C1564 1.367 . S
C1565 C1573 1.433 . S
C1566 H1562 0.929 . S
C1566 C1568 1.378 . S
C1566 C1570 1.350 . S
C1567 C1570 1.463 . S
C1567 C1572 1.350 . S
C1567 N1575 1.427 . S
C1568 H1559 0.930 . S
C1568 C1566 1.378 . S
C1568 C1569 1.367 . S
C1569 C1568 1.367 . S
C1569 C1571 1.433 . S
C1570 C1566 1.350 . S
C1570 C1567 1.463 . S
C1570 N1574 1.427 . S
C1571 H1561 0.929 . S
C1571 C1569 1.433 . S
C1571 N1574 1.384 . S
C1572 H1563 0.929 . S
C1572 C1564 1.378 . S
C1572 C1567 1.350 . S
C1573 H1560 0.929 . S
C1573 C1565 1.433 . S
C1573 N1575 1.384 . S
N1574 C1570 1.427 . S
N1574 C1571 1.384 . S
N1575 C1567 1.427 . S
N1575 C1573 1.384 . S
H1576 C1582 0.930 . S
H1577 C1586 0.930 . S
H1578 C1591 0.929 . S
H1579 C1589 0.929 . S
H1580 C1584 0.929 . S
H1581 C1590 0.929 . S
C1582 H1576 0.930 . S
C1582 C1583 1.367 . S
C1582 C1590 1.378 . S
C1583 C1582 1.367 . S
C1583 C1591 1.433 . S
C1584 H1580 0.929 . S
C1584 C1586 1.378 . S
C1584 C1588 1.350 . S
C1585 C1588 1.463 . S
C1585 C1590 1.350 . S
C1585 N1593 1.427 . S
C1586 H1577 0.930 . S
C1586 C1584 1.378 . S
C1586 C1587 1.367 . S
C1587 C1586 1.367 . S
C1587 C1589 1.433 . S
C1588 C1584 1.350 . S
C1588 C1585 1.463 . S
C1588 N1592 1.427 . S
C1589 H1579 0.929 . S
C1589 C1587 1.433 . S
C1589 N1592 1.384 . S
C1590 H1581 0.929 . S
C1590 C1582 1.378 . S
C1590 C1585 1.350 . S
C1591 H1578 0.929 . S
C1591 C1583 1.433 . S
C1591 N1593 1.384 . S
N1592 C1588 1.427 . S
N1592 C1589 1.384 . S
N1593 C1585 1.427 . S
N1593 C1591 1.384 . S
H1594 C1600 0.930 . S
H1595 C1604 0.930 . S
H1596 C1609 0.929 . S
H1597 C1607 0.929 . S
H1598 C1602 0.929 . S
H1599 C1608 0.929 . S
C1600 H1594 0.930 . S
C1600 C1601 1.367 . S
C1600 C1608 1.378 . S
C1601 C1600 1.367 . S
C1601 C1609 1.433 . S
C1602 H1598 0.929 . S
C1602 C1604 1.378 . S
C1602 C1606 1.350 . S
C1603 C1606 1.463 . S
C1603 C1608 1.350 . S
C1603 N1611 1.427 . S
C1604 H1595 0.930 . S
C1604 C1602 1.378 . S
C1604 C1605 1.367 . S
C1605 C1604 1.367 . S
C1605 C1607 1.433 . S
C1606 C1602 1.350 . S
C1606 C1603 1.463 . S
C1606 N1610 1.427 . S
C1607 H1597 0.929 . S
C1607 C1605 1.433 . S
C1607 N1610 1.384 . S
C1608 H1599 0.929 . S
C1608 C1600 1.378 . S
C1608 C1603 1.350 . S
C1609 H1596 0.929 . S
C1609 C1601 1.433 . S
C1609 N1611 1.384 . S
N1610 C1606 1.427 . S
N1610 C1607 1.384 . S
N1611 C1603 1.427 . S
N1611 C1609 1.384 . S
H1612 C1618 0.930 . S
H1613 C1622 0.930 . S
H1614 C1627 0.929 . S
H1615 C1625 0.929 . S
H1616 C1620 0.929 . S
H1617 C1626 0.929 . S
C1618 H1612 0.930 . S
C1618 C1619 1.367 . S
C1618 C1626 1.378 . S
C1619 C1618 1.367 . S
C1619 C1627 1.433 . S
C1620 H1616 0.929 . S
C1620 C1622 1.378 . S
C1620 C1624 1.350 . S
C1621 C1624 1.463 . S
C1621 C1626 1.350 . S
C1621 N1629 1.427 . S
C1622 H1613 0.930 . S
C1622 C1620 1.378 . S
C1622 C1623 1.367 . S
C1623 C1622 1.367 . S
C1623 C1625 1.433 . S
C1624 C1620 1.350 . S
C1624 C1621 1.463 . S
C1624 N1628 1.427 . S
C1625 H1615 0.929 . S
C1625 C1623 1.433 . S
C1625 N1628 1.384 . S
C1626 H1617 0.929 . S
C1626 C1618 1.378 . S
C1626 C1621 1.350 . S
C1627 H1614 0.929 . S
C1627 C1619 1.433 . S
C1627 N1629 1.384 . S
N1628 C1624 1.427 . S
N1628 C1625 1.384 . S
N1629 C1621 1.427 . S
N1629 C1627 1.384 . S
H1630 C1636 0.930 . S
H1631 C1640 0.930 . S
H1632 C1645 0.929 . S
H1633 C1643 0.929 . S
H1634 C1638 0.929 . S
H1635 C1644 0.929 . S
C1636 H1630 0.930 . S
C1636 C1637 1.367 . S
C1636 C1644 1.378 . S
C1637 C1636 1.367 . S
C1637 C1645 1.433 . S
C1638 H1634 0.929 . S
C1638 C1640 1.378 . S
C1638 C1642 1.350 . S
C1639 C1642 1.463 . S
C1639 C1644 1.350 . S
C1639 N1647 1.427 . S
C1640 H1631 0.930 . S
C1640 C1638 1.378 . S
C1640 C1641 1.367 . S
C1641 C1640 1.367 . S
C1641 C1643 1.433 . S
C1642 C1638 1.350 . S
C1642 C1639 1.463 . S
C1642 N1646 1.427 . S
C1643 H1633 0.929 . S
C1643 C1641 1.433 . S
C1643 N1646 1.384 . S
C1644 H1635 0.929 . S
C1644 C1636 1.378 . S
C1644 C1639 1.350 . S
C1645 H1632 0.929 . S
C1645 C1637 1.433 . S
C1645 N1647 1.384 . S
N1646 C1642 1.427 . S
N1646 C1643 1.384 . S
N1647 C1639 1.427 . S
N1647 C1645 1.384 . S
H1648 C1654 0.930 . S
H1649 C1658 0.930 . S
H1650 C1663 0.929 . S
H1651 C1661 0.929 . S
H1652 C1656 0.929 . S
H1653 C1662 0.929 . S
C1654 H1648 0.930 . S
C1654 C1655 1.371 . S
C1654 C1662 1.378 . S
C1655 C1654 1.371 . S
C1655 C1663 1.428 1_565 S
C1656 H1652 0.929 . S
C1656 C1658 1.378 . S
C1656 C1660 1.350 1_455 S
C1657 C1660 1.463 . S
C1657 C1662 1.350 1_545 S
C1657 N1665 1.427 . S
C1658 H1649 0.930 . S
C1658 C1656 1.378 . S
C1658 C1659 1.367 . S
C1659 C1658 1.367 . S
C1659 C1661 1.433 1_545 S
C1660 C1656 1.350 1_655 S
C1660 C1657 1.463 . S
C1660 N1664 1.427 1_545 S
C1661 H1651 0.929 . S
C1661 C1659 1.433 1_565 S
C1661 N1664 1.384 1_455 S
C1662 H1653 0.929 . S
C1662 C1654 1.378 . S
C1662 C1657 1.350 1_565 S
C1663 H1650 0.929 . S
C1663 C1655 1.428 1_545 S
C1663 N1665 1.384 . S
N1664 C1660 1.427 1_565 S
N1664 C1661 1.384 1_655 S
N1665 C1657 1.427 . S
N1665 C1663 1.384 . S
H1666 C1672 0.930 . S
H1667 C1676 0.930 . S
H1668 C1681 0.929 . S
H1669 C1679 0.929 . S
H1670 C1674 0.929 . S
H1671 C1680 0.929 . S
C1672 H1666 0.930 . S
C1672 C1673 1.367 . S
C1672 C1680 1.378 . S
C1673 C1672 1.367 . S
C1673 C1681 1.433 . S
C1674 H1670 0.929 . S
C1674 C1676 1.378 . S
C1674 C1678 1.350 . S
C1675 C1678 1.463 . S
C1675 C1680 1.350 . S
C1675 N1683 1.427 . S
C1676 H1667 0.930 . S
C1676 C1674 1.378 . S
C1676 C1677 1.367 . S
C1677 C1676 1.367 . S
C1677 C1679 1.433 . S
C1678 C1674 1.350 . S
C1678 C1675 1.463 . S
C1678 N1682 1.427 . S
C1679 H1669 0.929 . S
C1679 C1677 1.433 . S
C1679 N1682 1.384 . S
C1680 H1671 0.929 . S
C1680 C1672 1.378 . S
C1680 C1675 1.350 . S
C1681 H1668 0.929 . S
C1681 C1673 1.433 . S
C1681 N1683 1.384 . S
N1682 C1678 1.427 . S
N1682 C1679 1.384 . S
N1683 C1675 1.427 . S
N1683 C1681 1.384 . S
H1684 C1690 0.930 . S
H1685 C1694 0.924 1_565 S
H1686 C1699 0.929 1_565 S
H1687 C1697 0.929 . S
H1688 C1692 0.929 1_565 S
H1689 C1698 0.929 . S
C1690 H1684 0.930 . S
C1690 C1691 1.367 . S
C1690 C1698 1.378 . S
C1691 C1690 1.367 . S
C1691 C1699 1.433 . S
C1692 H1688 0.929 1_545 S
C1692 C1694 1.378 . S
C1692 C1696 1.350 . S
C1693 C1696 1.463 . S
C1693 C1698 1.350 . S
C1693 N1701 1.427 . S
C1694 H1685 0.924 1_545 S
C1694 C1692 1.378 . S
C1694 C1695 1.367 . S
C1695 C1694 1.367 . S
C1695 C1697 1.433 . S
C1696 C1692 1.350 . S
C1696 C1693 1.463 . S
C1696 N1700 1.427 . S
C1697 H1687 0.929 . S
C1697 C1695 1.433 . S
C1697 N1700 1.384 . S
C1698 H1689 0.929 . S
C1698 C1690 1.378 . S
C1698 C1693 1.350 . S
C1699 H1686 0.929 1_545 S
C1699 C1691 1.433 . S
C1699 N1701 1.384 . S
N1700 C1696 1.427 . S
N1700 C1697 1.384 . S
N1701 C1693 1.427 . S
N1701 C1699 1.384 . S
H1702 C1708 0.930 . S
H1703 C1712 0.930 . S
H1704 C1717 0.929 . S
H1705 C1715 0.929 . S
H1706 C1710 0.929 . S
H1707 C1716 0.929 . S
C1708 H1702 0.930 . S
C1708 C1709 1.367 . S
C1708 C1716 1.378 . S
C1709 C1708 1.367 . S
C1709 C1717 1.433 . S
C1710 H1706 0.929 . S
C1710 C1712 1.378 . S
C1710 C1714 1.350 . S
C1711 C1714 1.463 . S
C1711 C1716 1.350 . S
C1711 N1719 1.427 . S
C1712 H1703 0.930 . S
C1712 C1710 1.378 . S
C1712 C1713 1.367 . S
C1713 C1712 1.367 . S
C1713 C1715 1.433 . S
C1714 C1710 1.350 . S
C1714 C1711 1.463 . S
C1714 N1718 1.427 . S
C1715 H1705 0.929 . S
C1715 C1713 1.433 . S
C1715 N1718 1.384 . S
C1716 H1707 0.929 . S
C1716 C1708 1.378 . S
C1716 C1711 1.350 . S
C1717 H1704 0.929 . S
C1717 C1709 1.433 . S
C1717 N1719 1.384 . S
N1718 C1714 1.427 . S
N1718 C1715 1.384 . S
N1719 C1711 1.427 . S
N1719 C1717 1.384 . S
H1720 C1726 0.930 . S
H1721 C1730 0.917 1_565 S
H1722 C1735 0.929 . S
H1723 C1733 0.931 . S
H1724 C1728 0.929 . S
H1725 C1734 0.929 . S
C1726 H1720 0.930 . S
C1726 C1727 1.367 . S
C1726 C1734 1.378 . S
C1727 C1726 1.367 . S
C1727 C1735 1.433 1_545 S
C1728 H1724 0.929 . S
C1728 C1730 1.380 1_565 S
C1728 C1732 1.350 1_465 S
C1729 C1732 1.463 . S
C1729 C1734 1.350 . S
C1729 N1737 1.427 1_545 S
C1730 H1721 0.917 1_545 S
C1730 C1728 1.380 1_545 S
C1730 C1731 1.378 . S
C1731 C1730 1.378 . S
C1731 C1733 1.431 1_455 S
C1732 C1728 1.350 1_645 S
C1732 C1729 1.463 . S
C1732 N1736 1.427 . S
C1733 H1723 0.931 . S
C1733 C1731 1.431 1_655 S
C1733 N1736 1.384 . S
C1734 H1725 0.929 . S
C1734 C1726 1.378 . S
C1734 C1729 1.350 . S
C1735 H1722 0.929 . S
C1735 C1727 1.433 1_565 S
C1735 N1737 1.384 . S
N1736 C1732 1.427 . S
N1736 C1733 1.384 . S
N1737 C1729 1.427 1_565 S
N1737 C1735 1.384 . S
H1738 C1744 0.930 . S
H1739 C1748 0.930 . S
H1740 C1753 0.929 . S
H1741 C1751 0.929 . S
H1742 C1746 0.929 . S
H1743 C1752 0.929 . S
C1744 H1738 0.930 . S
C1744 C1745 1.367 . S
C1744 C1752 1.378 . S
C1745 C1744 1.367 . S
C1745 C1753 1.433 . S
C1746 H1742 0.929 . S
C1746 C1748 1.378 . S
C1746 C1750 1.350 . S
C1747 C1750 1.463 . S
C1747 C1752 1.350 . S
C1747 N1755 1.427 . S
C1748 H1739 0.930 . S
C1748 C1746 1.378 . S
C1748 C1749 1.367 . S
C1749 C1748 1.367 . S
C1749 C1751 1.433 . S
C1750 C1746 1.350 . S
C1750 C1747 1.463 . S
C1750 N1754 1.427 . S
C1751 H1741 0.929 . S
C1751 C1749 1.433 . S
C1751 N1754 1.384 . S
C1752 H1743 0.929 . S
C1752 C1744 1.378 . S
C1752 C1747 1.350 . S
C1753 H1740 0.929 . S
C1753 C1745 1.433 . S
C1753 N1755 1.384 . S
N1754 C1750 1.427 . S
N1754 C1751 1.384 . S
N1755 C1747 1.427 . S
N1755 C1753 1.384 . S
H1756 C1762 0.930 1_565 S
H1757 C1766 0.930 . S
H1758 C1771 0.929 . S
H1759 C1769 0.929 . S
H1760 C1764 0.929 . S
H1761 C1770 0.929 1_565 S
C1762 H1756 0.930 1_545 S
C1762 C1763 1.367 . S
C1762 C1770 1.378 . S
C1763 C1762 1.367 . S
C1763 C1771 1.433 . S
C1764 H1760 0.929 . S
C1764 C1766 1.378 . S
C1764 C1768 1.350 . S
C1765 C1768 1.463 . S
C1765 C1770 1.350 . S
C1765 N1773 1.427 . S
C1766 H1757 0.930 . S
C1766 C1764 1.378 . S
C1766 C1767 1.367 . S
C1767 C1766 1.367 . S
C1767 C1769 1.433 . S
C1768 C1764 1.350 . S
C1768 C1765 1.463 . S
C1768 N1772 1.427 . S
C1769 H1759 0.929 . S
C1769 C1767 1.433 . S
C1769 N1772 1.384 . S
C1770 H1761 0.929 1_545 S
C1770 C1762 1.378 . S
C1770 C1765 1.350 . S
C1771 H1758 0.929 . S
C1771 C1763 1.433 . S
C1771 N1773 1.384 . S
N1772 C1768 1.427 . S
N1772 C1769 1.384 . S
N1773 C1765 1.427 . S
N1773 C1771 1.384 . S
H1774 C1780 0.930 . S
H1775 C1784 0.930 . S
H1776 C1789 0.929 . S
H1777 C1787 0.929 . S
H1778 C1782 0.929 . S
H1779 C1788 0.929 . S
C1780 H1774 0.930 . S
C1780 C1781 1.367 . S
C1780 C1788 1.378 . S
C1781 C1780 1.367 . S
C1781 C1789 1.433 . S
C1782 H1778 0.929 . S
C1782 C1784 1.378 . S
C1782 C1786 1.350 . S
C1783 C1786 1.463 . S
C1783 C1788 1.350 . S
C1783 N1791 1.427 . S
C1784 H1775 0.930 . S
C1784 C1782 1.378 . S
C1784 C1785 1.367 . S
C1785 C1784 1.367 . S
C1785 C1787 1.433 . S
C1786 C1782 1.350 . S
C1786 C1783 1.463 . S
C1786 N1790 1.427 . S
C1787 H1777 0.929 . S
C1787 C1785 1.433 . S
C1787 N1790 1.384 . S
C1788 H1779 0.929 . S
C1788 C1780 1.378 . S
C1788 C1783 1.350 . S
C1789 H1776 0.929 . S
C1789 C1781 1.433 . S
C1789 N1791 1.384 . S
N1790 C1786 1.427 . S
N1790 C1787 1.384 . S
N1791 C1783 1.427 . S
N1791 C1789 1.384 . S
H1792 C1798 0.930 . S
H1793 C1802 0.930 . S
H1794 C1807 0.929 . S
H1795 C1805 0.929 . S
H1796 C1800 0.929 . S
H1797 C1806 0.929 . S
C1798 H1792 0.930 . S
C1798 C1799 1.367 . S
C1798 C1806 1.378 . S
C1799 C1798 1.367 . S
C1799 C1807 1.433 1_554 S
C1800 H1796 0.929 . S
C1800 C1802 1.378 . S
C1800 C1804 1.350 . S
C1801 C1804 1.463 . S
C1801 C1806 1.350 . S
C1801 N1809 1.427 . S
C1802 H1793 0.930 . S
C1802 C1800 1.378 . S
C1802 C1803 1.367 . S
C1803 C1802 1.367 . S
C1803 C1805 1.433 . S
C1804 C1800 1.350 . S
C1804 C1801 1.463 . S
C1804 N1808 1.427 . S
C1805 H1795 0.929 . S
C1805 C1803 1.433 . S
C1805 N1808 1.384 . S
C1806 H1797 0.929 . S
C1806 C1798 1.378 . S
C1806 C1801 1.350 . S
C1807 H1794 0.929 . S
C1807 C1799 1.433 1_556 S
C1807 N1809 1.384 1_556 S
N1808 C1804 1.427 . S
N1808 C1805 1.384 . S
N1809 C1801 1.427 . S
N1809 C1807 1.384 1_554 S
H1810 C1816 0.930 . S
H1811 C1820 0.930 . S
H1812 C1825 0.929 . S
H1813 C1823 0.929 . S
H1814 C1818 0.929 . S
H1815 C1824 0.929 . S
C1816 H1810 0.930 . S
C1816 C1817 1.367 . S
C1816 C1824 1.378 . S
C1817 C1816 1.367 . S
C1817 C1825 1.433 . S
C1818 H1814 0.929 . S
C1818 C1820 1.378 . S
C1818 C1822 1.350 . S
C1819 C1822 1.463 . S
C1819 C1824 1.350 . S
C1819 N1827 1.427 . S
C1820 H1811 0.930 . S
C1820 C1818 1.378 . S
C1820 C1821 1.367 . S
C1821 C1820 1.367 . S
C1821 C1823 1.433 . S
C1822 C1818 1.350 . S
C1822 C1819 1.463 . S
C1822 N1826 1.427 . S
C1823 H1813 0.929 . S
C1823 C1821 1.433 . S
C1823 N1826 1.384 . S
C1824 H1815 0.929 . S
C1824 C1816 1.378 . S
C1824 C1819 1.350 . S
C1825 H1812 0.929 . S
C1825 C1817 1.433 . S
C1825 N1827 1.384 . S
N1826 C1822 1.427 . S
N1826 C1823 1.384 . S
N1827 C1819 1.427 . S
N1827 C1825 1.384 . S
H1828 C1834 0.930 . S
H1829 C1838 0.930 . S
H1830 C1843 0.929 . S
H1831 C1841 0.929 . S
H1832 C1836 0.929 . S
H1833 C1842 0.929 . S
C1834 H1828 0.930 . S
C1834 C1835 1.367 . S
C1834 C1842 1.378 . S
C1835 C1834 1.367 . S
C1835 C1843 1.433 . S
C1836 H1832 0.929 . S
C1836 C1838 1.378 . S
C1836 C1840 1.350 . S
C1837 C1840 1.463 . S
C1837 C1842 1.350 . S
C1837 N1845 1.427 . S
C1838 H1829 0.930 . S
C1838 C1836 1.378 . S
C1838 C1839 1.367 . S
C1839 C1838 1.367 . S
C1839 C1841 1.433 . S
C1840 C1836 1.350 . S
C1840 C1837 1.463 . S
C1840 N1844 1.427 . S
C1841 H1831 0.929 . S
C1841 C1839 1.433 . S
C1841 N1844 1.384 . S
C1842 H1833 0.929 . S
C1842 C1834 1.378 . S
C1842 C1837 1.350 . S
C1843 H1830 0.929 . S
C1843 C1835 1.433 . S
C1843 N1845 1.384 . S
N1844 C1840 1.427 . S
N1844 C1841 1.384 . S
N1845 C1837 1.427 . S
N1845 C1843 1.384 . S
H1846 C1852 0.930 . S
H1847 C1856 0.930 . S
H1848 C1861 0.929 . S
H1849 C1859 0.929 . S
H1850 C1854 0.929 . S
H1851 C1860 0.929 . S
C1852 H1846 0.930 . S
C1852 C1853 1.367 . S
C1852 C1860 1.378 . S
C1853 C1852 1.367 . S
C1853 C1861 1.433 . S
C1854 H1850 0.929 . S
C1854 C1856 1.378 . S
C1854 C1858 1.350 . S
C1855 C1858 1.463 . S
C1855 C1860 1.350 . S
C1855 N1863 1.427 . S
C1856 H1847 0.930 . S
C1856 C1854 1.378 . S
C1856 C1857 1.367 . S
C1857 C1856 1.367 . S
C1857 C1859 1.433 . S
C1858 C1854 1.350 . S
C1858 C1855 1.463 . S
C1858 N1862 1.427 . S
C1859 H1849 0.929 . S
C1859 C1857 1.433 . S
C1859 N1862 1.384 . S
C1860 H1851 0.929 . S
C1860 C1852 1.378 . S
C1860 C1855 1.350 . S
C1861 H1848 0.929 . S
C1861 C1853 1.433 . S
C1861 N1863 1.384 . S
N1862 C1858 1.427 . S
N1862 C1859 1.384 . S
N1863 C1855 1.427 . S
N1863 C1861 1.384 . S
H1864 C1870 0.930 . S
H1865 C1874 0.930 . S
H1866 C1879 0.929 . S
H1867 C1877 0.929 . S
H1868 C1872 0.929 . S
H1869 C1878 0.929 . S
C1870 H1864 0.930 . S
C1870 C1871 1.367 . S
C1870 C1878 1.378 . S
C1871 C1870 1.367 . S
C1871 C1879 1.433 . S
C1872 H1868 0.929 . S
C1872 C1874 1.378 . S
C1872 C1876 1.350 . S
C1873 C1876 1.463 . S
C1873 C1878 1.350 . S
C1873 N1881 1.427 . S
C1874 H1865 0.930 . S
C1874 C1872 1.378 . S
C1874 C1875 1.367 . S
C1875 C1874 1.367 . S
C1875 C1877 1.433 . S
C1876 C1872 1.350 . S
C1876 C1873 1.463 . S
C1876 N1880 1.427 . S
C1877 H1867 0.929 . S
C1877 C1875 1.433 . S
C1877 N1880 1.384 . S
C1878 H1869 0.929 . S
C1878 C1870 1.378 . S
C1878 C1873 1.350 . S
C1879 H1866 0.929 . S
C1879 C1871 1.433 . S
C1879 N1881 1.384 . S
N1880 C1876 1.427 . S
N1880 C1877 1.384 . S
N1881 C1873 1.427 . S
N1881 C1879 1.384 . S
H1882 C1888 0.930 . S
H1883 C1892 0.930 . S
H1884 C1897 0.929 . S
H1885 C1895 0.929 . S
H1886 C1890 0.929 . S
H1887 C1896 0.929 . S
C1888 H1882 0.930 . S
C1888 C1889 1.367 . S
C1888 C1896 1.378 . S
C1889 C1888 1.367 . S
C1889 C1897 1.433 . S
C1890 H1886 0.929 . S
C1890 C1892 1.378 . S
C1890 C1894 1.350 . S
C1891 C1894 1.463 . S
C1891 C1896 1.350 . S
C1891 N1899 1.427 . S
C1892 H1883 0.930 . S
C1892 C1890 1.378 . S
C1892 C1893 1.367 . S
C1893 C1892 1.367 . S
C1893 C1895 1.433 . S
C1894 C1890 1.350 . S
C1894 C1891 1.463 . S
C1894 N1898 1.427 . S
C1895 H1885 0.929 . S
C1895 C1893 1.433 . S
C1895 N1898 1.384 . S
C1896 H1887 0.929 . S
C1896 C1888 1.378 . S
C1896 C1891 1.350 . S
C1897 H1884 0.929 . S
C1897 C1889 1.433 . S
C1897 N1899 1.384 . S
N1898 C1894 1.427 . S
N1898 C1895 1.384 . S
N1899 C1891 1.427 . S
N1899 C1897 1.384 . S
H1900 C1906 0.930 . S
H1901 C1910 0.930 . S
H1902 C1915 0.929 . S
H1903 C1913 0.929 . S
H1904 C1908 0.929 . S
H1905 C1914 0.929 . S
C1906 H1900 0.930 . S
C1906 C1907 1.367 . S
C1906 C1914 1.378 . S
C1907 C1906 1.367 . S
C1907 C1915 1.433 . S
C1908 H1904 0.929 . S
C1908 C1910 1.378 . S
C1908 C1912 1.350 . S
C1909 C1912 1.463 . S
C1909 C1914 1.350 . S
C1909 N1917 1.427 . S
C1910 H1901 0.930 . S
C1910 C1908 1.378 . S
C1910 C1911 1.367 . S
C1911 C1910 1.367 . S
C1911 C1913 1.433 . S
C1912 C1908 1.350 . S
C1912 C1909 1.463 . S
C1912 N1916 1.427 . S
C1913 H1903 0.929 . S
C1913 C1911 1.433 . S
C1913 N1916 1.384 . S
C1914 H1905 0.929 . S
C1914 C1906 1.378 . S
C1914 C1909 1.350 . S
C1915 H1902 0.929 . S
C1915 C1907 1.433 . S
C1915 N1917 1.384 . S
N1916 C1912 1.427 . S
N1916 C1913 1.384 . S
N1917 C1909 1.427 . S
N1917 C1915 1.384 . S
H1918 C1924 0.930 . S
H1919 C1928 0.930 . S
H1920 C1933 0.929 . S
H1921 C1931 0.929 . S
H1922 C1926 0.929 . S
H1923 C1932 0.929 . S
C1924 H1918 0.930 . S
C1924 C1925 1.367 . S
C1924 C1932 1.378 . S
C1925 C1924 1.367 . S
C1925 C1933 1.433 . S
C1926 H1922 0.929 . S
C1926 C1928 1.378 . S
C1926 C1930 1.350 . S
C1927 C1930 1.463 . S
C1927 C1932 1.350 . S
C1927 N1935 1.427 . S
C1928 H1919 0.930 . S
C1928 C1926 1.378 . S
C1928 C1929 1.367 . S
C1929 C1928 1.367 . S
C1929 C1931 1.433 . S
C1930 C1926 1.350 . S
C1930 C1927 1.463 . S
C1930 N1934 1.427 . S
C1931 H1921 0.929 . S
C1931 C1929 1.433 . S
C1931 N1934 1.384 . S
C1932 H1923 0.929 . S
C1932 C1924 1.378 . S
C1932 C1927 1.350 . S
C1933 H1920 0.929 . S
C1933 C1925 1.433 . S
C1933 N1935 1.384 . S
N1934 C1930 1.427 . S
N1934 C1931 1.384 . S
N1935 C1927 1.427 . S
N1935 C1933 1.384 . S
H1936 C1942 0.930 . S
H1937 C1946 0.930 . S
H1938 C1951 0.929 . S
H1939 C1949 0.929 . S
H1940 C1944 0.929 . S
H1941 C1950 0.929 . S
C1942 H1936 0.930 . S
C1942 C1943 1.367 . S
C1942 C1950 1.378 . S
C1943 C1942 1.367 . S
C1943 C1951 1.433 . S
C1944 H1940 0.929 . S
C1944 C1946 1.378 . S
C1944 C1948 1.350 . S
C1945 C1948 1.463 . S
C1945 C1950 1.350 . S
C1945 N1953 1.427 . S
C1946 H1937 0.930 . S
C1946 C1944 1.378 . S
C1946 C1947 1.367 . S
C1947 C1946 1.367 . S
C1947 C1949 1.433 . S
C1948 C1944 1.350 . S
C1948 C1945 1.463 . S
C1948 N1952 1.427 . S
C1949 H1939 0.929 . S
C1949 C1947 1.433 . S
C1949 N1952 1.384 . S
C1950 H1941 0.929 . S
C1950 C1942 1.378 . S
C1950 C1945 1.350 . S
C1951 H1938 0.929 . S
C1951 C1943 1.433 . S
C1951 N1953 1.384 . S
N1952 C1948 1.427 . S
N1952 C1949 1.384 . S
N1953 C1945 1.427 . S
N1953 C1951 1.384 . S
H1954 C1960 0.930 . S
H1955 C1964 0.930 . S
H1956 C1969 0.929 . S
H1957 C1967 0.929 . S
H1958 C1962 0.929 . S
H1959 C1968 0.929 . S
C1960 H1954 0.930 . S
C1960 C1961 1.367 . S
C1960 C1968 1.378 . S
C1961 C1960 1.367 . S
C1961 C1969 1.433 . S
C1962 H1958 0.929 . S
C1962 C1964 1.378 . S
C1962 C1966 1.350 . S
C1963 C1966 1.463 . S
C1963 C1968 1.350 . S
C1963 N1971 1.427 . S
C1964 H1955 0.930 . S
C1964 C1962 1.378 . S
C1964 C1965 1.367 . S
C1965 C1964 1.367 . S
C1965 C1967 1.433 . S
C1966 C1962 1.350 . S
C1966 C1963 1.463 . S
C1966 N1970 1.427 . S
C1967 H1957 0.929 . S
C1967 C1965 1.433 . S
C1967 N1970 1.384 . S
C1968 H1959 0.929 . S
C1968 C1960 1.378 . S
C1968 C1963 1.350 . S
C1969 H1956 0.929 . S
C1969 C1961 1.433 . S
C1969 N1971 1.384 . S
N1970 C1966 1.427 . S
N1970 C1967 1.384 . S
N1971 C1963 1.427 . S
N1971 C1969 1.384 . S
H1972 C1978 0.930 . S
H1973 C1982 0.930 . S
H1974 C1987 0.929 . S
H1975 C1985 0.929 . S
H1976 C1980 0.929 . S
H1977 C1986 0.929 . S
C1978 H1972 0.930 . S
C1978 C1979 1.367 . S
C1978 C1986 1.378 . S
C1979 C1978 1.367 . S
C1979 C1987 1.433 . S
C1980 H1976 0.929 . S
C1980 C1982 1.378 . S
C1980 C1984 1.350 . S
C1981 C1984 1.463 . S
C1981 C1986 1.350 . S
C1981 N1989 1.427 . S
C1982 H1973 0.930 . S
C1982 C1980 1.378 . S
C1982 C1983 1.367 . S
C1983 C1982 1.367 . S
C1983 C1985 1.433 . S
C1984 C1980 1.350 . S
C1984 C1981 1.463 . S
C1984 N1988 1.427 . S
C1985 H1975 0.929 . S
C1985 C1983 1.433 . S
C1985 N1988 1.384 . S
C1986 H1977 0.929 . S
C1986 C1978 1.378 . S
C1986 C1981 1.350 . S
C1987 H1974 0.929 . S
C1987 C1979 1.433 . S
C1987 N1989 1.384 . S
N1988 C1984 1.427 . S
N1988 C1985 1.384 . S
N1989 C1981 1.427 . S
N1989 C1987 1.384 . S
H1990 C1996 0.930 . S
H1991 C2000 0.930 . S
H1992 C2005 0.929 . S
H1993 C2003 0.929 . S
H1994 C1998 0.929 . S
H1995 C2004 0.929 . S
C1996 H1990 0.930 . S
C1996 C1997 1.367 . S
C1996 C2004 1.378 . S
C1997 C1996 1.367 . S
C1997 C2005 1.433 . S
C1998 H1994 0.929 . S
C1998 C2000 1.378 . S
C1998 C2002 1.350 . S
C1999 C2002 1.463 . S
C1999 C2004 1.350 . S
C1999 N2007 1.427 . S
C2000 H1991 0.930 . S
C2000 C1998 1.378 . S
C2000 C2001 1.367 . S
C2001 C2000 1.367 . S
C2001 C2003 1.433 . S
C2002 C1998 1.350 . S
C2002 C1999 1.463 . S
C2002 N2006 1.427 . S
C2003 H1993 0.929 . S
C2003 C2001 1.433 . S
C2003 N2006 1.384 . S
C2004 H1995 0.929 . S
C2004 C1996 1.378 . S
C2004 C1999 1.350 . S
C2005 H1992 0.929 . S
C2005 C1997 1.433 . S
C2005 N2007 1.384 . S
N2006 C2002 1.427 . S
N2006 C2003 1.384 . S
N2007 C1999 1.427 . S
N2007 C2005 1.384 . S
H2008 C2014 0.930 . S
H2009 C2018 0.930 . S
H2010 C2023 0.929 . S
H2011 C2021 0.929 . S
H2012 C2016 0.929 . S
H2013 C2022 0.929 . S
C2014 H2008 0.930 . S
C2014 C2015 1.367 1_455 S
C2014 C2022 1.378 . S
C2015 C2014 1.367 1_655 S
C2015 C2023 1.433 . S
C2016 H2012 0.929 . S
C2016 C2018 1.378 . S
C2016 C2020 1.350 . S
C2017 C2020 1.463 . S
C2017 C2022 1.350 1_655 S
C2017 N2025 1.427 . S
C2018 H2009 0.930 . S
C2018 C2016 1.378 . S
C2018 C2019 1.367 . S
C2019 C2018 1.367 . S
C2019 C2021 1.433 1_655 S
C2020 C2016 1.350 . S
C2020 C2017 1.463 . S
C2020 N2024 1.427 1_655 S
C2021 H2011 0.929 . S
C2021 C2019 1.433 1_455 S
C2021 N2024 1.384 . S
C2022 H2013 0.929 . S
C2022 C2014 1.378 . S
C2022 C2017 1.350 1_455 S
C2023 H2010 0.929 . S
C2023 C2015 1.433 . S
C2023 N2025 1.384 . S
N2024 C2020 1.427 1_455 S
N2024 C2021 1.384 . S
N2025 C2017 1.427 . S
N2025 C2023 1.384 . S
H2026 C2032 0.930 . S
H2027 C2036 0.930 . S
H2028 C2041 0.929 . S
H2029 C2039 0.929 . S
H2030 C2034 0.929 . S
H2031 C2040 0.929 . S
C2032 H2026 0.930 . S
C2032 C2033 1.367 . S
C2032 C2040 1.378 . S
C2033 C2032 1.367 . S
C2033 C2041 1.433 . S
C2034 H2030 0.929 . S
C2034 C2036 1.378 . S
C2034 C2038 1.350 . S
C2035 C2038 1.463 . S
C2035 C2040 1.350 . S
C2035 N2043 1.427 . S
C2036 H2027 0.930 . S
C2036 C2034 1.378 . S
C2036 C2037 1.367 . S
C2037 C2036 1.367 . S
C2037 C2039 1.433 . S
C2038 C2034 1.350 . S
C2038 C2035 1.463 . S
C2038 N2042 1.427 . S
C2039 H2029 0.929 . S
C2039 C2037 1.433 . S
C2039 N2042 1.384 . S
C2040 H2031 0.929 . S
C2040 C2032 1.378 . S
C2040 C2035 1.350 . S
C2041 H2028 0.929 . S
C2041 C2033 1.433 . S
C2041 N2043 1.384 . S
N2042 C2038 1.427 . S
N2042 C2039 1.384 . S
N2043 C2035 1.427 . S
N2043 C2041 1.384 . S
H2044 C2050 0.930 . S
H2045 C2054 0.930 . S
H2046 C2059 0.929 . S
H2047 C2057 0.929 . S
H2048 C2052 0.929 . S
H2049 C2058 0.929 . S
C2050 H2044 0.930 . S
C2050 C2051 1.367 . S
C2050 C2058 1.378 . S
C2051 C2050 1.367 . S
C2051 C2059 1.433 . S
C2052 H2048 0.929 . S
C2052 C2054 1.378 . S
C2052 C2056 1.350 1_554 S
C2053 C2056 1.463 . S
C2053 C2058 1.350 . S
C2053 N2061 1.427 . S
C2054 H2045 0.930 . S
C2054 C2052 1.378 . S
C2054 C2055 1.367 . S
C2055 C2054 1.367 . S
C2055 C2057 1.433 1_554 S
C2056 C2052 1.350 1_556 S
C2056 C2053 1.463 . S
C2056 N2060 1.427 . S
C2057 H2047 0.929 . S
C2057 C2055 1.433 1_556 S
C2057 N2060 1.384 . S
C2058 H2049 0.929 . S
C2058 C2050 1.378 . S
C2058 C2053 1.350 . S
C2059 H2046 0.929 . S
C2059 C2051 1.433 . S
C2059 N2061 1.384 . S
N2060 C2056 1.427 . S
N2060 C2057 1.384 . S
N2061 C2053 1.427 . S
N2061 C2059 1.384 . S
H2062 C2068 0.930 . S
H2063 C2072 0.930 . S
H2064 C2077 0.929 . S
H2065 C2075 0.929 . S
H2066 C2070 0.929 . S
H2067 C2076 0.929 . S
C2068 H2062 0.930 . S
C2068 C2069 1.367 1_655 S
C2068 C2076 1.378 . S
C2069 C2068 1.367 1_455 S
C2069 C2077 1.433 . S
C2070 H2066 0.929 . S
C2070 C2072 1.378 . S
C2070 C2074 1.350 . S
C2071 C2074 1.463 . S
C2071 C2076 1.350 . S
C2071 N2079 1.408 1_655 S
C2072 H2063 0.930 . S
C2072 C2070 1.378 . S
C2072 C2073 1.367 . S
C2073 C2072 1.367 . S
C2073 C2075 1.433 . S
C2074 C2070 1.350 . S
C2074 C2071 1.463 . S
C2074 N2078 1.427 . S
C2075 H2065 0.929 . S
C2075 C2073 1.433 . S
C2075 N2078 1.384 . S
C2076 H2067 0.929 . S
C2076 C2068 1.378 . S
C2076 C2071 1.350 . S
C2077 H2064 0.929 . S
C2077 C2069 1.433 . S
C2077 N2079 1.406 . S
N2078 C2074 1.427 . S
N2078 C2075 1.384 . S
N2079 C2071 1.408 1_455 S
N2079 C2077 1.406 . S
H2080 C2086 0.930 . S
H2081 C2090 0.930 . S
H2082 C2095 0.929 . S
H2083 C2093 0.929 . S
H2084 C2088 0.929 . S
H2085 C2094 0.929 1_565 S
C2086 H2080 0.930 . S
C2086 C2087 1.367 . S
C2086 C2094 1.378 . S
C2087 C2086 1.367 . S
C2087 C2095 1.433 . S
C2088 H2084 0.929 . S
C2088 C2090 1.378 . S
C2088 C2092 1.350 . S
C2089 C2092 1.463 . S
C2089 C2094 1.350 . S
C2089 N2097 1.427 . S
C2090 H2081 0.930 . S
C2090 C2088 1.378 . S
C2090 C2091 1.367 . S
C2091 C2090 1.367 . S
C2091 C2093 1.433 1_545 S
C2092 C2088 1.350 . S
C2092 C2089 1.463 . S
C2092 N2096 1.427 1_545 S
C2093 H2083 0.929 . S
C2093 C2091 1.433 1_565 S
C2093 N2096 1.384 . S
C2094 H2085 0.929 1_545 S
C2094 C2086 1.378 . S
C2094 C2089 1.350 . S
C2095 H2082 0.929 . S
C2095 C2087 1.433 . S
C2095 N2097 1.384 . S
N2096 C2092 1.427 1_565 S
N2096 C2093 1.384 . S
N2097 C2089 1.427 . S
N2097 C2095 1.384 . S
H2098 C2104 0.930 . S
H2099 C2108 0.930 . S
H2100 C2113 0.929 . S
H2101 C2111 0.929 . S
H2102 C2106 0.929 . S
H2103 C2112 0.929 . S
C2104 H2098 0.930 . S
C2104 C2105 1.367 . S
C2104 C2112 1.378 . S
C2105 C2104 1.367 . S
C2105 C2113 1.433 . S
C2106 H2102 0.929 . S
C2106 C2108 1.378 . S
C2106 C2110 1.350 . S
C2107 C2110 1.463 . S
C2107 C2112 1.350 . S
C2107 N2115 1.427 . S
C2108 H2099 0.930 . S
C2108 C2106 1.378 . S
C2108 C2109 1.367 . S
C2109 C2108 1.367 . S
C2109 C2111 1.433 . S
C2110 C2106 1.350 . S
C2110 C2107 1.463 . S
C2110 N2114 1.427 . S
C2111 H2101 0.929 . S
C2111 C2109 1.433 . S
C2111 N2114 1.384 . S
C2112 H2103 0.929 . S
C2112 C2104 1.378 . S
C2112 C2107 1.350 . S
C2113 H2100 0.929 . S
C2113 C2105 1.433 . S
C2113 N2115 1.384 . S
N2114 C2110 1.427 . S
N2114 C2111 1.384 . S
N2115 C2107 1.427 . S
N2115 C2113 1.384 . S
H2116 C2122 0.930 . S
H2117 C2126 0.897 1_565 S
H2118 C2131 0.929 . S
H2119 C2129 0.929 . S
H2120 C2124 0.955 . S
H2121 C2130 0.929 . S
C2122 H2116 0.930 . S
C2122 C2123 1.367 . S
C2122 C2130 1.378 . S
C2123 C2122 1.367 . S
C2123 C2131 1.433 . S
C2124 H2120 0.955 . S
C2124 C2126 1.378 . S
C2124 C2128 1.350 . S
C2125 C2128 1.463 . S
C2125 C2130 1.350 . S
C2125 N2133 1.427 . S
C2126 H2117 0.897 1_545 S
C2126 C2124 1.378 . S
C2126 C2127 1.367 . S
C2127 C2126 1.367 . S
C2127 C2129 1.433 . S
C2128 C2124 1.350 . S
C2128 C2125 1.463 . S
C2128 N2132 1.427 . S
C2129 H2119 0.929 . S
C2129 C2127 1.433 . S
C2129 N2132 1.384 . S
C2130 H2121 0.929 . S
C2130 C2122 1.378 . S
C2130 C2125 1.350 . S
C2131 H2118 0.929 . S
C2131 C2123 1.433 . S
C2131 N2133 1.384 . S
N2132 C2128 1.427 . S
N2132 C2129 1.384 . S
N2133 C2125 1.427 . S
N2133 C2131 1.384 . S
H2134 C2140 0.930 . S
H2135 C2144 0.930 . S
H2136 C2149 0.929 . S
H2137 C2147 0.929 . S
H2138 C2142 0.929 . S
H2139 C2148 0.929 . S
C2140 H2134 0.930 . S
C2140 C2141 1.367 . S
C2140 C2148 1.378 . S
C2141 C2140 1.367 . S
C2141 C2149 1.433 . S
C2142 H2138 0.929 . S
C2142 C2144 1.378 . S
C2142 C2146 1.350 . S
C2143 C2146 1.463 . S
C2143 C2148 1.350 . S
C2143 N2151 1.427 . S
C2144 H2135 0.930 . S
C2144 C2142 1.378 . S
C2144 C2145 1.367 . S
C2145 C2144 1.367 . S
C2145 C2147 1.433 . S
C2146 C2142 1.350 . S
C2146 C2143 1.463 . S
C2146 N2150 1.427 . S
C2147 H2137 0.929 . S
C2147 C2145 1.433 . S
C2147 N2150 1.384 . S
C2148 H2139 0.929 . S
C2148 C2140 1.378 . S
C2148 C2143 1.350 . S
C2149 H2136 0.929 . S
C2149 C2141 1.433 . S
C2149 N2151 1.384 . S
N2150 C2146 1.427 . S
N2150 C2147 1.384 . S
N2151 C2143 1.427 . S
N2151 C2149 1.384 . S
H2152 C2158 0.930 . S
H2153 C2162 0.930 1_565 S
H2154 C2167 0.929 1_565 S
H2155 C2165 0.929 . S
H2156 C2160 0.929 1_565 S
H2157 C2166 0.929 . S
C2158 H2152 0.930 . S
C2158 C2159 1.367 . S
C2158 C2166 1.378 . S
C2159 C2158 1.367 . S
C2159 C2167 1.433 . S
C2160 H2156 0.929 1_545 S
C2160 C2162 1.378 . S
C2160 C2164 1.350 . S
C2161 C2164 1.463 . S
C2161 C2166 1.350 . S
C2161 N2169 1.427 . S
C2162 H2153 0.930 1_545 S
C2162 C2160 1.378 . S
C2162 C2163 1.367 . S
C2163 C2162 1.367 . S
C2163 C2165 1.433 . S
C2164 C2160 1.350 . S
C2164 C2161 1.463 . S
C2164 N2168 1.427 . S
C2165 H2155 0.929 . S
C2165 C2163 1.433 . S
C2165 N2168 1.384 . S
C2166 H2157 0.929 . S
C2166 C2158 1.378 . S
C2166 C2161 1.350 . S
C2167 H2154 0.929 1_545 S
C2167 C2159 1.433 . S
C2167 N2169 1.384 . S
N2168 C2164 1.427 . S
N2168 C2165 1.384 . S
N2169 C2161 1.427 . S
N2169 C2167 1.384 . S
H2170 C2176 0.930 . S
H2171 C2180 0.930 . S
H2172 C2185 0.929 . S
H2173 C2183 0.929 . S
H2174 C2178 0.929 . S
H2175 C2184 0.929 . S
C2176 H2170 0.930 . S
C2176 C2177 1.367 . S
C2176 C2184 1.378 . S
C2177 C2176 1.367 . S
C2177 C2185 1.433 . S
C2178 H2174 0.929 . S
C2178 C2180 1.378 . S
C2178 C2182 1.350 . S
C2179 C2182 1.463 . S
C2179 C2184 1.350 . S
C2179 N2187 1.427 . S
C2180 H2171 0.930 . S
C2180 C2178 1.378 . S
C2180 C2181 1.367 . S
C2181 C2180 1.367 . S
C2181 C2183 1.433 . S
C2182 C2178 1.350 . S
C2182 C2179 1.463 . S
C2182 N2186 1.427 . S
C2183 H2173 0.929 . S
C2183 C2181 1.433 . S
C2183 N2186 1.384 . S
C2184 H2175 0.929 . S
C2184 C2176 1.378 . S
C2184 C2179 1.350 . S
C2185 H2172 0.929 . S
C2185 C2177 1.433 . S
C2185 N2187 1.384 . S
N2186 C2182 1.427 . S
N2186 C2183 1.384 . S
N2187 C2179 1.427 . S
N2187 C2185 1.384 . S
H2188 C2194 0.930 . S
H2189 C2198 0.930 . S
H2190 C2203 0.908 1_565 S
H2191 C2201 0.929 . S
H2192 C2196 0.929 . S
H2193 C2202 0.929 . S
C2194 H2188 0.930 . S
C2194 C2195 1.367 . S
C2194 C2202 1.378 . S
C2195 C2194 1.367 . S
C2195 C2203 1.458 . S
C2196 H2192 0.929 . S
C2196 C2198 1.378 . S
C2196 C2200 1.350 1_565 S
C2197 C2200 1.463 . S
C2197 C2202 1.350 . S
C2197 N2205 1.427 1_545 S
C2198 H2189 0.930 . S
C2198 C2196 1.378 . S
C2198 C2199 1.367 1_565 S
C2199 C2198 1.367 1_545 S
C2199 C2201 1.433 . S
C2200 C2196 1.350 1_545 S
C2200 C2197 1.463 . S
C2200 N2204 1.427 . S
C2201 H2191 0.929 . S
C2201 C2199 1.433 . S
C2201 N2204 1.384 . S
C2202 H2193 0.929 . S
C2202 C2194 1.378 . S
C2202 C2197 1.350 . S
C2203 H2190 0.908 1_545 S
C2203 C2195 1.458 . S
C2203 N2205 1.381 1_545 S
N2204 C2200 1.427 . S
N2204 C2201 1.384 . S
N2205 C2197 1.427 1_565 S
N2205 C2203 1.381 1_565 S
H2206 C2212 0.930 . S
H2207 C2216 0.930 . S
H2208 C2221 0.929 . S
H2209 C2219 0.929 . S
H2210 C2214 0.929 . S
H2211 C2220 0.929 . S
C2212 H2206 0.930 . S
C2212 C2213 1.367 . S
C2212 C2220 1.378 . S
C2213 C2212 1.367 . S
C2213 C2221 1.433 . S
C2214 H2210 0.929 . S
C2214 C2216 1.378 . S
C2214 C2218 1.350 . S
C2215 C2218 1.463 . S
C2215 C2220 1.350 . S
C2215 N2223 1.427 . S
C2216 H2207 0.930 . S
C2216 C2214 1.378 . S
C2216 C2217 1.367 . S
C2217 C2216 1.367 . S
C2217 C2219 1.433 . S
C2218 C2214 1.350 . S
C2218 C2215 1.463 . S
C2218 N2222 1.427 . S
C2219 H2209 0.929 . S
C2219 C2217 1.433 . S
C2219 N2222 1.384 . S
C2220 H2211 0.929 . S
C2220 C2212 1.378 . S
C2220 C2215 1.350 . S
C2221 H2208 0.929 . S
C2221 C2213 1.433 . S
C2221 N2223 1.384 . S
N2222 C2218 1.427 . S
N2222 C2219 1.384 . S
N2223 C2215 1.427 . S
N2223 C2221 1.384 . S
H2224 C2230 0.930 . S
H2225 C2234 0.930 . S
H2226 C2239 0.929 . S
H2227 C2237 0.929 1_556 S
H2228 C2232 0.929 . S
H2229 C2238 0.929 . S
C2230 H2224 0.930 . S
C2230 C2231 1.367 . S
C2230 C2238 1.378 . S
C2231 C2230 1.367 . S
C2231 C2239 1.433 . S
C2232 H2228 0.929 . S
C2232 C2234 1.378 . S
C2232 C2236 1.350 . S
C2233 C2236 1.463 . S
C2233 C2238 1.350 . S
C2233 N2241 1.427 . S
C2234 H2225 0.930 . S
C2234 C2232 1.378 . S
C2234 C2235 1.367 . S
C2235 C2234 1.367 . S
C2235 C2237 1.433 . S
C2236 C2232 1.350 . S
C2236 C2233 1.463 . S
C2236 N2240 1.427 . S
C2237 H2227 0.929 1_554 S
C2237 C2235 1.433 . S
C2237 N2240 1.384 . S
C2238 H2229 0.929 . S
C2238 C2230 1.378 . S
C2238 C2233 1.350 . S
C2239 H2226 0.929 . S
C2239 C2231 1.433 . S
C2239 N2241 1.384 . S
N2240 C2236 1.427 . S
N2240 C2237 1.384 . S
N2241 C2233 1.427 . S
N2241 C2239 1.384 . S
H2242 C2248 0.930 . S
H2243 C2252 0.930 . S
H2244 C2257 0.929 . S
H2245 C2255 0.929 . S
H2246 C2250 0.929 . S
H2247 C2256 0.929 . S
C2248 H2242 0.930 . S
C2248 C2249 1.367 . S
C2248 C2256 1.378 . S
C2249 C2248 1.367 . S
C2249 C2257 1.433 . S
C2250 H2246 0.929 . S
C2250 C2252 1.378 . S
C2250 C2254 1.350 . S
C2251 C2254 1.463 . S
C2251 C2256 1.350 . S
C2251 N2259 1.427 . S
C2252 H2243 0.930 . S
C2252 C2250 1.378 . S
C2252 C2253 1.367 . S
C2253 C2252 1.367 . S
C2253 C2255 1.433 . S
C2254 C2250 1.350 . S
C2254 C2251 1.463 . S
C2254 N2258 1.427 . S
C2255 H2245 0.929 . S
C2255 C2253 1.433 . S
C2255 N2258 1.384 . S
C2256 H2247 0.929 . S
C2256 C2248 1.378 . S
C2256 C2251 1.350 . S
C2257 H2244 0.929 . S
C2257 C2249 1.433 . S
C2257 N2259 1.384 . S
N2258 C2254 1.427 . S
N2258 C2255 1.384 . S
N2259 C2251 1.427 . S
N2259 C2257 1.384 . S
H2260 C2266 0.930 . S
H2261 C2270 0.930 . S
H2262 C2275 0.929 . S
H2263 C2273 0.929 . S
H2264 C2268 0.929 . S
H2265 C2274 0.929 . S
C2266 H2260 0.930 . S
C2266 C2267 1.367 . S
C2266 C2274 1.378 . S
C2267 C2266 1.367 . S
C2267 C2275 1.433 . S
C2268 H2264 0.929 . S
C2268 C2270 1.378 . S
C2268 C2272 1.350 . S
C2269 C2272 1.463 . S
C2269 C2274 1.350 . S
C2269 N2277 1.427 . S
C2270 H2261 0.930 . S
C2270 C2268 1.378 . S
C2270 C2271 1.367 . S
C2271 C2270 1.367 . S
C2271 C2273 1.433 . S
C2272 C2268 1.350 . S
C2272 C2269 1.463 . S
C2272 N2276 1.427 . S
C2273 H2263 0.929 . S
C2273 C2271 1.433 . S
C2273 N2276 1.384 . S
C2274 H2265 0.929 . S
C2274 C2266 1.378 . S
C2274 C2269 1.350 . S
C2275 H2262 0.929 . S
C2275 C2267 1.433 . S
C2275 N2277 1.384 . S
N2276 C2272 1.427 . S
N2276 C2273 1.384 . S
N2277 C2269 1.427 . S
N2277 C2275 1.384 . S
H2278 C2284 0.930 . S
H2279 C2288 0.930 . S
H2280 C2293 0.929 . S
H2281 C2291 0.929 . S
H2282 C2286 0.929 . S
H2283 C2292 0.929 . S
C2284 H2278 0.930 . S
C2284 C2285 1.367 . S
C2284 C2292 1.378 . S
C2285 C2284 1.367 . S
C2285 C2293 1.433 . S
C2286 H2282 0.929 . S
C2286 C2288 1.378 . S
C2286 C2290 1.350 . S
C2287 C2290 1.463 . S
C2287 C2292 1.350 . S
C2287 N2295 1.427 . S
C2288 H2279 0.930 . S
C2288 C2286 1.378 . S
C2288 C2289 1.367 . S
C2289 C2288 1.367 . S
C2289 C2291 1.433 . S
C2290 C2286 1.350 . S
C2290 C2287 1.463 . S
C2290 N2294 1.427 . S
C2291 H2281 0.929 . S
C2291 C2289 1.433 . S
C2291 N2294 1.384 . S
C2292 H2283 0.929 . S
C2292 C2284 1.378 . S
C2292 C2287 1.350 . S
C2293 H2280 0.929 . S
C2293 C2285 1.433 . S
C2293 N2295 1.384 . S
N2294 C2290 1.427 . S
N2294 C2291 1.384 . S
N2295 C2287 1.427 . S
N2295 C2293 1.384 . S
H2296 C2302 0.930 . S
H2297 C2306 0.930 . S
H2298 C2311 0.929 . S
H2299 C2309 0.929 . S
H2300 C2304 0.929 . S
H2301 C2310 0.929 . S
C2302 H2296 0.930 . S
C2302 C2303 1.367 . S
C2302 C2310 1.378 . S
C2303 C2302 1.367 . S
C2303 C2311 1.433 . S
C2304 H2300 0.929 . S
C2304 C2306 1.378 . S
C2304 C2308 1.350 . S
C2305 C2308 1.463 . S
C2305 C2310 1.350 . S
C2305 N2313 1.427 . S
C2306 H2297 0.930 . S
C2306 C2304 1.378 . S
C2306 C2307 1.367 . S
C2307 C2306 1.367 . S
C2307 C2309 1.433 . S
C2308 C2304 1.350 . S
C2308 C2305 1.463 . S
C2308 N2312 1.427 . S
C2309 H2299 0.929 . S
C2309 C2307 1.433 . S
C2309 N2312 1.384 . S
C2310 H2301 0.929 . S
C2310 C2302 1.378 . S
C2310 C2305 1.350 . S
C2311 H2298 0.929 . S
C2311 C2303 1.433 . S
C2311 N2313 1.384 . S
N2312 C2308 1.427 . S
N2312 C2309 1.384 . S
N2313 C2305 1.427 . S
N2313 C2311 1.384 . S
H2314 C2320 0.930 . S
H2315 C2324 0.930 . S
H2316 C2329 0.929 . S
H2317 C2327 0.929 . S
H2318 C2322 0.929 . S
H2319 C2328 0.929 . S
C2320 H2314 0.930 . S
C2320 C2321 1.367 . S
C2320 C2328 1.378 . S
C2321 C2320 1.367 . S
C2321 C2329 1.433 . S
C2322 H2318 0.929 . S
C2322 C2324 1.378 . S
C2322 C2326 1.350 . S
C2323 C2326 1.463 . S
C2323 C2328 1.350 . S
C2323 N2331 1.427 . S
C2324 H2315 0.930 . S
C2324 C2322 1.378 . S
C2324 C2325 1.367 . S
C2325 C2324 1.367 . S
C2325 C2327 1.433 . S
C2326 C2322 1.350 . S
C2326 C2323 1.463 . S
C2326 N2330 1.427 . S
C2327 H2317 0.929 . S
C2327 C2325 1.433 . S
C2327 N2330 1.384 . S
C2328 H2319 0.929 . S
C2328 C2320 1.378 . S
C2328 C2323 1.350 . S
C2329 H2316 0.929 . S
C2329 C2321 1.433 . S
C2329 N2331 1.384 . S
N2330 C2326 1.427 . S
N2330 C2327 1.384 . S
N2331 C2323 1.427 . S
N2331 C2329 1.384 . S
H2332 C2338 0.930 . S
H2333 C2342 0.930 . S
H2334 C2347 0.929 . S
H2335 C2345 0.929 . S
H2336 C2340 0.929 . S
H2337 C2346 0.929 . S
C2338 H2332 0.930 . S
C2338 C2339 1.367 . S
C2338 C2346 1.378 . S
C2339 C2338 1.367 . S
C2339 C2347 1.433 . S
C2340 H2336 0.929 . S
C2340 C2342 1.378 . S
C2340 C2344 1.350 . S
C2341 C2344 1.463 . S
C2341 C2346 1.350 . S
C2341 N2349 1.427 . S
C2342 H2333 0.930 . S
C2342 C2340 1.378 . S
C2342 C2343 1.367 . S
C2343 C2342 1.367 . S
C2343 C2345 1.433 . S
C2344 C2340 1.350 . S
C2344 C2341 1.463 . S
C2344 N2348 1.427 . S
C2345 H2335 0.929 . S
C2345 C2343 1.433 . S
C2345 N2348 1.384 . S
C2346 H2337 0.929 . S
C2346 C2338 1.378 . S
C2346 C2341 1.350 . S
C2347 H2334 0.929 . S
C2347 C2339 1.433 . S
C2347 N2349 1.384 . S
N2348 C2344 1.427 . S
N2348 C2345 1.384 . S
N2349 C2341 1.427 . S
N2349 C2347 1.384 . S
H2350 C2356 0.930 . S
H2351 C2360 0.930 . S
H2352 C2365 0.929 . S
H2353 C2363 0.929 . S
H2354 C2358 0.929 . S
H2355 C2364 0.929 . S
C2356 H2350 0.930 . S
C2356 C2357 1.367 . S
C2356 C2364 1.378 . S
C2357 C2356 1.367 . S
C2357 C2365 1.433 . S
C2358 H2354 0.929 . S
C2358 C2360 1.378 . S
C2358 C2362 1.350 . S
C2359 C2362 1.463 . S
C2359 C2364 1.350 . S
C2359 N2367 1.427 . S
C2360 H2351 0.930 . S
C2360 C2358 1.378 . S
C2360 C2361 1.367 . S
C2361 C2360 1.367 . S
C2361 C2363 1.433 . S
C2362 C2358 1.350 . S
C2362 C2359 1.463 . S
C2362 N2366 1.427 . S
C2363 H2353 0.929 . S
C2363 C2361 1.433 . S
C2363 N2366 1.384 . S
C2364 H2355 0.929 . S
C2364 C2356 1.378 . S
C2364 C2359 1.350 . S
C2365 H2352 0.929 . S
C2365 C2357 1.433 . S
C2365 N2367 1.384 . S
N2366 C2362 1.427 . S
N2366 C2363 1.384 . S
N2367 C2359 1.427 . S
N2367 C2365 1.384 . S
H2368 C2374 0.930 . S
H2369 C2378 0.930 . S
H2370 C2383 0.929 . S
H2371 C2381 0.929 . S
H2372 C2376 0.929 . S
H2373 C2382 0.929 . S
C2374 H2368 0.930 . S
C2374 C2375 1.367 . S
C2374 C2382 1.378 . S
C2375 C2374 1.367 . S
C2375 C2383 1.433 . S
C2376 H2372 0.929 . S
C2376 C2378 1.378 . S
C2376 C2380 1.350 . S
C2377 C2380 1.463 . S
C2377 C2382 1.350 . S
C2377 N2385 1.427 . S
C2378 H2369 0.930 . S
C2378 C2376 1.378 . S
C2378 C2379 1.367 . S
C2379 C2378 1.367 . S
C2379 C2381 1.433 . S
C2380 C2376 1.350 . S
C2380 C2377 1.463 . S
C2380 N2384 1.427 . S
C2381 H2371 0.929 . S
C2381 C2379 1.433 . S
C2381 N2384 1.384 . S
C2382 H2373 0.929 . S
C2382 C2374 1.378 . S
C2382 C2377 1.350 . S
C2383 H2370 0.929 . S
C2383 C2375 1.433 . S
C2383 N2385 1.384 . S
N2384 C2380 1.427 . S
N2384 C2381 1.384 . S
N2385 C2377 1.427 . S
N2385 C2383 1.384 . S
H2386 C2392 0.930 . S
H2387 C2396 0.930 . S
H2388 C2401 0.929 . S
H2389 C2399 0.929 . S
H2390 C2394 0.929 . S
H2391 C2400 0.929 . S
C2392 H2386 0.930 . S
C2392 C2393 1.367 . S
C2392 C2400 1.378 . S
C2393 C2392 1.367 . S
C2393 C2401 1.433 . S
C2394 H2390 0.929 . S
C2394 C2396 1.378 . S
C2394 C2398 1.350 . S
C2395 C2398 1.463 . S
C2395 C2400 1.350 . S
C2395 N2403 1.427 . S
C2396 H2387 0.930 . S
C2396 C2394 1.378 . S
C2396 C2397 1.367 . S
C2397 C2396 1.367 . S
C2397 C2399 1.433 . S
C2398 C2394 1.350 . S
C2398 C2395 1.463 . S
C2398 N2402 1.427 . S
C2399 H2389 0.929 . S
C2399 C2397 1.433 . S
C2399 N2402 1.384 . S
C2400 H2391 0.929 . S
C2400 C2392 1.378 . S
C2400 C2395 1.350 . S
C2401 H2388 0.929 . S
C2401 C2393 1.433 . S
C2401 N2403 1.384 . S
N2402 C2398 1.427 . S
N2402 C2399 1.384 . S
N2403 C2395 1.427 . S
N2403 C2401 1.384 . S
H2404 C2410 0.930 1_655 S
H2405 C2414 0.930 . S
H2406 C2419 0.929 1_554 S
H2407 C2417 0.929 1_556 S
H2408 C2412 0.929 . S
H2409 C2418 0.929 1_655 S
C2410 H2404 0.930 1_455 S
C2410 C2411 1.367 . S
C2410 C2418 1.378 . S
C2411 C2410 1.367 . S
C2411 C2419 1.433 . S
C2412 H2408 0.929 . S
C2412 C2414 1.378 . S
C2412 C2416 1.350 . S
C2413 C2416 1.463 1_556 S
C2413 C2418 1.350 . S
C2413 N2421 1.427 1_556 S
C2414 H2405 0.930 . S
C2414 C2412 1.378 . S
C2414 C2415 1.367 . S
C2415 C2414 1.367 . S
C2415 C2417 1.433 . S
C2416 C2412 1.350 . S
C2416 C2413 1.463 1_554 S
C2416 N2420 1.427 1_554 S
C2417 H2407 0.929 1_554 S
C2417 C2415 1.433 . S
C2417 N2420 1.384 1_554 S
C2418 H2409 0.929 1_455 S
C2418 C2410 1.378 . S
C2418 C2413 1.350 . S
C2419 H2406 0.929 1_556 S
C2419 C2411 1.433 . S
C2419 N2421 1.384 1_556 S
N2420 C2416 1.427 1_556 S
N2420 C2417 1.384 1_556 S
N2421 C2413 1.427 1_554 S
N2421 C2419 1.384 1_554 S
H2422 C2428 0.930 . S
H2423 C2432 0.930 . S
H2424 C2437 0.929 . S
H2425 C2435 0.929 . S
H2426 C2430 0.929 . S
H2427 C2436 0.929 . S
C2428 H2422 0.930 . S
C2428 C2429 1.367 . S
C2428 C2436 1.378 . S
C2429 C2428 1.367 . S
C2429 C2437 1.433 . S
C2430 H2426 0.929 . S
C2430 C2432 1.378 . S
C2430 C2434 1.350 . S
C2431 C2434 1.463 . S
C2431 C2436 1.350 . S
C2431 N2439 1.427 . S
C2432 H2423 0.930 . S
C2432 C2430 1.378 . S
C2432 C2433 1.367 . S
C2433 C2432 1.367 . S
C2433 C2435 1.433 . S
C2434 C2430 1.350 . S
C2434 C2431 1.463 . S
C2434 N2438 1.427 . S
C2435 H2425 0.929 . S
C2435 C2433 1.433 . S
C2435 N2438 1.384 . S
C2436 H2427 0.929 . S
C2436 C2428 1.378 . S
C2436 C2431 1.350 . S
C2437 H2424 0.929 . S
C2437 C2429 1.433 . S
C2437 N2439 1.384 . S
N2438 C2434 1.427 . S
N2438 C2435 1.384 . S
N2439 C2431 1.427 . S
N2439 C2437 1.384 . S
H2440 C2446 0.930 . S
H2441 C2450 0.930 . S
H2442 C2455 0.929 . S
H2443 C2453 0.929 . S
H2444 C2448 0.929 . S
H2445 C2454 0.929 . S
C2446 H2440 0.930 . S
C2446 C2447 1.367 . S
C2446 C2454 1.378 . S
C2447 C2446 1.367 . S
C2447 C2455 1.433 . S
C2448 H2444 0.929 . S
C2448 C2450 1.378 . S
C2448 C2452 1.350 . S
C2449 C2452 1.463 . S
C2449 C2454 1.350 . S
C2449 N2457 1.427 . S
C2450 H2441 0.930 . S
C2450 C2448 1.378 . S
C2450 C2451 1.367 . S
C2451 C2450 1.367 . S
C2451 C2453 1.433 . S
C2452 C2448 1.350 . S
C2452 C2449 1.463 . S
C2452 N2456 1.427 . S
C2453 H2443 0.929 . S
C2453 C2451 1.433 . S
C2453 N2456 1.384 . S
C2454 H2445 0.929 . S
C2454 C2446 1.378 . S
C2454 C2449 1.350 . S
C2455 H2442 0.929 . S
C2455 C2447 1.433 . S
C2455 N2457 1.384 . S
N2456 C2452 1.427 . S
N2456 C2453 1.384 . S
N2457 C2449 1.427 . S
N2457 C2455 1.384 . S
H2458 C2464 0.930 . S
H2459 C2468 0.930 . S
H2460 C2473 0.929 . S
H2461 C2471 0.929 . S
H2462 C2466 0.929 . S
H2463 C2472 0.929 . S
C2464 H2458 0.930 . S
C2464 C2465 1.367 . S
C2464 C2472 1.378 . S
C2465 C2464 1.367 . S
C2465 C2473 1.433 . S
C2466 H2462 0.929 . S
C2466 C2468 1.378 . S
C2466 C2470 1.350 . S
C2467 C2470 1.463 . S
C2467 C2472 1.350 . S
C2467 N2475 1.427 . S
C2468 H2459 0.930 . S
C2468 C2466 1.378 . S
C2468 C2469 1.367 . S
C2469 C2468 1.367 . S
C2469 C2471 1.433 . S
C2470 C2466 1.350 . S
C2470 C2467 1.463 . S
C2470 N2474 1.427 . S
C2471 H2461 0.929 . S
C2471 C2469 1.433 . S
C2471 N2474 1.384 . S
C2472 H2463 0.929 . S
C2472 C2464 1.378 . S
C2472 C2467 1.350 . S
C2473 H2460 0.929 . S
C2473 C2465 1.433 . S
C2473 N2475 1.384 . S
N2474 C2470 1.427 . S
N2474 C2471 1.384 . S
N2475 C2467 1.427 . S
N2475 C2473 1.384 . S
H2476 C2482 0.930 . S
H2477 C2486 0.930 . S
H2478 C2491 0.929 . S
H2479 C2489 0.929 . S
H2480 C2484 0.929 . S
H2481 C2490 0.929 . S
C2482 H2476 0.930 . S
C2482 C2483 1.367 . S
C2482 C2490 1.378 . S
C2483 C2482 1.367 . S
C2483 C2491 1.433 . S
C2484 H2480 0.929 . S
C2484 C2486 1.378 . S
C2484 C2488 1.350 . S
C2485 C2488 1.463 . S
C2485 C2490 1.350 . S
C2485 N2493 1.427 . S
C2486 H2477 0.930 . S
C2486 C2484 1.378 . S
C2486 C2487 1.367 . S
C2487 C2486 1.367 . S
C2487 C2489 1.433 . S
C2488 C2484 1.350 . S
C2488 C2485 1.463 . S
C2488 N2492 1.427 . S
C2489 H2479 0.929 . S
C2489 C2487 1.433 . S
C2489 N2492 1.384 . S
C2490 H2481 0.929 . S
C2490 C2482 1.378 . S
C2490 C2485 1.350 . S
C2491 H2478 0.929 . S
C2491 C2483 1.433 . S
C2491 N2493 1.384 . S
N2492 C2488 1.427 . S
N2492 C2489 1.384 . S
N2493 C2485 1.427 . S
N2493 C2491 1.384 . S
H2494 C2500 0.930 . S
H2495 C2504 0.930 . S
H2496 C2509 0.929 . S
H2497 C2507 0.929 . S
H2498 C2502 0.929 . S
H2499 C2508 0.929 . S
C2500 H2494 0.930 . S
C2500 C2501 1.367 . S
C2500 C2508 1.378 . S
C2501 C2500 1.367 . S
C2501 C2509 1.433 . S
C2502 H2498 0.929 . S
C2502 C2504 1.378 . S
C2502 C2506 1.350 . S
C2503 C2506 1.463 . S
C2503 C2508 1.350 . S
C2503 N2511 1.427 . S
C2504 H2495 0.930 . S
C2504 C2502 1.378 . S
C2504 C2505 1.367 . S
C2505 C2504 1.367 . S
C2505 C2507 1.433 . S
C2506 C2502 1.350 . S
C2506 C2503 1.463 . S
C2506 N2510 1.427 . S
C2507 H2497 0.929 . S
C2507 C2505 1.433 . S
C2507 N2510 1.384 . S
C2508 H2499 0.929 . S
C2508 C2500 1.378 . S
C2508 C2503 1.350 . S
C2509 H2496 0.929 . S
C2509 C2501 1.433 . S
C2509 N2511 1.384 . S
N2510 C2506 1.427 . S
N2510 C2507 1.384 . S
N2511 C2503 1.427 . S
N2511 C2509 1.384 . S
H2512 C2518 0.930 . S
H2513 C2522 0.930 . S
H2514 C2527 0.929 . S
H2515 C2525 0.929 . S
H2516 C2520 0.929 . S
H2517 C2526 0.929 . S
C2518 H2512 0.930 . S
C2518 C2519 1.367 . S
C2518 C2526 1.378 . S
C2519 C2518 1.367 . S
C2519 C2527 1.433 . S
C2520 H2516 0.929 . S
C2520 C2522 1.378 . S
C2520 C2524 1.350 . S
C2521 C2524 1.463 . S
C2521 C2526 1.350 . S
C2521 N2529 1.427 . S
C2522 H2513 0.930 . S
C2522 C2520 1.378 . S
C2522 C2523 1.367 . S
C2523 C2522 1.367 . S
C2523 C2525 1.433 . S
C2524 C2520 1.350 . S
C2524 C2521 1.463 . S
C2524 N2528 1.427 . S
C2525 H2515 0.929 . S
C2525 C2523 1.433 . S
C2525 N2528 1.384 . S
C2526 H2517 0.929 . S
C2526 C2518 1.378 . S
C2526 C2521 1.350 . S
C2527 H2514 0.929 . S
C2527 C2519 1.433 . S
C2527 N2529 1.384 . S
N2528 C2524 1.427 . S
N2528 C2525 1.384 . S
N2529 C2521 1.427 . S
N2529 C2527 1.384 . S
H2530 C2536 0.930 . S
H2531 C2540 0.930 . S
H2532 C2545 0.929 . S
H2533 C2543 0.929 . S
H2534 C2538 0.929 . S
H2535 C2544 0.929 . S
C2536 H2530 0.930 . S
C2536 C2537 1.367 . S
C2536 C2544 1.378 . S
C2537 C2536 1.367 . S
C2537 C2545 1.433 . S
C2538 H2534 0.929 . S
C2538 C2540 1.378 . S
C2538 C2542 1.350 . S
C2539 C2542 1.463 . S
C2539 C2544 1.350 1_556 S
C2539 N2547 1.427 1_556 S
C2540 H2531 0.930 . S
C2540 C2538 1.378 . S
C2540 C2541 1.367 . S
C2541 C2540 1.367 . S
C2541 C2543 1.433 . S
C2542 C2538 1.350 . S
C2542 C2539 1.463 . S
C2542 N2546 1.427 . S
C2543 H2533 0.929 . S
C2543 C2541 1.433 . S
C2543 N2546 1.384 . S
C2544 H2535 0.929 . S
C2544 C2536 1.378 . S
C2544 C2539 1.350 1_554 S
C2545 H2532 0.929 . S
C2545 C2537 1.433 . S
C2545 N2547 1.384 . S
N2546 C2542 1.427 . S
N2546 C2543 1.384 . S
N2547 C2539 1.427 1_554 S
N2547 C2545 1.384 . S
H2548 C2554 0.930 . S
H2549 C2558 0.930 . S
H2550 C2563 0.929 . S
H2551 C2561 0.929 . S
H2552 C2556 0.929 . S
H2553 C2562 0.929 . S
C2554 H2548 0.930 . S
C2554 C2555 1.367 . S
C2554 C2562 1.378 . S
C2555 C2554 1.367 . S
C2555 C2563 1.433 . S
C2556 H2552 0.929 . S
C2556 C2558 1.378 . S
C2556 C2560 1.350 . S
C2557 C2560 1.463 . S
C2557 C2562 1.350 . S
C2557 N2565 1.427 . S
C2558 H2549 0.930 . S
C2558 C2556 1.378 . S
C2558 C2559 1.367 . S
C2559 C2558 1.367 . S
C2559 C2561 1.433 . S
C2560 C2556 1.350 . S
C2560 C2557 1.463 . S
C2560 N2564 1.427 . S
C2561 H2551 0.929 . S
C2561 C2559 1.433 . S
C2561 N2564 1.384 . S
C2562 H2553 0.929 . S
C2562 C2554 1.378 . S
C2562 C2557 1.350 . S
C2563 H2550 0.929 . S
C2563 C2555 1.433 . S
C2563 N2565 1.384 . S
N2564 C2560 1.427 . S
N2564 C2561 1.384 . S
N2565 C2557 1.427 . S
N2565 C2563 1.384 . S
H2566 C2572 0.930 . S
H2567 C2576 0.930 . S
H2568 C2581 0.929 . S
H2569 C2579 0.929 . S
H2570 C2574 0.929 . S
H2571 C2580 0.929 . S
C2572 H2566 0.930 . S
C2572 C2573 1.367 . S
C2572 C2580 1.378 . S
C2573 C2572 1.367 . S
C2573 C2581 1.433 . S
C2574 H2570 0.929 . S
C2574 C2576 1.378 . S
C2574 C2578 1.350 . S
C2575 C2578 1.463 . S
C2575 C2580 1.350 . S
C2575 N2583 1.427 . S
C2576 H2567 0.930 . S
C2576 C2574 1.378 . S
C2576 C2577 1.367 . S
C2577 C2576 1.367 . S
C2577 C2579 1.433 . S
C2578 C2574 1.350 . S
C2578 C2575 1.463 . S
C2578 N2582 1.427 . S
C2579 H2569 0.929 . S
C2579 C2577 1.433 . S
C2579 N2582 1.384 . S
C2580 H2571 0.929 . S
C2580 C2572 1.378 . S
C2580 C2575 1.350 . S
C2581 H2568 0.929 . S
C2581 C2573 1.433 . S
C2581 N2583 1.384 . S
N2582 C2578 1.427 . S
N2582 C2579 1.384 . S
N2583 C2575 1.427 . S
N2583 C2581 1.384 . S
H2584 C2590 0.930 . S
H2585 C2594 0.930 . S
H2586 C2599 0.929 . S
H2587 C2597 0.929 . S
H2588 C2592 0.929 . S
H2589 C2598 0.929 . S
C2590 H2584 0.930 . S
C2590 C2591 1.367 . S
C2590 C2598 1.378 . S
C2591 C2590 1.367 . S
C2591 C2599 1.433 . S
C2592 H2588 0.929 . S
C2592 C2594 1.378 . S
C2592 C2596 1.350 . S
C2593 C2596 1.463 . S
C2593 C2598 1.350 . S
C2593 N2601 1.427 . S
C2594 H2585 0.930 . S
C2594 C2592 1.378 . S
C2594 C2595 1.367 . S
C2595 C2594 1.367 . S
C2595 C2597 1.433 . S
C2596 C2592 1.350 . S
C2596 C2593 1.463 . S
C2596 N2600 1.427 . S
C2597 H2587 0.929 . S
C2597 C2595 1.433 . S
C2597 N2600 1.384 . S
C2598 H2589 0.929 . S
C2598 C2590 1.378 . S
C2598 C2593 1.350 . S
C2599 H2586 0.929 . S
C2599 C2591 1.433 . S
C2599 N2601 1.384 . S
N2600 C2596 1.427 . S
N2600 C2597 1.384 . S
N2601 C2593 1.427 . S
N2601 C2599 1.384 . S
H2602 C2608 0.930 . S
H2603 C2612 0.930 . S
H2604 C2617 0.929 . S
H2605 C2615 0.929 . S
H2606 C2610 0.929 . S
H2607 C2616 0.929 . S
C2608 H2602 0.930 . S
C2608 C2609 1.367 . S
C2608 C2616 1.378 . S
C2609 C2608 1.367 . S
C2609 C2617 1.433 . S
C2610 H2606 0.929 . S
C2610 C2612 1.378 . S
C2610 C2614 1.350 . S
C2611 C2614 1.463 . S
C2611 C2616 1.350 . S
C2611 N2619 1.427 . S
C2612 H2603 0.930 . S
C2612 C2610 1.378 . S
C2612 C2613 1.367 . S
C2613 C2612 1.367 . S
C2613 C2615 1.433 . S
C2614 C2610 1.350 . S
C2614 C2611 1.463 . S
C2614 N2618 1.427 . S
C2615 H2605 0.929 . S
C2615 C2613 1.433 . S
C2615 N2618 1.384 . S
C2616 H2607 0.929 . S
C2616 C2608 1.378 . S
C2616 C2611 1.350 . S
C2617 H2604 0.929 . S
C2617 C2609 1.433 . S
C2617 N2619 1.384 . S
N2618 C2614 1.427 . S
N2618 C2615 1.384 . S
N2619 C2611 1.427 . S
N2619 C2617 1.384 . S
H2620 C2626 0.930 . S
H2621 C2630 0.930 . S
H2622 C2635 0.929 . S
H2623 C2633 0.929 . S
H2624 C2628 0.929 . S
H2625 C2634 0.929 . S
C2626 H2620 0.930 . S
C2626 C2627 1.367 . S
C2626 C2634 1.378 . S
C2627 C2626 1.367 . S
C2627 C2635 1.433 . S
C2628 H2624 0.929 . S
C2628 C2630 1.378 . S
C2628 C2632 1.350 . S
C2629 C2632 1.463 . S
C2629 C2634 1.350 . S
C2629 N2637 1.427 . S
C2630 H2621 0.930 . S
C2630 C2628 1.378 . S
C2630 C2631 1.367 . S
C2631 C2630 1.367 . S
C2631 C2633 1.433 . S
C2632 C2628 1.350 . S
C2632 C2629 1.463 . S
C2632 N2636 1.427 . S
C2633 H2623 0.929 . S
C2633 C2631 1.433 . S
C2633 N2636 1.384 . S
C2634 H2625 0.929 . S
C2634 C2626 1.378 . S
C2634 C2629 1.350 . S
C2635 H2622 0.929 . S
C2635 C2627 1.433 . S
C2635 N2637 1.384 . S
N2636 C2632 1.427 . S
N2636 C2633 1.384 . S
N2637 C2629 1.427 . S
N2637 C2635 1.384 . S
H2638 C2644 0.930 . S
H2639 C2648 0.930 . S
H2640 C2653 0.929 . S
H2641 C2651 0.929 . S
H2642 C2646 0.929 . S
H2643 C2652 0.929 . S
C2644 H2638 0.930 . S
C2644 C2645 1.367 . S
C2644 C2652 1.378 . S
C2645 C2644 1.367 . S
C2645 C2653 1.433 . S
C2646 H2642 0.929 . S
C2646 C2648 1.378 . S
C2646 C2650 1.350 . S
C2647 C2650 1.463 . S
C2647 C2652 1.350 . S
C2647 N2655 1.427 . S
C2648 H2639 0.930 . S
C2648 C2646 1.378 . S
C2648 C2649 1.367 . S
C2649 C2648 1.367 . S
C2649 C2651 1.433 . S
C2650 C2646 1.350 . S
C2650 C2647 1.463 . S
C2650 N2654 1.427 . S
C2651 H2641 0.929 . S
C2651 C2649 1.433 . S
C2651 N2654 1.384 . S
C2652 H2643 0.929 . S
C2652 C2644 1.378 . S
C2652 C2647 1.350 . S
C2653 H2640 0.929 . S
C2653 C2645 1.433 . S
C2653 N2655 1.384 . S
N2654 C2650 1.427 . S
N2654 C2651 1.384 . S
N2655 C2647 1.427 . S
N2655 C2653 1.384 . S
H2656 C2662 0.930 . S
H2657 C2666 0.930 . S
H2658 C2671 0.929 . S
H2659 C2669 0.929 . S
H2660 C2664 0.929 . S
H2661 C2670 0.929 . S
C2662 H2656 0.930 . S
C2662 C2663 1.367 . S
C2662 C2670 1.378 . S
C2663 C2662 1.367 . S
C2663 C2671 1.433 . S
C2664 H2660 0.929 . S
C2664 C2666 1.378 . S
C2664 C2668 1.350 . S
C2665 C2668 1.463 . S
C2665 C2670 1.350 . S
C2665 N2673 1.427 . S
C2666 H2657 0.930 . S
C2666 C2664 1.378 . S
C2666 C2667 1.367 . S
C2667 C2666 1.367 . S
C2667 C2669 1.433 . S
C2668 C2664 1.350 . S
C2668 C2665 1.463 . S
C2668 N2672 1.427 . S
C2669 H2659 0.929 . S
C2669 C2667 1.433 . S
C2669 N2672 1.384 . S
C2670 H2661 0.929 . S
C2670 C2662 1.378 . S
C2670 C2665 1.350 . S
C2671 H2658 0.929 . S
C2671 C2663 1.433 . S
C2671 N2673 1.384 . S
N2672 C2668 1.427 . S
N2672 C2669 1.384 . S
N2673 C2665 1.427 . S
N2673 C2671 1.384 . S
H2674 C2680 0.930 . S
H2675 C2684 0.930 . S
H2676 C2689 0.929 . S
H2677 C2687 0.929 . S
H2678 C2682 0.929 . S
H2679 C2688 0.929 . S
C2680 H2674 0.930 . S
C2680 C2681 1.367 . S
C2680 C2688 1.378 . S
C2681 C2680 1.367 . S
C2681 C2689 1.433 . S
C2682 H2678 0.929 . S
C2682 C2684 1.378 . S
C2682 C2686 1.350 . S
C2683 C2686 1.463 . S
C2683 C2688 1.350 . S
C2683 N2691 1.427 . S
C2684 H2675 0.930 . S
C2684 C2682 1.378 . S
C2684 C2685 1.367 . S
C2685 C2684 1.367 . S
C2685 C2687 1.433 . S
C2686 C2682 1.350 . S
C2686 C2683 1.463 . S
C2686 N2690 1.427 . S
C2687 H2677 0.929 . S
C2687 C2685 1.433 . S
C2687 N2690 1.384 . S
C2688 H2679 0.929 . S
C2688 C2680 1.378 . S
C2688 C2683 1.350 . S
C2689 H2676 0.929 . S
C2689 C2681 1.433 . S
C2689 N2691 1.384 . S
N2690 C2686 1.427 . S
N2690 C2687 1.384 . S
N2691 C2683 1.427 . S
N2691 C2689 1.384 . S
H2692 C2698 0.930 . S
H2693 C2702 0.930 . S
H2694 C2707 0.929 . S
H2695 C2705 0.929 . S
H2696 C2700 0.929 . S
H2697 C2706 0.929 . S
C2698 H2692 0.930 . S
C2698 C2699 1.367 . S
C2698 C2706 1.378 . S
C2699 C2698 1.367 . S
C2699 C2707 1.433 . S
C2700 H2696 0.929 . S
C2700 C2702 1.378 . S
C2700 C2704 1.350 . S
C2701 C2704 1.463 . S
C2701 C2706 1.350 . S
C2701 N2709 1.427 . S
C2702 H2693 0.930 . S
C2702 C2700 1.378 . S
C2702 C2703 1.367 . S
C2703 C2702 1.367 . S
C2703 C2705 1.433 . S
C2704 C2700 1.350 . S
C2704 C2701 1.463 . S
C2704 N2708 1.427 . S
C2705 H2695 0.929 . S
C2705 C2703 1.433 . S
C2705 N2708 1.384 . S
C2706 H2697 0.929 . S
C2706 C2698 1.378 . S
C2706 C2701 1.350 . S
C2707 H2694 0.929 . S
C2707 C2699 1.433 . S
C2707 N2709 1.384 . S
N2708 C2704 1.427 . S
N2708 C2705 1.384 . S
N2709 C2701 1.427 . S
N2709 C2707 1.384 . S
H2710 C2716 0.930 . S
H2711 C2720 0.930 . S
H2712 C2725 0.929 . S
H2713 C2723 0.929 1_556 S
H2714 C2718 0.929 . S
H2715 C2724 0.929 . S
C2716 H2710 0.930 . S
C2716 C2717 1.367 1_556 S
C2716 C2724 1.378 . S
C2717 C2716 1.367 1_554 S
C2717 C2725 1.433 . S
C2718 H2714 0.929 . S
C2718 C2720 1.378 . S
C2718 C2722 1.350 . S
C2719 C2722 1.463 . S
C2719 C2724 1.350 1_554 S
C2719 N2727 1.427 . S
C2720 H2711 0.930 . S
C2720 C2718 1.378 . S
C2720 C2721 1.367 . S
C2721 C2720 1.367 . S
C2721 C2723 1.433 . S
C2722 C2718 1.350 . S
C2722 C2719 1.463 . S
C2722 N2726 1.412 1_554 S
C2723 H2713 0.929 1_554 S
C2723 C2721 1.433 . S
C2723 N2726 1.385 1_554 S
C2724 H2715 0.929 . S
C2724 C2716 1.378 . S
C2724 C2719 1.350 1_556 S
C2725 H2712 0.929 . S
C2725 C2717 1.433 . S
C2725 N2727 1.384 . S
N2726 C2722 1.412 1_556 S
N2726 C2723 1.385 1_556 S
N2727 C2719 1.427 . S
N2727 C2725 1.384 . S
H2728 C2734 0.930 . S
H2729 C2738 0.930 . S
H2730 C2743 0.929 . S
H2731 C2741 0.929 . S
H2732 C2736 0.929 . S
H2733 C2742 0.929 . S
C2734 H2728 0.930 . S
C2734 C2735 1.367 . S
C2734 C2742 1.378 . S
C2735 C2734 1.367 . S
C2735 C2743 1.433 . S
C2736 H2732 0.929 . S
C2736 C2738 1.378 . S
C2736 C2740 1.350 . S
C2737 C2740 1.463 . S
C2737 C2742 1.350 . S
C2737 N2745 1.427 . S
C2738 H2729 0.930 . S
C2738 C2736 1.378 . S
C2738 C2739 1.367 . S
C2739 C2738 1.367 . S
C2739 C2741 1.433 . S
C2740 C2736 1.350 . S
C2740 C2737 1.463 . S
C2740 N2744 1.427 . S
C2741 H2731 0.929 . S
C2741 C2739 1.433 . S
C2741 N2744 1.384 . S
C2742 H2733 0.929 . S
C2742 C2734 1.378 . S
C2742 C2737 1.350 . S
C2743 H2730 0.929 . S
C2743 C2735 1.433 . S
C2743 N2745 1.384 . S
N2744 C2740 1.427 . S
N2744 C2741 1.384 . S
N2745 C2737 1.427 . S
N2745 C2743 1.384 . S
H2746 C2752 0.930 . S
H2747 C2756 0.930 . S
H2748 C2761 0.929 . S
H2749 C2759 0.929 . S
H2750 C2754 0.929 . S
H2751 C2760 0.929 . S
C2752 H2746 0.930 . S
C2752 C2753 1.367 . S
C2752 C2760 1.378 . S
C2753 C2752 1.367 . S
C2753 C2761 1.433 . S
C2754 H2750 0.929 . S
C2754 C2756 1.378 . S
C2754 C2758 1.350 . S
C2755 C2758 1.463 . S
C2755 C2760 1.350 . S
C2755 N2763 1.427 . S
C2756 H2747 0.930 . S
C2756 C2754 1.378 . S
C2756 C2757 1.367 . S
C2757 C2756 1.367 . S
C2757 C2759 1.433 . S
C2758 C2754 1.350 . S
C2758 C2755 1.463 . S
C2758 N2762 1.427 . S
C2759 H2749 0.929 . S
C2759 C2757 1.433 . S
C2759 N2762 1.384 . S
C2760 H2751 0.929 . S
C2760 C2752 1.378 . S
C2760 C2755 1.350 . S
C2761 H2748 0.929 . S
C2761 C2753 1.433 . S
C2761 N2763 1.384 . S
N2762 C2758 1.427 . S
N2762 C2759 1.384 . S
N2763 C2755 1.427 . S
N2763 C2761 1.384 . S
H2764 C2770 0.930 . S
H2765 C2774 0.930 . S
H2766 C2779 0.929 . S
H2767 C2777 0.929 . S
H2768 C2772 0.929 . S
H2769 C2778 0.929 . S
C2770 H2764 0.930 . S
C2770 C2771 1.367 . S
C2770 C2778 1.378 . S
C2771 C2770 1.367 . S
C2771 C2779 1.433 . S
C2772 H2768 0.929 . S
C2772 C2774 1.378 . S
C2772 C2776 1.350 . S
C2773 C2776 1.463 . S
C2773 C2778 1.350 . S
C2773 N2781 1.427 . S
C2774 H2765 0.930 . S
C2774 C2772 1.378 . S
C2774 C2775 1.367 . S
C2775 C2774 1.367 . S
C2775 C2777 1.433 . S
C2776 C2772 1.350 . S
C2776 C2773 1.463 . S
C2776 N2780 1.427 . S
C2777 H2767 0.929 . S
C2777 C2775 1.433 . S
C2777 N2780 1.384 . S
C2778 H2769 0.929 . S
C2778 C2770 1.378 . S
C2778 C2773 1.350 . S
C2779 H2766 0.929 . S
C2779 C2771 1.433 . S
C2779 N2781 1.384 . S
N2780 C2776 1.427 . S
N2780 C2777 1.384 . S
N2781 C2773 1.427 . S
N2781 C2779 1.384 . S
H2782 C2788 0.930 . S
H2783 C2792 0.930 . S
H2784 C2797 0.929 . S
H2785 C2795 0.929 . S
H2786 C2790 0.929 . S
H2787 C2796 0.929 . S
C2788 H2782 0.930 . S
C2788 C2789 1.367 . S
C2788 C2796 1.378 . S
C2789 C2788 1.367 . S
C2789 C2797 1.433 . S
C2790 H2786 0.929 . S
C2790 C2792 1.378 . S
C2790 C2794 1.350 . S
C2791 C2794 1.463 . S
C2791 C2796 1.350 . S
C2791 N2799 1.427 . S
C2792 H2783 0.930 . S
C2792 C2790 1.378 . S
C2792 C2793 1.367 . S
C2793 C2792 1.367 . S
C2793 C2795 1.433 . S
C2794 C2790 1.350 . S
C2794 C2791 1.463 . S
C2794 N2798 1.427 . S
C2795 H2785 0.929 . S
C2795 C2793 1.433 . S
C2795 N2798 1.384 . S
C2796 H2787 0.929 . S
C2796 C2788 1.378 . S
C2796 C2791 1.350 . S
C2797 H2784 0.929 . S
C2797 C2789 1.433 . S
C2797 N2799 1.384 . S
N2798 C2794 1.427 . S
N2798 C2795 1.384 . S
N2799 C2791 1.427 . S
N2799 C2797 1.384 . S
H2800 C2806 0.930 . S
H2801 C2810 0.930 . S
H2802 C2815 0.929 . S
H2803 C2813 0.929 . S
H2804 C2808 0.929 . S
H2805 C2814 0.929 . S
C2806 H2800 0.930 . S
C2806 C2807 1.367 . S
C2806 C2814 1.378 . S
C2807 C2806 1.367 . S
C2807 C2815 1.433 . S
C2808 H2804 0.929 . S
C2808 C2810 1.378 . S
C2808 C2812 1.350 . S
C2809 C2812 1.463 . S
C2809 C2814 1.350 . S
C2809 N2817 1.427 . S
C2810 H2801 0.930 . S
C2810 C2808 1.378 . S
C2810 C2811 1.367 . S
C2811 C2810 1.367 . S
C2811 C2813 1.433 . S
C2812 C2808 1.350 . S
C2812 C2809 1.463 . S
C2812 N2816 1.427 . S
C2813 H2803 0.929 . S
C2813 C2811 1.433 . S
C2813 N2816 1.384 . S
C2814 H2805 0.929 . S
C2814 C2806 1.378 . S
C2814 C2809 1.350 . S
C2815 H2802 0.929 . S
C2815 C2807 1.433 . S
C2815 N2817 1.384 . S
N2816 C2812 1.427 . S
N2816 C2813 1.384 . S
N2817 C2809 1.427 . S
N2817 C2815 1.384 . S
H2818 C2824 0.930 . S
H2819 C2828 0.930 . S
H2820 C2833 0.929 . S
H2821 C2831 0.929 . S
H2822 C2826 0.929 . S
H2823 C2832 0.929 . S
C2824 H2818 0.930 . S
C2824 C2825 1.367 . S
C2824 C2832 1.378 . S
C2825 C2824 1.367 . S
C2825 C2833 1.433 . S
C2826 H2822 0.929 . S
C2826 C2828 1.378 . S
C2826 C2830 1.350 . S
C2827 C2830 1.463 . S
C2827 C2832 1.350 . S
C2827 N2835 1.427 . S
C2828 H2819 0.930 . S
C2828 C2826 1.378 . S
C2828 C2829 1.367 . S
C2829 C2828 1.367 . S
C2829 C2831 1.433 . S
C2830 C2826 1.350 . S
C2830 C2827 1.463 . S
C2830 N2834 1.427 . S
C2831 H2821 0.929 . S
C2831 C2829 1.433 . S
C2831 N2834 1.384 . S
C2832 H2823 0.929 . S
C2832 C2824 1.378 . S
C2832 C2827 1.350 . S
C2833 H2820 0.929 . S
C2833 C2825 1.433 . S
C2833 N2835 1.384 . S
N2834 C2830 1.427 . S
N2834 C2831 1.384 . S
N2835 C2827 1.427 . S
N2835 C2833 1.384 . S
H2836 C2842 0.930 . S
H2837 C2846 0.930 . S
H2838 C2851 0.929 . S
H2839 C2849 0.929 . S
H2840 C2844 0.929 . S
H2841 C2850 0.929 . S
C2842 H2836 0.930 . S
C2842 C2843 1.367 . S
C2842 C2850 1.378 . S
C2843 C2842 1.367 . S
C2843 C2851 1.433 . S
C2844 H2840 0.929 . S
C2844 C2846 1.378 . S
C2844 C2848 1.350 . S
C2845 C2848 1.463 . S
C2845 C2850 1.350 . S
C2845 N2853 1.427 . S
C2846 H2837 0.930 . S
C2846 C2844 1.378 . S
C2846 C2847 1.367 . S
C2847 C2846 1.367 . S
C2847 C2849 1.433 . S
C2848 C2844 1.350 . S
C2848 C2845 1.463 . S
C2848 N2852 1.427 . S
C2849 H2839 0.929 . S
C2849 C2847 1.433 . S
C2849 N2852 1.384 . S
C2850 H2841 0.929 . S
C2850 C2842 1.378 . S
C2850 C2845 1.350 . S
C2851 H2838 0.929 . S
C2851 C2843 1.433 . S
C2851 N2853 1.384 . S
N2852 C2848 1.427 . S
N2852 C2849 1.384 . S
N2853 C2845 1.427 . S
N2853 C2851 1.384 . S
H2854 C2860 0.930 . S
H2855 C2864 0.930 . S
H2856 C2869 0.929 . S
H2857 C2867 0.929 . S
H2858 C2862 0.929 . S
H2859 C2868 0.929 . S
C2860 H2854 0.930 . S
C2860 C2861 1.367 . S
C2860 C2868 1.378 . S
C2861 C2860 1.367 . S
C2861 C2869 1.433 . S
C2862 H2858 0.929 . S
C2862 C2864 1.378 . S
C2862 C2866 1.350 . S
C2863 C2866 1.463 . S
C2863 C2868 1.350 . S
C2863 N2871 1.427 . S
C2864 H2855 0.930 . S
C2864 C2862 1.378 . S
C2864 C2865 1.367 . S
C2865 C2864 1.367 . S
C2865 C2867 1.433 . S
C2866 C2862 1.350 . S
C2866 C2863 1.463 . S
C2866 N2870 1.427 . S
C2867 H2857 0.929 . S
C2867 C2865 1.433 . S
C2867 N2870 1.384 . S
C2868 H2859 0.929 . S
C2868 C2860 1.378 . S
C2868 C2863 1.350 . S
C2869 H2856 0.929 . S
C2869 C2861 1.433 . S
C2869 N2871 1.384 . S
N2870 C2866 1.427 . S
N2870 C2867 1.384 . S
N2871 C2863 1.427 . S
N2871 C2869 1.384 . S
H2872 C2878 0.930 . S
H2873 C2882 0.930 . S
H2874 C2887 0.929 . S
H2875 C2885 0.929 . S
H2876 C2880 0.929 . S
H2877 C2886 0.929 . S
C2878 H2872 0.930 . S
C2878 C2879 1.367 . S
C2878 C2886 1.378 . S
C2879 C2878 1.367 . S
C2879 C2887 1.433 . S
C2880 H2876 0.929 . S
C2880 C2882 1.378 . S
C2880 C2884 1.350 . S
C2881 C2884 1.463 . S
C2881 C2886 1.350 . S
C2881 N2889 1.427 . S
C2882 H2873 0.930 . S
C2882 C2880 1.378 . S
C2882 C2883 1.367 . S
C2883 C2882 1.367 . S
C2883 C2885 1.433 . S
C2884 C2880 1.350 . S
C2884 C2881 1.463 . S
C2884 N2888 1.427 . S
C2885 H2875 0.929 . S
C2885 C2883 1.433 . S
C2885 N2888 1.384 . S
C2886 H2877 0.929 . S
C2886 C2878 1.378 . S
C2886 C2881 1.350 . S
C2887 H2874 0.929 . S
C2887 C2879 1.433 . S
C2887 N2889 1.384 . S
N2888 C2884 1.427 . S
N2888 C2885 1.384 . S
N2889 C2881 1.427 . S
N2889 C2887 1.384 . S
H2890 C2896 0.930 . S
H2891 C2900 0.930 . S
H2892 C2905 0.929 . S
H2893 C2903 0.929 . S
H2894 C2898 0.929 . S
H2895 C2904 0.929 . S
C2896 H2890 0.930 . S
C2896 C2897 1.367 . S
C2896 C2904 1.378 . S
C2897 C2896 1.367 . S
C2897 C2905 1.433 . S
C2898 H2894 0.929 . S
C2898 C2900 1.378 . S
C2898 C2902 1.350 . S
C2899 C2902 1.463 . S
C2899 C2904 1.350 . S
C2899 N2907 1.427 . S
C2900 H2891 0.930 . S
C2900 C2898 1.378 . S
C2900 C2901 1.367 . S
C2901 C2900 1.367 . S
C2901 C2903 1.433 . S
C2902 C2898 1.350 . S
C2902 C2899 1.463 . S
C2902 N2906 1.427 . S
C2903 H2893 0.929 . S
C2903 C2901 1.433 . S
C2903 N2906 1.384 . S
C2904 H2895 0.929 . S
C2904 C2896 1.378 . S
C2904 C2899 1.350 . S
C2905 H2892 0.929 . S
C2905 C2897 1.433 . S
C2905 N2907 1.384 . S
N2906 C2902 1.427 . S
N2906 C2903 1.384 . S
N2907 C2899 1.427 . S
N2907 C2905 1.384 . S
H2908 C2914 0.930 . S
H2909 C2918 0.930 . S
H2910 C2923 0.929 1_655 S
H2911 C2921 0.929 . S
H2912 C2916 0.929 . S
H2913 C2922 0.929 . S
C2914 H2908 0.930 . S
C2914 C2915 1.367 . S
C2914 C2922 1.378 . S
C2915 C2914 1.367 . S
C2915 C2923 1.433 . S
C2916 H2912 0.929 . S
C2916 C2918 1.378 . S
C2916 C2920 1.350 . S
C2917 C2920 1.463 . S
C2917 C2922 1.350 . S
C2917 N2925 1.427 . S
C2918 H2909 0.930 . S
C2918 C2916 1.378 . S
C2918 C2919 1.367 . S
C2919 C2918 1.367 . S
C2919 C2921 1.433 . S
C2920 C2916 1.350 . S
C2920 C2917 1.463 . S
C2920 N2924 1.427 . S
C2921 H2911 0.929 . S
C2921 C2919 1.433 . S
C2921 N2924 1.384 . S
C2922 H2913 0.929 . S
C2922 C2914 1.378 . S
C2922 C2917 1.350 . S
C2923 H2910 0.929 1_455 S
C2923 C2915 1.433 . S
C2923 N2925 1.384 . S
N2924 C2920 1.427 . S
N2924 C2921 1.384 . S
N2925 C2917 1.427 . S
N2925 C2923 1.384 . S
H2926 C2932 0.930 . S
H2927 C2936 0.930 . S
H2928 C2941 0.929 . S
H2929 C2939 0.929 . S
H2930 C2934 0.929 . S
H2931 C2940 0.929 . S
C2932 H2926 0.930 . S
C2932 C2933 1.367 . S
C2932 C2940 1.378 . S
C2933 C2932 1.367 . S
C2933 C2941 1.433 . S
C2934 H2930 0.929 . S
C2934 C2936 1.378 . S
C2934 C2938 1.350 . S
C2935 C2938 1.463 . S
C2935 C2940 1.350 . S
C2935 N2943 1.427 . S
C2936 H2927 0.930 . S
C2936 C2934 1.378 . S
C2936 C2937 1.367 . S
C2937 C2936 1.367 . S
C2937 C2939 1.433 . S
C2938 C2934 1.350 . S
C2938 C2935 1.463 . S
C2938 N2942 1.427 . S
C2939 H2929 0.929 . S
C2939 C2937 1.433 . S
C2939 N2942 1.384 . S
C2940 H2931 0.929 . S
C2940 C2932 1.378 . S
C2940 C2935 1.350 . S
C2941 H2928 0.929 . S
C2941 C2933 1.433 . S
C2941 N2943 1.384 . S
N2942 C2938 1.427 . S
N2942 C2939 1.384 . S
N2943 C2935 1.427 . S
N2943 C2941 1.384 . S
H2944 C2950 0.930 . S
H2945 C2954 0.930 . S
H2946 C2959 0.929 . S
H2947 C2957 0.929 . S
H2948 C2952 0.929 . S
H2949 C2958 0.929 . S
C2950 H2944 0.930 . S
C2950 C2951 1.367 . S
C2950 C2958 1.378 . S
C2951 C2950 1.367 . S
C2951 C2959 1.433 . S
C2952 H2948 0.929 . S
C2952 C2954 1.378 . S
C2952 C2956 1.350 . S
C2953 C2956 1.463 . S
C2953 C2958 1.350 . S
C2953 N2961 1.427 . S
C2954 H2945 0.930 . S
C2954 C2952 1.378 . S
C2954 C2955 1.367 . S
C2955 C2954 1.367 . S
C2955 C2957 1.433 . S
C2956 C2952 1.350 . S
C2956 C2953 1.463 . S
C2956 N2960 1.427 . S
C2957 H2947 0.929 . S
C2957 C2955 1.433 . S
C2957 N2960 1.384 . S
C2958 H2949 0.929 . S
C2958 C2950 1.378 . S
C2958 C2953 1.350 . S
C2959 H2946 0.929 . S
C2959 C2951 1.433 . S
C2959 N2961 1.384 . S
N2960 C2956 1.427 . S
N2960 C2957 1.384 . S
N2961 C2953 1.427 . S
N2961 C2959 1.384 . S
H2962 C2968 0.930 . S
H2963 C2972 0.930 . S
H2964 C2977 0.929 . S
H2965 C2975 0.929 . S
H2966 C2970 0.929 . S
H2967 C2976 0.929 . S
C2968 H2962 0.930 . S
C2968 C2969 1.367 . S
C2968 C2976 1.378 . S
C2969 C2968 1.367 . S
C2969 C2977 1.433 . S
C2970 H2966 0.929 . S
C2970 C2972 1.378 . S
C2970 C2974 1.350 . S
C2971 C2974 1.463 . S
C2971 C2976 1.350 . S
C2971 N2979 1.427 . S
C2972 H2963 0.930 . S
C2972 C2970 1.378 . S
C2972 C2973 1.367 . S
C2973 C2972 1.367 . S
C2973 C2975 1.433 . S
C2974 C2970 1.350 . S
C2974 C2971 1.463 . S
C2974 N2978 1.427 . S
C2975 H2965 0.929 . S
C2975 C2973 1.433 . S
C2975 N2978 1.384 . S
C2976 H2967 0.929 . S
C2976 C2968 1.378 . S
C2976 C2971 1.350 . S
C2977 H2964 0.929 . S
C2977 C2969 1.433 . S
C2977 N2979 1.384 . S
N2978 C2974 1.427 . S
N2978 C2975 1.384 . S
N2979 C2971 1.427 . S
N2979 C2977 1.384 . S
H2980 C2986 0.930 . S
H2981 C2990 0.930 . S
H2982 C2995 0.929 . S
H2983 C2993 0.929 . S
H2984 C2988 0.930 1_455 S
H2985 C2994 0.929 . S
C2986 H2980 0.930 . S
C2986 C2987 1.367 . S
C2986 C2994 1.378 . S
C2987 C2986 1.367 . S
C2987 C2995 1.433 . S
C2988 H2984 0.930 1_655 S
C2988 C2990 1.379 1_655 S
C2988 C2992 1.348 . S
C2989 C2992 1.463 . S
C2989 C2994 1.350 . S
C2989 N2997 1.427 . S
C2990 H2981 0.930 . S
C2990 C2988 1.379 1_455 S
C2990 C2991 1.367 . S
C2991 C2990 1.367 . S
C2991 C2993 1.433 1_455 S
C2992 C2988 1.348 . S
C2992 C2989 1.463 . S
C2992 N2996 1.427 . S
C2993 H2983 0.929 . S
C2993 C2991 1.433 1_655 S
C2993 N2996 1.384 . S
C2994 H2985 0.929 . S
C2994 C2986 1.378 . S
C2994 C2989 1.350 . S
C2995 H2982 0.929 . S
C2995 C2987 1.433 . S
C2995 N2997 1.384 . S
N2996 C2992 1.427 . S
N2996 C2993 1.384 . S
N2997 C2989 1.427 . S
N2997 C2995 1.384 . S
H2998 C3004 0.930 . S
H2999 C3008 0.930 . S
H3000 C3013 0.929 . S
H3001 C3011 0.929 . S
H3002 C3006 0.929 . S
H3003 C3012 0.929 . S
C3004 H2998 0.930 . S
C3004 C3005 1.367 . S
C3004 C3012 1.378 . S
C3005 C3004 1.367 . S
C3005 C3013 1.433 . S
C3006 H3002 0.929 . S
C3006 C3008 1.378 . S
C3006 C3010 1.350 . S
C3007 C3010 1.463 . S
C3007 C3012 1.350 . S
C3007 N3015 1.427 . S
C3008 H2999 0.930 . S
C3008 C3006 1.378 . S
C3008 C3009 1.367 . S
C3009 C3008 1.367 . S
C3009 C3011 1.433 . S
C3010 C3006 1.350 . S
C3010 C3007 1.463 . S
C3010 N3014 1.427 . S
C3011 H3001 0.929 . S
C3011 C3009 1.433 . S
C3011 N3014 1.384 . S
C3012 H3003 0.929 . S
C3012 C3004 1.378 . S
C3012 C3007 1.350 . S
C3013 H3000 0.929 . S
C3013 C3005 1.433 . S
C3013 N3015 1.384 . S
N3014 C3010 1.427 . S
N3014 C3011 1.384 . S
N3015 C3007 1.427 . S
N3015 C3013 1.384 . S
H3016 C3022 0.930 . S
H3017 C3026 0.930 . S
H3018 C3031 0.929 . S
H3019 C3029 0.929 . S
H3020 C3024 0.929 . S
H3021 C3030 0.929 . S
C3022 H3016 0.930 . S
C3022 C3023 1.367 . S
C3022 C3030 1.378 . S
C3023 C3022 1.367 . S
C3023 C3031 1.433 . S
C3024 H3020 0.929 . S
C3024 C3026 1.378 . S
C3024 C3028 1.350 . S
C3025 C3028 1.463 . S
C3025 C3030 1.350 . S
C3025 N3033 1.427 . S
C3026 H3017 0.930 . S
C3026 C3024 1.378 . S
C3026 C3027 1.367 . S
C3027 C3026 1.367 . S
C3027 C3029 1.433 . S
C3028 C3024 1.350 . S
C3028 C3025 1.463 . S
C3028 N3032 1.427 . S
C3029 H3019 0.929 . S
C3029 C3027 1.433 . S
C3029 N3032 1.384 . S
C3030 H3021 0.929 . S
C3030 C3022 1.378 . S
C3030 C3025 1.350 . S
C3031 H3018 0.929 . S
C3031 C3023 1.433 . S
C3031 N3033 1.384 . S
N3032 C3028 1.427 . S
N3032 C3029 1.384 . S
N3033 C3025 1.427 . S
N3033 C3031 1.384 . S
H3034 C3040 0.930 . S
H3035 C3044 0.930 . S
H3036 C3049 0.929 . S
H3037 C3047 0.929 . S
H3038 C3042 0.929 . S
H3039 C3048 0.929 . S
C3040 H3034 0.930 . S
C3040 C3041 1.367 . S
C3040 C3048 1.378 . S
C3041 C3040 1.367 . S
C3041 C3049 1.433 . S
C3042 H3038 0.929 . S
C3042 C3044 1.378 . S
C3042 C3046 1.350 . S
C3043 C3046 1.463 . S
C3043 C3048 1.350 . S
C3043 N3051 1.427 . S
C3044 H3035 0.930 . S
C3044 C3042 1.378 . S
C3044 C3045 1.367 . S
C3045 C3044 1.367 . S
C3045 C3047 1.433 . S
C3046 C3042 1.350 . S
C3046 C3043 1.463 . S
C3046 N3050 1.427 . S
C3047 H3037 0.929 . S
C3047 C3045 1.433 . S
C3047 N3050 1.384 . S
C3048 H3039 0.929 . S
C3048 C3040 1.378 . S
C3048 C3043 1.350 . S
C3049 H3036 0.929 . S
C3049 C3041 1.433 . S
C3049 N3051 1.384 . S
N3050 C3046 1.427 . S
N3050 C3047 1.384 . S
N3051 C3043 1.427 . S
N3051 C3049 1.384 . S
H3052 C3058 0.930 . S
H3053 C3062 0.930 . S
H3054 C3067 0.929 . S
H3055 C3065 0.929 . S
H3056 C3060 0.929 . S
H3057 C3066 0.929 . S
C3058 H3052 0.930 . S
C3058 C3059 1.367 . S
C3058 C3066 1.378 . S
C3059 C3058 1.367 . S
C3059 C3067 1.433 . S
C3060 H3056 0.929 . S
C3060 C3062 1.378 . S
C3060 C3064 1.350 . S
C3061 C3064 1.463 . S
C3061 C3066 1.350 . S
C3061 N3069 1.427 . S
C3062 H3053 0.930 . S
C3062 C3060 1.378 . S
C3062 C3063 1.367 . S
C3063 C3062 1.367 . S
C3063 C3065 1.433 1_655 S
C3064 C3060 1.350 . S
C3064 C3061 1.463 . S
C3064 N3068 1.427 . S
C3065 H3055 0.929 . S
C3065 C3063 1.433 1_455 S
C3065 N3068 1.384 1_455 S
C3066 H3057 0.929 . S
C3066 C3058 1.378 . S
C3066 C3061 1.350 . S
C3067 H3054 0.929 . S
C3067 C3059 1.433 . S
C3067 N3069 1.384 . S
N3068 C3064 1.427 . S
N3068 C3065 1.384 1_655 S
N3069 C3061 1.427 . S
N3069 C3067 1.384 . S
H3070 C3076 0.930 . S
H3071 C3080 0.930 . S
H3072 C3085 0.929 . S
H3073 C3083 0.929 . S
H3074 C3078 0.929 . S
H3075 C3084 0.929 . S
C3076 H3070 0.930 . S
C3076 C3077 1.367 . S
C3076 C3084 1.378 . S
C3077 C3076 1.367 . S
C3077 C3085 1.433 . S
C3078 H3074 0.929 . S
C3078 C3080 1.378 . S
C3078 C3082 1.350 . S
C3079 C3082 1.463 . S
C3079 C3084 1.350 . S
C3079 N3087 1.427 . S
C3080 H3071 0.930 . S
C3080 C3078 1.378 . S
C3080 C3081 1.367 . S
C3081 C3080 1.367 . S
C3081 C3083 1.433 . S
C3082 C3078 1.350 . S
C3082 C3079 1.463 . S
C3082 N3086 1.427 . S
C3083 H3073 0.929 . S
C3083 C3081 1.433 . S
C3083 N3086 1.384 . S
C3084 H3075 0.929 . S
C3084 C3076 1.378 . S
C3084 C3079 1.350 . S
C3085 H3072 0.929 . S
C3085 C3077 1.433 . S
C3085 N3087 1.384 . S
N3086 C3082 1.427 . S
N3086 C3083 1.384 . S
N3087 C3079 1.427 . S
N3087 C3085 1.384 . S
H3088 C3094 0.930 . S
H3089 C3098 0.930 . S
H3090 C3103 0.929 . S
H3091 C3101 0.929 . S
H3092 C3096 0.929 . S
H3093 C3102 0.929 . S
C3094 H3088 0.930 . S
C3094 C3095 1.367 . S
C3094 C3102 1.378 . S
C3095 C3094 1.367 . S
C3095 C3103 1.433 . S
C3096 H3092 0.929 . S
C3096 C3098 1.378 . S
C3096 C3100 1.350 . S
C3097 C3100 1.463 . S
C3097 C3102 1.350 . S
C3097 N3105 1.427 . S
C3098 H3089 0.930 . S
C3098 C3096 1.378 . S
C3098 C3099 1.367 . S
C3099 C3098 1.367 . S
C3099 C3101 1.433 . S
C3100 C3096 1.350 . S
C3100 C3097 1.463 . S
C3100 N3104 1.427 . S
C3101 H3091 0.929 . S
C3101 C3099 1.433 . S
C3101 N3104 1.384 . S
C3102 H3093 0.929 . S
C3102 C3094 1.378 . S
C3102 C3097 1.350 . S
C3103 H3090 0.929 . S
C3103 C3095 1.433 . S
C3103 N3105 1.384 . S
N3104 C3100 1.427 . S
N3104 C3101 1.384 . S
N3105 C3097 1.427 . S
N3105 C3103 1.384 . S
H3106 C3112 0.930 . S
H3107 C3116 0.930 . S
H3108 C3121 0.929 . S
H3109 C3119 0.929 . S
H3110 C3114 0.929 . S
H3111 C3120 0.929 . S
C3112 H3106 0.930 . S
C3112 C3113 1.367 . S
C3112 C3120 1.378 . S
C3113 C3112 1.367 . S
C3113 C3121 1.433 . S
C3114 H3110 0.929 . S
C3114 C3116 1.378 . S
C3114 C3118 1.350 . S
C3115 C3118 1.463 . S
C3115 C3120 1.350 . S
C3115 N3123 1.427 . S
C3116 H3107 0.930 . S
C3116 C3114 1.378 . S
C3116 C3117 1.367 . S
C3117 C3116 1.367 . S
C3117 C3119 1.433 . S
C3118 C3114 1.350 . S
C3118 C3115 1.463 . S
C3118 N3122 1.427 . S
C3119 H3109 0.929 . S
C3119 C3117 1.433 . S
C3119 N3122 1.384 . S
C3120 H3111 0.929 . S
C3120 C3112 1.378 . S
C3120 C3115 1.350 . S
C3121 H3108 0.929 . S
C3121 C3113 1.433 . S
C3121 N3123 1.384 . S
N3122 C3118 1.427 . S
N3122 C3119 1.384 . S
N3123 C3115 1.427 . S
N3123 C3121 1.384 . S
H3124 C3130 0.930 . S
H3125 C3134 0.930 . S
H3126 C3139 0.929 . S
H3127 C3137 0.929 . S
H3128 C3132 0.929 . S
H3129 C3138 0.929 . S
C3130 H3124 0.930 . S
C3130 C3131 1.367 . S
C3130 C3138 1.378 . S
C3131 C3130 1.367 . S
C3131 C3139 1.433 . S
C3132 H3128 0.929 . S
C3132 C3134 1.378 . S
C3132 C3136 1.350 . S
C3133 C3136 1.463 . S
C3133 C3138 1.350 . S
C3133 N3141 1.427 . S
C3134 H3125 0.930 . S
C3134 C3132 1.378 . S
C3134 C3135 1.367 . S
C3135 C3134 1.367 . S
C3135 C3137 1.433 . S
C3136 C3132 1.350 . S
C3136 C3133 1.463 . S
C3136 N3140 1.427 . S
C3137 H3127 0.929 . S
C3137 C3135 1.433 . S
C3137 N3140 1.384 . S
C3138 H3129 0.929 . S
C3138 C3130 1.378 . S
C3138 C3133 1.350 . S
C3139 H3126 0.929 . S
C3139 C3131 1.433 . S
C3139 N3141 1.384 . S
N3140 C3136 1.427 . S
N3140 C3137 1.384 . S
N3141 C3133 1.427 . S
N3141 C3139 1.384 . S
H3142 C3148 0.930 . S
H3143 C3152 0.930 . S
H3144 C3157 0.929 . S
H3145 C3155 0.929 . S
H3146 C3150 0.929 . S
H3147 C3156 0.929 . S
C3148 H3142 0.930 . S
C3148 C3149 1.367 . S
C3148 C3156 1.378 . S
C3149 C3148 1.367 . S
C3149 C3157 1.433 . S
C3150 H3146 0.929 . S
C3150 C3152 1.378 . S
C3150 C3154 1.350 . S
C3151 C3154 1.463 . S
C3151 C3156 1.350 . S
C3151 N3159 1.427 . S
C3152 H3143 0.930 . S
C3152 C3150 1.378 . S
C3152 C3153 1.367 . S
C3153 C3152 1.367 . S
C3153 C3155 1.433 . S
C3154 C3150 1.350 . S
C3154 C3151 1.463 . S
C3154 N3158 1.427 . S
C3155 H3145 0.929 . S
C3155 C3153 1.433 . S
C3155 N3158 1.384 . S
C3156 H3147 0.929 . S
C3156 C3148 1.378 . S
C3156 C3151 1.350 . S
C3157 H3144 0.929 . S
C3157 C3149 1.433 . S
C3157 N3159 1.384 . S
N3158 C3154 1.427 . S
N3158 C3155 1.384 . S
N3159 C3151 1.427 . S
N3159 C3157 1.384 . S
H3160 C3166 0.930 . S
H3161 C3170 0.930 . S
H3162 C3175 0.929 . S
H3163 C3173 0.929 . S
H3164 C3168 0.929 . S
H3165 C3174 0.929 . S
C3166 H3160 0.930 . S
C3166 C3167 1.367 . S
C3166 C3174 1.378 . S
C3167 C3166 1.367 . S
C3167 C3175 1.433 . S
C3168 H3164 0.929 . S
C3168 C3170 1.378 . S
C3168 C3172 1.350 . S
C3169 C3172 1.463 . S
C3169 C3174 1.350 . S
C3169 N3177 1.427 . S
C3170 H3161 0.930 . S
C3170 C3168 1.378 . S
C3170 C3171 1.367 . S
C3171 C3170 1.367 . S
C3171 C3173 1.433 . S
C3172 C3168 1.350 . S
C3172 C3169 1.463 . S
C3172 N3176 1.427 . S
C3173 H3163 0.929 . S
C3173 C3171 1.433 . S
C3173 N3176 1.384 . S
C3174 H3165 0.929 . S
C3174 C3166 1.378 . S
C3174 C3169 1.350 . S
C3175 H3162 0.929 . S
C3175 C3167 1.433 . S
C3175 N3177 1.384 . S
N3176 C3172 1.427 . S
N3176 C3173 1.384 . S
N3177 C3169 1.427 . S
N3177 C3175 1.384 . S
H3178 C3184 0.930 . S
H3179 C3188 0.930 1_556 S
H3180 C3193 0.929 . S
H3181 C3191 0.929 . S
H3182 C3186 0.929 . S
H3183 C3192 0.929 . S
C3184 H3178 0.930 . S
C3184 C3185 1.367 . S
C3184 C3192 1.378 . S
C3185 C3184 1.367 . S
C3185 C3193 1.433 . S
C3186 H3182 0.929 . S
C3186 C3188 1.378 . S
C3186 C3190 1.350 . S
C3187 C3190 1.463 . S
C3187 C3192 1.350 . S
C3187 N3195 1.427 . S
C3188 H3179 0.930 1_554 S
C3188 C3186 1.378 . S
C3188 C3189 1.367 . S
C3189 C3188 1.367 . S
C3189 C3191 1.433 . S
C3190 C3186 1.350 . S
C3190 C3187 1.463 . S
C3190 N3194 1.427 . S
C3191 H3181 0.929 . S
C3191 C3189 1.433 . S
C3191 N3194 1.384 . S
C3192 H3183 0.929 . S
C3192 C3184 1.378 . S
C3192 C3187 1.350 . S
C3193 H3180 0.929 . S
C3193 C3185 1.433 . S
C3193 N3195 1.384 . S
N3194 C3190 1.427 . S
N3194 C3191 1.384 . S
N3195 C3187 1.427 . S
N3195 C3193 1.384 . S
H3196 C3202 0.930 . S
H3197 C3206 0.930 . S
H3198 C3211 0.929 . S
H3199 C3209 0.929 . S
H3200 C3204 0.929 . S
H3201 C3210 0.929 . S
C3202 H3196 0.930 . S
C3202 C3203 1.367 . S
C3202 C3210 1.378 . S
C3203 C3202 1.367 . S
C3203 C3211 1.433 . S
C3204 H3200 0.929 . S
C3204 C3206 1.378 . S
C3204 C3208 1.350 . S
C3205 C3208 1.463 . S
C3205 C3210 1.350 . S
C3205 N3213 1.427 . S
C3206 H3197 0.930 . S
C3206 C3204 1.378 . S
C3206 C3207 1.367 . S
C3207 C3206 1.367 . S
C3207 C3209 1.433 . S
C3208 C3204 1.350 . S
C3208 C3205 1.463 . S
C3208 N3212 1.427 . S
C3209 H3199 0.929 . S
C3209 C3207 1.433 . S
C3209 N3212 1.384 . S
C3210 H3201 0.929 . S
C3210 C3202 1.378 . S
C3210 C3205 1.350 . S
C3211 H3198 0.929 . S
C3211 C3203 1.433 . S
C3211 N3213 1.384 . S
N3212 C3208 1.427 . S
N3212 C3209 1.384 . S
N3213 C3205 1.427 . S
N3213 C3211 1.384 . S
H3214 C3220 0.930 . S
H3215 C3224 0.930 . S
H3216 C3229 0.929 . S
H3217 C3227 0.929 . S
H3218 C3222 0.929 . S
H3219 C3228 0.929 . S
C3220 H3214 0.930 . S
C3220 C3221 1.367 . S
C3220 C3228 1.378 . S
C3221 C3220 1.367 . S
C3221 C3229 1.433 . S
C3222 H3218 0.929 . S
C3222 C3224 1.378 . S
C3222 C3226 1.350 . S
C3223 C3226 1.463 . S
C3223 C3228 1.350 . S
C3223 N3231 1.427 . S
C3224 H3215 0.930 . S
C3224 C3222 1.378 . S
C3224 C3225 1.367 . S
C3225 C3224 1.367 . S
C3225 C3227 1.433 . S
C3226 C3222 1.350 . S
C3226 C3223 1.463 . S
C3226 N3230 1.427 . S
C3227 H3217 0.929 . S
C3227 C3225 1.433 . S
C3227 N3230 1.384 . S
C3228 H3219 0.929 . S
C3228 C3220 1.378 . S
C3228 C3223 1.350 . S
C3229 H3216 0.929 . S
C3229 C3221 1.433 . S
C3229 N3231 1.384 . S
N3230 C3226 1.427 . S
N3230 C3227 1.384 . S
N3231 C3223 1.427 . S
N3231 C3229 1.384 . S
C1511 C255 2.242 . S
C1515 C874 2.174 . S
C1529 C147 2.037 . S
C1533 C922 2.029 . S
C1547 C184 1.279 . S
C1551 C954 1.270 . S
C1569 C999 1.553 . S
C1565 C220 1.584 . S
C1583 C40 0.868 . S
C1587 C1039 0.865 . S
C1605 C1074 1.041 . S
C1601 C74 1.043 . S
C1623 C1113 1.196 . S
C1619 C110 1.207 . S
C1637 C14 1.211 . S
C1641 C1150 1.203 . S
C1659 C882 2.069 . S
C1655 C579 2.070 . S
C1673 C616 0.512 . S
C1677 C919 0.503 . S
C1695 C962 2.418 . S
C1691 C687 2.443 . S
C1713 C994 1.176 . S
C1709 C436 1.164 . S
C1727 C580 1.293 . S
C1731 C1034 1.292 . S
C1749 C1082 0.437 . S
C1745 C615 0.422 . S
C1767 C1123 2.041 1_556 S
C1763 C688 2.132 . S
C1785 C1153 1.997 . S
C1781 C435 2.005 . S
C1803 C879 1.287 . S
C1799 C410 1.331 1_554 S
C1817 C722 2.226 . S
C1821 C1202 2.206 . S
C1839 C1239 1.244 . S
C1835 C842 1.237 . S
C1857 C1270 0.672 . S
C1853 C794 0.642 . S
C1871 C302 2.739 . S
C1875 C1163 2.772 . S
C1889 C338 1.436 . S
C1893 C959 1.436 . S
C1907 C830 1.826 . S
C1911 C1322 1.819 . S
C1929 C1354 1.885 . S
C1925 C758 1.871 . S
C1947 C883 2.178 . S
C1943 C158 2.151 . S
C1965 C1353 2.012 . S
C1961 C254 2.014 . S
C1979 C218 1.253 . S
C1983 C963 1.265 . S
C1997 C194 1.483 . S
C2001 C1310 1.534 . S
C2019 C1030 0.866 . S
C2015 C3 0.862 . S
C2033 C111 0.870 . S
C2037 C1243 0.860 . S
C2055 C1122 1.189 . S
C2051 C76 1.202 . S
C2073 C1399 1.251 . S
C2069 C50 1.186 . S
C2091 C873 2.040 . S
C2087 C364 2.048 . S
C2109 C1350 0.518 . S
C2105 C795 0.391 . S
C2123 C292 2.376 . S
C2127 C953 2.368 . S
C2141 C723 1.101 . S
C2145 C1323 1.094 . S
C2159 C363 1.259 . S
C2163 C1043 1.245 . S
C2181 C1233 0.432 . S
C2177 C796 0.484 . S
C2195 C291 2.083 . S
C2199 C1114 2.013 . S
C2213 C724 2.019 . S
C2217 C1402 2.011 . S
C2231 C482 1.242 . S
C2235 C870 1.374 . S
C2249 C434 2.189 . S
C2253 C1193 2.170 . S
C2267 C662 1.145 . S
C2271 C1070 1.215 . S
C2285 C614 0.617 . S
C2289 C1279 0.629 . S
C2307 C1394 2.769 . S
C2303 C698 2.757 . S
C2321 C554 1.366 . S
C2325 C950 1.416 . S
C2343 C993 1.777 . S
C2339 C650 1.775 . S
C2361 C923 1.839 . S
C2357 C506 1.854 . S
C2375 C183 2.244 . S
C2379 C1434 2.176 . S
C2397 C1362 2.022 . S
C2393 C219 2.032 . S
C2411 C256 1.264 . S
C2415 C1474 1.275 . S
C2429 C148 1.578 1_655 S
C2433 C1319 1.547 . S
C2447 C122 0.887 . S
C2451 C1199 0.917 . S
C2469 C1234 0.929 . S
C2465 C2 0.927 . S
C2487 C1273 1.099 . S
C2483 C39 1.092 . S
C2505 C1390 1.254 . S
C2501 C86 1.252 . S
C2523 C1442 2.086 . S
C2519 C651 2.080 . S
C2537 C472 0.519 . S
C2541 C1359 0.507 . S
C2559 C1482 2.409 . S
C2555 C507 2.431 . S
C2577 C1314 1.170 . S
C2573 C544 1.181 . S
C2595 C1194 1.288 . S
C2591 C652 1.292 . S
C2609 C471 0.405 . S
C2613 C1242 0.434 . S
C2631 C1283 2.030 . S
C2627 C508 2.117 . S
C2645 C543 2.026 . S
C2649 C1393 2.015 . S
C2667 C1439 1.341 . S
C2663 C806 1.375 . S
C2681 C326 2.208 . S
C2685 C1042 2.189 . S
C2703 C1079 1.228 . S
C2699 C374 1.215 1_565 S
C2721 C1110 0.708 . S
C2717 C398 0.693 . S
C2739 C1403 2.782 . S
C2735 C770 2.745 . S
C2753 C734 1.436 . S
C2757 C1479 1.418 . S
C2775 C1002 1.801 . S
C2771 C362 1.809 . S
C2793 C914 1.905 . S
C2789 C290 1.890 . S
C2807 C230 2.161 . S
C2811 C1443 2.186 . S
C2829 C913 2.023 . S
C2825 C182 2.026 . S
C2843 C146 1.252 . S
C2847 C1483 1.267 . S
C2861 C266 1.494 . S
C2865 C990 1.544 . S
C2879 C75 0.909 . S
C2883 C1190 0.904 . S
C2901 C1083 0.985 . S
C2897 C38 0.981 . S
C2915 C4 1.123 . S
C2919 C1282 1.118 . S
C2933 C112 1.179 . S
C2937 C1159 1.178 . S
C2955 C1433 2.040 . S
C2951 C832 2.049 . S
C2969 C399 0.367 . S
C2973 C910 0.503 . S
C2991 C1473 2.364 . S
C2987 C760 2.372 . S
C3005 C327 1.095 . S
C3009 C1003 1.086 . S
C3023 C831 1.283 . S
C3027 C1203 1.268 . S
C3045 C1073 0.390 . S
C3041 C400 0.433 . S
C3059 C759 2.083 . S
C3063 C1274 2.007 1_655 S
C3081 C1162 2.004 . S
C3077 C328 2.019 . S
C3099 C1430 1.388 . S
C3095 C626 1.257 . S
C3117 C1033 2.172 1_565 S
C3113 C542 2.188 . S
C3131 C590 1.136 . S
C3135 C1230 1.196 . S
C3153 C1119 0.594 . S
C3149 C470 0.577 . S
C3167 C518 2.742 . S
C3171 C1154 2.756 . S
C3185 C446 1.351 . S
C3189 C1470 1.408 . S
C3207 C1313 1.790 . S
C3203 C578 1.789 . S
C3225 C1363 1.815 . S
C3221 C686 1.829 . S
