# Generated by pormake.
# Topology gar, (4,6)-cn, num edge types: 1
# Building blocks:
#     Node 0, Type 0, BuildingBlock: TATPOV_clean_sbu_0, # of connection points: 4
#     Node 1, Type 0, BuildingBlock: TATPOV_clean_sbu_0, # of connection points: 4
#     Node 2, Type 0, BuildingBlock: TATPOV_clean_sbu_0, # of connection points: 4
#     Node 3, Type 0, BuildingBlock: TATPOV_clean_sbu_0, # of connection points: 4
#     Node 4, Type 0, BuildingBlock: TATPOV_clean_sbu_0, # of connection points: 4
#     Node 5, Type 0, BuildingBlock: TATPOV_clean_sbu_0, # of connection points: 4
#     Node 6, Type 0, BuildingBlock: TATPOV_clean_sbu_0, # of connection points: 4
#     Node 7, Type 0, BuildingBlock: TATPOV_clean_sbu_0, # of connection points: 4
#     Node 8, Type 0, BuildingBlock: TATPOV_clean_sbu_0, # of connection points: 4
#     Node 9, Type 0, BuildingBlock: TATPOV_clean_sbu_0, # of connection points: 4
#     Node 10, Type 0, BuildingBlock: TATPOV_clean_sbu_0, # of connection points: 4
#     Node 11, Type 0, BuildingBlock: TATPOV_clean_sbu_0, # of connection points: 4
#     Node 12, Type 0, BuildingBlock: TATPOV_clean_sbu_0, # of connection points: 4
#     Node 13, Type 0, BuildingBlock: TATPOV_clean_sbu_0, # of connection points: 4
#     Node 14, Type 0, BuildingBlock: TATPOV_clean_sbu_0, # of connection points: 4
#     Node 15, Type 0, BuildingBlock: TATPOV_clean_sbu_0, # of connection points: 4
#     Node 16, Type 0, BuildingBlock: TATPOV_clean_sbu_0, # of connection points: 4
#     Node 17, Type 0, BuildingBlock: TATPOV_clean_sbu_0, # of connection points: 4
#     Node 18, Type 0, BuildingBlock: TATPOV_clean_sbu_0, # of connection points: 4
#     Node 19, Type 0, BuildingBlock: TATPOV_clean_sbu_0, # of connection points: 4
#     Node 20, Type 0, BuildingBlock: TATPOV_clean_sbu_0, # of connection points: 4
#     Node 21, Type 0, BuildingBlock: TATPOV_clean_sbu_0, # of connection points: 4
#     Node 22, Type 0, BuildingBlock: TATPOV_clean_sbu_0, # of connection points: 4
#     Node 23, Type 0, BuildingBlock: TATPOV_clean_sbu_0, # of connection points: 4
#     Node 24, Type 1, BuildingBlock: PAMTUU_clean_sbu_0, # of connection points: 6
#     Node 25, Type 1, BuildingBlock: PAMTUU_clean_sbu_0, # of connection points: 6
#     Node 26, Type 1, BuildingBlock: PAMTUU_clean_sbu_0, # of connection points: 6
#     Node 27, Type 1, BuildingBlock: PAMTUU_clean_sbu_0, # of connection points: 6
#     Node 28, Type 1, BuildingBlock: PAMTUU_clean_sbu_0, # of connection points: 6
#     Node 29, Type 1, BuildingBlock: PAMTUU_clean_sbu_0, # of connection points: 6
#     Node 30, Type 1, BuildingBlock: PAMTUU_clean_sbu_0, # of connection points: 6
#     Node 31, Type 1, BuildingBlock: PAMTUU_clean_sbu_0, # of connection points: 6
#     Node 32, Type 1, BuildingBlock: PAMTUU_clean_sbu_0, # of connection points: 6
#     Node 33, Type 1, BuildingBlock: PAMTUU_clean_sbu_0, # of connection points: 6
#     Node 34, Type 1, BuildingBlock: PAMTUU_clean_sbu_0, # of connection points: 6
#     Node 35, Type 1, BuildingBlock: PAMTUU_clean_sbu_0, # of connection points: 6
#     Node 36, Type 1, BuildingBlock: PAMTUU_clean_sbu_0, # of connection points: 6
#     Node 37, Type 1, BuildingBlock: PAMTUU_clean_sbu_0, # of connection points: 6
#     Node 38, Type 1, BuildingBlock: PAMTUU_clean_sbu_0, # of connection points: 6
#     Node 39, Type 1, BuildingBlock: PAMTUU_clean_sbu_0, # of connection points: 6
#     Edge 40, Type (0, 1), BuildingBlock: TEMPAE_clean_linker_10, # of connection points: 2
#     Edge 41, Type (0, 1), BuildingBlock: TEMPAE_clean_linker_10, # of connection points: 2
#     Edge 42, Type (0, 1), BuildingBlock: TEMPAE_clean_linker_10, # of connection points: 2
#     Edge 43, Type (0, 1), BuildingBlock: TEMPAE_clean_linker_10, # of connection points: 2
#     Edge 44, Type (0, 1), BuildingBlock: TEMPAE_clean_linker_10, # of connection points: 2
#     Edge 45, Type (0, 1), BuildingBlock: TEMPAE_clean_linker_10, # of connection points: 2
#     Edge 46, Type (0, 1), BuildingBlock: TEMPAE_clean_linker_10, # of connection points: 2
#     Edge 47, Type (0, 1), BuildingBlock: TEMPAE_clean_linker_10, # of connection points: 2
#     Edge 48, Type (0, 1), BuildingBlock: TEMPAE_clean_linker_10, # of connection points: 2
#     Edge 49, Type (0, 1), BuildingBlock: TEMPAE_clean_linker_10, # of connection points: 2
#     Edge 50, Type (0, 1), BuildingBlock: TEMPAE_clean_linker_10, # of connection points: 2
#     Edge 51, Type (0, 1), BuildingBlock: TEMPAE_clean_linker_10, # of connection points: 2
#     Edge 52, Type (0, 1), BuildingBlock: TEMPAE_clean_linker_10, # of connection points: 2
#     Edge 53, Type (0, 1), BuildingBlock: TEMPAE_clean_linker_10, # of connection points: 2
#     Edge 54, Type (0, 1), BuildingBlock: TEMPAE_clean_linker_10, # of connection points: 2
#     Edge 55, Type (0, 1), BuildingBlock: TEMPAE_clean_linker_10, # of connection points: 2
#     Edge 56, Type (0, 1), BuildingBlock: TEMPAE_clean_linker_10, # of connection points: 2
#     Edge 57, Type (0, 1), BuildingBlock: TEMPAE_clean_linker_10, # of connection points: 2
#     Edge 58, Type (0, 1), BuildingBlock: TEMPAE_clean_linker_10, # of connection points: 2
#     Edge 59, Type (0, 1), BuildingBlock: TEMPAE_clean_linker_10, # of connection points: 2
#     Edge 60, Type (0, 1), BuildingBlock: TEMPAE_clean_linker_10, # of connection points: 2
#     Edge 61, Type (0, 1), BuildingBlock: TEMPAE_clean_linker_10, # of connection points: 2
#     Edge 62, Type (0, 1), BuildingBlock: TEMPAE_clean_linker_10, # of connection points: 2
#     Edge 63, Type (0, 1), BuildingBlock: TEMPAE_clean_linker_10, # of connection points: 2
#     Edge 64, Type (0, 1), BuildingBlock: TEMPAE_clean_linker_10, # of connection points: 2
#     Edge 65, Type (0, 1), BuildingBlock: TEMPAE_clean_linker_10, # of connection points: 2
#     Edge 66, Type (0, 1), BuildingBlock: TEMPAE_clean_linker_10, # of connection points: 2
#     Edge 67, Type (0, 1), BuildingBlock: TEMPAE_clean_linker_10, # of connection points: 2
#     Edge 68, Type (0, 1), BuildingBlock: TEMPAE_clean_linker_10, # of connection points: 2
#     Edge 69, Type (0, 1), BuildingBlock: TEMPAE_clean_linker_10, # of connection points: 2
#     Edge 70, Type (0, 1), BuildingBlock: TEMPAE_clean_linker_10, # of connection points: 2
#     Edge 71, Type (0, 1), BuildingBlock: TEMPAE_clean_linker_10, # of connection points: 2
#     Edge 72, Type (0, 1), BuildingBlock: TEMPAE_clean_linker_10, # of connection points: 2
#     Edge 73, Type (0, 1), BuildingBlock: TEMPAE_clean_linker_10, # of connection points: 2
#     Edge 74, Type (0, 1), BuildingBlock: TEMPAE_clean_linker_10, # of connection points: 2
#     Edge 75, Type (0, 1), BuildingBlock: TEMPAE_clean_linker_10, # of connection points: 2
#     Edge 76, Type (0, 1), BuildingBlock: TEMPAE_clean_linker_10, # of connection points: 2
#     Edge 77, Type (0, 1), BuildingBlock: TEMPAE_clean_linker_10, # of connection points: 2
#     Edge 78, Type (0, 1), BuildingBlock: TEMPAE_clean_linker_10, # of connection points: 2
#     Edge 79, Type (0, 1), BuildingBlock: TEMPAE_clean_linker_10, # of connection points: 2
#     Edge 80, Type (0, 1), BuildingBlock: TEMPAE_clean_linker_10, # of connection points: 2
#     Edge 81, Type (0, 1), BuildingBlock: TEMPAE_clean_linker_10, # of connection points: 2
#     Edge 82, Type (0, 1), BuildingBlock: TEMPAE_clean_linker_10, # of connection points: 2
#     Edge 83, Type (0, 1), BuildingBlock: TEMPAE_clean_linker_10, # of connection points: 2
#     Edge 84, Type (0, 1), BuildingBlock: TEMPAE_clean_linker_10, # of connection points: 2
#     Edge 85, Type (0, 1), BuildingBlock: TEMPAE_clean_linker_10, # of connection points: 2
#     Edge 86, Type (0, 1), BuildingBlock: TEMPAE_clean_linker_10, # of connection points: 2
#     Edge 87, Type (0, 1), BuildingBlock: TEMPAE_clean_linker_10, # of connection points: 2
#     Edge 88, Type (0, 1), BuildingBlock: TEMPAE_clean_linker_10, # of connection points: 2
#     Edge 89, Type (0, 1), BuildingBlock: TEMPAE_clean_linker_10, # of connection points: 2
#     Edge 90, Type (0, 1), BuildingBlock: TEMPAE_clean_linker_10, # of connection points: 2
#     Edge 91, Type (0, 1), BuildingBlock: TEMPAE_clean_linker_10, # of connection points: 2
#     Edge 92, Type (0, 1), BuildingBlock: TEMPAE_clean_linker_10, # of connection points: 2
#     Edge 93, Type (0, 1), BuildingBlock: TEMPAE_clean_linker_10, # of connection points: 2
#     Edge 94, Type (0, 1), BuildingBlock: TEMPAE_clean_linker_10, # of connection points: 2
#     Edge 95, Type (0, 1), BuildingBlock: TEMPAE_clean_linker_10, # of connection points: 2
#     Edge 96, Type (0, 1), BuildingBlock: TEMPAE_clean_linker_10, # of connection points: 2
#     Edge 97, Type (0, 1), BuildingBlock: TEMPAE_clean_linker_10, # of connection points: 2
#     Edge 98, Type (0, 1), BuildingBlock: TEMPAE_clean_linker_10, # of connection points: 2
#     Edge 99, Type (0, 1), BuildingBlock: TEMPAE_clean_linker_10, # of connection points: 2
#     Edge 100, Type (0, 1), BuildingBlock: TEMPAE_clean_linker_10, # of connection points: 2
#     Edge 101, Type (0, 1), BuildingBlock: TEMPAE_clean_linker_10, # of connection points: 2
#     Edge 102, Type (0, 1), BuildingBlock: TEMPAE_clean_linker_10, # of connection points: 2
#     Edge 103, Type (0, 1), BuildingBlock: TEMPAE_clean_linker_10, # of connection points: 2
#     Edge 104, Type (0, 1), BuildingBlock: TEMPAE_clean_linker_10, # of connection points: 2
#     Edge 105, Type (0, 1), BuildingBlock: TEMPAE_clean_linker_10, # of connection points: 2
#     Edge 106, Type (0, 1), BuildingBlock: TEMPAE_clean_linker_10, # of connection points: 2
#     Edge 107, Type (0, 1), BuildingBlock: TEMPAE_clean_linker_10, # of connection points: 2
#     Edge 108, Type (0, 1), BuildingBlock: TEMPAE_clean_linker_10, # of connection points: 2
#     Edge 109, Type (0, 1), BuildingBlock: TEMPAE_clean_linker_10, # of connection points: 2
#     Edge 110, Type (0, 1), BuildingBlock: TEMPAE_clean_linker_10, # of connection points: 2
#     Edge 111, Type (0, 1), BuildingBlock: TEMPAE_clean_linker_10, # of connection points: 2
#     Edge 112, Type (0, 1), BuildingBlock: TEMPAE_clean_linker_10, # of connection points: 2
#     Edge 113, Type (0, 1), BuildingBlock: TEMPAE_clean_linker_10, # of connection points: 2
#     Edge 114, Type (0, 1), BuildingBlock: TEMPAE_clean_linker_10, # of connection points: 2
#     Edge 115, Type (0, 1), BuildingBlock: TEMPAE_clean_linker_10, # of connection points: 2
#     Edge 116, Type (0, 1), BuildingBlock: TEMPAE_clean_linker_10, # of connection points: 2
#     Edge 117, Type (0, 1), BuildingBlock: TEMPAE_clean_linker_10, # of connection points: 2
#     Edge 118, Type (0, 1), BuildingBlock: TEMPAE_clean_linker_10, # of connection points: 2
#     Edge 119, Type (0, 1), BuildingBlock: TEMPAE_clean_linker_10, # of connection points: 2
#     Edge 120, Type (0, 1), BuildingBlock: TEMPAE_clean_linker_10, # of connection points: 2
#     Edge 121, Type (0, 1), BuildingBlock: TEMPAE_clean_linker_10, # of connection points: 2
#     Edge 122, Type (0, 1), BuildingBlock: TEMPAE_clean_linker_10, # of connection points: 2
#     Edge 123, Type (0, 1), BuildingBlock: TEMPAE_clean_linker_10, # of connection points: 2
#     Edge 124, Type (0, 1), BuildingBlock: TEMPAE_clean_linker_10, # of connection points: 2
#     Edge 125, Type (0, 1), BuildingBlock: TEMPAE_clean_linker_10, # of connection points: 2
#     Edge 126, Type (0, 1), BuildingBlock: TEMPAE_clean_linker_10, # of connection points: 2
#     Edge 127, Type (0, 1), BuildingBlock: TEMPAE_clean_linker_10, # of connection points: 2
#     Edge 128, Type (0, 1), BuildingBlock: TEMPAE_clean_linker_10, # of connection points: 2
#     Edge 129, Type (0, 1), BuildingBlock: TEMPAE_clean_linker_10, # of connection points: 2
#     Edge 130, Type (0, 1), BuildingBlock: TEMPAE_clean_linker_10, # of connection points: 2
#     Edge 131, Type (0, 1), BuildingBlock: TEMPAE_clean_linker_10, # of connection points: 2
#     Edge 132, Type (0, 1), BuildingBlock: TEMPAE_clean_linker_10, # of connection points: 2
#     Edge 133, Type (0, 1), BuildingBlock: TEMPAE_clean_linker_10, # of connection points: 2
#     Edge 134, Type (0, 1), BuildingBlock: TEMPAE_clean_linker_10, # of connection points: 2
#     Edge 135, Type (0, 1), BuildingBlock: TEMPAE_clean_linker_10, # of connection points: 2
# Relax obj value: 0.192
# Max RMSD: 0.335
# Mean RMSD: 0.181
data_MOF--net-gar--node1-TATPOV_clean_sbu_0--node2-PAMTUU_clean_sbu_0--edge1-TEMPAE_clean_linker_10
_symmetry_space_group_name_H-M    P1
_symmetry_Int_Tables_number       1
_symmetry_cell_setting            triclinic
loop_
_symmetry_equiv_pos_as_xyz
'x, y, z'
_cell_length_a     61.03082
_cell_length_b     57.325517
_cell_length_c     60.50691
_cell_angle_alpha  94.271295
_cell_angle_beta   94.347847
_cell_angle_gamma 109.76722
loop_
_atom_site_label
_atom_site_type_symbol
_atom_site_fract_x
_atom_site_fract_y
_atom_site_fract_z
_atom_type_partial_charge
Zn0 Zn 0.02302 0.27282 0.41456 0.0
Zn1 Zn 0.05705 0.28245 0.38915 0.0
O2 O 0.06257 0.31924 0.41059 0.0
O3 O 0.03496 0.30694 0.43283 0.0
O4 O 0.09135 0.2853 0.37216 0.0
O5 O 0.02465 0.24103 0.42727 0.0
O6 O 0.05467 0.24793 0.40788 0.0
C7 C 0.05135 0.32473 0.42656 0.0
C8 C 1.00171 0.27546 0.37077 0.0
O9 O 0.02321 0.27905 0.36606 0.0
O10 O 0.99722 0.27113 0.39047 0.0
C11 C 0.10004 0.29029 0.35318 0.0
O12 O 0.087 0.29631 0.33794 0.0
C13 C 0.04132 0.23437 0.42137 0.0
Zn14 Zn 0.0449 0.7647 0.69325 0.0
Zn15 Zn 0.04923 0.7968 0.66285 0.0
O16 O 0.01611 0.79414 0.68102 0.0
O17 O 0.01564 0.76925 0.70694 0.0
O18 O 0.05437 0.8305 0.6422 0.0
O19 O 0.07878 0.7783 0.70923 0.0
O20 O 0.08543 0.80217 0.68185 0.0
C21 C 1.00596 0.78291 0.69749 0.0
C22 C 0.04219 0.73965 0.64707 0.0
O23 O 0.04375 0.76139 0.64097 0.0
O24 O 0.04159 0.73681 0.6677 0.0
C25 C 0.03908 0.83997 0.63426 0.0
O26 O 0.01722 0.82864 0.6378 0.0
C27 C 0.09359 0.79355 0.69883 0.0
Zn28 Zn 0.52673 0.77332 0.91554 0.0
Zn29 Zn 0.5597 0.78285 0.88939 0.0
O30 O 0.56557 0.8202 0.91002 0.0
O31 O 0.53796 0.80825 0.93234 0.0
O32 O 0.59309 0.7842 0.87121 0.0
O33 O 0.52875 0.74248 0.92958 0.0
O34 O 0.55784 0.74888 0.90898 0.0
C35 C 0.55414 0.82596 0.92568 0.0
C36 C 0.50367 0.77392 0.87206 0.0
O37 O 0.52518 0.77879 0.86688 0.0
O38 O 0.50007 0.76921 0.89186 0.0
C39 C 0.60641 0.79697 0.85708 0.0
O40 O 0.60048 0.81504 0.84931 0.0
C41 C 0.54518 0.73574 0.92317 0.0
Zn42 Zn 0.54049 0.26206 0.19354 0.0
Zn43 Zn 0.54715 0.29658 0.16476 0.0
O44 O 0.51392 0.29406 0.18263 0.0
O45 O 0.51117 0.26694 0.20698 0.0
O46 O 0.55258 0.33031 0.14425 0.0
O47 O 0.57412 0.27584 0.21005 0.0
O48 O 0.5827 0.30186 0.18443 0.0
C49 C 0.50276 0.28203 0.19827 0.0
C50 C 0.53977 0.23909 0.14737 0.0
O51 O 0.54254 0.26157 0.14247 0.0
O52 O 0.5376 0.23463 0.16752 0.0
C53 C 0.53972 0.34437 0.1422 0.0
O54 O 0.52094 0.3386 0.15286 0.0
C55 C 0.58975 0.29194 0.20106 0.0
Zn56 Zn 0.13244 0.81863 0.10021 0.0
Zn57 Zn 0.09651 0.80685 0.12451 0.0
O58 O 0.09653 0.83937 0.11075 0.0
O59 O 0.12284 0.84576 0.08687 0.0
O60 O 0.06847 0.79928 0.14252 0.0
O61 O 0.12068 0.78242 0.08642 0.0
O62 O 0.08846 0.77453 0.10308 0.0
C63 C 0.10719 0.85193 0.09576 0.0
C64 C 0.14714 0.81904 0.1462 0.0
O65 O 0.12505 0.81004 0.1471 0.0
O66 O 0.15513 0.82676 0.12836 0.0
C67 C 0.06944 0.81022 0.16186 0.0
O68 O 0.08947 0.82673 0.17087 0.0
C69 C 0.10094 0.76741 0.09001 0.0
Zn70 Zn 0.47673 0.75628 0.46325 0.0
Zn71 Zn 0.5098 0.76663 0.43575 0.0
O72 O 0.51706 0.80033 0.4554 0.0
O73 O 0.4911 0.79089 0.47963 0.0
O74 O 0.53765 0.77243 0.41767 0.0
O75 O 0.48371 0.72639 0.47345 0.0
O76 O 0.51139 0.73562 0.45108 0.0
C77 C 0.50781 0.80693 0.47191 0.0
C78 C 0.45905 0.75635 0.41729 0.0
O79 O 0.48031 0.76089 0.41344 0.0
O80 O 0.45326 0.75328 0.43682 0.0
C81 C 0.54078 0.78198 0.39933 0.0
O82 O 0.5247 0.78977 0.39008 0.0
C83 C 0.50037 0.72172 0.4651 0.0
Zn84 Zn 0.63232 0.32236 0.59973 0.0
Zn85 Zn 0.59613 0.30855 0.62456 0.0
O86 O 0.59334 0.33949 0.60998 0.0
O87 O 0.62273 0.35096 0.58946 0.0
O88 O 0.56886 0.29958 0.64331 0.0
O89 O 0.62005 0.28658 0.5844 0.0
O90 O 0.58951 0.2765 0.60362 0.0
C91 C 0.60495 0.35415 0.59679 0.0
C92 C 0.64736 0.322 0.64574 0.0
O93 O 0.62532 0.314 0.64718 0.0
O94 O 0.65498 0.32838 0.62741 0.0
C95 C 0.56555 0.31665 0.65581 0.0
O96 O 0.58031 0.33959 0.65656 0.0
C97 C 0.60135 0.27057 0.58916 0.0
Zn98 Zn 0.9762 0.25433 0.96265 0.0
Zn99 Zn 1.00724 0.26214 0.93304 0.0
O100 O 0.01641 0.29672 0.95131 0.0
O101 O 0.99305 0.28925 0.97793 0.0
O102 O 0.03306 0.26531 0.91293 0.0
O103 O 0.98301 0.22432 0.97317 0.0
O104 O 0.00992 0.23259 0.94998 0.0
C105 C 0.00907 0.3044 0.96865 0.0
C106 C 0.95617 0.2537 0.91711 0.0
O107 O 0.97678 0.2563 0.91214 0.0
O108 O 0.95159 0.25189 0.93714 0.0
C109 C 0.04482 0.28429 0.90388 0.0
O110 O 0.03985 0.30485 0.90643 0.0
C111 C 0.99961 0.21951 0.96481 0.0
Zn112 Zn 0.47372 0.01823 0.29667 0.0
Zn113 Zn 0.45539 0.05355 0.30145 0.0
O114 O 0.4674 0.05392 0.3331 0.0
O115 O 0.47586 0.01933 0.33003 0.0
O116 O 0.43967 0.07825 0.30043 0.0
O117 O 0.50055 0.04186 0.28293 0.0
O118 O 0.48141 0.06807 0.2828 0.0
C119 C 0.4738 0.03749 0.34183 0.0
C120 C 0.42627 1.00065 0.28033 0.0
O121 O 0.42835 0.02201 0.28958 0.0
O122 O 0.4443 0.99472 0.27861 0.0
C123 C 0.42045 0.07463 0.30861 0.0
O124 O 0.41264 0.05609 0.32079 0.0
C125 C 0.499 0.06241 0.27814 0.0
Zn126 Zn 0.28298 0.24243 0.5269 0.0
Zn127 Zn 0.30778 0.21307 0.52726 0.0
O128 O 0.3138 0.23059 0.49713 0.0
O129 O 0.29262 0.25485 0.49703 0.0
O130 O 0.33146 0.19473 0.52853 0.0
O131 O 0.29687 0.26081 0.55803 0.0
O132 O 0.31225 0.23136 0.55994 0.0
C133 C 0.30603 0.24573 0.48727 0.0
C134 C 0.25548 0.1888 0.52466 0.0
O135 O 0.27524 0.18588 0.52408 0.0
O136 O 0.25442 0.21059 0.52595 0.0
C137 C 0.32657 0.1725 0.53365 0.0
O138 O 0.30538 0.16053 0.53864 0.0
C139 C 0.30743 0.24945 0.56952 0.0
Zn140 Zn 0.14296 0.06757 0.82815 0.0
Zn141 Zn 0.1651 0.03843 0.82079 0.0
O142 O 0.15572 0.0312 0.852 0.0
O143 O 0.14355 0.06258 0.85991 0.0
O144 O 0.18312 0.0161 0.81362 0.0
O145 O 0.11509 0.04723 0.80784 0.0
O146 O 0.13767 0.02727 0.79596 0.0
C147 C 0.14804 0.04378 0.8656 0.0
C148 C 0.18622 0.09385 0.81562 0.0
O149 O 0.18893 0.07317 0.81839 0.0
O150 O 0.16658 0.09627 0.81716 0.0
C151 C 0.20363 0.02115 0.82331 0.0
O152 O 0.21217 0.0405 0.83846 0.0
C153 C 0.11856 0.03171 0.79386 0.0
Zn154 Zn 0.34736 0.8967 0.01459 0.0
Zn155 Zn 0.29116 0.91748 0.00451 0.0
O156 O 0.29975 0.89321 0.98085 0.0
O157 O 0.33102 0.88016 0.98402 0.0
O158 O 0.2615 0.923 0.99558 0.0
O159 O 0.31817 0.90089 0.02529 0.0
O160 O 0.28666 0.90468 0.03539 0.0
C161 C 0.31224 0.88075 0.97328 0.0
C162 C 0.33582 0.94595 0.01016 0.0
O163 O 0.31766 0.95174 0.00745 0.0
O164 O 0.3324 0.92346 0.01323 0.0
C165 C 0.26202 0.94219 0.98617 0.0
O166 O 0.28092 0.95439 0.97713 0.0
C167 C 0.30376 0.89757 0.03968 0.0
Zn168 Zn 0.32834 0.3374 0.03971 0.0
Zn169 Zn 0.30078 0.36342 0.03562 0.0
O170 O 0.29534 0.34248 0.0041 0.0
O171 O 0.31771 0.31971 0.00808 0.0
O172 O 0.27655 0.38069 0.03362 0.0
O173 O 0.31706 0.32426 0.06892 0.0
O174 O 0.29553 0.34811 0.06667 0.0
C175 C 0.30407 0.32688 0.99565 0.0
C176 C 0.35322 0.39065 0.0395 0.0
O177 O 0.33269 0.39184 0.0371 0.0
O178 O 0.35579 0.36987 0.04171 0.0
C179 C 0.27707 0.39713 0.02043 0.0
O180 O 0.29379 0.40318 0.00722 0.0
C181 C 0.30302 0.3334 0.07743 0.0
Zn182 Zn 0.77779 0.17702 0.06497 0.0
Zn183 Zn 0.80403 0.15444 0.05404 0.0
O184 O 0.7967 0.16733 0.02435 0.0
O185 O 0.76599 0.17632 0.03326 0.0
O186 O 0.82713 0.13749 0.04765 0.0
O187 O 0.80307 0.20682 0.08135 0.0
O188 O 0.81975 0.17852 0.08232 0.0
C189 C 0.77858 0.17271 0.01868 0.0
C190 C 0.75986 0.12756 0.07372 0.0
O191 O 0.77519 0.12655 0.06096 0.0
O192 O 0.75957 0.14859 0.08141 0.0
C193 C 0.82003 0.11464 0.03997 0.0
O194 O 0.79747 0.10249 0.03526 0.0
C195 C 0.81861 0.19932 0.09001 0.0
Zn196 Zn 0.1241 0.53856 0.24738 0.0
Zn197 Zn 0.15476 0.51534 0.2411 0.0
O198 O 0.14306 0.50477 0.27057 0.0
O199 O 0.11337 0.51818 0.27233 0.0
O200 O 0.17812 0.49845 0.23878 0.0
O201 O 0.10859 0.52332 0.21699 0.0
O202 O 0.13099 0.50037 0.21409 0.0
C203 C 0.12539 0.5058 0.27982 0.0
C204 C 0.17121 0.57204 0.24813 0.0
O205 O 0.17443 0.55204 0.24151 0.0
O206 O 0.15126 0.57148 0.25311 0.0
C207 C 0.1984 0.50935 0.24905 0.0
O208 O 0.20363 0.53169 0.25965 0.0
C209 C 0.11367 0.50612 0.20665 0.0
Zn210 Zn 0.82835 0.83986 0.53931 0.0
Zn211 Zn 0.79873 0.86394 0.53606 0.0
O212 O 0.79474 0.84349 0.50444 0.0
O213 O 0.81772 0.82134 0.50789 0.0
O214 O 0.77324 0.87985 0.53282 0.0
O215 O 0.81759 0.82614 0.56817 0.0
O216 O 0.79399 0.8478 0.56705 0.0
C217 C 0.80357 0.82809 0.49575 0.0
C218 C 0.85087 0.89365 0.54097 0.0
O219 O 0.8299 0.89348 0.53821 0.0
O220 O 0.85477 0.87342 0.54241 0.0
C221 C 0.77693 0.90238 0.54029 0.0
O222 O 0.79752 0.91564 0.55086 0.0
C223 C 0.80302 0.83391 0.5774 0.0
Zn224 Zn 0.927 0.98134 0.20059 0.0
Zn225 Zn 0.91361 0.03113 0.22267 0.0
O226 O 0.9333 0.02468 0.2476 0.0
O227 O 0.9444 0.99432 0.23245 0.0
O228 O 0.9041 0.05956 0.23258 0.0
O229 O 0.92178 0.00471 0.17754 0.0
O230 O 0.93357 0.04093 0.1981 0.0
C231 C 0.94497 0.0101 0.24861 0.0
C232 C 0.88126 0.98476 0.20109 0.0
O233 O 0.88375 1.00215 0.21618 0.0
O234 O 0.89737 0.9879 0.18843 0.0
C235 C 0.91187 0.07331 0.25086 0.0
O236 O 0.92828 0.0698 0.26412 0.0
C237 C 0.93358 0.02793 0.18025 0.0
Zn238 Zn 0.27543 0.6702 0.56978 0.0
Zn239 Zn 0.30288 0.65248 0.56173 0.0
O240 O 0.29529 0.66419 0.53167 0.0
O241 O 0.26111 0.66592 0.53874 0.0
O242 O 0.32594 0.63583 0.55529 0.0
O243 O 0.29744 0.70335 0.58147 0.0
O244 O 0.31935 0.68077 0.58769 0.0
C245 C 0.27578 0.66629 0.52504 0.0
C246 C 0.25869 0.62483 0.58172 0.0
O247 O 0.27372 0.62381 0.56854 0.0
O248 O 0.25977 0.64592 0.59051 0.0
C249 C 0.31935 0.61772 0.53999 0.0
O250 O 0.2982 0.61119 0.52942 0.0
C251 C 0.31533 0.70107 0.59155 0.0
Zn252 Zn 0.45314 0.50544 0.70602 0.0
Zn253 Zn 0.4213 0.52678 0.71807 0.0
O254 O 0.44142 0.52844 0.74694 0.0
O255 O 0.46845 0.51315 0.73749 0.0
O256 O 0.39854 0.54314 0.72734 0.0
O257 O 0.46289 0.53098 0.68488 0.0
O258 O 0.43801 0.54903 0.6952 0.0
C259 C 0.45934 0.52263 0.75217 0.0
C260 C 0.40564 0.47159 0.69984 0.0
O261 O 0.40117 0.49083 0.70693 0.0
O262 O 0.42651 0.4731 0.69755 0.0
C263 C 0.39285 0.54407 0.74708 0.0
O264 O 0.40109 0.53286 0.76206 0.0
C265 C 0.45421 0.54802 0.6836 0.0
Zn266 Zn 0.62915 0.03614 0.73749 0.0
Zn267 Zn 0.66043 0.01246 0.74112 0.0
O268 O 0.64343 0.00454 0.76839 0.0
O269 O 0.61802 0.02417 0.76623 0.0
O270 O 0.68343 0.99574 0.74579 0.0
O271 O 0.61423 0.01194 0.71076 0.0
O272 O 0.64103 0.99402 0.71233 0.0
C273 C 0.62685 0.01015 0.77597 0.0
C274 C 0.67696 0.06909 0.73996 0.0
O275 O 0.68101 0.04895 0.74187 0.0
O276 O 0.65608 0.06874 0.73688 0.0
C277 C 0.69703 1.00288 0.76376 0.0
O278 O 0.69587 0.0214 0.77723 0.0
C279 C 0.62208 0.99542 0.7034 0.0
Zn280 Zn 0.77914 0.73686 0.02284 0.0
Zn281 Zn 0.80875 0.71298 0.02683 0.0
O282 O 0.81494 0.73004 0.99659 0.0
O283 O 0.79316 0.75366 0.99591 0.0
O284 O 0.83258 0.69532 0.03041 0.0
O285 O 0.7867 0.7513 0.05584 0.0
O286 O 0.81298 0.73297 0.05875 0.0
C287 C 0.80744 0.74535 0.98671 0.0
C288 C 0.75658 0.6832 0.01811 0.0
O289 O 0.77738 0.68357 0.02301 0.0
O290 O 0.75282 0.70341 0.01605 0.0
C291 C 0.84053 0.68657 0.01412 0.0
O292 O 0.83374 0.68956 0.99372 0.0
C293 C 0.80216 0.7462 0.06773 0.0
Zn294 Zn 0.99931 0.5394 0.82955 0.0
Zn295 Zn 0.96732 0.56471 0.81232 0.0
O296 O 0.96425 0.57097 0.84464 0.0
O297 O 0.99512 0.56106 0.85629 0.0
O298 O 0.95033 0.58319 0.7957 0.0
O299 O 0.02035 0.55311 0.80528 0.0
O300 O 1.00131 0.57817 0.80942 0.0
C301 C 0.9793 0.57027 0.86 0.0
C302 C 0.95249 0.508 0.80724 0.0
O303 O 0.9502 0.52831 0.80237 0.0
O304 O 0.97069 0.50808 0.81902 0.0
C305 C 0.9287 0.57552 0.79834 0.0
O306 O 0.92074 0.55743 0.81096 0.0
C307 C 0.01113 0.5674 0.79659 0.0
Zn308 Zn 0.85569 0.42439 0.48672 0.0
Zn309 Zn 0.79743 0.4243 0.50481 0.0
O310 O 0.78407 0.40211 0.47535 0.0
O311 O 0.82094 0.40778 0.47329 0.0
O312 O 0.77191 0.42662 0.52239 0.0
O313 O 0.8553 0.41148 0.51721 0.0
O314 O 0.81944 0.41101 0.52378 0.0
C315 C 0.79973 0.39757 0.46499 0.0
C316 C 0.83262 0.46093 0.49121 0.0
O317 O 0.81522 0.46065 0.50123 0.0
O318 O 0.83135 0.44041 0.48105 0.0
C319 C 0.75643 0.43264 0.51149 0.0
O320 O 0.75643 0.43243 0.48975 0.0
C321 C 0.83818 0.40635 0.52913 0.0
Zn322 Zn 0.64883 0.56616 0.34824 0.0
Zn323 Zn 0.6704 0.53396 0.33261 0.0
O324 O 0.65626 0.51703 0.35903 0.0
O325 O 0.64058 0.54388 0.37262 0.0
O326 O 0.68941 0.51414 0.32145 0.0
O327 O 0.62873 0.55641 0.31842 0.0
O328 O 0.64665 0.53107 0.30651 0.0
C329 C 0.64511 0.52397 0.37351 0.0
C330 C 0.69691 0.59068 0.34598 0.0
O331 O 0.69483 0.56862 0.33869 0.0
O332 O 0.67925 0.5954 0.35185 0.0
C333 C 0.71067 0.52037 0.32953 0.0
O334 O 0.7191 0.53844 0.34586 0.0
C335 C 0.63123 0.54118 0.30336 0.0
Tb336 Tb 0.08884 0.06278 0.04584 0.0
Tb337 Tb 0.03563 0.0242 0.02737 0.0
C338 C 0.04856 0.05478 0.07393 0.0
C339 C 0.15096 0.07963 0.05771 0.0
C340 C 0.18002 0.05211 0.04862 0.0
C341 C 0.16343 0.04441 0.06375 0.0
C342 C 0.14904 0.05813 0.06837 0.0
C343 C 0.16896 0.08841 0.04402 0.0
C344 C 0.18343 0.07467 0.03948 0.0
C345 C 0.13121 0.08885 0.05623 0.0
O346 O 0.0906 0.02537 0.04752 0.0
O347 O 0.05134 1.00306 0.04777 0.0
O348 O 0.05854 0.01354 0.00612 0.0
O349 O 0.08319 0.05349 0.01036 0.0
O350 O 1.00519 0.99752 0.03579 0.0
O351 O 1.0063 0.01063 0.00318 0.0
O352 O 0.04073 0.05902 0.01247 0.0
O353 O 0.06861 0.08693 0.03849 0.0
O354 O 0.07003 0.0552 0.07458 0.0
O355 O 0.03476 0.04949 0.0553 0.0
C356 C 0.07348 0.00494 0.05081 0.0
O357 O 0.12062 0.08583 0.03619 0.0
O358 O 0.11625 0.08216 0.07086 0.0
C359 C 0.07738 0.03067 0.00112 0.0
C360 C 0.97278 0.00688 0.02149 0.0
C361 C 0.93613 0.02559 0.02711 0.0
C362 C 0.93345 0.00608 0.01035 0.0
C363 C 0.9517 0.99684 0.00753 0.0
C364 C 0.97513 0.02577 0.03864 0.0
C365 C 0.9571 0.03506 0.04138 0.0
C366 C 0.99292 0.99904 0.01769 0.0
C367 C 0.05184 0.082 0.02184 0.0
H368 H 0.16056 0.02691 0.07078 0.0
H369 H 0.13519 0.05073 0.07882 0.0
H370 H 0.1705 0.10468 0.03536 0.0
H371 H 0.19605 0.08063 0.02754 0.0
H372 H 0.91736 0.99813 -0.00071 0.0
H373 H 0.94952 0.98222 0.99425 0.0
H374 H 0.99112 0.03378 0.04973 0.0
H375 H 0.95996 0.05029 0.05425 0.0
Tb376 Tb 0.28548 0.79082 0.30583 0.0
Tb377 Tb 0.31986 0.79336 0.267 0.0
C378 C 0.26947 0.79738 0.25697 0.0
C379 C 0.25265 0.7671 0.35152 0.0
C380 C 0.24987 0.73426 0.38381 0.0
C381 C 0.24533 0.75639 0.38874 0.0
C382 C 0.24665 0.77276 0.37259 0.0
C383 C 0.25581 0.74425 0.34618 0.0
C384 C 0.25428 0.72779 0.36227 0.0
C385 C 0.25918 0.78635 0.33641 0.0
O386 O 0.27308 0.75505 0.28571 0.0
O387 O 0.30751 0.75464 0.27336 0.0
O388 O 0.34032 0.79912 0.29913 0.0
O389 O 0.31179 0.77563 0.31835 0.0
O390 O 0.32824 0.78054 0.23651 0.0
O391 O 0.35336 0.81143 0.25783 0.0
O392 O 0.31541 0.82913 0.27104 0.0
O393 O 0.30882 0.82938 0.3077 0.0
O394 O 0.26939 0.80359 0.27831 0.0
O395 O 0.28567 0.78924 0.24954 0.0
C396 C 0.28593 0.74312 0.27723 0.0
O397 O 0.28134 0.80004 0.33905 0.0
O398 O 0.25151 0.77894 0.3155 0.0
C399 C 0.334 0.78519 0.31532 0.0
C400 C 0.35058 0.81454 0.21964 0.0
C401 C 0.34747 0.83852 0.18173 0.0
C402 C 0.35867 0.82082 0.1816 0.0
C403 C 0.36023 0.8088 0.2006 0.0
C404 C 0.34063 0.83334 0.22004 0.0
C405 C 0.33906 0.84525 0.20116 0.0
C406 C 0.34807 0.79911 0.23804 0.0
C407 C 0.31464 0.84103 0.29006 0.0
H408 H 0.24206 0.7616 0.40543 0.0
H409 H 0.24439 0.79043 0.37692 0.0
H410 H 0.26082 0.73981 0.33003 0.0
H411 H 0.25815 0.71093 0.35839 0.0
H412 H 0.36498 0.81535 0.1665 0.0
H413 H 0.36783 0.79424 0.20007 0.0
H414 H 0.33299 0.83793 0.23455 0.0
H415 H 0.33013 0.8587 0.20131 0.0
Tb416 Tb 0.52505 0.03429 0.53814 0.0
Tb417 Tb 0.58109 0.04173 0.5325 0.0
C418 C 0.55641 0.02171 0.57352 0.0
C419 C 0.46944 0.04861 0.53992 0.0
C420 C 0.44159 0.07942 0.53793 0.0
C421 C 0.43993 0.06342 0.55476 0.0
C422 C 0.45364 0.04819 0.5557 0.0
C423 C 0.47135 0.06473 0.52316 0.0
C424 C 0.4575 0.0799 0.52213 0.0
C425 C 0.48321 0.03172 0.54109 0.0
O426 O 0.54711 0.07044 0.5558 0.0
O427 O 0.57975 0.0792 0.53658 0.0
O428 O 0.56228 0.03931 0.50001 0.0
O429 O 0.53661 0.05717 0.51197 0.0
O430 O 0.61526 0.04881 0.54754 0.0
O431 O 0.60738 0.04166 0.51191 0.0
O432 O 0.56302 1.00195 0.53024 0.0
O433 O 0.52547 1.00023 0.51883 0.0
O434 O 0.5357 0.01346 0.56225 0.0
O435 O 0.57393 0.03942 0.567 0.0
C436 C 0.56608 0.08643 0.54922 0.0
O437 O 0.49089 0.02576 0.52269 0.0
O438 O 0.49891 0.03626 0.55827 0.0
C439 C 0.54727 0.0507 0.49603 0.0
C440 C 0.63587 0.02687 0.52815 0.0
C441 C 0.66138 0.99373 0.52685 0.0
C442 C 0.67041 0.01745 0.51931 0.0
C443 C 0.65779 0.0338 0.51997 0.0
C444 C 0.62656 1.00314 0.53549 0.0
C445 C 0.63923 0.98676 0.5349 0.0
C446 C 0.623 0.04457 0.52873 0.0
C447 C 0.54158 0.98961 0.52111 0.0
H448 H 0.42765 0.06229 0.56701 0.0
H449 H 0.45176 0.03586 0.56871 0.0
H450 H 0.48345 0.06555 0.51079 0.0
H451 H 0.4594 0.09215 0.50906 0.0
H452 H 0.68751 0.02364 0.51332 0.0
H453 H 0.66526 0.05199 0.5142 0.0
H454 H 0.60956 0.99732 0.54172 0.0
H455 H 0.63162 0.96858 0.54063 0.0
Tb456 Tb 0.33764 0.29972 0.78579 0.0
Tb457 Tb 0.27367 0.28474 0.77884 0.0
C458 C 0.30707 0.25213 0.78695 0.0
C459 C 0.39858 0.31375 0.77224 0.0
C460 C 0.43067 0.30327 0.74508 0.0
C461 C 0.42327 0.28942 0.76306 0.0
C462 C 0.4074 0.29459 0.77649 0.0
C463 C 0.40616 0.32771 0.75438 0.0
C464 C 0.42192 0.32248 0.74094 0.0
C465 C 0.38136 0.31916 0.786 0.0
O466 O 0.32454 0.28791 0.75014 0.0
O467 O 0.28319 0.27556 0.74563 0.0
O468 O 0.28659 0.32107 0.76801 0.0
O469 O 0.32083 0.3278 0.78935 0.0
O470 O 0.2452 0.25355 0.78476 0.0
O471 O 0.24015 0.2842 0.76821 0.0
O472 O 0.28517 0.29863 0.81412 0.0
O473 O 0.32522 0.30214 0.81938 0.0
O474 O 0.32955 0.25951 0.78834 0.0
O475 O 0.30054 0.27063 0.78328 0.0
C476 C 0.30386 0.2793 0.73775 0.0
O477 O 0.36637 0.32752 0.77574 0.0
O478 O 0.37136 0.30271 0.79932 0.0
C479 C 0.30891 0.33379 0.77303 0.0
C480 C 0.21139 0.26464 0.79103 0.0
C481 C 0.17598 0.27005 0.81652 0.0
C482 C 0.17462 0.27201 0.79345 0.0
C483 C 0.19201 0.26921 0.7809 0.0
C484 C 0.21296 0.26262 0.81407 0.0
C485 C 0.19537 0.26522 0.82667 0.0
C486 C 0.23012 0.26367 0.77723 0.0
C487 C 0.30506 0.30203 0.82685 0.0
H488 H 0.42962 0.27446 0.76665 0.0
H489 H 0.40201 0.28349 0.79014 0.0
H490 H 0.39991 0.34274 0.75077 0.0
H491 H 0.4276 0.33386 0.72753 0.0
H492 H 0.16029 0.27621 0.78507 0.0
H493 H 0.19054 0.2711 0.76321 0.0
H494 H 0.22782 0.25928 0.82236 0.0
H495 H 0.19691 0.26331 0.84434 0.0
Tb496 Tb 0.05108 0.05347 0.54564 0.0
Tb497 Tb 0.05136 0.02168 0.5004 0.0
C498 C 1.00491 0.01817 0.52025 0.0
C499 C 0.06007 0.07347 0.60447 0.0
C500 C 0.07101 0.05588 0.64416 0.0
C501 C 0.05232 0.06489 0.64216 0.0
C502 C 0.0469 0.07372 0.62239 0.0
C503 C 0.0794 0.06546 0.60683 0.0
C504 C 0.08495 0.05688 0.62665 0.0
C505 C 0.05102 0.0768 0.58238 0.0
O506 O 0.04858 0.01613 0.55651 0.0
O507 O 0.05997 0.99883 0.52599 0.0
O508 O 0.0863 0.04885 0.50762 0.0
O509 O 0.08718 0.05512 0.54523 0.0
O510 O 0.03297 0.99212 0.47616 0.0
O511 O 0.06873 0.01424 0.47333 0.0
O512 O 0.04293 0.05442 0.48874 0.0
O513 O 0.05503 0.08106 0.52092 0.0
O514 O 0.01536 0.04091 0.52969 0.0
O515 O 0.01716 0.00574 0.51167 0.0
C516 C 0.05461 0.99788 0.54691 0.0
O517 O 0.06654 0.0853 0.56858 0.0
O518 O 0.0334 0.0576 0.57317 0.0
C519 C 0.09804 0.05718 0.52724 0.0
C520 C 0.04258 1.00229 0.44054 0.0
C521 C 0.02861 0.01019 0.39717 0.0
C522 C 0.0484 1.00318 0.40137 0.0
C523 C 0.05527 0.99916 0.42291 0.0
C524 C 0.02324 0.00998 0.43651 0.0
C525 C 0.0162 0.01363 0.41504 0.0
C526 C 0.04957 0.99786 0.46315 0.0
C527 C 0.04872 0.07735 0.49915 0.0
H528 H 0.0416 0.06453 0.65571 0.0
H529 H 0.03175 0.07951 0.62067 0.0
H530 H 0.0895 0.06462 0.59301 0.0
H531 H 0.09941 0.04996 0.62794 0.0
H532 H 0.05854 1.00074 0.38802 0.0
H533 H 0.07042 0.99355 0.42579 0.0
H534 H 0.0133 0.01285 0.4499 0.0
H535 H 1.00064 0.01857 0.41242 0.0
Tb536 Tb 0.31707 0.81874 0.77328 0.0
Tb537 Tb 0.29145 0.76184 0.78191 0.0
C538 C 0.31853 0.77548 0.7399 0.0
C539 C 0.32617 0.88504 0.77308 0.0
C540 C 0.30254 0.91861 0.78215 0.0
C541 C 0.30303 0.9095 0.76006 0.0
C542 C 0.31477 0.89282 0.75556 0.0
C543 C 0.32692 0.89553 0.79503 0.0
C544 C 0.31513 0.91204 0.7995 0.0
C545 C 0.33515 0.86436 0.76888 0.0
O546 O 0.28074 0.80874 0.75565 0.0
O547 O 0.2613 0.77451 0.77281 0.0
O548 O 0.29553 0.78402 0.81344 0.0
O549 O 0.29597 0.8201 0.80001 0.0
O550 O 0.26824 0.72566 0.77086 0.0
O551 O 0.28614 0.73444 0.80409 0.0
O552 O 0.32946 0.76658 0.78711 0.0
O553 O 0.34438 0.80907 0.79397 0.0
O554 O 0.32972 0.79819 0.74914 0.0
O555 O 0.30018 0.76062 0.74794 0.0
C556 C 0.26062 0.79222 0.76005 0.0
O557 O 0.33971 0.85422 0.78645 0.0
O558 O 0.32408 0.8475 0.7523 0.0
C559 C 0.29335 0.8059 0.81616 0.0
C560 C 0.28381 0.69682 0.78495 0.0
C561 C 0.30675 0.66184 0.78105 0.0
C562 C 0.28956 0.65924 0.79584 0.0
C563 C 0.2782 0.67669 0.79781 0.0
C564 C 0.30073 0.69927 0.76998 0.0
C565 C 0.31199 0.68188 0.76796 0.0
C566 C 0.27408 0.71673 0.78868 0.0
C567 C 0.34731 0.78716 0.79463 0.0
H568 H 0.29345 0.91434 0.74639 0.0
H569 H 0.31407 0.88523 0.73848 0.0
H570 H 0.33581 0.89026 0.80894 0.0
H571 H 0.31538 0.91921 0.81664 0.0
H572 H 0.28532 0.64412 0.80629 0.0
H573 H 0.26548 0.67481 0.80973 0.0
H574 H 0.30559 0.71492 0.76014 0.0
H575 H 0.32486 0.68419 0.75615 0.0
Tb576 Tb 0.54529 0.02277 0.04894 0.0
Tb577 Tb 0.55411 0.0537 0.00636 0.0
C578 C 0.59605 0.04556 0.03543 0.0
C579 C 0.52159 1.00122 0.09871 0.0
C580 C 0.51348 0.02526 0.13714 0.0
C581 C 0.52227 0.0057 0.1387 0.0
C582 C 0.52649 0.99376 0.11943 0.0
C583 C 0.5105 0.01898 0.09717 0.0
C584 C 0.50665 0.03115 0.11637 0.0
C585 C 0.53355 0.99629 0.08005 0.0
O586 O 0.54854 0.06045 0.06469 0.0
O587 O 0.551 0.0809 0.03321 0.0
O588 O 0.51678 0.03426 0.00365 0.0
O589 O 0.51425 0.03167 0.04055 0.0
O590 O 0.57409 0.08619 0.99336 0.0
O591 O 0.54232 0.06049 0.97495 0.0
O592 O 0.55608 0.01763 0.99172 0.0
O593 O 0.54768 0.99537 0.02198 0.0
O594 O 0.58271 0.03654 0.05085 0.0
O595 O 0.58827 0.05197 0.01687 0.0
C596 C 0.54962 0.08077 0.05496 0.0
O597 O 0.52136 0.99153 0.06052 0.0
O598 O 0.55431 0.01298 0.08001 0.0
C599 C 0.50462 0.03175 0.02063 0.0
C600 C 0.57359 0.07709 0.95496 0.0
C601 C 0.58803 0.05831 0.91711 0.0
C602 C 0.57122 0.06996 0.9149 0.0
C603 C 0.56398 0.0793 0.93382 0.0
C604 C 0.59168 0.06721 0.95709 0.0
C605 C 0.5989 0.05791 0.93824 0.0
C606 C 0.5613 0.07951 0.97416 0.0
C607 C 0.55278 0.99667 0.00112 0.0
H608 H 0.52768 1.00115 0.15481 0.0
H609 H 0.53541 0.98041 0.12084 0.0
H610 H 0.50689 0.02518 0.08132 0.0
H611 H 0.49985 0.04624 0.11507 0.0
H612 H 0.5626 0.07037 0.89867 0.0
H613 H 0.54974 0.08653 0.932 0.0
H614 H 0.59912 0.06507 0.97333 0.0
H615 H 0.61217 0.04935 0.94019 0.0
Tb616 Tb 0.2909 0.25593 0.27279 0.0
Tb617 Tb 0.31561 0.31318 0.28891 0.0
C618 C 0.29364 0.29656 0.2394 0.0
C619 C 0.28115 0.18979 0.26225 0.0
C620 C 0.30898 0.1599 0.26521 0.0
C621 C 0.29668 0.16012 0.24473 0.0
C622 C 0.28282 0.1751 0.24326 0.0
C623 C 0.29205 0.18794 0.283 0.0
C624 C 0.30578 0.17305 0.28445 0.0
C625 C 0.27194 0.21005 0.25973 0.0
O626 O 0.32906 0.26135 0.26993 0.0
O627 O 0.34308 0.30386 0.27127 0.0
O628 O 0.32684 0.29554 0.31633 0.0
O629 O 0.30006 0.25619 0.30852 0.0
O630 O 0.33673 0.34878 0.28237 0.0
O631 O 0.32376 0.34277 0.31428 0.0
O632 O 0.28008 0.30493 0.30091 0.0
O633 O 0.26035 0.26783 0.28008 0.0
O634 O 0.29375 0.27426 0.24242 0.0
O635 O 0.29621 0.31295 0.25665 0.0
C636 C 0.34605 0.28223 0.26642 0.0
O637 O 0.26782 0.22061 0.27795 0.0
O638 O 0.28323 0.22654 0.24724 0.0
C639 C 0.31546 0.27361 0.32261 0.0
C640 C 0.32207 0.37767 0.29819 0.0
C641 C 0.30026 0.41204 0.28933 0.0
C642 C 0.32314 0.42035 0.30012 0.0
C643 C 0.33413 0.40311 0.30446 0.0
C644 C 0.29895 0.36949 0.28807 0.0
C645 C 0.28814 0.38658 0.28358 0.0
C646 C 0.33332 0.35924 0.30099 0.0
C647 C 0.26002 0.2865 0.29435 0.0
H648 H 0.29892 0.14998 0.22974 0.0
H649 H 0.27464 0.17645 0.2271 0.0
H650 H 0.29118 0.19912 0.29794 0.0
H651 H 0.31483 0.17271 0.30048 0.0
H652 H 0.33259 0.44007 0.30461 0.0
H653 H 0.352 0.40957 0.31229 0.0
H654 H 0.2894 0.34986 0.28321 0.0
H655 H 0.27042 0.38 0.27533 0.0
Tb656 Tb 0.55556 0.55744 0.0505 0.0
Tb657 Tb 0.55334 0.52399 0.00568 0.0
C658 C 0.50783 0.52154 0.02669 0.0
C659 C 0.56463 0.58016 0.11029 0.0
C660 C 0.57363 0.56779 0.15329 0.0
C661 C 0.55057 0.55986 0.14283 0.0
C662 C 0.54608 0.56592 0.12142 0.0
C663 C 0.58746 0.58902 0.1212 0.0
C664 C 0.59197 0.58262 0.14229 0.0
C665 C 0.56119 0.58431 0.08679 0.0
O666 O 0.56198 0.52399 0.06301 0.0
O667 O 0.54998 0.49697 0.03101 0.0
O668 O 0.58946 0.53594 0.02057 0.0
O669 O 0.58803 0.5723 0.03595 0.0
O670 O 0.53723 0.49092 0.98448 0.0
O671 O 0.56829 0.51933 0.97634 0.0
O672 O 0.55587 0.56119 0.99418 0.0
O673 O 0.54613 0.57962 0.02503 0.0
O674 O 0.52053 0.53022 0.04586 0.0
O675 O 0.51767 0.52311 0.00808 0.0
C676 C 0.556 0.50092 0.05285 0.0
O677 O 0.5781 0.58335 0.0753 0.0
O678 O 0.54069 0.57264 0.07568 0.0
C679 C 0.60023 0.55901 0.02898 0.0
C680 C 0.53894 0.49955 0.94754 0.0
C681 C 0.51824 0.50442 0.90607 0.0
C682 C 0.53337 0.49061 0.90742 0.0
C683 C 0.54373 0.48823 0.92811 0.0
C684 C 0.52352 0.51293 0.94628 0.0
C685 C 0.51319 0.51529 0.92569 0.0
C686 C 0.55094 0.49891 0.9691 0.0
C687 C 0.55058 0.57994 0.00389 0.0
H688 H 0.53604 0.54879 0.15109 0.0
H689 H 0.52826 0.55901 0.11345 0.0
H690 H 0.60208 0.60015 0.11304 0.0
H691 H 0.60999 0.58871 0.14967 0.0
H692 H 0.53771 0.48228 0.89247 0.0
H693 H 0.55578 0.47805 0.92892 0.0
H694 H 0.51979 0.5219 0.96121 0.0
H695 H 0.50139 0.52579 0.9251 0.0
Tb696 Tb 0.81353 0.31601 0.27062 0.0
Tb697 Tb 0.78734 0.26113 0.28395 0.0
C698 C 0.8102 0.26922 0.2399 0.0
C699 C 0.8232 0.38049 0.2676 0.0
C700 C 0.80553 0.41814 0.28045 0.0
C701 C 0.82458 0.42326 0.26759 0.0
C702 C 0.83343 0.40444 0.2612 0.0
C703 C 0.80417 0.37545 0.28027 0.0
C704 C 0.79536 0.39398 0.28654 0.0
C705 C 0.83151 0.36008 0.26128 0.0
O706 O 0.77562 0.3121 0.26664 0.0
O707 O 0.75954 0.26964 0.26315 0.0
O708 O 0.77858 0.28473 0.30866 0.0
O709 O 0.80772 0.32151 0.30507 0.0
O710 O 0.76368 0.22511 0.27369 0.0
O711 O 0.78033 0.23514 0.30753 0.0
O712 O 0.8242 0.27059 0.29973 0.0
O713 O 0.84337 0.30295 0.28029 0.0
O714 O 0.80775 0.29097 0.24059 0.0
O715 O 0.80775 0.25663 0.25719 0.0
C716 C 0.75718 0.29154 0.26087 0.0
O717 O 0.83968 0.35132 0.27801 0.0
O718 O 0.81676 0.34222 0.24745 0.0
C719 C 0.79098 0.30789 0.31579 0.0
C720 C 0.77896 0.19696 0.28976 0.0
C721 C 0.80867 0.16896 0.28809 0.0
C722 C 0.79844 0.17167 0.30767 0.0
C723 C 0.78368 0.18572 0.30853 0.0
C724 C 0.7878 0.19246 0.26971 0.0
C725 C 0.80252 0.1786 0.26892 0.0
C726 C 0.76897 0.2169 0.29219 0.0
C727 C 0.84417 0.28615 0.29408 0.0
H728 H 0.83272 0.44176 0.26269 0.0
H729 H 0.84811 0.40855 0.25135 0.0
H730 H 0.79598 0.35705 0.28527 0.0
H731 H 0.78033 0.38924 0.29597 0.0
H732 H 0.80293 0.16419 0.3226 0.0
H733 H 0.77717 0.18911 0.32417 0.0
H734 H 0.78458 0.20088 0.25492 0.0
H735 H 0.80991 0.17627 0.25352 0.0
Tb736 Tb 0.04331 0.52109 0.55036 0.0
Tb737 Tb 0.05278 0.55227 0.50889 0.0
C738 C 0.09396 0.54372 0.53667 0.0
C739 C 0.02059 0.50066 0.60228 0.0
C740 C 1.00433 0.51628 0.64055 0.0
C741 C 0.01779 0.50071 0.64181 0.0
C742 C 0.0259 0.49294 0.62274 0.0
C743 C 1.00592 0.51493 0.60071 0.0
C744 C 0.99768 0.52261 0.61982 0.0
C745 C 0.03327 0.49718 0.58362 0.0
O746 O 0.03761 0.55666 0.56153 0.0
O747 O 0.05956 0.58117 0.53753 0.0
O748 O 0.01784 0.54833 0.51686 0.0
O749 O 0.01123 0.51023 0.52818 0.0
O750 O 0.07218 0.58349 0.494 0.0
O751 O 0.03995 0.55675 0.47699 0.0
O752 O 0.04657 0.51267 0.49485 0.0
O753 O 0.05405 0.49651 0.52691 0.0
O754 O 0.08087 0.53897 0.55308 0.0
O755 O 0.08567 0.54662 0.5169 0.0
C756 C 0.04834 0.57921 0.55553 0.0
O757 O 0.02104 0.49049 0.5642 0.0
O758 O 0.05293 0.5153 0.58289 0.0
C759 C 1.00334 0.52689 0.52072 0.0
C760 C 0.07095 0.57173 0.45593 0.0
C761 C 0.08729 0.55276 0.41933 0.0
C762 C 0.06868 0.5618 0.41613 0.0
C763 C 0.06051 0.57122 0.43441 0.0
C764 C 0.0905 0.5642 0.45896 0.0
C765 C 0.09866 0.55484 0.44075 0.0
C766 C 0.05895 0.57545 0.47508 0.0
C767 C 0.05115 0.49464 0.5049 0.0
H768 H 0.02299 0.4956 0.65775 0.0
H769 H 0.03738 0.48213 0.62417 0.0
H770 H 1.00192 0.52128 0.58498 0.0
H771 H 0.98745 0.53475 0.61862 0.0
H772 H 0.05963 0.56026 0.39968 0.0
H773 H 0.04521 0.57666 0.43189 0.0
H774 H 0.09871 0.56421 0.47548 0.0
H775 H 0.11327 0.54833 0.44349 0.0
Tb776 Tb 0.83291 0.79084 0.28591 0.0
Tb777 Tb 0.77506 0.78096 0.27795 0.0
C778 C 0.79437 0.73774 0.28874 0.0
C779 C 0.89369 0.79711 0.27271 0.0
C780 C 0.9282 0.79333 0.24531 0.0
C781 C 0.93094 0.79144 0.26834 0.0
C782 C 0.91389 0.79338 0.28188 0.0
C783 C 0.89054 0.79833 0.24961 0.0
C784 C 0.90767 0.79656 0.23607 0.0
C785 C 0.87679 0.80085 0.28762 0.0
O786 O 0.82263 0.77973 0.24991 0.0
O787 O 0.7829 0.77367 0.24399 0.0
O788 O 0.795 0.81364 0.26374 0.0
O789 O 0.8263 0.82563 0.28968 0.0
O790 O 0.73893 0.75998 0.27218 0.0
O791 O 0.75143 0.80022 0.27777 0.0
O792 O 0.78523 0.79003 0.31408 0.0
O793 O 0.82497 0.79645 0.32008 0.0
O794 O 0.8162 0.75284 0.293 0.0
O795 O 0.77696 0.74447 0.28094 0.0
C796 C 0.80295 0.7744 0.23666 0.0
O797 O 0.8661 0.816 0.28184 0.0
O798 O 0.86253 0.78104 0.29478 0.0
C799 C 0.81326 0.83096 0.27425 0.0
C800 C 0.71476 0.77957 0.29008 0.0
C801 C 0.67887 0.78035 0.31691 0.0
C802 C 0.6898 0.80075 0.30529 0.0
C803 C 0.70742 0.8003 0.29199 0.0
C804 C 0.70398 0.75913 0.30177 0.0
C805 C 0.68616 0.7595 0.31502 0.0
C806 C 0.73314 0.77985 0.27532 0.0
C807 C 0.80479 0.79501 0.32744 0.0
H808 H 0.94663 0.78924 0.27605 0.0
H809 H 0.91671 0.79245 0.29964 0.0
H810 H 0.87502 0.80105 0.24209 0.0
H811 H 0.90489 0.7978 0.21837 0.0
H812 H 0.68439 0.81691 0.30607 0.0
H813 H 0.71523 0.81621 0.283 0.0
H814 H 0.70921 0.74285 0.30063 0.0
H815 H 0.67817 0.74355 0.32388 0.0
Tb816 Tb 0.78926 0.29624 0.80341 0.0
Tb817 Tb 0.81864 0.29092 0.76178 0.0
C818 C 0.77041 0.29992 0.75522 0.0
C819 C 0.75759 0.27701 0.85035 0.0
C820 C 0.74638 0.24125 0.88083 0.0
C821 C 0.73734 0.26087 0.8818 0.0
C822 C 0.74304 0.27876 0.86669 0.0
C823 C 0.76536 0.25665 0.84842 0.0
C824 C 0.75992 0.23899 0.86357 0.0
C825 C 0.76539 0.29639 0.83542 0.0
O826 O 0.77413 0.25801 0.78771 0.0
O827 O 0.80579 0.25391 0.77201 0.0
O828 O 0.84213 0.29629 0.79227 0.0
O829 O 0.81458 0.27985 0.81573 0.0
O830 O 0.82104 0.2735 0.73077 0.0
O831 O 0.85037 0.30405 0.74782 0.0
O832 O 0.81978 0.32897 0.76549 0.0
O833 O 0.81639 0.33255 0.80282 0.0
O834 O 0.77404 0.3099 0.77598 0.0
O835 O 0.7834 0.28749 0.74761 0.0
C836 C 0.78522 0.2441 0.77901 0.0
O837 O 0.78804 0.30765 0.83692 0.0
O838 O 0.75629 0.2896 0.81478 0.0
C839 C 0.83619 0.28612 0.81065 0.0
C840 C 0.84371 0.30278 0.7093 0.0
C841 C 0.84677 0.32762 0.67084 0.0
C842 C 0.85834 0.31039 0.67349 0.0
C843 C 0.85684 0.29806 0.69268 0.0
C844 C 0.8323 0.3201 0.70682 0.0
C845 C 0.83386 0.33248 0.68774 0.0
C846 C 0.84171 0.28971 0.72924 0.0
C847 C 0.8236 0.34258 0.78465 0.0
H848 H 0.72652 0.26286 0.89469 0.0
H849 H 0.73662 0.29421 0.8681 0.0
H850 H 0.77639 0.25488 0.83565 0.0
H851 H 0.76746 0.22439 0.86244 0.0
H852 H 0.86855 0.3065 0.66076 0.0
H853 H 0.86579 0.28479 0.69448 0.0
H854 H 0.82202 0.32386 0.71955 0.0
H855 H 0.82452 0.34541 0.68598 0.0
Tb856 Tb 0.79254 0.75507 0.77156 0.0
Tb857 Tb 0.819 0.81178 0.78947 0.0
C858 C 0.79382 0.79749 0.73966 0.0
C859 C 0.78704 0.6901 0.75837 0.0
C860 C 0.8174 0.6626 0.75925 0.0
C861 C 0.80966 0.66902 0.73892 0.0
C862 C 0.79455 0.68268 0.73848 0.0
C863 C 0.79336 0.68188 0.77839 0.0
C864 C 0.80843 0.66832 0.77881 0.0
C865 C 0.77553 0.70899 0.75869 0.0
O866 O 0.83045 0.7607 0.76659 0.0
O867 O 0.84633 0.80319 0.77144 0.0
O868 O 0.82995 0.79137 0.81466 0.0
O869 O 0.79806 0.75621 0.80791 0.0
O870 O 0.84388 0.84688 0.78688 0.0
O871 O 0.82508 0.84008 0.81574 0.0
O872 O 0.78266 0.80391 0.80013 0.0
O873 O 0.76208 0.76638 0.77993 0.0
O874 O 0.78849 0.77377 0.74231 0.0
O875 O 0.8033 0.81497 0.75644 0.0
C876 C 0.84824 0.78156 0.76465 0.0
O877 O 0.77362 0.71872 0.77824 0.0
O878 O 0.78272 0.72609 0.74534 0.0
C879 C 0.81565 0.77126 0.82163 0.0
C880 C 0.83121 0.87847 0.80196 0.0
C881 C 0.80841 0.91303 0.7971 0.0
C882 C 0.81615 0.90898 0.81843 0.0
C883 C 0.8276 0.89186 0.82084 0.0
C884 C 0.82466 0.88361 0.7806 0.0
C885 C 0.81342 0.90085 0.77821 0.0
C886 C 0.8385 0.8569 0.80469 0.0
C887 C 0.7623 0.78557 0.79388 0.0
H888 H 0.81624 0.66463 0.7236 0.0
H889 H 0.78977 0.68859 0.72279 0.0
H890 H 0.78764 0.68694 0.79398 0.0
H891 H 0.81372 0.663 0.79461 0.0
H892 H 0.81258 0.91838 0.8332 0.0
H893 H 0.83248 0.88807 0.83743 0.0
H894 H 0.82704 0.87342 0.7657 0.0
H895 H 0.8074 0.9035 0.76159 0.0
Tb896 Tb 0.58263 0.55883 0.54006 0.0
Tb897 Tb 0.52804 0.52214 0.52983 0.0
C898 C 0.5451 0.56169 0.57064 0.0
C899 C 0.64473 0.57329 0.54752 0.0
C900 C 0.67599 0.54743 0.5529 0.0
C901 C 0.6813 0.5712 0.56438 0.0
C902 C 0.66554 0.58401 0.56186 0.0
C903 C 0.64025 0.5502 0.5351 0.0
C904 C 0.65572 0.53735 0.53782 0.0
C905 C 0.62568 0.58325 0.54846 0.0
O906 O 0.58246 0.52109 0.54263 0.0
O907 O 0.54567 0.50515 0.55326 0.0
O908 O 0.54692 0.50729 0.50725 0.0
O909 O 0.57569 0.54469 0.50495 0.0
O910 O 0.49837 0.49846 0.54224 0.0
O911 O 0.49805 0.50404 0.50727 0.0
O912 O 0.53163 0.55468 0.51134 0.0
O913 O 0.56421 0.58382 0.53145 0.0
O914 O 0.56587 0.55988 0.57031 0.0
O915 O 0.52865 0.55185 0.55416 0.0
C916 C 0.56665 0.50397 0.55174 0.0
O917 O 0.61372 0.58249 0.52945 0.0
O918 O 0.612 0.57457 0.56366 0.0
C919 C 0.56358 0.5216 0.49697 0.0
C920 C 0.46402 0.50174 0.52415 0.0
C921 C 0.4263 0.51942 0.52385 0.0
C922 C 0.42993 0.50669 0.50451 0.0
C923 C 0.44859 0.49778 0.50471 0.0
C924 C 0.45985 0.51371 0.54371 0.0
C925 C 0.4411 0.52237 0.54355 0.0
C926 C 0.48545 0.49546 0.52332 0.0
C927 C 0.54534 0.57807 0.5172 0.0
H928 H 0.69701 0.57926 0.57595 0.0
H929 H 0.66902 0.60165 0.57181 0.0
H930 H 0.62418 0.54148 0.5241 0.0
H931 H 0.65156 0.51919 0.52856 0.0
H932 H 0.41861 0.50408 0.48917 0.0
H933 H 0.45147 0.48858 0.48947 0.0
H934 H 0.47149 0.51723 0.55896 0.0
H935 H 0.43881 0.53239 0.55859 0.0
Tb936 Tb 0.02195 0.52979 0.03147 0.0
Tb937 Tb 0.08401 0.54211 0.02321 0.0
C938 C 0.05607 0.51725 0.06166 0.0
C939 C 0.967 0.5453 0.02929 0.0
C940 C 0.94065 0.57769 0.03095 0.0
C941 C 0.93039 0.55224 0.03399 0.0
C942 C 0.94333 0.53624 0.03286 0.0
C943 C 0.97779 0.5708 0.02763 0.0
C944 C 0.9647 0.58672 0.02796 0.0
C945 C 0.98007 0.52788 0.02768 0.0
O946 O 0.04241 0.56813 0.04586 0.0
O947 O 0.07992 0.5782 0.03274 0.0
O948 O 0.07507 0.55353 0.99071 0.0
O949 O 0.04669 0.54123 0.00929 0.0
O950 O 0.11431 0.54506 0.04403 0.0
O951 O 0.1151 0.54628 0.00863 0.0
O952 O 0.06355 0.50246 0.01409 0.0
O953 O 0.02302 0.49461 0.01579 0.0
O954 O 0.03341 0.51103 0.05671 0.0
O955 O 0.07008 0.53815 0.05543 0.0
C956 C 0.06323 0.58412 0.04233 0.0
O957 O 0.99243 0.52876 0.01069 0.0
O958 O 0.99121 0.52573 0.04641 0.0
C959 C 0.05326 0.55057 0.99129 0.0
C960 C 0.13922 0.52661 0.0267 0.0
C961 C 0.16609 0.49469 0.02582 0.0
C962 C 0.15664 0.50049 0.0059 0.0
C963 C 0.14345 0.51628 0.00633 0.0
C964 C 0.1484 0.52058 0.04664 0.0
C965 C 0.16162 0.50479 0.04621 0.0
C966 C 0.12638 0.54455 0.02726 0.0
C967 C 0.0412 0.48765 0.01176 0.0
H968 H 0.91231 0.54448 0.03728 0.0
H969 H 0.9348 0.51669 0.0348 0.0
H970 H 0.99626 0.57836 0.02567 0.0
H971 H 0.97349 0.60597 0.02534 0.0
H972 H 0.15999 0.49337 0.98989 0.0
H973 H 0.13689 0.52068 0.99062 0.0
H974 H 0.14558 0.5283 0.06263 0.0
H975 H 0.16837 0.50051 0.06188 0.0
C976 C 0.02731 0.19532 0.96543 0.0
C977 C 1.00733 0.19913 0.97268 0.0
C978 C 0.03508 0.17659 0.97324 0.0
C979 C 0.02258 0.16113 0.98865 0.0
C980 C 1.00228 0.16472 0.99587 0.0
C981 C 0.99497 0.18365 0.98787 0.0
C982 C 0.05674 0.17338 0.96502 0.0
C983 C 0.98826 0.14856 0.01209 0.0
C984 C 0.02915 0.0978 0.99386 0.0
C985 C 0.04487 0.10254 0.01326 0.0
C986 C 0.02197 0.11667 0.9856 0.0
C987 C 0.03052 0.14101 0.99703 0.0
C988 C 0.04641 0.14596 0.0166 0.0
C989 C 0.05344 0.12674 0.02443 0.0
C990 C 1.00511 0.1105 0.96464 0.0
C991 C 0.05583 0.17157 0.0294 0.0
H992 H 0.03705 0.20713 0.95374 0.0
H993 H 0.97948 0.1863 0.99358 0.0
H994 H 0.07008 0.17578 0.97933 0.0
H995 H 0.0524 0.15422 0.95668 0.0
H996 H 0.06455 0.18691 0.95311 0.0
H997 H 0.97294 0.15375 0.01614 0.0
H998 H 0.98187 0.12872 0.00503 0.0
H999 H 0.99955 0.15011 0.02778 0.0
H1000 H 0.02237 0.07924 0.985 0.0
H1001 H 0.06547 0.13065 0.03947 0.0
H1002 H 0.01289 0.12288 0.95191 0.0
H1003 H 0.98881 0.11384 0.96828 0.0
H1004 H 1.00044 0.09083 0.95744 0.0
H1005 H 0.065 0.18554 0.01839 0.0
H1006 H 0.06818 0.17252 0.04418 0.0
H1007 H 0.04115 0.17692 0.03507 0.0
C1008 C 0.15924 0.79521 0.17463 0.0
C1009 C 0.16367 0.81744 0.1647 0.0
C1010 C 0.17638 0.79176 0.18961 0.0
C1011 C 0.19815 0.81134 0.19538 0.0
C1012 C 0.20226 0.83423 0.1861 0.0
C1013 C 0.18516 0.83681 0.17051 0.0
C1014 C 0.17152 0.76684 0.19863 0.0
C1015 C 0.22488 0.85586 0.19238 0.0
C1016 C 0.23405 0.80939 0.24896 0.0
C1017 C 0.25132 0.80083 0.241 0.0
C1018 C 0.21679 0.813 0.23432 0.0
C1019 C 0.21661 0.80783 0.21107 0.0
C1020 C 0.23397 0.79921 0.20286 0.0
C1021 C 0.25114 0.79584 0.21792 0.0
C1022 C 0.19878 0.82247 0.24378 0.0
C1023 C 0.23435 0.7934 0.17817 0.0
H1024 H 0.14281 0.78003 0.16979 0.0
H1025 H 0.18862 0.85395 0.16272 0.0
H1026 H 0.18465 0.75854 0.19365 0.0
H1027 H 0.17321 0.76928 0.2171 0.0
H1028 H 0.15375 0.75351 0.19248 0.0
H1029 H 0.22473 0.87289 0.18481 0.0
H1030 H 0.22811 0.86025 0.21077 0.0
H1031 H 0.23975 0.8508 0.18685 0.0
H1032 H 0.23397 0.81335 0.26674 0.0
H1033 H 0.2644 0.7893 0.21157 0.0
H1034 H 0.18097 0.80862 0.239 0.0
H1035 H 0.19926 0.83993 0.23671 0.0
H1036 H 0.20167 0.82618 0.26224 0.0
H1037 H 0.21752 0.77895 0.17105 0.0
H1038 H 0.2489 0.78668 0.17448 0.0
H1039 H 0.23625 0.81029 0.16957 0.0
C1040 C 0.50037 0.84112 0.49493 0.0
C1041 C 0.51429 0.83374 0.48039 0.0
C1042 C 0.50438 0.8664 0.50134 0.0
C1043 C 0.52296 0.88495 0.49326 0.0
C1044 C 0.53743 0.87771 0.47896 0.0
C1045 C 0.53287 0.85221 0.47261 0.0
C1046 C 0.48852 0.87326 0.5166 0.0
C1047 C 0.55757 0.89692 0.47016 0.0
C1048 C 0.5201 0.95067 0.49531 0.0
C1049 C 0.53572 0.96266 0.5142 0.0
C1050 C 0.51611 0.92549 0.488 0.0
C1051 C 0.5275 0.91189 0.50026 0.0
C1052 C 0.54287 0.92387 0.51963 0.0
C1053 C 0.54705 0.94914 0.52613 0.0
C1054 C 0.49995 0.91353 0.46702 0.0
C1055 C 0.55488 0.91001 0.53358 0.0
H1056 H 0.48582 0.82712 0.50093 0.0
H1057 H 0.54367 0.84677 0.46132 0.0
H1058 H 0.49899 0.88465 0.5319 0.0
H1059 H 0.47969 0.88476 0.50822 0.0
H1060 H 0.4749 0.8566 0.52151 0.0
H1061 H 0.5672 0.8883 0.45923 0.0
H1062 H 0.55098 0.9094 0.46057 0.0
H1063 H 0.57005 0.90874 0.48424 0.0
H1064 H 0.51157 0.96115 0.48589 0.0
H1065 H 0.55916 0.95832 0.54076 0.0
H1066 H 0.48506 0.89741 0.47086 0.0
H1067 H 0.50944 0.9063 0.45484 0.0
H1068 H 0.49291 0.92677 0.45909 0.0
H1069 H 0.5416 0.89386 0.53956 0.0
H1070 H 0.56618 0.92202 0.54826 0.0
H1071 H 0.56581 0.90254 0.52332 0.0
C1072 C 0.5406 0.33063 0.68082 0.0
C1073 C 0.54502 0.31111 0.66881 0.0
C1074 C 0.52106 0.32609 0.69282 0.0
C1075 C 0.5055 0.30135 0.69298 0.0
C1076 C 0.50991 0.28145 0.68109 0.0
C1077 C 0.5296 0.28657 0.66908 0.0
C1078 C 0.51697 0.34788 0.70519 0.0
C1079 C 0.49379 0.25483 0.68095 0.0
C1080 C 0.46821 0.2951 0.74113 0.0
C1081 C 0.4482 0.29863 0.73116 0.0
C1082 C 0.48638 0.29412 0.72855 0.0
C1083 C 0.48454 0.2968 0.70547 0.0
C1084 C 0.46366 0.29855 0.69504 0.0
C1085 C 0.44577 0.29946 0.70801 0.0
C1086 C 0.5082 0.29187 0.74027 0.0
C1087 C 0.46078 0.30107 0.67043 0.0
H1088 H 0.55234 0.34964 0.68071 0.0
H1089 H 0.53287 0.27135 0.65987 0.0
H1090 H 0.49977 0.34877 0.6988 0.0
H1091 H 0.51644 0.34535 0.72317 0.0
H1092 H 0.53078 0.36596 0.70349 0.0
H1093 H 0.50011 0.2414 0.67154 0.0
H1094 H 0.49209 0.24988 0.69827 0.0
H1095 H 0.47603 0.25271 0.67332 0.0
H1096 H 0.47027 0.29444 0.759 0.0
H1097 H 0.4301 0.30155 0.70008 0.0
H1098 H 0.52266 0.31011 0.74161 0.0
H1099 H 0.51382 0.27808 0.73059 0.0
H1100 H 0.50555 0.28622 0.75732 0.0
H1101 H 0.47237 0.31979 0.66713 0.0
H1102 H 0.44246 0.29879 0.66435 0.0
H1103 H 0.46606 0.28707 0.66066 0.0
C1104 C 0.02522 0.86881 0.61026 0.0
C1105 C 0.04421 0.86342 0.62104 0.0
C1106 C 0.02798 0.89032 0.5986 0.0
C1107 C 0.05048 0.90831 0.59718 0.0
C1108 C 0.0699 0.90315 0.60793 0.0
C1109 C 0.06664 0.88114 0.61944 0.0
C1110 C 1.00639 0.8938 0.58771 0.0
C1111 C 0.09437 0.92122 0.60753 0.0
C1112 C 0.05678 0.95332 0.54956 0.0
C1113 C 0.05479 0.97539 0.56 0.0
C1114 C 0.05591 0.93209 0.56127 0.0
C1115 C 0.05326 0.93206 0.58457 0.0
C1116 C 0.05173 0.95449 0.59528 0.0
C1117 C 0.05233 0.97532 0.58312 0.0
C1118 C 0.05739 0.90925 0.54838 0.0
C1119 C 0.04918 0.95651 0.61987 0.0
H1120 H 1.00763 0.85593 0.61088 0.0
H1121 H 0.08176 0.8781 0.6275 0.0
H1122 H 1.00487 0.91142 0.5951 0.0
H1123 H 1.00783 0.89535 0.56966 0.0
H1124 H 0.9901 0.87819 0.58963 0.0
H1125 H 0.10777 0.915 0.61625 0.0
H1126 H 0.09825 0.92355 0.59005 0.0
H1127 H 0.0958 0.93979 0.61558 0.0
H1128 H 0.05861 0.95236 0.53188 0.0
H1129 H 0.05081 0.99177 0.59193 0.0
H1130 H 0.04093 0.89329 0.54875 0.0
H1131 H 0.07187 0.90409 0.5563 0.0
H1132 H 0.06031 0.91205 0.53072 0.0
H1133 H 0.03208 0.94302 0.62303 0.0
H1134 H 0.05019 0.97552 0.62643 0.0
H1135 H 0.06306 0.95165 0.62931 0.0
C1136 C 0.45962 0.7668 0.86545 0.0
C1137 C 0.48187 0.77471 0.85708 0.0
C1138 C 0.43894 0.76904 0.85452 0.0
C1139 C 0.43913 0.77926 0.8338 0.0
C1140 C 0.46128 0.78683 0.82474 0.0
C1141 C 0.48209 0.78469 0.83632 0.0
C1142 C 0.41666 0.76078 0.86568 0.0
C1143 C 0.46311 0.79755 0.8027 0.0
C1144 C 0.37706 0.76379 0.79978 0.0
C1145 C 0.37124 0.78553 0.80398 0.0
C1146 C 0.39899 0.76193 0.80835 0.0
C1147 C 0.41628 0.78201 0.82228 0.0
C1148 C 0.41048 0.80399 0.82657 0.0
C1149 C 0.38865 0.80557 0.81733 0.0
C1150 C 0.40358 0.73811 0.80247 0.0
C1151 C 0.42727 0.82594 0.84154 0.0
H1152 H 0.45824 0.75899 0.88125 0.0
H1153 H 0.49857 0.79125 0.82921 0.0
H1154 H 0.41039 0.77668 0.86866 0.0
H1155 H 0.40273 0.74601 0.85463 0.0
H1156 H 0.41904 0.75349 0.88185 0.0
H1157 H 0.48048 0.80052 0.79663 0.0
H1158 H 0.44926 0.78496 0.79001 0.0
H1159 H 0.46026 0.81568 0.80441 0.0
H1160 H 0.36438 0.74799 0.78952 0.0
H1161 H 0.38501 0.82259 0.82108 0.0
H1162 H 0.40445 0.72865 0.81768 0.0
H1163 H 0.42076 0.74232 0.79574 0.0
H1164 H 0.38976 0.72503 0.78999 0.0
H1165 H 0.42999 0.82028 0.85838 0.0
H1166 H 0.42085 0.84189 0.84314 0.0
H1167 H 0.44456 0.83222 0.83496 0.0
C1168 C 0.5614 0.21027 0.13408 0.0
C1169 C 0.54191 0.21819 0.13101 0.0
C1170 C 0.56285 0.18863 0.12177 0.0
C1171 C 0.54407 0.17322 0.10594 0.0
C1172 C 0.52427 0.1811 0.10275 0.0
C1173 C 0.52345 0.20316 0.11509 0.0
C1174 C 0.58461 0.18205 0.12605 0.0
C1175 C 0.50344 0.1657 0.08664 0.0
C1176 C 0.55524 0.12774 0.05982 0.0
C1177 C 0.54851 0.10435 0.06846 0.0
C1178 C 0.55403 0.14979 0.07165 0.0
C1179 C 0.54529 0.14922 0.09288 0.0
C1180 C 0.53826 0.12561 0.10165 0.0
C1181 C 0.54015 0.1039 0.08966 0.0
C1182 C 0.56244 0.174 0.06134 0.0
C1183 C 0.52839 0.12313 0.1238 0.0
H1184 H 0.57565 0.22099 0.14657 0.0
H1185 H 0.50788 0.20816 0.11279 0.0
H1186 H 0.58014 0.16399 0.13326 0.0
H1187 H 0.59194 0.17976 0.11013 0.0
H1188 H 0.59832 0.19645 0.13768 0.0
H1189 H 0.48943 0.174 0.08568 0.0
H1190 H 0.50893 0.16374 0.06974 0.0
H1191 H 0.49612 0.14666 0.09183 0.0
H1192 H 0.56181 0.12897 0.04365 0.0
H1193 H 0.53461 0.08633 0.09683 0.0
H1194 H 0.5766 0.18809 0.07278 0.0
H1195 H 0.54794 0.1814 0.05885 0.0
H1196 H 0.56917 0.17185 0.04504 0.0
H1197 H 0.54157 0.13551 0.1371 0.0
H1198 H 0.52308 0.1037 0.12831 0.0
H1199 H 0.51292 0.12918 0.12332 0.0
C1200 C 0.1326 0.29839 0.32643 0.0
C1201 C 0.12444 0.28961 0.34675 0.0
C1202 C 0.15414 0.29781 0.31871 0.0
C1203 C 0.16924 0.28797 0.33106 0.0
C1204 C 0.16134 0.27909 0.35169 0.0
C1205 C 0.13956 0.28004 0.35918 0.0
C1206 C 0.16074 0.30787 0.29689 0.0
C1207 C 0.17597 0.26827 0.36598 0.0
C1208 C 0.21502 0.26676 0.29869 0.0
C1209 C 0.23667 0.2868 0.30363 0.0
C1210 C 0.19368 0.26668 0.30761 0.0
C1211 C 0.19283 0.28714 0.32224 0.0
C1212 C 0.21464 0.30738 0.32731 0.0
C1213 C 0.23574 0.30694 0.31824 0.0
C1214 C 0.17173 0.24437 0.3012 0.0
C1215 C 0.21575 0.32995 0.34242 0.0
H1216 H 0.12192 0.30598 0.31614 0.0
H1217 H 0.1343 0.27294 0.37477 0.0
H1218 H 0.17809 0.323 0.29953 0.0
H1219 H 0.16228 0.29293 0.28503 0.0
H1220 H 0.14773 0.31531 0.28914 0.0
H1221 H 0.16806 0.26217 0.38144 0.0
H1222 H 0.17811 0.25206 0.35639 0.0
H1223 H 0.19373 0.28231 0.37061 0.0
H1224 H 0.21466 0.25078 0.28773 0.0
H1225 H 0.25175 0.32275 0.32269 0.0
H1226 H 0.15827 0.25011 0.29206 0.0
H1227 H 0.16444 0.23662 0.31641 0.0
H1228 H 0.17491 0.22945 0.29054 0.0
H1229 H 0.20376 0.3388 0.33497 0.0
H1230 H 0.2337 0.34402 0.34541 0.0
H1231 H 0.20975 0.32426 0.35869 0.0
C1232 C 0.97163 0.05856 0.17339 0.0
C1233 C 0.95173 0.0378 0.16556 0.0
C1234 C 0.99102 0.06541 0.1613 0.0
C1235 C 0.99013 0.05134 0.14091 0.0
C1236 C 0.96981 0.03086 0.13256 0.0
C1237 C 0.95077 0.02436 0.14503 0.0
C1238 C 0.01259 0.08725 0.17051 0.0
C1239 C 0.96834 0.01552 0.11068 0.0
C1240 C 0.02412 0.07372 0.09348 0.0
C1241 C 0.03909 0.05993 0.09421 0.0
C1242 C 0.00963 0.07328 0.11023 0.0
C1243 C 0.01002 0.05826 0.12762 0.0
C1244 C 0.02681 0.04628 0.12955 0.0
C1245 C 0.04148 0.04748 0.11271 0.0
C1246 C 0.99207 0.08648 0.10786 0.0
C1247 C 0.02743 0.02984 0.14778 0.0
H1248 H 0.97251 0.0688 0.18943 0.0
H1249 H 0.93537 0.00829 0.13903 0.0
H1250 H 0.02789 0.08103 0.17278 0.0
H1251 H 0.01668 0.10146 0.15851 0.0
H1252 H 0.01045 0.09615 0.18676 0.0
H1253 H 0.95137 0.99987 0.10689 0.0
H1254 H 0.97053 0.02748 0.09683 0.0
H1255 H 0.98268 0.0077 0.11109 0.0
H1256 H 0.02264 0.08347 0.07905 0.0
H1257 H 0.05311 0.03676 0.11295 0.0
H1258 H 0.99048 0.09554 0.12421 0.0
H1259 H 0.9746 0.07266 0.10155 0.0
H1260 H 0.99692 0.10081 0.09599 0.0
H1261 H 0.02487 0.0383 0.16402 0.0
H1262 H 0.0442 0.02619 0.14953 0.0
H1263 H 0.01295 0.01167 0.14369 0.0
C1264 C 0.25545 0.68455 0.49832 0.0
C1265 C 0.27081 0.67151 0.50223 0.0
C1266 C 0.25155 0.69165 0.47727 0.0
C1267 C 0.26291 0.68501 0.45962 0.0
C1268 C 0.27754 0.67074 0.46313 0.0
C1269 C 0.28162 0.6644 0.48462 0.0
C1270 C 0.23631 0.70746 0.47431 0.0
C1271 C 0.28946 0.66297 0.44443 0.0
C1272 C 0.23885 0.69607 0.40358 0.0
C1273 C 0.25392 0.72028 0.40196 0.0
C1274 C 0.24229 0.68352 0.42182 0.0
C1275 C 0.26134 0.69557 0.43833 0.0
C1276 C 0.27729 0.71953 0.43595 0.0
C1277 C 0.27327 0.73166 0.41777 0.0
C1278 C 0.22496 0.65802 0.42402 0.0
C1279 C 0.29782 0.73296 0.45323 0.0
H1280 H 0.24718 0.69018 0.51198 0.0
H1281 H 0.29329 0.65406 0.48768 0.0
H1282 H 0.24715 0.72626 0.47046 0.0
H1283 H 0.22258 0.6991 0.46009 0.0
H1284 H 0.22768 0.70968 0.48945 0.0
H1285 H 0.29792 0.64946 0.44927 0.0
H1286 H 0.27665 0.65447 0.42954 0.0
H1287 H 0.30306 0.67962 0.43954 0.0
H1288 H 0.22404 0.6874 0.39105 0.0
H1289 H 0.28504 0.7503 0.41604 0.0
H1290 H 0.21448 0.65925 0.43798 0.0
H1291 H 0.23428 0.64501 0.42801 0.0
H1292 H 0.21277 0.65011 0.40859 0.0
H1293 H 0.29131 0.73764 0.469 0.0
H1294 H 0.30967 0.75048 0.44778 0.0
H1295 H 0.30812 0.72079 0.45691 0.0
C1296 C 0.58477 0.97118 0.68166 0.0
C1297 C 0.60924 0.97896 0.68363 0.0
C1298 C 0.57213 0.96705 0.6607 0.0
C1299 C 0.58463 0.97103 0.64182 0.0
C1300 C 0.60839 0.9727 0.6436 0.0
C1301 C 0.62075 0.97704 0.66485 0.0
C1302 C 0.5465 0.96399 0.65937 0.0
C1303 C 0.6217 0.97494 0.62342 0.0
C1304 C 0.55398 0.98242 0.58912 0.0
C1305 C 0.56139 0.00849 0.59171 0.0
C1306 C 0.56167 0.96963 0.60507 0.0
C1307 C 0.57642 0.98344 0.62417 0.0
C1308 C 0.58319 0.00987 0.62708 0.0
C1309 C 0.57587 0.02205 0.61052 0.0
C1310 C 0.55497 0.94169 0.60078 0.0
C1311 C 0.59843 0.02552 0.64748 0.0
H1312 H 0.57589 0.9718 0.69646 0.0
H1313 H 0.63967 0.98236 0.66652 0.0
H1314 H 0.54471 0.98264 0.65939 0.0
H1315 H 0.53676 0.95254 0.64383 0.0
H1316 H 0.53836 0.95523 0.6739 0.0
H1317 H 0.63726 0.96923 0.6264 0.0
H1318 H 0.61031 0.96336 0.60861 0.0
H1319 H 0.62787 0.99466 0.61971 0.0
H1320 H 0.54307 0.97213 0.57414 0.0
H1321 H 0.58156 0.04226 0.61219 0.0
H1322 H 0.55268 0.9326 0.61641 0.0
H1323 H 0.56919 0.93741 0.59288 0.0
H1324 H 0.53861 0.93337 0.58923 0.0
H1325 H 0.59053 0.01913 0.66284 0.0
H1326 H 0.60087 0.04562 0.64743 0.0
H1327 H 0.61597 0.02367 0.6483 0.0
C1328 C 0.31843 0.31222 0.96112 0.0
C1329 C 0.30163 0.3203 0.97083 0.0
C1330 C 0.31864 0.30901 0.93779 0.0
C1331 C 0.30133 0.31342 0.92342 0.0
C1332 C 0.28381 0.32073 0.93305 0.0
C1333 C 0.28434 0.32439 0.95653 0.0
C1334 C 0.33787 0.30151 0.92853 0.0
C1335 C 0.26471 0.32516 0.91851 0.0
C1336 C 0.31626 0.3281 0.86417 0.0
C1337 C 0.30433 0.30518 0.85147 0.0
C1338 C 0.31496 0.33121 0.88741 0.0
C1339 C 0.30191 0.31073 0.89843 0.0
C1340 C 0.29004 0.28746 0.88557 0.0
C1341 C 0.29112 0.28511 0.86231 0.0
C1342 C 0.32757 0.35646 0.90019 0.0
C1343 C 0.27637 0.26492 0.89642 0.0
H1344 H 0.33212 0.30929 0.97182 0.0
H1345 H 0.27131 0.33071 0.9637 0.0
H1346 H 0.33019 0.28422 0.91688 0.0
H1347 H 0.34837 0.3163 0.9189 0.0
H1348 H 0.34981 0.29833 0.94183 0.0
H1349 H 0.25172 0.32957 0.92839 0.0
H1350 H 0.27251 0.34085 0.90858 0.0
H1351 H 0.25541 0.30843 0.90655 0.0
H1352 H 0.32632 0.34373 0.85585 0.0
H1353 H 0.28185 0.26735 0.8526 0.0
H1354 H 0.34094 0.35515 0.91305 0.0
H1355 H 0.31501 0.36289 0.909 0.0
H1356 H 0.33634 0.37069 0.88919 0.0
H1357 H 0.268 0.24821 0.88415 0.0
H1358 H 0.26257 0.2689 0.90529 0.0
H1359 H 0.28815 0.26052 0.90903 0.0
C1360 C 0.94823 0.99661 0.28602 0.0
C1361 C 0.95883 0.0108 0.26947 0.0
C1362 C 0.96109 0.99733 0.30637 0.0
C1363 C 0.98502 0.01264 0.31001 0.0
C1364 C 0.99578 0.02691 0.29314 0.0
C1365 C 0.98245 0.0258 0.27293 0.0
C1366 C 0.94904 0.98191 0.32401 0.0
C1367 C 0.02125 0.04336 0.29649 0.0
C1368 C 0.01008 0.03106 0.37037 0.0
C1369 C 0.02004 0.01276 0.3742 0.0
C1370 C 0.99909 0.03163 0.34936 0.0
C1371 C 0.9986 0.01387 0.33164 0.0
C1372 C 0.00978 0.99628 0.33502 0.0
C1373 C 0.0202 0.99578 0.35634 0.0
C1374 C 0.98714 0.05054 0.34638 0.0
C1375 C 0.00987 0.97731 0.31635 0.0
H1376 H 0.92987 0.98504 0.28303 0.0
H1377 H 0.99039 0.03672 0.25989 0.0
H1378 H 0.95817 0.96891 0.32859 0.0
H1379 H 0.94986 0.99425 0.3393 0.0
H1380 H 0.93038 0.97087 0.31839 0.0
H1381 H 0.02702 0.0529 0.28153 0.0
H1382 H 0.0243 0.05771 0.31084 0.0
H1383 H 0.03237 0.03209 0.3005 0.0
H1384 H 0.01038 0.04464 0.38396 0.0
H1385 H 0.02762 0.98141 0.35916 0.0
H1386 H 0.968 0.04078 0.34236 0.0
H1387 H 0.99349 0.06125 0.33221 0.0
H1388 H 0.99014 0.06384 0.36156 0.0
H1389 H 0.99178 0.96414 0.31144 0.0
H1390 H 0.02115 0.96644 0.32119 0.0
H1391 H 0.01613 0.98666 0.30145 0.0
C1392 C 0.34471 0.71574 0.62549 0.0
C1393 C 0.3273 0.71924 0.61103 0.0
C1394 C 0.35072 0.7284 0.64709 0.0
C1395 C 0.33824 0.74382 0.65439 0.0
C1396 C 0.32253 0.74938 0.63904 0.0
C1397 C 0.31786 0.7376 0.61735 0.0
C1398 C 0.36883 0.72352 0.66262 0.0
C1399 C 0.30831 0.76519 0.64615 0.0
C1400 C 0.31544 0.74168 0.71031 0.0
C1401 C 0.32642 0.76644 0.7196 0.0
C1402 C 0.32081 0.73337 0.68982 0.0
C1403 C 0.33771 0.75024 0.67842 0.0
C1404 C 0.35038 0.77459 0.68864 0.0
C1405 C 0.34446 0.78251 0.70911 0.0
C1406 C 0.3069 0.70714 0.67955 0.0
C1407 C 0.36905 0.79279 0.6773 0.0
H1408 H 0.35251 0.70202 0.62053 0.0
H1409 H 0.30482 0.74097 0.60609 0.0
H1410 H 0.37873 0.74034 0.67427 0.0
H1411 H 0.36003 0.70833 0.67268 0.0
H1412 H 0.38135 0.71765 0.65319 0.0
H1413 H 0.29806 0.76903 0.63179 0.0
H1414 H 0.29588 0.75538 0.65773 0.0
H1415 H 0.31981 0.78323 0.65517 0.0
H1416 H 0.30191 0.72896 0.7186 0.0
H1417 H 0.35341 0.80156 0.71643 0.0
H1418 H 0.31877 0.69752 0.67384 0.0
H1419 H 0.2953 0.70782 0.66474 0.0
H1420 H 0.29587 0.69583 0.6914 0.0
H1421 H 0.37951 0.78327 0.66854 0.0
H1422 H 0.381 0.8082 0.68939 0.0
H1423 H 0.36069 0.8011 0.66467 0.0
C1424 C 0.59606 0.99531 0.80086 0.0
C1425 C 0.61978 1.0031 0.79763 0.0
C1426 C 0.58936 0.99618 0.82237 0.0
C1427 C 0.60694 0.00625 0.8405 0.0
C1428 C 0.63071 0.0107 0.83747 0.0
C1429 C 0.63689 0.00877 0.81582 0.0
C1430 C 0.56373 0.98977 0.8253 0.0
C1431 C 0.64987 0.02119 0.85655 0.0
C1432 C 0.59751 0.0564 0.87816 0.0
C1433 C 0.59289 0.04487 0.89762 0.0
C1434 C 0.60191 0.04376 0.85939 0.0
C1435 C 0.60143 0.01892 0.86022 0.0
C1436 C 0.59625 0.00696 0.87973 0.0
C1437 C 0.59221 0.02025 0.89837 0.0
C1438 C 0.60722 0.05714 0.83875 0.0
C1439 C 0.59525 0.98044 0.88116 0.0
H1440 H 0.58291 0.99038 0.78657 0.0
H1441 H 0.65524 0.01455 0.81308 0.0
H1442 H 0.55966 0.98131 0.84107 0.0
H1443 H 0.55932 0.00705 0.82605 0.0
H1444 H 0.55247 0.97668 0.81115 0.0
H1445 H 0.66668 0.0195 0.85223 0.0
H1446 H 0.65269 0.04125 0.86078 0.0
H1447 H 0.64483 0.01159 0.87159 0.0
H1448 H 0.59797 0.07544 0.87774 0.0
H1449 H 0.5882 0.01126 0.91345 0.0
H1450 H 0.59383 0.04706 0.82465 0.0
H1451 H 0.6245 0.05755 0.83389 0.0
H1452 H 0.60744 0.07662 0.84122 0.0
H1453 H 0.58818 0.96874 0.86503 0.0
H1454 H 0.58433 0.97176 0.89427 0.0
H1455 H 0.6132 0.98037 0.88554 0.0
C1456 C 0.27849 0.3127 0.10725 0.0
C1457 C 0.29884 0.33031 0.10125 0.0
C1458 C 0.27591 0.30831 0.12983 0.0
C1459 C 0.29408 0.32185 0.14692 0.0
C1460 C 0.31431 0.3402 0.14084 0.0
C1461 C 0.31647 0.34406 0.11821 0.0
C1462 C 0.25407 0.28852 0.13532 0.0
C1463 C 0.3342 0.35514 0.15819 0.0
C1464 C 0.28457 0.32206 0.20939 0.0
C1465 C 0.29299 0.30334 0.21588 0.0
C1466 C 0.28419 0.32788 0.18698 0.0
C1467 C 0.29306 0.31526 0.17071 0.0
C1468 C 0.30186 0.29663 0.17737 0.0
C1469 C 0.30144 0.29076 0.19958 0.0
C1470 C 0.27425 0.34754 0.1807 0.0
C1471 C 0.31215 0.28307 0.16107 0.0
H1472 H 0.26488 0.30187 0.09424 0.0
H1473 H 0.33228 0.35762 0.11366 0.0
H1474 H 0.25858 0.27272 0.1413 0.0
H1475 H 0.24638 0.29606 0.14896 0.0
H1476 H 0.24066 0.2813 0.12066 0.0
H1477 H 0.34787 0.37001 0.1511 0.0
H1478 H 0.32754 0.36387 0.17189 0.0
H1479 H 0.34244 0.34258 0.16561 0.0
H1480 H 0.27799 0.33191 0.22174 0.0
H1481 H 0.30833 0.27652 0.20433 0.0
H1482 H 0.26 0.33963 0.16684 0.0
H1483 H 0.28801 0.36319 0.17465 0.0
H1484 H 0.26721 0.35501 0.19493 0.0
H1485 H 0.29889 0.27336 0.14677 0.0
H1486 H 0.31836 0.26914 0.16881 0.0
H1487 H 0.32713 0.29664 0.15432 0.0
C1488 C 0.24588 0.97647 0.98243 0.0
C1489 C 0.24542 0.95478 0.99193 0.0
C1490 C 0.2338 0.99142 0.991 0.0
C1491 C 0.22129 0.98461 0.00965 0.0
C1492 C 0.21984 0.96215 0.01865 0.0
C1493 C 0.2317 0.94733 0.00949 0.0
C1494 C 0.23526 0.01504 0.98073 0.0
C1495 C 0.20687 0.95445 0.03871 0.0
C1496 C 0.21378 0.03733 0.04637 0.0
C1497 C 0.19063 0.03461 0.03946 0.0
C1498 C 0.22389 0.02077 0.03709 0.0
C1499 C 0.21052 1.00153 0.0203 0.0
C1500 C 0.18701 0.99874 0.01345 0.0
C1501 C 0.17728 0.0153 0.02326 0.0
C1502 C 0.24889 0.02399 0.04507 0.0
C1503 C 0.17231 0.97858 0.99552 0.0
H1504 H 0.2564 0.98227 0.96884 0.0
H1505 H 0.2313 0.93063 0.01702 0.0
H1506 H 0.21743 0.01556 0.97649 0.0
H1507 H 0.24481 0.03146 0.99293 0.0
H1508 H 0.24439 0.01681 0.96541 0.0
H1509 H 0.20658 0.93587 0.04307 0.0
H1510 H 0.21537 0.96839 0.05331 0.0
H1511 H 0.18857 0.95396 0.03562 0.0
H1512 H 0.22387 0.05234 0.05899 0.0
H1513 H 0.15932 0.01346 0.01803 0.0
H1514 H 0.25993 0.02857 0.03116 0.0
H1515 H 0.24987 0.00631 0.05061 0.0
H1516 H 0.25639 0.039 0.05908 0.0
H1517 H 0.18055 0.98105 0.97973 0.0
H1518 H 0.15419 0.97876 0.99239 0.0
H1519 H 0.17139 0.95999 0.0003 0.0
C1520 C 0.71541 0.65765 0.00375 0.0
C1521 C 0.73634 0.65963 0.01631 0.0
C1522 C 0.69484 0.63732 0.00455 0.0
C1523 C 0.69507 0.6187 0.01861 0.0
C1524 C 0.7165 0.61973 0.0302 0.0
C1525 C 0.73698 0.64016 0.02878 0.0
C1526 C 0.6725 0.63673 0.99156 0.0
C1527 C 0.71748 0.60031 0.04538 0.0
C1528 C 0.63728 0.59353 0.0426 0.0
C1529 C 0.62571 0.57151 0.02851 0.0
C1530 C 0.66043 0.60816 0.04044 0.0
C1531 C 0.67236 0.60071 0.02364 0.0
C1532 C 0.66131 0.57766 0.01027 0.0
C1533 C 0.63805 0.56323 0.01291 0.0
C1534 C 0.67157 0.63241 0.05529 0.0
C1535 C 0.67347 0.569 0.99227 0.0
H1536 H 0.71491 0.67249 0.99383 0.0
H1537 H 0.75313 0.6416 0.03853 0.0
H1538 H 0.66314 0.61798 0.98252 0.0
H1539 H 0.66072 0.64069 0.00324 0.0
H1540 H 0.67582 0.65072 0.97931 0.0
H1541 H 0.73575 0.60127 0.05006 0.0
H1542 H 0.70968 0.60329 0.06085 0.0
H1543 H 0.70713 0.5813 0.03736 0.0
H1544 H 0.62793 0.59984 0.05492 0.0
H1545 H 0.62918 0.54619 0.00199 0.0
H1546 H 0.67375 0.64829 0.04521 0.0
H1547 H 0.68923 0.63394 0.06277 0.0
H1548 H 0.66088 0.63424 0.06894 0.0
H1549 H 0.67371 0.58007 0.97795 0.0
H1550 H 0.66445 0.54898 0.98622 0.0
H1551 H 0.69193 0.57198 0.99835 0.0
C1552 C 0.75033 0.51916 0.32429 0.0
C1553 C 0.72594 0.50779 0.32044 0.0
C1554 C 0.76513 0.50713 0.31636 0.0
C1555 C 0.75521 0.48302 0.30469 0.0
C1556 C 0.73059 0.47173 0.30023 0.0
C1557 C 0.71622 0.48439 0.30802 0.0
C1558 C 0.79133 0.51986 0.32103 0.0
C1559 C 0.7194 0.44586 0.28809 0.0
C1560 C 0.79102 0.45283 0.2721 0.0
C1561 C 0.79557 0.43738 0.28736 0.0
C1562 C 0.77858 0.46861 0.27776 0.0
C1563 C 0.77041 0.46859 0.29904 0.0
C1564 C 0.77581 0.45379 0.31479 0.0
C1565 C 0.78859 0.43861 0.30884 0.0
C1566 C 0.77342 0.48453 0.26074 0.0
C1567 C 0.76723 0.45312 0.3376 0.0
H1568 H 0.75789 0.53747 0.33359 0.0
H1569 H 0.69735 0.47561 0.30498 0.0
H1570 H 0.79852 0.50976 0.33292 0.0
H1571 H 0.79979 0.51942 0.30549 0.0
H1572 H 0.79622 0.53957 0.32826 0.0
H1573 H 0.70008 0.44044 0.28472 0.0
H1574 H 0.72677 0.44465 0.27202 0.0
H1575 H 0.72333 0.43213 0.29823 0.0
H1576 H 0.79628 0.45181 0.25544 0.0
H1577 H 0.79252 0.42705 0.32083 0.0
H1578 H 0.7785 0.50414 0.26817 0.0
H1579 H 0.75433 0.47787 0.25541 0.0
H1580 H 0.78276 0.48405 0.24575 0.0
H1581 H 0.77334 0.47218 0.34653 0.0
H1582 H 0.77334 0.44088 0.348 0.0
H1583 H 0.74779 0.44624 0.33587 0.0
C1584 C 0.86782 0.49746 0.48826 0.0
C1585 C 0.85566 0.47827 0.50035 0.0
C1586 C 0.89182 0.51028 0.49401 0.0
C1587 C 0.90376 0.50279 0.51156 0.0
C1588 C 0.89102 0.4847 0.52488 0.0
C1589 C 0.86691 0.47294 0.51929 0.0
C1590 C 0.90472 0.53014 0.47997 0.0
C1591 C 0.9031 0.47589 0.54353 0.0
C1592 C 0.96389 0.50102 0.50346 0.0
C1593 C 0.97818 0.52178 0.51761 0.0
C1594 C 0.93962 0.49522 0.50082 0.0
C1595 C 0.92955 0.51016 0.51328 0.0
C1596 C 0.94403 0.53121 0.52768 0.0
C1597 C 0.96838 0.53701 0.52945 0.0
C1598 C 0.92475 0.47287 0.48497 0.0
C1599 C 0.93381 0.54711 0.5416 0.0
H1600 H 0.85886 0.50152 0.47367 0.0
H1601 H 0.85716 0.45831 0.52875 0.0
H1602 H 0.91797 0.54605 0.49053 0.0
H1603 H 0.9141 0.52224 0.46817 0.0
H1604 H 0.89257 0.53718 0.47019 0.0
H1605 H 0.89046 0.46433 0.5541 0.0
H1606 H 0.91284 0.46446 0.53633 0.0
H1607 H 0.916 0.49195 0.55422 0.0
H1608 H 0.97176 0.48943 0.49437 0.0
H1609 H 0.97972 0.55292 0.5406 0.0
H1610 H 0.91386 0.47858 0.47243 0.0
H1611 H 0.91265 0.45892 0.49426 0.0
H1612 H 0.93546 0.46377 0.47602 0.0
H1613 H 0.92175 0.55337 0.5309 0.0
H1614 H 0.94756 0.56374 0.55084 0.0
H1615 H 0.92337 0.53592 0.55383 0.0
C1616 C 0.40788 0.09775 0.28012 0.0
C1617 C 0.40522 0.08804 0.30076 0.0
C1618 C 0.39257 0.10901 0.2714 0.0
C1619 C 0.3746 0.11108 0.28393 0.0
C1620 C 0.37199 0.10159 0.3049 0.0
C1621 C 0.38722 0.08984 0.31297 0.0
C1622 C 0.39553 0.11854 0.2488 0.0
C1623 C 0.35323 0.10403 0.31887 0.0
C1624 C 0.34917 0.16165 0.277 0.0
C1625 C 0.32671 0.14788 0.26664 0.0
C1626 C 0.36549 0.15007 0.28167 0.0
C1627 C 0.35907 0.12416 0.27569 0.0
C1628 C 0.33703 0.11052 0.26367 0.0
C1629 C 0.32096 0.12263 0.25926 0.0
C1630 C 0.38895 0.16528 0.29427 0.0
C1631 C 0.32994 0.08294 0.2566 0.0
H1632 H 0.4216 0.09599 0.27045 0.0
H1633 H 0.38518 0.08227 0.32889 0.0
H1634 H 0.379 0.10994 0.23759 0.0
H1635 H 0.39945 0.13899 0.25041 0.0
H1636 H 0.40984 0.11449 0.24081 0.0
H1637 H 0.35362 0.0957 0.33483 0.0
H1638 H 0.3555 0.12401 0.32266 0.0
H1639 H 0.33569 0.09475 0.30944 0.0
H1640 H 0.35366 0.18138 0.28218 0.0
H1641 H 0.30359 0.11217 0.25106 0.0
H1642 H 0.40337 0.16175 0.28612 0.0
H1643 H 0.38975 0.15968 0.31139 0.0
H1644 H 0.39207 0.18561 0.29548 0.0
H1645 H 0.34418 0.07872 0.24867 0.0
H1646 H 0.31373 0.07593 0.24476 0.0
H1647 H 0.3268 0.07259 0.2715 0.0
C1648 C 0.36783 0.17314 0.53101 0.0
C1649 C 0.34438 0.15997 0.53383 0.0
C1650 C 0.38469 0.16133 0.53134 0.0
C1651 C 0.37795 0.13566 0.53438 0.0
C1652 C 0.35429 0.12227 0.53708 0.0
C1653 C 0.33787 0.13456 0.53686 0.0
C1654 C 0.40975 0.17635 0.52857 0.0
C1655 C 0.34626 0.09487 0.54024 0.0
C1656 C 0.41511 0.09724 0.51631 0.0
C1657 C 0.42644 0.09516 0.53677 0.0
C1658 C 0.39971 0.1108 0.51521 0.0
C1659 C 0.39558 0.12274 0.53502 0.0
C1660 C 0.40746 0.12128 0.55564 0.0
C1661 C 0.42265 0.1075 0.55626 0.0
C1662 C 0.38733 0.11175 0.49291 0.0
C1663 C 0.40378 0.1339 0.57713 0.0
H1664 H 0.37309 0.19277 0.5287 0.0
H1665 H 0.31982 0.12414 0.53898 0.0
H1666 H 0.42144 0.17576 0.54332 0.0
H1667 H 0.41536 0.1681 0.51381 0.0
H1668 H 0.41222 0.19614 0.52647 0.0
H1669 H 0.3272 0.08703 0.54179 0.0
H1670 H 0.3502 0.08426 0.52592 0.0
H1671 H 0.35594 0.09196 0.55545 0.0
H1672 H 0.41772 0.08761 0.50118 0.0
H1673 H 0.43159 0.10635 0.5721 0.0
H1674 H 0.39036 0.13138 0.48984 0.0
H1675 H 0.36817 0.10239 0.49292 0.0
H1676 H 0.39327 0.10254 0.47893 0.0
H1677 H 0.40729 0.15399 0.57568 0.0
H1678 H 0.41525 0.13212 0.59159 0.0
H1679 H 0.38527 0.12559 0.58052 0.0
C1680 C 0.73685 0.60615 0.33355 0.0
C1681 C 0.71902 0.61113 0.34425 0.0
C1682 C 0.75506 0.62547 0.32643 0.0
C1683 C 0.75535 0.65018 0.33024 0.0
C1684 C 0.73917 0.65556 0.34352 0.0
C1685 C 0.72108 0.63588 0.35034 0.0
C1686 C 0.77237 0.61912 0.31279 0.0
C1687 C 0.73939 0.68187 0.34847 0.0
C1688 C 0.80044 0.70836 0.31475 0.0
C1689 C 0.78815 0.7126 0.29583 0.0
C1690 C 0.79094 0.68684 0.3254 0.0
C1691 C 0.76882 0.66941 0.31673 0.0
C1692 C 0.75769 0.67238 0.29626 0.0
C1693 C 0.76752 0.69404 0.28607 0.0
C1694 C 0.80352 0.6841 0.34696 0.0
C1695 C 0.73427 0.6539 0.28618 0.0
H1696 H 0.73569 0.58705 0.32918 0.0
H1697 H 0.70766 0.63988 0.35906 0.0
H1698 H 0.76688 0.61878 0.29482 0.0
H1699 H 0.79014 0.63334 0.31667 0.0
H1700 H 0.77326 0.60052 0.31567 0.0
H1701 H 0.72806 0.6833 0.36167 0.0
H1702 H 0.75746 0.69487 0.35382 0.0
H1703 H 0.73295 0.68805 0.33311 0.0
H1704 H 0.81649 0.72271 0.32231 0.0
H1705 H 0.75825 0.69717 0.27121 0.0
H1706 H 0.80092 0.66427 0.34883 0.0
H1707 H 0.79641 0.69148 0.36114 0.0
H1708 H 0.8226 0.69476 0.34806 0.0
H1709 H 0.73452 0.63461 0.2855 0.0
H1710 H 0.72935 0.65756 0.26906 0.0
H1711 H 0.72049 0.65499 0.29675 0.0
C1712 C 0.9337 0.46202 0.8079 0.0
C1713 C 0.93252 0.48446 0.80115 0.0
C1714 C 0.91408 0.4401 0.80432 0.0
C1715 C 0.89277 0.44064 0.79375 0.0
C1716 C 0.89152 0.46308 0.78653 0.0
C1717 C 0.91146 0.48473 0.79023 0.0
C1718 C 0.91609 0.41638 0.81209 0.0
C1719 C 0.86904 0.46434 0.7753 0.0
C1720 C 0.85198 0.37734 0.76827 0.0
C1721 C 0.83844 0.36909 0.78578 0.0
C1722 C 0.86893 0.40119 0.77016 0.0
C1723 C 0.8721 0.41736 0.78986 0.0
C1724 C 0.8572 0.40993 0.80683 0.0
C1725 C 0.84068 0.38567 0.80472 0.0
C1726 C 0.88454 0.40834 0.75174 0.0
C1727 C 0.85956 0.42706 0.82774 0.0
H1728 H 0.94985 0.46164 0.81638 0.0
H1729 H 0.91033 0.502 0.785 0.0
H1730 H 0.90368 0.40963 0.82463 0.0
H1731 H 0.91128 0.40159 0.79787 0.0
H1732 H 0.93403 0.41901 0.81966 0.0
H1733 H 0.87103 0.48327 0.77063 0.0
H1734 H 0.86305 0.45093 0.76004 0.0
H1735 H 0.85507 0.45891 0.78659 0.0
H1736 H 0.85031 0.3647 0.75349 0.0
H1737 H 0.83001 0.37951 0.81813 0.0
H1738 H 0.9025 0.40923 0.75768 0.0
H1739 H 0.8858 0.42707 0.74712 0.0
H1740 H 0.87817 0.39475 0.73657 0.0
H1741 H 0.87545 0.4282 0.8386 0.0
H1742 H 0.84417 0.42033 0.83729 0.0
H1743 H 0.86163 0.44619 0.82367 0.0
C1744 C 0.10801 0.88324 0.06857 0.0
C1745 C 0.10189 0.87413 0.089 0.0
C1746 C 0.10368 0.90451 0.06208 0.0
C1747 C 0.09345 0.91746 0.07655 0.0
C1748 C 0.08742 0.90849 0.09729 0.0
C1749 C 0.09144 0.8868 0.10314 0.0
C1750 C 0.10986 0.91296 0.03959 0.0
C1751 C 0.07692 0.92196 0.11344 0.0
C1752 C 0.10105 0.9851 0.06768 0.0
C1753 C 0.07894 0.98274 0.05729 0.0
C1754 C 0.10596 0.96413 0.07424 0.0
C1755 C 0.08857 0.94005 0.0698 0.0
C1756 C 0.06641 0.93753 0.05886 0.0
C1757 C 0.06179 0.95884 0.053 0.0
C1758 C 0.12972 0.96778 0.08612 0.0
C1759 C 0.04755 0.91224 0.05318 0.0
H1760 H 0.116 0.87355 0.05747 0.0
H1761 H 0.08684 0.88008 0.11903 0.0
H1762 H 0.09403 0.91342 0.02958 0.0
H1763 H 0.12283 0.93217 0.04168 0.0
H1764 H 0.11725 0.90057 0.03007 0.0
H1765 H 0.0741 0.91324 0.12926 0.0
H1766 H 0.08859 0.94168 0.11734 0.0
H1767 H 0.05987 0.92205 0.10575 0.0
H1768 H 0.11439 1.00343 0.07108 0.0
H1769 H 0.04474 0.9567 0.04471 0.0
H1770 H 0.13911 0.95835 0.07572 0.0
H1771 H 0.12773 0.95917 0.10202 0.0
H1772 H 0.1407 0.98778 0.0898 0.0
H1773 H 0.05424 0.8998 0.0429 0.0
H1774 H 0.03155 0.91332 0.04393 0.0
H1775 H 0.04265 0.90346 0.06865 0.0
C1776 C 0.92414 0.27001 0.90744 0.0
C1777 C 0.93838 0.25668 0.90052 0.0
C1778 C 0.90804 0.27477 0.89224 0.0
C1779 C 0.90537 0.26519 0.86957 0.0
C1780 C 0.91938 0.25128 0.8625 0.0
C1781 C 0.9361 0.24763 0.87799 0.0
C1782 C 0.89418 0.29048 0.90043 0.0
C1783 C 0.91654 0.24009 0.83863 0.0
C1784 C 0.84732 0.26 0.83767 0.0
C1785 C 0.85397 0.28062 0.82539 0.0
C1786 C 0.86401 0.25419 0.85138 0.0
C1787 C 0.88784 0.26985 0.85346 0.0
C1788 C 0.8946 0.29082 0.84119 0.0
C1789 C 0.87765 0.2957 0.82701 0.0
C1790 C 0.85609 0.23133 0.86371 0.0
C1791 C 0.91962 0.30854 0.84353 0.0
H1792 H 0.92613 0.27747 0.92477 0.0
H1793 H 0.94709 0.23737 0.87258 0.0
H1794 H 0.89701 0.30669 0.89066 0.0
H1795 H 0.87519 0.27943 0.89793 0.0
H1796 H 0.8991 0.29748 0.91837 0.0
H1797 H 0.92802 0.2289 0.83597 0.0
H1798 H 0.89806 0.22796 0.83372 0.0
H1799 H 0.92073 0.25507 0.82739 0.0
H1800 H 0.82907 0.24813 0.83628 0.0
H1801 H 0.88283 0.31173 0.81763 0.0
H1802 H 0.85863 0.23693 0.88192 0.0
H1803 H 0.86685 0.21951 0.86038 0.0
H1804 H 0.83735 0.21999 0.85888 0.0
H1805 H 0.92501 0.3168 0.86112 0.0
H1806 H 0.92206 0.32389 0.83274 0.0
H1807 H 0.9315 0.29835 0.8392 0.0
C1808 C 0.61275 0.23302 0.58549 0.0
C1809 C 0.59582 0.24405 0.58119 0.0
C1810 C 0.60756 0.20731 0.58035 0.0
C1811 C 0.58514 0.19241 0.56979 0.0
C1812 C 0.56817 0.20366 0.56474 0.0
C1813 C 0.57354 0.22931 0.57103 0.0
C1814 C 0.62586 0.19601 0.58681 0.0
C1815 C 0.5444 0.18862 0.55273 0.0
C1816 C 0.58187 0.13034 0.53984 0.0
C1817 C 0.57107 0.11348 0.55471 0.0
C1818 C 0.58585 0.15594 0.54419 0.0
C1819 C 0.57955 0.16505 0.56425 0.0
C1820 C 0.56881 0.1481 0.57943 0.0
C1821 C 0.56435 0.12246 0.57429 0.0
C1822 C 0.5967 0.17323 0.52726 0.0
C1823 C 0.56246 0.1571 0.60131 0.0
H1824 H 0.62986 0.24441 0.59375 0.0
H1825 H 0.56045 0.2379 0.56781 0.0
H1826 H 0.6188 0.1812 0.59784 0.0
H1827 H 0.63039 0.18712 0.57176 0.0
H1828 H 0.64216 0.21005 0.59559 0.0
H1829 H 0.53379 0.20044 0.54873 0.0
H1830 H 0.54641 0.17865 0.537 0.0
H1831 H 0.53463 0.1743 0.56315 0.0
H1832 H 0.58675 0.12343 0.52448 0.0
H1833 H 0.55599 0.10948 0.58582 0.0
H1834 H 0.61402 0.18662 0.53451 0.0
H1835 H 0.58552 0.18428 0.52273 0.0
H1836 H 0.5991 0.163 0.51183 0.0
H1837 H 0.57837 0.17056 0.61119 0.0
H1838 H 0.55447 0.14158 0.61139 0.0
H1839 H 0.54997 0.16705 0.59827 0.0
C1840 C 0.56471 0.79163 0.36695 0.0
C1841 C 0.56203 0.78332 0.38816 0.0
C1842 C 0.58422 0.79189 0.35584 0.0
C1843 C 0.60156 0.78374 0.36618 0.0
C1844 C 0.59925 0.77591 0.3878 0.0
C1845 C 0.57953 0.77573 0.39848 0.0
C1846 C 0.58605 0.80047 0.33284 0.0
C1847 C 0.61745 0.76733 0.39952 0.0
C1848 C 0.63888 0.76 0.32896 0.0
C1849 C 0.65953 0.78078 0.33042 0.0
C1850 C 0.61996 0.7607 0.34057 0.0
C1851 C 0.62174 0.78266 0.35411 0.0
C1852 C 0.6427 0.80356 0.35597 0.0
C1853 C 0.66129 0.80238 0.34409 0.0
C1854 C 0.59789 0.73805 0.33804 0.0
C1855 C 0.64544 0.82725 0.37038 0.0
H1856 H 0.55137 0.7976 0.35883 0.0
H1857 H 0.57776 0.76942 0.41492 0.0
H1858 H 0.60293 0.81585 0.33247 0.0
H1859 H 0.58579 0.78494 0.32061 0.0
H1860 H 0.57154 0.80704 0.3274 0.0
H1861 H 0.61363 0.76287 0.41669 0.0
H1862 H 0.6183 0.75047 0.38989 0.0
H1863 H 0.63501 0.78196 0.40045 0.0
H1864 H 0.63726 0.74336 0.31824 0.0
H1865 H 0.6773 0.81842 0.34552 0.0
H1866 H 0.5829 0.74293 0.33094 0.0
H1867 H 0.59382 0.73168 0.3546 0.0
H1868 H 0.59936 0.72235 0.32706 0.0
H1869 H 0.63195 0.83498 0.36442 0.0
H1870 H 0.663 0.84168 0.37034 0.0
H1871 H 0.64269 0.8232 0.38781 0.0
C1872 C 0.06512 0.20574 0.43345 0.0
C1873 C 0.04387 0.21054 0.43045 0.0
C1874 C 0.06682 0.1844 0.44377 0.0
C1875 C 0.04681 0.16642 0.45122 0.0
C1876 C 0.02531 0.17096 0.44767 0.0
C1877 C 0.02421 0.19254 0.4378 0.0
C1878 C 0.09037 0.18136 0.44716 0.0
C1879 C 1.00315 0.15298 0.4546 0.0
C1880 C 0.04441 0.09857 0.46296 0.0
C1881 C 0.04829 0.09994 0.48648 0.0
C1882 C 0.04437 0.11968 0.45145 0.0
C1883 C 0.04816 0.14354 0.46327 0.0
C1884 C 0.0521 0.14497 0.48698 0.0
C1885 C 0.05222 0.12368 0.49802 0.0
C1886 C 0.04011 0.11633 0.42637 0.0
C1887 C 0.05609 0.16923 0.50095 0.0
H1888 H 0.08071 0.21907 0.42834 0.0
H1889 H 1.0075 0.19531 0.43583 0.0
H1890 H 0.09554 0.182 0.46524 0.0
H1891 H 0.08934 0.16287 0.43924 0.0
H1892 H 0.10421 0.1961 0.44013 0.0
H1893 H 0.98755 0.15808 0.44986 0.0
H1894 H 1.00011 0.13385 0.44679 0.0
H1895 H 1.00497 0.1525 0.47292 0.0
H1896 H 0.04144 0.08085 0.45335 0.0
H1897 H 0.05529 0.12574 0.51604 0.0
H1898 H 0.05493 0.12978 0.41932 0.0
H1899 H 0.0241 0.12036 0.42097 0.0
H1900 H 0.038 0.09715 0.4193 0.0
H1901 H 0.07113 0.18418 0.4957 0.0
H1902 H 0.05958 0.16794 0.51903 0.0
H1903 H 0.04047 0.17487 0.49833 0.0
C1904 C 0.63397 0.30055 0.1955 0.0
C1905 C 0.6158 0.2966 0.20956 0.0
C1906 C 0.65697 0.30052 0.20309 0.0
C1907 C 0.66297 0.29692 0.22564 0.0
C1908 C 0.6449 0.29378 0.23999 0.0
C1909 C 0.62202 0.29329 0.23187 0.0
C1910 C 0.67476 0.30353 0.18659 0.0
C1911 C 0.64957 0.29045 0.26417 0.0
C1912 C 0.71391 0.27158 0.24282 0.0
C1913 C 0.73316 0.29304 0.25162 0.0
C1914 C 0.69169 0.27264 0.23416 0.0
C1915 C 0.68752 0.29573 0.23415 0.0
C1916 C 0.70687 0.31747 0.24309 0.0
C1917 C 0.72902 0.31592 0.25139 0.0
C1918 C 0.67247 0.24868 0.22492 0.0
C1919 C 0.70412 0.34267 0.24418 0.0
H1920 H 0.62995 0.30258 0.17815 0.0
H1921 H 0.60866 0.28997 0.24324 0.0
H1922 H 0.69097 0.31938 0.19278 0.0
H1923 H 0.67958 0.28653 0.18482 0.0
H1924 H 0.66811 0.30677 0.16992 0.0
H1925 H 0.63468 0.29012 0.27376 0.0
H1926 H 0.65293 0.27273 0.26545 0.0
H1927 H 0.66549 0.30578 0.27201 0.0
H1928 H 0.71618 0.25363 0.24256 0.0
H1929 H 0.74318 0.33289 0.258 0.0
H1930 H 0.66609 0.25011 0.20757 0.0
H1931 H 0.65741 0.24539 0.23492 0.0
H1932 H 0.67834 0.23234 0.22496 0.0
H1933 H 0.69925 0.34666 0.2272 0.0
H1934 H 0.72039 0.35789 0.25154 0.0
H1935 H 0.68971 0.34269 0.25431 0.0
C1936 C 0.5749 0.87495 0.93196 0.0
C1937 C 0.55688 0.85279 0.93553 0.0
C1938 C 0.57594 0.89921 0.94148 0.0
C1939 C 0.5583 0.90217 0.95466 0.0
C1940 C 0.53999 0.87991 0.95788 0.0
C1941 C 0.53968 0.85614 0.94872 0.0
C1942 C 0.59615 0.92179 0.93747 0.0
C1943 C 0.52026 0.88111 0.97101 0.0
C1944 C 0.56577 0.95828 -0.00063 0.0
C1945 C 0.55544 0.97353 0.98838 0.0
C1946 C 0.56801 0.93633 0.98839 0.0
C1947 C 0.55885 0.92791 0.96568 0.0
C1948 C 0.54842 0.94329 0.95443 0.0
C1949 C 0.54732 0.96583 0.9656 0.0
C1950 C 0.58021 0.92195 0.00136 0.0
C1951 C 0.53767 0.93552 0.93061 0.0
H1952 H 0.58837 0.87341 0.92187 0.0
H1953 H 0.52529 0.83985 0.95179 0.0
H1954 H 0.58967 0.93362 0.92693 0.0
H1955 H 0.6044 0.9332 0.95351 0.0
H1956 H 0.60967 0.91668 0.92901 0.0
H1957 H 0.50647 0.86255 0.97101 0.0
H1958 H 0.52718 0.88866 0.98853 0.0
H1959 H 0.51209 0.89393 0.96396 0.0
H1960 H 0.57246 0.96371 0.01679 0.0
H1961 H 0.53923 0.97699 0.9566 0.0
H1962 H 0.59343 0.91787 0.9916 0.0
H1963 H 0.56731 0.90383 0.00439 0.0
H1964 H 0.58907 0.93225 0.0177 0.0
H1965 H 0.55123 0.93441 0.9198 0.0
H1966 H 0.52953 0.94868 0.92422 0.0
H1967 H 0.5241 0.91665 0.92923 0.0
C1968 C 0.96347 0.78603 0.69281 0.0
C1969 C 0.98298 0.78485 0.70642 0.0
C1970 C 0.9416 0.78489 0.70136 0.0
C1971 C 0.93835 0.78319 0.72455 0.0
C1972 C 0.95821 0.78262 0.73833 0.0
C1973 C 0.97948 0.78297 0.72927 0.0
C1974 C 0.92156 0.78495 0.68527 0.0
C1975 C 0.95708 0.78161 0.76305 0.0
C1976 C 0.88944 0.80385 0.75158 0.0
C1977 C 0.87121 0.78137 0.75445 0.0
C1978 C 0.91057 0.80463 0.74198 0.0
C1979 C 0.91479 0.78242 0.73446 0.0
C1980 C 0.89647 0.7596 0.73726 0.0
C1981 C 0.87541 0.75934 0.74694 0.0
C1982 C 0.92872 0.82968 0.74004 0.0
C1983 C 0.89905 0.73507 0.72989 0.0
H1984 H 0.96493 0.78697 0.67515 0.0
H1985 H 0.99375 0.78188 0.74046 0.0
H1986 H 0.90616 0.76791 0.68602 0.0
H1987 H 0.9163 0.80119 0.69007 0.0
H1988 H 0.92608 0.7857 0.66783 0.0
H1989 H 0.974 0.78256 0.77197 0.0
H1990 H 0.95217 0.79731 0.77022 0.0
H1991 H 0.94333 0.76409 0.76616 0.0
H1992 H 0.88723 0.82131 0.75689 0.0
H1993 H 0.8621 0.74159 0.74862 0.0
H1994 H 0.93197 0.83155 0.72236 0.0
H1995 H 0.94554 0.83122 0.7495 0.0
H1996 H 0.92333 0.84538 0.74642 0.0
H1997 H 0.90196 0.73426 0.712 0.0
H1998 H 0.88343 0.71888 0.73232 0.0
H1999 H 0.91463 0.73341 0.73941 0.0
C2000 C 0.15297 0.02444 0.90059 0.0
C2001 C 0.14008 0.03444 0.88641 0.0
C2002 C 0.1455 0.01782 0.92139 0.0
C2003 C 0.12469 0.02108 0.9275 0.0
C2004 C 0.11099 0.02969 0.91243 0.0
C2005 C 0.11893 0.03626 0.89212 0.0
C2006 C 0.16023 0.00844 0.93715 0.0
C2007 C 0.0887 0.03365 0.91822 0.0
C2008 C 0.08654 1.00212 0.97273 0.0
C2009 C 0.09246 0.02538 0.98515 0.0
C2010 C 0.09974 0.99891 0.95551 0.0
C2011 C 0.11858 0.01961 0.95053 0.0
C2012 C 0.12633 0.04204 0.96493 0.0
C2013 C 0.11322 0.04454 0.98218 0.0
C2014 C 0.09187 0.97439 0.94101 0.0
C2015 C 0.14612 0.06483 0.96021 0.0
H2016 H 0.16922 0.02284 0.89585 0.0
H2017 H 0.10873 0.04341 0.88076 0.0
H2018 H 0.16703 0.02174 0.95242 0.0
H2019 H 0.14933 0.99044 0.9425 0.0
H2020 H 0.17532 0.00586 0.92945 0.0
H2021 H 0.0798 0.03949 0.90408 0.0
H2022 H 0.07625 0.01627 0.9232 0.0
H2023 H 0.09274 0.04829 0.9325 0.0
H2024 H 0.07101 0.98694 0.97561 0.0
H2025 H 0.11853 0.06231 0.99235 0.0
H2026 H 0.10713 0.97015 0.93538 0.0
H2027 H 0.08082 0.97547 0.92597 0.0
H2028 H 0.08138 0.95885 0.94996 0.0
H2029 H 0.16068 0.05982 0.9539 0.0
H2030 H 0.15314 0.07844 0.97531 0.0
H2031 H 0.13947 0.0742 0.94722 0.0
C2032 C 0.82047 0.38535 0.56137 0.0
C2033 C 0.84025 0.39529 0.55007 0.0
C2034 C 0.82208 0.37465 0.5812 0.0
C2035 C 0.84401 0.37405 0.58996 0.0
C2036 C 0.86407 0.38419 0.57876 0.0
C2037 C 0.86194 0.39463 0.55886 0.0
C2038 C 0.80028 0.36387 0.59269 0.0
C2039 C 0.88776 0.38398 0.58779 0.0
C2040 C 0.85102 0.36542 0.65115 0.0
C2041 C 0.84736 0.33985 0.65016 0.0
C2042 C 0.85034 0.37693 0.63162 0.0
C2043 C 0.84583 0.36244 0.61072 0.0
C2044 C 0.84245 0.33671 0.60962 0.0
C2045 C 0.8433 0.32571 0.6294 0.0
C2046 C 0.85412 0.40447 0.63334 0.0
C2047 C 0.83743 0.3207 0.58757 0.0
H2048 H 0.80363 0.38569 0.55461 0.0
H2049 H 0.87733 0.40242 0.55029 0.0
H2050 H 0.79684 0.34377 0.59407 0.0
H2051 H 0.80286 0.37326 0.60988 0.0
H2052 H 0.78459 0.36589 0.58367 0.0
H2053 H 0.9017 0.39299 0.57722 0.0
H2054 H 0.8927 0.39385 0.60489 0.0
H2055 H 0.88701 0.36451 0.58895 0.0
H2056 H 0.85437 0.37639 0.66722 0.0
H2057 H 0.84015 0.30587 0.62865 0.0
H2058 H 0.83819 0.40741 0.62593 0.0
H2059 H 0.8687 0.41421 0.62375 0.0
H2060 H 0.8582 0.4132 0.65087 0.0
H2061 H 0.82089 0.32072 0.5786 0.0
H2062 H 0.83581 0.3011 0.58963 0.0
H2063 H 0.85159 0.32846 0.57688 0.0
C2064 C 0.47582 0.02223 0.37862 0.0
C2065 C 0.48272 0.04162 0.36516 0.0
C2066 C 0.48675 0.02507 0.40026 0.0
C2067 C 0.50551 0.0474 0.40786 0.0
C2068 C 0.5124 0.06706 0.39426 0.0
C2069 C 0.50052 0.06408 0.37306 0.0
C2070 C 0.47852 0.00414 0.4148 0.0
C2071 C 0.53282 0.09077 0.40175 0.0
C2072 C 0.52133 0.0629 0.46955 0.0
C2073 C 0.53916 0.05287 0.47317 0.0
C2074 C 0.51032 0.0614 0.44825 0.0
C2075 C 0.51786 0.05028 0.43015 0.0
C2076 C 0.53672 0.04139 0.43342 0.0
C2077 C 0.54713 0.04266 0.45507 0.0
C2078 C 0.48995 0.07066 0.44527 0.0
C2079 C 0.54532 0.02981 0.4142 0.0
H2080 H 0.46206 0.00486 0.37213 0.0
H2081 H 0.50599 0.07875 0.36219 0.0
H2082 H 0.49264 0.99644 0.41851 0.0
H2083 H 0.47444 0.01128 0.43096 0.0
H2084 H 0.4627 0.98875 0.40679 0.0
H2085 H 0.53596 0.10416 0.38898 0.0
H2086 H 0.52971 0.10001 0.41736 0.0
H2087 H 0.54895 0.08628 0.40544 0.0
H2088 H 0.51522 0.07103 0.48349 0.0
H2089 H 0.56095 0.03496 0.45785 0.0
H2090 H 0.4739 0.05498 0.43826 0.0
H2091 H 0.49338 0.08484 0.43325 0.0
H2092 H 0.48644 0.07899 0.4612 0.0
H2093 H 0.5315 0.01215 0.40693 0.0
H2094 H 0.56138 0.02572 0.4194 0.0
H2095 H 0.54908 0.04242 0.40084 0.0
C2096 C 0.78435 0.74005 0.10369 0.0
C2097 C 0.80397 0.75136 0.09255 0.0
C2098 C 0.78506 0.74392 0.12709 0.0
C2099 C 0.80569 0.76029 0.13993 0.0
C2100 C 0.82552 0.77215 0.12868 0.0
C2101 C 0.82457 0.76718 0.10522 0.0
C2102 C 0.76368 0.73022 0.13809 0.0
C2103 C 0.8476 0.79046 0.14138 0.0
C2104 C 0.79585 0.78515 0.19779 0.0
C2105 C 0.80392 0.77085 0.21204 0.0
C2106 C 0.79737 0.78278 0.17457 0.0
C2107 C 0.80625 0.76486 0.165 0.0
C2108 C 0.8144 0.75036 0.17941 0.0
C2109 C 0.81362 0.75392 0.20271 0.0
C2110 C 0.78943 0.79951 0.16028 0.0
C2111 C 0.82334 0.73051 0.17017 0.0
H2112 H 0.76841 0.72769 0.09403 0.0
H2113 H 0.83976 0.7761 0.09674 0.0
H2114 H 0.76844 0.71963 0.15114 0.0
H2115 H 0.75676 0.74374 0.14643 0.0
H2116 H 0.74951 0.71704 0.126 0.0
H2117 H 0.86117 0.79882 0.13024 0.0
H2118 H 0.84353 0.80566 0.1507 0.0
H2119 H 0.85495 0.78109 0.15383 0.0
H2120 H 0.7888 0.79867 0.20492 0.0
H2121 H 0.82003 0.74292 0.21362 0.0
H2122 H 0.7734 0.7883 0.14922 0.0
H2123 H 0.8031 0.80843 0.14943 0.0
H2124 H 0.78558 0.81435 0.17042 0.0
H2125 H 0.80932 0.71645 0.15857 0.0
H2126 H 0.82913 0.72087 0.18347 0.0
H2127 H 0.83824 0.73883 0.16046 0.0
C2128 C 0.10621 0.00662 0.75665 0.0
C2129 C 0.10328 0.02394 0.77271 0.0
C2130 C 0.09723 0.0051 0.73436 0.0
C2131 C 0.08601 0.02193 0.72821 0.0
C2132 C 0.08094 0.03755 0.74474 0.0
C2133 C 0.0891 0.03782 0.76692 0.0
C2134 C 0.10174 0.98725 0.71722 0.0
C2135 C 0.0696 0.05632 0.73884 0.0
C2136 C 0.0979 0.05369 0.67608 0.0
C2137 C 0.07559 0.04483 0.66431 0.0
C2138 C 0.10198 0.04499 0.69639 0.0
C2139 C 0.08329 0.02673 0.70475 0.0
C2140 C 0.0612 0.01639 0.69204 0.0
C2141 C 0.0575 0.02582 0.67197 0.0
C2142 C 0.12577 0.05668 0.70963 0.0
C2143 C 0.04119 0.99638 0.70019 0.0
H2144 H 0.11677 0.99549 0.76118 0.0
H2145 H 0.08648 0.05101 0.77931 0.0
H2146 H 0.08688 0.97978 0.70388 0.0
H2147 H 0.11762 0.9972 0.70931 0.0
H2148 H 0.10472 0.97144 0.72493 0.0
H2149 H 0.06506 0.06546 0.75378 0.0
H2150 H 0.08184 0.07102 0.73029 0.0
H2151 H 0.05346 0.04736 0.72722 0.0
H2152 H 0.11183 0.0683 0.66992 0.0
H2153 H 0.04038 0.01866 0.66244 0.0
H2154 H 0.13263 0.04207 0.71472 0.0
H2155 H 0.12422 0.06751 0.72506 0.0
H2156 H 0.13873 0.0694 0.70005 0.0
H2157 H 0.04731 0.98191 0.70692 0.0
H2158 H 0.02666 0.98735 0.68674 0.0
H2159 H 0.03421 0.00468 0.71392 0.0
C2160 C 0.7722 0.37356 0.43164 0.0
C2161 C 0.79439 0.38145 0.44377 0.0
C2162 C 0.76813 0.35972 0.41064 0.0
C2163 C 0.78666 0.35373 0.40187 0.0
C2164 C 0.80879 0.3609 0.41448 0.0
C2165 C 0.81235 0.37466 0.43524 0.0
C2166 C 0.74434 0.35226 0.39751 0.0
C2167 C 0.82902 0.35481 0.40577 0.0
C2168 C 0.77867 0.30422 0.35409 0.0
C2169 C 0.78672 0.31902 0.33696 0.0
C2170 C 0.77734 0.31518 0.37521 0.0
C2171 C 0.78376 0.34141 0.37895 0.0
C2172 C 0.79048 0.35624 0.36127 0.0
C2173 C 0.79211 0.34486 0.34052 0.0
C2174 C 0.77057 0.2989 0.39384 0.0
C2175 C 0.79728 0.38428 0.36459 0.0
H2176 H 0.75827 0.37873 0.43825 0.0
H2177 H 0.82949 0.38047 0.44466 0.0
H2178 H 0.74578 0.36209 0.38228 0.0
H2179 H 0.73771 0.33197 0.39201 0.0
H2180 H 0.73134 0.35676 0.40731 0.0
H2181 H 0.84461 0.36038 0.41835 0.0
H2182 H 0.82374 0.33453 0.40063 0.0
H2183 H 0.83417 0.36462 0.39084 0.0
H2184 H 0.77459 0.28423 0.35133 0.0
H2185 H 0.79809 0.35628 0.32719 0.0
H2186 H 0.75726 0.30361 0.40294 0.0
H2187 H 0.78616 0.30231 0.406 0.0
H2188 H 0.76354 0.27875 0.38765 0.0
H2189 H 0.78394 0.38962 0.3731 0.0
H2190 H 0.79933 0.39269 0.34856 0.0
H2191 H 0.81414 0.3924 0.3754 0.0
C2192 C 0.50736 0.09289 0.25028 0.0
C2193 C 0.51482 0.07708 0.26319 0.0
C2194 C 0.51407 0.09599 0.22881 0.0
C2195 C 0.5284 0.08309 0.22089 0.0
C2196 C 0.541 0.07353 0.23615 0.0
C2197 C 0.5338 0.07032 0.25742 0.0
C2198 C 0.50177 0.10814 0.21332 0.0
C2199 C 0.55816 0.06166 0.22866 0.0
C2200 C 0.50075 0.0326 0.17372 0.0
C2201 C 0.51475 0.04171 0.15705 0.0
C2202 C 0.50409 0.04684 0.19419 0.0
C2203 C 0.52237 0.0705 0.198 0.0
C2204 C 0.53576 0.08027 0.18063 0.0
C2205 C 0.5317 0.06564 0.16017 0.0
C2206 C 0.48877 0.03576 0.21198 0.0
C2207 C 0.55532 0.10522 0.18382 0.0
H2208 H 0.49361 0.09948 0.2553 0.0
H2209 H 0.54064 0.0594 0.26806 0.0
H2210 H 0.51267 0.11607 0.19999 0.0
H2211 H 0.48519 0.09393 0.20529 0.0
H2212 H 0.49736 0.12313 0.22261 0.0
H2213 H 0.57037 0.06086 0.24293 0.0
H2214 H 0.5484 0.0423 0.22107 0.0
H2215 H 0.56843 0.07208 0.21594 0.0
H2216 H 0.48768 0.01402 0.17092 0.0
H2217 H 0.54255 0.07238 0.14699 0.0
H2218 H 0.48077 0.04905 0.21888 0.0
H2219 H 0.49946 0.03167 0.2258 0.0
H2220 H 0.4744 0.01811 0.2055 0.0
H2221 H 0.5527 0.11818 0.19706 0.0
H2222 H 0.55709 0.1141 0.16804 0.0
H2223 H 0.57207 0.10237 0.1886 0.0
C2224 C 0.80296 0.76672 0.95238 0.0
C2225 C 0.81284 0.75122 0.96337 0.0
C2226 C 0.8052 0.77019 0.92967 0.0
C2227 C 0.81778 0.75803 0.91722 0.0
C2228 C 0.82848 0.74301 0.92836 0.0
C2229 C 0.82585 0.73974 0.95114 0.0
C2230 C 0.79338 0.78631 0.91878 0.0
C2231 C 0.84221 0.72979 0.91601 0.0
C2232 C 0.80075 0.74658 0.85378 0.0
C2233 C 0.81777 0.76661 0.8458 0.0
C2234 C 0.80095 0.74325 0.87672 0.0
C2235 C 0.81867 0.76021 0.89244 0.0
C2236 C 0.83635 0.78 0.88444 0.0
C2237 C 0.83565 0.78301 0.86138 0.0
C2238 C 0.78162 0.72192 0.8842 0.0
C2239 C 0.85573 0.79848 0.90034 0.0
H2240 H 0.79281 0.77573 0.9614 0.0
H2241 H 0.83352 0.72763 0.9592 0.0
H2242 H 0.80626 0.80104 0.91084 0.0
H2243 H 0.77969 0.77482 0.90541 0.0
H2244 H 0.78507 0.79534 0.93083 0.0
H2245 H 0.85091 0.72031 0.92724 0.0
H2246 H 0.83033 0.71565 0.9029 0.0
H2247 H 0.85574 0.74324 0.90753 0.0
H2248 H 0.78677 0.73373 0.84213 0.0
H2249 H 0.84892 0.79859 0.85563 0.0
H2250 H 0.77106 0.72937 0.89498 0.0
H2251 H 0.78916 0.71054 0.8943 0.0
H2252 H 0.76978 0.70961 0.86995 0.0
H2253 H 0.84828 0.80939 0.91151 0.0
H2254 H 0.86915 0.81164 0.89151 0.0
H2255 H 0.86441 0.78854 0.91104 0.0
C2256 C 0.86071 0.11476 0.03715 0.0
C2257 C 0.83684 0.10142 0.03769 0.0
C2258 C 0.87685 0.10232 0.03543 0.0
C2259 C 0.86891 0.076 0.0346 0.0
C2260 C 0.84487 0.06248 0.03533 0.0
C2261 C 0.82908 0.07536 0.03666 0.0
C2262 C 0.90235 0.11733 0.03448 0.0
C2263 C 0.83584 0.03443 0.03484 0.0
C2264 C 0.90621 0.04173 0.00991 0.0
C2265 C 0.91782 0.03712 0.02909 0.0
C2266 C 0.89015 0.05426 0.01148 0.0
C2267 C 0.88571 0.06251 0.03275 0.0
C2268 C 0.89718 0.05775 0.0522 0.0
C2269 C 0.913 0.04498 0.05013 0.0
C2270 C 0.8782 0.05902 0.99038 0.0
C2271 C 0.8929 0.06634 0.07517 0.0
H2272 H 0.86676 0.13492 0.0379 0.0
H2273 H 0.81067 0.06499 0.03731 0.0
H2274 H 0.91318 0.11415 0.04872 0.0
H2275 H 0.90839 0.11114 0.019 0.0
H2276 H 0.9056 0.13764 0.03496 0.0
H2277 H 0.81664 0.02674 0.03572 0.0
H2278 H 0.83988 0.02587 0.01933 0.0
H2279 H 0.84477 0.02879 0.04905 0.0
H2280 H 0.91013 0.03614 0.9936 0.0
H2281 H 0.92168 0.04122 0.06505 0.0
H2282 H 0.88257 0.07937 0.98979 0.0
H2283 H 0.85892 0.0507 0.99021 0.0
H2284 H 0.88342 0.05116 0.97514 0.0
H2285 H 0.89747 0.08688 0.07707 0.0
H2286 H 0.90331 0.06121 0.08861 0.0
H2287 H 0.87406 0.05801 0.07742 0.0
C2288 C 0.39665 0.41135 0.04265 0.0
C2289 C 0.3743 0.41287 0.03816 0.0
C2290 C 0.41692 0.43115 0.03977 0.0
C2291 C 0.41494 0.45321 0.03222 0.0
C2292 C 0.39249 0.45514 0.02796 0.0
C2293 C 0.3724 0.43493 0.03101 0.0
C2294 C 0.4405 0.42832 0.04461 0.0
C2295 C 0.38971 0.47836 0.01989 0.0
C2296 C 0.47158 0.50794 0.0461 0.0
C2297 C 0.48248 0.50738 0.02655 0.0
C2298 C 0.44881 0.4916 0.04762 0.0
C2299 C 0.43664 0.47415 0.02919 0.0
C2300 C 0.44687 0.47468 0.00888 0.0
C2301 C 0.46968 0.49135 0.00778 0.0
C2302 C 0.43849 0.49186 0.0695 0.0
C2303 C 0.43445 0.45645 0.98881 0.0
H2304 H 0.39837 0.39445 0.04821 0.0
H2305 H 0.35521 0.43623 0.02735 0.0
H2306 H 0.44976 0.4304 0.02939 0.0
H2307 H 0.45154 0.44319 0.05761 0.0
H2308 H 0.43901 0.40995 0.05039 0.0
H2309 H 0.37112 0.47723 0.01798 0.0
H2310 H 0.39994 0.49489 0.03171 0.0
H2311 H 0.39677 0.4814 0.00356 0.0
H2312 H 0.48121 0.52049 0.06061 0.0
H2313 H 0.4779 0.49083 0.99257 0.0
H2314 H 0.43832 0.47507 0.07761 0.0
H2315 H 0.42011 0.49121 0.06673 0.0
H2316 H 0.44867 0.50864 0.08112 0.0
H2317 H 0.43428 0.43756 0.99193 0.0
H2318 H 0.44314 0.46156 0.9735 0.0
H2319 H 0.41597 0.4554 0.98581 0.0
C2320 C 0.36729 0.56854 0.73706 0.0
C2321 C 0.37874 0.55946 0.7535 0.0
C2322 C 0.35511 0.58449 0.74286 0.0
C2323 C 0.35454 0.5917 0.76564 0.0
C2324 C 0.36575 0.58232 0.78233 0.0
C2325 C 0.37763 0.56617 0.77605 0.0
C2326 C 0.34324 0.59403 0.72459 0.0
C2327 C 0.36568 0.58982 0.80677 0.0
C2328 C 0.34347 0.65235 0.77729 0.0
C2329 C 0.31932 0.64383 0.77912 0.0
C2330 C 0.35532 0.63556 0.7736 0.0
C2331 C 0.34273 0.60964 0.77183 0.0
C2332 C 0.31857 0.60092 0.7746 0.0
C2333 C 0.30712 0.61815 0.77817 0.0
C2334 C 0.38114 0.6456 0.77086 0.0
C2335 C 0.30463 0.57339 0.77293 0.0
H2336 H 0.368 0.56334 0.71961 0.0
H2337 H 0.38656 0.55933 0.78884 0.0
H2338 H 0.32444 0.58957 0.72684 0.0
H2339 H 0.35125 0.61462 0.72551 0.0
H2340 H 0.3446 0.58592 0.70772 0.0
H2341 H 0.37456 0.58022 0.81768 0.0
H2342 H 0.37467 0.61024 0.81058 0.0
H2343 H 0.34743 0.58551 0.81093 0.0
H2344 H 0.35309 0.67222 0.7785 0.0
H2345 H 0.28844 0.61147 0.77946 0.0
H2346 H 0.38391 0.64031 0.75356 0.0
H2347 H 0.39093 0.63729 0.78217 0.0
H2348 H 0.38868 0.66622 0.77435 0.0
H2349 H 0.30383 0.56481 0.7557 0.0
H2350 H 0.28646 0.56971 0.7772 0.0
H2351 H 0.31334 0.56401 0.78422 0.0
C2352 C 0.21671 0.60923 0.58721 0.0
C2353 C 0.23617 0.604 0.5804 0.0
C2354 C 0.19401 0.59394 0.57903 0.0
C2355 C 0.19057 0.57193 0.56488 0.0
C2356 C 0.20994 0.56477 0.56032 0.0
C2357 C 0.23269 0.58121 0.56781 0.0
C2358 C 0.17389 0.60264 0.58396 0.0
C2359 C 0.20685 0.54076 0.54631 0.0
C2360 C 0.12626 0.53663 0.55958 0.0
C2361 C 0.11877 0.54627 0.54098 0.0
C2362 C 0.15012 0.54208 0.56599 0.0
C2363 C 0.16673 0.55802 0.55379 0.0
C2364 C 0.15924 0.56547 0.5336 0.0
C2365 C 0.13521 0.55937 0.52735 0.0
C2366 C 0.15749 0.53287 0.58703 0.0
C2367 C 0.17642 0.58222 0.5199 0.0
H2368 H 0.21917 0.62662 0.59716 0.0
H2369 H 0.24765 0.57691 0.56266 0.0
H2370 H 0.16524 0.6057 0.56818 0.0
H2371 H 0.16058 0.58823 0.59177 0.0
H2372 H 0.17967 0.62029 0.59524 0.0
H2373 H 0.22232 0.5349 0.54925 0.0
H2374 H 0.19098 0.52554 0.54983 0.0
H2375 H 0.20471 0.54342 0.52841 0.0
H2376 H 0.11352 0.52568 0.56974 0.0
H2377 H 0.12944 0.56636 0.51266 0.0
H2378 H 0.16185 0.5479 0.60102 0.0
H2379 H 0.17335 0.52785 0.5852 0.0
H2380 H 0.1433 0.51642 0.59153 0.0
H2381 H 0.18285 0.60156 0.5283 0.0
H2382 H 0.16827 0.58239 0.50288 0.0
H2383 H 0.1918 0.5763 0.51843 0.0
C2384 C 0.73093 0.99994 0.78746 0.0
C2385 C 0.71315 0.98977 0.76981 0.0
C2386 C 0.74651 0.98768 0.79317 0.0
C2387 C 0.744 0.96471 0.78105 0.0
C2388 C 0.72574 0.95404 0.76358 0.0
C2389 C 0.71058 0.96683 0.75806 0.0
C2390 C 0.7659 0.99948 0.81188 0.0
C2391 C 0.72239 0.92934 0.75053 0.0
C2392 C 0.79703 0.94525 0.77878 0.0
C2393 C 0.79308 0.92784 0.79437 0.0
C2394 C 0.78125 0.95764 0.77447 0.0
C2395 C 0.7611 0.95231 0.78602 0.0
C2396 C 0.75713 0.93491 0.80195 0.0
C2397 C 0.77329 0.92291 0.80602 0.0
C2398 C 0.78589 0.97608 0.75731 0.0
C2399 C 0.73557 0.92852 0.81425 0.0
H2400 H 0.73289 0.01765 0.79659 0.0
H2401 H 0.69665 0.95877 0.74457 0.0
H2402 H 0.76506 0.98635 0.82463 0.0
H2403 H 0.78315 0.00359 0.80531 0.0
H2404 H 0.76499 0.01707 0.82009 0.0
H2405 H 0.70643 0.92295 0.73837 0.0
H2406 H 0.73779 0.93097 0.74132 0.0
H2407 H 0.72108 0.91484 0.76202 0.0
H2408 H 0.81236 0.94896 0.7698 0.0
H2409 H 0.77004 0.909 0.81773 0.0
H2410 H 0.7864 0.99451 0.76491 0.0
H2411 H 0.77146 0.96976 0.74351 0.0
H2412 H 0.80265 0.97846 0.75017 0.0
H2413 H 0.73472 0.9456 0.82349 0.0
H2414 H 0.73524 0.91466 0.82623 0.0
H2415 H 0.7196 0.92085 0.80217 0.0
C2416 C 0.7637 0.93927 0.54403 0.0
C2417 C 0.75851 0.9139 0.53703 0.0
C2418 C 0.74675 0.95069 0.54128 0.0
C2419 C 0.72387 0.93646 0.53134 0.0
C2420 C 0.71849 0.91087 0.52407 0.0
C2421 C 0.73587 0.8999 0.52697 0.0
C2422 C 0.75334 0.97806 0.54913 0.0
C2423 C 0.69436 0.89505 0.51334 0.0
C2424 C 0.67702 0.96376 0.54537 0.0
C2425 C 0.67549 0.97687 0.52695 0.0
C2426 C 0.69193 0.94967 0.54657 0.0
C2427 C 0.70568 0.94855 0.52894 0.0
C2428 C 0.70345 0.96083 0.50987 0.0
C2429 C 0.68844 0.97483 0.50912 0.0
C2430 C 0.69371 0.93684 0.56719 0.0
C2431 C 0.71757 0.95998 0.49059 0.0
H2432 H 0.78112 0.95036 0.55171 0.0
H2433 H 0.73166 0.88031 0.52144 0.0
H2434 H 0.75038 0.98832 0.53503 0.0
H2435 H 0.74206 0.98059 0.56198 0.0
H2436 H 0.77194 0.98659 0.55631 0.0
H2437 H 0.6931 0.87561 0.50809 0.0
H2438 H 0.68124 0.89457 0.52519 0.0
H2439 H 0.68961 0.90334 0.49852 0.0
H2440 H 0.66726 0.96532 0.5593 0.0
H2441 H 0.68706 0.98447 0.49462 0.0
H2442 H 0.71139 0.94581 0.57641 0.0
H2443 H 0.69141 0.91701 0.56253 0.0
H2444 H 0.68046 0.93769 0.57855 0.0
H2445 H 0.73641 0.97019 0.49601 0.0
H2446 H 0.71222 0.96847 0.47615 0.0
H2447 H 0.71567 0.94044 0.48505 0.0
C2448 C 0.36432 0.44464 0.70193 0.0
C2449 C 0.38753 0.44675 0.69945 0.0
C2450 C 0.34891 0.4232 0.70935 0.0
C2451 C 0.35713 0.40375 0.71456 0.0
C2452 C 0.3795 0.40443 0.70928 0.0
C2453 C 0.39441 0.42591 0.70153 0.0
C2454 C 0.32486 0.42274 0.71412 0.0
C2455 C 0.38879 0.38389 0.7144 0.0
C2456 C 0.33837 0.37417 0.76699 0.0
C2457 C 0.32096 0.35183 0.75823 0.0
C2458 C 0.34994 0.39144 0.75283 0.0
C2459 C 0.34454 0.38556 0.7294 0.0
C2460 C 0.32741 0.36258 0.72049 0.0
C2461 C 0.3154 0.34618 0.7351 0.0
C2462 C 0.36789 0.416 0.76295 0.0
C2463 C 0.32187 0.35526 0.69565 0.0
H2464 H 0.35877 0.4605 0.69988 0.0
H2465 H 0.41224 0.42722 0.69933 0.0
H2466 H 0.31157 0.40396 0.70924 0.0
H2467 H 0.32494 0.42725 0.7323 0.0
H2468 H 0.31953 0.43656 0.70524 0.0
H2469 H 0.40423 0.38479 0.70542 0.0
H2470 H 0.39421 0.38575 0.73256 0.0
H2471 H 0.3751 0.36527 0.70995 0.0
H2472 H 0.34255 0.37833 0.78491 0.0
H2473 H 0.30204 0.32863 0.72842 0.0
H2474 H 0.36299 0.43168 0.75719 0.0
H2475 H 0.38526 0.41788 0.75742 0.0
H2476 H 0.36955 0.41784 0.78147 0.0
H2477 H 0.31406 0.36802 0.68801 0.0
H2478 H 0.3095 0.33582 0.69156 0.0
H2479 H 0.33816 0.35703 0.68785 0.0
C2480 C 0.19177 0.61415 0.26821 0.0
C2481 C 0.1912 0.59567 0.25149 0.0
C2482 C 0.21073 0.63661 0.27201 0.0
C2483 C 0.22919 0.64095 0.25828 0.0
C2484 C 0.22905 0.62208 0.24175 0.0
C2485 C 0.2101 0.59946 0.23871 0.0
C2486 C 0.21064 0.65602 0.2903 0.0
C2487 C 0.24835 0.62618 0.22671 0.0
C2488 C 0.25502 0.70965 0.25363 0.0
C2489 C 0.27455 0.71672 0.2695 0.0
C2490 C 0.24127 0.68456 0.24832 0.0
C2491 C 0.24691 0.66631 0.25972 0.0
C2492 C 0.26756 0.6733 0.2748 0.0
C2493 C 0.28134 0.69864 0.27943 0.0
C2494 C 0.21974 0.67782 0.23174 0.0
C2495 C 0.27409 0.65445 0.28739 0.0
H2496 H 0.17744 0.61098 0.27849 0.0
H2497 H 0.20976 0.58501 0.22592 0.0
H2498 H 0.22757 0.66271 0.30107 0.0
H2499 H 0.20851 0.67234 0.28285 0.0
H2500 H 0.19627 0.64874 0.30092 0.0
H2501 H 0.2471 0.60873 0.21655 0.0
H2502 H 0.24735 0.64012 0.21526 0.0
H2503 H 0.26576 0.63378 0.23663 0.0
H2504 H 0.25005 0.72389 0.24594 0.0
H2505 H 0.2965 0.7044 0.29179 0.0
H2506 H 0.20385 0.67242 0.2407 0.0
H2507 H 0.21852 0.66164 0.21985 0.0
H2508 H 0.21969 0.69361 0.22216 0.0
H2509 H 0.26337 0.65016 0.30157 0.0
H2510 H 0.29286 0.66165 0.29418 0.0
H2511 H 0.27049 0.63675 0.27665 0.0
C2512 C 0.49356 0.68391 0.48586 0.0
C2513 C 0.50685 0.7001 0.47164 0.0
C2514 C 0.49946 0.66357 0.49245 0.0
C2515 C 0.51921 0.6592 0.48473 0.0
C2516 C 0.5326 0.6753 0.47021 0.0
C2517 C 0.52626 0.6955 0.46383 0.0
C2518 C 0.48469 0.64693 0.50795 0.0
C2519 C 0.55379 0.67134 0.4616 0.0
C2520 C 0.54815 0.62284 0.51974 0.0
C2521 C 0.53885 0.59871 0.50843 0.0
C2522 C 0.54197 0.6426 0.51217 0.0
C2523 C 0.52632 0.63836 0.49257 0.0
C2524 C 0.51706 0.61411 0.4809 0.0
C2525 C 0.52326 0.59454 0.48907 0.0
C2526 C 0.55197 0.66799 0.52537 0.0
C2527 C 0.50053 0.60882 0.45982 0.0
H2528 H 0.47848 0.68714 0.49196 0.0
H2529 H 0.53666 0.70782 0.45284 0.0
H2530 H 0.47792 0.62731 0.50024 0.0
H2531 H 0.49557 0.64752 0.52367 0.0
H2532 H 0.4696 0.65248 0.51208 0.0
H2533 H 0.56187 0.68493 0.44983 0.0
H2534 H 0.56712 0.67312 0.47575 0.0
H2535 H 0.54884 0.65221 0.45301 0.0
H2536 H 0.56001 0.62625 0.53485 0.0
H2537 H 0.51605 0.576 0.48018 0.0
H2538 H 0.53755 0.67379 0.53111 0.0
H2539 H 0.56161 0.68204 0.51465 0.0
H2540 H 0.56405 0.66829 0.54016 0.0
H2541 H 0.48442 0.61259 0.46342 0.0
H2542 H 0.49549 0.58922 0.45228 0.0
H2543 H 0.5088 0.62141 0.4474 0.0
C2544 C 0.65699 0.30522 0.68098 0.0
C2545 C 0.66424 0.3213 0.66449 0.0
C2546 C 0.67343 0.30158 0.69672 0.0
C2547 C 0.69766 0.31459 0.69613 0.0
C2548 C 0.70496 0.33168 0.68015 0.0
C2549 C 0.68821 0.3347 0.66448 0.0
C2550 C 0.66494 0.28306 0.71338 0.0
C2551 C 0.73056 0.34627 0.67917 0.0
C2552 C 0.74115 0.32078 0.74666 0.0
C2553 C 0.75151 0.30324 0.74018 0.0
C2554 C 0.72339 0.3244 0.73266 0.0
C2555 C 0.71554 0.30995 0.71174 0.0
C2556 C 0.7256 0.29187 0.70527 0.0
C2557 C 0.74358 0.28886 0.71948 0.0
C2558 C 0.71336 0.34407 0.74009 0.0
C2559 C 0.7175 0.27584 0.68321 0.0
H2560 H 0.63854 0.29461 0.68099 0.0
H2561 H 0.69398 0.34724 0.65186 0.0
H2562 H 0.67146 0.26736 0.7103 0.0
H2563 H 0.67203 0.29193 0.73056 0.0
H2564 H 0.64553 0.27543 0.71244 0.0
H2565 H 0.73326 0.35984 0.66657 0.0
H2566 H 0.73864 0.35655 0.6957 0.0
H2567 H 0.73998 0.3333 0.67498 0.0
H2568 H 0.74716 0.33203 0.7626 0.0
H2569 H 0.75131 0.27513 0.7144 0.0
H2570 H 0.69407 0.33571 0.73976 0.0
H2571 H 0.71698 0.3586 0.72839 0.0
H2572 H 0.7208 0.35317 0.75717 0.0
H2573 H 0.69827 0.2661 0.68168 0.0
H2574 H 0.72614 0.2617 0.68118 0.0
H2575 H 0.72134 0.28774 0.66935 0.0
C2576 C 0.02935 0.3493 0.96301 0.0
C2577 C 0.01679 0.33147 0.97636 0.0
C2578 C 0.03374 0.37487 0.96856 0.0
C2579 C 0.02556 0.38285 0.98803 0.0
C2580 C 0.01363 0.36504 0.00197 0.0
C2581 C 0.00934 0.33962 0.99595 0.0
C2582 C 0.04652 0.39328 0.95326 0.0
C2583 C 1.00493 0.37278 0.02305 0.0
C2584 C 0.05372 0.45056 0.01242 0.0
C2585 C 0.03683 0.46085 0.00543 0.0
C2586 C 0.05022 0.42525 0.00698 0.0
C2587 C 0.02948 0.40982 0.99385 0.0
C2588 C 0.01237 0.42011 0.98662 0.0
C2589 C 0.01612 0.44546 0.99274 0.0
C2590 C 0.06862 0.41496 0.01552 0.0
C2591 C 0.99018 0.40434 0.97232 0.0
H2592 H 0.03505 0.34324 0.94777 0.0
H2593 H 0.99964 0.32604 0.00641 0.0
H2594 H 0.03504 0.40318 0.94669 0.0
H2595 H 0.06226 0.40756 0.96262 0.0
H2596 H 0.05208 0.38415 0.93896 0.0
H2597 H 0.99678 0.35675 0.03254 0.0
H2598 H 0.01962 0.38681 0.03398 0.0
H2599 H 0.9918 0.38166 0.01886 0.0
H2600 H 0.06962 0.46226 0.02256 0.0
H2601 H 1.00306 0.45334 0.98727 0.0
H2602 H 0.07518 0.40686 0.00134 0.0
H2603 H 0.06084 0.39972 0.02592 0.0
H2604 H 0.08374 0.42943 0.02564 0.0
H2605 H 0.99455 0.39592 0.95691 0.0
H2606 H 0.97893 0.41528 0.96755 0.0
H2607 H 0.97998 0.38881 0.98138 0.0
C2608 C 0.0262 0.78906 0.16359 0.0
C2609 C 0.04808 0.80526 0.17372 0.0
C2610 C 1.00578 0.78518 0.17434 0.0
C2611 C 1.00722 0.79779 0.19574 0.0
C2612 C 0.02932 0.81374 0.20622 0.0
C2613 C 0.04942 0.81728 0.19512 0.0
C2614 C 0.9826 0.76794 0.16262 0.0
C2615 C 0.03168 0.82746 0.22907 0.0
C2616 C 0.95432 0.81056 0.21588 0.0
C2617 C 0.94721 0.79305 0.23127 0.0
C2618 C 0.97339 0.81182 0.20376 0.0
C2619 C 0.98564 0.79509 0.20698 0.0
C2620 C 0.97804 0.7768 0.22191 0.0
C2621 C 0.959 0.77606 0.23393 0.0
C2622 C 0.98092 0.83165 0.18805 0.0
C2623 C 0.99039 0.7584 0.22563 0.0
H2624 H 0.02494 0.77963 0.14709 0.0
H2625 H 0.0662 0.82974 0.20317 0.0
H2626 H 0.97376 0.75367 0.17352 0.0
H2627 H 0.97092 0.77871 0.15905 0.0
H2628 H 0.98461 0.75832 0.14667 0.0
H2629 H 0.05018 0.83858 0.23523 0.0
H2630 H 0.02145 0.84019 0.22859 0.0
H2631 H 0.0244 0.81403 0.2412 0.0
H2632 H 0.94549 0.82392 0.21386 0.0
H2633 H 0.95341 0.76224 0.24555 0.0
H2634 H 0.98187 0.82308 0.17126 0.0
H2635 H 0.99871 0.84488 0.19415 0.0
H2636 H 0.9688 0.84232 0.18647 0.0
H2637 H 0.9917 0.74875 0.20946 0.0
H2638 H 0.98126 0.74417 0.23648 0.0
H2639 H 1.0085 0.76844 0.23353 0.0
C2640 C 0.56505 0.37859 0.11821 0.0
C2641 C 0.5444 0.36729 0.12836 0.0
C2642 C 0.5684 0.4003 0.10627 0.0
C2643 C 0.55082 0.4117 0.10385 0.0
C2644 C 0.53004 0.40022 0.11396 0.0
C2645 C 0.52723 0.37884 0.1258 0.0
C2646 C 0.59104 0.41124 0.09627 0.0
C2647 C 0.51036 0.41056 0.11223 0.0
C2648 C 0.56316 0.48097 0.08915 0.0
C2649 C 0.5556 0.47839 0.06608 0.0
C2650 C 0.56236 0.46002 0.10127 0.0
C2651 C 0.55357 0.43497 0.09063 0.0
C2652 C 0.54599 0.43233 0.06735 0.0
C2653 C 0.54717 0.45356 0.05564 0.0
C2654 C 0.57086 0.4648 0.12578 0.0
C2655 C 0.5361 0.40671 0.05467 0.0
H2656 H 0.57879 0.37065 0.11972 0.0
H2657 H 0.51104 0.37104 0.13318 0.0
H2658 H 0.58744 0.41087 0.07797 0.0
H2659 H 0.59973 0.43105 0.1031 0.0
H2660 H 0.60327 0.401 0.09963 0.0
H2661 H 0.4952 0.39982 0.12074 0.0
H2662 H 0.5167 0.43025 0.1197 0.0
H2663 H 0.50425 0.41035 0.09444 0.0
H2664 H 0.56976 0.49956 0.09794 0.0
H2665 H 0.54107 0.45051 0.03802 0.0
H2666 H 0.58441 0.45627 0.12931 0.0
H2667 H 0.55615 0.45589 0.13554 0.0
H2668 H 0.57832 0.48502 0.13166 0.0
H2669 H 0.54891 0.39693 0.05648 0.0
H2670 H 0.53158 0.40735 0.03665 0.0
H2671 H 0.52009 0.39547 0.06174 0.0
C2672 C 0.97225 0.26665 0.33413 0.0
C2673 C 0.98151 0.27915 0.35567 0.0
C2674 C 0.95072 0.2674 0.32287 0.0
C2675 C 0.93747 0.28103 0.3329 0.0
C2676 C 0.9472 0.29409 0.35432 0.0
C2677 C 0.96838 0.29282 0.36517 0.0
C2678 C 0.94172 0.2528 0.30034 0.0
C2679 C 0.93481 0.30918 0.36628 0.0
C2680 C 0.89 0.3014 0.29902 0.0
C2681 C 0.86814 0.28443 0.3034 0.0
C2682 C 0.91214 0.3002 0.30784 0.0
C2683 C 0.91348 0.28145 0.3217 0.0
C2684 C 0.89147 0.26405 0.32589 0.0
C2685 C 0.86958 0.26574 0.31694 0.0
C2686 C 0.93436 0.31944 0.30247 0.0
C2687 C 0.89097 0.24349 0.3402 0.0
H2688 H 0.98125 0.25539 0.32636 0.0
H2689 H 0.9746 0.30246 0.38176 0.0
H2690 H 0.9249 0.23761 0.30147 0.0
H2691 H 0.93817 0.26502 0.28821 0.0
H2692 H 0.95427 0.24446 0.29386 0.0
H2693 H 0.94482 0.31928 0.38229 0.0
H2694 H 0.93189 0.32296 0.35556 0.0
H2695 H 0.91736 0.29672 0.36977 0.0
H2696 H 0.8899 0.31603 0.2887 0.0
H2697 H 0.85339 0.25219 0.32072 0.0
H2698 H 0.9457 0.31013 0.29498 0.0
H2699 H 0.94429 0.33074 0.31804 0.0
H2700 H 0.9309 0.33215 0.29078 0.0
H2701 H 0.90138 0.23259 0.33344 0.0
H2702 H 0.87288 0.23059 0.34121 0.0
H2703 H 0.89914 0.25165 0.35731 0.0
C2704 C 0.05552 0.70234 0.63971 0.0
C2705 C 0.04338 0.71757 0.6315 0.0
C2706 C 0.05636 0.68069 0.62708 0.0
C2707 C 0.04413 0.67264 0.60537 0.0
C2708 C 0.03174 0.68787 0.59684 0.0
C2709 C 0.03178 0.71006 0.60969 0.0
C2710 C 0.07056 0.66635 0.63718 0.0
C2711 C 0.01787 0.68034 0.57421 0.0
C2712 C 0.06255 0.62699 0.56539 0.0
C2713 C 0.04716 0.60298 0.56849 0.0
C2714 C 0.06166 0.64934 0.57693 0.0
C2715 C 0.04455 0.64855 0.59193 0.0
C2716 C 0.02871 0.62438 0.59487 0.0
C2717 C 0.03034 0.60225 0.5835 0.0
C2718 C 0.07953 0.67398 0.57327 0.0
C2719 C 0.00978 0.6218 0.61009 0.0
H2720 H 0.06473 0.70753 0.65635 0.0
H2721 H 0.02204 0.72104 0.60289 0.0
H2722 H 0.05888 0.6473 0.63945 0.0
H2723 H 0.08337 0.66436 0.62577 0.0
H2724 H 0.08021 0.67554 0.65359 0.0
H2725 H 1.0088 0.6935 0.56985 0.0
H2726 H 0.02959 0.67945 0.56128 0.0
H2727 H 1.00461 0.66141 0.57378 0.0
H2728 H 0.07572 0.6284 0.55403 0.0
H2729 H 0.01806 0.58423 0.58618 0.0
H2730 H 0.08983 0.68332 0.58937 0.0
H2731 H 0.07059 0.68646 0.56694 0.0
H2732 H 0.09178 0.67183 0.56127 0.0
H2733 H 0.01779 0.62832 0.62751 0.0
H2734 H 0.99766 0.60224 0.60945 0.0
H2735 H 0.9995 0.63374 0.60545 0.0
C2736 C 0.63997 0.8066 0.83134 0.0
C2737 C 0.62887 0.79293 0.84857 0.0
C2738 C 0.66081 0.8048 0.82286 0.0
C2739 C 0.67233 0.78894 0.83141 0.0
C2740 C 0.66134 0.77493 0.8488 0.0
C2741 C 0.64018 0.77694 0.85695 0.0
C2742 C 0.67059 0.82024 0.80441 0.0
C2743 C 0.67218 0.75776 0.85912 0.0
C2744 C 0.71652 0.7694 0.7951 0.0
C2745 C 0.73916 0.78637 0.80337 0.0
C2746 C 0.69527 0.76987 0.80391 0.0
C2747 C 0.69556 0.78742 0.8222 0.0
C2748 C 0.71838 0.80438 0.83078 0.0
C2749 C 0.73931 0.80379 0.82141 0.0
C2750 C 0.67218 0.75145 0.79329 0.0
C2751 C 0.72082 0.82348 0.85018 0.0
H2752 H 0.63224 0.81914 0.82416 0.0
H2753 H 0.63267 0.76609 0.87017 0.0
H2754 H 0.68852 0.83336 0.81017 0.0
H2755 H 0.67198 0.80796 0.78991 0.0
H2756 H 0.65963 0.83114 0.7988 0.0
H2757 H 0.66221 0.74818 0.87242 0.0
H2758 H 0.67303 0.74348 0.84611 0.0
H2759 H 0.69043 0.76851 0.86631 0.0
H2760 H 0.71527 0.75562 0.78135 0.0
H2761 H 0.75609 0.81711 0.82857 0.0
H2762 H 0.66091 0.76157 0.78671 0.0
H2763 H 0.66286 0.74001 0.80597 0.0
H2764 H 0.67433 0.73882 0.77945 0.0
H2765 H 0.71195 0.83658 0.84524 0.0
H2766 H 0.73943 0.83437 0.85614 0.0
H2767 H 0.71211 0.81416 0.8642 0.0
C2768 C 0.45663 0.55834 0.64545 0.0
C2769 C 0.46335 0.56619 0.66807 0.0
C2770 C 0.47232 0.56723 0.62982 0.0
C2771 C 0.49498 0.58453 0.63733 0.0
C2772 C 0.50004 0.59577 0.65959 0.0
C2773 C 0.48413 0.58612 0.67495 0.0
C2774 C 0.46601 0.55488 0.60613 0.0
C2775 C 0.52347 0.61528 0.66791 0.0
C2776 C 0.53752 0.56104 0.60982 0.0
C2777 C 0.53897 0.57294 0.59047 0.0
C2778 C 0.52493 0.56649 0.6266 0.0
C2779 C 0.51431 0.58482 0.62395 0.0
C2780 C 0.51861 0.5992 0.60574 0.0
C2781 C 0.53043 0.59258 0.58876 0.0
C2782 C 0.52074 0.55056 0.64574 0.0
C2783 C 0.50898 0.61996 0.60313 0.0
H2784 H 0.44049 0.54281 0.64037 0.0
H2785 H 0.48921 0.59208 0.6926 0.0
H2786 H 0.47118 0.56886 0.59406 0.0
H2787 H 0.47557 0.54169 0.6034 0.0
H2788 H 0.44694 0.5443 0.60247 0.0
H2789 H 0.52189 0.62764 0.68228 0.0
H2790 H 0.53584 0.60603 0.67366 0.0
H2791 H 0.53104 0.62681 0.65456 0.0
H2792 H 0.54421 0.54581 0.61083 0.0
H2793 H 0.53191 0.60185 0.57366 0.0
H2794 H 0.50197 0.53869 0.64446 0.0
H2795 H 0.52498 0.56243 0.66188 0.0
H2796 H 0.53138 0.53821 0.64592 0.0
H2797 H 0.49081 0.61215 0.59481 0.0
H2798 H 0.51956 0.63375 0.59267 0.0
H2799 H 0.50857 0.6297 0.61957 0.0
C2800 C 0.78842 0.18455 0.98083 0.0
C2801 C 0.77164 0.17469 0.9953 0.0
C2802 C 0.7817 0.19046 0.95988 0.0
C2803 C 0.75769 0.18596 0.95337 0.0
C2804 C 0.74057 0.17353 0.967 0.0
C2805 C 0.74779 0.16831 0.98797 0.0
C2806 C 0.80042 0.20347 0.94559 0.0
C2807 C 0.71477 0.16761 0.96029 0.0
C2808 C 0.74807 0.2362 0.92133 0.0
C2809 C 0.74466 0.2253 0.89926 0.0
C2810 C 0.75117 0.22301 0.93911 0.0
C2811 C 0.75105 0.19836 0.93471 0.0
C2812 C 0.74604 0.1866 0.91262 0.0
C2813 C 0.74284 0.20024 0.8951 0.0
C2814 C 0.75597 0.23604 0.96254 0.0
C2815 C 0.74536 0.16021 0.90731 0.0
H2816 H 0.80684 0.18919 0.98645 0.0
H2817 H 0.73474 0.16003 -0.001 0.0
H2818 H 0.7957 0.19495 0.92804 0.0
H2819 H 0.80187 0.22332 0.94578 0.0
H2820 H 0.81781 0.20275 0.9516 0.0
H2821 H 0.70375 0.15374 0.97043 0.0
H2822 H 0.71051 0.18492 0.96268 0.0
H2823 H 0.71009 0.16032 0.94242 0.0
H2824 H 0.74978 0.25559 0.92474 0.0
H2825 H 0.73978 0.19156 0.87808 0.0
H2826 H 0.77399 0.23828 0.96956 0.0
H2827 H 0.74368 0.22468 0.97344 0.0
H2828 H 0.75425 0.25475 0.96317 0.0
H2829 H 0.76354 0.16008 0.90794 0.0
H2830 H 0.73637 0.15213 0.8904 0.0
H2831 H 0.73641 0.14804 0.91971 0.0
C2832 C 0.1083 0.47924 0.17075 0.0
C2833 C 0.10031 0.4942 0.18513 0.0
C2834 C 0.09862 0.47284 0.14845 0.0
C2835 C 0.08121 0.48227 0.14064 0.0
C2836 C 0.07084 0.49417 0.15589 0.0
C2837 C 0.08049 0.49986 0.17806 0.0
C2838 C 0.10866 0.45828 0.13292 0.0
C2839 C 0.05163 0.50385 0.14836 0.0
C2840 C 0.08656 0.51811 0.09138 0.0
C2841 C 0.0648 0.5054 0.07923 0.0
C2842 C 0.09354 0.50902 0.11039 0.0
C2843 C 0.07848 0.48644 0.11702 0.0
C2844 C 0.05807 0.47185 0.10305 0.0
C2845 C 0.05122 0.48174 0.08436 0.0
C2846 C 0.11575 0.52508 0.12463 0.0
C2847 C 0.04247 0.44684 0.10865 0.0
H2848 H 0.12309 0.47397 0.1764 0.0
H2849 H 0.07359 0.51048 0.18942 0.0
H2850 H 0.09555 0.44761 0.1188 0.0
H2851 H 0.12386 0.47131 0.126 0.0
H2852 H 0.11495 0.44518 0.14195 0.0
H2853 H 0.04436 0.51094 0.16262 0.0
H2854 H 0.05861 0.51928 0.13792 0.0
H2855 H 0.03713 0.48892 0.13809 0.0
H2856 H 0.09744 0.53606 0.08701 0.0
H2857 H 0.03484 0.47135 0.07429 0.0
H2858 H 0.12691 0.51395 0.12878 0.0
H2859 H 0.11129 0.53241 0.14053 0.0
H2860 H 0.12616 0.54117 0.11624 0.0
H2861 H 0.05206 0.43812 0.11975 0.0
H2862 H 0.03479 0.43399 0.09319 0.0
H2863 H 0.02774 0.44918 0.11712 0.0
C2864 C 0.80656 0.80099 0.46192 0.0
C2865 C 0.80009 0.82074 0.47098 0.0
C2866 C 0.80631 0.79584 0.43867 0.0
C2867 C 0.79992 0.81106 0.42382 0.0
C2868 C 0.79289 0.83069 0.43282 0.0
C2869 C 0.79285 0.83512 0.45614 0.0
C2870 C 0.8134 0.77434 0.43002 0.0
C2871 C 0.78623 0.84767 0.41784 0.0
C2872 C 0.82351 0.81395 0.36647 0.0
C2873 C 0.80371 0.79909 0.35211 0.0
C2874 C 0.82243 0.81823 0.38964 0.0
C2875 C 0.80121 0.80688 0.39902 0.0
C2876 C 0.78129 0.79149 0.38462 0.0
C2877 C 0.78269 0.78809 0.36145 0.0
C2878 C 0.84402 0.83518 0.40408 0.0
C2879 C 0.75847 0.77838 0.39372 0.0
H2880 H 0.81221 0.78971 0.47309 0.0
H2881 H 0.78808 0.85061 0.46279 0.0
H2882 H 0.79977 0.76195 0.41703 0.0
H2883 H 0.82986 0.7815 0.42211 0.0
H2884 H 0.81617 0.76311 0.44345 0.0
H2885 H 0.78061 0.86168 0.42724 0.0
H2886 H 0.8014 0.85762 0.409 0.0
H2887 H 0.7718 0.83659 0.40496 0.0
H2888 H 0.83981 0.82267 0.35953 0.0
H2889 H 0.7673 0.77636 0.35065 0.0
H2890 H 0.84942 0.82472 0.41686 0.0
H2891 H 0.84011 0.85067 0.41305 0.0
H2892 H 0.85896 0.84321 0.39427 0.0
H2893 H 0.76127 0.76647 0.40651 0.0
H2894 H 0.74475 0.76654 0.38051 0.0
H2895 H 0.75194 0.79226 0.40202 0.0
C2896 C 0.45258 0.52088 0.79205 0.0
C2897 C 0.46814 0.52441 0.7757 0.0
C2898 C 0.45992 0.51873 0.81405 0.0
C2899 C 0.48344 0.52072 0.81973 0.0
C2900 C 0.49949 0.52561 0.80352 0.0
C2901 C 0.49155 0.52712 0.78156 0.0
C2902 C 0.44228 0.51311 0.83088 0.0
C2903 C 0.52483 0.52831 0.80917 0.0
C2904 C 0.50892 0.53222 0.88003 0.0
C2905 C 0.5084 0.50833 0.88424 0.0
C2906 C 0.50034 0.53647 0.8592 0.0
C2907 C 0.49107 0.51631 0.84228 0.0
C2908 C 0.49006 0.49204 0.84656 0.0
C2909 C 0.49883 0.48835 0.86754 0.0
C2910 C 0.50171 0.56257 0.85511 0.0
C2911 C 0.48006 0.47008 0.82888 0.0
H2912 H 0.43438 0.51847 0.78741 0.0
H2913 H 0.50356 0.52996 0.76888 0.0
H2914 H 0.43955 0.49423 0.83602 0.0
H2915 H 0.44893 0.52654 0.84609 0.0
H2916 H 0.4251 0.51381 0.82414 0.0
H2917 H 0.53538 0.53395 0.79504 0.0
H2918 H 0.53273 0.54238 0.82379 0.0
H2919 H 0.52594 0.51033 0.81375 0.0
H2920 H 0.51658 0.54773 0.8929 0.0
H2921 H 0.49817 0.46983 0.87093 0.0
H2922 H 0.48412 0.56273 0.84917 0.0
H2923 H 0.51323 0.5691 0.84184 0.0
H2924 H 0.50864 0.576 0.87033 0.0
H2925 H 0.46199 0.4683 0.82244 0.0
H2926 H 0.47963 0.45227 0.83526 0.0
H2927 H 0.49072 0.47309 0.81461 0.0
C2928 C 0.83845 0.23512 0.11878 0.0
C2929 C 0.82822 0.20939 0.11302 0.0
C2930 C 0.84054 0.2453 0.14098 0.0
C2931 C 0.83083 0.22942 0.15726 0.0
C2932 C 0.82194 0.20327 0.1517 0.0
C2933 C 0.82131 0.19354 0.12967 0.0
C2934 C 0.85121 0.27319 0.14658 0.0
C2935 C 0.81034 0.18571 0.16819 0.0
C2936 C 0.83549 0.25203 0.21859 0.0
C2937 C 0.81552 0.25874 0.21911 0.0
C2938 C 0.84127 0.2432 0.19838 0.0
C2939 C 0.82608 0.24011 0.17866 0.0
C2940 C 0.80558 0.24642 0.17936 0.0
C2941 C 0.80086 0.25623 0.19957 0.0
C2942 C 0.86369 0.2376 0.19803 0.0
C2943 C 0.78842 0.24251 0.15889 0.0
H2944 H 0.84357 0.24731 0.10578 0.0
H2945 H 0.81289 0.17365 0.12502 0.0
H2946 H 0.83709 0.28123 0.14754 0.0
H2947 H 0.8619 0.27794 0.16303 0.0
H2948 H 0.86238 0.28211 0.13373 0.0
H2949 H 0.80701 0.16592 0.16212 0.0
H2950 H 0.82115 0.19021 0.18452 0.0
H2951 H 0.7933 0.18782 0.17098 0.0
H2952 H 0.84689 0.25437 0.23386 0.0
H2953 H 0.7854 0.26147 0.20023 0.0
H2954 H 0.87473 0.24885 0.18618 0.0
H2955 H 0.85983 0.21771 0.19207 0.0
H2956 H 0.87389 0.24169 0.21474 0.0
H2957 H 0.79692 0.2546 0.14626 0.0
H2958 H 0.77258 0.24679 0.16271 0.0
H2959 H 0.78283 0.2229 0.15127 0.0
C2960 C 0.09793 0.48633 0.30628 0.0
C2961 C 0.12107 0.49675 0.3015 0.0
C2962 C 0.0925 0.48785 0.32822 0.0
C2963 C 0.11072 0.50075 0.34523 0.0
C2964 C 0.13438 0.50741 0.34084 0.0
C2965 C 0.13934 0.50504 0.31877 0.0
C2966 C 0.06708 0.47963 0.33242 0.0
C2967 C 0.15428 0.52109 0.35861 0.0
C2968 C 0.0971 0.55001 0.38048 0.0
C2969 C 0.0938 0.53961 0.40062 0.0
C2970 C 0.10278 0.53746 0.36239 0.0
C2971 C 0.10503 0.51387 0.36461 0.0
C2972 C 0.1016 0.50321 0.38491 0.0
C2973 C 0.09608 0.51633 0.40281 0.0
C2974 C 0.1062 0.54946 0.34087 0.0
C2975 C 0.1036 0.47802 0.38768 0.0
H2976 H 0.0839 0.47955 0.29273 0.0
H2977 H 0.15727 0.51295 0.3149 0.0
H2978 H 0.06463 0.4731 0.34915 0.0
H2979 H 0.06084 0.49566 0.33163 0.0
H2980 H 0.05603 0.46447 0.31961 0.0
H2981 H 0.17108 0.51953 0.35412 0.0
H2982 H 0.15631 0.54115 0.36043 0.0
H2983 H 0.15075 0.51395 0.37498 0.0
H2984 H 0.09539 0.56806 0.37896 0.0
H2985 H 0.09312 0.50818 0.41841 0.0
H2986 H 0.09308 0.53748 0.32731 0.0
H2987 H 0.12383 0.55152 0.33588 0.0
H2988 H 0.10441 0.56816 0.34227 0.0
H2989 H 0.09212 0.46388 0.37435 0.0
H2990 H 0.0988 0.47168 0.40413 0.0
H2991 H 0.12181 0.47886 0.38606 0.0
C2992 C 0.8151 0.82176 0.61432 0.0
C2993 C 0.79885 0.8288 0.6011 0.0
C2994 C 0.81276 0.818 0.63692 0.0
C2995 C 0.79336 0.82072 0.6469 0.0
C2996 C 0.7767 0.82758 0.63366 0.0
C2997 C 0.77978 0.83184 0.61109 0.0
C2998 C 0.83126 0.81116 0.65019 0.0
C2999 C 0.7555 0.83025 0.64331 0.0
C3000 C 0.77968 0.78565 0.69861 0.0
C3001 C 0.79071 0.80436 0.71633 0.0
C3002 C 0.77939 0.79094 0.67617 0.0
C3003 C 0.79048 0.81562 0.67093 0.0
C3004 C 0.80073 0.83482 0.68876 0.0
C3005 C 0.80069 0.82901 0.71113 0.0
C3006 C 0.76807 0.76979 0.65798 0.0
C3007 C 0.8128 0.86139 0.68419 0.0
H3008 H 0.83012 0.81965 0.6071 0.0
H3009 H 0.76713 0.83732 0.60121 0.0
H3010 H 0.83875 0.82481 0.66517 0.0
H3011 H 0.8233 0.79259 0.6561 0.0
H3012 H 0.84575 0.81066 0.64033 0.0
H3013 H 0.74415 0.8357 0.63102 0.0
H3014 H 0.74501 0.81235 0.64916 0.0
H3015 H 0.76106 0.84446 0.65802 0.0
H3016 H 0.77179 0.76653 0.70216 0.0
H3017 H 0.80935 0.8437 0.72448 0.0
H3018 H 0.78175 0.76636 0.64851 0.0
H3019 H 0.75605 0.77472 0.64604 0.0
H3020 H 0.75808 0.75222 0.6647 0.0
H3021 H 0.82892 0.86278 0.67621 0.0
H3022 H 0.81772 0.87455 0.69966 0.0
H3023 H 0.80134 0.86727 0.67241 0.0
C3024 C 0.7254 0.4516 0.51102 0.0
C3025 C 0.74283 0.44562 0.5232 0.0
C3026 C 0.71545 0.46806 0.52058 0.0
C3027 C 0.72317 0.4788 0.54288 0.0
C3028 C 0.73967 0.47165 0.55576 0.0
C3029 C 0.74932 0.45502 0.54575 0.0
C3030 C 0.69742 0.47482 0.50647 0.0
C3031 C 0.74783 0.48236 0.57972 0.0
C3032 C 0.7136 0.54023 0.55009 0.0
C3033 C 0.69096 0.5324 0.55652 0.0
C3034 C 0.72557 0.52334 0.5477 0.0
C3035 C 0.71449 0.4983 0.552 0.0
C3036 C 0.69277 0.49126 0.56101 0.0
C3037 C 0.68112 0.50841 0.56297 0.0
C3038 C 0.74888 0.53161 0.53831 0.0
C3039 C 0.68054 0.465 0.56634 0.0
H3040 H 0.72018 0.44418 0.49367 0.0
H3041 H 0.76279 0.45043 0.55529 0.0
H3042 H 0.68122 0.4712 0.51485 0.0
H3043 H 0.70424 0.49501 0.5044 0.0
H3044 H 0.69278 0.46415 0.48967 0.0
H3045 H 0.7592 0.47327 0.58799 0.0
H3046 H 0.75782 0.50261 0.58045 0.0
H3047 H 0.73257 0.48025 0.58926 0.0
H3048 H 0.72111 0.55886 0.54516 0.0
H3049 H 0.66361 0.50255 0.56818 0.0
H3050 H 0.74638 0.52409 0.5205 0.0
H3051 H 0.76132 0.52426 0.54718 0.0
H3052 H 0.75681 0.55225 0.53944 0.0
H3053 H 0.66891 0.454 0.55142 0.0
H3054 H 0.66952 0.4649 0.58011 0.0
H3055 H 0.69308 0.45558 0.57112 0.0
C3056 C 0.23451 0.14355 0.52898 0.0
C3057 C 0.23369 0.16707 0.52494 0.0
C3058 C 0.21386 0.12338 0.53055 0.0
C3059 C 0.19191 0.12676 0.5278 0.0
C3060 C 0.191 0.15037 0.52349 0.0
C3061 C 0.21184 0.17019 0.5222 0.0
C3062 C 0.21554 0.09853 0.53532 0.0
C3063 C 0.16795 0.15474 0.52018 0.0
C3064 C 0.13475 0.07405 0.50895 0.0
C3065 C 0.12347 0.07174 0.52849 0.0
C3066 C 0.15761 0.09083 0.50881 0.0
C3067 C 0.16963 0.10564 0.52871 0.0
C3068 C 0.15901 0.10216 0.54882 0.0
C3069 C 0.13601 0.08527 0.54847 0.0
C3070 C 0.16824 0.09389 0.48699 0.0
C3071 C 0.17137 0.11734 0.57046 0.0
H3072 H 0.25131 0.14101 0.53129 0.0
H3073 H 0.21098 0.18824 0.51903 0.0
H3074 H 0.20758 0.0929 0.55085 0.0
H3075 H 0.20552 0.08396 0.52165 0.0
H3076 H 0.23393 0.09898 0.53719 0.0
H3077 H 0.17027 0.17422 0.51698 0.0
H3078 H 0.15667 0.14197 0.5059 0.0
H3079 H 0.15851 0.15058 0.53518 0.0
H3080 H 0.12536 0.0635 0.49344 0.0
H3081 H 0.12753 0.08354 0.56368 0.0
H3082 H 0.18636 0.09359 0.48905 0.0
H3083 H 0.16924 0.11223 0.48151 0.0
H3084 H 0.15783 0.07907 0.47362 0.0
H3085 H 0.18964 0.11756 0.57295 0.0
H3086 H 0.16224 0.11006 0.58503 0.0
H3087 H 0.1722 0.13692 0.56986 0.0
C3088 C 0.20899 0.98588 0.80023 0.0
C3089 C 0.21796 0.006 0.81694 0.0
C3090 C 0.22251 0.9716 0.79374 0.0
C3091 C 0.24552 0.9776 0.80424 0.0
C3092 C 0.25471 0.99789 0.8211 0.0
C3093 C 0.2408 0.01186 0.82726 0.0
C3094 C 0.21213 0.95001 0.77575 0.0
C3095 C 0.2792 0.00474 0.83268 0.0
C3096 C 0.27293 0.92746 0.80424 0.0
C3097 C 0.28778 0.93366 0.78738 0.0
C3098 C 0.25887 0.94144 0.8097 0.0
C3099 C 0.2598 0.96221 0.79807 0.0
C3100 C 0.27456 0.96842 0.78085 0.0
C3101 C 0.28834 0.95396 0.77562 0.0
C3102 C 0.24312 0.93407 0.82798 0.0
C3103 C 0.276 0.99051 0.76817 0.0
H3104 H 0.19136 0.98126 0.79214 0.0
H3105 H 0.24787 0.0274 0.84016 0.0
H3106 H 0.22328 0.95249 0.76184 0.0
H3107 H 0.21163 0.93238 0.78249 0.0
H3108 H 0.19409 0.94807 0.76899 0.0
H3109 H 0.28387 0.02135 0.84516 0.0
H3110 H 0.28083 0.98887 0.84126 0.0
H3111 H 0.29209 0.00863 0.82024 0.0
H3112 H 0.27217 0.91146 0.81306 0.0
H3113 H 0.29988 0.95877 0.76262 0.0
H3114 H 0.22469 0.93065 0.82149 0.0
H3115 H 0.24809 0.94949 0.84167 0.0
H3116 H 0.24407 0.91703 0.83501 0.0
H3117 H 0.25833 0.98875 0.76051 0.0
H3118 H 0.28784 0.9924 0.75483 0.0
H3119 H 0.28246 0.00789 0.7798 0.0
C3120 C 0.36429 0.98915 0.00973 0.0
C3121 C 0.35937 0.96333 0.00802 0.0
C3122 C 0.38731 0.00557 0.0094 0.0
C3123 C 0.40551 0.9957 0.00737 0.0
C3124 C 0.40028 0.9696 0.0043 0.0
C3125 C 0.37727 0.95378 0.00465 0.0
C3126 C 0.39225 0.0333 0.01232 0.0
C3127 C 0.41916 0.95828 0.00186 0.0
C3128 C 0.4679 0.02644 0.99626 0.0
C3129 C 0.47938 0.02772 0.01751 0.0
C3130 C 0.4434 0.01879 0.99294 0.0
C3131 C 0.43036 0.01193 0.01124 0.0
C3132 C 0.442 0.01564 0.03301 0.0
C3133 C 0.46641 0.02362 0.03589 0.0
C3134 C 0.43151 0.0159 0.96961 0.0
C3135 C 0.42872 0.0086 0.05301 0.0
H3136 H 0.35035 0.99653 0.01208 0.0
H3137 H 0.37342 0.93382 0.00268 0.0
H3138 H 0.39941 0.04071 0.02982 0.0
H3139 H 0.40552 0.04306 0.00143 0.0
H3140 H 0.37613 0.03782 0.00857 0.0
H3141 H 0.41188 0.93764 0.99839 0.0
H3142 H 0.42954 0.96589 0.98812 0.0
H3143 H 0.43134 0.96314 0.01742 0.0
H3144 H 0.47789 0.03024 0.98206 0.0
H3145 H 0.47518 0.02521 0.05247 0.0
H3146 H 0.41545 0.02086 0.96963 0.0
H3147 H 0.42626 0.99616 0.96246 0.0
H3148 H 0.44338 0.02767 0.95858 0.0
H3149 H 0.41396 0.01575 0.05294 0.0
H3150 H 0.44015 0.01588 0.06898 0.0
H3151 H 0.42124 0.98798 0.05232 0.0
C3152 C 0.92016 0.60458 0.77292 0.0
C3153 C 0.91293 0.58755 0.78867 0.0
C3154 C 0.90554 0.61702 0.7647 0.0
C3155 C 0.88344 0.61249 0.77271 0.0
C3156 C 0.87586 0.59484 0.78815 0.0
C3157 C 0.89065 0.58246 0.79583 0.0
C3158 C 0.91398 0.63552 0.748 0.0
C3159 C 0.85252 0.58974 0.79731 0.0
C3160 C 0.85485 0.6612 0.77708 0.0
C3161 C 0.83582 0.65131 0.76058 0.0
C3162 C 0.87141 0.64955 0.78028 0.0
C3163 C 0.86884 0.6275 0.76658 0.0
C3164 C 0.8505 0.6183 0.74894 0.0
C3165 C 0.83412 0.63039 0.74613 0.0
C3166 C 0.8908 0.66 0.79921 0.0
C3167 C 0.84742 0.59495 0.73391 0.0
H3168 H 0.93731 0.60838 0.7672 0.0
H3169 H 0.88496 0.56931 0.80799 0.0
H3170 H 0.9004 0.63182 0.73365 0.0
H3171 H 0.91718 0.65465 0.75587 0.0
H3172 H 0.93044 0.63493 0.7417 0.0
H3173 H 0.84882 0.57461 0.80844 0.0
H3174 H 0.85226 0.6069 0.80691 0.0
H3175 H 0.83817 0.58447 0.78348 0.0
H3176 H 0.85646 0.67779 0.78789 0.0
H3177 H 0.81945 0.62286 0.73328 0.0
H3178 H 0.90799 0.66177 0.79329 0.0
H3179 H 0.88791 0.64703 0.81231 0.0
H3180 H 0.89164 0.67855 0.80687 0.0
H3181 H 0.86435 0.59556 0.72799 0.0
H3182 H 0.8344 0.59225 0.71922 0.0
H3183 H 0.84138 0.57851 0.7434 0.0
C3184 C 0.8677 0.66562 0.00038 0.0
C3185 C 0.85646 0.67219 0.01796 0.0
C3186 C 0.88208 0.65121 0.00343 0.0
C3187 C 0.88511 0.6428 0.02449 0.0
C3188 C 0.87403 0.64959 0.04239 0.0
C3189 C 0.85997 0.66433 0.03896 0.0
C3190 C 0.89383 0.64472 0.98398 0.0
C3191 C 0.87648 0.6407 0.06501 0.0
C3192 C 0.90211 0.58469 0.02306 0.0
C3193 C 0.92623 0.59443 0.03037 0.0
C3194 C 0.88844 0.60006 0.022 0.0
C3195 C 0.89915 0.62613 0.02744 0.0
C3196 C 0.92339 0.63623 0.03478 0.0
C3197 C 0.9365 0.62029 0.03657 0.0
C3198 C 0.86251 0.58838 0.01467 0.0
C3199 C 0.93563 0.66399 0.04029 0.0
H3200 H 0.86521 0.67168 0.98413 0.0
H3201 H 0.85131 0.66922 0.05263 0.0
H3202 H 0.91298 0.65037 0.9887 0.0
H3203 H 0.88709 0.62425 0.9794 0.0
H3204 H 0.89082 0.65388 0.96907 0.0
H3205 H 0.86737 0.64825 0.07738 0.0
H3206 H 0.8691 0.62004 0.06355 0.0
H3207 H 0.89523 0.64628 0.07143 0.0
H3208 H 0.89377 0.565 0.01765 0.0
H3209 H 0.95485 0.62828 0.04282 0.0
H3210 H 0.8584 0.59444 0.99836 0.0
H3211 H 0.85239 0.59468 0.02682 0.0
H3212 H 0.85645 0.56769 0.013 0.0
H3213 H 0.93378 0.67366 0.0254 0.0
H3214 H 0.95457 0.66895 0.04582 0.0
H3215 H 0.92735 0.67119 0.05362 0.0
C3216 C 0.20162 0.13086 0.79545 0.0
C3217 C 0.20577 0.11516 0.8106 0.0
C3218 C 0.21963 0.15226 0.79136 0.0
C3219 C 0.24201 0.15837 0.80331 0.0
C3220 C 0.24634 0.14244 0.81853 0.0
C3221 C 0.22814 0.12064 0.8217 0.0
C3222 C 0.21456 0.16858 0.77462 0.0
C3223 C 0.2698 0.14899 0.83211 0.0
C3224 C 0.29225 0.20609 0.78068 0.0
C3225 C 0.29179 0.22801 0.79198 0.0
C3226 C 0.2763 0.18299 0.78447 0.0
C3227 C 0.26042 0.18213 0.80056 0.0
C3228 C 0.26088 0.20433 0.81281 0.0
C3229 C 0.27634 0.22713 0.808 0.0
C3230 C 0.27562 0.15972 0.77057 0.0
C3231 C 0.24468 0.2041 0.83055 0.0
H3232 H 0.18424 0.12636 0.7868 0.0
H3233 H 0.23111 0.10846 0.83357 0.0
H3234 H 0.21582 0.18681 0.78326 0.0
H3235 H 0.22773 0.17233 0.76244 0.0
H3236 H 0.19683 0.15996 0.76536 0.0
H3237 H 0.27041 0.13428 0.84287 0.0
H3238 H 0.28392 0.15192 0.82099 0.0
H3239 H 0.27361 0.16674 0.84287 0.0
H3240 H 0.30436 0.20713 0.76825 0.0
H3241 H 0.27638 0.24433 0.81676 0.0
H3242 H 0.2585 0.15153 0.76018 0.0
H3243 H 0.27722 0.14552 0.78145 0.0
H3244 H 0.2898 0.16351 0.75941 0.0
H3245 H 0.24895 0.22275 0.83998 0.0
H3246 H 0.24566 0.19059 0.84247 0.0
H3247 H 0.22632 0.19803 0.82277 0.0
C3248 C 0.38362 0.9849 0.28499 0.0
C3249 C 0.40283 0.98127 0.27578 0.0
C3250 C 0.36319 0.96464 0.28652 0.0
C3251 C 0.36218 0.94042 0.27868 0.0
C3252 C 0.38034 0.93716 0.26693 0.0
C3253 C 0.40048 0.9577 0.26559 0.0
C3254 C 0.34376 0.96903 0.29827 0.0
C3255 C 0.37957 0.91163 0.25763 0.0
C3256 C 0.33817 0.88325 0.30787 0.0
C3257 C 0.32132 0.86811 0.29112 0.0
C3258 C 0.3501 0.90829 0.30523 0.0
C3259 C 0.3445 0.91812 0.28559 0.0
C3260 C 0.32507 0.90374 0.27037 0.0
C3261 C 0.31393 0.8786 0.2731 0.0
C3262 C 0.37054 0.92321 0.32205 0.0
C3263 C 0.31763 0.91397 0.24998 0.0
H3264 H 0.38513 1.0032 0.29257 0.0
H3265 H 0.41505 0.95494 0.25798 0.0
H3266 H 0.32639 0.95528 0.29158 0.0
H3267 H 0.34666 0.96712 0.31626 0.0
H3268 H 0.34351 0.98813 0.29673 0.0
H3269 H 0.39435 0.91259 0.24767 0.0
H3270 H 0.38034 0.90023 0.27152 0.0
H3271 H 0.36294 0.90182 0.24687 0.0
H3272 H 0.34367 0.87497 0.32184 0.0
H3273 H 0.30045 0.86678 0.26038 0.0
H3274 H 0.36996 0.94209 0.3265 0.0
H3275 H 0.38715 0.92549 0.31466 0.0
H3276 H 0.3708 0.914 0.33753 0.0
H3277 H 0.32044 0.93412 0.25339 0.0
H3278 H 0.29888 0.9038 0.244 0.0
H3279 H 0.32817 0.91168 0.23637 0.0
C3280 C 0.61379 0.40003 0.59802 0.0
C3281 C 0.59854 0.37577 0.59085 0.0
C3282 C 0.60833 0.42094 0.5923 0.0
C3283 C 0.58745 0.41752 0.57843 0.0
C3284 C 0.57211 0.39294 0.57095 0.0
C3285 C 0.57765 0.37235 0.57758 0.0
C3286 C 0.62466 0.44667 0.60152 0.0
C3287 C 0.55011 0.3884 0.55554 0.0
C3288 C 0.56238 0.47025 0.57706 0.0
C3289 C 0.57203 0.48205 0.5588 0.0
C3290 C 0.56753 0.4495 0.58384 0.0
C3291 C 0.5819 0.43967 0.57153 0.0
C3292 C 0.59132 0.45132 0.5528 0.0
C3293 C 0.58663 0.4726 0.54694 0.0
C3294 C 0.55788 0.43835 0.6044 0.0
C3295 C 0.60633 0.44128 0.53889 0.0
H3296 H 0.62989 0.40263 0.6084 0.0
H3297 H 0.56597 0.35355 0.57191 0.0
H3298 H 0.62913 0.45895 0.588 0.0
H3299 H 0.61575 0.45518 0.61333 0.0
H3300 H 0.64112 0.4463 0.61042 0.0
H3301 H 0.54025 0.36822 0.55089 0.0
H3302 H 0.53848 0.39692 0.56355 0.0
H3303 H 0.55467 0.39742 0.5401 0.0
H3304 H 0.55122 0.4776 0.58636 0.0
H3305 H 0.59398 0.48153 0.53269 0.0
H3306 H 0.57245 0.43841 0.61658 0.0
H3307 H 0.54638 0.41865 0.6 0.0
H3308 H 0.54769 0.44868 0.61258 0.0
H3309 H 0.62277 0.44287 0.54908 0.0
H3310 H 0.61095 0.45139 0.52399 0.0
H3311 H 0.59703 0.4212 0.53331 0.0
C3312 C 0.43289 0.7788 0.40536 0.0
C3313 C 0.44185 0.75973 0.40053 0.0
C3314 C 0.41551 0.78219 0.3908 0.0
C3315 C 0.40635 0.76566 0.3711 0.0
C3316 C 0.4154 0.74631 0.36608 0.0
C3317 C 0.43333 0.74373 0.38079 0.0
C3318 C 0.40691 0.80347 0.39657 0.0
C3319 C 0.40585 0.72811 0.34541 0.0
C3320 C 0.34632 0.76371 0.34629 0.0
C3321 C 0.35227 0.77966 0.32951 0.0
C3322 C 0.36366 0.75827 0.35946 0.0
C3323 C 0.38752 0.76909 0.35583 0.0
C3324 C 0.39356 0.78491 0.33871 0.0
C3325 C 0.37592 0.78997 0.32579 0.0
C3326 C 0.35648 0.74127 0.37752 0.0
C3327 C 0.41877 0.79704 0.3344 0.0
H3328 H 0.4396 0.79118 0.42066 0.0
H3329 H 0.44017 0.72886 0.37722 0.0
H3330 H 0.40922 0.81563 0.38287 0.0
H3331 H 0.38793 0.79609 0.39848 0.0
H3332 H 0.41632 0.81504 0.41224 0.0
H3333 H 0.41477 0.71418 0.34384 0.0
H3334 H 0.38683 0.71811 0.34577 0.0
H3335 H 0.40786 0.73824 0.33035 0.0
H3336 H 0.32812 0.75549 0.34919 0.0
H3337 H 0.38078 0.80222 0.31281 0.0
H3338 H 0.3639 0.75182 0.39408 0.0
H3339 H 0.36363 0.72591 0.37558 0.0
H3340 H 0.33715 0.73308 0.37731 0.0
H3341 H 0.42876 0.80985 0.34922 0.0
H3342 H 0.42045 0.80782 0.31971 0.0
H3343 H 0.42703 0.78272 0.3316 0.0
C3344 C 0.07212 0.72704 0.07092 0.0
C3345 C 0.09434 0.74072 0.08188 0.0
C3346 C 0.06612 0.70152 0.06355 0.0
C3347 C 0.08237 0.68927 0.06822 0.0
C3348 C 0.10464 0.70303 0.07975 0.0
C3349 C 0.1105 0.72866 0.08601 0.0
C3350 C 0.04255 0.68776 0.05057 0.0
C3351 C 0.12219 0.69063 0.08584 0.0
C3352 C 0.06018 0.61859 0.06854 0.0
C3353 C 0.06786 0.6109 0.04896 0.0
C3354 C 0.06465 0.64402 0.07498 0.0
C3355 C 0.07632 0.6621 0.06107 0.0
C3356 C 0.08339 0.65426 0.04089 0.0
C3357 C 0.07944 0.62882 0.03528 0.0
C3358 C 0.05749 0.65158 0.09696 0.0
C3359 C 0.09519 0.67276 0.02521 0.0
H3360 H 0.05964 0.73642 0.06774 0.0
H3361 H 0.12758 0.73919 0.0948 0.0
H3362 H 0.0449 0.67896 0.03436 0.0
H3363 H 0.03214 0.67257 0.05984 0.0
H3364 H 0.03241 0.70022 0.04733 0.0
H3365 H 0.13826 0.70372 0.09581 0.0
H3366 H 0.11418 0.67481 0.09557 0.0
H3367 H 0.12731 0.6829 0.07052 0.0
H3368 H 0.0512 0.60475 0.07914 0.0
H3369 H 0.085 0.62286 0.01991 0.0
H3370 H 0.0456 0.6623 0.09429 0.0
H3371 H 0.07319 0.66396 0.10787 0.0
H3372 H 0.04852 0.63527 0.10582 0.0
H3373 H 0.08464 0.68467 0.02141 0.0
H3374 H 0.0977 0.66348 0.00931 0.0
H3375 H 0.11257 0.68524 0.03325 0.0
C3376 C 0.07231 0.2629 0.89194 0.0
C3377 C 0.06456 0.28331 0.89129 0.0
C3378 C 0.09104 0.26163 0.88037 0.0
C3379 C 0.10224 0.2811 0.86758 0.0
C3380 C 0.0946 0.30182 0.8669 0.0
C3381 C 0.07594 0.30273 0.87884 0.0
C3382 C 0.09876 0.23932 0.88174 0.0
C3383 C 0.10594 0.32285 0.8533 0.0
C3384 C 0.16266 0.2857 0.85135 0.0
C3385 C 0.15719 0.2731 0.82973 0.0
C3386 C 0.14504 0.28877 0.86376 0.0
C3387 C 0.12136 0.27918 0.85432 0.0
C3388 C 0.11576 0.26675 0.83244 0.0
C3389 C 0.13365 0.26369 0.82053 0.0
C3390 C 0.15174 0.30208 0.88707 0.0
C3391 C 0.09078 0.25636 0.82167 0.0
H3392 H 0.0638 0.24787 0.90163 0.0
H3393 H 0.07011 0.31858 0.87823 0.0
H3394 H 0.0964 0.22914 0.86491 0.0
H3395 H 0.11767 0.24553 0.88779 0.0
H3396 H 0.08878 0.22618 0.89303 0.0
H3397 H 0.09834 0.3379 0.85491 0.0
H3398 H 0.12502 0.33099 0.85862 0.0
H3399 H 0.10378 0.3156 0.83545 0.0
H3400 H 0.18077 0.29342 0.85853 0.0
H3401 H 0.12909 0.25358 0.80402 0.0
H3402 H 0.14307 0.28931 0.8992 0.0
H3403 H 0.14555 0.31818 0.88846 0.0
H3404 H 0.17096 0.30892 0.89185 0.0
H3405 H 0.08016 0.24158 0.83123 0.0
H3406 H 0.08947 0.24834 0.80413 0.0
H3407 H 0.08292 0.27123 0.82195 0.0
C3408 C 0.52769 0.69125 0.93436 0.0
C3409 C 0.54788 0.71197 0.93209 0.0
C3410 C 0.52851 0.66982 0.94471 0.0
C3411 C 0.55006 0.66844 0.9543 0.0
C3412 C 0.57064 0.68927 0.95204 0.0
C3413 C 0.56938 0.71028 0.94092 0.0
C3414 C 0.50591 0.64856 0.94559 0.0
C3415 C 0.59415 0.68976 0.96209 0.0
C3416 C 0.54715 0.62381 0.00156 0.0
C3417 C 0.55032 0.60245 0.99099 0.0
C3418 C 0.5474 0.64501 0.99016 0.0
C3419 C 0.55075 0.64577 0.96706 0.0
C3420 C 0.55384 0.62422 0.95624 0.0
C3421 C 0.55372 0.60332 0.9681 0.0
C3422 C 0.54408 0.66687 0.00308 0.0
C3423 C 0.5571 0.62305 0.93179 0.0
H3424 H 0.51081 0.69179 0.92798 0.0
H3425 H 0.58526 0.72592 0.94001 0.0
H3426 H 0.50753 0.63075 0.93883 0.0
H3427 H 0.50215 0.64678 0.96315 0.0
H3428 H 0.49082 0.6512 0.936 0.0
H3429 H 0.60862 0.70669 0.95888 0.0
H3430 H 0.59406 0.68914 0.98037 0.0
H3431 H 0.59767 0.67304 0.95524 0.0
H3432 H 0.54457 0.62413 0.01908 0.0
H3433 H 0.55623 0.58744 0.95924 0.0
H3434 H 0.52795 0.66959 0.9959 0.0
H3435 H 0.55899 0.68416 0.00169 0.0
H3436 H 0.54266 0.6643 0.021 0.0
H3437 H 0.5418 0.62501 0.92202 0.0
H3438 H 0.55918 0.60531 0.92547 0.0
H3439 H 0.57278 0.63881 0.92879 0.0
C3440 C 0.13162 0.78383 0.69411 0.0
C3441 C 0.11996 0.7979 0.70544 0.0
C3442 C 0.15421 0.78336 0.70239 0.0
C3443 C 0.16657 0.79741 0.72285 0.0
C3444 C 0.15505 0.81203 0.73416 0.0
C3445 C 0.1322 0.81171 0.72573 0.0
C3446 C 0.16457 0.76692 0.68944 0.0
C3447 C 0.16671 0.82778 0.7557 0.0
C3448 C 0.21483 0.77744 0.756 0.0
C3449 C 0.23656 0.79367 0.75052 0.0
C3450 C 0.19255 0.77854 0.74744 0.0
C3451 C 0.19088 0.79627 0.73255 0.0
C3452 C 0.21275 0.81274 0.72699 0.0
C3453 C 0.23481 0.81131 0.73587 0.0
C3454 C 0.17054 0.76041 0.75444 0.0
C3455 C 0.21291 0.83215 0.71148 0.0
H3456 H 0.12253 0.77216 0.67897 0.0
H3457 H 0.12365 0.8221 0.7354 0.0
H3458 H 0.18233 0.77807 0.68554 0.0
H3459 H 0.1665 0.75236 0.69974 0.0
H3460 H 0.15359 0.75765 0.67362 0.0
H3461 H 0.15683 0.83964 0.76176 0.0
H3462 H 0.1682 0.81556 0.76869 0.0
H3463 H 0.18473 0.83995 0.7535 0.0
H3464 H 0.21513 0.76364 0.7672 0.0
H3465 H 0.25088 0.82421 0.73116 0.0
H3466 H 0.15924 0.74899 0.73952 0.0
H3467 H 0.16045 0.77075 0.76272 0.0
H3468 H 0.17428 0.74776 0.76603 0.0
H3469 H 0.2031 0.82298 0.69515 0.0
H3470 H 0.23094 0.84382 0.7087 0.0
H3471 H 0.20388 0.84447 0.71841 0.0
C3472 C 0.06984 0.37388 0.43073 0.0
C3473 C 0.05473 0.35138 0.43736 0.0
C3474 C 0.07073 0.39801 0.44042 0.0
C3475 C 0.05597 0.40044 0.45714 0.0
C3476 C 0.04082 0.37782 0.46378 0.0
C3477 C 0.04054 0.35422 0.45417 0.0
C3478 C 0.08751 0.42105 0.43261 0.0
C3479 C 0.02435 0.37842 0.48104 0.0
C3480 C 0.06796 0.45911 0.5003 0.0
C3481 C 0.05338 0.47159 0.49156 0.0
C3482 C 0.06989 0.43721 0.48889 0.0
C3483 C 0.0563 0.4261 0.46813 0.0
C3484 C 0.04161 0.43871 0.45912 0.0
C3485 C 0.04065 0.46117 0.47056 0.0
C3486 C 0.08648 0.42574 0.49934 0.0
C3487 C 0.02617 0.42796 0.43757 0.0
H3488 H 0.08087 0.37273 0.41779 0.0
H3489 H 0.02854 0.33763 0.45983 0.0
H3490 H 0.07756 0.43144 0.42413 0.0
H3491 H 0.0986 0.43361 0.4471 0.0
H3492 H 0.09902 0.41658 0.42087 0.0
H3493 H 0.01296 0.35946 0.48402 0.0
H3494 H 0.03449 0.38817 0.49706 0.0
H3495 H 0.01305 0.38902 0.47562 0.0
H3496 H 0.0782 0.46664 0.51628 0.0
H3497 H 0.02918 0.47012 0.46332 0.0
H3498 H 0.09781 0.42225 0.48692 0.0
H3499 H 0.07638 0.40749 0.50479 0.0
H3500 H 0.0978 0.43779 0.51399 0.0
H3501 H 0.03695 0.4259 0.42411 0.0
H3502 H 0.01591 0.43975 0.43238 0.0
H3503 H 0.01382 0.40908 0.43942 0.0
C3504 C 0.45852 0.27908 0.19363 0.0
C3505 C 0.48013 0.28488 0.2071 0.0
C3506 C 0.43692 0.27807 0.20263 0.0
C3507 C 0.43595 0.28348 0.22602 0.0
C3508 C 0.45785 0.28987 0.23955 0.0
C3509 C 0.47895 0.28994 0.23023 0.0
C3510 C 0.41475 0.27046 0.18694 0.0
C3511 C 0.45908 0.29655 0.26428 0.0
C3512 C 0.38444 0.30353 0.24814 0.0
C3513 C 0.36904 0.28202 0.25626 0.0
C3514 C 0.40542 0.3041 0.23832 0.0
C3515 C 0.41255 0.28275 0.23625 0.0
C3516 C 0.39717 0.26095 0.24451 0.0
C3517 C 0.37602 0.26078 0.254 0.0
C3518 C 0.42015 0.32799 0.23006 0.0
C3519 C 0.40308 0.23745 0.24336 0.0
H3520 H 0.45822 0.2743 0.17592 0.0
H3521 H 0.49487 0.29406 0.24135 0.0
H3522 H 0.40179 0.25336 0.19191 0.0
H3523 H 0.40687 0.28529 0.18803 0.0
H3524 H 0.41781 0.26679 0.16937 0.0
H3525 H 0.47722 0.30232 0.27265 0.0
H3526 H 0.45223 0.31199 0.26747 0.0
H3527 H 0.44785 0.28034 0.27195 0.0
H3528 H 0.37996 0.32029 0.24924 0.0
H3529 H 0.36497 0.24379 0.25987 0.0
H3530 H 0.42199 0.32465 0.21211 0.0
H3531 H 0.43802 0.33456 0.23911 0.0
H3532 H 0.41255 0.34298 0.2323 0.0
H3533 H 0.40432 0.23142 0.22579 0.0
H3534 H 0.38986 0.22199 0.25029 0.0
H3535 H 0.42044 0.2411 0.25276 0.0
C3536 C 0.64526 0.51711 0.41288 0.0
C3537 C 0.6357 0.50845 0.39089 0.0
C3538 C 0.63155 0.51021 0.43038 0.0
C3539 C 0.60773 0.49484 0.42539 0.0
C3540 C 0.59923 0.48311 0.40352 0.0
C3541 C 0.61345 0.4902 0.38633 0.0
C3542 C 0.64146 0.52269 0.45361 0.0
C3543 C 0.57415 0.46617 0.39763 0.0
C3544 C 0.57505 0.48934 0.47632 0.0
C3545 C 0.57003 0.51144 0.4767 0.0
C3546 C 0.58579 0.48222 0.45862 0.0
C3547 C 0.5911 0.49749 0.44105 0.0
C3548 C 0.58375 0.51844 0.44045 0.0
C3549 C 0.57363 0.52539 0.45856 0.0
C3550 C 0.59316 0.4597 0.45972 0.0
C3551 C 0.58833 0.53481 0.42162 0.0
H3552 H 0.66251 0.53135 0.41617 0.0
H3553 H 0.60617 0.48371 0.36915 0.0
H3554 H 0.63523 0.53854 0.45719 0.0
H3555 H 0.63544 0.50953 0.46625 0.0
H3556 H 0.66091 0.53005 0.45545 0.0
H3557 H 0.57236 0.45306 0.38257 0.0
H3558 H 0.56733 0.45533 0.4116 0.0
H3559 H 0.5631 0.47761 0.39395 0.0
H3560 H 0.57213 0.47864 0.49054 0.0
H3561 H 0.56933 0.54229 0.45895 0.0
H3562 H 0.61187 0.46582 0.46649 0.0
H3563 H 0.59134 0.44964 0.44291 0.0
H3564 H 0.58275 0.44661 0.47081 0.0
H3565 H 0.6074 0.5452 0.42226 0.0
H3566 H 0.57914 0.54854 0.42257 0.0
H3567 H 0.58258 0.52332 0.40528 0.0
C3568 C 0.30114 0.89571 0.08024 0.0
C3569 C 0.30776 0.88735 0.06039 0.0
C3570 C 0.30733 0.8881 0.10053 0.0
C3571 C 0.31976 0.87125 0.1006 0.0
C3572 C 0.32563 0.86203 0.08041 0.0
C3573 C 0.31985 0.87053 0.06051 0.0
C3574 C 0.30127 0.89864 0.12189 0.0
C3575 C 0.33827 0.84346 0.07987 0.0
C3576 C 0.35619 0.86787 0.15283 0.0
C3577 C 0.34096 0.84692 0.16089 0.0
C3578 C 0.34931 0.87636 0.13328 0.0
C3579 C 0.32684 0.86332 0.12178 0.0
C3580 C 0.31143 0.84217 0.13008 0.0
C3581 C 0.3187 0.83425 0.14969 0.0
C3582 C 0.36602 0.89917 0.12493 0.0
C3583 C 0.28743 0.82775 0.11813 0.0
H3584 H 0.29201 0.90897 0.08002 0.0
H3585 H 0.32483 0.86406 0.04502 0.0
H3586 H 0.29076 0.88334 0.13101 0.0
H3587 H 0.31756 0.90918 0.13292 0.0
H3588 H 0.29126 0.91129 0.11887 0.0
H3589 H 0.34044 0.8372 0.06261 0.0
H3590 H 0.35586 0.85191 0.08937 0.0
H3591 H 0.3285 0.82688 0.08799 0.0
H3592 H 0.37329 0.87762 0.1619 0.0
H3593 H 0.30704 0.81813 0.15635 0.0
H3594 H 0.35749 0.91329 0.12288 0.0
H3595 H 0.37066 0.89412 0.10831 0.0
H3596 H 0.38241 0.90775 0.13639 0.0
H3597 H 0.27714 0.84026 0.11612 0.0
H3598 H 0.27745 0.81201 0.12716 0.0
H3599 H 0.28914 0.8202 0.10118 0.0
C3600 C 0.96621 0.55636 0.89509 0.0
C3601 C 0.97701 0.5764 0.88321 0.0
C3602 C 0.97484 0.5562 0.91711 0.0
C3603 C 0.99429 0.57674 0.92703 0.0
C3604 C 1.00167 0.59896 0.91661 0.0
C3605 C 0.99313 0.59841 0.89439 0.0
C3606 C 0.9659 0.53254 0.9282 0.0
C3607 C 0.02117 0.62182 0.92758 0.0
C3608 C 0.02245 0.56862 0.9824 0.0
C3609 C 0.03916 0.55886 0.97528 0.0
C3610 C 1.00816 0.57564 0.967 0.0
C3611 C 0.01064 0.57237 0.94409 0.0
C3612 C 0.02823 0.56336 0.93697 0.0
C3613 C 0.04249 0.55696 0.95279 0.0
C3614 C 0.9902 0.58584 0.97539 0.0
C3615 C 0.03156 0.55969 0.91261 0.0
H3616 H 0.95362 0.53938 0.88623 0.0
H3617 H 1.00129 0.61393 0.88505 0.0
H3618 H 0.97837 0.5223 0.927 0.0
H3619 H 0.96464 0.53688 0.94614 0.0
H3620 H 0.94846 0.52011 0.92016 0.0
H3621 H 0.02101 0.63881 0.91994 0.0
H3622 H 0.01974 0.62449 0.9457 0.0
H3623 H 0.03826 0.61949 0.92554 0.0
H3624 H 0.02074 0.57097 2e-05 0.0
H3625 H 0.05572 0.54967 0.94751 0.0
H3626 H 0.98361 0.5959 0.96303 0.0
H3627 H 0.99778 0.59882 0.99076 0.0
H3628 H 0.9751 0.57016 0.97961 0.0
H3629 H 0.01529 0.54613 0.90338 0.0
H3630 H 0.04619 0.55271 0.91005 0.0
H3631 H 0.03524 0.57756 0.90518 0.0
C3632 C 0.31952 0.27791 0.60578 0.0
C3633 C 0.30964 0.25384 0.59443 0.0
C3634 C 0.31944 0.28214 0.62914 0.0
C3635 C 0.30821 0.26204 0.64144 0.0
C3636 C 0.29802 0.23775 0.62992 0.0
C3637 C 0.29924 0.23392 0.60677 0.0
C3638 C 0.33121 0.3082 0.64067 0.0
C3639 C 0.28518 0.21584 0.64195 0.0
C3640 C 0.32303 0.26807 0.70497 0.0
C3641 C 0.30432 0.27393 0.71313 0.0
C3642 C 0.32443 0.26405 0.68188 0.0
C3643 C 0.30694 0.26634 0.66623 0.0
C3644 C 0.28806 0.2724 0.67436 0.0
C3645 C 0.28688 0.27588 0.69759 0.0
C3646 C 0.34476 0.25743 0.67422 0.0
C3647 C 0.26914 0.27539 0.65849 0.0
H3648 H 0.32739 0.29344 0.59637 0.0
H3649 H 0.29106 0.21536 0.59807 0.0
H3650 H 0.31804 0.3149 0.64804 0.0
H3651 H 0.34418 0.3082 0.65456 0.0
H3652 H 0.3403 0.32155 0.62911 0.0
H3653 H 0.27805 0.19818 0.63067 0.0
H3654 H 0.29709 0.21345 0.65568 0.0
H3655 H 0.27047 0.21938 0.64957 0.0
H3656 H 0.33663 0.26645 0.71671 0.0
H3657 H 0.27255 0.28078 0.70358 0.0
H3658 H 0.35464 0.2715 0.66363 0.0
H3659 H 0.3382 0.23915 0.66387 0.0
H3660 H 0.35697 0.25641 0.68839 0.0
H3661 H 0.27697 0.2905 0.64798 0.0
H3662 H 0.25554 0.27991 0.66733 0.0
H3663 H 0.2606 0.25798 0.64713 0.0
C3664 C 0.59823 0.54461 0.27857 0.0
C3665 C 0.61788 0.53728 0.28127 0.0
C3666 C 0.58793 0.54527 0.25728 0.0
C3667 C 0.59779 0.53882 0.23838 0.0
C3668 C 0.61647 0.52955 0.24097 0.0
C3669 C 0.62621 0.52872 0.26247 0.0
C3670 C 0.56772 0.55482 0.25506 0.0
C3671 C 0.62761 0.52274 0.22118 0.0
C3672 C 0.56756 0.53606 0.18068 0.0
C3673 C 0.57894 0.56035 0.17538 0.0
C3674 C 0.57342 0.52863 0.2012 0.0
C3675 C 0.59128 0.54582 0.21648 0.0
C3676 C 0.6029 0.57027 0.21116 0.0
C3677 C 0.59631 0.57734 0.19084 0.0
C3678 C 0.56057 0.5025 0.20653 0.0
C3679 C 0.62239 0.58901 0.22689 0.0
H3680 H 0.59151 0.55087 0.29309 0.0
H3681 H 0.64136 0.52294 0.26447 0.0
H3682 H 0.57398 0.57399 0.25 0.0
H3683 H 0.55392 0.54299 0.24195 0.0
H3684 H 0.55983 0.55534 0.27097 0.0
H3685 H 0.63905 0.51195 0.22569 0.0
H3686 H 0.6141 0.5117 0.20752 0.0
H3687 H 0.63844 0.54005 0.21465 0.0
H3688 H 0.55437 0.52272 0.16864 0.0
H3689 H 0.60488 0.59626 0.18703 0.0
H3690 H 0.5515 0.50324 0.22164 0.0
H3691 H 0.57317 0.49283 0.21029 0.0
H3692 H 0.54743 0.49127 0.19262 0.0
H3693 H 0.61558 0.59297 0.2427 0.0
H3694 H 0.63029 0.60689 0.21973 0.0
H3695 H 0.6364 0.58128 0.23106 0.0
C3696 C 0.32367 0.86393 0.93877 0.0
C3697 C 0.30617 0.86844 0.9503 0.0
C3698 C 0.31891 0.85351 0.91658 0.0
C3699 C 0.29597 0.84706 0.90577 0.0
C3700 C 0.27811 0.85121 0.91733 0.0
C3701 C 0.28349 0.86212 0.93951 0.0
C3702 C 0.33853 0.84971 0.90464 0.0
C3703 C 0.25341 0.84416 0.90627 0.0
C3704 C 0.29403 0.84124 0.8431 0.0
C3705 C 0.29023 0.81576 0.83842 0.0
C3706 C 0.29459 0.85156 0.86493 0.0
C3707 C 0.291 0.83592 0.88231 0.0
C3708 C 0.2856 0.80995 0.87746 0.0
C3709 C 0.28537 0.80017 0.85552 0.0
C3710 C 0.30068 0.87942 0.86954 0.0
C3711 C 0.28155 0.79272 0.89562 0.0
H3712 H 0.34134 0.86909 0.94692 0.0
H3713 H 0.26994 0.86556 0.94841 0.0
H3714 H 0.33408 0.82968 0.89882 0.0
H3715 H 0.34087 0.86004 0.88969 0.0
H3716 H 0.35546 0.85611 0.91543 0.0
H3717 H 0.24146 0.84824 0.91772 0.0
H3718 H 0.2533 0.85447 0.89148 0.0
H3719 H 0.24647 0.82399 0.90028 0.0
H3720 H 0.29776 0.85341 0.82993 0.0
H3721 H 0.28217 0.78041 0.85193 0.0
H3722 H 0.31862 0.88775 0.87836 0.0
H3723 H 0.28855 0.88379 0.88055 0.0
H3724 H 0.30008 0.88844 0.85398 0.0
H3725 H 0.29835 0.79612 0.90598 0.0
H3726 H 0.27448 0.77277 0.88876 0.0
H3727 H 0.26922 0.79646 0.90675 0.0
C3728 C 0.99799 0.57885 0.76038 0.0
C3729 C 1.00144 0.56075 0.77313 0.0
C3730 C 0.992 0.57348 0.73727 0.0
C3731 C 0.98945 0.54955 0.72709 0.0
C3732 C 0.98986 0.5304 0.74039 0.0
C3733 C 0.99608 0.53631 0.7633 0.0
C3734 C 0.99066 0.59402 0.72362 0.0
C3735 C 0.9863 0.50433 0.73023 0.0
C3736 C 0.97724 0.52565 0.66595 0.0
C3737 C 0.99999 0.52825 0.66122 0.0
C3738 C 0.97334 0.53454 0.687 0.0
C3739 C 0.9927 0.54609 0.70331 0.0
C3740 C 0.0158 0.55061 0.69774 0.0
C3741 C 0.01912 0.54157 0.67672 0.0
C3742 C 0.94851 0.52991 0.69211 0.0
C3743 C 0.03702 0.56318 0.71452 0.0
H3744 H 1.0014 0.59755 0.76822 0.0
H3745 H 0.99767 0.52197 0.77337 0.0
H3746 H 1.00781 0.6028 0.71725 0.0
H3747 H 0.9772 0.58658 0.70906 0.0
H3748 H 0.9866 0.60869 0.73379 0.0
H3749 H 0.98358 0.49089 0.74295 0.0
H3750 H 0.97099 0.49768 0.71736 0.0
H3751 H 1.00197 0.50442 0.72198 0.0
H3752 H 0.96252 0.51562 0.65367 0.0
H3753 H 0.03672 0.54407 0.67264 0.0
H3754 H 0.94747 0.54429 0.70492 0.0
H3755 H 0.94158 0.51148 0.69855 0.0
H3756 H 0.93704 0.52953 0.67683 0.0
H3757 H 0.03638 0.581 0.72241 0.0
H3758 H 0.0537 0.56714 0.70685 0.0
H3759 H 0.03716 0.551 0.72792 0.0
C3760 C 0.29438 0.25804 0.45019 0.0
C3761 C 0.31033 0.25075 0.46356 0.0
C3762 C 0.29678 0.26139 0.42749 0.0
C3763 C 0.31601 0.25805 0.4176 0.0
C3764 C 0.33251 0.2512 0.43109 0.0
C3765 C 0.3293 0.24729 0.4537 0.0
C3766 C 0.27839 0.2681 0.41395 0.0
C3767 C 0.35355 0.24793 0.42159 0.0
C3768 C 0.30777 0.24521 0.35357 0.0
C3769 C 0.31838 0.26905 0.34675 0.0
C3770 C 0.30776 0.24121 0.37638 0.0
C3771 C 0.31845 0.26149 0.39315 0.0
C3772 C 0.3299 0.28542 0.38636 0.0
C3773 C 0.32978 0.28888 0.36342 0.0
C3774 C 0.29541 0.21532 0.38254 0.0
C3775 C 0.34155 0.30769 0.4034 0.0
H3776 H 0.27945 0.26049 0.45735 0.0
H3777 H 0.34177 0.24167 0.46372 0.0
H3778 H 0.28659 0.28599 0.40696 0.0
H3779 H 0.2702 0.25362 0.39967 0.0
H3780 H 0.26439 0.26987 0.42394 0.0
H3781 H 0.36526 0.24351 0.4343 0.0
H3782 H 0.34778 0.23269 0.40771 0.0
H3783 H 0.36374 0.2652 0.4146 0.0
H3784 H 0.2989 0.22964 0.34104 0.0
H3785 H 0.33794 0.30743 0.3586 0.0
H3786 H 0.27981 0.21507 0.39095 0.0
H3787 H 0.30708 0.20989 0.39445 0.0
H3788 H 0.28964 0.20117 0.36774 0.0
H3789 H 0.32809 0.31194 0.41264 0.0
H3790 H 0.35145 0.32454 0.39565 0.0
H3791 H 0.35372 0.30351 0.41577 0.0
C3792 C 0.35819 0.61207 0.54427 0.0
C3793 C 0.33478 0.60344 0.53492 0.0
C3794 C 0.37267 0.59803 0.54057 0.0
C3795 C 0.36339 0.57472 0.52739 0.0
C3796 C 0.33997 0.56621 0.51741 0.0
C3797 C 0.32594 0.58075 0.52122 0.0
C3798 C 0.3977 0.60783 0.55124 0.0
C3799 C 0.32953 0.54141 0.50329 0.0
C3800 C 0.4072 0.54687 0.50675 0.0
C3801 C 0.4083 0.53131 0.52328 0.0
C3802 C 0.39218 0.56071 0.50751 0.0
C3803 C 0.37789 0.5587 0.52513 0.0
C3804 C 0.37829 0.54226 0.54137 0.0
C3805 C 0.3936 0.52882 0.5403 0.0
C3806 C 0.39238 0.57825 0.49005 0.0
C3807 C 0.36312 0.53948 0.56029 0.0
H3808 H 0.36518 0.62971 0.5547 0.0
H3809 H 0.30786 0.574 0.5139 0.0
H3810 H 0.40023 0.59536 0.5636 0.0
H3811 H 0.40986 0.60799 0.53847 0.0
H3812 H 0.40262 0.62698 0.55983 0.0
H3813 H 0.31147 0.53816 0.49567 0.0
H3814 H 0.3406 0.54033 0.4898 0.0
H3815 H 0.32905 0.52613 0.51369 0.0
H3816 H 0.41882 0.54904 0.49377 0.0
H3817 H 0.3944 0.51665 0.55299 0.0
H3818 H 0.39962 0.59779 0.49793 0.0
H3819 H 0.37429 0.57501 0.4826 0.0
H3820 H 0.40309 0.57613 0.47651 0.0
H3821 H 0.36843 0.55739 0.57113 0.0
H3822 H 0.36444 0.52473 0.57068 0.0
H3823 H 0.34453 0.5349 0.55367 0.0
C3824 C 0.89245 0.91977 0.55295 0.0
C3825 C 0.871 0.91699 0.54097 0.0
C3826 C 0.91277 0.93979 0.55055 0.0
C3827 C 0.91175 0.95713 0.53535 0.0
C3828 C 0.88986 0.9552 0.52414 0.0
C3829 C 0.86964 0.93524 0.52727 0.0
C3830 C 0.93562 0.94144 0.56325 0.0
C3831 C 0.88806 0.97313 0.50765 0.0
C3832 C 0.96753 0.01359 0.53728 0.0
C3833 C 0.97967 0.00488 0.52173 0.0
C3834 C 0.94478 0.99883 0.54117 0.0
C3835 C 0.934 0.97492 0.52915 0.0
C3836 C 0.94566 0.9668 0.51247 0.0
C3837 C 0.9683 0.98184 0.509 0.0
C3838 C 0.9329 0.00818 0.55903 0.0
C3839 C 0.93477 0.94155 0.49913 0.0
H3840 H 0.89348 0.90583 0.56375 0.0
H3841 H 0.85307 0.93306 0.51791 0.0
H3842 H 0.94703 0.93676 0.55155 0.0
H3843 H 0.94506 0.96071 0.57119 0.0
H3844 H 0.93298 0.92849 0.57638 0.0
H3845 H 0.8696 0.97139 0.50282 0.0
H3846 H 0.89807 0.99264 0.51462 0.0
H3847 H 0.89583 0.96931 0.49239 0.0
H3848 H 0.9762 0.03136 0.5472 0.0
H3849 H 0.97745 0.97508 0.49677 0.0
H3850 H 0.93283 0.99766 0.5737 0.0
H3851 H 0.91439 0.00502 0.55302 0.0
H3852 H 0.94194 0.02835 0.5645 0.0
H3853 H 0.93352 0.92671 0.51025 0.0
H3854 H 0.94513 0.93902 0.4854 0.0
H3855 H 0.91674 0.93892 0.49189 0.0
C3856 C 0.90593 0.10374 0.27952 0.0
C3857 C 0.90024 0.09084 0.25808 0.0
C3858 C 0.89313 0.11838 0.28712 0.0
C3859 C 0.87428 0.11994 0.27293 0.0
C3860 C 0.86898 0.10762 0.25104 0.0
C3861 C 0.8821 0.09331 0.24386 0.0
C3862 C 0.89934 0.13163 0.31046 0.0
C3863 C 0.84903 0.10898 0.23538 0.0
C3864 C 0.82257 0.13345 0.29359 0.0
C3865 C 0.8269 0.15758 0.28765 0.0
C3866 C 0.83871 0.12137 0.29018 0.0
C3867 C 0.85955 0.13396 0.28083 0.0
C3868 C 0.86468 0.15897 0.27631 0.0
C3869 C 0.84819 0.17048 0.27973 0.0
C3870 C 0.8327 0.09462 0.29511 0.0
C3871 C 0.88678 0.17302 0.26645 0.0
H3872 H 0.91999 0.10194 0.29054 0.0
H3873 H 0.8777 0.08352 0.2272 0.0
H3874 H 0.90222 0.15176 0.31005 0.0
H3875 H 0.88457 0.12399 0.32052 0.0
H3876 H 0.9153 0.12963 0.31894 0.0
H3877 H 0.84754 0.09862 0.21874 0.0
H3878 H 0.83225 0.10109 0.24264 0.0
H3879 H 0.85148 0.12868 0.23308 0.0
H3880 H 0.80607 0.12361 0.29975 0.0
H3881 H 0.85159 0.18937 0.27553 0.0
H3882 H 0.84781 0.09202 0.30464 0.0
H3883 H 0.82871 0.08229 0.2792 0.0
H3884 H 0.8173 0.08856 0.30471 0.0
H3885 H 0.90225 0.17053 0.27539 0.0
H3886 H 0.8897 0.19329 0.26705 0.0
H3887 H 0.88554 0.16552 0.24878 0.0
C3888 C 0.72153 0.10718 0.08761 0.0
C3889 C 0.73915 0.10524 0.07483 0.0
C3890 C 0.69848 0.09087 0.08242 0.0
C3891 C 0.69323 0.0721 0.06428 0.0
C3892 C 0.71156 0.06749 0.0539 0.0
C3893 C 0.73449 0.08425 0.05931 0.0
C3894 C 0.67943 0.09595 0.09435 0.0
C3895 C 0.70671 0.04684 0.03526 0.0
C3896 C 0.62862 0.03523 0.0545 0.0
C3897 C 0.6211 0.04944 0.03976 0.0
C3898 C 0.65247 0.04088 0.06119 0.0
C3899 C 0.66893 0.06162 0.0534 0.0
C3900 C 0.66152 0.07487 0.03724 0.0
C3901 C 0.63761 0.06841 0.03043 0.0
C3902 C 0.65974 0.02563 0.07764 0.0
C3903 C 0.67862 0.09708 0.02839 0.0
H3904 H 0.72522 0.12297 0.10011 0.0
H3905 H 0.74819 0.08224 0.04974 0.0
H3906 H 0.66969 0.10443 0.08314 0.0
H3907 H 0.66675 0.07838 0.09873 0.0
H3908 H 0.68661 0.10891 0.10982 0.0
H3909 H 0.72237 0.04142 0.03336 0.0
H3910 H 0.69183 0.03016 0.03814 0.0
H3911 H 0.70202 0.05334 0.01935 0.0
H3912 H 0.61583 0.02008 0.06129 0.0
H3913 H 0.63179 0.07922 0.01887 0.0
H3914 H 0.66122 0.03471 0.0948 0.0
H3915 H 0.67701 0.0242 0.07479 0.0
H3916 H 0.64659 0.00653 0.07666 0.0
H3917 H 0.6865 0.11231 0.04212 0.0
H3918 H 0.67015 0.1043 0.01491 0.0
H3919 H 0.69308 0.09203 0.02179 0.0
C3920 C 0.20615 0.46978 0.25126 0.0
C3921 C 0.21474 0.4958 0.25185 0.0
C3922 C 0.22116 0.45684 0.25682 0.0
C3923 C 0.24531 0.4703 0.26253 0.0
C3924 C 0.25423 0.49643 0.26212 0.0
C3925 C 0.23872 0.50896 0.25702 0.0
C3926 C 0.21104 0.42895 0.25748 0.0
C3927 C 0.28001 0.51118 0.26764 0.0
C3928 C 0.27915 0.44069 0.29903 0.0
C3929 C 0.2889 0.42959 0.28304 0.0
C3930 C 0.26508 0.45439 0.29258 0.0
C3931 C 0.26112 0.45709 0.26969 0.0
C3932 C 0.27162 0.44649 0.2536 0.0
C3933 C 0.28531 0.43262 0.26051 0.0
C3934 C 0.25372 0.46509 0.31009 0.0
C3935 C 0.26782 0.44914 0.2291 0.0
H3936 H 0.18752 0.45965 0.24747 0.0
H3937 H 0.24531 0.5291 0.25733 0.0
H3938 H 0.22022 0.41944 0.24691 0.0
H3939 H 0.21369 0.42443 0.27478 0.0
H3940 H 0.19201 0.42122 0.25172 0.0
H3941 H 0.28428 0.53116 0.26508 0.0
H3942 H 0.28552 0.50993 0.28528 0.0
H3943 H 0.29045 0.50322 0.25715 0.0
H3944 H 0.28176 0.43776 0.3164 0.0
H3945 H 0.29278 0.42358 0.24828 0.0
H3946 H 0.23438 0.45667 0.30667 0.0
H3947 H 0.25844 0.48548 0.30948 0.0
H3948 H 0.25899 0.46168 0.32719 0.0
H3949 H 0.24905 0.43978 0.22289 0.0
H3950 H 0.27834 0.4409 0.21894 0.0
H3951 H 0.27248 0.46912 0.22648 0.0
C3952 C 0.26141 0.42957 0.00732 0.0
C3953 C 0.2595 0.40993 0.02046 0.0
C3954 C 0.24552 0.44251 0.00777 0.0
C3955 C 0.22716 0.43565 0.02162 0.0
C3956 C 0.22482 0.4155 0.03456 0.0
C3957 C 0.24103 0.40295 0.03388 0.0
C3958 C 0.24866 0.46385 0.99369 0.0
C3959 C 0.2054 0.40745 0.04942 0.0
C3960 C 0.2017 0.48527 0.04005 0.0
C3961 C 0.18119 0.47889 0.02527 0.0
C3962 C 0.21661 0.4712 0.03919 0.0
C3963 C 0.21096 0.45017 0.02316 0.0
C3964 C 0.19015 0.44341 0.00837 0.0
C3965 C 0.17554 0.45783 0.0096 0.0
C3966 C 0.23865 0.47913 0.05522 0.0
C3967 C 0.1834 0.42107 0.99111 0.0
H3968 H 0.27555 0.43512 0.99685 0.0
H3969 H 0.2393 0.38774 0.04401 0.0
H3970 H 0.23235 0.46068 0.98262 0.0
H3971 H 0.25216 0.48143 0.0046 0.0
H3972 H 0.26333 0.46633 0.98324 0.0
H3973 H 0.20531 0.39073 0.05763 0.0
H3974 H 0.20738 0.42285 0.06251 0.0
H3975 H 0.18817 0.40326 0.03958 0.0
H3976 H 0.20644 0.50168 0.052 0.0
H3977 H 0.1596 0.45253 0.9983 0.0
H3978 H 0.25421 0.48378 0.0458 0.0
H3979 H 0.2389 0.46356 0.06496 0.0
H3980 H 0.24029 0.49558 0.06701 0.0
H3981 H 0.19713 0.42362 0.97959 0.0
H3982 H 0.16641 0.41797 0.98116 0.0
H3983 H 0.18215 0.40407 -0.00067 0.0
C3984 C 0.88498 0.95069 0.22152 0.0
C3985 C 0.87084 0.96008 0.20822 0.0
C3986 C 0.87532 0.929 0.23156 0.0
C3987 C 0.85083 0.91672 0.22843 0.0
C3988 C 0.8364 0.92583 0.21468 0.0
C3989 C 0.84667 0.94769 0.20472 0.0
C3990 C 0.89124 0.91982 0.24618 0.0
C3991 C 0.81017 0.913 0.21116 0.0
C3992 C 0.82883 0.85019 0.24145 0.0
C3993 C 0.82331 0.85312 0.26323 0.0
C3994 C 0.83763 0.87082 0.22976 0.0
C3995 C 0.84045 0.8947 0.24014 0.0
C3996 C 0.83473 0.8977 0.26219 0.0
C3997 C 0.82637 0.87668 0.27368 0.0
C3998 C 0.84427 0.86709 0.20654 0.0
C3999 C 0.83748 0.92303 0.27359 0.0
H4000 H 0.90349 0.96091 0.225 0.0
H4001 H 0.83584 0.95546 0.19478 0.0
H4002 H 0.88727 0.92118 0.26372 0.0
H4003 H 0.88822 0.89992 0.24096 0.0
H4004 H 0.91006 0.93073 0.24561 0.0
H4005 H 0.80161 0.92186 0.19917 0.0
H4006 H 0.80575 0.89309 0.2049 0.0
H4007 H 0.80277 0.91356 0.22731 0.0
H4008 H 0.82645 0.83171 0.23366 0.0
H4009 H 0.82182 0.87853 0.29054 0.0
H4010 H 0.86332 0.87693 0.20626 0.0
H4011 H 0.83496 0.87524 0.1946 0.0
H4012 H 0.84011 0.84707 0.20067 0.0
H4013 H 0.85618 0.93516 0.27545 0.0
H4014 H 0.83114 0.92192 0.29034 0.0
H4015 H 0.82765 0.93217 0.26323 0.0
C4016 C 0.71651 0.09574 0.75814 0.0
C4017 C 0.69644 0.0932 0.74384 0.0
C4018 C 0.73363 0.11926 0.76464 0.0
C4019 C 0.73074 0.14054 0.75625 0.0
C4020 C 0.7112 0.13784 0.74079 0.0
C4021 C 0.69411 0.11422 0.735 0.0
C4022 C 0.75404 0.12145 0.7814 0.0
C4023 C 0.70789 0.16005 0.731 0.0
C4024 C 0.75472 0.20514 0.7874 0.0
C4025 C 0.77343 0.21685 0.7754 0.0
C4026 C 0.74164 0.17973 0.78232 0.0
C4027 C 0.74717 0.16592 0.76454 0.0
C4028 C 0.76688 0.17731 0.75325 0.0
C4029 C 0.7799 0.20266 0.75893 0.0
C4030 C 0.72118 0.16801 0.79523 0.0
C4031 C 0.77334 0.16322 0.73422 0.0
H4032 H 0.71826 0.07952 0.76517 0.0
H4033 H 0.67869 0.11224 0.72382 0.0
H4034 H 0.77075 0.13346 0.776 0.0
H4035 H 0.75188 0.13037 0.79761 0.0
H4036 H 0.75538 0.10298 0.78405 0.0
H4037 H 0.69284 0.15452 0.71782 0.0
H4038 H 0.70484 0.1726 0.74434 0.0
H4039 H 0.72394 0.17089 0.72375 0.0
H4040 H 0.74996 0.21597 0.80043 0.0
H4041 H 0.79444 0.21163 0.74967 0.0
H4042 H 0.72163 0.15005 0.80053 0.0
H4043 H 0.70456 0.16397 0.78438 0.0
H4044 H 0.72105 0.18035 0.81024 0.0
H4045 H 0.77308 0.14471 0.73865 0.0
H4046 H 0.79094 0.1736 0.72939 0.0
H4047 H 0.76026 0.15999 0.71952 0.0
loop_
_geom_bond_atom_site_label_1
_geom_bond_atom_site_label_2
_geom_bond_distance
_geom_bond_site_symmetry_2
_ccdc_geom_bond_type
Zn0 O3 2.031 . S
Zn0 O5 2.049 . S
Zn0 O10 2.067 1_455 S
Zn1 O2 1.962 . S
Zn1 O4 1.986 . S
Zn1 O6 1.996 . S
Zn1 O9 1.943 . S
O2 Zn1 1.962 . S
O2 C7 1.254 . S
O3 Zn0 2.031 . S
O3 C7 1.269 . S
O4 Zn1 1.986 . S
O4 C11 1.262 . S
O5 Zn0 2.049 . S
O5 C13 1.260 . S
O6 Zn1 1.996 . S
O6 C13 1.257 . S
C7 O2 1.254 . S
C7 O3 1.269 . S
C8 O9 1.249 . S
C8 O10 1.270 1_455 S
O9 Zn1 1.943 . S
O9 C8 1.249 . S
O10 Zn0 2.067 1_655 S
O10 C8 1.270 1_655 S
C11 O4 1.262 . S
C11 O12 1.232 . S
O12 C11 1.232 . S
C13 O5 1.260 . S
C13 O6 1.257 . S
Zn14 O17 2.031 . S
Zn14 O19 2.049 . S
Zn14 O24 2.067 . S
Zn15 O16 1.962 . S
Zn15 O18 1.986 . S
Zn15 O20 1.996 . S
Zn15 O23 1.943 . S
O16 Zn15 1.962 . S
O16 C21 1.254 . S
O17 Zn14 2.031 . S
O17 C21 1.269 . S
O18 Zn15 1.986 . S
O18 C25 1.262 . S
O19 Zn14 2.049 . S
O19 C27 1.260 . S
O20 Zn15 1.996 . S
O20 C27 1.257 . S
C21 O16 1.254 . S
C21 O17 1.269 . S
C22 O23 1.249 . S
C22 O24 1.270 . S
O23 Zn15 1.943 . S
O23 C22 1.249 . S
O24 Zn14 2.067 . S
O24 C22 1.270 . S
C25 O18 1.262 . S
C25 O26 1.232 . S
O26 C25 1.232 . S
C27 O19 1.260 . S
C27 O20 1.257 . S
Zn28 O31 2.031 . S
Zn28 O33 2.049 . S
Zn28 O38 2.067 . S
Zn29 O30 1.962 . S
Zn29 O32 1.986 . S
Zn29 O34 1.996 . S
Zn29 O37 1.943 . S
O30 Zn29 1.962 . S
O30 C35 1.254 . S
O31 Zn28 2.031 . S
O31 C35 1.269 . S
O32 Zn29 1.986 . S
O32 C39 1.262 . S
O33 Zn28 2.049 . S
O33 C41 1.260 . S
O34 Zn29 1.996 . S
O34 C41 1.257 . S
C35 O30 1.254 . S
C35 O31 1.269 . S
C36 O37 1.249 . S
C36 O38 1.270 . S
O37 Zn29 1.943 . S
O37 C36 1.249 . S
O38 Zn28 2.067 . S
O38 C36 1.270 . S
C39 O32 1.262 . S
C39 O40 1.232 . S
O40 C39 1.232 . S
C41 O33 1.260 . S
C41 O34 1.257 . S
Zn42 O45 2.031 . S
Zn42 O47 2.049 . S
Zn42 O52 2.067 . S
Zn43 O44 1.962 . S
Zn43 O46 1.986 . S
Zn43 O48 1.996 . S
Zn43 O51 1.943 . S
O44 Zn43 1.962 . S
O44 C49 1.254 . S
O45 Zn42 2.031 . S
O45 C49 1.269 . S
O46 Zn43 1.986 . S
O46 C53 1.262 . S
O47 Zn42 2.049 . S
O47 C55 1.260 . S
O48 Zn43 1.996 . S
O48 C55 1.257 . S
C49 O44 1.254 . S
C49 O45 1.269 . S
C50 O51 1.249 . S
C50 O52 1.270 . S
O51 Zn43 1.943 . S
O51 C50 1.249 . S
O52 Zn42 2.067 . S
O52 C50 1.270 . S
C53 O46 1.262 . S
C53 O54 1.232 . S
O54 C53 1.232 . S
C55 O47 1.260 . S
C55 O48 1.257 . S
Zn56 O59 2.031 . S
Zn56 O61 2.049 . S
Zn56 O66 2.067 . S
Zn57 O58 1.962 . S
Zn57 O60 1.986 . S
Zn57 O62 1.996 . S
Zn57 O65 1.943 . S
O58 Zn57 1.962 . S
O58 C63 1.254 . S
O59 Zn56 2.031 . S
O59 C63 1.269 . S
O60 Zn57 1.986 . S
O60 C67 1.262 . S
O61 Zn56 2.049 . S
O61 C69 1.260 . S
O62 Zn57 1.996 . S
O62 C69 1.257 . S
C63 O58 1.254 . S
C63 O59 1.269 . S
C64 O65 1.249 . S
C64 O66 1.270 . S
O65 Zn57 1.943 . S
O65 C64 1.249 . S
O66 Zn56 2.067 . S
O66 C64 1.270 . S
C67 O60 1.262 . S
C67 O68 1.232 . S
O68 C67 1.232 . S
C69 O61 1.260 . S
C69 O62 1.257 . S
Zn70 O73 2.031 . S
Zn70 O75 2.049 . S
Zn70 O80 2.067 . S
Zn71 O72 1.962 . S
Zn71 O74 1.986 . S
Zn71 O76 1.996 . S
Zn71 O79 1.943 . S
O72 Zn71 1.962 . S
O72 C77 1.254 . S
O73 Zn70 2.031 . S
O73 C77 1.269 . S
O74 Zn71 1.986 . S
O74 C81 1.262 . S
O75 Zn70 2.049 . S
O75 C83 1.260 . S
O76 Zn71 1.996 . S
O76 C83 1.257 . S
C77 O72 1.254 . S
C77 O73 1.269 . S
C78 O79 1.249 . S
C78 O80 1.270 . S
O79 Zn71 1.943 . S
O79 C78 1.249 . S
O80 Zn70 2.067 . S
O80 C78 1.270 . S
C81 O74 1.262 . S
C81 O82 1.232 . S
O82 C81 1.232 . S
C83 O75 1.260 . S
C83 O76 1.257 . S
Zn84 O87 2.031 . S
Zn84 O89 2.049 . S
Zn84 O94 2.067 . S
Zn85 O86 1.962 . S
Zn85 O88 1.986 . S
Zn85 O90 1.996 . S
Zn85 O93 1.943 . S
O86 Zn85 1.962 . S
O86 C91 1.254 . S
O87 Zn84 2.031 . S
O87 C91 1.269 . S
O88 Zn85 1.986 . S
O88 C95 1.262 . S
O89 Zn84 2.049 . S
O89 C97 1.260 . S
O90 Zn85 1.996 . S
O90 C97 1.257 . S
C91 O86 1.254 . S
C91 O87 1.269 . S
C92 O93 1.249 . S
C92 O94 1.270 . S
O93 Zn85 1.943 . S
O93 C92 1.249 . S
O94 Zn84 2.067 . S
O94 C92 1.270 . S
C95 O88 1.262 . S
C95 O96 1.232 . S
O96 C95 1.232 . S
C97 O89 1.260 . S
C97 O90 1.257 . S
Zn98 O101 2.031 . S
Zn98 O103 2.049 . S
Zn98 O108 2.067 . S
Zn99 O100 1.962 . S
Zn99 O102 1.986 . S
Zn99 O104 1.996 1_455 S
Zn99 O107 1.943 1_455 S
O100 Zn99 1.962 . S
O100 C105 1.254 . S
O101 Zn98 2.031 . S
O101 C105 1.269 1_655 S
O102 Zn99 1.986 . S
O102 C109 1.262 . S
O103 Zn98 2.049 . S
O103 C111 1.260 . S
O104 Zn99 1.996 1_655 S
O104 C111 1.258 . S
C105 O100 1.254 . S
C105 O101 1.269 1_455 S
C106 O107 1.249 . S
C106 O108 1.270 . S
O107 Zn99 1.943 1_655 S
O107 C106 1.249 . S
O108 Zn98 2.067 . S
O108 C106 1.270 . S
C109 O102 1.262 . S
C109 O110 1.232 . S
O110 C109 1.232 . S
C111 O103 1.260 . S
C111 O104 1.258 . S
Zn112 O115 2.031 . S
Zn112 O117 2.049 . S
Zn112 O122 2.067 1_545 S
Zn113 O114 1.962 . S
Zn113 O116 1.986 . S
Zn113 O118 1.996 . S
Zn113 O121 1.943 . S
O114 Zn113 1.962 . S
O114 C119 1.254 . S
O115 Zn112 2.031 . S
O115 C119 1.269 . S
O116 Zn113 1.986 . S
O116 C123 1.262 . S
O117 Zn112 2.049 . S
O117 C125 1.260 . S
O118 Zn113 1.996 . S
O118 C125 1.257 . S
C119 O114 1.254 . S
C119 O115 1.269 . S
C120 O121 1.249 1_565 S
C120 O122 1.270 . S
O121 Zn113 1.943 . S
O121 C120 1.249 1_545 S
O122 Zn112 2.067 1_565 S
O122 C120 1.270 . S
C123 O116 1.262 . S
C123 O124 1.232 . S
O124 C123 1.232 . S
C125 O117 1.260 . S
C125 O118 1.257 . S
Zn126 O129 2.031 . S
Zn126 O131 2.049 . S
Zn126 O136 2.067 . S
Zn127 O128 1.962 . S
Zn127 O130 1.986 . S
Zn127 O132 1.996 . S
Zn127 O135 1.943 . S
O128 Zn127 1.962 . S
O128 C133 1.254 . S
O129 Zn126 2.031 . S
O129 C133 1.269 . S
O130 Zn127 1.986 . S
O130 C137 1.262 . S
O131 Zn126 2.049 . S
O131 C139 1.260 . S
O132 Zn127 1.996 . S
O132 C139 1.257 . S
C133 O128 1.254 . S
C133 O129 1.269 . S
C134 O135 1.249 . S
C134 O136 1.270 . S
O135 Zn127 1.943 . S
O135 C134 1.249 . S
O136 Zn126 2.067 . S
O136 C134 1.270 . S
C137 O130 1.262 . S
C137 O138 1.232 . S
O138 C137 1.232 . S
C139 O131 1.260 . S
C139 O132 1.257 . S
Zn140 O143 2.031 . S
Zn140 O145 2.049 . S
Zn140 O150 2.067 . S
Zn141 O142 1.962 . S
Zn141 O144 1.986 . S
Zn141 O146 1.996 . S
Zn141 O149 1.943 . S
O142 Zn141 1.962 . S
O142 C147 1.254 . S
O143 Zn140 2.031 . S
O143 C147 1.269 . S
O144 Zn141 1.986 . S
O144 C151 1.262 . S
O145 Zn140 2.049 . S
O145 C153 1.260 . S
O146 Zn141 1.996 . S
O146 C153 1.257 . S
C147 O142 1.254 . S
C147 O143 1.269 . S
C148 O149 1.249 . S
C148 O150 1.270 . S
O149 Zn141 1.943 . S
O149 C148 1.249 . S
O150 Zn140 2.067 . S
O150 C148 1.270 . S
C151 O144 1.262 . S
C151 O152 1.232 . S
O152 C151 1.232 . S
C153 O145 1.260 . S
C153 O146 1.257 . S
Zn154 O157 2.031 1_554 S
Zn154 O159 2.049 . S
Zn154 O164 2.067 . S
Zn155 O156 1.962 . S
Zn155 O158 1.986 1_556 S
Zn155 O160 1.996 1_556 S
Zn155 O163 1.943 1_556 S
O156 Zn155 1.962 . S
O156 C161 1.254 . S
O157 Zn154 2.031 1_556 S
O157 C161 1.269 . S
O158 Zn155 1.986 1_554 S
O158 C165 1.262 1_554 S
O159 Zn154 2.049 . S
O159 C167 1.260 . S
O160 Zn155 1.996 1_554 S
O160 C167 1.257 . S
C161 O156 1.254 . S
C161 O157 1.269 . S
C162 O163 1.249 . S
C162 O164 1.270 . S
O163 Zn155 1.943 1_554 S
O163 C162 1.249 . S
O164 Zn154 2.067 . S
O164 C162 1.270 . S
C165 O158 1.262 1_556 S
C165 O166 1.232 . S
O166 C165 1.232 . S
C167 O159 1.260 . S
C167 O160 1.257 . S
Zn168 O171 2.031 . S
Zn168 O173 2.049 . S
Zn168 O178 2.067 . S
Zn169 O170 1.962 . S
Zn169 O172 1.986 . S
Zn169 O174 1.996 . S
Zn169 O177 1.943 . S
O170 Zn169 1.962 . S
O170 C175 1.254 1_554 S
O171 Zn168 2.031 . S
O171 C175 1.269 1_554 S
O172 Zn169 1.986 . S
O172 C179 1.262 . S
O173 Zn168 2.049 . S
O173 C181 1.260 . S
O174 Zn169 1.996 . S
O174 C181 1.257 . S
C175 O170 1.254 1_556 S
C175 O171 1.269 1_556 S
C176 O177 1.249 . S
C176 O178 1.270 . S
O177 Zn169 1.943 . S
O177 C176 1.249 . S
O178 Zn168 2.067 . S
O178 C176 1.270 . S
C179 O172 1.262 . S
C179 O180 1.232 . S
O180 C179 1.232 . S
C181 O173 1.260 . S
C181 O174 1.257 . S
Zn182 O185 2.031 . S
Zn182 O187 2.049 . S
Zn182 O192 2.067 . S
Zn183 O184 1.962 . S
Zn183 O186 1.986 . S
Zn183 O188 1.996 . S
Zn183 O191 1.943 . S
O184 Zn183 1.962 . S
O184 C189 1.254 . S
O185 Zn182 2.031 . S
O185 C189 1.269 . S
O186 Zn183 1.986 . S
O186 C193 1.262 . S
O187 Zn182 2.049 . S
O187 C195 1.260 . S
O188 Zn183 1.996 . S
O188 C195 1.257 . S
C189 O184 1.254 . S
C189 O185 1.269 . S
C190 O191 1.249 . S
C190 O192 1.270 . S
O191 Zn183 1.943 . S
O191 C190 1.249 . S
O192 Zn182 2.067 . S
O192 C190 1.270 . S
C193 O186 1.262 . S
C193 O194 1.232 . S
O194 C193 1.232 . S
C195 O187 1.260 . S
C195 O188 1.257 . S
Zn196 O199 2.031 . S
Zn196 O201 2.049 . S
Zn196 O206 2.067 . S
Zn197 O198 1.962 . S
Zn197 O200 1.986 . S
Zn197 O202 1.996 . S
Zn197 O205 1.943 . S
O198 Zn197 1.962 . S
O198 C203 1.254 . S
O199 Zn196 2.031 . S
O199 C203 1.269 . S
O200 Zn197 1.986 . S
O200 C207 1.262 . S
O201 Zn196 2.049 . S
O201 C209 1.260 . S
O202 Zn197 1.996 . S
O202 C209 1.257 . S
C203 O198 1.254 . S
C203 O199 1.269 . S
C204 O205 1.249 . S
C204 O206 1.270 . S
O205 Zn197 1.943 . S
O205 C204 1.249 . S
O206 Zn196 2.067 . S
O206 C204 1.270 . S
C207 O200 1.262 . S
C207 O208 1.232 . S
O208 C207 1.232 . S
C209 O201 1.260 . S
C209 O202 1.257 . S
Zn210 O213 2.031 . S
Zn210 O215 2.049 . S
Zn210 O220 2.067 . S
Zn211 O212 1.962 . S
Zn211 O214 1.986 . S
Zn211 O216 1.996 . S
Zn211 O219 1.943 . S
O212 Zn211 1.962 . S
O212 C217 1.254 . S
O213 Zn210 2.031 . S
O213 C217 1.269 . S
O214 Zn211 1.986 . S
O214 C221 1.262 . S
O215 Zn210 2.049 . S
O215 C223 1.260 . S
O216 Zn211 1.996 . S
O216 C223 1.257 . S
C217 O212 1.254 . S
C217 O213 1.269 . S
C218 O219 1.249 . S
C218 O220 1.270 . S
O219 Zn211 1.943 . S
O219 C218 1.249 . S
O220 Zn210 2.067 . S
O220 C218 1.270 . S
C221 O214 1.262 . S
C221 O222 1.232 . S
O222 C221 1.232 . S
C223 O215 1.260 . S
C223 O216 1.257 . S
Zn224 O227 2.031 . S
Zn224 O229 2.049 . S
Zn224 O234 2.067 . S
Zn225 O226 1.962 . S
Zn225 O228 1.986 . S
Zn225 O230 1.996 . S
Zn225 O233 1.943 1_545 S
O226 Zn225 1.962 . S
O226 C231 1.254 . S
O227 Zn224 2.031 . S
O227 C231 1.269 1_565 S
O228 Zn225 1.986 . S
O228 C235 1.262 . S
O229 Zn224 2.049 . S
O229 C237 1.260 1_565 S
O230 Zn225 1.996 . S
O230 C237 1.257 . S
C231 O226 1.254 . S
C231 O227 1.269 1_545 S
C232 O233 1.249 . S
C232 O234 1.270 . S
O233 Zn225 1.943 1_565 S
O233 C232 1.249 . S
O234 Zn224 2.067 . S
O234 C232 1.270 . S
C235 O228 1.262 . S
C235 O236 1.232 . S
O236 C235 1.232 . S
C237 O229 1.260 1_545 S
C237 O230 1.257 . S
Zn238 O241 2.031 . S
Zn238 O243 2.049 . S
Zn238 O248 2.067 . S
Zn239 O240 1.962 . S
Zn239 O242 1.986 . S
Zn239 O244 1.996 . S
Zn239 O247 1.943 . S
O240 Zn239 1.962 . S
O240 C245 1.254 . S
O241 Zn238 2.031 . S
O241 C245 1.269 . S
O242 Zn239 1.986 . S
O242 C249 1.262 . S
O243 Zn238 2.049 . S
O243 C251 1.260 . S
O244 Zn239 1.996 . S
O244 C251 1.257 . S
C245 O240 1.254 . S
C245 O241 1.269 . S
C246 O247 1.249 . S
C246 O248 1.270 . S
O247 Zn239 1.943 . S
O247 C246 1.249 . S
O248 Zn238 2.067 . S
O248 C246 1.270 . S
C249 O242 1.262 . S
C249 O250 1.232 . S
O250 C249 1.232 . S
C251 O243 1.260 . S
C251 O244 1.257 . S
Zn252 O255 2.031 . S
Zn252 O257 2.049 . S
Zn252 O262 2.067 . S
Zn253 O254 1.962 . S
Zn253 O256 1.986 . S
Zn253 O258 1.996 . S
Zn253 O261 1.943 . S
O254 Zn253 1.962 . S
O254 C259 1.254 . S
O255 Zn252 2.031 . S
O255 C259 1.269 . S
O256 Zn253 1.986 . S
O256 C263 1.262 . S
O257 Zn252 2.049 . S
O257 C265 1.260 . S
O258 Zn253 1.996 . S
O258 C265 1.257 . S
C259 O254 1.254 . S
C259 O255 1.269 . S
C260 O261 1.249 . S
C260 O262 1.270 . S
O261 Zn253 1.943 . S
O261 C260 1.249 . S
O262 Zn252 2.067 . S
O262 C260 1.270 . S
C263 O256 1.262 . S
C263 O264 1.232 . S
O264 C263 1.232 . S
C265 O257 1.260 . S
C265 O258 1.257 . S
Zn266 O269 2.031 . S
Zn266 O271 2.049 . S
Zn266 O276 2.067 . S
Zn267 O268 1.962 . S
Zn267 O270 1.952 1_545 S
Zn267 O272 1.996 . S
Zn267 O275 1.943 . S
O268 Zn267 1.962 . S
O268 C273 1.254 . S
O269 Zn266 2.031 . S
O269 C273 1.269 . S
O270 Zn267 1.952 1_565 S
O270 C277 1.277 . S
O271 Zn266 2.049 . S
O271 C279 1.260 . S
O272 Zn267 1.996 . S
O272 C279 1.257 . S
C273 O268 1.254 . S
C273 O269 1.269 . S
C274 O275 1.249 . S
C274 O276 1.270 . S
O275 Zn267 1.943 . S
O275 C274 1.249 . S
O276 Zn266 2.067 . S
O276 C274 1.270 . S
C277 O270 1.277 . S
C277 O278 1.232 1_565 S
O278 C277 1.232 1_545 S
C279 O271 1.260 . S
C279 O272 1.257 . S
Zn280 O283 2.031 . S
Zn280 O285 2.049 . S
Zn280 O290 2.067 . S
Zn281 O282 1.962 . S
Zn281 O284 1.986 . S
Zn281 O286 1.996 . S
Zn281 O289 1.943 . S
O282 Zn281 1.962 . S
O282 C287 1.254 1_554 S
O283 Zn280 2.031 . S
O283 C287 1.269 1_554 S
O284 Zn281 1.986 . S
O284 C291 1.262 . S
O285 Zn280 2.049 . S
O285 C293 1.260 . S
O286 Zn281 1.996 . S
O286 C293 1.257 . S
C287 O282 1.254 1_556 S
C287 O283 1.269 1_556 S
C288 O289 1.249 . S
C288 O290 1.270 . S
O289 Zn281 1.943 . S
O289 C288 1.249 . S
O290 Zn280 2.067 . S
O290 C288 1.270 . S
C291 O284 1.262 . S
C291 O292 1.232 . S
O292 C291 1.232 . S
C293 O285 1.260 . S
C293 O286 1.257 . S
Zn294 O297 2.031 . S
Zn294 O299 2.049 . S
Zn294 O304 2.067 . S
Zn295 O296 1.962 . S
Zn295 O298 1.986 . S
Zn295 O300 1.996 . S
Zn295 O303 1.943 . S
O296 Zn295 1.962 . S
O296 C301 1.254 . S
O297 Zn294 2.031 . S
O297 C301 1.269 . S
O298 Zn295 1.986 . S
O298 C305 1.262 . S
O299 Zn294 2.049 . S
O299 C307 1.260 . S
O300 Zn295 1.996 . S
O300 C307 1.257 . S
C301 O296 1.254 . S
C301 O297 1.269 . S
C302 O303 1.249 . S
C302 O304 1.270 . S
O303 Zn295 1.943 . S
O303 C302 1.249 . S
O304 Zn294 2.067 . S
O304 C302 1.270 . S
C305 O298 1.262 . S
C305 O306 1.232 . S
O306 C305 1.232 . S
C307 O299 1.260 . S
C307 O300 1.257 . S
Zn308 O311 2.031 . S
Zn308 O313 2.049 . S
Zn308 O318 2.067 . S
Zn309 O310 1.962 . S
Zn309 O312 1.986 . S
Zn309 O314 1.996 . S
Zn309 O317 1.943 . S
O310 Zn309 1.962 . S
O310 C315 1.254 . S
O311 Zn308 2.031 . S
O311 C315 1.269 . S
O312 Zn309 1.986 . S
O312 C319 1.262 . S
O313 Zn308 2.049 . S
O313 C321 1.260 . S
O314 Zn309 1.996 . S
O314 C321 1.257 . S
C315 O310 1.254 . S
C315 O311 1.269 . S
C316 O317 1.249 . S
C316 O318 1.270 . S
O317 Zn309 1.943 . S
O317 C316 1.249 . S
O318 Zn308 2.067 . S
O318 C316 1.270 . S
C319 O312 1.262 . S
C319 O320 1.232 . S
O320 C319 1.232 . S
C321 O313 1.260 . S
C321 O314 1.257 . S
Zn322 O325 2.031 . S
Zn322 O327 2.049 . S
Zn322 O332 2.067 . S
Zn323 O324 1.962 . S
Zn323 O326 1.986 . S
Zn323 O328 1.996 . S
Zn323 O331 1.943 . S
O324 Zn323 1.962 . S
O324 C329 1.254 . S
O325 Zn322 2.031 . S
O325 C329 1.269 . S
O326 Zn323 1.986 . S
O326 C333 1.262 . S
O327 Zn322 2.049 . S
O327 C335 1.260 . S
O328 Zn323 1.996 . S
O328 C335 1.257 . S
C329 O324 1.254 . S
C329 O325 1.269 . S
C330 O331 1.249 . S
C330 O332 1.270 . S
O331 Zn323 1.943 . S
O331 C330 1.249 . S
O332 Zn322 2.067 . S
O332 C330 1.270 . S
C333 O326 1.262 . S
C333 O334 1.232 . S
O334 C333 1.232 . S
C335 O327 1.260 . S
C335 O328 1.257 . S
Tb336 C345 2.764 . S
Tb336 O346 2.325 . S
Tb336 O349 2.303 . S
Tb336 O353 2.322 . S
Tb336 O354 2.349 . S
Tb336 O357 2.415 . S
Tb336 O358 2.399 . S
Tb337 O347 2.322 1_545 S
Tb337 O348 2.349 1_554 S
Tb337 O350 2.415 1_455 S
Tb337 O351 2.399 1_454 S
Tb337 O352 2.325 . S
Tb337 O355 2.303 . S
Tb337 C366 2.764 1_455 S
C338 O354 1.261 . S
C338 O355 1.257 . S
C339 C342 1.358 . S
C339 C343 1.332 . S
C339 C345 1.504 . S
C340 C341 1.373 . S
C340 C344 1.308 . S
C341 C340 1.373 . S
C341 C342 1.429 . S
C341 H368 0.932 . S
C342 C339 1.358 . S
C342 C341 1.429 . S
C342 H369 0.930 . S
C343 C339 1.332 . S
C343 C344 1.394 . S
C343 H370 0.932 . S
C344 C340 1.308 . S
C344 C343 1.394 . S
C344 H371 0.929 . S
C345 Tb336 2.764 . S
C345 C339 1.504 . S
C345 O357 1.239 . S
C345 O358 1.263 . S
O346 Tb336 2.325 . S
O346 C356 1.236 1_545 S
O347 Tb337 2.322 1_565 S
O347 C356 1.257 . S
O348 Tb337 2.349 1_556 S
O348 C359 1.261 . S
O349 Tb336 2.303 . S
O349 C359 1.257 1_554 S
O350 Tb337 2.415 1_655 S
O350 C366 1.239 . S
O351 Tb337 2.399 1_656 S
O351 C366 1.263 1_556 S
O352 Tb337 2.325 . S
O352 C367 1.236 . S
O353 Tb336 2.322 . S
O353 C367 1.257 . S
O354 Tb336 2.349 . S
O354 C338 1.261 . S
O355 Tb337 2.303 . S
O355 C338 1.257 . S
C356 O346 1.236 1_565 S
C356 O347 1.257 . S
O357 Tb336 2.415 . S
O357 C345 1.239 . S
O358 Tb336 2.399 . S
O358 C345 1.263 . S
C359 O348 1.261 . S
C359 O349 1.257 1_556 S
C360 C363 1.358 1_554 S
C360 C364 1.332 . S
C360 C366 1.504 . S
C361 C362 1.392 . S
C361 C365 1.287 1_556 S
C362 C361 1.392 . S
C362 C363 1.429 . S
C362 H372 0.932 . S
C363 C360 1.358 1_556 S
C363 C362 1.429 . S
C363 H373 0.930 . S
C364 C360 1.332 . S
C364 C365 1.394 . S
C364 H374 0.932 . S
C365 C361 1.287 1_554 S
C365 C364 1.394 . S
C365 H375 0.929 . S
C366 Tb337 2.764 1_655 S
C366 O350 1.239 . S
C366 O351 1.263 1_554 S
C366 C360 1.504 . S
C367 O352 1.236 . S
C367 O353 1.257 . S
H368 C341 0.932 . S
H369 C342 0.930 . S
H370 C343 0.932 . S
H371 C344 0.929 . S
H372 C362 0.932 . S
H373 C363 0.930 . S
H374 C364 0.932 . S
H375 C365 0.929 . S
Tb376 C385 2.764 . S
Tb376 O386 2.325 . S
Tb376 O389 2.303 . S
Tb376 O393 2.322 . S
Tb376 O394 2.349 . S
Tb376 O397 2.415 . S
Tb376 O398 2.399 . S
Tb377 O387 2.322 . S
Tb377 O388 2.349 . S
Tb377 O390 2.415 . S
Tb377 O391 2.399 . S
Tb377 O392 2.325 . S
Tb377 O395 2.303 . S
Tb377 C406 2.764 . S
C378 O394 1.261 . S
C378 O395 1.257 . S
C379 C382 1.358 . S
C379 C383 1.332 . S
C379 C385 1.504 . S
C380 C381 1.373 . S
C380 C384 1.308 . S
C381 C380 1.373 . S
C381 C382 1.429 . S
C381 H408 0.932 . S
C382 C379 1.358 . S
C382 C381 1.429 . S
C382 H409 0.930 . S
C383 C379 1.332 . S
C383 C384 1.394 . S
C383 H410 0.932 . S
C384 C380 1.308 . S
C384 C383 1.394 . S
C384 H411 0.929 . S
C385 Tb376 2.764 . S
C385 C379 1.504 . S
C385 O397 1.239 . S
C385 O398 1.263 . S
O386 Tb376 2.325 . S
O386 C396 1.236 . S
O387 Tb377 2.322 . S
O387 C396 1.257 . S
O388 Tb377 2.349 . S
O388 C399 1.261 . S
O389 Tb376 2.303 . S
O389 C399 1.257 . S
O390 Tb377 2.415 . S
O390 C406 1.239 . S
O391 Tb377 2.399 . S
O391 C406 1.263 . S
O392 Tb377 2.325 . S
O392 C407 1.236 . S
O393 Tb376 2.322 . S
O393 C407 1.257 . S
O394 Tb376 2.349 . S
O394 C378 1.261 . S
O395 Tb377 2.303 . S
O395 C378 1.257 . S
C396 O386 1.236 . S
C396 O387 1.257 . S
O397 Tb376 2.415 . S
O397 C385 1.239 . S
O398 Tb376 2.399 . S
O398 C385 1.263 . S
C399 O388 1.261 . S
C399 O389 1.257 . S
C400 C403 1.358 . S
C400 C404 1.332 . S
C400 C406 1.504 . S
C401 C402 1.373 . S
C401 C405 1.308 . S
C402 C401 1.373 . S
C402 C403 1.429 . S
C402 H412 0.932 . S
C403 C400 1.358 . S
C403 C402 1.429 . S
C403 H413 0.930 . S
C404 C400 1.332 . S
C404 C405 1.394 . S
C404 H414 0.932 . S
C405 C401 1.308 . S
C405 C404 1.394 . S
C405 H415 0.929 . S
C406 Tb377 2.764 . S
C406 O390 1.239 . S
C406 O391 1.263 . S
C406 C400 1.504 . S
C407 O392 1.236 . S
C407 O393 1.257 . S
H408 C381 0.932 . S
H409 C382 0.930 . S
H410 C383 0.932 . S
H411 C384 0.929 . S
H412 C402 0.932 . S
H413 C403 0.930 . S
H414 C404 0.932 . S
H415 C405 0.929 . S
Tb416 C425 2.764 . S
Tb416 O426 2.325 . S
Tb416 O429 2.303 . S
Tb416 O433 2.322 1_545 S
Tb416 O434 2.349 . S
Tb416 O437 2.415 . S
Tb416 O438 2.399 . S
Tb417 O427 2.322 . S
Tb417 O428 2.349 . S
Tb417 O430 2.415 . S
Tb417 O431 2.399 . S
Tb417 O432 2.325 1_545 S
Tb417 O435 2.303 . S
Tb417 C446 2.764 . S
C418 O434 1.261 . S
C418 O435 1.257 . S
C419 C422 1.358 . S
C419 C423 1.332 . S
C419 C425 1.504 . S
C420 C421 1.373 . S
C420 C424 1.308 . S
C421 C420 1.373 . S
C421 C422 1.429 . S
C421 H448 0.932 . S
C422 C419 1.358 . S
C422 C421 1.429 . S
C422 H449 0.930 . S
C423 C419 1.332 . S
C423 C424 1.394 . S
C423 H450 0.932 . S
C424 C420 1.308 . S
C424 C423 1.394 . S
C424 H451 0.929 . S
C425 Tb416 2.764 . S
C425 C419 1.504 . S
C425 O437 1.239 . S
C425 O438 1.263 . S
O426 Tb416 2.325 . S
O426 C436 1.236 . S
O427 Tb417 2.322 . S
O427 C436 1.257 . S
O428 Tb417 2.349 . S
O428 C439 1.261 . S
O429 Tb416 2.303 . S
O429 C439 1.257 . S
O430 Tb417 2.415 . S
O430 C446 1.239 . S
O431 Tb417 2.399 . S
O431 C446 1.263 . S
O432 Tb417 2.325 1_565 S
O432 C447 1.236 . S
O433 Tb416 2.322 1_565 S
O433 C447 1.257 . S
O434 Tb416 2.349 . S
O434 C418 1.261 . S
O435 Tb417 2.303 . S
O435 C418 1.257 . S
C436 O426 1.236 . S
C436 O427 1.257 . S
O437 Tb416 2.415 . S
O437 C425 1.239 . S
O438 Tb416 2.399 . S
O438 C425 1.263 . S
C439 O428 1.261 . S
C439 O429 1.257 . S
C440 C443 1.358 1_565 S
C440 C444 1.332 . S
C440 C446 1.504 1_565 S
C441 C442 1.373 . S
C441 C445 1.308 . S
C442 C441 1.373 . S
C442 C443 1.407 1_565 S
C442 H452 0.932 . S
C443 C440 1.358 1_545 S
C443 C442 1.407 1_545 S
C443 H453 0.953 . S
C444 C440 1.332 . S
C444 C445 1.394 . S
C444 H454 0.932 . S
C445 C441 1.308 . S
C445 C444 1.394 . S
C445 H455 0.929 . S
C446 Tb417 2.764 . S
C446 O430 1.239 . S
C446 O431 1.263 . S
C446 C440 1.504 1_545 S
C447 O432 1.236 . S
C447 O433 1.257 . S
H448 C421 0.932 . S
H449 C422 0.930 . S
H450 C423 0.932 . S
H451 C424 0.929 . S
H452 C442 0.932 . S
H453 C443 0.953 . S
H454 C444 0.932 . S
H455 C445 0.929 . S
Tb456 C465 2.764 . S
Tb456 O466 2.325 . S
Tb456 O469 2.303 . S
Tb456 O473 2.322 . S
Tb456 O474 2.349 . S
Tb456 O477 2.415 . S
Tb456 O478 2.399 . S
Tb457 O467 2.322 . S
Tb457 O468 2.349 . S
Tb457 O470 2.415 . S
Tb457 O471 2.399 . S
Tb457 O472 2.325 . S
Tb457 O475 2.303 . S
Tb457 C486 2.764 . S
C458 O474 1.261 . S
C458 O475 1.257 . S
C459 C462 1.358 . S
C459 C463 1.332 . S
C459 C465 1.504 . S
C460 C461 1.373 . S
C460 C464 1.308 . S
C461 C460 1.373 . S
C461 C462 1.429 . S
C461 H488 0.932 . S
C462 C459 1.358 . S
C462 C461 1.429 . S
C462 H489 0.930 . S
C463 C459 1.332 . S
C463 C464 1.394 . S
C463 H490 0.932 . S
C464 C460 1.308 . S
C464 C463 1.394 . S
C464 H491 0.929 . S
C465 Tb456 2.764 . S
C465 C459 1.504 . S
C465 O477 1.239 . S
C465 O478 1.263 . S
O466 Tb456 2.325 . S
O466 C476 1.236 . S
O467 Tb457 2.322 . S
O467 C476 1.257 . S
O468 Tb457 2.349 . S
O468 C479 1.261 . S
O469 Tb456 2.303 . S
O469 C479 1.257 . S
O470 Tb457 2.415 . S
O470 C486 1.239 . S
O471 Tb457 2.399 . S
O471 C486 1.263 . S
O472 Tb457 2.325 . S
O472 C487 1.236 . S
O473 Tb456 2.322 . S
O473 C487 1.257 . S
O474 Tb456 2.349 . S
O474 C458 1.261 . S
O475 Tb457 2.303 . S
O475 C458 1.257 . S
C476 O466 1.236 . S
C476 O467 1.257 . S
O477 Tb456 2.415 . S
O477 C465 1.239 . S
O478 Tb456 2.399 . S
O478 C465 1.263 . S
C479 O468 1.261 . S
C479 O469 1.257 . S
C480 C483 1.358 . S
C480 C484 1.332 . S
C480 C486 1.504 . S
C481 C482 1.373 . S
C481 C485 1.308 . S
C482 C481 1.373 . S
C482 C483 1.429 . S
C482 H492 0.932 . S
C483 C480 1.358 . S
C483 C482 1.429 . S
C483 H493 0.930 . S
C484 C480 1.332 . S
C484 C485 1.394 . S
C484 H494 0.932 . S
C485 C481 1.308 . S
C485 C484 1.394 . S
C485 H495 0.929 . S
C486 Tb457 2.764 . S
C486 O470 1.239 . S
C486 O471 1.263 . S
C486 C480 1.504 . S
C487 O472 1.236 . S
C487 O473 1.257 . S
H488 C461 0.932 . S
H489 C462 0.930 . S
H490 C463 0.932 . S
H491 C464 0.929 . S
H492 C482 0.932 . S
H493 C483 0.930 . S
H494 C484 0.932 . S
H495 C485 0.929 . S
Tb496 C505 2.764 . S
Tb496 O506 2.325 . S
Tb496 O509 2.303 . S
Tb496 O513 2.322 . S
Tb496 O514 2.349 . S
Tb496 O517 2.415 . S
Tb496 O518 2.399 . S
Tb497 O507 2.322 1_545 S
Tb497 O508 2.349 . S
Tb497 O510 2.415 . S
Tb497 O511 2.399 . S
Tb497 O512 2.325 . S
Tb497 O515 2.303 . S
Tb497 C526 2.764 . S
C498 O514 1.262 1_655 S
C498 O515 1.241 1_655 S
C499 C502 1.358 . S
C499 C503 1.332 . S
C499 C505 1.504 . S
C500 C501 1.373 . S
C500 C504 1.308 . S
C501 C500 1.373 . S
C501 C502 1.429 . S
C501 H528 0.932 . S
C502 C499 1.358 . S
C502 C501 1.429 . S
C502 H529 0.930 . S
C503 C499 1.332 . S
C503 C504 1.394 . S
C503 H530 0.932 . S
C504 C500 1.308 . S
C504 C503 1.394 . S
C504 H531 0.929 . S
C505 Tb496 2.764 . S
C505 C499 1.504 . S
C505 O517 1.239 . S
C505 O518 1.263 . S
O506 Tb496 2.325 . S
O506 C516 1.236 1_545 S
O507 Tb497 2.322 1_565 S
O507 C516 1.257 . S
O508 Tb497 2.349 . S
O508 C519 1.261 . S
O509 Tb496 2.303 . S
O509 C519 1.257 . S
O510 Tb497 2.415 . S
O510 C526 1.239 . S
O511 Tb497 2.399 . S
O511 C526 1.263 . S
O512 Tb497 2.325 . S
O512 C527 1.236 . S
O513 Tb496 2.322 . S
O513 C527 1.257 . S
O514 Tb496 2.349 . S
O514 C498 1.262 1_455 S
O515 Tb497 2.303 . S
O515 C498 1.241 1_455 S
C516 O506 1.236 1_565 S
C516 O507 1.257 . S
O517 Tb496 2.415 . S
O517 C505 1.239 . S
O518 Tb496 2.399 . S
O518 C505 1.263 . S
C519 O508 1.261 . S
C519 O509 1.257 . S
C520 C523 1.358 . S
C520 C524 1.332 1_455 S
C520 C526 1.504 . S
C521 C522 1.373 . S
C521 C525 1.308 1_455 S
C522 C521 1.373 . S
C522 C523 1.429 . S
C522 H532 0.932 . S
C523 C520 1.358 . S
C523 C522 1.429 . S
C523 H533 0.930 . S
C524 C520 1.332 1_655 S
C524 C525 1.394 . S
C524 H534 0.932 . S
C525 C521 1.308 1_655 S
C525 C524 1.394 . S
C525 H535 0.929 . S
C526 Tb497 2.764 . S
C526 O510 1.239 . S
C526 O511 1.263 . S
C526 C520 1.504 . S
C527 O512 1.236 . S
C527 O513 1.257 . S
H528 C501 0.932 . S
H529 C502 0.930 . S
H530 C503 0.932 . S
H531 C504 0.929 . S
H532 C522 0.932 . S
H533 C523 0.930 . S
H534 C524 0.932 . S
H535 C525 0.929 . S
Tb536 C545 2.764 . S
Tb536 O546 2.325 . S
Tb536 O549 2.303 . S
Tb536 O553 2.322 . S
Tb536 O554 2.349 . S
Tb536 O557 2.415 . S
Tb536 O558 2.399 . S
Tb537 O547 2.322 . S
Tb537 O548 2.349 . S
Tb537 O550 2.415 . S
Tb537 O551 2.399 . S
Tb537 O552 2.325 . S
Tb537 O555 2.303 . S
Tb537 C566 2.764 . S
C538 O554 1.261 . S
C538 O555 1.257 . S
C539 C542 1.358 . S
C539 C543 1.332 . S
C539 C545 1.504 . S
C540 C541 1.373 . S
C540 C544 1.308 . S
C541 C540 1.373 . S
C541 C542 1.429 . S
C541 H568 0.932 . S
C542 C539 1.358 . S
C542 C541 1.429 . S
C542 H569 0.930 . S
C543 C539 1.332 . S
C543 C544 1.394 . S
C543 H570 0.932 . S
C544 C540 1.308 . S
C544 C543 1.394 . S
C544 H571 0.929 . S
C545 Tb536 2.764 . S
C545 C539 1.504 . S
C545 O557 1.239 . S
C545 O558 1.263 . S
O546 Tb536 2.325 . S
O546 C556 1.236 . S
O547 Tb537 2.322 . S
O547 C556 1.257 . S
O548 Tb537 2.349 . S
O548 C559 1.261 . S
O549 Tb536 2.303 . S
O549 C559 1.257 . S
O550 Tb537 2.415 . S
O550 C566 1.239 . S
O551 Tb537 2.399 . S
O551 C566 1.263 . S
O552 Tb537 2.325 . S
O552 C567 1.236 . S
O553 Tb536 2.322 . S
O553 C567 1.257 . S
O554 Tb536 2.349 . S
O554 C538 1.261 . S
O555 Tb537 2.303 . S
O555 C538 1.257 . S
C556 O546 1.236 . S
C556 O547 1.257 . S
O557 Tb536 2.415 . S
O557 C545 1.239 . S
O558 Tb536 2.399 . S
O558 C545 1.263 . S
C559 O548 1.261 . S
C559 O549 1.257 . S
C560 C563 1.358 . S
C560 C564 1.332 . S
C560 C566 1.504 . S
C561 C562 1.373 . S
C561 C565 1.308 . S
C562 C561 1.373 . S
C562 C563 1.429 . S
C562 H572 0.932 . S
C563 C560 1.358 . S
C563 C562 1.429 . S
C563 H573 0.930 . S
C564 C560 1.332 . S
C564 C565 1.394 . S
C564 H574 0.932 . S
C565 C561 1.308 . S
C565 C564 1.394 . S
C565 H575 0.929 . S
C566 Tb537 2.764 . S
C566 O550 1.239 . S
C566 O551 1.263 . S
C566 C560 1.504 . S
C567 O552 1.236 . S
C567 O553 1.257 . S
H568 C541 0.932 . S
H569 C542 0.930 . S
H570 C543 0.932 . S
H571 C544 0.929 . S
H572 C562 0.932 . S
H573 C563 0.930 . S
H574 C564 0.932 . S
H575 C565 0.929 . S
Tb576 C585 2.764 . S
Tb576 O586 2.325 . S
Tb576 O589 2.303 . S
Tb576 O593 2.328 . S
Tb576 O594 2.349 . S
Tb576 O597 2.415 . S
Tb576 O598 2.399 . S
Tb577 O587 2.322 1_556 S
Tb577 O588 2.349 . S
Tb577 O590 2.415 . S
Tb577 O591 2.399 . S
Tb577 O592 2.325 . S
Tb577 O595 2.303 1_556 S
Tb577 C606 2.764 . S
C578 O594 1.261 . S
C578 O595 1.257 . S
C579 C582 1.358 . S
C579 C583 1.332 . S
C579 C585 1.504 . S
C580 C581 1.373 . S
C580 C584 1.308 . S
C581 C580 1.373 . S
C581 C582 1.429 . S
C581 H608 0.932 . S
C582 C579 1.358 . S
C582 C581 1.429 . S
C582 H609 0.930 . S
C583 C579 1.332 . S
C583 C584 1.394 . S
C583 H610 0.932 . S
C584 C580 1.308 . S
C584 C583 1.394 . S
C584 H611 0.929 . S
C585 Tb576 2.764 . S
C585 C579 1.504 . S
C585 O597 1.239 . S
C585 O598 1.263 . S
O586 Tb576 2.325 . S
O586 C596 1.236 . S
O587 Tb577 2.322 1_554 S
O587 C596 1.257 . S
O588 Tb577 2.349 . S
O588 C599 1.261 1_556 S
O589 Tb576 2.303 . S
O589 C599 1.257 . S
O590 Tb577 2.415 . S
O590 C606 1.239 . S
O591 Tb577 2.399 . S
O591 C606 1.263 . S
O592 Tb577 2.325 . S
O592 C607 1.236 1_546 S
O593 Tb576 2.328 . S
O593 C607 1.257 1_545 S
O594 Tb576 2.349 . S
O594 C578 1.261 . S
O595 Tb577 2.303 1_554 S
O595 C578 1.257 . S
C596 O586 1.236 . S
C596 O587 1.257 . S
O597 Tb576 2.415 . S
O597 C585 1.239 . S
O598 Tb576 2.399 . S
O598 C585 1.263 . S
C599 O588 1.261 1_554 S
C599 O589 1.257 . S
C600 C603 1.358 . S
C600 C604 1.332 . S
C600 C606 1.504 . S
C601 C602 1.373 . S
C601 C605 1.308 . S
C602 C601 1.373 . S
C602 C603 1.429 . S
C602 H612 0.932 . S
C603 C600 1.358 . S
C603 C602 1.429 . S
C603 H613 0.930 . S
C604 C600 1.332 . S
C604 C605 1.394 . S
C604 H614 0.932 . S
C605 C601 1.308 . S
C605 C604 1.394 . S
C605 H615 0.929 . S
C606 Tb577 2.764 . S
C606 O590 1.239 . S
C606 O591 1.263 . S
C606 C600 1.504 . S
C607 O592 1.236 1_564 S
C607 O593 1.257 1_565 S
H608 C581 0.932 . S
H609 C582 0.930 . S
H610 C583 0.932 . S
H611 C584 0.929 . S
H612 C602 0.932 . S
H613 C603 0.930 . S
H614 C604 0.932 . S
H615 C605 0.929 . S
Tb616 C625 2.764 . S
Tb616 O626 2.325 . S
Tb616 O629 2.303 . S
Tb616 O633 2.322 . S
Tb616 O634 2.349 . S
Tb616 O637 2.415 . S
Tb616 O638 2.399 . S
Tb617 O627 2.322 . S
Tb617 O628 2.349 . S
Tb617 O630 2.415 . S
Tb617 O631 2.399 . S
Tb617 O632 2.325 . S
Tb617 O635 2.303 . S
Tb617 C646 2.764 . S
C618 O634 1.261 . S
C618 O635 1.257 . S
C619 C622 1.358 . S
C619 C623 1.332 . S
C619 C625 1.504 . S
C620 C621 1.373 . S
C620 C624 1.308 . S
C621 C620 1.373 . S
C621 C622 1.429 . S
C621 H648 0.932 . S
C622 C619 1.358 . S
C622 C621 1.429 . S
C622 H649 0.930 . S
C623 C619 1.332 . S
C623 C624 1.394 . S
C623 H650 0.932 . S
C624 C620 1.308 . S
C624 C623 1.394 . S
C624 H651 0.929 . S
C625 Tb616 2.764 . S
C625 C619 1.504 . S
C625 O637 1.239 . S
C625 O638 1.263 . S
O626 Tb616 2.325 . S
O626 C636 1.236 . S
O627 Tb617 2.322 . S
O627 C636 1.257 . S
O628 Tb617 2.349 . S
O628 C639 1.261 . S
O629 Tb616 2.303 . S
O629 C639 1.257 . S
O630 Tb617 2.415 . S
O630 C646 1.239 . S
O631 Tb617 2.399 . S
O631 C646 1.263 . S
O632 Tb617 2.325 . S
O632 C647 1.236 . S
O633 Tb616 2.322 . S
O633 C647 1.257 . S
O634 Tb616 2.349 . S
O634 C618 1.261 . S
O635 Tb617 2.303 . S
O635 C618 1.257 . S
C636 O626 1.236 . S
C636 O627 1.257 . S
O637 Tb616 2.415 . S
O637 C625 1.239 . S
O638 Tb616 2.399 . S
O638 C625 1.263 . S
C639 O628 1.261 . S
C639 O629 1.257 . S
C640 C643 1.358 . S
C640 C644 1.332 . S
C640 C646 1.504 . S
C641 C642 1.373 . S
C641 C645 1.308 . S
C642 C641 1.373 . S
C642 C643 1.429 . S
C642 H652 0.932 . S
C643 C640 1.358 . S
C643 C642 1.429 . S
C643 H653 0.930 . S
C644 C640 1.332 . S
C644 C645 1.394 . S
C644 H654 0.932 . S
C645 C641 1.308 . S
C645 C644 1.394 . S
C645 H655 0.929 . S
C646 Tb617 2.764 . S
C646 O630 1.239 . S
C646 O631 1.263 . S
C646 C640 1.504 . S
C647 O632 1.236 . S
C647 O633 1.257 . S
H648 C621 0.932 . S
H649 C622 0.930 . S
H650 C623 0.932 . S
H651 C624 0.929 . S
H652 C642 0.932 . S
H653 C643 0.930 . S
H654 C644 0.932 . S
H655 C645 0.929 . S
Tb656 C665 2.764 . S
Tb656 O666 2.325 . S
Tb656 O669 2.303 . S
Tb656 O673 2.322 . S
Tb656 O674 2.349 . S
Tb656 O677 2.415 . S
Tb656 O678 2.399 . S
Tb657 O667 2.322 1_556 S
Tb657 O668 2.349 1_556 S
Tb657 O670 2.415 . S
Tb657 O671 2.399 . S
Tb657 O672 2.325 . S
Tb657 O675 2.303 1_556 S
Tb657 C686 2.764 . S
C658 O674 1.261 . S
C658 O675 1.257 . S
C659 C662 1.358 . S
C659 C663 1.332 . S
C659 C665 1.504 . S
C660 C661 1.373 . S
C660 C664 1.308 . S
C661 C660 1.373 . S
C661 C662 1.429 . S
C661 H688 0.932 . S
C662 C659 1.358 . S
C662 C661 1.429 . S
C662 H689 0.930 . S
C663 C659 1.332 . S
C663 C664 1.394 . S
C663 H690 0.932 . S
C664 C660 1.308 . S
C664 C663 1.394 . S
C664 H691 0.929 . S
C665 Tb656 2.764 . S
C665 C659 1.504 . S
C665 O677 1.239 . S
C665 O678 1.263 . S
O666 Tb656 2.325 . S
O666 C676 1.236 . S
O667 Tb657 2.322 1_554 S
O667 C676 1.257 . S
O668 Tb657 2.349 1_554 S
O668 C679 1.261 . S
O669 Tb656 2.303 . S
O669 C679 1.257 . S
O670 Tb657 2.415 . S
O670 C686 1.239 . S
O671 Tb657 2.399 . S
O671 C686 1.263 . S
O672 Tb657 2.325 . S
O672 C687 1.236 1_556 S
O673 Tb656 2.322 . S
O673 C687 1.257 . S
O674 Tb656 2.349 . S
O674 C658 1.261 . S
O675 Tb657 2.303 1_554 S
O675 C658 1.257 . S
C676 O666 1.236 . S
C676 O667 1.257 . S
O677 Tb656 2.415 . S
O677 C665 1.239 . S
O678 Tb656 2.399 . S
O678 C665 1.263 . S
C679 O668 1.261 . S
C679 O669 1.257 . S
C680 C683 1.358 . S
C680 C684 1.332 . S
C680 C686 1.504 . S
C681 C682 1.373 . S
C681 C685 1.308 . S
C682 C681 1.373 . S
C682 C683 1.429 . S
C682 H692 0.932 . S
C683 C680 1.358 . S
C683 C682 1.429 . S
C683 H693 0.930 . S
C684 C680 1.332 . S
C684 C685 1.394 . S
C684 H694 0.932 . S
C685 C681 1.308 . S
C685 C684 1.394 . S
C685 H695 0.929 . S
C686 Tb657 2.764 . S
C686 O670 1.239 . S
C686 O671 1.263 . S
C686 C680 1.504 . S
C687 O672 1.236 1_554 S
C687 O673 1.257 . S
H688 C661 0.932 . S
H689 C662 0.930 . S
H690 C663 0.932 . S
H691 C664 0.929 . S
H692 C682 0.932 . S
H693 C683 0.930 . S
H694 C684 0.932 . S
H695 C685 0.929 . S
Tb696 C705 2.764 . S
Tb696 O706 2.325 . S
Tb696 O709 2.303 . S
Tb696 O713 2.322 . S
Tb696 O714 2.349 . S
Tb696 O717 2.415 . S
Tb696 O718 2.399 . S
Tb697 O707 2.322 . S
Tb697 O708 2.349 . S
Tb697 O710 2.415 . S
Tb697 O711 2.399 . S
Tb697 O712 2.325 . S
Tb697 O715 2.303 . S
Tb697 C726 2.764 . S
C698 O714 1.261 . S
C698 O715 1.257 . S
C699 C702 1.358 . S
C699 C703 1.332 . S
C699 C705 1.504 . S
C700 C701 1.373 . S
C700 C704 1.308 . S
C701 C700 1.373 . S
C701 C702 1.429 . S
C701 H728 0.932 . S
C702 C699 1.358 . S
C702 C701 1.429 . S
C702 H729 0.930 . S
C703 C699 1.332 . S
C703 C704 1.394 . S
C703 H730 0.932 . S
C704 C700 1.308 . S
C704 C703 1.394 . S
C704 H731 0.929 . S
C705 Tb696 2.764 . S
C705 C699 1.504 . S
C705 O717 1.239 . S
C705 O718 1.263 . S
O706 Tb696 2.325 . S
O706 C716 1.236 . S
O707 Tb697 2.322 . S
O707 C716 1.257 . S
O708 Tb697 2.349 . S
O708 C719 1.261 . S
O709 Tb696 2.303 . S
O709 C719 1.257 . S
O710 Tb697 2.415 . S
O710 C726 1.239 . S
O711 Tb697 2.399 . S
O711 C726 1.263 . S
O712 Tb697 2.325 . S
O712 C727 1.236 . S
O713 Tb696 2.322 . S
O713 C727 1.257 . S
O714 Tb696 2.349 . S
O714 C698 1.261 . S
O715 Tb697 2.303 . S
O715 C698 1.257 . S
C716 O706 1.236 . S
C716 O707 1.257 . S
O717 Tb696 2.415 . S
O717 C705 1.239 . S
O718 Tb696 2.399 . S
O718 C705 1.263 . S
C719 O708 1.261 . S
C719 O709 1.257 . S
C720 C723 1.358 . S
C720 C724 1.332 . S
C720 C726 1.504 . S
C721 C722 1.373 . S
C721 C725 1.308 . S
C722 C721 1.373 . S
C722 C723 1.429 . S
C722 H732 0.932 . S
C723 C720 1.358 . S
C723 C722 1.429 . S
C723 H733 0.930 . S
C724 C720 1.332 . S
C724 C725 1.394 . S
C724 H734 0.932 . S
C725 C721 1.308 . S
C725 C724 1.394 . S
C725 H735 0.929 . S
C726 Tb697 2.764 . S
C726 O710 1.239 . S
C726 O711 1.263 . S
C726 C720 1.504 . S
C727 O712 1.236 . S
C727 O713 1.257 . S
H728 C701 0.932 . S
H729 C702 0.930 . S
H730 C703 0.932 . S
H731 C704 0.929 . S
H732 C722 0.932 . S
H733 C723 0.930 . S
H734 C724 0.932 . S
H735 C725 0.929 . S
Tb736 C745 2.764 . S
Tb736 O746 2.325 . S
Tb736 O749 2.303 . S
Tb736 O753 2.322 . S
Tb736 O754 2.349 . S
Tb736 O757 2.415 . S
Tb736 O758 2.399 . S
Tb737 O747 2.322 . S
Tb737 O748 2.395 . S
Tb737 O750 2.415 . S
Tb737 O751 2.399 . S
Tb737 O752 2.325 . S
Tb737 O755 2.303 . S
Tb737 C766 2.764 . S
C738 O754 1.261 . S
C738 O755 1.257 . S
C739 C742 1.358 . S
C739 C743 1.299 1_455 S
C739 C745 1.504 . S
C740 C741 1.373 . S
C740 C744 1.308 1_455 S
C741 C740 1.373 . S
C741 C742 1.429 . S
C741 H768 0.932 . S
C742 C739 1.358 . S
C742 C741 1.429 . S
C742 H769 0.930 . S
C743 C739 1.299 1_655 S
C743 C744 1.408 . S
C743 H770 0.952 . S
C744 C740 1.308 1_655 S
C744 C743 1.408 . S
C744 H771 0.929 . S
C745 Tb736 2.764 . S
C745 C739 1.504 . S
C745 O757 1.239 . S
C745 O758 1.263 . S
O746 Tb736 2.325 . S
O746 C756 1.236 . S
O747 Tb737 2.322 . S
O747 C756 1.257 . S
O748 Tb737 2.395 . S
O748 C759 1.256 1_455 S
O749 Tb736 2.303 . S
O749 C759 1.257 1_455 S
O750 Tb737 2.415 . S
O750 C766 1.239 . S
O751 Tb737 2.399 . S
O751 C766 1.263 . S
O752 Tb737 2.325 . S
O752 C767 1.236 . S
O753 Tb736 2.322 . S
O753 C767 1.257 . S
O754 Tb736 2.349 . S
O754 C738 1.261 . S
O755 Tb737 2.303 . S
O755 C738 1.257 . S
C756 O746 1.236 . S
C756 O747 1.257 . S
O757 Tb736 2.415 . S
O757 C745 1.239 . S
O758 Tb736 2.399 . S
O758 C745 1.263 . S
C759 O748 1.256 1_655 S
C759 O749 1.257 1_655 S
C760 C763 1.358 . S
C760 C764 1.332 . S
C760 C766 1.504 . S
C761 C762 1.373 . S
C761 C765 1.308 . S
C762 C761 1.373 . S
C762 C763 1.429 . S
C762 H772 0.932 . S
C763 C760 1.358 . S
C763 C762 1.429 . S
C763 H773 0.930 . S
C764 C760 1.332 . S
C764 C765 1.394 . S
C764 H774 0.932 . S
C765 C761 1.308 . S
C765 C764 1.394 . S
C765 H775 0.929 . S
C766 Tb737 2.764 . S
C766 O750 1.239 . S
C766 O751 1.263 . S
C766 C760 1.504 . S
C767 O752 1.236 . S
C767 O753 1.257 . S
H768 C741 0.932 . S
H769 C742 0.930 . S
H770 C743 0.952 . S
H771 C744 0.929 . S
H772 C762 0.932 . S
H773 C763 0.930 . S
H774 C764 0.932 . S
H775 C765 0.929 . S
Tb776 C785 2.764 . S
Tb776 O786 2.325 . S
Tb776 O789 2.303 . S
Tb776 O793 2.322 . S
Tb776 O794 2.349 . S
Tb776 O797 2.415 . S
Tb776 O798 2.399 . S
Tb777 O787 2.322 . S
Tb777 O788 2.349 . S
Tb777 O790 2.415 . S
Tb777 O791 2.399 . S
Tb777 O792 2.325 . S
Tb777 O795 2.303 . S
Tb777 C806 2.764 . S
C778 O794 1.261 . S
C778 O795 1.257 . S
C779 C782 1.358 . S
C779 C783 1.332 . S
C779 C785 1.504 . S
C780 C781 1.373 . S
C780 C784 1.308 . S
C781 C780 1.373 . S
C781 C782 1.429 . S
C781 H808 0.932 . S
C782 C779 1.358 . S
C782 C781 1.429 . S
C782 H809 0.930 . S
C783 C779 1.332 . S
C783 C784 1.394 . S
C783 H810 0.932 . S
C784 C780 1.308 . S
C784 C783 1.394 . S
C784 H811 0.929 . S
C785 Tb776 2.764 . S
C785 C779 1.504 . S
C785 O797 1.239 . S
C785 O798 1.263 . S
O786 Tb776 2.325 . S
O786 C796 1.236 . S
O787 Tb777 2.322 . S
O787 C796 1.257 . S
O788 Tb777 2.349 . S
O788 C799 1.261 . S
O789 Tb776 2.303 . S
O789 C799 1.257 . S
O790 Tb777 2.415 . S
O790 C806 1.239 . S
O791 Tb777 2.399 . S
O791 C806 1.263 . S
O792 Tb777 2.325 . S
O792 C807 1.236 . S
O793 Tb776 2.322 . S
O793 C807 1.257 . S
O794 Tb776 2.349 . S
O794 C778 1.261 . S
O795 Tb777 2.303 . S
O795 C778 1.257 . S
C796 O786 1.236 . S
C796 O787 1.257 . S
O797 Tb776 2.415 . S
O797 C785 1.239 . S
O798 Tb776 2.399 . S
O798 C785 1.263 . S
C799 O788 1.261 . S
C799 O789 1.257 . S
C800 C803 1.358 . S
C800 C804 1.332 . S
C800 C806 1.504 . S
C801 C802 1.373 . S
C801 C805 1.308 . S
C802 C801 1.373 . S
C802 C803 1.429 . S
C802 H812 0.932 . S
C803 C800 1.358 . S
C803 C802 1.429 . S
C803 H813 0.930 . S
C804 C800 1.332 . S
C804 C805 1.394 . S
C804 H814 0.932 . S
C805 C801 1.308 . S
C805 C804 1.394 . S
C805 H815 0.929 . S
C806 Tb777 2.764 . S
C806 O790 1.239 . S
C806 O791 1.263 . S
C806 C800 1.504 . S
C807 O792 1.236 . S
C807 O793 1.257 . S
H808 C781 0.932 . S
H809 C782 0.930 . S
H810 C783 0.932 . S
H811 C784 0.929 . S
H812 C802 0.932 . S
H813 C803 0.930 . S
H814 C804 0.932 . S
H815 C805 0.929 . S
Tb816 C825 2.764 . S
Tb816 O826 2.325 . S
Tb816 O829 2.303 . S
Tb816 O833 2.322 . S
Tb816 O834 2.349 . S
Tb816 O837 2.415 . S
Tb816 O838 2.399 . S
Tb817 O827 2.322 . S
Tb817 O828 2.349 . S
Tb817 O830 2.415 . S
Tb817 O831 2.399 . S
Tb817 O832 2.325 . S
Tb817 O835 2.303 . S
Tb817 C846 2.764 . S
C818 O834 1.261 . S
C818 O835 1.257 . S
C819 C822 1.358 . S
C819 C823 1.332 . S
C819 C825 1.504 . S
C820 C821 1.373 . S
C820 C824 1.308 . S
C821 C820 1.373 . S
C821 C822 1.429 . S
C821 H848 0.932 . S
C822 C819 1.358 . S
C822 C821 1.429 . S
C822 H849 0.930 . S
C823 C819 1.332 . S
C823 C824 1.394 . S
C823 H850 0.932 . S
C824 C820 1.308 . S
C824 C823 1.394 . S
C824 H851 0.929 . S
C825 Tb816 2.764 . S
C825 C819 1.504 . S
C825 O837 1.239 . S
C825 O838 1.263 . S
O826 Tb816 2.325 . S
O826 C836 1.236 . S
O827 Tb817 2.322 . S
O827 C836 1.257 . S
O828 Tb817 2.349 . S
O828 C839 1.261 . S
O829 Tb816 2.303 . S
O829 C839 1.257 . S
O830 Tb817 2.415 . S
O830 C846 1.239 . S
O831 Tb817 2.399 . S
O831 C846 1.263 . S
O832 Tb817 2.325 . S
O832 C847 1.236 . S
O833 Tb816 2.322 . S
O833 C847 1.257 . S
O834 Tb816 2.349 . S
O834 C818 1.261 . S
O835 Tb817 2.303 . S
O835 C818 1.257 . S
C836 O826 1.236 . S
C836 O827 1.257 . S
O837 Tb816 2.415 . S
O837 C825 1.239 . S
O838 Tb816 2.399 . S
O838 C825 1.263 . S
C839 O828 1.261 . S
C839 O829 1.257 . S
C840 C843 1.358 . S
C840 C844 1.332 . S
C840 C846 1.504 . S
C841 C842 1.373 . S
C841 C845 1.308 . S
C842 C841 1.373 . S
C842 C843 1.429 . S
C842 H852 0.932 . S
C843 C840 1.358 . S
C843 C842 1.429 . S
C843 H853 0.930 . S
C844 C840 1.332 . S
C844 C845 1.394 . S
C844 H854 0.932 . S
C845 C841 1.308 . S
C845 C844 1.394 . S
C845 H855 0.929 . S
C846 Tb817 2.764 . S
C846 O830 1.239 . S
C846 O831 1.263 . S
C846 C840 1.504 . S
C847 O832 1.236 . S
C847 O833 1.257 . S
H848 C821 0.932 . S
H849 C822 0.930 . S
H850 C823 0.932 . S
H851 C824 0.929 . S
H852 C842 0.932 . S
H853 C843 0.930 . S
H854 C844 0.932 . S
H855 C845 0.929 . S
Tb856 C865 2.764 . S
Tb856 O866 2.325 . S
Tb856 O869 2.303 . S
Tb856 O873 2.322 . S
Tb856 O874 2.349 . S
Tb856 O877 2.415 . S
Tb856 O878 2.399 . S
Tb857 O867 2.322 . S
Tb857 O868 2.349 . S
Tb857 O870 2.415 . S
Tb857 O871 2.399 . S
Tb857 O872 2.325 . S
Tb857 O875 2.303 . S
Tb857 C886 2.764 . S
C858 O874 1.261 . S
C858 O875 1.257 . S
C859 C862 1.358 . S
C859 C863 1.332 . S
C859 C865 1.504 . S
C860 C861 1.373 . S
C860 C864 1.308 . S
C861 C860 1.373 . S
C861 C862 1.429 . S
C861 H888 0.932 . S
C862 C859 1.358 . S
C862 C861 1.429 . S
C862 H889 0.930 . S
C863 C859 1.332 . S
C863 C864 1.394 . S
C863 H890 0.932 . S
C864 C860 1.308 . S
C864 C863 1.394 . S
C864 H891 0.929 . S
C865 Tb856 2.764 . S
C865 C859 1.504 . S
C865 O877 1.239 . S
C865 O878 1.263 . S
O866 Tb856 2.325 . S
O866 C876 1.236 . S
O867 Tb857 2.322 . S
O867 C876 1.257 . S
O868 Tb857 2.349 . S
O868 C879 1.261 . S
O869 Tb856 2.303 . S
O869 C879 1.257 . S
O870 Tb857 2.415 . S
O870 C886 1.239 . S
O871 Tb857 2.399 . S
O871 C886 1.263 . S
O872 Tb857 2.325 . S
O872 C887 1.236 . S
O873 Tb856 2.322 . S
O873 C887 1.257 . S
O874 Tb856 2.349 . S
O874 C858 1.261 . S
O875 Tb857 2.303 . S
O875 C858 1.257 . S
C876 O866 1.236 . S
C876 O867 1.257 . S
O877 Tb856 2.415 . S
O877 C865 1.239 . S
O878 Tb856 2.399 . S
O878 C865 1.263 . S
C879 O868 1.261 . S
C879 O869 1.257 . S
C880 C883 1.358 . S
C880 C884 1.332 . S
C880 C886 1.504 . S
C881 C882 1.373 . S
C881 C885 1.308 . S
C882 C881 1.373 . S
C882 C883 1.429 . S
C882 H892 0.932 . S
C883 C880 1.358 . S
C883 C882 1.429 . S
C883 H893 0.930 . S
C884 C880 1.332 . S
C884 C885 1.394 . S
C884 H894 0.932 . S
C885 C881 1.308 . S
C885 C884 1.394 . S
C885 H895 0.929 . S
C886 Tb857 2.764 . S
C886 O870 1.239 . S
C886 O871 1.263 . S
C886 C880 1.504 . S
C887 O872 1.236 . S
C887 O873 1.257 . S
H888 C861 0.932 . S
H889 C862 0.930 . S
H890 C863 0.932 . S
H891 C864 0.929 . S
H892 C882 0.932 . S
H893 C883 0.930 . S
H894 C884 0.932 . S
H895 C885 0.929 . S
Tb896 C905 2.764 . S
Tb896 O906 2.325 . S
Tb896 O909 2.303 . S
Tb896 O913 2.322 . S
Tb896 O914 2.349 . S
Tb896 O917 2.415 . S
Tb896 O918 2.399 . S
Tb897 O907 2.322 . S
Tb897 O908 2.349 . S
Tb897 O910 2.415 . S
Tb897 O911 2.399 . S
Tb897 O912 2.325 . S
Tb897 O915 2.303 . S
Tb897 C926 2.764 . S
C898 O914 1.261 . S
C898 O915 1.257 . S
C899 C902 1.358 . S
C899 C903 1.332 . S
C899 C905 1.504 . S
C900 C901 1.373 . S
C900 C904 1.308 . S
C901 C900 1.373 . S
C901 C902 1.429 . S
C901 H928 0.932 . S
C902 C899 1.358 . S
C902 C901 1.429 . S
C902 H929 0.930 . S
C903 C899 1.332 . S
C903 C904 1.394 . S
C903 H930 0.932 . S
C904 C900 1.308 . S
C904 C903 1.394 . S
C904 H931 0.929 . S
C905 Tb896 2.764 . S
C905 C899 1.504 . S
C905 O917 1.239 . S
C905 O918 1.263 . S
O906 Tb896 2.325 . S
O906 C916 1.236 . S
O907 Tb897 2.322 . S
O907 C916 1.257 . S
O908 Tb897 2.349 . S
O908 C919 1.261 . S
O909 Tb896 2.303 . S
O909 C919 1.257 . S
O910 Tb897 2.415 . S
O910 C926 1.239 . S
O911 Tb897 2.399 . S
O911 C926 1.263 . S
O912 Tb897 2.325 . S
O912 C927 1.236 . S
O913 Tb896 2.322 . S
O913 C927 1.257 . S
O914 Tb896 2.349 . S
O914 C898 1.261 . S
O915 Tb897 2.303 . S
O915 C898 1.257 . S
C916 O906 1.236 . S
C916 O907 1.257 . S
O917 Tb896 2.415 . S
O917 C905 1.239 . S
O918 Tb896 2.399 . S
O918 C905 1.263 . S
C919 O908 1.261 . S
C919 O909 1.257 . S
C920 C923 1.358 . S
C920 C924 1.332 . S
C920 C926 1.504 . S
C921 C922 1.373 . S
C921 C925 1.308 . S
C922 C921 1.373 . S
C922 C923 1.429 . S
C922 H932 0.932 . S
C923 C920 1.358 . S
C923 C922 1.429 . S
C923 H933 0.930 . S
C924 C920 1.332 . S
C924 C925 1.394 . S
C924 H934 0.932 . S
C925 C921 1.308 . S
C925 C924 1.394 . S
C925 H935 0.929 . S
C926 Tb897 2.764 . S
C926 O910 1.239 . S
C926 O911 1.263 . S
C926 C920 1.504 . S
C927 O912 1.236 . S
C927 O913 1.257 . S
H928 C901 0.932 . S
H929 C902 0.930 . S
H930 C903 0.932 . S
H931 C904 0.929 . S
H932 C922 0.932 . S
H933 C923 0.930 . S
H934 C924 0.932 . S
H935 C925 0.929 . S
Tb936 C945 2.764 1_455 S
Tb936 O946 2.325 . S
Tb936 O949 2.303 . S
Tb936 O953 2.322 . S
Tb936 O954 2.349 . S
Tb936 O957 2.415 1_455 S
Tb936 O958 2.399 1_455 S
Tb937 O947 2.322 . S
Tb937 O948 2.349 1_554 S
Tb937 O950 2.415 . S
Tb937 O951 2.403 . S
Tb937 O952 2.325 . S
Tb937 O955 2.303 . S
Tb937 C966 2.764 . S
C938 O954 1.261 . S
C938 O955 1.257 . S
C939 C942 1.358 . S
C939 C943 1.332 . S
C939 C945 1.504 . S
C940 C941 1.373 . S
C940 C944 1.308 . S
C941 C940 1.373 . S
C941 C942 1.429 . S
C941 H968 0.932 . S
C942 C939 1.358 . S
C942 C941 1.429 . S
C942 H969 0.930 . S
C943 C939 1.332 . S
C943 C944 1.394 . S
C943 H970 0.932 . S
C944 C940 1.308 . S
C944 C943 1.394 . S
C944 H971 0.929 . S
C945 Tb936 2.764 1_655 S
C945 C939 1.504 . S
C945 O957 1.239 . S
C945 O958 1.263 . S
O946 Tb936 2.325 . S
O946 C956 1.236 . S
O947 Tb937 2.322 . S
O947 C956 1.257 . S
O948 Tb937 2.349 1_556 S
O948 C959 1.261 . S
O949 Tb936 2.303 . S
O949 C959 1.257 1_554 S
O950 Tb937 2.415 . S
O950 C966 1.239 . S
O951 Tb937 2.403 . S
O951 C966 1.268 . S
O952 Tb937 2.325 . S
O952 C967 1.236 . S
O953 Tb936 2.322 . S
O953 C967 1.257 . S
O954 Tb936 2.349 . S
O954 C938 1.261 . S
O955 Tb937 2.303 . S
O955 C938 1.257 . S
C956 O946 1.236 . S
C956 O947 1.257 . S
O957 Tb936 2.415 1_655 S
O957 C945 1.239 . S
O958 Tb936 2.399 1_655 S
O958 C945 1.263 . S
C959 O948 1.261 . S
C959 O949 1.257 1_556 S
C960 C963 1.358 1_554 S
C960 C964 1.332 . S
C960 C966 1.504 . S
C961 C962 1.373 1_554 S
C961 C965 1.308 . S
C962 C961 1.373 1_556 S
C962 C963 1.429 . S
C962 H972 0.932 . S
C963 C960 1.358 1_556 S
C963 C962 1.429 . S
C963 H973 0.930 . S
C964 C960 1.332 . S
C964 C965 1.394 . S
C964 H974 0.932 . S
C965 C961 1.308 . S
C965 C964 1.394 . S
C965 H975 0.929 . S
C966 Tb937 2.764 . S
C966 O950 1.239 . S
C966 O951 1.268 . S
C966 C960 1.504 . S
C967 O952 1.236 . S
C967 O953 1.257 . S
H968 C941 0.932 . S
H969 C942 0.930 . S
H970 C943 0.932 . S
H971 C944 0.929 . S
H972 C962 0.932 . S
H973 C963 0.930 . S
H974 C964 0.932 . S
H975 C965 0.929 . S
C976 C977 1.344 1_455 S
C976 C978 1.394 . S
C976 H992 0.931 . S
C977 C976 1.344 1_655 S
C977 C981 1.398 . S
C978 C976 1.394 . S
C978 C979 1.369 . S
C978 C982 1.531 . S
C979 C978 1.369 . S
C979 C980 1.410 1_455 S
C979 C987 1.503 1_556 S
C980 C979 1.410 1_655 S
C980 C981 1.392 . S
C980 C983 1.511 1_556 S
C981 C977 1.398 . S
C981 C980 1.392 . S
C981 H993 0.929 . S
C982 C978 1.531 . S
C982 H994 0.960 . S
C982 H995 0.962 . S
C982 H996 0.960 . S
C983 C980 1.511 1_554 S
C983 H997 0.961 1_554 S
C983 H998 0.961 . S
C983 H999 0.961 . S
C984 C985 1.370 1_556 S
C984 C986 1.363 . S
C984 H1000 0.931 . S
C985 C984 1.370 1_554 S
C985 C989 1.408 . S
C986 C984 1.363 . S
C986 C987 1.370 1_556 S
C986 C990 1.524 . S
C987 C979 1.503 1_554 S
C987 C986 1.370 1_554 S
C987 C988 1.403 . S
C988 C987 1.403 . S
C988 C989 1.404 . S
C988 C991 1.539 . S
C989 C985 1.408 . S
C989 C988 1.404 . S
C989 H1001 0.930 . S
C990 C986 1.524 . S
C990 H1002 0.956 . S
C990 H1003 0.961 1_455 S
C990 H1004 0.961 . S
C991 C988 1.539 . S
C991 H1005 0.958 . S
C991 H1006 0.961 . S
C991 H1007 0.960 . S
H992 C976 0.931 . S
H993 C981 0.929 . S
H994 C982 0.960 . S
H995 C982 0.962 . S
H996 C982 0.960 . S
H997 C983 0.961 1_556 S
H998 C983 0.961 . S
H999 C983 0.961 . S
H1000 C984 0.931 . S
H1001 C989 0.930 . S
H1002 C990 0.956 . S
H1003 C990 0.961 1_655 S
H1004 C990 0.961 . S
H1005 C991 0.958 . S
H1006 C991 0.961 . S
H1007 C991 0.960 . S
C1008 C1009 1.391 . S
C1008 C1010 1.394 . S
C1008 H1024 0.931 . S
C1009 C1008 1.391 . S
C1009 C1013 1.376 . S
C1010 C1008 1.394 . S
C1010 C1011 1.369 . S
C1010 C1014 1.531 . S
C1011 C1010 1.369 . S
C1011 C1012 1.410 . S
C1011 C1019 1.503 . S
C1012 C1011 1.410 . S
C1012 C1013 1.392 . S
C1012 C1015 1.511 . S
C1013 C1009 1.376 . S
C1013 C1012 1.392 . S
C1013 H1025 0.929 . S
C1014 C1010 1.531 . S
C1014 H1026 0.960 . S
C1014 H1027 0.962 . S
C1014 H1028 0.960 . S
C1015 C1012 1.511 . S
C1015 H1029 0.961 . S
C1015 H1030 0.961 . S
C1015 H1031 0.961 . S
C1016 C1017 1.370 . S
C1016 C1018 1.363 . S
C1016 H1032 0.931 . S
C1017 C1016 1.370 . S
C1017 C1021 1.408 . S
C1018 C1016 1.363 . S
C1018 C1019 1.370 . S
C1018 C1022 1.524 . S
C1019 C1011 1.503 . S
C1019 C1018 1.370 . S
C1019 C1020 1.403 . S
C1020 C1019 1.403 . S
C1020 C1021 1.404 . S
C1020 C1023 1.539 . S
C1021 C1017 1.408 . S
C1021 C1020 1.404 . S
C1021 H1033 0.930 . S
C1022 C1018 1.524 . S
C1022 H1034 0.956 . S
C1022 H1035 0.961 . S
C1022 H1036 0.961 . S
C1023 C1020 1.539 . S
C1023 H1037 0.958 . S
C1023 H1038 0.961 . S
C1023 H1039 0.960 . S
H1024 C1008 0.931 . S
H1025 C1013 0.929 . S
H1026 C1014 0.960 . S
H1027 C1014 0.962 . S
H1028 C1014 0.960 . S
H1029 C1015 0.961 . S
H1030 C1015 0.961 . S
H1031 C1015 0.961 . S
H1032 C1016 0.931 . S
H1033 C1021 0.930 . S
H1034 C1022 0.956 . S
H1035 C1022 0.961 . S
H1036 C1022 0.961 . S
H1037 C1023 0.958 . S
H1038 C1023 0.961 . S
H1039 C1023 0.960 . S
C1040 C1041 1.391 . S
C1040 C1042 1.394 . S
C1040 H1056 0.931 . S
C1041 C1040 1.391 . S
C1041 C1045 1.376 . S
C1042 C1040 1.394 . S
C1042 C1043 1.369 . S
C1042 C1046 1.531 . S
C1043 C1042 1.369 . S
C1043 C1044 1.410 . S
C1043 C1051 1.503 . S
C1044 C1043 1.410 . S
C1044 C1045 1.392 . S
C1044 C1047 1.511 . S
C1045 C1041 1.376 . S
C1045 C1044 1.392 . S
C1045 H1057 0.929 . S
C1046 C1042 1.531 . S
C1046 H1058 0.960 . S
C1046 H1059 0.962 . S
C1046 H1060 0.960 . S
C1047 C1044 1.511 . S
C1047 H1061 0.961 . S
C1047 H1062 0.961 . S
C1047 H1063 0.961 . S
C1048 C1049 1.370 . S
C1048 C1050 1.363 . S
C1048 H1064 0.931 . S
C1049 C1048 1.370 . S
C1049 C1053 1.408 . S
C1050 C1048 1.363 . S
C1050 C1051 1.370 . S
C1050 C1054 1.524 . S
C1051 C1043 1.503 . S
C1051 C1050 1.370 . S
C1051 C1052 1.403 . S
C1052 C1051 1.403 . S
C1052 C1053 1.404 . S
C1052 C1055 1.539 . S
C1053 C1049 1.408 . S
C1053 C1052 1.404 . S
C1053 H1065 0.930 . S
C1054 C1050 1.524 . S
C1054 H1066 0.956 . S
C1054 H1067 0.961 . S
C1054 H1068 0.961 . S
C1055 C1052 1.539 . S
C1055 H1069 0.958 . S
C1055 H1070 0.961 . S
C1055 H1071 0.960 . S
H1056 C1040 0.931 . S
H1057 C1045 0.929 . S
H1058 C1046 0.960 . S
H1059 C1046 0.962 . S
H1060 C1046 0.960 . S
H1061 C1047 0.961 . S
H1062 C1047 0.961 . S
H1063 C1047 0.961 . S
H1064 C1048 0.931 . S
H1065 C1053 0.930 . S
H1066 C1054 0.956 . S
H1067 C1054 0.961 . S
H1068 C1054 0.961 . S
H1069 C1055 0.958 . S
H1070 C1055 0.961 . S
H1071 C1055 0.960 . S
C1072 C1073 1.391 . S
C1072 C1074 1.394 . S
C1072 H1088 0.931 . S
C1073 C1072 1.391 . S
C1073 C1077 1.376 . S
C1074 C1072 1.394 . S
C1074 C1075 1.369 . S
C1074 C1078 1.531 . S
C1075 C1074 1.369 . S
C1075 C1076 1.410 . S
C1075 C1083 1.503 . S
C1076 C1075 1.410 . S
C1076 C1077 1.392 . S
C1076 C1079 1.511 . S
C1077 C1073 1.376 . S
C1077 C1076 1.392 . S
C1077 H1089 0.929 . S
C1078 C1074 1.531 . S
C1078 H1090 0.960 . S
C1078 H1091 0.962 . S
C1078 H1092 0.960 . S
C1079 C1076 1.511 . S
C1079 H1093 0.961 . S
C1079 H1094 0.961 . S
C1079 H1095 0.961 . S
C1080 C1081 1.370 . S
C1080 C1082 1.363 . S
C1080 H1096 0.931 . S
C1081 C1080 1.370 . S
C1081 C1085 1.408 . S
C1082 C1080 1.363 . S
C1082 C1083 1.370 . S
C1082 C1086 1.524 . S
C1083 C1075 1.503 . S
C1083 C1082 1.370 . S
C1083 C1084 1.403 . S
C1084 C1083 1.403 . S
C1084 C1085 1.404 . S
C1084 C1087 1.539 . S
C1085 C1081 1.408 . S
C1085 C1084 1.404 . S
C1085 H1097 0.930 . S
C1086 C1082 1.524 . S
C1086 H1098 0.956 . S
C1086 H1099 0.961 . S
C1086 H1100 0.961 . S
C1087 C1084 1.539 . S
C1087 H1101 0.958 . S
C1087 H1102 0.961 . S
C1087 H1103 0.960 . S
H1088 C1072 0.931 . S
H1089 C1077 0.929 . S
H1090 C1078 0.960 . S
H1091 C1078 0.962 . S
H1092 C1078 0.960 . S
H1093 C1079 0.961 . S
H1094 C1079 0.961 . S
H1095 C1079 0.961 . S
H1096 C1080 0.931 . S
H1097 C1085 0.930 . S
H1098 C1086 0.956 . S
H1099 C1086 0.961 . S
H1100 C1086 0.961 . S
H1101 C1087 0.958 . S
H1102 C1087 0.961 . S
H1103 C1087 0.960 . S
C1104 C1105 1.391 . S
C1104 C1106 1.394 . S
C1104 H1120 0.931 . S
C1105 C1104 1.391 . S
C1105 C1109 1.376 . S
C1106 C1104 1.394 . S
C1106 C1107 1.369 . S
C1106 C1110 1.531 . S
C1107 C1106 1.369 . S
C1107 C1108 1.410 . S
C1107 C1115 1.503 . S
C1108 C1107 1.410 . S
C1108 C1109 1.392 . S
C1108 C1111 1.511 . S
C1109 C1105 1.376 . S
C1109 C1108 1.392 . S
C1109 H1121 0.929 . S
C1110 C1106 1.531 . S
C1110 H1122 0.960 . S
C1110 H1123 0.962 . S
C1110 H1124 0.971 . S
C1111 C1108 1.511 . S
C1111 H1125 0.961 . S
C1111 H1126 0.961 . S
C1111 H1127 0.961 . S
C1112 C1113 1.370 . S
C1112 C1114 1.363 . S
C1112 H1128 0.931 . S
C1113 C1112 1.370 . S
C1113 C1117 1.408 . S
C1114 C1112 1.363 . S
C1114 C1115 1.370 . S
C1114 C1118 1.524 . S
C1115 C1107 1.503 . S
C1115 C1114 1.370 . S
C1115 C1116 1.403 . S
C1116 C1115 1.403 . S
C1116 C1117 1.404 . S
C1116 C1119 1.539 . S
C1117 C1113 1.408 . S
C1117 C1116 1.404 . S
C1117 H1129 0.930 . S
C1118 C1114 1.524 . S
C1118 H1130 0.956 . S
C1118 H1131 0.961 . S
C1118 H1132 0.961 . S
C1119 C1116 1.539 . S
C1119 H1133 0.958 . S
C1119 H1134 0.961 . S
C1119 H1135 0.960 . S
H1120 C1104 0.931 . S
H1121 C1109 0.929 . S
H1122 C1110 0.960 . S
H1123 C1110 0.962 . S
H1124 C1110 0.971 . S
H1125 C1111 0.961 . S
H1126 C1111 0.961 . S
H1127 C1111 0.961 . S
H1128 C1112 0.931 . S
H1129 C1117 0.930 . S
H1130 C1118 0.956 . S
H1131 C1118 0.961 . S
H1132 C1118 0.961 . S
H1133 C1119 0.958 . S
H1134 C1119 0.961 . S
H1135 C1119 0.960 . S
C1136 C1137 1.391 . S
C1136 C1138 1.394 . S
C1136 H1152 0.931 . S
C1137 C1136 1.391 . S
C1137 C1141 1.376 . S
C1138 C1136 1.394 . S
C1138 C1139 1.369 . S
C1138 C1142 1.531 . S
C1139 C1138 1.369 . S
C1139 C1140 1.410 . S
C1139 C1147 1.503 . S
C1140 C1139 1.410 . S
C1140 C1141 1.392 . S
C1140 C1143 1.511 . S
C1141 C1137 1.376 . S
C1141 C1140 1.392 . S
C1141 H1153 0.929 . S
C1142 C1138 1.531 . S
C1142 H1154 0.960 . S
C1142 H1155 0.962 . S
C1142 H1156 0.960 . S
C1143 C1140 1.511 . S
C1143 H1157 0.961 . S
C1143 H1158 0.961 . S
C1143 H1159 0.961 . S
C1144 C1145 1.370 . S
C1144 C1146 1.363 . S
C1144 H1160 0.931 . S
C1145 C1144 1.370 . S
C1145 C1149 1.408 . S
C1146 C1144 1.363 . S
C1146 C1147 1.370 . S
C1146 C1150 1.524 . S
C1147 C1139 1.503 . S
C1147 C1146 1.370 . S
C1147 C1148 1.403 . S
C1148 C1147 1.403 . S
C1148 C1149 1.404 . S
C1148 C1151 1.539 . S
C1149 C1145 1.408 . S
C1149 C1148 1.404 . S
C1149 H1161 0.930 . S
C1150 C1146 1.524 . S
C1150 H1162 0.956 . S
C1150 H1163 0.961 . S
C1150 H1164 0.961 . S
C1151 C1148 1.539 . S
C1151 H1165 0.958 . S
C1151 H1166 0.961 . S
C1151 H1167 0.960 . S
H1152 C1136 0.931 . S
H1153 C1141 0.929 . S
H1154 C1142 0.960 . S
H1155 C1142 0.962 . S
H1156 C1142 0.960 . S
H1157 C1143 0.961 . S
H1158 C1143 0.961 . S
H1159 C1143 0.961 . S
H1160 C1144 0.931 . S
H1161 C1149 0.930 . S
H1162 C1150 0.956 . S
H1163 C1150 0.961 . S
H1164 C1150 0.961 . S
H1165 C1151 0.958 . S
H1166 C1151 0.961 . S
H1167 C1151 0.960 . S
C1168 C1169 1.391 . S
C1168 C1170 1.394 . S
C1168 H1184 0.931 . S
C1169 C1168 1.391 . S
C1169 C1173 1.376 . S
C1170 C1168 1.394 . S
C1170 C1171 1.369 . S
C1170 C1174 1.531 . S
C1171 C1170 1.369 . S
C1171 C1172 1.410 . S
C1171 C1179 1.503 . S
C1172 C1171 1.410 . S
C1172 C1173 1.392 . S
C1172 C1175 1.511 . S
C1173 C1169 1.376 . S
C1173 C1172 1.392 . S
C1173 H1185 0.929 . S
C1174 C1170 1.531 . S
C1174 H1186 0.960 . S
C1174 H1187 0.962 . S
C1174 H1188 0.960 . S
C1175 C1172 1.511 . S
C1175 H1189 0.961 . S
C1175 H1190 0.961 . S
C1175 H1191 0.961 . S
C1176 C1177 1.370 . S
C1176 C1178 1.363 . S
C1176 H1192 0.931 . S
C1177 C1176 1.370 . S
C1177 C1181 1.408 . S
C1178 C1176 1.363 . S
C1178 C1179 1.370 . S
C1178 C1182 1.524 . S
C1179 C1171 1.503 . S
C1179 C1178 1.370 . S
C1179 C1180 1.403 . S
C1180 C1179 1.403 . S
C1180 C1181 1.404 . S
C1180 C1183 1.539 . S
C1181 C1177 1.408 . S
C1181 C1180 1.404 . S
C1181 H1193 0.930 . S
C1182 C1178 1.524 . S
C1182 H1194 0.956 . S
C1182 H1195 0.961 . S
C1182 H1196 0.961 . S
C1183 C1180 1.539 . S
C1183 H1197 0.958 . S
C1183 H1198 0.961 . S
C1183 H1199 0.960 . S
H1184 C1168 0.931 . S
H1185 C1173 0.929 . S
H1186 C1174 0.960 . S
H1187 C1174 0.962 . S
H1188 C1174 0.960 . S
H1189 C1175 0.961 . S
H1190 C1175 0.961 . S
H1191 C1175 0.961 . S
H1192 C1176 0.931 . S
H1193 C1181 0.930 . S
H1194 C1182 0.956 . S
H1195 C1182 0.961 . S
H1196 C1182 0.961 . S
H1197 C1183 0.958 . S
H1198 C1183 0.961 . S
H1199 C1183 0.960 . S
C1200 C1201 1.391 . S
C1200 C1202 1.394 . S
C1200 H1216 0.931 . S
C1201 C1200 1.391 . S
C1201 C1205 1.376 . S
C1202 C1200 1.394 . S
C1202 C1203 1.369 . S
C1202 C1206 1.531 . S
C1203 C1202 1.369 . S
C1203 C1204 1.410 . S
C1203 C1211 1.503 . S
C1204 C1203 1.410 . S
C1204 C1205 1.392 . S
C1204 C1207 1.511 . S
C1205 C1201 1.376 . S
C1205 C1204 1.392 . S
C1205 H1217 0.929 . S
C1206 C1202 1.531 . S
C1206 H1218 0.960 . S
C1206 H1219 0.962 . S
C1206 H1220 0.960 . S
C1207 C1204 1.511 . S
C1207 H1221 0.961 . S
C1207 H1222 0.961 . S
C1207 H1223 0.961 . S
C1208 C1209 1.370 . S
C1208 C1210 1.363 . S
C1208 H1224 0.931 . S
C1209 C1208 1.370 . S
C1209 C1213 1.408 . S
C1210 C1208 1.363 . S
C1210 C1211 1.370 . S
C1210 C1214 1.524 . S
C1211 C1203 1.503 . S
C1211 C1210 1.370 . S
C1211 C1212 1.403 . S
C1212 C1211 1.403 . S
C1212 C1213 1.404 . S
C1212 C1215 1.539 . S
C1213 C1209 1.408 . S
C1213 C1212 1.404 . S
C1213 H1225 0.930 . S
C1214 C1210 1.524 . S
C1214 H1226 0.956 . S
C1214 H1227 0.961 . S
C1214 H1228 0.961 . S
C1215 C1212 1.539 . S
C1215 H1229 0.958 . S
C1215 H1230 0.961 . S
C1215 H1231 0.960 . S
H1216 C1200 0.931 . S
H1217 C1205 0.929 . S
H1218 C1206 0.960 . S
H1219 C1206 0.962 . S
H1220 C1206 0.960 . S
H1221 C1207 0.961 . S
H1222 C1207 0.961 . S
H1223 C1207 0.961 . S
H1224 C1208 0.931 . S
H1225 C1213 0.930 . S
H1226 C1214 0.956 . S
H1227 C1214 0.961 . S
H1228 C1214 0.961 . S
H1229 C1215 0.958 . S
H1230 C1215 0.961 . S
H1231 C1215 0.960 . S
C1232 C1233 1.391 . S
C1232 C1234 1.394 . S
C1232 H1248 0.931 . S
C1233 C1232 1.391 . S
C1233 C1237 1.376 . S
C1234 C1232 1.394 . S
C1234 C1235 1.369 . S
C1234 C1238 1.531 1_655 S
C1235 C1234 1.369 . S
C1235 C1236 1.410 . S
C1235 C1243 1.503 1_655 S
C1236 C1235 1.410 . S
C1236 C1237 1.392 . S
C1236 C1239 1.511 1_545 S
C1237 C1233 1.376 . S
C1237 C1236 1.392 . S
C1237 H1249 0.929 1_545 S
C1238 C1234 1.531 1_455 S
C1238 H1250 0.960 . S
C1238 H1251 0.962 . S
C1238 H1252 0.960 . S
C1239 C1236 1.511 1_565 S
C1239 H1253 0.961 . S
C1239 H1254 0.961 1_565 S
C1239 H1255 0.961 . S
C1240 C1241 1.370 . S
C1240 C1242 1.363 . S
C1240 H1256 0.931 . S
C1241 C1240 1.370 . S
C1241 C1245 1.408 . S
C1242 C1240 1.363 . S
C1242 C1243 1.370 . S
C1242 C1246 1.524 1_455 S
C1243 C1235 1.503 1_455 S
C1243 C1242 1.370 . S
C1243 C1244 1.402 . S
C1244 C1243 1.402 . S
C1244 C1245 1.404 . S
C1244 C1247 1.539 1_545 S
C1245 C1241 1.408 . S
C1245 C1244 1.404 . S
C1245 H1257 0.930 . S
C1246 C1242 1.524 1_655 S
C1246 H1258 0.956 . S
C1246 H1259 0.961 . S
C1246 H1260 0.961 . S
C1247 C1244 1.539 1_565 S
C1247 H1261 0.958 . S
C1247 H1262 0.961 . S
C1247 H1263 0.960 1_455 S
H1248 C1232 0.931 . S
H1249 C1237 0.929 1_565 S
H1250 C1238 0.960 . S
H1251 C1238 0.962 . S
H1252 C1238 0.960 . S
H1253 C1239 0.961 . S
H1254 C1239 0.961 1_545 S
H1255 C1239 0.961 . S
H1256 C1240 0.931 . S
H1257 C1245 0.930 . S
H1258 C1246 0.956 . S
H1259 C1246 0.961 . S
H1260 C1246 0.961 . S
H1261 C1247 0.958 . S
H1262 C1247 0.961 . S
H1263 C1247 0.960 1_655 S
C1264 C1265 1.391 . S
C1264 C1266 1.394 . S
C1264 H1280 0.931 . S
C1265 C1264 1.391 . S
C1265 C1269 1.376 . S
C1266 C1264 1.394 . S
C1266 C1267 1.369 . S
C1266 C1270 1.531 . S
C1267 C1266 1.369 . S
C1267 C1268 1.410 . S
C1267 C1275 1.503 . S
C1268 C1267 1.410 . S
C1268 C1269 1.392 . S
C1268 C1271 1.511 . S
C1269 C1265 1.376 . S
C1269 C1268 1.392 . S
C1269 H1281 0.929 . S
C1270 C1266 1.531 . S
C1270 H1282 0.960 . S
C1270 H1283 0.962 . S
C1270 H1284 0.960 . S
C1271 C1268 1.511 . S
C1271 H1285 0.961 . S
C1271 H1286 0.961 . S
C1271 H1287 0.961 . S
C1272 C1273 1.370 . S
C1272 C1274 1.363 . S
C1272 H1288 0.931 . S
C1273 C1272 1.370 . S
C1273 C1277 1.408 . S
C1274 C1272 1.363 . S
C1274 C1275 1.370 . S
C1274 C1278 1.524 . S
C1275 C1267 1.503 . S
C1275 C1274 1.370 . S
C1275 C1276 1.403 . S
C1276 C1275 1.403 . S
C1276 C1277 1.404 . S
C1276 C1279 1.539 . S
C1277 C1273 1.408 . S
C1277 C1276 1.404 . S
C1277 H1289 0.930 . S
C1278 C1274 1.524 . S
C1278 H1290 0.956 . S
C1278 H1291 0.961 . S
C1278 H1292 0.961 . S
C1279 C1276 1.539 . S
C1279 H1293 0.958 . S
C1279 H1294 0.961 . S
C1279 H1295 0.960 . S
H1280 C1264 0.931 . S
H1281 C1269 0.929 . S
H1282 C1270 0.960 . S
H1283 C1270 0.962 . S
H1284 C1270 0.960 . S
H1285 C1271 0.961 . S
H1286 C1271 0.961 . S
H1287 C1271 0.961 . S
H1288 C1272 0.931 . S
H1289 C1277 0.930 . S
H1290 C1278 0.956 . S
H1291 C1278 0.961 . S
H1292 C1278 0.961 . S
H1293 C1279 0.958 . S
H1294 C1279 0.961 . S
H1295 C1279 0.960 . S
C1296 C1297 1.391 . S
C1296 C1298 1.394 . S
C1296 H1312 0.931 . S
C1297 C1296 1.391 . S
C1297 C1301 1.376 . S
C1298 C1296 1.394 . S
C1298 C1299 1.369 . S
C1298 C1302 1.531 . S
C1299 C1298 1.369 . S
C1299 C1300 1.410 . S
C1299 C1307 1.503 . S
C1300 C1299 1.410 . S
C1300 C1301 1.392 . S
C1300 C1303 1.511 . S
C1301 C1297 1.376 . S
C1301 C1300 1.392 . S
C1301 H1313 0.929 . S
C1302 C1298 1.531 . S
C1302 H1314 0.960 . S
C1302 H1315 0.962 . S
C1302 H1316 0.960 . S
C1303 C1300 1.511 . S
C1303 H1317 0.961 . S
C1303 H1318 0.961 . S
C1303 H1319 0.961 . S
C1304 C1305 1.400 . S
C1304 C1306 1.359 . S
C1304 H1320 0.905 1_545 S
C1305 C1304 1.400 . S
C1305 C1309 1.408 . S
C1306 C1304 1.359 . S
C1306 C1307 1.370 . S
C1306 C1310 1.524 1_545 S
C1307 C1299 1.503 . S
C1307 C1306 1.370 . S
C1307 C1308 1.403 . S
C1308 C1307 1.403 . S
C1308 C1309 1.404 . S
C1308 C1311 1.539 . S
C1309 C1305 1.408 . S
C1309 C1308 1.404 . S
C1309 H1321 0.930 . S
C1310 C1306 1.524 1_565 S
C1310 H1322 0.956 . S
C1310 H1323 0.961 . S
C1310 H1324 0.961 . S
C1311 C1308 1.539 . S
C1311 H1325 0.958 . S
C1311 H1326 0.961 . S
C1311 H1327 0.960 . S
H1312 C1296 0.931 . S
H1313 C1301 0.929 . S
H1314 C1302 0.960 . S
H1315 C1302 0.962 . S
H1316 C1302 0.960 . S
H1317 C1303 0.961 . S
H1318 C1303 0.961 . S
H1319 C1303 0.961 . S
H1320 C1304 0.905 1_565 S
H1321 C1309 0.930 . S
H1322 C1310 0.956 . S
H1323 C1310 0.961 . S
H1324 C1310 0.961 . S
H1325 C1311 0.958 . S
H1326 C1311 0.961 . S
H1327 C1311 0.960 . S
C1328 C1329 1.391 . S
C1328 C1330 1.394 . S
C1328 H1344 0.931 . S
C1329 C1328 1.391 . S
C1329 C1333 1.376 . S
C1330 C1328 1.394 . S
C1330 C1331 1.369 . S
C1330 C1334 1.531 . S
C1331 C1330 1.369 . S
C1331 C1332 1.410 . S
C1331 C1339 1.503 . S
C1332 C1331 1.410 . S
C1332 C1333 1.392 . S
C1332 C1335 1.511 . S
C1333 C1329 1.376 . S
C1333 C1332 1.392 . S
C1333 H1345 0.929 . S
C1334 C1330 1.531 . S
C1334 H1346 0.960 . S
C1334 H1347 0.962 . S
C1334 H1348 0.960 . S
C1335 C1332 1.511 . S
C1335 H1349 0.961 . S
C1335 H1350 0.961 . S
C1335 H1351 0.961 . S
C1336 C1337 1.370 . S
C1336 C1338 1.363 . S
C1336 H1352 0.931 . S
C1337 C1336 1.370 . S
C1337 C1341 1.408 . S
C1338 C1336 1.363 . S
C1338 C1339 1.370 . S
C1338 C1342 1.524 . S
C1339 C1331 1.503 . S
C1339 C1338 1.370 . S
C1339 C1340 1.403 . S
C1340 C1339 1.403 . S
C1340 C1341 1.404 . S
C1340 C1343 1.539 . S
C1341 C1337 1.408 . S
C1341 C1340 1.404 . S
C1341 H1353 0.930 . S
C1342 C1338 1.524 . S
C1342 H1354 0.956 . S
C1342 H1355 0.961 . S
C1342 H1356 0.961 . S
C1343 C1340 1.539 . S
C1343 H1357 0.958 . S
C1343 H1358 0.961 . S
C1343 H1359 0.960 . S
H1344 C1328 0.931 . S
H1345 C1333 0.929 . S
H1346 C1334 0.960 . S
H1347 C1334 0.962 . S
H1348 C1334 0.960 . S
H1349 C1335 0.961 . S
H1350 C1335 0.961 . S
H1351 C1335 0.961 . S
H1352 C1336 0.931 . S
H1353 C1341 0.930 . S
H1354 C1342 0.956 . S
H1355 C1342 0.961 . S
H1356 C1342 0.961 . S
H1357 C1343 0.958 . S
H1358 C1343 0.961 . S
H1359 C1343 0.960 . S
C1360 C1361 1.391 1_565 S
C1360 C1362 1.394 . S
C1360 H1376 0.931 . S
C1361 C1360 1.391 1_545 S
C1361 C1365 1.376 . S
C1362 C1360 1.394 . S
C1362 C1363 1.369 1_565 S
C1362 C1366 1.531 . S
C1363 C1362 1.369 1_545 S
C1363 C1364 1.410 . S
C1363 C1371 1.503 . S
C1364 C1363 1.410 . S
C1364 C1365 1.392 . S
C1364 C1367 1.511 1_655 S
C1365 C1361 1.376 . S
C1365 C1364 1.392 . S
C1365 H1377 0.929 . S
C1366 C1362 1.531 . S
C1366 H1378 0.960 . S
C1366 H1379 0.962 . S
C1366 H1380 0.960 . S
C1367 C1364 1.511 1_455 S
C1367 H1381 0.961 . S
C1367 H1382 0.961 . S
C1367 H1383 0.961 . S
C1368 C1369 1.370 1_655 S
C1368 C1370 1.363 . S
C1368 H1384 0.931 . S
C1369 C1368 1.370 1_455 S
C1369 C1373 1.408 1_545 S
C1370 C1368 1.363 . S
C1370 C1371 1.370 . S
C1370 C1374 1.524 . S
C1371 C1363 1.503 . S
C1371 C1370 1.370 . S
C1371 C1372 1.403 1_545 S
C1372 C1371 1.403 1_565 S
C1372 C1373 1.404 1_655 S
C1372 C1375 1.539 . S
C1373 C1369 1.408 1_565 S
C1373 C1372 1.404 1_455 S
C1373 H1385 0.930 . S
C1374 C1370 1.524 . S
C1374 H1386 0.956 . S
C1374 H1387 0.961 . S
C1374 H1388 0.961 . S
C1375 C1372 1.539 . S
C1375 H1389 0.958 . S
C1375 H1390 0.961 1_655 S
C1375 H1391 0.960 . S
H1376 C1360 0.931 . S
H1377 C1365 0.929 . S
H1378 C1366 0.960 . S
H1379 C1366 0.962 . S
H1380 C1366 0.960 . S
H1381 C1367 0.961 . S
H1382 C1367 0.961 . S
H1383 C1367 0.961 . S
H1384 C1368 0.931 . S
H1385 C1373 0.930 . S
H1386 C1374 0.956 . S
H1387 C1374 0.961 . S
H1388 C1374 0.961 . S
H1389 C1375 0.958 . S
H1390 C1375 0.961 1_455 S
H1391 C1375 0.960 . S
C1392 C1393 1.391 . S
C1392 C1394 1.394 . S
C1392 H1408 0.931 . S
C1393 C1392 1.391 . S
C1393 C1397 1.376 . S
C1394 C1392 1.394 . S
C1394 C1395 1.369 . S
C1394 C1398 1.531 . S
C1395 C1394 1.369 . S
C1395 C1396 1.410 . S
C1395 C1403 1.503 . S
C1396 C1395 1.410 . S
C1396 C1397 1.392 . S
C1396 C1399 1.511 . S
C1397 C1393 1.376 . S
C1397 C1396 1.392 . S
C1397 H1409 0.929 . S
C1398 C1394 1.531 . S
C1398 H1410 0.960 . S
C1398 H1411 0.962 . S
C1398 H1412 0.960 . S
C1399 C1396 1.511 . S
C1399 H1413 0.961 . S
C1399 H1414 0.961 . S
C1399 H1415 0.961 . S
C1400 C1401 1.370 . S
C1400 C1402 1.363 . S
C1400 H1416 0.931 . S
C1401 C1400 1.370 . S
C1401 C1405 1.408 . S
C1402 C1400 1.363 . S
C1402 C1403 1.370 . S
C1402 C1406 1.524 . S
C1403 C1395 1.503 . S
C1403 C1402 1.370 . S
C1403 C1404 1.403 . S
C1404 C1403 1.403 . S
C1404 C1405 1.404 . S
C1404 C1407 1.539 . S
C1405 C1401 1.408 . S
C1405 C1404 1.404 . S
C1405 H1417 0.930 . S
C1406 C1402 1.524 . S
C1406 H1418 0.956 . S
C1406 H1419 0.961 . S
C1406 H1420 0.961 . S
C1407 C1404 1.539 . S
C1407 H1421 0.958 . S
C1407 H1422 0.961 . S
C1407 H1423 0.960 . S
H1408 C1392 0.931 . S
H1409 C1397 0.929 . S
H1410 C1398 0.960 . S
H1411 C1398 0.962 . S
H1412 C1398 0.960 . S
H1413 C1399 0.961 . S
H1414 C1399 0.961 . S
H1415 C1399 0.961 . S
H1416 C1400 0.931 . S
H1417 C1405 0.930 . S
H1418 C1406 0.956 . S
H1419 C1406 0.961 . S
H1420 C1406 0.961 . S
H1421 C1407 0.958 . S
H1422 C1407 0.961 . S
H1423 C1407 0.960 . S
C1424 C1425 1.391 . S
C1424 C1426 1.394 . S
C1424 H1440 0.931 . S
C1425 C1424 1.391 . S
C1425 C1429 1.376 . S
C1426 C1424 1.394 . S
C1426 C1427 1.369 . S
C1426 C1430 1.531 . S
C1427 C1426 1.369 . S
C1427 C1428 1.410 . S
C1427 C1435 1.503 . S
C1428 C1427 1.410 . S
C1428 C1429 1.392 . S
C1428 C1431 1.511 . S
C1429 C1425 1.376 . S
C1429 C1428 1.392 . S
C1429 H1441 0.929 . S
C1430 C1426 1.531 . S
C1430 H1442 0.945 1_545 S
C1430 H1443 0.962 . S
C1430 H1444 0.960 1_545 S
C1431 C1428 1.511 . S
C1431 H1445 0.961 . S
C1431 H1446 0.961 . S
C1431 H1447 0.961 . S
C1432 C1433 1.370 . S
C1432 C1434 1.363 . S
C1432 H1448 0.931 . S
C1433 C1432 1.370 . S
C1433 C1437 1.408 . S
C1434 C1432 1.363 . S
C1434 C1435 1.370 . S
C1434 C1438 1.524 . S
C1435 C1427 1.503 . S
C1435 C1434 1.370 . S
C1435 C1436 1.403 . S
C1436 C1435 1.403 . S
C1436 C1437 1.404 . S
C1436 C1439 1.529 1_545 S
C1437 C1433 1.408 . S
C1437 C1436 1.404 . S
C1437 H1449 0.930 . S
C1438 C1434 1.524 . S
C1438 H1450 0.956 . S
C1438 H1451 0.961 . S
C1438 H1452 0.961 . S
C1439 C1436 1.529 1_565 S
C1439 H1453 0.965 . S
C1439 H1454 0.965 . S
C1439 H1455 0.959 1_565 S
H1440 C1424 0.931 . S
H1441 C1429 0.929 . S
H1442 C1430 0.945 1_565 S
H1443 C1430 0.962 . S
H1444 C1430 0.960 1_565 S
H1445 C1431 0.961 . S
H1446 C1431 0.961 . S
H1447 C1431 0.961 . S
H1448 C1432 0.931 . S
H1449 C1437 0.930 . S
H1450 C1438 0.956 . S
H1451 C1438 0.961 . S
H1452 C1438 0.961 . S
H1453 C1439 0.965 . S
H1454 C1439 0.965 . S
H1455 C1439 0.959 1_545 S
C1456 C1457 1.391 . S
C1456 C1458 1.394 . S
C1456 H1472 0.931 . S
C1457 C1456 1.391 . S
C1457 C1461 1.376 . S
C1458 C1456 1.394 . S
C1458 C1459 1.369 . S
C1458 C1462 1.531 . S
C1459 C1458 1.369 . S
C1459 C1460 1.410 . S
C1459 C1467 1.503 . S
C1460 C1459 1.410 . S
C1460 C1461 1.392 . S
C1460 C1463 1.511 . S
C1461 C1457 1.376 . S
C1461 C1460 1.392 . S
C1461 H1473 0.929 . S
C1462 C1458 1.531 . S
C1462 H1474 0.960 . S
C1462 H1475 0.962 . S
C1462 H1476 0.960 . S
C1463 C1460 1.511 . S
C1463 H1477 0.961 . S
C1463 H1478 0.961 . S
C1463 H1479 0.961 . S
C1464 C1465 1.370 . S
C1464 C1466 1.363 . S
C1464 H1480 0.931 . S
C1465 C1464 1.370 . S
C1465 C1469 1.408 . S
C1466 C1464 1.363 . S
C1466 C1467 1.370 . S
C1466 C1470 1.524 . S
C1467 C1459 1.503 . S
C1467 C1466 1.370 . S
C1467 C1468 1.403 . S
C1468 C1467 1.403 . S
C1468 C1469 1.404 . S
C1468 C1471 1.539 . S
C1469 C1465 1.408 . S
C1469 C1468 1.404 . S
C1469 H1481 0.930 . S
C1470 C1466 1.524 . S
C1470 H1482 0.956 . S
C1470 H1483 0.961 . S
C1470 H1484 0.961 . S
C1471 C1468 1.539 . S
C1471 H1485 0.958 . S
C1471 H1486 0.961 . S
C1471 H1487 0.960 . S
H1472 C1456 0.931 . S
H1473 C1461 0.929 . S
H1474 C1462 0.960 . S
H1475 C1462 0.962 . S
H1476 C1462 0.960 . S
H1477 C1463 0.961 . S
H1478 C1463 0.961 . S
H1479 C1463 0.961 . S
H1480 C1464 0.931 . S
H1481 C1469 0.930 . S
H1482 C1470 0.956 . S
H1483 C1470 0.961 . S
H1484 C1470 0.961 . S
H1485 C1471 0.958 . S
H1486 C1471 0.961 . S
H1487 C1471 0.960 . S
C1488 C1489 1.391 . S
C1488 C1490 1.394 . S
C1488 H1504 0.931 1_554 S
C1489 C1488 1.391 . S
C1489 C1493 1.376 . S
C1490 C1488 1.394 . S
C1490 C1491 1.369 . S
C1490 C1494 1.531 1_565 S
C1491 C1490 1.369 . S
C1491 C1492 1.410 . S
C1491 C1499 1.503 . S
C1492 C1491 1.410 . S
C1492 C1493 1.392 . S
C1492 C1495 1.511 . S
C1493 C1489 1.376 . S
C1493 C1492 1.392 . S
C1493 H1505 0.929 . S
C1494 C1490 1.531 1_545 S
C1494 H1506 0.960 . S
C1494 H1507 0.962 . S
C1494 H1508 0.960 1_554 S
C1495 C1492 1.511 . S
C1495 H1509 0.961 . S
C1495 H1510 0.961 . S
C1495 H1511 0.961 . S
C1496 C1497 1.370 . S
C1496 C1498 1.363 . S
C1496 H1512 0.931 . S
C1497 C1496 1.370 . S
C1497 C1501 1.408 . S
C1498 C1496 1.363 . S
C1498 C1499 1.370 1_545 S
C1498 C1502 1.524 . S
C1499 C1491 1.503 . S
C1499 C1498 1.370 1_565 S
C1499 C1500 1.403 . S
C1500 C1499 1.403 . S
C1500 C1501 1.404 1_565 S
C1500 C1503 1.539 . S
C1501 C1497 1.408 . S
C1501 C1500 1.404 1_545 S
C1501 H1513 0.921 . S
C1502 C1498 1.524 . S
C1502 H1514 0.956 . S
C1502 H1515 0.981 . S
C1502 H1516 0.961 . S
C1503 C1500 1.539 . S
C1503 H1517 0.958 1_554 S
C1503 H1518 0.961 . S
C1503 H1519 0.960 . S
H1504 C1488 0.931 1_556 S
H1505 C1493 0.929 . S
H1506 C1494 0.960 . S
H1507 C1494 0.962 . S
H1508 C1494 0.960 1_556 S
H1509 C1495 0.961 . S
H1510 C1495 0.961 . S
H1511 C1495 0.961 . S
H1512 C1496 0.931 . S
H1513 C1501 0.921 . S
H1514 C1502 0.956 . S
H1515 C1502 0.981 . S
H1516 C1502 0.961 . S
H1517 C1503 0.958 1_556 S
H1518 C1503 0.961 . S
H1519 C1503 0.960 . S
C1520 C1521 1.391 . S
C1520 C1522 1.394 . S
C1520 H1536 0.931 1_554 S
C1521 C1520 1.391 . S
C1521 C1525 1.376 . S
C1522 C1520 1.394 . S
C1522 C1523 1.369 . S
C1522 C1526 1.531 1_554 S
C1523 C1522 1.369 . S
C1523 C1524 1.410 . S
C1523 C1531 1.503 . S
C1524 C1523 1.410 . S
C1524 C1525 1.392 . S
C1524 C1527 1.511 . S
C1525 C1521 1.376 . S
C1525 C1524 1.392 . S
C1525 H1537 0.929 . S
C1526 C1522 1.531 1_556 S
C1526 H1538 0.960 . S
C1526 H1539 0.962 . S
C1526 H1540 0.960 . S
C1527 C1524 1.511 . S
C1527 H1541 0.961 . S
C1527 H1542 0.961 . S
C1527 H1543 0.961 . S
C1528 C1529 1.370 . S
C1528 C1530 1.363 . S
C1528 H1544 0.931 . S
C1529 C1528 1.370 . S
C1529 C1533 1.408 . S
C1530 C1528 1.363 . S
C1530 C1531 1.370 . S
C1530 C1534 1.524 . S
C1531 C1523 1.503 . S
C1531 C1530 1.370 . S
C1531 C1532 1.403 . S
C1532 C1531 1.403 . S
C1532 C1533 1.404 . S
C1532 C1535 1.539 1_554 S
C1533 C1529 1.408 . S
C1533 C1532 1.404 . S
C1533 H1545 0.930 . S
C1534 C1530 1.524 . S
C1534 H1546 0.956 . S
C1534 H1547 0.961 . S
C1534 H1548 0.961 . S
C1535 C1532 1.539 1_556 S
C1535 H1549 0.958 . S
C1535 H1550 0.961 . S
C1535 H1551 0.960 1_556 S
H1536 C1520 0.931 1_556 S
H1537 C1525 0.929 . S
H1538 C1526 0.960 . S
H1539 C1526 0.962 . S
H1540 C1526 0.960 . S
H1541 C1527 0.961 . S
H1542 C1527 0.961 . S
H1543 C1527 0.961 . S
H1544 C1528 0.931 . S
H1545 C1533 0.930 . S
H1546 C1534 0.956 . S
H1547 C1534 0.961 . S
H1548 C1534 0.961 . S
H1549 C1535 0.958 . S
H1550 C1535 0.961 . S
H1551 C1535 0.960 1_554 S
C1552 C1553 1.391 . S
C1552 C1554 1.394 . S
C1552 H1568 0.931 . S
C1553 C1552 1.391 . S
C1553 C1557 1.376 . S
C1554 C1552 1.394 . S
C1554 C1555 1.369 . S
C1554 C1558 1.531 . S
C1555 C1554 1.369 . S
C1555 C1556 1.410 . S
C1555 C1563 1.503 . S
C1556 C1555 1.410 . S
C1556 C1557 1.392 . S
C1556 C1559 1.511 . S
C1557 C1553 1.376 . S
C1557 C1556 1.392 . S
C1557 H1569 0.929 . S
C1558 C1554 1.531 . S
C1558 H1570 0.960 . S
C1558 H1571 0.962 . S
C1558 H1572 0.960 . S
C1559 C1556 1.511 . S
C1559 H1573 0.961 . S
C1559 H1574 0.961 . S
C1559 H1575 0.961 . S
C1560 C1561 1.370 . S
C1560 C1562 1.363 . S
C1560 H1576 0.931 . S
C1561 C1560 1.370 . S
C1561 C1565 1.408 . S
C1562 C1560 1.363 . S
C1562 C1563 1.370 . S
C1562 C1566 1.524 . S
C1563 C1555 1.503 . S
C1563 C1562 1.370 . S
C1563 C1564 1.403 . S
C1564 C1563 1.403 . S
C1564 C1565 1.404 . S
C1564 C1567 1.539 . S
C1565 C1561 1.408 . S
C1565 C1564 1.404 . S
C1565 H1577 0.930 . S
C1566 C1562 1.524 . S
C1566 H1578 0.956 . S
C1566 H1579 0.961 . S
C1566 H1580 0.961 . S
C1567 C1564 1.539 . S
C1567 H1581 0.958 . S
C1567 H1582 0.961 . S
C1567 H1583 0.960 . S
H1568 C1552 0.931 . S
H1569 C1557 0.929 . S
H1570 C1558 0.960 . S
H1571 C1558 0.962 . S
H1572 C1558 0.960 . S
H1573 C1559 0.961 . S
H1574 C1559 0.961 . S
H1575 C1559 0.961 . S
H1576 C1560 0.931 . S
H1577 C1565 0.930 . S
H1578 C1566 0.956 . S
H1579 C1566 0.961 . S
H1580 C1566 0.961 . S
H1581 C1567 0.958 . S
H1582 C1567 0.961 . S
H1583 C1567 0.960 . S
C1584 C1585 1.391 . S
C1584 C1586 1.394 . S
C1584 H1600 0.931 . S
C1585 C1584 1.391 . S
C1585 C1589 1.376 . S
C1586 C1584 1.394 . S
C1586 C1587 1.369 . S
C1586 C1590 1.531 . S
C1587 C1586 1.369 . S
C1587 C1588 1.410 . S
C1587 C1595 1.503 . S
C1588 C1587 1.410 . S
C1588 C1589 1.392 . S
C1588 C1591 1.511 . S
C1589 C1585 1.376 . S
C1589 C1588 1.392 . S
C1589 H1601 0.929 . S
C1590 C1586 1.531 . S
C1590 H1602 0.960 . S
C1590 H1603 0.962 . S
C1590 H1604 0.960 . S
C1591 C1588 1.511 . S
C1591 H1605 0.961 . S
C1591 H1606 0.961 . S
C1591 H1607 0.961 . S
C1592 C1593 1.370 . S
C1592 C1594 1.363 . S
C1592 H1608 0.931 . S
C1593 C1592 1.370 . S
C1593 C1597 1.408 . S
C1594 C1592 1.363 . S
C1594 C1595 1.370 . S
C1594 C1598 1.524 . S
C1595 C1587 1.503 . S
C1595 C1594 1.370 . S
C1595 C1596 1.403 . S
C1596 C1595 1.403 . S
C1596 C1597 1.404 . S
C1596 C1599 1.539 . S
C1597 C1593 1.408 . S
C1597 C1596 1.404 . S
C1597 H1609 0.930 . S
C1598 C1594 1.524 . S
C1598 H1610 0.956 . S
C1598 H1611 0.961 . S
C1598 H1612 0.961 . S
C1599 C1596 1.539 . S
C1599 H1613 0.958 . S
C1599 H1614 0.961 . S
C1599 H1615 0.960 . S
H1600 C1584 0.931 . S
H1601 C1589 0.929 . S
H1602 C1590 0.960 . S
H1603 C1590 0.962 . S
H1604 C1590 0.960 . S
H1605 C1591 0.961 . S
H1606 C1591 0.961 . S
H1607 C1591 0.961 . S
H1608 C1592 0.931 . S
H1609 C1597 0.930 . S
H1610 C1598 0.956 . S
H1611 C1598 0.961 . S
H1612 C1598 0.961 . S
H1613 C1599 0.958 . S
H1614 C1599 0.961 . S
H1615 C1599 0.960 . S
C1616 C1617 1.391 . S
C1616 C1618 1.394 . S
C1616 H1632 0.931 . S
C1617 C1616 1.391 . S
C1617 C1621 1.376 . S
C1618 C1616 1.394 . S
C1618 C1619 1.369 . S
C1618 C1622 1.531 . S
C1619 C1618 1.369 . S
C1619 C1620 1.410 . S
C1619 C1627 1.503 . S
C1620 C1619 1.410 . S
C1620 C1621 1.392 . S
C1620 C1623 1.511 . S
C1621 C1617 1.376 . S
C1621 C1620 1.392 . S
C1621 H1633 0.929 . S
C1622 C1618 1.531 . S
C1622 H1634 0.960 . S
C1622 H1635 0.962 . S
C1622 H1636 0.960 . S
C1623 C1620 1.511 . S
C1623 H1637 0.961 . S
C1623 H1638 0.961 . S
C1623 H1639 0.961 . S
C1624 C1625 1.370 . S
C1624 C1626 1.363 . S
C1624 H1640 0.931 . S
C1625 C1624 1.370 . S
C1625 C1629 1.408 . S
C1626 C1624 1.363 . S
C1626 C1627 1.370 . S
C1626 C1630 1.524 . S
C1627 C1619 1.503 . S
C1627 C1626 1.370 . S
C1627 C1628 1.403 . S
C1628 C1627 1.403 . S
C1628 C1629 1.404 . S
C1628 C1631 1.539 . S
C1629 C1625 1.408 . S
C1629 C1628 1.404 . S
C1629 H1641 0.930 . S
C1630 C1626 1.524 . S
C1630 H1642 0.956 . S
C1630 H1643 0.961 . S
C1630 H1644 0.961 . S
C1631 C1628 1.539 . S
C1631 H1645 0.958 . S
C1631 H1646 0.961 . S
C1631 H1647 0.960 . S
H1632 C1616 0.931 . S
H1633 C1621 0.929 . S
H1634 C1622 0.960 . S
H1635 C1622 0.962 . S
H1636 C1622 0.960 . S
H1637 C1623 0.961 . S
H1638 C1623 0.961 . S
H1639 C1623 0.961 . S
H1640 C1624 0.931 . S
H1641 C1629 0.930 . S
H1642 C1630 0.956 . S
H1643 C1630 0.961 . S
H1644 C1630 0.961 . S
H1645 C1631 0.958 . S
H1646 C1631 0.961 . S
H1647 C1631 0.960 . S
C1648 C1649 1.391 . S
C1648 C1650 1.394 . S
C1648 H1664 0.931 . S
C1649 C1648 1.391 . S
C1649 C1653 1.376 . S
C1650 C1648 1.394 . S
C1650 C1651 1.369 . S
C1650 C1654 1.531 . S
C1651 C1650 1.369 . S
C1651 C1652 1.410 . S
C1651 C1659 1.503 . S
C1652 C1651 1.410 . S
C1652 C1653 1.392 . S
C1652 C1655 1.511 . S
C1653 C1649 1.376 . S
C1653 C1652 1.392 . S
C1653 H1665 0.929 . S
C1654 C1650 1.531 . S
C1654 H1666 0.960 . S
C1654 H1667 0.962 . S
C1654 H1668 0.960 . S
C1655 C1652 1.511 . S
C1655 H1669 0.961 . S
C1655 H1670 0.961 . S
C1655 H1671 0.961 . S
C1656 C1657 1.370 . S
C1656 C1658 1.363 . S
C1656 H1672 0.931 . S
C1657 C1656 1.370 . S
C1657 C1661 1.408 . S
C1658 C1656 1.363 . S
C1658 C1659 1.370 . S
C1658 C1662 1.524 . S
C1659 C1651 1.503 . S
C1659 C1658 1.370 . S
C1659 C1660 1.403 . S
C1660 C1659 1.403 . S
C1660 C1661 1.404 . S
C1660 C1663 1.539 . S
C1661 C1657 1.408 . S
C1661 C1660 1.404 . S
C1661 H1673 0.930 . S
C1662 C1658 1.524 . S
C1662 H1674 0.956 . S
C1662 H1675 0.961 . S
C1662 H1676 0.961 . S
C1663 C1660 1.539 . S
C1663 H1677 0.958 . S
C1663 H1678 0.961 . S
C1663 H1679 0.960 . S
H1664 C1648 0.931 . S
H1665 C1653 0.929 . S
H1666 C1654 0.960 . S
H1667 C1654 0.962 . S
H1668 C1654 0.960 . S
H1669 C1655 0.961 . S
H1670 C1655 0.961 . S
H1671 C1655 0.961 . S
H1672 C1656 0.931 . S
H1673 C1661 0.930 . S
H1674 C1662 0.956 . S
H1675 C1662 0.961 . S
H1676 C1662 0.961 . S
H1677 C1663 0.958 . S
H1678 C1663 0.961 . S
H1679 C1663 0.960 . S
C1680 C1681 1.391 . S
C1680 C1682 1.394 . S
C1680 H1696 0.931 . S
C1681 C1680 1.391 . S
C1681 C1685 1.376 . S
C1682 C1680 1.394 . S
C1682 C1683 1.369 . S
C1682 C1686 1.531 . S
C1683 C1682 1.369 . S
C1683 C1684 1.410 . S
C1683 C1691 1.503 . S
C1684 C1683 1.410 . S
C1684 C1685 1.392 . S
C1684 C1687 1.511 . S
C1685 C1681 1.376 . S
C1685 C1684 1.392 . S
C1685 H1697 0.929 . S
C1686 C1682 1.531 . S
C1686 H1698 0.960 . S
C1686 H1699 0.962 . S
C1686 H1700 0.960 . S
C1687 C1684 1.511 . S
C1687 H1701 0.961 . S
C1687 H1702 0.961 . S
C1687 H1703 0.961 . S
C1688 C1689 1.370 . S
C1688 C1690 1.363 . S
C1688 H1704 0.931 . S
C1689 C1688 1.370 . S
C1689 C1693 1.408 . S
C1690 C1688 1.363 . S
C1690 C1691 1.370 . S
C1690 C1694 1.524 . S
C1691 C1683 1.503 . S
C1691 C1690 1.370 . S
C1691 C1692 1.403 . S
C1692 C1691 1.403 . S
C1692 C1693 1.404 . S
C1692 C1695 1.539 . S
C1693 C1689 1.408 . S
C1693 C1692 1.404 . S
C1693 H1705 0.930 . S
C1694 C1690 1.524 . S
C1694 H1706 0.956 . S
C1694 H1707 0.961 . S
C1694 H1708 0.961 . S
C1695 C1692 1.539 . S
C1695 H1709 0.958 . S
C1695 H1710 0.961 . S
C1695 H1711 0.960 . S
H1696 C1680 0.931 . S
H1697 C1685 0.929 . S
H1698 C1686 0.960 . S
H1699 C1686 0.962 . S
H1700 C1686 0.960 . S
H1701 C1687 0.961 . S
H1702 C1687 0.961 . S
H1703 C1687 0.961 . S
H1704 C1688 0.931 . S
H1705 C1693 0.930 . S
H1706 C1694 0.956 . S
H1707 C1694 0.961 . S
H1708 C1694 0.961 . S
H1709 C1695 0.958 . S
H1710 C1695 0.961 . S
H1711 C1695 0.960 . S
C1712 C1713 1.391 . S
C1712 C1714 1.394 . S
C1712 H1728 0.931 . S
C1713 C1712 1.391 . S
C1713 C1717 1.376 . S
C1714 C1712 1.394 . S
C1714 C1715 1.369 . S
C1714 C1718 1.531 . S
C1715 C1714 1.369 . S
C1715 C1716 1.410 . S
C1715 C1723 1.503 . S
C1716 C1715 1.410 . S
C1716 C1717 1.392 . S
C1716 C1719 1.511 . S
C1717 C1713 1.376 . S
C1717 C1716 1.392 . S
C1717 H1729 0.929 . S
C1718 C1714 1.531 . S
C1718 H1730 0.960 . S
C1718 H1731 0.962 . S
C1718 H1732 0.960 . S
C1719 C1716 1.511 . S
C1719 H1733 0.961 . S
C1719 H1734 0.961 . S
C1719 H1735 0.961 . S
C1720 C1721 1.370 . S
C1720 C1722 1.363 . S
C1720 H1736 0.931 . S
C1721 C1720 1.370 . S
C1721 C1725 1.408 . S
C1722 C1720 1.363 . S
C1722 C1723 1.370 . S
C1722 C1726 1.524 . S
C1723 C1715 1.503 . S
C1723 C1722 1.370 . S
C1723 C1724 1.403 . S
C1724 C1723 1.403 . S
C1724 C1725 1.404 . S
C1724 C1727 1.539 . S
C1725 C1721 1.408 . S
C1725 C1724 1.404 . S
C1725 H1737 0.930 . S
C1726 C1722 1.524 . S
C1726 H1738 0.956 . S
C1726 H1739 0.961 . S
C1726 H1740 0.961 . S
C1727 C1724 1.539 . S
C1727 H1741 0.958 . S
C1727 H1742 0.961 . S
C1727 H1743 0.960 . S
H1728 C1712 0.931 . S
H1729 C1717 0.929 . S
H1730 C1718 0.960 . S
H1731 C1718 0.962 . S
H1732 C1718 0.960 . S
H1733 C1719 0.961 . S
H1734 C1719 0.961 . S
H1735 C1719 0.961 . S
H1736 C1720 0.931 . S
H1737 C1725 0.930 . S
H1738 C1726 0.956 . S
H1739 C1726 0.961 . S
H1740 C1726 0.961 . S
H1741 C1727 0.958 . S
H1742 C1727 0.961 . S
H1743 C1727 0.960 . S
C1744 C1745 1.391 . S
C1744 C1746 1.394 . S
C1744 H1760 0.931 . S
C1745 C1744 1.391 . S
C1745 C1749 1.376 . S
C1746 C1744 1.394 . S
C1746 C1747 1.369 . S
C1746 C1750 1.531 . S
C1747 C1746 1.369 . S
C1747 C1748 1.410 . S
C1747 C1755 1.503 . S
C1748 C1747 1.410 . S
C1748 C1749 1.392 . S
C1748 C1751 1.511 . S
C1749 C1745 1.376 . S
C1749 C1748 1.392 . S
C1749 H1761 0.929 . S
C1750 C1746 1.531 . S
C1750 H1762 0.960 . S
C1750 H1763 0.962 . S
C1750 H1764 0.960 . S
C1751 C1748 1.511 . S
C1751 H1765 0.961 . S
C1751 H1766 0.961 . S
C1751 H1767 0.961 . S
C1752 C1753 1.370 . S
C1752 C1754 1.363 . S
C1752 H1768 0.931 . S
C1753 C1752 1.370 . S
C1753 C1757 1.408 . S
C1754 C1752 1.363 . S
C1754 C1755 1.370 . S
C1754 C1758 1.524 . S
C1755 C1747 1.503 . S
C1755 C1754 1.370 . S
C1755 C1756 1.403 . S
C1756 C1755 1.403 . S
C1756 C1757 1.404 . S
C1756 C1759 1.539 . S
C1757 C1753 1.408 . S
C1757 C1756 1.404 . S
C1757 H1769 0.930 . S
C1758 C1754 1.524 . S
C1758 H1770 0.956 . S
C1758 H1771 0.961 . S
C1758 H1772 0.961 . S
C1759 C1756 1.539 . S
C1759 H1773 0.958 . S
C1759 H1774 0.961 . S
C1759 H1775 0.960 . S
H1760 C1744 0.931 . S
H1761 C1749 0.929 . S
H1762 C1750 0.960 . S
H1763 C1750 0.962 . S
H1764 C1750 0.960 . S
H1765 C1751 0.961 . S
H1766 C1751 0.961 . S
H1767 C1751 0.961 . S
H1768 C1752 0.931 . S
H1769 C1757 0.930 . S
H1770 C1758 0.956 . S
H1771 C1758 0.961 . S
H1772 C1758 0.961 . S
H1773 C1759 0.958 . S
H1774 C1759 0.961 . S
H1775 C1759 0.960 . S
C1776 C1777 1.391 . S
C1776 C1778 1.394 . S
C1776 H1792 0.931 . S
C1777 C1776 1.391 . S
C1777 C1781 1.376 . S
C1778 C1776 1.394 . S
C1778 C1779 1.369 . S
C1778 C1782 1.531 . S
C1779 C1778 1.369 . S
C1779 C1780 1.410 . S
C1779 C1787 1.503 . S
C1780 C1779 1.410 . S
C1780 C1781 1.392 . S
C1780 C1783 1.511 . S
C1781 C1777 1.376 . S
C1781 C1780 1.392 . S
C1781 H1793 0.929 . S
C1782 C1778 1.531 . S
C1782 H1794 0.960 . S
C1782 H1795 0.962 . S
C1782 H1796 0.960 . S
C1783 C1780 1.511 . S
C1783 H1797 0.961 . S
C1783 H1798 0.961 . S
C1783 H1799 0.961 . S
C1784 C1785 1.370 . S
C1784 C1786 1.363 . S
C1784 H1800 0.931 . S
C1785 C1784 1.370 . S
C1785 C1789 1.408 . S
C1786 C1784 1.363 . S
C1786 C1787 1.370 . S
C1786 C1790 1.524 . S
C1787 C1779 1.503 . S
C1787 C1786 1.370 . S
C1787 C1788 1.403 . S
C1788 C1787 1.403 . S
C1788 C1789 1.404 . S
C1788 C1791 1.539 . S
C1789 C1785 1.408 . S
C1789 C1788 1.404 . S
C1789 H1801 0.930 . S
C1790 C1786 1.524 . S
C1790 H1802 0.956 . S
C1790 H1803 0.961 . S
C1790 H1804 0.961 . S
C1791 C1788 1.539 . S
C1791 H1805 0.958 . S
C1791 H1806 0.961 . S
C1791 H1807 0.960 . S
H1792 C1776 0.931 . S
H1793 C1781 0.929 . S
H1794 C1782 0.960 . S
H1795 C1782 0.962 . S
H1796 C1782 0.960 . S
H1797 C1783 0.961 . S
H1798 C1783 0.961 . S
H1799 C1783 0.961 . S
H1800 C1784 0.931 . S
H1801 C1789 0.930 . S
H1802 C1790 0.956 . S
H1803 C1790 0.961 . S
H1804 C1790 0.961 . S
H1805 C1791 0.958 . S
H1806 C1791 0.961 . S
H1807 C1791 0.960 . S
C1808 C1809 1.391 . S
C1808 C1810 1.394 . S
C1808 H1824 0.931 . S
C1809 C1808 1.391 . S
C1809 C1813 1.376 . S
C1810 C1808 1.394 . S
C1810 C1811 1.369 . S
C1810 C1814 1.531 . S
C1811 C1810 1.369 . S
C1811 C1812 1.410 . S
C1811 C1819 1.503 . S
C1812 C1811 1.410 . S
C1812 C1813 1.392 . S
C1812 C1815 1.511 . S
C1813 C1809 1.376 . S
C1813 C1812 1.392 . S
C1813 H1825 0.929 . S
C1814 C1810 1.531 . S
C1814 H1826 0.960 . S
C1814 H1827 0.962 . S
C1814 H1828 0.960 . S
C1815 C1812 1.511 . S
C1815 H1829 0.961 . S
C1815 H1830 0.961 . S
C1815 H1831 0.961 . S
C1816 C1817 1.370 . S
C1816 C1818 1.363 . S
C1816 H1832 0.931 . S
C1817 C1816 1.370 . S
C1817 C1821 1.408 . S
C1818 C1816 1.363 . S
C1818 C1819 1.370 . S
C1818 C1822 1.524 . S
C1819 C1811 1.503 . S
C1819 C1818 1.370 . S
C1819 C1820 1.403 . S
C1820 C1819 1.403 . S
C1820 C1821 1.404 . S
C1820 C1823 1.539 . S
C1821 C1817 1.408 . S
C1821 C1820 1.404 . S
C1821 H1833 0.930 . S
C1822 C1818 1.524 . S
C1822 H1834 0.956 . S
C1822 H1835 0.961 . S
C1822 H1836 0.961 . S
C1823 C1820 1.539 . S
C1823 H1837 0.958 . S
C1823 H1838 0.961 . S
C1823 H1839 0.960 . S
H1824 C1808 0.931 . S
H1825 C1813 0.929 . S
H1826 C1814 0.960 . S
H1827 C1814 0.962 . S
H1828 C1814 0.960 . S
H1829 C1815 0.961 . S
H1830 C1815 0.961 . S
H1831 C1815 0.961 . S
H1832 C1816 0.931 . S
H1833 C1821 0.930 . S
H1834 C1822 0.956 . S
H1835 C1822 0.961 . S
H1836 C1822 0.961 . S
H1837 C1823 0.958 . S
H1838 C1823 0.961 . S
H1839 C1823 0.960 . S
C1840 C1841 1.391 . S
C1840 C1842 1.394 . S
C1840 H1856 0.931 . S
C1841 C1840 1.391 . S
C1841 C1845 1.376 . S
C1842 C1840 1.394 . S
C1842 C1843 1.369 . S
C1842 C1846 1.531 . S
C1843 C1842 1.369 . S
C1843 C1844 1.410 . S
C1843 C1851 1.503 . S
C1844 C1843 1.410 . S
C1844 C1845 1.392 . S
C1844 C1847 1.511 . S
C1845 C1841 1.376 . S
C1845 C1844 1.392 . S
C1845 H1857 0.929 . S
C1846 C1842 1.531 . S
C1846 H1858 0.960 . S
C1846 H1859 0.962 . S
C1846 H1860 0.960 . S
C1847 C1844 1.511 . S
C1847 H1861 0.961 . S
C1847 H1862 0.961 . S
C1847 H1863 0.961 . S
C1848 C1849 1.370 . S
C1848 C1850 1.363 . S
C1848 H1864 0.931 . S
C1849 C1848 1.370 . S
C1849 C1853 1.408 . S
C1850 C1848 1.363 . S
C1850 C1851 1.370 . S
C1850 C1854 1.524 . S
C1851 C1843 1.503 . S
C1851 C1850 1.370 . S
C1851 C1852 1.403 . S
C1852 C1851 1.403 . S
C1852 C1853 1.404 . S
C1852 C1855 1.539 . S
C1853 C1849 1.408 . S
C1853 C1852 1.404 . S
C1853 H1865 0.930 . S
C1854 C1850 1.524 . S
C1854 H1866 0.956 . S
C1854 H1867 0.961 . S
C1854 H1868 0.961 . S
C1855 C1852 1.539 . S
C1855 H1869 0.958 . S
C1855 H1870 0.961 . S
C1855 H1871 0.960 . S
H1856 C1840 0.931 . S
H1857 C1845 0.929 . S
H1858 C1846 0.960 . S
H1859 C1846 0.962 . S
H1860 C1846 0.960 . S
H1861 C1847 0.961 . S
H1862 C1847 0.961 . S
H1863 C1847 0.961 . S
H1864 C1848 0.931 . S
H1865 C1853 0.930 . S
H1866 C1854 0.956 . S
H1867 C1854 0.961 . S
H1868 C1854 0.961 . S
H1869 C1855 0.958 . S
H1870 C1855 0.961 . S
H1871 C1855 0.960 . S
C1872 C1873 1.391 . S
C1872 C1874 1.394 . S
C1872 H1888 0.931 . S
C1873 C1872 1.391 . S
C1873 C1877 1.376 . S
C1874 C1872 1.394 . S
C1874 C1875 1.369 . S
C1874 C1878 1.531 . S
C1875 C1874 1.369 . S
C1875 C1876 1.410 . S
C1875 C1883 1.503 . S
C1876 C1875 1.410 . S
C1876 C1877 1.392 . S
C1876 C1879 1.511 1_455 S
C1877 C1873 1.376 . S
C1877 C1876 1.392 . S
C1877 H1889 0.929 1_455 S
C1878 C1874 1.531 . S
C1878 H1890 0.960 . S
C1878 H1891 0.962 . S
C1878 H1892 0.960 . S
C1879 C1876 1.511 1_655 S
C1879 H1893 0.961 . S
C1879 H1894 0.961 . S
C1879 H1895 0.961 . S
C1880 C1881 1.370 . S
C1880 C1882 1.363 . S
C1880 H1896 0.931 . S
C1881 C1880 1.370 . S
C1881 C1885 1.408 . S
C1882 C1880 1.363 . S
C1882 C1883 1.370 . S
C1882 C1886 1.524 . S
C1883 C1875 1.503 . S
C1883 C1882 1.370 . S
C1883 C1884 1.403 . S
C1884 C1883 1.403 . S
C1884 C1885 1.404 . S
C1884 C1887 1.539 . S
C1885 C1881 1.408 . S
C1885 C1884 1.404 . S
C1885 H1897 0.930 . S
C1886 C1882 1.524 . S
C1886 H1898 0.956 . S
C1886 H1899 0.961 . S
C1886 H1900 0.961 . S
C1887 C1884 1.539 . S
C1887 H1901 0.958 . S
C1887 H1902 0.961 . S
C1887 H1903 0.960 . S
H1888 C1872 0.931 . S
H1889 C1877 0.929 1_655 S
H1890 C1878 0.960 . S
H1891 C1878 0.962 . S
H1892 C1878 0.960 . S
H1893 C1879 0.961 . S
H1894 C1879 0.961 . S
H1895 C1879 0.961 . S
H1896 C1880 0.931 . S
H1897 C1885 0.930 . S
H1898 C1886 0.956 . S
H1899 C1886 0.961 . S
H1900 C1886 0.961 . S
H1901 C1887 0.958 . S
H1902 C1887 0.961 . S
H1903 C1887 0.960 . S
C1904 C1905 1.391 . S
C1904 C1906 1.394 . S
C1904 H1920 0.931 . S
C1905 C1904 1.391 . S
C1905 C1909 1.376 . S
C1906 C1904 1.394 . S
C1906 C1907 1.369 . S
C1906 C1910 1.531 . S
C1907 C1906 1.369 . S
C1907 C1908 1.410 . S
C1907 C1915 1.503 . S
C1908 C1907 1.410 . S
C1908 C1909 1.392 . S
C1908 C1911 1.511 . S
C1909 C1905 1.376 . S
C1909 C1908 1.392 . S
C1909 H1921 0.929 . S
C1910 C1906 1.531 . S
C1910 H1922 0.960 . S
C1910 H1923 0.962 . S
C1910 H1924 0.960 . S
C1911 C1908 1.511 . S
C1911 H1925 0.961 . S
C1911 H1926 0.961 . S
C1911 H1927 0.961 . S
C1912 C1913 1.370 . S
C1912 C1914 1.363 . S
C1912 H1928 0.931 . S
C1913 C1912 1.370 . S
C1913 C1917 1.408 . S
C1914 C1912 1.363 . S
C1914 C1915 1.370 . S
C1914 C1918 1.524 . S
C1915 C1907 1.503 . S
C1915 C1914 1.370 . S
C1915 C1916 1.403 . S
C1916 C1915 1.403 . S
C1916 C1917 1.404 . S
C1916 C1919 1.539 . S
C1917 C1913 1.408 . S
C1917 C1916 1.404 . S
C1917 H1929 0.930 . S
C1918 C1914 1.524 . S
C1918 H1930 0.956 . S
C1918 H1931 0.961 . S
C1918 H1932 0.961 . S
C1919 C1916 1.539 . S
C1919 H1933 0.958 . S
C1919 H1934 0.961 . S
C1919 H1935 0.960 . S
H1920 C1904 0.931 . S
H1921 C1909 0.929 . S
H1922 C1910 0.960 . S
H1923 C1910 0.962 . S
H1924 C1910 0.960 . S
H1925 C1911 0.961 . S
H1926 C1911 0.961 . S
H1927 C1911 0.961 . S
H1928 C1912 0.931 . S
H1929 C1917 0.930 . S
H1930 C1918 0.956 . S
H1931 C1918 0.961 . S
H1932 C1918 0.961 . S
H1933 C1919 0.958 . S
H1934 C1919 0.961 . S
H1935 C1919 0.960 . S
C1936 C1937 1.391 . S
C1936 C1938 1.394 . S
C1936 H1952 0.931 . S
C1937 C1936 1.391 . S
C1937 C1941 1.376 . S
C1938 C1936 1.394 . S
C1938 C1939 1.369 . S
C1938 C1942 1.531 . S
C1939 C1938 1.369 . S
C1939 C1940 1.410 . S
C1939 C1947 1.503 . S
C1940 C1939 1.410 . S
C1940 C1941 1.392 . S
C1940 C1943 1.511 . S
C1941 C1937 1.376 . S
C1941 C1940 1.392 . S
C1941 H1953 0.929 . S
C1942 C1938 1.531 . S
C1942 H1954 0.960 . S
C1942 H1955 0.962 . S
C1942 H1956 0.960 . S
C1943 C1940 1.511 . S
C1943 H1957 0.961 . S
C1943 H1958 0.961 . S
C1943 H1959 0.961 . S
C1944 C1945 1.370 . S
C1944 C1946 1.363 . S
C1944 H1960 0.931 1_556 S
C1945 C1944 1.370 . S
C1945 C1949 1.408 . S
C1946 C1944 1.363 . S
C1946 C1947 1.370 . S
C1946 C1950 1.524 . S
C1947 C1939 1.503 . S
C1947 C1946 1.370 . S
C1947 C1948 1.403 . S
C1948 C1947 1.403 . S
C1948 C1949 1.404 . S
C1948 C1951 1.539 . S
C1949 C1945 1.408 . S
C1949 C1948 1.404 . S
C1949 H1961 0.930 . S
C1950 C1946 1.524 . S
C1950 H1962 0.956 . S
C1950 H1963 0.961 . S
C1950 H1964 0.960 . S
C1951 C1948 1.539 . S
C1951 H1965 0.958 . S
C1951 H1966 0.961 . S
C1951 H1967 0.960 . S
H1952 C1936 0.931 . S
H1953 C1941 0.929 . S
H1954 C1942 0.960 . S
H1955 C1942 0.962 . S
H1956 C1942 0.960 . S
H1957 C1943 0.961 . S
H1958 C1943 0.961 . S
H1959 C1943 0.961 . S
H1960 C1944 0.931 1_554 S
H1961 C1949 0.930 . S
H1962 C1950 0.956 . S
H1963 C1950 0.961 . S
H1964 C1950 0.960 . S
H1965 C1951 0.958 . S
H1966 C1951 0.961 . S
H1967 C1951 0.960 . S
C1968 C1969 1.391 . S
C1968 C1970 1.394 . S
C1968 H1984 0.931 . S
C1969 C1968 1.391 . S
C1969 C1973 1.376 . S
C1970 C1968 1.394 . S
C1970 C1971 1.369 . S
C1970 C1974 1.531 . S
C1971 C1970 1.369 . S
C1971 C1972 1.410 . S
C1971 C1979 1.503 . S
C1972 C1971 1.410 . S
C1972 C1973 1.392 . S
C1972 C1975 1.511 . S
C1973 C1969 1.376 . S
C1973 C1972 1.392 . S
C1973 H1985 0.929 . S
C1974 C1970 1.531 . S
C1974 H1986 0.960 . S
C1974 H1987 0.962 . S
C1974 H1988 0.960 . S
C1975 C1972 1.511 . S
C1975 H1989 0.961 . S
C1975 H1990 0.961 . S
C1975 H1991 0.961 . S
C1976 C1977 1.370 . S
C1976 C1978 1.363 . S
C1976 H1992 0.931 . S
C1977 C1976 1.370 . S
C1977 C1981 1.408 . S
C1978 C1976 1.363 . S
C1978 C1979 1.370 . S
C1978 C1982 1.524 . S
C1979 C1971 1.503 . S
C1979 C1978 1.370 . S
C1979 C1980 1.403 . S
C1980 C1979 1.403 . S
C1980 C1981 1.404 . S
C1980 C1983 1.539 . S
C1981 C1977 1.408 . S
C1981 C1980 1.404 . S
C1981 H1993 0.930 . S
C1982 C1978 1.524 . S
C1982 H1994 0.956 . S
C1982 H1995 0.961 . S
C1982 H1996 0.961 . S
C1983 C1980 1.539 . S
C1983 H1997 0.958 . S
C1983 H1998 0.961 . S
C1983 H1999 0.960 . S
H1984 C1968 0.931 . S
H1985 C1973 0.929 . S
H1986 C1974 0.960 . S
H1987 C1974 0.962 . S
H1988 C1974 0.960 . S
H1989 C1975 0.961 . S
H1990 C1975 0.961 . S
H1991 C1975 0.961 . S
H1992 C1976 0.931 . S
H1993 C1981 0.930 . S
H1994 C1982 0.956 . S
H1995 C1982 0.961 . S
H1996 C1982 0.961 . S
H1997 C1983 0.958 . S
H1998 C1983 0.961 . S
H1999 C1983 0.960 . S
C2000 C2001 1.391 . S
C2000 C2002 1.394 . S
C2000 H2016 0.931 . S
C2001 C2000 1.391 . S
C2001 C2005 1.376 . S
C2002 C2000 1.394 . S
C2002 C2003 1.369 . S
C2002 C2006 1.531 . S
C2003 C2002 1.369 . S
C2003 C2004 1.410 . S
C2003 C2011 1.503 . S
C2004 C2003 1.410 . S
C2004 C2005 1.392 . S
C2004 C2007 1.511 . S
C2005 C2001 1.376 . S
C2005 C2004 1.392 . S
C2005 H2017 0.929 . S
C2006 C2002 1.531 . S
C2006 H2018 0.960 . S
C2006 H2019 0.962 . S
C2006 H2020 0.960 . S
C2007 C2004 1.511 . S
C2007 H2021 0.961 . S
C2007 H2022 0.961 . S
C2007 H2023 0.961 . S
C2008 C2009 1.370 . S
C2008 C2010 1.363 . S
C2008 H2024 0.931 1_545 S
C2009 C2008 1.370 . S
C2009 C2013 1.408 . S
C2010 C2008 1.363 . S
C2010 C2011 1.370 . S
C2010 C2014 1.524 . S
C2011 C2003 1.503 . S
C2011 C2010 1.370 . S
C2011 C2012 1.403 . S
C2012 C2011 1.403 . S
C2012 C2013 1.404 . S
C2012 C2015 1.539 . S
C2013 C2009 1.408 . S
C2013 C2012 1.404 . S
C2013 H2025 0.930 . S
C2014 C2010 1.524 . S
C2014 H2026 0.956 1_545 S
C2014 H2027 0.961 . S
C2014 H2028 0.961 1_545 S
C2015 C2012 1.539 . S
C2015 H2029 0.958 . S
C2015 H2030 0.961 . S
C2015 H2031 0.960 . S
H2016 C2000 0.931 . S
H2017 C2005 0.929 . S
H2018 C2006 0.960 . S
H2019 C2006 0.962 . S
H2020 C2006 0.960 . S
H2021 C2007 0.961 . S
H2022 C2007 0.961 . S
H2023 C2007 0.961 . S
H2024 C2008 0.931 1_565 S
H2025 C2013 0.930 . S
H2026 C2014 0.956 1_565 S
H2027 C2014 0.961 . S
H2028 C2014 0.961 1_565 S
H2029 C2015 0.958 . S
H2030 C2015 0.961 . S
H2031 C2015 0.960 . S
C2032 C2033 1.391 . S
C2032 C2034 1.394 . S
C2032 H2048 0.931 . S
C2033 C2032 1.391 . S
C2033 C2037 1.376 . S
C2034 C2032 1.394 . S
C2034 C2035 1.369 . S
C2034 C2038 1.531 . S
C2035 C2034 1.369 . S
C2035 C2036 1.410 . S
C2035 C2043 1.503 . S
C2036 C2035 1.410 . S
C2036 C2037 1.392 . S
C2036 C2039 1.511 . S
C2037 C2033 1.376 . S
C2037 C2036 1.392 . S
C2037 H2049 0.929 . S
C2038 C2034 1.531 . S
C2038 H2050 0.960 . S
C2038 H2051 0.962 . S
C2038 H2052 0.960 . S
C2039 C2036 1.511 . S
C2039 H2053 0.961 . S
C2039 H2054 0.961 . S
C2039 H2055 0.961 . S
C2040 C2041 1.370 . S
C2040 C2042 1.363 . S
C2040 H2056 0.931 . S
C2041 C2040 1.370 . S
C2041 C2045 1.408 . S
C2042 C2040 1.363 . S
C2042 C2043 1.370 . S
C2042 C2046 1.524 . S
C2043 C2035 1.503 . S
C2043 C2042 1.370 . S
C2043 C2044 1.403 . S
C2044 C2043 1.403 . S
C2044 C2045 1.404 . S
C2044 C2047 1.539 . S
C2045 C2041 1.408 . S
C2045 C2044 1.404 . S
C2045 H2057 0.930 . S
C2046 C2042 1.524 . S
C2046 H2058 0.956 . S
C2046 H2059 0.961 . S
C2046 H2060 0.961 . S
C2047 C2044 1.539 . S
C2047 H2061 0.958 . S
C2047 H2062 0.961 . S
C2047 H2063 0.960 . S
H2048 C2032 0.931 . S
H2049 C2037 0.929 . S
H2050 C2038 0.960 . S
H2051 C2038 0.962 . S
H2052 C2038 0.960 . S
H2053 C2039 0.961 . S
H2054 C2039 0.961 . S
H2055 C2039 0.961 . S
H2056 C2040 0.931 . S
H2057 C2045 0.930 . S
H2058 C2046 0.956 . S
H2059 C2046 0.961 . S
H2060 C2046 0.961 . S
H2061 C2047 0.958 . S
H2062 C2047 0.961 . S
H2063 C2047 0.960 . S
C2064 C2065 1.391 . S
C2064 C2066 1.394 . S
C2064 H2080 0.931 . S
C2065 C2064 1.391 . S
C2065 C2069 1.376 . S
C2066 C2064 1.394 . S
C2066 C2067 1.369 . S
C2066 C2070 1.531 1_545 S
C2067 C2066 1.369 . S
C2067 C2068 1.410 . S
C2067 C2075 1.503 . S
C2068 C2067 1.410 . S
C2068 C2069 1.392 . S
C2068 C2071 1.511 . S
C2069 C2065 1.376 . S
C2069 C2068 1.392 . S
C2069 H2081 0.929 . S
C2070 C2066 1.531 1_565 S
C2070 H2082 0.960 . S
C2070 H2083 0.962 . S
C2070 H2084 0.960 . S
C2071 C2068 1.511 . S
C2071 H2085 0.961 . S
C2071 H2086 0.961 . S
C2071 H2087 0.961 . S
C2072 C2073 1.370 . S
C2072 C2074 1.363 . S
C2072 H2088 0.931 . S
C2073 C2072 1.370 . S
C2073 C2077 1.408 . S
C2074 C2072 1.363 . S
C2074 C2075 1.370 . S
C2074 C2078 1.524 . S
C2075 C2067 1.503 . S
C2075 C2074 1.370 . S
C2075 C2076 1.403 . S
C2076 C2075 1.403 . S
C2076 C2077 1.404 . S
C2076 C2079 1.539 . S
C2077 C2073 1.408 . S
C2077 C2076 1.404 . S
C2077 H2089 0.930 . S
C2078 C2074 1.524 . S
C2078 H2090 0.956 . S
C2078 H2091 0.961 . S
C2078 H2092 0.961 . S
C2079 C2076 1.539 . S
C2079 H2093 0.958 1_545 S
C2079 H2094 0.961 . S
C2079 H2095 0.960 . S
H2080 C2064 0.931 . S
H2081 C2069 0.929 . S
H2082 C2070 0.960 . S
H2083 C2070 0.962 . S
H2084 C2070 0.960 . S
H2085 C2071 0.961 . S
H2086 C2071 0.961 . S
H2087 C2071 0.961 . S
H2088 C2072 0.931 . S
H2089 C2077 0.930 . S
H2090 C2078 0.956 . S
H2091 C2078 0.961 . S
H2092 C2078 0.961 . S
H2093 C2079 0.958 1_565 S
H2094 C2079 0.961 . S
H2095 C2079 0.960 . S
C2096 C2097 1.391 . S
C2096 C2098 1.394 . S
C2096 H2112 0.931 . S
C2097 C2096 1.391 . S
C2097 C2101 1.376 . S
C2098 C2096 1.394 . S
C2098 C2099 1.369 . S
C2098 C2102 1.531 . S
C2099 C2098 1.369 . S
C2099 C2100 1.410 . S
C2099 C2107 1.503 . S
C2100 C2099 1.410 . S
C2100 C2101 1.392 . S
C2100 C2103 1.511 . S
C2101 C2097 1.376 . S
C2101 C2100 1.392 . S
C2101 H2113 0.929 . S
C2102 C2098 1.531 . S
C2102 H2114 0.960 . S
C2102 H2115 0.962 . S
C2102 H2116 0.960 . S
C2103 C2100 1.511 . S
C2103 H2117 0.961 . S
C2103 H2118 0.961 . S
C2103 H2119 0.961 . S
C2104 C2105 1.370 . S
C2104 C2106 1.363 . S
C2104 H2120 0.931 . S
C2105 C2104 1.370 . S
C2105 C2109 1.408 . S
C2106 C2104 1.363 . S
C2106 C2107 1.370 . S
C2106 C2110 1.524 . S
C2107 C2099 1.503 . S
C2107 C2106 1.370 . S
C2107 C2108 1.403 . S
C2108 C2107 1.403 . S
C2108 C2109 1.404 . S
C2108 C2111 1.539 . S
C2109 C2105 1.408 . S
C2109 C2108 1.404 . S
C2109 H2121 0.930 . S
C2110 C2106 1.524 . S
C2110 H2122 0.956 . S
C2110 H2123 0.961 . S
C2110 H2124 0.961 . S
C2111 C2108 1.539 . S
C2111 H2125 0.958 . S
C2111 H2126 0.961 . S
C2111 H2127 0.960 . S
H2112 C2096 0.931 . S
H2113 C2101 0.929 . S
H2114 C2102 0.960 . S
H2115 C2102 0.962 . S
H2116 C2102 0.960 . S
H2117 C2103 0.961 . S
H2118 C2103 0.961 . S
H2119 C2103 0.961 . S
H2120 C2104 0.931 . S
H2121 C2109 0.930 . S
H2122 C2110 0.956 . S
H2123 C2110 0.961 . S
H2124 C2110 0.961 . S
H2125 C2111 0.958 . S
H2126 C2111 0.961 . S
H2127 C2111 0.960 . S
C2128 C2129 1.391 . S
C2128 C2130 1.394 . S
C2128 H2144 0.931 . S
C2129 C2128 1.391 . S
C2129 C2133 1.376 . S
C2130 C2128 1.394 . S
C2130 C2131 1.369 . S
C2130 C2134 1.531 . S
C2131 C2130 1.369 . S
C2131 C2132 1.410 . S
C2131 C2139 1.503 . S
C2132 C2131 1.410 . S
C2132 C2133 1.392 . S
C2132 C2135 1.511 . S
C2133 C2129 1.376 . S
C2133 C2132 1.392 . S
C2133 H2145 0.929 . S
C2134 C2130 1.531 . S
C2134 H2146 0.960 . S
C2134 H2147 0.962 . S
C2134 H2148 0.960 1_545 S
C2135 C2132 1.511 . S
C2135 H2149 0.961 . S
C2135 H2150 0.961 . S
C2135 H2151 0.961 . S
C2136 C2137 1.370 . S
C2136 C2138 1.363 . S
C2136 H2152 0.931 . S
C2137 C2136 1.370 . S
C2137 C2141 1.408 . S
C2138 C2136 1.363 . S
C2138 C2139 1.370 . S
C2138 C2142 1.524 . S
C2139 C2131 1.503 . S
C2139 C2138 1.370 . S
C2139 C2140 1.403 . S
C2140 C2139 1.403 . S
C2140 C2141 1.404 . S
C2140 C2143 1.539 . S
C2141 C2137 1.408 . S
C2141 C2140 1.404 . S
C2141 H2153 0.930 . S
C2142 C2138 1.524 . S
C2142 H2154 0.956 . S
C2142 H2155 0.961 . S
C2142 H2156 0.961 . S
C2143 C2140 1.539 . S
C2143 H2157 0.958 . S
C2143 H2158 0.961 . S
C2143 H2159 0.960 . S
H2144 C2128 0.931 . S
H2145 C2133 0.929 . S
H2146 C2134 0.960 . S
H2147 C2134 0.962 . S
H2148 C2134 0.960 1_565 S
H2149 C2135 0.961 . S
H2150 C2135 0.961 . S
H2151 C2135 0.961 . S
H2152 C2136 0.931 . S
H2153 C2141 0.930 . S
H2154 C2142 0.956 . S
H2155 C2142 0.961 . S
H2156 C2142 0.961 . S
H2157 C2143 0.958 . S
H2158 C2143 0.961 . S
H2159 C2143 0.960 . S
C2160 C2161 1.391 . S
C2160 C2162 1.394 . S
C2160 H2176 0.931 . S
C2161 C2160 1.391 . S
C2161 C2165 1.376 . S
C2162 C2160 1.394 . S
C2162 C2163 1.369 . S
C2162 C2166 1.531 . S
C2163 C2162 1.369 . S
C2163 C2164 1.410 . S
C2163 C2171 1.503 . S
C2164 C2163 1.410 . S
C2164 C2165 1.392 . S
C2164 C2167 1.511 . S
C2165 C2161 1.376 . S
C2165 C2164 1.392 . S
C2165 H2177 0.929 . S
C2166 C2162 1.531 . S
C2166 H2178 0.960 . S
C2166 H2179 0.962 . S
C2166 H2180 0.960 . S
C2167 C2164 1.511 . S
C2167 H2181 0.961 . S
C2167 H2182 0.961 . S
C2167 H2183 0.961 . S
C2168 C2169 1.370 . S
C2168 C2170 1.363 . S
C2168 H2184 0.931 . S
C2169 C2168 1.370 . S
C2169 C2173 1.408 . S
C2170 C2168 1.363 . S
C2170 C2171 1.370 . S
C2170 C2174 1.524 . S
C2171 C2163 1.503 . S
C2171 C2170 1.370 . S
C2171 C2172 1.403 . S
C2172 C2171 1.403 . S
C2172 C2173 1.404 . S
C2172 C2175 1.539 . S
C2173 C2169 1.408 . S
C2173 C2172 1.404 . S
C2173 H2185 0.930 . S
C2174 C2170 1.524 . S
C2174 H2186 0.956 . S
C2174 H2187 0.961 . S
C2174 H2188 0.961 . S
C2175 C2172 1.539 . S
C2175 H2189 0.958 . S
C2175 H2190 0.961 . S
C2175 H2191 0.960 . S
H2176 C2160 0.931 . S
H2177 C2165 0.929 . S
H2178 C2166 0.960 . S
H2179 C2166 0.962 . S
H2180 C2166 0.960 . S
H2181 C2167 0.961 . S
H2182 C2167 0.961 . S
H2183 C2167 0.961 . S
H2184 C2168 0.931 . S
H2185 C2173 0.930 . S
H2186 C2174 0.956 . S
H2187 C2174 0.961 . S
H2188 C2174 0.961 . S
H2189 C2175 0.958 . S
H2190 C2175 0.961 . S
H2191 C2175 0.960 . S
C2192 C2193 1.391 . S
C2192 C2194 1.394 . S
C2192 H2208 0.931 . S
C2193 C2192 1.391 . S
C2193 C2197 1.376 . S
C2194 C2192 1.394 . S
C2194 C2195 1.369 . S
C2194 C2198 1.531 . S
C2195 C2194 1.369 . S
C2195 C2196 1.410 . S
C2195 C2203 1.503 . S
C2196 C2195 1.410 . S
C2196 C2197 1.392 . S
C2196 C2199 1.511 . S
C2197 C2193 1.376 . S
C2197 C2196 1.392 . S
C2197 H2209 0.929 . S
C2198 C2194 1.531 . S
C2198 H2210 0.960 . S
C2198 H2211 0.962 . S
C2198 H2212 0.960 . S
C2199 C2196 1.511 . S
C2199 H2213 0.961 . S
C2199 H2214 0.961 . S
C2199 H2215 0.961 . S
C2200 C2201 1.370 . S
C2200 C2202 1.363 . S
C2200 H2216 0.931 . S
C2201 C2200 1.370 . S
C2201 C2205 1.408 . S
C2202 C2200 1.363 . S
C2202 C2203 1.370 . S
C2202 C2206 1.524 1_545 S
C2203 C2195 1.503 . S
C2203 C2202 1.370 . S
C2203 C2204 1.403 . S
C2204 C2203 1.403 . S
C2204 C2205 1.404 . S
C2204 C2207 1.539 . S
C2205 C2201 1.408 . S
C2205 C2204 1.404 . S
C2205 H2217 0.930 . S
C2206 C2202 1.524 1_565 S
C2206 H2218 0.956 . S
C2206 H2219 0.961 . S
C2206 H2220 0.961 . S
C2207 C2204 1.539 . S
C2207 H2221 0.958 . S
C2207 H2222 0.961 . S
C2207 H2223 0.960 . S
H2208 C2192 0.931 . S
H2209 C2197 0.929 . S
H2210 C2198 0.960 . S
H2211 C2198 0.962 . S
H2212 C2198 0.960 . S
H2213 C2199 0.961 . S
H2214 C2199 0.961 . S
H2215 C2199 0.961 . S
H2216 C2200 0.931 . S
H2217 C2205 0.930 . S
H2218 C2206 0.956 . S
H2219 C2206 0.961 . S
H2220 C2206 0.961 . S
H2221 C2207 0.958 . S
H2222 C2207 0.961 . S
H2223 C2207 0.960 . S
C2224 C2225 1.391 . S
C2224 C2226 1.394 . S
C2224 H2240 0.931 . S
C2225 C2224 1.391 . S
C2225 C2229 1.376 . S
C2226 C2224 1.394 . S
C2226 C2227 1.369 . S
C2226 C2230 1.531 . S
C2227 C2226 1.369 . S
C2227 C2228 1.410 . S
C2227 C2235 1.503 . S
C2228 C2227 1.410 . S
C2228 C2229 1.392 . S
C2228 C2231 1.511 . S
C2229 C2225 1.376 . S
C2229 C2228 1.392 . S
C2229 H2241 0.929 . S
C2230 C2226 1.531 . S
C2230 H2242 0.960 . S
C2230 H2243 0.962 . S
C2230 H2244 0.960 . S
C2231 C2228 1.511 . S
C2231 H2245 0.961 . S
C2231 H2246 0.961 . S
C2231 H2247 0.961 . S
C2232 C2233 1.370 . S
C2232 C2234 1.363 . S
C2232 H2248 0.931 . S
C2233 C2232 1.370 . S
C2233 C2237 1.408 . S
C2234 C2232 1.363 . S
C2234 C2235 1.370 . S
C2234 C2238 1.524 . S
C2235 C2227 1.503 . S
C2235 C2234 1.370 . S
C2235 C2236 1.403 . S
C2236 C2235 1.403 . S
C2236 C2237 1.404 . S
C2236 C2239 1.539 . S
C2237 C2233 1.408 . S
C2237 C2236 1.404 . S
C2237 H2249 0.930 . S
C2238 C2234 1.524 . S
C2238 H2250 0.956 . S
C2238 H2251 0.961 . S
C2238 H2252 0.961 . S
C2239 C2236 1.539 . S
C2239 H2253 0.958 . S
C2239 H2254 0.961 . S
C2239 H2255 0.960 . S
H2240 C2224 0.931 . S
H2241 C2229 0.929 . S
H2242 C2230 0.960 . S
H2243 C2230 0.962 . S
H2244 C2230 0.960 . S
H2245 C2231 0.961 . S
H2246 C2231 0.961 . S
H2247 C2231 0.961 . S
H2248 C2232 0.931 . S
H2249 C2237 0.930 . S
H2250 C2238 0.956 . S
H2251 C2238 0.961 . S
H2252 C2238 0.961 . S
H2253 C2239 0.958 . S
H2254 C2239 0.961 . S
H2255 C2239 0.960 . S
C2256 C2257 1.391 . S
C2256 C2258 1.394 . S
C2256 H2272 0.931 . S
C2257 C2256 1.391 . S
C2257 C2261 1.376 . S
C2258 C2256 1.394 . S
C2258 C2259 1.369 . S
C2258 C2262 1.531 . S
C2259 C2258 1.369 . S
C2259 C2260 1.410 . S
C2259 C2267 1.503 . S
C2260 C2259 1.410 . S
C2260 C2261 1.392 . S
C2260 C2263 1.511 . S
C2261 C2257 1.376 . S
C2261 C2260 1.392 . S
C2261 H2273 0.929 . S
C2262 C2258 1.531 . S
C2262 H2274 0.960 . S
C2262 H2275 0.962 . S
C2262 H2276 0.960 . S
C2263 C2260 1.511 . S
C2263 H2277 0.961 . S
C2263 H2278 0.961 . S
C2263 H2279 0.961 . S
C2264 C2265 1.370 1_556 S
C2264 C2266 1.363 1_556 S
C2264 H2280 0.931 . S
C2265 C2264 1.370 1_554 S
C2265 C2269 1.408 . S
C2266 C2264 1.363 1_554 S
C2266 C2267 1.370 . S
C2266 C2270 1.524 1_554 S
C2267 C2259 1.503 . S
C2267 C2266 1.370 . S
C2267 C2268 1.403 . S
C2268 C2267 1.403 . S
C2268 C2269 1.404 . S
C2268 C2271 1.539 . S
C2269 C2265 1.408 . S
C2269 C2268 1.404 . S
C2269 H2281 0.930 . S
C2270 C2266 1.524 1_556 S
C2270 H2282 0.956 . S
C2270 H2283 0.961 1_556 S
C2270 H2284 0.961 . S
C2271 C2268 1.539 . S
C2271 H2285 0.958 . S
C2271 H2286 0.961 . S
C2271 H2287 0.960 . S
H2272 C2256 0.931 . S
H2273 C2261 0.929 . S
H2274 C2262 0.960 . S
H2275 C2262 0.962 . S
H2276 C2262 0.960 . S
H2277 C2263 0.961 . S
H2278 C2263 0.961 . S
H2279 C2263 0.961 . S
H2280 C2264 0.931 . S
H2281 C2269 0.930 . S
H2282 C2270 0.956 . S
H2283 C2270 0.961 1_554 S
H2284 C2270 0.961 . S
H2285 C2271 0.958 . S
H2286 C2271 0.961 . S
H2287 C2271 0.960 . S
C2288 C2289 1.391 . S
C2288 C2290 1.394 . S
C2288 H2304 0.931 . S
C2289 C2288 1.391 . S
C2289 C2293 1.376 . S
C2290 C2288 1.394 . S
C2290 C2291 1.369 . S
C2290 C2294 1.531 . S
C2291 C2290 1.369 . S
C2291 C2292 1.410 . S
C2291 C2299 1.503 . S
C2292 C2291 1.410 . S
C2292 C2293 1.392 . S
C2292 C2295 1.511 . S
C2293 C2289 1.376 . S
C2293 C2292 1.392 . S
C2293 H2305 0.929 . S
C2294 C2290 1.531 . S
C2294 H2306 0.960 . S
C2294 H2307 0.962 . S
C2294 H2308 0.960 . S
C2295 C2292 1.511 . S
C2295 H2309 0.961 . S
C2295 H2310 0.961 . S
C2295 H2311 0.961 1_554 S
C2296 C2297 1.370 . S
C2296 C2298 1.363 . S
C2296 H2312 0.931 . S
C2297 C2296 1.370 . S
C2297 C2301 1.408 . S
C2298 C2296 1.363 . S
C2298 C2299 1.370 . S
C2298 C2302 1.524 . S
C2299 C2291 1.503 . S
C2299 C2298 1.370 . S
C2299 C2300 1.403 . S
C2300 C2299 1.403 . S
C2300 C2301 1.404 . S
C2300 C2303 1.539 1_554 S
C2301 C2297 1.408 . S
C2301 C2300 1.404 . S
C2301 H2313 0.930 1_554 S
C2302 C2298 1.524 . S
C2302 H2314 0.956 . S
C2302 H2315 0.961 . S
C2302 H2316 0.961 . S
C2303 C2300 1.539 1_556 S
C2303 H2317 0.958 . S
C2303 H2318 0.961 . S
C2303 H2319 0.960 . S
H2304 C2288 0.931 . S
H2305 C2293 0.929 . S
H2306 C2294 0.960 . S
H2307 C2294 0.962 . S
H2308 C2294 0.960 . S
H2309 C2295 0.961 . S
H2310 C2295 0.961 . S
H2311 C2295 0.961 1_556 S
H2312 C2296 0.931 . S
H2313 C2301 0.930 1_556 S
H2314 C2302 0.956 . S
H2315 C2302 0.961 . S
H2316 C2302 0.961 . S
H2317 C2303 0.958 . S
H2318 C2303 0.961 . S
H2319 C2303 0.960 . S
C2320 C2321 1.391 . S
C2320 C2322 1.394 . S
C2320 H2336 0.931 . S
C2321 C2320 1.391 . S
C2321 C2325 1.376 . S
C2322 C2320 1.394 . S
C2322 C2323 1.369 . S
C2322 C2326 1.531 . S
C2323 C2322 1.369 . S
C2323 C2324 1.410 . S
C2323 C2331 1.503 . S
C2324 C2323 1.410 . S
C2324 C2325 1.392 . S
C2324 C2327 1.511 . S
C2325 C2321 1.376 . S
C2325 C2324 1.392 . S
C2325 H2337 0.929 . S
C2326 C2322 1.531 . S
C2326 H2338 0.960 . S
C2326 H2339 0.962 . S
C2326 H2340 0.960 . S
C2327 C2324 1.511 . S
C2327 H2341 0.961 . S
C2327 H2342 0.961 . S
C2327 H2343 0.961 . S
C2328 C2329 1.370 . S
C2328 C2330 1.363 . S
C2328 H2344 0.931 . S
C2329 C2328 1.370 . S
C2329 C2333 1.408 . S
C2330 C2328 1.363 . S
C2330 C2331 1.370 . S
C2330 C2334 1.524 . S
C2331 C2323 1.503 . S
C2331 C2330 1.370 . S
C2331 C2332 1.403 . S
C2332 C2331 1.403 . S
C2332 C2333 1.404 . S
C2332 C2335 1.539 . S
C2333 C2329 1.408 . S
C2333 C2332 1.404 . S
C2333 H2345 0.930 . S
C2334 C2330 1.524 . S
C2334 H2346 0.956 . S
C2334 H2347 0.961 . S
C2334 H2348 0.961 . S
C2335 C2332 1.539 . S
C2335 H2349 0.958 . S
C2335 H2350 0.961 . S
C2335 H2351 0.960 . S
H2336 C2320 0.931 . S
H2337 C2325 0.929 . S
H2338 C2326 0.960 . S
H2339 C2326 0.962 . S
H2340 C2326 0.960 . S
H2341 C2327 0.961 . S
H2342 C2327 0.961 . S
H2343 C2327 0.961 . S
H2344 C2328 0.931 . S
H2345 C2333 0.930 . S
H2346 C2334 0.956 . S
H2347 C2334 0.961 . S
H2348 C2334 0.961 . S
H2349 C2335 0.958 . S
H2350 C2335 0.961 . S
H2351 C2335 0.960 . S
C2352 C2353 1.391 . S
C2352 C2354 1.394 . S
C2352 H2368 0.931 . S
C2353 C2352 1.391 . S
C2353 C2357 1.376 . S
C2354 C2352 1.394 . S
C2354 C2355 1.369 . S
C2354 C2358 1.531 . S
C2355 C2354 1.369 . S
C2355 C2356 1.410 . S
C2355 C2363 1.503 . S
C2356 C2355 1.410 . S
C2356 C2357 1.392 . S
C2356 C2359 1.511 . S
C2357 C2353 1.376 . S
C2357 C2356 1.392 . S
C2357 H2369 0.929 . S
C2358 C2354 1.531 . S
C2358 H2370 0.960 . S
C2358 H2371 0.962 . S
C2358 H2372 0.960 . S
C2359 C2356 1.511 . S
C2359 H2373 0.961 . S
C2359 H2374 0.961 . S
C2359 H2375 0.961 . S
C2360 C2361 1.370 . S
C2360 C2362 1.363 . S
C2360 H2376 0.931 . S
C2361 C2360 1.370 . S
C2361 C2365 1.408 . S
C2362 C2360 1.363 . S
C2362 C2363 1.370 . S
C2362 C2366 1.524 . S
C2363 C2355 1.503 . S
C2363 C2362 1.370 . S
C2363 C2364 1.403 . S
C2364 C2363 1.403 . S
C2364 C2365 1.404 . S
C2364 C2367 1.539 . S
C2365 C2361 1.408 . S
C2365 C2364 1.404 . S
C2365 H2377 0.930 . S
C2366 C2362 1.524 . S
C2366 H2378 0.956 . S
C2366 H2379 0.961 . S
C2366 H2380 0.961 . S
C2367 C2364 1.539 . S
C2367 H2381 0.958 . S
C2367 H2382 0.961 . S
C2367 H2383 0.960 . S
H2368 C2352 0.931 . S
H2369 C2357 0.929 . S
H2370 C2358 0.960 . S
H2371 C2358 0.962 . S
H2372 C2358 0.960 . S
H2373 C2359 0.961 . S
H2374 C2359 0.961 . S
H2375 C2359 0.961 . S
H2376 C2360 0.931 . S
H2377 C2365 0.930 . S
H2378 C2366 0.956 . S
H2379 C2366 0.961 . S
H2380 C2366 0.961 . S
H2381 C2367 0.958 . S
H2382 C2367 0.961 . S
H2383 C2367 0.960 . S
C2384 C2385 1.391 . S
C2384 C2386 1.394 . S
C2384 H2400 0.931 1_565 S
C2385 C2384 1.391 . S
C2385 C2389 1.376 . S
C2386 C2384 1.394 . S
C2386 C2387 1.369 . S
C2386 C2390 1.531 . S
C2387 C2386 1.369 . S
C2387 C2388 1.410 . S
C2387 C2395 1.503 . S
C2388 C2387 1.410 . S
C2388 C2389 1.392 . S
C2388 C2391 1.511 . S
C2389 C2385 1.376 . S
C2389 C2388 1.392 . S
C2389 H2401 0.929 . S
C2390 C2386 1.531 . S
C2390 H2402 0.960 . S
C2390 H2403 0.962 1_565 S
C2390 H2404 0.960 1_565 S
C2391 C2388 1.511 . S
C2391 H2405 0.961 . S
C2391 H2406 0.961 . S
C2391 H2407 0.961 . S
C2392 C2393 1.370 . S
C2392 C2394 1.363 . S
C2392 H2408 0.931 . S
C2393 C2392 1.370 . S
C2393 C2397 1.408 . S
C2394 C2392 1.363 . S
C2394 C2395 1.370 . S
C2394 C2398 1.524 . S
C2395 C2387 1.503 . S
C2395 C2394 1.370 . S
C2395 C2396 1.403 . S
C2396 C2395 1.403 . S
C2396 C2397 1.404 . S
C2396 C2399 1.539 . S
C2397 C2393 1.408 . S
C2397 C2396 1.404 . S
C2397 H2409 0.930 . S
C2398 C2394 1.524 . S
C2398 H2410 0.956 . S
C2398 H2411 0.961 . S
C2398 H2412 0.961 . S
C2399 C2396 1.539 . S
C2399 H2413 0.958 . S
C2399 H2414 0.961 . S
C2399 H2415 0.960 . S
H2400 C2384 0.931 1_545 S
H2401 C2389 0.929 . S
H2402 C2390 0.960 . S
H2403 C2390 0.962 1_545 S
H2404 C2390 0.960 1_545 S
H2405 C2391 0.961 . S
H2406 C2391 0.961 . S
H2407 C2391 0.961 . S
H2408 C2392 0.931 . S
H2409 C2397 0.930 . S
H2410 C2398 0.956 . S
H2411 C2398 0.961 . S
H2412 C2398 0.961 . S
H2413 C2399 0.958 . S
H2414 C2399 0.961 . S
H2415 C2399 0.960 . S
C2416 C2417 1.391 . S
C2416 C2418 1.394 . S
C2416 H2432 0.931 . S
C2417 C2416 1.391 . S
C2417 C2421 1.376 . S
C2418 C2416 1.394 . S
C2418 C2419 1.369 . S
C2418 C2422 1.531 . S
C2419 C2418 1.369 . S
C2419 C2420 1.410 . S
C2419 C2427 1.503 . S
C2420 C2419 1.410 . S
C2420 C2421 1.392 . S
C2420 C2423 1.511 . S
C2421 C2417 1.376 . S
C2421 C2420 1.392 . S
C2421 H2433 0.929 . S
C2422 C2418 1.531 . S
C2422 H2434 0.960 . S
C2422 H2435 0.962 . S
C2422 H2436 0.960 . S
C2423 C2420 1.511 . S
C2423 H2437 0.961 . S
C2423 H2438 0.961 . S
C2423 H2439 0.961 . S
C2424 C2425 1.370 . S
C2424 C2426 1.363 . S
C2424 H2440 0.931 . S
C2425 C2424 1.370 . S
C2425 C2429 1.408 . S
C2426 C2424 1.363 . S
C2426 C2427 1.370 . S
C2426 C2430 1.524 . S
C2427 C2419 1.503 . S
C2427 C2426 1.370 . S
C2427 C2428 1.403 . S
C2428 C2427 1.403 . S
C2428 C2429 1.404 . S
C2428 C2431 1.539 . S
C2429 C2425 1.408 . S
C2429 C2428 1.404 . S
C2429 H2441 0.930 . S
C2430 C2426 1.524 . S
C2430 H2442 0.956 . S
C2430 H2443 0.961 . S
C2430 H2444 0.961 . S
C2431 C2428 1.539 . S
C2431 H2445 0.958 . S
C2431 H2446 0.961 . S
C2431 H2447 0.960 . S
H2432 C2416 0.931 . S
H2433 C2421 0.929 . S
H2434 C2422 0.960 . S
H2435 C2422 0.962 . S
H2436 C2422 0.960 . S
H2437 C2423 0.961 . S
H2438 C2423 0.961 . S
H2439 C2423 0.961 . S
H2440 C2424 0.931 . S
H2441 C2429 0.930 . S
H2442 C2430 0.956 . S
H2443 C2430 0.961 . S
H2444 C2430 0.961 . S
H2445 C2431 0.958 . S
H2446 C2431 0.961 . S
H2447 C2431 0.960 . S
C2448 C2449 1.391 . S
C2448 C2450 1.394 . S
C2448 H2464 0.931 . S
C2449 C2448 1.391 . S
C2449 C2453 1.376 . S
C2450 C2448 1.394 . S
C2450 C2451 1.369 . S
C2450 C2454 1.531 . S
C2451 C2450 1.369 . S
C2451 C2452 1.410 . S
C2451 C2459 1.503 . S
C2452 C2451 1.410 . S
C2452 C2453 1.392 . S
C2452 C2455 1.511 . S
C2453 C2449 1.376 . S
C2453 C2452 1.392 . S
C2453 H2465 0.929 . S
C2454 C2450 1.531 . S
C2454 H2466 0.960 . S
C2454 H2467 0.962 . S
C2454 H2468 0.960 . S
C2455 C2452 1.511 . S
C2455 H2469 0.961 . S
C2455 H2470 0.961 . S
C2455 H2471 0.961 . S
C2456 C2457 1.370 . S
C2456 C2458 1.363 . S
C2456 H2472 0.931 . S
C2457 C2456 1.370 . S
C2457 C2461 1.408 . S
C2458 C2456 1.363 . S
C2458 C2459 1.370 . S
C2458 C2462 1.524 . S
C2459 C2451 1.503 . S
C2459 C2458 1.370 . S
C2459 C2460 1.403 . S
C2460 C2459 1.403 . S
C2460 C2461 1.404 . S
C2460 C2463 1.539 . S
C2461 C2457 1.408 . S
C2461 C2460 1.404 . S
C2461 H2473 0.930 . S
C2462 C2458 1.524 . S
C2462 H2474 0.956 . S
C2462 H2475 0.961 . S
C2462 H2476 0.961 . S
C2463 C2460 1.539 . S
C2463 H2477 0.958 . S
C2463 H2478 0.961 . S
C2463 H2479 0.960 . S
H2464 C2448 0.931 . S
H2465 C2453 0.929 . S
H2466 C2454 0.960 . S
H2467 C2454 0.962 . S
H2468 C2454 0.960 . S
H2469 C2455 0.961 . S
H2470 C2455 0.961 . S
H2471 C2455 0.961 . S
H2472 C2456 0.931 . S
H2473 C2461 0.930 . S
H2474 C2462 0.956 . S
H2475 C2462 0.961 . S
H2476 C2462 0.961 . S
H2477 C2463 0.958 . S
H2478 C2463 0.961 . S
H2479 C2463 0.960 . S
C2480 C2481 1.391 . S
C2480 C2482 1.394 . S
C2480 H2496 0.931 . S
C2481 C2480 1.391 . S
C2481 C2485 1.376 . S
C2482 C2480 1.394 . S
C2482 C2483 1.369 . S
C2482 C2486 1.531 . S
C2483 C2482 1.369 . S
C2483 C2484 1.410 . S
C2483 C2491 1.503 . S
C2484 C2483 1.410 . S
C2484 C2485 1.392 . S
C2484 C2487 1.511 . S
C2485 C2481 1.376 . S
C2485 C2484 1.392 . S
C2485 H2497 0.929 . S
C2486 C2482 1.531 . S
C2486 H2498 0.960 . S
C2486 H2499 0.962 . S
C2486 H2500 0.960 . S
C2487 C2484 1.511 . S
C2487 H2501 0.961 . S
C2487 H2502 0.961 . S
C2487 H2503 0.961 . S
C2488 C2489 1.370 . S
C2488 C2490 1.363 . S
C2488 H2504 0.931 . S
C2489 C2488 1.370 . S
C2489 C2493 1.408 . S
C2490 C2488 1.363 . S
C2490 C2491 1.370 . S
C2490 C2494 1.524 . S
C2491 C2483 1.503 . S
C2491 C2490 1.370 . S
C2491 C2492 1.403 . S
C2492 C2491 1.403 . S
C2492 C2493 1.404 . S
C2492 C2495 1.539 . S
C2493 C2489 1.408 . S
C2493 C2492 1.404 . S
C2493 H2505 0.930 . S
C2494 C2490 1.524 . S
C2494 H2506 0.956 . S
C2494 H2507 0.961 . S
C2494 H2508 0.961 . S
C2495 C2492 1.539 . S
C2495 H2509 0.958 . S
C2495 H2510 0.961 . S
C2495 H2511 0.960 . S
H2496 C2480 0.931 . S
H2497 C2485 0.929 . S
H2498 C2486 0.960 . S
H2499 C2486 0.962 . S
H2500 C2486 0.960 . S
H2501 C2487 0.961 . S
H2502 C2487 0.961 . S
H2503 C2487 0.961 . S
H2504 C2488 0.931 . S
H2505 C2493 0.930 . S
H2506 C2494 0.956 . S
H2507 C2494 0.961 . S
H2508 C2494 0.961 . S
H2509 C2495 0.958 . S
H2510 C2495 0.961 . S
H2511 C2495 0.960 . S
C2512 C2513 1.391 . S
C2512 C2514 1.394 . S
C2512 H2528 0.931 . S
C2513 C2512 1.391 . S
C2513 C2517 1.376 . S
C2514 C2512 1.394 . S
C2514 C2515 1.369 . S
C2514 C2518 1.531 . S
C2515 C2514 1.369 . S
C2515 C2516 1.410 . S
C2515 C2523 1.503 . S
C2516 C2515 1.410 . S
C2516 C2517 1.392 . S
C2516 C2519 1.511 . S
C2517 C2513 1.376 . S
C2517 C2516 1.392 . S
C2517 H2529 0.929 . S
C2518 C2514 1.531 . S
C2518 H2530 0.960 . S
C2518 H2531 0.962 . S
C2518 H2532 0.960 . S
C2519 C2516 1.511 . S
C2519 H2533 0.961 . S
C2519 H2534 0.961 . S
C2519 H2535 0.961 . S
C2520 C2521 1.370 . S
C2520 C2522 1.363 . S
C2520 H2536 0.931 . S
C2521 C2520 1.370 . S
C2521 C2525 1.408 . S
C2522 C2520 1.363 . S
C2522 C2523 1.370 . S
C2522 C2526 1.524 . S
C2523 C2515 1.503 . S
C2523 C2522 1.370 . S
C2523 C2524 1.403 . S
C2524 C2523 1.403 . S
C2524 C2525 1.404 . S
C2524 C2527 1.539 . S
C2525 C2521 1.408 . S
C2525 C2524 1.404 . S
C2525 H2537 0.930 . S
C2526 C2522 1.524 . S
C2526 H2538 0.956 . S
C2526 H2539 0.961 . S
C2526 H2540 0.961 . S
C2527 C2524 1.539 . S
C2527 H2541 0.958 . S
C2527 H2542 0.961 . S
C2527 H2543 0.960 . S
H2528 C2512 0.931 . S
H2529 C2517 0.929 . S
H2530 C2518 0.960 . S
H2531 C2518 0.962 . S
H2532 C2518 0.960 . S
H2533 C2519 0.961 . S
H2534 C2519 0.961 . S
H2535 C2519 0.961 . S
H2536 C2520 0.931 . S
H2537 C2525 0.930 . S
H2538 C2526 0.956 . S
H2539 C2526 0.961 . S
H2540 C2526 0.961 . S
H2541 C2527 0.958 . S
H2542 C2527 0.961 . S
H2543 C2527 0.960 . S
C2544 C2545 1.391 . S
C2544 C2546 1.394 . S
C2544 H2560 0.931 . S
C2545 C2544 1.391 . S
C2545 C2549 1.376 . S
C2546 C2544 1.394 . S
C2546 C2547 1.369 . S
C2546 C2550 1.531 . S
C2547 C2546 1.369 . S
C2547 C2548 1.410 . S
C2547 C2555 1.503 . S
C2548 C2547 1.410 . S
C2548 C2549 1.392 . S
C2548 C2551 1.511 . S
C2549 C2545 1.376 . S
C2549 C2548 1.392 . S
C2549 H2561 0.929 . S
C2550 C2546 1.531 . S
C2550 H2562 0.960 . S
C2550 H2563 0.962 . S
C2550 H2564 0.960 . S
C2551 C2548 1.511 . S
C2551 H2565 0.961 . S
C2551 H2566 0.961 . S
C2551 H2567 0.961 . S
C2552 C2553 1.370 . S
C2552 C2554 1.363 . S
C2552 H2568 0.931 . S
C2553 C2552 1.370 . S
C2553 C2557 1.408 . S
C2554 C2552 1.363 . S
C2554 C2555 1.370 . S
C2554 C2558 1.524 . S
C2555 C2547 1.503 . S
C2555 C2554 1.370 . S
C2555 C2556 1.403 . S
C2556 C2555 1.403 . S
C2556 C2557 1.404 . S
C2556 C2559 1.539 . S
C2557 C2553 1.408 . S
C2557 C2556 1.404 . S
C2557 H2569 0.930 . S
C2558 C2554 1.524 . S
C2558 H2570 0.956 . S
C2558 H2571 0.961 . S
C2558 H2572 0.961 . S
C2559 C2556 1.539 . S
C2559 H2573 0.958 . S
C2559 H2574 0.961 . S
C2559 H2575 0.960 . S
H2560 C2544 0.931 . S
H2561 C2549 0.929 . S
H2562 C2550 0.960 . S
H2563 C2550 0.962 . S
H2564 C2550 0.960 . S
H2565 C2551 0.961 . S
H2566 C2551 0.961 . S
H2567 C2551 0.961 . S
H2568 C2552 0.931 . S
H2569 C2557 0.930 . S
H2570 C2558 0.956 . S
H2571 C2558 0.961 . S
H2572 C2558 0.961 . S
H2573 C2559 0.958 . S
H2574 C2559 0.961 . S
H2575 C2559 0.960 . S
C2576 C2577 1.391 . S
C2576 C2578 1.394 . S
C2576 H2592 0.931 . S
C2577 C2576 1.391 . S
C2577 C2581 1.376 1_455 S
C2578 C2576 1.394 . S
C2578 C2579 1.369 . S
C2578 C2582 1.531 . S
C2579 C2578 1.369 . S
C2579 C2580 1.410 1_455 S
C2579 C2587 1.503 . S
C2580 C2579 1.410 1_655 S
C2580 C2581 1.392 . S
C2580 C2583 1.511 1_556 S
C2581 C2577 1.376 1_655 S
C2581 C2580 1.392 . S
C2581 H2593 0.929 . S
C2582 C2578 1.531 . S
C2582 H2594 0.960 . S
C2582 H2595 0.962 . S
C2582 H2596 0.960 . S
C2583 C2580 1.511 1_554 S
C2583 H2597 0.961 . S
C2583 H2598 0.961 . S
C2583 H2599 0.961 . S
C2584 C2585 1.370 . S
C2584 C2586 1.363 . S
C2584 H2600 0.931 . S
C2585 C2584 1.370 . S
C2585 C2589 1.408 1_554 S
C2586 C2584 1.363 . S
C2586 C2587 1.370 1_554 S
C2586 C2590 1.524 . S
C2587 C2579 1.503 . S
C2587 C2586 1.370 1_556 S
C2587 C2588 1.403 . S
C2588 C2587 1.403 . S
C2588 C2589 1.404 . S
C2588 C2591 1.539 1_455 S
C2589 C2585 1.408 1_556 S
C2589 C2588 1.404 . S
C2589 H2601 0.912 1_455 S
C2590 C2586 1.524 . S
C2590 H2602 0.956 . S
C2590 H2603 0.961 . S
C2590 H2604 0.961 . S
C2591 C2588 1.539 1_655 S
C2591 H2605 0.958 . S
C2591 H2606 0.961 . S
C2591 H2607 0.960 . S
H2592 C2576 0.931 . S
H2593 C2581 0.929 . S
H2594 C2582 0.960 . S
H2595 C2582 0.962 . S
H2596 C2582 0.960 . S
H2597 C2583 0.961 . S
H2598 C2583 0.961 . S
H2599 C2583 0.961 . S
H2600 C2584 0.931 . S
H2601 C2589 0.912 1_655 S
H2602 C2590 0.956 . S
H2603 C2590 0.961 . S
H2604 C2590 0.961 . S
H2605 C2591 0.958 . S
H2606 C2591 0.961 . S
H2607 C2591 0.960 . S
C2608 C2609 1.391 . S
C2608 C2610 1.394 1_455 S
C2608 H2624 0.931 . S
C2609 C2608 1.391 . S
C2609 C2613 1.376 . S
C2610 C2608 1.394 1_655 S
C2610 C2611 1.369 . S
C2610 C2614 1.531 . S
C2611 C2610 1.369 . S
C2611 C2612 1.410 1_655 S
C2611 C2619 1.503 . S
C2612 C2611 1.410 1_455 S
C2612 C2613 1.392 . S
C2612 C2615 1.511 . S
C2613 C2609 1.376 . S
C2613 C2612 1.392 . S
C2613 H2625 0.929 . S
C2614 C2610 1.531 . S
C2614 H2626 0.960 . S
C2614 H2627 0.962 . S
C2614 H2628 0.960 . S
C2615 C2612 1.511 . S
C2615 H2629 0.961 . S
C2615 H2630 0.961 . S
C2615 H2631 0.961 . S
C2616 C2617 1.370 . S
C2616 C2618 1.363 . S
C2616 H2632 0.931 . S
C2617 C2616 1.370 . S
C2617 C2621 1.408 . S
C2618 C2616 1.363 . S
C2618 C2619 1.370 . S
C2618 C2622 1.524 . S
C2619 C2611 1.503 . S
C2619 C2618 1.370 . S
C2619 C2620 1.403 . S
C2620 C2619 1.403 . S
C2620 C2621 1.404 . S
C2620 C2623 1.539 . S
C2621 C2617 1.408 . S
C2621 C2620 1.404 . S
C2621 H2633 0.930 . S
C2622 C2618 1.524 . S
C2622 H2634 0.956 . S
C2622 H2635 0.961 . S
C2622 H2636 0.961 . S
C2623 C2620 1.539 . S
C2623 H2637 0.958 . S
C2623 H2638 0.961 . S
C2623 H2639 0.960 . S
H2624 C2608 0.931 . S
H2625 C2613 0.929 . S
H2626 C2614 0.960 . S
H2627 C2614 0.962 . S
H2628 C2614 0.960 . S
H2629 C2615 0.961 . S
H2630 C2615 0.961 . S
H2631 C2615 0.961 . S
H2632 C2616 0.931 . S
H2633 C2621 0.930 . S
H2634 C2622 0.956 . S
H2635 C2622 0.961 . S
H2636 C2622 0.961 . S
H2637 C2623 0.958 . S
H2638 C2623 0.961 . S
H2639 C2623 0.960 . S
C2640 C2641 1.391 . S
C2640 C2642 1.394 . S
C2640 H2656 0.931 . S
C2641 C2640 1.391 . S
C2641 C2645 1.376 . S
C2642 C2640 1.394 . S
C2642 C2643 1.369 . S
C2642 C2646 1.531 . S
C2643 C2642 1.369 . S
C2643 C2644 1.410 . S
C2643 C2651 1.503 . S
C2644 C2643 1.410 . S
C2644 C2645 1.392 . S
C2644 C2647 1.511 . S
C2645 C2641 1.376 . S
C2645 C2644 1.392 . S
C2645 H2657 0.929 . S
C2646 C2642 1.531 . S
C2646 H2658 0.960 . S
C2646 H2659 0.962 . S
C2646 H2660 0.960 . S
C2647 C2644 1.511 . S
C2647 H2661 0.961 . S
C2647 H2662 0.961 . S
C2647 H2663 0.961 . S
C2648 C2649 1.370 . S
C2648 C2650 1.363 . S
C2648 H2664 0.931 . S
C2649 C2648 1.370 . S
C2649 C2653 1.408 . S
C2650 C2648 1.363 . S
C2650 C2651 1.370 . S
C2650 C2654 1.524 . S
C2651 C2643 1.503 . S
C2651 C2650 1.370 . S
C2651 C2652 1.403 . S
C2652 C2651 1.403 . S
C2652 C2653 1.404 . S
C2652 C2655 1.539 . S
C2653 C2649 1.408 . S
C2653 C2652 1.404 . S
C2653 H2665 0.930 . S
C2654 C2650 1.524 . S
C2654 H2666 0.956 . S
C2654 H2667 0.961 . S
C2654 H2668 0.961 . S
C2655 C2652 1.539 . S
C2655 H2669 0.958 . S
C2655 H2670 0.961 . S
C2655 H2671 0.960 . S
H2656 C2640 0.931 . S
H2657 C2645 0.929 . S
H2658 C2646 0.960 . S
H2659 C2646 0.962 . S
H2660 C2646 0.960 . S
H2661 C2647 0.961 . S
H2662 C2647 0.961 . S
H2663 C2647 0.961 . S
H2664 C2648 0.931 . S
H2665 C2653 0.930 . S
H2666 C2654 0.956 . S
H2667 C2654 0.961 . S
H2668 C2654 0.961 . S
H2669 C2655 0.958 . S
H2670 C2655 0.961 . S
H2671 C2655 0.960 . S
C2672 C2673 1.391 . S
C2672 C2674 1.394 . S
C2672 H2688 0.931 . S
C2673 C2672 1.391 . S
C2673 C2677 1.376 . S
C2674 C2672 1.394 . S
C2674 C2675 1.369 . S
C2674 C2678 1.531 . S
C2675 C2674 1.369 . S
C2675 C2676 1.410 . S
C2675 C2683 1.503 . S
C2676 C2675 1.410 . S
C2676 C2677 1.392 . S
C2676 C2679 1.511 . S
C2677 C2673 1.376 . S
C2677 C2676 1.392 . S
C2677 H2689 0.929 . S
C2678 C2674 1.531 . S
C2678 H2690 0.960 . S
C2678 H2691 0.962 . S
C2678 H2692 0.960 . S
C2679 C2676 1.511 . S
C2679 H2693 0.961 . S
C2679 H2694 0.961 . S
C2679 H2695 0.961 . S
C2680 C2681 1.370 . S
C2680 C2682 1.363 . S
C2680 H2696 0.931 . S
C2681 C2680 1.370 . S
C2681 C2685 1.408 . S
C2682 C2680 1.363 . S
C2682 C2683 1.370 . S
C2682 C2686 1.524 . S
C2683 C2675 1.503 . S
C2683 C2682 1.370 . S
C2683 C2684 1.403 . S
C2684 C2683 1.403 . S
C2684 C2685 1.404 . S
C2684 C2687 1.539 . S
C2685 C2681 1.408 . S
C2685 C2684 1.404 . S
C2685 H2697 0.930 . S
C2686 C2682 1.524 . S
C2686 H2698 0.956 . S
C2686 H2699 0.961 . S
C2686 H2700 0.961 . S
C2687 C2684 1.539 . S
C2687 H2701 0.958 . S
C2687 H2702 0.961 . S
C2687 H2703 0.960 . S
H2688 C2672 0.931 . S
H2689 C2677 0.929 . S
H2690 C2678 0.960 . S
H2691 C2678 0.962 . S
H2692 C2678 0.960 . S
H2693 C2679 0.961 . S
H2694 C2679 0.961 . S
H2695 C2679 0.961 . S
H2696 C2680 0.931 . S
H2697 C2685 0.930 . S
H2698 C2686 0.956 . S
H2699 C2686 0.961 . S
H2700 C2686 0.961 . S
H2701 C2687 0.958 . S
H2702 C2687 0.961 . S
H2703 C2687 0.960 . S
C2704 C2705 1.391 . S
C2704 C2706 1.394 . S
C2704 H2720 0.931 . S
C2705 C2704 1.391 . S
C2705 C2709 1.376 . S
C2706 C2704 1.394 . S
C2706 C2707 1.369 . S
C2706 C2710 1.531 . S
C2707 C2706 1.369 . S
C2707 C2708 1.410 . S
C2707 C2715 1.503 . S
C2708 C2707 1.410 . S
C2708 C2709 1.392 . S
C2708 C2711 1.511 . S
C2709 C2705 1.376 . S
C2709 C2708 1.392 . S
C2709 H2721 0.929 . S
C2710 C2706 1.531 . S
C2710 H2722 0.960 . S
C2710 H2723 0.962 . S
C2710 H2724 0.960 . S
C2711 C2708 1.511 . S
C2711 H2725 0.961 . S
C2711 H2726 0.961 . S
C2711 H2727 0.961 1_455 S
C2712 C2713 1.370 . S
C2712 C2714 1.363 . S
C2712 H2728 0.931 . S
C2713 C2712 1.370 . S
C2713 C2717 1.408 . S
C2714 C2712 1.363 . S
C2714 C2715 1.370 . S
C2714 C2718 1.524 . S
C2715 C2707 1.503 . S
C2715 C2714 1.370 . S
C2715 C2716 1.403 . S
C2716 C2715 1.403 . S
C2716 C2717 1.404 . S
C2716 C2719 1.539 1_455 S
C2717 C2713 1.408 . S
C2717 C2716 1.404 . S
C2717 H2729 0.930 . S
C2718 C2714 1.524 . S
C2718 H2730 0.956 . S
C2718 H2731 0.961 . S
C2718 H2732 0.961 . S
C2719 C2716 1.539 1_655 S
C2719 H2733 0.958 . S
C2719 H2734 0.961 . S
C2719 H2735 0.960 . S
H2720 C2704 0.931 . S
H2721 C2709 0.929 . S
H2722 C2710 0.960 . S
H2723 C2710 0.962 . S
H2724 C2710 0.960 . S
H2725 C2711 0.961 . S
H2726 C2711 0.961 . S
H2727 C2711 0.961 1_655 S
H2728 C2712 0.931 . S
H2729 C2717 0.930 . S
H2730 C2718 0.956 . S
H2731 C2718 0.961 . S
H2732 C2718 0.961 . S
H2733 C2719 0.958 . S
H2734 C2719 0.961 . S
H2735 C2719 0.960 . S
C2736 C2737 1.391 . S
C2736 C2738 1.394 . S
C2736 H2752 0.931 . S
C2737 C2736 1.391 . S
C2737 C2741 1.376 . S
C2738 C2736 1.394 . S
C2738 C2739 1.369 . S
C2738 C2742 1.531 . S
C2739 C2738 1.369 . S
C2739 C2740 1.410 . S
C2739 C2747 1.503 . S
C2740 C2739 1.410 . S
C2740 C2741 1.392 . S
C2740 C2743 1.511 . S
C2741 C2737 1.376 . S
C2741 C2740 1.392 . S
C2741 H2753 0.929 . S
C2742 C2738 1.531 . S
C2742 H2754 0.960 . S
C2742 H2755 0.962 . S
C2742 H2756 0.960 . S
C2743 C2740 1.511 . S
C2743 H2757 0.961 . S
C2743 H2758 0.961 . S
C2743 H2759 0.961 . S
C2744 C2745 1.370 . S
C2744 C2746 1.363 . S
C2744 H2760 0.931 . S
C2745 C2744 1.370 . S
C2745 C2749 1.408 . S
C2746 C2744 1.363 . S
C2746 C2747 1.370 . S
C2746 C2750 1.524 . S
C2747 C2739 1.503 . S
C2747 C2746 1.370 . S
C2747 C2748 1.403 . S
C2748 C2747 1.403 . S
C2748 C2749 1.404 . S
C2748 C2751 1.539 . S
C2749 C2745 1.408 . S
C2749 C2748 1.404 . S
C2749 H2761 0.930 . S
C2750 C2746 1.524 . S
C2750 H2762 0.956 . S
C2750 H2763 0.961 . S
C2750 H2764 0.961 . S
C2751 C2748 1.539 . S
C2751 H2765 0.958 . S
C2751 H2766 0.961 . S
C2751 H2767 0.960 . S
H2752 C2736 0.931 . S
H2753 C2741 0.929 . S
H2754 C2742 0.960 . S
H2755 C2742 0.962 . S
H2756 C2742 0.960 . S
H2757 C2743 0.961 . S
H2758 C2743 0.961 . S
H2759 C2743 0.961 . S
H2760 C2744 0.931 . S
H2761 C2749 0.930 . S
H2762 C2750 0.956 . S
H2763 C2750 0.961 . S
H2764 C2750 0.961 . S
H2765 C2751 0.958 . S
H2766 C2751 0.961 . S
H2767 C2751 0.960 . S
C2768 C2769 1.391 . S
C2768 C2770 1.394 . S
C2768 H2784 0.931 . S
C2769 C2768 1.391 . S
C2769 C2773 1.376 . S
C2770 C2768 1.394 . S
C2770 C2771 1.369 . S
C2770 C2774 1.531 . S
C2771 C2770 1.369 . S
C2771 C2772 1.410 . S
C2771 C2779 1.503 . S
C2772 C2771 1.410 . S
C2772 C2773 1.392 . S
C2772 C2775 1.511 . S
C2773 C2769 1.376 . S
C2773 C2772 1.392 . S
C2773 H2785 0.929 . S
C2774 C2770 1.531 . S
C2774 H2786 0.960 . S
C2774 H2787 0.962 . S
C2774 H2788 0.960 . S
C2775 C2772 1.511 . S
C2775 H2789 0.961 . S
C2775 H2790 0.961 . S
C2775 H2791 0.961 . S
C2776 C2777 1.370 . S
C2776 C2778 1.363 . S
C2776 H2792 0.931 . S
C2777 C2776 1.370 . S
C2777 C2781 1.408 . S
C2778 C2776 1.363 . S
C2778 C2779 1.370 . S
C2778 C2782 1.524 . S
C2779 C2771 1.503 . S
C2779 C2778 1.370 . S
C2779 C2780 1.403 . S
C2780 C2779 1.403 . S
C2780 C2781 1.404 . S
C2780 C2783 1.539 . S
C2781 C2777 1.408 . S
C2781 C2780 1.404 . S
C2781 H2793 0.930 . S
C2782 C2778 1.524 . S
C2782 H2794 0.956 . S
C2782 H2795 0.961 . S
C2782 H2796 0.961 . S
C2783 C2780 1.539 . S
C2783 H2797 0.958 . S
C2783 H2798 0.961 . S
C2783 H2799 0.960 . S
H2784 C2768 0.931 . S
H2785 C2773 0.929 . S
H2786 C2774 0.960 . S
H2787 C2774 0.962 . S
H2788 C2774 0.960 . S
H2789 C2775 0.961 . S
H2790 C2775 0.961 . S
H2791 C2775 0.961 . S
H2792 C2776 0.931 . S
H2793 C2781 0.930 . S
H2794 C2782 0.956 . S
H2795 C2782 0.961 . S
H2796 C2782 0.961 . S
H2797 C2783 0.958 . S
H2798 C2783 0.961 . S
H2799 C2783 0.960 . S
C2800 C2801 1.391 . S
C2800 C2802 1.394 1_554 S
C2800 H2816 0.931 . S
C2801 C2800 1.391 . S
C2801 C2805 1.376 . S
C2802 C2800 1.394 1_556 S
C2802 C2803 1.369 . S
C2802 C2806 1.531 . S
C2803 C2802 1.369 . S
C2803 C2804 1.410 . S
C2803 C2811 1.503 . S
C2804 C2803 1.410 . S
C2804 C2805 1.392 1_556 S
C2804 C2807 1.511 . S
C2805 C2801 1.376 . S
C2805 C2804 1.392 1_554 S
C2805 H2817 0.929 . S
C2806 C2802 1.531 . S
C2806 H2818 0.960 . S
C2806 H2819 0.962 . S
C2806 H2820 0.960 . S
C2807 C2804 1.511 . S
C2807 H2821 0.961 . S
C2807 H2822 0.961 . S
C2807 H2823 0.961 . S
C2808 C2809 1.370 . S
C2808 C2810 1.363 . S
C2808 H2824 0.931 . S
C2809 C2808 1.370 . S
C2809 C2813 1.408 . S
C2810 C2808 1.363 . S
C2810 C2811 1.370 . S
C2810 C2814 1.524 . S
C2811 C2803 1.503 . S
C2811 C2810 1.370 . S
C2811 C2812 1.403 . S
C2812 C2811 1.403 . S
C2812 C2813 1.404 . S
C2812 C2815 1.539 . S
C2813 C2809 1.408 . S
C2813 C2812 1.404 . S
C2813 H2825 0.930 . S
C2814 C2810 1.524 . S
C2814 H2826 0.956 . S
C2814 H2827 0.961 . S
C2814 H2828 0.961 . S
C2815 C2812 1.539 . S
C2815 H2829 0.958 . S
C2815 H2830 0.961 . S
C2815 H2831 0.960 . S
H2816 C2800 0.931 . S
H2817 C2805 0.929 . S
H2818 C2806 0.960 . S
H2819 C2806 0.962 . S
H2820 C2806 0.960 . S
H2821 C2807 0.961 . S
H2822 C2807 0.961 . S
H2823 C2807 0.961 . S
H2824 C2808 0.931 . S
H2825 C2813 0.930 . S
H2826 C2814 0.956 . S
H2827 C2814 0.961 . S
H2828 C2814 0.961 . S
H2829 C2815 0.958 . S
H2830 C2815 0.961 . S
H2831 C2815 0.960 . S
C2832 C2833 1.391 . S
C2832 C2834 1.394 . S
C2832 H2848 0.931 . S
C2833 C2832 1.391 . S
C2833 C2837 1.376 . S
C2834 C2832 1.394 . S
C2834 C2835 1.369 . S
C2834 C2838 1.531 . S
C2835 C2834 1.369 . S
C2835 C2836 1.410 . S
C2835 C2843 1.503 . S
C2836 C2835 1.410 . S
C2836 C2837 1.392 . S
C2836 C2839 1.511 . S
C2837 C2833 1.376 . S
C2837 C2836 1.392 . S
C2837 H2849 0.929 . S
C2838 C2834 1.531 . S
C2838 H2850 0.960 . S
C2838 H2851 0.962 . S
C2838 H2852 0.960 . S
C2839 C2836 1.511 . S
C2839 H2853 0.961 . S
C2839 H2854 0.961 . S
C2839 H2855 0.961 . S
C2840 C2841 1.370 . S
C2840 C2842 1.363 . S
C2840 H2856 0.931 . S
C2841 C2840 1.370 . S
C2841 C2845 1.408 . S
C2842 C2840 1.363 . S
C2842 C2843 1.370 . S
C2842 C2846 1.524 . S
C2843 C2835 1.503 . S
C2843 C2842 1.370 . S
C2843 C2844 1.403 . S
C2844 C2843 1.403 . S
C2844 C2845 1.404 . S
C2844 C2847 1.539 . S
C2845 C2841 1.408 . S
C2845 C2844 1.404 . S
C2845 H2857 0.930 . S
C2846 C2842 1.524 . S
C2846 H2858 0.956 . S
C2846 H2859 0.961 . S
C2846 H2860 0.961 . S
C2847 C2844 1.539 . S
C2847 H2861 0.958 . S
C2847 H2862 0.961 . S
C2847 H2863 0.960 . S
H2848 C2832 0.931 . S
H2849 C2837 0.929 . S
H2850 C2838 0.960 . S
H2851 C2838 0.962 . S
H2852 C2838 0.960 . S
H2853 C2839 0.961 . S
H2854 C2839 0.961 . S
H2855 C2839 0.961 . S
H2856 C2840 0.931 . S
H2857 C2845 0.930 . S
H2858 C2846 0.956 . S
H2859 C2846 0.961 . S
H2860 C2846 0.961 . S
H2861 C2847 0.958 . S
H2862 C2847 0.961 . S
H2863 C2847 0.960 . S
C2864 C2865 1.391 . S
C2864 C2866 1.394 . S
C2864 H2880 0.931 . S
C2865 C2864 1.391 . S
C2865 C2869 1.376 . S
C2866 C2864 1.394 . S
C2866 C2867 1.369 . S
C2866 C2870 1.531 . S
C2867 C2866 1.369 . S
C2867 C2868 1.410 . S
C2867 C2875 1.503 . S
C2868 C2867 1.410 . S
C2868 C2869 1.392 . S
C2868 C2871 1.511 . S
C2869 C2865 1.376 . S
C2869 C2868 1.392 . S
C2869 H2881 0.929 . S
C2870 C2866 1.531 . S
C2870 H2882 0.960 . S
C2870 H2883 0.962 . S
C2870 H2884 0.960 . S
C2871 C2868 1.511 . S
C2871 H2885 0.961 . S
C2871 H2886 0.961 . S
C2871 H2887 0.961 . S
C2872 C2873 1.370 . S
C2872 C2874 1.363 . S
C2872 H2888 0.931 . S
C2873 C2872 1.370 . S
C2873 C2877 1.408 . S
C2874 C2872 1.363 . S
C2874 C2875 1.370 . S
C2874 C2878 1.524 . S
C2875 C2867 1.503 . S
C2875 C2874 1.370 . S
C2875 C2876 1.403 . S
C2876 C2875 1.403 . S
C2876 C2877 1.404 . S
C2876 C2879 1.539 . S
C2877 C2873 1.408 . S
C2877 C2876 1.404 . S
C2877 H2889 0.930 . S
C2878 C2874 1.524 . S
C2878 H2890 0.956 . S
C2878 H2891 0.961 . S
C2878 H2892 0.961 . S
C2879 C2876 1.539 . S
C2879 H2893 0.958 . S
C2879 H2894 0.961 . S
C2879 H2895 0.960 . S
H2880 C2864 0.931 . S
H2881 C2869 0.929 . S
H2882 C2870 0.960 . S
H2883 C2870 0.962 . S
H2884 C2870 0.960 . S
H2885 C2871 0.961 . S
H2886 C2871 0.961 . S
H2887 C2871 0.961 . S
H2888 C2872 0.931 . S
H2889 C2877 0.930 . S
H2890 C2878 0.956 . S
H2891 C2878 0.961 . S
H2892 C2878 0.961 . S
H2893 C2879 0.958 . S
H2894 C2879 0.961 . S
H2895 C2879 0.960 . S
C2896 C2897 1.391 . S
C2896 C2898 1.394 . S
C2896 H2912 0.931 . S
C2897 C2896 1.391 . S
C2897 C2901 1.376 . S
C2898 C2896 1.394 . S
C2898 C2899 1.369 . S
C2898 C2902 1.531 . S
C2899 C2898 1.369 . S
C2899 C2900 1.410 . S
C2899 C2907 1.503 . S
C2900 C2899 1.410 . S
C2900 C2901 1.392 . S
C2900 C2903 1.511 . S
C2901 C2897 1.376 . S
C2901 C2900 1.392 . S
C2901 H2913 0.929 . S
C2902 C2898 1.531 . S
C2902 H2914 0.960 . S
C2902 H2915 0.962 . S
C2902 H2916 0.960 . S
C2903 C2900 1.511 . S
C2903 H2917 0.961 . S
C2903 H2918 0.961 . S
C2903 H2919 0.961 . S
C2904 C2905 1.370 . S
C2904 C2906 1.363 . S
C2904 H2920 0.931 . S
C2905 C2904 1.370 . S
C2905 C2909 1.408 . S
C2906 C2904 1.363 . S
C2906 C2907 1.370 . S
C2906 C2910 1.524 . S
C2907 C2899 1.503 . S
C2907 C2906 1.370 . S
C2907 C2908 1.403 . S
C2908 C2907 1.403 . S
C2908 C2909 1.404 . S
C2908 C2911 1.539 . S
C2909 C2905 1.408 . S
C2909 C2908 1.404 . S
C2909 H2921 0.930 . S
C2910 C2906 1.524 . S
C2910 H2922 0.956 . S
C2910 H2923 0.961 . S
C2910 H2924 0.961 . S
C2911 C2908 1.539 . S
C2911 H2925 0.958 . S
C2911 H2926 0.961 . S
C2911 H2927 0.960 . S
H2912 C2896 0.931 . S
H2913 C2901 0.929 . S
H2914 C2902 0.960 . S
H2915 C2902 0.962 . S
H2916 C2902 0.960 . S
H2917 C2903 0.961 . S
H2918 C2903 0.961 . S
H2919 C2903 0.961 . S
H2920 C2904 0.931 . S
H2921 C2909 0.930 . S
H2922 C2910 0.956 . S
H2923 C2910 0.961 . S
H2924 C2910 0.961 . S
H2925 C2911 0.958 . S
H2926 C2911 0.961 . S
H2927 C2911 0.960 . S
C2928 C2929 1.391 . S
C2928 C2930 1.394 . S
C2928 H2944 0.931 . S
C2929 C2928 1.391 . S
C2929 C2933 1.376 . S
C2930 C2928 1.394 . S
C2930 C2931 1.369 . S
C2930 C2934 1.531 . S
C2931 C2930 1.369 . S
C2931 C2932 1.410 . S
C2931 C2939 1.503 . S
C2932 C2931 1.410 . S
C2932 C2933 1.392 . S
C2932 C2935 1.511 . S
C2933 C2929 1.376 . S
C2933 C2932 1.392 . S
C2933 H2945 0.929 . S
C2934 C2930 1.531 . S
C2934 H2946 0.960 . S
C2934 H2947 0.962 . S
C2934 H2948 0.960 . S
C2935 C2932 1.511 . S
C2935 H2949 0.961 . S
C2935 H2950 0.961 . S
C2935 H2951 0.961 . S
C2936 C2937 1.370 . S
C2936 C2938 1.363 . S
C2936 H2952 0.931 . S
C2937 C2936 1.370 . S
C2937 C2941 1.408 . S
C2938 C2936 1.363 . S
C2938 C2939 1.370 . S
C2938 C2942 1.524 . S
C2939 C2931 1.503 . S
C2939 C2938 1.370 . S
C2939 C2940 1.403 . S
C2940 C2939 1.403 . S
C2940 C2941 1.404 . S
C2940 C2943 1.539 . S
C2941 C2937 1.408 . S
C2941 C2940 1.404 . S
C2941 H2953 0.930 . S
C2942 C2938 1.524 . S
C2942 H2954 0.956 . S
C2942 H2955 0.961 . S
C2942 H2956 0.961 . S
C2943 C2940 1.539 . S
C2943 H2957 0.958 . S
C2943 H2958 0.961 . S
C2943 H2959 0.960 . S
H2944 C2928 0.931 . S
H2945 C2933 0.929 . S
H2946 C2934 0.960 . S
H2947 C2934 0.962 . S
H2948 C2934 0.960 . S
H2949 C2935 0.961 . S
H2950 C2935 0.961 . S
H2951 C2935 0.961 . S
H2952 C2936 0.931 . S
H2953 C2941 0.930 . S
H2954 C2942 0.956 . S
H2955 C2942 0.961 . S
H2956 C2942 0.961 . S
H2957 C2943 0.958 . S
H2958 C2943 0.961 . S
H2959 C2943 0.960 . S
C2960 C2961 1.391 . S
C2960 C2962 1.394 . S
C2960 H2976 0.931 . S
C2961 C2960 1.391 . S
C2961 C2965 1.376 . S
C2962 C2960 1.394 . S
C2962 C2963 1.369 . S
C2962 C2966 1.531 . S
C2963 C2962 1.369 . S
C2963 C2964 1.410 . S
C2963 C2971 1.503 . S
C2964 C2963 1.410 . S
C2964 C2965 1.392 . S
C2964 C2967 1.511 . S
C2965 C2961 1.376 . S
C2965 C2964 1.392 . S
C2965 H2977 0.929 . S
C2966 C2962 1.531 . S
C2966 H2978 0.960 . S
C2966 H2979 0.962 . S
C2966 H2980 0.960 . S
C2967 C2964 1.511 . S
C2967 H2981 0.961 . S
C2967 H2982 0.961 . S
C2967 H2983 0.961 . S
C2968 C2969 1.370 . S
C2968 C2970 1.363 . S
C2968 H2984 0.931 . S
C2969 C2968 1.370 . S
C2969 C2973 1.408 . S
C2970 C2968 1.363 . S
C2970 C2971 1.370 . S
C2970 C2974 1.524 . S
C2971 C2963 1.503 . S
C2971 C2970 1.370 . S
C2971 C2972 1.403 . S
C2972 C2971 1.403 . S
C2972 C2973 1.404 . S
C2972 C2975 1.539 . S
C2973 C2969 1.408 . S
C2973 C2972 1.404 . S
C2973 H2985 0.930 . S
C2974 C2970 1.524 . S
C2974 H2986 0.956 . S
C2974 H2987 0.961 . S
C2974 H2988 0.961 . S
C2975 C2972 1.539 . S
C2975 H2989 0.958 . S
C2975 H2990 0.961 . S
C2975 H2991 0.960 . S
H2976 C2960 0.931 . S
H2977 C2965 0.929 . S
H2978 C2966 0.960 . S
H2979 C2966 0.962 . S
H2980 C2966 0.960 . S
H2981 C2967 0.961 . S
H2982 C2967 0.961 . S
H2983 C2967 0.961 . S
H2984 C2968 0.931 . S
H2985 C2973 0.930 . S
H2986 C2974 0.956 . S
H2987 C2974 0.961 . S
H2988 C2974 0.961 . S
H2989 C2975 0.958 . S
H2990 C2975 0.961 . S
H2991 C2975 0.960 . S
C2992 C2993 1.391 . S
C2992 C2994 1.394 . S
C2992 H3008 0.931 . S
C2993 C2992 1.391 . S
C2993 C2997 1.376 . S
C2994 C2992 1.394 . S
C2994 C2995 1.369 . S
C2994 C2998 1.531 . S
C2995 C2994 1.369 . S
C2995 C2996 1.410 . S
C2995 C3003 1.503 . S
C2996 C2995 1.410 . S
C2996 C2997 1.392 . S
C2996 C2999 1.511 . S
C2997 C2993 1.376 . S
C2997 C2996 1.392 . S
C2997 H3009 0.929 . S
C2998 C2994 1.531 . S
C2998 H3010 0.960 . S
C2998 H3011 0.962 . S
C2998 H3012 0.960 . S
C2999 C2996 1.511 . S
C2999 H3013 0.961 . S
C2999 H3014 0.961 . S
C2999 H3015 0.961 . S
C3000 C3001 1.370 . S
C3000 C3002 1.363 . S
C3000 H3016 0.931 . S
C3001 C3000 1.370 . S
C3001 C3005 1.408 . S
C3002 C3000 1.363 . S
C3002 C3003 1.370 . S
C3002 C3006 1.524 . S
C3003 C2995 1.503 . S
C3003 C3002 1.370 . S
C3003 C3004 1.403 . S
C3004 C3003 1.403 . S
C3004 C3005 1.404 . S
C3004 C3007 1.539 . S
C3005 C3001 1.408 . S
C3005 C3004 1.404 . S
C3005 H3017 0.930 . S
C3006 C3002 1.524 . S
C3006 H3018 0.956 . S
C3006 H3019 0.961 . S
C3006 H3020 0.961 . S
C3007 C3004 1.539 . S
C3007 H3021 0.958 . S
C3007 H3022 0.961 . S
C3007 H3023 0.960 . S
H3008 C2992 0.931 . S
H3009 C2997 0.929 . S
H3010 C2998 0.960 . S
H3011 C2998 0.962 . S
H3012 C2998 0.960 . S
H3013 C2999 0.961 . S
H3014 C2999 0.961 . S
H3015 C2999 0.961 . S
H3016 C3000 0.931 . S
H3017 C3005 0.930 . S
H3018 C3006 0.956 . S
H3019 C3006 0.961 . S
H3020 C3006 0.961 . S
H3021 C3007 0.958 . S
H3022 C3007 0.961 . S
H3023 C3007 0.960 . S
C3024 C3025 1.391 . S
C3024 C3026 1.394 . S
C3024 H3040 0.931 . S
C3025 C3024 1.391 . S
C3025 C3029 1.376 . S
C3026 C3024 1.394 . S
C3026 C3027 1.369 . S
C3026 C3030 1.531 . S
C3027 C3026 1.369 . S
C3027 C3028 1.410 . S
C3027 C3035 1.503 . S
C3028 C3027 1.410 . S
C3028 C3029 1.392 . S
C3028 C3031 1.511 . S
C3029 C3025 1.376 . S
C3029 C3028 1.392 . S
C3029 H3041 0.929 . S
C3030 C3026 1.531 . S
C3030 H3042 0.960 . S
C3030 H3043 0.962 . S
C3030 H3044 0.960 . S
C3031 C3028 1.511 . S
C3031 H3045 0.961 . S
C3031 H3046 0.961 . S
C3031 H3047 0.961 . S
C3032 C3033 1.370 . S
C3032 C3034 1.363 . S
C3032 H3048 0.931 . S
C3033 C3032 1.370 . S
C3033 C3037 1.408 . S
C3034 C3032 1.363 . S
C3034 C3035 1.370 . S
C3034 C3038 1.524 . S
C3035 C3027 1.503 . S
C3035 C3034 1.370 . S
C3035 C3036 1.403 . S
C3036 C3035 1.403 . S
C3036 C3037 1.404 . S
C3036 C3039 1.539 . S
C3037 C3033 1.408 . S
C3037 C3036 1.404 . S
C3037 H3049 0.930 . S
C3038 C3034 1.524 . S
C3038 H3050 0.956 . S
C3038 H3051 0.961 . S
C3038 H3052 0.961 . S
C3039 C3036 1.539 . S
C3039 H3053 0.958 . S
C3039 H3054 0.961 . S
C3039 H3055 0.960 . S
H3040 C3024 0.931 . S
H3041 C3029 0.929 . S
H3042 C3030 0.960 . S
H3043 C3030 0.962 . S
H3044 C3030 0.960 . S
H3045 C3031 0.961 . S
H3046 C3031 0.961 . S
H3047 C3031 0.961 . S
H3048 C3032 0.931 . S
H3049 C3037 0.930 . S
H3050 C3038 0.956 . S
H3051 C3038 0.961 . S
H3052 C3038 0.961 . S
H3053 C3039 0.958 . S
H3054 C3039 0.961 . S
H3055 C3039 0.960 . S
C3056 C3057 1.391 . S
C3056 C3058 1.394 . S
C3056 H3072 0.931 . S
C3057 C3056 1.391 . S
C3057 C3061 1.376 . S
C3058 C3056 1.394 . S
C3058 C3059 1.369 . S
C3058 C3062 1.531 . S
C3059 C3058 1.369 . S
C3059 C3060 1.410 . S
C3059 C3067 1.503 . S
C3060 C3059 1.410 . S
C3060 C3061 1.392 . S
C3060 C3063 1.511 . S
C3061 C3057 1.376 . S
C3061 C3060 1.392 . S
C3061 H3073 0.929 . S
C3062 C3058 1.531 . S
C3062 H3074 0.960 . S
C3062 H3075 0.962 . S
C3062 H3076 0.960 . S
C3063 C3060 1.511 . S
C3063 H3077 0.961 . S
C3063 H3078 0.961 . S
C3063 H3079 0.961 . S
C3064 C3065 1.370 . S
C3064 C3066 1.363 . S
C3064 H3080 0.931 . S
C3065 C3064 1.370 . S
C3065 C3069 1.408 . S
C3066 C3064 1.363 . S
C3066 C3067 1.370 . S
C3066 C3070 1.524 . S
C3067 C3059 1.503 . S
C3067 C3066 1.370 . S
C3067 C3068 1.403 . S
C3068 C3067 1.403 . S
C3068 C3069 1.404 . S
C3068 C3071 1.539 . S
C3069 C3065 1.408 . S
C3069 C3068 1.404 . S
C3069 H3081 0.930 . S
C3070 C3066 1.524 . S
C3070 H3082 0.956 . S
C3070 H3083 0.961 . S
C3070 H3084 0.961 . S
C3071 C3068 1.539 . S
C3071 H3085 0.958 . S
C3071 H3086 0.961 . S
C3071 H3087 0.960 . S
H3072 C3056 0.931 . S
H3073 C3061 0.929 . S
H3074 C3062 0.960 . S
H3075 C3062 0.962 . S
H3076 C3062 0.960 . S
H3077 C3063 0.961 . S
H3078 C3063 0.961 . S
H3079 C3063 0.961 . S
H3080 C3064 0.931 . S
H3081 C3069 0.930 . S
H3082 C3070 0.956 . S
H3083 C3070 0.961 . S
H3084 C3070 0.961 . S
H3085 C3071 0.958 . S
H3086 C3071 0.961 . S
H3087 C3071 0.960 . S
C3088 C3089 1.391 1_565 S
C3088 C3090 1.394 . S
C3088 H3104 0.931 . S
C3089 C3088 1.391 1_545 S
C3089 C3093 1.376 . S
C3090 C3088 1.394 . S
C3090 C3091 1.369 . S
C3090 C3094 1.531 . S
C3091 C3090 1.369 . S
C3091 C3092 1.419 . S
C3091 C3099 1.503 . S
C3092 C3091 1.419 . S
C3092 C3093 1.380 1_565 S
C3092 C3095 1.514 1_565 S
C3093 C3089 1.376 . S
C3093 C3092 1.380 1_545 S
C3093 H3105 0.929 . S
C3094 C3090 1.531 . S
C3094 H3106 0.960 . S
C3094 H3107 0.962 . S
C3094 H3108 0.960 . S
C3095 C3092 1.514 1_545 S
C3095 H3109 0.961 . S
C3095 H3110 0.961 1_545 S
C3095 H3111 0.961 . S
C3096 C3097 1.370 . S
C3096 C3098 1.363 . S
C3096 H3112 0.931 . S
C3097 C3096 1.370 . S
C3097 C3101 1.408 . S
C3098 C3096 1.363 . S
C3098 C3099 1.370 . S
C3098 C3102 1.524 . S
C3099 C3091 1.503 . S
C3099 C3098 1.370 . S
C3099 C3100 1.403 . S
C3100 C3099 1.403 . S
C3100 C3101 1.404 . S
C3100 C3103 1.543 1_565 S
C3101 C3097 1.408 . S
C3101 C3100 1.404 . S
C3101 H3113 0.930 . S
C3102 C3098 1.524 . S
C3102 H3114 0.956 . S
C3102 H3115 0.961 . S
C3102 H3116 0.961 . S
C3103 C3100 1.543 1_545 S
C3103 H3117 0.957 1_545 S
C3103 H3118 0.961 . S
C3103 H3119 0.957 . S
H3104 C3088 0.931 . S
H3105 C3093 0.929 . S
H3106 C3094 0.960 . S
H3107 C3094 0.962 . S
H3108 C3094 0.960 . S
H3109 C3095 0.961 . S
H3110 C3095 0.961 1_565 S
H3111 C3095 0.961 . S
H3112 C3096 0.931 . S
H3113 C3101 0.930 . S
H3114 C3102 0.956 . S
H3115 C3102 0.961 . S
H3116 C3102 0.961 . S
H3117 C3103 0.957 1_565 S
H3118 C3103 0.961 . S
H3119 C3103 0.957 . S
C3120 C3121 1.391 . S
C3120 C3122 1.399 . S
C3120 H3136 0.931 . S
C3121 C3120 1.391 . S
C3121 C3125 1.376 . S
C3122 C3120 1.399 . S
C3122 C3123 1.401 . S
C3122 C3126 1.493 1_565 S
C3123 C3122 1.401 . S
C3123 C3124 1.410 . S
C3123 C3131 1.510 . S
C3124 C3123 1.410 . S
C3124 C3125 1.392 . S
C3124 C3127 1.511 . S
C3125 C3121 1.376 . S
C3125 C3124 1.392 . S
C3125 H3137 0.929 . S
C3126 C3122 1.493 1_545 S
C3126 H3138 0.960 . S
C3126 H3139 0.959 1_554 S
C3126 H3140 0.960 . S
C3127 C3124 1.511 . S
C3127 H3141 0.961 . S
C3127 H3142 0.961 . S
C3127 H3143 0.961 . S
C3128 C3129 1.370 1_556 S
C3128 C3130 1.363 . S
C3128 H3144 0.931 . S
C3129 C3128 1.370 1_554 S
C3129 C3133 1.408 . S
C3130 C3128 1.363 . S
C3130 C3131 1.367 1_546 S
C3130 C3134 1.524 1_545 S
C3131 C3123 1.510 . S
C3131 C3130 1.367 1_564 S
C3131 C3132 1.401 1_565 S
C3132 C3131 1.401 1_545 S
C3132 C3133 1.404 . S
C3132 C3135 1.542 . S
C3133 C3129 1.408 . S
C3133 C3132 1.404 . S
C3133 H3145 0.930 . S
C3134 C3130 1.524 1_565 S
C3134 H3146 0.956 1_565 S
C3134 H3147 0.961 . S
C3134 H3148 0.961 . S
C3135 C3132 1.542 . S
C3135 H3149 0.975 . S
C3135 H3150 0.952 1_545 S
C3135 H3151 0.949 1_545 S
H3136 C3120 0.931 . S
H3137 C3125 0.929 . S
H3138 C3126 0.960 . S
H3139 C3126 0.959 1_556 S
H3140 C3126 0.960 . S
H3141 C3127 0.961 . S
H3142 C3127 0.961 . S
H3143 C3127 0.961 . S
H3144 C3128 0.931 . S
H3145 C3133 0.930 . S
H3146 C3134 0.956 1_545 S
H3147 C3134 0.961 . S
H3148 C3134 0.961 . S
H3149 C3135 0.975 . S
H3150 C3135 0.952 1_565 S
H3151 C3135 0.949 1_565 S
C3152 C3153 1.391 . S
C3152 C3154 1.394 . S
C3152 H3168 0.931 . S
C3153 C3152 1.391 . S
C3153 C3157 1.376 . S
C3154 C3152 1.394 . S
C3154 C3155 1.369 . S
C3154 C3158 1.531 . S
C3155 C3154 1.369 . S
C3155 C3156 1.410 . S
C3155 C3163 1.503 . S
C3156 C3155 1.410 . S
C3156 C3157 1.392 . S
C3156 C3159 1.511 . S
C3157 C3153 1.376 . S
C3157 C3156 1.392 . S
C3157 H3169 0.929 . S
C3158 C3154 1.531 . S
C3158 H3170 0.960 . S
C3158 H3171 0.962 . S
C3158 H3172 0.960 . S
C3159 C3156 1.511 . S
C3159 H3173 0.961 . S
C3159 H3174 0.961 . S
C3159 H3175 0.961 . S
C3160 C3161 1.370 . S
C3160 C3162 1.363 . S
C3160 H3176 0.931 . S
C3161 C3160 1.370 . S
C3161 C3165 1.408 . S
C3162 C3160 1.363 . S
C3162 C3163 1.370 . S
C3162 C3166 1.524 . S
C3163 C3155 1.503 . S
C3163 C3162 1.370 . S
C3163 C3164 1.403 . S
C3164 C3163 1.403 . S
C3164 C3165 1.404 . S
C3164 C3167 1.539 . S
C3165 C3161 1.408 . S
C3165 C3164 1.404 . S
C3165 H3177 0.930 . S
C3166 C3162 1.524 . S
C3166 H3178 0.956 . S
C3166 H3179 0.961 . S
C3166 H3180 0.961 . S
C3167 C3164 1.539 . S
C3167 H3181 0.958 . S
C3167 H3182 0.961 . S
C3167 H3183 0.960 . S
H3168 C3152 0.931 . S
H3169 C3157 0.929 . S
H3170 C3158 0.960 . S
H3171 C3158 0.962 . S
H3172 C3158 0.960 . S
H3173 C3159 0.961 . S
H3174 C3159 0.961 . S
H3175 C3159 0.961 . S
H3176 C3160 0.931 . S
H3177 C3165 0.930 . S
H3178 C3166 0.956 . S
H3179 C3166 0.961 . S
H3180 C3166 0.961 . S
H3181 C3167 0.958 . S
H3182 C3167 0.961 . S
H3183 C3167 0.960 . S
C3184 C3185 1.391 . S
C3184 C3186 1.394 . S
C3184 H3200 0.931 . S
C3185 C3184 1.391 . S
C3185 C3189 1.376 . S
C3186 C3184 1.394 . S
C3186 C3187 1.369 . S
C3186 C3190 1.531 . S
C3187 C3186 1.369 . S
C3187 C3188 1.410 . S
C3187 C3195 1.503 . S
C3188 C3187 1.410 . S
C3188 C3189 1.392 . S
C3188 C3191 1.511 . S
C3189 C3185 1.376 . S
C3189 C3188 1.392 . S
C3189 H3201 0.929 . S
C3190 C3186 1.531 . S
C3190 H3202 0.960 . S
C3190 H3203 0.962 1_554 S
C3190 H3204 0.960 1_554 S
C3191 C3188 1.511 . S
C3191 H3205 0.961 . S
C3191 H3206 0.961 . S
C3191 H3207 0.961 . S
C3192 C3193 1.370 . S
C3192 C3194 1.363 . S
C3192 H3208 0.931 . S
C3193 C3192 1.370 . S
C3193 C3197 1.408 . S
C3194 C3192 1.363 . S
C3194 C3195 1.370 . S
C3194 C3198 1.524 . S
C3195 C3187 1.503 . S
C3195 C3194 1.370 . S
C3195 C3196 1.403 . S
C3196 C3195 1.403 . S
C3196 C3197 1.404 . S
C3196 C3199 1.539 . S
C3197 C3193 1.408 . S
C3197 C3196 1.404 . S
C3197 H3209 0.930 . S
C3198 C3194 1.524 . S
C3198 H3210 0.956 . S
C3198 H3211 0.961 . S
C3198 H3212 0.961 . S
C3199 C3196 1.539 . S
C3199 H3213 0.958 . S
C3199 H3214 0.961 . S
C3199 H3215 0.960 . S
H3200 C3184 0.931 . S
H3201 C3189 0.929 . S
H3202 C3190 0.960 . S
H3203 C3190 0.962 1_556 S
H3204 C3190 0.960 1_556 S
H3205 C3191 0.961 . S
H3206 C3191 0.961 . S
H3207 C3191 0.961 . S
H3208 C3192 0.931 . S
H3209 C3197 0.930 . S
H3210 C3198 0.956 . S
H3211 C3198 0.961 . S
H3212 C3198 0.961 . S
H3213 C3199 0.958 . S
H3214 C3199 0.961 . S
H3215 C3199 0.960 . S
C3216 C3217 1.391 . S
C3216 C3218 1.394 . S
C3216 H3232 0.931 . S
C3217 C3216 1.391 . S
C3217 C3221 1.376 . S
C3218 C3216 1.394 . S
C3218 C3219 1.369 . S
C3218 C3222 1.531 . S
C3219 C3218 1.369 . S
C3219 C3220 1.410 . S
C3219 C3227 1.503 . S
C3220 C3219 1.410 . S
C3220 C3221 1.392 . S
C3220 C3223 1.511 . S
C3221 C3217 1.376 . S
C3221 C3220 1.392 . S
C3221 H3233 0.929 . S
C3222 C3218 1.531 . S
C3222 H3234 0.960 . S
C3222 H3235 0.962 . S
C3222 H3236 0.960 . S
C3223 C3220 1.511 . S
C3223 H3237 0.961 . S
C3223 H3238 0.961 . S
C3223 H3239 0.961 . S
C3224 C3225 1.370 . S
C3224 C3226 1.363 . S
C3224 H3240 0.931 . S
C3225 C3224 1.370 . S
C3225 C3229 1.408 . S
C3226 C3224 1.363 . S
C3226 C3227 1.370 . S
C3226 C3230 1.524 . S
C3227 C3219 1.503 . S
C3227 C3226 1.370 . S
C3227 C3228 1.403 . S
C3228 C3227 1.403 . S
C3228 C3229 1.404 . S
C3228 C3231 1.539 . S
C3229 C3225 1.408 . S
C3229 C3228 1.404 . S
C3229 H3241 0.930 . S
C3230 C3226 1.524 . S
C3230 H3242 0.956 . S
C3230 H3243 0.961 . S
C3230 H3244 0.961 . S
C3231 C3228 1.539 . S
C3231 H3245 0.958 . S
C3231 H3246 0.961 . S
C3231 H3247 0.960 . S
H3232 C3216 0.931 . S
H3233 C3221 0.929 . S
H3234 C3222 0.960 . S
H3235 C3222 0.962 . S
H3236 C3222 0.960 . S
H3237 C3223 0.961 . S
H3238 C3223 0.961 . S
H3239 C3223 0.961 . S
H3240 C3224 0.931 . S
H3241 C3229 0.930 . S
H3242 C3230 0.956 . S
H3243 C3230 0.961 . S
H3244 C3230 0.961 . S
H3245 C3231 0.958 . S
H3246 C3231 0.961 . S
H3247 C3231 0.960 . S
C3248 C3249 1.391 . S
C3248 C3250 1.394 . S
C3248 H3264 0.931 . S
C3249 C3248 1.391 . S
C3249 C3253 1.376 . S
C3250 C3248 1.394 . S
C3250 C3251 1.369 . S
C3250 C3254 1.531 . S
C3251 C3250 1.369 . S
C3251 C3252 1.410 . S
C3251 C3259 1.503 . S
C3252 C3251 1.410 . S
C3252 C3253 1.392 . S
C3252 C3255 1.511 . S
C3253 C3249 1.376 . S
C3253 C3252 1.392 . S
C3253 H3265 0.929 . S
C3254 C3250 1.531 . S
C3254 H3266 0.960 . S
C3254 H3267 0.962 . S
C3254 H3268 0.960 . S
C3255 C3252 1.511 . S
C3255 H3269 0.961 . S
C3255 H3270 0.961 . S
C3255 H3271 0.961 . S
C3256 C3257 1.370 . S
C3256 C3258 1.363 . S
C3256 H3272 0.931 . S
C3257 C3256 1.370 . S
C3257 C3261 1.408 . S
C3258 C3256 1.363 . S
C3258 C3259 1.370 . S
C3258 C3262 1.524 . S
C3259 C3251 1.503 . S
C3259 C3258 1.370 . S
C3259 C3260 1.403 . S
C3260 C3259 1.403 . S
C3260 C3261 1.404 . S
C3260 C3263 1.539 . S
C3261 C3257 1.408 . S
C3261 C3260 1.404 . S
C3261 H3273 0.930 . S
C3262 C3258 1.524 . S
C3262 H3274 0.956 . S
C3262 H3275 0.961 . S
C3262 H3276 0.961 . S
C3263 C3260 1.539 . S
C3263 H3277 0.958 . S
C3263 H3278 0.961 . S
C3263 H3279 0.960 . S
H3264 C3248 0.931 . S
H3265 C3253 0.929 . S
H3266 C3254 0.960 . S
H3267 C3254 0.962 . S
H3268 C3254 0.960 . S
H3269 C3255 0.961 . S
H3270 C3255 0.961 . S
H3271 C3255 0.961 . S
H3272 C3256 0.931 . S
H3273 C3261 0.930 . S
H3274 C3262 0.956 . S
H3275 C3262 0.961 . S
H3276 C3262 0.961 . S
H3277 C3263 0.958 . S
H3278 C3263 0.961 . S
H3279 C3263 0.960 . S
C3280 C3281 1.391 . S
C3280 C3282 1.394 . S
C3280 H3296 0.931 . S
C3281 C3280 1.391 . S
C3281 C3285 1.376 . S
C3282 C3280 1.394 . S
C3282 C3283 1.369 . S
C3282 C3286 1.531 . S
C3283 C3282 1.369 . S
C3283 C3284 1.410 . S
C3283 C3291 1.503 . S
C3284 C3283 1.410 . S
C3284 C3285 1.392 . S
C3284 C3287 1.511 . S
C3285 C3281 1.376 . S
C3285 C3284 1.392 . S
C3285 H3297 0.929 . S
C3286 C3282 1.531 . S
C3286 H3298 0.960 . S
C3286 H3299 0.962 . S
C3286 H3300 0.960 . S
C3287 C3284 1.511 . S
C3287 H3301 0.961 . S
C3287 H3302 0.961 . S
C3287 H3303 0.961 . S
C3288 C3289 1.370 . S
C3288 C3290 1.363 . S
C3288 H3304 0.931 . S
C3289 C3288 1.370 . S
C3289 C3293 1.408 . S
C3290 C3288 1.363 . S
C3290 C3291 1.370 . S
C3290 C3294 1.524 . S
C3291 C3283 1.503 . S
C3291 C3290 1.370 . S
C3291 C3292 1.403 . S
C3292 C3291 1.403 . S
C3292 C3293 1.404 . S
C3292 C3295 1.539 . S
C3293 C3289 1.408 . S
C3293 C3292 1.404 . S
C3293 H3305 0.930 . S
C3294 C3290 1.524 . S
C3294 H3306 0.956 . S
C3294 H3307 0.961 . S
C3294 H3308 0.961 . S
C3295 C3292 1.539 . S
C3295 H3309 0.958 . S
C3295 H3310 0.961 . S
C3295 H3311 0.960 . S
H3296 C3280 0.931 . S
H3297 C3285 0.929 . S
H3298 C3286 0.960 . S
H3299 C3286 0.962 . S
H3300 C3286 0.960 . S
H3301 C3287 0.961 . S
H3302 C3287 0.961 . S
H3303 C3287 0.961 . S
H3304 C3288 0.931 . S
H3305 C3293 0.930 . S
H3306 C3294 0.956 . S
H3307 C3294 0.961 . S
H3308 C3294 0.961 . S
H3309 C3295 0.958 . S
H3310 C3295 0.961 . S
H3311 C3295 0.960 . S
C3312 C3313 1.391 . S
C3312 C3314 1.394 . S
C3312 H3328 0.931 . S
C3313 C3312 1.391 . S
C3313 C3317 1.376 . S
C3314 C3312 1.394 . S
C3314 C3315 1.369 . S
C3314 C3318 1.531 . S
C3315 C3314 1.369 . S
C3315 C3316 1.410 . S
C3315 C3323 1.503 . S
C3316 C3315 1.410 . S
C3316 C3317 1.392 . S
C3316 C3319 1.511 . S
C3317 C3313 1.376 . S
C3317 C3316 1.392 . S
C3317 H3329 0.929 . S
C3318 C3314 1.531 . S
C3318 H3330 0.960 . S
C3318 H3331 0.962 . S
C3318 H3332 0.960 . S
C3319 C3316 1.511 . S
C3319 H3333 0.961 . S
C3319 H3334 0.961 . S
C3319 H3335 0.961 . S
C3320 C3321 1.370 . S
C3320 C3322 1.363 . S
C3320 H3336 0.931 . S
C3321 C3320 1.370 . S
C3321 C3325 1.408 . S
C3322 C3320 1.363 . S
C3322 C3323 1.370 . S
C3322 C3326 1.524 . S
C3323 C3315 1.503 . S
C3323 C3322 1.370 . S
C3323 C3324 1.403 . S
C3324 C3323 1.403 . S
C3324 C3325 1.404 . S
C3324 C3327 1.539 . S
C3325 C3321 1.408 . S
C3325 C3324 1.404 . S
C3325 H3337 0.930 . S
C3326 C3322 1.524 . S
C3326 H3338 0.956 . S
C3326 H3339 0.961 . S
C3326 H3340 0.961 . S
C3327 C3324 1.539 . S
C3327 H3341 0.958 . S
C3327 H3342 0.961 . S
C3327 H3343 0.960 . S
H3328 C3312 0.931 . S
H3329 C3317 0.929 . S
H3330 C3318 0.960 . S
H3331 C3318 0.962 . S
H3332 C3318 0.960 . S
H3333 C3319 0.961 . S
H3334 C3319 0.961 . S
H3335 C3319 0.961 . S
H3336 C3320 0.931 . S
H3337 C3325 0.930 . S
H3338 C3326 0.956 . S
H3339 C3326 0.961 . S
H3340 C3326 0.961 . S
H3341 C3327 0.958 . S
H3342 C3327 0.961 . S
H3343 C3327 0.960 . S
C3344 C3345 1.391 . S
C3344 C3346 1.394 . S
C3344 H3360 0.931 . S
C3345 C3344 1.391 . S
C3345 C3349 1.376 . S
C3346 C3344 1.394 . S
C3346 C3347 1.369 . S
C3346 C3350 1.531 . S
C3347 C3346 1.369 . S
C3347 C3348 1.410 . S
C3347 C3355 1.503 . S
C3348 C3347 1.410 . S
C3348 C3349 1.392 . S
C3348 C3351 1.511 . S
C3349 C3345 1.376 . S
C3349 C3348 1.392 . S
C3349 H3361 0.929 . S
C3350 C3346 1.531 . S
C3350 H3362 0.960 . S
C3350 H3363 0.962 . S
C3350 H3364 0.960 . S
C3351 C3348 1.511 . S
C3351 H3365 0.961 . S
C3351 H3366 0.961 . S
C3351 H3367 0.961 . S
C3352 C3353 1.370 . S
C3352 C3354 1.363 . S
C3352 H3368 0.931 . S
C3353 C3352 1.370 . S
C3353 C3357 1.408 . S
C3354 C3352 1.363 . S
C3354 C3355 1.370 . S
C3354 C3358 1.524 . S
C3355 C3347 1.503 . S
C3355 C3354 1.370 . S
C3355 C3356 1.403 . S
C3356 C3355 1.403 . S
C3356 C3357 1.404 . S
C3356 C3359 1.539 . S
C3357 C3353 1.408 . S
C3357 C3356 1.404 . S
C3357 H3369 0.930 . S
C3358 C3354 1.524 . S
C3358 H3370 0.956 . S
C3358 H3371 0.961 . S
C3358 H3372 0.961 . S
C3359 C3356 1.539 . S
C3359 H3373 0.958 . S
C3359 H3374 0.961 . S
C3359 H3375 0.960 . S
H3360 C3344 0.931 . S
H3361 C3349 0.929 . S
H3362 C3350 0.960 . S
H3363 C3350 0.962 . S
H3364 C3350 0.960 . S
H3365 C3351 0.961 . S
H3366 C3351 0.961 . S
H3367 C3351 0.961 . S
H3368 C3352 0.931 . S
H3369 C3357 0.930 . S
H3370 C3358 0.956 . S
H3371 C3358 0.961 . S
H3372 C3358 0.961 . S
H3373 C3359 0.958 . S
H3374 C3359 0.961 . S
H3375 C3359 0.960 . S
C3376 C3377 1.391 . S
C3376 C3378 1.394 . S
C3376 H3392 0.931 . S
C3377 C3376 1.391 . S
C3377 C3381 1.376 . S
C3378 C3376 1.394 . S
C3378 C3379 1.369 . S
C3378 C3382 1.531 . S
C3379 C3378 1.369 . S
C3379 C3380 1.410 . S
C3379 C3387 1.503 . S
C3380 C3379 1.410 . S
C3380 C3381 1.392 . S
C3380 C3383 1.511 . S
C3381 C3377 1.376 . S
C3381 C3380 1.392 . S
C3381 H3393 0.929 . S
C3382 C3378 1.531 . S
C3382 H3394 0.960 . S
C3382 H3395 0.962 . S
C3382 H3396 0.960 . S
C3383 C3380 1.511 . S
C3383 H3397 0.961 . S
C3383 H3398 0.961 . S
C3383 H3399 0.961 . S
C3384 C3385 1.370 . S
C3384 C3386 1.363 . S
C3384 H3400 0.931 . S
C3385 C3384 1.370 . S
C3385 C3389 1.408 . S
C3386 C3384 1.363 . S
C3386 C3387 1.370 . S
C3386 C3390 1.524 . S
C3387 C3379 1.503 . S
C3387 C3386 1.370 . S
C3387 C3388 1.403 . S
C3388 C3387 1.403 . S
C3388 C3389 1.404 . S
C3388 C3391 1.539 . S
C3389 C3385 1.408 . S
C3389 C3388 1.404 . S
C3389 H3401 0.930 . S
C3390 C3386 1.524 . S
C3390 H3402 0.956 . S
C3390 H3403 0.961 . S
C3390 H3404 0.961 . S
C3391 C3388 1.539 . S
C3391 H3405 0.958 . S
C3391 H3406 0.961 . S
C3391 H3407 0.960 . S
H3392 C3376 0.931 . S
H3393 C3381 0.929 . S
H3394 C3382 0.960 . S
H3395 C3382 0.962 . S
H3396 C3382 0.960 . S
H3397 C3383 0.961 . S
H3398 C3383 0.961 . S
H3399 C3383 0.961 . S
H3400 C3384 0.931 . S
H3401 C3389 0.930 . S
H3402 C3390 0.956 . S
H3403 C3390 0.961 . S
H3404 C3390 0.961 . S
H3405 C3391 0.958 . S
H3406 C3391 0.961 . S
H3407 C3391 0.960 . S
C3408 C3409 1.391 . S
C3408 C3410 1.394 . S
C3408 H3424 0.931 . S
C3409 C3408 1.391 . S
C3409 C3413 1.376 . S
C3410 C3408 1.394 . S
C3410 C3411 1.369 . S
C3410 C3414 1.531 . S
C3411 C3410 1.369 . S
C3411 C3412 1.410 . S
C3411 C3419 1.503 . S
C3412 C3411 1.410 . S
C3412 C3413 1.392 . S
C3412 C3415 1.511 . S
C3413 C3409 1.376 . S
C3413 C3412 1.392 . S
C3413 H3425 0.929 . S
C3414 C3410 1.531 . S
C3414 H3426 0.960 . S
C3414 H3427 0.962 . S
C3414 H3428 0.960 . S
C3415 C3412 1.511 . S
C3415 H3429 0.961 . S
C3415 H3430 0.961 . S
C3415 H3431 0.961 . S
C3416 C3417 1.370 . S
C3416 C3418 1.363 . S
C3416 H3432 0.931 1_556 S
C3417 C3416 1.370 . S
C3417 C3421 1.408 . S
C3418 C3416 1.363 . S
C3418 C3419 1.370 . S
C3418 C3422 1.524 . S
C3419 C3411 1.503 . S
C3419 C3418 1.370 . S
C3419 C3420 1.403 . S
C3420 C3419 1.403 . S
C3420 C3421 1.404 . S
C3420 C3423 1.539 . S
C3421 C3417 1.408 . S
C3421 C3420 1.404 . S
C3421 H3433 0.930 . S
C3422 C3418 1.524 . S
C3422 H3434 0.956 . S
C3422 H3435 0.961 . S
C3422 H3436 0.961 1_556 S
C3423 C3420 1.539 . S
C3423 H3437 0.958 . S
C3423 H3438 0.961 . S
C3423 H3439 0.960 . S
H3424 C3408 0.931 . S
H3425 C3413 0.929 . S
H3426 C3414 0.960 . S
H3427 C3414 0.962 . S
H3428 C3414 0.960 . S
H3429 C3415 0.961 . S
H3430 C3415 0.961 . S
H3431 C3415 0.961 . S
H3432 C3416 0.931 1_554 S
H3433 C3421 0.930 . S
H3434 C3422 0.956 . S
H3435 C3422 0.961 . S
H3436 C3422 0.961 1_554 S
H3437 C3423 0.958 . S
H3438 C3423 0.961 . S
H3439 C3423 0.960 . S
C3440 C3441 1.391 . S
C3440 C3442 1.394 . S
C3440 H3456 0.931 . S
C3441 C3440 1.391 . S
C3441 C3445 1.376 . S
C3442 C3440 1.394 . S
C3442 C3443 1.369 . S
C3442 C3446 1.531 . S
C3443 C3442 1.369 . S
C3443 C3444 1.410 . S
C3443 C3451 1.503 . S
C3444 C3443 1.410 . S
C3444 C3445 1.392 . S
C3444 C3447 1.511 . S
C3445 C3441 1.376 . S
C3445 C3444 1.392 . S
C3445 H3457 0.929 . S
C3446 C3442 1.531 . S
C3446 H3458 0.960 . S
C3446 H3459 0.962 . S
C3446 H3460 0.960 . S
C3447 C3444 1.511 . S
C3447 H3461 0.961 . S
C3447 H3462 0.961 . S
C3447 H3463 0.961 . S
C3448 C3449 1.370 . S
C3448 C3450 1.363 . S
C3448 H3464 0.931 . S
C3449 C3448 1.370 . S
C3449 C3453 1.408 . S
C3450 C3448 1.363 . S
C3450 C3451 1.370 . S
C3450 C3454 1.524 . S
C3451 C3443 1.503 . S
C3451 C3450 1.370 . S
C3451 C3452 1.403 . S
C3452 C3451 1.403 . S
C3452 C3453 1.404 . S
C3452 C3455 1.539 . S
C3453 C3449 1.408 . S
C3453 C3452 1.404 . S
C3453 H3465 0.930 . S
C3454 C3450 1.524 . S
C3454 H3466 0.956 . S
C3454 H3467 0.961 . S
C3454 H3468 0.961 . S
C3455 C3452 1.539 . S
C3455 H3469 0.958 . S
C3455 H3470 0.961 . S
C3455 H3471 0.960 . S
H3456 C3440 0.931 . S
H3457 C3445 0.929 . S
H3458 C3446 0.960 . S
H3459 C3446 0.962 . S
H3460 C3446 0.960 . S
H3461 C3447 0.961 . S
H3462 C3447 0.961 . S
H3463 C3447 0.961 . S
H3464 C3448 0.931 . S
H3465 C3453 0.930 . S
H3466 C3454 0.956 . S
H3467 C3454 0.961 . S
H3468 C3454 0.961 . S
H3469 C3455 0.958 . S
H3470 C3455 0.961 . S
H3471 C3455 0.960 . S
C3472 C3473 1.391 . S
C3472 C3474 1.394 . S
C3472 H3488 0.931 . S
C3473 C3472 1.391 . S
C3473 C3477 1.376 . S
C3474 C3472 1.394 . S
C3474 C3475 1.369 . S
C3474 C3478 1.531 . S
C3475 C3474 1.369 . S
C3475 C3476 1.410 . S
C3475 C3483 1.503 . S
C3476 C3475 1.410 . S
C3476 C3477 1.392 . S
C3476 C3479 1.511 . S
C3477 C3473 1.376 . S
C3477 C3476 1.392 . S
C3477 H3489 0.929 . S
C3478 C3474 1.531 . S
C3478 H3490 0.960 . S
C3478 H3491 0.962 . S
C3478 H3492 0.960 . S
C3479 C3476 1.511 . S
C3479 H3493 0.961 . S
C3479 H3494 0.961 . S
C3479 H3495 0.961 . S
C3480 C3481 1.370 . S
C3480 C3482 1.363 . S
C3480 H3496 0.931 . S
C3481 C3480 1.370 . S
C3481 C3485 1.408 . S
C3482 C3480 1.363 . S
C3482 C3483 1.370 . S
C3482 C3486 1.524 . S
C3483 C3475 1.503 . S
C3483 C3482 1.370 . S
C3483 C3484 1.403 . S
C3484 C3483 1.403 . S
C3484 C3485 1.404 . S
C3484 C3487 1.539 . S
C3485 C3481 1.408 . S
C3485 C3484 1.404 . S
C3485 H3497 0.930 . S
C3486 C3482 1.524 . S
C3486 H3498 0.956 . S
C3486 H3499 0.961 . S
C3486 H3500 0.961 . S
C3487 C3484 1.539 . S
C3487 H3501 0.958 . S
C3487 H3502 0.961 1_455 S
C3487 H3503 0.960 . S
H3488 C3472 0.931 . S
H3489 C3477 0.929 . S
H3490 C3478 0.960 . S
H3491 C3478 0.962 . S
H3492 C3478 0.960 . S
H3493 C3479 0.961 . S
H3494 C3479 0.961 . S
H3495 C3479 0.961 . S
H3496 C3480 0.931 . S
H3497 C3485 0.930 . S
H3498 C3486 0.956 . S
H3499 C3486 0.961 . S
H3500 C3486 0.961 . S
H3501 C3487 0.958 . S
H3502 C3487 0.961 1_655 S
H3503 C3487 0.960 . S
C3504 C3505 1.391 . S
C3504 C3506 1.394 . S
C3504 H3520 0.931 . S
C3505 C3504 1.391 . S
C3505 C3509 1.376 . S
C3506 C3504 1.394 . S
C3506 C3507 1.369 . S
C3506 C3510 1.531 . S
C3507 C3506 1.369 . S
C3507 C3508 1.410 . S
C3507 C3515 1.503 . S
C3508 C3507 1.410 . S
C3508 C3509 1.392 . S
C3508 C3511 1.511 . S
C3509 C3505 1.376 . S
C3509 C3508 1.392 . S
C3509 H3521 0.929 . S
C3510 C3506 1.531 . S
C3510 H3522 0.960 . S
C3510 H3523 0.962 . S
C3510 H3524 0.960 . S
C3511 C3508 1.511 . S
C3511 H3525 0.961 . S
C3511 H3526 0.961 . S
C3511 H3527 0.961 . S
C3512 C3513 1.370 . S
C3512 C3514 1.363 . S
C3512 H3528 0.931 . S
C3513 C3512 1.370 . S
C3513 C3517 1.408 . S
C3514 C3512 1.363 . S
C3514 C3515 1.370 . S
C3514 C3518 1.524 . S
C3515 C3507 1.503 . S
C3515 C3514 1.370 . S
C3515 C3516 1.403 . S
C3516 C3515 1.403 . S
C3516 C3517 1.404 . S
C3516 C3519 1.539 . S
C3517 C3513 1.408 . S
C3517 C3516 1.404 . S
C3517 H3529 0.930 . S
C3518 C3514 1.524 . S
C3518 H3530 0.956 . S
C3518 H3531 0.961 . S
C3518 H3532 0.961 . S
C3519 C3516 1.539 . S
C3519 H3533 0.958 . S
C3519 H3534 0.961 . S
C3519 H3535 0.960 . S
H3520 C3504 0.931 . S
H3521 C3509 0.929 . S
H3522 C3510 0.960 . S
H3523 C3510 0.962 . S
H3524 C3510 0.960 . S
H3525 C3511 0.961 . S
H3526 C3511 0.961 . S
H3527 C3511 0.961 . S
H3528 C3512 0.931 . S
H3529 C3517 0.930 . S
H3530 C3518 0.956 . S
H3531 C3518 0.961 . S
H3532 C3518 0.961 . S
H3533 C3519 0.958 . S
H3534 C3519 0.961 . S
H3535 C3519 0.960 . S
C3536 C3537 1.391 . S
C3536 C3538 1.394 . S
C3536 H3552 0.931 . S
C3537 C3536 1.391 . S
C3537 C3541 1.376 . S
C3538 C3536 1.394 . S
C3538 C3539 1.369 . S
C3538 C3542 1.531 . S
C3539 C3538 1.369 . S
C3539 C3540 1.410 . S
C3539 C3547 1.503 . S
C3540 C3539 1.410 . S
C3540 C3541 1.392 . S
C3540 C3543 1.511 . S
C3541 C3537 1.376 . S
C3541 C3540 1.392 . S
C3541 H3553 0.929 . S
C3542 C3538 1.531 . S
C3542 H3554 0.960 . S
C3542 H3555 0.962 . S
C3542 H3556 0.960 . S
C3543 C3540 1.511 . S
C3543 H3557 0.961 . S
C3543 H3558 0.961 . S
C3543 H3559 0.961 . S
C3544 C3545 1.370 . S
C3544 C3546 1.363 . S
C3544 H3560 0.931 . S
C3545 C3544 1.370 . S
C3545 C3549 1.408 . S
C3546 C3544 1.363 . S
C3546 C3547 1.370 . S
C3546 C3550 1.524 . S
C3547 C3539 1.503 . S
C3547 C3546 1.370 . S
C3547 C3548 1.403 . S
C3548 C3547 1.403 . S
C3548 C3549 1.404 . S
C3548 C3551 1.539 . S
C3549 C3545 1.408 . S
C3549 C3548 1.404 . S
C3549 H3561 0.930 . S
C3550 C3546 1.524 . S
C3550 H3562 0.956 . S
C3550 H3563 0.961 . S
C3550 H3564 0.961 . S
C3551 C3548 1.539 . S
C3551 H3565 0.958 . S
C3551 H3566 0.961 . S
C3551 H3567 0.960 . S
H3552 C3536 0.931 . S
H3553 C3541 0.929 . S
H3554 C3542 0.960 . S
H3555 C3542 0.962 . S
H3556 C3542 0.960 . S
H3557 C3543 0.961 . S
H3558 C3543 0.961 . S
H3559 C3543 0.961 . S
H3560 C3544 0.931 . S
H3561 C3549 0.930 . S
H3562 C3550 0.956 . S
H3563 C3550 0.961 . S
H3564 C3550 0.961 . S
H3565 C3551 0.958 . S
H3566 C3551 0.961 . S
H3567 C3551 0.960 . S
C3568 C3569 1.391 . S
C3568 C3570 1.394 . S
C3568 H3584 0.931 . S
C3569 C3568 1.391 . S
C3569 C3573 1.376 . S
C3570 C3568 1.394 . S
C3570 C3571 1.369 . S
C3570 C3574 1.531 . S
C3571 C3570 1.369 . S
C3571 C3572 1.410 . S
C3571 C3579 1.503 . S
C3572 C3571 1.410 . S
C3572 C3573 1.392 . S
C3572 C3575 1.511 . S
C3573 C3569 1.376 . S
C3573 C3572 1.392 . S
C3573 H3585 0.929 . S
C3574 C3570 1.531 . S
C3574 H3586 0.960 . S
C3574 H3587 0.962 . S
C3574 H3588 0.960 . S
C3575 C3572 1.511 . S
C3575 H3589 0.961 . S
C3575 H3590 0.961 . S
C3575 H3591 0.961 . S
C3576 C3577 1.370 . S
C3576 C3578 1.363 . S
C3576 H3592 0.931 . S
C3577 C3576 1.370 . S
C3577 C3581 1.408 . S
C3578 C3576 1.363 . S
C3578 C3579 1.370 . S
C3578 C3582 1.524 . S
C3579 C3571 1.503 . S
C3579 C3578 1.370 . S
C3579 C3580 1.403 . S
C3580 C3579 1.403 . S
C3580 C3581 1.404 . S
C3580 C3583 1.539 . S
C3581 C3577 1.408 . S
C3581 C3580 1.404 . S
C3581 H3593 0.930 . S
C3582 C3578 1.524 . S
C3582 H3594 0.956 . S
C3582 H3595 0.961 . S
C3582 H3596 0.961 . S
C3583 C3580 1.539 . S
C3583 H3597 0.958 . S
C3583 H3598 0.961 . S
C3583 H3599 0.960 . S
H3584 C3568 0.931 . S
H3585 C3573 0.929 . S
H3586 C3574 0.960 . S
H3587 C3574 0.962 . S
H3588 C3574 0.960 . S
H3589 C3575 0.961 . S
H3590 C3575 0.961 . S
H3591 C3575 0.961 . S
H3592 C3576 0.931 . S
H3593 C3581 0.930 . S
H3594 C3582 0.956 . S
H3595 C3582 0.961 . S
H3596 C3582 0.961 . S
H3597 C3583 0.958 . S
H3598 C3583 0.961 . S
H3599 C3583 0.960 . S
C3600 C3601 1.391 . S
C3600 C3602 1.394 . S
C3600 H3616 0.931 . S
C3601 C3600 1.391 . S
C3601 C3605 1.376 . S
C3602 C3600 1.394 . S
C3602 C3603 1.369 . S
C3602 C3606 1.531 . S
C3603 C3602 1.369 . S
C3603 C3604 1.410 . S
C3603 C3611 1.503 1_655 S
C3604 C3603 1.410 . S
C3604 C3605 1.392 . S
C3604 C3607 1.511 1_655 S
C3605 C3601 1.376 . S
C3605 C3604 1.392 . S
C3605 H3617 0.929 . S
C3606 C3602 1.531 . S
C3606 H3618 0.960 1_655 S
C3606 H3619 0.962 . S
C3606 H3620 0.960 . S
C3607 C3604 1.511 1_455 S
C3607 H3621 0.961 1_455 S
C3607 H3622 0.961 . S
C3607 H3623 0.961 . S
C3608 C3609 1.410 . S
C3608 C3610 1.350 1_455 S
C3608 H3624 0.905 1_455 S
C3609 C3608 1.410 . S
C3609 C3613 1.408 . S
C3610 C3608 1.350 1_655 S
C3610 C3611 1.370 1_655 S
C3610 C3614 1.524 . S
C3611 C3603 1.503 1_455 S
C3611 C3610 1.370 1_455 S
C3611 C3612 1.403 . S
C3612 C3611 1.403 . S
C3612 C3613 1.404 . S
C3612 C3615 1.539 . S
C3613 C3609 1.408 . S
C3613 C3612 1.404 . S
C3613 H3625 0.930 . S
C3614 C3610 1.524 . S
C3614 H3626 0.956 . S
C3614 H3627 0.961 . S
C3614 H3628 0.961 . S
C3615 C3612 1.539 . S
C3615 H3629 0.958 . S
C3615 H3630 0.961 . S
C3615 H3631 0.960 . S
H3616 C3600 0.931 . S
H3617 C3605 0.929 . S
H3618 C3606 0.960 1_455 S
H3619 C3606 0.962 . S
H3620 C3606 0.960 . S
H3621 C3607 0.961 1_655 S
H3622 C3607 0.961 . S
H3623 C3607 0.961 . S
H3624 C3608 0.905 1_655 S
H3625 C3613 0.930 . S
H3626 C3614 0.956 . S
H3627 C3614 0.961 . S
H3628 C3614 0.961 . S
H3629 C3615 0.958 . S
H3630 C3615 0.961 . S
H3631 C3615 0.960 . S
C3632 C3633 1.391 . S
C3632 C3634 1.394 . S
C3632 H3648 0.931 . S
C3633 C3632 1.391 . S
C3633 C3637 1.376 . S
C3634 C3632 1.394 . S
C3634 C3635 1.369 . S
C3634 C3638 1.531 . S
C3635 C3634 1.369 . S
C3635 C3636 1.410 . S
C3635 C3643 1.503 . S
C3636 C3635 1.410 . S
C3636 C3637 1.392 . S
C3636 C3639 1.511 . S
C3637 C3633 1.376 . S
C3637 C3636 1.392 . S
C3637 H3649 0.929 . S
C3638 C3634 1.531 . S
C3638 H3650 0.960 . S
C3638 H3651 0.962 . S
C3638 H3652 0.960 . S
C3639 C3636 1.511 . S
C3639 H3653 0.961 . S
C3639 H3654 0.961 . S
C3639 H3655 0.961 . S
C3640 C3641 1.370 . S
C3640 C3642 1.363 . S
C3640 H3656 0.931 . S
C3641 C3640 1.370 . S
C3641 C3645 1.408 . S
C3642 C3640 1.363 . S
C3642 C3643 1.370 . S
C3642 C3646 1.524 . S
C3643 C3635 1.503 . S
C3643 C3642 1.370 . S
C3643 C3644 1.403 . S
C3644 C3643 1.403 . S
C3644 C3645 1.404 . S
C3644 C3647 1.539 . S
C3645 C3641 1.408 . S
C3645 C3644 1.404 . S
C3645 H3657 0.930 . S
C3646 C3642 1.524 . S
C3646 H3658 0.956 . S
C3646 H3659 0.961 . S
C3646 H3660 0.961 . S
C3647 C3644 1.539 . S
C3647 H3661 0.958 . S
C3647 H3662 0.961 . S
C3647 H3663 0.960 . S
H3648 C3632 0.931 . S
H3649 C3637 0.929 . S
H3650 C3638 0.960 . S
H3651 C3638 0.962 . S
H3652 C3638 0.960 . S
H3653 C3639 0.961 . S
H3654 C3639 0.961 . S
H3655 C3639 0.961 . S
H3656 C3640 0.931 . S
H3657 C3645 0.930 . S
H3658 C3646 0.956 . S
H3659 C3646 0.961 . S
H3660 C3646 0.961 . S
H3661 C3647 0.958 . S
H3662 C3647 0.961 . S
H3663 C3647 0.960 . S
C3664 C3665 1.391 . S
C3664 C3666 1.394 . S
C3664 H3680 0.931 . S
C3665 C3664 1.391 . S
C3665 C3669 1.376 . S
C3666 C3664 1.394 . S
C3666 C3667 1.369 . S
C3666 C3670 1.531 . S
C3667 C3666 1.369 . S
C3667 C3668 1.410 . S
C3667 C3675 1.503 . S
C3668 C3667 1.410 . S
C3668 C3669 1.392 . S
C3668 C3671 1.511 . S
C3669 C3665 1.376 . S
C3669 C3668 1.392 . S
C3669 H3681 0.929 . S
C3670 C3666 1.531 . S
C3670 H3682 0.960 . S
C3670 H3683 0.962 . S
C3670 H3684 0.960 . S
C3671 C3668 1.511 . S
C3671 H3685 0.961 . S
C3671 H3686 0.961 . S
C3671 H3687 0.961 . S
C3672 C3673 1.370 . S
C3672 C3674 1.363 . S
C3672 H3688 0.931 . S
C3673 C3672 1.370 . S
C3673 C3677 1.408 . S
C3674 C3672 1.363 . S
C3674 C3675 1.370 . S
C3674 C3678 1.524 . S
C3675 C3667 1.503 . S
C3675 C3674 1.370 . S
C3675 C3676 1.403 . S
C3676 C3675 1.403 . S
C3676 C3677 1.404 . S
C3676 C3679 1.539 . S
C3677 C3673 1.408 . S
C3677 C3676 1.404 . S
C3677 H3689 0.930 . S
C3678 C3674 1.524 . S
C3678 H3690 0.956 . S
C3678 H3691 0.961 . S
C3678 H3692 0.961 . S
C3679 C3676 1.539 . S
C3679 H3693 0.958 . S
C3679 H3694 0.961 . S
C3679 H3695 0.960 . S
H3680 C3664 0.931 . S
H3681 C3669 0.929 . S
H3682 C3670 0.960 . S
H3683 C3670 0.962 . S
H3684 C3670 0.960 . S
H3685 C3671 0.961 . S
H3686 C3671 0.961 . S
H3687 C3671 0.961 . S
H3688 C3672 0.931 . S
H3689 C3677 0.930 . S
H3690 C3678 0.956 . S
H3691 C3678 0.961 . S
H3692 C3678 0.961 . S
H3693 C3679 0.958 . S
H3694 C3679 0.961 . S
H3695 C3679 0.960 . S
C3696 C3697 1.391 . S
C3696 C3698 1.394 . S
C3696 H3712 0.931 . S
C3697 C3696 1.391 . S
C3697 C3701 1.376 . S
C3698 C3696 1.394 . S
C3698 C3699 1.369 . S
C3698 C3702 1.531 . S
C3699 C3698 1.369 . S
C3699 C3700 1.410 . S
C3699 C3707 1.503 . S
C3700 C3699 1.410 . S
C3700 C3701 1.392 . S
C3700 C3703 1.511 . S
C3701 C3697 1.376 . S
C3701 C3700 1.392 . S
C3701 H3713 0.929 . S
C3702 C3698 1.531 . S
C3702 H3714 0.960 . S
C3702 H3715 0.962 . S
C3702 H3716 0.960 . S
C3703 C3700 1.511 . S
C3703 H3717 0.961 . S
C3703 H3718 0.961 . S
C3703 H3719 0.961 . S
C3704 C3705 1.370 . S
C3704 C3706 1.363 . S
C3704 H3720 0.931 . S
C3705 C3704 1.370 . S
C3705 C3709 1.408 . S
C3706 C3704 1.363 . S
C3706 C3707 1.370 . S
C3706 C3710 1.524 . S
C3707 C3699 1.503 . S
C3707 C3706 1.370 . S
C3707 C3708 1.403 . S
C3708 C3707 1.403 . S
C3708 C3709 1.404 . S
C3708 C3711 1.539 . S
C3709 C3705 1.408 . S
C3709 C3708 1.404 . S
C3709 H3721 0.930 . S
C3710 C3706 1.524 . S
C3710 H3722 0.956 . S
C3710 H3723 0.961 . S
C3710 H3724 0.961 . S
C3711 C3708 1.539 . S
C3711 H3725 0.958 . S
C3711 H3726 0.961 . S
C3711 H3727 0.960 . S
H3712 C3696 0.931 . S
H3713 C3701 0.929 . S
H3714 C3702 0.960 . S
H3715 C3702 0.962 . S
H3716 C3702 0.960 . S
H3717 C3703 0.961 . S
H3718 C3703 0.961 . S
H3719 C3703 0.961 . S
H3720 C3704 0.931 . S
H3721 C3709 0.930 . S
H3722 C3710 0.956 . S
H3723 C3710 0.961 . S
H3724 C3710 0.961 . S
H3725 C3711 0.958 . S
H3726 C3711 0.961 . S
H3727 C3711 0.960 . S
C3728 C3729 1.391 . S
C3728 C3730 1.394 . S
C3728 H3744 0.931 . S
C3729 C3728 1.391 . S
C3729 C3733 1.376 . S
C3730 C3728 1.394 . S
C3730 C3731 1.369 . S
C3730 C3734 1.531 . S
C3731 C3730 1.369 . S
C3731 C3732 1.410 . S
C3731 C3739 1.503 . S
C3732 C3731 1.410 . S
C3732 C3733 1.392 . S
C3732 C3735 1.511 . S
C3733 C3729 1.376 . S
C3733 C3732 1.392 . S
C3733 H3745 0.929 . S
C3734 C3730 1.531 . S
C3734 H3746 0.960 1_655 S
C3734 H3747 0.962 . S
C3734 H3748 0.960 1_655 S
C3735 C3732 1.511 . S
C3735 H3749 0.961 . S
C3735 H3750 0.961 . S
C3735 H3751 0.961 . S
C3736 C3737 1.370 1_655 S
C3736 C3738 1.363 . S
C3736 H3752 0.931 . S
C3737 C3736 1.370 1_455 S
C3737 C3741 1.408 . S
C3738 C3736 1.363 . S
C3738 C3739 1.370 . S
C3738 C3742 1.524 . S
C3739 C3731 1.503 . S
C3739 C3738 1.370 . S
C3739 C3740 1.403 1_655 S
C3740 C3739 1.403 1_455 S
C3740 C3741 1.404 . S
C3740 C3743 1.539 . S
C3741 C3737 1.408 . S
C3741 C3740 1.404 . S
C3741 H3753 0.930 . S
C3742 C3738 1.524 . S
C3742 H3754 0.956 . S
C3742 H3755 0.961 . S
C3742 H3756 0.961 . S
C3743 C3740 1.539 . S
C3743 H3757 0.958 . S
C3743 H3758 0.961 . S
C3743 H3759 0.960 . S
H3744 C3728 0.931 . S
H3745 C3733 0.929 . S
H3746 C3734 0.960 1_455 S
H3747 C3734 0.962 . S
H3748 C3734 0.960 1_455 S
H3749 C3735 0.961 . S
H3750 C3735 0.961 . S
H3751 C3735 0.961 . S
H3752 C3736 0.931 . S
H3753 C3741 0.930 . S
H3754 C3742 0.956 . S
H3755 C3742 0.961 . S
H3756 C3742 0.961 . S
H3757 C3743 0.958 . S
H3758 C3743 0.961 . S
H3759 C3743 0.960 . S
C3760 C3761 1.391 . S
C3760 C3762 1.394 . S
C3760 H3776 0.931 . S
C3761 C3760 1.391 . S
C3761 C3765 1.376 . S
C3762 C3760 1.394 . S
C3762 C3763 1.369 . S
C3762 C3766 1.531 . S
C3763 C3762 1.369 . S
C3763 C3764 1.410 . S
C3763 C3771 1.503 . S
C3764 C3763 1.410 . S
C3764 C3765 1.392 . S
C3764 C3767 1.511 . S
C3765 C3761 1.376 . S
C3765 C3764 1.392 . S
C3765 H3777 0.929 . S
C3766 C3762 1.531 . S
C3766 H3778 0.960 . S
C3766 H3779 0.962 . S
C3766 H3780 0.960 . S
C3767 C3764 1.511 . S
C3767 H3781 0.961 . S
C3767 H3782 0.961 . S
C3767 H3783 0.961 . S
C3768 C3769 1.370 . S
C3768 C3770 1.363 . S
C3768 H3784 0.931 . S
C3769 C3768 1.370 . S
C3769 C3773 1.408 . S
C3770 C3768 1.363 . S
C3770 C3771 1.370 . S
C3770 C3774 1.524 . S
C3771 C3763 1.503 . S
C3771 C3770 1.370 . S
C3771 C3772 1.403 . S
C3772 C3771 1.403 . S
C3772 C3773 1.404 . S
C3772 C3775 1.539 . S
C3773 C3769 1.408 . S
C3773 C3772 1.404 . S
C3773 H3785 0.930 . S
C3774 C3770 1.524 . S
C3774 H3786 0.956 . S
C3774 H3787 0.961 . S
C3774 H3788 0.961 . S
C3775 C3772 1.539 . S
C3775 H3789 0.958 . S
C3775 H3790 0.961 . S
C3775 H3791 0.960 . S
H3776 C3760 0.931 . S
H3777 C3765 0.929 . S
H3778 C3766 0.960 . S
H3779 C3766 0.962 . S
H3780 C3766 0.960 . S
H3781 C3767 0.961 . S
H3782 C3767 0.961 . S
H3783 C3767 0.961 . S
H3784 C3768 0.931 . S
H3785 C3773 0.930 . S
H3786 C3774 0.956 . S
H3787 C3774 0.961 . S
H3788 C3774 0.961 . S
H3789 C3775 0.958 . S
H3790 C3775 0.961 . S
H3791 C3775 0.960 . S
C3792 C3793 1.391 . S
C3792 C3794 1.394 . S
C3792 H3808 0.931 . S
C3793 C3792 1.391 . S
C3793 C3797 1.376 . S
C3794 C3792 1.394 . S
C3794 C3795 1.369 . S
C3794 C3798 1.531 . S
C3795 C3794 1.369 . S
C3795 C3796 1.410 . S
C3795 C3803 1.503 . S
C3796 C3795 1.410 . S
C3796 C3797 1.392 . S
C3796 C3799 1.511 . S
C3797 C3793 1.376 . S
C3797 C3796 1.392 . S
C3797 H3809 0.929 . S
C3798 C3794 1.531 . S
C3798 H3810 0.960 . S
C3798 H3811 0.962 . S
C3798 H3812 0.960 . S
C3799 C3796 1.511 . S
C3799 H3813 0.961 . S
C3799 H3814 0.961 . S
C3799 H3815 0.961 . S
C3800 C3801 1.370 . S
C3800 C3802 1.363 . S
C3800 H3816 0.931 . S
C3801 C3800 1.370 . S
C3801 C3805 1.408 . S
C3802 C3800 1.363 . S
C3802 C3803 1.370 . S
C3802 C3806 1.524 . S
C3803 C3795 1.503 . S
C3803 C3802 1.370 . S
C3803 C3804 1.403 . S
C3804 C3803 1.403 . S
C3804 C3805 1.404 . S
C3804 C3807 1.539 . S
C3805 C3801 1.408 . S
C3805 C3804 1.404 . S
C3805 H3817 0.930 . S
C3806 C3802 1.524 . S
C3806 H3818 0.956 . S
C3806 H3819 0.961 . S
C3806 H3820 0.961 . S
C3807 C3804 1.539 . S
C3807 H3821 0.958 . S
C3807 H3822 0.961 . S
C3807 H3823 0.960 . S
H3808 C3792 0.931 . S
H3809 C3797 0.929 . S
H3810 C3798 0.960 . S
H3811 C3798 0.962 . S
H3812 C3798 0.960 . S
H3813 C3799 0.961 . S
H3814 C3799 0.961 . S
H3815 C3799 0.961 . S
H3816 C3800 0.931 . S
H3817 C3805 0.930 . S
H3818 C3806 0.956 . S
H3819 C3806 0.961 . S
H3820 C3806 0.961 . S
H3821 C3807 0.958 . S
H3822 C3807 0.961 . S
H3823 C3807 0.960 . S
C3824 C3825 1.391 . S
C3824 C3826 1.394 . S
C3824 H3840 0.931 . S
C3825 C3824 1.391 . S
C3825 C3829 1.376 . S
C3826 C3824 1.394 . S
C3826 C3827 1.369 . S
C3826 C3830 1.531 . S
C3827 C3826 1.369 . S
C3827 C3828 1.410 . S
C3827 C3835 1.503 . S
C3828 C3827 1.410 . S
C3828 C3829 1.392 . S
C3828 C3831 1.511 . S
C3829 C3825 1.376 . S
C3829 C3828 1.392 . S
C3829 H3841 0.929 . S
C3830 C3826 1.531 . S
C3830 H3842 0.960 . S
C3830 H3843 0.962 . S
C3830 H3844 0.960 . S
C3831 C3828 1.511 . S
C3831 H3845 0.961 . S
C3831 H3846 0.961 . S
C3831 H3847 0.961 . S
C3832 C3833 1.370 1_545 S
C3832 C3834 1.363 1_545 S
C3832 H3848 0.931 . S
C3833 C3832 1.370 1_565 S
C3833 C3837 1.408 . S
C3834 C3832 1.363 1_565 S
C3834 C3835 1.370 . S
C3834 C3838 1.524 . S
C3835 C3827 1.503 . S
C3835 C3834 1.370 . S
C3835 C3836 1.403 . S
C3836 C3835 1.403 . S
C3836 C3837 1.404 . S
C3836 C3839 1.539 . S
C3837 C3833 1.408 . S
C3837 C3836 1.404 . S
C3837 H3849 0.930 . S
C3838 C3834 1.524 . S
C3838 H3850 0.956 . S
C3838 H3851 0.961 . S
C3838 H3852 0.961 1_565 S
C3839 C3836 1.539 . S
C3839 H3853 0.958 . S
C3839 H3854 0.961 . S
C3839 H3855 0.960 . S
H3840 C3824 0.931 . S
H3841 C3829 0.929 . S
H3842 C3830 0.960 . S
H3843 C3830 0.962 . S
H3844 C3830 0.960 . S
H3845 C3831 0.961 . S
H3846 C3831 0.961 . S
H3847 C3831 0.961 . S
H3848 C3832 0.931 . S
H3849 C3837 0.930 . S
H3850 C3838 0.956 . S
H3851 C3838 0.961 . S
H3852 C3838 0.961 1_545 S
H3853 C3839 0.958 . S
H3854 C3839 0.961 . S
H3855 C3839 0.960 . S
C3856 C3857 1.391 . S
C3856 C3858 1.394 . S
C3856 H3872 0.931 . S
C3857 C3856 1.391 . S
C3857 C3861 1.376 . S
C3858 C3856 1.394 . S
C3858 C3859 1.369 . S
C3858 C3862 1.531 . S
C3859 C3858 1.369 . S
C3859 C3860 1.410 . S
C3859 C3867 1.503 . S
C3860 C3859 1.410 . S
C3860 C3861 1.392 . S
C3860 C3863 1.511 . S
C3861 C3857 1.376 . S
C3861 C3860 1.392 . S
C3861 H3873 0.929 . S
C3862 C3858 1.531 . S
C3862 H3874 0.960 . S
C3862 H3875 0.962 . S
C3862 H3876 0.960 . S
C3863 C3860 1.511 . S
C3863 H3877 0.961 . S
C3863 H3878 0.961 . S
C3863 H3879 0.961 . S
C3864 C3865 1.370 . S
C3864 C3866 1.363 . S
C3864 H3880 0.931 . S
C3865 C3864 1.370 . S
C3865 C3869 1.408 . S
C3866 C3864 1.363 . S
C3866 C3867 1.370 . S
C3866 C3870 1.524 . S
C3867 C3859 1.503 . S
C3867 C3866 1.370 . S
C3867 C3868 1.403 . S
C3868 C3867 1.403 . S
C3868 C3869 1.404 . S
C3868 C3871 1.539 . S
C3869 C3865 1.408 . S
C3869 C3868 1.404 . S
C3869 H3881 0.930 . S
C3870 C3866 1.524 . S
C3870 H3882 0.956 . S
C3870 H3883 0.961 . S
C3870 H3884 0.961 . S
C3871 C3868 1.539 . S
C3871 H3885 0.958 . S
C3871 H3886 0.961 . S
C3871 H3887 0.960 . S
H3872 C3856 0.931 . S
H3873 C3861 0.929 . S
H3874 C3862 0.960 . S
H3875 C3862 0.962 . S
H3876 C3862 0.960 . S
H3877 C3863 0.961 . S
H3878 C3863 0.961 . S
H3879 C3863 0.961 . S
H3880 C3864 0.931 . S
H3881 C3869 0.930 . S
H3882 C3870 0.956 . S
H3883 C3870 0.961 . S
H3884 C3870 0.961 . S
H3885 C3871 0.958 . S
H3886 C3871 0.961 . S
H3887 C3871 0.960 . S
C3888 C3889 1.391 . S
C3888 C3890 1.394 . S
C3888 H3904 0.931 . S
C3889 C3888 1.391 . S
C3889 C3893 1.376 . S
C3890 C3888 1.394 . S
C3890 C3891 1.369 . S
C3890 C3894 1.531 . S
C3891 C3890 1.369 . S
C3891 C3892 1.410 . S
C3891 C3899 1.503 . S
C3892 C3891 1.410 . S
C3892 C3893 1.392 . S
C3892 C3895 1.511 . S
C3893 C3889 1.376 . S
C3893 C3892 1.392 . S
C3893 H3905 0.929 . S
C3894 C3890 1.531 . S
C3894 H3906 0.960 . S
C3894 H3907 0.962 . S
C3894 H3908 0.960 . S
C3895 C3892 1.511 . S
C3895 H3909 0.961 . S
C3895 H3910 0.961 . S
C3895 H3911 0.988 . S
C3896 C3897 1.370 . S
C3896 C3898 1.363 . S
C3896 H3912 0.931 . S
C3897 C3896 1.370 . S
C3897 C3901 1.408 . S
C3898 C3896 1.363 . S
C3898 C3899 1.370 . S
C3898 C3902 1.524 . S
C3899 C3891 1.503 . S
C3899 C3898 1.370 . S
C3899 C3900 1.403 . S
C3900 C3899 1.403 . S
C3900 C3901 1.404 . S
C3900 C3903 1.539 . S
C3901 C3897 1.408 . S
C3901 C3900 1.404 . S
C3901 H3913 0.930 . S
C3902 C3898 1.524 . S
C3902 H3914 0.956 . S
C3902 H3915 0.961 . S
C3902 H3916 0.961 . S
C3903 C3900 1.539 . S
C3903 H3917 0.958 . S
C3903 H3918 0.961 . S
C3903 H3919 0.960 . S
H3904 C3888 0.931 . S
H3905 C3893 0.929 . S
H3906 C3894 0.960 . S
H3907 C3894 0.962 . S
H3908 C3894 0.960 . S
H3909 C3895 0.961 . S
H3910 C3895 0.961 . S
H3911 C3895 0.988 . S
H3912 C3896 0.931 . S
H3913 C3901 0.930 . S
H3914 C3902 0.956 . S
H3915 C3902 0.961 . S
H3916 C3902 0.961 . S
H3917 C3903 0.958 . S
H3918 C3903 0.961 . S
H3919 C3903 0.960 . S
C3920 C3921 1.391 . S
C3920 C3922 1.394 . S
C3920 H3936 0.931 . S
C3921 C3920 1.391 . S
C3921 C3925 1.376 . S
C3922 C3920 1.394 . S
C3922 C3923 1.369 . S
C3922 C3926 1.531 . S
C3923 C3922 1.369 . S
C3923 C3924 1.410 . S
C3923 C3931 1.503 . S
C3924 C3923 1.410 . S
C3924 C3925 1.392 . S
C3924 C3927 1.511 . S
C3925 C3921 1.376 . S
C3925 C3924 1.392 . S
C3925 H3937 0.929 . S
C3926 C3922 1.531 . S
C3926 H3938 0.960 . S
C3926 H3939 0.962 . S
C3926 H3940 0.960 . S
C3927 C3924 1.511 . S
C3927 H3941 0.961 . S
C3927 H3942 0.961 . S
C3927 H3943 0.961 . S
C3928 C3929 1.370 . S
C3928 C3930 1.363 . S
C3928 H3944 0.931 . S
C3929 C3928 1.370 . S
C3929 C3933 1.408 . S
C3930 C3928 1.363 . S
C3930 C3931 1.370 . S
C3930 C3934 1.524 . S
C3931 C3923 1.503 . S
C3931 C3930 1.370 . S
C3931 C3932 1.403 . S
C3932 C3931 1.403 . S
C3932 C3933 1.404 . S
C3932 C3935 1.539 . S
C3933 C3929 1.408 . S
C3933 C3932 1.404 . S
C3933 H3945 0.930 . S
C3934 C3930 1.524 . S
C3934 H3946 0.956 . S
C3934 H3947 0.961 . S
C3934 H3948 0.961 . S
C3935 C3932 1.539 . S
C3935 H3949 0.958 . S
C3935 H3950 0.961 . S
C3935 H3951 0.960 . S
H3936 C3920 0.931 . S
H3937 C3925 0.929 . S
H3938 C3926 0.960 . S
H3939 C3926 0.962 . S
H3940 C3926 0.960 . S
H3941 C3927 0.961 . S
H3942 C3927 0.961 . S
H3943 C3927 0.961 . S
H3944 C3928 0.931 . S
H3945 C3933 0.930 . S
H3946 C3934 0.956 . S
H3947 C3934 0.961 . S
H3948 C3934 0.961 . S
H3949 C3935 0.958 . S
H3950 C3935 0.961 . S
H3951 C3935 0.960 . S
C3952 C3953 1.391 . S
C3952 C3954 1.394 . S
C3952 H3968 0.931 . S
C3953 C3952 1.391 . S
C3953 C3957 1.376 . S
C3954 C3952 1.394 . S
C3954 C3955 1.369 . S
C3954 C3958 1.531 1_554 S
C3955 C3954 1.369 . S
C3955 C3956 1.410 . S
C3955 C3963 1.503 . S
C3956 C3955 1.410 . S
C3956 C3957 1.392 . S
C3956 C3959 1.511 . S
C3957 C3953 1.376 . S
C3957 C3956 1.392 . S
C3957 H3969 0.929 . S
C3958 C3954 1.531 1_556 S
C3958 H3970 0.960 . S
C3958 H3971 0.962 . S
C3958 H3972 0.960 . S
C3959 C3956 1.511 . S
C3959 H3973 0.961 . S
C3959 H3974 0.961 . S
C3959 H3975 0.961 . S
C3960 C3961 1.370 . S
C3960 C3962 1.363 . S
C3960 H3976 0.931 . S
C3961 C3960 1.370 . S
C3961 C3965 1.408 1_554 S
C3962 C3960 1.363 . S
C3962 C3963 1.370 . S
C3962 C3966 1.524 . S
C3963 C3955 1.503 . S
C3963 C3962 1.370 . S
C3963 C3964 1.403 1_554 S
C3964 C3963 1.403 1_556 S
C3964 C3965 1.404 . S
C3964 C3967 1.539 . S
C3965 C3961 1.408 1_556 S
C3965 C3964 1.404 . S
C3965 H3977 0.930 . S
C3966 C3962 1.524 . S
C3966 H3978 0.956 . S
C3966 H3979 0.961 . S
C3966 H3980 0.961 . S
C3967 C3964 1.539 . S
C3967 H3981 0.958 . S
C3967 H3982 0.961 . S
C3967 H3983 0.960 . S
H3968 C3952 0.931 . S
H3969 C3957 0.929 . S
H3970 C3958 0.960 . S
H3971 C3958 0.962 . S
H3972 C3958 0.960 . S
H3973 C3959 0.961 . S
H3974 C3959 0.961 . S
H3975 C3959 0.961 . S
H3976 C3960 0.931 . S
H3977 C3965 0.930 . S
H3978 C3966 0.956 . S
H3979 C3966 0.961 . S
H3980 C3966 0.961 . S
H3981 C3967 0.958 . S
H3982 C3967 0.961 . S
H3983 C3967 0.960 . S
C3984 C3985 1.391 . S
C3984 C3986 1.394 . S
C3984 H4000 0.931 . S
C3985 C3984 1.391 . S
C3985 C3989 1.376 . S
C3986 C3984 1.394 . S
C3986 C3987 1.369 . S
C3986 C3990 1.531 . S
C3987 C3986 1.369 . S
C3987 C3988 1.410 . S
C3987 C3995 1.503 . S
C3988 C3987 1.410 . S
C3988 C3989 1.392 . S
C3988 C3991 1.511 . S
C3989 C3985 1.376 . S
C3989 C3988 1.392 . S
C3989 H4001 0.929 . S
C3990 C3986 1.531 . S
C3990 H4002 0.960 . S
C3990 H4003 0.962 . S
C3990 H4004 0.960 . S
C3991 C3988 1.511 . S
C3991 H4005 0.961 . S
C3991 H4006 0.961 . S
C3991 H4007 0.961 . S
C3992 C3993 1.370 . S
C3992 C3994 1.363 . S
C3992 H4008 0.931 . S
C3993 C3992 1.370 . S
C3993 C3997 1.408 . S
C3994 C3992 1.363 . S
C3994 C3995 1.370 . S
C3994 C3998 1.524 . S
C3995 C3987 1.503 . S
C3995 C3994 1.370 . S
C3995 C3996 1.403 . S
C3996 C3995 1.403 . S
C3996 C3997 1.404 . S
C3996 C3999 1.539 . S
C3997 C3993 1.408 . S
C3997 C3996 1.404 . S
C3997 H4009 0.930 . S
C3998 C3994 1.524 . S
C3998 H4010 0.956 . S
C3998 H4011 0.961 . S
C3998 H4012 0.961 . S
C3999 C3996 1.539 . S
C3999 H4013 0.958 . S
C3999 H4014 0.961 . S
C3999 H4015 0.960 . S
H4000 C3984 0.931 . S
H4001 C3989 0.929 . S
H4002 C3990 0.960 . S
H4003 C3990 0.962 . S
H4004 C3990 0.960 . S
H4005 C3991 0.961 . S
H4006 C3991 0.961 . S
H4007 C3991 0.961 . S
H4008 C3992 0.931 . S
H4009 C3997 0.930 . S
H4010 C3998 0.956 . S
H4011 C3998 0.961 . S
H4012 C3998 0.961 . S
H4013 C3999 0.958 . S
H4014 C3999 0.961 . S
H4015 C3999 0.960 . S
C4016 C4017 1.391 . S
C4016 C4018 1.394 . S
C4016 H4032 0.931 . S
C4017 C4016 1.391 . S
C4017 C4021 1.376 . S
C4018 C4016 1.394 . S
C4018 C4019 1.369 . S
C4018 C4022 1.531 . S
C4019 C4018 1.369 . S
C4019 C4020 1.410 . S
C4019 C4027 1.503 . S
C4020 C4019 1.410 . S
C4020 C4021 1.392 . S
C4020 C4023 1.511 . S
C4021 C4017 1.376 . S
C4021 C4020 1.392 . S
C4021 H4033 0.929 . S
C4022 C4018 1.531 . S
C4022 H4034 0.960 . S
C4022 H4035 0.962 . S
C4022 H4036 0.960 . S
C4023 C4020 1.511 . S
C4023 H4037 0.961 . S
C4023 H4038 0.961 . S
C4023 H4039 0.961 . S
C4024 C4025 1.370 . S
C4024 C4026 1.363 . S
C4024 H4040 0.931 . S
C4025 C4024 1.370 . S
C4025 C4029 1.408 . S
C4026 C4024 1.363 . S
C4026 C4027 1.370 . S
C4026 C4030 1.524 . S
C4027 C4019 1.503 . S
C4027 C4026 1.370 . S
C4027 C4028 1.403 . S
C4028 C4027 1.403 . S
C4028 C4029 1.404 . S
C4028 C4031 1.539 . S
C4029 C4025 1.408 . S
C4029 C4028 1.404 . S
C4029 H4041 0.930 . S
C4030 C4026 1.524 . S
C4030 H4042 0.956 . S
C4030 H4043 0.961 . S
C4030 H4044 0.961 . S
C4031 C4028 1.539 . S
C4031 H4045 0.958 . S
C4031 H4046 0.961 . S
C4031 H4047 0.960 . S
H4032 C4016 0.931 . S
H4033 C4021 0.929 . S
H4034 C4022 0.960 . S
H4035 C4022 0.962 . S
H4036 C4022 0.960 . S
H4037 C4023 0.961 . S
H4038 C4023 0.961 . S
H4039 C4023 0.961 . S
H4040 C4024 0.931 . S
H4041 C4029 0.930 . S
H4042 C4030 0.956 . S
H4043 C4030 0.961 . S
H4044 C4030 0.961 . S
H4045 C4031 0.958 . S
H4046 C4031 0.961 . S
H4047 C4031 0.960 . S
C977 C111 2.140 . S
C985 C367 2.123 . S
C1009 C64 1.785 . S
C1017 C378 1.873 . S
C1041 C77 1.570 . S
C1049 C447 1.558 . S
C1081 C460 1.013 . S
C1073 C95 1.016 . S
C1105 C25 2.307 . S
C1113 C516 2.297 . S
C1145 C567 2.114 . S
C1137 C36 2.102 . S
C1177 C596 2.394 . S
C1169 C50 2.317 . S
C1201 C11 2.370 . S
C1209 C647 2.325 . S
C1241 C338 1.161 . S
C1233 C237 1.063 . S
C1265 C245 0.928 . S
C1273 C380 0.871 . S
C1305 C418 0.929 . S
C1297 C279 0.853 . S
C1337 C487 1.599 . S
C1329 C175 1.594 . S
C1361 C231 0.463 . S
C1369 C521 0.535 . S
C1401 C538 1.289 . S
C1393 C251 1.176 . S
C1433 C601 0.349 . S
C1425 C273 0.406 . S
C1465 C618 2.013 . S
C1457 C181 1.969 . S
C1497 C340 1.558 . S
C1489 C165 1.704 1_554 S
C1521 C288 1.605 . S
C1529 C679 1.587 . S
C1561 C700 1.372 . S
C1553 C333 1.523 . S
C1593 C759 0.420 . S
C1585 C316 0.479 . S
C1617 C123 0.958 . S
C1625 C620 0.967 . S
C1649 C137 1.342 . S
C1657 C420 1.312 . S
C1681 C330 0.816 . S
C1689 C778 0.944 . S
C1721 C847 0.954 . S
C1713 C302 0.980 . S
C1753 C356 2.251 . S
C1745 C63 2.242 . S
C1785 C839 1.899 . S
C1777 C106 1.908 . S
C1809 C97 1.616 . S
C1817 C436 1.639 . S
C1841 C81 1.059 . S
C1849 C801 1.085 . S
C1881 C527 2.466 . S
C1873 C13 2.365 . S
C1905 C55 2.002 . S
C1913 C716 2.110 . S
C1945 C607 2.381 1_556 S
C1937 C35 2.374 . S
C1977 C876 2.523 . S
C1969 C21 2.567 1_655 S
C2009 C359 1.267 . S
C2001 C147 1.286 . S
C2041 C841 0.910 . S
C2033 C321 0.854 . S
C2065 C119 0.989 . S
C2073 C439 0.983 . S
C2097 C293 1.696 . S
C2105 C796 1.763 . S
C2129 C153 0.616 . S
C2137 C500 0.618 . S
C2169 C719 1.373 . S
C2161 C315 1.387 . S
C2193 C125 0.537 . S
C2201 C580 0.378 . S
C2225 C287 2.192 . S
C2233 C879 2.149 . S
C2257 C193 1.660 . S
C2265 C361 1.573 1_554 S
C2289 C176 1.621 . S
C2297 C658 1.608 . S
C2321 C263 1.383 . S
C2329 C561 1.395 . S
C2353 C246 0.609 . S
C2361 C738 0.570 . S
C2393 C881 0.958 . S
C2385 C277 0.925 . S
C2417 C221 1.296 . S
C2425 C441 1.320 . S
C2457 C479 1.005 . S
C2449 C260 0.982 . S
C2489 C396 1.044 . S
C2481 C204 1.062 . S
C2513 C83 2.145 . S
C2521 C927 2.109 . S
C2553 C818 1.870 . S
C2545 C92 1.765 . S
C2577 C105 1.570 . S
C2585 C967 1.546 . S
C2609 C67 1.042 . S
C2617 C780 1.032 . S
C2641 C53 2.307 . S
C2649 C676 2.297 . S
C2681 C727 2.108 . S
C2673 C8 2.099 1_655 S
C2713 C756 2.395 . S
C2705 C22 2.327 . S
C2745 C887 2.324 . S
C2737 C39 2.368 . S
C2777 C898 1.180 . S
C2769 C265 1.158 . S
C2801 C189 0.922 . S
C2809 C820 0.888 . S
C2841 C938 0.938 . S
C2833 C209 0.921 . S
C2873 C807 1.598 . S
C2865 C217 1.597 . S
C2905 C681 0.530 . S
C2897 C259 0.464 . S
C2929 C195 1.166 . S
C2937 C698 1.282 . S
C2969 C761 0.347 . S
C2961 C203 0.407 . S
C2993 C223 2.004 . S
C3001 C858 2.026 . S
C3033 C900 1.576 . S
C3025 C319 1.683 . S
C3057 C134 1.556 . S
C3065 C519 1.597 . S
C3097 C540 1.412 . S
C3089 C151 1.480 . S
C3129 C599 0.419 . S
C3121 C162 0.423 . S
C3161 C860 0.971 . S
C3153 C305 0.953 . S
C3185 C291 1.347 . S
C3193 C940 1.297 . S
C3225 C458 0.933 . S
C3217 C148 0.938 . S
C3257 C407 0.960 . S
C3249 C120 0.929 . S
C3281 C91 2.264 . S
C3289 C916 2.254 . S
C3321 C399 1.899 . S
C3313 C78 1.905 . S
C3345 C69 1.561 . S
C3353 C956 1.650 . S
C3377 C109 1.100 . S
C3385 C481 1.074 . S
C3409 C41 2.409 . S
C3417 C687 2.457 1_556 S
C3449 C556 2.105 . S
C3441 C27 1.997 . S
C3473 C7 2.372 . S
C3481 C767 2.381 . S
C3505 C49 2.566 . S
C3513 C636 2.524 . S
C3545 C919 1.265 . S
C3537 C329 1.266 . S
C3569 C167 0.925 . S
C3577 C401 0.889 . S
C3609 C959 0.987 . S
C3601 C301 0.997 . S
C3633 C139 1.648 . S
C3641 C476 1.766 . S
C3665 C335 0.584 . S
C3673 C660 0.609 . S
C3705 C559 1.370 . S
C3697 C161 1.357 . S
C3729 C307 0.427 . S
C3737 C740 0.388 . S
C3769 C639 2.141 . S
C3761 C133 2.193 . S
C3801 C921 1.588 . S
C3793 C249 1.663 . S
C3833 C498 1.615 1_565 S
C3825 C218 1.604 . S
C3857 C235 1.429 . S
C3865 C721 1.358 . S
C3897 C578 0.567 . S
C3889 C190 0.538 . S
C3921 C207 1.011 . S
C3929 C641 0.938 . S
C3953 C179 1.301 . S
C3961 C961 1.308 . S
C3993 C799 0.997 . S
C3985 C232 0.997 . S
C4025 C836 1.031 . S
C4017 C274 1.044 . S
