# Generated by pormake.
# Topology pts, (4,4)-cn, num edge types: 1
# Building blocks:
#     Node 0, Type 0, BuildingBlock: NAWXER_clean_sbu_0, # of connection points: 4
#     Node 1, Type 0, BuildingBlock: NAWXER_clean_sbu_0, # of connection points: 4
#     Node 2, Type 1, BuildingBlock: UXUYUI_clean_sbu_0, # of connection points: 4
#     Node 3, Type 1, BuildingBlock: UXUYUI_clean_sbu_0, # of connection points: 4
#     Edge 4, Type (0, 1), BuildingBlock: TEMPAE_clean_linker_10, # of connection points: 2
#     Edge 5, Type (0, 1), BuildingBlock: TEMPAE_clean_linker_10, # of connection points: 2
#     Edge 6, Type (0, 1), BuildingBlock: TEMPAE_clean_linker_10, # of connection points: 2
#     Edge 7, Type (0, 1), BuildingBlock: TEMPAE_clean_linker_10, # of connection points: 2
#     Edge 8, Type (0, 1), BuildingBlock: TEMPAE_clean_linker_10, # of connection points: 2
#     Edge 9, Type (0, 1), BuildingBlock: TEMPAE_clean_linker_10, # of connection points: 2
#     Edge 10, Type (0, 1), BuildingBlock: TEMPAE_clean_linker_10, # of connection points: 2
#     Edge 11, Type (0, 1), BuildingBlock: TEMPAE_clean_linker_10, # of connection points: 2
# Relax obj value: 0.015
# Max RMSD: 0.059
# Mean RMSD: 0.051
data_MOF--net-pts--node1-NAWXER_clean_sbu_0--node2-UXUYUI_clean_sbu_0--edge1-TEMPAE_clean_linker_10
_symmetry_space_group_name_H-M    P1
_symmetry_Int_Tables_number       1
_symmetry_cell_setting            triclinic
loop_
_symmetry_equiv_pos_as_xyz
'x, y, z'
_cell_length_a     29.110841
_cell_length_b     29.114131
_cell_length_c     46.52262
_cell_angle_alpha  90.018353
_cell_angle_beta   89.994129
_cell_angle_gamma 90.149868
loop_
_atom_site_label
_atom_site_type_symbol
_atom_site_fract_x
_atom_site_fract_y
_atom_site_fract_z
_atom_type_partial_charge
C0 C 0.4458 0.03597 0.97346 0.0
C1 C 0.56824 0.03743 0.04607 0.0
O2 O 0.45988 0.99618 0.98109 0.0
Zn3 Zn 0.50777 0.96536 0.0095 0.0
O4 O 0.46352 0.07157 0.98493 0.0
Zn5 Zn 0.50629 0.03965 0.01042 0.0
O6 O 0.55394 0.00994 0.98099 0.0
O7 O 0.54881 0.93427 0.98266 0.0
O8 O 0.54744 0.07261 0.03637 0.0
O9 O 0.55613 0.99723 0.03771 0.0
O10 O 0.46732 0.93161 0.0357 0.0
O11 O 0.46117 1.00681 0.03979 0.0
C12 C 0.56731 0.97038 0.97232 0.0
C13 C 0.44897 0.96642 0.04761 0.0
C14 C 0.04393 0.5672 0.47032 0.0
C15 C 0.0452 0.44851 0.54551 0.0
O16 O 1.00411 0.5541 0.47883 0.0
Zn17 Zn 0.97336 0.50755 0.50869 0.0
O18 O 0.0797 0.54929 0.4814 0.0
Zn19 Zn 0.04771 0.50842 0.50797 0.0
O20 O 0.01593 0.46125 0.4791 0.0
O21 O 0.94053 0.46532 0.48329 0.0
O22 O 0.08045 0.46724 0.53426 0.0
O23 O 1.00516 0.4613 0.53752 0.0
O24 O 0.94128 0.54909 0.5348 0.0
O25 O 0.01676 0.55724 0.53594 0.0
C26 C 0.97583 0.44765 0.47152 0.0
C27 C 0.97678 0.56966 0.54435 0.0
Li28 Li 1.00571 0.04866 0.27734 0.0
Li29 Li 1.00609 0.96384 0.27539 0.0
Li30 Li 0.04867 1.00505 0.23955 0.0
Li31 Li 0.96671 0.00802 0.24009 0.0
C32 C 0.07865 0.98888 0.30587 0.0
N33 N 0.11534 0.94961 0.35479 0.0
C34 C 0.05536 0.99204 0.33207 0.0
C35 C 0.12079 0.96608 0.3046 0.0
C36 C 0.07443 0.97188 0.35655 0.0
C37 C 0.13872 0.94637 0.32956 0.0
C38 C 0.9081 0.99535 0.28153 0.0
C39 C 0.84641 0.94051 0.2763 0.0
N40 N 0.81546 0.97534 0.27781 0.0
C41 C 0.87569 0.03057 0.28316 0.0
C42 C 0.89341 0.94992 0.27812 0.0
C43 C 0.82901 0.01977 0.28117 0.0
C44 C 0.96643 0.13104 0.29529 0.0
N45 N 1.00202 0.10222 0.30077 0.0
C46 C 0.02615 0.1489 0.34027 0.0
C47 C 0.03228 0.11084 0.32237 0.0
C48 C 0.98875 0.17852 0.33573 0.0
C49 C 0.95904 0.16952 0.3126 0.0
H50 H 0.94344 0.12378 0.27761 0.0
H51 H 0.061 0.08809 0.32584 0.0
C52 C 0.04214 0.878 0.29014 0.0
N53 N 0.01013 0.90947 0.29803 0.0
C54 C 0.05087 0.83995 0.30755 0.0
C55 C 0.99272 0.86692 0.34056 0.0
C56 C 0.98522 0.90454 0.32254 0.0
C57 C 0.02634 0.83424 0.33333 0.0
H58 H 0.06192 0.88332 0.27073 0.0
H59 H 0.96043 0.93048 0.32848 0.0
C60 C 0.03493 0.09894 0.23006 0.0
N61 N 0.08806 0.17589 0.21936 0.0
C62 C 0.02271 0.12944 0.20818 0.0
C63 C 0.07422 0.10763 0.24652 0.0
C64 C 0.05001 0.16812 0.20309 0.0
C65 C 0.10059 0.14671 0.24077 0.0
C66 C 1.0051 0.94133 0.20521 0.0
C67 C 1.00446 0.97532 0.18398 0.0
C68 C 1.00577 0.89508 0.19722 0.0
C69 C 1.00446 0.96238 0.15507 0.0
C70 C 1.00573 0.88354 0.16806 0.0
N71 N 1.00509 0.91715 0.14777 0.0
C72 C 0.12783 0.96079 0.22065 0.0
C73 C 0.11223 0.02843 0.19414 0.0
C74 C 0.16588 0.95128 0.20336 0.0
N75 N 0.10217 0.99902 0.21597 0.0
C76 C 0.14993 0.0202 0.17627 0.0
C77 C 0.1773 0.98111 0.18073 0.0
H78 H 0.11803 0.93708 0.23745 0.0
H79 H 0.0906 0.05778 0.19012 0.0
C80 C 0.9011 0.05713 0.20898 0.0
N81 N 0.91333 0.01373 0.21649 0.0
C82 C 0.86266 0.06464 0.19171 0.0
C83 C 0.84927 0.98265 0.19083 0.0
C84 C 0.8885 0.97665 0.20774 0.0
C85 C 0.83618 0.02712 0.18249 0.0
H86 H 0.92122 0.08598 0.21651 0.0
H87 H 0.89909 0.94249 0.21397 0.0
O88 O 0.05974 0.00712 0.2815 0.0
O89 O 0.95402 1.00529 0.28263 0.0
O90 O 0.00827 0.06099 0.23512 0.0
O91 O 1.00544 0.95284 0.23374 0.0
H92 H 0.02244 0.00911 0.33336 0.0
H93 H 0.13946 0.96356 0.28457 0.0
H94 H 0.05656 0.97371 0.3769 0.0
H95 H 0.17121 0.92846 0.32886 0.0
H96 H 0.83456 0.90555 0.2735 0.0
H97 H 0.8864 0.06589 0.28575 0.0
H98 H 0.91804 0.9223 0.27639 0.0
H99 H 0.80355 0.04671 0.28226 0.0
H100 H 0.05052 0.15515 0.35743 0.0
H101 H 0.92978 0.19137 0.30831 0.0
H102 H 0.07745 0.816 0.30129 0.0
H103 H 0.97253 0.86359 0.36 0.0
H104 H 0.99251 0.12317 0.19517 0.0
H105 H 0.08444 0.08463 0.26353 0.0
H106 H 0.04097 0.19195 0.18619 0.0
H107 H 0.13105 0.15384 0.25334 0.0
H108 H 1.00402 0.0113 0.18965 0.0
H109 H 1.00638 0.86838 0.21341 0.0
H110 H 1.00398 0.98832 0.13843 0.0
H111 H 1.00625 0.84786 0.16157 0.0
H112 H 0.18547 0.92033 0.20724 0.0
H113 H 0.15758 0.04425 0.15917 0.0
H114 H 0.85343 0.09942 0.18587 0.0
H115 H 0.82983 0.95286 0.18391 0.0
Li116 Li 0.96426 0.00817 0.77667 0.0
Li117 Li 0.0458 0.01023 0.77876 0.0
Li118 Li 1.00597 0.05066 0.7398 0.0
Li119 Li 0.00847 0.96539 0.74066 0.0
C120 C 0.98007 0.09005 0.80054 0.0
N121 N 0.931 0.14349 0.83883 0.0
C122 C 0.97132 0.07414 0.82837 0.0
C123 C 0.96452 0.13353 0.79238 0.0
C124 C 0.94628 0.10155 0.84736 0.0
C125 C 0.93959 0.15992 0.81199 0.0
C126 C 0.03296 0.93019 0.80048 0.0
C127 C 0.09313 0.87463 0.80776 0.0
N128 N 0.09067 0.88195 0.83659 0.0
C129 C 0.03083 0.93699 0.83019 0.0
C130 C 0.06422 0.89867 0.78914 0.0
C131 C 0.06038 0.91234 0.84809 0.0
C132 C 0.90449 0.9611 0.81316 0.0
N133 N 0.90903 1.00178 0.79907 0.0
C134 C 0.8371 0.02757 0.81798 0.0
C135 C 0.87612 0.03477 0.801 0.0
C136 C 0.8321 0.98615 0.83319 0.0
C137 C 0.86634 0.95263 0.83052 0.0
H138 H 0.93061 0.93507 0.81102 0.0
H139 H 0.88044 0.06703 0.78987 0.0
C140 C 0.09602 0.04326 0.82634 0.0
N141 N 0.09854 0.01504 0.80313 0.0
C142 C 0.13393 0.04934 0.84427 0.0
C143 C 0.17688 0.99746 0.81399 0.0
C144 C 0.13798 0.99239 0.79658 0.0
C145 C 0.17513 0.02631 0.83823 0.0
H146 H 0.06474 0.06162 0.83081 0.0
H147 H 0.13923 0.97051 0.7778 0.0
C148 C 0.91252 0.02524 0.72753 0.0
N149 N 0.8277 0.06271 0.7148 0.0
C150 C 0.8777 0.99779 0.71588 0.0
C151 C 0.90415 0.07178 0.73252 0.0
C152 C 0.83505 0.01734 0.70965 0.0
C153 C 0.86111 0.0901 0.72598 0.0
C154 C 0.07765 0.00937 0.70956 0.0
C155 C 0.04789 1.00419 0.68619 0.0
C156 C 0.12463 0.01551 0.70474 0.0
C157 C 0.06572 1.0052 0.65833 0.0
C158 C 0.14113 0.01631 0.67654 0.0
N159 N 0.11158 0.01119 0.65412 0.0
C160 C 0.04294 0.13551 0.72412 0.0
C161 C 0.99088 0.106 0.68955 0.0
C162 C 0.05255 0.17339 0.70669 0.0
N163 N 0.01256 0.1029 0.71535 0.0
C164 C 0.99931 0.14342 0.67147 0.0
C165 C 0.03072 0.17772 0.67988 0.0
H166 H 0.06029 0.13164 0.74454 0.0
H167 H 0.96746 0.07917 0.68284 0.0
C168 C 0.96414 0.89201 0.71495 0.0
N169 N 1.00663 0.91083 0.71794 0.0
C170 C 0.95744 0.85372 0.69741 0.0
C171 C 0.03901 0.85291 0.68767 0.0
C172 C 0.04401 0.89191 0.70503 0.0
C173 C 0.99511 0.83391 0.6834 0.0
H174 H 0.93539 0.90699 0.72618 0.0
H175 H 0.07755 0.90726 0.70799 0.0
O176 O 1.00458 0.06373 0.78159 0.0
O177 O 1.0053 0.95502 0.78255 0.0
O178 O 0.95451 1.00664 0.73388 0.0
O179 O 0.06107 0.00894 0.73707 0.0
H180 H 0.98319 0.04067 0.83511 0.0
H181 H 0.97174 0.14687 0.77115 0.0
H182 H 0.93888 0.08942 0.86884 0.0
H183 H 0.92716 0.19351 0.80589 0.0
H184 H 0.11766 0.8503 0.79927 0.0
H185 H 1.00685 0.96127 0.83932 0.0
H186 H 0.06651 0.89321 0.7662 0.0
H187 H 0.05929 0.91744 0.87111 0.0
H188 H 0.81167 0.05451 0.81974 0.0
H189 H 0.86352 0.92004 0.84161 0.0
H190 H 0.13121 0.0725 0.86241 0.0
H191 H 0.20782 0.97871 0.80867 0.0
H192 H 0.88338 0.96179 0.71159 0.0
H193 H 0.93049 0.09353 0.7415 0.0
H194 H 0.80782 0.99644 0.70068 0.0
H195 H 0.85425 0.12607 0.72987 0.0
H196 H 0.01141 0.99944 0.68948 0.0
H197 H 0.14807 0.01966 0.72263 0.0
H198 H 0.04309 1.00125 0.64005 0.0
H199 H 0.17743 0.02104 0.67249 0.0
H200 H 0.07749 0.19851 0.71392 0.0
H201 H 0.98123 0.14554 0.65118 0.0
H202 H 0.92321 0.83957 0.69492 0.0
H203 H 0.06884 0.83843 0.67715 0.0
C204 C 0.38832 0.92057 0.07369 0.0
C205 C 0.41233 0.96189 0.0696 0.0
C206 C 0.35055 0.91833 0.09259 0.0
C207 C 0.33677 0.95827 0.10774 0.0
C208 C 0.36204 0.99949 0.10445 0.0
C209 C 0.39935 1.00076 0.08548 0.0
C210 C 0.32448 0.87374 0.09565 0.0
C211 C 0.34877 0.04283 0.12027 0.0
C212 C 0.21397 0.97818 0.13196 0.0
C213 C 0.21729 0.97145 0.16175 0.0
C214 C 0.25209 0.97175 0.11394 0.0
C215 C 0.29468 0.95829 0.12596 0.0
C216 C 0.29784 0.94974 0.15586 0.0
C217 C 0.25911 0.95642 0.17339 0.0
C218 C 0.24721 0.98113 0.08217 0.0
C219 C 0.34263 0.93554 0.16952 0.0
H220 H 0.3981 0.89042 0.06148 0.0
H221 H 0.41793 0.03278 0.08273 0.0
H222 H 0.32088 0.86452 0.11868 0.0
H223 H 0.28932 0.87782 0.08684 0.0
H224 H 0.34158 0.84498 0.08421 0.0
H225 H 0.37336 0.07141 0.1164 0.0
H226 H 0.31412 0.05404 0.11329 0.0
H227 H 0.34704 0.03622 0.14373 0.0
H228 H 0.18153 0.98889 0.12273 0.0
H229 H 0.26204 0.95138 0.1964 0.0
H230 H 0.26048 0.95172 0.0695 0.0
H231 H 0.26799 0.01172 0.07629 0.0
H232 H 0.21098 0.98749 0.07585 0.0
H233 H 0.35799 0.90637 0.15759 0.0
H234 H 0.33826 0.92541 0.19238 0.0
H235 H 0.36742 0.96451 0.1685 0.0
C236 C 0.00837 0.39164 0.57829 0.0
C237 C 0.04879 0.41078 0.56687 0.0
C238 C 0.00965 0.35432 0.59721 0.0
C239 C 0.05248 0.33548 0.60523 0.0
C240 C 0.09361 0.35506 0.59436 0.0
C241 C 0.09131 0.39251 0.57521 0.0
C242 C 0.96491 0.33451 0.60821 0.0
C243 C 0.13991 0.33603 0.60266 0.0
C244 C 0.0456 0.26203 0.67251 0.0
C245 C 0.04046 0.2178 0.66088 0.0
C246 C 0.05224 0.30044 0.65471 0.0
C247 C 0.05338 0.29463 0.6245 0.0
C248 C 0.04989 0.24993 0.61267 0.0
C249 C 0.04363 0.2121 0.63098 0.0
C250 C 0.05585 0.34749 0.66819 0.0
C251 C 0.05074 0.24225 0.58057 0.0
H252 H 0.97525 0.40543 0.57214 0.0
H253 H 0.12269 0.40704 0.56653 0.0
H254 H 0.96164 0.29812 0.6014 0.0
H255 H 0.96443 0.33508 0.63204 0.0
H256 H 0.93452 0.35364 0.60021 0.0
H257 H 0.16869 0.3563 0.59337 0.0
H258 H 0.14349 0.33562 0.6264 0.0
H259 H 0.14285 0.29999 0.59514 0.0
H260 H 0.04285 0.26694 0.69554 0.0
H261 H 0.04072 0.17799 0.62181 0.0
H262 H 0.02438 0.36744 0.6633 0.0
H263 H 0.08542 0.36667 0.65904 0.0
H264 H 0.05992 0.34571 0.69191 0.0
H265 H 0.01964 0.25762 0.57074 0.0
H266 H 0.05172 0.2052 0.5749 0.0
H267 H 0.08102 0.25951 0.57088 0.0
C268 C 0.64106 1.00693 0.0661 0.0
C269 C 0.60764 0.04155 0.06598 0.0
C270 C 0.67808 0.00821 0.08529 0.0
C271 C 0.68144 0.04458 0.10535 0.0
C272 C 0.64807 0.07999 0.10522 0.0
C273 C 0.61171 0.07834 0.08525 0.0
C274 C 0.71339 0.97028 0.08422 0.0
C275 C 0.6502 0.11891 0.12661 0.0
C276 C 0.75333 0.01402 0.17066 0.0
C277 C 0.79561 0.03432 0.16379 0.0
C278 C 0.7151 0.01921 0.15255 0.0
C279 C 0.7196 0.0445 0.12667 0.0
C280 C 0.76204 0.06586 0.11997 0.0
C281 C 0.79944 0.06082 0.13876 0.0
C282 C 0.67027 0.9965 0.16069 0.0
C283 C 0.76856 0.09224 0.09233 0.0
H284 H 0.6384 0.97869 0.05099 0.0
H285 H 0.58583 0.10503 0.08527 0.0
H286 H 0.74829 0.98509 0.08155 0.0
H287 H 0.71317 0.95094 0.10476 0.0
H288 H 0.70698 0.94573 0.06637 0.0
H289 H 0.62224 0.14427 0.1233 0.0
H290 H 0.64756 0.10504 0.14876 0.0
H291 H 0.68371 0.13693 0.12498 0.0
H292 H 0.75023 0.99398 0.19021 0.0
H293 H 0.83223 0.07631 0.13336 0.0
H294 H 0.66265 0.96817 0.14545 0.0
H295 H 0.64166 0.02149 0.1592 0.0
H296 H 0.67109 0.98214 0.18281 0.0
H297 H 0.76561 0.06841 0.07379 0.0
H298 H 0.80257 0.10957 0.0913 0.0
H299 H 0.7413 0.11849 0.08989 0.0
C300 C 1.00543 0.64496 0.56168 0.0
C301 C 0.97337 0.60918 0.56413 0.0
C302 C 1.00571 0.68173 0.58109 0.0
C303 C 0.97387 0.68219 0.60407 0.0
C304 C 0.94089 0.64642 0.60647 0.0
C305 C 0.94062 0.61052 0.58616 0.0
C306 C 0.04062 0.71972 0.57722 0.0
C307 C 0.90701 0.64533 0.63101 0.0
C308 C 0.01337 0.75377 0.6678 0.0
C309 C 0.98824 0.79423 0.66393 0.0
C310 C 0.00736 0.71615 0.64924 0.0
C311 C 0.97637 0.71964 0.62585 0.0
C312 C 0.95065 0.7604 0.62203 0.0
C313 C 0.95653 0.79703 0.64133 0.0
C314 C 0.03482 0.673 0.65436 0.0
C315 C 0.91822 0.76598 0.59695 0.0
H316 H 0.03051 0.64419 0.54444 0.0
H317 H 0.91604 0.58267 0.58816 0.0
H318 H 0.0232 0.75357 0.57671 0.0
H319 H 0.06471 0.72011 0.59568 0.0
H320 H 0.06088 0.71573 0.55714 0.0
H321 H 0.88271 0.61595 0.62935 0.0
H322 H 0.9258 0.64272 0.6517 0.0
H323 H 0.88702 0.67769 0.63163 0.0
H324 H 0.03754 0.75151 0.68547 0.0
H325 H 0.93729 0.8285 0.63828 0.0
H326 H 0.05966 0.66803 0.63655 0.0
H327 H 0.01174 0.6426 0.65463 0.0
H328 H 0.05415 0.67424 0.67493 0.0
H329 H 0.93791 0.76483 0.57653 0.0
H330 H 0.89907 0.79891 0.59785 0.0
H331 H 0.89314 0.73726 0.59639 0.0
C332 C 0.39017 0.99832 0.94016 0.0
C333 C 0.40823 0.03896 0.95197 0.0
C334 C 0.35331 0.99916 0.92086 0.0
C335 C 0.33383 0.04173 0.91292 0.0
C336 C 0.35234 0.08307 0.92419 0.0
C337 C 0.38936 0.08122 0.94366 0.0
C338 C 0.33461 0.95424 0.90942 0.0
C339 C 0.3325 0.1291 0.91607 0.0
C340 C 0.25999 0.03739 0.84557 0.0
C341 C 0.2158 0.03242 0.85724 0.0
C342 C 0.29863 0.04238 0.86342 0.0
C343 C 0.29297 0.04222 0.89366 0.0
C344 C 0.24837 0.0382 0.90554 0.0
C345 C 0.21039 0.0333 0.88721 0.0
C346 C 0.34562 0.04661 0.84994 0.0
C347 C 0.24087 0.03744 0.93766 0.0
H348 H 0.40447 0.96541 0.94628 0.0
H349 H 0.4031 0.11276 0.95262 0.0
H350 H 0.29831 0.94992 0.9162 0.0
H351 H 0.33514 0.95435 0.88558 0.0
H352 H 0.35448 0.92414 0.91713 0.0
H353 H 0.3522 0.15814 0.92553 0.0
H354 H 0.33211 0.13296 0.89235 0.0
H355 H 0.29638 0.13128 0.92355 0.0
H356 H 0.26437 0.03748 0.82244 0.0
H357 H 0.17645 0.02897 0.89642 0.0
H358 H 0.36643 0.01593 0.85535 0.0
H359 H 0.36393 0.07701 0.8587 0.0
H360 H 0.34389 0.04976 0.82617 0.0
H361 H 0.25686 1.00623 0.94693 0.0
H362 H 0.20384 0.03755 0.94344 0.0
H363 H 0.25766 0.0676 0.94782 0.0
C364 C 0.01166 0.39696 0.43471 0.0
C365 C 0.97212 0.41065 0.4497 0.0
C366 C 0.01066 0.36007 0.41542 0.0
C367 C 0.96906 0.33597 0.41087 0.0
C368 C 0.92861 0.35025 0.42527 0.0
C369 C 0.93058 0.38756 0.44453 0.0
C370 C 0.05457 0.34617 0.40044 0.0
C371 C 0.88361 0.32539 0.42087 0.0
C372 C 0.96793 0.26123 0.3439 0.0
C373 C 0.98069 0.21836 0.35511 0.0
C374 C 0.96198 0.29946 0.36194 0.0
C375 C 0.96898 0.29474 0.39191 0.0
C376 C 0.98043 0.25124 0.40345 0.0
C377 C 0.98617 0.21363 0.38492 0.0
C378 C 0.94999 0.34529 0.3488 0.0
C379 C 0.98814 0.24473 0.43529 0.0
H380 H 0.0439 0.41476 0.43831 0.0
H381 H 0.8999 0.3979 0.45601 0.0
H382 H 0.06429 0.31089 0.40704 0.0
H383 H 0.0494 0.34571 0.37682 0.0
H384 H 0.08361 0.36967 0.40544 0.0
H385 H 0.85475 0.34237 0.43228 0.0
H386 H 0.87529 0.32351 0.39763 0.0
H387 H 0.88656 0.28959 0.42881 0.0
H388 H 0.96394 0.26525 0.32088 0.0
H389 H 0.99514 0.18043 0.3938 0.0
H390 H 0.9795 0.3692 0.35111 0.0
H391 H 0.92044 0.36086 0.36025 0.0
H392 H 0.94134 0.34234 0.32562 0.0
H393 H 0.01889 0.26451 0.44212 0.0
H394 H 0.99335 0.20809 0.44108 0.0
H395 H 0.95843 0.25813 0.44761 0.0
C396 C 0.63261 0.00734 0.94663 0.0
C397 C 0.60537 0.96815 0.9512 0.0
C398 C 0.6689 0.0071 0.9269 0.0
C399 C 0.67809 0.96681 0.91096 0.0
C400 C 0.65077 0.92703 0.91534 0.0
C401 C 0.61484 0.92804 0.93562 0.0
C402 C 0.69758 0.05007 0.92325 0.0
C403 C 0.65936 0.8836 0.89848 0.0
C404 C 0.74747 0.98882 0.84319 0.0
C405 C 0.79207 0.97829 0.85238 0.0
C406 C 0.70963 0.98298 0.86158 0.0
C407 C 0.7167 0.96684 0.88996 0.0
C408 C 0.76155 0.95517 0.89912 0.0
C409 C 0.79865 0.96084 0.88017 0.0
C410 C 0.66229 0.99543 0.85094 0.0
C411 C 0.77067 0.93859 0.92933 0.0
H412 H 0.62591 0.03841 0.95876 0.0
H413 H 0.59387 0.89771 0.93901 0.0
H414 H 0.73417 0.04247 0.92786 0.0
H415 H 0.69558 0.06224 0.9007 0.0
H416 H 0.68629 0.07834 0.93763 0.0
H417 H 0.63477 0.8558 0.90416 0.0
H418 H 0.65653 0.89074 0.87512 0.0
H419 H 0.69478 0.87121 0.90249 0.0
H420 H 0.7422 1.00173 0.82158 0.0
H421 H 0.83314 0.95304 0.88745 0.0
H422 H 0.64963 0.02602 0.86272 0.0
H423 H 0.63783 0.96694 0.8552 0.0
H424 H 0.66198 1.0032 0.82756 0.0
H425 H 0.76316 0.96657 0.94482 0.0
H426 H 0.80685 0.92758 0.93238 0.0
H427 H 0.74768 0.90938 0.93469 0.0
C428 C 0.0889 0.62426 0.44066 0.0
C429 C 0.04683 0.60416 0.44842 0.0
C430 C 0.09053 0.6612 0.42112 0.0
C431 C 0.04916 0.67829 0.40918 0.0
C432 C 1.00683 0.65744 0.4165 0.0
C433 C 1.00621 0.62073 0.43591 0.0
C434 C 0.13631 0.68248 0.41366 0.0
C435 C 0.96189 0.67453 0.40428 0.0
C436 C 0.03662 0.80081 0.38262 0.0
C437 C 0.03593 0.79471 0.3527 0.0
C438 C 0.04309 0.76347 0.40125 0.0
C439 C 0.04926 0.71889 0.38972 0.0
C440 C 0.05048 0.71276 0.35954 0.0
C441 C 0.04368 0.7507 0.34139 0.0
C442 C 0.04148 0.77148 0.43331 0.0
C443 C 0.05697 0.6658 0.3464 0.0
H444 H 0.12042 0.6117 0.4502 0.0
H445 H 0.97348 0.6054 0.44157 0.0
H446 H 0.14108 0.68298 0.39 0.0
H447 H 0.13724 0.71866 0.42114 0.0
H448 H 0.16549 0.66374 0.42356 0.0
H449 H 0.93205 0.65373 0.41159 0.0
H450 H 0.95628 0.71073 0.41084 0.0
H451 H 0.96299 0.67376 0.38045 0.0
H452 H 0.03171 0.83484 0.39154 0.0
H453 H 0.04293 0.74556 0.31833 0.0
H454 H 0.07195 0.75603 0.44382 0.0
H455 H 0.0106 0.75447 0.44245 0.0
H456 H 0.04022 0.80858 0.43883 0.0
H457 H 0.08688 0.64829 0.35625 0.0
H458 H 0.06222 0.6675 0.32277 0.0
H459 H 0.02623 0.64429 0.35075 0.0
loop_
_geom_bond_atom_site_label_1
_geom_bond_atom_site_label_2
_geom_bond_distance
_geom_bond_site_symmetry_2
_ccdc_geom_bond_type
C0 O2 1.246 . S
C0 O4 1.259 1_565 S
C1 O8 1.251 . S
C1 O9 1.254 1_545 S
O2 C0 1.246 . S
O2 Zn3 2.028 1_556 S
Zn3 O2 2.028 1_554 S
Zn3 O7 2.035 1_554 S
Zn3 O9 2.035 . S
Zn3 O10 2.028 . S
O4 C0 1.259 1_545 S
O4 Zn5 2.035 1_556 S
Zn5 O4 2.035 1_554 S
Zn5 O6 2.028 1_554 S
Zn5 O8 2.028 . S
Zn5 O11 2.035 . S
O6 Zn5 2.028 1_556 S
O6 C12 1.251 . S
O7 Zn3 2.035 1_556 S
O7 C12 1.254 1_565 S
O8 C1 1.251 . S
O8 Zn5 2.028 . S
O9 C1 1.254 1_565 S
O9 Zn3 2.035 . S
O10 Zn3 2.028 . S
O10 C13 1.246 . S
O11 Zn5 2.035 . S
O11 C13 1.259 1_545 S
C12 O6 1.251 . S
C12 O7 1.254 1_545 S
C13 O10 1.246 . S
C13 O11 1.259 1_565 S
C14 O16 1.246 . S
C14 O18 1.259 1_655 S
C15 O22 1.251 . S
C15 O23 1.254 1_455 S
O16 C14 1.246 . S
O16 Zn17 2.028 . S
Zn17 O16 2.028 . S
Zn17 O21 2.035 . S
Zn17 O23 2.035 . S
Zn17 O24 2.028 . S
O18 C14 1.259 1_455 S
O18 Zn19 2.035 . S
Zn19 O18 2.035 . S
Zn19 O20 2.028 . S
Zn19 O22 2.028 . S
Zn19 O25 2.035 . S
O20 Zn19 2.028 . S
O20 C26 1.251 . S
O21 Zn17 2.035 . S
O21 C26 1.254 1_655 S
O22 C15 1.251 . S
O22 Zn19 2.028 . S
O23 C15 1.254 1_655 S
O23 Zn17 2.035 . S
O24 Zn17 2.028 . S
O24 C27 1.246 . S
O25 Zn19 2.035 . S
O25 C27 1.259 1_455 S
C26 O20 1.251 . S
C26 O21 1.254 1_455 S
C27 O24 1.246 . S
C27 O25 1.259 1_655 S
Li28 N45 1.990 . S
Li28 O88 1.956 1_545 S
Li28 O89 1.970 1_455 S
Li28 O90 1.961 1_455 S
Li29 N53 1.990 . S
Li29 O88 1.970 1_655 S
Li29 O89 1.956 1_565 S
Li29 O91 1.961 1_655 S
Li30 N75 1.990 . S
Li30 O88 1.961 1_545 S
Li30 O90 1.956 1_455 S
Li30 O91 1.970 1_545 S
Li31 N81 1.990 . S
Li31 O89 1.961 1_565 S
Li31 O90 1.970 1_565 S
Li31 O91 1.956 1_655 S
C32 C34 1.348 1_545 S
C32 C35 1.356 . S
C32 O88 1.325 1_545 S
N33 C36 1.314 1_545 S
N33 C37 1.279 . S
C34 C32 1.348 1_565 S
C34 C36 1.353 . S
C34 H92 0.929 . S
C35 C32 1.356 . S
C35 C37 1.358 . S
C35 H93 0.930 . S
C36 N33 1.314 1_565 S
C36 C34 1.353 . S
C36 H94 0.930 . S
C37 N33 1.279 . S
C37 C35 1.358 . S
C37 H95 0.930 . S
C38 C41 1.348 . S
C38 C42 1.356 1_545 S
C38 O89 1.325 . S
C39 N40 1.279 . S
C39 C42 1.358 . S
C39 H96 0.930 . S
N40 C39 1.279 . S
N40 C43 1.314 1_565 S
C41 C38 1.348 . S
C41 C43 1.353 . S
C41 H97 0.929 . S
C42 C38 1.356 1_565 S
C42 C39 1.358 . S
C42 H98 0.930 . S
C43 N40 1.314 1_545 S
C43 C41 1.353 . S
C43 H99 0.930 . S
C44 N45 1.314 1_655 S
C44 C49 1.353 . S
C44 H50 0.930 . S
N45 Li28 1.990 . S
N45 C44 1.314 1_455 S
N45 C47 1.279 . S
C46 C47 1.358 . S
C46 C48 1.356 . S
C46 H100 0.930 . S
C47 N45 1.279 . S
C47 C46 1.358 . S
C47 H51 0.930 . S
C48 C46 1.356 . S
C48 C49 1.348 1_455 S
C49 C44 1.353 . S
C49 C48 1.348 1_655 S
C49 H101 0.929 . S
H50 C44 0.930 . S
H51 C47 0.930 . S
C52 N53 1.314 1_455 S
C52 C54 1.353 . S
C52 H58 0.930 . S
N53 Li29 1.990 . S
N53 C52 1.314 1_655 S
N53 C56 1.279 . S
C54 C52 1.353 . S
C54 C57 1.348 . S
C54 H102 0.929 . S
C55 C56 1.358 . S
C55 C57 1.356 1_655 S
C55 H103 0.930 . S
C56 N53 1.279 . S
C56 C55 1.358 . S
C56 H59 0.930 . S
C57 C54 1.348 . S
C57 C55 1.356 1_455 S
H58 C52 0.930 . S
H59 C56 0.930 . S
C60 C62 1.348 1_455 S
C60 C63 1.356 . S
C60 O90 1.325 1_455 S
N61 C64 1.314 1_455 S
N61 C65 1.279 . S
C62 C60 1.348 1_655 S
C62 C64 1.353 . S
C62 H104 0.929 . S
C63 C60 1.356 . S
C63 C65 1.358 . S
C63 H105 0.930 . S
C64 N61 1.314 1_655 S
C64 C62 1.353 . S
C64 H106 0.930 . S
C65 N61 1.279 . S
C65 C63 1.358 . S
C65 H107 0.930 . S
C66 C67 1.348 . S
C66 C68 1.356 1_455 S
C66 O91 1.325 . S
C67 C66 1.348 . S
C67 C69 1.353 . S
C67 H108 0.929 . S
C68 C66 1.356 1_655 S
C68 C70 1.358 . S
C68 H109 0.930 . S
C69 C67 1.353 . S
C69 N71 1.314 1_455 S
C69 H110 0.930 . S
C70 C68 1.358 . S
C70 N71 1.279 . S
C70 H111 0.930 . S
N71 C69 1.314 1_655 S
N71 C70 1.279 . S
C72 C74 1.353 . S
C72 N75 1.314 1_565 S
C72 H78 0.930 . S
C73 N75 1.279 . S
C73 C76 1.358 . S
C73 H79 0.930 . S
C74 C72 1.353 . S
C74 C77 1.348 1_565 S
C74 H112 0.929 . S
N75 Li30 1.990 . S
N75 C72 1.314 1_545 S
N75 C73 1.279 . S
C76 C73 1.358 . S
C76 C77 1.356 . S
C76 H113 0.930 . S
C77 C74 1.348 1_545 S
C77 C76 1.356 . S
H78 C72 0.930 . S
H79 C73 0.930 . S
C80 N81 1.314 1_545 S
C80 C82 1.353 . S
C80 H86 0.930 . S
N81 Li31 1.990 . S
N81 C80 1.314 1_565 S
N81 C84 1.279 . S
C82 C80 1.353 . S
C82 C85 1.348 . S
C82 H114 0.929 . S
C83 C84 1.358 . S
C83 C85 1.356 1_565 S
C83 H115 0.930 . S
C84 N81 1.279 . S
C84 C83 1.358 . S
C84 H87 0.930 . S
C85 C82 1.348 . S
C85 C83 1.356 1_545 S
H86 C80 0.930 . S
H87 C84 0.930 . S
O88 Li28 1.956 1_565 S
O88 Li29 1.970 1_455 S
O88 Li30 1.961 1_565 S
O88 C32 1.325 1_565 S
O89 Li28 1.970 1_655 S
O89 Li29 1.956 1_545 S
O89 Li31 1.961 1_545 S
O89 C38 1.325 . S
O90 Li28 1.961 1_655 S
O90 Li30 1.956 1_655 S
O90 Li31 1.970 1_545 S
O90 C60 1.325 1_655 S
O91 Li29 1.961 1_455 S
O91 Li30 1.970 1_565 S
O91 Li31 1.956 1_455 S
O91 C66 1.325 . S
H92 C34 0.929 . S
H93 C35 0.930 . S
H94 C36 0.930 . S
H95 C37 0.930 . S
H96 C39 0.930 . S
H97 C41 0.929 . S
H98 C42 0.930 . S
H99 C43 0.930 . S
H100 C46 0.930 . S
H101 C49 0.929 . S
H102 C54 0.929 . S
H103 C55 0.930 . S
H104 C62 0.929 . S
H105 C63 0.930 . S
H106 C64 0.930 . S
H107 C65 0.930 . S
H108 C67 0.929 . S
H109 C68 0.930 . S
H110 C69 0.930 . S
H111 C70 0.930 . S
H112 C74 0.929 . S
H113 C76 0.930 . S
H114 C82 0.929 . S
H115 C83 0.930 . S
Li116 N133 1.990 . S
Li116 O176 1.956 1_655 S
Li116 O177 1.970 1_545 S
Li116 O178 1.961 1_545 S
Li117 N141 1.990 . S
Li117 O176 1.970 1_565 S
Li117 O177 1.956 1_455 S
Li117 O179 1.961 1_565 S
Li118 N163 1.990 . S
Li118 O176 1.961 1_655 S
Li118 O178 1.956 1_545 S
Li118 O179 1.970 1_655 S
Li119 N169 1.990 . S
Li119 O177 1.961 1_455 S
Li119 O178 1.970 1_455 S
Li119 O179 1.956 1_565 S
C120 C122 1.348 . S
C120 C123 1.356 1_455 S
C120 O176 1.325 . S
N121 C124 1.314 1_655 S
N121 C125 1.279 . S
C122 C120 1.348 . S
C122 C124 1.353 . S
C122 H180 0.929 . S
C123 C120 1.356 1_655 S
C123 C125 1.358 . S
C123 H181 0.930 . S
C124 N121 1.314 1_455 S
C124 C122 1.353 . S
C124 H182 0.930 . S
C125 N121 1.279 . S
C125 C123 1.358 . S
C125 H183 0.930 . S
C126 C129 1.348 1_455 S
C126 C130 1.356 . S
C126 O177 1.325 1_455 S
C127 N128 1.279 . S
C127 C130 1.358 . S
C127 H184 0.930 . S
N128 C127 1.279 . S
N128 C131 1.314 1_455 S
C129 C126 1.348 1_655 S
C129 C131 1.353 . S
C129 H185 0.929 . S
C130 C126 1.356 . S
C130 C127 1.358 . S
C130 H186 0.930 . S
C131 N128 1.314 1_655 S
C131 C129 1.353 . S
C131 H187 0.930 . S
C132 N133 1.314 1_565 S
C132 C137 1.353 . S
C132 H138 0.930 . S
N133 Li116 1.990 . S
N133 C132 1.314 1_545 S
N133 C135 1.279 . S
C134 C135 1.358 . S
C134 C136 1.356 . S
C134 H188 0.930 . S
C135 N133 1.279 . S
C135 C134 1.358 . S
C135 H139 0.930 . S
C136 C134 1.356 . S
C136 C137 1.348 1_545 S
C137 C132 1.353 . S
C137 C136 1.348 1_565 S
C137 H189 0.929 . S
H138 C132 0.930 . S
H139 C135 0.930 . S
C140 N141 1.314 1_545 S
C140 C142 1.353 . S
C140 H146 0.930 . S
N141 Li117 1.990 . S
N141 C140 1.314 1_565 S
N141 C144 1.279 . S
C142 C140 1.353 . S
C142 C145 1.348 . S
C142 H190 0.929 . S
C143 C144 1.358 . S
C143 C145 1.356 1_565 S
C143 H191 0.930 . S
C144 N141 1.279 . S
C144 C143 1.358 . S
C144 H147 0.930 . S
C145 C142 1.348 . S
C145 C143 1.356 1_545 S
H146 C140 0.930 . S
H147 C144 0.930 . S
C148 C150 1.348 1_545 S
C148 C151 1.356 . S
C148 O178 1.325 1_545 S
N149 C152 1.314 1_545 S
N149 C153 1.279 . S
C150 C148 1.348 1_565 S
C150 C152 1.353 . S
C150 H192 0.929 . S
C151 C148 1.356 . S
C151 C153 1.358 . S
C151 H193 0.930 . S
C152 N149 1.314 1_565 S
C152 C150 1.353 . S
C152 H194 0.930 . S
C153 N149 1.279 . S
C153 C151 1.358 . S
C153 H195 0.930 . S
C154 C155 1.348 . S
C154 C156 1.356 1_545 S
C154 O179 1.325 . S
C155 C154 1.348 . S
C155 C157 1.353 . S
C155 H196 0.929 . S
C156 C154 1.356 1_565 S
C156 C158 1.358 . S
C156 H197 0.930 . S
C157 C155 1.353 . S
C157 N159 1.314 1_545 S
C157 H198 0.930 . S
C158 C156 1.358 . S
C158 N159 1.279 . S
C158 H199 0.930 . S
N159 C157 1.314 1_565 S
N159 C158 1.279 . S
C160 C162 1.353 . S
C160 N163 1.314 1_455 S
C160 H166 0.930 . S
C161 N163 1.279 . S
C161 C164 1.358 . S
C161 H167 0.930 . S
C162 C160 1.353 . S
C162 C165 1.348 . S
C162 H200 0.929 . S
N163 Li118 1.990 . S
N163 C160 1.314 1_655 S
N163 C161 1.279 . S
C164 C161 1.358 . S
C164 C165 1.356 1_655 S
C164 H201 0.930 . S
C165 C162 1.348 . S
C165 C164 1.356 1_455 S
H166 C160 0.930 . S
H167 C161 0.930 . S
C168 N169 1.314 1_655 S
C168 C170 1.353 . S
C168 H174 0.930 . S
N169 Li119 1.990 . S
N169 C168 1.314 1_455 S
N169 C172 1.279 . S
C170 C168 1.353 . S
C170 C173 1.348 1_655 S
C170 H202 0.929 . S
C171 C172 1.358 . S
C171 C173 1.356 . S
C171 H203 0.930 . S
C172 N169 1.279 . S
C172 C171 1.358 . S
C172 H175 0.930 . S
C173 C170 1.348 1_455 S
C173 C171 1.356 . S
H174 C168 0.930 . S
H175 C172 0.930 . S
O176 Li116 1.956 1_455 S
O176 Li117 1.970 1_545 S
O176 Li118 1.961 1_455 S
O176 C120 1.325 . S
O177 Li116 1.970 1_565 S
O177 Li117 1.956 1_655 S
O177 Li119 1.961 1_655 S
O177 C126 1.325 1_655 S
O178 Li116 1.961 1_565 S
O178 Li118 1.956 1_565 S
O178 Li119 1.970 1_655 S
O178 C148 1.325 1_565 S
O179 Li117 1.961 1_545 S
O179 Li118 1.970 1_455 S
O179 Li119 1.956 1_545 S
O179 C154 1.325 . S
H180 C122 0.929 . S
H181 C123 0.930 . S
H182 C124 0.930 . S
H183 C125 0.930 . S
H184 C127 0.930 . S
H185 C129 0.929 . S
H186 C130 0.930 . S
H187 C131 0.930 . S
H188 C134 0.930 . S
H189 C137 0.929 . S
H190 C142 0.929 . S
H191 C143 0.930 . S
H192 C150 0.929 . S
H193 C151 0.930 . S
H194 C152 0.930 . S
H195 C153 0.930 . S
H196 C155 0.929 . S
H197 C156 0.930 . S
H198 C157 0.930 . S
H199 C158 0.930 . S
H200 C162 0.929 . S
H201 C164 0.930 . S
H202 C170 0.929 . S
H203 C171 0.930 . S
C204 C205 1.408 . S
C204 C206 1.394 . S
C204 H220 0.931 . S
C205 C204 1.408 . S
C205 C209 1.360 1_565 S
C206 C204 1.394 . S
C206 C207 1.369 . S
C206 C210 1.531 . S
C207 C206 1.369 . S
C207 C208 1.410 1_565 S
C207 C215 1.503 . S
C208 C207 1.410 1_545 S
C208 C209 1.392 . S
C208 C211 1.511 . S
C209 C205 1.360 1_545 S
C209 C208 1.392 . S
C209 H221 0.929 . S
C210 C206 1.531 . S
C210 H222 0.960 . S
C210 H223 0.962 . S
C210 H224 0.960 . S
C211 C208 1.511 . S
C211 H225 0.961 . S
C211 H226 0.961 . S
C211 H227 0.961 . S
C212 C213 1.367 1_545 S
C212 C214 1.363 . S
C212 H228 0.931 . S
C213 C212 1.367 1_565 S
C213 C217 1.413 . S
C214 C212 1.363 . S
C214 C215 1.370 1_545 S
C214 C218 1.524 . S
C215 C207 1.503 . S
C215 C214 1.370 1_565 S
C215 C216 1.403 . S
C216 C215 1.403 . S
C216 C217 1.404 . S
C216 C219 1.539 . S
C217 C213 1.413 . S
C217 C216 1.404 . S
C217 H229 0.930 . S
C218 C214 1.524 . S
C218 H230 0.956 1_545 S
C218 H231 0.961 . S
C218 H232 0.961 . S
C219 C216 1.539 . S
C219 H233 0.958 . S
C219 H234 0.961 . S
C219 H235 0.960 . S
H220 C204 0.931 . S
H221 C209 0.929 . S
H222 C210 0.960 . S
H223 C210 0.962 . S
H224 C210 0.960 . S
H225 C211 0.961 . S
H226 C211 0.961 . S
H227 C211 0.961 . S
H228 C212 0.931 . S
H229 C217 0.930 . S
H230 C218 0.956 1_565 S
H231 C218 0.961 . S
H232 C218 0.961 . S
H233 C219 0.958 . S
H234 C219 0.961 . S
H235 C219 0.960 . S
C236 C237 1.391 1_655 S
C236 C238 1.394 . S
C236 H252 0.931 . S
C237 C236 1.391 1_455 S
C237 C241 1.376 . S
C238 C236 1.394 . S
C238 C239 1.369 1_655 S
C238 C242 1.531 . S
C239 C238 1.369 1_455 S
C239 C240 1.410 . S
C239 C247 1.503 . S
C240 C239 1.410 . S
C240 C241 1.392 . S
C240 C243 1.511 . S
C241 C237 1.376 . S
C241 C240 1.392 . S
C241 H253 0.929 . S
C242 C238 1.531 . S
C242 H254 0.960 . S
C242 H255 0.962 . S
C242 H256 0.960 . S
C243 C240 1.511 . S
C243 H257 0.961 . S
C243 H258 0.961 . S
C243 H259 0.961 . S
C244 C245 1.370 1_655 S
C244 C246 1.363 . S
C244 H260 0.931 . S
C245 C244 1.370 1_455 S
C245 C249 1.408 . S
C246 C244 1.363 . S
C246 C247 1.370 1_655 S
C246 C250 1.524 . S
C247 C239 1.503 . S
C247 C246 1.370 1_455 S
C247 C248 1.403 . S
C248 C247 1.403 . S
C248 C249 1.404 . S
C248 C251 1.539 . S
C249 C245 1.408 . S
C249 C248 1.404 . S
C249 H261 0.930 . S
C250 C246 1.524 . S
C250 H262 0.956 . S
C250 H263 0.961 . S
C250 H264 0.961 . S
C251 C248 1.539 . S
C251 H265 0.958 . S
C251 H266 0.961 . S
C251 H267 0.960 . S
H252 C236 0.931 . S
H253 C241 0.929 . S
H254 C242 0.960 . S
H255 C242 0.962 . S
H256 C242 0.960 . S
H257 C243 0.961 . S
H258 C243 0.961 . S
H259 C243 0.961 . S
H260 C244 0.931 . S
H261 C249 0.930 . S
H262 C250 0.956 . S
H263 C250 0.961 . S
H264 C250 0.961 . S
H265 C251 0.958 . S
H266 C251 0.961 . S
H267 C251 0.960 . S
C268 C269 1.391 1_565 S
C268 C270 1.394 . S
C268 H284 0.931 . S
C269 C268 1.391 1_545 S
C269 C273 1.376 . S
C270 C268 1.394 . S
C270 C271 1.369 1_565 S
C270 C274 1.531 . S
C271 C270 1.369 1_545 S
C271 C272 1.410 . S
C271 C279 1.503 . S
C272 C271 1.410 . S
C272 C273 1.392 . S
C272 C275 1.511 . S
C273 C269 1.376 . S
C273 C272 1.392 . S
C273 H285 0.929 . S
C274 C270 1.531 . S
C274 H286 0.960 . S
C274 H287 0.962 . S
C274 H288 0.960 . S
C275 C272 1.511 . S
C275 H289 0.961 . S
C275 H290 0.961 . S
C275 H291 0.961 . S
C276 C277 1.370 1_565 S
C276 C278 1.363 . S
C276 H292 0.931 . S
C277 C276 1.370 1_545 S
C277 C281 1.408 . S
C278 C276 1.363 . S
C278 C279 1.370 1_565 S
C278 C282 1.524 . S
C279 C271 1.503 . S
C279 C278 1.370 1_545 S
C279 C280 1.403 . S
C280 C279 1.403 . S
C280 C281 1.404 . S
C280 C283 1.539 . S
C281 C277 1.408 . S
C281 C280 1.404 . S
C281 H293 0.930 . S
C282 C278 1.524 . S
C282 H294 0.956 . S
C282 H295 0.961 . S
C282 H296 0.961 . S
C283 C280 1.539 . S
C283 H297 0.958 . S
C283 H298 0.961 . S
C283 H299 0.960 . S
H284 C268 0.931 . S
H285 C273 0.929 . S
H286 C274 0.960 . S
H287 C274 0.962 . S
H288 C274 0.960 . S
H289 C275 0.961 . S
H290 C275 0.961 . S
H291 C275 0.961 . S
H292 C276 0.931 . S
H293 C281 0.930 . S
H294 C282 0.956 . S
H295 C282 0.961 . S
H296 C282 0.961 . S
H297 C283 0.958 . S
H298 C283 0.961 . S
H299 C283 0.960 . S
C300 C301 1.391 1_455 S
C300 C302 1.394 . S
C300 H316 0.931 . S
C301 C300 1.391 1_655 S
C301 C305 1.376 . S
C302 C300 1.394 . S
C302 C303 1.369 1_455 S
C302 C306 1.531 . S
C303 C302 1.369 1_655 S
C303 C304 1.410 . S
C303 C311 1.503 . S
C304 C303 1.410 . S
C304 C305 1.392 . S
C304 C307 1.511 . S
C305 C301 1.376 . S
C305 C304 1.392 . S
C305 H317 0.929 . S
C306 C302 1.531 . S
C306 H318 0.960 . S
C306 H319 0.962 . S
C306 H320 0.960 . S
C307 C304 1.511 . S
C307 H321 0.961 . S
C307 H322 0.961 . S
C307 H323 0.961 . S
C308 C309 1.370 1_455 S
C308 C310 1.363 . S
C308 H324 0.931 . S
C309 C308 1.370 1_655 S
C309 C313 1.408 . S
C310 C308 1.363 . S
C310 C311 1.370 1_455 S
C310 C314 1.524 . S
C311 C303 1.503 . S
C311 C310 1.370 1_655 S
C311 C312 1.403 . S
C312 C311 1.403 . S
C312 C313 1.404 . S
C312 C315 1.539 . S
C313 C309 1.408 . S
C313 C312 1.404 . S
C313 H325 0.930 . S
C314 C310 1.524 . S
C314 H326 0.956 . S
C314 H327 0.961 . S
C314 H328 0.961 . S
C315 C312 1.539 . S
C315 H329 0.958 . S
C315 H330 0.961 . S
C315 H331 0.960 . S
H316 C300 0.931 . S
H317 C305 0.929 . S
H318 C306 0.960 . S
H319 C306 0.962 . S
H320 C306 0.960 . S
H321 C307 0.961 . S
H322 C307 0.961 . S
H323 C307 0.961 . S
H324 C308 0.931 . S
H325 C313 0.930 . S
H326 C314 0.956 . S
H327 C314 0.961 . S
H328 C314 0.961 . S
H329 C315 0.958 . S
H330 C315 0.961 . S
H331 C315 0.960 . S
C332 C333 1.391 1_565 S
C332 C334 1.394 . S
C332 H348 0.931 . S
C333 C332 1.391 1_545 S
C333 C337 1.376 . S
C334 C332 1.394 . S
C334 C335 1.369 1_565 S
C334 C338 1.531 . S
C335 C334 1.369 1_545 S
C335 C336 1.410 . S
C335 C343 1.503 . S
C336 C335 1.410 . S
C336 C337 1.392 . S
C336 C339 1.511 . S
C337 C333 1.376 . S
C337 C336 1.392 . S
C337 H349 0.929 . S
C338 C334 1.531 . S
C338 H350 0.960 1_565 S
C338 H351 0.962 . S
C338 H352 0.960 . S
C339 C336 1.511 . S
C339 H353 0.961 . S
C339 H354 0.961 . S
C339 H355 0.961 . S
C340 C341 1.370 1_565 S
C340 C342 1.363 . S
C340 H356 0.931 . S
C341 C340 1.370 1_545 S
C341 C345 1.408 . S
C342 C340 1.363 . S
C342 C343 1.370 1_565 S
C342 C346 1.524 . S
C343 C335 1.503 . S
C343 C342 1.370 1_545 S
C343 C344 1.403 . S
C344 C343 1.403 . S
C344 C345 1.404 . S
C344 C347 1.539 . S
C345 C341 1.408 . S
C345 C344 1.404 . S
C345 H357 0.930 . S
C346 C342 1.524 . S
C346 H358 0.956 . S
C346 H359 0.961 . S
C346 H360 0.961 . S
C347 C344 1.539 . S
C347 H361 0.958 . S
C347 H362 0.961 . S
C347 H363 0.960 . S
H348 C332 0.931 . S
H349 C337 0.929 . S
H350 C338 0.960 1_545 S
H351 C338 0.962 . S
H352 C338 0.960 . S
H353 C339 0.961 . S
H354 C339 0.961 . S
H355 C339 0.961 . S
H356 C340 0.931 . S
H357 C345 0.930 . S
H358 C346 0.956 . S
H359 C346 0.961 . S
H360 C346 0.961 . S
H361 C347 0.958 . S
H362 C347 0.961 . S
H363 C347 0.960 . S
C364 C365 1.381 1_455 S
C364 C366 1.394 . S
C364 H380 0.931 . S
C365 C364 1.381 1_655 S
C365 C369 1.386 . S
C366 C364 1.394 . S
C366 C367 1.347 1_455 S
C366 C370 1.531 . S
C367 C366 1.347 1_655 S
C367 C368 1.432 . S
C367 C375 1.504 . S
C368 C367 1.432 . S
C368 C369 1.392 . S
C368 C371 1.511 . S
C369 C365 1.386 . S
C369 C368 1.392 . S
C369 H381 0.929 . S
C370 C366 1.531 . S
C370 H382 0.960 . S
C370 H383 0.962 . S
C370 H384 0.960 . S
C371 C368 1.511 . S
C371 H385 0.961 . S
C371 H386 0.961 . S
C371 H387 0.961 . S
C372 C373 1.370 1_455 S
C372 C374 1.363 . S
C372 H388 0.931 . S
C373 C372 1.370 1_655 S
C373 C377 1.408 . S
C374 C372 1.363 . S
C374 C375 1.370 1_455 S
C374 C378 1.524 . S
C375 C367 1.504 . S
C375 C374 1.370 1_655 S
C375 C376 1.403 . S
C376 C375 1.403 . S
C376 C377 1.404 . S
C376 C379 1.539 . S
C377 C373 1.408 . S
C377 C376 1.404 . S
C377 H389 0.930 . S
C378 C374 1.524 . S
C378 H390 0.956 . S
C378 H391 0.961 1_455 S
C378 H392 0.961 . S
C379 C376 1.539 . S
C379 H393 0.958 1_655 S
C379 H394 0.961 . S
C379 H395 0.960 . S
H380 C364 0.931 . S
H381 C369 0.929 . S
H382 C370 0.960 . S
H383 C370 0.962 . S
H384 C370 0.960 . S
H385 C371 0.961 . S
H386 C371 0.961 . S
H387 C371 0.961 . S
H388 C372 0.931 . S
H389 C377 0.930 . S
H390 C378 0.956 . S
H391 C378 0.961 1_655 S
H392 C378 0.961 . S
H393 C379 0.958 1_455 S
H394 C379 0.961 . S
H395 C379 0.960 . S
C396 C397 1.391 1_545 S
C396 C398 1.394 . S
C396 H412 0.931 . S
C397 C396 1.391 1_565 S
C397 C401 1.376 . S
C398 C396 1.394 . S
C398 C399 1.369 1_545 S
C398 C402 1.531 . S
C399 C398 1.369 1_565 S
C399 C400 1.410 . S
C399 C407 1.503 . S
C400 C399 1.410 . S
C400 C401 1.392 . S
C400 C403 1.511 . S
C401 C397 1.376 . S
C401 C400 1.392 . S
C401 H413 0.929 . S
C402 C398 1.531 . S
C402 H414 0.960 1_545 S
C402 H415 0.962 . S
C402 H416 0.960 . S
C403 C400 1.511 . S
C403 H417 0.961 . S
C403 H418 0.961 . S
C403 H419 0.961 . S
C404 C405 1.370 1_545 S
C404 C406 1.363 . S
C404 H420 0.931 . S
C405 C404 1.370 1_565 S
C405 C409 1.408 . S
C406 C404 1.363 . S
C406 C407 1.370 1_545 S
C406 C410 1.524 . S
C407 C399 1.503 . S
C407 C406 1.370 1_565 S
C407 C408 1.403 . S
C408 C407 1.403 . S
C408 C409 1.404 . S
C408 C411 1.539 . S
C409 C405 1.408 . S
C409 C408 1.404 . S
C409 H421 0.930 . S
C410 C406 1.524 . S
C410 H422 0.956 . S
C410 H423 0.961 . S
C410 H424 0.961 . S
C411 C408 1.539 . S
C411 H425 0.958 . S
C411 H426 0.961 . S
C411 H427 0.960 . S
H412 C396 0.931 . S
H413 C401 0.929 . S
H414 C402 0.960 1_565 S
H415 C402 0.962 . S
H416 C402 0.960 . S
H417 C403 0.961 . S
H418 C403 0.961 . S
H419 C403 0.961 . S
H420 C404 0.931 . S
H421 C409 0.930 . S
H422 C410 0.956 . S
H423 C410 0.961 . S
H424 C410 0.961 . S
H425 C411 0.958 . S
H426 C411 0.961 . S
H427 C411 0.960 . S
C428 C429 1.391 1_455 S
C428 C430 1.394 . S
C428 H444 0.931 . S
C429 C428 1.391 1_655 S
C429 C433 1.376 . S
C430 C428 1.394 . S
C430 C431 1.369 1_455 S
C430 C434 1.531 . S
C431 C430 1.369 1_655 S
C431 C432 1.410 . S
C431 C439 1.503 . S
C432 C431 1.410 . S
C432 C433 1.392 . S
C432 C435 1.511 . S
C433 C429 1.376 . S
C433 C432 1.392 . S
C433 H445 0.929 . S
C434 C430 1.531 . S
C434 H446 0.960 . S
C434 H447 0.962 . S
C434 H448 0.960 . S
C435 C432 1.511 . S
C435 H449 0.961 . S
C435 H450 0.961 . S
C435 H451 0.961 . S
C436 C437 1.371 1_455 S
C436 C438 1.363 . S
C436 H452 0.931 . S
C437 C436 1.371 1_655 S
C437 C441 1.407 . S
C438 C436 1.363 . S
C438 C439 1.370 1_455 S
C438 C442 1.524 . S
C439 C431 1.503 . S
C439 C438 1.370 1_655 S
C439 C440 1.403 . S
C440 C439 1.403 . S
C440 C441 1.404 . S
C440 C443 1.539 . S
C441 C437 1.407 . S
C441 C440 1.404 . S
C441 H453 0.930 . S
C442 C438 1.524 . S
C442 H454 0.956 . S
C442 H455 0.961 . S
C442 H456 0.961 . S
C443 C440 1.539 . S
C443 H457 0.958 . S
C443 H458 0.961 . S
C443 H459 0.960 . S
H444 C428 0.931 . S
H445 C433 0.929 . S
H446 C434 0.960 . S
H447 C434 0.962 . S
H448 C434 0.960 . S
H449 C435 0.961 . S
H450 C435 0.961 . S
H451 C435 0.961 . S
H452 C436 0.931 . S
H453 C441 0.930 . S
H454 C442 0.956 . S
H455 C442 0.961 . S
H456 C442 0.961 . S
H457 C443 0.958 . S
H458 C443 0.961 . S
H459 C443 0.960 . S
C213 C77 1.460 1_565 S
C205 C13 1.444 . S
C245 C165 1.457 . S
C237 C15 1.458 . S
C277 C85 1.458 . S
C269 C1 1.456 . S
C309 C173 1.458 1_655 S
C301 C27 1.456 . S
C341 C145 1.459 . S
C333 C0 1.457 1_545 S
C373 C48 1.456 1_655 S
C365 C26 1.459 1_655 S
C405 C136 1.459 1_565 S
C397 C12 1.461 1_565 S
C429 C14 1.450 . S
C437 C57 1.459 1_655 S
