# Generated by pormake.
# Topology zzz, (3,6)-cn, num edge types: 1
# Building blocks:
#     Node 0, Type 0, BuildingBlock: WUSLED_clean_sbu_0, # of connection points: 3
#     Node 1, Type 0, BuildingBlock: WUSLED_clean_sbu_0, # of connection points: 3
#     Node 2, Type 0, BuildingBlock: WUSLED_clean_sbu_0, # of connection points: 3
#     Node 3, Type 0, BuildingBlock: WUSLED_clean_sbu_0, # of connection points: 3
#     Node 4, Type 0, BuildingBlock: WUSLED_clean_sbu_0, # of connection points: 3
#     Node 5, Type 0, BuildingBlock: WUSLED_clean_sbu_0, # of connection points: 3
#     Node 6, Type 0, BuildingBlock: WUSLED_clean_sbu_0, # of connection points: 3
#     Node 7, Type 0, BuildingBlock: WUSLED_clean_sbu_0, # of connection points: 3
#     Node 8, Type 1, BuildingBlock: CIFDUS_clean_sbu_1, # of connection points: 6
#     Node 9, Type 1, BuildingBlock: CIFDUS_clean_sbu_1, # of connection points: 6
#     Node 10, Type 1, BuildingBlock: CIFDUS_clean_sbu_1, # of connection points: 6
#     Node 11, Type 1, BuildingBlock: CIFDUS_clean_sbu_1, # of connection points: 6
#     Edge 12, Type (0, 1), BuildingBlock: MIFKUJ_clean_linker_0, # of connection points: 2
#     Edge 13, Type (0, 1), BuildingBlock: MIFKUJ_clean_linker_0, # of connection points: 2
#     Edge 14, Type (0, 1), BuildingBlock: MIFKUJ_clean_linker_0, # of connection points: 2
#     Edge 15, Type (0, 1), BuildingBlock: MIFKUJ_clean_linker_0, # of connection points: 2
#     Edge 16, Type (0, 1), BuildingBlock: MIFKUJ_clean_linker_0, # of connection points: 2
#     Edge 17, Type (0, 1), BuildingBlock: MIFKUJ_clean_linker_0, # of connection points: 2
#     Edge 18, Type (0, 1), BuildingBlock: MIFKUJ_clean_linker_0, # of connection points: 2
#     Edge 19, Type (0, 1), BuildingBlock: MIFKUJ_clean_linker_0, # of connection points: 2
#     Edge 20, Type (0, 1), BuildingBlock: MIFKUJ_clean_linker_0, # of connection points: 2
#     Edge 21, Type (0, 1), BuildingBlock: MIFKUJ_clean_linker_0, # of connection points: 2
#     Edge 22, Type (0, 1), BuildingBlock: MIFKUJ_clean_linker_0, # of connection points: 2
#     Edge 23, Type (0, 1), BuildingBlock: MIFKUJ_clean_linker_0, # of connection points: 2
#     Edge 24, Type (0, 1), BuildingBlock: MIFKUJ_clean_linker_0, # of connection points: 2
#     Edge 25, Type (0, 1), BuildingBlock: MIFKUJ_clean_linker_0, # of connection points: 2
#     Edge 26, Type (0, 1), BuildingBlock: MIFKUJ_clean_linker_0, # of connection points: 2
#     Edge 27, Type (0, 1), BuildingBlock: MIFKUJ_clean_linker_0, # of connection points: 2
#     Edge 28, Type (0, 1), BuildingBlock: MIFKUJ_clean_linker_0, # of connection points: 2
#     Edge 29, Type (0, 1), BuildingBlock: MIFKUJ_clean_linker_0, # of connection points: 2
#     Edge 30, Type (0, 1), BuildingBlock: MIFKUJ_clean_linker_0, # of connection points: 2
#     Edge 31, Type (0, 1), BuildingBlock: MIFKUJ_clean_linker_0, # of connection points: 2
#     Edge 32, Type (0, 1), BuildingBlock: MIFKUJ_clean_linker_0, # of connection points: 2
#     Edge 33, Type (0, 1), BuildingBlock: MIFKUJ_clean_linker_0, # of connection points: 2
#     Edge 34, Type (0, 1), BuildingBlock: MIFKUJ_clean_linker_0, # of connection points: 2
#     Edge 35, Type (0, 1), BuildingBlock: MIFKUJ_clean_linker_0, # of connection points: 2
# Relax obj value: 0.293
# Max RMSD: 0.225
# Mean RMSD: 0.203
data_MOF--net-zzz--node1-WUSLED_clean_sbu_0--node2-CIFDUS_clean_sbu_1--edge1-MIFKUJ_clean_linker_0
_symmetry_space_group_name_H-M    P1
_symmetry_Int_Tables_number       1
_symmetry_cell_setting            triclinic
loop_
_symmetry_equiv_pos_as_xyz
'x, y, z'
_cell_length_a     73.836941
_cell_length_b     75.99889
_cell_length_c     27.774475
_cell_angle_alpha  90.051077
_cell_angle_beta   90.027073
_cell_angle_gamma 89.913164
loop_
_atom_site_label
_atom_site_type_symbol
_atom_site_fract_x
_atom_site_fract_y
_atom_site_fract_z
_atom_type_partial_charge
C0 C 0.80785 0.57412 0.31229 0.0
C1 C 0.82552 0.57346 0.29354 0.0
C2 C 0.83814 0.57056 0.37482 0.0
C3 C 0.84051 0.57175 0.32449 0.0
C4 C 0.8204 0.57164 0.39323 0.0
C5 C 0.80549 0.57339 0.36235 0.0
U6 U 0.7824 0.57898 0.18997 0.0
O7 O 0.76142 0.56085 0.16278 0.0
O8 O 0.75471 0.58869 0.17558 0.0
C9 C 0.74884 0.5731 0.1622 0.0
C10 C 0.79162 0.57412 0.28084 0.0
C11 C 0.73439 0.57195 0.12526 0.0
C12 C 0.70418 0.56132 0.1057 0.0
C13 C 0.71877 0.56253 0.13751 0.0
C14 C 0.72054 0.57885 0.04759 0.0
C15 C 0.70466 0.56958 0.0604 0.0
C16 C 0.73528 0.58009 0.07987 0.0
C17 C 0.8124 0.59047 0.07758 0.0
C18 C 0.81737 0.57652 1.0 0.0
C19 C 0.8359 0.60124 0.02421 0.0
C20 C 0.82589 0.60282 0.06665 0.0
C21 C 0.83254 0.58727 0.99246 0.0
C22 C 0.80728 0.57813 0.0424 0.0
C23 C 0.80779 0.58781 0.12864 0.0
O24 O 0.78608 0.58936 0.26385 0.0
O25 O 0.79084 0.56145 0.24878 0.0
O26 O 0.80452 0.57152 0.14188 0.0
O27 O 0.79752 0.59954 0.15031 0.0
H28 H 0.82768 0.57385 0.25498 0.0
H29 H 0.8539 0.5708 0.30885 0.0
H30 H 0.818 0.57105 0.43165 0.0
H31 H 0.792 0.57381 0.37765 0.0
H32 H 0.69251 0.5537 0.11668 0.0
H33 H 0.71778 0.5561 0.17223 0.0
H34 H 0.72145 0.5854 0.01308 0.0
H35 H 0.74722 0.58745 0.06959 0.0
H36 H 0.81473 0.56551 0.97621 0.0
H37 H 0.84774 0.60948 0.0194 0.0
H38 H 0.83009 0.6124 0.09331 0.0
H39 H 0.79686 0.5685 0.04992 0.0
C40 C 1.00338 0.78926 0.30008 0.0
C41 C 0.00662 0.80609 0.2811 0.0
C42 C 1.001 0.81957 0.35947 0.0
C43 C 0.00554 0.82103 0.31041 0.0
C44 C 0.99784 0.80262 0.37844 0.0
C45 C 0.99901 0.78763 0.34898 0.0
U46 U 1.0006 0.773 0.17408 0.0
O47 O 0.01632 0.75393 0.13009 0.0
O48 O 0.98656 0.75107 0.13858 0.0
C49 C 1.00149 0.74545 0.11782 0.0
C50 C 1.0037 0.77374 0.26793 0.0
C51 C 1.00205 0.72774 0.0964 0.0
C52 C 0.99629 0.69625 0.099 0.0
C53 C 0.99695 0.71267 0.12215 0.0
C54 C 0.00578 0.7099 0.02441 0.0
C55 C 1.00044 0.69474 0.04962 0.0
C56 C 0.00662 0.72619 0.04761 0.0
C57 C 0.99385 0.80895 0.08096 0.0
C58 C 1.00308 0.80811 0.9971 0.0
C59 C 0.98171 0.83018 0.02476 0.0
C60 C 0.98247 0.8232 0.07104 0.0
C61 C 0.99247 0.82307 0.98775 0.0
C62 C 1.00368 0.801 0.04344 0.0
C63 C 0.99591 0.80322 0.13099 0.0
O64 O 0.98828 0.77043 0.24601 0.0
O65 O 0.01775 0.77281 0.23891 0.0
O66 O 0.01195 0.79703 0.14271 0.0
O67 O 0.98242 0.79394 0.1483 0.0
H68 H 0.00991 0.80772 0.24335 0.0
H69 H 0.0084 0.83373 0.29454 0.0
H70 H 0.99411 0.80096 0.41585 0.0
H71 H 0.99627 0.7748 0.36424 0.0
H72 H 0.99208 0.68482 0.11938 0.0
H73 H 0.99326 0.71365 0.15979 0.0
H74 H 0.00936 0.70919 0.98664 0.0
H75 H 0.0105 0.73771 0.02707 0.0
H76 H 0.01154 0.80247 0.96919 0.0
H77 H 0.9737 0.84194 0.01889 0.0
H78 H 0.97475 0.82943 0.09956 0.0
H79 H 0.01236 0.78978 0.05036 0.0
C80 C 0.72266 0.94014 0.28434 0.0
C81 C 0.70514 0.93723 0.26609 0.0
C82 C 0.6917 0.94343 0.34534 0.0
C83 C 0.68986 0.93885 0.29622 0.0
C84 C 0.70936 0.94619 0.36316 0.0
C85 C 0.72455 0.94454 0.33314 0.0
U86 U 0.74752 0.93578 0.16145 0.0
O87 O 0.77124 0.9506 0.13539 0.0
O88 O 0.77313 0.92188 0.14392 0.0
C89 C 0.78153 0.93651 0.13211 0.0
C90 C 0.73913 0.93912 0.25355 0.0
C91 C 0.79606 0.93605 0.09489 0.0
C92 C 0.82839 0.93242 0.07909 0.0
C93 C 0.81339 0.93067 0.10956 0.0
C94 C 0.80898 0.94413 0.01676 0.0
C95 C 0.82657 0.93959 0.03262 0.0
C96 C 0.79388 0.94252 0.04775 0.0
C97 C 0.71164 0.9309 0.05525 0.0
C98 C 0.71156 0.92384 0.96975 0.0
C99 C 0.68393 0.93318 0.00952 0.0
C100 C 0.69319 0.93482 0.05266 0.0
C101 C 0.69289 0.92751 0.96767 0.0
C102 C 0.72093 0.92538 0.01371 0.0
C103 C 0.72003 0.93256 0.10276 0.0
O104 O 0.74262 0.92392 0.23288 0.0
O105 O 0.74195 0.95252 0.22471 0.0
O106 O 0.72688 0.94789 0.11487 0.0
O107 O 0.72866 0.91895 0.12086 0.0
H108 H 0.70328 0.93381 0.22854 0.0
H109 H 0.6766 0.9364 0.28097 0.0
H110 H 0.7115 0.95005 0.40024 0.0
H111 H 0.73788 0.94694 0.34807 0.0
H112 H 0.84156 0.92846 0.09244 0.0
H113 H 0.81551 0.92568 0.14568 0.0
H114 H 0.807 0.94968 0.98125 0.0
H115 H 0.78067 0.94682 0.03544 0.0
H116 H 0.71879 0.91973 0.93772 0.0
H117 H 0.6697 0.93671 0.00878 0.0
H118 H 0.68585 0.9392 0.0843 0.0
H119 H 0.73525 0.92235 0.01528 0.0
C120 C 0.53008 0.72297 0.30988 0.0
C121 C 0.52769 0.70588 0.29168 0.0
C122 C 0.53175 0.69337 0.37187 0.0
C123 C 0.52849 0.69127 0.32225 0.0
C124 C 0.53391 0.71058 0.39009 0.0
C125 C 0.53313 0.72523 0.35932 0.0
U126 U 0.53048 0.73747 0.18219 0.0
O127 O 0.51722 0.75828 0.14 0.0
O128 O 0.54709 0.75636 0.14085 0.0
C129 C 0.5327 0.76438 0.12355 0.0
C130 C 0.53032 0.7381 0.27645 0.0
C131 C 0.53386 0.78302 0.10922 0.0
C132 C 0.52277 0.81323 0.11104 0.0
C133 C 0.52385 0.79641 0.13194 0.0
C134 C 0.54204 0.80347 0.04568 0.0
C135 C 0.53138 0.81667 0.06686 0.0
C136 C 0.54333 0.78687 0.06679 0.0
C137 C 0.53079 0.6995 0.09293 0.0
C138 C 0.53205 0.70379 0.00626 0.0
C139 C 0.5369 0.67483 0.04073 0.0
C140 C 0.53426 0.6816 0.08666 0.0
C141 C 0.53601 0.68586 1.00017 0.0
C142 C 0.52965 0.71065 0.05266 0.0
C143 C 0.52962 0.70633 0.14199 0.0
O144 O 0.54523 0.73946 0.25087 0.0
O145 O 0.51554 0.7402 0.25049 0.0
O146 O 0.51491 0.71527 0.15269 0.0
O147 O 0.54456 0.71366 0.15781 0.0
H148 H 0.52537 0.70381 0.25358 0.0
H149 H 0.52646 0.67831 0.30695 0.0
H150 H 0.5366 0.71271 0.42797 0.0
H151 H 0.53516 0.73828 0.37403 0.0
H152 H 0.51442 0.82321 0.12789 0.0
H153 H 0.51631 0.79367 0.16451 0.0
H154 H 0.54885 0.80582 0.01174 0.0
H155 H 0.551 0.7767 0.04843 0.0
H156 H 0.53103 0.71243 0.97538 0.0
H157 H 0.53939 0.66085 0.03686 0.0
H158 H 0.53512 0.67286 0.11739 0.0
H159 H 0.52706 0.72459 0.05719 0.0
C160 C 0.22487 0.42823 0.1732 0.0
C161 C 0.20798 0.42113 0.18633 0.0
C162 C 0.1942 0.43237 0.11226 0.0
C163 C 0.19283 0.42306 0.15598 0.0
C164 C 0.21122 0.43914 0.09902 0.0
C165 C 0.22636 0.43704 0.12902 0.0
U166 U 0.24484 0.42077 0.29843 0.0
O167 O 0.27106 0.40939 0.32292 0.0
O168 O 0.26366 0.43692 0.34161 0.0
C169 C 0.27557 0.4241 0.34488 0.0
C170 C 0.24072 0.42762 0.20615 0.0
C171 C 0.29263 0.42623 0.37274 0.0
C172 C 0.32563 0.42472 0.37749 0.0
C173 C 0.30941 0.42176 0.35223 0.0
C174 C 0.30853 0.43585 0.44525 0.0
C175 C 0.32544 0.4319 0.42429 0.0
C176 C 0.29235 0.43321 0.4196 0.0
C177 C 0.20685 0.40818 0.39046 0.0
C178 C 0.2059 0.41197 0.47718 0.0
C179 C 0.17862 0.40447 0.43316 0.0
C180 C 0.18847 0.4039 0.3906 0.0
C181 C 0.18701 0.40924 0.47681 0.0
C182 C 0.21576 0.4116 0.43407 0.0
C183 C 0.21512 0.41181 0.3437 0.0
O184 O 0.24096 0.43983 0.23961 0.0
O185 O 0.24544 0.41204 0.2226 0.0
O186 O 0.22647 0.40017 0.32588 0.0
O187 O 0.22006 0.42819 0.33656 0.0
H188 H 0.20644 0.41441 0.22047 0.0
H189 H 0.1799 0.41781 0.16746 0.0
H190 H 0.2128 0.44622 0.06547 0.0
H191 H 0.2392 0.44263 0.11811 0.0
H192 H 0.33834 0.42135 0.36036 0.0
H193 H 0.31001 0.41635 0.31618 0.0
H194 H 0.30781 0.44147 0.48105 0.0
H195 H 0.27959 0.43668 0.43637 0.0
H196 H 0.21282 0.41549 0.51017 0.0
H197 H 0.1641 0.4027 0.43065 0.0
H198 H 0.18136 0.40145 0.35709 0.0
H199 H 0.23 0.415 0.43439 0.0
C200 C 0.0398 0.22513 0.13481 0.0
C201 C 0.0453 0.20842 0.15072 0.0
C202 C 0.03925 0.19588 0.0713 0.0
C203 C 0.04508 0.19397 0.11932 0.0
C204 C 0.03388 0.21273 0.05551 0.0
C205 C 0.03416 0.22719 0.08695 0.0
U206 U 0.04243 0.24129 0.26272 0.0
O207 O 0.05472 0.26472 0.2959 0.0
O208 O 0.02524 0.25968 0.30517 0.0
C209 C 0.03926 0.26972 0.31503 0.0
C210 C 0.03916 0.24014 0.16866 0.0
C211 C 0.03778 0.28661 0.34103 0.0
C212 C 0.04075 0.31851 0.34341 0.0
C213 C 0.04212 0.30253 0.31832 0.0
C214 C 0.03096 0.30277 0.41449 0.0
C215 C 0.03517 0.31887 0.39194 0.0
C216 C 0.03216 0.28685 0.38923 0.0
C217 C 0.05004 0.20482 0.3558 0.0
C218 C 0.04118 0.20588 0.43995 0.0
C219 C 0.05758 0.18065 0.4087 0.0
C220 C 0.0582 0.18845 0.3634 0.0
C221 C 0.04863 0.18907 0.44702 0.0
C222 C 0.04202 0.2138 0.39456 0.0
C223 C 0.04845 0.21132 0.30642 0.0
O224 O 0.02522 0.24015 0.19804 0.0
O225 O 0.0545 0.24386 0.19053 0.0
O226 O 0.06156 0.22156 0.29116 0.0
O227 O 0.03222 0.21682 0.29408 0.0
H228 H 0.04954 0.20649 0.18771 0.0
H229 H 0.04905 0.1812 0.13307 0.0
H230 H 0.02949 0.21477 0.01872 0.0
H231 H 0.0298 0.23996 0.074 0.0
H232 H 0.04389 0.3306 0.32459 0.0
H233 H 0.04643 0.30261 0.28104 0.0
H234 H 0.02701 0.3024 0.45201 0.0
H235 H 0.02893 0.27468 0.40759 0.0
H236 H 0.03409 0.21251 0.4689 0.0
H237 H 0.06302 0.16749 0.41288 0.0
H238 H 0.06429 0.1813 0.33373 0.0
H239 H 0.03567 0.22651 0.38915 0.0
C240 C 0.30625 0.08424 0.14914 0.0
C241 C 0.32318 0.0806 0.17005 0.0
C242 C 0.33731 0.0792 0.09056 0.0
C243 C 0.33851 0.078 0.14107 0.0
C244 C 0.32051 0.08363 0.0699 0.0
C245 C 0.30512 0.08603 0.09891 0.0
U246 U 0.28247 0.09027 0.2707 0.0
O247 O 0.25587 0.10206 0.2894 0.0
O248 O 0.26109 0.07395 0.30294 0.0
C249 C 0.24939 0.08699 0.30507 0.0
C250 C 0.28958 0.08496 0.17886 0.0
C251 C 0.23549 0.08688 0.34384 0.0
C252 C 0.20348 0.09044 0.36368 0.0
C253 C 0.21812 0.09315 0.33251 0.0
C254 C 0.22342 0.07583 0.41997 0.0
C255 C 0.20574 0.08141 0.40756 0.0
C256 C 0.23811 0.07845 0.38838 0.0
C257 C 0.31994 0.10082 0.36958 0.0
C258 C 0.32296 0.09592 0.45552 0.0
C259 C 0.34904 0.10459 0.40826 0.0
C260 C 0.33821 0.10554 0.36741 0.0
C261 C 0.34177 0.09902 0.45254 0.0
C262 C 0.31212 0.09662 0.41407 0.0
C263 C 0.31081 0.09757 0.32366 0.0
O264 O 0.28788 0.07225 0.2105 0.0
O265 O 0.28501 0.10042 0.19634 0.0
O266 O 0.30043 0.10989 0.30509 0.0
O267 O 0.3052 0.08145 0.31533 0.0
H268 H 0.32446 0.07929 0.20875 0.0
H269 H 0.3513 0.07484 0.15815 0.0
H270 H 0.3191 0.08458 0.03116 0.0
H271 H 0.29221 0.08881 0.08197 0.0
H272 H 0.1902 0.09472 0.35206 0.0
H273 H 0.21563 0.09943 0.29812 0.0
H274 H 0.22587 0.06912 0.45372 0.0
H275 H 0.25134 0.0734 0.39807 0.0
H276 H 0.31683 0.09191 0.48916 0.0
H277 H 0.36342 0.10675 0.40372 0.0
H278 H 0.34449 0.10866 0.33318 0.0
H279 H 0.29798 0.09294 0.41624 0.0
C280 C 0.48776 0.28785 0.14253 0.0
C281 C 0.48369 0.3046 0.16114 0.0
C282 C 0.48963 0.31818 0.08308 0.0
C283 C 0.48456 0.31956 0.13181 0.0
C284 C 0.4936 0.30132 0.06452 0.0
C285 C 0.49268 0.28632 0.09396 0.0
U286 U 0.48705 0.27188 0.26897 0.0
O287 O 0.47292 0.25086 0.30903 0.0
O288 O 0.50289 0.25227 0.31 0.0
C289 C 0.48819 0.24468 0.32671 0.0
C290 C 0.4878 0.27231 0.17474 0.0
C291 C 0.48902 0.22682 0.34731 0.0
C292 C 0.49028 0.19488 0.34065 0.0
C293 C 0.48955 0.21157 0.31878 0.0
C294 C 0.48981 0.20862 0.41937 0.0
C295 C 0.49033 0.19333 0.39115 0.0
C296 C 0.48922 0.22519 0.39764 0.0
C297 C 0.48621 0.30925 0.36075 0.0
C298 C 0.47329 0.31185 0.44098 0.0
C299 C 0.49997 0.32865 0.4192 0.0
C300 C 0.49968 0.32135 0.37337 0.0
C301 C 0.48664 0.32416 0.45295 0.0
C302 C 0.4732 0.30422 0.39513 0.0
C303 C 0.48592 0.30262 0.31115 0.0
O304 O 0.50248 0.2706 0.20116 0.0
O305 O 0.4728 0.26986 0.19946 0.0
O306 O 0.4713 0.29414 0.29736 0.0
O307 O 0.50105 0.29525 0.29658 0.0
H308 H 0.48007 0.30615 0.19871 0.0
H309 H 0.48169 0.33228 0.14771 0.0
H310 H 0.49738 0.29969 0.02712 0.0
H311 H 0.49599 0.27356 0.0789 0.0
H312 H 0.49066 0.18321 0.31828 0.0
H313 H 0.48938 0.21257 0.27989 0.0
H314 H 0.48993 0.20773 0.45831 0.0
H315 H 0.48888 0.23681 0.42029 0.0
H316 H 0.46275 0.30853 0.46651 0.0
H317 H 0.51007 0.33851 0.42754 0.0
H318 H 0.50974 0.32549 0.34736 0.0
H319 H 0.46271 0.29481 0.38628 0.0
O320 O 0.01844 0.03185 0.75451 0.0
Mn321 Mn 0.01428 0.00908 0.71171 0.0
O322 O 0.99173 0.04606 0.74998 0.0
Mn323 Mn 0.97914 0.02925 0.71466 0.0
O324 O 0.00911 0.9868 0.66788 0.0
O325 O 0.04224 0.01024 0.69189 0.0
Mn326 Mn 0.04622 0.98765 0.70934 0.0
O327 O 0.01748 0.99322 0.7716 0.0
O328 O 0.03461 0.97119 0.67149 0.0
O329 O 0.00981 0.02485 0.65186 0.0
O330 O 0.98051 0.03142 0.64886 0.0
O331 O 0.06777 0.99384 0.68878 0.0
O332 O 0.04535 0.98321 0.77404 0.0
C333 C 0.97067 0.00584 0.74796 0.0
C334 C 0.00816 0.04518 0.76424 0.0
C335 C 0.01847 0.97311 0.65694 0.0
C336 C 0.05982 0.00882 0.68133 0.0
C337 C 0.02987 0.98445 0.79264 0.0
C338 C 0.99607 0.0313 0.62975 0.0
O339 O 0.98727 0.00829 0.7323 0.0
O340 O 0.95947 0.01871 0.74086 0.0
O341 O 0.53399 0.00174 0.78126 0.0
Mn342 Mn 0.51438 0.00597 0.72712 0.0
O343 O 0.54502 0.02776 0.79292 0.0
Mn344 Mn 0.54475 0.02843 0.7272 0.0
O345 O 0.4952 0.00994 0.67233 0.0
O346 O 0.50635 0.98043 0.74765 0.0
Mn347 Mn 0.48311 0.9833 0.73179 0.0
O348 O 0.49625 0.01723 0.77823 0.0
O349 O 0.47903 0.98582 0.66734 0.0
O350 O 0.53259 0.99495 0.67662 0.0
O351 O 0.55722 0.01096 0.69313 0.0
O352 O 0.48313 0.96125 0.75193 0.0
O353 O 0.47224 -0.0006 0.77245 0.0
C354 C 0.52919 0.04699 0.69321 0.0
C355 C 0.54393 0.01207 0.80608 0.0
C356 C 0.48348 0.00052 0.65044 0.0
C357 C 0.5001 0.96466 0.75936 0.0
C358 C 0.48002 0.01278 0.79058 0.0
C359 C 0.54959 0.99824 0.67116 0.0
O360 O 0.52223 0.03148 0.70489 0.0
O361 O 0.54604 0.04994 0.70368 0.0
O362 O 0.51335 0.52237 0.78555 0.0
Mn363 Mn 0.51789 0.50554 0.7277 0.0
O364 O 0.48387 0.52559 0.79069 0.0
Mn365 Mn 0.48335 0.52465 0.72487 0.0
O366 O 0.52227 0.48901 0.66969 0.0
O367 O 0.54516 0.50752 0.74926 0.0
Mn368 Mn 0.55202 0.48585 0.73209 0.0
O369 O 0.51371 0.48339 0.77267 0.0
O370 O 0.55127 0.4823 0.66686 0.0
O371 O 0.52174 0.52764 0.68285 0.0
O372 O 0.49558 0.54232 0.69196 0.0
O373 O 0.57253 0.49477 0.75539 0.0
O374 O 0.54021 0.46911 0.76887 0.0
C375 C 0.47378 0.50245 0.69076 0.0
C376 C 0.49944 0.52814 0.80781 0.0
C377 C 0.53568 0.48187 0.64838 0.0
C378 C 0.56238 0.50846 0.76251 0.0
C379 C 0.52389 0.47015 0.78344 0.0
C380 C 0.51161 0.5412 0.67517 0.0
O381 O 0.49083 0.50361 0.705 0.0
O382 O 0.46326 0.51581 0.69845 0.0
O383 O 0.03828 0.49236 0.78644 0.0
Mn384 Mn 0.01896 0.50263 0.73678 0.0
O385 O 0.06056 0.51247 0.79025 0.0
Mn386 Mn 0.05098 0.52796 0.74498 0.0
O387 O 0.99905 0.51283 0.68821 0.0
O388 O 0.01066 0.47685 0.72379 0.0
Mn389 Mn 0.98724 0.47867 0.73873 0.0
O390 O 1.0009 0.50723 0.79243 0.0
O391 O 0.97627 0.49339 0.69456 0.0
O392 O 0.03747 0.49979 0.6793 0.0
O393 O 0.0554 0.52353 0.68141 0.0
O394 O 0.98958 0.45587 0.72366 0.0
O395 O 0.98258 0.48461 0.80172 0.0
C396 C 0.02909 0.5439 0.76612 0.0
C397 C 0.05345 0.498 0.80389 0.0
C398 C 0.98284 0.50759 0.67756 0.0
C399 C 0.00618 0.46038 0.71472 0.0
C400 C 0.98792 0.49969 0.81447 0.0
C401 C 0.0498 0.50971 0.66068 0.0
O402 O 0.02735 0.52762 0.75211 0.0
O403 O 0.04533 0.55023 0.7637 0.0
H404 H 0.17486 0.10124 0.42352 0.0
H405 H 0.14748 0.09289 0.4671 0.0
H406 H 0.17224 0.04354 0.50625 0.0
H407 H 0.19939 0.05144 0.46098 0.0
H408 H 0.13868 0.03782 0.478 0.0
H409 H 0.16693 0.07831 0.58667 0.0
H410 H 0.18055 0.10647 0.61173 0.0
H411 H 0.13056 0.13324 0.58159 0.0
H412 H 0.11672 0.10525 0.55557 0.0
H413 H 0.09623 0.01049 0.68658 0.0
H414 H 0.11688 0.02715 0.63693 0.0
H415 H 0.07213 0.05606 0.57644 0.0
H416 H 0.05089 0.03908 0.6278 0.0
H417 H 0.11133 0.07473 0.60631 0.0
H418 H 0.0827 0.03128 0.50483 0.0
H419 H 0.0708 0.00175 0.48603 0.0
H420 H 0.12356 0.97939 0.50857 0.0
H421 H 0.1357 0.00872 0.52851 0.0
C422 C 0.17454 0.08855 0.44115 0.0
C423 C 0.18953 0.07704 0.43827 0.0
C424 C 0.15883 0.08385 0.46658 0.0
C425 C 0.15765 0.06757 0.4904 0.0
C426 C 0.17267 0.05616 0.48822 0.0
C427 C 0.18837 0.06083 0.46268 0.0
C428 C 0.14077 0.06224 0.51691 0.0
C429 C 0.13276 0.04595 0.50599 0.0
C430 C 0.1326 0.07291 0.55292 0.0
C431 C 0.14087 0.08973 0.56859 0.0
C432 C 0.15889 0.09023 0.58496 0.0
C433 C 0.16664 0.10615 0.5994 0.0
C434 C 0.15644 0.12164 0.5981 0.0
C435 C 0.13845 0.12123 0.58246 0.0
C436 C 0.13065 0.10534 0.56787 0.0
C437 C 0.09053 0.0205 0.66325 0.0
C438 C 0.0716 0.02283 0.65967 0.0
C439 C 0.10252 0.03006 0.63477 0.0
C440 C 0.09613 0.04253 0.60194 0.0
C441 C 0.07739 0.04625 0.60101 0.0
C442 C 0.0652 0.03649 0.63 0.0
C443 C 0.1094 0.05036 0.56733 0.0
C444 C 0.11695 0.06693 0.5772 0.0
C445 C 0.11732 0.03988 0.53067 0.0
C446 C 0.11006 0.0222 0.51864 0.0
C447 C 0.09172 0.02004 0.50633 0.0
C448 C 0.08494 0.00334 0.49537 0.0
C449 C 0.09641 0.9887 0.49623 0.0
C450 C 0.11469 0.99073 0.50799 0.0
C451 C 0.12152 0.0074 0.51911 0.0
H452 H 0.09113 0.97578 0.48768 0.0
H453 H 0.16246 0.13396 0.60933 0.0
H454 H 0.46238 0.17574 0.43269 0.0
H455 H 0.46379 0.14848 0.47994 0.0
H456 H 0.52133 0.1453 0.45384 0.0
H457 H 0.5197 0.17225 0.40528 0.0
H458 H 0.50822 0.11367 0.45112 0.0
H459 H 0.50371 0.16157 0.56041 0.0
H460 H 0.49089 0.18863 0.59569 0.0
H461 H 0.44161 0.16123 0.62864 0.0
H462 H 0.45407 0.13403 0.59285 0.0
H463 H 0.54429 0.07657 0.65746 0.0
H464 H 0.53156 0.09832 0.60433 0.0
H465 H 0.48015 0.07175 0.6074 0.0
H466 H 0.493 0.04919 0.66239 0.0
H467 H 0.48477 0.1152 0.61852 0.0
H468 H 0.49605 0.06463 0.51399 0.0
H469 H 0.51517 0.03973 0.48801 0.0
H470 H 0.55861 0.07531 0.45567 0.0
H471 H 0.53984 0.1004 0.48209 0.0
C472 C 0.47523 0.16899 0.43649 0.0
C473 C 0.4909 0.17594 0.41519 0.0
C474 C 0.47608 0.15351 0.46376 0.0
C475 C 0.49272 0.14486 0.47119 0.0
C476 C 0.50831 0.15161 0.44865 0.0
C477 C 0.50741 0.167 0.42092 0.0
C478 C 0.49406 0.12926 0.50392 0.0
C479 C 0.50292 0.11402 0.48753 0.0
C480 C 0.48726 0.12956 0.55174 0.0
C481 C 0.47972 0.14583 0.57339 0.0
C482 C 0.49008 0.16135 0.57481 0.0
C483 C 0.48289 0.17671 0.59495 0.0
C484 C 0.46542 0.17667 0.61424 0.0
C485 C 0.45513 0.16125 0.61356 0.0
C486 C 0.46224 0.14586 0.59336 0.0
C487 C 0.53019 0.07511 0.64754 0.0
C488 C 0.51979 0.06071 0.66378 0.0
C489 C 0.52295 0.08774 0.61689 0.0
C490 C 0.50502 0.08657 0.6014 0.0
C491 C 0.49412 0.07275 0.61879 0.0
C492 C 0.50148 0.05983 0.64982 0.0
C493 C 0.49862 0.09965 0.5653 0.0
C494 C 0.48924 0.11461 0.58135 0.0
C495 C 0.5055 0.09938 0.51772 0.0
C496 C 0.51654 0.08438 0.50006 0.0
C497 C 0.5097 0.06713 0.50144 0.0
C498 C 0.52047 0.05299 0.48665 0.0
C499 C 0.53809 0.05594 0.47019 0.0
C500 C 0.54495 0.07305 0.46833 0.0
C501 C 0.53423 0.08724 0.4831 0.0
H502 H 0.54643 0.04496 0.45888 0.0
H503 H 0.45989 0.18857 0.62985 0.0
H504 H 0.3564 0.44714 0.38885 0.0
H505 H 0.38394 0.4552 0.43257 0.0
H506 H 0.36146 0.43354 0.56294 0.0
H507 H 0.33374 0.42576 0.51945 0.0
H508 H 0.3751 0.46427 0.58147 0.0
H509 H 0.39823 0.41354 0.49649 0.0
H510 H 0.40514 0.39534 0.4252 0.0
H511 H 0.43681 0.43735 0.36562 0.0
H512 H 0.42997 0.45585 0.43635 0.0
H513 H 0.45087 0.47827 0.72645 0.0
H514 H 0.42767 0.46274 0.68047 0.0
H515 H 0.45235 0.48026 0.54823 0.0
H516 H 0.47592 0.49536 0.59472 0.0
H517 H 0.43788 0.45076 0.52994 0.0
H518 H 0.41402 0.50212 0.60892 0.0
H519 H 0.40639 0.52192 0.67642 0.0
H520 H 0.37524 0.48088 0.74269 0.0
H521 H 0.38284 0.46079 0.67582 0.0
C522 C 0.35741 0.44385 0.42669 0.0
C523 C 0.34277 0.4358 0.45053 0.0
C524 C 0.37326 0.44843 0.45174 0.0
C525 C 0.37505 0.44485 0.50123 0.0
C526 C 0.36054 0.43653 0.52489 0.0
C527 C 0.34462 0.4321 0.49996 0.0
C528 C 0.39144 0.45076 0.52905 0.0
C529 C 0.38881 0.46101 0.57057 0.0
C530 C 0.40947 0.44719 0.51418 0.0
C531 C 0.41347 0.43612 0.47153 0.0
C532 C 0.40656 0.41894 0.46802 0.0
C533 C 0.41049 0.40856 0.42775 0.0
C534 C 0.42137 0.4152 0.39086 0.0
C535 C 0.42838 0.43222 0.3942 0.0
C536 C 0.4245 0.44265 0.43439 0.0
C537 C 0.45188 0.47804 0.68753 0.0
C538 C 0.46566 0.48751 0.66433 0.0
C539 C 0.43825 0.46957 0.66108 0.0
C540 C 0.43771 0.47072 0.61054 0.0
C541 C 0.45227 0.4791 0.58709 0.0
C542 C 0.46601 0.48749 0.6137 0.0
C543 C 0.42153 0.46417 0.58269 0.0
C544 C 0.42418 0.45391 0.54107 0.0
C545 C 0.40344 0.46795 0.59698 0.0
C546 C 0.39916 0.47991 0.63765 0.0
C547 C 0.40567 0.49729 0.6381 0.0
C548 C 0.40132 0.50857 0.6762 0.0
C549 C 0.39038 0.50265 0.71388 0.0
C550 C 0.38374 0.48544 0.71353 0.0
C551 C 0.38806 0.47411 0.67554 0.0
H552 H 0.38701 0.51141 0.74329 0.0
H553 H 0.42441 0.40714 0.35974 0.0
H554 H 0.05772 0.34775 0.38719 0.0
H555 H 0.05654 0.37458 0.43589 0.0
H556 H 0.00908 0.35504 0.50868 0.0
H557 H 0.00967 0.32866 0.45877 0.0
H558 H 0.00516 0.38857 0.4942 0.0
H559 H 0.05284 0.35195 0.55573 0.0
H560 H 0.08125 0.33494 0.55194 0.0
H561 H 0.11059 0.38179 0.51513 0.0
H562 H 0.08225 0.39904 0.51777 0.0
H563 H 1.00382 0.42497 0.72155 0.0
H564 H 0.01355 0.40374 0.66117 0.0
H565 H 0.04357 0.44425 0.58811 0.0
H566 H 0.03373 0.46571 0.6503 0.0
H567 H 0.05867 0.40432 0.59343 0.0
H568 H 0.0087 0.44109 0.54213 0.0
H569 H 0.97935 0.45611 0.55283 0.0
H570 H 0.95339 0.4064 0.57732 0.0
H571 H 0.98267 0.39112 0.56794 0.0
C572 C 0.04685 0.34926 0.413 0.0
C573 C 0.03394 0.33581 0.41939 0.0
C574 C 0.0463 0.36458 0.44124 0.0
C575 C 0.03294 0.36677 0.47682 0.0
C576 C 0.01963 0.3537 0.48184 0.0
C577 C 0.02011 0.33846 0.45354 0.0
C578 C 0.03297 0.38229 0.51008 0.0
C579 C 0.0169 0.39197 0.51576 0.0
C580 C 0.04835 0.38706 0.53791 0.0
C581 C 0.06539 0.37674 0.5363 0.0
C582 C 0.06532 0.3586 0.54637 0.0
C583 C 0.08141 0.34891 0.54447 0.0
C584 C 0.0977 0.35727 0.53313 0.0
C585 C 0.09794 0.37533 0.52375 0.0
C586 C 0.08187 0.38506 0.5254 0.0
C587 C 0.013 0.42932 0.6936 0.0
C588 C 0.01769 0.44722 0.68952 0.0
C589 C 0.01849 0.41713 0.65894 0.0
C590 C 0.0289 0.42248 0.61946 0.0
C591 C 0.0354 0.43988 0.61812 0.0
C592 C 0.02986 0.45214 0.65331 0.0
C593 C 0.03082 0.41029 0.57774 0.0
C594 C 0.04714 0.40117 0.57081 0.0
C595 C 0.01559 0.4058 0.54924 0.0
C596 C 0.99794 0.41498 0.55486 0.0
C597 C 0.99678 0.43338 0.5504 0.0
C598 C 0.98014 0.44194 0.55614 0.0
C599 C 0.96452 0.43222 0.56588 0.0
C600 C 0.96551 0.41392 0.56987 0.0
C601 C 0.98212 0.4053 0.56436 0.0
H602 H 0.95165 0.43886 0.57021 0.0
H603 H 0.11016 0.34975 0.53176 0.0
H604 H 0.85888 0.95334 0.06289 0.0
H605 H 0.88596 0.95978 0.016 0.0
H606 H 0.85947 0.94115 0.88747 0.0
H607 H 0.83216 0.93433 0.93478 0.0
H608 H 0.89597 0.93075 0.89044 0.0
H609 H 0.86249 0.98433 0.90671 0.0
H610 H 0.84568 0.00723 0.95109 0.0
H611 H 0.89314 0.0189 0.03454 0.0
H612 H 0.91018 0.99587 0.99105 0.0
H613 H 0.95011 0.97829 0.71891 0.0
H614 H 0.92857 0.96245 0.76974 0.0
H615 H 0.9526 0.98579 0.89603 0.0
H616 H 0.97385 0.00196 0.84475 0.0
H617 H 0.91799 0.99234 0.89564 0.0
H618 H 0.9521 0.93903 0.87458 0.0
H619 H 0.96806 0.91576 0.82923 0.0
H620 H 0.91927 0.904 0.75156 0.0
H621 H 0.90301 0.92716 0.79642 0.0
C622 C 0.85879 0.95036 0.02476 0.0
C623 C 0.84319 0.94328 0.00284 0.0
C624 C 0.87435 0.95417 0.9978 0.0
C625 C 0.87488 0.95112 0.94789 0.0
C626 C 0.8595 0.94366 0.92586 0.0
C627 C 0.84379 0.93992 0.95291 0.0
C628 C 0.89112 0.95668 0.91891 0.0
C629 C 0.90068 0.94426 0.89116 0.0
C630 C 0.89762 0.97422 0.92028 0.0
C631 C 0.88756 0.98829 0.94591 0.0
C632 C 0.86931 0.99172 0.93471 0.0
C633 C 0.85974 0.00472 0.95968 0.0
C634 C 0.86832 0.01448 0.99569 0.0
C635 C 0.88651 0.01131 0.00667 0.0
C636 C 0.89614 0.9983 0.98183 0.0
C637 C 0.95147 0.97925 0.75766 0.0
C638 C 0.96414 0.99094 0.77775 0.0
C639 C 0.93898 0.97028 0.78691 0.0
C640 C 0.93877 0.97282 0.83715 0.0
C641 C 0.95233 0.98353 0.85752 0.0
C642 C 0.96474 0.99257 0.8282 0.0
C643 C 0.92311 0.96641 0.8672 0.0
C644 C 0.91351 0.97876 0.89513 0.0
C645 C 0.91659 0.94885 0.86561 0.0
C646 C 0.92636 0.93491 0.83866 0.0
C647 C 0.9448 0.93154 0.84765 0.0
C648 C 0.9539 0.91835 0.82209 0.0
C649 C 0.94469 0.90847 0.78744 0.0
C650 C 0.92637 0.91168 0.77841 0.0
C651 C 0.9172 0.92479 0.80401 0.0
H652 H 0.95171 0.89827 0.76764 0.0
H653 H 0.86089 0.02453 0.01503 0.0
H654 H 0.53836 0.8508 0.09426 0.0
H655 H 0.53502 0.87744 0.04457 0.0
H656 H 0.5128 0.84594 0.92946 0.0
H657 H 0.51676 0.8195 0.97814 0.0
H658 H 0.5375 0.86586 0.89507 0.0
H659 H 0.48727 0.87483 1.00161 0.0
H660 H 0.47221 0.87837 0.08021 0.0
H661 H 0.50391 0.92453 0.10876 0.0
H662 H 0.51944 0.92108 0.03065 0.0
H663 H 0.4989 0.93031 0.74026 0.0
H664 H 0.50475 0.90668 0.79603 0.0
H665 H 0.52937 0.9431 0.89513 0.0
H666 H 0.52166 0.96754 0.84031 0.0
H667 H 0.50671 0.9215 0.94005 0.0
H668 H 0.56581 0.89407 0.85332 0.0
H669 H 0.58154 0.8885 0.77646 0.0
H670 H 0.53116 0.87351 0.71117 0.0
H671 H 0.51528 0.87896 0.78783 0.0
C672 C 0.5326 0.84971 0.05851 0.0
C673 C 0.52793 0.83314 0.03977 0.0
C674 C 0.53063 0.86491 0.03019 0.0
C675 C 0.52362 0.86377 0.9831 0.0
C676 C 0.51838 0.84722 0.96537 0.0
C677 C 0.52061 0.83211 0.99322 0.0
C678 C 0.52268 0.8794 0.95064 0.0
C679 C 0.53058 0.87795 0.9049 0.0
C680 C 0.51409 0.8954 0.96361 0.0
C681 C 0.50469 0.89756 0.01048 0.0
C682 C 0.49116 0.88564 0.02482 0.0
C683 C 0.48252 0.88765 0.06927 0.0
C684 C 0.48714 0.90163 0.09953 0.0
C685 C 0.50038 0.91367 0.08532 0.0
C686 C 0.50911 0.9117 0.04096 0.0
C687 C 0.50636 0.93326 0.7729 0.0
C688 C 0.51043 0.95079 0.78494 0.0
C689 C 0.50996 0.91953 0.80475 0.0
C690 C 0.51861 0.92262 0.84884 0.0
C691 C 0.52313 0.94017 0.86076 0.0
C692 C 0.51916 0.95413 0.82896 0.0
C693 C 0.52116 0.9078 0.88388 0.0
C694 C 0.51369 0.90943 0.93036 0.0
C695 C 0.52982 0.8917 0.87137 0.0
C696 C 0.53909 0.88868 0.82483 0.0
C697 C 0.55801 0.89024 0.822 0.0
C698 C 0.56701 0.88685 0.7787 0.0
C699 C 0.55728 0.88115 0.73849 0.0
C700 C 0.53861 0.87845 0.74189 0.0
C701 C 0.52959 0.88185 0.78518 0.0
H702 H 0.56425 0.87845 0.70503 0.0
H703 H 0.48043 0.90317 0.13392 0.0
H704 H 0.6686 0.57064 0.08444 0.0
H705 H 0.64245 0.5647 0.03326 0.0
H706 H 0.6775 0.55995 0.90994 0.0
H707 H 0.70398 0.56538 0.96138 0.0
H708 H 0.6445 0.57895 0.89115 0.0
H709 H 0.66384 0.52413 0.9601 0.0
H710 H 0.67249 0.50427 0.02636 0.0
H711 H 0.61977 0.51037 0.08947 0.0
H712 H 0.61091 0.53055 0.02397 0.0
H713 H 0.59213 0.5255 0.73315 0.0
H714 H 0.61384 0.54059 0.78449 0.0
H715 H 0.57591 0.53887 0.90228 0.0
H716 H 0.55449 0.52258 0.85099 0.0
H717 H 0.60875 0.5253 0.92711 0.0
H718 H 0.59567 0.58827 0.87626 0.0
H719 H 0.5878 0.6104 0.8145 0.0
H720 H 0.62756 0.58835 0.71899 0.0
H721 H 0.63606 0.56653 0.78097 0.0
C722 C 0.67087 0.56826 0.04648 0.0
C723 C 0.68858 0.56816 0.02743 0.0
C724 C 0.65581 0.56496 0.01715 0.0
C725 C 0.65796 0.56161 0.96778 0.0
C726 C 0.67547 0.56245 0.94796 0.0
C727 C 0.69063 0.56562 0.97746 0.0
C728 C 0.64201 0.55644 0.93766 0.0
C729 C 0.63681 0.56712 0.89883 0.0
C730 C 0.63156 0.54128 0.9482 0.0
C731 C 0.63677 0.52901 0.98739 0.0
C732 C 0.65414 0.52137 0.98833 0.0
C733 C 0.65908 0.51004 0.02572 0.0
C734 C 0.64671 0.5061 0.06218 0.0
C735 C 0.62935 0.51346 0.06124 0.0
C736 C 0.62436 0.52484 0.02398 0.0
C737 C 0.588 0.52915 0.76925 0.0
C738 C 0.57116 0.52354 0.78724 0.0
C739 C 0.60054 0.53778 0.79883 0.0
C740 C 0.59652 0.54138 0.84727 0.0
C741 C 0.57929 0.53661 0.86484 0.0
C742 C 0.56678 0.5277 0.83517 0.0
C743 C 0.61123 0.54776 0.88029 0.0
C744 C 0.61629 0.53724 0.91974 0.0
C745 C 0.62156 0.56305 0.87047 0.0
C746 C 0.6162 0.57563 0.83263 0.0
C747 C 0.60266 0.58815 0.84198 0.0
C748 C 0.59823 0.60074 0.80717 0.0
C749 C 0.60708 0.6007 0.76271 0.0
C750 C 0.62063 0.58829 0.75331 0.0
C751 C 0.62535 0.57592 0.78837 0.0
H752 H 0.60349 0.61032 0.73562 0.0
H753 H 0.65055 0.49731 0.09109 0.0
H754 H 0.98598 0.68819 0.96069 0.0
H755 H 0.98628 0.6606 0.91558 0.0
H756 H 0.01212 0.63462 0.03543 0.0
H757 H 0.01228 0.66239 0.08032 0.0
H758 H 0.02921 0.62684 0.95614 0.0
H759 H 0.96737 0.62486 0.00283 0.0
H760 H 0.93575 0.63446 0.01434 0.0
H761 H 0.92988 0.64171 0.86181 0.0
H762 H 0.96153 0.63229 0.84944 0.0
H763 H 0.02365 0.5413 0.86125 0.0
H764 H 0.01555 0.56635 0.91231 0.0
H765 H 0.99888 0.59548 0.78672 0.0
H766 H 0.00762 0.57057 0.73546 0.0
H767 H 0.97683 0.60147 0.86858 0.0
H768 H 0.03968 0.60159 0.82534 0.0
H769 H 0.07109 0.5909 0.81785 0.0
H770 H 0.07466 0.58542 0.9714 0.0
H771 H 0.04316 0.59582 0.97978 0.0
C772 C 0.9917 0.67659 0.97752 0.0
C773 C 0.99923 0.67753 0.02402 0.0
C774 C 0.99166 0.66074 0.95186 0.0
C775 C 0.99908 0.64541 0.97212 0.0
C776 C 0.00626 0.64623 0.01899 0.0
C777 C 0.00626 0.66209 0.04477 0.0
C778 C 1.00055 0.62895 0.94306 0.0
C779 C 0.01765 0.62106 0.93797 0.0
C780 C 0.98562 0.62167 0.91794 0.0
C781 C 0.96688 0.6281 0.9253 0.0
C782 C 0.95941 0.62873 0.97182 0.0
C783 C 0.94146 0.63406 0.97847 0.0
C784 C 0.93083 0.63875 0.93885 0.0
C785 C 0.93813 0.63811 0.89248 0.0
C786 C 0.95607 0.63277 0.88562 0.0
C787 C 0.01731 0.55268 0.84484 0.0
C788 C 0.01587 0.55388 0.79452 0.0
C789 C 0.01305 0.56714 0.87393 0.0
C790 C 0.007 0.58293 0.85319 0.0
C791 C 1.00365 0.58347 0.80343 0.0
C792 C 0.00829 0.56911 0.77422 0.0
C793 C 0.00534 0.59915 0.88284 0.0
C794 C 0.98831 0.60716 0.88732 0.0
C795 C 0.02026 0.60629 0.9083 0.0
C796 C 0.03893 0.59923 0.90311 0.0
C797 C 0.04704 0.59783 0.85745 0.0
C798 C 0.0649 0.5919 0.85306 0.0
C799 C 0.07484 0.58742 0.8941 0.0
C800 C 0.06693 0.58884 0.93962 0.0
C801 C 0.04907 0.59474 0.9442 0.0
H802 H 0.08869 0.58291 0.89064 0.0
H803 H 0.91691 0.64282 0.94407 0.0
H804 H 0.01551 0.18324 0.48569 0.0
H805 H 0.00737 0.15735 0.53229 0.0
H806 H 0.06399 0.14507 0.55184 0.0
H807 H 0.07216 0.17083 0.50399 0.0
H808 H 0.04822 0.12152 0.49797 0.0
H809 H 0.03457 0.14759 0.64905 0.0
H810 H 0.02123 0.16846 0.70707 0.0
H811 H 0.9678 0.153 0.66333 0.0
H812 H 0.98079 0.13219 0.60456 0.0
H813 H 0.02729 0.03587 0.58008 0.0
H814 H 0.03798 0.06506 0.5609 0.0
H815 H 0.98276 0.08415 0.56112 0.0
H816 H 0.9727 0.05565 0.59069 0.0
H817 H 1.00035 0.10435 0.61355 0.0
H818 H 0.01545 0.08073 0.45392 0.0
H819 H 0.0295 0.05745 0.40434 0.0
H820 H 0.0811 0.06775 0.46994 0.0
H821 H 0.06735 0.09107 0.51985 0.0
C822 C 0.02623 0.17557 0.50214 0.0
C823 C 0.04444 0.17873 0.4905 0.0
C824 C 0.02156 0.16074 0.52892 0.0
C825 C 0.03509 0.1491 0.54473 0.0
C826 C 0.05336 0.1538 0.53945 0.0
C827 C 0.05802 0.16851 0.5122 0.0
C828 C 0.03031 0.13055 0.55432 0.0
C829 C 0.03795 0.11775 0.52392 0.0
C830 C 0.0166 0.12568 0.58715 0.0
C831 C 0.0087 0.13842 0.62199 0.0
C832 C 0.01998 0.14876 0.65139 0.0
C833 C 0.01247 0.16055 0.68454 0.0
C834 C 0.99368 0.16209 0.6888 0.0
C835 C 0.98235 0.15181 0.65997 0.0
C836 C 0.98979 0.13999 0.62676 0.0
C837 C 0.01751 0.04634 0.57596 0.0
C838 C 0.99958 0.04396 0.59082 0.0
C839 C 0.02354 0.06304 0.56369 0.0
C840 C 0.01123 0.0771 0.55994 0.0
C841 C 0.99263 0.0737 0.56519 0.0
C842 C 0.98682 0.05724 0.58103 0.0
C843 C 0.01778 0.0955 0.55593 0.0
C844 C 0.01053 0.1082 0.58748 0.0
C845 C 0.03184 0.10036 0.52408 0.0
C846 C 0.04038 0.08765 0.49047 0.0
C847 C 0.02983 0.07815 0.45731 0.0
C848 C 0.03773 0.06491 0.4293 0.0
C849 C 0.05618 0.06114 0.43395 0.0
C850 C 0.06683 0.07075 0.46618 0.0
C851 C 0.05902 0.08404 0.49413 0.0
H852 H 0.06223 0.05075 0.41263 0.0
H853 H 0.9879 0.17122 0.7145 0.0
H854 H 0.37445 0.1137 0.47887 0.0
H855 H 0.39925 0.09767 0.51708 0.0
H856 H 0.36262 0.05597 0.55564 0.0
H857 H 0.33804 0.071 0.51418 0.0
H858 H 0.39707 0.06937 0.62423 0.0
H859 H 0.3756 0.04301 0.47417 0.0
H860 H 0.36531 0.04446 0.38985 0.0
H861 H 0.4155 0.06872 0.3491 0.0
H862 H 0.42583 0.06793 0.43366 0.0
H863 H 0.44856 0.99124 0.63379 0.0
H864 H 0.42498 0.0103 0.60213 0.0
H865 H 0.46516 0.04829 0.55955 0.0
H866 H 0.48918 0.02935 0.59279 0.0
H867 H 0.42981 0.0379 0.49359 0.0
H868 H 0.45194 0.0617 0.64516 0.0
H869 H 0.46063 0.06183 0.73089 0.0
H870 H 0.40835 0.04153 0.76921 0.0
H871 H 0.39952 0.04089 0.68353 0.0
C872 C 0.37153 0.10124 0.49604 0.0
C873 C 0.35437 0.09331 0.49141 0.0
C874 C 0.38571 0.0922 0.51818 0.0
C875 C 0.38272 0.07549 0.53767 0.0
C876 C 0.3651 0.0688 0.54003 0.0
C877 C 0.35101 0.07755 0.51656 0.0
C878 C 0.39825 0.06401 0.54833 0.0
C879 C 0.40418 0.06239 0.59585 0.0
C880 C 0.40753 0.05513 0.51096 0.0
C881 C 0.40128 0.05582 0.46035 0.0
C882 C 0.38427 0.04901 0.44742 0.0
C883 C 0.37846 0.04964 0.39956 0.0
C884 C 0.38969 0.05679 0.36417 0.0
C885 C 0.40677 0.0633 0.3766 0.0
C886 C 0.41258 0.06281 0.4245 0.0
C887 C 0.45257 0.0034 0.61655 0.0
C888 C 0.47072 0.00908 0.61702 0.0
C889 C 0.43901 0.01432 0.59885 0.0
C890 C 0.44341 0.03083 0.58017 0.0
C891 C 0.46162 0.03569 0.5751 0.0
C892 C 0.47526 0.02489 0.59385 0.0
C893 C 0.42875 0.04333 0.56955 0.0
C894 C 0.42284 0.04501 0.52198 0.0
C895 C 0.41937 0.0521 0.60699 0.0
C896 C 0.42519 0.05102 0.65791 0.0
C897 C 0.44248 0.05687 0.67173 0.0
C898 C 0.44738 0.05713 0.7203 0.0
C899 C 0.43501 0.05171 0.75529 0.0
C900 C 0.41788 0.04571 0.74192 0.0
C901 C 0.41294 0.04536 0.69339 0.0
H902 H 0.43858 0.05234 0.79278 0.0
H903 H 0.38521 0.0572 0.32708 0.0
H904 H 0.46104 0.34821 0.47283 0.0
H905 H 0.46716 0.37508 0.51828 0.0
H906 H 0.51608 0.35189 0.57469 0.0
H907 H 0.51038 0.32521 0.52753 0.0
H908 H 0.4829 0.3861 0.62239 0.0
H909 H 0.53919 0.36747 0.52613 0.0
H910 H 0.55354 0.35395 0.45485 0.0
H911 H 0.5172 0.38232 0.36226 0.0
H912 H 0.50242 0.39569 0.43326 0.0
H913 H 0.55626 0.45299 0.62964 0.0
H914 H 0.5443 0.42486 0.60301 0.0
H915 H 0.49346 0.44949 0.56667 0.0
H916 H 0.50531 0.47795 0.59364 0.0
H917 H 0.52658 0.41477 0.51138 0.0
H918 H 0.46878 0.43102 0.61966 0.0
H919 H 0.4571 0.44225 0.69725 0.0
H920 H 0.50118 0.41791 0.77177 0.0
H921 H 0.51302 0.40624 0.69532 0.0
C922 C 0.47251 0.34848 0.49717 0.0
C923 C 0.48539 0.3349 0.49655 0.0
C924 C 0.47605 0.36384 0.5228 0.0
C925 C 0.4923 0.36546 0.54835 0.0
C926 C 0.50363 0.35082 0.55424 0.0
C927 C 0.50028 0.33557 0.52788 0.0
C928 C 0.49921 0.3831 0.55868 0.0
C929 C 0.4924 0.3924 0.59814 0.0
C930 C 0.51164 0.39123 0.52704 0.0
C931 C 0.5194 0.38213 0.48483 0.0
C932 C 0.53402 0.37049 0.49058 0.0
C933 C 0.5423 0.36295 0.45027 0.0
C934 C 0.53622 0.3672 0.40404 0.0
C935 C 0.52179 0.37893 0.39808 0.0
C936 C 0.5134 0.38641 0.43833 0.0
C937 C 0.5428 0.45267 0.61414 0.0
C938 C 0.53157 0.46763 0.61443 0.0
C939 C 0.53591 0.43651 0.59972 0.0
C940 C 0.51788 0.4352 0.58469 0.0
C941 C 0.50727 0.45035 0.57964 0.0
C942 C 0.51414 0.46657 0.59422 0.0
C943 C 0.51032 0.41778 0.57508 0.0
C944 C 0.51693 0.40854 0.53541 0.0
C945 C 0.49805 0.40966 0.60704 0.0
C946 C 0.49202 0.4182 0.65187 0.0
C947 C 0.47621 0.42847 0.65257 0.0
C948 C 0.46963 0.43499 0.69627 0.0
C949 C 0.47886 0.43159 0.73911 0.0
C950 C 0.49448 0.42122 0.73852 0.0
C951 C 0.50109 0.41455 0.69511 0.0
H952 H 0.47363 0.43656 0.77288 0.0
H953 H 0.54273 0.36145 0.37286 0.0
H954 H 0.15485 0.39481 0.50763 0.0
H955 H 0.13047 0.41216 0.54329 0.0
H956 H 0.1683 0.45341 0.5774 0.0
H957 H 0.19245 0.43699 0.53842 0.0
H958 H 0.13347 0.44669 0.6431 0.0
H959 H 0.15709 0.46283 0.48773 0.0
H960 H 0.16854 0.4575 0.40571 0.0
H961 H 0.11804 0.43339 0.36683 0.0
H962 H 0.10653 0.43805 0.44936 0.0
H963 H 0.08288 0.52216 0.63371 0.0
H964 H 0.10645 0.50445 0.59743 0.0
H965 H 0.06735 0.46457 0.5612 0.0
H966 H 0.04302 0.48318 0.59448 0.0
H967 H 0.10274 0.47052 0.49754 0.0
H968 H 0.08595 0.44995 0.67302 0.0
H969 H 0.07867 0.45853 0.75646 0.0
H970 H 0.11968 0.49854 0.752 0.0
H971 H 0.12742 0.48986 0.66878 0.0
C972 C 0.15813 0.40737 0.52385 0.0
C973 C 0.1754 0.41491 0.5177 0.0
C974 C 0.1442 0.41717 0.54452 0.0
C975 C 0.14765 0.43421 0.56122 0.0
C976 C 0.16548 0.44032 0.56387 0.0
C977 C 0.17933 0.43079 0.54173 0.0
C978 C 0.1326 0.44675 0.56563 0.0
C979 C 0.12674 0.45184 0.61133 0.0
C980 C 0.12413 0.45375 0.52405 0.0
C981 C 0.13115 0.45034 0.47501 0.0
C982 C 0.1486 0.456 0.46205 0.0
C983 C 0.15507 0.45318 0.41541 0.0
C984 C 0.14408 0.44499 0.38115 0.0
C985 C 0.12659 0.4396 0.39352 0.0
C986 C 0.12011 0.44226 0.44027 0.0
C987 C 0.07898 0.50993 0.61656 0.0
C988 C 0.06133 0.50307 0.62121 0.0
C989 C 0.09258 0.49982 0.5959 0.0
C990 C 0.08864 0.48289 0.57948 0.0
C991 C 0.07059 0.47739 0.57585 0.0
C992 C 0.05684 0.48773 0.59584 0.0
C993 C 0.10344 0.47013 0.57487 0.0
C994 C 0.10929 0.46506 0.52917 0.0
C995 C 0.11236 0.46365 0.61627 0.0
C996 C 0.10719 0.46931 0.66509 0.0
C997 C 0.09328 0.46065 0.68987 0.0
C998 C 0.08909 0.46553 0.73706 0.0
C999 C 0.09868 0.47915 0.75939 0.0
C1000 C 0.11229 0.48803 0.73453 0.0
C1001 C 0.11664 0.48307 0.68754 0.0
H1002 H 0.09595 0.4826 0.79628 0.0
H1003 H 0.14906 0.44293 0.34495 0.0
H1004 H 0.96671 0.83806 0.92995 0.0
H1005 H 0.97167 0.86447 0.8812 0.0
H1006 H 0.02931 0.85889 0.90033 0.0
H1007 H 0.02455 0.83259 0.94859 0.0
H1008 H 1.00077 0.88916 0.95184 0.0
H1009 H 0.03017 0.86224 0.80871 0.0
H1010 H 0.02958 0.84221 0.73875 0.0
H1011 H 0.98172 0.868 0.68592 0.0
H1012 H 0.9822 0.88817 0.75532 0.0
H1013 H 0.05138 0.96216 0.84519 0.0
H1014 H 0.04226 0.93263 0.87077 0.0
H1015 H 0.98677 0.94452 0.83508 0.0
H1016 H 0.99555 0.9739 0.81071 0.0
H1017 H 0.01134 0.91139 0.78622 0.0
H1018 H 0.98103 0.93771 0.9263 0.0
H1019 H 0.98201 0.95988 0.99118 0.0
H1020 H 0.03047 0.93618 0.04727 0.0
H1021 H 0.02985 0.91401 0.98216 0.0
C1022 C 0.98045 0.84198 0.92158 0.0
C1023 C 0.99523 0.83354 0.94368 0.0
C1024 C 0.98325 0.85699 0.89371 0.0
C1025 C 1.00082 0.86352 0.88766 0.0
C1026 C 0.01568 0.85382 0.90431 0.0
C1027 C 0.01291 0.83877 0.93183 0.0
C1028 C 1.00336 0.88221 0.87669 0.0
C1029 C 1.00308 0.89401 0.91562 0.0
C1030 C 0.00605 0.88843 0.8295 0.0
C1031 C 0.006 0.87646 0.78755 0.0
C1032 C 0.01944 0.86349 0.78236 0.0
C1033 C 0.0192 0.85218 0.74264 0.0
C1034 C 0.0056 0.85376 0.70789 0.0
C1035 C 0.99228 0.86674 0.71268 0.0
C1036 C 0.99254 0.87814 0.75215 0.0
C1037 C 0.03713 0.95875 0.8448 0.0
C1038 C 0.02418 0.97036 0.82559 0.0
C1039 C 0.03202 0.94184 0.8586 0.0
C1040 C 0.01399 0.93648 0.85324 0.0
C1041 C 1.00079 0.94848 0.83863 0.0
C1042 C 0.00582 0.96542 0.82569 0.0
C1043 C 0.00909 0.9181 0.86146 0.0
C1044 C 0.00886 0.90646 0.82227 0.0
C1045 C 0.00577 0.91197 0.90828 0.0
C1046 C 0.00538 0.92425 0.9496 0.0
C1047 C 0.99184 0.93721 0.95263 0.0
C1048 C 0.99236 0.9498 0.98932 0.0
C1049 C 0.0063 0.94944 0.02336 0.0
C1050 C 0.01967 0.93641 0.02094 0.0
C1051 C 0.01922 0.92381 0.98423 0.0
H1052 H 0.00675 0.95925 0.05158 0.0
H1053 H 0.00545 0.84497 0.67725 0.0
H1054 H 0.70093 0.94301 0.88092 0.0
H1055 H 0.67773 0.95379 0.8252 0.0
H1056 H 0.6374 0.92366 0.90169 0.0
H1057 H 0.66073 0.91132 0.95249 0.0
H1058 H 0.62309 0.93184 0.82565 0.0
H1059 H 0.66199 0.97205 0.93787 0.0
H1060 H 0.69149 0.98683 0.9497 0.0
H1061 H 0.68962 0.0063 0.80461 0.0
H1062 H 0.66022 0.99157 0.79204 0.0
H1063 H 0.54776 0.98484 0.87075 0.0
H1064 H 0.57608 0.96914 0.88865 0.0
H1065 H 0.60545 0.00542 0.79829 0.0
H1066 H 0.57798 0.02201 0.78496 0.0
H1067 H 0.62688 0.99567 0.86186 0.0
H1068 H 0.59363 0.95854 0.74185 0.0
H1069 H 0.56469 0.94551 0.71451 0.0
H1070 H 0.55655 0.92384 0.85578 0.0
H1071 H 0.58566 0.93571 0.88229 0.0
C1072 C 0.6873 0.93788 0.88366 0.0
C1073 C 0.68235 0.92706 0.92241 0.0
C1074 C 0.67392 0.94438 0.85257 0.0
C1075 C 0.65556 0.94081 0.86198 0.0
C1076 C 0.65132 0.92727 0.8945 0.0
C1077 C 0.66472 0.92019 0.92385 0.0
C1078 C 0.64075 0.95302 0.84723 0.0
C1079 C 0.62405 0.9458 0.83348 0.0
C1080 C 0.64181 0.97147 0.85524 0.0
C1081 C 0.65907 0.98068 0.864 0.0
C1082 C 0.66788 0.97958 0.90872 0.0
C1083 C 0.68458 0.98789 0.91545 0.0
C1084 C 0.69243 0.99747 0.87792 0.0
C1085 C 0.68355 -0.00114 0.83363 0.0
C1086 C 0.66689 0.99055 0.82669 0.0
C1087 C 0.56039 0.98965 0.85605 0.0
C1088 C 0.56064 0.00454 0.82642 0.0
C1089 C 0.5765 0.98051 0.86531 0.0
C1090 C 0.59277 0.98553 0.84262 0.0
C1091 C 0.59313 0.00111 0.81584 0.0
C1092 C 0.57731 0.01063 0.80837 0.0
C1093 C 0.60916 0.97416 0.84367 0.0
C1094 C 0.62602 0.9817 0.85403 0.0
C1095 C 0.60844 0.95619 0.83094 0.0
C1096 C 0.59161 0.94801 0.81393 0.0
C1097 C 0.58562 0.9508 0.7666 0.0
C1098 C 0.56927 0.94348 0.75112 0.0
C1099 C 0.55881 0.9336 0.78306 0.0
C1100 C 0.5647 0.93108 0.83043 0.0
C1101 C 0.58124 0.93785 0.84554 0.0
H1102 H 0.5462 0.92791 0.77103 0.0
H1103 H 0.70538 0.00384 0.88315 0.0
H1104 H 0.51218 0.68765 0.92537 0.0
H1105 H 0.50837 0.66408 0.86631 0.0
H1106 H 0.55936 0.6415 0.91045 0.0
H1107 H 0.56352 0.66533 0.96792 0.0
H1108 H 0.54823 0.62857 0.82098 0.0
H1109 H 0.52186 0.6367 0.98786 0.0
H1110 H 0.50224 0.65218 0.04632 0.0
H1111 H 0.45793 0.65018 0.9462 0.0
H1112 H 0.47734 0.63476 0.88729 0.0
H1113 H 0.52744 0.53661 0.86795 0.0
H1114 H 0.53666 0.56683 0.88747 0.0
H1115 H 0.48725 0.58646 0.82433 0.0
H1116 H 0.47749 0.55666 0.80793 0.0
H1117 H 0.49762 0.6014 0.91206 0.0
H1118 H 0.52973 0.60795 0.73655 0.0
H1119 H 0.54763 0.59254 0.67417 0.0
H1120 H 0.57671 0.56469 0.78347 0.0
H1121 H 0.55988 0.58049 0.84646 0.0
C1122 C 0.52311 0.67832 0.92015 0.0
C1123 C 0.53781 0.6778 0.95215 0.0
C1124 C 0.52091 0.66483 0.88648 0.0
C1125 C 0.53321 0.6507 0.88581 0.0
C1126 C 0.54957 0.65213 0.91106 0.0
C1127 C 0.55188 0.6657 0.94416 0.0
C1128 C 0.52697 0.63289 0.87294 0.0
C1129 C 0.53708 0.62265 0.84053 0.0
C1130 C 0.51242 0.62511 0.89839 0.0
C1131 C 0.50107 0.63488 0.93315 0.0
C1132 C 0.50798 0.63973 0.97832 0.0
C1133 C 0.4969 0.64845 0.0115 0.0
C1134 C 0.47889 0.65224 0.99989 0.0
C1135 C 0.4719 0.64731 0.95509 0.0
C1136 C 0.48292 0.6386 0.92183 0.0
C1137 C 0.51845 0.5474 0.85948 0.0
C1138 C 0.502 0.54431 0.83568 0.0
C1139 C 0.52391 0.56461 0.86927 0.0
C1140 C 0.51316 0.57877 0.85404 0.0
C1141 C 0.49598 0.57563 0.8347 0.0
C1142 C 0.4903 0.55853 0.82627 0.0
C1143 C 0.51896 0.59704 0.86076 0.0
C1144 C 0.50867 0.60735 0.89207 0.0
C1145 C 0.53304 0.60479 0.83358 0.0
C1146 C 0.54306 0.59491 0.79619 0.0
C1147 C 0.53985 0.59838 0.74723 0.0
C1148 C 0.54986 0.58963 0.71177 0.0
C1149 C 0.56293 0.57724 0.72483 0.0
C1150 C 0.56624 0.57384 0.77339 0.0
C1151 C 0.55654 0.58276 0.80903 0.0
H1152 H 0.57069 0.57048 0.69738 0.0
H1153 H 0.47032 0.65894 0.02567 0.0
H1154 H 0.84274 0.59304 0.89767 0.0
H1155 H 0.87006 0.58083 0.85778 0.0
H1156 H 0.88378 0.55331 0.98875 0.0
H1157 H 0.85694 0.56525 0.02775 0.0
H1158 H 0.91192 0.57257 0.95352 0.0
H1159 H 0.8647 0.53355 0.90026 0.0
H1160 H 0.83764 0.52345 0.8566 0.0
H1161 H 0.86331 0.53521 0.72188 0.0
H1162 H 0.89016 0.54637 0.7647 0.0
H1163 H 0.9614 0.49017 0.87863 0.0
H1164 H 0.93524 0.50832 0.90206 0.0
H1165 H 0.95769 0.55242 0.82517 0.0
H1166 H 0.98371 0.53477 0.80259 0.0
H1167 H 0.91268 0.52873 0.82116 0.0
H1168 H 0.9585 0.57399 0.8927 0.0
H1169 H 0.98533 0.57761 0.9453 0.0
H1170 H 0.96056 0.54556 0.05348 0.0
H1171 H 0.93365 0.54161 0.00174 0.0
C1172 C 0.85164 0.58428 0.91735 0.0
C1173 C 0.84794 0.57998 0.96551 0.0
C1174 C 0.86712 0.57736 0.89477 0.0
C1175 C 0.87892 0.56627 0.92057 0.0
C1176 C 0.87493 0.56193 0.96839 0.0
C1177 C 0.85961 0.56868 0.99055 0.0
C1178 C 0.89585 0.55926 0.89971 0.0
C1179 C 0.91207 0.56329 0.92379 0.0
C1180 C 0.89602 0.54689 0.8615 0.0
C1181 C 0.87931 0.5413 0.83589 0.0
C1182 C 0.8644 0.53455 0.8614 0.0
C1183 C 0.84907 0.52858 0.83673 0.0
C1184 C 0.84863 0.52893 0.78647 0.0
C1185 C 0.86351 0.53528 0.76078 0.0
C1186 C 0.87875 0.54151 0.78526 0.0
C1187 C 0.96104 0.50391 0.86831 0.0
C1188 C 0.97488 0.51112 0.83984 0.0
C1189 C 0.94604 0.51415 0.88107 0.0
C1190 C 0.94466 0.53162 0.86513 0.0
C1191 C 0.95869 0.53903 0.8383 0.0
C1192 C 0.97373 0.52894 0.82613 0.0
C1193 C 0.92832 0.54204 0.87539 0.0
C1194 C 0.91243 0.53861 0.84941 0.0
C1195 C 0.92821 0.55466 0.9124 0.0
C1196 C 0.9442 0.55744 0.94342 0.0
C1197 C 0.95884 0.56768 0.92764 0.0
C1198 C 0.97403 0.56979 0.95717 0.0
C1199 C 0.97467 0.5618 0.00239 0.0
C1200 C 0.96007 0.55172 0.01839 0.0
C1201 C 0.94485 0.54955 0.98906 0.0
H1202 H 0.98647 0.56347 0.02505 0.0
H1203 H 0.83684 0.52412 0.76741 0.0
H1204 H 0.01283 0.1878 0.0053 0.0
H1205 H 0.01077 0.16194 0.95331 0.0
H1206 H 0.06111 0.14235 0.01107 0.0
H1207 H 0.06351 0.16848 0.06247 0.0
H1208 H 0.05914 0.13734 0.91282 0.0
H1209 H 0.02155 0.12566 0.04983 0.0
H1210 H 0.99748 0.13186 0.109 0.0
H1211 H 0.95806 0.13381 0.99542 0.0
H1212 H 0.98194 0.1279 0.93545 0.0
H1213 H 0.04028 0.04889 0.81665 0.0
H1214 H 0.04911 0.07401 0.86795 0.0
H1215 H 1.0002 0.10127 0.82747 0.0
H1216 H 0.99141 0.07675 0.77706 0.0
H1217 H 1.00387 0.10058 0.92321 0.0
H1218 H 0.0409 0.11402 0.78586 0.0
H1219 H 0.06472 0.10971 0.72481 0.0
H1220 H 0.10481 0.10555 0.83631 0.0
H1221 H 0.08116 0.10954 0.89811 0.0
C1222 C 0.02362 0.17814 0.00658 0.0
C1223 C 0.03832 0.18028 0.03835 0.0
C1224 C 0.02234 0.16324 0.97704 0.0
C1225 C 0.03567 0.15002 0.97855 0.0
C1226 C 0.05061 0.1523 0.00928 0.0
C1227 C 0.05187 0.1672 0.03901 0.0
C1228 C 0.03367 0.13365 0.94904 0.0
C1229 C 0.0472 0.12911 0.91563 0.0
C1230 C 0.01798 0.12301 0.95207 0.0
C1231 C 1.00357 0.12646 0.98811 0.0
C1232 C 0.00777 0.12754 0.03743 0.0
C1233 C 0.99415 0.13099 0.07112 0.0
C1234 C 0.97625 0.13326 0.05597 0.0
C1235 C 0.97193 0.13206 0.0071 0.0
C1236 C 0.9855 0.12864 0.97325 0.0
C1237 C 0.03151 0.0603 0.81844 0.0
C1238 C 0.01495 0.06052 0.79309 0.0
C1239 C 0.0366 0.07469 0.84769 0.0
C1240 C 0.02524 0.08956 0.85201 0.0
C1241 C 0.00913 0.08995 0.82538 0.0
C1242 C 1.0041 0.07577 0.79642 0.0
C1243 C 0.02916 0.10439 0.88604 0.0
C1244 C 0.01595 0.10865 0.92061 0.0
C1245 C 0.04508 0.11476 0.88373 0.0
C1246 C 0.0592 0.11175 0.84667 0.0
C1247 C 0.05474 0.1119 0.79742 0.0
C1248 C 0.06823 0.10959 0.76266 0.0
C1249 C 0.08625 0.10727 0.77668 0.0
C1250 C 0.09083 0.10727 0.8255 0.0
C1251 C 0.07739 0.10954 0.86041 0.0
H1252 H 0.09668 0.10554 0.7497 0.0
H1253 H 0.96573 0.13593 0.08211 0.0
H1254 H 0.35096 0.09768 0.01337 0.0
H1255 H 0.37747 0.0904 0.96392 0.0
H1256 H 0.38558 0.04308 0.04714 0.0
H1257 H 0.35972 0.05077 0.09761 0.0
H1258 H 0.41613 0.05585 0.03425 0.0
H1259 H 0.36642 0.04588 0.92603 0.0
H1260 H 0.33928 0.05303 0.87804 0.0
H1261 H 0.36913 0.09245 0.8011 0.0
H1262 H 0.39638 0.08573 0.84917 0.0
H1263 H 0.45257 2e-05 0.84482 0.0
H1264 H 0.43209 0.01569 0.89805 0.0
H1265 H 0.46199 0.06358 0.87532 0.0
H1266 H 0.48297 0.04776 0.82087 0.0
H1267 H 0.41513 0.05535 0.85593 0.0
H1268 H 0.46606 0.06196 0.96776 0.0
H1269 H 0.49194 0.05088 0.01509 0.0
H1270 H 0.45747 0.01281 0.08298 0.0
H1271 H 0.43146 0.02348 0.0354 0.0
C1272 C 0.35844 0.08573 0.021 0.0
C1273 C 0.35329 0.07487 0.05968 0.0
C1274 C 0.37357 0.0815 0.99249 0.0
C1275 C 0.38363 0.06604 1.00116 0.0
C1276 C 0.3783 0.05516 0.0396 0.0
C1277 C 0.36345 0.05956 0.06858 0.0
C1278 C 0.39989 0.06119 0.97135 0.0
C1279 C 0.41578 0.0558 0.99521 0.0
C1280 C 0.39984 0.06128 0.92018 0.0
C1281 C 0.38337 0.0655 0.89179 0.0
C1282 C 0.36714 0.05622 0.89928 0.0
C1283 C 0.35175 0.06016 0.87198 0.0
C1284 C 0.35246 0.07324 0.8367 0.0
C1285 C 0.36858 0.08237 0.82857 0.0
C1286 C 0.38399 0.07851 0.85585 0.0
C1287 C 0.45504 0.01387 0.85115 0.0
C1288 C 0.46939 0.02264 0.82776 0.0
C1289 C 0.44327 0.0228 0.88197 0.0
C1290 C 0.44539 0.0408 0.89061 0.0
C1291 C 0.46016 0.04962 0.86936 0.0
C1292 C 0.47215 0.04058 0.83826 0.0
C1293 C 0.43113 0.05011 0.91899 0.0
C1294 C 0.41552 0.05599 0.8949 0.0
C1295 C 0.4312 0.05006 0.96984 0.0
C1296 C 0.4469 0.04337 0.99753 0.0
C1297 C 0.46407 0.05105 0.99221 0.0
C1298 C 0.47874 0.04489 0.01925 0.0
C1299 C 0.47637 0.03111 0.0519 0.0
C1300 C 0.45931 0.02345 0.0576 0.0
C1301 C 0.4446 0.02956 0.03061 0.0
H1302 H 0.48773 0.02639 0.0729 0.0
H1303 H 0.34053 0.07626 0.81556 0.0
H1304 H 0.5155 0.32579 0.01511 0.0
H1305 H 0.5185 0.35239 0.96646 0.0
H1306 H 0.47073 0.3741 0.03323 0.0
H1307 H 0.46732 0.34727 0.08113 0.0
H1308 H 0.47093 0.38037 0.9362 0.0
H1309 H 0.51312 0.38772 0.06765 0.0
H1310 H 0.53852 0.37905 0.12032 0.0
H1311 H 0.57389 0.37628 0.99785 0.0
H1312 H 0.54865 0.38472 0.94439 0.0
H1313 H 0.49189 0.46725 0.83616 0.0
H1314 H 0.4829 0.44282 0.88911 0.0
H1315 H 0.53158 0.41474 0.85044 0.0
H1316 H 0.54073 0.43885 0.79938 0.0
H1317 H 0.52847 0.41382 0.94142 0.0
H1318 H 0.48235 0.38974 0.81658 0.0
H1319 H 0.45668 0.39421 0.76077 0.0
H1320 H 0.43048 0.42744 0.86483 0.0
H1321 H 0.45587 0.42281 0.9215 0.0
C1322 C 0.50547 0.3361 0.01912 0.0
C1323 C 0.49118 0.3343 0.05231 0.0
C1324 C 0.50732 0.35143 0.99155 0.0
C1325 C 0.49499 0.36544 0.99654 0.0
C1326 C 0.48048 0.36356 0.02882 0.0
C1327 C 0.47864 0.34823 0.05651 0.0
C1328 C 0.49741 0.38206 0.96846 0.0
C1329 C 0.48343 0.38783 0.93789 0.0
C1330 C 0.51377 0.39173 0.96982 0.0
C1331 C 0.52896 0.38674 0.00201 0.0
C1332 C 0.52629 0.38515 0.05193 0.0
C1333 C 0.54066 0.3803 0.08193 0.0
C1334 C 0.55779 0.37709 0.06244 0.0
C1335 C 0.56061 0.37876 0.01291 0.0
C1336 C 0.54628 0.38361 0.98276 0.0
C1337 C 0.50058 0.45579 0.83878 0.0
C1338 C 0.51714 0.45523 0.81365 0.0
C1339 C 0.49533 0.44169 0.86874 0.0
C1340 C 0.50643 0.42667 0.87371 0.0
C1341 C 0.52275 0.4261 0.84787 0.0
C1342 C 0.52798 0.44005 0.8184 0.0
C1343 C 0.5022 0.41196 0.90788 0.0
C1344 C 0.51587 0.40651 0.93992 0.0
C1345 C 0.4857 0.40246 0.90734 0.0
C1346 C 0.47112 0.4063 0.87257 0.0
C1347 C 0.47117 0.39813 0.82724 0.0
C1348 C 0.45661 0.40054 0.7957 0.0
C1349 C 0.44201 0.4112 0.80912 0.0
C1350 C 0.44186 0.4193 0.85433 0.0
C1351 C 0.45628 0.41673 0.88621 0.0
H1352 H 0.43079 0.41313 0.78457 0.0
H1353 H 0.5689 0.37333 0.08572 0.0
H1354 H 0.18324 0.46382 0.07493 0.0
H1355 H 0.15652 0.47015 0.02566 0.0
H1356 H 0.14144 0.41543 0.03002 0.0
H1357 H 0.16815 0.40903 0.08044 0.0
H1358 H 0.13971 0.43423 0.932 0.0
H1359 H 0.11775 0.43795 0.09481 0.0
H1360 H 0.12028 0.44767 0.17926 0.0
H1361 H 0.11886 0.50166 0.13393 0.0
H1362 H 0.11663 0.49225 0.04908 0.0
H1363 H 0.05404 0.46186 0.82185 0.0
H1364 H 0.07492 0.44593 0.87589 0.0
H1365 H 0.09694 0.49533 0.92455 0.0
H1366 H 0.07636 0.51109 0.8715 0.0
H1367 H 0.09233 0.47353 0.99917 0.0
H1368 H 0.13402 0.46626 0.84852 0.0
H1369 H 0.13836 0.4576 0.7635 0.0
H1370 H 0.10389 0.41281 0.78444 0.0
H1371 H 0.09981 0.42098 0.86995 0.0
C1372 C 0.17431 0.45309 0.06523 0.0
C1373 C 0.17788 0.43591 0.08165 0.0
C1374 C 0.15901 0.45673 0.03707 0.0
C1375 C 0.14693 0.44329 0.02393 0.0
C1376 C 0.15056 0.42603 0.03951 0.0
C1377 C 0.16576 0.42241 0.06858 0.0
C1378 C 0.13029 0.44766 0.99544 0.0
C1379 C 0.12908 0.44244 0.94704 0.0
C1380 C 0.11659 0.45868 0.0145 0.0
C1381 C 0.11708 0.46439 0.06558 0.0
C1382 C 0.11802 0.4519 0.10284 0.0
C1383 C 0.11942 0.45735 0.15078 0.0
C1384 C 0.11975 0.47527 0.16195 0.0
C1385 C 0.11859 0.48778 0.12521 0.0
C1386 C 0.11723 0.48239 0.07719 0.0
C1387 C 0.06318 0.46929 0.84455 0.0
C1388 C 0.06367 0.4878 0.84145 0.0
C1389 C 0.07535 0.46015 0.87498 0.0
C1390 C 0.088 0.46934 0.90363 0.0
C1391 C 0.0876 0.48781 0.90261 0.0
C1392 C 0.07571 0.49686 0.87208 0.0
C1393 C 0.10168 0.46022 0.93523 0.0
C1394 C 0.10253 0.46479 0.98437 0.0
C1395 C 0.11512 0.44868 0.91677 0.0
C1396 C 0.11632 0.44441 0.86504 0.0
C1397 C 0.12727 0.45465 0.83476 0.0
C1398 C 0.12983 0.44974 0.7867 0.0
C1399 C 0.12133 0.43472 0.76852 0.0
C1400 C 0.11038 0.4245 0.7985 0.0
C1401 C 0.10799 0.42922 0.84678 0.0
H1402 H 0.12324 0.43101 0.73123 0.0
H1403 H 0.12088 0.47947 0.19908 0.0
H1404 H 0.01142 0.82374 0.45401 0.0
H1405 H 0.01003 0.8504 0.50318 0.0
H1406 H 0.98646 0.87878 0.3843 0.0
H1407 H 0.98745 0.85211 0.3351 0.0
H1408 H 0.01438 0.89707 0.42642 0.0
H1409 H 0.95855 0.8703 0.4818 0.0
H1410 H 0.94059 0.84505 0.51077 0.0
H1411 H 0.97675 0.8388 0.63061 0.0
H1412 H 0.99496 0.86404 0.60208 0.0
H1413 H 1.00081 0.97437 0.56932 0.0
H1414 H 0.9936 0.9491 0.51698 0.0
H1415 H 0.01233 0.9136 0.62753 0.0
H1416 H 0.01948 0.93863 0.67922 0.0
H1417 H 0.98395 0.89965 0.58547 0.0
H1418 H 0.03921 0.9269 0.53249 0.0
H1419 H 0.05921 0.95014 0.50093 0.0
H1420 H 0.02668 0.95378 0.37312 0.0
H1421 H 0.00628 0.93078 0.40434 0.0
C1422 C 0.00565 0.83554 0.43844 0.0
C1423 C 0.9996 0.83568 0.39035 0.0
C1424 C 0.0049 0.85083 0.46666 0.0
C1425 C 0.99802 0.86662 0.44761 0.0
C1426 C 0.99187 0.8668 0.3998 0.0
C1427 C 0.99255 0.85151 0.37161 0.0
C1428 C 0.99781 0.88306 0.47711 0.0
C1429 C 0.00741 0.8978 0.46074 0.0
C1430 C 0.98908 0.8839 0.52233 0.0
C1431 C 0.97799 0.86907 0.54014 0.0
C1432 C 0.96262 0.86355 0.51441 0.0
C1433 C 0.95242 0.84926 0.53069 0.0
C1434 C 0.95752 0.84037 0.5726 0.0
C1435 C 0.9728 0.84577 0.59832 0.0
C1436 C 0.983 0.8601 0.58226 0.0
C1437 C 1.00293 0.96114 0.58269 0.0
C1438 C 0.01071 0.95844 0.62828 0.0
C1439 C 0.999 0.9467 0.55264 0.0
C1440 C 1.00268 0.92935 0.56788 0.0
C1441 C 0.00941 0.92675 0.61463 0.0
C1442 C 0.01351 0.94109 0.64421 0.0
C1443 C 1.00061 0.91387 0.53491 0.0
C1444 C 0.99065 0.89918 0.55074 0.0
C1445 C 0.00914 0.91307 0.48915 0.0
C1446 C 0.02103 0.92734 0.47116 0.0
C1447 C 0.03616 0.93284 0.49799 0.0
C1448 C 0.04761 0.94593 0.48009 0.0
C1449 C 0.04417 0.95349 0.43516 0.0
C1450 C 0.02928 0.94797 0.40802 0.0
C1451 C 0.01776 0.93493 0.42583 0.0
H1452 H 0.05309 0.96358 0.42129 0.0
H1453 H 0.94964 0.82928 0.58509 0.0
H1454 H 0.6579 0.95677 0.32248 0.0
H1455 H 0.63232 0.9624 0.37601 0.0
H1456 H 0.66287 0.94208 0.49598 0.0
H1457 H 0.68824 0.9356 0.44224 0.0
H1458 H 0.6285 0.93265 0.50643 0.0
H1459 H 0.65859 0.98692 0.47794 0.0
H1460 H 0.67279 0.00966 0.42725 0.0
H1461 H 0.62184 0.01936 0.35747 0.0
H1462 H 0.60737 0.99651 0.40747 0.0
H1463 H 0.58124 0.98176 0.69199 0.0
H1464 H 0.60321 0.96883 0.63578 0.0
H1465 H 0.56725 0.98016 0.51748 0.0
H1466 H 0.54486 0.99236 0.57428 0.0
H1467 H 0.6037 0.99337 0.50588 0.0
H1468 H 0.57381 0.93884 0.54428 0.0
H1469 H 0.56182 0.91587 0.59817 0.0
H1470 H 0.61501 0.90739 0.65628 0.0
H1471 H 0.6273 0.93046 0.6031 0.0
C1472 C 0.65916 0.95317 0.36002 0.0
C1473 C 0.67543 0.94588 0.37769 0.0
C1474 C 0.64449 0.95659 0.39091 0.0
C1475 C 0.64563 0.95304 0.44061 0.0
C1476 C 0.66155 0.94511 0.45804 0.0
C1477 C 0.67621 0.94159 0.42713 0.0
C1478 C 0.63061 0.95837 0.47445 0.0
C1479 C 0.62321 0.94597 0.50651 0.0
C1480 C 0.62351 0.97573 0.47499 0.0
C1481 C 0.63193 0.98994 0.44617 0.0
C1482 C 0.65042 0.99389 0.45172 0.0
C1483 C 0.65853 0.00678 0.42311 0.0
C1484 C 0.64823 0.01592 0.38909 0.0
C1485 C 0.62979 0.01226 0.38384 0.0
C1486 C 0.62162 -0.00064 0.41236 0.0
C1487 C 0.57778 0.98091 0.65417 0.0
C1488 C 0.56114 0.9877 0.63776 0.0
C1489 C 0.59041 0.97363 0.62194 0.0
C1490 C 0.58699 0.97347 0.57212 0.0
C1491 C 0.57023 0.98002 0.55567 0.0
C1492 C 0.55734 0.98685 0.58818 0.0
C1493 C 0.6014 0.96759 0.53734 0.0
C1494 C 0.60884 0.97999 0.50545 0.0
C1495 C 0.60879 0.95034 0.53787 0.0
C1496 C 0.60144 0.93651 0.57002 0.0
C1497 C 0.58292 0.9322 0.56887 0.0
C1498 C 0.57608 0.91913 0.59921 0.0
C1499 C 0.58764 0.91022 0.63074 0.0
C1500 C 0.60607 0.91432 0.63189 0.0
C1501 C 0.61299 0.92738 0.6016 0.0
H1502 H 0.58233 0.90011 0.65418 0.0
H1503 H 0.65454 0.02586 0.36685 0.0
H1504 H 0.51823 0.68945 0.46352 0.0
H1505 H 0.51923 0.66331 0.5147 0.0
H1506 H 0.54884 0.63539 0.4047 0.0
H1507 H 0.54792 0.66148 0.35338 0.0
H1508 H 0.52284 0.61535 0.43726 0.0
H1509 H 0.56909 0.64949 0.51084 0.0
H1510 H 0.58314 0.67554 0.54824 0.0
H1511 H 0.54453 0.67356 0.66364 0.0
H1512 H 0.53003 0.64767 0.62654 0.0
H1513 H 0.53614 0.54143 0.59959 0.0
H1514 H 0.54342 0.56646 0.5465 0.0
H1515 H 0.50868 0.6 0.63116 0.0
H1516 H 0.50137 0.57534 0.68357 0.0
H1517 H 0.54142 0.61596 0.6088 0.0
H1518 H 0.49371 0.5836 0.52963 0.0
H1519 H 0.47888 0.55858 0.48924 0.0
H1520 H 0.52083 0.55769 0.38223 0.0
H1521 H 0.53611 0.58251 0.42256 0.0
C1522 C 0.52519 0.67784 0.45043 0.0
C1523 C 0.53295 0.67763 0.40414 0.0
C1524 C 0.52577 0.66286 0.47983 0.0
C1525 C 0.53427 0.64732 0.46393 0.0
C1526 C 0.54216 0.64714 0.41791 0.0
C1527 C 0.54155 0.66209 0.38846 0.0
C1528 C 0.53417 0.63106 0.49432 0.0
C1529 C 0.5273 0.61541 0.47449 0.0
C1530 C 0.5397 0.6311 0.5432 0.0
C1531 C 0.54836 0.64671 0.56562 0.0
C1532 C 0.56348 0.6547 0.54397 0.0
C1533 C 0.57155 0.66943 0.56515 0.0
C1534 C 0.56471 0.67623 0.60822 0.0
C1535 C 0.5498 0.66829 0.63024 0.0
C1536 C 0.54166 0.65358 0.60916 0.0
C1537 C 0.53027 0.5542 0.60714 0.0
C1538 C 0.51808 0.55632 0.64566 0.0
C1539 C 0.53433 0.56847 0.57659 0.0
C1540 C 0.52647 0.58513 0.58454 0.0
C1541 C 0.51484 0.58732 0.62401 0.0
C1542 C 0.51066 0.57314 0.65397 0.0
C1543 C 0.52987 0.60037 0.55183 0.0
C1544 C 0.53732 0.61584 0.57129 0.0
C1545 C 0.52496 0.60016 0.50252 0.0
C1546 C 0.51625 0.58469 0.47969 0.0
C1547 C 0.49996 0.57786 0.49802 0.0
C1548 C 0.49142 0.56377 0.475 0.0
C1549 C 0.49895 0.55649 0.43334 0.0
C1550 C 0.51505 0.56328 0.41464 0.0
C1551 C 0.52367 0.57734 0.43762 0.0
H1552 H 0.49227 0.54564 0.41542 0.0
H1553 H 0.57098 0.68762 0.62459 0.0
H1554 H 0.83998 0.54906 0.45416 0.0
H1555 H 0.8658 0.54348 0.50676 0.0
H1556 H 0.8982 0.57953 0.42365 0.0
H1557 H 0.87232 0.58513 0.37051 0.0
H1558 H 0.91681 0.55072 0.44003 0.0
H1559 H 0.88404 0.59011 0.54343 0.0
H1560 H 0.85674 0.60127 0.58463 0.0
H1561 H 0.85083 0.55203 0.65827 0.0
H1562 H 0.87832 0.54062 0.61818 0.0
H1563 H 0.98994 0.5343 0.61018 0.0
H1564 H 0.96751 0.54991 0.5596 0.0
H1565 H 0.92455 0.52018 0.62602 0.0
H1566 H 0.94628 0.5052 0.67615 0.0
H1567 H 0.91326 0.55158 0.61818 0.0
H1568 H 0.94374 0.51117 0.50976 0.0
H1569 H 0.96866 0.49847 0.46182 0.0
H1570 H 0.97701 0.5483 0.39258 0.0
H1571 H 0.95231 0.56135 0.44066 0.0
C1572 C 0.85249 0.55606 0.44738 0.0
C1573 C 0.85395 0.56761 0.40793 0.0
C1574 C 0.86731 0.55286 0.47773 0.0
C1575 C 0.88402 0.56126 0.46993 0.0
C1576 C 0.88551 0.57287 0.43069 0.0
C1577 C 0.87069 0.57601 0.40012 0.0
C1578 C 0.90011 0.55712 0.50102 0.0
C1579 C 0.91617 0.55129 0.47903 0.0
C1580 C 0.89931 0.55754 0.55198 0.0
C1581 C 0.8832 0.56451 0.57766 0.0
C1582 C 0.87696 0.58167 0.56855 0.0
C1583 C 0.8615 0.58805 0.59184 0.0
C1584 C 0.85213 0.57737 0.62423 0.0
C1585 C 0.85826 0.56031 0.6336 0.0
C1586 C 0.87382 0.55392 0.61078 0.0
C1587 C 0.9757 0.53123 0.61407 0.0
C1588 C 0.9701 0.51826 0.64705 0.0
C1589 C 0.96285 0.54008 0.58491 0.0
C1590 C 0.94416 0.53618 0.58841 0.0
C1591 C 0.93872 0.52359 0.62223 0.0
C1592 C 0.95137 0.51484 0.65085 0.0
C1593 C 0.92993 0.54465 0.55719 0.0
C1594 C 0.91412 0.55133 0.5792 0.0
C1595 C 0.93093 0.54489 0.50617 0.0
C1596 C 0.94643 0.53731 0.47946 0.0
C1597 C 0.9511 0.51948 0.48491 0.0
C1598 C 0.96513 0.51221 0.45756 0.0
C1599 C 0.97447 0.52259 0.42435 0.0
C1600 C 0.96983 0.54029 0.41849 0.0
C1601 C 0.95584 0.54764 0.44583 0.0
H1602 H 0.98526 0.51691 0.40301 0.0
H1603 H 0.84009 0.58228 0.642 0.0
loop_
_geom_bond_atom_site_label_1
_geom_bond_atom_site_label_2
_geom_bond_distance
_geom_bond_site_symmetry_2
_ccdc_geom_bond_type
C0 C1 1.264 . S
C0 C5 1.479 . S
C0 C10 1.465 . S
C1 C0 1.264 . S
C1 C3 1.339 . S
C1 H28 0.931 . S
C2 C3 1.395 . S
C2 C4 1.320 . S
C3 C1 1.339 . S
C3 C2 1.395 . S
C3 H29 0.929 . S
C4 C2 1.320 . S
C4 C5 1.405 . S
C4 H30 0.930 . S
C5 C0 1.479 . S
C5 C4 1.405 . S
C5 H31 0.931 . S
U6 O7 2.454 . S
U6 O8 2.458 . S
U6 C9 2.984 . S
U6 C10 2.847 . S
U6 C23 2.882 . S
U6 O24 2.441 . S
U6 O25 2.420 . S
U6 O26 2.455 . S
U6 O27 2.449 . S
O7 U6 2.454 . S
O7 C9 1.353 . S
O8 U6 2.458 . S
O8 C9 1.286 . S
C9 U6 2.984 . S
C9 O7 1.353 . S
C9 O8 1.286 . S
C9 C11 1.363 . S
C10 C0 1.465 . S
C10 U6 2.847 . S
C10 O24 1.249 . S
C10 O25 1.202 . S
C11 C9 1.363 . S
C11 C13 1.408 . S
C11 C16 1.342 . S
C12 C13 1.310 . S
C12 C15 1.461 . S
C12 H32 0.932 . S
C13 C11 1.408 . S
C13 C12 1.310 . S
C13 H33 0.930 . S
C14 C15 1.474 . S
C14 C16 1.285 . S
C14 H34 0.929 1_554 S
C15 C12 1.461 . S
C15 C14 1.474 . S
C16 C11 1.342 . S
C16 C14 1.285 . S
C16 H35 0.930 . S
C17 C20 1.424 . S
C17 C22 1.245 1_554 S
C17 C23 1.428 . S
C18 C21 1.260 . S
C18 C22 1.477 . S
C18 H36 0.932 . S
C19 C20 1.384 . S
C19 C21 1.479 1_554 S
C19 H37 0.929 . S
C20 C17 1.424 . S
C20 C19 1.384 . S
C20 H38 0.928 . S
C21 C18 1.260 . S
C21 C19 1.479 1_556 S
C22 C17 1.245 1_556 S
C22 C18 1.477 . S
C22 H39 0.932 . S
C23 U6 2.882 . S
C23 C17 1.428 . S
C23 O26 1.301 . S
C23 O27 1.282 . S
O24 U6 2.441 . S
O24 C10 1.249 . S
O25 U6 2.420 . S
O25 C10 1.202 . S
O26 U6 2.455 . S
O26 C23 1.301 . S
O27 U6 2.449 . S
O27 C23 1.282 . S
H28 C1 0.931 . S
H29 C3 0.929 . S
H30 C4 0.930 . S
H31 C5 0.931 . S
H32 C12 0.932 . S
H33 C13 0.930 . S
H34 C14 0.929 1_556 S
H35 C16 0.930 . S
H36 C18 0.932 . S
H37 C19 0.929 . S
H38 C20 0.928 . S
H39 C22 0.932 . S
C40 C41 1.263 1_655 S
C40 C45 1.479 . S
C40 C50 1.464 1_655 S
C41 C40 1.263 1_455 S
C41 C43 1.334 1_455 S
C41 H68 0.937 . S
C42 C43 1.395 . S
C42 C44 1.320 . S
C43 C41 1.334 1_655 S
C43 C42 1.395 . S
C43 H69 0.929 . S
C44 C42 1.320 . S
C44 C45 1.405 . S
C44 H70 0.930 . S
C45 C40 1.479 . S
C45 C44 1.405 . S
C45 H71 0.931 . S
U46 O47 2.454 1_455 S
U46 O48 2.458 1_455 S
U46 C49 2.984 1_455 S
U46 C50 2.847 . S
U46 C63 2.882 . S
U46 O64 2.444 . S
U46 O65 2.420 . S
U46 O66 2.455 . S
U46 O67 2.449 . S
O47 U46 2.454 1_655 S
O47 C49 1.353 . S
O48 U46 2.458 1_655 S
O48 C49 1.286 . S
C49 U46 2.984 1_655 S
C49 O47 1.353 . S
C49 O48 1.286 . S
C49 C51 1.363 . S
C50 C40 1.464 1_455 S
C50 U46 2.847 . S
C50 O64 1.257 . S
C50 O65 1.202 . S
C51 C49 1.363 . S
C51 C53 1.408 . S
C51 C56 1.342 . S
C52 C53 1.310 . S
C52 C55 1.461 . S
C52 H72 0.932 . S
C53 C51 1.408 . S
C53 C52 1.310 . S
C53 H73 0.930 . S
C54 C55 1.474 . S
C54 C56 1.285 . S
C54 H74 0.929 1_554 S
C55 C52 1.461 . S
C55 C54 1.474 . S
C56 C51 1.342 . S
C56 C54 1.285 . S
C56 H75 0.930 . S
C57 C60 1.424 1_455 S
C57 C62 1.239 1_454 S
C57 C63 1.428 . S
C58 C61 1.260 . S
C58 C62 1.484 . S
C58 H76 0.932 . S
C59 C60 1.384 1_556 S
C59 C61 1.479 . S
C59 H77 0.929 . S
C60 C57 1.424 1_655 S
C60 C59 1.384 1_554 S
C60 H78 0.928 . S
C61 C58 1.260 . S
C61 C59 1.479 . S
C62 C57 1.239 1_656 S
C62 C58 1.484 . S
C62 H79 0.935 . S
C63 U46 2.882 . S
C63 C57 1.428 . S
C63 O66 1.301 . S
C63 O67 1.282 . S
O64 U46 2.444 . S
O64 C50 1.257 . S
O65 U46 2.420 . S
O65 C50 1.202 . S
O66 U46 2.455 . S
O66 C63 1.301 . S
O67 U46 2.449 . S
O67 C63 1.282 . S
H68 C41 0.937 . S
H69 C43 0.929 . S
H70 C44 0.930 . S
H71 C45 0.931 . S
H72 C52 0.932 . S
H73 C53 0.930 . S
H74 C54 0.929 1_556 S
H75 C56 0.930 . S
H76 C58 0.932 . S
H77 C59 0.929 . S
H78 C60 0.928 . S
H79 C62 0.935 . S
C80 C81 1.264 . S
C80 C85 1.479 . S
C80 C90 1.465 . S
C81 C80 1.264 . S
C81 C83 1.339 . S
C81 H108 0.931 . S
C82 C83 1.395 . S
C82 C84 1.320 . S
C83 C81 1.339 . S
C83 C82 1.395 . S
C83 H109 0.929 . S
C84 C82 1.320 . S
C84 C85 1.405 . S
C84 H110 0.930 . S
C85 C80 1.479 . S
C85 C84 1.405 . S
C85 H111 0.931 . S
U86 O87 2.454 . S
U86 O88 2.458 . S
U86 C89 2.984 . S
U86 C90 2.847 . S
U86 C103 2.882 . S
U86 O104 2.441 . S
U86 O105 2.420 . S
U86 O106 2.455 . S
U86 O107 2.449 . S
O87 U86 2.454 . S
O87 C89 1.353 . S
O88 U86 2.458 . S
O88 C89 1.286 . S
C89 U86 2.984 . S
C89 O87 1.353 . S
C89 O88 1.286 . S
C89 C91 1.363 . S
C90 C80 1.465 . S
C90 U86 2.847 . S
C90 O104 1.249 . S
C90 O105 1.202 . S
C91 C89 1.363 . S
C91 C93 1.408 . S
C91 C96 1.342 . S
C92 C93 1.310 . S
C92 C95 1.461 . S
C92 H112 0.932 . S
C93 C91 1.408 . S
C93 C92 1.310 . S
C93 H113 0.930 . S
C94 C95 1.474 . S
C94 C96 1.285 . S
C94 H114 0.929 1_554 S
C95 C92 1.461 . S
C95 C94 1.474 . S
C96 C91 1.342 . S
C96 C94 1.285 . S
C96 H115 0.930 1_554 S
C97 C100 1.424 1_556 S
C97 C102 1.245 . S
C97 C103 1.428 1_556 S
C98 C101 1.260 . S
C98 C102 1.477 . S
C98 H116 0.932 . S
C99 C100 1.384 1_556 S
C99 C101 1.479 . S
C99 H117 0.929 . S
C100 C97 1.424 1_554 S
C100 C99 1.384 1_554 S
C100 H118 0.928 . S
C101 C98 1.260 . S
C101 C99 1.479 . S
C102 C97 1.245 . S
C102 C98 1.477 . S
C102 H119 0.932 . S
C103 U86 2.882 . S
C103 C97 1.428 1_554 S
C103 O106 1.301 . S
C103 O107 1.282 . S
O104 U86 2.441 . S
O104 C90 1.249 . S
O105 U86 2.420 . S
O105 C90 1.202 . S
O106 U86 2.455 . S
O106 C103 1.301 . S
O107 U86 2.449 . S
O107 C103 1.282 . S
H108 C81 0.931 . S
H109 C83 0.929 . S
H110 C84 0.930 . S
H111 C85 0.931 . S
H112 C92 0.932 . S
H113 C93 0.930 . S
H114 C94 0.929 1_556 S
H115 C96 0.930 1_556 S
H116 C98 0.932 . S
H117 C99 0.929 . S
H118 C100 0.928 . S
H119 C102 0.932 . S
C120 C121 1.264 . S
C120 C125 1.479 . S
C120 C130 1.465 . S
C121 C120 1.264 . S
C121 C123 1.339 . S
C121 H148 0.931 . S
C122 C123 1.395 . S
C122 C124 1.320 . S
C123 C121 1.339 . S
C123 C122 1.395 . S
C123 H149 0.929 . S
C124 C122 1.320 . S
C124 C125 1.405 . S
C124 H150 0.930 . S
C125 C120 1.479 . S
C125 C124 1.405 . S
C125 H151 0.931 . S
U126 O127 2.454 . S
U126 O128 2.458 . S
U126 C129 2.984 . S
U126 C130 2.847 . S
U126 C143 2.882 . S
U126 O144 2.441 . S
U126 O145 2.420 . S
U126 O146 2.455 . S
U126 O147 2.449 . S
O127 U126 2.454 . S
O127 C129 1.353 . S
O128 U126 2.458 . S
O128 C129 1.286 . S
C129 U126 2.984 . S
C129 O127 1.353 . S
C129 O128 1.286 . S
C129 C131 1.363 . S
C130 C120 1.465 . S
C130 U126 2.847 . S
C130 O144 1.249 . S
C130 O145 1.202 . S
C131 C129 1.363 . S
C131 C133 1.408 . S
C131 C136 1.342 . S
C132 C133 1.310 . S
C132 C135 1.461 . S
C132 H152 0.932 . S
C133 C131 1.408 . S
C133 C132 1.310 . S
C133 H153 0.930 . S
C134 C135 1.474 . S
C134 C136 1.285 . S
C134 H154 0.929 1_554 S
C135 C132 1.461 . S
C135 C134 1.474 . S
C136 C131 1.342 . S
C136 C134 1.285 . S
C136 H155 0.930 . S
C137 C140 1.424 . S
C137 C142 1.245 1_554 S
C137 C143 1.428 . S
C138 C141 1.260 . S
C138 C142 1.477 . S
C138 H156 0.932 . S
C139 C140 1.379 1_556 S
C139 C141 1.486 . S
C139 H157 0.927 1_556 S
C140 C137 1.424 . S
C140 C139 1.379 1_554 S
C140 H158 0.928 . S
C141 C138 1.260 . S
C141 C139 1.486 . S
C142 C137 1.245 1_556 S
C142 C138 1.477 . S
C142 H159 0.932 . S
C143 U126 2.882 . S
C143 C137 1.428 . S
C143 O146 1.301 . S
C143 O147 1.282 . S
O144 U126 2.441 . S
O144 C130 1.249 . S
O145 U126 2.420 . S
O145 C130 1.202 . S
O146 U126 2.455 . S
O146 C143 1.301 . S
O147 U126 2.449 . S
O147 C143 1.282 . S
H148 C121 0.931 . S
H149 C123 0.929 . S
H150 C124 0.930 . S
H151 C125 0.931 . S
H152 C132 0.932 . S
H153 C133 0.930 . S
H154 C134 0.929 1_556 S
H155 C136 0.930 . S
H156 C138 0.932 . S
H157 C139 0.927 1_554 S
H158 C140 0.928 . S
H159 C142 0.932 . S
C160 C161 1.264 . S
C160 C165 1.479 . S
C160 C170 1.465 . S
C161 C160 1.264 . S
C161 C163 1.339 . S
C161 H188 0.931 . S
C162 C163 1.395 . S
C162 C164 1.320 . S
C163 C161 1.339 . S
C163 C162 1.395 . S
C163 H189 0.929 . S
C164 C162 1.320 . S
C164 C165 1.405 . S
C164 H190 0.930 . S
C165 C160 1.479 . S
C165 C164 1.405 . S
C165 H191 0.931 . S
U166 O167 2.454 . S
U166 O168 2.458 . S
U166 C169 2.984 . S
U166 C170 2.847 . S
U166 C183 2.882 . S
U166 O184 2.441 . S
U166 O185 2.420 . S
U166 O186 2.455 . S
U166 O187 2.449 . S
O167 U166 2.454 . S
O167 C169 1.353 . S
O168 U166 2.458 . S
O168 C169 1.286 . S
C169 U166 2.984 . S
C169 O167 1.353 . S
C169 O168 1.286 . S
C169 C171 1.363 . S
C170 C160 1.465 . S
C170 U166 2.847 . S
C170 O184 1.249 . S
C170 O185 1.202 . S
C171 C169 1.363 . S
C171 C173 1.408 . S
C171 C176 1.342 . S
C172 C173 1.310 . S
C172 C175 1.461 . S
C172 H192 0.932 . S
C173 C171 1.408 . S
C173 C172 1.310 . S
C173 H193 0.930 . S
C174 C175 1.474 . S
C174 C176 1.285 . S
C174 H194 0.929 . S
C175 C172 1.461 . S
C175 C174 1.474 . S
C176 C171 1.342 . S
C176 C174 1.285 . S
C176 H195 0.930 . S
C177 C180 1.424 . S
C177 C182 1.245 . S
C177 C183 1.428 . S
C178 C181 1.260 . S
C178 C182 1.477 . S
C178 H196 0.932 . S
C179 C180 1.384 . S
C179 C181 1.479 . S
C179 H197 0.929 . S
C180 C177 1.424 . S
C180 C179 1.384 . S
C180 H198 0.928 . S
C181 C178 1.260 . S
C181 C179 1.479 . S
C182 C177 1.245 . S
C182 C178 1.477 . S
C182 H199 0.932 . S
C183 U166 2.882 . S
C183 C177 1.428 . S
C183 O186 1.301 . S
C183 O187 1.282 . S
O184 U166 2.441 . S
O184 C170 1.249 . S
O185 U166 2.420 . S
O185 C170 1.202 . S
O186 U166 2.455 . S
O186 C183 1.301 . S
O187 U166 2.449 . S
O187 C183 1.282 . S
H188 C161 0.931 . S
H189 C163 0.929 . S
H190 C164 0.930 . S
H191 C165 0.931 . S
H192 C172 0.932 . S
H193 C173 0.930 . S
H194 C174 0.929 . S
H195 C176 0.930 . S
H196 C178 0.932 . S
H197 C179 0.929 . S
H198 C180 0.928 . S
H199 C182 0.932 . S
C200 C201 1.264 . S
C200 C205 1.479 . S
C200 C210 1.465 . S
C201 C200 1.264 . S
C201 C203 1.339 . S
C201 H228 0.931 . S
C202 C203 1.395 . S
C202 C204 1.320 . S
C203 C201 1.339 . S
C203 C202 1.395 . S
C203 H229 0.929 . S
C204 C202 1.320 . S
C204 C205 1.405 . S
C204 H230 0.930 . S
C205 C200 1.479 . S
C205 C204 1.405 . S
C205 H231 0.931 . S
U206 O207 2.454 . S
U206 O208 2.458 . S
U206 C209 2.984 . S
U206 C210 2.847 . S
U206 C223 2.882 . S
U206 O224 2.441 . S
U206 O225 2.420 . S
U206 O226 2.455 . S
U206 O227 2.449 . S
O207 U206 2.454 . S
O207 C209 1.353 . S
O208 U206 2.458 . S
O208 C209 1.286 . S
C209 U206 2.984 . S
C209 O207 1.353 . S
C209 O208 1.286 . S
C209 C211 1.363 . S
C210 C200 1.465 . S
C210 U206 2.847 . S
C210 O224 1.249 . S
C210 O225 1.202 . S
C211 C209 1.363 . S
C211 C213 1.408 . S
C211 C216 1.342 . S
C212 C213 1.310 . S
C212 C215 1.461 . S
C212 H232 0.932 . S
C213 C211 1.408 . S
C213 C212 1.310 . S
C213 H233 0.930 . S
C214 C215 1.474 . S
C214 C216 1.285 . S
C214 H234 0.929 . S
C215 C212 1.461 . S
C215 C214 1.474 . S
C216 C211 1.342 . S
C216 C214 1.285 . S
C216 H235 0.930 . S
C217 C220 1.424 . S
C217 C222 1.245 . S
C217 C223 1.428 . S
C218 C221 1.260 . S
C218 C222 1.477 . S
C218 H236 0.932 . S
C219 C220 1.384 . S
C219 C221 1.479 . S
C219 H237 0.929 . S
C220 C217 1.424 . S
C220 C219 1.384 . S
C220 H238 0.928 . S
C221 C218 1.260 . S
C221 C219 1.479 . S
C222 C217 1.245 . S
C222 C218 1.477 . S
C222 H239 0.932 . S
C223 U206 2.882 . S
C223 C217 1.428 . S
C223 O226 1.301 . S
C223 O227 1.282 . S
O224 U206 2.441 . S
O224 C210 1.249 . S
O225 U206 2.420 . S
O225 C210 1.202 . S
O226 U206 2.455 . S
O226 C223 1.301 . S
O227 U206 2.449 . S
O227 C223 1.282 . S
H228 C201 0.931 . S
H229 C203 0.929 . S
H230 C204 0.930 . S
H231 C205 0.931 . S
H232 C212 0.932 . S
H233 C213 0.930 . S
H234 C214 0.929 . S
H235 C216 0.930 . S
H236 C218 0.932 . S
H237 C219 0.929 . S
H238 C220 0.928 . S
H239 C222 0.932 . S
C240 C241 1.264 . S
C240 C245 1.479 . S
C240 C250 1.465 . S
C241 C240 1.264 . S
C241 C243 1.339 . S
C241 H268 0.931 . S
C242 C243 1.395 . S
C242 C244 1.320 . S
C243 C241 1.339 . S
C243 C242 1.395 . S
C243 H269 0.929 . S
C244 C242 1.320 . S
C244 C245 1.405 . S
C244 H270 0.930 . S
C245 C240 1.479 . S
C245 C244 1.405 . S
C245 H271 0.931 . S
U246 O247 2.454 . S
U246 O248 2.458 . S
U246 C249 2.984 . S
U246 C250 2.847 . S
U246 C263 2.882 . S
U246 O264 2.441 . S
U246 O265 2.420 . S
U246 O266 2.455 . S
U246 O267 2.449 . S
O247 U246 2.454 . S
O247 C249 1.353 . S
O248 U246 2.458 . S
O248 C249 1.286 . S
C249 U246 2.984 . S
C249 O247 1.353 . S
C249 O248 1.286 . S
C249 C251 1.363 . S
C250 C240 1.465 . S
C250 U246 2.847 . S
C250 O264 1.249 . S
C250 O265 1.202 . S
C251 C249 1.363 . S
C251 C253 1.408 . S
C251 C256 1.342 . S
C252 C253 1.310 . S
C252 C255 1.461 . S
C252 H272 0.932 . S
C253 C251 1.408 . S
C253 C252 1.310 . S
C253 H273 0.930 . S
C254 C255 1.474 . S
C254 C256 1.285 . S
C254 H274 0.929 . S
C255 C252 1.461 . S
C255 C254 1.474 . S
C256 C251 1.342 . S
C256 C254 1.285 . S
C256 H275 0.930 . S
C257 C260 1.424 . S
C257 C262 1.245 . S
C257 C263 1.428 . S
C258 C261 1.260 . S
C258 C262 1.477 . S
C258 H276 0.932 . S
C259 C260 1.384 . S
C259 C261 1.479 . S
C259 H277 0.929 . S
C260 C257 1.424 . S
C260 C259 1.384 . S
C260 H278 0.928 . S
C261 C258 1.260 . S
C261 C259 1.479 . S
C262 C257 1.245 . S
C262 C258 1.477 . S
C262 H279 0.932 . S
C263 U246 2.882 . S
C263 C257 1.428 . S
C263 O266 1.301 . S
C263 O267 1.282 . S
O264 U246 2.441 . S
O264 C250 1.249 . S
O265 U246 2.420 . S
O265 C250 1.202 . S
O266 U246 2.455 . S
O266 C263 1.301 . S
O267 U246 2.449 . S
O267 C263 1.282 . S
H268 C241 0.931 . S
H269 C243 0.929 . S
H270 C244 0.930 . S
H271 C245 0.931 . S
H272 C252 0.932 . S
H273 C253 0.930 . S
H274 C254 0.929 . S
H275 C256 0.930 . S
H276 C258 0.932 . S
H277 C259 0.929 . S
H278 C260 0.928 . S
H279 C262 0.932 . S
C280 C281 1.264 . S
C280 C285 1.479 . S
C280 C290 1.465 . S
C281 C280 1.264 . S
C281 C283 1.339 . S
C281 H308 0.931 . S
C282 C283 1.395 . S
C282 C284 1.320 . S
C283 C281 1.339 . S
C283 C282 1.395 . S
C283 H309 0.929 . S
C284 C282 1.320 . S
C284 C285 1.405 . S
C284 H310 0.930 . S
C285 C280 1.479 . S
C285 C284 1.405 . S
C285 H311 0.931 . S
U286 O287 2.454 . S
U286 O288 2.458 . S
U286 C289 2.984 . S
U286 C290 2.847 . S
U286 C303 2.882 . S
U286 O304 2.441 . S
U286 O305 2.420 . S
U286 O306 2.455 . S
U286 O307 2.449 . S
O287 U286 2.454 . S
O287 C289 1.353 . S
O288 U286 2.458 . S
O288 C289 1.286 . S
C289 U286 2.984 . S
C289 O287 1.353 . S
C289 O288 1.286 . S
C289 C291 1.363 . S
C290 C280 1.465 . S
C290 U286 2.847 . S
C290 O304 1.249 . S
C290 O305 1.202 . S
C291 C289 1.363 . S
C291 C293 1.408 . S
C291 C296 1.342 . S
C292 C293 1.310 . S
C292 C295 1.461 . S
C292 H312 0.932 . S
C293 C291 1.408 . S
C293 C292 1.310 . S
C293 H313 0.930 . S
C294 C295 1.474 . S
C294 C296 1.285 . S
C294 H314 0.929 . S
C295 C292 1.461 . S
C295 C294 1.474 . S
C296 C291 1.342 . S
C296 C294 1.285 . S
C296 H315 0.930 . S
C297 C300 1.424 . S
C297 C302 1.245 . S
C297 C303 1.428 . S
C298 C301 1.260 . S
C298 C302 1.477 . S
C298 H316 0.932 . S
C299 C300 1.384 . S
C299 C301 1.479 . S
C299 H317 0.929 . S
C300 C297 1.424 . S
C300 C299 1.384 . S
C300 H318 0.928 . S
C301 C298 1.260 . S
C301 C299 1.479 . S
C302 C297 1.245 . S
C302 C298 1.477 . S
C302 H319 0.932 . S
C303 U286 2.882 . S
C303 C297 1.428 . S
C303 O306 1.301 . S
C303 O307 1.282 . S
O304 U286 2.441 . S
O304 C290 1.249 . S
O305 U286 2.420 . S
O305 C290 1.202 . S
O306 U286 2.455 . S
O306 C303 1.301 . S
O307 U286 2.449 . S
O307 C303 1.282 . S
H308 C281 0.931 . S
H309 C283 0.929 . S
H310 C284 0.930 . S
H311 C285 0.931 . S
H312 C292 0.932 . S
H313 C293 0.930 . S
H314 C294 0.929 . S
H315 C296 0.930 . S
H316 C298 0.932 . S
H317 C299 0.929 . S
H318 C300 0.928 . S
H319 C302 0.932 . S
O320 Mn321 2.163 . S
O320 C334 1.244 . S
Mn321 O320 2.163 . S
Mn321 O324 2.160 1_545 S
Mn321 O325 2.221 . S
Mn321 O327 2.163 1_545 S
Mn321 O329 2.160 . S
Mn321 O339 2.221 1_455 S
O322 Mn323 2.087 . S
O322 C334 1.256 1_655 S
Mn323 O322 2.087 . S
Mn323 O330 2.089 . S
Mn323 O339 2.290 . S
Mn323 O340 2.251 . S
O324 Mn321 2.160 1_565 S
O324 C335 1.239 . S
O325 Mn321 2.221 . S
O325 Mn326 2.290 1_545 S
O325 C336 1.278 . S
Mn326 O325 2.290 1_565 S
Mn326 O328 2.089 . S
Mn326 O331 2.251 . S
Mn326 O332 2.087 . S
O327 Mn321 2.163 1_565 S
O327 C337 1.244 . S
O328 Mn326 2.089 . S
O328 C335 1.256 . S
O329 Mn321 2.160 . S
O329 C338 1.239 . S
O330 Mn323 2.089 . S
O330 C338 1.256 1_655 S
O331 Mn326 2.251 . S
O331 C336 1.241 1_565 S
O332 Mn326 2.087 . S
O332 C337 1.256 . S
C333 O339 1.278 . S
C333 O340 1.241 . S
C334 O320 1.244 . S
C334 O322 1.256 1_455 S
C335 O324 1.239 . S
C335 O328 1.256 . S
C336 O325 1.278 . S
C336 O331 1.241 1_545 S
C337 O327 1.244 . S
C337 O332 1.256 . S
C338 O329 1.239 . S
C338 O330 1.256 1_455 S
O339 Mn321 2.221 1_655 S
O339 Mn323 2.290 . S
O339 C333 1.278 . S
O340 Mn323 2.251 . S
O340 C333 1.241 . S
O341 Mn342 2.163 . S
O341 C355 1.244 . S
Mn342 O341 2.163 . S
Mn342 O345 2.160 . S
Mn342 O346 2.221 1_545 S
Mn342 O348 2.163 . S
Mn342 O350 2.160 1_545 S
Mn342 O360 2.221 . S
O343 Mn344 2.087 . S
O343 C355 1.256 . S
Mn344 O343 2.087 . S
Mn344 O351 2.089 . S
Mn344 O360 2.290 . S
Mn344 O361 2.251 . S
O345 Mn342 2.160 . S
O345 C356 1.239 . S
O346 Mn342 2.221 1_565 S
O346 Mn347 2.290 . S
O346 C357 1.278 . S
Mn347 O346 2.290 . S
Mn347 O349 2.089 1_565 S
Mn347 O352 2.251 . S
Mn347 O353 2.087 1_565 S
O348 Mn342 2.163 . S
O348 C358 1.244 . S
O349 Mn347 2.089 1_545 S
O349 C356 1.256 . S
O350 Mn342 2.160 1_565 S
O350 C359 1.239 . S
O351 Mn344 2.089 . S
O351 C359 1.256 1_545 S
O352 Mn347 2.251 . S
O352 C357 1.241 . S
O353 Mn347 2.087 1_545 S
O353 C358 1.256 . S
C354 O360 1.278 . S
C354 O361 1.241 . S
C355 O341 1.244 . S
C355 O343 1.256 . S
C356 O345 1.239 . S
C356 O349 1.256 . S
C357 O346 1.278 . S
C357 O352 1.241 . S
C358 O348 1.244 . S
C358 O353 1.256 . S
C359 O350 1.239 . S
C359 O351 1.256 1_565 S
O360 Mn342 2.221 . S
O360 Mn344 2.290 . S
O360 C354 1.278 . S
O361 Mn344 2.251 . S
O361 C354 1.241 . S
O362 Mn363 2.163 . S
O362 C376 1.244 . S
Mn363 O362 2.163 . S
Mn363 O366 2.160 . S
Mn363 O367 2.221 . S
Mn363 O369 2.163 . S
Mn363 O371 2.160 . S
Mn363 O381 2.221 . S
O364 Mn365 2.087 . S
O364 C376 1.256 . S
Mn365 O364 2.087 . S
Mn365 O372 2.089 . S
Mn365 O381 2.290 . S
Mn365 O382 2.251 . S
O366 Mn363 2.160 . S
O366 C377 1.239 . S
O367 Mn363 2.221 . S
O367 Mn368 2.290 . S
O367 C378 1.278 . S
Mn368 O367 2.290 . S
Mn368 O370 2.089 . S
Mn368 O373 2.251 . S
Mn368 O374 2.087 . S
O369 Mn363 2.163 . S
O369 C379 1.244 . S
O370 Mn368 2.089 . S
O370 C377 1.256 . S
O371 Mn363 2.160 . S
O371 C380 1.239 . S
O372 Mn365 2.089 . S
O372 C380 1.256 . S
O373 Mn368 2.251 . S
O373 C378 1.241 . S
O374 Mn368 2.087 . S
O374 C379 1.256 . S
C375 O381 1.278 . S
C375 O382 1.241 . S
C376 O362 1.244 . S
C376 O364 1.256 . S
C377 O366 1.239 . S
C377 O370 1.256 . S
C378 O367 1.278 . S
C378 O373 1.241 . S
C379 O369 1.244 . S
C379 O374 1.256 . S
C380 O371 1.239 . S
C380 O372 1.256 . S
O381 Mn363 2.221 . S
O381 Mn365 2.290 . S
O381 C375 1.278 . S
O382 Mn365 2.251 . S
O382 C375 1.241 . S
O383 Mn384 2.163 . S
O383 C397 1.244 . S
Mn384 O383 2.163 . S
Mn384 O387 2.160 1_455 S
Mn384 O388 2.221 . S
Mn384 O390 2.163 1_455 S
Mn384 O392 2.160 . S
Mn384 O402 2.221 . S
O385 Mn386 2.087 . S
O385 C397 1.256 . S
Mn386 O385 2.087 . S
Mn386 O393 2.089 . S
Mn386 O402 2.290 . S
Mn386 O403 2.251 . S
O387 Mn384 2.160 1_655 S
O387 C398 1.239 . S
O388 Mn384 2.221 . S
O388 Mn389 2.290 1_455 S
O388 C399 1.283 . S
Mn389 O388 2.290 1_655 S
Mn389 O391 2.089 . S
Mn389 O394 2.251 . S
Mn389 O395 2.087 . S
O390 Mn384 2.163 1_655 S
O390 C400 1.244 . S
O391 Mn389 2.089 . S
O391 C398 1.256 . S
O392 Mn384 2.160 . S
O392 C401 1.239 . S
O393 Mn386 2.089 . S
O393 C401 1.256 . S
O394 Mn389 2.251 . S
O394 C399 1.198 1_655 S
O395 Mn389 2.087 . S
O395 C400 1.256 . S
C396 O402 1.278 . S
C396 O403 1.241 . S
C397 O383 1.244 . S
C397 O385 1.256 . S
C398 O387 1.239 . S
C398 O391 1.256 . S
C399 O388 1.283 . S
C399 O394 1.198 1_455 S
C400 O390 1.244 . S
C400 O395 1.256 . S
C401 O392 1.239 . S
C401 O393 1.256 . S
O402 Mn384 2.221 . S
O402 Mn386 2.290 . S
O402 C396 1.278 . S
O403 Mn386 2.251 . S
O403 C396 1.241 . S
H404 C422 0.951 . S
H405 C424 0.951 . S
H406 C426 0.950 . S
H407 C427 0.950 . S
H408 C429 0.950 . S
H409 C432 0.950 . S
H410 C433 0.950 . S
H411 C435 0.950 . S
H412 C436 0.950 . S
H413 C437 0.951 . S
H414 C439 0.951 . S
H415 C441 0.950 . S
H416 C442 0.950 . S
H417 C444 0.950 . S
H418 C447 0.950 . S
H419 C448 0.952 . S
H420 C450 0.950 . S
H421 C451 0.950 . S
C422 H404 0.951 . S
C422 C423 1.366 . S
C422 C424 1.388 . S
C423 C422 1.366 . S
C423 C427 1.385 . S
C424 H405 0.951 . S
C424 C422 1.388 . S
C424 C425 1.366 . S
C425 C424 1.366 . S
C425 C426 1.414 . S
C425 C428 1.499 . S
C426 H406 0.950 . S
C426 C425 1.414 . S
C426 C427 1.374 . S
C427 H407 0.950 . S
C427 C423 1.385 . S
C427 C426 1.374 . S
C428 C425 1.499 . S
C428 C429 1.373 . S
C428 C430 1.389 . S
C429 H408 0.950 . S
C429 C428 1.373 . S
C429 C445 1.377 . S
C430 C428 1.389 . S
C430 C431 1.524 . S
C430 C444 1.377 . S
C431 C430 1.524 . S
C431 C432 1.397 . S
C431 C436 1.363 . S
C432 H409 0.950 . S
C432 C431 1.397 . S
C432 C433 1.334 . S
C433 H410 0.950 . S
C433 C432 1.334 . S
C433 C434 1.287 . S
C434 C433 1.287 . S
C434 C435 1.524 . S
C434 H453 0.913 . S
C435 H411 0.950 . S
C435 C434 1.524 . S
C435 C436 1.415 . S
C436 H412 0.950 . S
C436 C431 1.363 . S
C436 C435 1.415 . S
C437 H413 0.951 . S
C437 C438 1.366 . S
C437 C439 1.388 . S
C438 C437 1.366 . S
C438 C442 1.385 . S
C439 H414 0.951 . S
C439 C437 1.388 . S
C439 C440 1.366 . S
C440 C439 1.366 . S
C440 C441 1.414 . S
C440 C443 1.499 . S
C441 H415 0.950 . S
C441 C440 1.414 . S
C441 C442 1.374 . S
C442 H416 0.950 . S
C442 C438 1.385 . S
C442 C441 1.374 . S
C443 C440 1.499 . S
C443 C444 1.373 . S
C443 C445 1.389 . S
C444 H417 0.950 . S
C444 C430 1.377 . S
C444 C443 1.373 . S
C445 C429 1.377 . S
C445 C443 1.389 . S
C445 C446 1.524 . S
C446 C445 1.524 . S
C446 C447 1.397 . S
C446 C451 1.363 . S
C447 H418 0.950 . S
C447 C446 1.397 . S
C447 C448 1.334 . S
C448 H419 0.952 . S
C448 C447 1.334 . S
C448 C449 1.287 1_545 S
C449 C448 1.287 1_565 S
C449 C450 1.524 . S
C449 H452 0.999 . S
C450 H420 0.950 . S
C450 C449 1.524 . S
C450 C451 1.415 1_565 S
C451 H421 0.950 . S
C451 C446 1.363 . S
C451 C450 1.415 1_545 S
H452 C449 0.999 . S
H453 C434 0.913 . S
H454 C472 0.951 . S
H455 C474 0.951 . S
H456 C476 0.950 . S
H457 C477 0.950 . S
H458 C479 0.950 . S
H459 C482 0.950 . S
H460 C483 0.950 . S
H461 C485 0.950 . S
H462 C486 0.950 . S
H463 C487 0.951 . S
H464 C489 0.951 . S
H465 C491 0.950 . S
H466 C492 0.950 . S
H467 C494 0.950 . S
H468 C497 0.950 . S
H469 C498 0.950 . S
H470 C500 0.950 . S
H471 C501 0.950 . S
C472 H454 0.951 . S
C472 C473 1.366 . S
C472 C474 1.388 . S
C473 C472 1.366 . S
C473 C477 1.385 . S
C474 H455 0.951 . S
C474 C472 1.388 . S
C474 C475 1.366 . S
C475 C474 1.366 . S
C475 C476 1.414 . S
C475 C478 1.499 . S
C476 H456 0.950 . S
C476 C475 1.414 . S
C476 C477 1.374 . S
C477 H457 0.950 . S
C477 C473 1.385 . S
C477 C476 1.374 . S
C478 C475 1.499 . S
C478 C479 1.373 . S
C478 C480 1.389 . S
C479 H458 0.950 . S
C479 C478 1.373 . S
C479 C495 1.377 . S
C480 C478 1.389 . S
C480 C481 1.524 . S
C480 C494 1.377 . S
C481 C480 1.524 . S
C481 C482 1.397 . S
C481 C486 1.363 . S
C482 H459 0.950 . S
C482 C481 1.397 . S
C482 C483 1.334 . S
C483 H460 0.950 . S
C483 C482 1.334 . S
C483 C484 1.287 . S
C484 C483 1.287 . S
C484 C485 1.524 . S
C484 H503 0.913 . S
C485 H461 0.950 . S
C485 C484 1.524 . S
C485 C486 1.415 . S
C486 H462 0.950 . S
C486 C481 1.363 . S
C486 C485 1.415 . S
C487 H463 0.951 . S
C487 C488 1.366 . S
C487 C489 1.388 . S
C488 C487 1.366 . S
C488 C492 1.385 . S
C489 H464 0.951 . S
C489 C487 1.388 . S
C489 C490 1.366 . S
C490 C489 1.366 . S
C490 C491 1.414 . S
C490 C493 1.499 . S
C491 H465 0.950 . S
C491 C490 1.414 . S
C491 C492 1.374 . S
C492 H466 0.950 . S
C492 C488 1.385 . S
C492 C491 1.374 . S
C493 C490 1.499 . S
C493 C494 1.373 . S
C493 C495 1.389 . S
C494 H467 0.950 . S
C494 C480 1.377 . S
C494 C493 1.373 . S
C495 C479 1.377 . S
C495 C493 1.389 . S
C495 C496 1.524 . S
C496 C495 1.524 . S
C496 C497 1.397 . S
C496 C501 1.363 . S
C497 H468 0.950 . S
C497 C496 1.397 . S
C497 C498 1.334 . S
C498 H469 0.950 . S
C498 C497 1.334 . S
C498 C499 1.287 . S
C499 C498 1.287 . S
C499 C500 1.524 . S
C499 H502 0.999 . S
C500 H470 0.950 . S
C500 C499 1.524 . S
C500 C501 1.415 . S
C501 H471 0.950 . S
C501 C496 1.363 . S
C501 C500 1.415 . S
H502 C499 0.999 . S
H503 C484 0.913 . S
H504 C522 0.951 . S
H505 C524 0.951 . S
H506 C526 0.950 . S
H507 C527 0.950 . S
H508 C529 0.950 . S
H509 C532 0.950 . S
H510 C533 0.950 . S
H511 C535 0.950 . S
H512 C536 0.950 . S
H513 C537 0.951 . S
H514 C539 0.951 . S
H515 C541 0.950 . S
H516 C542 0.950 . S
H517 C544 0.950 . S
H518 C547 0.950 . S
H519 C548 0.950 . S
H520 C550 0.950 . S
H521 C551 0.950 . S
C522 H504 0.951 . S
C522 C523 1.366 . S
C522 C524 1.388 . S
C523 C522 1.366 . S
C523 C527 1.385 . S
C524 H505 0.951 . S
C524 C522 1.388 . S
C524 C525 1.366 . S
C525 C524 1.366 . S
C525 C526 1.414 . S
C525 C528 1.499 . S
C526 H506 0.950 . S
C526 C525 1.414 . S
C526 C527 1.374 . S
C527 H507 0.950 . S
C527 C523 1.385 . S
C527 C526 1.374 . S
C528 C525 1.499 . S
C528 C529 1.373 . S
C528 C530 1.389 . S
C529 H508 0.950 . S
C529 C528 1.373 . S
C529 C545 1.377 . S
C530 C528 1.389 . S
C530 C531 1.524 . S
C530 C544 1.377 . S
C531 C530 1.524 . S
C531 C532 1.397 . S
C531 C536 1.363 . S
C532 H509 0.950 . S
C532 C531 1.397 . S
C532 C533 1.334 . S
C533 H510 0.950 . S
C533 C532 1.334 . S
C533 C534 1.287 . S
C534 C533 1.287 . S
C534 C535 1.524 . S
C534 H553 0.913 . S
C535 H511 0.950 . S
C535 C534 1.524 . S
C535 C536 1.415 . S
C536 H512 0.950 . S
C536 C531 1.363 . S
C536 C535 1.415 . S
C537 H513 0.951 . S
C537 C538 1.366 . S
C537 C539 1.388 . S
C538 C537 1.366 . S
C538 C542 1.385 . S
C539 H514 0.951 . S
C539 C537 1.388 . S
C539 C540 1.366 . S
C540 C539 1.366 . S
C540 C541 1.414 . S
C540 C543 1.499 . S
C541 H515 0.950 . S
C541 C540 1.414 . S
C541 C542 1.374 . S
C542 H516 0.950 . S
C542 C538 1.385 . S
C542 C541 1.374 . S
C543 C540 1.499 . S
C543 C544 1.373 . S
C543 C545 1.389 . S
C544 H517 0.950 . S
C544 C530 1.377 . S
C544 C543 1.373 . S
C545 C529 1.377 . S
C545 C543 1.389 . S
C545 C546 1.524 . S
C546 C545 1.524 . S
C546 C547 1.397 . S
C546 C551 1.363 . S
C547 H518 0.950 . S
C547 C546 1.397 . S
C547 C548 1.334 . S
C548 H519 0.950 . S
C548 C547 1.334 . S
C548 C549 1.287 . S
C549 C548 1.287 . S
C549 C550 1.524 . S
C549 H552 0.999 . S
C550 H520 0.950 . S
C550 C549 1.524 . S
C550 C551 1.415 . S
C551 H521 0.950 . S
C551 C546 1.363 . S
C551 C550 1.415 . S
H552 C549 0.999 . S
H553 C534 0.913 . S
H554 C572 0.951 . S
H555 C574 0.951 . S
H556 C576 0.950 . S
H557 C577 0.950 . S
H558 C579 0.950 1_655 S
H559 C582 0.950 . S
H560 C583 0.950 . S
H561 C585 0.950 . S
H562 C586 0.950 . S
H563 C587 0.951 . S
H564 C589 0.917 1_655 S
H565 C591 0.950 . S
H566 C592 0.950 . S
H567 C594 0.950 . S
H568 C597 0.950 . S
H569 C598 0.950 . S
H570 C600 0.950 . S
H571 C601 0.950 . S
C572 H554 0.951 . S
C572 C573 1.366 . S
C572 C574 1.388 . S
C573 C572 1.366 . S
C573 C577 1.385 . S
C574 H555 0.951 . S
C574 C572 1.388 . S
C574 C575 1.366 . S
C575 C574 1.366 . S
C575 C576 1.414 . S
C575 C578 1.499 . S
C576 H556 0.950 . S
C576 C575 1.414 . S
C576 C577 1.374 . S
C577 H557 0.950 . S
C577 C573 1.385 . S
C577 C576 1.374 . S
C578 C575 1.499 . S
C578 C579 1.373 . S
C578 C580 1.389 . S
C579 H558 0.950 1_455 S
C579 C578 1.373 . S
C579 C595 1.377 . S
C580 C578 1.389 . S
C580 C581 1.524 . S
C580 C594 1.377 . S
C581 C580 1.524 . S
C581 C582 1.397 . S
C581 C586 1.363 . S
C582 H559 0.950 . S
C582 C581 1.397 . S
C582 C583 1.334 . S
C583 H560 0.950 . S
C583 C582 1.334 . S
C583 C584 1.287 . S
C584 C583 1.287 . S
C584 C585 1.524 . S
C584 H603 0.913 . S
C585 H561 0.950 . S
C585 C584 1.524 . S
C585 C586 1.415 . S
C586 H562 0.950 . S
C586 C581 1.363 . S
C586 C585 1.415 . S
C587 H563 0.951 . S
C587 C588 1.366 1_655 S
C587 C589 1.383 1_655 S
C588 C587 1.366 1_455 S
C588 C592 1.385 . S
C589 H564 0.917 1_455 S
C589 C587 1.383 1_455 S
C589 C590 1.406 . S
C590 C589 1.406 . S
C590 C591 1.414 . S
C590 C593 1.499 . S
C591 H565 0.950 . S
C591 C590 1.414 . S
C591 C592 1.374 . S
C592 H566 0.950 . S
C592 C588 1.385 . S
C592 C591 1.374 . S
C593 C590 1.499 . S
C593 C594 1.373 . S
C593 C595 1.389 . S
C594 H567 0.950 . S
C594 C580 1.377 . S
C594 C593 1.373 . S
C595 C579 1.377 . S
C595 C593 1.389 . S
C595 C596 1.524 1_455 S
C596 C595 1.524 1_655 S
C596 C597 1.397 . S
C596 C601 1.363 . S
C597 H568 0.950 . S
C597 C596 1.397 . S
C597 C598 1.334 . S
C598 H569 0.950 . S
C598 C597 1.334 . S
C598 C599 1.287 . S
C599 C598 1.287 . S
C599 C600 1.524 . S
C599 H602 0.999 . S
C600 H570 0.950 . S
C600 C599 1.524 . S
C600 C601 1.415 . S
C601 H571 0.950 . S
C601 C596 1.363 . S
C601 C600 1.415 . S
H602 C599 0.999 . S
H603 C584 0.913 . S
H604 C622 0.951 . S
H605 C624 0.951 1_554 S
H606 C626 0.950 . S
H607 C627 0.950 . S
H608 C629 0.950 . S
H609 C632 0.950 . S
H610 C633 0.950 . S
H611 C635 0.950 . S
H612 C636 0.947 1_565 S
H613 C637 0.951 . S
H614 C639 0.951 . S
H615 C641 0.950 . S
H616 C642 0.950 1_545 S
H617 C644 0.950 . S
H618 C647 0.950 . S
H619 C648 0.950 . S
H620 C650 0.950 . S
H621 C651 0.950 . S
C622 H604 0.951 . S
C622 C623 1.366 . S
C622 C624 1.388 1_554 S
C623 C622 1.366 . S
C623 C627 1.385 1_554 S
C624 H605 0.951 1_556 S
C624 C622 1.388 1_556 S
C624 C625 1.366 . S
C625 C624 1.366 . S
C625 C626 1.414 . S
C625 C628 1.499 . S
C626 H606 0.950 . S
C626 C625 1.414 . S
C626 C627 1.374 . S
C627 H607 0.950 . S
C627 C623 1.385 1_556 S
C627 C626 1.374 . S
C628 C625 1.499 . S
C628 C629 1.373 . S
C628 C630 1.389 . S
C629 H608 0.950 . S
C629 C628 1.373 . S
C629 C645 1.377 . S
C630 C628 1.389 . S
C630 C631 1.524 . S
C630 C644 1.377 . S
C631 C630 1.524 . S
C631 C632 1.397 . S
C631 C636 1.335 1_565 S
C632 H609 0.950 . S
C632 C631 1.397 . S
C632 C633 1.334 1_565 S
C633 H610 0.950 . S
C633 C632 1.334 1_545 S
C633 C634 1.287 . S
C634 C633 1.287 . S
C634 C635 1.524 1_556 S
C634 H653 0.913 1_556 S
C635 H611 0.950 . S
C635 C634 1.524 1_554 S
C635 C636 1.447 1_554 S
C636 H612 0.947 1_545 S
C636 C631 1.335 1_545 S
C636 C635 1.447 1_556 S
C637 H613 0.951 . S
C637 C638 1.366 . S
C637 C639 1.388 . S
C638 C637 1.366 . S
C638 C642 1.385 . S
C639 H614 0.951 . S
C639 C637 1.388 . S
C639 C640 1.366 . S
C640 C639 1.366 . S
C640 C641 1.414 . S
C640 C643 1.499 . S
C641 H615 0.950 . S
C641 C640 1.414 . S
C641 C642 1.374 . S
C642 H616 0.950 1_565 S
C642 C638 1.385 . S
C642 C641 1.374 . S
C643 C640 1.499 . S
C643 C644 1.373 . S
C643 C645 1.389 . S
C644 H617 0.950 . S
C644 C630 1.377 . S
C644 C643 1.373 . S
C645 C629 1.377 . S
C645 C643 1.389 . S
C645 C646 1.524 . S
C646 C645 1.524 . S
C646 C647 1.397 . S
C646 C651 1.363 . S
C647 H618 0.950 . S
C647 C646 1.397 . S
C647 C648 1.334 . S
C648 H619 0.950 . S
C648 C647 1.334 . S
C648 C649 1.287 . S
C649 C648 1.287 . S
C649 C650 1.524 . S
C649 H652 0.999 . S
C650 H620 0.950 . S
C650 C649 1.524 . S
C650 C651 1.415 . S
C651 H621 0.950 . S
C651 C646 1.363 . S
C651 C650 1.415 . S
H652 C649 0.999 . S
H653 C634 0.913 1_554 S
H654 C672 0.951 . S
H655 C674 0.951 . S
H656 C676 0.950 . S
H657 C677 0.950 . S
H658 C679 0.950 . S
H659 C682 0.950 1_556 S
H660 C683 0.950 . S
H661 C685 0.950 . S
H662 C686 0.950 . S
H663 C687 0.951 . S
H664 C689 0.951 . S
H665 C691 0.950 . S
H666 C692 0.950 . S
H667 C694 0.950 . S
H668 C697 0.950 . S
H669 C698 0.950 . S
H670 C700 0.950 . S
H671 C701 0.950 . S
C672 H654 0.951 . S
C672 C673 1.366 . S
C672 C674 1.388 . S
C673 C672 1.366 . S
C673 C677 1.385 1_554 S
C674 H655 0.951 . S
C674 C672 1.388 . S
C674 C675 1.366 1_554 S
C675 C674 1.366 1_556 S
C675 C676 1.414 . S
C675 C678 1.499 . S
C676 H656 0.950 . S
C676 C675 1.414 . S
C676 C677 1.374 . S
C677 H657 0.950 . S
C677 C673 1.385 1_556 S
C677 C676 1.374 . S
C678 C675 1.499 . S
C678 C679 1.373 . S
C678 C680 1.389 . S
C679 H658 0.950 . S
C679 C678 1.373 . S
C679 C695 1.377 . S
C680 C678 1.389 . S
C680 C681 1.524 1_556 S
C680 C694 1.377 . S
C681 C680 1.524 1_554 S
C681 C682 1.397 . S
C681 C686 1.363 . S
C682 H659 0.950 1_554 S
C682 C681 1.397 . S
C682 C683 1.334 . S
C683 H660 0.950 . S
C683 C682 1.334 . S
C683 C684 1.287 . S
C684 C683 1.287 . S
C684 C685 1.524 . S
C684 H703 0.913 . S
C685 H661 0.950 . S
C685 C684 1.524 . S
C685 C686 1.415 . S
C686 H662 0.950 . S
C686 C681 1.363 . S
C686 C685 1.415 . S
C687 H663 0.951 . S
C687 C688 1.366 . S
C687 C689 1.388 . S
C688 C687 1.366 . S
C688 C692 1.385 . S
C689 H664 0.951 . S
C689 C687 1.388 . S
C689 C690 1.366 . S
C690 C689 1.366 . S
C690 C691 1.414 . S
C690 C693 1.499 . S
C691 H665 0.950 . S
C691 C690 1.414 . S
C691 C692 1.374 . S
C692 H666 0.950 . S
C692 C688 1.385 . S
C692 C691 1.374 . S
C693 C690 1.499 . S
C693 C694 1.373 . S
C693 C695 1.389 . S
C694 H667 0.950 . S
C694 C680 1.377 . S
C694 C693 1.373 . S
C695 C679 1.377 . S
C695 C693 1.389 . S
C695 C696 1.524 . S
C696 C695 1.524 . S
C696 C697 1.397 . S
C696 C701 1.363 . S
C697 H668 0.950 . S
C697 C696 1.397 . S
C697 C698 1.334 . S
C698 H669 0.950 . S
C698 C697 1.334 . S
C698 C699 1.287 . S
C699 C698 1.287 . S
C699 C700 1.524 . S
C699 H702 0.999 . S
C700 H670 0.950 . S
C700 C699 1.524 . S
C700 C701 1.415 . S
C701 H671 0.950 . S
C701 C696 1.363 . S
C701 C700 1.415 . S
H702 C699 0.999 . S
H703 C684 0.913 . S
H704 C722 0.951 . S
H705 C724 0.951 . S
H706 C726 0.950 . S
H707 C727 0.950 . S
H708 C729 0.950 . S
H709 C732 0.950 . S
H710 C733 0.950 . S
H711 C735 0.950 . S
H712 C736 0.950 . S
H713 C737 0.951 . S
H714 C739 0.951 . S
H715 C741 0.950 . S
H716 C742 0.950 . S
H717 C744 0.950 . S
H718 C747 0.950 . S
H719 C748 0.950 . S
H720 C750 0.950 . S
H721 C751 0.950 . S
C722 H704 0.951 . S
C722 C723 1.366 . S
C722 C724 1.388 . S
C723 C722 1.366 . S
C723 C727 1.385 1_554 S
C724 H705 0.951 . S
C724 C722 1.388 . S
C724 C725 1.366 1_554 S
C725 C724 1.366 1_556 S
C725 C726 1.414 . S
C725 C728 1.499 . S
C726 H706 0.950 . S
C726 C725 1.414 . S
C726 C727 1.374 . S
C727 H707 0.950 . S
C727 C723 1.385 1_556 S
C727 C726 1.374 . S
C728 C725 1.499 . S
C728 C729 1.373 . S
C728 C730 1.389 . S
C729 H708 0.950 . S
C729 C728 1.373 . S
C729 C745 1.377 . S
C730 C728 1.389 . S
C730 C731 1.524 . S
C730 C744 1.377 . S
C731 C730 1.524 . S
C731 C732 1.397 . S
C731 C736 1.363 1_556 S
C732 H709 0.950 . S
C732 C731 1.397 . S
C732 C733 1.334 1_556 S
C733 H710 0.950 . S
C733 C732 1.334 1_554 S
C733 C734 1.287 . S
C734 C733 1.287 . S
C734 C735 1.524 . S
C734 H753 0.913 . S
C735 H711 0.950 . S
C735 C734 1.524 . S
C735 C736 1.415 . S
C736 H712 0.950 . S
C736 C731 1.363 1_554 S
C736 C735 1.415 . S
C737 H713 0.951 . S
C737 C738 1.366 . S
C737 C739 1.388 . S
C738 C737 1.366 . S
C738 C742 1.385 . S
C739 H714 0.951 . S
C739 C737 1.388 . S
C739 C740 1.366 . S
C740 C739 1.366 . S
C740 C741 1.414 . S
C740 C743 1.499 . S
C741 H715 0.950 . S
C741 C740 1.414 . S
C741 C742 1.374 . S
C742 H716 0.950 . S
C742 C738 1.385 . S
C742 C741 1.374 . S
C743 C740 1.499 . S
C743 C744 1.373 . S
C743 C745 1.389 . S
C744 H717 0.950 . S
C744 C730 1.377 . S
C744 C743 1.373 . S
C745 C729 1.377 . S
C745 C743 1.389 . S
C745 C746 1.524 . S
C746 C745 1.524 . S
C746 C747 1.397 . S
C746 C751 1.363 . S
C747 H718 0.950 . S
C747 C746 1.397 . S
C747 C748 1.334 . S
C748 H719 0.950 . S
C748 C747 1.334 . S
C748 C749 1.287 . S
C749 C748 1.287 . S
C749 C750 1.524 . S
C749 H752 0.999 . S
C750 H720 0.950 . S
C750 C749 1.524 . S
C750 C751 1.415 . S
C751 H721 0.950 . S
C751 C746 1.363 . S
C751 C750 1.415 . S
H752 C749 0.999 . S
H753 C734 0.913 . S
H754 C772 0.951 . S
H755 C774 0.951 . S
H756 C776 0.950 . S
H757 C777 0.952 . S
H758 C779 0.950 . S
H759 C782 0.950 . S
H760 C783 0.950 1_554 S
H761 C785 0.950 . S
H762 C786 0.950 . S
H763 C787 0.951 . S
H764 C789 0.951 . S
H765 C791 0.950 1_655 S
H766 C792 0.952 . S
H767 C794 0.950 . S
H768 C797 0.950 . S
H769 C798 0.950 . S
H770 C800 0.950 . S
H771 C801 0.950 . S
C772 H754 0.951 . S
C772 C773 1.366 1_556 S
C772 C774 1.388 . S
C773 C772 1.366 1_554 S
C773 C777 1.381 1_655 S
C774 H755 0.951 . S
C774 C772 1.388 . S
C774 C775 1.366 . S
C775 C774 1.366 . S
C775 C776 1.414 1_656 S
C775 C778 1.508 . S
C776 H756 0.950 . S
C776 C775 1.414 1_454 S
C776 C777 1.375 . S
C777 H757 0.952 . S
C777 C773 1.381 1_455 S
C777 C776 1.375 . S
C778 C775 1.508 . S
C778 C779 1.317 1_655 S
C778 C780 1.436 . S
C779 H758 0.950 . S
C779 C778 1.317 1_455 S
C779 C795 1.377 . S
C780 C778 1.436 . S
C780 C781 1.524 . S
C780 C794 1.377 . S
C781 C780 1.524 . S
C781 C782 1.397 . S
C781 C786 1.363 . S
C782 H759 0.950 . S
C782 C781 1.397 . S
C782 C783 1.334 . S
C783 H760 0.950 1_556 S
C783 C782 1.334 . S
C783 C784 1.287 . S
C784 C783 1.287 . S
C784 C785 1.524 . S
C784 H803 0.913 . S
C785 H761 0.950 . S
C785 C784 1.524 . S
C785 C786 1.415 . S
C786 H762 0.950 . S
C786 C781 1.363 . S
C786 C785 1.415 . S
C787 H763 0.951 . S
C787 C788 1.366 . S
C787 C789 1.388 . S
C788 C787 1.366 . S
C788 C792 1.385 . S
C789 H764 0.951 . S
C789 C787 1.388 . S
C789 C790 1.366 . S
C790 C789 1.366 . S
C790 C791 1.414 . S
C790 C793 1.499 . S
C791 H765 0.950 1_455 S
C791 C790 1.414 . S
C791 C792 1.374 . S
C792 H766 0.952 . S
C792 C788 1.385 . S
C792 C791 1.374 . S
C793 C790 1.499 . S
C793 C794 1.373 1_455 S
C793 C795 1.389 . S
C794 H767 0.950 . S
C794 C780 1.377 . S
C794 C793 1.373 1_655 S
C795 C779 1.377 . S
C795 C793 1.389 . S
C795 C796 1.524 . S
C796 C795 1.524 . S
C796 C797 1.397 . S
C796 C801 1.363 . S
C797 H768 0.950 . S
C797 C796 1.397 . S
C797 C798 1.334 . S
C798 H769 0.950 . S
C798 C797 1.334 . S
C798 C799 1.287 . S
C799 C798 1.287 . S
C799 C800 1.524 . S
C799 H802 0.999 . S
C800 H770 0.950 . S
C800 C799 1.524 . S
C800 C801 1.415 . S
C801 H771 0.950 . S
C801 C796 1.363 . S
C801 C800 1.415 . S
H802 C799 0.999 . S
H803 C784 0.913 . S
H804 C822 0.951 . S
H805 C824 0.907 1_655 S
H806 C826 0.950 . S
H807 C827 0.950 . S
H808 C829 0.950 . S
H809 C832 0.950 . S
H810 C833 0.950 . S
H811 C835 0.950 . S
H812 C836 0.950 . S
H813 C837 0.951 . S
H814 C839 0.951 . S
H815 C841 0.950 . S
H816 C842 0.950 . S
H817 C844 0.950 1_655 S
H818 C847 0.950 . S
H819 C848 0.950 . S
H820 C850 0.950 . S
H821 C851 0.950 . S
C822 H804 0.951 . S
C822 C823 1.366 . S
C822 C824 1.388 . S
C823 C822 1.366 . S
C823 C827 1.385 . S
C824 H805 0.907 1_455 S
C824 C822 1.388 . S
C824 C825 1.366 . S
C825 C824 1.366 . S
C825 C826 1.414 . S
C825 C828 1.499 . S
C826 H806 0.950 . S
C826 C825 1.414 . S
C826 C827 1.374 . S
C827 H807 0.950 . S
C827 C823 1.385 . S
C827 C826 1.374 . S
C828 C825 1.499 . S
C828 C829 1.373 . S
C828 C830 1.389 . S
C829 H808 0.950 . S
C829 C828 1.373 . S
C829 C845 1.377 . S
C830 C828 1.389 . S
C830 C831 1.547 . S
C830 C844 1.377 . S
C831 C830 1.547 . S
C831 C832 1.432 . S
C831 C836 1.310 1_455 S
C832 H809 0.950 . S
C832 C831 1.432 . S
C832 C833 1.334 . S
C833 H810 0.950 . S
C833 C832 1.334 . S
C833 C834 1.287 1_455 S
C834 C833 1.287 1_655 S
C834 C835 1.524 . S
C834 H853 0.913 . S
C835 H811 0.950 . S
C835 C834 1.524 . S
C835 C836 1.415 . S
C836 H812 0.950 . S
C836 C831 1.310 1_655 S
C836 C835 1.415 . S
C837 H813 0.951 . S
C837 C838 1.402 . S
C837 C839 1.388 . S
C838 C837 1.402 . S
C838 C842 1.356 1_455 S
C839 H814 0.951 . S
C839 C837 1.388 . S
C839 C840 1.366 . S
C840 C839 1.366 . S
C840 C841 1.414 1_455 S
C840 C843 1.499 . S
C841 H815 0.950 . S
C841 C840 1.414 1_655 S
C841 C842 1.374 . S
C842 H816 0.950 . S
C842 C838 1.356 1_655 S
C842 C841 1.374 . S
C843 C840 1.499 . S
C843 C844 1.373 . S
C843 C845 1.389 . S
C844 H817 0.950 1_455 S
C844 C830 1.377 . S
C844 C843 1.373 . S
C845 C829 1.377 . S
C845 C843 1.389 . S
C845 C846 1.524 . S
C846 C845 1.524 . S
C846 C847 1.397 . S
C846 C851 1.363 . S
C847 H818 0.950 . S
C847 C846 1.397 . S
C847 C848 1.334 . S
C848 H819 0.950 . S
C848 C847 1.334 . S
C848 C849 1.287 . S
C849 C848 1.287 . S
C849 C850 1.524 . S
C849 H852 0.999 . S
C850 H820 0.950 . S
C850 C849 1.524 . S
C850 C851 1.415 . S
C851 H821 0.950 . S
C851 C846 1.363 . S
C851 C850 1.415 . S
H852 C849 0.999 . S
H853 C834 0.913 . S
H854 C872 0.951 . S
H855 C874 0.951 . S
H856 C876 0.950 . S
H857 C877 0.950 . S
H858 C879 0.950 . S
H859 C882 0.950 . S
H860 C883 0.950 . S
H861 C885 0.950 . S
H862 C886 0.950 . S
H863 C887 0.951 1_565 S
H864 C889 0.951 . S
H865 C891 0.950 . S
H866 C892 0.950 . S
H867 C894 0.950 . S
H868 C897 0.950 . S
H869 C898 0.950 . S
H870 C900 0.950 . S
H871 C901 0.950 . S
C872 H854 0.951 . S
C872 C873 1.366 . S
C872 C874 1.388 . S
C873 C872 1.366 . S
C873 C877 1.385 . S
C874 H855 0.951 . S
C874 C872 1.388 . S
C874 C875 1.366 . S
C875 C874 1.366 . S
C875 C876 1.414 . S
C875 C878 1.499 . S
C876 H856 0.950 . S
C876 C875 1.414 . S
C876 C877 1.374 . S
C877 H857 0.950 . S
C877 C873 1.385 . S
C877 C876 1.374 . S
C878 C875 1.499 . S
C878 C879 1.373 . S
C878 C880 1.389 . S
C879 H858 0.950 . S
C879 C878 1.373 . S
C879 C895 1.377 . S
C880 C878 1.389 . S
C880 C881 1.524 . S
C880 C894 1.377 . S
C881 C880 1.524 . S
C881 C882 1.397 . S
C881 C886 1.363 . S
C882 H859 0.950 . S
C882 C881 1.397 . S
C882 C883 1.334 . S
C883 H860 0.950 . S
C883 C882 1.334 . S
C883 C884 1.287 . S
C884 C883 1.287 . S
C884 C885 1.524 . S
C884 H903 0.913 . S
C885 H861 0.950 . S
C885 C884 1.524 . S
C885 C886 1.415 . S
C886 H862 0.950 . S
C886 C881 1.363 . S
C886 C885 1.415 . S
C887 H863 0.951 1_545 S
C887 C888 1.366 . S
C887 C889 1.388 . S
C888 C887 1.366 . S
C888 C892 1.385 . S
C889 H864 0.951 . S
C889 C887 1.388 . S
C889 C890 1.366 . S
C890 C889 1.366 . S
C890 C891 1.414 . S
C890 C893 1.499 . S
C891 H865 0.950 . S
C891 C890 1.414 . S
C891 C892 1.374 . S
C892 H866 0.950 . S
C892 C888 1.385 . S
C892 C891 1.374 . S
C893 C890 1.499 . S
C893 C894 1.373 . S
C893 C895 1.389 . S
C894 H867 0.950 . S
C894 C880 1.377 . S
C894 C893 1.373 . S
C895 C879 1.377 . S
C895 C893 1.389 . S
C895 C896 1.524 . S
C896 C895 1.524 . S
C896 C897 1.397 . S
C896 C901 1.363 . S
C897 H868 0.950 . S
C897 C896 1.397 . S
C897 C898 1.334 . S
C898 H869 0.950 . S
C898 C897 1.334 . S
C898 C899 1.287 . S
C899 C898 1.287 . S
C899 C900 1.524 . S
C899 H902 0.999 . S
C900 H870 0.950 . S
C900 C899 1.524 . S
C900 C901 1.415 . S
C901 H871 0.950 . S
C901 C896 1.363 . S
C901 C900 1.415 . S
H902 C899 0.999 . S
H903 C884 0.913 . S
H904 C922 0.951 . S
H905 C924 0.951 . S
H906 C926 0.950 . S
H907 C927 0.950 . S
H908 C929 0.950 . S
H909 C932 0.950 . S
H910 C933 0.950 . S
H911 C935 0.950 . S
H912 C936 0.950 . S
H913 C937 0.951 . S
H914 C939 0.951 . S
H915 C941 0.950 . S
H916 C942 0.950 . S
H917 C944 0.950 . S
H918 C947 0.950 . S
H919 C948 0.950 . S
H920 C950 0.950 . S
H921 C951 0.950 . S
C922 H904 0.951 . S
C922 C923 1.366 . S
C922 C924 1.388 . S
C923 C922 1.366 . S
C923 C927 1.385 . S
C924 H905 0.951 . S
C924 C922 1.388 . S
C924 C925 1.366 . S
C925 C924 1.366 . S
C925 C926 1.414 . S
C925 C928 1.499 . S
C926 H906 0.950 . S
C926 C925 1.414 . S
C926 C927 1.374 . S
C927 H907 0.950 . S
C927 C923 1.385 . S
C927 C926 1.374 . S
C928 C925 1.499 . S
C928 C929 1.373 . S
C928 C930 1.389 . S
C929 H908 0.950 . S
C929 C928 1.373 . S
C929 C945 1.377 . S
C930 C928 1.389 . S
C930 C931 1.524 . S
C930 C944 1.377 . S
C931 C930 1.524 . S
C931 C932 1.397 . S
C931 C936 1.363 . S
C932 H909 0.950 . S
C932 C931 1.397 . S
C932 C933 1.334 . S
C933 H910 0.950 . S
C933 C932 1.334 . S
C933 C934 1.287 . S
C934 C933 1.287 . S
C934 C935 1.524 . S
C934 H953 0.913 . S
C935 H911 0.950 . S
C935 C934 1.524 . S
C935 C936 1.415 . S
C936 H912 0.950 . S
C936 C931 1.363 . S
C936 C935 1.415 . S
C937 H913 0.951 . S
C937 C938 1.366 . S
C937 C939 1.388 . S
C938 C937 1.366 . S
C938 C942 1.385 . S
C939 H914 0.951 . S
C939 C937 1.388 . S
C939 C940 1.366 . S
C940 C939 1.366 . S
C940 C941 1.414 . S
C940 C943 1.499 . S
C941 H915 0.950 . S
C941 C940 1.414 . S
C941 C942 1.374 . S
C942 H916 0.950 . S
C942 C938 1.385 . S
C942 C941 1.374 . S
C943 C940 1.499 . S
C943 C944 1.373 . S
C943 C945 1.389 . S
C944 H917 0.950 . S
C944 C930 1.377 . S
C944 C943 1.373 . S
C945 C929 1.377 . S
C945 C943 1.389 . S
C945 C946 1.524 . S
C946 C945 1.524 . S
C946 C947 1.397 . S
C946 C951 1.363 . S
C947 H918 0.950 . S
C947 C946 1.397 . S
C947 C948 1.334 . S
C948 H919 0.950 . S
C948 C947 1.334 . S
C948 C949 1.287 . S
C949 C948 1.287 . S
C949 C950 1.524 . S
C949 H952 0.999 . S
C950 H920 0.950 . S
C950 C949 1.524 . S
C950 C951 1.415 . S
C951 H921 0.950 . S
C951 C946 1.363 . S
C951 C950 1.415 . S
H952 C949 0.999 . S
H953 C934 0.913 . S
H954 C972 0.951 . S
H955 C974 0.951 . S
H956 C976 0.950 . S
H957 C977 0.950 . S
H958 C979 0.950 . S
H959 C982 0.950 . S
H960 C983 0.950 . S
H961 C985 0.950 . S
H962 C986 0.950 . S
H963 C987 0.951 . S
H964 C989 0.951 . S
H965 C991 0.950 . S
H966 C992 0.950 . S
H967 C994 0.950 . S
H968 C997 0.950 . S
H969 C998 0.950 . S
H970 C1000 0.950 . S
H971 C1001 0.950 . S
C972 H954 0.951 . S
C972 C973 1.366 . S
C972 C974 1.388 . S
C973 C972 1.366 . S
C973 C977 1.385 . S
C974 H955 0.951 . S
C974 C972 1.388 . S
C974 C975 1.366 . S
C975 C974 1.366 . S
C975 C976 1.414 . S
C975 C978 1.499 . S
C976 H956 0.950 . S
C976 C975 1.414 . S
C976 C977 1.374 . S
C977 H957 0.950 . S
C977 C973 1.385 . S
C977 C976 1.374 . S
C978 C975 1.499 . S
C978 C979 1.373 . S
C978 C980 1.389 . S
C979 H958 0.950 . S
C979 C978 1.373 . S
C979 C995 1.377 . S
C980 C978 1.389 . S
C980 C981 1.524 . S
C980 C994 1.377 . S
C981 C980 1.524 . S
C981 C982 1.397 . S
C981 C986 1.363 . S
C982 H959 0.950 . S
C982 C981 1.397 . S
C982 C983 1.334 . S
C983 H960 0.950 . S
C983 C982 1.334 . S
C983 C984 1.287 . S
C984 C983 1.287 . S
C984 C985 1.524 . S
C984 H1003 0.913 . S
C985 H961 0.950 . S
C985 C984 1.524 . S
C985 C986 1.415 . S
C986 H962 0.950 . S
C986 C981 1.363 . S
C986 C985 1.415 . S
C987 H963 0.951 . S
C987 C988 1.366 . S
C987 C989 1.388 . S
C988 C987 1.366 . S
C988 C992 1.385 . S
C989 H964 0.951 . S
C989 C987 1.388 . S
C989 C990 1.366 . S
C990 C989 1.366 . S
C990 C991 1.414 . S
C990 C993 1.499 . S
C991 H965 0.950 . S
C991 C990 1.414 . S
C991 C992 1.374 . S
C992 H966 0.950 . S
C992 C988 1.385 . S
C992 C991 1.374 . S
C993 C990 1.499 . S
C993 C994 1.373 . S
C993 C995 1.389 . S
C994 H967 0.950 . S
C994 C980 1.377 . S
C994 C993 1.373 . S
C995 C979 1.377 . S
C995 C993 1.389 . S
C995 C996 1.524 . S
C996 C995 1.524 . S
C996 C997 1.397 . S
C996 C1001 1.363 . S
C997 H968 0.950 . S
C997 C996 1.397 . S
C997 C998 1.334 . S
C998 H969 0.950 . S
C998 C997 1.334 . S
C998 C999 1.287 . S
C999 C998 1.287 . S
C999 C1000 1.524 . S
C999 H1002 0.999 . S
C1000 H970 0.950 . S
C1000 C999 1.524 . S
C1000 C1001 1.415 . S
C1001 H971 0.950 . S
C1001 C996 1.363 . S
C1001 C1000 1.415 . S
H1002 C999 0.999 . S
H1003 C984 0.913 . S
H1004 C1022 0.951 . S
H1005 C1024 0.951 . S
H1006 C1026 0.950 . S
H1007 C1027 0.950 . S
H1008 C1029 0.950 . S
H1009 C1032 0.950 . S
H1010 C1033 0.950 . S
H1011 C1035 0.950 . S
H1012 C1036 0.950 . S
H1013 C1037 0.951 . S
H1014 C1039 0.951 . S
H1015 C1041 0.925 1_655 S
H1016 C1042 0.950 1_655 S
H1017 C1044 0.950 . S
H1018 C1047 0.950 . S
H1019 C1048 0.950 . S
H1020 C1050 0.950 1_554 S
H1021 C1051 0.950 . S
C1022 H1004 0.951 . S
C1022 C1023 1.366 . S
C1022 C1024 1.388 . S
C1023 C1022 1.366 . S
C1023 C1027 1.385 1_655 S
C1024 H1005 0.951 . S
C1024 C1022 1.388 . S
C1024 C1025 1.366 . S
C1025 C1024 1.366 . S
C1025 C1026 1.414 1_655 S
C1025 C1028 1.499 1_655 S
C1026 H1006 0.950 . S
C1026 C1025 1.414 1_455 S
C1026 C1027 1.374 . S
C1027 H1007 0.950 . S
C1027 C1023 1.385 1_455 S
C1027 C1026 1.374 . S
C1028 C1025 1.499 1_455 S
C1028 C1029 1.373 . S
C1028 C1030 1.389 . S
C1029 H1008 0.950 . S
C1029 C1028 1.373 . S
C1029 C1045 1.377 . S
C1030 C1028 1.389 . S
C1030 C1031 1.525 . S
C1030 C1044 1.377 . S
C1031 C1030 1.525 . S
C1031 C1032 1.405 . S
C1031 C1036 1.354 1_455 S
C1032 H1009 0.950 . S
C1032 C1031 1.405 . S
C1032 C1033 1.334 . S
C1033 H1010 0.950 . S
C1033 C1032 1.334 . S
C1033 C1034 1.287 . S
C1034 C1033 1.287 . S
C1034 C1035 1.524 1_455 S
C1034 H1053 0.913 . S
C1035 H1011 0.950 . S
C1035 C1034 1.524 1_655 S
C1035 C1036 1.415 . S
C1036 H1012 0.950 . S
C1036 C1031 1.354 1_655 S
C1036 C1035 1.415 . S
C1037 H1013 0.951 . S
C1037 C1038 1.366 . S
C1037 C1039 1.388 . S
C1038 C1037 1.366 . S
C1038 C1042 1.385 . S
C1039 H1014 0.951 . S
C1039 C1037 1.388 . S
C1039 C1040 1.366 . S
C1040 C1039 1.366 . S
C1040 C1041 1.432 . S
C1040 C1043 1.499 . S
C1041 H1015 0.925 1_455 S
C1041 C1040 1.432 . S
C1041 C1042 1.381 . S
C1042 H1016 0.950 1_455 S
C1042 C1038 1.385 . S
C1042 C1041 1.381 . S
C1043 C1040 1.499 . S
C1043 C1044 1.373 . S
C1043 C1045 1.389 . S
C1044 H1017 0.950 . S
C1044 C1030 1.377 . S
C1044 C1043 1.373 . S
C1045 C1029 1.377 . S
C1045 C1043 1.389 . S
C1045 C1046 1.524 . S
C1046 C1045 1.524 . S
C1046 C1047 1.397 1_455 S
C1046 C1051 1.363 . S
C1047 H1018 0.950 . S
C1047 C1046 1.397 1_655 S
C1047 C1048 1.334 . S
C1048 H1019 0.950 . S
C1048 C1047 1.334 . S
C1048 C1049 1.287 1_655 S
C1049 C1048 1.287 1_455 S
C1049 C1050 1.524 . S
C1049 H1052 0.999 1_556 S
C1050 H1020 0.950 1_556 S
C1050 C1049 1.524 . S
C1050 C1051 1.415 . S
C1051 H1021 0.950 . S
C1051 C1046 1.363 . S
C1051 C1050 1.415 . S
H1052 C1049 0.999 1_554 S
H1053 C1034 0.913 . S
H1054 C1072 0.951 . S
H1055 C1074 0.951 . S
H1056 C1076 0.950 . S
H1057 C1077 0.950 . S
H1058 C1079 0.950 . S
H1059 C1082 0.950 . S
H1060 C1083 0.950 . S
H1061 C1085 0.950 . S
H1062 C1086 0.950 . S
H1063 C1087 0.959 . S
H1064 C1089 0.951 . S
H1065 C1091 0.950 . S
H1066 C1092 0.950 . S
H1067 C1094 0.950 . S
H1068 C1097 0.950 . S
H1069 C1098 0.950 . S
H1070 C1100 0.950 . S
H1071 C1101 0.950 . S
C1072 H1054 0.951 . S
C1072 C1073 1.366 . S
C1072 C1074 1.388 . S
C1073 C1072 1.366 . S
C1073 C1077 1.385 . S
C1074 H1055 0.951 . S
C1074 C1072 1.388 . S
C1074 C1075 1.366 . S
C1075 C1074 1.366 . S
C1075 C1076 1.414 . S
C1075 C1078 1.499 . S
C1076 H1056 0.950 . S
C1076 C1075 1.414 . S
C1076 C1077 1.374 . S
C1077 H1057 0.950 . S
C1077 C1073 1.385 . S
C1077 C1076 1.374 . S
C1078 C1075 1.499 . S
C1078 C1079 1.373 . S
C1078 C1080 1.389 . S
C1079 H1058 0.950 . S
C1079 C1078 1.373 . S
C1079 C1095 1.377 . S
C1080 C1078 1.389 . S
C1080 C1081 1.524 . S
C1080 C1094 1.377 . S
C1081 C1080 1.524 . S
C1081 C1082 1.397 . S
C1081 C1086 1.363 . S
C1082 H1059 0.950 . S
C1082 C1081 1.397 . S
C1082 C1083 1.334 . S
C1083 H1060 0.950 . S
C1083 C1082 1.334 . S
C1083 C1084 1.287 1_565 S
C1084 C1083 1.287 1_545 S
C1084 C1085 1.524 . S
C1084 H1103 0.913 . S
C1085 H1061 0.950 . S
C1085 C1084 1.524 . S
C1085 C1086 1.415 1_545 S
C1086 H1062 0.950 . S
C1086 C1081 1.363 . S
C1086 C1085 1.415 1_565 S
C1087 H1063 0.959 . S
C1087 C1088 1.389 . S
C1087 C1089 1.360 1_545 S
C1088 C1087 1.389 . S
C1088 C1092 1.385 . S
C1089 H1064 0.951 . S
C1089 C1087 1.360 1_565 S
C1089 C1090 1.366 . S
C1090 C1089 1.366 . S
C1090 C1091 1.414 . S
C1090 C1093 1.499 . S
C1091 H1065 0.950 . S
C1091 C1090 1.414 . S
C1091 C1092 1.374 1_565 S
C1092 H1066 0.950 . S
C1092 C1088 1.385 . S
C1092 C1091 1.374 1_545 S
C1093 C1090 1.499 . S
C1093 C1094 1.373 . S
C1093 C1095 1.389 . S
C1094 H1067 0.950 . S
C1094 C1080 1.377 . S
C1094 C1093 1.373 . S
C1095 C1079 1.377 . S
C1095 C1093 1.389 . S
C1095 C1096 1.524 . S
C1096 C1095 1.524 . S
C1096 C1097 1.397 . S
C1096 C1101 1.363 . S
C1097 H1068 0.950 . S
C1097 C1096 1.397 . S
C1097 C1098 1.334 . S
C1098 H1069 0.950 . S
C1098 C1097 1.334 . S
C1098 C1099 1.287 . S
C1099 C1098 1.287 . S
C1099 C1100 1.524 . S
C1099 H1102 0.999 . S
C1100 H1070 0.950 . S
C1100 C1099 1.524 . S
C1100 C1101 1.415 . S
C1101 H1071 0.950 . S
C1101 C1096 1.363 . S
C1101 C1100 1.415 . S
H1102 C1099 0.999 . S
H1103 C1084 0.913 . S
H1104 C1122 0.951 . S
H1105 C1124 0.951 . S
H1106 C1126 0.950 . S
H1107 C1127 0.950 . S
H1108 C1129 0.950 . S
H1109 C1132 0.950 . S
H1110 C1133 0.950 1_554 S
H1111 C1135 0.950 . S
H1112 C1136 0.950 . S
H1113 C1137 0.951 . S
H1114 C1139 0.951 . S
H1115 C1141 0.950 . S
H1116 C1142 0.950 . S
H1117 C1144 0.950 . S
H1118 C1147 0.950 . S
H1119 C1148 0.950 . S
H1120 C1150 0.950 . S
H1121 C1151 0.950 . S
C1122 H1104 0.951 . S
C1122 C1123 1.366 . S
C1122 C1124 1.388 . S
C1123 C1122 1.366 . S
C1123 C1127 1.385 . S
C1124 H1105 0.951 . S
C1124 C1122 1.388 . S
C1124 C1125 1.366 . S
C1125 C1124 1.366 . S
C1125 C1126 1.414 . S
C1125 C1128 1.499 . S
C1126 H1106 0.950 . S
C1126 C1125 1.414 . S
C1126 C1127 1.374 . S
C1127 H1107 0.950 . S
C1127 C1123 1.385 . S
C1127 C1126 1.374 . S
C1128 C1125 1.499 . S
C1128 C1129 1.373 . S
C1128 C1130 1.389 . S
C1129 H1108 0.950 . S
C1129 C1128 1.373 . S
C1129 C1145 1.377 . S
C1130 C1128 1.389 . S
C1130 C1131 1.524 . S
C1130 C1144 1.377 . S
C1131 C1130 1.524 . S
C1131 C1132 1.397 . S
C1131 C1136 1.363 . S
C1132 H1109 0.950 . S
C1132 C1131 1.397 . S
C1132 C1133 1.334 . S
C1133 H1110 0.950 1_556 S
C1133 C1132 1.334 . S
C1133 C1134 1.287 . S
C1134 C1133 1.287 . S
C1134 C1135 1.524 . S
C1134 H1153 0.926 . S
C1135 H1111 0.950 . S
C1135 C1134 1.524 . S
C1135 C1136 1.415 . S
C1136 H1112 0.950 . S
C1136 C1131 1.363 . S
C1136 C1135 1.415 . S
C1137 H1113 0.951 . S
C1137 C1138 1.366 . S
C1137 C1139 1.388 . S
C1138 C1137 1.366 . S
C1138 C1142 1.385 . S
C1139 H1114 0.951 . S
C1139 C1137 1.388 . S
C1139 C1140 1.366 . S
C1140 C1139 1.366 . S
C1140 C1141 1.414 . S
C1140 C1143 1.499 . S
C1141 H1115 0.950 . S
C1141 C1140 1.414 . S
C1141 C1142 1.374 . S
C1142 H1116 0.950 . S
C1142 C1138 1.385 . S
C1142 C1141 1.374 . S
C1143 C1140 1.499 . S
C1143 C1144 1.373 . S
C1143 C1145 1.389 . S
C1144 H1117 0.950 . S
C1144 C1130 1.377 . S
C1144 C1143 1.373 . S
C1145 C1129 1.377 . S
C1145 C1143 1.389 . S
C1145 C1146 1.524 . S
C1146 C1145 1.524 . S
C1146 C1147 1.397 . S
C1146 C1151 1.363 . S
C1147 H1118 0.950 . S
C1147 C1146 1.397 . S
C1147 C1148 1.334 . S
C1148 H1119 0.950 . S
C1148 C1147 1.334 . S
C1148 C1149 1.287 . S
C1149 C1148 1.287 . S
C1149 C1150 1.524 . S
C1149 H1152 0.999 . S
C1150 H1120 0.950 . S
C1150 C1149 1.524 . S
C1150 C1151 1.415 . S
C1151 H1121 0.950 . S
C1151 C1146 1.363 . S
C1151 C1150 1.415 . S
H1152 C1149 0.999 . S
H1153 C1134 0.926 . S
H1154 C1172 0.951 . S
H1155 C1174 0.951 . S
H1156 C1176 0.950 . S
H1157 C1177 0.950 1_554 S
H1158 C1179 0.950 . S
H1159 C1182 0.950 . S
H1160 C1183 0.950 . S
H1161 C1185 0.950 . S
H1162 C1186 0.950 . S
H1163 C1187 0.951 . S
H1164 C1189 0.951 . S
H1165 C1191 0.950 . S
H1166 C1192 0.950 . S
H1167 C1194 0.950 . S
H1168 C1197 0.950 . S
H1169 C1198 0.950 . S
H1170 C1200 0.950 1_554 S
H1171 C1201 0.950 . S
C1172 H1154 0.951 . S
C1172 C1173 1.366 . S
C1172 C1174 1.388 . S
C1173 C1172 1.366 . S
C1173 C1177 1.385 . S
C1174 H1155 0.951 . S
C1174 C1172 1.388 . S
C1174 C1175 1.366 . S
C1175 C1174 1.366 . S
C1175 C1176 1.414 . S
C1175 C1178 1.499 . S
C1176 H1156 0.950 . S
C1176 C1175 1.414 . S
C1176 C1177 1.374 . S
C1177 H1157 0.950 1_556 S
C1177 C1173 1.385 . S
C1177 C1176 1.374 . S
C1178 C1175 1.499 . S
C1178 C1179 1.373 . S
C1178 C1180 1.389 . S
C1179 H1158 0.950 . S
C1179 C1178 1.373 . S
C1179 C1195 1.377 . S
C1180 C1178 1.389 . S
C1180 C1181 1.524 . S
C1180 C1194 1.377 . S
C1181 C1180 1.524 . S
C1181 C1182 1.397 . S
C1181 C1186 1.363 . S
C1182 H1159 0.950 . S
C1182 C1181 1.397 . S
C1182 C1183 1.334 . S
C1183 H1160 0.950 . S
C1183 C1182 1.334 . S
C1183 C1184 1.287 . S
C1184 C1183 1.287 . S
C1184 C1185 1.524 . S
C1184 H1203 0.913 . S
C1185 H1161 0.950 . S
C1185 C1184 1.524 . S
C1185 C1186 1.415 . S
C1186 H1162 0.950 . S
C1186 C1181 1.363 . S
C1186 C1185 1.415 . S
C1187 H1163 0.951 . S
C1187 C1188 1.366 . S
C1187 C1189 1.388 . S
C1188 C1187 1.366 . S
C1188 C1192 1.385 . S
C1189 H1164 0.951 . S
C1189 C1187 1.388 . S
C1189 C1190 1.366 . S
C1190 C1189 1.366 . S
C1190 C1191 1.414 . S
C1190 C1193 1.499 . S
C1191 H1165 0.950 . S
C1191 C1190 1.414 . S
C1191 C1192 1.374 . S
C1192 H1166 0.950 . S
C1192 C1188 1.385 . S
C1192 C1191 1.374 . S
C1193 C1190 1.499 . S
C1193 C1194 1.373 . S
C1193 C1195 1.389 . S
C1194 H1167 0.950 . S
C1194 C1180 1.377 . S
C1194 C1193 1.373 . S
C1195 C1179 1.377 . S
C1195 C1193 1.389 . S
C1195 C1196 1.524 . S
C1196 C1195 1.524 . S
C1196 C1197 1.397 . S
C1196 C1201 1.363 . S
C1197 H1168 0.950 . S
C1197 C1196 1.397 . S
C1197 C1198 1.334 . S
C1198 H1169 0.950 . S
C1198 C1197 1.334 . S
C1198 C1199 1.287 . S
C1199 C1198 1.287 . S
C1199 C1200 1.524 . S
C1199 H1202 0.999 . S
C1200 H1170 0.950 1_556 S
C1200 C1199 1.524 . S
C1200 C1201 1.415 . S
C1201 H1171 0.950 . S
C1201 C1196 1.363 . S
C1201 C1200 1.415 . S
H1202 C1199 0.999 . S
H1203 C1184 0.913 . S
H1204 C1222 0.951 . S
H1205 C1224 0.951 . S
H1206 C1226 0.951 . S
H1207 C1227 0.950 . S
H1208 C1229 0.950 . S
H1209 C1232 0.950 . S
H1210 C1233 0.950 . S
H1211 C1235 0.950 1_556 S
H1212 C1236 0.950 . S
H1213 C1237 0.951 . S
H1214 C1239 0.951 . S
H1215 C1241 0.950 1_655 S
H1216 C1242 0.950 1_655 S
H1217 C1244 0.985 . S
H1218 C1247 0.950 . S
H1219 C1248 0.950 . S
H1220 C1250 0.950 . S
H1221 C1251 0.950 . S
C1222 H1204 0.951 . S
C1222 C1223 1.366 1_556 S
C1222 C1224 1.388 . S
C1223 C1222 1.366 1_554 S
C1223 C1227 1.385 . S
C1224 H1205 0.951 . S
C1224 C1222 1.388 . S
C1224 C1225 1.366 . S
C1225 C1224 1.366 . S
C1225 C1226 1.409 1_556 S
C1225 C1228 1.499 . S
C1226 H1206 0.951 . S
C1226 C1225 1.409 1_554 S
C1226 C1227 1.378 . S
C1227 H1207 0.950 . S
C1227 C1223 1.385 . S
C1227 C1226 1.378 . S
C1228 C1225 1.499 . S
C1228 C1229 1.373 . S
C1228 C1230 1.389 . S
C1229 H1208 0.950 . S
C1229 C1228 1.373 . S
C1229 C1245 1.377 . S
C1230 C1228 1.389 . S
C1230 C1231 1.524 1_455 S
C1230 C1244 1.377 . S
C1231 C1230 1.524 1_655 S
C1231 C1232 1.397 1_656 S
C1231 C1236 1.363 . S
C1232 H1209 0.950 . S
C1232 C1231 1.397 1_454 S
C1232 C1233 1.334 1_455 S
C1233 H1210 0.950 . S
C1233 C1232 1.334 1_655 S
C1233 C1234 1.287 . S
C1234 C1233 1.287 . S
C1234 C1235 1.524 . S
C1234 H1253 0.913 . S
C1235 H1211 0.950 1_554 S
C1235 C1234 1.524 . S
C1235 C1236 1.415 1_554 S
C1236 H1212 0.950 . S
C1236 C1231 1.363 . S
C1236 C1235 1.415 1_556 S
C1237 H1213 0.951 . S
C1237 C1238 1.366 . S
C1237 C1239 1.388 . S
C1238 C1237 1.366 . S
C1238 C1242 1.385 . S
C1239 H1214 0.951 . S
C1239 C1237 1.388 . S
C1239 C1240 1.366 . S
C1240 C1239 1.366 . S
C1240 C1241 1.414 . S
C1240 C1243 1.499 . S
C1241 H1215 0.950 1_455 S
C1241 C1240 1.414 . S
C1241 C1242 1.374 . S
C1242 H1216 0.950 1_455 S
C1242 C1238 1.385 . S
C1242 C1241 1.374 . S
C1243 C1240 1.499 . S
C1243 C1244 1.373 . S
C1243 C1245 1.389 . S
C1244 H1217 0.985 . S
C1244 C1230 1.377 . S
C1244 C1243 1.373 . S
C1245 C1229 1.377 . S
C1245 C1243 1.389 . S
C1245 C1246 1.524 . S
C1246 C1245 1.524 . S
C1246 C1247 1.397 . S
C1246 C1251 1.363 . S
C1247 H1218 0.950 . S
C1247 C1246 1.397 . S
C1247 C1248 1.334 . S
C1248 H1219 0.950 . S
C1248 C1247 1.334 . S
C1248 C1249 1.287 . S
C1249 C1248 1.287 . S
C1249 C1250 1.524 . S
C1249 H1252 0.999 . S
C1250 H1220 0.950 . S
C1250 C1249 1.524 . S
C1250 C1251 1.415 . S
C1251 H1221 0.950 . S
C1251 C1246 1.363 . S
C1251 C1250 1.415 . S
H1252 C1249 0.999 . S
H1253 C1234 0.913 . S
H1254 C1272 0.951 1_556 S
H1255 C1274 0.951 . S
H1256 C1276 0.950 . S
H1257 C1277 0.950 . S
H1258 C1279 0.950 1_554 S
H1259 C1282 0.950 . S
H1260 C1283 0.950 . S
H1261 C1285 0.950 . S
H1262 C1286 0.950 . S
H1263 C1287 0.951 . S
H1264 C1289 0.951 . S
H1265 C1291 0.950 . S
H1266 C1292 0.950 . S
H1267 C1294 0.950 . S
H1268 C1297 0.950 . S
H1269 C1298 0.950 . S
H1270 C1300 0.950 . S
H1271 C1301 0.950 . S
C1272 H1254 0.951 1_554 S
C1272 C1273 1.366 . S
C1272 C1274 1.388 1_554 S
C1273 C1272 1.366 . S
C1273 C1277 1.385 . S
C1274 H1255 0.951 . S
C1274 C1272 1.388 1_556 S
C1274 C1275 1.366 . S
C1275 C1274 1.366 . S
C1275 C1276 1.414 1_556 S
C1275 C1278 1.499 . S
C1276 H1256 0.950 . S
C1276 C1275 1.414 1_554 S
C1276 C1277 1.374 . S
C1277 H1257 0.950 . S
C1277 C1273 1.385 . S
C1277 C1276 1.374 . S
C1278 C1275 1.499 . S
C1278 C1279 1.373 . S
C1278 C1280 1.389 . S
C1279 H1258 0.950 1_556 S
C1279 C1278 1.373 . S
C1279 C1295 1.377 . S
C1280 C1278 1.389 . S
C1280 C1281 1.524 . S
C1280 C1294 1.377 . S
C1281 C1280 1.524 . S
C1281 C1282 1.397 . S
C1281 C1286 1.363 . S
C1282 H1259 0.950 . S
C1282 C1281 1.397 . S
C1282 C1283 1.334 . S
C1283 H1260 0.950 . S
C1283 C1282 1.334 . S
C1283 C1284 1.287 . S
C1284 C1283 1.287 . S
C1284 C1285 1.524 . S
C1284 H1303 0.913 . S
C1285 H1261 0.950 . S
C1285 C1284 1.524 . S
C1285 C1286 1.415 . S
C1286 H1262 0.950 . S
C1286 C1281 1.363 . S
C1286 C1285 1.415 . S
C1287 H1263 0.951 . S
C1287 C1288 1.366 . S
C1287 C1289 1.388 . S
C1288 C1287 1.366 . S
C1288 C1292 1.385 . S
C1289 H1264 0.951 . S
C1289 C1287 1.388 . S
C1289 C1290 1.366 . S
C1290 C1289 1.366 . S
C1290 C1291 1.414 . S
C1290 C1293 1.499 . S
C1291 H1265 0.950 . S
C1291 C1290 1.414 . S
C1291 C1292 1.374 . S
C1292 H1266 0.950 . S
C1292 C1288 1.385 . S
C1292 C1291 1.374 . S
C1293 C1290 1.499 . S
C1293 C1294 1.373 . S
C1293 C1295 1.389 . S
C1294 H1267 0.950 . S
C1294 C1280 1.377 . S
C1294 C1293 1.373 . S
C1295 C1279 1.377 . S
C1295 C1293 1.389 . S
C1295 C1296 1.524 . S
C1296 C1295 1.524 . S
C1296 C1297 1.397 . S
C1296 C1301 1.363 1_556 S
C1297 H1268 0.950 . S
C1297 C1296 1.397 . S
C1297 C1298 1.334 1_556 S
C1298 H1269 0.950 . S
C1298 C1297 1.334 1_554 S
C1298 C1299 1.287 . S
C1299 C1298 1.287 . S
C1299 C1300 1.524 . S
C1299 H1302 0.999 . S
C1300 H1270 0.950 . S
C1300 C1299 1.524 . S
C1300 C1301 1.415 . S
C1301 H1271 0.950 . S
C1301 C1296 1.363 1_554 S
C1301 C1300 1.415 . S
H1302 C1299 0.999 . S
H1303 C1284 0.913 . S
H1304 C1322 0.951 . S
H1305 C1324 0.951 . S
H1306 C1326 0.950 . S
H1307 C1327 0.950 . S
H1308 C1329 0.950 . S
H1309 C1332 0.950 . S
H1310 C1333 0.950 . S
H1311 C1335 0.950 1_556 S
H1312 C1336 0.950 . S
H1313 C1337 0.951 . S
H1314 C1339 0.951 . S
H1315 C1341 0.950 . S
H1316 C1342 0.950 . S
H1317 C1344 0.950 . S
H1318 C1347 0.950 . S
H1319 C1348 0.950 . S
H1320 C1350 0.950 . S
H1321 C1351 0.950 . S
C1322 H1304 0.951 . S
C1322 C1323 1.366 . S
C1322 C1324 1.388 1_554 S
C1323 C1322 1.366 . S
C1323 C1327 1.385 . S
C1324 H1305 0.951 . S
C1324 C1322 1.388 1_556 S
C1324 C1325 1.366 . S
C1325 C1324 1.366 . S
C1325 C1326 1.414 1_556 S
C1325 C1328 1.499 . S
C1326 H1306 0.950 . S
C1326 C1325 1.414 1_554 S
C1326 C1327 1.374 . S
C1327 H1307 0.950 . S
C1327 C1323 1.385 . S
C1327 C1326 1.374 . S
C1328 C1325 1.499 . S
C1328 C1329 1.373 . S
C1328 C1330 1.389 . S
C1329 H1308 0.950 . S
C1329 C1328 1.373 . S
C1329 C1345 1.377 . S
C1330 C1328 1.389 . S
C1330 C1331 1.524 . S
C1330 C1344 1.377 . S
C1331 C1330 1.524 . S
C1331 C1332 1.397 1_556 S
C1331 C1336 1.363 . S
C1332 H1309 0.950 . S
C1332 C1331 1.397 1_554 S
C1332 C1333 1.334 . S
C1333 H1310 0.950 . S
C1333 C1332 1.334 . S
C1333 C1334 1.287 . S
C1334 C1333 1.287 . S
C1334 C1335 1.524 . S
C1334 H1353 0.913 . S
C1335 H1311 0.950 1_554 S
C1335 C1334 1.524 . S
C1335 C1336 1.415 1_554 S
C1336 H1312 0.950 . S
C1336 C1331 1.363 . S
C1336 C1335 1.415 1_556 S
C1337 H1313 0.951 . S
C1337 C1338 1.366 . S
C1337 C1339 1.388 . S
C1338 C1337 1.366 . S
C1338 C1342 1.385 . S
C1339 H1314 0.951 . S
C1339 C1337 1.388 . S
C1339 C1340 1.366 . S
C1340 C1339 1.366 . S
C1340 C1341 1.414 . S
C1340 C1343 1.499 . S
C1341 H1315 0.950 . S
C1341 C1340 1.414 . S
C1341 C1342 1.374 . S
C1342 H1316 0.950 . S
C1342 C1338 1.385 . S
C1342 C1341 1.374 . S
C1343 C1340 1.499 . S
C1343 C1344 1.373 . S
C1343 C1345 1.389 . S
C1344 H1317 0.950 . S
C1344 C1330 1.377 . S
C1344 C1343 1.373 . S
C1345 C1329 1.377 . S
C1345 C1343 1.389 . S
C1345 C1346 1.524 . S
C1346 C1345 1.524 . S
C1346 C1347 1.397 . S
C1346 C1351 1.363 . S
C1347 H1318 0.950 . S
C1347 C1346 1.397 . S
C1347 C1348 1.334 . S
C1348 H1319 0.950 . S
C1348 C1347 1.334 . S
C1348 C1349 1.287 . S
C1349 C1348 1.287 . S
C1349 C1350 1.524 . S
C1349 H1352 0.999 . S
C1350 H1320 0.950 . S
C1350 C1349 1.524 . S
C1350 C1351 1.415 . S
C1351 H1321 0.950 . S
C1351 C1346 1.363 . S
C1351 C1350 1.415 . S
H1352 C1349 0.999 . S
H1353 C1334 0.913 . S
H1354 C1372 0.951 . S
H1355 C1374 0.951 . S
H1356 C1376 0.950 1_556 S
H1357 C1377 0.950 . S
H1358 C1379 0.950 . S
H1359 C1382 0.950 . S
H1360 C1383 0.950 . S
H1361 C1385 0.950 . S
H1362 C1386 0.950 . S
H1363 C1387 0.951 . S
H1364 C1389 0.951 . S
H1365 C1391 0.950 . S
H1366 C1392 0.950 . S
H1367 C1394 0.950 . S
H1368 C1397 0.950 . S
H1369 C1398 0.950 . S
H1370 C1400 0.950 . S
H1371 C1401 0.950 . S
C1372 H1354 0.951 . S
C1372 C1373 1.366 . S
C1372 C1374 1.388 . S
C1373 C1372 1.366 . S
C1373 C1377 1.385 . S
C1374 H1355 0.951 . S
C1374 C1372 1.388 . S
C1374 C1375 1.366 . S
C1375 C1374 1.366 . S
C1375 C1376 1.414 . S
C1375 C1378 1.499 1_554 S
C1376 H1356 0.950 1_554 S
C1376 C1375 1.414 . S
C1376 C1377 1.374 . S
C1377 H1357 0.950 . S
C1377 C1373 1.385 . S
C1377 C1376 1.374 . S
C1378 C1375 1.499 1_556 S
C1378 C1379 1.373 . S
C1378 C1380 1.389 1_556 S
C1379 H1358 0.950 . S
C1379 C1378 1.373 . S
C1379 C1395 1.377 . S
C1380 C1378 1.389 1_554 S
C1380 C1381 1.524 . S
C1380 C1394 1.377 1_554 S
C1381 C1380 1.524 . S
C1381 C1382 1.397 . S
C1381 C1386 1.363 . S
C1382 H1359 0.950 . S
C1382 C1381 1.397 . S
C1382 C1383 1.334 . S
C1383 H1360 0.950 . S
C1383 C1382 1.334 . S
C1383 C1384 1.287 . S
C1384 C1383 1.287 . S
C1384 C1385 1.524 . S
C1384 H1403 0.913 . S
C1385 H1361 0.950 . S
C1385 C1384 1.524 . S
C1385 C1386 1.415 . S
C1386 H1362 0.950 . S
C1386 C1381 1.363 . S
C1386 C1385 1.415 . S
C1387 H1363 0.951 . S
C1387 C1388 1.366 . S
C1387 C1389 1.388 . S
C1388 C1387 1.366 . S
C1388 C1392 1.385 . S
C1389 H1364 0.951 . S
C1389 C1387 1.388 . S
C1389 C1390 1.366 . S
C1390 C1389 1.366 . S
C1390 C1391 1.414 . S
C1390 C1393 1.499 . S
C1391 H1365 0.950 . S
C1391 C1390 1.414 . S
C1391 C1392 1.374 . S
C1392 H1366 0.950 . S
C1392 C1388 1.385 . S
C1392 C1391 1.374 . S
C1393 C1390 1.499 . S
C1393 C1394 1.373 . S
C1393 C1395 1.389 . S
C1394 H1367 0.950 . S
C1394 C1380 1.377 1_556 S
C1394 C1393 1.373 . S
C1395 C1379 1.377 . S
C1395 C1393 1.389 . S
C1395 C1396 1.524 . S
C1396 C1395 1.524 . S
C1396 C1397 1.397 . S
C1396 C1401 1.363 . S
C1397 H1368 0.950 . S
C1397 C1396 1.397 . S
C1397 C1398 1.334 . S
C1398 H1369 0.950 . S
C1398 C1397 1.334 . S
C1398 C1399 1.287 . S
C1399 C1398 1.287 . S
C1399 C1400 1.524 . S
C1399 H1402 0.999 . S
C1400 H1370 0.950 . S
C1400 C1399 1.524 . S
C1400 C1401 1.415 . S
C1401 H1371 0.950 . S
C1401 C1396 1.363 . S
C1401 C1400 1.415 . S
H1402 C1399 0.999 . S
H1403 C1384 0.913 . S
H1404 C1422 0.951 1_455 S
H1405 C1424 0.951 1_455 S
H1406 C1426 0.950 . S
H1407 C1427 0.950 . S
H1408 C1429 0.950 . S
H1409 C1432 0.950 . S
H1410 C1433 0.950 . S
H1411 C1435 0.950 . S
H1412 C1436 0.950 . S
H1413 C1437 0.951 . S
H1414 C1439 0.951 . S
H1415 C1441 0.950 . S
H1416 C1442 0.950 . S
H1417 C1444 0.950 . S
H1418 C1447 0.950 . S
H1419 C1448 0.950 . S
H1420 C1450 0.950 . S
H1421 C1451 0.950 . S
C1422 H1404 0.951 1_655 S
C1422 C1423 1.366 . S
C1422 C1424 1.388 . S
C1423 C1422 1.366 . S
C1423 C1427 1.385 . S
C1424 H1405 0.951 1_655 S
C1424 C1422 1.388 . S
C1424 C1425 1.366 . S
C1425 C1424 1.366 . S
C1425 C1426 1.414 . S
C1425 C1428 1.499 . S
C1426 H1406 0.950 . S
C1426 C1425 1.414 . S
C1426 C1427 1.374 . S
C1427 H1407 0.950 . S
C1427 C1423 1.385 . S
C1427 C1426 1.374 . S
C1428 C1425 1.499 . S
C1428 C1429 1.373 1_655 S
C1428 C1430 1.389 . S
C1429 H1408 0.950 . S
C1429 C1428 1.373 1_455 S
C1429 C1445 1.377 . S
C1430 C1428 1.389 . S
C1430 C1431 1.524 . S
C1430 C1444 1.377 . S
C1431 C1430 1.524 . S
C1431 C1432 1.397 . S
C1431 C1436 1.363 . S
C1432 H1409 0.950 . S
C1432 C1431 1.397 . S
C1432 C1433 1.334 . S
C1433 H1410 0.950 . S
C1433 C1432 1.334 . S
C1433 C1434 1.287 . S
C1434 C1433 1.287 . S
C1434 C1435 1.524 . S
C1434 H1453 0.913 . S
C1435 H1411 0.950 . S
C1435 C1434 1.524 . S
C1435 C1436 1.415 . S
C1436 H1412 0.950 . S
C1436 C1431 1.363 . S
C1436 C1435 1.415 . S
C1437 H1413 0.951 . S
C1437 C1438 1.364 1_655 S
C1437 C1439 1.388 . S
C1438 C1437 1.364 1_455 S
C1438 C1442 1.386 . S
C1439 H1414 0.951 . S
C1439 C1437 1.388 . S
C1439 C1440 1.381 . S
C1440 C1439 1.381 . S
C1440 C1441 1.399 1_655 S
C1440 C1443 1.502 . S
C1441 H1415 0.950 . S
C1441 C1440 1.399 1_455 S
C1441 C1442 1.374 . S
C1442 H1416 0.950 . S
C1442 C1438 1.386 . S
C1442 C1441 1.374 . S
C1443 C1440 1.502 . S
C1443 C1444 1.373 . S
C1443 C1445 1.389 1_655 S
C1444 H1417 0.950 . S
C1444 C1430 1.377 . S
C1444 C1443 1.373 . S
C1445 C1429 1.377 . S
C1445 C1443 1.389 1_455 S
C1445 C1446 1.524 . S
C1446 C1445 1.524 . S
C1446 C1447 1.397 . S
C1446 C1451 1.363 . S
C1447 H1418 0.950 . S
C1447 C1446 1.397 . S
C1447 C1448 1.334 . S
C1448 H1419 0.950 . S
C1448 C1447 1.334 . S
C1448 C1449 1.287 . S
C1449 C1448 1.287 . S
C1449 C1450 1.524 . S
C1449 H1452 0.999 . S
C1450 H1420 0.950 . S
C1450 C1449 1.524 . S
C1450 C1451 1.415 . S
C1451 H1421 0.950 . S
C1451 C1446 1.363 . S
C1451 C1450 1.415 . S
H1452 C1449 0.999 . S
H1453 C1434 0.913 . S
H1454 C1472 0.951 . S
H1455 C1474 0.951 . S
H1456 C1476 0.950 . S
H1457 C1477 0.950 . S
H1458 C1479 0.950 . S
H1459 C1482 0.950 . S
H1460 C1483 0.950 . S
H1461 C1485 0.950 . S
H1462 C1486 0.950 . S
H1463 C1487 0.951 . S
H1464 C1489 0.951 . S
H1465 C1491 0.950 . S
H1466 C1492 0.950 . S
H1467 C1494 0.950 . S
H1468 C1497 0.950 . S
H1469 C1498 0.950 . S
H1470 C1500 0.950 . S
H1471 C1501 0.950 . S
C1472 H1454 0.951 . S
C1472 C1473 1.366 . S
C1472 C1474 1.388 . S
C1473 C1472 1.366 . S
C1473 C1477 1.385 . S
C1474 H1455 0.951 . S
C1474 C1472 1.388 . S
C1474 C1475 1.366 . S
C1475 C1474 1.366 . S
C1475 C1476 1.414 . S
C1475 C1478 1.499 . S
C1476 H1456 0.950 . S
C1476 C1475 1.414 . S
C1476 C1477 1.374 . S
C1477 H1457 0.950 . S
C1477 C1473 1.385 . S
C1477 C1476 1.374 . S
C1478 C1475 1.499 . S
C1478 C1479 1.373 . S
C1478 C1480 1.389 . S
C1479 H1458 0.950 . S
C1479 C1478 1.373 . S
C1479 C1495 1.377 . S
C1480 C1478 1.389 . S
C1480 C1481 1.524 . S
C1480 C1494 1.377 . S
C1481 C1480 1.524 . S
C1481 C1482 1.397 . S
C1481 C1486 1.363 . S
C1482 H1459 0.950 . S
C1482 C1481 1.397 . S
C1482 C1483 1.334 1_565 S
C1483 H1460 0.950 . S
C1483 C1482 1.334 1_545 S
C1483 C1484 1.287 . S
C1484 C1483 1.287 . S
C1484 C1485 1.524 . S
C1484 H1503 0.913 . S
C1485 H1461 0.950 . S
C1485 C1484 1.524 . S
C1485 C1486 1.415 1_545 S
C1486 H1462 0.950 . S
C1486 C1481 1.363 . S
C1486 C1485 1.415 1_565 S
C1487 H1463 0.951 . S
C1487 C1488 1.366 . S
C1487 C1489 1.388 . S
C1488 C1487 1.366 . S
C1488 C1492 1.385 . S
C1489 H1464 0.951 . S
C1489 C1487 1.388 . S
C1489 C1490 1.366 . S
C1490 C1489 1.366 . S
C1490 C1491 1.414 . S
C1490 C1493 1.499 . S
C1491 H1465 0.950 . S
C1491 C1490 1.414 . S
C1491 C1492 1.374 . S
C1492 H1466 0.950 . S
C1492 C1488 1.385 . S
C1492 C1491 1.374 . S
C1493 C1490 1.499 . S
C1493 C1494 1.373 . S
C1493 C1495 1.389 . S
C1494 H1467 0.950 . S
C1494 C1480 1.377 . S
C1494 C1493 1.373 . S
C1495 C1479 1.377 . S
C1495 C1493 1.389 . S
C1495 C1496 1.524 . S
C1496 C1495 1.524 . S
C1496 C1497 1.397 . S
C1496 C1501 1.363 . S
C1497 H1468 0.950 . S
C1497 C1496 1.397 . S
C1497 C1498 1.334 . S
C1498 H1469 0.950 . S
C1498 C1497 1.334 . S
C1498 C1499 1.287 . S
C1499 C1498 1.287 . S
C1499 C1500 1.524 . S
C1499 H1502 0.999 . S
C1500 H1470 0.950 . S
C1500 C1499 1.524 . S
C1500 C1501 1.415 . S
C1501 H1471 0.950 . S
C1501 C1496 1.363 . S
C1501 C1500 1.415 . S
H1502 C1499 0.999 . S
H1503 C1484 0.913 . S
H1504 C1522 0.951 . S
H1505 C1524 0.951 . S
H1506 C1526 0.950 . S
H1507 C1527 0.950 . S
H1508 C1529 0.950 . S
H1509 C1532 0.950 . S
H1510 C1533 0.950 . S
H1511 C1535 0.950 . S
H1512 C1536 0.950 . S
H1513 C1537 0.951 . S
H1514 C1539 0.951 . S
H1515 C1541 0.950 . S
H1516 C1542 0.950 . S
H1517 C1544 0.950 . S
H1518 C1547 0.950 . S
H1519 C1548 0.950 . S
H1520 C1550 0.950 . S
H1521 C1551 0.950 . S
C1522 H1504 0.951 . S
C1522 C1523 1.366 . S
C1522 C1524 1.388 . S
C1523 C1522 1.366 . S
C1523 C1527 1.385 . S
C1524 H1505 0.951 . S
C1524 C1522 1.388 . S
C1524 C1525 1.366 . S
C1525 C1524 1.366 . S
C1525 C1526 1.414 . S
C1525 C1528 1.499 . S
C1526 H1506 0.950 . S
C1526 C1525 1.414 . S
C1526 C1527 1.374 . S
C1527 H1507 0.950 . S
C1527 C1523 1.385 . S
C1527 C1526 1.374 . S
C1528 C1525 1.499 . S
C1528 C1529 1.373 . S
C1528 C1530 1.389 . S
C1529 H1508 0.950 . S
C1529 C1528 1.373 . S
C1529 C1545 1.377 . S
C1530 C1528 1.389 . S
C1530 C1531 1.524 . S
C1530 C1544 1.377 . S
C1531 C1530 1.524 . S
C1531 C1532 1.397 . S
C1531 C1536 1.363 . S
C1532 H1509 0.950 . S
C1532 C1531 1.397 . S
C1532 C1533 1.334 . S
C1533 H1510 0.950 . S
C1533 C1532 1.334 . S
C1533 C1534 1.287 . S
C1534 C1533 1.287 . S
C1534 C1535 1.524 . S
C1534 H1553 0.913 . S
C1535 H1511 0.950 . S
C1535 C1534 1.524 . S
C1535 C1536 1.415 . S
C1536 H1512 0.950 . S
C1536 C1531 1.363 . S
C1536 C1535 1.415 . S
C1537 H1513 0.951 . S
C1537 C1538 1.366 . S
C1537 C1539 1.388 . S
C1538 C1537 1.366 . S
C1538 C1542 1.385 . S
C1539 H1514 0.951 . S
C1539 C1537 1.388 . S
C1539 C1540 1.366 . S
C1540 C1539 1.366 . S
C1540 C1541 1.414 . S
C1540 C1543 1.499 . S
C1541 H1515 0.950 . S
C1541 C1540 1.414 . S
C1541 C1542 1.374 . S
C1542 H1516 0.950 . S
C1542 C1538 1.385 . S
C1542 C1541 1.374 . S
C1543 C1540 1.499 . S
C1543 C1544 1.373 . S
C1543 C1545 1.389 . S
C1544 H1517 0.950 . S
C1544 C1530 1.377 . S
C1544 C1543 1.373 . S
C1545 C1529 1.377 . S
C1545 C1543 1.389 . S
C1545 C1546 1.524 . S
C1546 C1545 1.524 . S
C1546 C1547 1.397 . S
C1546 C1551 1.363 . S
C1547 H1518 0.950 . S
C1547 C1546 1.397 . S
C1547 C1548 1.334 . S
C1548 H1519 0.950 . S
C1548 C1547 1.334 . S
C1548 C1549 1.287 . S
C1549 C1548 1.287 . S
C1549 C1550 1.524 . S
C1549 H1552 0.999 . S
C1550 H1520 0.950 . S
C1550 C1549 1.524 . S
C1550 C1551 1.415 . S
C1551 H1521 0.950 . S
C1551 C1546 1.363 . S
C1551 C1550 1.415 . S
H1552 C1549 0.999 . S
H1553 C1534 0.913 . S
H1554 C1572 0.951 . S
H1555 C1574 0.951 . S
H1556 C1576 0.950 . S
H1557 C1577 0.950 . S
H1558 C1579 0.950 . S
H1559 C1582 0.950 . S
H1560 C1583 0.950 . S
H1561 C1585 0.950 . S
H1562 C1586 0.950 . S
H1563 C1587 0.951 . S
H1564 C1589 0.951 . S
H1565 C1591 0.950 . S
H1566 C1592 0.950 . S
H1567 C1594 0.950 . S
H1568 C1597 0.950 . S
H1569 C1598 0.950 . S
H1570 C1600 0.950 . S
H1571 C1601 0.950 . S
C1572 H1554 0.951 . S
C1572 C1573 1.366 . S
C1572 C1574 1.388 . S
C1573 C1572 1.366 . S
C1573 C1577 1.385 . S
C1574 H1555 0.951 . S
C1574 C1572 1.388 . S
C1574 C1575 1.366 . S
C1575 C1574 1.366 . S
C1575 C1576 1.414 . S
C1575 C1578 1.499 . S
C1576 H1556 0.950 . S
C1576 C1575 1.414 . S
C1576 C1577 1.374 . S
C1577 H1557 0.950 . S
C1577 C1573 1.385 . S
C1577 C1576 1.374 . S
C1578 C1575 1.499 . S
C1578 C1579 1.373 . S
C1578 C1580 1.389 . S
C1579 H1558 0.950 . S
C1579 C1578 1.373 . S
C1579 C1595 1.377 . S
C1580 C1578 1.389 . S
C1580 C1581 1.524 . S
C1580 C1594 1.377 . S
C1581 C1580 1.524 . S
C1581 C1582 1.397 . S
C1581 C1586 1.363 . S
C1582 H1559 0.950 . S
C1582 C1581 1.397 . S
C1582 C1583 1.334 . S
C1583 H1560 0.950 . S
C1583 C1582 1.334 . S
C1583 C1584 1.287 . S
C1584 C1583 1.287 . S
C1584 C1585 1.524 . S
C1584 H1603 0.913 . S
C1585 H1561 0.950 . S
C1585 C1584 1.524 . S
C1585 C1586 1.415 . S
C1586 H1562 0.950 . S
C1586 C1581 1.363 . S
C1586 C1585 1.415 . S
C1587 H1563 0.951 . S
C1587 C1588 1.366 . S
C1587 C1589 1.388 . S
C1588 C1587 1.366 . S
C1588 C1592 1.385 . S
C1589 H1564 0.951 . S
C1589 C1587 1.388 . S
C1589 C1590 1.366 . S
C1590 C1589 1.366 . S
C1590 C1591 1.414 . S
C1590 C1593 1.499 . S
C1591 H1565 0.950 . S
C1591 C1590 1.414 . S
C1591 C1592 1.374 . S
C1592 H1566 0.950 . S
C1592 C1588 1.385 . S
C1592 C1591 1.374 . S
C1593 C1590 1.499 . S
C1593 C1594 1.373 . S
C1593 C1595 1.389 . S
C1594 H1567 0.950 . S
C1594 C1580 1.377 . S
C1594 C1593 1.373 . S
C1595 C1579 1.377 . S
C1595 C1593 1.389 . S
C1595 C1596 1.524 . S
C1596 C1595 1.524 . S
C1596 C1597 1.397 . S
C1596 C1601 1.363 . S
C1597 H1568 0.950 . S
C1597 C1596 1.397 . S
C1597 C1598 1.334 . S
C1598 H1569 0.950 . S
C1598 C1597 1.334 . S
C1598 C1599 1.287 . S
C1599 C1598 1.287 . S
C1599 C1600 1.524 . S
C1599 H1602 0.999 . S
C1600 H1570 0.950 . S
C1600 C1599 1.524 . S
C1600 C1601 1.415 . S
C1601 H1571 0.950 . S
C1601 C1596 1.363 . S
C1601 C1600 1.415 . S
H1602 C1599 0.999 . S
H1603 C1584 0.913 . S
C423 C255 1.869 . S
C438 C336 1.761 . S
C488 C354 1.346 . S
C473 C295 1.489 . S
C538 C375 1.715 . S
C523 C175 1.818 . S
C588 C399 1.445 . S
C573 C215 1.581 . S
C638 C333 1.708 1_565 S
C623 C95 1.811 . S
C673 C135 1.431 . S
C688 C357 1.288 . S
C723 C15 1.812 . S
C738 C378 1.709 . S
C773 C55 1.306 . S
C788 C396 1.185 . S
C838 C338 0.485 . S
C823 C221 0.396 . S
C888 C356 0.425 . S
C873 C261 0.398 . S
C938 C377 0.528 . S
C923 C301 0.452 . S
C973 C181 0.409 . S
C988 C401 0.438 . S
C1023 C61 0.476 . S
C1038 C337 0.312 . S
C1088 C355 0.320 . S
C1073 C101 0.624 . S
C1138 C376 0.314 . S
C1123 C141 0.466 . S
C1173 C21 0.587 . S
C1188 C400 0.364 . S
C1223 C202 1.924 . S
C1238 C334 1.905 . S
C1273 C242 2.211 . S
C1288 C358 2.181 . S
C1338 C379 1.914 . S
C1323 C282 1.935 . S
C1388 C397 2.170 . S
C1373 C162 2.204 . S
C1423 C42 1.750 . S
C1438 C335 1.727 . S
C1488 C359 2.084 . S
C1473 C82 2.060 . S
C1538 C380 1.776 . S
C1523 C122 1.804 . S
C1573 C2 1.985 . S
C1588 C398 2.014 . S
