# Generated by pormake.
# Topology gar, (4,6)-cn, num edge types: 1
# Building blocks:
#     Node 0, Type 0, BuildingBlock: TATPOV_clean_sbu_0, # of connection points: 4
#     Node 1, Type 0, BuildingBlock: TATPOV_clean_sbu_0, # of connection points: 4
#     Node 2, Type 0, BuildingBlock: TATPOV_clean_sbu_0, # of connection points: 4
#     Node 3, Type 0, BuildingBlock: TATPOV_clean_sbu_0, # of connection points: 4
#     Node 4, Type 0, BuildingBlock: TATPOV_clean_sbu_0, # of connection points: 4
#     Node 5, Type 0, BuildingBlock: TATPOV_clean_sbu_0, # of connection points: 4
#     Node 6, Type 0, BuildingBlock: TATPOV_clean_sbu_0, # of connection points: 4
#     Node 7, Type 0, BuildingBlock: TATPOV_clean_sbu_0, # of connection points: 4
#     Node 8, Type 0, BuildingBlock: TATPOV_clean_sbu_0, # of connection points: 4
#     Node 9, Type 0, BuildingBlock: TATPOV_clean_sbu_0, # of connection points: 4
#     Node 10, Type 0, BuildingBlock: TATPOV_clean_sbu_0, # of connection points: 4
#     Node 11, Type 0, BuildingBlock: TATPOV_clean_sbu_0, # of connection points: 4
#     Node 12, Type 0, BuildingBlock: TATPOV_clean_sbu_0, # of connection points: 4
#     Node 13, Type 0, BuildingBlock: TATPOV_clean_sbu_0, # of connection points: 4
#     Node 14, Type 0, BuildingBlock: TATPOV_clean_sbu_0, # of connection points: 4
#     Node 15, Type 0, BuildingBlock: TATPOV_clean_sbu_0, # of connection points: 4
#     Node 16, Type 0, BuildingBlock: TATPOV_clean_sbu_0, # of connection points: 4
#     Node 17, Type 0, BuildingBlock: TATPOV_clean_sbu_0, # of connection points: 4
#     Node 18, Type 0, BuildingBlock: TATPOV_clean_sbu_0, # of connection points: 4
#     Node 19, Type 0, BuildingBlock: TATPOV_clean_sbu_0, # of connection points: 4
#     Node 20, Type 0, BuildingBlock: TATPOV_clean_sbu_0, # of connection points: 4
#     Node 21, Type 0, BuildingBlock: TATPOV_clean_sbu_0, # of connection points: 4
#     Node 22, Type 0, BuildingBlock: TATPOV_clean_sbu_0, # of connection points: 4
#     Node 23, Type 0, BuildingBlock: TATPOV_clean_sbu_0, # of connection points: 4
#     Node 24, Type 1, BuildingBlock: KUMBOL_clean_sbu_0, # of connection points: 6
#     Node 25, Type 1, BuildingBlock: KUMBOL_clean_sbu_0, # of connection points: 6
#     Node 26, Type 1, BuildingBlock: KUMBOL_clean_sbu_0, # of connection points: 6
#     Node 27, Type 1, BuildingBlock: KUMBOL_clean_sbu_0, # of connection points: 6
#     Node 28, Type 1, BuildingBlock: KUMBOL_clean_sbu_0, # of connection points: 6
#     Node 29, Type 1, BuildingBlock: KUMBOL_clean_sbu_0, # of connection points: 6
#     Node 30, Type 1, BuildingBlock: KUMBOL_clean_sbu_0, # of connection points: 6
#     Node 31, Type 1, BuildingBlock: KUMBOL_clean_sbu_0, # of connection points: 6
#     Node 32, Type 1, BuildingBlock: KUMBOL_clean_sbu_0, # of connection points: 6
#     Node 33, Type 1, BuildingBlock: KUMBOL_clean_sbu_0, # of connection points: 6
#     Node 34, Type 1, BuildingBlock: KUMBOL_clean_sbu_0, # of connection points: 6
#     Node 35, Type 1, BuildingBlock: KUMBOL_clean_sbu_0, # of connection points: 6
#     Node 36, Type 1, BuildingBlock: KUMBOL_clean_sbu_0, # of connection points: 6
#     Node 37, Type 1, BuildingBlock: KUMBOL_clean_sbu_0, # of connection points: 6
#     Node 38, Type 1, BuildingBlock: KUMBOL_clean_sbu_0, # of connection points: 6
#     Node 39, Type 1, BuildingBlock: KUMBOL_clean_sbu_0, # of connection points: 6
#     Edge 40, Type (0, 1), BuildingBlock: AJUNOK_clean_linker_0, # of connection points: 2
#     Edge 41, Type (0, 1), BuildingBlock: AJUNOK_clean_linker_0, # of connection points: 2
#     Edge 42, Type (0, 1), BuildingBlock: AJUNOK_clean_linker_0, # of connection points: 2
#     Edge 43, Type (0, 1), BuildingBlock: AJUNOK_clean_linker_0, # of connection points: 2
#     Edge 44, Type (0, 1), BuildingBlock: AJUNOK_clean_linker_0, # of connection points: 2
#     Edge 45, Type (0, 1), BuildingBlock: AJUNOK_clean_linker_0, # of connection points: 2
#     Edge 46, Type (0, 1), BuildingBlock: AJUNOK_clean_linker_0, # of connection points: 2
#     Edge 47, Type (0, 1), BuildingBlock: AJUNOK_clean_linker_0, # of connection points: 2
#     Edge 48, Type (0, 1), BuildingBlock: AJUNOK_clean_linker_0, # of connection points: 2
#     Edge 49, Type (0, 1), BuildingBlock: AJUNOK_clean_linker_0, # of connection points: 2
#     Edge 50, Type (0, 1), BuildingBlock: AJUNOK_clean_linker_0, # of connection points: 2
#     Edge 51, Type (0, 1), BuildingBlock: AJUNOK_clean_linker_0, # of connection points: 2
#     Edge 52, Type (0, 1), BuildingBlock: AJUNOK_clean_linker_0, # of connection points: 2
#     Edge 53, Type (0, 1), BuildingBlock: AJUNOK_clean_linker_0, # of connection points: 2
#     Edge 54, Type (0, 1), BuildingBlock: AJUNOK_clean_linker_0, # of connection points: 2
#     Edge 55, Type (0, 1), BuildingBlock: AJUNOK_clean_linker_0, # of connection points: 2
#     Edge 56, Type (0, 1), BuildingBlock: AJUNOK_clean_linker_0, # of connection points: 2
#     Edge 57, Type (0, 1), BuildingBlock: AJUNOK_clean_linker_0, # of connection points: 2
#     Edge 58, Type (0, 1), BuildingBlock: AJUNOK_clean_linker_0, # of connection points: 2
#     Edge 59, Type (0, 1), BuildingBlock: AJUNOK_clean_linker_0, # of connection points: 2
#     Edge 60, Type (0, 1), BuildingBlock: AJUNOK_clean_linker_0, # of connection points: 2
#     Edge 61, Type (0, 1), BuildingBlock: AJUNOK_clean_linker_0, # of connection points: 2
#     Edge 62, Type (0, 1), BuildingBlock: AJUNOK_clean_linker_0, # of connection points: 2
#     Edge 63, Type (0, 1), BuildingBlock: AJUNOK_clean_linker_0, # of connection points: 2
#     Edge 64, Type (0, 1), BuildingBlock: AJUNOK_clean_linker_0, # of connection points: 2
#     Edge 65, Type (0, 1), BuildingBlock: AJUNOK_clean_linker_0, # of connection points: 2
#     Edge 66, Type (0, 1), BuildingBlock: AJUNOK_clean_linker_0, # of connection points: 2
#     Edge 67, Type (0, 1), BuildingBlock: AJUNOK_clean_linker_0, # of connection points: 2
#     Edge 68, Type (0, 1), BuildingBlock: AJUNOK_clean_linker_0, # of connection points: 2
#     Edge 69, Type (0, 1), BuildingBlock: AJUNOK_clean_linker_0, # of connection points: 2
#     Edge 70, Type (0, 1), BuildingBlock: AJUNOK_clean_linker_0, # of connection points: 2
#     Edge 71, Type (0, 1), BuildingBlock: AJUNOK_clean_linker_0, # of connection points: 2
#     Edge 72, Type (0, 1), BuildingBlock: AJUNOK_clean_linker_0, # of connection points: 2
#     Edge 73, Type (0, 1), BuildingBlock: AJUNOK_clean_linker_0, # of connection points: 2
#     Edge 74, Type (0, 1), BuildingBlock: AJUNOK_clean_linker_0, # of connection points: 2
#     Edge 75, Type (0, 1), BuildingBlock: AJUNOK_clean_linker_0, # of connection points: 2
#     Edge 76, Type (0, 1), BuildingBlock: AJUNOK_clean_linker_0, # of connection points: 2
#     Edge 77, Type (0, 1), BuildingBlock: AJUNOK_clean_linker_0, # of connection points: 2
#     Edge 78, Type (0, 1), BuildingBlock: AJUNOK_clean_linker_0, # of connection points: 2
#     Edge 79, Type (0, 1), BuildingBlock: AJUNOK_clean_linker_0, # of connection points: 2
#     Edge 80, Type (0, 1), BuildingBlock: AJUNOK_clean_linker_0, # of connection points: 2
#     Edge 81, Type (0, 1), BuildingBlock: AJUNOK_clean_linker_0, # of connection points: 2
#     Edge 82, Type (0, 1), BuildingBlock: AJUNOK_clean_linker_0, # of connection points: 2
#     Edge 83, Type (0, 1), BuildingBlock: AJUNOK_clean_linker_0, # of connection points: 2
#     Edge 84, Type (0, 1), BuildingBlock: AJUNOK_clean_linker_0, # of connection points: 2
#     Edge 85, Type (0, 1), BuildingBlock: AJUNOK_clean_linker_0, # of connection points: 2
#     Edge 86, Type (0, 1), BuildingBlock: AJUNOK_clean_linker_0, # of connection points: 2
#     Edge 87, Type (0, 1), BuildingBlock: AJUNOK_clean_linker_0, # of connection points: 2
#     Edge 88, Type (0, 1), BuildingBlock: AJUNOK_clean_linker_0, # of connection points: 2
#     Edge 89, Type (0, 1), BuildingBlock: AJUNOK_clean_linker_0, # of connection points: 2
#     Edge 90, Type (0, 1), BuildingBlock: AJUNOK_clean_linker_0, # of connection points: 2
#     Edge 91, Type (0, 1), BuildingBlock: AJUNOK_clean_linker_0, # of connection points: 2
#     Edge 92, Type (0, 1), BuildingBlock: AJUNOK_clean_linker_0, # of connection points: 2
#     Edge 93, Type (0, 1), BuildingBlock: AJUNOK_clean_linker_0, # of connection points: 2
#     Edge 94, Type (0, 1), BuildingBlock: AJUNOK_clean_linker_0, # of connection points: 2
#     Edge 95, Type (0, 1), BuildingBlock: AJUNOK_clean_linker_0, # of connection points: 2
#     Edge 96, Type (0, 1), BuildingBlock: AJUNOK_clean_linker_0, # of connection points: 2
#     Edge 97, Type (0, 1), BuildingBlock: AJUNOK_clean_linker_0, # of connection points: 2
#     Edge 98, Type (0, 1), BuildingBlock: AJUNOK_clean_linker_0, # of connection points: 2
#     Edge 99, Type (0, 1), BuildingBlock: AJUNOK_clean_linker_0, # of connection points: 2
#     Edge 100, Type (0, 1), BuildingBlock: AJUNOK_clean_linker_0, # of connection points: 2
#     Edge 101, Type (0, 1), BuildingBlock: AJUNOK_clean_linker_0, # of connection points: 2
#     Edge 102, Type (0, 1), BuildingBlock: AJUNOK_clean_linker_0, # of connection points: 2
#     Edge 103, Type (0, 1), BuildingBlock: AJUNOK_clean_linker_0, # of connection points: 2
#     Edge 104, Type (0, 1), BuildingBlock: AJUNOK_clean_linker_0, # of connection points: 2
#     Edge 105, Type (0, 1), BuildingBlock: AJUNOK_clean_linker_0, # of connection points: 2
#     Edge 106, Type (0, 1), BuildingBlock: AJUNOK_clean_linker_0, # of connection points: 2
#     Edge 107, Type (0, 1), BuildingBlock: AJUNOK_clean_linker_0, # of connection points: 2
#     Edge 108, Type (0, 1), BuildingBlock: AJUNOK_clean_linker_0, # of connection points: 2
#     Edge 109, Type (0, 1), BuildingBlock: AJUNOK_clean_linker_0, # of connection points: 2
#     Edge 110, Type (0, 1), BuildingBlock: AJUNOK_clean_linker_0, # of connection points: 2
#     Edge 111, Type (0, 1), BuildingBlock: AJUNOK_clean_linker_0, # of connection points: 2
#     Edge 112, Type (0, 1), BuildingBlock: AJUNOK_clean_linker_0, # of connection points: 2
#     Edge 113, Type (0, 1), BuildingBlock: AJUNOK_clean_linker_0, # of connection points: 2
#     Edge 114, Type (0, 1), BuildingBlock: AJUNOK_clean_linker_0, # of connection points: 2
#     Edge 115, Type (0, 1), BuildingBlock: AJUNOK_clean_linker_0, # of connection points: 2
#     Edge 116, Type (0, 1), BuildingBlock: AJUNOK_clean_linker_0, # of connection points: 2
#     Edge 117, Type (0, 1), BuildingBlock: AJUNOK_clean_linker_0, # of connection points: 2
#     Edge 118, Type (0, 1), BuildingBlock: AJUNOK_clean_linker_0, # of connection points: 2
#     Edge 119, Type (0, 1), BuildingBlock: AJUNOK_clean_linker_0, # of connection points: 2
#     Edge 120, Type (0, 1), BuildingBlock: AJUNOK_clean_linker_0, # of connection points: 2
#     Edge 121, Type (0, 1), BuildingBlock: AJUNOK_clean_linker_0, # of connection points: 2
#     Edge 122, Type (0, 1), BuildingBlock: AJUNOK_clean_linker_0, # of connection points: 2
#     Edge 123, Type (0, 1), BuildingBlock: AJUNOK_clean_linker_0, # of connection points: 2
#     Edge 124, Type (0, 1), BuildingBlock: AJUNOK_clean_linker_0, # of connection points: 2
#     Edge 125, Type (0, 1), BuildingBlock: AJUNOK_clean_linker_0, # of connection points: 2
#     Edge 126, Type (0, 1), BuildingBlock: AJUNOK_clean_linker_0, # of connection points: 2
#     Edge 127, Type (0, 1), BuildingBlock: AJUNOK_clean_linker_0, # of connection points: 2
#     Edge 128, Type (0, 1), BuildingBlock: AJUNOK_clean_linker_0, # of connection points: 2
#     Edge 129, Type (0, 1), BuildingBlock: AJUNOK_clean_linker_0, # of connection points: 2
#     Edge 130, Type (0, 1), BuildingBlock: AJUNOK_clean_linker_0, # of connection points: 2
#     Edge 131, Type (0, 1), BuildingBlock: AJUNOK_clean_linker_0, # of connection points: 2
#     Edge 132, Type (0, 1), BuildingBlock: AJUNOK_clean_linker_0, # of connection points: 2
#     Edge 133, Type (0, 1), BuildingBlock: AJUNOK_clean_linker_0, # of connection points: 2
#     Edge 134, Type (0, 1), BuildingBlock: AJUNOK_clean_linker_0, # of connection points: 2
#     Edge 135, Type (0, 1), BuildingBlock: AJUNOK_clean_linker_0, # of connection points: 2
# Relax obj value: 0.164
# Max RMSD: 0.356
# Mean RMSD: 0.176
data_MOF--net-gar--node1-TATPOV_clean_sbu_0--node2-KUMBOL_clean_sbu_0--edge1-AJUNOK_clean_linker_0
_symmetry_space_group_name_H-M    P1
_symmetry_Int_Tables_number       1
_symmetry_cell_setting            triclinic
loop_
_symmetry_equiv_pos_as_xyz
'x, y, z'
_cell_length_a     47.393734
_cell_length_b     41.962353
_cell_length_c     42.130312
_cell_angle_alpha  101.54237
_cell_angle_beta   95.050666
_cell_angle_gamma 104.62624
loop_
_atom_site_label
_atom_site_type_symbol
_atom_site_fract_x
_atom_site_fract_y
_atom_site_fract_z
_atom_type_partial_charge
Zn0 Zn 0.11518 0.35091 0.42812 0.0
Zn1 Zn 0.15538 0.35262 0.39785 0.0
O2 O 0.16236 0.4016 0.41782 0.0
O3 O 0.14167 0.39181 0.4605 0.0
O4 O 0.18889 0.34859 0.37537 0.0
O5 O 0.11162 0.30511 0.43391 0.0
O6 O 0.15863 0.32399 0.43155 0.0
C7 C 0.15636 0.41248 0.44593 0.0
C8 C 0.0956 0.34496 0.36413 0.0
O9 O 0.12016 0.33836 0.3615 0.0
O10 O 0.08886 0.35545 0.39184 0.0
C11 C 0.19483 0.35409 0.34789 0.0
O12 O 0.17787 0.36682 0.33072 0.0
C13 C 0.13762 0.30342 0.43985 0.0
Zn14 Zn 0.98924 0.70556 0.6912 0.0
Zn15 Zn 0.01248 0.75829 0.66981 0.0
O16 O 0.97993 0.76874 0.69299 0.0
O17 O 0.96692 0.72936 0.72055 0.0
O18 O 0.02333 0.79436 0.64653 0.0
O19 O 0.03157 0.70932 0.70461 0.0
O20 O 0.04938 0.76084 0.69766 0.0
C21 C 0.96513 0.75674 0.71362 0.0
C22 C 0.98818 0.68636 0.6269 0.0
O23 O 1.00472 0.71645 0.6343 0.0
O24 O 0.97121 0.67634 0.64659 0.0
C25 C 1.00757 0.79163 0.6197 0.0
O26 O 0.98384 0.766 0.60954 0.0
C27 C 0.05321 0.7347 0.70612 0.0
Zn28 Zn 0.62075 0.86049 0.92453 0.0
Zn29 Zn 0.66018 0.85843 0.8985 0.0
O30 O 0.67409 0.9038 0.93181 0.0
O31 O 0.63043 0.90787 0.91721 0.0
O32 O 0.69266 0.85352 0.87483 0.0
O33 O 0.64013 0.84773 0.96252 0.0
O34 O 0.65221 0.81825 0.91976 0.0
C35 C 0.65666 0.92211 0.93055 0.0
C36 C 0.59983 0.83795 0.86479 0.0
O37 O 0.62574 0.8563 0.86518 0.0
O38 O 0.59461 0.82416 0.88846 0.0
C39 C 0.69334 0.84988 0.84435 0.0
O40 O 0.67129 0.85277 0.82504 0.0
C41 C 0.64752 0.82192 0.94926 0.0
Zn42 Zn 0.49075 0.20372 0.18706 0.0
Zn43 Zn 0.50905 0.25682 0.16679 0.0
O44 O 0.47448 0.26571 0.18934 0.0
O45 O 0.47066 0.22781 0.21932 0.0
O46 O 0.52377 0.29342 0.14473 0.0
O47 O 0.53361 0.20618 0.19674 0.0
O48 O 0.54615 0.26 0.19588 0.0
C49 C 0.46406 0.25317 0.21235 0.0
C50 C 0.48569 0.18532 0.1231 0.0
O51 O 0.50216 0.21547 0.13007 0.0
O52 O 0.46912 0.1756 0.14324 0.0
C53 C 0.50923 0.29661 0.1195 0.0
O54 O 0.48151 0.27895 0.11067 0.0
C55 C 0.55323 0.23397 0.20074 0.0
Zn56 Zn 0.1615 0.82731 0.08267 0.0
Zn57 Zn 0.12768 0.82652 0.12659 0.0
O58 O 0.12131 0.86845 0.10589 0.0
O59 O 0.14691 0.86828 0.0656 0.0
O60 O 0.09848 0.82636 0.15807 0.0
O61 O 0.14256 0.77288 0.06345 0.0
O62 O 0.11451 0.7741 0.10187 0.0
C63 C 0.12963 0.88155 0.08204 0.0
C64 C 0.19307 0.83667 0.15132 0.0
O65 O 0.16685 0.83359 0.15787 0.0
O66 O 0.19756 0.83733 0.12195 0.0
C67 C 0.07467 0.8343 0.15234 0.0
O68 O 0.06902 0.84348 0.12498 0.0
C69 C 0.12354 0.75661 0.07836 0.0
Zn70 Zn 0.49845 0.77104 0.4839 0.0
Zn71 Zn 0.53088 0.76987 0.4373 0.0
O72 O 0.54379 0.82086 0.46233 0.0
O73 O 0.51868 0.82435 0.50335 0.0
O74 O 0.56109 0.77105 0.40641 0.0
O75 O 0.51183 0.7293 0.49938 0.0
O76 O 0.53814 0.72993 0.45954 0.0
C77 C 0.53665 0.83924 0.48663 0.0
C78 C 0.4656 0.7635 0.41628 0.0
O79 O 0.49076 0.76345 0.40747 0.0
O80 O 0.46278 0.76421 0.44625 0.0
C81 C 0.58783 0.77609 0.41862 0.0
O82 O 0.59413 0.77932 0.4503 0.0
C83 C 0.52973 0.71684 0.48337 0.0
Zn84 Zn 0.66036 0.32681 0.58002 0.0
Zn85 Zn 0.62844 0.32849 0.62582 0.0
O86 O 0.62213 0.37028 0.60488 0.0
O87 O 0.64598 0.36737 0.563 0.0
O88 O 0.59918 0.32809 0.65738 0.0
O89 O 0.64078 0.27351 0.56034 0.0
O90 O 0.6157 0.27587 0.60147 0.0
C91 C 0.62971 0.38185 0.57996 0.0
C92 C 0.69337 0.33659 0.64853 0.0
O93 O 0.66794 0.33615 0.65657 0.0
O94 O 0.69653 0.33514 0.61849 0.0
C95 C 0.57457 0.33406 0.65079 0.0
O96 O 0.56829 0.34155 0.62267 0.0
C97 C 0.62308 0.25794 0.57689 0.0
Zn98 Zn 1.00034 0.26898 0.98352 0.0
Zn99 Zn 0.03135 0.26928 0.93647 0.0
O100 O 0.04487 0.32108 0.96228 0.0
O101 O 0.01915 0.32153 1.00302 0.0
O102 O 0.06096 0.27088 0.90456 0.0
O103 O 0.01511 0.22843 0.99911 0.0
O104 O 0.03868 0.22747 0.95694 0.0
C105 C 0.03715 0.33779 0.98729 0.0
C106 C 0.96531 0.26311 0.91791 0.0
O107 O 0.9901 0.26316 0.9079 0.0
O108 O 0.96342 0.26282 0.94788 0.0
C109 C 0.08764 0.27369 0.9155 0.0
O110 O 0.09443 0.27456 0.94663 0.0
C111 C 0.03153 0.21495 0.98156 0.0
Zn112 Zn 0.48314 0.99251 0.32776 0.0
Zn113 Zn 0.43862 0.06117 0.32937 0.0
O114 O 0.46953 0.0855 0.36747 0.0
O115 O 0.47557 0.03785 0.34415 0.0
O116 O 0.42189 0.09522 0.32092 0.0
O117 O 0.48114 1.00362 0.28298 0.0
O118 O 0.45576 0.04332 0.28712 0.0
C119 C 0.48495 0.06514 0.36573 0.0
C120 C 0.41863 0.99791 0.33629 0.0
O121 O 0.40636 0.02148 0.33739 0.0
O122 O 0.44637 1.00703 0.3378 0.0
C123 C 0.39736 0.09513 0.33023 0.0
O124 O 0.38855 0.07871 0.35264 0.0
C125 C 0.46958 0.02416 0.27123 0.0
Zn126 Zn 0.2826 0.25009 0.51968 0.0
Zn127 Zn 0.31162 0.20422 0.5171 0.0
O128 O 0.32197 0.22354 0.47653 0.0
O129 O 0.30328 0.26681 0.48174 0.0
O130 O 0.33763 0.17396 0.51933 0.0
O131 O 0.2971 0.27113 0.56963 0.0
O132 O 0.3204 0.23193 0.56535 0.0
C133 C 0.31775 0.24873 0.46625 0.0
C134 C 0.24574 0.17866 0.50755 0.0
O135 O 0.27049 0.17208 0.51017 0.0
O136 O 0.24481 0.20893 0.50885 0.0
C137 C 0.36004 0.17302 0.50509 0.0
O138 O 0.36767 0.19298 0.48509 0.0
C139 C 0.3128 0.25581 0.58324 0.0
Zn140 Zn 0.16711 0.05455 0.78628 0.0
Zn141 Zn 0.20262 1.01648 0.78055 0.0
O142 O 0.17933 0.01707 0.82893 0.0
O143 O 0.14729 0.0466 0.82643 0.0
O144 O 0.22676 0.9714 0.77765 0.0
O145 O 0.14366 0.04386 0.74102 0.0
O146 O 0.1758 1.01544 0.72861 0.0
C147 C 0.15908 0.02947 0.84226 0.0
C148 C 0.22919 0.09546 0.79063 0.0
O149 O 0.23541 0.06673 0.78782 0.0
O150 O 0.20258 0.09578 0.7916 0.0
C151 C 0.25386 0.96793 0.7786 0.0
O152 O 0.27521 0.99565 0.7812 0.0
C153 C 0.15455 0.02799 0.71871 0.0
Zn154 Zn 0.40834 0.90368 0.99835 0.0
Zn155 Zn 0.35611 0.96357 0.01297 0.0
O156 O 0.3428 0.94141 0.96409 0.0
O157 O 0.3802 0.92799 0.98378 0.0
O158 O 0.3269 0.98301 0.03033 0.0
O159 O 0.38458 0.88797 0.03256 0.0
O160 O 0.35879 0.9269 0.03905 0.0
C161 C 0.36102 0.92418 0.9597 0.0
C162 C 0.4139 0.98372 0.01788 0.0
O163 O 0.39564 1.00107 0.02118 0.0
O164 O 0.40294 0.95196 1.00892 0.0
C165 C 0.31471 0.99881 0.01354 0.0
O166 O 0.32149 1.00026 0.98419 0.0
C167 C 0.36618 0.9017 0.04657 0.0
Zn168 Zn 0.37831 0.34857 0.03886 0.0
Zn169 Zn 0.3492 0.39237 0.04399 0.0
O170 O 0.34487 0.36699 0.995 0.0
O171 O 0.36347 0.32389 0.99089 0.0
O172 O 0.31562 0.41271 0.03847 0.0
O173 O 0.36241 0.33022 0.07712 0.0
O174 O 0.33869 0.36903 0.08302 0.0
C175 C 0.3505 0.34158 0.97721 0.0
C176 C 0.41379 0.4219 0.05257 0.0
O177 O 0.38943 0.42947 0.05464 0.0
O178 O 0.41379 0.39096 0.04657 0.0
C179 C 0.31381 0.44221 0.05032 0.0
O180 O 0.33659 0.4644 0.06953 0.0
C181 C 0.34563 0.34467 0.09266 0.0
Zn182 Zn 0.77111 0.18672 0.01932 0.0
Zn183 Zn 0.80688 0.14515 0.047 0.0
O184 O 0.82339 0.16969 0.01279 0.0
O185 O 0.77984 0.14719 0.98772 0.0
O186 O 0.83601 0.12025 0.05408 0.0
O187 O 0.79109 0.21569 0.06458 0.0
O188 O 0.80613 0.17805 0.087 0.0
C189 C 0.80603 0.16168 0.98626 0.0
C190 C 0.7426 0.11583 0.0254 0.0
O191 O 0.76664 0.10999 0.03473 0.0
O192 O 0.74176 0.14454 0.02064 0.0
C193 C 0.83482 0.10121 0.02625 0.0
O194 O 0.81378 0.09857 1.0026 0.0
C195 C 0.80079 0.20652 0.08928 0.0
Zn196 Zn 0.20627 0.6112 0.21688 0.0
Zn197 Zn 0.23399 0.5545 0.22853 0.0
O198 O 0.21471 0.5518 0.26798 0.0
O199 O 0.19248 0.58848 0.25383 0.0
O200 O 0.25907 0.5259 0.22126 0.0
O201 O 0.21347 0.58346 0.17405 0.0
O202 O 0.20173 0.53749 0.19185 0.0
C203 C 0.19558 0.56808 0.27158 0.0
C204 C 0.2636 0.61904 0.21788 0.0
O205 O 0.262 0.59991 0.23753 0.0
O206 O 0.24307 0.6107 0.19405 0.0
C207 C 0.25444 0.50217 0.23579 0.0
O208 O 0.22875 0.49196 0.24541 0.0
C209 C 0.19772 0.55335 0.1703 0.0
Zn210 Zn 0.87804 0.84716 0.54173 0.0
Zn211 Zn 0.84902 0.89156 0.54192 0.0
O212 O 0.84491 0.86468 0.4939 0.0
O213 O 0.86476 0.82278 0.49251 0.0
O214 O 0.81815 0.91468 0.53402 0.0
O215 O 0.85793 0.83047 0.57965 0.0
O216 O 0.83654 0.87131 0.58227 0.0
C217 C 0.85148 0.83929 0.47743 0.0
C218 C 0.91416 0.9201 0.55401 0.0
O219 O 0.88939 0.92689 0.55167 0.0
O220 O 0.91477 0.88957 0.55183 0.0
C221 C 0.81072 0.93755 0.55308 0.0
O222 O 0.82562 0.95075 0.58262 0.0
C223 C 0.84171 0.84706 0.59373 0.0
Zn224 Zn 0.99648 0.04582 0.28013 0.0
Zn225 Zn 0.96097 0.08477 0.2846 0.0
O226 O 0.98673 0.08527 0.33637 0.0
O227 O 0.02014 0.05788 0.32561 0.0
O228 O 0.93517 0.12838 0.28436 0.0
O229 O 0.01606 0.05312 0.24007 0.0
O230 O 0.98513 0.08391 0.23695 0.0
C231 C 0.00817 0.0734 0.34702 0.0
C232 C 0.93406 1.00499 0.27366 0.0
O233 O 0.92836 0.03408 0.27709 0.0
O234 O 0.96067 1.00435 0.27328 0.0
C235 C 0.92008 0.14479 0.30336 0.0
O236 O 0.91767 0.13709 0.33189 0.0
C237 C 1.00519 0.07082 0.22409 0.0
Zn238 Zn 0.24466 0.6597 0.52269 0.0
Zn239 Zn 0.30568 0.64391 0.54648 0.0
O240 O 0.30771 0.66311 0.5057 0.0
O241 O 0.26399 0.63147 0.4888 0.0
O242 O 0.34129 0.62879 0.54975 0.0
O243 O 0.26765 0.69313 0.56765 0.0
O244 O 0.31033 0.68276 0.58119 0.0
C245 C 0.2862 0.65211 0.4829 0.0
C246 C 0.24694 0.5995 0.53377 0.0
O247 O 0.26902 0.6099 0.55597 0.0
O248 O 0.25002 0.61111 0.50851 0.0
C249 C 0.33953 0.59796 0.54788 0.0
O250 O 0.31413 0.57701 0.5493 0.0
C251 C 0.29184 0.69963 0.58689 0.0
Zn252 Zn 0.49909 0.54968 0.77973 0.0
Zn253 Zn 0.461 0.58508 0.78253 0.0
O254 O 0.48668 0.58682 0.83545 0.0
O255 O 0.52264 0.56315 0.8261 0.0
O256 O 0.43399 0.62726 0.78029 0.0
O257 O 0.51744 0.5547 0.73778 0.0
O258 O 0.4852 0.58392 0.73478 0.0
C259 C 0.50913 0.57696 0.84706 0.0
C260 C 0.43651 0.50626 0.77391 0.0
O261 O 0.42885 0.53402 0.7753 0.0
O262 O 0.46374 0.50828 0.77476 0.0
C263 C 0.42659 0.65143 0.80032 0.0
O264 O 0.43498 0.65495 0.83166 0.0
C265 C 0.50538 0.57131 0.72153 0.0
Zn266 Zn 0.71087 0.10828 0.77296 0.0
Zn267 Zn 0.72563 0.04483 0.7284 0.0
O268 O 0.70545 0.03369 0.76699 0.0
O269 O 0.73242 0.08107 0.79678 0.0
O270 O 0.74482 1.00994 0.71254 0.0
O271 O 0.68243 0.08434 0.72881 0.0
O272 O 0.69336 0.04091 0.69739 0.0
C273 C 0.71157 0.05469 0.79432 0.0
C274 C 0.76631 0.10995 0.75742 0.0
O275 O 0.75328 0.09077 0.73033 0.0
O276 O 0.75435 0.10592 0.78256 0.0
C277 C 0.77262 0.02007 0.71595 0.0
O278 O 0.78504 0.04992 0.71073 0.0
C279 C 0.67709 0.06045 0.70312 0.0
Zn280 Zn 0.78425 0.74841 0.01594 0.0
Zn281 Zn 0.81575 0.70804 0.01611 0.0
O282 O 0.82705 0.72814 0.97507 0.0
O283 O 0.80198 0.76555 0.97724 0.0
O284 O 0.84606 0.68416 0.02268 0.0
O285 O 0.79682 0.7728 0.06509 0.0
O286 O 0.82261 0.73633 0.06504 0.0
C287 C 0.81941 0.7509 0.96305 0.0
C288 C 0.7502 0.6762 1.0043 0.0
O289 O 0.77554 0.67089 1.00711 0.0
O290 O 0.74841 0.70625 1.00649 0.0
C291 C 0.85727 0.66595 1.00265 0.0
O292 O 0.84788 0.65919 0.97111 0.0
C293 C 0.81372 0.76036 0.08076 0.0
Zn294 Zn 0.98283 0.51171 0.81219 0.0
Zn295 Zn 0.94791 0.55766 0.81534 0.0
O296 O 0.97406 0.57949 0.85632 0.0
O297 O 1.00189 0.54419 0.85231 0.0
O298 O 0.92361 0.58745 0.81098 0.0
O299 O 0.99575 0.52421 0.77332 0.0
O300 O 0.96753 0.55901 0.77563 0.0
C301 C 0.99612 0.57076 0.86653 0.0
C302 C 0.92067 0.48481 0.8142 0.0
O303 O 0.91796 0.51432 0.81613 0.0
O304 O 0.94508 0.47837 0.81114 0.0
C305 C 0.90097 0.58509 0.82507 0.0
O306 O 0.89819 0.56908 0.84891 0.0
C307 C 0.98641 0.54624 0.76263 0.0
Zn308 Zn 0.92421 0.42469 0.5466 0.0
Zn309 Zn 0.85782 0.46388 0.52741 0.0
O310 O 0.86874 0.4252 0.49539 0.0
O311 O 0.90486 0.39932 0.50039 0.0
O312 O 0.82092 0.47196 0.50988 0.0
O313 O 0.88938 0.44208 0.55903 0.0
O314 O 0.84777 0.44899 0.56998 0.0
C315 C 0.88235 0.40343 0.48412 0.0
C316 C 0.91465 0.4923 0.53492 0.0
O317 O 0.89377 0.50559 0.53112 0.0
O318 O 0.90843 0.46562 0.54566 0.0
C319 C 0.82214 0.49937 0.50122 0.0
O320 O 0.8476 0.51714 0.49585 0.0
C321 C 0.86783 0.43499 0.5745 0.0
Zn322 Zn 0.66731 0.55608 0.28487 0.0
Zn323 Zn 0.70274 0.5162 0.27826 0.0
O324 O 0.67955 0.51673 0.32639 0.0
O325 O 0.64866 0.54798 0.32611 0.0
O326 O 0.72735 0.4718 0.2774 0.0
O327 O 0.64421 0.54409 0.23837 0.0
O328 O 0.67585 0.51466 0.22639 0.0
C329 C 0.66015 0.52977 0.34083 0.0
C330 C 0.72983 0.59565 0.28942 0.0
O331 O 0.73523 0.56638 0.2848 0.0
O332 O 0.70355 0.59686 0.29153 0.0
C333 C 0.75393 0.4672 0.27595 0.0
O334 O 0.77507 0.49327 0.27343 0.0
C335 C 0.65482 0.5274 0.21625 0.0
Gd336 Gd 0.11355 0.07389 0.05337 0.0
Gd337 Gd 0.04749 0.02335 0.01016 0.0
C338 C 0.01338 0.90934 1.00455 0.0
C339 C 1.00727 0.88537 0.94623 0.0
C340 C 0.02563 0.94629 0.9676 0.0
C341 C 0.0245 0.94199 0.9989 0.0
C342 C 0.01806 0.91797 0.94095 0.0
C343 C 1.00431 0.88114 0.97798 0.0
C344 C 0.01183 0.90598 0.0367 0.0
C345 C 0.02234 0.93453 0.06225 0.0
N346 N 0.0342 0.96972 0.02387 0.0
C347 C 0.03363 0.96607 0.05527 0.0
H348 H 0.04354 0.98706 0.07524 0.0
C349 C 0.03203 0.98336 0.93197 0.0
N350 N 0.03382 0.9782 0.96307 0.0
C351 C 0.02744 0.95625 0.90501 0.0
C352 C 0.02132 0.92333 0.90974 0.0
H353 H 0.03617 1.00877 0.92814 0.0
H354 H 0.9955 0.85595 0.9818 0.0
H355 H 0.11552 0.09664 0.97727 0.0
H356 H 1.00321 0.88147 0.04208 0.0
H357 H 0.02231 0.93223 0.08737 0.0
H358 H 1.00067 0.86339 0.92589 0.0
H359 H 0.11751 0.10647 0.1352 0.0
H360 H 0.1627 0.19985 0.99492 0.0
H361 H 0.13869 0.14481 0.95685 0.0
H362 H 0.16971 0.23995 0.11015 0.0
H363 H 0.02867 0.96087 0.88075 0.0
H364 H 0.01797 0.90203 0.88916 0.0
H365 H 0.1745 0.23481 0.05194 0.0
H366 H 0.12716 0.16179 0.17258 0.0
N367 N 0.12792 0.12121 0.02835 0.0
C368 C 0.15298 0.17812 1.00451 0.0
C369 C 0.13963 0.14715 0.98302 0.0
C370 C 0.15249 0.18106 0.038 0.0
C371 C 0.13953 0.15192 0.04936 0.0
C372 C 0.12704 0.11915 0.99524 0.0
N373 N 0.12578 0.12638 0.09277 0.0
C374 C 0.1376 0.15472 0.08227 0.0
C375 C 0.13077 0.16022 0.14743 0.0
C376 C 0.14293 0.1894 0.13695 0.0
C377 C 0.12407 0.1288 0.12552 0.0
C378 C 0.14751 0.1868 0.10437 0.0
H379 H 0.14935 0.21368 0.15437 0.0
O380 O 0.14937 0.0813 0.09217 0.0
O381 O 0.09058 0.01834 0.03286 0.0
O382 O 0.03825 0.03699 0.06462 0.0
O383 O 0.0806 0.07685 0.09162 0.0
O384 O 0.10586 0.03308 0.08229 0.0
O385 O 0.15411 0.06343 0.04132 0.0
O386 O 0.01261 0.03152 0.97912 0.0
O387 O 0.07037 0.07908 0.0315 0.0
O388 O 0.12438 0.05448 1.00059 0.0
O389 O 0.08015 0.01914 0.97188 0.0
O390 O 0.05534 0.06436 0.98202 0.0
O391 O 1.00492 0.0211 0.02668 0.0
C392 C 0.09549 1.00691 0.05838 0.0
C393 C 0.16134 0.21538 0.09333 0.0
C394 C 0.16409 0.21244 0.06025 0.0
C395 C 0.1663 0.07186 0.0718 0.0
C396 C 0.19766 0.08878 0.07858 0.0
C397 C 0.20988 0.12034 0.10044 0.0
C398 C 0.2159 0.0705 0.06447 0.0
C399 C 0.24625 0.08272 0.07284 0.0
C400 C 0.24053 0.13299 0.10833 0.0
C401 C 0.25881 0.11395 0.09501 0.0
C402 C 0.05311 0.05903 0.09205 0.0
C403 C 0.06572 0.0905 1.00588 0.0
C404 C 0.99441 0.02839 1.00029 0.0
C405 C 0.96326 1.0145 0.98775 0.0
C406 C 0.95263 0.98766 0.96004 0.0
C407 C 0.94448 0.03239 1.00141 0.0
C408 C 0.91525 0.02448 0.98698 0.0
C409 C 0.92311 0.97917 0.94595 0.0
C410 C 0.9045 0.9977 0.95918 0.0
C411 C 0.10871 0.0341 0.97255 0.0
H412 H 0.19591 0.13482 0.11158 0.0
H413 H 0.2064 0.04594 0.04772 0.0
H414 H 0.25007 0.15737 0.12499 0.0
H415 H 0.2825 0.12351 0.10176 0.0
H416 H 0.96721 0.97405 0.94889 0.0
H417 H 0.95313 0.05397 0.02207 0.0
H418 H 0.91486 0.95878 0.92434 0.0
H419 H 0.88185 0.99146 0.9476 0.0
Gd420 Gd 0.31392 0.81889 0.32327 0.0
Gd421 Gd 0.3471 0.79451 0.2511 0.0
C422 C 0.30841 0.69144 0.17833 0.0
C423 C 0.3481 0.6652 0.18334 0.0
C424 C 0.35186 0.72035 0.21852 0.0
C425 C 0.32439 0.71978 0.2035 0.0
C426 C 0.36424 0.69337 0.2078 0.0
C427 C 0.32023 0.66418 0.16874 0.0
C428 C 0.28096 0.69115 0.1632 0.0
C429 C 0.26983 0.71845 0.17319 0.0
N430 N 0.31353 0.74684 0.2129 0.0
C431 C 0.28617 0.74587 0.19811 0.0
H432 H 0.2755 0.76509 0.20529 0.0
C433 C 0.39654 0.7517 0.25227 0.0
N434 N 0.36733 0.74797 0.24203 0.0
C435 C 0.40952 0.72569 0.24267 0.0
C436 C 0.39312 0.69607 0.22076 0.0
H437 H 0.41057 0.77544 0.26684 0.0
H438 H 0.30814 0.64234 0.14964 0.0
H439 H 0.38761 0.8532 0.35642 0.0
H440 H 0.26806 0.66982 0.14403 0.0
H441 H 0.24828 0.71822 0.16204 0.0
H442 H 0.35728 0.64435 0.17501 0.0
H443 H 0.24794 0.83374 0.30699 0.0
H444 H 0.39606 0.95073 0.4154 0.0
H445 H 0.41759 0.90426 0.39472 0.0
H446 H 0.30001 0.96608 0.39815 0.0
H447 H 0.4325 0.72902 0.25136 0.0
H448 H 0.40343 0.67613 0.21281 0.0
H449 H 0.35221 0.97323 0.41681 0.0
H450 H 0.22391 0.8773 0.32667 0.0
N451 N 0.34813 0.86916 0.35445 0.0
C452 C 0.38246 0.92807 0.39827 0.0
C453 C 0.39462 0.90184 0.38686 0.0
C454 C 0.35296 0.9249 0.38738 0.0
C455 C 0.33622 0.89512 0.36457 0.0
C456 C 0.37709 0.87238 0.36517 0.0
N457 N 0.29134 0.86333 0.33019 0.0
C458 C 0.30706 0.89194 0.3525 0.0
C459 C 0.24744 0.88219 0.33344 0.0
C460 C 0.26355 0.9122 0.35508 0.0
C461 C 0.26156 0.85782 0.32159 0.0
C462 C 0.2936 0.91735 0.36504 0.0
H463 H 0.25238 0.9308 0.36475 0.0
O464 O 0.27083 0.79645 0.3355 0.0
O465 O 0.31154 0.77937 0.27929 0.0
O466 O 0.30995 0.81378 0.2312 0.0
O467 O 0.2853 0.82221 0.27678 0.0
O468 O 0.30685 0.76359 0.32283 0.0
O469 O 0.3079 0.82533 0.37395 0.0
O470 O 0.39237 0.82043 0.24893 0.0
O471 O 0.34985 0.83516 0.2952 0.0
O472 O 0.35142 0.80111 0.34399 0.0
O473 O 0.37247 0.78591 0.29715 0.0
O474 O 0.35046 0.84868 0.2503 0.0
O475 O 0.36224 0.79209 0.20431 0.0
C476 C 0.3083 0.75453 0.29215 0.0
C477 C 0.31009 0.9465 0.38821 0.0
C478 C 0.33976 0.95047 0.399 0.0
C479 C 0.27965 0.81045 0.36661 0.0
C480 C 0.26523 0.79495 0.39076 0.0
C481 C 0.24416 0.80864 0.4054 0.0
C482 C 0.27351 0.76864 0.401 0.0
C483 C 0.26035 0.75577 0.42584 0.0
C484 C 0.23137 0.79607 0.43053 0.0
C485 C 0.23947 0.7697 0.44084 0.0
C486 C 0.2877 0.8216 0.24529 0.0
C487 C 0.35145 0.85952 0.28139 0.0
C488 C 0.38866 0.81147 0.21706 0.0
C489 C 0.40136 0.83743 0.20028 0.0
C490 C 0.43207 0.84861 0.20201 0.0
C491 C 0.38304 0.84903 0.18035 0.0
C492 C 0.39528 0.87056 0.16106 0.0
C493 C 0.44439 0.87112 0.18341 0.0
C494 C 0.42604 0.88191 0.16271 0.0
C495 C 0.37161 0.78938 0.32923 0.0
H496 H 0.23798 0.82942 0.39773 0.0
H497 H 0.28987 0.75816 0.38963 0.0
H498 H 0.21529 0.80682 0.44205 0.0
H499 H 0.22946 0.76008 0.46042 0.0
H500 H 0.44638 0.83939 0.21719 0.0
H501 H 0.35923 0.84013 0.17853 0.0
H502 H 0.46806 0.87939 0.18429 0.0
H503 H 0.43574 0.89805 0.14713 0.0
Gd504 Gd 0.5446 0.04334 0.54496 0.0
Gd505 Gd 0.61442 0.05236 0.51591 0.0
C506 C 0.68 0.151 0.51123 0.0
C507 C 0.68192 0.14329 0.45283 0.0
C508 C 0.64969 0.09966 0.47362 0.0
C509 C 0.65913 0.11904 0.50532 0.0
C510 C 0.66138 0.11135 0.44709 0.0
C511 C 0.69113 0.16311 0.4848 0.0
C512 C 0.68924 0.16978 0.54354 0.0
C513 C 0.67821 0.15632 0.56907 0.0
N514 N 0.64811 0.10659 0.53039 0.0
C515 C 0.65786 0.12441 0.56207 0.0
H516 H 0.65002 0.11444 0.58224 0.0
C517 C 0.62169 0.04782 0.43824 0.0
N518 N 0.62968 0.06896 0.46877 0.0
C519 C 0.63278 0.05831 0.41123 0.0
C520 C 0.65252 0.09032 0.41562 0.0
H521 H 0.60661 0.02294 0.4347 0.0
H522 H 0.7071 0.18762 0.48887 0.0
H523 H 0.511 0.98239 0.47503 0.0
H524 H 0.70512 0.19449 0.54905 0.0
H525 H 0.68547 0.17043 0.5942 0.0
H526 H 0.69102 0.15278 0.43273 0.0
H527 H 0.54979 0.06821 0.62617 0.0
H528 H 0.45411 0.90045 0.50323 0.0
H529 H 0.4753 0.92708 0.46031 0.0
H530 H 0.46538 0.93579 0.61984 0.0
H531 H 0.62614 0.04167 0.38706 0.0
H532 H 0.66109 0.09837 0.39464 0.0
H533 H 0.45075 0.90383 0.56259 0.0
H534 H 0.52912 0.04588 0.67179 0.0
N535 N 0.51102 0.98876 0.52683 0.0
C536 C 0.46994 0.92521 0.51012 0.0
C537 C 0.4818 0.94015 0.48584 0.0
C538 C 0.47846 0.94247 0.54296 0.0
C539 C 0.49925 0.97468 0.55073 0.0
C540 C 0.50221 0.97205 0.49457 0.0
N541 N 0.52767 0.02355 0.58997 0.0
C542 C 0.50779 0.99256 0.58312 0.0
C543 C 0.52314 0.03053 0.64703 0.0
C544 C 0.50348 0.99823 0.64061 0.0
C545 C 0.53487 0.04303 0.62124 0.0
C546 C 0.49539 0.97891 0.60838 0.0
H547 H 0.49434 0.98864 0.66064 0.0
O548 O 0.52723 0.0858 0.55978 0.0
O549 O 0.58339 0.08178 0.53441 0.0
O550 O 0.6171 0.05987 0.57051 0.0
O551 O 0.57244 0.02804 0.58048 0.0
O552 O 0.56894 0.09497 0.57815 0.0
O553 O 0.50049 0.04207 0.52333 0.0
O554 O 0.63217 1.01037 0.4998 0.0
O555 O 0.57599 1.01411 0.52722 0.0
O556 O 0.54354 0.03539 0.49115 0.0
O557 O 0.58644 0.0691 0.48106 0.0
O558 O 0.58952 1.00178 0.48275 0.0
O559 O 0.65772 0.05262 0.53863 0.0
C560 C 0.58723 0.10638 0.55928 0.0
C561 C 0.47501 0.94673 0.60073 0.0
C562 C 0.46663 0.92854 0.56813 0.0
C563 C 0.50188 0.07152 0.54163 0.0
C564 C 0.47645 0.0759 0.55753 0.0
C565 C 0.47606 0.07627 0.59088 0.0
C566 C 0.45524 0.08651 0.54062 0.0
C567 C 0.43554 0.10091 0.55742 0.0
C568 C 0.45537 0.08853 0.60738 0.0
C569 C 0.43562 0.1015 0.591 0.0
C570 C 0.60039 0.04418 0.5892 0.0
C571 C 0.57202 0.98988 0.502 0.0
C572 C 0.6569 0.02381 0.51938 0.0
C573 C 0.68306 0.02086 0.50443 0.0
C574 C 0.68785 0.03028 0.47477 0.0
C575 C 0.70145 1.00424 0.51794 0.0
C576 C 0.72408 0.99628 0.50156 0.0
C577 C 0.71045 0.02248 0.45845 0.0
C578 C 0.72845 1.00533 0.47166 0.0
C579 C 0.55797 0.05479 0.47379 0.0
H580 H 0.49247 0.06868 0.60454 0.0
H581 H 0.45524 0.08508 0.51466 0.0
H582 H 0.45553 0.08942 0.63326 0.0
H583 H 0.42102 0.11284 0.60487 0.0
H584 H 0.67386 0.04288 0.4638 0.0
H585 H 0.69756 0.99644 0.5406 0.0
H586 H 0.71384 0.02946 0.43541 0.0
H587 H 0.74595 0.99942 0.45877 0.0
Gd588 Gd 0.36642 0.28995 0.78443 0.0
Gd589 Gd 0.29693 0.31017 0.77776 0.0
C590 C 0.24175 0.27947 0.67594 0.0
C591 C 0.23547 0.3333 0.6687 0.0
C592 C 0.26399 0.33039 0.71846 0.0
C593 C 0.25878 0.29582 0.70689 0.0
C594 C 0.25189 0.34936 0.6997 0.0
C595 C 0.23047 0.29845 0.65683 0.0
C596 C 0.23623 0.24444 0.66514 0.0
C597 C 0.24737 0.22645 0.68507 0.0
N598 N 0.26989 0.27809 0.726 0.0
C599 C 0.26401 0.2436 0.71548 0.0
H600 H 0.27333 0.2288 0.7291 0.0
C601 C 0.28236 0.37851 0.76235 0.0
N602 N 0.27981 0.34532 0.74855 0.0
C603 C 0.27098 0.39836 0.74464 0.0
C604 C 0.25595 0.38382 0.71301 0.0
H605 H 0.2932 0.38961 0.78727 0.0
H606 H 0.21747 0.28633 0.633 0.0
H607 H 0.39295 0.3723 0.83085 0.0
H608 H 0.22334 0.23105 0.64153 0.0
H609 H 0.24346 0.19933 0.67689 0.0
H610 H 0.22615 0.34753 0.65391 0.0
H611 H 0.37139 0.21127 0.77518 0.0
H612 H 0.4393 0.37009 0.92078 0.0
H613 H 0.42166 0.40185 0.88367 0.0
H614 H 0.43553 0.25355 0.91002 0.0
H615 H 0.2735 0.42474 0.75557 0.0
H616 H 0.2469 0.39919 0.69939 0.0
H617 H 0.44375 0.31472 0.93064 0.0
H618 H 0.39201 0.17673 0.80693 0.0
N619 N 0.39378 0.32262 0.83588 0.0
C620 C 0.42668 0.35658 0.89706 0.0
C621 C 0.41689 0.37458 0.87616 0.0
C622 C 0.42063 0.32144 0.88686 0.0
C623 C 0.40408 0.30496 0.85569 0.0
C624 C 0.40064 0.35728 0.84557 0.0
N625 N 0.3838 0.25536 0.81403 0.0
C626 C 0.39904 0.27039 0.84436 0.0
C627 C 0.39383 0.20292 0.81795 0.0
C628 C 0.40782 0.21735 0.85002 0.0
C629 C 0.38207 0.22246 0.80014 0.0
C630 C 0.41096 0.25158 0.86348 0.0
H631 H 0.41684 0.20213 0.86384 0.0
O632 O 0.38682 0.26632 0.74589 0.0
O633 O 0.33206 0.29813 0.74936 0.0
O634 O 0.28885 0.25502 0.78322 0.0
O635 O 0.33356 0.24269 0.79332 0.0
O636 O 0.34362 0.25303 0.73803 0.0
O637 O 0.41117 0.31458 0.77745 0.0
O638 O 0.27646 0.33259 0.81702 0.0
O639 O 0.33123 0.3017 0.81203 0.0
O640 O 0.37419 0.34429 0.77785 0.0
O641 O 0.33025 0.35855 0.77068 0.0
O642 O 0.31987 0.34672 0.82486 0.0
O643 O 0.25199 0.28516 0.78458 0.0
C644 C 0.32909 0.27167 0.72694 0.0
C645 C 0.42649 0.26768 0.89488 0.0
C646 C 0.43122 0.30251 0.90659 0.0
C647 C 0.41136 0.29036 0.7528 0.0
C648 C 0.43855 0.27995 0.74985 0.0
C649 C 0.44055 0.24869 0.75547 0.0
C650 C 0.46132 0.29957 0.73698 0.0
C651 C 0.48549 0.28753 0.72883 0.0
C652 C 0.4649 0.23717 0.74848 0.0
C653 C 0.48716 0.25629 0.73504 0.0
C654 C 0.30419 0.23373 0.78934 0.0
C655 C 0.33457 0.32768 0.8349 0.0
C656 C 0.25187 0.30865 0.80995 0.0
C657 C 0.22479 0.31947 0.81362 0.0
C658 C 0.2222 0.34937 0.80515 0.0
C659 C 0.20287 0.30209 0.82943 0.0
C660 C 0.17872 0.31477 0.83672 0.0
C661 C 0.19833 0.36185 0.81213 0.0
C662 C 0.17674 0.34474 0.82781 0.0
C663 C 0.35958 0.36659 0.77323 0.0
H664 H 0.42297 0.23252 0.76411 0.0
H665 H 0.4597 0.32359 0.73232 0.0
H666 H 0.46606 0.21283 0.75252 0.0
H667 H 0.50524 0.24608 0.7285 0.0
H668 H 0.23899 0.36374 0.79403 0.0
H669 H 0.20491 0.27926 0.8366 0.0
H670 H 0.19686 0.38525 0.80592 0.0
H671 H 0.15876 0.35543 0.83371 0.0
Gd672 Gd 0.0879 1.01164 0.51348 0.0
Gd673 Gd 0.07367 0.08468 0.54851 0.0
C674 C 0.11326 0.13743 0.65455 0.0
C675 C 0.07045 0.14755 0.67797 0.0
C676 C 0.06499 0.11636 0.62141 0.0
C677 C 0.09507 0.12001 0.62451 0.0
C678 C 0.05247 0.13058 0.64805 0.0
C679 C 0.10074 0.15088 0.68125 0.0
C680 C 0.14362 0.14155 0.65674 0.0
C681 C 0.15533 0.12927 0.6292 0.0
N682 N 0.1067 0.10741 0.59806 0.0
C683 C 0.13657 0.11286 0.59986 0.0
H684 H 0.14623 0.10401 0.57899 0.0
C685 C 0.01892 0.09946 0.58731 0.0
N686 N 0.04815 0.10035 0.59204 0.0
C687 C 1.00557 0.11283 0.61302 0.0
C688 C 0.02236 0.12828 0.64361 0.0
H689 H 1.00586 0.08888 0.56335 0.0
H690 H 0.11439 0.16439 0.70441 0.0
H691 H 0.0136 0.98882 0.4873 0.0
H692 H 0.15826 0.15468 0.67938 0.0
H693 H 0.17886 0.13277 0.63042 0.0
H694 H 0.0612 0.15864 0.69862 0.0
H695 H 0.15492 1.0101 0.49226 0.0
H696 H 0.99796 0.94305 0.38571 0.0
H697 H 0.97937 0.95999 0.43753 0.0
H698 H 0.0941 0.94835 0.35768 0.0
H699 H 0.98244 0.11175 0.60903 0.0
H700 H 0.01204 0.13907 0.66342 0.0
H701 H 0.04073 0.93909 0.35627 0.0
H702 H 0.17636 0.99258 0.44314 0.0
N703 N 0.05258 0.98929 0.46528 0.0
C704 C 0.01344 0.95604 0.40778 0.0
C705 C 1.00287 0.9654 0.43695 0.0
C706 C 0.04383 0.96285 0.40755 0.0
C707 C 0.06316 0.97974 0.43702 0.0
C708 C 0.02272 0.98174 0.46552 0.0
N709 N 0.11129 0.99959 0.46679 0.0
C710 C 0.09332 0.98512 0.43779 0.0
C711 C 0.15306 0.9908 0.44113 0.0
C712 C 0.13504 0.97707 0.41106 0.0
C713 C 0.14075 1.00132 0.46888 0.0
C714 C 0.10477 0.97351 0.40916 0.0
H715 H 0.14457 0.96832 0.38967 0.0
O716 O 0.1129 0.97567 0.51768 0.0
O717 O 0.08774 0.04129 0.56505 0.0
O718 O 0.11581 0.1002 0.52701 0.0
O719 O 0.12957 0.05123 0.51136 0.0
O720 O 0.12505 0.02613 0.55589 0.0
O721 O 0.06449 0.96043 0.51437 0.0
O722 O 0.04911 0.11879 0.53709 0.0
O723 O 0.07436 0.05521 0.49716 0.0
O724 O 0.04607 0.99668 0.53624 0.0
O725 O 0.03352 0.04595 0.55527 0.0
O726 O 0.03596 0.06764 0.50637 0.0
O727 O 0.09749 0.13667 0.55076 0.0
C728 C 0.11257 0.03919 0.57916 0.0
C729 C 0.08565 0.95747 0.37978 0.0
C730 C 0.05527 0.95217 0.37898 0.0
C731 C 0.08903 0.95184 0.51649 0.0
C732 C 0.08968 0.918 0.51818 0.0
C733 C 0.11066 0.90377 0.50401 0.0
C734 C 0.06977 0.90021 0.53516 0.0
C735 C 0.07071 0.86806 0.53798 0.0
C736 C 0.11135 0.87133 0.50656 0.0
C737 C 0.09136 0.85338 0.52353 0.0
C738 C 0.13471 0.08414 0.51591 0.0
C739 C 0.0491 0.05589 0.48312 0.0
C740 C 0.07294 0.14375 0.5428 0.0
C741 C 0.07209 0.17711 0.53971 0.0
C742 C 0.04706 0.18812 0.54548 0.0
C743 C 0.09562 0.19713 0.52872 0.0
C744 C 0.094 0.22807 0.52279 0.0
C745 C 0.04553 0.21928 0.53993 0.0
C746 C 0.0688 0.23914 0.52831 0.0
C747 C 0.02779 1.01289 0.54913 0.0
H748 H 0.12635 0.91767 0.491 0.0
H749 H 0.05397 0.91158 0.5468 0.0
H750 H 0.12752 0.86025 0.49567 0.0
H751 H 0.09235 0.82846 0.52597 0.0
H752 H 0.02865 0.17249 0.55388 0.0
H753 H 0.11467 0.18812 0.52354 0.0
H754 H 0.02608 0.22769 0.54392 0.0
H755 H 0.06672 0.26261 0.52271 0.0
Gd756 Gd 0.29985 0.77404 0.78891 0.0
Gd757 Gd 0.36638 0.82436 0.77134 0.0
C758 C 0.38605 0.93346 0.76283 0.0
C759 C 0.39888 0.92919 0.70785 0.0
C760 C 0.38235 0.87835 0.72827 0.0
C761 C 0.37923 0.89792 0.75784 0.0
C762 C 0.39245 0.89388 0.70309 0.0
C763 C 0.39577 0.94891 0.73765 0.0
C764 C 0.38308 0.9525 0.79305 0.0
C765 C 0.37304 0.93609 0.81726 0.0
N766 N 0.36984 0.88235 0.78185 0.0
C767 C 0.36629 0.90086 0.8112 0.0
H768 H 0.35799 0.88901 0.83016 0.0
C769 C 0.38292 0.82477 0.69747 0.0
N770 N 0.37689 0.84437 0.72464 0.0
C771 C 0.39214 0.83886 0.67151 0.0
C772 C 0.39675 0.87357 0.67424 0.0
H773 H 0.38141 0.79851 0.69639 0.0
H774 H 0.40111 0.97616 0.74106 0.0
H775 H 0.30287 0.70759 0.72882 0.0
H776 H 0.38826 0.97984 0.79783 0.0
H777 H 0.37031 0.95053 0.84058 0.0
H778 H 0.40673 0.94156 0.68881 0.0
H779 H 0.27629 0.79538 0.86095 0.0
H780 H 0.29412 0.62157 0.76985 0.0
H781 H 0.29977 0.64787 0.72251 0.0
H782 H 0.28006 0.66132 0.88006 0.0
H783 H 0.39654 0.82317 0.64987 0.0
H784 H 0.40453 0.88459 0.65437 0.0
H785 H 0.2876 0.62707 0.82867 0.0
H786 H 0.26775 0.77259 0.91 0.0
N787 N 0.29955 0.7167 0.78007 0.0
C788 C 0.29574 0.64827 0.77303 0.0
C789 C 0.29883 0.66296 0.74625 0.0
C790 C 0.29386 0.6679 0.80337 0.0
C791 C 0.29573 0.70251 0.80622 0.0
C792 C 0.30064 0.69725 0.75014 0.0
N793 N 0.29072 0.75421 0.83649 0.0
C794 C 0.29143 0.72186 0.8353 0.0
C795 C 0.27492 0.75829 0.88946 0.0
C796 C 0.27785 0.72611 0.88974 0.0
C797 C 0.28038 0.77147 0.86201 0.0
C798 C 0.28515 0.70701 0.86204 0.0
H799 H 0.27296 0.71558 0.91075 0.0
O800 O 0.25794 0.78262 0.79541 0.0
O801 O 0.31991 0.82637 0.77975 0.0
O802 O 0.36543 0.83603 0.82486 0.0
O803 O 0.32759 0.7953 0.83722 0.0
O804 O 0.28193 0.81979 0.79819 0.0
O805 O 0.26014 0.73985 0.75747 0.0
O806 O 0.40788 0.81349 0.76501 0.0
O807 O 0.34832 0.77514 0.78734 0.0
O808 O 0.30438 0.7638 0.73574 0.0
O809 O 0.33375 0.81281 0.72641 0.0
O810 O 0.37156 0.77169 0.74921 0.0
O811 O 0.40687 0.8571 0.80229 0.0
C812 C 0.29918 0.8416 0.78607 0.0
C813 C 0.28474 0.67308 0.85973 0.0
C814 C 0.28899 0.65355 0.83044 0.0
C815 C 0.24342 0.75665 0.77231 0.0
C816 C 0.2151 0.73856 0.7794 0.0
C817 C 0.21192 0.72961 0.80958 0.0
C818 C 0.19026 0.73723 0.75836 0.0
C819 C 0.16247 0.72793 0.7677 0.0
C820 C 0.18398 0.72019 0.81883 0.0
C821 C 0.15922 0.71947 0.79796 0.0
C822 C 0.35031 0.82206 0.84547 0.0
C823 C 0.35958 0.75424 0.76902 0.0
C824 C 0.42312 0.84004 0.78717 0.0
C825 C 0.45124 0.85853 0.77921 0.0
C826 C 0.45461 0.86234 0.74732 0.0
C827 C 0.47621 0.86461 0.80203 0.0
C828 C 0.50387 0.86704 0.79164 0.0
C829 C 0.48257 0.86961 0.7379 0.0
C830 C 0.507 0.87074 0.75951 0.0
C831 C 0.31359 0.78373 0.71626 0.0
H832 H 0.23086 0.73094 0.82638 0.0
H833 H 0.19262 0.74512 0.73548 0.0
H834 H 0.18159 0.71422 0.84246 0.0
H835 H 0.13764 0.71298 0.80559 0.0
H836 H 0.43583 0.85806 0.72925 0.0
H837 H 0.47338 0.86376 0.8271 0.0
H838 H 0.485 0.87176 0.71304 0.0
H839 H 0.52784 0.87258 0.75034 0.0
Gd840 Gd 0.57388 0.07041 0.99257 0.0
Gd841 Gd 0.59298 0.05287 0.07274 0.0
C842 C 0.67101 0.11673 0.1509 0.0
C843 C 0.69238 0.07349 0.16475 0.0
C844 C 0.65094 0.05849 0.12112 0.0
C845 C 0.64979 0.0918 0.12693 0.0
C846 C 0.67244 0.04906 0.1397 0.0
C847 C 0.69156 0.1072 0.17046 0.0
C848 C 0.67183 0.15066 0.15362 0.0
C849 C 0.65314 0.15919 0.13138 0.0
N850 N 0.62987 0.10016 0.10705 0.0
C851 C 0.63267 0.13368 0.10779 0.0
H852 H 0.61965 0.14151 0.09015 0.0
C853 C 0.63198 1.00235 0.09032 0.0
N854 N 0.63194 0.0356 0.09616 0.0
C855 C 0.65276 0.99178 0.10789 0.0
C856 C 0.67328 1.01531 0.13264 0.0
H857 H 0.61472 0.98339 0.07367 0.0
H858 H 0.70741 0.12584 0.18962 0.0
H859 H 0.5471 0.98497 0.97263 0.0
H860 H 0.68766 0.17054 0.17182 0.0
H861 H 0.65465 0.18553 0.13223 0.0
H862 H 0.7088 0.06665 0.17952 0.0
H863 H 0.56206 0.14479 0.99062 0.0
H864 H 0.46279 0.95953 0.91416 0.0
H865 H 0.50354 0.94207 0.93996 0.0
H866 H 0.44676 0.06739 0.91221 0.0
H867 H 0.65234 0.96531 0.10294 0.0
H868 H 0.68935 1.00708 0.14647 0.0
H869 H 0.44175 1.00639 0.90406 0.0
H870 H 0.52346 0.16702 0.96715 0.0
N871 N 0.53164 0.02693 0.96549 0.0
C872 C 0.48193 0.97861 0.92857 0.0
C873 C 0.50491 0.96867 0.94302 0.0
C874 C 0.48388 1.01307 0.93293 0.0
C875 C 0.50929 0.03693 0.9519 0.0
C876 C 0.52976 0.99325 0.96142 0.0
N877 N 0.53648 0.0934 0.97551 0.0
C878 C 0.51181 0.07121 0.95705 0.0
C879 C 0.5197 0.14003 0.96446 0.0
C880 C 0.49349 0.11757 0.94687 0.0
C881 C 0.54133 0.1274 0.97803 0.0
C882 C 0.48944 0.08268 0.94255 0.0
H883 H 0.47686 0.12739 0.93606 0.0
O884 O 0.59623 0.10633 0.96729 0.0
O885 O 0.60854 0.07182 0.03146 0.0
O886 O 0.57607 0.09909 0.0823 0.0
O887 O 0.55697 0.10424 0.03038 0.0
O888 O 0.6146 0.11422 0.01458 0.0
O889 O 0.58276 0.05237 0.94301 0.0
O890 O 0.57082 1.00145 0.07481 0.0
O891 O 0.55998 0.03911 0.02771 0.0
O892 O 0.59381 0.02672 0.98256 0.0
O893 O 0.61248 0.02214 0.03439 0.0
O894 O 0.54525 0.04814 0.07327 0.0
O895 O 0.58459 0.04248 0.11946 0.0
C896 C 0.62751 0.09863 0.03216 0.0
C897 C 0.46415 0.05905 0.92357 0.0
C898 C 0.46135 0.02433 0.91884 0.0
C899 C 0.59582 0.08324 0.94139 0.0
C900 C 0.59643 0.09314 0.91022 0.0
C901 C 0.58547 0.11982 0.90422 0.0
C902 C 0.61402 0.0802 0.88919 0.0
C903 C 0.62183 0.09455 0.863 0.0
C904 C 0.59252 0.13354 0.87733 0.0
C905 C 0.61093 0.12116 0.85684 0.0
C906 C 0.56106 0.11252 0.06289 0.0
C907 C 0.53776 0.03994 0.042 0.0
C908 C 0.57288 1.01015 0.10667 0.0
C909 C 0.55098 0.99143 0.12299 0.0
C910 C 0.55381 0.96023 0.12769 0.0
C911 C 0.53074 1.00608 0.13815 0.0
C912 C 0.51416 0.98998 0.15922 0.0
C913 C 0.5369 0.94384 0.14808 0.0
C914 C 0.51732 0.95871 0.16401 0.0
C915 C 0.60867 1.01343 1.0019 0.0
H916 H 0.57254 0.13085 0.92089 0.0
H917 H 0.62341 0.06042 0.89453 0.0
H918 H 0.58456 0.15454 0.87304 0.0
H919 H 0.61731 0.13285 0.8369 0.0
H920 H 0.57002 0.94924 0.11663 0.0
H921 H 0.52907 0.03057 0.13498 0.0
H922 H 0.53975 0.92022 0.15246 0.0
H923 H 0.50552 0.94642 0.18115 0.0
Gd924 Gd 0.30317 0.25072 0.26052 0.0
Gd925 Gd 0.34926 0.33505 0.2943 0.0
C926 C 0.44557 0.36895 0.27887 0.0
C927 C 0.46898 0.40028 0.33341 0.0
C928 C 0.41714 0.36946 0.32387 0.0
C929 C 0.41863 0.35927 0.29105 0.0
C930 C 0.44215 0.39097 0.34539 0.0
C931 C 0.47083 0.38909 0.30035 0.0
C932 C 0.44612 0.35921 0.2453 0.0
C933 C 0.42004 0.34116 0.22462 0.0
N934 N 0.39341 0.34141 0.27076 0.0
C935 C 0.3938 0.333 0.23774 0.0
H936 H 0.37425 0.31886 0.2212 0.0
C937 C 0.38722 0.37449 0.36529 0.0
N938 N 0.39065 0.36071 0.33423 0.0
C939 C 0.41132 0.39576 0.38773 0.0
C940 C 0.43898 0.40398 0.37776 0.0
H941 H 0.36542 0.37031 0.37225 0.0
H942 H 0.49167 0.39703 0.29149 0.0
H943 H 0.28099 0.25285 0.33834 0.0
H944 H 0.4664 0.366 0.23507 0.0
H945 H 0.42004 0.33364 0.1985 0.0
H946 H 0.48829 0.41674 0.34913 0.0
H947 H 0.27787 0.24412 0.17935 0.0
H948 H 0.19185 0.19517 0.3228 0.0
H949 H 0.23788 0.22684 0.35984 0.0
H950 H 0.16661 0.16438 0.20729 0.0
H951 H 0.40832 0.40679 0.41228 0.0
H952 H 0.45731 0.42153 0.39481 0.0
H953 H 0.16594 0.17132 0.26605 0.0
H954 H 0.23524 0.21057 0.14146 0.0
N955 N 0.261 0.2386 0.28806 0.0
C956 C 0.21086 0.20763 0.31289 0.0
C957 C 0.23681 0.22513 0.33376 0.0
C958 C 0.2099 0.20573 0.2794 0.0
C959 C 0.23514 0.2229 0.2676 0.0
C960 C 0.26177 0.23972 0.32091 0.0
N961 N 0.25887 0.23793 0.22323 0.0
C962 C 0.23433 0.22161 0.23429 0.0
C963 C 0.2344 0.21404 0.1675 0.0
C964 C 0.21007 0.19607 0.17859 0.0
C965 C 0.25865 0.23452 0.18995 0.0
C966 C 0.20937 0.20027 0.21213 0.0
H967 H 0.19241 0.17818 0.16101 0.0
O968 O 0.30957 0.21735 0.21675 0.0
O969 O 0.34739 0.28531 0.26414 0.0
O970 O 0.33014 0.33528 0.24312 0.0
O971 O 0.31243 0.2782 0.21985 0.0
O972 O 0.34575 0.23884 0.27452 0.0
O973 O 0.28494 0.19739 0.25331 0.0
O974 O 0.33441 0.37643 0.31957 0.0
O975 O 0.30234 0.30317 0.28015 0.0
O976 O 0.32085 0.25233 0.31339 0.0
O977 O 0.35458 0.30608 0.33456 0.0
O978 O 0.31677 0.32946 0.32899 0.0
O979 O 0.35736 0.38168 0.2776 0.0
C980 C 0.3631 0.26704 0.27169 0.0
C981 C 0.18515 0.18196 0.22389 0.0
C982 C 0.185 0.18551 0.25742 0.0
C983 C 0.29336 0.19085 0.22463 0.0
C984 C 0.30088 0.15952 0.21616 0.0
C985 C 0.29125 0.13918 0.18467 0.0
C986 C 0.31412 0.14784 0.24033 0.0
C987 C 0.31672 0.11505 0.23346 0.0
C988 C 0.29446 0.10662 0.17757 0.0
C989 C 0.30707 0.09423 0.2019 0.0
C990 C 0.31967 0.30995 0.21732 0.0
C991 C 0.29438 0.31113 0.30782 0.0
C992 C 0.34638 0.39639 0.30172 0.0
C993 C 0.36164 0.43139 0.31805 0.0
C994 C 0.36426 0.44298 0.35221 0.0
C995 C 0.36175 0.45406 0.29821 0.0
C996 C 0.35263 0.4826 0.31021 0.0
C997 C 0.36307 0.47583 0.36526 0.0
C998 C 0.35574 0.49519 0.34422 0.0
C999 C 0.33951 0.27552 0.33782 0.0
H1000 H 0.28087 0.14837 0.16593 0.0
H1001 H 0.32247 0.16437 0.26446 0.0
H1002 H 0.2872 0.09134 0.15327 0.0
H1003 H 0.30992 0.06899 0.19606 0.0
H1004 H 0.36379 0.42607 0.36845 0.0
H1005 H 0.35932 0.44475 0.27181 0.0
H1006 H 0.3635 0.48423 0.39128 0.0
H1007 H 0.34894 0.51741 0.35436 0.0
Gd1008 Gd 0.58877 0.51365 0.01079 0.0
Gd1009 Gd 0.57545 0.58649 0.0501 0.0
C1010 C 0.60555 0.63843 0.159 0.0
C1011 C 0.56085 0.65037 0.17554 0.0
C1012 C 0.56075 0.61998 0.11986 0.0
C1013 C 0.59019 0.62197 0.12724 0.0
C1014 C 0.54577 0.63435 0.14389 0.0
C1015 C 0.59069 0.65244 0.18306 0.0
C1016 C 0.63552 0.64091 0.16561 0.0
C1017 C 0.64952 0.6272 0.14094 0.0
N1018 N 0.604 0.60863 0.10325 0.0
C1019 C 0.63351 0.61135 0.10995 0.0
H1020 H 0.64527 0.60056 0.09204 0.0
C1021 C 0.51839 0.60469 0.08002 0.0
N1022 N 0.54692 0.60501 0.08892 0.0
C1023 C 0.50253 0.61819 0.10307 0.0
C1024 C 0.51624 0.63294 0.13522 0.0
H1025 H 0.50779 0.59371 0.05503 0.0
H1026 H 0.60216 0.66523 0.20746 0.0
H1027 H 0.51493 0.49404 0.97784 0.0
H1028 H 0.64806 0.65344 0.18959 0.0
H1029 H 0.67273 0.62882 0.14568 0.0
H1030 H 0.54973 0.66163 0.19427 0.0
H1031 H 0.65636 0.51182 0.99635 0.0
H1032 H 0.50482 0.44083 0.87899 0.0
H1033 H 0.48349 0.46315 0.92705 0.0
H1034 H 0.60277 0.44084 0.86061 0.0
H1035 H 0.47982 0.61739 0.09598 0.0
H1036 H 0.50399 0.64366 0.15299 0.0
H1037 H 0.54927 0.43297 0.85448 0.0
H1038 H 0.68096 0.49066 0.95065 0.0
N1039 N 0.5555 0.48952 0.96079 0.0
C1040 C 0.51919 0.45445 0.90168 0.0
C1041 C 0.50708 0.46685 0.92874 0.0
C1042 C 0.54966 0.45956 0.90427 0.0
C1043 C 0.5675 0.47737 0.93447 0.0
C1044 C 0.52547 0.48422 0.95808 0.0
N1045 N 0.61408 0.49776 0.96743 0.0
C1046 C 0.59764 0.48175 0.93788 0.0
C1047 C 0.65756 0.48819 0.94663 0.0
C1048 C 0.64107 0.47227 0.91592 0.0
C1049 C 0.64359 0.50038 0.97234 0.0
C1050 C 0.61072 0.46852 0.9113 0.0
H1051 H 0.65188 0.46242 0.89611 0.0
O1052 O 0.61161 0.47762 0.02149 0.0
O1053 O 0.58881 0.54164 0.06263 0.0
O1054 O 0.62287 0.59873 0.04044 0.0
O1055 O 0.62599 0.55472 0.99994 0.0
O1056 O 0.62663 0.52834 0.05304 0.0
O1057 O 0.56343 0.46514 0.01627 0.0
O1058 O 0.55566 0.62059 0.03072 0.0
O1059 O 0.57544 0.55814 0.99806 0.0
O1060 O 0.54342 0.50162 0.02651 0.0
O1061 O 0.53751 0.54791 0.06234 0.0
O1062 O 0.53713 0.56944 1.00762 0.0
O1063 O 0.60282 0.6364 0.04939 0.0
C1064 C 0.61353 0.53953 0.07667 0.0
C1065 C 0.5931 0.45125 0.88121 0.0
C1066 C 0.56265 0.44675 0.87772 0.0
C1067 C 0.58705 0.4558 0.02294 0.0
C1068 C 0.58492 0.42014 0.0141 0.0
C1069 C 0.59957 0.40594 0.99 0.0
C1070 C 0.56929 0.40048 0.03311 0.0
C1071 C 0.5686 0.3666 0.02902 0.0
C1072 C 0.59867 0.37173 0.98547 0.0
C1073 C 0.58341 0.35208 1.00509 0.0
C1074 C 0.63728 0.58566 0.01828 0.0
C1075 C 0.55017 0.55844 0.98384 0.0
C1076 C 0.58062 0.64364 0.03486 0.0
C1077 C 0.57983 0.67832 0.03952 0.0
C1078 C 0.55876 0.69041 0.05588 0.0
C1079 C 0.59782 0.69792 0.02222 0.0
C1080 C 0.59449 0.72942 0.02048 0.0
C1081 C 0.55571 0.72237 0.05447 0.0
C1082 C 0.57347 0.74187 0.03661 0.0
C1083 C 0.52792 0.51576 0.04677 0.0
H1084 H 0.61193 0.42124 0.97527 0.0
H1085 H 0.55858 0.41204 0.05223 0.0
H1086 H 0.61012 0.36057 0.9671 0.0
H1087 H 0.58318 0.32574 1.00168 0.0
H1088 H 0.54424 0.67488 0.06875 0.0
H1089 H 0.61355 0.68807 1.00883 0.0
H1090 H 0.5392 0.7317 0.06657 0.0
H1091 H 0.57056 0.76629 0.03492 0.0
Gd1092 Gd 0.80004 0.27688 0.29516 0.0
Gd1093 Gd 0.86632 0.325 0.27619 0.0
C1094 C 0.87099 0.42976 0.26044 0.0
C1095 C 0.88352 0.42503 0.20531 0.0
C1096 C 0.87496 0.37603 0.22943 0.0
C1097 C 0.86935 0.39528 0.25789 0.0
C1098 C 0.88266 0.39096 0.20313 0.0
C1099 C 0.8777 0.44436 0.23386 0.0
C1100 C 0.86639 0.44878 0.28988 0.0
C1101 C 0.86077 0.43352 0.31606 0.0
N1102 N 0.86354 0.38079 0.28355 0.0
C1103 C 0.8597 0.39943 0.31256 0.0
H1104 H 0.85564 0.38824 0.33308 0.0
C1105 C 0.88474 0.3253 0.203 0.0
N1106 N 0.875 0.34346 0.22833 0.0
C1107 C 0.89198 0.33882 0.1761 0.0
C1108 C 0.89062 0.37167 0.176 0.0
H1109 H 0.88637 0.30015 0.20347 0.0
H1110 H 0.879 0.47078 0.23539 0.0
H1111 H 0.81451 0.2183 0.23352 0.0
H1112 H 0.86744 0.47531 0.29276 0.0
H1113 H 0.85742 0.44804 0.33902 0.0
H1114 H 0.88939 0.43693 0.18534 0.0
H1115 H 0.79427 0.29619 0.37762 0.0
H1116 H 0.7872 0.1227 0.25779 0.0
H1117 H 0.80545 0.15708 0.21881 0.0
H1118 H 0.76665 0.14971 0.36729 0.0
H1119 H 0.89895 0.32409 0.15569 0.0
H1120 H 0.89672 0.3823 0.15535 0.0
H1121 H 0.77228 0.12022 0.31274 0.0
H1122 H 0.78153 0.2657 0.41976 0.0
N1123 N 0.80147 0.22 0.281 0.0
C1124 C 0.79129 0.14994 0.26463 0.0
C1125 C 0.80149 0.1692 0.24255 0.0
C1126 C 0.78702 0.16607 0.29549 0.0
C1127 C 0.79278 0.20168 0.30333 0.0
C1128 C 0.80624 0.2042 0.25103 0.0
N1129 N 0.79634 0.25285 0.34167 0.0
C1130 C 0.7902 0.2185 0.33445 0.0
C1131 C 0.78445 0.25214 0.39612 0.0
C1132 C 0.77833 0.21709 0.38902 0.0
C1133 C 0.79291 0.26959 0.37208 0.0
C1134 C 0.78097 0.1998 0.35795 0.0
H1135 H 0.7711 0.20356 0.40753 0.0
O1136 O 0.7613 0.27605 0.31738 0.0
O1137 O 0.81999 0.3281 0.28401 0.0
O1138 O 0.87075 0.33399 0.33054 0.0
O1139 O 0.82294 0.31447 0.3402 0.0
O1140 O 0.77851 0.31936 0.29517 0.0
O1141 O 0.75682 0.24906 0.26562 0.0
O1142 O 0.90855 0.31539 0.27099 0.0
O1143 O 0.84913 0.27695 0.29529 0.0
O1144 O 0.79689 0.26636 0.2411 0.0
O1145 O 0.83549 0.30616 0.22886 0.0
O1146 O 0.8719 0.27293 0.25565 0.0
O1147 O 0.90698 0.36289 0.30147 0.0
C1148 C 0.79814 0.34211 0.28689 0.0
C1149 C 0.77417 0.16438 0.34968 0.0
C1150 C 0.77728 0.14758 0.3186 0.0
C1151 C 0.74388 0.2576 0.29097 0.0
C1152 C 0.71242 0.24589 0.29237 0.0
C1153 C 0.70303 0.23954 0.32182 0.0
C1154 C 0.69174 0.24462 0.26594 0.0
C1155 C 0.66187 0.23751 0.26936 0.0
C1156 C 0.6732 0.2321 0.32491 0.0
C1157 C 0.65265 0.23117 0.2988 0.0
C1158 C 0.85057 0.33112 0.34986 0.0
C1159 C 0.86155 0.25684 0.27717 0.0
C1160 C 0.9236 0.34442 0.28956 0.0
C1161 C 0.9513 0.36058 0.27899 0.0
C1162 C 0.95226 0.37376 0.25092 0.0
C1163 C 0.97723 0.3576 0.29494 0.0
C1164 C 1.00372 0.3649 0.28178 0.0
C1165 C 0.97874 0.38228 0.23823 0.0
C1166 C 1.0043 0.37733 0.25321 0.0
C1167 C 0.81111 0.2811 0.22028 0.0
H1168 H 0.71882 0.2409 0.34262 0.0
H1169 H 0.69886 0.25029 0.24342 0.0
H1170 H 0.66604 0.22756 0.3477 0.0
H1171 H 0.62953 0.22593 0.30163 0.0
H1172 H 0.93271 0.3768 0.23842 0.0
H1173 H 0.97636 0.34792 0.31697 0.0
H1174 H 0.97923 0.39172 0.21612 0.0
H1175 H 0.02413 0.38233 0.24194 0.0
Gd1176 Gd 0.0764 0.57668 0.4944 0.0
Gd1177 Gd 0.08887 0.5449 0.5679 0.0
C1178 C 0.16771 0.60278 0.64827 0.0
C1179 C 0.19685 0.56267 0.64511 0.0
C1180 C 0.15143 0.54993 0.60721 0.0
C1181 C 0.14701 0.58081 0.62157 0.0
C1182 C 0.17609 0.54038 0.61939 0.0
C1183 C 0.1926 0.59368 0.6596 0.0
C1184 C 0.1632 0.63364 0.66279 0.0
C1185 C 0.13948 0.64297 0.64975 0.0
N1186 N 0.12271 0.58928 0.6099 0.0
C1187 C 0.11982 0.62097 0.6231 0.0
H1188 H 0.10316 0.63112 0.61375 0.0
C1189 C 0.13198 0.49548 0.57239 0.0
N1190 N 0.13089 0.52824 0.5828 0.0
C1191 C 0.15611 0.4852 0.58325 0.0
C1192 C 0.17858 0.50797 0.60646 0.0
H1193 H 0.11422 0.47704 0.55525 0.0
H1194 H 0.20868 0.61047 0.67977 0.0
H1195 H 0.05042 0.49058 0.46733 0.0
H1196 H 0.17851 0.65099 0.68331 0.0
H1197 H 0.13652 0.66754 0.65993 0.0
H1198 H 0.21592 0.55576 0.65456 0.0
H1199 H 0.06134 0.65088 0.50058 0.0
H1200 H 0.96865 0.46788 0.40524 0.0
H1201 H 0.00899 0.44928 0.43024 0.0
H1202 H 0.9498 0.57581 0.41354 0.0
H1203 H 0.15709 0.45955 0.57407 0.0
H1204 H 0.19714 0.4998 0.61525 0.0
H1205 H 0.94668 0.51513 0.39938 0.0
H1206 H 0.02209 0.6736 0.47974 0.0
N1207 N 0.03552 0.5336 0.4623 0.0
C1208 C 0.98725 0.48647 0.42115 0.0
C1209 C 0.01 0.47591 0.43511 0.0
C1210 C 0.98852 0.52085 0.42836 0.0
C1211 C 0.01323 0.54408 0.44928 0.0
C1212 C 0.03393 0.49979 0.45582 0.0
N1213 N 0.0383 0.59951 0.47871 0.0
C1214 C 0.01472 0.57808 0.45768 0.0
C1215 C 0.01955 0.64663 0.47362 0.0
C1216 C 0.99451 0.6247 0.45323 0.0
C1217 C 0.04155 0.63361 0.4857 0.0
C1218 C 0.99194 0.59001 0.44475 0.0
H1219 H 0.97751 0.63486 0.44379 0.0
O1220 O 0.0973 0.61901 0.47538 0.0
O1221 O 0.10831 0.57283 0.53381 0.0
O1222 O 0.06837 0.58749 0.58307 0.0
O1223 O 0.0601 0.60716 0.53515 0.0
O1224 O 0.11732 0.61809 0.52275 0.0
O1225 O 0.0906 0.56702 0.44632 0.0
O1226 O 0.06517 0.49169 0.56091 0.0
O1227 O 0.05811 0.53903 0.5224 0.0
O1228 O 0.09552 0.53404 0.47738 0.0
O1229 O 0.10902 0.5206 0.52645 0.0
O1230 O 0.04042 0.53911 0.56611 0.0
O1231 O 0.0855 0.5225 0.60943 0.0
C1232 C 0.12735 0.60077 0.54073 0.0
C1233 C 0.96749 0.56709 0.42367 0.0
C1234 C 0.96575 0.53257 0.41554 0.0
C1235 C 0.10015 0.59952 0.44842 0.0
C1236 C 0.11323 0.61401 0.42284 0.0
C1237 C 0.11286 0.64693 0.42084 0.0
C1238 C 0.12535 0.59478 0.39973 0.0
C1239 C 0.13642 0.60817 0.37424 0.0
C1240 C 0.12418 0.66033 0.39543 0.0
C1241 C 0.1358 0.64094 0.372 0.0
C1242 C 0.05897 0.60776 0.56658 0.0
C1243 C 0.03458 0.53684 0.5351 0.0
C1244 C 0.06833 0.49348 0.59232 0.0
C1245 C 0.04181 0.48058 0.60597 0.0
C1246 C 0.03115 0.44595 0.60466 0.0
C1247 C 0.02954 0.50366 0.62438 0.0
C1248 C 0.00906 0.49291 0.64423 0.0
C1249 C 0.00893 0.43477 0.62287 0.0
C1250 C 0.99823 0.45827 0.64315 0.0
C1251 C 0.10778 0.5168 0.49449 0.0
H1252 H 0.10341 0.66205 0.43857 0.0
H1253 H 0.12575 0.56936 0.40117 0.0
H1254 H 0.1237 0.68559 0.39375 0.0
H1255 H 0.14436 0.65144 0.35216 0.0
H1256 H 0.04072 0.42787 0.59061 0.0
H1257 H 0.03811 0.53057 0.62603 0.0
H1258 H 1.0011 0.40813 0.62257 0.0
H1259 H 0.98283 0.4497 0.65924 0.0
Gd1260 Gd 0.86407 0.78915 0.27762 0.0
Gd1261 Gd 0.79598 0.81052 0.28206 0.0
C1262 C 0.73371 0.77386 0.18398 0.0
C1263 C 0.73365 0.82684 0.16931 0.0
C1264 C 0.76254 0.82678 0.22004 0.0
C1265 C 0.75399 0.79183 0.2125 0.0
C1266 C 0.75164 0.84466 0.19902 0.0
C1267 C 0.72456 0.79147 0.16188 0.0
C1268 C 0.72202 0.7389 0.17925 0.0
C1269 C 0.73024 0.72271 0.20279 0.0
N1270 N 0.76315 0.77557 0.2345 0.0
C1271 C 0.75084 0.74137 0.23022 0.0
H1272 H 0.75567 0.72771 0.24788 0.0
C1273 C 0.78163 0.87698 0.26109 0.0
N1274 N 0.77873 0.84327 0.24957 0.0
C1275 C 0.77201 0.89593 0.24096 0.0
C1276 C 0.75753 0.8798 0.2094 0.0
H1277 H 0.79118 0.88925 0.28617 0.0
H1278 H 0.70949 0.77802 0.13964 0.0
H1279 H 0.90055 0.87182 0.31754 0.0
H1280 H 0.70606 0.72438 0.15802 0.0
H1281 H 0.72078 0.69576 0.19983 0.0
H1282 H 0.7254 0.84018 0.15272 0.0
H1283 H 0.86917 0.70981 0.27175 0.0
H1284 H 0.9404 0.87194 0.41169 0.0
H1285 H 0.92856 0.90264 0.37042 0.0
H1286 H 0.92648 0.75469 0.40922 0.0
H1287 H 0.7752 0.92279 0.25006 0.0
H1288 H 0.74952 0.8944 0.194 0.0
H1289 H 0.93889 0.8167 0.42619 0.0
H1290 H 0.88423 0.6753 0.30733 0.0
N1291 N 0.89423 0.82258 0.32753 0.0
C1292 C 0.92758 0.85789 0.38822 0.0
C1293 C 0.92097 0.87527 0.36501 0.0
C1294 C 0.9185 0.82254 0.38041 0.0
C1295 C 0.90186 0.80537 0.34942 0.0
C1296 C 0.90456 0.85724 0.33466 0.0
N1297 N 0.88021 0.75497 0.30946 0.0
C1298 C 0.89453 0.77049 0.3401 0.0
C1299 C 0.88684 0.70193 0.3171 0.0
C1300 C 0.89938 0.71701 0.34954 0.0
C1301 C 0.87803 0.72154 0.29714 0.0
C1302 C 0.9041 0.75184 0.36118 0.0
H1303 H 0.9065 0.70185 0.36492 0.0
O1304 O 0.88388 0.76196 0.24102 0.0
O1305 O 0.82758 0.7996 0.24745 0.0
O1306 O 0.79026 0.75723 0.29223 0.0
O1307 O 0.83104 0.73929 0.27904 0.0
O1308 O 0.83811 0.75499 0.23063 0.0
O1309 O 0.90728 0.81334 0.26629 0.0
O1310 O 0.77719 0.83918 0.31886 0.0
O1311 O 0.83245 0.80024 0.31181 0.0
O1312 O 0.87118 0.8428 0.2685 0.0
O1313 O 0.82947 0.86015 0.27886 0.0
O1314 O 0.8225 0.84585 0.32781 0.0
O1315 O 0.75425 0.7869 0.29719 0.0
C1316 C 0.82251 0.77423 0.22315 0.0
C1317 C 0.91927 0.76866 0.3926 0.0
C1318 C 0.9264 0.80395 0.40223 0.0
C1319 C 0.90793 0.7864 0.24514 0.0
C1320 C 0.93568 0.77696 0.24509 0.0
C1321 C 0.93771 0.74595 0.25143 0.0
C1322 C 0.95932 0.79738 0.23423 0.0
C1323 C 0.98418 0.78609 0.22782 0.0
C1324 C 0.96287 0.73532 0.24659 0.0
C1325 C 0.98586 0.75501 0.2345 0.0
C1326 C 0.804 0.73303 0.28668 0.0
C1327 C 0.8375 0.82611 0.33546 0.0
C1328 C 0.75393 0.81444 0.31763 0.0
C1329 C 0.72573 0.82305 0.31877 0.0
C1330 C 0.72085 0.84987 0.30589 0.0
C1331 C 0.70446 0.80623 0.33556 0.0
C1332 C 0.67866 0.81647 0.33964 0.0
C1333 C 0.69528 0.85993 0.30974 0.0
C1334 C 0.67431 0.84342 0.32651 0.0
C1335 C 0.85711 0.86675 0.27264 0.0
H1336 H 0.91958 0.72932 0.25899 0.0
H1337 H 0.95775 0.8214 0.22954 0.0
H1338 H 0.9641 0.71115 0.25106 0.0
H1339 H 1.00448 0.7453 0.22929 0.0
H1340 H 0.73698 0.8636 0.29348 0.0
H1341 H 0.7082 0.78567 0.34582 0.0
H1342 H 0.69193 0.88097 0.30013 0.0
H1343 H 0.65491 0.85219 0.32986 0.0
Gd1344 Gd 0.80944 0.31474 0.82219 0.0
Gd1345 Gd 0.84564 0.29081 0.75204 0.0
C1346 C 0.80796 0.18825 0.67812 0.0
C1347 C 0.84813 0.16267 0.68287 0.0
C1348 C 0.85099 0.21711 0.71877 0.0
C1349 C 0.82368 0.21648 0.70349 0.0
C1350 C 0.86381 0.19059 0.70784 0.0
C1351 C 0.82022 0.16143 0.66815 0.0
C1352 C 0.78036 0.18769 0.66313 0.0
C1353 C 0.76875 0.21449 0.67366 0.0
N1354 N 0.81264 0.24337 0.71297 0.0
C1355 C 0.78498 0.24193 0.69859 0.0
H1356 H 0.77374 0.2604 0.70663 0.0
C1357 C 0.89534 0.24892 0.75276 0.0
N1358 N 0.8661 0.24467 0.74246 0.0
C1359 C 0.90876 0.2233 0.74314 0.0
C1360 C 0.89274 0.19365 0.72099 0.0
H1361 H 0.909 0.27278 0.7676 0.0
H1362 H 0.80847 0.13981 0.64866 0.0
H1363 H 0.88002 0.34664 0.86919 0.0
H1364 H 0.76769 0.16648 0.6437 0.0
H1365 H 0.74699 0.21391 0.66282 0.0
H1366 H 0.85768 0.14221 0.67425 0.0
H1367 H 0.74499 0.32999 0.80384 0.0
H1368 H 0.88538 0.44368 0.92562 0.0
H1369 H 0.90615 0.39542 0.9113 0.0
H1370 H 0.79466 0.46425 0.89141 0.0
H1371 H 0.93175 0.22696 0.75201 0.0
H1372 H 0.90337 0.17405 0.71295 0.0
H1373 H 0.84422 0.4691 0.91771 0.0
H1374 H 0.72122 0.37521 0.81738 0.0
N1375 N 0.84199 0.36396 0.85873 0.0
C1376 C 0.87312 0.42165 0.90681 0.0
C1377 C 0.88475 0.39436 0.89906 0.0
C1378 C 0.84579 0.42018 0.89038 0.0
C1379 C 0.83062 0.39094 0.8658 0.0
C1380 C 0.8689 0.36571 0.87523 0.0
N1381 N 0.78793 0.36005 0.82742 0.0
C1382 C 0.80296 0.38887 0.84985 0.0
C1383 C 0.74445 0.3799 0.82587 0.0
C1384 C 0.76018 0.41053 0.84673 0.0
C1385 C 0.75843 0.35461 0.8173 0.0
C1386 C 0.78948 0.41508 0.85965 0.0
H1387 H 0.74903 0.42981 0.85412 0.0
O1388 O 0.76522 0.28829 0.82866 0.0
O1389 O 0.8088 0.27485 0.77855 0.0
O1390 O 0.8091 0.30936 0.72979 0.0
O1391 O 0.78369 0.32002 0.77429 0.0
O1392 O 0.80459 0.2604 0.82303 0.0
O1393 O 0.79679 0.32159 0.87017 0.0
O1394 O 0.89123 0.31883 0.75378 0.0
O1395 O 0.84616 0.3308 0.79565 0.0
O1396 O 0.84704 0.29711 0.8442 0.0
O1397 O 0.8701 0.28227 0.79886 0.0
O1398 O 0.8478 0.34431 0.75046 0.0
O1399 O 0.86399 0.29076 0.70712 0.0
C1400 C 0.80558 0.25052 0.79228 0.0
C1401 C 0.80478 0.44409 0.88365 0.0
C1402 C 0.83292 0.44675 0.89876 0.0
C1403 C 0.77018 0.30168 0.86012 0.0
C1404 C 0.75918 0.28013 0.88176 0.0
C1405 C 0.73285 0.28163 0.89394 0.0
C1406 C 0.77661 0.2616 0.89366 0.0
C1407 C 0.76793 0.24507 0.91813 0.0
C1408 C 0.72408 0.26475 0.91832 0.0
C1409 C 0.74167 0.24657 0.93058 0.0
C1410 C 0.78682 0.31846 0.74275 0.0
C1411 C 0.84753 0.35468 0.78139 0.0
C1412 C 0.88979 0.31022 0.72204 0.0
C1413 C 0.90486 0.33598 0.70617 0.0
C1414 C 0.93579 0.34583 0.71036 0.0
C1415 C 0.88885 0.34831 0.68448 0.0
C1416 C 0.90371 0.369 0.66584 0.0
C1417 C 0.95064 0.36738 0.69221 0.0
C1418 C 0.93462 0.37864 0.6696 0.0
C1419 C 0.86851 0.28638 0.83092 0.0
H1420 H 0.71956 0.29656 0.88524 0.0
H1421 H 0.79732 0.26098 0.88481 0.0
H1422 H 0.70391 0.26616 0.92802 0.0
H1423 H 0.73492 0.23378 0.94974 0.0
H1424 H 0.94837 0.33619 0.72703 0.0
H1425 H 0.86492 0.34066 0.68093 0.0
H1426 H 0.97448 0.37471 0.69512 0.0
H1427 H 0.94618 0.39458 0.65488 0.0
Gd1428 Gd 0.80182 0.75296 0.75694 0.0
Gd1429 Gd 0.85212 0.83678 0.79519 0.0
C1430 C 0.9472 0.8774 0.77774 0.0
C1431 C 0.9724 0.89884 0.8332 0.0
C1432 C 0.92073 0.86687 0.82303 0.0
C1433 C 0.92078 0.86412 0.78971 0.0
C1434 C 0.94641 0.8854 0.84524 0.0
C1435 C 0.97307 0.89401 0.79964 0.0
C1436 C 0.94659 0.87569 0.74428 0.0
C1437 C 0.91981 0.86309 0.72378 0.0
N1438 N 0.89476 0.851 0.7693 0.0
C1439 C 0.89403 0.85182 0.7368 0.0
H1440 H 0.87407 0.8427 0.71978 0.0
C1441 C 0.89334 0.86106 0.86683 0.0
N1442 N 0.89502 0.85452 0.83394 0.0
C1443 C 0.91809 0.87942 0.88966 0.0
C1444 C 0.9447 0.89174 0.87881 0.0
H1445 H 0.87239 0.85338 0.87545 0.0
H1446 H 0.99336 0.9049 0.79094 0.0
H1447 H 0.77379 0.75511 0.83027 0.0
H1448 H 0.96647 0.88527 0.73425 0.0
H1449 H 0.91886 0.86242 0.69788 0.0
H1450 H 0.99195 0.91408 0.84935 0.0
H1451 H 0.78591 0.72979 0.67616 0.0
H1452 H 0.68473 0.69627 0.81051 0.0
H1453 H 0.72841 0.73185 0.84958 0.0
H1454 H 0.66936 0.65247 0.69508 0.0
H1455 H 0.91638 0.88504 0.91552 0.0
H1456 H 0.96336 0.90714 0.89659 0.0
H1457 H 0.66334 0.66563 0.75298 0.0
H1458 H 0.74506 0.6939 0.63375 0.0
N1459 N 0.75683 0.73711 0.77907 0.0
C1460 C 0.70465 0.70769 0.80146 0.0
C1461 C 0.72923 0.7276 0.82351 0.0
C1462 C 0.70645 0.70175 0.76804 0.0
C1463 C 0.73283 0.71764 0.75744 0.0
C1464 C 0.75532 0.74116 0.81198 0.0
N1465 N 0.76094 0.72702 0.71549 0.0
C1466 C 0.73514 0.71203 0.72462 0.0
C1467 C 0.7418 0.69912 0.65917 0.0
C1468 C 0.71523 0.68346 0.66836 0.0
C1469 C 0.76468 0.72029 0.68323 0.0
C1470 C 0.71179 0.68933 0.70141 0.0
H1471 H 0.69773 0.66652 0.64985 0.0
O1472 O 0.81177 0.71119 0.72543 0.0
O1473 O 0.84801 0.7848 0.76993 0.0
O1474 O 0.83263 0.83577 0.743 0.0
O1475 O 0.79611 0.78478 0.72029 0.0
O1476 O 0.83443 0.75698 0.72174 0.0
O1477 O 0.81034 0.71232 0.77714 0.0
O1478 O 0.84654 0.87717 0.83258 0.0
O1479 O 0.80528 0.80617 0.78038 0.0
O1480 O 0.81683 0.75803 0.81139 0.0
O1481 O 0.85995 0.8022 0.82814 0.0
O1482 O 0.81804 0.83447 0.82837 0.0
O1483 O 0.85566 0.88566 0.78383 0.0
C1484 C 0.85621 0.77707 0.74261 0.0
C1485 C 0.68634 0.67206 0.71205 0.0
C1486 C 0.68327 0.67897 0.74517 0.0
C1487 C 0.81295 0.69525 0.74864 0.0
C1488 C 0.79897 0.65905 0.74054 0.0
C1489 C 0.78165 0.64155 0.7103 0.0
C1490 C 0.80842 0.64131 0.76166 0.0
C1491 C 0.80401 0.60662 0.75156 0.0
C1492 C 0.77544 0.60623 0.70098 0.0
C1493 C 0.78751 0.58883 0.72109 0.0
C1494 C 0.81285 0.8148 0.71837 0.0
C1495 C 0.79634 0.81498 0.80712 0.0
C1496 C 0.85246 0.89833 0.81385 0.0
C1497 C 0.85311 0.93326 0.8253 0.0
C1498 C 0.86613 0.95183 0.85702 0.0
C1499 C 0.83962 0.94787 0.80405 0.0
C1500 C 0.83831 0.98087 0.81425 0.0
C1501 C 0.86562 0.98555 0.86698 0.0
C1502 C 0.85154 1.00018 0.84558 0.0
C1503 C 0.83999 0.77614 0.83346 0.0
H1504 H 0.77415 0.6552 0.69362 0.0
H1505 H 0.82286 0.6552 0.78438 0.0
H1506 H 0.76275 0.59241 0.67751 0.0
H1507 H 0.7851 0.56205 0.71244 0.0
H1508 H 0.87669 0.94038 0.87376 0.0
H1509 H 0.82913 0.93313 0.7797 0.0
H1510 H 0.8758 1.00018 0.89126 0.0
H1511 H 0.85049 0.02599 0.8535 0.0
Gd1512 Gd 0.61653 0.57549 0.55252 0.0
Gd1513 Gd 0.55022 0.52711 0.50984 0.0
C1514 C 0.51384 0.41734 0.51808 0.0
C1515 C 0.50107 0.38738 0.46099 0.0
C1516 C 0.52517 0.448 0.47573 0.0
C1517 C 0.52585 0.44784 0.50854 0.0
C1518 C 0.51295 0.41766 0.45159 0.0
C1519 C 0.50135 0.38727 0.49416 0.0
C1520 C 0.51431 0.41791 0.55137 0.0
C1521 C 0.52683 0.44821 0.5743 0.0
N1522 N 0.53757 0.47748 0.53108 0.0
C1523 C 0.53825 0.4777 0.56376 0.0
H1524 H 0.54879 0.50007 0.58238 0.0
C1525 C 0.5322 0.47933 0.43502 0.0
N1526 N 0.53537 0.47789 0.46724 0.0
C1527 C 0.52197 0.44993 0.41045 0.0
C1528 C 0.51242 0.41878 0.41863 0.0
H1529 H 0.53838 0.50335 0.42809 0.0
H1530 H 0.49179 0.36378 0.50109 0.0
H1531 H 0.62542 0.5982 0.47771 0.0
H1532 H 0.50523 0.3951 0.55963 0.0
H1533 H 0.52781 0.44895 0.60022 0.0
H1534 H 0.49125 0.36399 0.44276 0.0
H1535 H 0.61867 0.60855 0.63479 0.0
H1536 H 0.6841 0.69658 0.49945 0.0
H1537 H 0.65976 0.64227 0.46039 0.0
H1538 H 0.68 0.73963 0.612 0.0
H1539 H 0.52178 0.45189 0.38535 0.0
H1540 H 0.50392 0.39594 0.39941 0.0
H1541 H 0.69048 0.7329 0.55541 0.0
H1542 H 0.62946 0.664 0.67206 0.0
N1543 N 0.63399 0.6226 0.52863 0.0
C1544 C 0.67004 0.6762 0.50783 0.0
C1545 C 0.65663 0.64557 0.48587 0.0
C1546 C 0.66441 0.68053 0.54012 0.0
C1547 C 0.64656 0.6528 0.55012 0.0
C1548 C 0.63786 0.6196 0.49642 0.0
N1549 N 0.62796 0.62805 0.59224 0.0
C1550 C 0.64214 0.65603 0.5824 0.0
C1551 C 0.63346 0.66213 0.64698 0.0
C1552 C 0.64771 0.69085 0.63706 0.0
C1553 C 0.62581 0.63066 0.62495 0.0
C1554 C 0.65345 0.6878 0.60487 0.0
H1555 H 0.65523 0.71494 0.65474 0.0
O1556 O 0.65264 0.58325 0.59113 0.0
O1557 O 0.59326 0.52004 0.53142 0.0
O1558 O 0.53898 0.54501 0.56239 0.0
O1559 O 0.5838 0.57723 0.59134 0.0
O1560 O 0.6105 0.53437 0.58064 0.0
O1561 O 0.65897 0.57134 0.5394 0.0
O1562 O 0.51657 0.5322 0.47506 0.0
O1563 O 0.5738 0.58277 0.53143 0.0
O1564 O 0.62609 0.55349 0.49959 0.0
O1565 O 0.58154 0.52005 0.47057 0.0
O1566 O 0.55839 0.5695 0.48243 0.0
O1567 O 0.50532 0.52097 0.52186 0.0
C1568 C 0.59899 0.50848 0.55671 0.0
C1569 C 0.67068 0.71539 0.59486 0.0
C1570 C 0.67661 0.71158 0.56269 0.0
C1571 C 0.67057 0.57884 0.57006 0.0
C1572 C 0.70126 0.58088 0.58022 0.0
C1573 C 0.71612 0.60231 0.61005 0.0
C1574 C 0.71659 0.56397 0.55892 0.0
C1575 C 0.74673 0.56825 0.56757 0.0
C1576 C 0.74632 0.60777 0.61804 0.0
C1577 C 0.76159 0.59046 0.59726 0.0
C1578 C 0.55497 0.56391 0.59062 0.0
C1579 C 0.56976 0.59532 0.50644 0.0
C1580 C 0.49655 0.52683 0.49396 0.0
C1581 C 0.46569 0.51971 0.48059 0.0
C1582 C 0.45419 0.50039 0.44868 0.0
C1583 C 0.44823 0.53567 0.49937 0.0
C1584 C 0.41956 0.53309 0.48622 0.0
C1585 C 0.42521 0.49742 0.43572 0.0
C1586 C 0.40795 0.51399 0.4544 0.0
C1587 C 0.61027 0.53384 0.4713 0.0
H1588 H 0.70453 0.61559 0.62661 0.0
H1589 H 0.70523 0.54802 0.53543 0.0
H1590 H 0.75797 0.62576 0.64015 0.0
H1591 H 0.78498 0.59448 0.60434 0.0
H1592 H 0.46766 0.48814 0.43376 0.0
H1593 H 0.4573 0.55121 0.52378 0.0
H1594 H 0.41635 0.48274 0.41109 0.0
H1595 H 0.38573 0.51232 0.44417 0.0
Gd1596 Gd 0.04343 0.54412 0.04976 0.0
Gd1597 Gd 0.10992 0.54551 0.01514 0.0
C1598 C 0.1874 0.63905 0.02545 0.0
C1599 C 0.19412 0.63727 0.96868 0.0
C1600 C 0.154 0.59538 0.98211 0.0
C1601 C 0.16302 0.61003 0.01518 0.0
C1602 C 0.16962 0.6087 0.95852 0.0
C1603 C 0.20289 0.65249 1.00204 0.0
C1604 C 0.19548 0.65382 0.05892 0.0
C1605 C 0.17955 0.63955 0.0813 0.0
N1606 N 0.14766 0.59635 0.03724 0.0
C1607 C 0.15585 0.61057 0.07008 0.0
H1608 H 0.14419 0.60028 0.08816 0.0
C1609 C 0.12131 0.55178 0.94075 0.0
N1610 N 0.13008 0.56802 0.97296 0.0
C1611 C 0.13611 0.56404 0.91649 0.0
C1612 C 0.16033 0.59269 0.92541 0.0
H1613 H 0.10308 0.52904 0.93394 0.0
H1614 H 0.22172 0.67465 1.00951 0.0
H1615 H 0.99888 0.4936 0.97847 0.0
H1616 H 0.21396 0.67619 0.06774 0.0
H1617 H 0.18561 0.65075 0.10728 0.0
H1618 H 0.2064 0.64782 0.95092 0.0
H1619 H 0.04957 0.56388 0.13101 0.0
H1620 H 0.93941 0.41159 1.00329 0.0
H1621 H 0.95758 0.44342 0.96251 0.0
H1622 H 0.96223 0.43232 0.11945 0.0
H1623 H 0.12908 0.55114 0.89099 0.0
H1624 H 0.17188 0.60202 0.90659 0.0
H1625 H 0.94216 0.40695 0.06152 0.0
H1626 H 0.03066 0.53804 0.17559 0.0
N1627 N 1.0045 0.49341 0.02957 0.0
C1628 C 0.95755 0.43446 0.01094 0.0
C1629 C 0.96761 0.45244 0.98793 0.0
C1630 C 0.97046 0.44669 0.04369 0.0
C1631 C 0.99386 0.47687 0.05251 0.0
C1632 C 0.9913 0.48164 0.99754 0.0
N1633 N 0.02611 0.52134 0.09321 0.0
C1634 C 1.00505 0.4912 0.08521 0.0
C1635 C 0.02354 0.52441 0.15031 0.0
C1636 C 1.0033 0.49242 0.14262 0.0
C1637 C 0.03432 0.53889 0.12514 0.0
C1638 C 0.99332 0.47571 0.10978 0.0
H1639 H 0.99478 0.48135 0.16216 0.0
O1640 O 0.03007 0.58586 0.07738 0.0
O1641 O 0.08292 0.57961 0.03622 0.0
O1642 O 0.11444 0.54546 0.06848 0.0
O1643 O 0.0685 0.52144 0.08151 0.0
O1644 O 0.07371 0.59296 0.08246 0.0
O1645 O 1.00395 0.55543 0.03147 0.0
O1646 O 0.12427 0.50462 0.98809 0.0
O1647 O 0.07018 0.511 0.02724 0.0
O1648 O 0.03776 0.5401 0.9958 0.0
O1649 O 0.08291 0.56622 0.98309 0.0
O1650 O 0.07985 0.49704 0.98143 0.0
O1651 O 0.14913 0.53394 0.03534 0.0
C1652 C 0.08969 0.60411 0.06157 0.0
C1653 C 0.97126 0.44475 0.10092 0.0
C1654 C 0.95984 0.4303 0.06794 0.0
C1655 C 1.00667 0.58056 0.05629 0.0
C1656 C 0.97981 0.5841 0.06926 0.0
C1657 C 0.97307 0.57581 0.09889 0.0
C1658 C 0.96154 0.5984 0.05224 0.0
C1659 C 0.93672 0.60495 0.06477 0.0
C1660 C 0.94831 0.58237 0.11154 0.0
C1661 C 0.93028 0.5971 0.09471 0.0
C1662 C 0.09727 0.53038 0.08717 0.0
C1663 C 0.06268 0.48684 1.00172 0.0
C1664 C 0.14752 0.51001 1.00952 0.0
C1665 C 0.17487 0.50817 0.99636 0.0
C1666 C 0.17994 0.51558 0.9659 0.0
C1667 C 0.19488 0.49549 0.01303 0.0
C1668 C 0.21933 0.48962 0.999 0.0
C1669 C 0.20448 0.51006 0.95215 0.0
C1670 C 0.22404 0.49686 0.9685 0.0
C1671 C 0.05389 0.55682 0.97755 0.0
H1672 H 0.98704 0.56487 0.11245 0.0
H1673 H 0.96716 0.6054 0.02966 0.0
H1674 H 0.94325 0.57631 0.13456 0.0
H1675 H 0.91126 0.60224 0.10493 0.0
H1676 H 0.16467 0.52473 0.95226 0.0
H1677 H 0.19096 0.4892 0.03632 0.0
H1678 H 0.20809 0.51551 0.92855 0.0
H1679 H 0.24283 0.49224 0.9574 0.0
C1680 C 0.04462 0.17747 0.02072 0.0
C1681 C 0.04179 0.18434 0.9889 0.0
C1682 C 0.05375 0.14876 0.02717 0.0
C1683 C 0.06018 0.12467 1.00205 0.0
H1684 H 0.03969 0.19449 0.04102 0.0
H1685 H 0.05487 0.14496 0.05186 0.0
S1686 S 0.05556 0.12939 0.91432 0.0
N1687 N 0.04632 0.16323 0.93225 0.0
N1688 N 0.0625 0.11055 0.94373 0.0
C1689 C 0.05746 0.13151 0.97035 0.0
C1690 C 0.04863 0.16068 0.96397 0.0
C1691 C 0.21091 0.81712 0.2014 0.0
C1692 C 0.21744 0.8358 0.1771 0.0
C1693 C 0.23335 0.81347 0.22405 0.0
C1694 C 0.26356 0.82834 0.22362 0.0
H1695 H 0.18821 0.80418 0.2023 0.0
H1696 H 0.22699 0.79787 0.24126 0.0
S1697 S 0.29287 0.88339 0.16845 0.0
N1698 N 0.25686 0.87171 0.15655 0.0
N1699 N 0.29839 0.86491 0.19863 0.0
C1700 C 0.27029 0.84799 0.20036 0.0
C1701 C 0.24754 0.8517 0.17734 0.0
C1702 C 0.54311 0.90025 0.52057 0.0
C1703 C 0.54655 0.87785 0.492 0.0
C1704 C 0.55139 0.93621 0.52439 0.0
C1705 C 0.5621 0.95159 0.49917 0.0
H1706 H 0.53424 0.89 0.54037 0.0
H1707 H 0.54944 0.95196 0.54731 0.0
S1708 S 0.57559 0.90492 0.41943 0.0
N1709 N 0.56278 0.87492 0.43862 0.0
N1710 N 0.57585 0.94057 0.44458 0.0
C1711 C 0.56535 0.9293 0.47054 0.0
C1712 C 0.55814 0.89319 0.46722 0.0
C1713 C 0.55952 0.31973 0.70255 0.0
C1714 C 0.55208 0.32824 0.67287 0.0
C1715 C 0.53802 0.30875 0.72161 0.0
C1716 C 0.50818 0.30574 0.71177 0.0
H1717 H 0.582 0.3202 0.71061 0.0
H1718 H 0.54467 0.30121 0.7436 0.0
S1719 S 0.47742 0.32895 0.63831 0.0
N1720 N 0.51306 0.33649 0.63636 0.0
N1721 N 0.47248 0.31497 0.67191 0.0
C1722 C 0.50061 0.31641 0.68337 0.0
C1723 C 0.5226 0.32784 0.66397 0.0
C1724 C 0.04132 0.84408 0.61199 0.0
C1725 C 0.0191 0.8138 0.59824 0.0
C1726 C 0.05718 0.86246 0.5921 0.0
C1727 C 0.05136 0.8509 0.558 0.0
H1728 H 0.04739 0.85288 0.6383 0.0
H1729 H 0.07495 0.88496 0.60341 0.0
S1730 S 0.99277 0.7768 0.50964 0.0
N1731 N 0.98994 0.77543 0.54819 0.0
N1732 N 0.02007 0.81068 0.51089 0.0
C1733 C 0.02792 0.82238 0.5438 0.0
C1734 C 0.0116 0.80362 0.56397 0.0
C1735 C 0.58055 0.86676 0.82533 0.0
C1736 C 0.57506 0.84256 0.84442 0.0
C1737 C 0.5575 0.87577 0.80984 0.0
C1738 C 0.52795 0.86024 0.81197 0.0
H1739 H 0.60289 0.8797 0.82304 0.0
H1740 H 0.563 0.8951 0.79605 0.0
S1741 S 0.50199 0.79575 0.86016 0.0
N1742 N 0.53818 0.80444 0.86627 0.0
N1743 N 0.49463 0.81909 0.83513 0.0
C1744 C 0.52218 0.83588 0.83116 0.0
C1745 C 0.54576 0.82743 0.84764 0.0
C1746 C 0.50999 0.1686 0.0754 0.0
C1747 C 0.49778 0.16073 0.10302 0.0
C1748 C 0.53105 0.15348 0.06287 0.0
C1749 C 0.54105 0.1306 0.07801 0.0
H1750 H 0.50447 0.18802 0.06461 0.0
H1751 H 0.54025 0.16065 0.04191 0.0
S1752 S 0.51501 0.1006 0.15035 0.0
N1753 N 0.49602 0.12724 0.14414 0.0
N1754 N 0.53626 0.09983 0.12148 0.0
C1755 C 0.5284 0.12187 0.10516 0.0
C1756 C 0.5064 0.13645 0.11725 0.0
C1757 C 0.23191 0.32261 0.35201 0.0
C1758 C 0.21899 0.34203 0.33474 0.0
C1759 C 0.25559 0.31166 0.34205 0.0
C1760 C 0.26593 0.31699 0.31294 0.0
H1761 H 0.22458 0.31681 0.37437 0.0
H1762 H 0.26672 0.30031 0.35833 0.0
S1763 S 0.24388 0.3714 0.26188 0.0
N1764 N 0.22135 0.37057 0.2897 0.0
N1765 N 0.26475 0.3468 0.26924 0.0
C1766 C 0.25367 0.33658 0.29534 0.0
C1767 C 0.23028 0.34954 0.3065 0.0
C1768 C 0.02925 0.0982 0.17727 0.0
C1769 C 0.01366 0.06988 0.1887 0.0
C1770 C 0.0416 0.09479 0.14676 0.0
C1771 C 0.03887 0.06292 0.12489 0.0
H1772 H 0.03304 0.12331 0.19259 0.0
H1773 H 0.05359 0.11765 0.14033 0.0
S1774 S 1.00207 0.98053 0.14407 0.0
N1775 N 0.99842 1.00874 0.17564 0.0
N1776 N 0.01917 1.00256 0.11968 0.0
C1777 C 0.02308 0.03481 0.13634 0.0
C1778 C 0.01138 0.03822 0.16748 0.0
C1779 C 0.3032 0.70419 0.46201 0.0
C1780 C 0.28082 0.6749 0.46214 0.0
C1781 C 0.29666 0.73005 0.44903 0.0
C1782 C 0.26774 0.72712 0.43565 0.0
H1783 H 0.32549 0.70806 0.47369 0.0
H1784 H 0.31384 0.75324 0.4511 0.0
S1785 S 0.20182 0.65513 0.42726 0.0
N1786 N 0.22882 0.64372 0.44514 0.0
N1787 N 0.21714 0.69268 0.42077 0.0
C1788 C 0.24563 0.69737 0.43363 0.0
C1789 C 0.25207 0.67102 0.44671 0.0
C1790 C 0.63833 0.02364 0.65913 0.0
C1791 C 0.65255 0.05624 0.67837 0.0
C1792 C 0.61869 0.01942 0.63116 0.0
C1793 C 0.61339 0.04777 0.62202 0.0
H1794 H 0.64356 1.00151 0.6648 0.0
H1795 H 0.60946 0.99435 0.6154 0.0
S1796 S 0.64334 0.1378 0.66504 0.0
N1797 N 0.65866 0.11688 0.6875 0.0
N1798 N 0.62134 0.1087 0.6345 0.0
C1799 C 0.62586 0.08016 0.64197 0.0
C1800 C 0.64566 0.0845 0.67049 0.0
C1801 C 0.34618 0.3641 0.92677 0.0
C1802 C 0.34581 0.33622 0.94073 0.0
C1803 C 0.3437 0.36092 0.89277 0.0
C1804 C 0.34039 0.32965 0.87086 0.0
H1805 H 0.34889 0.38892 0.94229 0.0
H1806 H 0.34416 0.38332 0.8835 0.0
S1807 S 0.33625 0.24814 0.89447 0.0
N1808 N 0.34131 0.2759 0.92978 0.0
N1809 N 0.33544 0.2697 0.86576 0.0
C1810 C 0.33961 0.30135 0.88435 0.0
C1811 C 0.34263 0.30471 0.91922 0.0
C1812 C 0.04867 0.0789 0.39588 0.0
C1813 C 0.01821 0.07275 0.38335 0.0
C1814 C 0.05888 0.07269 0.42683 0.0
C1815 C 0.03935 0.05904 0.44752 0.0
H1816 H 0.06511 0.08854 0.38131 0.0
H1817 H 0.08239 0.07909 0.43471 0.0
S1818 S 0.95751 0.03287 0.42522 0.0
N1819 N 0.96901 0.04837 0.39408 0.0
N1820 N 0.98741 0.03743 0.45093 0.0
C1821 C 0.00892 0.05198 0.43487 0.0
C1822 C 0.99863 0.05839 0.4035 0.0
C1823 C 0.3232 0.7278 0.6402 0.0
C1824 C 0.29799 0.7249 0.61824 0.0
C1825 C 0.3284 0.74809 0.67158 0.0
C1826 C 0.30933 0.76728 0.68189 0.0
H1827 H 0.33855 0.71314 0.63382 0.0
H1828 H 0.34683 0.7475 0.68832 0.0
S1829 S 0.23997 0.76845 0.63538 0.0
N1830 N 0.25324 0.74262 0.60976 0.0
N1831 N 0.26397 0.78179 0.66938 0.0
C1832 C 0.28428 0.76523 0.66063 0.0
C1833 C 0.27851 0.74396 0.62852 0.0
C1834 C 0.69438 0.08065 0.84393 0.0
C1835 C 0.68708 0.05954 0.81229 0.0
C1836 C 0.6732 0.09277 0.85957 0.0
C1837 C 0.64383 0.08352 0.84461 0.0
H1838 H 0.717 0.0892 0.8561 0.0
H1839 H 0.68005 0.11034 0.88307 0.0
S1840 S 0.61277 0.02991 0.76203 0.0
N1841 N 0.64797 0.03077 0.76605 0.0
N1842 N 0.60802 0.05272 0.79687 0.0
C1843 C 0.63586 0.06219 0.81336 0.0
C1844 C 0.65749 0.05014 0.79694 0.0
C1845 C 0.32698 0.35643 0.1474 0.0
C1846 C 0.33566 0.33415 0.12284 0.0
C1847 C 0.32089 0.34814 0.17749 0.0
C1848 C 0.32247 0.3169 0.18398 0.0
H1849 H 0.32599 0.38103 0.14394 0.0
H1850 H 0.3154 0.36661 0.19604 0.0
S1851 S 0.34298 0.249 0.12738 0.0
N1852 N 0.34455 0.27897 0.107 0.0
N1853 N 0.33286 0.26338 0.16267 0.0
C1854 C 0.33006 0.29397 0.1591 0.0
C1855 C 0.33668 0.30258 0.12884 0.0
C1856 C 0.28218 0.03625 0.01029 0.0
C1857 C 0.2961 0.01862 0.02871 0.0
C1858 C 0.26643 0.05759 0.02504 0.0
C1859 C 0.26416 0.0617 0.05847 0.0
H1860 H 0.28372 0.03392 0.98447 0.0
H1861 H 0.25596 0.07099 0.01032 0.0
S1862 S 0.29235 0.01731 0.1163 0.0
N1863 N 0.30459 1.00475 0.08182 0.0
N1864 N 0.27285 0.04298 0.1083 0.0
C1865 C 0.27628 0.04271 0.07663 0.0
C1866 C 0.29284 0.02155 0.06203 0.0
C1867 C 0.70889 0.62099 0.98374 0.0
C1868 C 0.72342 0.65039 1.0081 0.0
C1869 C 0.68141 0.59957 0.98728 0.0
C1870 C 0.66734 0.60709 0.01505 0.0
H1871 H 0.71831 0.61504 0.96154 0.0
H1872 H 0.67075 0.57758 0.96772 0.0
S1873 S 0.6987 0.68023 0.08673 0.0
N1874 N 0.72349 0.68422 0.0617 0.0
N1875 N 0.67205 0.64636 0.06777 0.0
C1876 C 0.68255 0.63627 0.03966 0.0
C1877 C 0.71048 0.65721 0.03633 0.0
C1878 C 0.78404 0.42312 0.25761 0.0
C1879 C 0.7635 0.43381 0.27757 0.0
C1880 C 0.79615 0.39508 0.26046 0.0
C1881 C 0.79034 0.37646 0.28505 0.0
H1882 H 0.79065 0.43643 0.23879 0.0
H1883 H 0.80961 0.38755 0.24255 0.0
S1884 S 0.73937 0.39374 0.34542 0.0
N1885 N 0.73863 0.42196 0.32332 0.0
N1886 N 0.76177 0.3723 0.33009 0.0
C1887 C 0.77015 0.38736 0.30542 0.0
C1888 C 0.75703 0.41494 0.30166 0.0
C1889 C 0.95983 0.48046 0.51571 0.0
C1890 C 0.9432 0.5036 0.52372 0.0
C1891 C 0.98975 0.49163 0.51344 0.0
C1892 C 1.00391 0.52623 0.51904 0.0
H1893 H 0.95035 0.45372 0.51329 0.0
H1894 H 1.00248 0.47335 0.51104 0.0
S1895 S 0.96748 0.59559 0.52937 0.0
N1896 N 0.94088 0.56137 0.5288 0.0
N1897 N 0.99738 0.58271 0.52507 0.0
C1898 C 0.98647 0.54903 0.52225 0.0
C1899 C 0.95588 0.53757 0.52426 0.0
C1900 C 0.3811 0.09703 0.27404 0.0
C1901 C 0.3759 0.10065 0.30683 0.0
C1902 C 0.3605 0.0993 0.25002 0.0
C1903 C 0.33419 0.10559 0.25797 0.0
H1904 H 0.40116 0.09206 0.26651 0.0
H1905 H 0.36579 0.0976 0.22532 0.0
S1906 S 0.31033 0.11818 0.33998 0.0
N1907 N 0.34282 0.11092 0.34615 0.0
N1908 N 0.30369 0.11628 0.30036 0.0
C1909 C 0.32849 0.10936 0.29052 0.0
C1910 C 0.3495 0.10659 0.31514 0.0
C1911 C 0.36918 0.13086 0.53556 0.0
C1912 C 0.37878 0.15207 0.51437 0.0
C1913 C 0.3873 0.11356 0.54824 0.0
C1914 C 0.41601 0.11698 0.54068 0.0
H1915 H 0.34759 0.12804 0.54312 0.0
H1916 H 0.3788 0.09774 0.56458 0.0
S1917 S 0.4513 0.16764 0.48442 0.0
N1918 N 0.41814 0.17352 0.4842 0.0
N1919 N 0.45304 0.14244 0.50954 0.0
C1920 C 0.42569 0.13721 0.51855 0.0
C1921 C 0.40688 0.1544 0.50506 0.0
C1922 C 0.74786 0.6596 0.30941 0.0
C1923 C 0.75256 0.62945 0.29144 0.0
C1924 C 0.76482 0.69232 0.30828 0.0
C1925 C 0.7878 0.6973 0.28909 0.0
H1926 H 0.73016 0.65798 0.32415 0.0
H1927 H 0.75949 0.71403 0.32238 0.0
S1928 S 0.80879 0.62764 0.23548 0.0
N1929 N 0.78196 0.60746 0.2528 0.0
N1930 N 0.81359 0.66845 0.25052 0.0
C1931 C 0.79311 0.66749 0.27114 0.0
C1932 C 0.77571 0.63392 0.27235 0.0
C1933 C 0.90214 0.43207 0.82998 0.0
C1934 C 0.89575 0.45674 0.81485 0.0
C1935 C 0.88543 0.39881 0.81953 0.0
C1936 C 0.85964 0.39 0.7972 0.0
H1937 H 0.92256 0.43752 0.84645 0.0
H1938 H 0.8944 0.37954 0.82656 0.0
S1939 S 0.83158 0.44581 0.7528 0.0
N1940 N 0.8618 0.47089 0.77675 0.0
N1941 N 0.8274 0.40812 0.76094 0.0
C1942 C 0.85109 0.415 0.7844 0.0
C1943 C 0.86949 0.44881 0.79308 0.0
C1944 C 0.12288 0.92376 0.04486 0.0
C1945 C 0.11949 0.91241 0.07447 0.0
C1946 C 0.11386 0.9526 0.03843 0.0
C1947 C 0.10136 0.97259 0.06148 0.0
H1948 H 0.13279 0.91029 0.02633 0.0
H1949 H 0.11775 0.95993 0.01563 0.0
S1950 S 0.0872 0.95501 0.14272 0.0
N1951 N 0.10141 0.92453 0.12646 0.0
N1952 N 0.08659 0.97818 0.11546 0.0
C1953 C 0.09803 0.96152 0.09099 0.0
C1954 C 0.10635 0.9319 0.09712 0.0
C1955 C 0.93764 0.25973 0.86141 0.0
C1956 C 0.93963 0.26719 0.89587 0.0
C1957 C 0.91465 0.26521 0.84094 0.0
C1958 C 0.89234 0.279 0.8534 0.0
H1959 H 0.95404 0.24948 0.84997 0.0
H1960 H 0.91464 0.25837 0.81505 0.0
S1961 S 0.88794 0.30471 0.94233 0.0
N1962 N 0.91731 0.29038 0.94158 0.0
N1963 N 0.87463 0.30014 0.90368 0.0
C1964 C 0.89415 0.28651 0.88796 0.0
C1965 C 0.9175 0.28087 0.90883 0.0
C1966 C 0.60615 0.20297 0.59617 0.0
C1967 C 0.61373 0.21907 0.57045 0.0
C1968 C 0.59877 0.16726 0.59201 0.0
C1969 C 0.59793 0.14478 0.56174 0.0
H1970 H 0.60629 0.2182 0.62022 0.0
H1971 H 0.59329 0.15709 0.61307 0.0
S1972 S 0.61342 0.17304 0.48517 0.0
N1973 N 0.61929 0.2089 0.51283 0.0
N1974 N 0.6034 0.14235 0.50456 0.0
C1975 C 0.60475 0.16041 0.53543 0.0
C1976 C 0.61315 0.19711 0.53991 0.0
C1977 C 0.60454 0.78098 0.36467 0.0
C1978 C 0.61171 0.7817 0.398 0.0
C1979 C 0.62649 0.79037 0.34548 0.0
C1980 C 0.6565 0.80068 0.35873 0.0
H1981 H 0.58174 0.77434 0.35348 0.0
H1982 H 0.61988 0.79071 0.32029 0.0
S1983 S 0.68748 0.80404 0.44365 0.0
N1984 N 0.65142 0.79113 0.44273 0.0
N1985 N 0.69255 0.80897 0.40647 0.0
C1986 C 0.66418 0.79965 0.39141 0.0
C1987 C 0.64182 0.79016 0.41109 0.0
C1988 C 0.13546 0.25032 0.45553 0.0
C1989 C 0.14289 0.28568 0.46483 0.0
C1990 C 0.1226 0.23098 0.47655 0.0
C1991 C 0.1168 0.24691 0.50702 0.0
H1992 H 0.13585 0.23774 0.43051 0.0
H1993 H 0.11401 0.20385 0.46733 0.0
S1994 S 0.13809 0.3385 0.54473 0.0
N1995 N 0.1484 0.33571 0.50805 0.0
N1996 N 0.12442 0.29915 0.54784 0.0
C1997 C 0.12815 0.28194 0.51827 0.0
C1998 C 0.14139 0.30152 0.49703 0.0
C1999 C 0.60408 0.26692 0.22769 0.0
C2000 C 0.58404 0.23578 0.2115 0.0
C2001 C 0.63157 0.26793 0.24362 0.0
C2002 C 0.63964 0.23793 0.24329 0.0
H2003 H 0.59772 0.29025 0.23016 0.0
H2004 H 0.64548 0.29183 0.25847 0.0
S2005 S 0.59851 0.1515 0.1972 0.0
N2006 N 0.57669 0.17527 0.19054 0.0
N2007 N 0.62835 0.17748 0.22101 0.0
C2008 C 0.62142 0.20736 0.22399 0.0
C2009 C 0.5935 0.20621 0.20788 0.0
C2010 C 0.65822 0.98146 0.94613 0.0
C2011 C 0.6598 0.95195 0.95615 0.0
C2012 C 0.64205 1.002 0.96166 0.0
C2013 C 0.62653 0.99279 0.98686 0.0
H2014 H 0.66675 0.98662 0.92409 0.0
H2015 H 0.64047 0.02414 0.95283 0.0
S2016 S 0.62406 0.91797 0.02146 0.0
N2017 N 0.64759 0.9168 0.99494 0.0
N2018 N 0.61301 0.95192 0.01993 0.0
C2019 C 0.62923 0.96437 0.99794 0.0
C2020 C 0.64752 0.94517 0.98401 0.0
C2021 C 0.93373 0.77111 0.75494 0.0
C2022 C 0.941 0.76996 0.72324 0.0
C2023 C 0.90677 0.77617 0.76209 0.0
C2024 C 0.88632 0.77885 0.73726 0.0
H2025 H 0.94836 0.7666 0.77375 0.0
H2026 H 0.90114 0.77572 0.7864 0.0
S2027 S 0.89613 0.7799 0.65119 0.0
N2028 N 0.92713 0.77499 0.66782 0.0
N2029 N 0.87553 0.78193 0.68071 0.0
C2030 C 0.89388 0.77886 0.70589 0.0
C2031 C 0.92166 0.77531 0.69904 0.0
C2032 C 0.11725 0.017 0.87795 0.0
C2033 C 0.14799 0.02556 0.87583 0.0
C2034 C 0.10534 0.01875 0.90834 0.0
C2035 C 0.12293 0.03018 0.93978 0.0
H2036 H 0.10181 1.00938 0.85548 0.0
H2037 H 0.08169 1.01217 0.90686 0.0
S2038 S 0.20518 0.05866 0.94985 0.0
N2039 N 0.19586 0.04746 0.90962 0.0
N2040 N 0.17408 0.05156 0.96563 0.0
C2041 C 0.15387 0.03931 0.93815 0.0
C2042 C 0.16606 0.03685 0.90695 0.0
C2043 C 0.86241 0.42003 0.62761 0.0
C2044 C 0.86676 0.41091 0.59494 0.0
C2045 C 0.87245 0.40418 0.65067 0.0
C2046 C 0.88697 0.37929 0.64115 0.0
H2047 H 0.85403 0.44155 0.63589 0.0
H2048 H 0.87107 0.41326 0.67629 0.0
S2049 S 0.89614 0.3408 0.55714 0.0
N2050 N 0.8803 0.37085 0.553 0.0
N2051 N 0.90007 0.34174 0.59669 0.0
C2052 C 0.888 0.3672 0.60802 0.0
C2053 C 0.87749 0.3829 0.58466 0.0
C2054 C 0.49246 0.04616 0.4144 0.0
C2055 C 0.5044 0.06592 0.39348 0.0
C2056 C 0.51034 0.0428 0.44018 0.0
C2057 C 0.54079 0.05913 0.44571 0.0
H2058 H 0.46917 0.03277 0.41049 0.0
H2059 H 0.4998 0.02721 0.4557 0.0
S2060 S 0.5816 0.1148 0.39706 0.0
N2061 N 0.54709 0.10255 0.37868 0.0
N2062 N 0.58177 0.09679 0.42851 0.0
C2063 C 0.55286 0.07959 0.42497 0.0
C2064 C 0.53431 0.08288 0.39835 0.0
C2065 C 0.79342 0.74948 0.13158 0.0
C2066 C 0.81643 0.76713 0.11741 0.0
C2067 C 0.79531 0.75287 0.16572 0.0
C2068 C 0.81907 0.77598 0.18777 0.0
H2069 H 0.77427 0.73154 0.11598 0.0
H2070 H 0.77862 0.73589 0.17473 0.0
S2071 S 0.88769 0.82401 0.16331 0.0
N2072 N 0.86611 0.80488 0.12806 0.0
N2073 N 0.86834 0.81345 0.19226 0.0
C2074 C 0.84268 0.79335 0.17388 0.0
C2075 C 0.84153 0.78862 0.13883 0.0
C2076 C 0.15795 0.02214 0.65512 0.0
C2077 C 0.14275 0.02807 0.68232 0.0
C2078 C 0.14807 0.02619 0.62307 0.0
C2079 C 0.122 0.03616 0.61509 0.0
H2080 H 0.17821 1.01501 0.65864 0.0
H2081 H 0.16142 0.02138 0.60406 0.0
S2082 S 0.07274 0.05419 0.6761 0.0
N2083 N 0.09919 0.04493 0.69755 0.0
N2084 N 0.08078 0.05036 0.63845 0.0
C2085 C 0.1063 0.04149 0.64176 0.0
C2086 C 0.11654 0.03806 0.67456 0.0
C2087 C 0.89339 0.37006 0.43365 0.0
C2088 C 0.87347 0.38471 0.44999 0.0
C2089 C 0.88607 0.35311 0.40082 0.0
C2090 C 0.85855 0.3501 0.38362 0.0
H2091 H 0.91494 0.37195 0.44613 0.0
H2092 H 0.9018 0.34188 0.38902 0.0
S2093 S 0.79967 0.38653 0.41381 0.0
N2094 N 0.82562 0.39661 0.44578 0.0
N2095 N 0.81227 0.36522 0.38366 0.0
C2096 C 0.83877 0.36543 0.39916 0.0
C2097 C 0.84612 0.38264 0.43254 0.0
C2098 C 0.4573 0.9973 0.21311 0.0
C2099 C 0.47304 0.02552 0.23772 0.0
C2100 C 0.46892 0.9885 0.18443 0.0
C2101 C 0.49686 1.00729 0.18029 0.0
H2102 H 0.43778 0.97982 0.21766 0.0
H2103 H 0.45777 0.96467 0.16735 0.0
S2104 S 0.54318 0.08755 0.23527 0.0
N2105 N 0.51445 0.07582 0.25404 0.0
N2106 N 0.53744 0.05859 0.20067 0.0
C2107 C 0.51074 0.03818 0.20283 0.0
C2108 C 0.49848 0.04744 0.23168 0.0
C2109 C 0.8203 0.78508 0.91992 0.0
C2110 C 0.82862 0.75886 0.93136 0.0
C2111 C 0.82576 0.79152 0.88916 0.0
C2112 C 0.83921 0.77171 0.86778 0.0
H2113 H 0.80892 0.80059 0.93462 0.0
H2114 H 0.81872 0.81183 0.8818 0.0
S2115 S 0.86819 0.70226 0.88603 0.0
N2116 N 0.85378 0.71478 0.91907 0.0
N2117 N 0.86269 0.72634 0.86082 0.0
C2118 C 0.84863 0.74625 0.87899 0.0
C2119 C 0.84369 0.73999 0.91078 0.0
C2120 C 0.86505 0.08071 0.98677 0.0
C2121 C 0.85797 0.08495 0.01874 0.0
C2122 C 0.88427 0.06173 0.97704 0.0
C2123 C 0.8969 0.04638 0.99897 0.0
H2124 H 0.85523 0.09159 0.9689 0.0
H2125 H 0.8889 0.05856 0.95204 0.0
S2126 S 0.88831 0.05365 0.08656 0.0
N2127 N 0.86708 0.07541 0.07325 0.0
N2128 N 0.90355 0.03933 0.05487 0.0
C2129 C 0.89165 0.05238 0.03168 0.0
C2130 C 0.87204 0.07186 0.04163 0.0
C2131 C 0.46163 0.43805 0.03181 0.0
C2132 C 0.44204 0.44774 0.05246 0.0
C2133 C 0.48882 0.46023 0.03057 0.0
C2134 C 0.49837 0.49357 0.0501 0.0
H2135 H 0.45581 0.41288 0.01599 0.0
H2136 H 0.5024 0.45069 0.0138 0.0
S2137 S 0.45562 0.53156 0.1095 0.0
N2138 N 0.43391 0.49303 0.09331 0.0
N2139 N 0.48562 0.53481 0.09169 0.0
C2140 C 0.47899 0.50378 0.07112 0.0
C2141 C 0.45075 0.48098 0.07206 0.0
C2142 C 0.39004 0.67232 0.76129 0.0
C2143 C 0.40914 0.67724 0.79108 0.0
C2144 C 0.37371 0.69611 0.75504 0.0
C2145 C 0.37409 0.72642 0.77825 0.0
H2146 H 0.38756 0.64979 0.74233 0.0
H2147 H 0.36056 0.69058 0.73124 0.0
S2148 S 0.42284 0.75519 0.85853 0.0
N2149 N 0.42876 0.7185 0.8429 0.0
N2150 N 0.39823 0.76064 0.83141 0.0
C2151 C 0.3934 0.73192 0.80767 0.0
C2152 C 0.41045 0.70828 0.8139 0.0
C2153 C 0.19435 0.57526 0.51672 0.0
C2154 C 0.21698 0.59412 0.54224 0.0
C2155 C 0.16622 0.57957 0.51615 0.0
C2156 C 0.15857 0.60075 0.54217 0.0
H2157 H 0.19915 0.55947 0.49531 0.0
H2158 H 0.15074 0.5675 0.49414 0.0
S2159 S 0.21091 0.66046 0.61193 0.0
N2160 N 0.23094 0.63812 0.59255 0.0
N2161 N 0.17707 0.64515 0.59162 0.0
C2162 C 0.18096 0.62041 0.56769 0.0
C2163 C 0.21021 0.6167 0.56805 0.0
C2164 C 0.81994 0.02038 0.74627 0.0
C2165 C 0.7891 1.00726 0.73925 0.0
C2166 C 0.83585 1.0133 0.77213 0.0
C2167 C 0.82129 0.99318 0.79169 0.0
H2168 H 0.83184 0.03663 0.73201 0.0
H2169 H 0.85966 0.02297 0.77647 0.0
S2170 S 0.74162 0.94997 0.78238 0.0
N2171 N 0.74489 0.97112 0.7532 0.0
N2172 N 0.77535 0.95798 0.80171 0.0
C2173 C 0.79076 0.97892 0.78453 0.0
C2174 C 0.77449 0.98584 0.75821 0.0
C2175 C 0.78132 0.97966 0.55925 0.0
C2176 C 0.78624 0.95008 0.54104 0.0
C2177 C 0.7602 0.99378 0.54684 0.0
C2178 C 0.74344 0.97884 0.51582 0.0
H2179 H 0.7945 0.99266 0.58278 0.0
H2180 H 0.75776 0.01726 0.56101 0.0
S2181 S 0.74386 0.89841 0.46065 0.0
N2182 N 0.76971 0.90413 0.49184 0.0
N2183 N 0.73014 0.9311 0.46887 0.0
C2184 C 0.74668 0.94827 0.49822 0.0
C2185 C 0.76807 0.93376 0.51075 0.0
C2186 C 0.38454 0.46355 0.7718 0.0
C2187 C 0.41558 0.47088 0.77257 0.0
C2188 C 0.36641 0.43026 0.77145 0.0
C2189 C 0.37817 0.40228 0.77192 0.0
H2190 H 0.3741 0.48368 0.77169 0.0
H2191 H 0.34296 0.42663 0.7712 0.0
S2192 S 0.45809 0.40708 0.77433 0.0
N2193 N 0.45672 0.44581 0.77402 0.0
N2194 N 0.42368 0.3855 0.7732 0.0
C2195 C 0.40912 0.4095 0.7726 0.0
C2196 C 0.42737 0.4429 0.77297 0.0
C2197 C 0.30376 0.66494 0.2532 0.0
C2198 C 0.27615 0.65475 0.23332 0.0
C2199 C 0.31414 0.69748 0.27325 0.0
C2200 C 0.29695 0.72013 0.27377 0.0
H2201 H 0.31715 0.64751 0.25347 0.0
H2202 H 0.33576 0.70516 0.28783 0.0
S2203 S 0.22207 0.7051 0.22991 0.0
N2204 N 0.23144 0.66999 0.21684 0.0
N2205 N 0.25053 0.73025 0.25637 0.0
C2206 C 0.26899 0.71005 0.25536 0.0
C2207 C 0.25873 0.67752 0.23432 0.0
C2208 C 0.52909 0.66754 0.51377 0.0
C2209 C 0.5412 0.68742 0.49188 0.0
C2210 C 0.53938 0.63954 0.52021 0.0
C2211 C 0.56223 0.62916 0.50489 0.0
H2212 H 0.51097 0.67314 0.52562 0.0
H2213 H 0.52835 0.62498 0.5363 0.0
S2214 S 0.60089 0.67149 0.4447 0.0
N2215 N 0.57851 0.6945 0.45616 0.0
N2216 N 0.59427 0.64076 0.46437 0.0
C2217 C 0.5737 0.64848 0.48249 0.0
C2218 C 0.56431 0.67767 0.47714 0.0
C2219 C 0.71255 0.3278 0.70412 0.0
C2220 C 0.71821 0.3352 0.67351 0.0
C2221 C 0.73459 0.32315 0.72652 0.0
C2222 C 0.76373 0.32587 0.71983 0.0
H2223 H 0.69055 0.32451 0.71057 0.0
H2224 H 0.72829 0.31617 0.74874 0.0
S2225 S 0.79117 0.3468 0.64433 0.0
N2226 N 0.75607 0.34608 0.63867 0.0
N2227 N 0.79702 0.33809 0.68041 0.0
C2228 C 0.76984 0.33405 0.68969 0.0
C2229 C 0.74738 0.33854 0.66681 0.0
C2230 C 0.02369 0.39064 0.97919 0.0
C2231 C 0.04386 0.37603 0.99344 0.0
C2232 C 0.0297 0.42611 0.98231 0.0
C2233 C 0.0551 0.44936 1.00194 0.0
H2234 H 1.00351 0.37432 0.96416 0.0
H2235 H 0.01483 0.43509 0.96785 0.0
S2236 S 0.11749 0.42432 0.03996 0.0
N2237 N 0.09256 0.38778 0.02398 0.0
N2238 N 0.10249 0.45402 0.03228 0.0
C2239 C 0.07575 0.43494 0.01581 0.0
C2240 C 0.07036 0.39862 0.01124 0.0
C2241 C 0.05895 0.8189 0.2034 0.0
C2242 C 0.05204 0.82849 0.17417 0.0
C2243 C 0.03706 0.80739 0.2218 0.0
C2244 C 1.00736 0.80478 0.21162 0.0
H2245 H 0.08128 0.81891 0.21153 0.0
H2246 H 0.04331 0.79913 0.24349 0.0
S2247 S 0.97815 0.83126 0.13934 0.0
N2248 N 0.01389 0.83872 0.13807 0.0
N2249 N 0.97248 0.81578 0.17201 0.0
C2250 C 1.00039 0.81664 0.18374 0.0
C2251 C 0.02281 0.82881 0.16516 0.0
C2252 C 0.5101 0.33095 0.07772 0.0
C2253 C 0.52495 0.31522 0.09737 0.0
C2254 C 0.52433 0.34727 0.05529 0.0
C2255 C 0.5536 0.34768 0.0514 0.0
H2256 H 0.48745 0.3308 0.07982 0.0
H2257 H 0.51235 0.35957 0.0408 0.0
S2258 S 0.60252 0.31146 0.09788 0.0
N2259 N 0.57083 0.30176 0.11209 0.0
N2260 N 0.59746 0.33285 0.06999 0.0
C2261 C 0.56882 0.33256 0.07121 0.0
C2262 C 0.55451 0.31622 0.09423 0.0
C2263 C 0.04819 0.32161 0.32846 0.0
C2264 C 0.07613 0.34477 0.33558 0.0
C2265 C 0.0255 0.32729 0.30896 0.0
C2266 C 0.02972 0.3571 0.29718 0.0
H2267 H 0.04342 0.30003 0.33958 0.0
H2268 H 1.00407 0.30894 0.30447 0.0
S2269 S 0.10018 0.42452 0.30832 0.0
N2270 N 0.10816 0.39672 0.32778 0.0
N2271 N 0.06489 0.40913 0.29291 0.0
C2272 C 0.05823 0.37961 0.30291 0.0
C2273 C 0.08159 0.37305 0.32185 0.0
C2274 C 0.01848 0.67418 0.58379 0.0
C2275 C 0.99905 0.6619 0.60481 0.0
C2276 C 0.0388 0.65724 0.57269 0.0
C2277 C 0.04022 0.62731 0.58194 0.0
H2278 H 0.0194 0.6983 0.57774 0.0
H2279 H 0.05388 0.668 0.55728 0.0
S2280 S 0.99028 0.58097 0.63086 0.0
N2281 N 0.97963 0.61539 0.63041 0.0
N2282 N 0.01801 0.58364 0.6096 0.0
C2283 C 0.01967 0.61355 0.6011 0.0
C2284 C 0.99871 0.63055 0.61206 0.0
C2285 C 0.73396 0.82432 0.8517 0.0
C2286 C 0.7174 0.83779 0.83132 0.0
C2287 C 0.75847 0.81502 0.84232 0.0
C2288 C 0.76667 0.81692 0.81153 0.0
H2289 H 0.7287 0.82192 0.87578 0.0
H2290 H 0.77158 0.8071 0.85992 0.0
S2291 S 0.7316 0.85133 0.74923 0.0
N2292 N 0.71138 0.85375 0.7792 0.0
N2293 N 0.7573 0.834 0.76072 0.0
C2294 C 0.74993 0.82915 0.79017 0.0
C2295 C 0.72518 0.83993 0.80022 0.0
C2296 C 0.50834 0.54194 0.66156 0.0
C2297 C 0.51421 0.57228 0.68644 0.0
C2298 C 0.52021 0.53995 0.63105 0.0
C2299 C 0.54036 0.56776 0.62315 0.0
H2300 H 0.49453 0.51885 0.6659 0.0
H2301 H 0.51399 0.51564 0.61387 0.0
S2302 S 0.563 0.65418 0.67838 0.0
N2303 N 0.54146 0.63158 0.69939 0.0
N2304 N 0.56383 0.62788 0.64377 0.0
C2305 C 0.5462 0.59844 0.64768 0.0
C2306 C 0.53344 0.60063 0.6785 0.0
C2307 C 0.79267 0.17103 0.93242 0.0
C2308 C 0.80934 0.18421 0.96381 0.0
C2309 C 0.78106 0.19177 0.9162 0.0
C2310 C 0.78629 0.22612 0.93083 0.0
H2311 H 0.78539 0.14392 0.92235 0.0
H2312 H 0.7659 0.18042 0.89359 0.0
S2313 S 0.83334 0.27412 1.00899 0.0
N2314 N 0.83424 0.23461 1.00634 0.0
N2315 N 0.81269 0.27377 0.97516 0.0
C2316 C 0.80591 0.24045 0.95998 0.0
C2317 C 0.81771 0.21937 0.97658 0.0
C2318 C 0.15537 0.51202 0.13401 0.0
C2319 C 0.16781 0.54448 0.15392 0.0
C2320 C 0.12756 0.50415 0.11579 0.0
C2321 C 0.11201 0.52856 0.1175 0.0
H2322 H 0.16795 0.49363 0.13079 0.0
H2323 H 0.11982 0.48052 0.09758 0.0
S2324 S 0.13205 0.61397 0.17205 0.0
N2325 N 0.16025 0.59878 0.17917 0.0
N2326 N 0.10797 0.58355 0.14449 0.0
C2327 C 0.12238 0.55912 0.14076 0.0
C2328 C 0.15069 0.56746 0.15889 0.0
C2329 C 0.85581 0.86223 0.42717 0.0
C2330 C 0.84858 0.8338 0.44093 0.0
C2331 C 0.85378 0.85894 0.39316 0.0
C2332 C 0.8444 0.82707 0.37105 0.0
H2333 H 0.86317 0.88747 0.44289 0.0
H2334 H 0.85905 0.88178 0.38399 0.0
S2335 S 0.82081 0.74451 0.39406 0.0
N2336 N 0.83073 0.7725 0.42959 0.0
N2337 N 0.82646 0.76634 0.36551 0.0
C2338 C 0.83713 0.79827 0.38434 0.0
C2339 C 0.83938 0.80163 0.41925 0.0
C2340 C 0.50044 0.55694 0.90185 0.0
C2341 C 0.51887 0.57681 0.88394 0.0
C2342 C 0.51086 0.55098 0.93288 0.0
C2343 C 0.54087 0.56313 0.94839 0.0
H2344 H 0.4776 0.54494 0.89139 0.0
H2345 H 0.4949 0.53606 0.94483 0.0
S2346 S 0.59855 0.61976 0.91481 0.0
N2347 N 0.56924 0.61063 0.88675 0.0
N2348 N 0.58815 0.59934 0.94341 0.0
C2349 C 0.55944 0.5836 0.93115 0.0
C2350 C 0.54878 0.59007 0.89971 0.0
C2351 C 0.81543 0.26111 0.1303 0.0
C2352 C 0.80073 0.22654 0.12155 0.0
C2353 C 0.81629 0.2799 0.16188 0.0
C2354 C 0.80232 0.26455 0.18529 0.0
H2355 H 0.82721 0.27331 0.1131 0.0
H2356 H 0.82884 0.30623 0.16829 0.0
S2357 S 0.75381 0.17654 0.17 0.0
N2358 N 0.76767 0.1788 0.13572 0.0
N2359 N 0.76734 0.21449 0.19444 0.0
C2360 C 0.78437 0.23088 0.1751 0.0
C2361 C 0.78433 0.21161 0.14339 0.0
C2362 C 0.19079 0.57248 0.33013 0.0
C2363 C 0.17741 0.56597 0.29758 0.0
C2364 C 0.17606 0.58321 0.35582 0.0
C2365 C 0.148 0.58786 0.34914 0.0
H2366 H 0.21357 0.5725 0.33562 0.0
H2367 H 0.18753 0.59037 0.38063 0.0
S2368 S 0.10147 0.56656 0.26861 0.0
N2369 N 0.13286 0.55885 0.26036 0.0
N2370 N 0.10544 0.57951 0.30884 0.0
C2371 C 0.13323 0.57756 0.31709 0.0
C2372 C 0.14797 0.56642 0.29112 0.0
C2373 C 0.82541 0.8058 0.62913 0.0
C2374 C 0.83011 0.83887 0.62421 0.0
C2375 C 0.81741 0.79782 0.65865 0.0
C2376 C 0.81438 0.8226 0.68518 0.0
H2377 H 0.82867 0.78592 0.61025 0.0
H2378 H 0.81575 0.77243 0.66136 0.0
S2379 S 0.82313 0.91288 0.68522 0.0
N2380 N 0.8295 0.89643 0.64838 0.0
N2381 N 0.81594 0.88152 0.70418 0.0
C2382 C 0.81835 0.85559 0.68046 0.0
C2383 C 0.82573 0.86365 0.64999 0.0
C2384 C 0.80775 0.55185 0.5208 0.0
C2385 C 0.79941 0.51639 0.51026 0.0
C2386 C 0.78992 0.56851 0.53822 0.0
C2387 C 0.763 0.55036 0.54542 0.0
H2388 H 0.82913 0.56682 0.51768 0.0
H2389 H 0.79776 0.59574 0.54717 0.0
S2390 S 0.72903 0.45761 0.51923 0.0
N2391 N 0.76093 0.46387 0.50511 0.0
N2392 N 0.72725 0.49544 0.53793 0.0
C2393 C 0.75322 0.51516 0.53283 0.0
C2394 C 0.77149 0.4981 0.5152 0.0
C2395 C 0.19172 0.15057 0.48822 0.0
C2396 C 0.21823 0.15179 0.50694 0.0
C2397 C 0.16492 0.12756 0.4902 0.0
C2398 C 0.16367 0.10481 0.51082 0.0
H2399 H 0.1916 0.16796 0.47239 0.0
H2400 H 0.14489 0.12801 0.47598 0.0
S2401 S 0.22637 0.09964 0.56688 0.0
N2402 N 0.24122 0.12927 0.54798 0.0
N2403 N 0.1911 0.08582 0.55121 0.0
C2404 C 0.19007 0.10541 0.52929 0.0
C2405 C 0.21729 0.12895 0.52746 0.0
C2406 C 0.29275 0.93237 0.77119 0.0
C2407 C 0.26382 0.93421 0.7777 0.0
C2408 C 0.30405 0.90336 0.77193 0.0
C2409 C 0.28834 0.87395 0.78138 0.0
H2410 H 0.30721 0.95389 0.76488 0.0
H2411 H 0.32521 0.90429 0.76453 0.0
S2412 S 0.20936 0.86163 0.79572 0.0
N2413 N 0.21847 0.9003 0.78954 0.0
N2414 N 0.23905 0.84812 0.79281 0.0
C2415 C 0.25871 0.87499 0.78642 0.0
C2416 C 0.24689 0.90403 0.78445 0.0
C2417 C 0.45801 0.03123 0.01919 0.0
C2418 C 0.44569 0.99815 0.02248 0.0
C2419 C 0.48861 0.04445 0.02299 0.0
C2420 C 0.50723 0.02422 0.02833 0.0
H2421 H 0.44406 0.04708 0.01435 0.0
H2422 H 0.4977 0.0708 0.0228 0.0
S2423 S 0.48599 0.93781 0.04249 0.0
N2424 N 0.45461 0.94712 0.03531 0.0
N2425 N 0.51181 0.9709 0.03868 0.0
C2426 C 0.49514 0.99115 0.03115 0.0
C2427 C 0.46434 0.97831 0.02906 0.0
C2428 C 0.87422 0.58816 0.77335 0.0
C2429 C 0.87498 0.58959 0.80714 0.0
C2430 C 0.84924 0.58961 0.75455 0.0
C2431 C 0.82434 0.59303 0.76891 0.0
H2432 H 0.89304 0.58592 0.76112 0.0
H2433 H 0.85015 0.59037 0.72907 0.0
S2434 S 0.81576 0.60081 0.85635 0.0
N2435 N 0.84902 0.59559 0.85429 0.0
N2436 N 0.80203 0.59978 0.81861 0.0
C2437 C 0.82469 0.59469 0.80252 0.0
C2438 C 0.85008 0.59271 0.82175 0.0
C2439 C 0.89352 0.6656 0.04879 0.0
C2440 C 0.87989 0.65169 0.01608 0.0
C2441 C 0.91229 0.65063 0.06409 0.0
C2442 C 0.91823 0.62125 0.04726 0.0
H2443 H 0.88922 0.68794 0.06306 0.0
H2444 H 0.92197 0.66191 0.08941 0.0
S2445 S 0.89002 0.57602 0.96079 0.0
N2446 N 0.87514 0.60792 0.96679 0.0
N2447 N 0.91048 0.57955 0.99583 0.0
C2448 C 0.90597 0.60788 0.01415 0.0
C2449 C 0.88679 0.62319 0.99846 0.0
C2450 C 0.23974 0.15202 0.77499 0.0
C2451 C 0.25079 0.1291 0.78953 0.0
C2452 C 0.25692 0.18505 0.77546 0.0
C2453 C 0.28672 0.19775 0.79018 0.0
H2454 H 0.21708 0.14448 0.76314 0.0
H2455 H 0.24632 0.2008 0.76409 0.0
S2456 S 0.32645 0.15 0.83465 0.0
N2457 N 0.29368 0.12279 0.82087 0.0
N2458 N 0.32586 0.18458 0.82181 0.0
C2459 C 0.29821 0.17529 0.80508 0.0
C2460 C 0.28048 0.14127 0.80466 0.0
C2461 C 0.37062 0.95374 0.31528 0.0
C2462 C 0.40132 0.96204 0.32524 0.0
C2463 C 0.35427 0.9203 0.30095 0.0
C2464 C 0.36806 0.89423 0.29699 0.0
H2465 H 0.35921 0.97326 0.31779 0.0
H2466 H 0.33081 0.91477 0.2931 0.0
S2467 S 0.44712 0.90167 0.31911 0.0
N2468 N 0.44427 0.94056 0.33061 0.0
N2469 N 0.41351 0.87812 0.3031 0.0
C2470 C 0.39844 0.90193 0.30671 0.0
C2471 C 0.41506 0.93574 0.32134 0.0
C2472 C 0.61479 0.43738 0.59702 0.0
C2473 C 0.62028 0.4127 0.57192 0.0
C2474 C 0.60721 0.46675 0.5911 0.0
C2475 C 0.60369 0.47366 0.55951 0.0
H2476 H 0.61712 0.43453 0.62202 0.0
H2477 H 0.60431 0.48471 0.61205 0.0
S2478 S 0.61264 0.41613 0.48387 0.0
N2479 N 0.61997 0.39704 0.51307 0.0
N2480 N 0.60501 0.45105 0.50211 0.0
C2481 C 0.60799 0.44862 0.53379 0.0
C2482 C 0.61641 0.4188 0.53993 0.0
C2483 C 0.4457 0.77566 0.36258 0.0
C2484 C 0.44065 0.76674 0.39271 0.0
C2485 C 0.42352 0.78245 0.34207 0.0
C2486 C 0.39491 0.78042 0.3503 0.0
H2487 H 0.46734 0.77857 0.35518 0.0
H2488 H 0.42939 0.79066 0.32024 0.0
S2489 S 0.36938 0.75677 0.42541 0.0
N2490 N 0.40401 0.75557 0.42887 0.0
N2491 N 0.36285 0.76767 0.39058 0.0
C2492 C 0.38946 0.77097 0.37998 0.0
C2493 C 0.41201 0.76424 0.40092 0.0
C2494 C 0.10192 0.70095 0.0953 0.0
C2495 C 0.11421 0.71747 0.0715 0.0
C2496 C 0.09493 0.66522 0.09152 0.0
C2497 C 0.09881 0.64277 0.06324 0.0
H2498 H 0.09817 0.71589 0.11781 0.0
H2499 H 0.08608 0.65508 0.11138 0.0
S2500 S 0.12749 0.6719 0.99131 0.0
N2501 N 0.12931 0.70759 0.01759 0.0
N2502 N 0.11351 0.64099 1.0092 0.0
C2503 C 0.10993 0.65877 0.03843 0.0
C2504 C 0.11824 0.6956 0.04288 0.0
C2505 C 0.10402 0.28318 0.8624 0.0
C2506 C 0.11112 0.27935 0.89431 0.0
C2507 C 0.12598 0.29263 0.84321 0.0
C2508 C 0.15597 0.29846 0.85499 0.0
H2509 H 0.08137 0.28014 0.85249 0.0
H2510 H 0.1195 0.29661 0.81932 0.0
S2511 S 0.18648 0.28892 0.93556 0.0
N2512 N 0.15051 0.27967 0.93585 0.0
N2513 N 0.19167 0.29769 0.89966 0.0
C2514 C 0.1634 0.2929 0.88605 0.0
C2515 C 0.14102 0.28335 0.90575 0.0
C2516 C 0.65031 0.79827 0.99777 0.0
C2517 C 0.64078 0.79308 0.9642 0.0
C2518 C 0.63618 0.77609 0.01571 0.0
C2519 C 0.61212 0.74856 1.00044 0.0
H2520 H 0.66726 0.82093 0.01062 0.0
H2521 H 0.64293 0.78153 0.04193 0.0
S2522 S 0.58047 0.72224 0.9127 0.0
N2523 N 0.60735 0.75709 0.91584 0.0
N2524 N 0.58096 0.71497 0.94985 0.0
C2525 C 0.6039 0.74141 0.96648 0.0
C2526 C 0.6183 0.76391 0.94816 0.0
C2527 C 0.10559 0.76262 0.73029 0.0
C2528 C 0.08274 0.7329 0.71703 0.0
C2529 C 0.13249 0.76082 0.74516 0.0
C2530 C 0.13688 0.72934 0.74692 0.0
H2531 H 0.10219 0.78728 0.73072 0.0
H2532 H 0.14929 0.78408 0.75682 0.0
S2533 S 0.08703 0.64455 0.70849 0.0
N2534 N 0.06849 0.6712 0.70078 0.0
N2535 N 0.11895 0.66823 0.72979 0.0
C2536 C 0.11543 0.6996 0.73106 0.0
C2537 C 0.08828 0.7013 0.71571 0.0
C2538 C 0.16301 0.46708 0.48402 0.0
C2539 C 0.15198 0.44585 0.45306 0.0
C2540 C 0.14984 0.49216 0.49625 0.0
C2541 C 0.1247 0.49557 0.47834 0.0
H2542 H 0.18039 0.46271 0.49966 0.0
H2543 H 0.15854 0.50783 0.52052 0.0
S2544 S 0.0889 0.4472 0.39515 0.0
N2545 N 0.11644 0.43131 0.4035 0.0
N2546 N 0.09097 0.47793 0.42729 0.0
C2547 C 0.11502 0.47631 0.44636 0.0
C2548 C 0.12886 0.45137 0.43354 0.0
C2549 C 0.41239 0.2538 0.20842 0.0
C2550 C 0.4403 0.26341 0.22724 0.0
C2551 C 0.3875 0.25493 0.22345 0.0
C2552 C 0.38997 0.2664 0.25753 0.0
H2553 H 0.40959 0.24361 0.18222 0.0
H2554 H 0.36612 0.24647 0.20841 0.0
S2555 S 0.45868 0.2968 0.31692 0.0
N2556 N 0.46955 0.28594 0.28108 0.0
N2557 N 0.42244 0.28901 0.30949 0.0
C2558 C 0.41786 0.2771 0.27649 0.0
C2559 C 0.44322 0.27555 0.26119 0.0
C2560 C 0.66321 0.55206 0.40424 0.0
C2561 C 0.65086 0.52628 0.37523 0.0
C2562 C 0.65121 0.55326 0.43472 0.0
C2563 C 0.62499 0.52955 0.43874 0.0
H2564 H 0.68219 0.57239 0.40325 0.0
H2565 H 0.66243 0.57396 0.45521 0.0
S2566 S 0.58434 0.45518 0.3714 0.0
N2567 N 0.61091 0.47539 0.35387 0.0
N2568 N 0.58892 0.47735 0.40953 0.0
C2569 C 0.61291 0.50317 0.40999 0.0
C2570 C 0.62538 0.50177 0.37908 0.0
C2571 C 0.36912 0.91882 0.10566 0.0
C2572 C 0.35891 0.89308 0.07699 0.0
C2573 C 0.37808 0.911 0.13484 0.0
C2574 C 0.37616 0.87736 0.13577 0.0
H2575 H 0.37426 0.94522 0.10457 0.0
H2576 H 0.38934 0.93142 0.15568 0.0
S2577 S 0.34262 0.80086 0.06919 0.0
N2578 N 0.34124 0.83297 0.05253 0.0
N2579 N 0.35739 0.81779 0.10785 0.0
C2580 C 0.36129 0.85119 0.10866 0.0
C2581 C 0.3526 0.85925 0.07894 0.0
C2582 C 0.04096 0.59076 0.90384 0.0
C2583 C 0.01029 0.58442 0.89936 0.0
C2584 C 0.05503 0.58218 0.92975 0.0
C2585 C 0.0387 0.56737 0.9518 0.0
H2586 H 0.05353 0.59806 0.88488 0.0
H2587 H 0.07853 0.58548 0.93127 0.0
S2588 S 0.95745 0.54885 0.95105 0.0
N2589 N 0.96406 0.56619 0.91971 0.0
N2590 N 0.99001 0.54888 0.96824 0.0
C2591 C 0.00805 0.56355 0.94878 0.0
C2592 C 0.994 0.57319 0.92289 0.0
C2593 C 0.31684 0.2912 0.6415 0.0
C2594 C 0.31798 0.26108 0.62002 0.0
C2595 C 0.32011 0.29493 0.67603 0.0
C2596 C 0.32351 0.26822 0.69041 0.0
H2597 H 0.3137 0.31217 0.63162 0.0
H2598 H 0.32006 0.31886 0.69148 0.0
S2599 S 0.32582 0.18332 0.64518 0.0
N2600 N 0.32224 0.20394 0.61632 0.0
N2601 N 0.32654 0.21013 0.67986 0.0
C2602 C 0.32393 0.23784 0.66902 0.0
C2603 C 0.32159 0.23445 0.63432 0.0
C2604 C 0.66065 0.52655 0.15386 0.0
C2605 C 0.64313 0.52675 0.17957 0.0
C2606 C 0.65088 0.53091 0.12188 0.0
C2607 C 0.62278 0.53589 0.11253 0.0
H2608 H 0.68269 0.52398 0.15866 0.0
H2609 H 0.66602 0.53067 0.1041 0.0
S2610 S 0.56699 0.53756 0.16916 0.0
N2611 N 0.59492 0.53198 0.19169 0.0
N2612 N 0.57735 0.53957 0.13303 0.0
C2613 C 0.60489 0.53575 0.13775 0.0
C2614 C 0.61478 0.53144 0.17038 0.0
C2615 C 0.33139 0.88199 0.91164 0.0
C2616 C 0.35885 0.89829 0.93055 0.0
C2617 C 0.32872 0.8554 0.88503 0.0
C2618 C 0.35319 0.84389 0.87728 0.0
H2619 H 0.31198 0.88995 0.91721 0.0
H2620 H 0.30781 0.84546 0.86918 0.0
S2621 S 0.43059 0.88148 0.91657 0.0
N2622 N 0.41173 0.90407 0.93777 0.0
N2623 N 0.40601 0.85247 0.88814 0.0
C2624 C 0.3809 0.86048 0.89546 0.0
C2625 C 0.38386 0.88808 0.92219 0.0
C2626 C 0.96931 0.53426 0.70514 0.0
C2627 C 0.99256 0.55037 0.73079 0.0
C2628 C 0.9749 0.51756 0.67539 0.0
C2629 C 1.00386 0.51809 0.67064 0.0
H2630 H 0.94663 0.52993 0.70967 0.0
H2631 H 0.9565 0.50183 0.65718 0.0
S2632 S 0.07232 0.56385 0.72874 0.0
N2633 N 0.04526 0.57107 0.74865 0.0
N2634 N 0.05633 0.54098 0.69195 0.0
C2635 C 0.02752 0.53876 0.69455 0.0
C2636 C 0.02169 0.55511 0.72495 0.0
C2637 C 0.31813 0.22916 0.40577 0.0
C2638 C 0.3273 0.25495 0.43463 0.0
C2639 C 0.32403 0.23547 0.37499 0.0
C2640 C 0.33971 0.26782 0.37154 0.0
H2641 H 0.30508 0.20423 0.40675 0.0
H2642 H 0.31501 0.21499 0.35355 0.0
S2643 S 0.37373 0.34197 0.4412 0.0
N2644 N 0.35582 0.31268 0.45871 0.0
N2645 N 0.36819 0.32421 0.40168 0.0
C2646 C 0.35106 0.29288 0.4009 0.0
C2647 C 0.34445 0.28662 0.43213 0.0
C2648 C 0.36568 0.55339 0.54183 0.0
C2649 C 0.36352 0.58467 0.53636 0.0
C2650 C 0.38499 0.53731 0.52651 0.0
C2651 C 0.40229 0.552 0.50512 0.0
H2652 H 0.35169 0.54077 0.55718 0.0
H2653 H 0.38561 0.51273 0.5304 0.0
S2654 S 0.40669 0.63444 0.48421 0.0
N2655 N 0.38186 0.6307 0.5094 0.0
N2656 N 0.41811 0.6 0.48072 0.0
C2657 C 0.4016 0.58393 0.50067 0.0
C2658 C 0.38217 0.60048 0.51635 0.0
C2659 C 0.96912 0.94281 0.57019 0.0
C2660 C 0.94242 0.94687 0.55633 0.0
C2661 C 0.99655 0.96498 0.56886 0.0
C2662 C 0.99851 0.99242 0.55393 0.0
H2663 H 0.96888 0.92173 0.5815 0.0
H2664 H 0.01647 0.96024 0.57908 0.0
S2665 S 0.93567 1.01329 0.51194 0.0
N2666 N 0.92003 0.98006 0.52599 0.0
N2667 N 0.97145 0.02178 0.52388 0.0
C2668 C 0.97205 0.99724 0.54044 0.0
C2669 C 0.94407 0.97452 0.54158 0.0
C2670 C 0.90739 0.18788 0.26837 0.0
C2671 C 0.90441 0.17272 0.29571 0.0
C2672 C 0.89338 0.21382 0.26306 0.0
C2673 C 0.87519 0.22751 0.28452 0.0
H2674 H 0.92097 0.17989 0.25075 0.0
H2675 H 0.89726 0.22364 0.24147 0.0
S2676 S 0.85951 0.19826 0.36044 0.0
N2677 N 0.88013 0.17461 0.34458 0.0
N2678 N 0.85654 0.22327 0.33543 0.0
C2679 C 0.8723 0.21297 0.31205 0.0
C2680 C 0.88598 0.18607 0.31725 0.0
C2681 C 0.70215 0.08188 0.04562 0.0
C2682 C 0.71442 0.09017 0.01845 0.0
C2683 C 0.67367 0.08416 0.04935 0.0
C2684 C 0.65739 0.09591 0.0271 0.0
H2685 H 0.71573 0.07826 0.06594 0.0
H2686 H 0.66522 0.07864 0.07057 0.0
S2687 S 0.6785 0.11053 0.94745 0.0
N2688 N 0.70558 0.09826 0.96378 0.0
N2689 N 0.655 0.11024 0.97396 0.0
C2690 C 0.6684 0.09937 0.9977 0.0
C2691 C 0.69575 0.09293 0.99217 0.0
C2692 C 0.28202 0.46522 0.25326 0.0
C2693 C 0.28022 0.49773 0.25319 0.0
C2694 C 0.30625 0.46073 0.27092 0.0
C2695 C 0.32943 0.48878 0.28889 0.0
H2696 H 0.26453 0.44329 0.23991 0.0
H2697 H 0.30623 0.43499 0.27131 0.0
S2698 S 0.33349 0.57921 0.29759 0.0
N2699 N 0.30215 0.55862 0.27333 0.0
N2700 N 0.34845 0.54981 0.30604 0.0
C2701 C 0.32768 0.52144 0.28891 0.0
C2702 C 0.30288 0.52605 0.27108 0.0
C2703 C 0.28535 0.48518 0.05267 0.0
C2704 C 0.2871 0.45213 0.04004 0.0
C2705 C 0.26217 0.49663 0.04063 0.0
C2706 C 0.24006 0.47542 0.01559 0.0
H2707 H 0.30254 0.50281 0.07119 0.0
H2708 H 0.26226 0.52269 0.04987 0.0
S2709 S 0.2317 0.38571 0.97665 0.0
N2710 N 0.26251 0.39729 1.00287 0.0
N2711 N 0.21923 0.41943 0.98042 0.0
C2712 C 0.24033 0.44187 1.00401 0.0
C2713 C 0.2638 0.43002 0.01623 0.0
C2714 C 0.91834 0.94054 0.25691 0.0
C2715 C 0.9113 0.97077 0.27084 0.0
C2716 C 0.90053 0.90784 0.25697 0.0
C2717 C 0.87424 0.9027 0.27105 0.0
H2718 H 0.93842 0.94203 0.24612 0.0
H2719 H 0.90789 0.88624 0.24612 0.0
S2720 S 0.84574 0.97269 0.31269 0.0
N2721 N 0.87577 0.99274 0.29995 0.0
N2722 N 0.84285 0.93188 0.30074 0.0
C2723 C 0.86671 0.93263 0.28506 0.0
C2724 C 0.88491 0.96623 0.28477 0.0
C2725 C 0.76831 0.16369 0.74261 0.0
C2726 C 0.78277 0.14428 0.758 0.0
C2727 C 0.77699 0.19882 0.75279 0.0
C2728 C 0.80163 0.21539 0.77659 0.0
H2729 H 0.74811 0.15171 0.72559 0.0
H2730 H 0.76284 0.21282 0.7441 0.0
S2731 S 0.84727 0.17582 0.82324 0.0
N2732 N 0.82249 0.14365 0.79812 0.0
N2733 N 0.84058 0.21026 0.81496 0.0
C2734 C 0.81741 0.19632 0.79053 0.0
C2735 C 0.80776 0.1605 0.78139 0.0
loop_
_geom_bond_atom_site_label_1
_geom_bond_atom_site_label_2
_geom_bond_distance
_geom_bond_site_symmetry_2
_ccdc_geom_bond_type
Zn0 O3 2.031 . S
Zn0 O5 2.049 . S
Zn0 O10 2.067 . S
Zn1 O2 1.962 . S
Zn1 O4 1.986 . S
Zn1 O6 1.996 . S
Zn1 O9 1.943 . S
O2 Zn1 1.962 . S
O2 C7 1.254 . S
O3 Zn0 2.031 . S
O3 C7 1.269 . S
O4 Zn1 1.986 . S
O4 C11 1.262 . S
O5 Zn0 2.049 . S
O5 C13 1.260 . S
O6 Zn1 1.996 . S
O6 C13 1.257 . S
C7 O2 1.254 . S
C7 O3 1.269 . S
C8 O9 1.249 . S
C8 O10 1.270 . S
O9 Zn1 1.943 . S
O9 C8 1.249 . S
O10 Zn0 2.067 . S
O10 C8 1.270 . S
C11 O4 1.262 . S
C11 O12 1.232 . S
O12 C11 1.232 . S
C13 O5 1.260 . S
C13 O6 1.257 . S
Zn14 O17 2.031 1_455 S
Zn14 O19 2.049 . S
Zn14 O24 2.067 . S
Zn15 O16 1.943 1_455 S
Zn15 O18 1.993 . S
Zn15 O20 2.011 . S
Zn15 O23 1.947 1_455 S
O16 Zn15 1.943 1_655 S
O16 C21 1.254 . S
O17 Zn14 2.031 1_655 S
O17 C21 1.269 . S
O18 Zn15 1.993 . S
O18 C25 1.262 . S
O19 Zn14 2.049 . S
O19 C27 1.260 . S
O20 Zn15 2.011 . S
O20 C27 1.257 . S
C21 O16 1.254 . S
C21 O17 1.269 . S
C22 O23 1.249 . S
C22 O24 1.270 1_655 S
O23 Zn15 1.947 1_655 S
O23 C22 1.249 . S
O24 Zn14 2.067 . S
O24 C22 1.270 1_455 S
C25 O18 1.262 . S
C25 O26 1.232 1_455 S
O26 C25 1.232 1_655 S
C27 O19 1.260 . S
C27 O20 1.257 . S
Zn28 O31 2.031 . S
Zn28 O33 2.049 . S
Zn28 O38 2.067 . S
Zn29 O30 1.962 . S
Zn29 O32 1.986 . S
Zn29 O34 1.996 . S
Zn29 O37 1.943 . S
O30 Zn29 1.962 . S
O30 C35 1.254 . S
O31 Zn28 2.031 . S
O31 C35 1.269 . S
O32 Zn29 1.986 . S
O32 C39 1.262 . S
O33 Zn28 2.049 . S
O33 C41 1.260 . S
O34 Zn29 1.996 . S
O34 C41 1.257 . S
C35 O30 1.254 . S
C35 O31 1.269 . S
C36 O37 1.249 . S
C36 O38 1.270 . S
O37 Zn29 1.943 . S
O37 C36 1.249 . S
O38 Zn28 2.067 . S
O38 C36 1.270 . S
C39 O32 1.262 . S
C39 O40 1.232 . S
O40 C39 1.232 . S
C41 O33 1.260 . S
C41 O34 1.257 . S
Zn42 O45 2.031 . S
Zn42 O47 2.049 . S
Zn42 O52 2.067 . S
Zn43 O44 1.962 . S
Zn43 O46 1.986 . S
Zn43 O48 1.996 . S
Zn43 O51 1.943 . S
O44 Zn43 1.962 . S
O44 C49 1.254 . S
O45 Zn42 2.031 . S
O45 C49 1.269 . S
O46 Zn43 1.986 . S
O46 C53 1.262 . S
O47 Zn42 2.049 . S
O47 C55 1.260 . S
O48 Zn43 1.996 . S
O48 C55 1.257 . S
C49 O44 1.254 . S
C49 O45 1.269 . S
C50 O51 1.249 . S
C50 O52 1.270 . S
O51 Zn43 1.943 . S
O51 C50 1.249 . S
O52 Zn42 2.067 . S
O52 C50 1.270 . S
C53 O46 1.262 . S
C53 O54 1.232 . S
O54 C53 1.232 . S
C55 O47 1.260 . S
C55 O48 1.257 . S
Zn56 O59 2.031 . S
Zn56 O61 2.049 . S
Zn56 O66 2.067 . S
Zn57 O58 1.962 . S
Zn57 O60 1.986 . S
Zn57 O62 1.996 . S
Zn57 O65 1.943 . S
O58 Zn57 1.962 . S
O58 C63 1.254 . S
O59 Zn56 2.031 . S
O59 C63 1.269 . S
O60 Zn57 1.986 . S
O60 C67 1.262 . S
O61 Zn56 2.049 . S
O61 C69 1.260 . S
O62 Zn57 1.996 . S
O62 C69 1.257 . S
C63 O58 1.254 . S
C63 O59 1.269 . S
C64 O65 1.249 . S
C64 O66 1.270 . S
O65 Zn57 1.943 . S
O65 C64 1.249 . S
O66 Zn56 2.067 . S
O66 C64 1.270 . S
C67 O60 1.262 . S
C67 O68 1.232 . S
O68 C67 1.232 . S
C69 O61 1.260 . S
C69 O62 1.257 . S
Zn70 O73 2.031 . S
Zn70 O75 2.049 . S
Zn70 O80 2.067 . S
Zn71 O72 1.962 . S
Zn71 O74 1.986 . S
Zn71 O76 1.996 . S
Zn71 O79 1.943 . S
O72 Zn71 1.962 . S
O72 C77 1.254 . S
O73 Zn70 2.031 . S
O73 C77 1.269 . S
O74 Zn71 1.986 . S
O74 C81 1.262 . S
O75 Zn70 2.049 . S
O75 C83 1.260 . S
O76 Zn71 1.996 . S
O76 C83 1.257 . S
C77 O72 1.254 . S
C77 O73 1.269 . S
C78 O79 1.249 . S
C78 O80 1.270 . S
O79 Zn71 1.943 . S
O79 C78 1.249 . S
O80 Zn70 2.067 . S
O80 C78 1.270 . S
C81 O74 1.262 . S
C81 O82 1.232 . S
O82 C81 1.232 . S
C83 O75 1.260 . S
C83 O76 1.257 . S
Zn84 O87 2.031 . S
Zn84 O89 2.049 . S
Zn84 O94 2.067 . S
Zn85 O86 1.962 . S
Zn85 O88 1.986 . S
Zn85 O90 1.996 . S
Zn85 O93 1.943 . S
O86 Zn85 1.962 . S
O86 C91 1.254 . S
O87 Zn84 2.031 . S
O87 C91 1.269 . S
O88 Zn85 1.986 . S
O88 C95 1.262 . S
O89 Zn84 2.049 . S
O89 C97 1.260 . S
O90 Zn85 1.996 . S
O90 C97 1.257 . S
C91 O86 1.254 . S
C91 O87 1.269 . S
C92 O93 1.249 . S
C92 O94 1.270 . S
O93 Zn85 1.943 . S
O93 C92 1.249 . S
O94 Zn84 2.067 . S
O94 C92 1.270 . S
C95 O88 1.262 . S
C95 O96 1.232 . S
O96 C95 1.232 . S
C97 O89 1.260 . S
C97 O90 1.257 . S
Zn98 O101 2.031 1_655 S
Zn98 O103 2.049 . S
Zn98 O108 2.067 . S
Zn99 O100 1.962 . S
Zn99 O102 1.986 . S
Zn99 O104 1.996 . S
Zn99 O107 1.943 . S
O100 Zn99 1.962 . S
O100 C105 1.254 . S
O101 Zn98 2.031 1_455 S
O101 C105 1.269 . S
O102 Zn99 1.986 . S
O102 C109 1.262 . S
O103 Zn98 2.049 . S
O103 C111 1.260 1_655 S
O104 Zn99 1.996 . S
O104 C111 1.257 . S
C105 O100 1.254 . S
C105 O101 1.269 . S
C106 O107 1.249 1_655 S
C106 O108 1.270 . S
O107 Zn99 1.943 . S
O107 C106 1.249 1_455 S
O108 Zn98 2.067 . S
O108 C106 1.270 . S
C109 O102 1.262 . S
C109 O110 1.232 . S
O110 C109 1.232 . S
C111 O103 1.260 1_455 S
C111 O104 1.257 . S
Zn112 O115 2.031 . S
Zn112 O117 2.049 . S
Zn112 O122 2.067 . S
Zn113 O114 1.962 . S
Zn113 O116 1.986 . S
Zn113 O118 1.996 . S
Zn113 O121 1.943 1_545 S
O114 Zn113 1.962 . S
O114 C119 1.254 . S
O115 Zn112 2.031 . S
O115 C119 1.269 1_565 S
O116 Zn113 1.986 . S
O116 C123 1.262 . S
O117 Zn112 2.049 . S
O117 C125 1.260 . S
O118 Zn113 1.996 . S
O118 C125 1.257 1_545 S
C119 O114 1.254 . S
C119 O115 1.269 1_545 S
C120 O121 1.249 . S
C120 O122 1.270 . S
O121 Zn113 1.943 1_565 S
O121 C120 1.249 . S
O122 Zn112 2.067 . S
O122 C120 1.270 . S
C123 O116 1.262 . S
C123 O124 1.232 . S
O124 C123 1.232 . S
C125 O117 1.260 . S
C125 O118 1.257 1_565 S
Zn126 O129 2.031 . S
Zn126 O131 2.049 . S
Zn126 O136 2.067 . S
Zn127 O128 1.962 . S
Zn127 O130 1.986 . S
Zn127 O132 1.996 . S
Zn127 O135 1.943 . S
O128 Zn127 1.962 . S
O128 C133 1.254 . S
O129 Zn126 2.031 . S
O129 C133 1.269 . S
O130 Zn127 1.986 . S
O130 C137 1.262 . S
O131 Zn126 2.049 . S
O131 C139 1.260 . S
O132 Zn127 1.996 . S
O132 C139 1.257 . S
C133 O128 1.254 . S
C133 O129 1.269 . S
C134 O135 1.249 . S
C134 O136 1.270 . S
O135 Zn127 1.943 . S
O135 C134 1.249 . S
O136 Zn126 2.067 . S
O136 C134 1.270 . S
C137 O130 1.262 . S
C137 O138 1.232 . S
O138 C137 1.232 . S
C139 O131 1.260 . S
C139 O132 1.257 . S
Zn140 O143 2.031 . S
Zn140 O145 2.049 . S
Zn140 O150 2.067 . S
Zn141 O142 1.962 . S
Zn141 O144 1.986 . S
Zn141 O146 1.996 . S
Zn141 O149 1.943 1_565 S
O142 Zn141 1.962 . S
O142 C147 1.254 1_565 S
O143 Zn140 2.031 . S
O143 C147 1.269 . S
O144 Zn141 1.986 . S
O144 C151 1.262 . S
O145 Zn140 2.049 . S
O145 C153 1.260 1_545 S
O146 Zn141 1.996 . S
O146 C153 1.257 . S
C147 O142 1.254 1_545 S
C147 O143 1.269 . S
C148 O149 1.249 . S
C148 O150 1.270 . S
O149 Zn141 1.943 1_545 S
O149 C148 1.249 . S
O150 Zn140 2.067 . S
O150 C148 1.270 . S
C151 O144 1.262 . S
C151 O152 1.232 . S
O152 C151 1.232 . S
C153 O145 1.260 1_565 S
C153 O146 1.257 . S
Zn154 O157 2.031 1_554 S
Zn154 O159 2.049 . S
Zn154 O164 2.067 . S
Zn155 O156 1.962 1_554 S
Zn155 O158 1.986 . S
Zn155 O160 1.996 . S
Zn155 O163 1.943 . S
O156 Zn155 1.962 1_556 S
O156 C161 1.254 . S
O157 Zn154 2.031 1_556 S
O157 C161 1.269 . S
O158 Zn155 1.986 . S
O158 C165 1.262 . S
O159 Zn154 2.049 . S
O159 C167 1.260 . S
O160 Zn155 1.996 . S
O160 C167 1.257 . S
C161 O156 1.254 . S
C161 O157 1.269 . S
C162 O163 1.249 . S
C162 O164 1.270 . S
O163 Zn155 1.943 . S
O163 C162 1.249 . S
O164 Zn154 2.067 . S
O164 C162 1.270 . S
C165 O158 1.262 . S
C165 O166 1.232 1_554 S
O166 C165 1.232 1_556 S
C167 O159 1.260 . S
C167 O160 1.257 . S
Zn168 O171 2.031 1_554 S
Zn168 O173 2.049 . S
Zn168 O178 2.067 . S
Zn169 O170 1.962 1_554 S
Zn169 O172 1.986 . S
Zn169 O174 1.996 . S
Zn169 O177 1.943 . S
O170 Zn169 1.962 1_556 S
O170 C175 1.254 . S
O171 Zn168 2.031 1_556 S
O171 C175 1.269 . S
O172 Zn169 1.986 . S
O172 C179 1.262 . S
O173 Zn168 2.049 . S
O173 C181 1.260 . S
O174 Zn169 1.996 . S
O174 C181 1.257 . S
C175 O170 1.254 . S
C175 O171 1.269 . S
C176 O177 1.249 . S
C176 O178 1.270 . S
O177 Zn169 1.943 . S
O177 C176 1.249 . S
O178 Zn168 2.067 . S
O178 C176 1.270 . S
C179 O172 1.262 . S
C179 O180 1.232 . S
O180 C179 1.232 . S
C181 O173 1.260 . S
C181 O174 1.257 . S
Zn182 O185 2.031 . S
Zn182 O187 2.049 . S
Zn182 O192 2.067 . S
Zn183 O184 1.962 . S
Zn183 O186 1.986 . S
Zn183 O188 1.996 . S
Zn183 O191 1.943 . S
O184 Zn183 1.962 . S
O184 C189 1.254 1_554 S
O185 Zn182 2.031 . S
O185 C189 1.269 1_554 S
O186 Zn183 1.986 . S
O186 C193 1.262 . S
O187 Zn182 2.049 . S
O187 C195 1.260 . S
O188 Zn183 1.996 . S
O188 C195 1.257 . S
C189 O184 1.254 1_556 S
C189 O185 1.269 1_556 S
C190 O191 1.249 . S
C190 O192 1.270 . S
O191 Zn183 1.943 . S
O191 C190 1.249 . S
O192 Zn182 2.067 . S
O192 C190 1.270 . S
C193 O186 1.262 . S
C193 O194 1.232 . S
O194 C193 1.232 . S
C195 O187 1.260 . S
C195 O188 1.257 . S
Zn196 O199 2.031 . S
Zn196 O201 2.049 . S
Zn196 O206 2.067 . S
Zn197 O198 1.962 . S
Zn197 O200 1.986 . S
Zn197 O202 1.996 . S
Zn197 O205 1.943 . S
O198 Zn197 1.962 . S
O198 C203 1.254 . S
O199 Zn196 2.031 . S
O199 C203 1.269 . S
O200 Zn197 1.986 . S
O200 C207 1.262 . S
O201 Zn196 2.049 . S
O201 C209 1.260 . S
O202 Zn197 1.996 . S
O202 C209 1.257 . S
C203 O198 1.254 . S
C203 O199 1.269 . S
C204 O205 1.249 . S
C204 O206 1.270 . S
O205 Zn197 1.943 . S
O205 C204 1.249 . S
O206 Zn196 2.067 . S
O206 C204 1.270 . S
C207 O200 1.262 . S
C207 O208 1.232 . S
O208 C207 1.232 . S
C209 O201 1.260 . S
C209 O202 1.257 . S
Zn210 O213 2.031 . S
Zn210 O215 2.049 . S
Zn210 O220 2.067 . S
Zn211 O212 1.962 . S
Zn211 O214 1.986 . S
Zn211 O216 1.996 . S
Zn211 O219 1.943 . S
O212 Zn211 1.962 . S
O212 C217 1.254 . S
O213 Zn210 2.031 . S
O213 C217 1.269 . S
O214 Zn211 1.986 . S
O214 C221 1.262 . S
O215 Zn210 2.049 . S
O215 C223 1.260 . S
O216 Zn211 1.996 . S
O216 C223 1.257 . S
C217 O212 1.254 . S
C217 O213 1.269 . S
C218 O219 1.249 . S
C218 O220 1.270 . S
O219 Zn211 1.943 . S
O219 C218 1.249 . S
O220 Zn210 2.067 . S
O220 C218 1.270 . S
C221 O214 1.262 . S
C221 O222 1.232 . S
O222 C221 1.232 . S
C223 O215 1.260 . S
C223 O216 1.257 . S
Zn224 O227 2.027 1_455 S
Zn224 O229 2.051 . S
Zn224 O234 2.056 1_445 S
Zn225 O226 1.962 . S
Zn225 O228 1.986 . S
Zn225 O230 1.996 . S
Zn225 O233 1.943 . S
O226 Zn225 1.962 . S
O226 C231 1.254 . S
O227 Zn224 2.027 1_655 S
O227 C231 1.269 . S
O228 Zn225 1.986 . S
O228 C235 1.262 . S
O229 Zn224 2.051 . S
O229 C237 1.260 1_455 S
O230 Zn225 1.996 . S
O230 C237 1.257 . S
C231 O226 1.254 . S
C231 O227 1.269 . S
C232 O233 1.249 . S
C232 O234 1.265 1_545 S
O233 Zn225 1.943 . S
O233 C232 1.249 . S
O234 Zn224 2.056 1_665 S
O234 C232 1.265 1_565 S
C235 O228 1.262 . S
C235 O236 1.232 . S
O236 C235 1.232 . S
C237 O229 1.260 1_655 S
C237 O230 1.257 . S
Zn238 O241 2.031 . S
Zn238 O243 2.049 . S
Zn238 O248 2.067 . S
Zn239 O240 1.962 . S
Zn239 O242 1.986 . S
Zn239 O244 1.996 . S
Zn239 O247 1.943 . S
O240 Zn239 1.962 . S
O240 C245 1.254 . S
O241 Zn238 2.031 . S
O241 C245 1.269 . S
O242 Zn239 1.986 . S
O242 C249 1.262 . S
O243 Zn238 2.049 . S
O243 C251 1.260 . S
O244 Zn239 1.996 . S
O244 C251 1.257 . S
C245 O240 1.254 . S
C245 O241 1.269 . S
C246 O247 1.249 . S
C246 O248 1.270 . S
O247 Zn239 1.943 . S
O247 C246 1.249 . S
O248 Zn238 2.067 . S
O248 C246 1.270 . S
C249 O242 1.262 . S
C249 O250 1.232 . S
O250 C249 1.232 . S
C251 O243 1.260 . S
C251 O244 1.257 . S
Zn252 O255 2.031 . S
Zn252 O257 2.049 . S
Zn252 O262 2.067 . S
Zn253 O254 1.962 . S
Zn253 O256 1.986 . S
Zn253 O258 1.996 . S
Zn253 O261 1.943 . S
O254 Zn253 1.962 . S
O254 C259 1.254 . S
O255 Zn252 2.031 . S
O255 C259 1.269 . S
O256 Zn253 1.986 . S
O256 C263 1.262 . S
O257 Zn252 2.049 . S
O257 C265 1.260 . S
O258 Zn253 1.996 . S
O258 C265 1.257 . S
C259 O254 1.254 . S
C259 O255 1.269 . S
C260 O261 1.249 . S
C260 O262 1.270 . S
O261 Zn253 1.943 . S
O261 C260 1.249 . S
O262 Zn252 2.067 . S
O262 C260 1.270 . S
C263 O256 1.262 . S
C263 O264 1.232 . S
O264 C263 1.232 . S
C265 O257 1.260 . S
C265 O258 1.257 . S
Zn266 O269 2.031 . S
Zn266 O271 2.049 . S
Zn266 O276 2.067 . S
Zn267 O268 1.962 . S
Zn267 O270 1.986 . S
Zn267 O272 1.996 . S
Zn267 O275 1.943 . S
O268 Zn267 1.962 . S
O268 C273 1.254 . S
O269 Zn266 2.031 . S
O269 C273 1.269 . S
O270 Zn267 1.986 . S
O270 C277 1.262 . S
O271 Zn266 2.049 . S
O271 C279 1.260 . S
O272 Zn267 1.996 . S
O272 C279 1.257 . S
C273 O268 1.254 . S
C273 O269 1.269 . S
C274 O275 1.249 . S
C274 O276 1.270 . S
O275 Zn267 1.943 . S
O275 C274 1.249 . S
O276 Zn266 2.067 . S
O276 C274 1.270 . S
C277 O270 1.262 . S
C277 O278 1.232 . S
O278 C277 1.232 . S
C279 O271 1.260 . S
C279 O272 1.257 . S
Zn280 O283 2.031 1_554 S
Zn280 O285 2.049 . S
Zn280 O290 2.067 . S
Zn281 O282 1.987 . S
Zn281 O284 1.973 1_556 S
Zn281 O286 1.978 1_556 S
Zn281 O289 1.940 . S
O282 Zn281 1.987 . S
O282 C287 1.254 . S
O283 Zn280 2.031 1_556 S
O283 C287 1.269 . S
O284 Zn281 1.973 1_554 S
O284 C291 1.262 1_554 S
O285 Zn280 2.049 . S
O285 C293 1.260 . S
O286 Zn281 1.978 1_554 S
O286 C293 1.257 . S
C287 O282 1.254 . S
C287 O283 1.269 . S
C288 O289 1.249 . S
C288 O290 1.270 1_556 S
O289 Zn281 1.940 . S
O289 C288 1.249 . S
O290 Zn280 2.067 . S
O290 C288 1.270 1_554 S
C291 O284 1.262 1_556 S
C291 O292 1.232 . S
O292 C291 1.232 . S
C293 O285 1.260 . S
C293 O286 1.257 . S
Zn294 O297 2.031 . S
Zn294 O299 2.049 . S
Zn294 O304 2.067 . S
Zn295 O296 1.962 . S
Zn295 O298 1.986 . S
Zn295 O300 1.996 . S
Zn295 O303 1.943 . S
O296 Zn295 1.962 . S
O296 C301 1.254 . S
O297 Zn294 2.031 . S
O297 C301 1.269 . S
O298 Zn295 1.986 . S
O298 C305 1.262 . S
O299 Zn294 2.049 . S
O299 C307 1.260 . S
O300 Zn295 1.996 . S
O300 C307 1.257 . S
C301 O296 1.254 . S
C301 O297 1.269 . S
C302 O303 1.249 . S
C302 O304 1.270 . S
O303 Zn295 1.943 . S
O303 C302 1.249 . S
O304 Zn294 2.067 . S
O304 C302 1.270 . S
C305 O298 1.262 . S
C305 O306 1.232 . S
O306 C305 1.232 . S
C307 O299 1.260 . S
C307 O300 1.257 . S
Zn308 O311 2.031 . S
Zn308 O313 2.049 . S
Zn308 O318 2.067 . S
Zn309 O310 1.962 . S
Zn309 O312 1.986 . S
Zn309 O314 1.996 . S
Zn309 O317 1.943 . S
O310 Zn309 1.962 . S
O310 C315 1.254 . S
O311 Zn308 2.031 . S
O311 C315 1.269 . S
O312 Zn309 1.986 . S
O312 C319 1.262 . S
O313 Zn308 2.049 . S
O313 C321 1.260 . S
O314 Zn309 1.996 . S
O314 C321 1.257 . S
C315 O310 1.254 . S
C315 O311 1.269 . S
C316 O317 1.249 . S
C316 O318 1.270 . S
O317 Zn309 1.943 . S
O317 C316 1.249 . S
O318 Zn308 2.067 . S
O318 C316 1.270 . S
C319 O312 1.262 . S
C319 O320 1.232 . S
O320 C319 1.232 . S
C321 O313 1.260 . S
C321 O314 1.257 . S
Zn322 O325 2.031 . S
Zn322 O327 2.049 . S
Zn322 O332 2.067 . S
Zn323 O324 1.962 . S
Zn323 O326 1.986 . S
Zn323 O328 1.996 . S
Zn323 O331 1.943 . S
O324 Zn323 1.962 . S
O324 C329 1.254 . S
O325 Zn322 2.031 . S
O325 C329 1.269 . S
O326 Zn323 1.986 . S
O326 C333 1.262 . S
O327 Zn322 2.049 . S
O327 C335 1.260 . S
O328 Zn323 1.996 . S
O328 C335 1.257 . S
C329 O324 1.254 . S
C329 O325 1.269 . S
C330 O331 1.249 . S
C330 O332 1.270 . S
O331 Zn323 1.943 . S
O331 C330 1.249 . S
O332 Zn322 2.067 . S
O332 C330 1.270 . S
C333 O326 1.262 . S
C333 O334 1.232 . S
O334 C333 1.232 . S
C335 O327 1.260 . S
C335 O328 1.257 . S
Gd336 N367 2.661 . S
Gd336 N373 2.601 . S
Gd336 O380 2.545 . S
Gd336 O381 2.606 . S
Gd336 O383 2.429 . S
Gd336 O384 2.518 1_545 S
Gd336 O385 2.412 . S
Gd336 O387 2.362 . S
Gd336 O388 2.324 1_554 S
Gd336 C395 2.828 . S
Gd337 N346 2.661 1_545 S
Gd337 N350 2.601 1_544 S
Gd337 O381 2.362 . S
Gd337 O382 2.324 . S
Gd337 O386 2.545 1_454 S
Gd337 O387 2.606 . S
Gd337 O389 2.429 1_554 S
Gd337 O390 2.545 1_554 S
Gd337 O391 2.412 1_455 S
Gd337 C404 2.828 1_454 S
C338 C341 1.415 1_655 S
C338 C343 1.431 1_554 S
C338 C344 1.412 . S
C339 C342 1.437 . S
C339 C343 1.317 . S
C339 H358 0.929 . S
C340 C341 1.427 1_656 S
C340 C342 1.413 . S
C340 N350 1.359 1_655 S
C341 C338 1.415 1_455 S
C341 C340 1.427 1_454 S
C341 N346 1.352 . S
C342 C339 1.437 . S
C342 C340 1.413 . S
C342 C352 1.391 . S
C343 C338 1.431 1_556 S
C343 C339 1.317 . S
C343 H354 0.930 . S
C344 C338 1.412 . S
C344 C345 1.355 1_655 S
C344 H356 0.930 . S
C345 C344 1.355 1_455 S
C345 C347 1.402 . S
C345 H357 0.930 . S
N346 Gd337 2.661 1_565 S
N346 C341 1.352 . S
N346 C347 1.307 . S
C347 C345 1.402 . S
C347 N346 1.307 . S
C347 H348 0.930 . S
H348 C347 0.930 . S
C349 N350 1.334 . S
C349 C351 1.394 1_455 S
C349 H353 0.930 . S
N350 Gd337 2.601 1_566 S
N350 C340 1.359 1_455 S
N350 C349 1.334 . S
C351 C349 1.394 1_655 S
C351 C352 1.359 . S
C351 H363 0.930 . S
C352 C342 1.391 . S
C352 C351 1.359 . S
C352 H364 0.929 . S
H353 C349 0.930 . S
H354 C343 0.930 . S
H355 C372 0.930 . S
H356 C344 0.930 . S
H357 C345 0.930 . S
H358 C339 0.929 . S
H359 C377 0.930 . S
H360 C368 0.930 . S
H361 C369 0.930 . S
H362 C393 0.929 . S
H363 C351 0.930 . S
H364 C352 0.929 . S
H365 C394 0.930 . S
H366 C375 0.930 . S
N367 Gd336 2.661 . S
N367 C371 1.350 . S
N367 C372 1.307 1_554 S
C368 H360 0.930 . S
C368 C369 1.355 . S
C368 C370 1.412 1_556 S
C369 H361 0.930 . S
C369 C368 1.355 . S
C369 C372 1.402 . S
C370 C368 1.412 1_554 S
C370 C371 1.417 . S
C370 C394 1.431 . S
C371 N367 1.350 . S
C371 C370 1.417 . S
C371 C374 1.426 . S
C372 H355 0.930 . S
C372 N367 1.307 1_556 S
C372 C369 1.402 . S
N373 Gd336 2.601 . S
N373 C374 1.359 . S
N373 C377 1.334 . S
C374 C371 1.426 . S
C374 N373 1.359 . S
C374 C378 1.413 . S
C375 H366 0.930 . S
C375 C376 1.359 . S
C375 C377 1.394 . S
C376 C375 1.359 . S
C376 C378 1.391 . S
C376 H379 0.929 . S
C377 H359 0.930 . S
C377 N373 1.334 . S
C377 C375 1.394 . S
C378 C374 1.413 . S
C378 C376 1.391 . S
C378 C393 1.437 . S
H379 C376 0.929 . S
O380 Gd336 2.545 . S
O380 C395 1.258 . S
O381 Gd336 2.606 . S
O381 Gd337 2.362 . S
O381 C392 1.284 1_545 S
O382 Gd337 2.324 . S
O382 C402 1.254 . S
O383 Gd336 2.429 . S
O383 C402 1.268 . S
O384 Gd336 2.518 1_565 S
O384 C392 1.253 . S
O385 Gd336 2.412 . S
O385 C395 1.252 . S
O386 Gd337 2.545 1_656 S
O386 C404 1.258 . S
O387 Gd336 2.362 . S
O387 Gd337 2.606 . S
O387 C403 1.284 . S
O388 Gd336 2.324 1_556 S
O388 C411 1.254 . S
O389 Gd337 2.429 1_556 S
O389 C411 1.268 . S
O390 Gd337 2.545 1_556 S
O390 C403 1.250 1_556 S
O391 Gd337 2.412 1_655 S
O391 C404 1.252 1_554 S
C392 O381 1.284 1_565 S
C392 O384 1.253 . S
C393 H362 0.929 . S
C393 C378 1.437 . S
C393 C394 1.317 . S
C394 H365 0.930 . S
C394 C370 1.431 . S
C394 C393 1.317 . S
C395 Gd336 2.828 . S
C395 O380 1.258 . S
C395 O385 1.252 . S
C395 C396 1.497 . S
C396 C395 1.497 . S
C396 C397 1.395 . S
C396 C398 1.380 . S
C397 C396 1.395 . S
C397 C400 1.398 . S
C397 H412 0.930 . S
C398 C396 1.380 . S
C398 C399 1.391 . S
C398 H413 0.930 . S
C399 C398 1.391 . S
C399 C401 1.387 . S
C400 C397 1.398 . S
C400 C401 1.380 . S
C400 H414 0.930 . S
C401 C399 1.387 . S
C401 C400 1.380 . S
C401 H415 0.930 . S
C402 O382 1.254 . S
C402 O383 1.268 . S
C403 O387 1.284 . S
C403 O390 1.250 1_554 S
C404 Gd337 2.828 1_656 S
C404 O386 1.258 . S
C404 O391 1.252 1_556 S
C404 C405 1.497 . S
C405 C404 1.497 . S
C405 C406 1.397 . S
C405 C407 1.394 . S
C406 C405 1.397 . S
C406 C409 1.406 . S
C406 H416 0.920 1_545 S
C407 C405 1.394 . S
C407 C408 1.395 . S
C407 H417 0.913 1_556 S
C408 C407 1.395 . S
C408 C410 1.387 . S
C409 C406 1.406 . S
C409 C410 1.380 . S
C409 H418 0.930 1_545 S
C410 C408 1.387 . S
C410 C409 1.380 . S
C410 H419 0.930 . S
C411 O388 1.254 . S
C411 O389 1.268 . S
H412 C397 0.930 . S
H413 C398 0.930 . S
H414 C400 0.930 . S
H415 C401 0.930 . S
H416 C406 0.920 1_565 S
H417 C407 0.913 1_554 S
H418 C409 0.930 1_565 S
H419 C410 0.930 . S
Gd420 N451 2.661 . S
Gd420 N457 2.601 . S
Gd420 O464 2.545 . S
Gd420 O465 2.606 . S
Gd420 O467 2.429 . S
Gd420 O468 2.545 . S
Gd420 O469 2.412 . S
Gd420 O471 2.362 . S
Gd420 O472 2.324 . S
Gd420 C479 2.828 . S
Gd421 N430 2.661 . S
Gd421 N434 2.601 . S
Gd421 O465 2.362 . S
Gd421 O466 2.324 . S
Gd421 O470 2.545 . S
Gd421 O471 2.606 . S
Gd421 O473 2.429 . S
Gd421 O474 2.545 . S
Gd421 O475 2.412 . S
Gd421 C488 2.828 . S
C422 C425 1.417 . S
C422 C427 1.431 . S
C422 C428 1.412 . S
C423 C426 1.437 . S
C423 C427 1.317 . S
C423 H442 0.929 . S
C424 C425 1.426 . S
C424 C426 1.413 . S
C424 N434 1.359 . S
C425 C422 1.417 . S
C425 C424 1.426 . S
C425 N430 1.350 . S
C426 C423 1.437 . S
C426 C424 1.413 . S
C426 C436 1.391 . S
C427 C422 1.431 . S
C427 C423 1.317 . S
C427 H438 0.930 . S
C428 C422 1.412 . S
C428 C429 1.355 . S
C428 H440 0.930 . S
C429 C428 1.355 . S
C429 C431 1.402 . S
C429 H441 0.930 . S
N430 Gd421 2.661 . S
N430 C425 1.350 . S
N430 C431 1.307 . S
C431 C429 1.402 . S
C431 N430 1.307 . S
C431 H432 0.930 . S
H432 C431 0.930 . S
C433 N434 1.334 . S
C433 C435 1.394 . S
C433 H437 0.930 . S
N434 Gd421 2.601 . S
N434 C424 1.359 . S
N434 C433 1.334 . S
C435 C433 1.394 . S
C435 C436 1.359 . S
C435 H447 0.930 . S
C436 C426 1.391 . S
C436 C435 1.359 . S
C436 H448 0.929 . S
H437 C433 0.930 . S
H438 C427 0.930 . S
H439 C456 0.930 . S
H440 C428 0.930 . S
H441 C429 0.930 . S
H442 C423 0.929 . S
H443 C461 0.930 . S
H444 C452 0.930 . S
H445 C453 0.930 . S
H446 C477 0.929 . S
H447 C435 0.930 . S
H448 C436 0.929 . S
H449 C478 0.930 . S
H450 C459 0.930 . S
N451 Gd420 2.661 . S
N451 C455 1.350 . S
N451 C456 1.307 . S
C452 H444 0.930 . S
C452 C453 1.355 . S
C452 C454 1.412 . S
C453 H445 0.930 . S
C453 C452 1.355 . S
C453 C456 1.402 . S
C454 C452 1.412 . S
C454 C455 1.417 . S
C454 C478 1.431 . S
C455 N451 1.350 . S
C455 C454 1.417 . S
C455 C458 1.426 . S
C456 H439 0.930 . S
C456 N451 1.307 . S
C456 C453 1.402 . S
N457 Gd420 2.601 . S
N457 C458 1.359 . S
N457 C461 1.334 . S
C458 C455 1.426 . S
C458 N457 1.359 . S
C458 C462 1.413 . S
C459 H450 0.930 . S
C459 C460 1.359 . S
C459 C461 1.394 . S
C460 C459 1.359 . S
C460 C462 1.391 . S
C460 H463 0.929 . S
C461 H443 0.930 . S
C461 N457 1.334 . S
C461 C459 1.394 . S
C462 C458 1.413 . S
C462 C460 1.391 . S
C462 C477 1.437 . S
H463 C460 0.929 . S
O464 Gd420 2.545 . S
O464 C479 1.258 . S
O465 Gd420 2.606 . S
O465 Gd421 2.362 . S
O465 C476 1.284 . S
O466 Gd421 2.324 . S
O466 C486 1.254 . S
O467 Gd420 2.429 . S
O467 C486 1.268 . S
O468 Gd420 2.545 . S
O468 C476 1.250 . S
O469 Gd420 2.412 . S
O469 C479 1.252 . S
O470 Gd421 2.545 . S
O470 C488 1.258 . S
O471 Gd420 2.362 . S
O471 Gd421 2.606 . S
O471 C487 1.284 . S
O472 Gd420 2.324 . S
O472 C495 1.254 . S
O473 Gd421 2.429 . S
O473 C495 1.268 . S
O474 Gd421 2.545 . S
O474 C487 1.250 . S
O475 Gd421 2.412 . S
O475 C488 1.252 . S
C476 O465 1.284 . S
C476 O468 1.250 . S
C477 H446 0.929 . S
C477 C462 1.437 . S
C477 C478 1.317 . S
C478 H449 0.930 . S
C478 C454 1.431 . S
C478 C477 1.317 . S
C479 Gd420 2.828 . S
C479 O464 1.258 . S
C479 O469 1.252 . S
C479 C480 1.497 . S
C480 C479 1.497 . S
C480 C481 1.395 . S
C480 C482 1.380 . S
C481 C480 1.395 . S
C481 C484 1.398 . S
C481 H496 0.930 . S
C482 C480 1.380 . S
C482 C483 1.391 . S
C482 H497 0.930 . S
C483 C482 1.391 . S
C483 C485 1.387 . S
C484 C481 1.398 . S
C484 C485 1.380 . S
C484 H498 0.930 . S
C485 C483 1.387 . S
C485 C484 1.380 . S
C485 H499 0.930 . S
C486 O466 1.254 . S
C486 O467 1.268 . S
C487 O471 1.284 . S
C487 O474 1.250 . S
C488 Gd421 2.828 . S
C488 O470 1.258 . S
C488 O475 1.252 . S
C488 C489 1.497 . S
C489 C488 1.497 . S
C489 C490 1.395 . S
C489 C491 1.380 . S
C490 C489 1.395 . S
C490 C493 1.398 . S
C490 H500 0.930 . S
C491 C489 1.380 . S
C491 C492 1.391 . S
C491 H501 0.930 . S
C492 C491 1.391 . S
C492 C494 1.387 . S
C493 C490 1.398 . S
C493 C494 1.380 . S
C493 H502 0.930 . S
C494 C492 1.387 . S
C494 C493 1.380 . S
C494 H503 0.930 . S
C495 O472 1.254 . S
C495 O473 1.268 . S
H496 C481 0.930 . S
H497 C482 0.930 . S
H498 C484 0.930 . S
H499 C485 0.930 . S
H500 C490 0.930 . S
H501 C491 0.930 . S
H502 C493 0.930 . S
H503 C494 0.930 . S
Gd504 N535 2.661 1_545 S
Gd504 N541 2.601 1_545 S
Gd504 O548 2.545 . S
Gd504 O549 2.606 . S
Gd504 O551 2.429 . S
Gd504 O552 2.545 . S
Gd504 O553 2.412 . S
Gd504 O555 2.362 1_545 S
Gd504 O556 2.324 . S
Gd504 C563 2.828 . S
Gd505 N514 2.661 . S
Gd505 N518 2.601 . S
Gd505 O549 2.362 . S
Gd505 O550 2.324 . S
Gd505 O554 2.545 . S
Gd505 O555 2.606 1_545 S
Gd505 O557 2.429 . S
Gd505 O558 2.545 1_545 S
Gd505 O559 2.412 . S
Gd505 C572 2.828 . S
C506 C509 1.417 . S
C506 C511 1.431 . S
C506 C512 1.412 . S
C507 C510 1.437 . S
C507 C511 1.317 . S
C507 H526 0.929 . S
C508 C509 1.426 . S
C508 C510 1.413 . S
C508 N518 1.359 . S
C509 C506 1.417 . S
C509 C508 1.426 . S
C509 N514 1.350 . S
C510 C507 1.437 . S
C510 C508 1.413 . S
C510 C520 1.391 . S
C511 C506 1.431 . S
C511 C507 1.317 . S
C511 H522 0.930 . S
C512 C506 1.412 . S
C512 C513 1.355 . S
C512 H524 0.930 . S
C513 C512 1.355 . S
C513 C515 1.402 . S
C513 H525 0.930 . S
N514 Gd505 2.661 . S
N514 C509 1.350 . S
N514 C515 1.307 . S
C515 C513 1.402 . S
C515 N514 1.307 . S
C515 H516 0.930 . S
H516 C515 0.930 . S
C517 N518 1.334 . S
C517 C519 1.394 . S
C517 H521 0.930 . S
N518 Gd505 2.601 . S
N518 C508 1.359 . S
N518 C517 1.334 . S
C519 C517 1.394 . S
C519 C520 1.359 . S
C519 H531 0.930 . S
C520 C510 1.391 . S
C520 C519 1.359 . S
C520 H532 0.929 . S
H521 C517 0.930 . S
H522 C511 0.930 . S
H523 C540 0.930 . S
H524 C512 0.930 . S
H525 C513 0.930 . S
H526 C507 0.929 . S
H527 C545 0.930 . S
H528 C536 0.930 . S
H529 C537 0.930 . S
H530 C561 0.929 . S
H531 C519 0.930 . S
H532 C520 0.929 . S
H533 C562 0.930 . S
H534 C543 0.929 1_545 S
N535 Gd504 2.661 1_565 S
N535 C539 1.350 . S
N535 C540 1.307 . S
C536 H528 0.930 . S
C536 C537 1.355 . S
C536 C538 1.412 . S
C537 H529 0.930 . S
C537 C536 1.355 . S
C537 C540 1.402 . S
C538 C536 1.412 . S
C538 C539 1.417 . S
C538 C562 1.431 . S
C539 N535 1.350 . S
C539 C538 1.417 . S
C539 C542 1.426 . S
C540 H523 0.930 . S
C540 N535 1.307 . S
C540 C537 1.402 . S
N541 Gd504 2.601 1_565 S
N541 C542 1.359 . S
N541 C545 1.334 1_565 S
C542 C539 1.426 . S
C542 N541 1.359 . S
C542 C546 1.413 . S
C543 H534 0.929 1_565 S
C543 C544 1.359 . S
C543 C545 1.394 1_565 S
C544 C543 1.359 . S
C544 C546 1.391 . S
C544 H547 0.929 . S
C545 H527 0.930 . S
C545 N541 1.334 1_545 S
C545 C543 1.394 1_545 S
C546 C542 1.413 . S
C546 C544 1.391 . S
C546 C561 1.437 . S
H547 C544 0.929 . S
O548 Gd504 2.545 . S
O548 C563 1.258 . S
O549 Gd504 2.606 . S
O549 Gd505 2.362 . S
O549 C560 1.284 . S
O550 Gd505 2.324 . S
O550 C570 1.254 . S
O551 Gd504 2.429 . S
O551 C570 1.268 . S
O552 Gd504 2.545 . S
O552 C560 1.250 . S
O553 Gd504 2.412 . S
O553 C563 1.252 . S
O554 Gd505 2.545 . S
O554 C572 1.258 . S
O555 Gd504 2.362 1_565 S
O555 Gd505 2.606 1_565 S
O555 C571 1.284 . S
O556 Gd504 2.324 . S
O556 C579 1.254 . S
O557 Gd505 2.429 . S
O557 C579 1.268 . S
O558 Gd505 2.545 1_565 S
O558 C571 1.250 . S
O559 Gd505 2.412 . S
O559 C572 1.252 . S
C560 O549 1.284 . S
C560 O552 1.250 . S
C561 H530 0.929 . S
C561 C546 1.437 . S
C561 C562 1.317 . S
C562 H533 0.930 . S
C562 C538 1.431 . S
C562 C561 1.317 . S
C563 Gd504 2.828 . S
C563 O548 1.258 . S
C563 O553 1.252 . S
C563 C564 1.497 . S
C564 C563 1.497 . S
C564 C565 1.395 . S
C564 C566 1.380 . S
C565 C564 1.395 . S
C565 C568 1.398 . S
C565 H580 0.930 . S
C566 C564 1.380 . S
C566 C567 1.391 . S
C566 H581 0.930 . S
C567 C566 1.391 . S
C567 C569 1.387 . S
C568 C565 1.398 . S
C568 C569 1.380 . S
C568 H582 0.930 . S
C569 C567 1.387 . S
C569 C568 1.380 . S
C569 H583 0.930 . S
C570 O550 1.254 . S
C570 O551 1.268 . S
C571 O555 1.284 . S
C571 O558 1.250 . S
C572 Gd505 2.828 . S
C572 O554 1.258 . S
C572 O559 1.252 . S
C572 C573 1.497 1_545 S
C573 C572 1.497 1_565 S
C573 C574 1.395 . S
C573 C575 1.380 . S
C574 C573 1.395 . S
C574 C577 1.398 . S
C574 H584 0.930 . S
C575 C573 1.380 . S
C575 C576 1.391 . S
C575 H585 0.930 . S
C576 C575 1.391 . S
C576 C578 1.387 . S
C577 C574 1.398 . S
C577 C578 1.380 . S
C577 H586 0.930 . S
C578 C576 1.387 . S
C578 C577 1.380 . S
C578 H587 0.930 . S
C579 O556 1.254 . S
C579 O557 1.268 . S
H580 C565 0.930 . S
H581 C566 0.930 . S
H582 C568 0.930 . S
H583 C569 0.930 . S
H584 C574 0.930 . S
H585 C575 0.930 . S
H586 C577 0.930 . S
H587 C578 0.930 . S
Gd588 N619 2.661 . S
Gd588 N625 2.601 . S
Gd588 O632 2.545 . S
Gd588 O633 2.606 . S
Gd588 O635 2.429 . S
Gd588 O636 2.545 . S
Gd588 O637 2.412 . S
Gd588 O639 2.362 . S
Gd588 O640 2.324 . S
Gd588 C647 2.828 . S
Gd589 N598 2.661 . S
Gd589 N602 2.601 . S
Gd589 O633 2.362 . S
Gd589 O634 2.324 . S
Gd589 O638 2.545 . S
Gd589 O639 2.606 . S
Gd589 O641 2.429 . S
Gd589 O642 2.545 . S
Gd589 O643 2.412 . S
Gd589 C656 2.828 . S
C590 C593 1.417 . S
C590 C595 1.431 . S
C590 C596 1.412 . S
C591 C594 1.437 . S
C591 C595 1.317 . S
C591 H610 0.929 . S
C592 C593 1.426 . S
C592 C594 1.413 . S
C592 N602 1.359 . S
C593 C590 1.417 . S
C593 C592 1.426 . S
C593 N598 1.350 . S
C594 C591 1.437 . S
C594 C592 1.413 . S
C594 C604 1.391 . S
C595 C590 1.431 . S
C595 C591 1.317 . S
C595 H606 0.930 . S
C596 C590 1.412 . S
C596 C597 1.355 . S
C596 H608 0.930 . S
C597 C596 1.355 . S
C597 C599 1.402 . S
C597 H609 0.930 . S
N598 Gd589 2.661 . S
N598 C593 1.350 . S
N598 C599 1.307 . S
C599 C597 1.402 . S
C599 N598 1.307 . S
C599 H600 0.930 . S
H600 C599 0.930 . S
C601 N602 1.334 . S
C601 C603 1.394 . S
C601 H605 0.930 . S
N602 Gd589 2.601 . S
N602 C592 1.359 . S
N602 C601 1.334 . S
C603 C601 1.394 . S
C603 C604 1.359 . S
C603 H615 0.930 . S
C604 C594 1.391 . S
C604 C603 1.359 . S
C604 H616 0.929 . S
H605 C601 0.930 . S
H606 C595 0.930 . S
H607 C624 0.930 . S
H608 C596 0.930 . S
H609 C597 0.930 . S
H610 C591 0.929 . S
H611 C629 0.930 . S
H612 C620 0.930 . S
H613 C621 0.930 . S
H614 C645 0.929 . S
H615 C603 0.930 . S
H616 C604 0.929 . S
H617 C646 0.930 . S
H618 C627 0.930 . S
N619 Gd588 2.661 . S
N619 C623 1.350 . S
N619 C624 1.307 . S
C620 H612 0.930 . S
C620 C621 1.355 . S
C620 C622 1.412 . S
C621 H613 0.930 . S
C621 C620 1.355 . S
C621 C624 1.402 . S
C622 C620 1.412 . S
C622 C623 1.417 . S
C622 C646 1.431 . S
C623 N619 1.350 . S
C623 C622 1.417 . S
C623 C626 1.426 . S
C624 H607 0.930 . S
C624 N619 1.307 . S
C624 C621 1.402 . S
N625 Gd588 2.601 . S
N625 C626 1.359 . S
N625 C629 1.334 . S
C626 C623 1.426 . S
C626 N625 1.359 . S
C626 C630 1.413 . S
C627 H618 0.930 . S
C627 C628 1.359 . S
C627 C629 1.394 . S
C628 C627 1.359 . S
C628 C630 1.391 . S
C628 H631 0.929 . S
C629 H611 0.930 . S
C629 N625 1.334 . S
C629 C627 1.394 . S
C630 C626 1.413 . S
C630 C628 1.391 . S
C630 C645 1.437 . S
H631 C628 0.929 . S
O632 Gd588 2.545 . S
O632 C647 1.258 . S
O633 Gd588 2.606 . S
O633 Gd589 2.362 . S
O633 C644 1.284 . S
O634 Gd589 2.324 . S
O634 C654 1.254 . S
O635 Gd588 2.429 . S
O635 C654 1.268 . S
O636 Gd588 2.545 . S
O636 C644 1.250 . S
O637 Gd588 2.412 . S
O637 C647 1.252 . S
O638 Gd589 2.545 . S
O638 C656 1.258 . S
O639 Gd588 2.362 . S
O639 Gd589 2.606 . S
O639 C655 1.284 . S
O640 Gd588 2.324 . S
O640 C663 1.254 . S
O641 Gd589 2.429 . S
O641 C663 1.268 . S
O642 Gd589 2.545 . S
O642 C655 1.250 . S
O643 Gd589 2.412 . S
O643 C656 1.252 . S
C644 O633 1.284 . S
C644 O636 1.250 . S
C645 H614 0.929 . S
C645 C630 1.437 . S
C645 C646 1.317 . S
C646 H617 0.930 . S
C646 C622 1.431 . S
C646 C645 1.317 . S
C647 Gd588 2.828 . S
C647 O632 1.258 . S
C647 O637 1.252 . S
C647 C648 1.497 . S
C648 C647 1.497 . S
C648 C649 1.395 . S
C648 C650 1.380 . S
C649 C648 1.395 . S
C649 C652 1.398 . S
C649 H664 0.930 . S
C650 C648 1.380 . S
C650 C651 1.391 . S
C650 H665 0.930 . S
C651 C650 1.391 . S
C651 C653 1.387 . S
C652 C649 1.398 . S
C652 C653 1.380 . S
C652 H666 0.930 . S
C653 C651 1.387 . S
C653 C652 1.380 . S
C653 H667 0.930 . S
C654 O634 1.254 . S
C654 O635 1.268 . S
C655 O639 1.284 . S
C655 O642 1.250 . S
C656 Gd589 2.828 . S
C656 O638 1.258 . S
C656 O643 1.252 . S
C656 C657 1.497 . S
C657 C656 1.497 . S
C657 C658 1.395 . S
C657 C659 1.380 . S
C658 C657 1.395 . S
C658 C661 1.398 . S
C658 H668 0.930 . S
C659 C657 1.380 . S
C659 C660 1.391 . S
C659 H669 0.930 . S
C660 C659 1.391 . S
C660 C662 1.387 . S
C661 C658 1.398 . S
C661 C662 1.380 . S
C661 H670 0.930 . S
C662 C660 1.387 . S
C662 C661 1.380 . S
C662 H671 0.930 . S
C663 O640 1.254 . S
C663 O641 1.268 . S
H664 C649 0.930 . S
H665 C650 0.930 . S
H666 C652 0.930 . S
H667 C653 0.930 . S
H668 C658 0.930 . S
H669 C659 0.930 . S
H670 C661 0.930 . S
H671 C662 0.930 . S
Gd672 N703 2.661 . S
Gd672 N709 2.601 . S
Gd672 O716 2.545 . S
Gd672 O717 2.606 1_565 S
Gd672 O719 2.429 1_565 S
Gd672 O720 2.545 . S
Gd672 O721 2.412 . S
Gd672 O723 2.362 1_565 S
Gd672 O724 2.324 . S
Gd672 C731 2.828 . S
Gd673 N682 2.661 . S
Gd673 N686 2.601 . S
Gd673 O717 2.362 . S
Gd673 O718 2.324 . S
Gd673 O722 2.545 . S
Gd673 O723 2.606 . S
Gd673 O725 2.429 . S
Gd673 O726 2.545 . S
Gd673 O727 2.412 . S
Gd673 C740 2.828 . S
C674 C677 1.417 . S
C674 C679 1.431 . S
C674 C680 1.412 . S
C675 C678 1.437 . S
C675 C679 1.317 . S
C675 H694 0.929 . S
C676 C677 1.426 . S
C676 C678 1.413 . S
C676 N686 1.359 . S
C677 C674 1.417 . S
C677 C676 1.426 . S
C677 N682 1.350 . S
C678 C675 1.437 . S
C678 C676 1.413 . S
C678 C688 1.391 . S
C679 C674 1.431 . S
C679 C675 1.317 . S
C679 H690 0.930 . S
C680 C674 1.412 . S
C680 C681 1.355 . S
C680 H692 0.930 . S
C681 C680 1.355 . S
C681 C683 1.402 . S
C681 H693 0.930 . S
N682 Gd673 2.661 . S
N682 C677 1.350 . S
N682 C683 1.307 . S
C683 C681 1.402 . S
C683 N682 1.307 . S
C683 H684 0.930 . S
H684 C683 0.930 . S
C685 N686 1.334 . S
C685 C687 1.394 . S
C685 H689 0.930 . S
N686 Gd673 2.601 . S
N686 C676 1.359 . S
N686 C685 1.334 . S
C687 C685 1.394 . S
C687 C688 1.359 . S
C687 H699 0.930 1_455 S
C688 C678 1.391 . S
C688 C687 1.359 . S
C688 H700 0.929 . S
H689 C685 0.930 . S
H690 C679 0.930 . S
H691 C708 0.930 . S
H692 C680 0.930 . S
H693 C681 0.930 . S
H694 C675 0.929 . S
H695 C713 0.930 . S
H696 C704 0.918 1_655 S
H697 C705 0.930 . S
H698 C729 0.929 . S
H699 C687 0.930 1_655 S
H700 C688 0.929 . S
H701 C730 0.930 . S
H702 C711 0.930 . S
N703 Gd672 2.661 . S
N703 C707 1.350 . S
N703 C708 1.307 . S
C704 H696 0.918 1_455 S
C704 C705 1.342 1_455 S
C704 C706 1.437 . S
C705 H697 0.930 . S
C705 C704 1.342 1_655 S
C705 C708 1.402 1_655 S
C706 C704 1.437 . S
C706 C707 1.417 . S
C706 C730 1.431 . S
C707 N703 1.350 . S
C707 C706 1.417 . S
C707 C710 1.426 . S
C708 H691 0.930 . S
C708 N703 1.307 . S
C708 C705 1.402 1_455 S
N709 Gd672 2.601 . S
N709 C710 1.359 . S
N709 C713 1.334 . S
C710 C707 1.426 . S
C710 N709 1.359 . S
C710 C714 1.413 . S
C711 H702 0.930 . S
C711 C712 1.359 . S
C711 C713 1.394 . S
C712 C711 1.359 . S
C712 C714 1.391 . S
C712 H715 0.929 . S
C713 H695 0.930 . S
C713 N709 1.334 . S
C713 C711 1.394 . S
C714 C710 1.413 . S
C714 C712 1.391 . S
C714 C729 1.437 . S
H715 C712 0.929 . S
O716 Gd672 2.545 . S
O716 C731 1.258 . S
O717 Gd672 2.606 1_545 S
O717 Gd673 2.362 . S
O717 C728 1.284 . S
O718 Gd673 2.324 . S
O718 C738 1.254 . S
O719 Gd672 2.429 1_545 S
O719 C738 1.268 . S
O720 Gd672 2.545 . S
O720 C728 1.250 1_565 S
O721 Gd672 2.412 . S
O721 C731 1.252 . S
O722 Gd673 2.545 . S
O722 C740 1.258 . S
O723 Gd672 2.362 1_545 S
O723 Gd673 2.606 . S
O723 C739 1.284 . S
O724 Gd672 2.324 . S
O724 C747 1.254 1_565 S
O725 Gd673 2.429 . S
O725 C747 1.268 . S
O726 Gd673 2.545 . S
O726 C739 1.250 . S
O727 Gd673 2.412 . S
O727 C740 1.252 . S
C728 O717 1.284 . S
C728 O720 1.250 1_545 S
C729 H698 0.929 . S
C729 C714 1.437 . S
C729 C730 1.317 . S
C730 H701 0.930 . S
C730 C706 1.431 . S
C730 C729 1.317 . S
C731 Gd672 2.828 . S
C731 O716 1.258 . S
C731 O721 1.252 . S
C731 C732 1.497 . S
C732 C731 1.497 . S
C732 C733 1.395 . S
C732 C734 1.380 . S
C733 C732 1.395 . S
C733 C736 1.398 . S
C733 H748 0.930 . S
C734 C732 1.380 . S
C734 C735 1.391 . S
C734 H749 0.930 . S
C735 C734 1.391 . S
C735 C737 1.387 . S
C736 C733 1.398 . S
C736 C737 1.380 . S
C736 H750 0.930 . S
C737 C735 1.387 . S
C737 C736 1.380 . S
C737 H751 0.930 . S
C738 O718 1.254 . S
C738 O719 1.268 . S
C739 O723 1.284 . S
C739 O726 1.250 . S
C740 Gd673 2.828 . S
C740 O722 1.258 . S
C740 O727 1.252 . S
C740 C741 1.497 . S
C741 C740 1.497 . S
C741 C742 1.395 . S
C741 C743 1.380 . S
C742 C741 1.395 . S
C742 C745 1.398 . S
C742 H752 0.930 . S
C743 C741 1.380 . S
C743 C744 1.391 . S
C743 H753 0.930 . S
C744 C743 1.391 . S
C744 C746 1.387 . S
C745 C742 1.398 . S
C745 C746 1.380 . S
C745 H754 0.930 . S
C746 C744 1.387 . S
C746 C745 1.380 . S
C746 H755 0.930 . S
C747 O724 1.254 1_545 S
C747 O725 1.268 . S
H748 C733 0.930 . S
H749 C734 0.930 . S
H750 C736 0.930 . S
H751 C737 0.930 . S
H752 C742 0.930 . S
H753 C743 0.930 . S
H754 C745 0.930 . S
H755 C746 0.930 . S
Gd756 N787 2.661 . S
Gd756 N793 2.601 . S
Gd756 O800 2.545 . S
Gd756 O801 2.606 . S
Gd756 O803 2.429 . S
Gd756 O804 2.545 . S
Gd756 O805 2.412 . S
Gd756 O807 2.362 . S
Gd756 O808 2.324 . S
Gd756 C815 2.828 . S
Gd757 N766 2.661 . S
Gd757 N770 2.601 . S
Gd757 O801 2.362 . S
Gd757 O802 2.324 . S
Gd757 O806 2.545 . S
Gd757 O807 2.606 . S
Gd757 O809 2.429 . S
Gd757 O810 2.545 . S
Gd757 O811 2.412 . S
Gd757 C824 2.828 . S
C758 C761 1.417 . S
C758 C763 1.431 . S
C758 C764 1.412 . S
C759 C762 1.437 . S
C759 C763 1.317 . S
C759 H778 0.929 . S
C760 C761 1.426 . S
C760 C762 1.413 . S
C760 N770 1.359 . S
C761 C758 1.417 . S
C761 C760 1.426 . S
C761 N766 1.350 . S
C762 C759 1.437 . S
C762 C760 1.413 . S
C762 C772 1.391 . S
C763 C758 1.431 . S
C763 C759 1.317 . S
C763 H774 0.930 . S
C764 C758 1.412 . S
C764 C765 1.355 . S
C764 H776 0.930 . S
C765 C764 1.355 . S
C765 C767 1.402 . S
C765 H777 0.930 . S
N766 Gd757 2.661 . S
N766 C761 1.350 . S
N766 C767 1.307 . S
C767 C765 1.402 . S
C767 N766 1.307 . S
C767 H768 0.930 . S
H768 C767 0.930 . S
C769 N770 1.334 . S
C769 C771 1.394 . S
C769 H773 0.930 . S
N770 Gd757 2.601 . S
N770 C760 1.359 . S
N770 C769 1.334 . S
C771 C769 1.394 . S
C771 C772 1.359 . S
C771 H783 0.930 . S
C772 C762 1.391 . S
C772 C771 1.359 . S
C772 H784 0.929 . S
H773 C769 0.930 . S
H774 C763 0.930 . S
H775 C792 0.930 . S
H776 C764 0.930 . S
H777 C765 0.930 . S
H778 C759 0.929 . S
H779 C797 0.930 . S
H780 C788 0.930 . S
H781 C789 0.930 . S
H782 C813 0.929 . S
H783 C771 0.930 . S
H784 C772 0.929 . S
H785 C814 0.930 . S
H786 C795 0.930 . S
N787 Gd756 2.661 . S
N787 C791 1.350 . S
N787 C792 1.307 . S
C788 H780 0.930 . S
C788 C789 1.355 . S
C788 C790 1.412 . S
C789 H781 0.930 . S
C789 C788 1.355 . S
C789 C792 1.402 . S
C790 C788 1.412 . S
C790 C791 1.417 . S
C790 C814 1.431 . S
C791 N787 1.350 . S
C791 C790 1.417 . S
C791 C794 1.426 . S
C792 H775 0.930 . S
C792 N787 1.307 . S
C792 C789 1.402 . S
N793 Gd756 2.601 . S
N793 C794 1.359 . S
N793 C797 1.334 . S
C794 C791 1.426 . S
C794 N793 1.359 . S
C794 C798 1.413 . S
C795 H786 0.930 . S
C795 C796 1.359 . S
C795 C797 1.394 . S
C796 C795 1.359 . S
C796 C798 1.391 . S
C796 H799 0.929 . S
C797 H779 0.930 . S
C797 N793 1.334 . S
C797 C795 1.394 . S
C798 C794 1.413 . S
C798 C796 1.391 . S
C798 C813 1.437 . S
H799 C796 0.929 . S
O800 Gd756 2.545 . S
O800 C815 1.258 . S
O801 Gd756 2.606 . S
O801 Gd757 2.362 . S
O801 C812 1.284 . S
O802 Gd757 2.324 . S
O802 C822 1.254 . S
O803 Gd756 2.429 . S
O803 C822 1.268 . S
O804 Gd756 2.545 . S
O804 C812 1.250 . S
O805 Gd756 2.412 . S
O805 C815 1.252 . S
O806 Gd757 2.545 . S
O806 C824 1.258 . S
O807 Gd756 2.362 . S
O807 Gd757 2.606 . S
O807 C823 1.284 . S
O808 Gd756 2.324 . S
O808 C831 1.254 . S
O809 Gd757 2.429 . S
O809 C831 1.268 . S
O810 Gd757 2.545 . S
O810 C823 1.250 . S
O811 Gd757 2.412 . S
O811 C824 1.252 . S
C812 O801 1.284 . S
C812 O804 1.250 . S
C813 H782 0.929 . S
C813 C798 1.437 . S
C813 C814 1.317 . S
C814 H785 0.930 . S
C814 C790 1.431 . S
C814 C813 1.317 . S
C815 Gd756 2.828 . S
C815 O800 1.258 . S
C815 O805 1.252 . S
C815 C816 1.497 . S
C816 C815 1.497 . S
C816 C817 1.395 . S
C816 C818 1.380 . S
C817 C816 1.395 . S
C817 C820 1.398 . S
C817 H832 0.930 . S
C818 C816 1.380 . S
C818 C819 1.391 . S
C818 H833 0.930 . S
C819 C818 1.391 . S
C819 C821 1.387 . S
C820 C817 1.398 . S
C820 C821 1.380 . S
C820 H834 0.930 . S
C821 C819 1.387 . S
C821 C820 1.380 . S
C821 H835 0.930 . S
C822 O802 1.254 . S
C822 O803 1.268 . S
C823 O807 1.284 . S
C823 O810 1.250 . S
C824 Gd757 2.828 . S
C824 O806 1.258 . S
C824 O811 1.252 . S
C824 C825 1.497 . S
C825 C824 1.497 . S
C825 C826 1.395 . S
C825 C827 1.380 . S
C826 C825 1.395 . S
C826 C829 1.398 . S
C826 H836 0.930 . S
C827 C825 1.380 . S
C827 C828 1.391 . S
C827 H837 0.930 . S
C828 C827 1.391 . S
C828 C830 1.387 . S
C829 C826 1.398 . S
C829 C830 1.380 . S
C829 H838 0.930 . S
C830 C828 1.387 . S
C830 C829 1.380 . S
C830 H839 0.930 . S
C831 O808 1.254 . S
C831 O809 1.268 . S
H832 C817 0.930 . S
H833 C818 0.930 . S
H834 C820 0.930 . S
H835 C821 0.930 . S
H836 C826 0.930 . S
H837 C827 0.930 . S
H838 C829 0.930 . S
H839 C830 0.930 . S
Gd840 N871 2.661 . S
Gd840 N877 2.601 . S
Gd840 O884 2.545 . S
Gd840 O885 2.606 1_556 S
Gd840 O887 2.429 1_556 S
Gd840 O888 2.545 . S
Gd840 O889 2.412 . S
Gd840 O891 2.362 1_556 S
Gd840 O892 2.324 . S
Gd840 C899 2.828 . S
Gd841 N850 2.661 . S
Gd841 N854 2.601 . S
Gd841 O885 2.362 . S
Gd841 O886 2.324 . S
Gd841 O890 2.545 1_545 S
Gd841 O891 2.606 . S
Gd841 O893 2.429 1_545 S
Gd841 O894 2.545 1_545 S
Gd841 O895 2.412 . S
Gd841 C908 2.828 . S
C842 C845 1.417 . S
C842 C847 1.431 . S
C842 C848 1.412 . S
C843 C846 1.437 . S
C843 C847 1.317 . S
C843 H862 0.929 . S
C844 C845 1.426 . S
C844 C846 1.413 . S
C844 N854 1.359 . S
C845 C842 1.417 . S
C845 C844 1.426 . S
C845 N850 1.350 . S
C846 C843 1.437 . S
C846 C844 1.413 . S
C846 C856 1.391 1_545 S
C847 C842 1.431 . S
C847 C843 1.317 . S
C847 H858 0.930 . S
C848 C842 1.412 . S
C848 C849 1.355 . S
C848 H860 0.930 . S
C849 C848 1.355 . S
C849 C851 1.402 . S
C849 H861 0.930 . S
N850 Gd841 2.661 . S
N850 C845 1.350 . S
N850 C851 1.307 . S
C851 C849 1.402 . S
C851 N850 1.307 . S
C851 H852 0.930 . S
H852 C851 0.930 . S
C853 N854 1.334 1_565 S
C853 C855 1.394 . S
C853 H857 0.930 . S
N854 Gd841 2.601 . S
N854 C844 1.359 . S
N854 C853 1.334 1_545 S
C855 C853 1.394 . S
C855 C856 1.359 . S
C855 H867 0.930 . S
C856 C846 1.391 1_565 S
C856 C855 1.359 . S
C856 H868 0.929 . S
H857 C853 0.930 . S
H858 C847 0.930 . S
H859 C876 0.930 . S
H860 C848 0.930 . S
H861 C849 0.930 . S
H862 C843 0.929 . S
H863 C881 0.930 . S
H864 C872 0.930 . S
H865 C873 0.930 . S
H866 C897 0.929 . S
H867 C855 0.930 . S
H868 C856 0.929 . S
H869 C898 0.930 1_565 S
H870 C879 0.930 . S
N871 Gd840 2.661 . S
N871 C875 1.350 . S
N871 C876 1.307 1_545 S
C872 H864 0.930 . S
C872 C873 1.355 . S
C872 C874 1.412 . S
C873 H865 0.930 . S
C873 C872 1.355 . S
C873 C876 1.402 . S
C874 C872 1.412 . S
C874 C875 1.417 1_565 S
C874 C898 1.431 1_565 S
C875 N871 1.350 . S
C875 C874 1.417 1_545 S
C875 C878 1.426 . S
C876 H859 0.930 . S
C876 N871 1.307 1_565 S
C876 C873 1.402 . S
N877 Gd840 2.601 . S
N877 C878 1.359 . S
N877 C881 1.334 . S
C878 C875 1.426 . S
C878 N877 1.359 . S
C878 C882 1.413 . S
C879 H870 0.930 . S
C879 C880 1.359 . S
C879 C881 1.394 . S
C880 C879 1.359 . S
C880 C882 1.391 . S
C880 H883 0.929 . S
C881 H863 0.930 . S
C881 N877 1.334 . S
C881 C879 1.394 . S
C882 C878 1.413 . S
C882 C880 1.391 . S
C882 C897 1.437 . S
H883 C880 0.929 . S
O884 Gd840 2.545 . S
O884 C899 1.258 . S
O885 Gd840 2.606 1_554 S
O885 Gd841 2.362 . S
O885 C896 1.284 . S
O886 Gd841 2.324 . S
O886 C906 1.254 . S
O887 Gd840 2.429 1_554 S
O887 C906 1.268 . S
O888 Gd840 2.545 . S
O888 C896 1.250 1_556 S
O889 Gd840 2.412 . S
O889 C899 1.252 . S
O890 Gd841 2.545 1_565 S
O890 C908 1.258 1_565 S
O891 Gd840 2.362 1_554 S
O891 Gd841 2.606 . S
O891 C907 1.284 . S
O892 Gd840 2.324 . S
O892 C915 1.254 1_545 S
O893 Gd841 2.429 1_565 S
O893 C915 1.268 1_554 S
O894 Gd841 2.545 1_565 S
O894 C907 1.250 1_565 S
O895 Gd841 2.412 . S
O895 C908 1.252 . S
C896 O885 1.284 . S
C896 O888 1.250 1_554 S
C897 H866 0.929 . S
C897 C882 1.437 . S
C897 C898 1.317 . S
C898 H869 0.930 1_545 S
C898 C874 1.431 1_545 S
C898 C897 1.317 . S
C899 Gd840 2.828 . S
C899 O884 1.258 . S
C899 O889 1.252 . S
C899 C900 1.497 . S
C900 C899 1.497 . S
C900 C901 1.395 . S
C900 C902 1.380 . S
C901 C900 1.395 . S
C901 C904 1.398 . S
C901 H916 0.930 . S
C902 C900 1.380 . S
C902 C903 1.391 . S
C902 H917 0.930 . S
C903 C902 1.391 . S
C903 C905 1.387 . S
C904 C901 1.398 . S
C904 C905 1.380 . S
C904 H918 0.930 . S
C905 C903 1.387 . S
C905 C904 1.380 . S
C905 H919 0.930 . S
C906 O886 1.254 . S
C906 O887 1.268 . S
C907 O891 1.284 . S
C907 O894 1.250 1_545 S
C908 Gd841 2.828 . S
C908 O890 1.258 1_545 S
C908 O895 1.252 . S
C908 C909 1.497 1_545 S
C909 C908 1.497 1_565 S
C909 C910 1.395 . S
C909 C911 1.380 1_565 S
C910 C909 1.395 . S
C910 C913 1.398 . S
C910 H920 0.930 . S
C911 C909 1.380 1_545 S
C911 C912 1.391 . S
C911 H921 0.930 . S
C912 C911 1.391 . S
C912 C914 1.387 1_545 S
C913 C910 1.398 . S
C913 C914 1.380 . S
C913 H922 0.930 . S
C914 C912 1.387 1_565 S
C914 C913 1.380 . S
C914 H923 0.930 . S
C915 O892 1.254 1_565 S
C915 O893 1.268 1_556 S
H916 C901 0.930 . S
H917 C902 0.930 . S
H918 C904 0.930 . S
H919 C905 0.930 . S
H920 C910 0.930 . S
H921 C911 0.930 . S
H922 C913 0.930 . S
H923 C914 0.930 . S
Gd924 N955 2.661 . S
Gd924 N961 2.601 . S
Gd924 O968 2.545 . S
Gd924 O969 2.606 . S
Gd924 O971 2.429 . S
Gd924 O972 2.545 . S
Gd924 O973 2.412 . S
Gd924 O975 2.362 . S
Gd924 O976 2.324 . S
Gd924 C983 2.828 . S
Gd925 N934 2.661 . S
Gd925 N938 2.601 . S
Gd925 O969 2.362 . S
Gd925 O970 2.324 . S
Gd925 O974 2.545 . S
Gd925 O975 2.606 . S
Gd925 O977 2.429 . S
Gd925 O978 2.545 . S
Gd925 O979 2.412 . S
Gd925 C992 2.828 . S
C926 C929 1.417 . S
C926 C931 1.431 . S
C926 C932 1.412 . S
C927 C930 1.437 . S
C927 C931 1.317 . S
C927 H946 0.929 . S
C928 C929 1.426 . S
C928 C930 1.413 . S
C928 N938 1.359 . S
C929 C926 1.417 . S
C929 C928 1.426 . S
C929 N934 1.350 . S
C930 C927 1.437 . S
C930 C928 1.413 . S
C930 C940 1.391 . S
C931 C926 1.431 . S
C931 C927 1.317 . S
C931 H942 0.930 . S
C932 C926 1.412 . S
C932 C933 1.355 . S
C932 H944 0.930 . S
C933 C932 1.355 . S
C933 C935 1.402 . S
C933 H945 0.930 . S
N934 Gd925 2.661 . S
N934 C929 1.350 . S
N934 C935 1.307 . S
C935 C933 1.402 . S
C935 N934 1.307 . S
C935 H936 0.930 . S
H936 C935 0.930 . S
C937 N938 1.334 . S
C937 C939 1.394 . S
C937 H941 0.930 . S
N938 Gd925 2.601 . S
N938 C928 1.359 . S
N938 C937 1.334 . S
C939 C937 1.394 . S
C939 C940 1.359 . S
C939 H951 0.930 . S
C940 C930 1.391 . S
C940 C939 1.359 . S
C940 H952 0.929 . S
H941 C937 0.930 . S
H942 C931 0.930 . S
H943 C960 0.930 . S
H944 C932 0.930 . S
H945 C933 0.930 . S
H946 C927 0.929 . S
H947 C965 0.930 . S
H948 C956 0.930 . S
H949 C957 0.930 . S
H950 C981 0.929 . S
H951 C939 0.930 . S
H952 C940 0.929 . S
H953 C982 0.930 . S
H954 C963 0.930 . S
N955 Gd924 2.661 . S
N955 C959 1.350 . S
N955 C960 1.307 . S
C956 H948 0.930 . S
C956 C957 1.355 . S
C956 C958 1.412 . S
C957 H949 0.930 . S
C957 C956 1.355 . S
C957 C960 1.402 . S
C958 C956 1.412 . S
C958 C959 1.417 . S
C958 C982 1.431 . S
C959 N955 1.350 . S
C959 C958 1.417 . S
C959 C962 1.426 . S
C960 H943 0.930 . S
C960 N955 1.307 . S
C960 C957 1.402 . S
N961 Gd924 2.601 . S
N961 C962 1.359 . S
N961 C965 1.334 . S
C962 C959 1.426 . S
C962 N961 1.359 . S
C962 C966 1.413 . S
C963 H954 0.930 . S
C963 C964 1.359 . S
C963 C965 1.394 . S
C964 C963 1.359 . S
C964 C966 1.391 . S
C964 H967 0.929 . S
C965 H947 0.930 . S
C965 N961 1.334 . S
C965 C963 1.394 . S
C966 C962 1.413 . S
C966 C964 1.391 . S
C966 C981 1.437 . S
H967 C964 0.929 . S
O968 Gd924 2.545 . S
O968 C983 1.258 . S
O969 Gd924 2.606 . S
O969 Gd925 2.362 . S
O969 C980 1.284 . S
O970 Gd925 2.324 . S
O970 C990 1.254 . S
O971 Gd924 2.429 . S
O971 C990 1.268 . S
O972 Gd924 2.545 . S
O972 C980 1.250 . S
O973 Gd924 2.412 . S
O973 C983 1.252 . S
O974 Gd925 2.545 . S
O974 C992 1.258 . S
O975 Gd924 2.362 . S
O975 Gd925 2.606 . S
O975 C991 1.284 . S
O976 Gd924 2.324 . S
O976 C999 1.254 . S
O977 Gd925 2.429 . S
O977 C999 1.268 . S
O978 Gd925 2.545 . S
O978 C991 1.250 . S
O979 Gd925 2.412 . S
O979 C992 1.252 . S
C980 O969 1.284 . S
C980 O972 1.250 . S
C981 H950 0.929 . S
C981 C966 1.437 . S
C981 C982 1.317 . S
C982 H953 0.930 . S
C982 C958 1.431 . S
C982 C981 1.317 . S
C983 Gd924 2.828 . S
C983 O968 1.258 . S
C983 O973 1.252 . S
C983 C984 1.497 . S
C984 C983 1.497 . S
C984 C985 1.395 . S
C984 C986 1.380 . S
C985 C984 1.395 . S
C985 C988 1.398 . S
C985 H1000 0.930 . S
C986 C984 1.380 . S
C986 C987 1.391 . S
C986 H1001 0.930 . S
C987 C986 1.391 . S
C987 C989 1.387 . S
C988 C985 1.398 . S
C988 C989 1.380 . S
C988 H1002 0.930 . S
C989 C987 1.387 . S
C989 C988 1.380 . S
C989 H1003 0.930 . S
C990 O970 1.254 . S
C990 O971 1.268 . S
C991 O975 1.284 . S
C991 O978 1.250 . S
C992 Gd925 2.828 . S
C992 O974 1.258 . S
C992 O979 1.252 . S
C992 C993 1.497 . S
C993 C992 1.497 . S
C993 C994 1.395 . S
C993 C995 1.380 . S
C994 C993 1.395 . S
C994 C997 1.398 . S
C994 H1004 0.930 . S
C995 C993 1.380 . S
C995 C996 1.391 . S
C995 H1005 0.930 . S
C996 C995 1.391 . S
C996 C998 1.387 . S
C997 C994 1.398 . S
C997 C998 1.380 . S
C997 H1006 0.930 . S
C998 C996 1.387 . S
C998 C997 1.380 . S
C998 H1007 0.930 . S
C999 O976 1.254 . S
C999 O977 1.268 . S
H1000 C985 0.930 . S
H1001 C986 0.930 . S
H1002 C988 0.930 . S
H1003 C989 0.930 . S
H1004 C994 0.930 . S
H1005 C995 0.930 . S
H1006 C997 0.930 . S
H1007 C998 0.930 . S
Gd1008 N1039 2.647 1_554 S
Gd1008 N1045 2.586 1_554 S
Gd1008 O1052 2.549 . S
Gd1008 O1053 2.619 . S
Gd1008 O1055 2.425 . S
Gd1008 O1056 2.563 . S
Gd1008 O1057 2.419 . S
Gd1008 O1059 2.352 1_554 S
Gd1008 O1060 2.330 . S
Gd1008 C1067 2.834 . S
Gd1009 N1018 2.661 . S
Gd1009 N1022 2.601 . S
Gd1009 O1053 2.362 . S
Gd1009 O1054 2.324 . S
Gd1009 O1058 2.545 . S
Gd1009 O1059 2.606 1_554 S
Gd1009 O1061 2.429 . S
Gd1009 O1062 2.545 1_554 S
Gd1009 O1063 2.412 . S
Gd1009 C1076 2.828 . S
C1010 C1013 1.417 . S
C1010 C1015 1.431 . S
C1010 C1016 1.412 . S
C1011 C1014 1.437 . S
C1011 C1015 1.317 . S
C1011 H1030 0.929 . S
C1012 C1013 1.426 . S
C1012 C1014 1.413 . S
C1012 N1022 1.359 . S
C1013 C1010 1.417 . S
C1013 C1012 1.426 . S
C1013 N1018 1.350 . S
C1014 C1011 1.437 . S
C1014 C1012 1.413 . S
C1014 C1024 1.391 . S
C1015 C1010 1.431 . S
C1015 C1011 1.317 . S
C1015 H1026 0.930 . S
C1016 C1010 1.412 . S
C1016 C1017 1.355 . S
C1016 H1028 0.930 . S
C1017 C1016 1.355 . S
C1017 C1019 1.402 . S
C1017 H1029 0.930 . S
N1018 Gd1009 2.661 . S
N1018 C1013 1.350 . S
N1018 C1019 1.307 . S
C1019 C1017 1.402 . S
C1019 N1018 1.307 . S
C1019 H1020 0.930 . S
H1020 C1019 0.930 . S
C1021 N1022 1.334 . S
C1021 C1023 1.394 . S
C1021 H1025 0.930 . S
N1022 Gd1009 2.601 . S
N1022 C1012 1.359 . S
N1022 C1021 1.334 . S
C1023 C1021 1.394 . S
C1023 C1024 1.359 . S
C1023 H1035 0.930 . S
C1024 C1014 1.391 . S
C1024 C1023 1.359 . S
C1024 H1036 0.929 . S
H1025 C1021 0.930 . S
H1026 C1015 0.930 . S
H1027 C1044 0.930 . S
H1028 C1016 0.930 . S
H1029 C1017 0.930 . S
H1030 C1011 0.929 . S
H1031 C1049 0.930 . S
H1032 C1040 0.930 . S
H1033 C1041 0.930 . S
H1034 C1065 0.929 . S
H1035 C1023 0.930 . S
H1036 C1024 0.929 . S
H1037 C1066 0.930 . S
H1038 C1047 0.930 . S
N1039 Gd1008 2.647 1_556 S
N1039 C1043 1.350 . S
N1039 C1044 1.307 . S
C1040 H1032 0.930 . S
C1040 C1041 1.355 . S
C1040 C1042 1.412 . S
C1041 H1033 0.930 . S
C1041 C1040 1.355 . S
C1041 C1044 1.402 . S
C1042 C1040 1.412 . S
C1042 C1043 1.417 . S
C1042 C1066 1.431 . S
C1043 N1039 1.350 . S
C1043 C1042 1.417 . S
C1043 C1046 1.426 . S
C1044 H1027 0.930 . S
C1044 N1039 1.307 . S
C1044 C1041 1.402 . S
N1045 Gd1008 2.586 1_556 S
N1045 C1046 1.359 . S
N1045 C1049 1.334 . S
C1046 C1043 1.426 . S
C1046 N1045 1.359 . S
C1046 C1050 1.413 . S
C1047 H1038 0.930 . S
C1047 C1048 1.359 . S
C1047 C1049 1.394 . S
C1048 C1047 1.359 . S
C1048 C1050 1.391 . S
C1048 H1051 0.929 . S
C1049 H1031 0.930 . S
C1049 N1045 1.334 . S
C1049 C1047 1.394 . S
C1050 C1046 1.413 . S
C1050 C1048 1.391 . S
C1050 C1065 1.437 . S
H1051 C1048 0.929 . S
O1052 Gd1008 2.549 . S
O1052 C1067 1.258 . S
O1053 Gd1008 2.619 . S
O1053 Gd1009 2.362 . S
O1053 C1064 1.284 . S
O1054 Gd1009 2.324 . S
O1054 C1074 1.254 . S
O1055 Gd1008 2.425 . S
O1055 C1074 1.268 . S
O1056 Gd1008 2.563 . S
O1056 C1064 1.250 . S
O1057 Gd1008 2.419 . S
O1057 C1067 1.252 . S
O1058 Gd1009 2.545 . S
O1058 C1076 1.258 . S
O1059 Gd1008 2.352 1_556 S
O1059 Gd1009 2.606 1_556 S
O1059 C1075 1.284 . S
O1060 Gd1008 2.330 . S
O1060 C1083 1.254 . S
O1061 Gd1009 2.429 . S
O1061 C1083 1.268 . S
O1062 Gd1009 2.545 1_556 S
O1062 C1075 1.250 . S
O1063 Gd1009 2.412 . S
O1063 C1076 1.252 . S
C1064 O1053 1.284 . S
C1064 O1056 1.250 . S
C1065 H1034 0.929 . S
C1065 C1050 1.437 . S
C1065 C1066 1.317 . S
C1066 H1037 0.930 . S
C1066 C1042 1.431 . S
C1066 C1065 1.317 . S
C1067 Gd1008 2.834 . S
C1067 O1052 1.258 . S
C1067 O1057 1.252 . S
C1067 C1068 1.497 . S
C1068 C1067 1.497 . S
C1068 C1069 1.395 . S
C1068 C1070 1.380 . S
C1069 C1068 1.395 . S
C1069 C1072 1.398 . S
C1069 H1084 0.930 1_554 S
C1070 C1068 1.380 . S
C1070 C1071 1.391 . S
C1070 H1085 0.930 . S
C1071 C1070 1.391 . S
C1071 C1073 1.387 . S
C1072 C1069 1.398 . S
C1072 C1073 1.380 . S
C1072 H1086 0.930 . S
C1073 C1071 1.387 . S
C1073 C1072 1.380 . S
C1073 H1087 0.930 . S
C1074 O1054 1.254 . S
C1074 O1055 1.268 . S
C1075 O1059 1.284 . S
C1075 O1062 1.250 . S
C1076 Gd1009 2.828 . S
C1076 O1058 1.258 . S
C1076 O1063 1.252 . S
C1076 C1077 1.497 . S
C1077 C1076 1.497 . S
C1077 C1078 1.395 . S
C1077 C1079 1.380 . S
C1078 C1077 1.395 . S
C1078 C1081 1.398 . S
C1078 H1088 0.930 . S
C1079 C1077 1.380 . S
C1079 C1080 1.391 1_554 S
C1079 H1089 0.930 1_554 S
C1080 C1079 1.391 1_556 S
C1080 C1082 1.387 1_556 S
C1081 C1078 1.398 . S
C1081 C1082 1.380 . S
C1081 H1090 0.930 . S
C1082 C1080 1.387 1_554 S
C1082 C1081 1.380 . S
C1082 H1091 0.930 . S
C1083 O1060 1.254 . S
C1083 O1061 1.268 . S
H1084 C1069 0.930 1_556 S
H1085 C1070 0.930 . S
H1086 C1072 0.930 . S
H1087 C1073 0.930 . S
H1088 C1078 0.930 . S
H1089 C1079 0.930 1_556 S
H1090 C1081 0.930 . S
H1091 C1082 0.930 . S
Gd1092 N1123 2.661 . S
Gd1092 N1129 2.601 . S
Gd1092 O1136 2.545 . S
Gd1092 O1137 2.606 . S
Gd1092 O1139 2.429 . S
Gd1092 O1140 2.545 . S
Gd1092 O1141 2.412 . S
Gd1092 O1143 2.362 . S
Gd1092 O1144 2.324 . S
Gd1092 C1151 2.828 . S
Gd1093 N1102 2.661 . S
Gd1093 N1106 2.601 . S
Gd1093 O1137 2.362 . S
Gd1093 O1138 2.324 . S
Gd1093 O1142 2.545 . S
Gd1093 O1143 2.606 . S
Gd1093 O1145 2.429 . S
Gd1093 O1146 2.545 . S
Gd1093 O1147 2.412 . S
Gd1093 C1160 2.828 . S
C1094 C1097 1.417 . S
C1094 C1099 1.431 . S
C1094 C1100 1.412 . S
C1095 C1098 1.437 . S
C1095 C1099 1.317 . S
C1095 H1114 0.929 . S
C1096 C1097 1.426 . S
C1096 C1098 1.413 . S
C1096 N1106 1.359 . S
C1097 C1094 1.417 . S
C1097 C1096 1.426 . S
C1097 N1102 1.350 . S
C1098 C1095 1.437 . S
C1098 C1096 1.413 . S
C1098 C1108 1.391 . S
C1099 C1094 1.431 . S
C1099 C1095 1.317 . S
C1099 H1110 0.930 . S
C1100 C1094 1.412 . S
C1100 C1101 1.355 . S
C1100 H1112 0.930 . S
C1101 C1100 1.355 . S
C1101 C1103 1.402 . S
C1101 H1113 0.930 . S
N1102 Gd1093 2.661 . S
N1102 C1097 1.350 . S
N1102 C1103 1.307 . S
C1103 C1101 1.402 . S
C1103 N1102 1.307 . S
C1103 H1104 0.930 . S
H1104 C1103 0.930 . S
C1105 N1106 1.334 . S
C1105 C1107 1.394 . S
C1105 H1109 0.930 . S
N1106 Gd1093 2.601 . S
N1106 C1096 1.359 . S
N1106 C1105 1.334 . S
C1107 C1105 1.394 . S
C1107 C1108 1.359 . S
C1107 H1119 0.930 . S
C1108 C1098 1.391 . S
C1108 C1107 1.359 . S
C1108 H1120 0.929 . S
H1109 C1105 0.930 . S
H1110 C1099 0.930 . S
H1111 C1128 0.930 . S
H1112 C1100 0.930 . S
H1113 C1101 0.930 . S
H1114 C1095 0.929 . S
H1115 C1133 0.930 . S
H1116 C1124 0.930 . S
H1117 C1125 0.930 . S
H1118 C1149 0.929 . S
H1119 C1107 0.930 . S
H1120 C1108 0.929 . S
H1121 C1150 0.930 . S
H1122 C1131 0.930 . S
N1123 Gd1092 2.661 . S
N1123 C1127 1.350 . S
N1123 C1128 1.307 . S
C1124 H1116 0.930 . S
C1124 C1125 1.355 . S
C1124 C1126 1.412 . S
C1125 H1117 0.930 . S
C1125 C1124 1.355 . S
C1125 C1128 1.402 . S
C1126 C1124 1.412 . S
C1126 C1127 1.417 . S
C1126 C1150 1.431 . S
C1127 N1123 1.350 . S
C1127 C1126 1.417 . S
C1127 C1130 1.426 . S
C1128 H1111 0.930 . S
C1128 N1123 1.307 . S
C1128 C1125 1.402 . S
N1129 Gd1092 2.601 . S
N1129 C1130 1.359 . S
N1129 C1133 1.334 . S
C1130 C1127 1.426 . S
C1130 N1129 1.359 . S
C1130 C1134 1.413 . S
C1131 H1122 0.930 . S
C1131 C1132 1.359 . S
C1131 C1133 1.394 . S
C1132 C1131 1.359 . S
C1132 C1134 1.391 . S
C1132 H1135 0.929 . S
C1133 H1115 0.930 . S
C1133 N1129 1.334 . S
C1133 C1131 1.394 . S
C1134 C1130 1.413 . S
C1134 C1132 1.391 . S
C1134 C1149 1.437 . S
H1135 C1132 0.929 . S
O1136 Gd1092 2.545 . S
O1136 C1151 1.258 . S
O1137 Gd1092 2.606 . S
O1137 Gd1093 2.362 . S
O1137 C1148 1.284 . S
O1138 Gd1093 2.324 . S
O1138 C1158 1.254 . S
O1139 Gd1092 2.429 . S
O1139 C1158 1.268 . S
O1140 Gd1092 2.545 . S
O1140 C1148 1.250 . S
O1141 Gd1092 2.412 . S
O1141 C1151 1.252 . S
O1142 Gd1093 2.545 . S
O1142 C1160 1.258 . S
O1143 Gd1092 2.362 . S
O1143 Gd1093 2.606 . S
O1143 C1159 1.284 . S
O1144 Gd1092 2.324 . S
O1144 C1167 1.254 . S
O1145 Gd1093 2.429 . S
O1145 C1167 1.268 . S
O1146 Gd1093 2.545 . S
O1146 C1159 1.250 . S
O1147 Gd1093 2.412 . S
O1147 C1160 1.252 . S
C1148 O1137 1.284 . S
C1148 O1140 1.250 . S
C1149 H1118 0.929 . S
C1149 C1134 1.437 . S
C1149 C1150 1.317 . S
C1150 H1121 0.930 . S
C1150 C1126 1.431 . S
C1150 C1149 1.317 . S
C1151 Gd1092 2.828 . S
C1151 O1136 1.258 . S
C1151 O1141 1.252 . S
C1151 C1152 1.497 . S
C1152 C1151 1.497 . S
C1152 C1153 1.395 . S
C1152 C1154 1.380 . S
C1153 C1152 1.395 . S
C1153 C1156 1.398 . S
C1153 H1168 0.930 . S
C1154 C1152 1.380 . S
C1154 C1155 1.391 . S
C1154 H1169 0.930 . S
C1155 C1154 1.391 . S
C1155 C1157 1.387 . S
C1156 C1153 1.398 . S
C1156 C1157 1.380 . S
C1156 H1170 0.930 . S
C1157 C1155 1.387 . S
C1157 C1156 1.380 . S
C1157 H1171 0.930 . S
C1158 O1138 1.254 . S
C1158 O1139 1.268 . S
C1159 O1143 1.284 . S
C1159 O1146 1.250 . S
C1160 Gd1093 2.828 . S
C1160 O1142 1.258 . S
C1160 O1147 1.252 . S
C1160 C1161 1.497 . S
C1161 C1160 1.497 . S
C1161 C1162 1.395 . S
C1161 C1163 1.380 . S
C1162 C1161 1.395 . S
C1162 C1165 1.398 1_655 S
C1162 H1172 0.930 . S
C1163 C1161 1.380 . S
C1163 C1164 1.391 1_655 S
C1163 H1173 0.930 . S
C1164 C1163 1.391 1_455 S
C1164 C1166 1.387 . S
C1165 C1162 1.398 1_455 S
C1165 C1166 1.380 . S
C1165 H1174 0.930 . S
C1166 C1164 1.387 . S
C1166 C1165 1.380 . S
C1166 H1175 0.930 . S
C1167 O1144 1.254 . S
C1167 O1145 1.268 . S
H1168 C1153 0.930 . S
H1169 C1154 0.930 . S
H1170 C1156 0.930 . S
H1171 C1157 0.930 . S
H1172 C1162 0.930 . S
H1173 C1163 0.930 . S
H1174 C1165 0.930 . S
H1175 C1166 0.930 . S
Gd1176 N1207 2.661 . S
Gd1176 N1213 2.601 . S
Gd1176 O1220 2.545 . S
Gd1176 O1221 2.606 . S
Gd1176 O1223 2.429 . S
Gd1176 O1224 2.545 . S
Gd1176 O1225 2.412 . S
Gd1176 O1227 2.362 . S
Gd1176 O1228 2.324 . S
Gd1176 C1235 2.828 . S
Gd1177 N1186 2.661 . S
Gd1177 N1190 2.601 . S
Gd1177 O1221 2.362 . S
Gd1177 O1222 2.324 . S
Gd1177 O1226 2.545 . S
Gd1177 O1227 2.606 . S
Gd1177 O1229 2.429 . S
Gd1177 O1230 2.545 . S
Gd1177 O1231 2.412 . S
Gd1177 C1244 2.828 . S
C1178 C1181 1.417 . S
C1178 C1183 1.431 . S
C1178 C1184 1.412 . S
C1179 C1182 1.437 . S
C1179 C1183 1.317 . S
C1179 H1198 0.929 . S
C1180 C1181 1.426 . S
C1180 C1182 1.413 . S
C1180 N1190 1.359 . S
C1181 C1178 1.417 . S
C1181 C1180 1.426 . S
C1181 N1186 1.350 . S
C1182 C1179 1.437 . S
C1182 C1180 1.413 . S
C1182 C1192 1.391 . S
C1183 C1178 1.431 . S
C1183 C1179 1.317 . S
C1183 H1194 0.930 . S
C1184 C1178 1.412 . S
C1184 C1185 1.355 . S
C1184 H1196 0.930 . S
C1185 C1184 1.355 . S
C1185 C1187 1.402 . S
C1185 H1197 0.930 . S
N1186 Gd1177 2.661 . S
N1186 C1181 1.350 . S
N1186 C1187 1.307 . S
C1187 C1185 1.402 . S
C1187 N1186 1.307 . S
C1187 H1188 0.930 . S
H1188 C1187 0.930 . S
C1189 N1190 1.334 . S
C1189 C1191 1.394 . S
C1189 H1193 0.930 . S
N1190 Gd1177 2.601 . S
N1190 C1180 1.359 . S
N1190 C1189 1.334 . S
C1191 C1189 1.394 . S
C1191 C1192 1.359 . S
C1191 H1203 0.930 . S
C1192 C1182 1.391 . S
C1192 C1191 1.359 . S
C1192 H1204 0.929 . S
H1193 C1189 0.930 . S
H1194 C1183 0.930 . S
H1195 C1212 0.930 . S
H1196 C1184 0.930 . S
H1197 C1185 0.930 . S
H1198 C1179 0.929 . S
H1199 C1217 0.930 . S
H1200 C1208 0.930 . S
H1201 C1209 0.930 . S
H1202 C1233 0.929 . S
H1203 C1191 0.930 . S
H1204 C1192 0.929 . S
H1205 C1234 0.930 . S
H1206 C1215 0.930 . S
N1207 Gd1176 2.661 . S
N1207 C1211 1.350 1_455 S
N1207 C1212 1.307 . S
C1208 H1200 0.930 . S
C1208 C1209 1.355 . S
C1208 C1210 1.412 . S
C1209 H1201 0.930 . S
C1209 C1208 1.355 . S
C1209 C1212 1.402 1_655 S
C1210 C1208 1.412 . S
C1210 C1211 1.417 . S
C1210 C1234 1.431 . S
C1211 N1207 1.350 1_655 S
C1211 C1210 1.417 . S
C1211 C1214 1.427 1_655 S
C1212 H1195 0.930 . S
C1212 N1207 1.307 . S
C1212 C1209 1.402 1_455 S
N1213 Gd1176 2.601 . S
N1213 C1214 1.360 . S
N1213 C1217 1.334 . S
C1214 C1211 1.427 1_455 S
C1214 N1213 1.360 . S
C1214 C1218 1.413 1_455 S
C1215 H1206 0.930 . S
C1215 C1216 1.359 1_455 S
C1215 C1217 1.394 . S
C1216 C1215 1.359 1_655 S
C1216 C1218 1.391 . S
C1216 H1219 0.929 . S
C1217 H1199 0.930 . S
C1217 N1213 1.334 . S
C1217 C1215 1.394 . S
C1218 C1214 1.413 1_655 S
C1218 C1216 1.391 . S
C1218 C1233 1.437 . S
H1219 C1216 0.929 . S
O1220 Gd1176 2.545 . S
O1220 C1235 1.258 . S
O1221 Gd1176 2.606 . S
O1221 Gd1177 2.362 . S
O1221 C1232 1.284 . S
O1222 Gd1177 2.324 . S
O1222 C1242 1.254 . S
O1223 Gd1176 2.429 . S
O1223 C1242 1.268 . S
O1224 Gd1176 2.545 . S
O1224 C1232 1.250 . S
O1225 Gd1176 2.412 . S
O1225 C1235 1.252 . S
O1226 Gd1177 2.545 . S
O1226 C1244 1.258 . S
O1227 Gd1176 2.362 . S
O1227 Gd1177 2.606 . S
O1227 C1243 1.284 . S
O1228 Gd1176 2.324 . S
O1228 C1251 1.254 . S
O1229 Gd1177 2.429 . S
O1229 C1251 1.268 . S
O1230 Gd1177 2.545 . S
O1230 C1243 1.250 . S
O1231 Gd1177 2.412 . S
O1231 C1244 1.252 . S
C1232 O1221 1.284 . S
C1232 O1224 1.250 . S
C1233 H1202 0.929 . S
C1233 C1218 1.437 . S
C1233 C1234 1.317 . S
C1234 H1205 0.930 . S
C1234 C1210 1.431 . S
C1234 C1233 1.317 . S
C1235 Gd1176 2.828 . S
C1235 O1220 1.258 . S
C1235 O1225 1.252 . S
C1235 C1236 1.497 . S
C1236 C1235 1.497 . S
C1236 C1237 1.395 . S
C1236 C1238 1.380 . S
C1237 C1236 1.395 . S
C1237 C1240 1.398 . S
C1237 H1252 0.930 . S
C1238 C1236 1.380 . S
C1238 C1239 1.391 . S
C1238 H1253 0.930 . S
C1239 C1238 1.391 . S
C1239 C1241 1.387 . S
C1240 C1237 1.398 . S
C1240 C1241 1.380 . S
C1240 H1254 0.930 . S
C1241 C1239 1.387 . S
C1241 C1240 1.380 . S
C1241 H1255 0.930 . S
C1242 O1222 1.254 . S
C1242 O1223 1.268 . S
C1243 O1227 1.284 . S
C1243 O1230 1.250 . S
C1244 Gd1177 2.828 . S
C1244 O1226 1.258 . S
C1244 O1231 1.252 . S
C1244 C1245 1.497 . S
C1245 C1244 1.497 . S
C1245 C1246 1.395 . S
C1245 C1247 1.380 . S
C1246 C1245 1.395 . S
C1246 C1249 1.398 . S
C1246 H1256 0.930 . S
C1247 C1245 1.380 . S
C1247 C1248 1.391 . S
C1247 H1257 0.930 . S
C1248 C1247 1.391 . S
C1248 C1250 1.387 . S
C1249 C1246 1.398 . S
C1249 C1250 1.380 . S
C1249 H1258 0.930 . S
C1250 C1248 1.387 . S
C1250 C1249 1.380 . S
C1250 H1259 0.930 1_455 S
C1251 O1228 1.254 . S
C1251 O1229 1.268 . S
H1252 C1237 0.930 . S
H1253 C1238 0.930 . S
H1254 C1240 0.930 . S
H1255 C1241 0.930 . S
H1256 C1246 0.930 . S
H1257 C1247 0.930 . S
H1258 C1249 0.930 . S
H1259 C1250 0.930 1_655 S
Gd1260 N1291 2.661 . S
Gd1260 N1297 2.601 . S
Gd1260 O1304 2.545 . S
Gd1260 O1305 2.606 . S
Gd1260 O1307 2.429 . S
Gd1260 O1308 2.545 . S
Gd1260 O1309 2.412 . S
Gd1260 O1311 2.362 . S
Gd1260 O1312 2.324 . S
Gd1260 C1319 2.828 . S
Gd1261 N1270 2.661 . S
Gd1261 N1274 2.601 . S
Gd1261 O1305 2.362 . S
Gd1261 O1306 2.324 . S
Gd1261 O1310 2.545 . S
Gd1261 O1311 2.606 . S
Gd1261 O1313 2.429 . S
Gd1261 O1314 2.545 . S
Gd1261 O1315 2.412 . S
Gd1261 C1328 2.828 . S
C1262 C1265 1.417 . S
C1262 C1267 1.431 . S
C1262 C1268 1.412 . S
C1263 C1266 1.437 . S
C1263 C1267 1.317 . S
C1263 H1282 0.929 . S
C1264 C1265 1.426 . S
C1264 C1266 1.413 . S
C1264 N1274 1.359 . S
C1265 C1262 1.417 . S
C1265 C1264 1.426 . S
C1265 N1270 1.350 . S
C1266 C1263 1.437 . S
C1266 C1264 1.413 . S
C1266 C1276 1.391 . S
C1267 C1262 1.431 . S
C1267 C1263 1.317 . S
C1267 H1278 0.930 . S
C1268 C1262 1.412 . S
C1268 C1269 1.355 . S
C1268 H1280 0.930 . S
C1269 C1268 1.355 . S
C1269 C1271 1.402 . S
C1269 H1281 0.930 . S
N1270 Gd1261 2.661 . S
N1270 C1265 1.350 . S
N1270 C1271 1.307 . S
C1271 C1269 1.402 . S
C1271 N1270 1.307 . S
C1271 H1272 0.930 . S
H1272 C1271 0.930 . S
C1273 N1274 1.334 . S
C1273 C1275 1.394 . S
C1273 H1277 0.930 . S
N1274 Gd1261 2.601 . S
N1274 C1264 1.359 . S
N1274 C1273 1.334 . S
C1275 C1273 1.394 . S
C1275 C1276 1.359 . S
C1275 H1287 0.930 . S
C1276 C1266 1.391 . S
C1276 C1275 1.359 . S
C1276 H1288 0.929 . S
H1277 C1273 0.930 . S
H1278 C1267 0.930 . S
H1279 C1296 0.930 . S
H1280 C1268 0.930 . S
H1281 C1269 0.930 . S
H1282 C1263 0.929 . S
H1283 C1301 0.930 . S
H1284 C1292 0.930 . S
H1285 C1293 0.930 . S
H1286 C1317 0.929 . S
H1287 C1275 0.930 . S
H1288 C1276 0.929 . S
H1289 C1318 0.930 . S
H1290 C1299 0.930 . S
N1291 Gd1260 2.661 . S
N1291 C1295 1.350 . S
N1291 C1296 1.307 . S
C1292 H1284 0.930 . S
C1292 C1293 1.355 . S
C1292 C1294 1.412 . S
C1293 H1285 0.930 . S
C1293 C1292 1.355 . S
C1293 C1296 1.402 . S
C1294 C1292 1.412 . S
C1294 C1295 1.417 . S
C1294 C1318 1.431 . S
C1295 N1291 1.350 . S
C1295 C1294 1.417 . S
C1295 C1298 1.426 . S
C1296 H1279 0.930 . S
C1296 N1291 1.307 . S
C1296 C1293 1.402 . S
N1297 Gd1260 2.601 . S
N1297 C1298 1.359 . S
N1297 C1301 1.334 . S
C1298 C1295 1.426 . S
C1298 N1297 1.359 . S
C1298 C1302 1.413 . S
C1299 H1290 0.930 . S
C1299 C1300 1.359 . S
C1299 C1301 1.394 . S
C1300 C1299 1.359 . S
C1300 C1302 1.391 . S
C1300 H1303 0.929 . S
C1301 H1283 0.930 . S
C1301 N1297 1.334 . S
C1301 C1299 1.394 . S
C1302 C1298 1.413 . S
C1302 C1300 1.391 . S
C1302 C1317 1.437 . S
H1303 C1300 0.929 . S
O1304 Gd1260 2.545 . S
O1304 C1319 1.258 . S
O1305 Gd1260 2.606 . S
O1305 Gd1261 2.362 . S
O1305 C1316 1.284 . S
O1306 Gd1261 2.324 . S
O1306 C1326 1.254 . S
O1307 Gd1260 2.429 . S
O1307 C1326 1.268 . S
O1308 Gd1260 2.545 . S
O1308 C1316 1.250 . S
O1309 Gd1260 2.412 . S
O1309 C1319 1.252 . S
O1310 Gd1261 2.545 . S
O1310 C1328 1.258 . S
O1311 Gd1260 2.362 . S
O1311 Gd1261 2.606 . S
O1311 C1327 1.284 . S
O1312 Gd1260 2.324 . S
O1312 C1335 1.254 . S
O1313 Gd1261 2.429 . S
O1313 C1335 1.268 . S
O1314 Gd1261 2.545 . S
O1314 C1327 1.250 . S
O1315 Gd1261 2.412 . S
O1315 C1328 1.252 . S
C1316 O1305 1.284 . S
C1316 O1308 1.250 . S
C1317 H1286 0.929 . S
C1317 C1302 1.437 . S
C1317 C1318 1.317 . S
C1318 H1289 0.930 . S
C1318 C1294 1.431 . S
C1318 C1317 1.317 . S
C1319 Gd1260 2.828 . S
C1319 O1304 1.258 . S
C1319 O1309 1.252 . S
C1319 C1320 1.497 . S
C1320 C1319 1.497 . S
C1320 C1321 1.395 . S
C1320 C1322 1.380 . S
C1321 C1320 1.395 . S
C1321 C1324 1.398 . S
C1321 H1336 0.930 . S
C1322 C1320 1.380 . S
C1322 C1323 1.391 . S
C1322 H1337 0.930 . S
C1323 C1322 1.391 . S
C1323 C1325 1.387 . S
C1324 C1321 1.398 . S
C1324 C1325 1.380 . S
C1324 H1338 0.930 . S
C1325 C1323 1.387 . S
C1325 C1324 1.380 . S
C1325 H1339 0.930 1_655 S
C1326 O1306 1.254 . S
C1326 O1307 1.268 . S
C1327 O1311 1.284 . S
C1327 O1314 1.250 . S
C1328 Gd1261 2.828 . S
C1328 O1310 1.258 . S
C1328 O1315 1.252 . S
C1328 C1329 1.497 . S
C1329 C1328 1.497 . S
C1329 C1330 1.395 . S
C1329 C1331 1.380 . S
C1330 C1329 1.395 . S
C1330 C1333 1.398 . S
C1330 H1340 0.930 . S
C1331 C1329 1.380 . S
C1331 C1332 1.391 . S
C1331 H1341 0.930 . S
C1332 C1331 1.391 . S
C1332 C1334 1.387 . S
C1333 C1330 1.398 . S
C1333 C1334 1.380 . S
C1333 H1342 0.930 . S
C1334 C1332 1.387 . S
C1334 C1333 1.380 . S
C1334 H1343 0.930 . S
C1335 O1312 1.254 . S
C1335 O1313 1.268 . S
H1336 C1321 0.930 . S
H1337 C1322 0.930 . S
H1338 C1324 0.930 . S
H1339 C1325 0.930 1_455 S
H1340 C1330 0.930 . S
H1341 C1331 0.930 . S
H1342 C1333 0.930 . S
H1343 C1334 0.930 . S
Gd1344 N1375 2.661 . S
Gd1344 N1381 2.601 . S
Gd1344 O1388 2.545 . S
Gd1344 O1389 2.606 . S
Gd1344 O1391 2.429 . S
Gd1344 O1392 2.545 . S
Gd1344 O1393 2.412 . S
Gd1344 O1395 2.362 . S
Gd1344 O1396 2.324 . S
Gd1344 C1403 2.828 . S
Gd1345 N1354 2.661 . S
Gd1345 N1358 2.601 . S
Gd1345 O1389 2.362 . S
Gd1345 O1390 2.324 . S
Gd1345 O1394 2.545 . S
Gd1345 O1395 2.606 . S
Gd1345 O1397 2.429 . S
Gd1345 O1398 2.545 . S
Gd1345 O1399 2.412 . S
Gd1345 C1412 2.828 . S
C1346 C1349 1.417 . S
C1346 C1351 1.431 . S
C1346 C1352 1.412 . S
C1347 C1350 1.437 . S
C1347 C1351 1.317 . S
C1347 H1366 0.929 . S
C1348 C1349 1.426 . S
C1348 C1350 1.413 . S
C1348 N1358 1.359 . S
C1349 C1346 1.417 . S
C1349 C1348 1.426 . S
C1349 N1354 1.350 . S
C1350 C1347 1.437 . S
C1350 C1348 1.413 . S
C1350 C1360 1.391 . S
C1351 C1346 1.431 . S
C1351 C1347 1.317 . S
C1351 H1362 0.930 . S
C1352 C1346 1.412 . S
C1352 C1353 1.355 . S
C1352 H1364 0.930 . S
C1353 C1352 1.355 . S
C1353 C1355 1.402 . S
C1353 H1365 0.930 . S
N1354 Gd1345 2.661 . S
N1354 C1349 1.350 . S
N1354 C1355 1.307 . S
C1355 C1353 1.402 . S
C1355 N1354 1.307 . S
C1355 H1356 0.930 . S
H1356 C1355 0.930 . S
C1357 N1358 1.334 . S
C1357 C1359 1.394 . S
C1357 H1361 0.930 . S
N1358 Gd1345 2.601 . S
N1358 C1348 1.359 . S
N1358 C1357 1.334 . S
C1359 C1357 1.394 . S
C1359 C1360 1.359 . S
C1359 H1371 0.930 . S
C1360 C1350 1.391 . S
C1360 C1359 1.359 . S
C1360 H1372 0.929 . S
H1361 C1357 0.930 . S
H1362 C1351 0.930 . S
H1363 C1380 0.930 . S
H1364 C1352 0.930 . S
H1365 C1353 0.930 . S
H1366 C1347 0.929 . S
H1367 C1385 0.930 . S
H1368 C1376 0.930 . S
H1369 C1377 0.930 . S
H1370 C1401 0.929 . S
H1371 C1359 0.930 . S
H1372 C1360 0.929 . S
H1373 C1402 0.930 . S
H1374 C1383 0.930 . S
N1375 Gd1344 2.661 . S
N1375 C1379 1.350 . S
N1375 C1380 1.307 . S
C1376 H1368 0.930 . S
C1376 C1377 1.355 . S
C1376 C1378 1.412 . S
C1377 H1369 0.930 . S
C1377 C1376 1.355 . S
C1377 C1380 1.402 . S
C1378 C1376 1.412 . S
C1378 C1379 1.417 . S
C1378 C1402 1.431 . S
C1379 N1375 1.350 . S
C1379 C1378 1.417 . S
C1379 C1382 1.426 . S
C1380 H1363 0.930 . S
C1380 N1375 1.307 . S
C1380 C1377 1.402 . S
N1381 Gd1344 2.601 . S
N1381 C1382 1.359 . S
N1381 C1385 1.334 . S
C1382 C1379 1.426 . S
C1382 N1381 1.359 . S
C1382 C1386 1.413 . S
C1383 H1374 0.930 . S
C1383 C1384 1.359 . S
C1383 C1385 1.394 . S
C1384 C1383 1.359 . S
C1384 C1386 1.391 . S
C1384 H1387 0.929 . S
C1385 H1367 0.930 . S
C1385 N1381 1.334 . S
C1385 C1383 1.394 . S
C1386 C1382 1.413 . S
C1386 C1384 1.391 . S
C1386 C1401 1.437 . S
H1387 C1384 0.929 . S
O1388 Gd1344 2.545 . S
O1388 C1403 1.258 . S
O1389 Gd1344 2.606 . S
O1389 Gd1345 2.362 . S
O1389 C1400 1.284 . S
O1390 Gd1345 2.324 . S
O1390 C1410 1.254 . S
O1391 Gd1344 2.429 . S
O1391 C1410 1.268 . S
O1392 Gd1344 2.545 . S
O1392 C1400 1.250 . S
O1393 Gd1344 2.412 . S
O1393 C1403 1.252 . S
O1394 Gd1345 2.545 . S
O1394 C1412 1.258 . S
O1395 Gd1344 2.362 . S
O1395 Gd1345 2.606 . S
O1395 C1411 1.284 . S
O1396 Gd1344 2.324 . S
O1396 C1419 1.254 . S
O1397 Gd1345 2.429 . S
O1397 C1419 1.268 . S
O1398 Gd1345 2.545 . S
O1398 C1411 1.250 . S
O1399 Gd1345 2.412 . S
O1399 C1412 1.252 . S
C1400 O1389 1.284 . S
C1400 O1392 1.250 . S
C1401 H1370 0.929 . S
C1401 C1386 1.437 . S
C1401 C1402 1.317 . S
C1402 H1373 0.930 . S
C1402 C1378 1.431 . S
C1402 C1401 1.317 . S
C1403 Gd1344 2.828 . S
C1403 O1388 1.258 . S
C1403 O1393 1.252 . S
C1403 C1404 1.497 . S
C1404 C1403 1.497 . S
C1404 C1405 1.395 . S
C1404 C1406 1.380 . S
C1405 C1404 1.395 . S
C1405 C1408 1.398 . S
C1405 H1420 0.930 . S
C1406 C1404 1.380 . S
C1406 C1407 1.391 . S
C1406 H1421 0.930 . S
C1407 C1406 1.391 . S
C1407 C1409 1.387 . S
C1408 C1405 1.398 . S
C1408 C1409 1.380 . S
C1408 H1422 0.930 . S
C1409 C1407 1.387 . S
C1409 C1408 1.380 . S
C1409 H1423 0.930 . S
C1410 O1390 1.254 . S
C1410 O1391 1.268 . S
C1411 O1395 1.284 . S
C1411 O1398 1.250 . S
C1412 Gd1345 2.828 . S
C1412 O1394 1.258 . S
C1412 O1399 1.252 . S
C1412 C1413 1.497 . S
C1413 C1412 1.497 . S
C1413 C1414 1.395 . S
C1413 C1415 1.380 . S
C1414 C1413 1.395 . S
C1414 C1417 1.398 . S
C1414 H1424 0.930 . S
C1415 C1413 1.380 . S
C1415 C1416 1.391 . S
C1415 H1425 0.930 . S
C1416 C1415 1.391 . S
C1416 C1418 1.387 . S
C1417 C1414 1.398 . S
C1417 C1418 1.380 . S
C1417 H1426 0.930 . S
C1418 C1416 1.387 . S
C1418 C1417 1.380 . S
C1418 H1427 0.930 . S
C1419 O1396 1.254 . S
C1419 O1397 1.268 . S
H1420 C1405 0.930 . S
H1421 C1406 0.930 . S
H1422 C1408 0.930 . S
H1423 C1409 0.930 . S
H1424 C1414 0.930 . S
H1425 C1415 0.930 . S
H1426 C1417 0.930 . S
H1427 C1418 0.930 . S
Gd1428 N1459 2.661 . S
Gd1428 N1465 2.601 . S
Gd1428 O1472 2.545 . S
Gd1428 O1473 2.606 . S
Gd1428 O1475 2.429 . S
Gd1428 O1476 2.545 . S
Gd1428 O1477 2.412 . S
Gd1428 O1479 2.362 . S
Gd1428 O1480 2.324 . S
Gd1428 C1487 2.828 . S
Gd1429 N1438 2.661 . S
Gd1429 N1442 2.601 . S
Gd1429 O1473 2.362 . S
Gd1429 O1474 2.324 . S
Gd1429 O1478 2.545 . S
Gd1429 O1479 2.606 . S
Gd1429 O1481 2.429 . S
Gd1429 O1482 2.545 . S
Gd1429 O1483 2.412 . S
Gd1429 C1496 2.828 . S
C1430 C1433 1.417 . S
C1430 C1435 1.431 . S
C1430 C1436 1.412 . S
C1431 C1434 1.437 . S
C1431 C1435 1.317 . S
C1431 H1450 0.929 . S
C1432 C1433 1.426 . S
C1432 C1434 1.413 . S
C1432 N1442 1.359 . S
C1433 C1430 1.417 . S
C1433 C1432 1.426 . S
C1433 N1438 1.350 . S
C1434 C1431 1.437 . S
C1434 C1432 1.413 . S
C1434 C1444 1.391 . S
C1435 C1430 1.431 . S
C1435 C1431 1.317 . S
C1435 H1446 0.930 . S
C1436 C1430 1.412 . S
C1436 C1437 1.355 . S
C1436 H1448 0.930 . S
C1437 C1436 1.355 . S
C1437 C1439 1.402 . S
C1437 H1449 0.930 . S
N1438 Gd1429 2.661 . S
N1438 C1433 1.350 . S
N1438 C1439 1.307 . S
C1439 C1437 1.402 . S
C1439 N1438 1.307 . S
C1439 H1440 0.930 . S
H1440 C1439 0.930 . S
C1441 N1442 1.334 . S
C1441 C1443 1.394 . S
C1441 H1445 0.930 . S
N1442 Gd1429 2.601 . S
N1442 C1432 1.359 . S
N1442 C1441 1.334 . S
C1443 C1441 1.394 . S
C1443 C1444 1.359 . S
C1443 H1455 0.930 . S
C1444 C1434 1.391 . S
C1444 C1443 1.359 . S
C1444 H1456 0.929 . S
H1445 C1441 0.930 . S
H1446 C1435 0.930 . S
H1447 C1464 0.930 . S
H1448 C1436 0.930 . S
H1449 C1437 0.930 . S
H1450 C1431 0.929 . S
H1451 C1469 0.930 . S
H1452 C1460 0.930 . S
H1453 C1461 0.930 . S
H1454 C1485 0.929 . S
H1455 C1443 0.930 . S
H1456 C1444 0.929 . S
H1457 C1486 0.930 . S
H1458 C1467 0.930 . S
N1459 Gd1428 2.661 . S
N1459 C1463 1.350 . S
N1459 C1464 1.307 . S
C1460 H1452 0.930 . S
C1460 C1461 1.355 . S
C1460 C1462 1.412 . S
C1461 H1453 0.930 . S
C1461 C1460 1.355 . S
C1461 C1464 1.402 . S
C1462 C1460 1.412 . S
C1462 C1463 1.417 . S
C1462 C1486 1.431 . S
C1463 N1459 1.350 . S
C1463 C1462 1.417 . S
C1463 C1466 1.426 . S
C1464 H1447 0.930 . S
C1464 N1459 1.307 . S
C1464 C1461 1.402 . S
N1465 Gd1428 2.601 . S
N1465 C1466 1.359 . S
N1465 C1469 1.334 . S
C1466 C1463 1.426 . S
C1466 N1465 1.359 . S
C1466 C1470 1.413 . S
C1467 H1458 0.930 . S
C1467 C1468 1.359 . S
C1467 C1469 1.394 . S
C1468 C1467 1.359 . S
C1468 C1470 1.391 . S
C1468 H1471 0.929 . S
C1469 H1451 0.930 . S
C1469 N1465 1.334 . S
C1469 C1467 1.394 . S
C1470 C1466 1.413 . S
C1470 C1468 1.391 . S
C1470 C1485 1.437 . S
H1471 C1468 0.929 . S
O1472 Gd1428 2.545 . S
O1472 C1487 1.258 . S
O1473 Gd1428 2.606 . S
O1473 Gd1429 2.362 . S
O1473 C1484 1.284 . S
O1474 Gd1429 2.324 . S
O1474 C1494 1.254 . S
O1475 Gd1428 2.429 . S
O1475 C1494 1.268 . S
O1476 Gd1428 2.545 . S
O1476 C1484 1.250 . S
O1477 Gd1428 2.412 . S
O1477 C1487 1.252 . S
O1478 Gd1429 2.545 . S
O1478 C1496 1.258 . S
O1479 Gd1428 2.362 . S
O1479 Gd1429 2.606 . S
O1479 C1495 1.284 . S
O1480 Gd1428 2.324 . S
O1480 C1503 1.254 . S
O1481 Gd1429 2.429 . S
O1481 C1503 1.268 . S
O1482 Gd1429 2.545 . S
O1482 C1495 1.250 . S
O1483 Gd1429 2.412 . S
O1483 C1496 1.252 . S
C1484 O1473 1.284 . S
C1484 O1476 1.250 . S
C1485 H1454 0.929 . S
C1485 C1470 1.437 . S
C1485 C1486 1.317 . S
C1486 H1457 0.930 . S
C1486 C1462 1.431 . S
C1486 C1485 1.317 . S
C1487 Gd1428 2.828 . S
C1487 O1472 1.258 . S
C1487 O1477 1.252 . S
C1487 C1488 1.497 . S
C1488 C1487 1.497 . S
C1488 C1489 1.395 . S
C1488 C1490 1.380 . S
C1489 C1488 1.395 . S
C1489 C1492 1.398 . S
C1489 H1504 0.930 . S
C1490 C1488 1.380 . S
C1490 C1491 1.391 . S
C1490 H1505 0.930 . S
C1491 C1490 1.391 . S
C1491 C1493 1.387 . S
C1492 C1489 1.398 . S
C1492 C1493 1.380 . S
C1492 H1506 0.930 . S
C1493 C1491 1.387 . S
C1493 C1492 1.380 . S
C1493 H1507 0.930 . S
C1494 O1474 1.254 . S
C1494 O1475 1.268 . S
C1495 O1479 1.284 . S
C1495 O1482 1.250 . S
C1496 Gd1429 2.828 . S
C1496 O1478 1.258 . S
C1496 O1483 1.252 . S
C1496 C1497 1.497 . S
C1497 C1496 1.497 . S
C1497 C1498 1.395 . S
C1497 C1499 1.380 . S
C1498 C1497 1.395 . S
C1498 C1501 1.398 . S
C1498 H1508 0.930 . S
C1499 C1497 1.380 . S
C1499 C1500 1.391 . S
C1499 H1509 0.930 . S
C1500 C1499 1.391 . S
C1500 C1502 1.387 . S
C1501 C1498 1.398 . S
C1501 C1502 1.380 . S
C1501 H1510 0.930 . S
C1502 C1500 1.387 . S
C1502 C1501 1.380 . S
C1502 H1511 0.930 1_565 S
C1503 O1480 1.254 . S
C1503 O1481 1.268 . S
H1504 C1489 0.930 . S
H1505 C1490 0.930 . S
H1506 C1492 0.930 . S
H1507 C1493 0.930 . S
H1508 C1498 0.930 . S
H1509 C1499 0.930 . S
H1510 C1501 0.930 . S
H1511 C1502 0.930 1_545 S
Gd1512 N1543 2.661 . S
Gd1512 N1549 2.601 . S
Gd1512 O1556 2.545 . S
Gd1512 O1557 2.606 . S
Gd1512 O1559 2.429 . S
Gd1512 O1560 2.545 . S
Gd1512 O1561 2.412 . S
Gd1512 O1563 2.362 . S
Gd1512 O1564 2.324 . S
Gd1512 C1571 2.828 . S
Gd1513 N1522 2.661 . S
Gd1513 N1526 2.601 . S
Gd1513 O1557 2.362 . S
Gd1513 O1558 2.324 . S
Gd1513 O1562 2.545 . S
Gd1513 O1563 2.606 . S
Gd1513 O1565 2.429 . S
Gd1513 O1566 2.545 . S
Gd1513 O1567 2.412 . S
Gd1513 C1580 2.828 . S
C1514 C1517 1.417 . S
C1514 C1519 1.431 . S
C1514 C1520 1.412 . S
C1515 C1518 1.437 . S
C1515 C1519 1.317 . S
C1515 H1534 0.929 . S
C1516 C1517 1.426 . S
C1516 C1518 1.413 . S
C1516 N1526 1.359 . S
C1517 C1514 1.417 . S
C1517 C1516 1.426 . S
C1517 N1522 1.350 . S
C1518 C1515 1.437 . S
C1518 C1516 1.413 . S
C1518 C1528 1.391 . S
C1519 C1514 1.431 . S
C1519 C1515 1.317 . S
C1519 H1530 0.930 . S
C1520 C1514 1.412 . S
C1520 C1521 1.355 . S
C1520 H1532 0.930 . S
C1521 C1520 1.355 . S
C1521 C1523 1.402 . S
C1521 H1533 0.930 . S
N1522 Gd1513 2.661 . S
N1522 C1517 1.350 . S
N1522 C1523 1.307 . S
C1523 C1521 1.402 . S
C1523 N1522 1.307 . S
C1523 H1524 0.930 . S
H1524 C1523 0.930 . S
C1525 N1526 1.334 . S
C1525 C1527 1.394 . S
C1525 H1529 0.930 . S
N1526 Gd1513 2.601 . S
N1526 C1516 1.359 . S
N1526 C1525 1.334 . S
C1527 C1525 1.394 . S
C1527 C1528 1.359 . S
C1527 H1539 0.930 . S
C1528 C1518 1.391 . S
C1528 C1527 1.359 . S
C1528 H1540 0.929 . S
H1529 C1525 0.930 . S
H1530 C1519 0.930 . S
H1531 C1548 0.930 . S
H1532 C1520 0.930 . S
H1533 C1521 0.930 . S
H1534 C1515 0.929 . S
H1535 C1553 0.930 . S
H1536 C1544 0.930 . S
H1537 C1545 0.930 . S
H1538 C1569 0.929 . S
H1539 C1527 0.930 . S
H1540 C1528 0.929 . S
H1541 C1570 0.930 . S
H1542 C1551 0.930 . S
N1543 Gd1512 2.661 . S
N1543 C1547 1.350 . S
N1543 C1548 1.307 . S
C1544 H1536 0.930 . S
C1544 C1545 1.355 . S
C1544 C1546 1.412 . S
C1545 H1537 0.930 . S
C1545 C1544 1.355 . S
C1545 C1548 1.402 . S
C1546 C1544 1.412 . S
C1546 C1547 1.417 . S
C1546 C1570 1.431 . S
C1547 N1543 1.350 . S
C1547 C1546 1.417 . S
C1547 C1550 1.426 . S
C1548 H1531 0.930 . S
C1548 N1543 1.307 . S
C1548 C1545 1.402 . S
N1549 Gd1512 2.601 . S
N1549 C1550 1.359 . S
N1549 C1553 1.334 . S
C1550 C1547 1.426 . S
C1550 N1549 1.359 . S
C1550 C1554 1.413 . S
C1551 H1542 0.930 . S
C1551 C1552 1.359 . S
C1551 C1553 1.394 . S
C1552 C1551 1.359 . S
C1552 C1554 1.391 . S
C1552 H1555 0.929 . S
C1553 H1535 0.930 . S
C1553 N1549 1.334 . S
C1553 C1551 1.394 . S
C1554 C1550 1.413 . S
C1554 C1552 1.391 . S
C1554 C1569 1.437 . S
H1555 C1552 0.929 . S
O1556 Gd1512 2.545 . S
O1556 C1571 1.258 . S
O1557 Gd1512 2.606 . S
O1557 Gd1513 2.362 . S
O1557 C1568 1.284 . S
O1558 Gd1513 2.324 . S
O1558 C1578 1.254 . S
O1559 Gd1512 2.429 . S
O1559 C1578 1.268 . S
O1560 Gd1512 2.545 . S
O1560 C1568 1.250 . S
O1561 Gd1512 2.412 . S
O1561 C1571 1.252 . S
O1562 Gd1513 2.545 . S
O1562 C1580 1.258 . S
O1563 Gd1512 2.362 . S
O1563 Gd1513 2.606 . S
O1563 C1579 1.284 . S
O1564 Gd1512 2.324 . S
O1564 C1587 1.254 . S
O1565 Gd1513 2.429 . S
O1565 C1587 1.268 . S
O1566 Gd1513 2.545 . S
O1566 C1579 1.250 . S
O1567 Gd1513 2.412 . S
O1567 C1580 1.252 . S
C1568 O1557 1.284 . S
C1568 O1560 1.250 . S
C1569 H1538 0.929 . S
C1569 C1554 1.437 . S
C1569 C1570 1.317 . S
C1570 H1541 0.930 . S
C1570 C1546 1.431 . S
C1570 C1569 1.317 . S
C1571 Gd1512 2.828 . S
C1571 O1556 1.258 . S
C1571 O1561 1.252 . S
C1571 C1572 1.497 . S
C1572 C1571 1.497 . S
C1572 C1573 1.395 . S
C1572 C1574 1.380 . S
C1573 C1572 1.395 . S
C1573 C1576 1.398 . S
C1573 H1588 0.930 . S
C1574 C1572 1.380 . S
C1574 C1575 1.391 . S
C1574 H1589 0.930 . S
C1575 C1574 1.391 . S
C1575 C1577 1.387 . S
C1576 C1573 1.398 . S
C1576 C1577 1.380 . S
C1576 H1590 0.930 . S
C1577 C1575 1.387 . S
C1577 C1576 1.380 . S
C1577 H1591 0.930 . S
C1578 O1558 1.254 . S
C1578 O1559 1.268 . S
C1579 O1563 1.284 . S
C1579 O1566 1.250 . S
C1580 Gd1513 2.828 . S
C1580 O1562 1.258 . S
C1580 O1567 1.252 . S
C1580 C1581 1.497 . S
C1581 C1580 1.497 . S
C1581 C1582 1.395 . S
C1581 C1583 1.380 . S
C1582 C1581 1.395 . S
C1582 C1585 1.398 . S
C1582 H1592 0.930 . S
C1583 C1581 1.380 . S
C1583 C1584 1.391 . S
C1583 H1593 0.930 . S
C1584 C1583 1.391 . S
C1584 C1586 1.387 . S
C1585 C1582 1.398 . S
C1585 C1586 1.380 . S
C1585 H1594 0.930 . S
C1586 C1584 1.387 . S
C1586 C1585 1.380 . S
C1586 H1595 0.930 . S
C1587 O1564 1.254 . S
C1587 O1565 1.268 . S
H1588 C1573 0.930 . S
H1589 C1574 0.930 . S
H1590 C1576 0.930 . S
H1591 C1577 0.930 . S
H1592 C1582 0.930 . S
H1593 C1583 0.930 . S
H1594 C1585 0.930 . S
H1595 C1586 0.930 . S
Gd1596 N1627 2.661 1_455 S
Gd1596 N1633 2.601 . S
Gd1596 O1640 2.545 . S
Gd1596 O1641 2.606 . S
Gd1596 O1643 2.429 . S
Gd1596 O1644 2.545 . S
Gd1596 O1645 2.412 1_455 S
Gd1596 O1647 2.362 . S
Gd1596 O1648 2.324 1_554 S
Gd1596 C1655 2.828 1_455 S
Gd1597 N1606 2.664 . S
Gd1597 N1610 2.582 1_554 S
Gd1597 O1641 2.369 . S
Gd1597 O1642 2.347 . S
Gd1597 O1646 2.530 1_554 S
Gd1597 O1647 2.619 . S
Gd1597 O1649 2.414 1_554 S
Gd1597 O1650 2.548 1_554 S
Gd1597 O1651 2.416 . S
Gd1597 C1664 2.822 1_554 S
C1598 C1601 1.417 . S
C1598 C1603 1.431 1_554 S
C1598 C1604 1.412 . S
C1599 C1602 1.437 . S
C1599 C1603 1.317 . S
C1599 H1618 0.929 . S
C1600 C1601 1.426 1_556 S
C1600 C1602 1.413 . S
C1600 N1610 1.359 . S
C1601 C1598 1.417 . S
C1601 C1600 1.426 1_554 S
C1601 N1606 1.350 . S
C1602 C1599 1.437 . S
C1602 C1600 1.413 . S
C1602 C1612 1.391 . S
C1603 C1598 1.431 1_556 S
C1603 C1599 1.317 . S
C1603 H1614 0.930 1_556 S
C1604 C1598 1.412 . S
C1604 C1605 1.355 . S
C1604 H1616 0.930 . S
C1605 C1604 1.355 . S
C1605 C1607 1.402 . S
C1605 H1617 0.930 . S
N1606 Gd1597 2.664 . S
N1606 C1601 1.350 . S
N1606 C1607 1.307 . S
C1607 C1605 1.402 . S
C1607 N1606 1.307 . S
C1607 H1608 0.930 . S
H1608 C1607 0.930 . S
C1609 N1610 1.334 . S
C1609 C1611 1.394 . S
C1609 H1613 0.930 . S
N1610 Gd1597 2.582 1_556 S
N1610 C1600 1.359 . S
N1610 C1609 1.334 . S
C1611 C1609 1.394 . S
C1611 C1612 1.359 . S
C1611 H1623 0.930 . S
C1612 C1602 1.391 . S
C1612 C1611 1.359 . S
C1612 H1624 0.929 . S
H1613 C1609 0.930 . S
H1614 C1603 0.930 1_554 S
H1615 C1632 0.930 . S
H1616 C1604 0.930 . S
H1617 C1605 0.930 . S
H1618 C1599 0.929 . S
H1619 C1637 0.930 . S
H1620 C1628 0.930 . S
H1621 C1629 0.930 . S
H1622 C1653 0.929 . S
H1623 C1611 0.930 . S
H1624 C1612 0.929 . S
H1625 C1654 0.930 . S
H1626 C1635 0.930 . S
N1627 Gd1596 2.661 1_655 S
N1627 C1631 1.350 . S
N1627 C1632 1.307 1_554 S
C1628 H1620 0.930 . S
C1628 C1629 1.355 . S
C1628 C1630 1.412 1_556 S
C1629 H1621 0.930 . S
C1629 C1628 1.355 . S
C1629 C1632 1.402 . S
C1630 C1628 1.412 1_554 S
C1630 C1631 1.417 . S
C1630 C1654 1.431 . S
C1631 N1627 1.350 . S
C1631 C1630 1.417 . S
C1631 C1634 1.426 . S
C1632 H1615 0.930 . S
C1632 N1627 1.307 1_556 S
C1632 C1629 1.402 . S
N1633 Gd1596 2.601 . S
N1633 C1634 1.359 1_455 S
N1633 C1637 1.334 . S
C1634 C1631 1.426 . S
C1634 N1633 1.359 1_655 S
C1634 C1638 1.413 . S
C1635 H1626 0.930 . S
C1635 C1636 1.359 1_455 S
C1635 C1637 1.394 . S
C1636 C1635 1.359 1_655 S
C1636 C1638 1.391 . S
C1636 H1639 0.929 . S
C1637 H1619 0.930 . S
C1637 N1633 1.334 . S
C1637 C1635 1.394 . S
C1638 C1634 1.413 . S
C1638 C1636 1.391 . S
C1638 C1653 1.437 . S
H1639 C1636 0.929 . S
O1640 Gd1596 2.545 . S
O1640 C1655 1.258 1_455 S
O1641 Gd1596 2.606 . S
O1641 Gd1597 2.369 . S
O1641 C1652 1.284 . S
O1642 Gd1597 2.347 . S
O1642 C1662 1.254 . S
O1643 Gd1596 2.429 . S
O1643 C1662 1.268 . S
O1644 Gd1596 2.545 . S
O1644 C1652 1.250 . S
O1645 Gd1596 2.412 1_655 S
O1645 C1655 1.252 . S
O1646 Gd1597 2.530 1_556 S
O1646 C1664 1.258 . S
O1647 Gd1596 2.362 . S
O1647 Gd1597 2.619 . S
O1647 C1663 1.284 . S
O1648 Gd1596 2.324 1_556 S
O1648 C1671 1.254 . S
O1649 Gd1597 2.414 1_556 S
O1649 C1671 1.268 . S
O1650 Gd1597 2.548 1_556 S
O1650 C1663 1.250 1_556 S
O1651 Gd1597 2.416 . S
O1651 C1664 1.252 1_554 S
C1652 O1641 1.284 . S
C1652 O1644 1.250 . S
C1653 H1622 0.929 . S
C1653 C1638 1.437 . S
C1653 C1654 1.317 . S
C1654 H1625 0.930 . S
C1654 C1630 1.431 . S
C1654 C1653 1.317 . S
C1655 Gd1596 2.828 1_655 S
C1655 O1640 1.258 1_655 S
C1655 O1645 1.252 . S
C1655 C1656 1.497 . S
C1656 C1655 1.497 . S
C1656 C1657 1.395 . S
C1656 C1658 1.380 . S
C1657 C1656 1.395 . S
C1657 C1660 1.398 . S
C1657 H1672 0.930 . S
C1658 C1656 1.380 . S
C1658 C1659 1.391 . S
C1658 H1673 0.930 . S
C1659 C1658 1.391 . S
C1659 C1661 1.387 . S
C1660 C1657 1.398 . S
C1660 C1661 1.380 . S
C1660 H1674 0.930 . S
C1661 C1659 1.387 . S
C1661 C1660 1.380 . S
C1661 H1675 0.930 . S
C1662 O1642 1.254 . S
C1662 O1643 1.268 . S
C1663 O1647 1.284 . S
C1663 O1650 1.250 1_554 S
C1664 Gd1597 2.822 1_556 S
C1664 O1646 1.258 . S
C1664 O1651 1.252 1_556 S
C1664 C1665 1.497 . S
C1665 C1664 1.497 . S
C1665 C1666 1.395 . S
C1665 C1667 1.380 . S
C1666 C1665 1.395 . S
C1666 C1669 1.398 . S
C1666 H1676 0.930 . S
C1667 C1665 1.380 . S
C1667 C1668 1.391 . S
C1667 H1677 0.930 1_556 S
C1668 C1667 1.391 . S
C1668 C1670 1.387 . S
C1669 C1666 1.398 . S
C1669 C1670 1.380 . S
C1669 H1678 0.930 . S
C1670 C1668 1.387 . S
C1670 C1669 1.380 . S
C1670 H1679 0.930 . S
C1671 O1648 1.254 . S
C1671 O1649 1.268 . S
H1672 C1657 0.930 . S
H1673 C1658 0.930 . S
H1674 C1660 0.930 . S
H1675 C1661 0.930 . S
H1676 C1666 0.930 . S
H1677 C1667 0.930 1_554 S
H1678 C1669 0.930 . S
H1679 C1670 0.930 . S
C1680 C1681 1.369 1_554 S
C1680 C1682 1.419 . S
C1680 H1684 0.930 . S
C1681 C1680 1.369 1_556 S
C1681 C1690 1.429 . S
C1682 C1680 1.419 . S
C1682 C1683 1.363 . S
C1682 H1685 0.929 . S
C1683 C1682 1.363 . S
C1683 C1689 1.428 1_554 S
H1684 C1680 0.930 . S
H1685 C1682 0.929 . S
S1686 N1687 1.613 . S
S1686 N1688 1.610 . S
N1687 S1686 1.613 . S
N1687 C1690 1.350 . S
N1688 S1686 1.610 . S
N1688 C1689 1.351 . S
C1689 C1683 1.428 1_556 S
C1689 N1688 1.351 . S
C1689 C1690 1.434 . S
C1690 C1681 1.429 . S
C1690 N1687 1.350 . S
C1690 C1689 1.434 . S
C1691 C1692 1.369 . S
C1691 C1693 1.419 . S
C1691 H1695 0.930 . S
C1692 C1691 1.369 . S
C1692 C1701 1.429 . S
C1693 C1691 1.419 . S
C1693 C1694 1.363 . S
C1693 H1696 0.929 . S
C1694 C1693 1.363 . S
C1694 C1700 1.428 . S
H1695 C1691 0.930 . S
H1696 C1693 0.929 . S
S1697 N1698 1.613 . S
S1697 N1699 1.610 . S
N1698 S1697 1.613 . S
N1698 C1701 1.350 . S
N1699 S1697 1.610 . S
N1699 C1700 1.351 . S
C1700 C1694 1.428 . S
C1700 N1699 1.351 . S
C1700 C1701 1.434 . S
C1701 C1692 1.429 . S
C1701 N1698 1.350 . S
C1701 C1700 1.434 . S
C1702 C1703 1.369 . S
C1702 C1704 1.419 . S
C1702 H1706 0.930 . S
C1703 C1702 1.369 . S
C1703 C1712 1.429 . S
C1704 C1702 1.419 . S
C1704 C1705 1.363 . S
C1704 H1707 0.929 . S
C1705 C1704 1.363 . S
C1705 C1711 1.428 . S
H1706 C1702 0.930 . S
H1707 C1704 0.929 . S
S1708 N1709 1.613 . S
S1708 N1710 1.610 . S
N1709 S1708 1.613 . S
N1709 C1712 1.350 . S
N1710 S1708 1.610 . S
N1710 C1711 1.351 . S
C1711 C1705 1.428 . S
C1711 N1710 1.351 . S
C1711 C1712 1.434 . S
C1712 C1703 1.429 . S
C1712 N1709 1.350 . S
C1712 C1711 1.434 . S
C1713 C1714 1.369 . S
C1713 C1715 1.419 . S
C1713 H1717 0.930 . S
C1714 C1713 1.369 . S
C1714 C1723 1.429 . S
C1715 C1713 1.419 . S
C1715 C1716 1.363 . S
C1715 H1718 0.929 . S
C1716 C1715 1.363 . S
C1716 C1722 1.428 . S
H1717 C1713 0.930 . S
H1718 C1715 0.929 . S
S1719 N1720 1.613 . S
S1719 N1721 1.610 . S
N1720 S1719 1.613 . S
N1720 C1723 1.350 . S
N1721 S1719 1.610 . S
N1721 C1722 1.351 . S
C1722 C1716 1.428 . S
C1722 N1721 1.351 . S
C1722 C1723 1.434 . S
C1723 C1714 1.429 . S
C1723 N1720 1.350 . S
C1723 C1722 1.434 . S
C1724 C1725 1.369 . S
C1724 C1726 1.419 . S
C1724 H1728 0.930 . S
C1725 C1724 1.369 . S
C1725 C1734 1.429 . S
C1726 C1724 1.419 . S
C1726 C1727 1.363 . S
C1726 H1729 0.929 . S
C1727 C1726 1.363 . S
C1727 C1733 1.428 . S
H1728 C1724 0.930 . S
H1729 C1726 0.929 . S
S1730 N1731 1.613 . S
S1730 N1732 1.610 1_655 S
N1731 S1730 1.613 . S
N1731 C1734 1.350 1_655 S
N1732 S1730 1.610 1_455 S
N1732 C1733 1.351 . S
C1733 C1727 1.428 . S
C1733 N1732 1.351 . S
C1733 C1734 1.434 . S
C1734 C1725 1.429 . S
C1734 N1731 1.350 1_455 S
C1734 C1733 1.434 . S
C1735 C1736 1.369 . S
C1735 C1737 1.419 . S
C1735 H1739 0.930 . S
C1736 C1735 1.369 . S
C1736 C1745 1.429 . S
C1737 C1735 1.419 . S
C1737 C1738 1.363 . S
C1737 H1740 0.929 . S
C1738 C1737 1.363 . S
C1738 C1744 1.428 . S
H1739 C1735 0.930 . S
H1740 C1737 0.929 . S
S1741 N1742 1.613 . S
S1741 N1743 1.610 . S
N1742 S1741 1.613 . S
N1742 C1745 1.350 . S
N1743 S1741 1.610 . S
N1743 C1744 1.351 . S
C1744 C1738 1.428 . S
C1744 N1743 1.351 . S
C1744 C1745 1.434 . S
C1745 C1736 1.429 . S
C1745 N1742 1.350 . S
C1745 C1744 1.434 . S
C1746 C1747 1.369 . S
C1746 C1748 1.419 . S
C1746 H1750 0.930 . S
C1747 C1746 1.369 . S
C1747 C1756 1.429 . S
C1748 C1746 1.419 . S
C1748 C1749 1.363 . S
C1748 H1751 0.929 . S
C1749 C1748 1.363 . S
C1749 C1755 1.428 . S
H1750 C1746 0.930 . S
H1751 C1748 0.929 . S
S1752 N1753 1.613 . S
S1752 N1754 1.610 . S
N1753 S1752 1.613 . S
N1753 C1756 1.350 . S
N1754 S1752 1.610 . S
N1754 C1755 1.351 . S
C1755 C1749 1.428 . S
C1755 N1754 1.351 . S
C1755 C1756 1.434 . S
C1756 C1747 1.429 . S
C1756 N1753 1.350 . S
C1756 C1755 1.434 . S
C1757 C1758 1.369 . S
C1757 C1759 1.419 . S
C1757 H1761 0.930 . S
C1758 C1757 1.369 . S
C1758 C1767 1.429 . S
C1759 C1757 1.419 . S
C1759 C1760 1.363 . S
C1759 H1762 0.929 . S
C1760 C1759 1.363 . S
C1760 C1766 1.428 . S
H1761 C1757 0.930 . S
H1762 C1759 0.929 . S
S1763 N1764 1.613 . S
S1763 N1765 1.610 . S
N1764 S1763 1.613 . S
N1764 C1767 1.350 . S
N1765 S1763 1.610 . S
N1765 C1766 1.351 . S
C1766 C1760 1.428 . S
C1766 N1765 1.351 . S
C1766 C1767 1.434 . S
C1767 C1758 1.429 . S
C1767 N1764 1.350 . S
C1767 C1766 1.434 . S
C1768 C1769 1.369 . S
C1768 C1770 1.419 . S
C1768 H1772 0.930 . S
C1769 C1768 1.369 . S
C1769 C1778 1.429 . S
C1770 C1768 1.419 . S
C1770 C1771 1.363 . S
C1770 H1773 0.929 . S
C1771 C1770 1.363 . S
C1771 C1777 1.428 . S
H1772 C1768 0.930 . S
H1773 C1770 0.929 . S
S1774 N1775 1.615 1_565 S
S1774 N1776 1.610 1_565 S
N1775 S1774 1.615 1_545 S
N1775 C1778 1.350 . S
N1776 S1774 1.610 1_545 S
N1776 C1777 1.351 . S
C1777 C1771 1.428 . S
C1777 N1776 1.351 . S
C1777 C1778 1.434 . S
C1778 C1769 1.429 . S
C1778 N1775 1.350 . S
C1778 C1777 1.434 . S
C1779 C1780 1.369 . S
C1779 C1781 1.419 . S
C1779 H1783 0.930 . S
C1780 C1779 1.369 . S
C1780 C1789 1.429 . S
C1781 C1779 1.419 . S
C1781 C1782 1.363 . S
C1781 H1784 0.929 . S
C1782 C1781 1.363 . S
C1782 C1788 1.428 . S
H1783 C1779 0.930 . S
H1784 C1781 0.929 . S
S1785 N1786 1.613 . S
S1785 N1787 1.610 . S
N1786 S1785 1.613 . S
N1786 C1789 1.350 . S
N1787 S1785 1.610 . S
N1787 C1788 1.351 . S
C1788 C1782 1.428 . S
C1788 N1787 1.351 . S
C1788 C1789 1.434 . S
C1789 C1780 1.429 . S
C1789 N1786 1.350 . S
C1789 C1788 1.434 . S
C1790 C1791 1.369 . S
C1790 C1792 1.419 . S
C1790 H1794 0.958 . S
C1791 C1790 1.369 . S
C1791 C1800 1.429 . S
C1792 C1790 1.419 . S
C1792 C1793 1.363 . S
C1792 H1795 0.929 1_545 S
C1793 C1792 1.363 . S
C1793 C1799 1.428 . S
H1794 C1790 0.958 . S
H1795 C1792 0.929 1_565 S
S1796 N1797 1.613 . S
S1796 N1798 1.610 . S
N1797 S1796 1.613 . S
N1797 C1800 1.350 . S
N1798 S1796 1.610 . S
N1798 C1799 1.351 . S
C1799 C1793 1.428 . S
C1799 N1798 1.351 . S
C1799 C1800 1.434 . S
C1800 C1791 1.429 . S
C1800 N1797 1.350 . S
C1800 C1799 1.434 . S
C1801 C1802 1.369 . S
C1801 C1803 1.419 . S
C1801 H1805 0.930 . S
C1802 C1801 1.369 . S
C1802 C1811 1.429 . S
C1803 C1801 1.419 . S
C1803 C1804 1.363 . S
C1803 H1806 0.929 . S
C1804 C1803 1.363 . S
C1804 C1810 1.428 . S
H1805 C1801 0.930 . S
H1806 C1803 0.929 . S
S1807 N1808 1.613 . S
S1807 N1809 1.610 . S
N1808 S1807 1.613 . S
N1808 C1811 1.350 . S
N1809 S1807 1.610 . S
N1809 C1810 1.351 . S
C1810 C1804 1.428 . S
C1810 N1809 1.351 . S
C1810 C1811 1.434 . S
C1811 C1802 1.429 . S
C1811 N1808 1.350 . S
C1811 C1810 1.434 . S
C1812 C1813 1.369 . S
C1812 C1814 1.419 . S
C1812 H1816 0.930 . S
C1813 C1812 1.369 . S
C1813 C1822 1.429 . S
C1814 C1812 1.419 . S
C1814 C1815 1.363 . S
C1814 H1817 0.929 . S
C1815 C1814 1.363 . S
C1815 C1821 1.428 . S
H1816 C1812 0.930 . S
H1817 C1814 0.929 . S
S1818 N1819 1.613 1_565 S
S1818 N1820 1.600 1_655 S
N1819 S1818 1.613 1_545 S
N1819 C1822 1.350 1_655 S
N1820 S1818 1.600 1_455 S
N1820 C1821 1.356 1_565 S
C1821 C1815 1.428 . S
C1821 N1820 1.356 1_545 S
C1821 C1822 1.434 . S
C1822 C1813 1.429 . S
C1822 N1819 1.350 1_455 S
C1822 C1821 1.434 . S
C1823 C1824 1.369 . S
C1823 C1825 1.419 . S
C1823 H1827 0.930 . S
C1824 C1823 1.369 . S
C1824 C1833 1.429 . S
C1825 C1823 1.419 . S
C1825 C1826 1.363 . S
C1825 H1828 0.929 . S
C1826 C1825 1.363 . S
C1826 C1832 1.428 . S
H1827 C1823 0.930 . S
H1828 C1825 0.929 . S
S1829 N1830 1.613 . S
S1829 N1831 1.610 . S
N1830 S1829 1.613 . S
N1830 C1833 1.350 . S
N1831 S1829 1.610 . S
N1831 C1832 1.351 . S
C1832 C1826 1.428 . S
C1832 N1831 1.351 . S
C1832 C1833 1.434 . S
C1833 C1824 1.429 . S
C1833 N1830 1.350 . S
C1833 C1832 1.434 . S
C1834 C1835 1.369 . S
C1834 C1836 1.419 . S
C1834 H1838 0.930 . S
C1835 C1834 1.369 . S
C1835 C1844 1.429 . S
C1836 C1834 1.419 . S
C1836 C1837 1.363 . S
C1836 H1839 0.929 . S
C1837 C1836 1.363 . S
C1837 C1843 1.428 . S
H1838 C1834 0.930 . S
H1839 C1836 0.929 . S
S1840 N1841 1.613 . S
S1840 N1842 1.610 . S
N1841 S1840 1.613 . S
N1841 C1844 1.350 . S
N1842 S1840 1.610 . S
N1842 C1843 1.351 . S
C1843 C1837 1.428 . S
C1843 N1842 1.351 . S
C1843 C1844 1.434 . S
C1844 C1835 1.429 . S
C1844 N1841 1.350 . S
C1844 C1843 1.434 . S
C1845 C1846 1.369 . S
C1845 C1847 1.419 . S
C1845 H1849 0.930 . S
C1846 C1845 1.369 . S
C1846 C1855 1.429 . S
C1847 C1845 1.419 . S
C1847 C1848 1.363 . S
C1847 H1850 0.929 . S
C1848 C1847 1.363 . S
C1848 C1854 1.428 . S
H1849 C1845 0.930 . S
H1850 C1847 0.929 . S
S1851 N1852 1.613 . S
S1851 N1853 1.610 . S
N1852 S1851 1.613 . S
N1852 C1855 1.350 . S
N1853 S1851 1.610 . S
N1853 C1854 1.351 . S
C1854 C1848 1.428 . S
C1854 N1853 1.351 . S
C1854 C1855 1.434 . S
C1855 C1846 1.429 . S
C1855 N1852 1.350 . S
C1855 C1854 1.434 . S
C1856 C1857 1.369 1_556 S
C1856 C1858 1.419 1_566 S
C1856 H1860 0.930 . S
C1857 C1856 1.369 1_554 S
C1857 C1866 1.429 1_565 S
C1858 C1856 1.419 1_544 S
C1858 C1859 1.363 . S
C1858 H1861 0.929 1_554 S
C1859 C1858 1.363 . S
C1859 C1865 1.428 . S
H1860 C1856 0.930 . S
H1861 C1858 0.929 1_556 S
S1862 N1863 1.613 . S
S1862 N1864 1.610 . S
N1863 S1862 1.613 . S
N1863 C1866 1.350 . S
N1864 S1862 1.610 . S
N1864 C1865 1.351 . S
C1865 C1859 1.428 . S
C1865 N1864 1.351 . S
C1865 C1866 1.434 . S
C1866 C1857 1.429 1_545 S
C1866 N1863 1.350 . S
C1866 C1865 1.434 . S
C1867 C1868 1.369 . S
C1867 C1869 1.419 . S
C1867 H1871 0.930 . S
C1868 C1867 1.369 . S
C1868 C1877 1.429 1_556 S
C1869 C1867 1.419 . S
C1869 C1870 1.363 . S
C1869 H1872 0.929 . S
C1870 C1869 1.363 . S
C1870 C1876 1.428 1_556 S
H1871 C1867 0.930 . S
H1872 C1869 0.929 . S
S1873 N1874 1.613 . S
S1873 N1875 1.610 . S
N1874 S1873 1.613 . S
N1874 C1877 1.350 . S
N1875 S1873 1.610 . S
N1875 C1876 1.351 . S
C1876 C1870 1.428 1_554 S
C1876 N1875 1.351 . S
C1876 C1877 1.434 . S
C1877 C1868 1.429 1_554 S
C1877 N1874 1.350 . S
C1877 C1876 1.434 . S
C1878 C1879 1.369 . S
C1878 C1880 1.419 . S
C1878 H1882 0.930 . S
C1879 C1878 1.369 . S
C1879 C1888 1.429 . S
C1880 C1878 1.419 . S
C1880 C1881 1.363 . S
C1880 H1883 0.929 . S
C1881 C1880 1.363 . S
C1881 C1887 1.428 . S
H1882 C1878 0.930 . S
H1883 C1880 0.929 . S
S1884 N1885 1.613 . S
S1884 N1886 1.610 . S
N1885 S1884 1.613 . S
N1885 C1888 1.350 . S
N1886 S1884 1.610 . S
N1886 C1887 1.351 . S
C1887 C1881 1.428 . S
C1887 N1886 1.351 . S
C1887 C1888 1.434 . S
C1888 C1879 1.429 . S
C1888 N1885 1.350 . S
C1888 C1887 1.434 . S
C1889 C1890 1.369 . S
C1889 C1891 1.419 . S
C1889 H1893 0.930 . S
C1890 C1889 1.369 . S
C1890 C1899 1.429 . S
C1891 C1889 1.419 . S
C1891 C1892 1.363 1_655 S
C1891 H1894 0.929 . S
C1892 C1891 1.363 1_455 S
C1892 C1898 1.428 1_455 S
H1893 C1889 0.930 . S
H1894 C1891 0.929 . S
S1895 N1896 1.613 . S
S1895 N1897 1.610 . S
N1896 S1895 1.613 . S
N1896 C1899 1.350 . S
N1897 S1895 1.610 . S
N1897 C1898 1.351 . S
C1898 C1892 1.428 1_655 S
C1898 N1897 1.351 . S
C1898 C1899 1.434 . S
C1899 C1890 1.429 . S
C1899 N1896 1.350 . S
C1899 C1898 1.434 . S
C1900 C1901 1.369 . S
C1900 C1902 1.419 . S
C1900 H1904 0.930 . S
C1901 C1900 1.369 . S
C1901 C1910 1.429 . S
C1902 C1900 1.419 . S
C1902 C1903 1.363 . S
C1902 H1905 0.929 . S
C1903 C1902 1.363 . S
C1903 C1909 1.428 . S
H1904 C1900 0.930 . S
H1905 C1902 0.929 . S
S1906 N1907 1.613 . S
S1906 N1908 1.610 . S
N1907 S1906 1.613 . S
N1907 C1910 1.350 . S
N1908 S1906 1.610 . S
N1908 C1909 1.351 . S
C1909 C1903 1.428 . S
C1909 N1908 1.351 . S
C1909 C1910 1.434 . S
C1910 C1901 1.429 . S
C1910 N1907 1.350 . S
C1910 C1909 1.434 . S
C1911 C1912 1.369 . S
C1911 C1913 1.419 . S
C1911 H1915 0.930 . S
C1912 C1911 1.369 . S
C1912 C1921 1.429 . S
C1913 C1911 1.419 . S
C1913 C1914 1.363 . S
C1913 H1916 0.929 . S
C1914 C1913 1.363 . S
C1914 C1920 1.428 . S
H1915 C1911 0.930 . S
H1916 C1913 0.929 . S
S1917 N1918 1.613 . S
S1917 N1919 1.610 . S
N1918 S1917 1.613 . S
N1918 C1921 1.350 . S
N1919 S1917 1.610 . S
N1919 C1920 1.351 . S
C1920 C1914 1.428 . S
C1920 N1919 1.351 . S
C1920 C1921 1.434 . S
C1921 C1912 1.429 . S
C1921 N1918 1.350 . S
C1921 C1920 1.434 . S
C1922 C1923 1.369 . S
C1922 C1924 1.419 . S
C1922 H1926 0.930 . S
C1923 C1922 1.369 . S
C1923 C1932 1.429 . S
C1924 C1922 1.419 . S
C1924 C1925 1.363 . S
C1924 H1927 0.929 . S
C1925 C1924 1.363 . S
C1925 C1931 1.428 . S
H1926 C1922 0.930 . S
H1927 C1924 0.929 . S
S1928 N1929 1.613 . S
S1928 N1930 1.610 . S
N1929 S1928 1.613 . S
N1929 C1932 1.350 . S
N1930 S1928 1.610 . S
N1930 C1931 1.351 . S
C1931 C1925 1.428 . S
C1931 N1930 1.351 . S
C1931 C1932 1.434 . S
C1932 C1923 1.429 . S
C1932 N1929 1.350 . S
C1932 C1931 1.434 . S
C1933 C1934 1.369 . S
C1933 C1935 1.419 . S
C1933 H1937 0.930 . S
C1934 C1933 1.369 . S
C1934 C1943 1.429 . S
C1935 C1933 1.419 . S
C1935 C1936 1.363 . S
C1935 H1938 0.929 . S
C1936 C1935 1.363 . S
C1936 C1942 1.428 . S
H1937 C1933 0.930 . S
H1938 C1935 0.929 . S
S1939 N1940 1.613 . S
S1939 N1941 1.610 . S
N1940 S1939 1.613 . S
N1940 C1943 1.350 . S
N1941 S1939 1.610 . S
N1941 C1942 1.351 . S
C1942 C1936 1.428 . S
C1942 N1941 1.351 . S
C1942 C1943 1.434 . S
C1943 C1934 1.429 . S
C1943 N1940 1.350 . S
C1943 C1942 1.434 . S
C1944 C1945 1.369 . S
C1944 C1946 1.419 . S
C1944 H1948 0.930 . S
C1945 C1944 1.369 . S
C1945 C1954 1.429 . S
C1946 C1944 1.419 . S
C1946 C1947 1.363 . S
C1946 H1949 0.929 . S
C1947 C1946 1.363 . S
C1947 C1953 1.428 . S
H1948 C1944 0.930 . S
H1949 C1946 0.929 . S
S1950 N1951 1.613 . S
S1950 N1952 1.610 . S
N1951 S1950 1.613 . S
N1951 C1954 1.350 . S
N1952 S1950 1.610 . S
N1952 C1953 1.351 . S
C1953 C1947 1.428 . S
C1953 N1952 1.351 . S
C1953 C1954 1.434 . S
C1954 C1945 1.429 . S
C1954 N1951 1.350 . S
C1954 C1953 1.434 . S
C1955 C1956 1.369 . S
C1955 C1957 1.419 . S
C1955 H1959 0.930 . S
C1956 C1955 1.369 . S
C1956 C1965 1.429 . S
C1957 C1955 1.419 . S
C1957 C1958 1.363 . S
C1957 H1960 0.929 . S
C1958 C1957 1.363 . S
C1958 C1964 1.428 . S
H1959 C1955 0.930 . S
H1960 C1957 0.929 . S
S1961 N1962 1.613 . S
S1961 N1963 1.610 . S
N1962 S1961 1.613 . S
N1962 C1965 1.350 . S
N1963 S1961 1.610 . S
N1963 C1964 1.351 . S
C1964 C1958 1.428 . S
C1964 N1963 1.351 . S
C1964 C1965 1.434 . S
C1965 C1956 1.429 . S
C1965 N1962 1.350 . S
C1965 C1964 1.434 . S
C1966 C1967 1.369 . S
C1966 C1968 1.419 . S
C1966 H1970 0.930 . S
C1967 C1966 1.369 . S
C1967 C1976 1.429 . S
C1968 C1966 1.419 . S
C1968 C1969 1.363 . S
C1968 H1971 0.929 . S
C1969 C1968 1.363 . S
C1969 C1975 1.428 . S
H1970 C1966 0.930 . S
H1971 C1968 0.929 . S
S1972 N1973 1.613 . S
S1972 N1974 1.610 . S
N1973 S1972 1.613 . S
N1973 C1976 1.350 . S
N1974 S1972 1.610 . S
N1974 C1975 1.351 . S
C1975 C1969 1.428 . S
C1975 N1974 1.351 . S
C1975 C1976 1.434 . S
C1976 C1967 1.429 . S
C1976 N1973 1.350 . S
C1976 C1975 1.434 . S
C1977 C1978 1.369 . S
C1977 C1979 1.419 . S
C1977 H1981 0.930 . S
C1978 C1977 1.369 . S
C1978 C1987 1.429 . S
C1979 C1977 1.419 . S
C1979 C1980 1.363 . S
C1979 H1982 0.929 . S
C1980 C1979 1.363 . S
C1980 C1986 1.428 . S
H1981 C1977 0.930 . S
H1982 C1979 0.929 . S
S1983 N1984 1.613 . S
S1983 N1985 1.610 . S
N1984 S1983 1.613 . S
N1984 C1987 1.350 . S
N1985 S1983 1.610 . S
N1985 C1986 1.351 . S
C1986 C1980 1.428 . S
C1986 N1985 1.351 . S
C1986 C1987 1.434 . S
C1987 C1978 1.429 . S
C1987 N1984 1.350 . S
C1987 C1986 1.434 . S
C1988 C1989 1.369 . S
C1988 C1990 1.419 . S
C1988 H1992 0.930 . S
C1989 C1988 1.369 . S
C1989 C1998 1.429 . S
C1990 C1988 1.419 . S
C1990 C1991 1.363 . S
C1990 H1993 0.929 . S
C1991 C1990 1.363 . S
C1991 C1997 1.428 . S
H1992 C1988 0.930 . S
H1993 C1990 0.929 . S
S1994 N1995 1.613 . S
S1994 N1996 1.610 . S
N1995 S1994 1.613 . S
N1995 C1998 1.350 . S
N1996 S1994 1.610 . S
N1996 C1997 1.351 . S
C1997 C1991 1.428 . S
C1997 N1996 1.351 . S
C1997 C1998 1.434 . S
C1998 C1989 1.429 . S
C1998 N1995 1.350 . S
C1998 C1997 1.434 . S
C1999 C2000 1.369 . S
C1999 C2001 1.419 . S
C1999 H2003 0.930 . S
C2000 C1999 1.369 . S
C2000 C2009 1.429 . S
C2001 C1999 1.419 . S
C2001 C2002 1.363 . S
C2001 H2004 0.929 . S
C2002 C2001 1.363 . S
C2002 C2008 1.428 . S
H2003 C1999 0.930 . S
H2004 C2001 0.929 . S
S2005 N2006 1.613 . S
S2005 N2007 1.610 . S
N2006 S2005 1.613 . S
N2006 C2009 1.350 . S
N2007 S2005 1.610 . S
N2007 C2008 1.351 . S
C2008 C2002 1.428 . S
C2008 N2007 1.351 . S
C2008 C2009 1.434 . S
C2009 C2000 1.429 . S
C2009 N2006 1.350 . S
C2009 C2008 1.434 . S
C2010 C2011 1.369 . S
C2010 C2012 1.419 . S
C2010 H2014 0.930 . S
C2011 C2010 1.369 . S
C2011 C2020 1.429 . S
C2012 C2010 1.419 . S
C2012 C2013 1.363 . S
C2012 H2015 0.929 . S
C2013 C2012 1.363 . S
C2013 C2019 1.428 . S
H2014 C2010 0.930 . S
H2015 C2012 0.929 . S
S2016 N2017 1.613 1_554 S
S2016 N2018 1.610 . S
N2017 S2016 1.613 1_556 S
N2017 C2020 1.350 . S
N2018 S2016 1.610 . S
N2018 C2019 1.351 1_554 S
C2019 C2013 1.428 . S
C2019 N2018 1.351 1_556 S
C2019 C2020 1.434 . S
C2020 C2011 1.429 . S
C2020 N2017 1.350 . S
C2020 C2019 1.434 . S
C2021 C2022 1.369 . S
C2021 C2023 1.419 . S
C2021 H2025 0.930 . S
C2022 C2021 1.369 . S
C2022 C2031 1.429 . S
C2023 C2021 1.419 . S
C2023 C2024 1.363 . S
C2023 H2026 0.929 . S
C2024 C2023 1.363 . S
C2024 C2030 1.428 . S
H2025 C2021 0.930 . S
H2026 C2023 0.929 . S
S2027 N2028 1.613 . S
S2027 N2029 1.610 . S
N2028 S2027 1.613 . S
N2028 C2031 1.350 . S
N2029 S2027 1.610 . S
N2029 C2030 1.351 . S
C2030 C2024 1.428 . S
C2030 N2029 1.351 . S
C2030 C2031 1.434 . S
C2031 C2022 1.429 . S
C2031 N2028 1.350 . S
C2031 C2030 1.434 . S
C2032 C2033 1.369 1_565 S
C2032 C2034 1.419 . S
C2032 H2036 0.930 . S
C2033 C2032 1.369 1_545 S
C2033 C2042 1.429 . S
C2034 C2032 1.419 . S
C2034 C2035 1.363 1_565 S
C2034 H2037 0.929 . S
C2035 C2034 1.363 1_545 S
C2035 C2041 1.428 . S
H2036 C2032 0.930 . S
H2037 C2034 0.929 . S
S2038 N2039 1.613 . S
S2038 N2040 1.610 . S
N2039 S2038 1.613 . S
N2039 C2042 1.350 . S
N2040 S2038 1.610 . S
N2040 C2041 1.351 . S
C2041 C2035 1.428 . S
C2041 N2040 1.351 . S
C2041 C2042 1.434 . S
C2042 C2033 1.429 . S
C2042 N2039 1.350 . S
C2042 C2041 1.434 . S
C2043 C2044 1.369 . S
C2043 C2045 1.419 . S
C2043 H2047 0.930 . S
C2044 C2043 1.369 . S
C2044 C2053 1.429 . S
C2045 C2043 1.419 . S
C2045 C2046 1.363 . S
C2045 H2048 0.929 . S
C2046 C2045 1.363 . S
C2046 C2052 1.428 . S
H2047 C2043 0.930 . S
H2048 C2045 0.929 . S
S2049 N2050 1.613 . S
S2049 N2051 1.610 . S
N2050 S2049 1.613 . S
N2050 C2053 1.350 . S
N2051 S2049 1.610 . S
N2051 C2052 1.351 . S
C2052 C2046 1.428 . S
C2052 N2051 1.351 . S
C2052 C2053 1.434 . S
C2053 C2044 1.429 . S
C2053 N2050 1.350 . S
C2053 C2052 1.434 . S
C2054 C2055 1.369 . S
C2054 C2056 1.419 . S
C2054 H2058 0.930 1_545 S
C2055 C2054 1.369 . S
C2055 C2064 1.429 . S
C2056 C2054 1.419 . S
C2056 C2057 1.363 . S
C2056 H2059 0.935 . S
C2057 C2056 1.363 . S
C2057 C2063 1.428 . S
H2058 C2054 0.930 1_565 S
H2059 C2056 0.935 . S
S2060 N2061 1.613 . S
S2060 N2062 1.610 . S
N2061 S2060 1.613 . S
N2061 C2064 1.350 . S
N2062 S2060 1.610 . S
N2062 C2063 1.351 . S
C2063 C2057 1.428 . S
C2063 N2062 1.351 . S
C2063 C2064 1.434 . S
C2064 C2055 1.429 . S
C2064 N2061 1.350 . S
C2064 C2063 1.434 . S
C2065 C2066 1.369 . S
C2065 C2067 1.419 . S
C2065 H2069 0.930 . S
C2066 C2065 1.369 . S
C2066 C2075 1.429 . S
C2067 C2065 1.419 . S
C2067 C2068 1.363 . S
C2067 H2070 0.929 . S
C2068 C2067 1.363 . S
C2068 C2074 1.428 . S
H2069 C2065 0.930 . S
H2070 C2067 0.929 . S
S2071 N2072 1.613 . S
S2071 N2073 1.610 . S
N2072 S2071 1.613 . S
N2072 C2075 1.350 . S
N2073 S2071 1.610 . S
N2073 C2074 1.351 . S
C2074 C2068 1.428 . S
C2074 N2073 1.351 . S
C2074 C2075 1.434 . S
C2075 C2066 1.429 . S
C2075 N2072 1.350 . S
C2075 C2074 1.434 . S
C2076 C2077 1.369 . S
C2076 C2078 1.419 . S
C2076 H2080 0.930 . S
C2077 C2076 1.369 . S
C2077 C2086 1.429 1_565 S
C2078 C2076 1.419 . S
C2078 C2079 1.363 1_565 S
C2078 H2081 0.929 . S
C2079 C2078 1.363 1_545 S
C2079 C2085 1.428 . S
H2080 C2076 0.930 . S
H2081 C2078 0.929 . S
S2082 N2083 1.613 . S
S2082 N2084 1.610 . S
N2083 S2082 1.613 . S
N2083 C2086 1.350 . S
N2084 S2082 1.610 . S
N2084 C2085 1.351 . S
C2085 C2079 1.428 . S
C2085 N2084 1.351 . S
C2085 C2086 1.434 . S
C2086 C2077 1.429 1_545 S
C2086 N2083 1.350 . S
C2086 C2085 1.434 . S
C2087 C2088 1.369 . S
C2087 C2089 1.419 . S
C2087 H2091 0.930 . S
C2088 C2087 1.369 . S
C2088 C2097 1.429 . S
C2089 C2087 1.419 . S
C2089 C2090 1.363 . S
C2089 H2092 0.929 . S
C2090 C2089 1.363 . S
C2090 C2096 1.428 . S
H2091 C2087 0.930 . S
H2092 C2089 0.929 . S
S2093 N2094 1.613 . S
S2093 N2095 1.610 . S
N2094 S2093 1.613 . S
N2094 C2097 1.350 . S
N2095 S2093 1.610 . S
N2095 C2096 1.351 . S
C2096 C2090 1.428 . S
C2096 N2095 1.351 . S
C2096 C2097 1.434 . S
C2097 C2088 1.429 . S
C2097 N2094 1.350 . S
C2097 C2096 1.434 . S
C2098 C2099 1.358 1_565 S
C2098 C2100 1.419 . S
C2098 H2102 0.930 . S
C2099 C2098 1.358 1_545 S
C2099 C2108 1.446 . S
C2100 C2098 1.419 . S
C2100 C2101 1.363 1_565 S
C2100 H2103 0.929 . S
C2101 C2100 1.363 1_545 S
C2101 C2107 1.428 . S
H2102 C2098 0.930 . S
H2103 C2100 0.929 . S
S2104 N2105 1.613 . S
S2104 N2106 1.610 . S
N2105 S2104 1.613 . S
N2105 C2108 1.350 . S
N2106 S2104 1.610 . S
N2106 C2107 1.351 . S
C2107 C2101 1.428 . S
C2107 N2106 1.351 . S
C2107 C2108 1.434 . S
C2108 C2099 1.446 . S
C2108 N2105 1.350 . S
C2108 C2107 1.434 . S
C2109 C2110 1.369 . S
C2109 C2111 1.419 . S
C2109 H2113 0.930 . S
C2110 C2109 1.369 . S
C2110 C2119 1.429 . S
C2111 C2109 1.419 . S
C2111 C2112 1.363 . S
C2111 H2114 0.929 . S
C2112 C2111 1.363 . S
C2112 C2118 1.428 . S
H2113 C2109 0.930 . S
H2114 C2111 0.929 . S
S2115 N2116 1.613 . S
S2115 N2117 1.610 . S
N2116 S2115 1.613 . S
N2116 C2119 1.350 . S
N2117 S2115 1.610 . S
N2117 C2118 1.351 . S
C2118 C2112 1.428 . S
C2118 N2117 1.351 . S
C2118 C2119 1.434 . S
C2119 C2110 1.429 . S
C2119 N2116 1.350 . S
C2119 C2118 1.434 . S
C2120 C2121 1.383 . S
C2120 C2122 1.414 1_554 S
C2120 H2124 0.920 1_554 S
C2121 C2120 1.383 . S
C2121 C2130 1.429 . S
C2122 C2120 1.414 1_556 S
C2122 C2123 1.363 1_556 S
C2122 H2125 0.929 . S
C2123 C2122 1.363 1_554 S
C2123 C2129 1.428 . S
H2124 C2120 0.920 1_556 S
H2125 C2122 0.929 . S
S2126 N2127 1.613 . S
S2126 N2128 1.610 . S
N2127 S2126 1.613 . S
N2127 C2130 1.350 . S
N2128 S2126 1.610 . S
N2128 C2129 1.351 . S
C2129 C2123 1.428 . S
C2129 N2128 1.351 . S
C2129 C2130 1.434 . S
C2130 C2121 1.429 . S
C2130 N2127 1.350 . S
C2130 C2129 1.434 . S
C2131 C2132 1.369 . S
C2131 C2133 1.419 . S
C2131 H2135 0.930 . S
C2132 C2131 1.369 . S
C2132 C2141 1.429 . S
C2133 C2131 1.419 . S
C2133 C2134 1.363 . S
C2133 H2136 0.929 . S
C2134 C2133 1.363 . S
C2134 C2140 1.428 . S
H2135 C2131 0.930 . S
H2136 C2133 0.929 . S
S2137 N2138 1.613 . S
S2137 N2139 1.610 . S
N2138 S2137 1.613 . S
N2138 C2141 1.350 . S
N2139 S2137 1.610 . S
N2139 C2140 1.351 . S
C2140 C2134 1.428 . S
C2140 N2139 1.351 . S
C2140 C2141 1.434 . S
C2141 C2132 1.429 . S
C2141 N2138 1.350 . S
C2141 C2140 1.434 . S
C2142 C2143 1.369 . S
C2142 C2144 1.419 . S
C2142 H2146 0.930 . S
C2143 C2142 1.369 . S
C2143 C2152 1.429 . S
C2144 C2142 1.419 . S
C2144 C2145 1.363 . S
C2144 H2147 0.929 . S
C2145 C2144 1.363 . S
C2145 C2151 1.428 . S
H2146 C2142 0.930 . S
H2147 C2144 0.929 . S
S2148 N2149 1.613 . S
S2148 N2150 1.610 . S
N2149 S2148 1.613 . S
N2149 C2152 1.350 . S
N2150 S2148 1.610 . S
N2150 C2151 1.351 . S
C2151 C2145 1.428 . S
C2151 N2150 1.351 . S
C2151 C2152 1.434 . S
C2152 C2143 1.429 . S
C2152 N2149 1.350 . S
C2152 C2151 1.434 . S
C2153 C2154 1.369 . S
C2153 C2155 1.419 . S
C2153 H2157 0.930 . S
C2154 C2153 1.369 . S
C2154 C2163 1.429 . S
C2155 C2153 1.419 . S
C2155 C2156 1.363 . S
C2155 H2158 0.929 . S
C2156 C2155 1.363 . S
C2156 C2162 1.428 . S
H2157 C2153 0.930 . S
H2158 C2155 0.929 . S
S2159 N2160 1.613 . S
S2159 N2161 1.610 . S
N2160 S2159 1.613 . S
N2160 C2163 1.350 . S
N2161 S2159 1.610 . S
N2161 C2162 1.351 . S
C2162 C2156 1.428 . S
C2162 N2161 1.351 . S
C2162 C2163 1.434 . S
C2163 C2154 1.429 . S
C2163 N2160 1.350 . S
C2163 C2162 1.434 . S
C2164 C2165 1.369 1_545 S
C2164 C2166 1.419 1_545 S
C2164 H2168 0.930 . S
C2165 C2164 1.369 1_565 S
C2165 C2174 1.429 . S
C2166 C2164 1.419 1_565 S
C2166 C2167 1.363 . S
C2166 H2169 0.931 . S
C2167 C2166 1.363 . S
C2167 C2173 1.428 . S
H2168 C2164 0.930 . S
H2169 C2166 0.931 . S
S2170 N2171 1.613 . S
S2170 N2172 1.610 . S
N2171 S2170 1.613 . S
N2171 C2174 1.350 . S
N2172 S2170 1.610 . S
N2172 C2173 1.351 . S
C2173 C2167 1.428 . S
C2173 N2172 1.351 . S
C2173 C2174 1.434 . S
C2174 C2165 1.429 . S
C2174 N2171 1.350 . S
C2174 C2173 1.434 . S
C2175 C2176 1.369 . S
C2175 C2177 1.419 . S
C2175 H2179 0.930 . S
C2176 C2175 1.369 . S
C2176 C2185 1.429 . S
C2177 C2175 1.419 . S
C2177 C2178 1.363 . S
C2177 H2180 0.929 . S
C2178 C2177 1.363 . S
C2178 C2184 1.428 . S
H2179 C2175 0.930 . S
H2180 C2177 0.929 . S
S2181 N2182 1.613 . S
S2181 N2183 1.610 . S
N2182 S2181 1.613 . S
N2182 C2185 1.350 . S
N2183 S2181 1.610 . S
N2183 C2184 1.351 . S
C2184 C2178 1.428 . S
C2184 N2183 1.351 . S
C2184 C2185 1.434 . S
C2185 C2176 1.429 . S
C2185 N2182 1.350 . S
C2185 C2184 1.434 . S
C2186 C2187 1.369 . S
C2186 C2188 1.419 . S
C2186 H2190 0.930 . S
C2187 C2186 1.369 . S
C2187 C2196 1.429 . S
C2188 C2186 1.419 . S
C2188 C2189 1.363 . S
C2188 H2191 0.929 . S
C2189 C2188 1.363 . S
C2189 C2195 1.428 . S
H2190 C2186 0.930 . S
H2191 C2188 0.929 . S
S2192 N2193 1.613 . S
S2192 N2194 1.610 . S
N2193 S2192 1.613 . S
N2193 C2196 1.350 . S
N2194 S2192 1.610 . S
N2194 C2195 1.351 . S
C2195 C2189 1.428 . S
C2195 N2194 1.351 . S
C2195 C2196 1.434 . S
C2196 C2187 1.429 . S
C2196 N2193 1.350 . S
C2196 C2195 1.434 . S
C2197 C2198 1.369 . S
C2197 C2199 1.419 . S
C2197 H2201 0.930 . S
C2198 C2197 1.369 . S
C2198 C2207 1.429 . S
C2199 C2197 1.419 . S
C2199 C2200 1.363 . S
C2199 H2202 0.929 . S
C2200 C2199 1.363 . S
C2200 C2206 1.428 . S
H2201 C2197 0.930 . S
H2202 C2199 0.929 . S
S2203 N2204 1.613 . S
S2203 N2205 1.610 . S
N2204 S2203 1.613 . S
N2204 C2207 1.350 . S
N2205 S2203 1.610 . S
N2205 C2206 1.351 . S
C2206 C2200 1.428 . S
C2206 N2205 1.351 . S
C2206 C2207 1.434 . S
C2207 C2198 1.429 . S
C2207 N2204 1.350 . S
C2207 C2206 1.434 . S
C2208 C2209 1.369 . S
C2208 C2210 1.419 . S
C2208 H2212 0.930 . S
C2209 C2208 1.369 . S
C2209 C2218 1.429 . S
C2210 C2208 1.419 . S
C2210 C2211 1.363 . S
C2210 H2213 0.929 . S
C2211 C2210 1.363 . S
C2211 C2217 1.428 . S
H2212 C2208 0.930 . S
H2213 C2210 0.929 . S
S2214 N2215 1.613 . S
S2214 N2216 1.610 . S
N2215 S2214 1.613 . S
N2215 C2218 1.350 . S
N2216 S2214 1.610 . S
N2216 C2217 1.351 . S
C2217 C2211 1.428 . S
C2217 N2216 1.351 . S
C2217 C2218 1.434 . S
C2218 C2209 1.429 . S
C2218 N2215 1.350 . S
C2218 C2217 1.434 . S
C2219 C2220 1.369 . S
C2219 C2221 1.419 . S
C2219 H2223 0.930 . S
C2220 C2219 1.369 . S
C2220 C2229 1.429 . S
C2221 C2219 1.419 . S
C2221 C2222 1.363 . S
C2221 H2224 0.929 . S
C2222 C2221 1.363 . S
C2222 C2228 1.428 . S
H2223 C2219 0.930 . S
H2224 C2221 0.929 . S
S2225 N2226 1.613 . S
S2225 N2227 1.610 . S
N2226 S2225 1.613 . S
N2226 C2229 1.350 . S
N2227 S2225 1.610 . S
N2227 C2228 1.351 . S
C2228 C2222 1.428 . S
C2228 N2227 1.351 . S
C2228 C2229 1.434 . S
C2229 C2220 1.429 . S
C2229 N2226 1.350 . S
C2229 C2228 1.434 . S
C2230 C2231 1.369 . S
C2230 C2232 1.419 . S
C2230 H2234 0.941 . S
C2231 C2230 1.369 . S
C2231 C2240 1.429 1_556 S
C2232 C2230 1.419 . S
C2232 C2233 1.363 1_556 S
C2232 H2235 0.929 . S
C2233 C2232 1.363 1_554 S
C2233 C2239 1.428 . S
H2234 C2230 0.941 . S
H2235 C2232 0.929 . S
S2236 N2237 1.613 . S
S2236 N2238 1.610 . S
N2237 S2236 1.613 . S
N2237 C2240 1.350 . S
N2238 S2236 1.610 . S
N2238 C2239 1.351 . S
C2239 C2233 1.428 . S
C2239 N2238 1.351 . S
C2239 C2240 1.434 . S
C2240 C2231 1.429 1_554 S
C2240 N2237 1.350 . S
C2240 C2239 1.434 . S
C2241 C2242 1.369 . S
C2241 C2243 1.419 . S
C2241 H2245 0.930 . S
C2242 C2241 1.369 . S
C2242 C2251 1.429 . S
C2243 C2241 1.419 . S
C2243 C2244 1.363 1_455 S
C2243 H2246 0.929 . S
C2244 C2243 1.363 1_655 S
C2244 C2250 1.428 . S
H2245 C2241 0.930 . S
H2246 C2243 0.929 . S
S2247 N2248 1.613 1_655 S
S2247 N2249 1.610 . S
N2248 S2247 1.613 1_455 S
N2248 C2251 1.350 . S
N2249 S2247 1.610 . S
N2249 C2250 1.351 . S
C2250 C2244 1.428 . S
C2250 N2249 1.351 . S
C2250 C2251 1.434 1_655 S
C2251 C2242 1.429 . S
C2251 N2248 1.350 . S
C2251 C2250 1.434 1_455 S
C2252 C2253 1.369 . S
C2252 C2254 1.419 . S
C2252 H2256 0.930 . S
C2253 C2252 1.369 . S
C2253 C2262 1.429 . S
C2254 C2252 1.419 . S
C2254 C2255 1.363 . S
C2254 H2257 0.929 . S
C2255 C2254 1.363 . S
C2255 C2261 1.428 . S
H2256 C2252 0.930 . S
H2257 C2254 0.929 . S
S2258 N2259 1.613 . S
S2258 N2260 1.610 . S
N2259 S2258 1.613 . S
N2259 C2262 1.350 . S
N2260 S2258 1.610 . S
N2260 C2261 1.351 . S
C2261 C2255 1.428 . S
C2261 N2260 1.351 . S
C2261 C2262 1.434 . S
C2262 C2253 1.429 . S
C2262 N2259 1.350 . S
C2262 C2261 1.434 . S
C2263 C2264 1.369 . S
C2263 C2265 1.419 . S
C2263 H2267 0.930 . S
C2264 C2263 1.369 . S
C2264 C2273 1.429 . S
C2265 C2263 1.419 . S
C2265 C2266 1.363 . S
C2265 H2268 0.929 . S
C2266 C2265 1.363 . S
C2266 C2272 1.428 . S
H2267 C2263 0.930 . S
H2268 C2265 0.929 . S
S2269 N2270 1.613 . S
S2269 N2271 1.610 . S
N2270 S2269 1.613 . S
N2270 C2273 1.350 . S
N2271 S2269 1.610 . S
N2271 C2272 1.351 . S
C2272 C2266 1.428 . S
C2272 N2271 1.351 . S
C2272 C2273 1.434 . S
C2273 C2264 1.429 . S
C2273 N2270 1.350 . S
C2273 C2272 1.434 . S
C2274 C2275 1.369 1_455 S
C2274 C2276 1.419 . S
C2274 H2278 0.930 . S
C2275 C2274 1.369 1_655 S
C2275 C2284 1.418 1_655 S
C2276 C2274 1.419 . S
C2276 C2277 1.363 . S
C2276 H2279 0.929 . S
C2277 C2276 1.363 . S
C2277 C2283 1.428 . S
H2278 C2274 0.930 . S
H2279 C2276 0.929 . S
S2280 N2281 1.613 1_455 S
S2280 N2282 1.610 . S
N2281 S2280 1.613 1_655 S
N2281 C2284 1.343 1_655 S
N2282 S2280 1.610 . S
N2282 C2283 1.351 . S
C2283 C2277 1.428 . S
C2283 N2282 1.351 . S
C2283 C2284 1.455 . S
C2284 C2275 1.418 1_455 S
C2284 N2281 1.343 1_455 S
C2284 C2283 1.455 . S
C2285 C2286 1.369 . S
C2285 C2287 1.419 . S
C2285 H2289 0.930 . S
C2286 C2285 1.369 . S
C2286 C2295 1.429 . S
C2287 C2285 1.419 . S
C2287 C2288 1.363 . S
C2287 H2290 0.929 . S
C2288 C2287 1.363 . S
C2288 C2294 1.428 . S
H2289 C2285 0.930 . S
H2290 C2287 0.929 . S
S2291 N2292 1.613 . S
S2291 N2293 1.610 . S
N2292 S2291 1.613 . S
N2292 C2295 1.350 . S
N2293 S2291 1.610 . S
N2293 C2294 1.351 . S
C2294 C2288 1.428 . S
C2294 N2293 1.351 . S
C2294 C2295 1.434 . S
C2295 C2286 1.429 . S
C2295 N2292 1.350 . S
C2295 C2294 1.434 . S
C2296 C2297 1.369 . S
C2296 C2298 1.419 . S
C2296 H2300 0.930 . S
C2297 C2296 1.369 . S
C2297 C2306 1.429 . S
C2298 C2296 1.419 . S
C2298 C2299 1.363 . S
C2298 H2301 0.929 . S
C2299 C2298 1.363 . S
C2299 C2305 1.428 . S
H2300 C2296 0.930 . S
H2301 C2298 0.929 . S
S2302 N2303 1.613 . S
S2302 N2304 1.610 . S
N2303 S2302 1.613 . S
N2303 C2306 1.350 . S
N2304 S2302 1.610 . S
N2304 C2305 1.351 . S
C2305 C2299 1.428 . S
C2305 N2304 1.351 . S
C2305 C2306 1.434 . S
C2306 C2297 1.429 . S
C2306 N2303 1.350 . S
C2306 C2305 1.434 . S
C2307 C2308 1.369 . S
C2307 C2309 1.419 . S
C2307 H2311 0.930 . S
C2308 C2307 1.369 . S
C2308 C2317 1.429 . S
C2309 C2307 1.419 . S
C2309 C2310 1.363 . S
C2309 H2312 0.929 . S
C2310 C2309 1.363 . S
C2310 C2316 1.428 . S
H2311 C2307 0.930 . S
H2312 C2309 0.929 . S
S2313 N2314 1.613 . S
S2313 N2315 1.610 1_554 S
N2314 S2313 1.613 . S
N2314 C2317 1.350 1_554 S
N2315 S2313 1.610 1_556 S
N2315 C2316 1.351 . S
C2316 C2310 1.428 . S
C2316 N2315 1.351 . S
C2316 C2317 1.434 . S
C2317 C2308 1.429 . S
C2317 N2314 1.350 1_556 S
C2317 C2316 1.434 . S
C2318 C2319 1.369 . S
C2318 C2320 1.419 . S
C2318 H2322 0.930 . S
C2319 C2318 1.369 . S
C2319 C2328 1.429 . S
C2320 C2318 1.419 . S
C2320 C2321 1.363 . S
C2320 H2323 0.929 . S
C2321 C2320 1.363 . S
C2321 C2327 1.428 . S
H2322 C2318 0.930 . S
H2323 C2320 0.929 . S
S2324 N2325 1.613 . S
S2324 N2326 1.610 . S
N2325 S2324 1.613 . S
N2325 C2328 1.350 . S
N2326 S2324 1.610 . S
N2326 C2327 1.351 . S
C2327 C2321 1.428 . S
C2327 N2326 1.351 . S
C2327 C2328 1.434 . S
C2328 C2319 1.429 . S
C2328 N2325 1.350 . S
C2328 C2327 1.434 . S
C2329 C2330 1.369 . S
C2329 C2331 1.419 . S
C2329 H2333 0.930 . S
C2330 C2329 1.369 . S
C2330 C2339 1.429 . S
C2331 C2329 1.419 . S
C2331 C2332 1.363 . S
C2331 H2334 0.929 . S
C2332 C2331 1.363 . S
C2332 C2338 1.428 . S
H2333 C2329 0.930 . S
H2334 C2331 0.929 . S
S2335 N2336 1.613 . S
S2335 N2337 1.610 . S
N2336 S2335 1.613 . S
N2336 C2339 1.350 . S
N2337 S2335 1.610 . S
N2337 C2338 1.351 . S
C2338 C2332 1.428 . S
C2338 N2337 1.351 . S
C2338 C2339 1.434 . S
C2339 C2330 1.429 . S
C2339 N2336 1.350 . S
C2339 C2338 1.434 . S
C2340 C2341 1.369 . S
C2340 C2342 1.419 . S
C2340 H2344 0.930 . S
C2341 C2340 1.369 . S
C2341 C2350 1.429 . S
C2342 C2340 1.419 . S
C2342 C2343 1.363 . S
C2342 H2345 0.929 . S
C2343 C2342 1.363 . S
C2343 C2349 1.428 . S
H2344 C2340 0.930 . S
H2345 C2342 0.929 . S
S2346 N2347 1.613 . S
S2346 N2348 1.610 . S
N2347 S2346 1.613 . S
N2347 C2350 1.350 . S
N2348 S2346 1.610 . S
N2348 C2349 1.351 . S
C2349 C2343 1.428 . S
C2349 N2348 1.351 . S
C2349 C2350 1.434 . S
C2350 C2341 1.429 . S
C2350 N2347 1.350 . S
C2350 C2349 1.434 . S
C2351 C2352 1.369 . S
C2351 C2353 1.419 . S
C2351 H2355 0.930 . S
C2352 C2351 1.369 . S
C2352 C2361 1.429 . S
C2353 C2351 1.419 . S
C2353 C2354 1.363 . S
C2353 H2356 0.929 . S
C2354 C2353 1.363 . S
C2354 C2360 1.428 . S
H2355 C2351 0.930 . S
H2356 C2353 0.929 . S
S2357 N2358 1.613 . S
S2357 N2359 1.610 . S
N2358 S2357 1.613 . S
N2358 C2361 1.350 . S
N2359 S2357 1.610 . S
N2359 C2360 1.351 . S
C2360 C2354 1.428 . S
C2360 N2359 1.351 . S
C2360 C2361 1.434 . S
C2361 C2352 1.429 . S
C2361 N2358 1.350 . S
C2361 C2360 1.434 . S
C2362 C2363 1.369 . S
C2362 C2364 1.419 . S
C2362 H2366 0.930 . S
C2363 C2362 1.369 . S
C2363 C2372 1.429 . S
C2364 C2362 1.419 . S
C2364 C2365 1.363 . S
C2364 H2367 0.929 . S
C2365 C2364 1.363 . S
C2365 C2371 1.428 . S
H2366 C2362 0.930 . S
H2367 C2364 0.929 . S
S2368 N2369 1.613 . S
S2368 N2370 1.610 . S
N2369 S2368 1.613 . S
N2369 C2372 1.350 . S
N2370 S2368 1.610 . S
N2370 C2371 1.351 . S
C2371 C2365 1.428 . S
C2371 N2370 1.351 . S
C2371 C2372 1.434 . S
C2372 C2363 1.429 . S
C2372 N2369 1.350 . S
C2372 C2371 1.434 . S
C2373 C2374 1.369 . S
C2373 C2375 1.419 . S
C2373 H2377 0.930 . S
C2374 C2373 1.369 . S
C2374 C2383 1.429 . S
C2375 C2373 1.419 . S
C2375 C2376 1.363 . S
C2375 H2378 0.929 . S
C2376 C2375 1.363 . S
C2376 C2382 1.428 . S
H2377 C2373 0.930 . S
H2378 C2375 0.929 . S
S2379 N2380 1.613 . S
S2379 N2381 1.610 . S
N2380 S2379 1.613 . S
N2380 C2383 1.350 . S
N2381 S2379 1.610 . S
N2381 C2382 1.351 . S
C2382 C2376 1.428 . S
C2382 N2381 1.351 . S
C2382 C2383 1.434 . S
C2383 C2374 1.429 . S
C2383 N2380 1.350 . S
C2383 C2382 1.434 . S
C2384 C2385 1.369 . S
C2384 C2386 1.419 . S
C2384 H2388 0.930 . S
C2385 C2384 1.369 . S
C2385 C2394 1.429 . S
C2386 C2384 1.419 . S
C2386 C2387 1.363 . S
C2386 H2389 0.929 . S
C2387 C2386 1.363 . S
C2387 C2393 1.428 . S
H2388 C2384 0.930 . S
H2389 C2386 0.929 . S
S2390 N2391 1.613 . S
S2390 N2392 1.610 . S
N2391 S2390 1.613 . S
N2391 C2394 1.350 . S
N2392 S2390 1.610 . S
N2392 C2393 1.351 . S
C2393 C2387 1.428 . S
C2393 N2392 1.351 . S
C2393 C2394 1.434 . S
C2394 C2385 1.429 . S
C2394 N2391 1.350 . S
C2394 C2393 1.434 . S
C2395 C2396 1.369 . S
C2395 C2397 1.419 . S
C2395 H2399 0.930 . S
C2396 C2395 1.369 . S
C2396 C2405 1.429 . S
C2397 C2395 1.419 . S
C2397 C2398 1.363 . S
C2397 H2400 0.929 . S
C2398 C2397 1.363 . S
C2398 C2404 1.428 . S
H2399 C2395 0.930 . S
H2400 C2397 0.929 . S
S2401 N2402 1.613 . S
S2401 N2403 1.610 . S
N2402 S2401 1.613 . S
N2402 C2405 1.350 . S
N2403 S2401 1.610 . S
N2403 C2404 1.351 . S
C2404 C2398 1.428 . S
C2404 N2403 1.351 . S
C2404 C2405 1.434 . S
C2405 C2396 1.429 . S
C2405 N2402 1.350 . S
C2405 C2404 1.434 . S
C2406 C2407 1.369 . S
C2406 C2408 1.419 . S
C2406 H2410 0.930 . S
C2407 C2406 1.369 . S
C2407 C2416 1.429 . S
C2408 C2406 1.419 . S
C2408 C2409 1.363 . S
C2408 H2411 0.929 . S
C2409 C2408 1.363 . S
C2409 C2415 1.428 . S
H2410 C2406 0.930 . S
H2411 C2408 0.929 . S
S2412 N2413 1.613 . S
S2412 N2414 1.610 . S
N2413 S2412 1.613 . S
N2413 C2416 1.350 . S
N2414 S2412 1.610 . S
N2414 C2415 1.351 . S
C2415 C2409 1.428 . S
C2415 N2414 1.351 . S
C2415 C2416 1.434 . S
C2416 C2407 1.429 . S
C2416 N2413 1.350 . S
C2416 C2415 1.434 . S
C2417 C2418 1.391 1_545 S
C2417 C2419 1.412 . S
C2417 H2421 0.915 1_554 S
C2418 C2417 1.391 1_565 S
C2418 C2427 1.429 . S
C2419 C2417 1.412 . S
C2419 C2420 1.362 . S
C2419 H2422 0.931 1_554 S
C2420 C2419 1.362 . S
C2420 C2426 1.428 1_545 S
H2421 C2417 0.915 1_556 S
H2422 C2419 0.931 1_556 S
S2423 N2424 1.613 . S
S2423 N2425 1.610 . S
N2424 S2423 1.613 . S
N2424 C2427 1.350 . S
N2425 S2423 1.610 . S
N2425 C2426 1.351 . S
C2426 C2420 1.428 1_565 S
C2426 N2425 1.351 . S
C2426 C2427 1.434 . S
C2427 C2418 1.429 . S
C2427 N2424 1.350 . S
C2427 C2426 1.434 . S
C2428 C2429 1.369 . S
C2428 C2430 1.419 . S
C2428 H2432 0.930 . S
C2429 C2428 1.369 . S
C2429 C2438 1.429 . S
C2430 C2428 1.419 . S
C2430 C2431 1.363 . S
C2430 H2433 0.929 . S
C2431 C2430 1.363 . S
C2431 C2437 1.428 . S
H2432 C2428 0.930 . S
H2433 C2430 0.929 . S
S2434 N2435 1.613 . S
S2434 N2436 1.610 . S
N2435 S2434 1.613 . S
N2435 C2438 1.350 . S
N2436 S2434 1.610 . S
N2436 C2437 1.351 . S
C2437 C2431 1.428 . S
C2437 N2436 1.351 . S
C2437 C2438 1.434 . S
C2438 C2429 1.429 . S
C2438 N2435 1.350 . S
C2438 C2437 1.434 . S
C2439 C2440 1.369 . S
C2439 C2441 1.419 . S
C2439 H2443 0.930 . S
C2440 C2439 1.369 . S
C2440 C2449 1.429 1_554 S
C2441 C2439 1.419 . S
C2441 C2442 1.363 . S
C2441 H2444 0.929 . S
C2442 C2441 1.363 . S
C2442 C2448 1.436 . S
H2443 C2439 0.930 . S
H2444 C2441 0.929 . S
S2445 N2446 1.613 . S
S2445 N2447 1.610 . S
N2446 S2445 1.613 . S
N2446 C2449 1.350 . S
N2447 S2445 1.610 . S
N2447 C2448 1.347 1_556 S
C2448 C2442 1.436 . S
C2448 N2447 1.347 1_554 S
C2448 C2449 1.430 1_554 S
C2449 C2440 1.429 1_556 S
C2449 N2446 1.350 . S
C2449 C2448 1.430 1_556 S
C2450 C2451 1.369 . S
C2450 C2452 1.419 . S
C2450 H2454 0.930 . S
C2451 C2450 1.369 . S
C2451 C2460 1.429 . S
C2452 C2450 1.419 . S
C2452 C2453 1.363 . S
C2452 H2455 0.929 . S
C2453 C2452 1.363 . S
C2453 C2459 1.428 . S
H2454 C2450 0.930 . S
H2455 C2452 0.929 . S
S2456 N2457 1.613 . S
S2456 N2458 1.610 . S
N2457 S2456 1.613 . S
N2457 C2460 1.350 . S
N2458 S2456 1.610 . S
N2458 C2459 1.351 . S
C2459 C2453 1.428 . S
C2459 N2458 1.351 . S
C2459 C2460 1.434 . S
C2460 C2451 1.429 . S
C2460 N2457 1.350 . S
C2460 C2459 1.434 . S
C2461 C2462 1.369 . S
C2461 C2463 1.419 . S
C2461 H2465 0.930 . S
C2462 C2461 1.369 . S
C2462 C2471 1.429 . S
C2463 C2461 1.419 . S
C2463 C2464 1.363 . S
C2463 H2466 0.929 . S
C2464 C2463 1.363 . S
C2464 C2470 1.428 . S
H2465 C2461 0.930 . S
H2466 C2463 0.929 . S
S2467 N2468 1.613 . S
S2467 N2469 1.610 . S
N2468 S2467 1.613 . S
N2468 C2471 1.350 . S
N2469 S2467 1.610 . S
N2469 C2470 1.351 . S
C2470 C2464 1.428 . S
C2470 N2469 1.351 . S
C2470 C2471 1.434 . S
C2471 C2462 1.429 . S
C2471 N2468 1.350 . S
C2471 C2470 1.434 . S
C2472 C2473 1.369 . S
C2472 C2474 1.419 . S
C2472 H2476 0.930 . S
C2473 C2472 1.369 . S
C2473 C2482 1.429 . S
C2474 C2472 1.419 . S
C2474 C2475 1.363 . S
C2474 H2477 0.929 . S
C2475 C2474 1.363 . S
C2475 C2481 1.428 . S
H2476 C2472 0.930 . S
H2477 C2474 0.929 . S
S2478 N2479 1.613 . S
S2478 N2480 1.610 . S
N2479 S2478 1.613 . S
N2479 C2482 1.350 . S
N2480 S2478 1.610 . S
N2480 C2481 1.351 . S
C2481 C2475 1.428 . S
C2481 N2480 1.351 . S
C2481 C2482 1.434 . S
C2482 C2473 1.429 . S
C2482 N2479 1.350 . S
C2482 C2481 1.434 . S
C2483 C2484 1.369 . S
C2483 C2485 1.419 . S
C2483 H2487 0.930 . S
C2484 C2483 1.369 . S
C2484 C2493 1.429 . S
C2485 C2483 1.419 . S
C2485 C2486 1.363 . S
C2485 H2488 0.929 . S
C2486 C2485 1.363 . S
C2486 C2492 1.428 . S
H2487 C2483 0.930 . S
H2488 C2485 0.929 . S
S2489 N2490 1.613 . S
S2489 N2491 1.610 . S
N2490 S2489 1.613 . S
N2490 C2493 1.350 . S
N2491 S2489 1.610 . S
N2491 C2492 1.351 . S
C2492 C2486 1.428 . S
C2492 N2491 1.351 . S
C2492 C2493 1.434 . S
C2493 C2484 1.429 . S
C2493 N2490 1.350 . S
C2493 C2492 1.434 . S
C2494 C2495 1.369 . S
C2494 C2496 1.419 . S
C2494 H2498 0.930 . S
C2495 C2494 1.369 . S
C2495 C2504 1.429 . S
C2496 C2494 1.419 . S
C2496 C2497 1.363 . S
C2496 H2499 0.929 . S
C2497 C2496 1.363 . S
C2497 C2503 1.428 . S
H2498 C2494 0.930 . S
H2499 C2496 0.929 . S
S2500 N2501 1.613 . S
S2500 N2502 1.610 . S
N2501 S2500 1.613 . S
N2501 C2504 1.350 . S
N2502 S2500 1.610 . S
N2502 C2503 1.351 . S
C2503 C2497 1.428 . S
C2503 N2502 1.351 . S
C2503 C2504 1.434 . S
C2504 C2495 1.429 . S
C2504 N2501 1.350 . S
C2504 C2503 1.434 . S
C2505 C2506 1.369 . S
C2505 C2507 1.419 . S
C2505 H2509 0.930 . S
C2506 C2505 1.369 . S
C2506 C2515 1.429 . S
C2507 C2505 1.419 . S
C2507 C2508 1.363 . S
C2507 H2510 0.929 . S
C2508 C2507 1.363 . S
C2508 C2514 1.428 . S
H2509 C2505 0.930 . S
H2510 C2507 0.929 . S
S2511 N2512 1.613 . S
S2511 N2513 1.610 . S
N2512 S2511 1.613 . S
N2512 C2515 1.350 . S
N2513 S2511 1.610 . S
N2513 C2514 1.351 . S
C2514 C2508 1.428 . S
C2514 N2513 1.351 . S
C2514 C2515 1.434 . S
C2515 C2506 1.429 . S
C2515 N2512 1.350 . S
C2515 C2514 1.434 . S
C2516 C2517 1.369 . S
C2516 C2518 1.419 . S
C2516 H2520 0.930 . S
C2517 C2516 1.369 . S
C2517 C2526 1.429 . S
C2518 C2516 1.419 . S
C2518 C2519 1.363 . S
C2518 H2521 0.929 1_556 S
C2519 C2518 1.363 . S
C2519 C2525 1.428 . S
H2520 C2516 0.930 . S
H2521 C2518 0.929 1_554 S
S2522 N2523 1.613 . S
S2522 N2524 1.610 . S
N2523 S2522 1.613 . S
N2523 C2526 1.350 . S
N2524 S2522 1.610 . S
N2524 C2525 1.351 . S
C2525 C2519 1.428 . S
C2525 N2524 1.351 . S
C2525 C2526 1.434 . S
C2526 C2517 1.429 . S
C2526 N2523 1.350 . S
C2526 C2525 1.434 . S
C2527 C2528 1.369 . S
C2527 C2529 1.419 . S
C2527 H2531 0.930 . S
C2528 C2527 1.369 . S
C2528 C2537 1.429 . S
C2529 C2527 1.419 . S
C2529 C2530 1.363 . S
C2529 H2532 0.929 . S
C2530 C2529 1.363 . S
C2530 C2536 1.428 . S
H2531 C2527 0.930 . S
H2532 C2529 0.929 . S
S2533 N2534 1.613 . S
S2533 N2535 1.610 . S
N2534 S2533 1.613 . S
N2534 C2537 1.350 . S
N2535 S2533 1.610 . S
N2535 C2536 1.351 . S
C2536 C2530 1.428 . S
C2536 N2535 1.351 . S
C2536 C2537 1.434 . S
C2537 C2528 1.429 . S
C2537 N2534 1.350 . S
C2537 C2536 1.434 . S
C2538 C2539 1.369 . S
C2538 C2540 1.419 . S
C2538 H2542 0.930 . S
C2539 C2538 1.369 . S
C2539 C2548 1.429 . S
C2540 C2538 1.419 . S
C2540 C2541 1.363 . S
C2540 H2543 0.929 . S
C2541 C2540 1.363 . S
C2541 C2547 1.428 . S
H2542 C2538 0.930 . S
H2543 C2540 0.929 . S
S2544 N2545 1.613 . S
S2544 N2546 1.610 . S
N2545 S2544 1.613 . S
N2545 C2548 1.350 . S
N2546 S2544 1.610 . S
N2546 C2547 1.351 . S
C2547 C2541 1.428 . S
C2547 N2546 1.351 . S
C2547 C2548 1.434 . S
C2548 C2539 1.429 . S
C2548 N2545 1.350 . S
C2548 C2547 1.434 . S
C2549 C2550 1.369 . S
C2549 C2551 1.419 . S
C2549 H2553 0.930 . S
C2550 C2549 1.369 . S
C2550 C2559 1.429 . S
C2551 C2549 1.419 . S
C2551 C2552 1.363 . S
C2551 H2554 0.929 . S
C2552 C2551 1.363 . S
C2552 C2558 1.428 . S
H2553 C2549 0.930 . S
H2554 C2551 0.929 . S
S2555 N2556 1.613 . S
S2555 N2557 1.610 . S
N2556 S2555 1.613 . S
N2556 C2559 1.350 . S
N2557 S2555 1.610 . S
N2557 C2558 1.351 . S
C2558 C2552 1.428 . S
C2558 N2557 1.351 . S
C2558 C2559 1.434 . S
C2559 C2550 1.429 . S
C2559 N2556 1.350 . S
C2559 C2558 1.434 . S
C2560 C2561 1.369 . S
C2560 C2562 1.419 . S
C2560 H2564 0.930 . S
C2561 C2560 1.369 . S
C2561 C2570 1.429 . S
C2562 C2560 1.419 . S
C2562 C2563 1.363 . S
C2562 H2565 0.929 . S
C2563 C2562 1.363 . S
C2563 C2569 1.428 . S
H2564 C2560 0.930 . S
H2565 C2562 0.929 . S
S2566 N2567 1.613 . S
S2566 N2568 1.610 . S
N2567 S2566 1.613 . S
N2567 C2570 1.350 . S
N2568 S2566 1.610 . S
N2568 C2569 1.351 . S
C2569 C2563 1.428 . S
C2569 N2568 1.351 . S
C2569 C2570 1.434 . S
C2570 C2561 1.429 . S
C2570 N2567 1.350 . S
C2570 C2569 1.434 . S
C2571 C2572 1.369 . S
C2571 C2573 1.419 . S
C2571 H2575 0.930 . S
C2572 C2571 1.369 . S
C2572 C2581 1.429 . S
C2573 C2571 1.419 . S
C2573 C2574 1.363 . S
C2573 H2576 0.929 . S
C2574 C2573 1.363 . S
C2574 C2580 1.428 . S
H2575 C2571 0.930 . S
H2576 C2573 0.929 . S
S2577 N2578 1.613 . S
S2577 N2579 1.610 . S
N2578 S2577 1.613 . S
N2578 C2581 1.350 . S
N2579 S2577 1.610 . S
N2579 C2580 1.351 . S
C2580 C2574 1.428 . S
C2580 N2579 1.351 . S
C2580 C2581 1.434 . S
C2581 C2572 1.429 . S
C2581 N2578 1.350 . S
C2581 C2580 1.434 . S
C2582 C2583 1.369 1_455 S
C2582 C2584 1.419 . S
C2582 H2586 0.930 . S
C2583 C2582 1.369 1_655 S
C2583 C2592 1.429 . S
C2584 C2582 1.419 . S
C2584 C2585 1.363 . S
C2584 H2587 0.929 . S
C2585 C2584 1.363 . S
C2585 C2591 1.428 1_455 S
H2586 C2582 0.930 . S
H2587 C2584 0.929 . S
S2588 N2589 1.613 . S
S2588 N2590 1.610 . S
N2589 S2588 1.613 . S
N2589 C2592 1.350 . S
N2590 S2588 1.610 . S
N2590 C2591 1.351 . S
C2591 C2585 1.428 1_655 S
C2591 N2590 1.351 . S
C2591 C2592 1.434 . S
C2592 C2583 1.429 . S
C2592 N2589 1.350 . S
C2592 C2591 1.434 . S
C2593 C2594 1.369 . S
C2593 C2595 1.419 . S
C2593 H2597 0.930 . S
C2594 C2593 1.369 . S
C2594 C2603 1.429 . S
C2595 C2593 1.419 . S
C2595 C2596 1.363 . S
C2595 H2598 0.929 . S
C2596 C2595 1.363 . S
C2596 C2602 1.428 . S
H2597 C2593 0.930 . S
H2598 C2595 0.929 . S
S2599 N2600 1.613 . S
S2599 N2601 1.610 . S
N2600 S2599 1.613 . S
N2600 C2603 1.350 . S
N2601 S2599 1.610 . S
N2601 C2602 1.351 . S
C2602 C2596 1.428 . S
C2602 N2601 1.351 . S
C2602 C2603 1.434 . S
C2603 C2594 1.429 . S
C2603 N2600 1.350 . S
C2603 C2602 1.434 . S
C2604 C2605 1.369 . S
C2604 C2606 1.419 . S
C2604 H2608 0.930 . S
C2605 C2604 1.369 . S
C2605 C2614 1.429 . S
C2606 C2604 1.419 . S
C2606 C2607 1.363 . S
C2606 H2609 0.929 . S
C2607 C2606 1.363 . S
C2607 C2613 1.428 . S
H2608 C2604 0.930 . S
H2609 C2606 0.929 . S
S2610 N2611 1.613 . S
S2610 N2612 1.610 . S
N2611 S2610 1.613 . S
N2611 C2614 1.350 . S
N2612 S2610 1.610 . S
N2612 C2613 1.351 . S
C2613 C2607 1.428 . S
C2613 N2612 1.351 . S
C2613 C2614 1.434 . S
C2614 C2605 1.429 . S
C2614 N2611 1.350 . S
C2614 C2613 1.434 . S
C2615 C2616 1.369 . S
C2615 C2617 1.419 . S
C2615 H2619 0.930 . S
C2616 C2615 1.369 . S
C2616 C2625 1.429 . S
C2617 C2615 1.419 . S
C2617 C2618 1.363 . S
C2617 H2620 0.929 . S
C2618 C2617 1.363 . S
C2618 C2624 1.428 . S
H2619 C2615 0.930 . S
H2620 C2617 0.929 . S
S2621 N2622 1.613 . S
S2621 N2623 1.610 . S
N2622 S2621 1.613 . S
N2622 C2625 1.350 . S
N2623 S2621 1.610 . S
N2623 C2624 1.351 . S
C2624 C2618 1.428 . S
C2624 N2623 1.351 . S
C2624 C2625 1.434 . S
C2625 C2616 1.429 . S
C2625 N2622 1.350 . S
C2625 C2624 1.434 . S
C2626 C2627 1.369 . S
C2626 C2628 1.419 . S
C2626 H2630 0.930 . S
C2627 C2626 1.369 . S
C2627 C2636 1.467 . S
C2628 C2626 1.419 . S
C2628 C2629 1.363 . S
C2628 H2631 0.929 . S
C2629 C2628 1.363 . S
C2629 C2635 1.428 1_655 S
H2630 C2626 0.930 . S
H2631 C2628 0.929 . S
S2632 N2633 1.613 . S
S2632 N2634 1.610 . S
N2633 S2632 1.613 . S
N2633 C2636 1.324 1_455 S
N2634 S2632 1.610 . S
N2634 C2635 1.351 . S
C2635 C2629 1.428 1_455 S
C2635 N2634 1.351 . S
C2635 C2636 1.419 1_455 S
C2636 C2627 1.467 . S
C2636 N2633 1.324 1_655 S
C2636 C2635 1.419 1_655 S
C2637 C2638 1.369 . S
C2637 C2639 1.419 . S
C2637 H2641 0.930 . S
C2638 C2637 1.369 . S
C2638 C2647 1.429 . S
C2639 C2637 1.419 . S
C2639 C2640 1.363 . S
C2639 H2642 0.929 . S
C2640 C2639 1.363 . S
C2640 C2646 1.428 . S
H2641 C2637 0.930 . S
H2642 C2639 0.929 . S
S2643 N2644 1.613 . S
S2643 N2645 1.610 . S
N2644 S2643 1.613 . S
N2644 C2647 1.350 . S
N2645 S2643 1.610 . S
N2645 C2646 1.351 . S
C2646 C2640 1.428 . S
C2646 N2645 1.351 . S
C2646 C2647 1.434 . S
C2647 C2638 1.429 . S
C2647 N2644 1.350 . S
C2647 C2646 1.434 . S
C2648 C2649 1.369 . S
C2648 C2650 1.419 . S
C2648 H2652 0.930 . S
C2649 C2648 1.369 . S
C2649 C2658 1.429 . S
C2650 C2648 1.419 . S
C2650 C2651 1.363 . S
C2650 H2653 0.929 . S
C2651 C2650 1.363 . S
C2651 C2657 1.428 . S
H2652 C2648 0.930 . S
H2653 C2650 0.929 . S
S2654 N2655 1.613 . S
S2654 N2656 1.610 . S
N2655 S2654 1.613 . S
N2655 C2658 1.350 . S
N2656 S2654 1.610 . S
N2656 C2657 1.351 . S
C2657 C2651 1.428 . S
C2657 N2656 1.351 . S
C2657 C2658 1.434 . S
C2658 C2649 1.429 . S
C2658 N2655 1.350 . S
C2658 C2657 1.434 . S
C2659 C2660 1.369 . S
C2659 C2661 1.419 . S
C2659 H2663 0.930 . S
C2660 C2659 1.369 . S
C2660 C2669 1.429 . S
C2661 C2659 1.419 . S
C2661 C2662 1.363 . S
C2661 H2664 0.929 . S
C2662 C2661 1.363 . S
C2662 C2668 1.428 . S
H2663 C2659 0.930 . S
H2664 C2661 0.929 . S
S2665 N2666 1.613 . S
S2665 N2667 1.610 . S
N2666 S2665 1.613 . S
N2666 C2669 1.350 . S
N2667 S2665 1.610 . S
N2667 C2668 1.351 . S
C2668 C2662 1.428 . S
C2668 N2667 1.351 . S
C2668 C2669 1.434 . S
C2669 C2660 1.429 . S
C2669 N2666 1.350 . S
C2669 C2668 1.434 . S
C2670 C2671 1.369 . S
C2670 C2672 1.419 . S
C2670 H2674 0.930 . S
C2671 C2670 1.369 . S
C2671 C2680 1.429 . S
C2672 C2670 1.419 . S
C2672 C2673 1.363 . S
C2672 H2675 0.929 . S
C2673 C2672 1.363 . S
C2673 C2679 1.428 . S
H2674 C2670 0.930 . S
H2675 C2672 0.929 . S
S2676 N2677 1.613 . S
S2676 N2678 1.610 . S
N2677 S2676 1.613 . S
N2677 C2680 1.350 . S
N2678 S2676 1.610 . S
N2678 C2679 1.351 . S
C2679 C2673 1.428 . S
C2679 N2678 1.351 . S
C2679 C2680 1.434 . S
C2680 C2671 1.429 . S
C2680 N2677 1.350 . S
C2680 C2679 1.434 . S
C2681 C2682 1.369 . S
C2681 C2683 1.419 . S
C2681 H2685 0.930 . S
C2682 C2681 1.369 . S
C2682 C2691 1.429 1_554 S
C2683 C2681 1.419 . S
C2683 C2684 1.363 . S
C2683 H2686 0.929 . S
C2684 C2683 1.363 . S
C2684 C2690 1.428 1_554 S
H2685 C2681 0.930 . S
H2686 C2683 0.929 . S
S2687 N2688 1.613 . S
S2687 N2689 1.610 . S
N2688 S2687 1.613 . S
N2688 C2691 1.350 . S
N2689 S2687 1.610 . S
N2689 C2690 1.351 . S
C2690 C2684 1.428 1_556 S
C2690 N2689 1.351 . S
C2690 C2691 1.434 . S
C2691 C2682 1.429 1_556 S
C2691 N2688 1.350 . S
C2691 C2690 1.434 . S
C2692 C2693 1.369 . S
C2692 C2694 1.419 . S
C2692 H2696 0.930 . S
C2693 C2692 1.369 . S
C2693 C2702 1.429 . S
C2694 C2692 1.419 . S
C2694 C2695 1.363 . S
C2694 H2697 0.929 . S
C2695 C2694 1.363 . S
C2695 C2701 1.428 . S
H2696 C2692 0.930 . S
H2697 C2694 0.929 . S
S2698 N2699 1.613 . S
S2698 N2700 1.610 . S
N2699 S2698 1.613 . S
N2699 C2702 1.350 . S
N2700 S2698 1.610 . S
N2700 C2701 1.351 . S
C2701 C2695 1.428 . S
C2701 N2700 1.351 . S
C2701 C2702 1.434 . S
C2702 C2693 1.429 . S
C2702 N2699 1.350 . S
C2702 C2701 1.434 . S
C2703 C2704 1.369 . S
C2703 C2705 1.419 . S
C2703 H2707 0.930 . S
C2704 C2703 1.369 . S
C2704 C2713 1.429 . S
C2705 C2703 1.419 . S
C2705 C2706 1.363 . S
C2705 H2708 0.929 . S
C2706 C2705 1.363 . S
C2706 C2712 1.428 1_554 S
H2707 C2703 0.930 . S
H2708 C2705 0.929 . S
S2709 N2710 1.613 . S
S2709 N2711 1.610 . S
N2710 S2709 1.613 . S
N2710 C2713 1.350 1_556 S
N2711 S2709 1.610 . S
N2711 C2712 1.351 . S
C2712 C2706 1.428 1_556 S
C2712 N2711 1.351 . S
C2712 C2713 1.434 1_556 S
C2713 C2704 1.429 . S
C2713 N2710 1.350 1_554 S
C2713 C2712 1.434 1_554 S
C2714 C2715 1.369 . S
C2714 C2716 1.419 . S
C2714 H2718 0.930 . S
C2715 C2714 1.369 . S
C2715 C2724 1.429 . S
C2716 C2714 1.419 . S
C2716 C2717 1.363 . S
C2716 H2719 0.929 . S
C2717 C2716 1.363 . S
C2717 C2723 1.428 . S
H2718 C2714 0.930 . S
H2719 C2716 0.929 . S
S2720 N2721 1.613 . S
S2720 N2722 1.610 . S
N2721 S2720 1.613 . S
N2721 C2724 1.350 . S
N2722 S2720 1.610 . S
N2722 C2723 1.351 . S
C2723 C2717 1.428 . S
C2723 N2722 1.351 . S
C2723 C2724 1.434 . S
C2724 C2715 1.429 . S
C2724 N2721 1.350 . S
C2724 C2723 1.434 . S
C2725 C2726 1.369 . S
C2725 C2727 1.419 . S
C2725 H2729 0.930 . S
C2726 C2725 1.369 . S
C2726 C2735 1.429 . S
C2727 C2725 1.419 . S
C2727 C2728 1.363 . S
C2727 H2730 0.929 . S
C2728 C2727 1.363 . S
C2728 C2734 1.428 . S
H2729 C2725 0.930 . S
H2730 C2727 0.929 . S
S2731 N2732 1.613 . S
S2731 N2733 1.610 . S
N2732 S2731 1.613 . S
N2732 C2735 1.350 . S
N2733 S2731 1.610 . S
N2733 C2734 1.351 . S
C2734 C2728 1.428 . S
C2734 N2733 1.351 . S
C2734 C2735 1.434 . S
C2735 C2726 1.429 . S
C2735 N2732 1.350 . S
C2735 C2734 1.434 . S
C1681 C111 2.053 . S
C1683 C403 1.867 . S
C1692 C64 2.234 . S
C1694 C486 2.271 . S
C1703 C77 1.674 . S
C1705 C571 1.616 . S
C1716 C651 1.211 . S
C1714 C95 1.317 . S
C1725 C25 1.443 . S
C1727 C735 1.436 . S
C1738 C828 1.032 . S
C1736 C36 1.076 . S
C1749 C906 1.348 . S
C1747 C50 1.122 . S
C1758 C11 1.764 . S
C1760 C991 1.469 . S
C1771 C402 2.038 . S
C1769 C237 2.057 1_455 S
C1780 C245 0.810 . S
C1782 C483 0.796 . S
C1793 C570 1.090 . S
C1791 C279 1.046 . S
C1804 C655 1.621 . S
C1802 C175 1.694 . S
C1813 C231 2.053 1_455 S
C1815 C739 1.907 . S
C1826 C831 1.159 . S
C1824 C251 1.148 . S
C1837 C903 0.814 . S
C1835 C273 0.840 . S
C1848 C990 1.645 . S
C1846 C181 1.841 . S
C1859 C399 1.370 . S
C1857 C165 1.415 . S
C1868 C288 1.839 . S
C1870 C1074 1.839 1_556 S
C1881 C1148 2.245 . S
C1879 C333 2.445 . S
C1892 C1243 0.635 . S
C1890 C316 0.645 . S
C1901 C123 1.357 . S
C1903 C987 1.432 . S
C1912 C137 1.473 . S
C1914 C567 1.462 . S
C1923 C330 2.100 . S
C1925 C1326 2.113 . S
C1936 C1411 0.771 . S
C1934 C302 0.772 . S
C1947 C392 1.979 . S
C1945 C63 2.125 . S
C1958 C1419 2.266 . S
C1956 C106 2.322 . S
C1967 C97 1.722 . S
C1969 C560 1.689 . S
C1978 C81 1.360 . S
C1980 C1332 1.248 . S
C1991 C744 1.486 . S
C1989 C13 1.288 . S
C2000 C55 1.035 . S
C2002 C1155 1.014 . S
C2013 C915 1.364 . S
C2011 C35 1.202 . S
C2024 C1484 1.640 . S
C2022 C21 1.848 . S
C2035 C411 2.130 . S
C2033 C147 2.255 . S
C2046 C1416 0.775 . S
C2044 C321 0.775 . S
C2055 C119 1.153 . S
C2057 C579 1.120 . S
C2066 C293 1.743 . S
C2068 C1316 1.715 . S
C2077 C153 1.992 . S
C2079 C728 2.058 . S
C2090 C1158 1.181 . S
C2088 C315 1.275 . S
C2099 C125 0.847 1_545 S
C2101 C912 0.822 . S
C2110 C287 1.941 . S
C2112 C1503 1.743 . S
C2121 C193 1.420 . S
C2123 C408 1.412 1_554 S
C2132 C176 1.897 . S
C2134 C1083 1.847 . S
C2143 C263 2.397 . S
C2145 C823 2.204 . S
C2154 C246 0.802 . S
C2156 C1232 0.833 . S
C2167 C1500 1.331 . S
C2165 C277 1.198 1_565 S
C2176 C221 1.409 . S
C2178 C576 1.454 . S
C2189 C663 2.150 . S
C2187 C260 2.165 . S
C2200 C476 0.871 . S
C2198 C204 0.882 . S
C2209 C83 2.052 . S
C2211 C1579 1.872 . S
C2222 C1410 2.269 . S
C2220 C92 2.231 . S
C2231 C105 1.677 . S
C2233 C1663 1.619 . S
C2242 C67 1.318 . S
C2244 C1323 1.211 . S
C2253 C53 1.442 . S
C2255 C1071 1.436 . S
C2266 C1164 1.030 . S
C2264 C8 1.079 . S
C2277 C1242 1.349 . S
C2275 C22 1.125 . S
C2288 C1495 1.473 . S
C2286 C39 1.762 . S
C2299 C1578 2.044 . S
C2297 C265 2.064 . S
C2308 C189 0.804 . S
C2310 C1407 0.801 . S
C2321 C1662 1.093 . S
C2319 C209 1.041 . S
C2332 C1327 1.620 . S
C2330 C217 1.694 . S
C2343 C1075 1.908 . S
C2341 C259 2.055 . S
C2352 C195 1.158 . S
C2354 C1167 1.150 . S
C2365 C1239 0.812 . S
C2363 C203 0.841 . S
C2374 C223 1.846 . S
C2376 C1494 1.648 . S
C2387 C1575 1.376 . S
C2385 C319 1.416 . S
C2396 C134 1.839 . S
C2398 C738 1.841 . S
C2409 C812 2.244 . S
C2407 C151 2.449 . S
C2420 C907 0.620 . S
C2418 C162 0.621 . S
C2431 C1491 1.431 . S
C2429 C305 1.355 . S
C2440 C291 1.472 1_554 S
C2442 C1659 1.457 . S
C2453 C654 2.116 . S
C2451 C148 2.099 . S
C2464 C487 0.760 . S
C2462 C120 0.767 . S
C2473 C91 2.128 . S
C2475 C1568 1.978 . S
C2486 C495 2.268 . S
C2484 C78 2.323 . S
C2495 C69 1.721 . S
C2497 C1652 1.689 . S
C2506 C109 1.361 . S
C2508 C660 1.250 . S
C2517 C41 1.291 . S
C2519 C1080 1.488 . S
C2530 C819 1.012 . S
C2528 C27 1.035 . S
C2539 C7 1.206 . S
C2541 C1251 1.364 . S
C2550 C49 1.848 . S
C2552 C980 1.642 . S
C2563 C1587 2.131 . S
C2561 C329 2.254 . S
C2572 C167 0.779 . S
C2574 C492 0.781 . S
C2585 C1671 1.115 . S
C2583 C301 1.163 . S
C2594 C139 1.740 . S
C2596 C644 1.720 . S
C2605 C335 1.995 . S
C2607 C1064 2.057 . S
C2618 C822 1.188 . S
C2616 C161 1.276 . S
C2627 C307 0.852 . S
C2629 C1248 0.812 1_655 S
C2640 C999 1.734 . S
C2638 C133 1.943 . S
C2651 C1584 1.408 . S
C2649 C249 1.412 . S
C2662 C747 1.843 1_665 S
C2660 C218 1.897 . S
C2671 C235 2.398 . S
C2673 C1159 2.206 . S
C2684 C896 0.823 . S
C2682 C190 0.803 . S
C2693 C207 1.197 . S
C2695 C996 1.330 . S
C2704 C179 1.409 . S
C2706 C1668 1.455 1_554 S
C2717 C1335 2.146 . S
C2715 C232 2.170 1_565 S
C2728 C1400 0.869 . S
C2726 C274 0.888 . S
