# Generated by pormake.
# Topology anh, (6,3)-cn, num edge types: 1
# Building blocks:
#     Node 0, Type 0, BuildingBlock: HISSIN_clean_sbu_0, # of connection points: 6
#     Node 1, Type 0, BuildingBlock: HISSIN_clean_sbu_0, # of connection points: 6
#     Node 2, Type 0, BuildingBlock: HISSIN_clean_sbu_0, # of connection points: 6
#     Node 3, Type 1, BuildingBlock: OLANEW_clean_sbu_2, # of connection points: 3
#     Node 4, Type 1, BuildingBlock: OLANEW_clean_sbu_2, # of connection points: 3
#     Node 5, Type 1, BuildingBlock: OLANEW_clean_sbu_2, # of connection points: 3
#     Node 6, Type 1, BuildingBlock: OLANEW_clean_sbu_2, # of connection points: 3
#     Node 7, Type 1, BuildingBlock: OLANEW_clean_sbu_2, # of connection points: 3
#     Node 8, Type 1, BuildingBlock: OLANEW_clean_sbu_2, # of connection points: 3
#     Edge 9, Type (0, 1), BuildingBlock: XIVTED_clean_linker_0, # of connection points: 2
#     Edge 10, Type (0, 1), BuildingBlock: XIVTED_clean_linker_0, # of connection points: 2
#     Edge 11, Type (0, 1), BuildingBlock: XIVTED_clean_linker_0, # of connection points: 2
#     Edge 12, Type (0, 1), BuildingBlock: XIVTED_clean_linker_0, # of connection points: 2
#     Edge 13, Type (0, 1), BuildingBlock: XIVTED_clean_linker_0, # of connection points: 2
#     Edge 14, Type (0, 1), BuildingBlock: XIVTED_clean_linker_0, # of connection points: 2
#     Edge 15, Type (0, 1), BuildingBlock: XIVTED_clean_linker_0, # of connection points: 2
#     Edge 16, Type (0, 1), BuildingBlock: XIVTED_clean_linker_0, # of connection points: 2
#     Edge 17, Type (0, 1), BuildingBlock: XIVTED_clean_linker_0, # of connection points: 2
#     Edge 18, Type (0, 1), BuildingBlock: XIVTED_clean_linker_0, # of connection points: 2
#     Edge 19, Type (0, 1), BuildingBlock: XIVTED_clean_linker_0, # of connection points: 2
#     Edge 20, Type (0, 1), BuildingBlock: XIVTED_clean_linker_0, # of connection points: 2
#     Edge 21, Type (0, 1), BuildingBlock: XIVTED_clean_linker_0, # of connection points: 2
#     Edge 22, Type (0, 1), BuildingBlock: XIVTED_clean_linker_0, # of connection points: 2
#     Edge 23, Type (0, 1), BuildingBlock: XIVTED_clean_linker_0, # of connection points: 2
#     Edge 24, Type (0, 1), BuildingBlock: XIVTED_clean_linker_0, # of connection points: 2
#     Edge 25, Type (0, 1), BuildingBlock: XIVTED_clean_linker_0, # of connection points: 2
#     Edge 26, Type (0, 1), BuildingBlock: XIVTED_clean_linker_0, # of connection points: 2
# Relax obj value: 0.220
# Max RMSD: 0.131
# Mean RMSD: 0.112
data_MOF--net-anh--node1-HISSIN_clean_sbu_0--node2-OLANEW_clean_sbu_2--edge1-XIVTED_clean_linker_0
_symmetry_space_group_name_H-M    P1
_symmetry_Int_Tables_number       1
_symmetry_cell_setting            triclinic
loop_
_symmetry_equiv_pos_as_xyz
'x, y, z'
_cell_length_a     36.790344
_cell_length_b     36.713833
_cell_length_c     50.476937
_cell_angle_alpha  92.414468
_cell_angle_beta   90.123854
_cell_angle_gamma 119.77296
loop_
_atom_site_label
_atom_site_type_symbol
_atom_site_fract_x
_atom_site_fract_y
_atom_site_fract_z
_atom_type_partial_charge
Eu0 Eu 0.98946 0.46598 0.18519 0.0
Eu1 Eu 0.04233 0.56869 0.18463 0.0
C2 C 1.01835 0.52182 0.23922 0.0
C3 C 0.90191 0.35552 0.174 0.0
C4 C 0.8779 0.37147 0.163 0.0
C5 C 0.84348 0.28488 0.16705 0.0
C6 C 0.83657 0.34427 0.15451 0.0
C7 C 0.88478 0.31216 0.17566 0.0
C8 C 0.81878 0.30073 0.15676 0.0
C9 C 0.94428 0.38437 0.18439 0.0
O10 O 0.09335 0.55107 0.18559 0.0
O11 O 0.05509 0.47992 0.17562 0.0
C12 C 0.0912 0.51502 0.17876 0.0
O13 O 0.98156 0.4831 0.14414 0.0
O14 O 0.09028 0.62938 0.20182 0.0
O15 O 0.05418 0.62656 0.16699 0.0
O16 O 0.04409 0.54404 0.14351 0.0
C17 C 1.01189 0.51252 0.13102 0.0
O18 O 0.93939 0.4847 0.18901 0.0
O19 O 0.97551 0.55286 0.17622 0.0
O20 O 1.01921 0.55241 0.2262 0.0
O21 O 0.9719 0.40459 0.16661 0.0
O22 O 0.94658 0.40885 0.2046 0.0
O23 O 1.01714 0.48934 0.22648 0.0
C24 C 0.12561 0.67611 0.16866 0.0
C25 C 0.1415 0.65721 0.15101 0.0
C26 C 0.18634 0.74397 0.16202 0.0
C27 C 0.1799 0.68149 0.13917 0.0
C28 C 0.14785 0.71961 0.17383 0.0
C29 C 0.20309 0.72506 0.14488 0.0
C30 C 0.08682 0.64998 0.18241 0.0
C31 C 0.94019 0.51903 0.18154 0.0
H32 H 0.89093 0.405 0.16143 0.0
H33 H 0.83041 0.25151 0.16938 0.0
H34 H 0.81839 0.35731 0.14649 0.0
H35 H 0.90302 0.29949 0.18411 0.0
H36 H 0.12457 0.62352 0.14683 0.0
H37 H 0.20376 0.77734 0.16721 0.0
H38 H 0.19177 0.66607 0.12593 0.0
H39 H 0.136 0.73455 0.18749 0.0
Eu40 Eu 0.5689 0.01997 0.51434 0.0
Eu41 Eu 0.51381 0.06764 0.51578 0.0
C42 C 0.54534 0.0481 0.56896 0.0
C43 C 0.5966 0.93699 0.52791 0.0
C44 C 0.55429 0.90677 0.53073 0.0
C45 C 0.61706 0.8914 0.54879 0.0
C46 C 0.54343 0.8689 0.54225 0.0
C47 C 0.62789 0.92915 0.53704 0.0
C48 C 0.57471 0.86089 0.55147 0.0
C49 C 0.60803 0.97738 0.51661 0.0
O50 O 0.5788 0.11875 0.50584 0.0
O51 O 0.61874 0.08903 0.5168 0.0
C52 C 0.61548 0.12151 0.50982 0.0
O53 O 0.57172 0.04241 0.47337 0.0
O54 O 0.47885 0.09323 0.53673 0.0
O55 O 0.48459 0.09693 0.49419 0.0
O56 O 0.50828 0.03929 0.47443 0.0
C57 C 0.5395 0.04072 0.46109 0.0
O58 O 0.50191 0.96865 0.5052 0.0
O59 O 0.4658 0.99994 0.52237 0.0
O60 O 0.54367 0.07801 0.55668 0.0
O61 O 0.58552 0.97564 0.49605 0.0
O62 O 0.61451 1.0077 0.5338 0.0
O63 O 0.54374 1.01621 0.5553 0.0
C64 C 0.49159 0.15585 0.51768 0.0
C65 C 0.53187 0.18164 0.52879 0.0
C66 C 0.49086 0.21763 0.50308 0.0
C67 C 0.55175 0.22499 0.52675 0.0
C68 C 0.4709 0.17403 0.50514 0.0
C69 C 0.5319 0.2434 0.51333 0.0
C70 C 0.47444 0.11027 0.51566 0.0
C71 C 0.46677 0.96642 0.51303 0.0
H72 H 0.52964 0.91256 0.52417 0.0
H73 H 0.6418 0.88584 0.55548 0.0
H74 H 0.5106 0.84615 0.5443 0.0
H75 H 0.66067 0.95228 0.53519 0.0
H76 H 0.54863 0.16814 0.53822 0.0
H77 H 0.47489 0.23095 0.49254 0.0
H78 H 0.58303 0.24406 0.53531 0.0
H79 H 0.44007 0.15443 0.49605 0.0
Eu80 Eu 0.50403 0.52583 0.84115 0.0
Eu81 Eu 0.6042 0.58109 0.85292 0.0
C82 C 0.5404 0.54785 0.90124 0.0
C83 C 0.38844 0.49043 0.83121 0.0
C84 C 0.39052 0.52295 0.84791 0.0
C85 C 0.32023 0.47506 0.81458 0.0
C86 C 0.35742 0.53133 0.84805 0.0
C87 C 0.35322 0.46657 0.81459 0.0
C88 C 0.32195 0.50755 0.83131 0.0
C89 C 0.42385 0.48288 0.82962 0.0
O90 O 0.59186 0.51719 0.83585 0.0
O91 O 0.52457 0.47882 0.84938 0.0
C92 C 0.55921 0.48074 0.84102 0.0
O93 O 0.53565 0.52573 0.80257 0.0
O94 O 0.66223 0.58807 0.86959 0.0
O95 O 0.66386 0.63803 0.84753 0.0
O96 O 0.59268 0.58992 0.81091 0.0
C97 C 0.56821 0.55939 0.79414 0.0
O98 O 0.52041 0.59343 0.83722 0.0
O99 O 0.58062 0.62641 0.86297 0.0
O100 O 0.57676 0.55554 0.89209 0.0
O101 O 0.45211 0.5052 0.81275 0.0
O102 O 0.4403 0.48084 0.85203 0.0
O103 O 0.51014 0.54387 0.88529 0.0
C104 C 0.71659 0.62102 0.84005 0.0
C105 C 0.70385 0.60081 0.81476 0.0
C106 C 0.78515 0.62848 0.83391 0.0
C107 C 0.73128 0.59351 0.7994 0.0
C108 C 0.75764 0.63576 0.84928 0.0
C109 C 0.77182 0.60613 0.80915 0.0
C110 C 0.68567 0.6226 0.85758 0.0
C111 C 0.54983 0.62722 0.85013 0.0
H112 H 0.41783 0.54199 0.86066 0.0
H113 H 0.29372 0.45662 0.80114 0.0
H114 H 0.3595 0.5562 0.86142 0.0
H115 H 0.35151 0.44176 0.80131 0.0
H116 H 0.67209 0.58908 0.80737 0.0
H117 H 0.81596 0.63802 0.84218 0.0
H118 H 0.72022 0.57649 0.78037 0.0
H119 H 0.76779 0.65115 0.86882 0.0
O120 O 0.48799 0.02282 0.25064 0.0
Cd121 Cd 0.46759 1.01592 0.20345 0.0
O122 O 0.54277 1.01333 0.2493 0.0
Cd123 Cd 0.53301 0.99441 0.20743 0.0
O124 O 0.49549 0.95823 0.1727 0.0
C125 C 0.49295 0.92372 0.16491 0.0
O126 O 0.51647 0.91131 0.17676 0.0
C127 C 0.51806 0.02166 0.26241 0.0
C128 C 0.52984 0.08074 0.1756 0.0
O129 O 0.50321 0.08665 0.18862 0.0
O130 O 0.52615 0.04422 0.17524 0.0
O131 O 0.72091 0.61479 0.60825 0.0
Cd132 Cd 0.74607 0.62781 0.56296 0.0
O133 O 0.65824 0.57359 0.5907 0.0
Cd134 Cd 0.59024 0.54497 0.59228 0.0
O135 O 0.55181 0.57464 0.59168 0.0
C136 C 0.55903 0.60171 0.61046 0.0
O137 O 0.58407 0.60528 0.63023 0.0
C138 C 0.68186 0.59068 0.61116 0.0
C139 C 0.70358 0.55169 0.53418 0.0
O140 O 0.73988 0.56417 0.54468 0.0
O141 O 0.68817 0.57621 0.53626 0.0
O142 O 1.00818 0.5454 0.92174 0.0
Cd143 Cd 1.01096 0.55839 0.87453 0.0
O144 O 0.97919 0.47633 0.91878 0.0
Cd145 Cd 0.96959 0.47451 0.87607 0.0
O146 O 0.95511 0.49562 0.83998 0.0
C147 C 0.92806 0.47207 0.8223 0.0
O148 O 0.9085 0.43115 0.8244 0.0
C149 C 0.99523 0.51066 0.93277 0.0
C150 C 0.07821 0.55324 0.85361 0.0
O151 O 0.04124 0.52137 0.85286 0.0
O152 O 0.08335 0.58824 0.86354 0.0
O153 O 0.08089 0.58122 0.44506 0.0
Cd154 Cd 0.11917 0.61116 0.48838 0.0
O155 O 0.02635 0.52049 0.45507 0.0
Cd156 Cd 0.96588 0.45888 0.45221 0.0
O157 O 0.90895 0.39716 0.4606 0.0
C158 C 0.87356 0.39405 0.46572 0.0
O159 O 0.87021 0.42804 0.46546 0.0
C160 C 0.04747 0.54717 0.43784 0.0
C161 C 0.19462 0.69022 0.48972 0.0
O162 O 0.19484 0.65574 0.48497 0.0
O163 O 0.1589 0.68771 0.49297 0.0
O164 O 0.55973 1.00889 0.77561 0.0
Cd165 Cd 0.55649 0.97962 0.81994 0.0
O166 O 0.56234 0.06954 0.78522 0.0
Cd167 Cd 0.56744 0.13289 0.78243 0.0
O168 O 0.57409 0.19697 0.78847 0.0
C169 C 0.54803 0.20211 0.80252 0.0
O170 O 0.51711 0.16904 0.81289 0.0
C171 C 0.56151 0.04257 0.76793 0.0
C172 C 0.55663 0.90232 0.82337 0.0
O173 O 0.52258 0.90304 0.81932 0.0
O174 O 0.59079 0.93774 0.82485 0.0
O175 O 0.56142 0.52518 0.10755 0.0
Cd176 Cd 0.5943 0.52811 0.15158 0.0
O177 O 0.50467 0.52967 0.1159 0.0
Cd178 Cd 0.44462 0.53166 0.11308 0.0
O179 O 0.38727 0.53652 0.12248 0.0
C180 C 0.35295 0.50464 0.12881 0.0
O181 O 0.3512 0.46804 0.12915 0.0
C182 C 0.5291 0.52633 0.09916 0.0
C183 C 0.67054 0.52547 0.15351 0.0
O184 O 0.63479 0.49177 0.15352 0.0
O185 O 0.67053 0.56019 0.15167 0.0
H186 H 0.10099 0.44607 0.16996 0.0
H187 H 0.34507 0.57586 0.13488 0.0
H188 H 0.17162 0.58159 0.17375 0.0
H189 H 0.27457 0.44119 0.13992 0.0
H190 H 0.28246 0.57944 0.14791 0.0
H191 H 0.16448 0.4445 0.15812 0.0
C192 C 0.12986 0.47559 0.16845 0.0
C193 C 0.13064 0.51402 0.17301 0.0
C194 C 0.28076 0.54913 0.14616 0.0
C195 C 0.20417 0.51242 0.15907 0.0
C196 C 0.31652 0.54705 0.13865 0.0
C197 C 0.31535 0.50814 0.13624 0.0
C198 C 0.24334 0.51204 0.15121 0.0
C199 C 0.27729 0.47194 0.14149 0.0
C200 C 0.16627 0.47466 0.16163 0.0
C201 C 0.16934 0.55116 0.17063 0.0
N202 N 0.24306 0.47479 0.14862 0.0
N203 N 0.20438 0.54943 0.16374 0.0
H204 H 0.62205 0.1979 0.50105 0.0
H205 H 0.86868 0.3172 0.47233 0.0
H206 H 0.69749 0.13846 0.50702 0.0
H207 H 0.79331 0.37724 0.47458 0.0
H208 H 0.80688 0.25119 0.48402 0.0
H209 H 0.68462 0.2633 0.49073 0.0
C210 C 0.65177 0.1985 0.50029 0.0
C211 C 0.65419 0.16226 0.50495 0.0
C212 C 0.80392 0.27884 0.48196 0.0
C213 C 0.72663 0.23775 0.49282 0.0
C214 C 0.83923 0.31659 0.47521 0.0
C215 C 0.83645 0.3531 0.47241 0.0
C216 C 0.76531 0.27735 0.48584 0.0
C217 C 0.79725 0.35014 0.47649 0.0
C218 C 0.68764 0.23605 0.49436 0.0
C219 C 0.69391 0.16545 0.50369 0.0
N220 N 0.76347 0.31315 0.48291 0.0
N221 N 0.7284 0.20234 0.49764 0.0
H222 H 0.48623 0.63891 0.8318 0.0
H223 H 0.62235 0.89085 0.8378 0.0
H224 H 0.61285 0.70798 0.8637 0.0
H225 H 0.49011 0.82154 0.81808 0.0
H226 H 0.62048 0.82451 0.84564 0.0
H227 H 0.4878 0.70532 0.82551 0.0
C228 C 0.51435 0.66801 0.83766 0.0
C229 C 0.54948 0.66759 0.84835 0.0
C230 C 0.59186 0.82378 0.8396 0.0
C231 C 0.55161 0.74433 0.84084 0.0
C232 C 0.59292 0.86172 0.83499 0.0
C233 C 0.55633 0.862 0.8272 0.0
C234 C 0.55397 0.78554 0.83626 0.0
C235 C 0.51914 0.82306 0.82403 0.0
C236 C 0.51521 0.70604 0.83401 0.0
C237 C 0.58493 0.70656 0.85553 0.0
N238 N 0.51896 0.78658 0.8285 0.0
N239 N 0.58517 0.74322 0.85149 0.0
H240 H 0.85922 0.45323 0.18487 0.0
H241 H 0.75141 0.59135 0.15262 0.0
H242 H 0.92877 0.58527 0.16979 0.0
H243 H 0.68122 0.45756 0.16174 0.0
H244 H 0.81644 0.5897 0.1595 0.0
H245 H 0.79387 0.45426 0.17753 0.0
C246 C 0.86088 0.48252 0.18015 0.0
C247 C 0.89988 0.51926 0.17804 0.0
C248 C 0.78685 0.56064 0.15994 0.0
C249 C 0.82468 0.52057 0.16947 0.0
C250 C 0.74958 0.56155 0.15596 0.0
C251 C 0.71053 0.52453 0.15654 0.0
C252 C 0.78539 0.52245 0.1647 0.0
C253 C 0.71045 0.48691 0.16104 0.0
C254 C 0.82343 0.48303 0.17586 0.0
C255 C 0.89968 0.55612 0.17168 0.0
N256 N 0.74715 0.48687 0.165 0.0
N257 N 0.86286 0.55581 0.16767 0.0
H258 H 0.45619 0.88898 0.49722 0.0
H259 H 0.20485 0.76841 0.50249 0.0
H260 H 0.38604 0.94944 0.52202 0.0
H261 H 0.27548 0.70629 0.48326 0.0
H262 H 0.27059 0.83519 0.50845 0.0
H263 H 0.39051 0.82233 0.49117 0.0
C264 C 0.42705 0.88835 0.50147 0.0
C265 C 0.42694 0.9252 0.51018 0.0
C266 C 0.27176 0.80699 0.50289 0.0
C267 C 0.35108 0.84844 0.50308 0.0
C268 C 0.23414 0.76876 0.49939 0.0
C269 C 0.23442 0.73145 0.49232 0.0
C270 C 0.31025 0.80822 0.49926 0.0
C271 C 0.27355 0.7341 0.48869 0.0
C272 C 0.38944 0.85013 0.49798 0.0
C273 C 0.38792 0.92204 0.51533 0.0
N274 N 0.30973 0.77168 0.49219 0.0
N275 N 0.35173 0.88452 0.51165 0.0
H276 H 0.49979 0.40183 0.85398 0.0
H277 H 0.61012 0.28006 0.7871 0.0
H278 H 0.61953 0.4673 0.81672 0.0
H279 H 0.49499 0.22106 0.82986 0.0
H280 H 0.61492 0.34868 0.79672 0.0
H281 H 0.4985 0.3357 0.84457 0.0
C282 C 0.526 0.40245 0.84385 0.0
C283 C 0.55984 0.44055 0.83616 0.0
C284 C 0.58866 0.32066 0.80398 0.0
C285 C 0.5584 0.36385 0.82507 0.0
C286 C 0.58585 0.28142 0.79846 0.0
C287 C 0.55206 0.24445 0.80764 0.0
C288 C 0.55741 0.32305 0.81874 0.0
C289 C 0.52165 0.24841 0.82231 0.0
C290 C 0.52521 0.36441 0.83845 0.0
C291 C 0.59281 0.43885 0.82311 0.0
N292 N 0.52505 0.28671 0.82732 0.0
N293 N 0.59121 0.40119 0.8179 0.0
H294 H 0.51574 0.78154 0.5337 0.0
H295 H 0.58125 0.6717 0.64271 0.0
H296 H 0.60769 0.84868 0.59661 0.0
H297 H 0.51295 0.60816 0.56998 0.0
H298 H 0.57661 0.73336 0.63168 0.0
H299 H 0.50121 0.7151 0.55211 0.0
C300 C 0.53247 0.78227 0.55158 0.0
C301 C 0.56334 0.8206 0.56349 0.0
C302 C 0.56213 0.7057 0.61832 0.0
C303 C 0.5469 0.7449 0.58459 0.0
C304 C 0.56455 0.67036 0.62466 0.0
C305 C 0.5482 0.635 0.60696 0.0
C306 C 0.54315 0.70564 0.59416 0.0
C307 C 0.52656 0.63498 0.58401 0.0
C308 C 0.52426 0.74439 0.56201 0.0
C309 C 0.58422 0.81978 0.58655 0.0
N310 N 0.52516 0.67003 0.57808 0.0
N311 N 0.57578 0.78253 0.59626 0.0
H312 H 0.85675 0.64895 0.80168 0.0
H313 H 0.85428 0.43401 0.79311 0.0
H314 H 0.74619 0.52791 0.78659 0.0
H315 H 0.9644 0.55459 0.81049 0.0
H316 H 0.81913 0.46973 0.77551 0.0
H317 H 0.90005 0.61752 0.79034 0.0
C318 C 0.8416 0.61596 0.79544 0.0
C319 C 0.79787 0.5908 0.79576 0.0
C320 C 0.85136 0.48837 0.78256 0.0
C321 C 0.84707 0.55451 0.78304 0.0
C322 C 0.87152 0.46793 0.79253 0.0
C323 C 0.91173 0.49146 0.8042 0.0
C324 C 0.87153 0.53251 0.78457 0.0
C325 C 0.93282 0.53529 0.80246 0.0
C326 C 0.86629 0.59802 0.78887 0.0
C327 C 0.7798 0.54848 0.78685 0.0
N328 N 0.9121 0.55447 0.7935 0.0
N329 N 0.80449 0.53145 0.78146 0.0
H330 H 0.26385 0.70283 0.14158 0.0
H331 H 0.44026 0.93997 0.13587 0.0
H332 H 0.24097 0.80467 0.12644 0.0
H333 H 0.46253 0.8393 0.15559 0.0
H334 H 0.37045 0.88814 0.11904 0.0
H335 H 0.33796 0.74887 0.13373 0.0
C336 C 0.2742 0.73459 0.13596 0.0
C337 C 0.24627 0.7502 0.13523 0.0
C338 C 0.39089 0.87735 0.12652 0.0
C339 C 0.33135 0.80335 0.12677 0.0
C340 C 0.43083 0.90695 0.1361 0.0
C341 C 0.4567 0.89386 0.14794 0.0
C342 C 0.37664 0.83444 0.1291 0.0
C343 C 0.44325 0.85076 0.14716 0.0
C344 C 0.31665 0.76097 0.13162 0.0
C345 C 0.26162 0.7917 0.12796 0.0
N346 N 0.40369 0.82251 0.13852 0.0
N347 N 0.30325 0.81706 0.12447 0.0
H348 H 0.50243 0.29898 0.51809 0.0
H349 H 0.73091 0.49736 0.519 0.0
H350 H 0.61343 0.29202 0.49973 0.0
H351 H 0.61914 0.50756 0.52363 0.0
H352 H 0.68764 0.42254 0.50735 0.0
H353 H 0.54325 0.37548 0.51588 0.0
C354 C 0.53523 0.31349 0.51326 0.0
C355 C 0.55478 0.28922 0.50962 0.0
C356 C 0.67253 0.44119 0.51052 0.0
C357 C 0.60165 0.37652 0.50727 0.0
C358 C 0.69727 0.48393 0.51717 0.0
C359 C 0.67853 0.50853 0.52259 0.0
C360 C 0.62869 0.42276 0.50973 0.0
C361 C 0.63483 0.48963 0.51971 0.0
C362 C 0.55854 0.35714 0.51205 0.0
C363 C 0.59737 0.30964 0.50343 0.0
N364 N 0.61128 0.44765 0.51391 0.0
N365 N 0.61946 0.3521 0.50275 0.0
H366 H 0.32549 0.58416 0.83508 0.0
H367 H 0.07649 0.48286 0.83238 0.0
H368 H 0.23792 0.45084 0.82778 0.0
H369 H 0.16162 0.61287 0.85577 0.0
H370 H 0.13622 0.47307 0.82354 0.0
H371 H 0.26652 0.59727 0.83672 0.0
C372 C 0.29392 0.55764 0.83388 0.0
C373 C 0.28668 0.51629 0.83144 0.0
C374 C 0.14188 0.50383 0.83044 0.0
C375 C 0.2192 0.53117 0.83283 0.0
C376 C 0.10778 0.5095 0.83541 0.0
C377 C 0.11411 0.54864 0.8451 0.0
C378 C 0.18266 0.53752 0.83521 0.0
C379 C 0.15535 0.58209 0.84848 0.0
C380 C 0.26031 0.56519 0.83463 0.0
C381 C 0.24509 0.48324 0.82937 0.0
N382 N 0.18814 0.57568 0.84373 0.0
N383 N 0.21297 0.4914 0.8302 0.0
H384 H 0.78226 0.22383 0.13004 0.0
H385 H 0.55588 0.16491 0.18035 0.0
H386 H 0.7529 0.31232 0.16942 0.0
H387 H 0.5873 0.07604 0.14378 0.0
H388 H 0.62374 0.22228 0.16761 0.0
H389 H 0.70751 0.17262 0.1263 0.0
C390 C 0.76 0.23259 0.13763 0.0
C391 C 0.77377 0.27205 0.15046 0.0
C392 C 0.61547 0.19025 0.16199 0.0
C393 C 0.68829 0.21371 0.14637 0.0
C394 C 0.57669 0.1575 0.16919 0.0
C395 C 0.56637 0.11567 0.16361 0.0
C396 C 0.64402 0.18093 0.14923 0.0
C397 C 0.59433 0.10785 0.14893 0.0
C398 C 0.71734 0.20346 0.13541 0.0
C399 C 0.74363 0.2822 0.15942 0.0
N400 N 0.63214 0.14015 0.1426 0.0
N401 N 0.7023 0.25294 0.15759 0.0
H402 H 0.95664 0.44737 0.09756 0.0
H403 H 0.03981 0.57793 0.96747 0.0
H404 H 0.06203 0.57358 0.09782 0.0
H405 H 0.95883 0.44327 0.96452 0.0
H406 H 0.04452 0.57769 0.01564 0.0
H407 H 0.9532 0.44596 0.04906 0.0
C408 C 0.97905 0.47476 0.08744 0.0
C409 C 1.00963 0.51068 0.10176 0.0
C410 C 0.02583 0.54816 0.00446 0.0
C411 C 1.00571 0.50929 0.0464 0.0
C412 C 1.023 0.54827 0.97695 0.0
C413 C 0.99882 0.51055 0.96193 0.0
C414 C 1.00399 0.51012 0.01715 0.0
C415 C 0.97788 0.47306 0.97532 0.0
C416 C 0.97714 0.47386 0.05978 0.0
C417 C 0.03796 0.54519 0.08761 0.0
N418 N 0.98076 0.47382 1.00222 0.0
N419 N 0.03516 0.54371 0.06073 0.0
H420 H 0.59597 0.03868 0.42661 0.0
H421 H 0.46889 0.03622 0.29699 0.0
H422 H 0.47981 0.04104 0.42875 0.0
H423 H 0.57852 0.02194 0.29449 0.0
H424 H 0.47529 0.04301 0.34529 0.0
H425 H 0.59263 0.03696 0.37821 0.0
C426 C 0.56976 0.03885 0.41693 0.0
C427 C 0.53802 0.03983 0.43179 0.0
C428 C 0.49802 0.0385 0.33418 0.0
C429 C 0.5341 0.03799 0.37636 0.0
C430 C 0.49445 0.03472 0.30656 0.0
C431 C 0.5231 0.02829 0.29161 0.0
C432 C 0.5305 0.03591 0.34701 0.0
C433 C 0.55562 0.0267 0.30518 0.0
C434 C 0.56789 0.03788 0.38928 0.0
C435 C 0.50489 0.04012 0.41813 0.0
N436 N 0.55835 0.03036 0.33211 0.0
N437 N 0.5038 0.03917 0.3912 0.0
H438 H 0.53525 0.49896 0.75293 0.0
H439 H 0.70999 0.6481 0.65286 0.0
H440 H 0.62944 0.62811 0.77136 0.0
H441 H 0.61366 0.52176 0.63013 0.0
H442 H 0.67971 0.64036 0.6966 0.0
H443 H 0.56134 0.50594 0.70754 0.0
C444 C 0.56106 0.52879 0.74741 0.0
C445 C 0.58026 0.5629 0.76602 0.0
C446 C 0.66492 0.61431 0.68205 0.0
C447 C 0.61037 0.57099 0.71446 0.0
C448 C 0.68237 0.61872 0.65711 0.0
C449 C 0.66388 0.58579 0.63775 0.0
C450 C 0.62892 0.57648 0.68785 0.0
C451 C 0.62818 0.54832 0.6443 0.0
C452 C 0.57602 0.53272 0.72157 0.0
C453 C 0.61371 0.60081 0.75782 0.0
N454 N 0.61182 0.54463 0.66885 0.0
N455 N 0.62772 0.60371 0.73278 0.0
H456 H 0.55906 0.99624 0.59933 0.0
H457 H 0.54291 0.09551 0.74013 0.0
H458 H 0.54036 0.10339 0.60582 0.0
H459 H 0.58118 1.00233 0.72907 0.0
H460 H 0.54083 0.09973 0.69174 0.0
H461 H 0.56512 0.99797 0.64733 0.0
C462 C 0.55615 0.0202 0.61084 0.0
C463 C 0.54908 0.04967 0.59838 0.0
C464 C 0.55002 0.07868 0.70001 0.0
C465 C 0.55609 0.05185 0.65393 0.0
C466 C 0.55156 0.0765 0.7277 0.0
C467 C 0.56251 0.04872 0.73889 0.0
C468 C 0.55922 0.05268 0.68345 0.0
C469 C 0.57235 0.0241 0.72153 0.0
C470 C 0.55978 0.02126 0.63838 0.0
C471 C 0.54583 0.08005 0.61455 0.0
N472 N 0.57032 0.02657 0.69487 0.0
N473 N 0.54919 0.08027 0.64152 0.0
H474 H 0.58646 0.53151 0.93574 0.0
H475 H 0.48239 0.55227 0.06969 0.0
H476 H 0.47999 0.55083 0.933 0.0
H477 H 0.56054 0.49564 0.06163 0.0
H478 H 0.48034 0.55485 0.0209 0.0
H479 H 0.57837 0.52293 0.98299 0.0
C480 C 0.56128 0.53406 0.94508 0.0
C481 C 0.53398 0.5421 0.93022 0.0
C482 C 0.49745 0.54145 0.02995 0.0
C483 C 0.52439 0.53213 0.98511 0.0
C484 C 0.49847 0.53977 0.05777 0.0
C485 C 0.52197 0.52403 0.06991 0.0
C486 C 0.5203 0.52752 0.01437 0.0
C487 C 0.5425 0.50865 0.05338 0.0
C488 C 0.55651 0.52888 0.97221 0.0
C489 C 0.50173 0.54461 0.94367 0.0
N490 N 0.54143 0.51111 0.02671 0.0
N491 N 0.49798 0.53997 0.97046 0.0
H492 H 0.03044 0.58818 0.27226 0.0
H493 H 1.00597 0.47222 0.40787 0.0
H494 H 1.0063 0.46058 0.27359 0.0
H495 H 0.06186 0.60633 0.40261 0.0
H496 H 0.99483 0.46403 0.35932 0.0
H497 H 0.03159 0.59206 0.32063 0.0
C498 C 0.02528 0.56089 0.28269 0.0
C499 C 1.01857 0.5241 0.26872 0.0
C500 C 1.00916 0.49516 0.36891 0.0
C501 C 1.01961 0.5283 0.32443 0.0
C502 C 1.01512 0.49979 0.39661 0.0
C503 C 0.03489 0.54002 0.4093 0.0
C504 C 1.0226 0.53098 0.35397 0.0
C505 C 0.04674 0.57474 0.39367 0.0
C506 C 0.02597 0.56315 0.31038 0.0
C507 C 1.01194 0.48973 0.28348 0.0
N508 N 0.04047 0.56943 0.36694 0.0
N509 N 1.01264 0.49266 0.31052 0.0
loop_
_geom_bond_atom_site_label_1
_geom_bond_atom_site_label_2
_geom_bond_distance
_geom_bond_site_symmetry_2
_ccdc_geom_bond_type
Eu0 C9 2.828 . S
Eu0 O11 2.392 1_655 S
Eu0 O13 2.418 . S
Eu0 O18 2.373 . S
Eu0 O21 2.488 . S
Eu0 O22 2.471 . S
Eu0 O23 2.349 . S
Eu1 O10 2.373 . S
Eu1 O14 2.488 . S
Eu1 O15 2.471 . S
Eu1 O16 2.349 . S
Eu1 O19 2.392 1_455 S
Eu1 O20 2.418 . S
Eu1 C30 2.828 . S
C2 O20 1.244 . S
C2 O23 1.265 1_455 S
C3 C4 1.379 . S
C3 C7 1.373 . S
C3 C9 1.505 . S
C4 C3 1.379 . S
C4 C6 1.369 . S
C4 H32 0.930 . S
C5 C7 1.383 . S
C5 C8 1.382 . S
C5 H33 0.930 . S
C6 C4 1.369 . S
C6 C8 1.392 . S
C6 H34 0.930 . S
C7 C3 1.373 . S
C7 C5 1.383 . S
C7 H35 0.931 . S
C8 C5 1.382 . S
C8 C6 1.392 . S
C9 Eu0 2.828 . S
C9 C3 1.505 . S
C9 O21 1.249 . S
C9 O22 1.244 . S
O10 Eu1 2.373 . S
O10 C12 1.258 . S
O11 Eu0 2.392 1_455 S
O11 C12 1.242 . S
C12 O10 1.258 . S
C12 O11 1.242 . S
O13 Eu0 2.418 . S
O13 C17 1.244 . S
O14 Eu1 2.488 . S
O14 C30 1.249 . S
O15 Eu1 2.471 . S
O15 C30 1.244 . S
O16 Eu1 2.349 . S
O16 C17 1.265 1_455 S
C17 O13 1.244 . S
C17 O16 1.265 1_655 S
O18 Eu0 2.373 . S
O18 C31 1.258 . S
O19 Eu1 2.392 1_655 S
O19 C31 1.242 . S
O20 Eu1 2.418 . S
O20 C2 1.244 . S
O21 Eu0 2.488 . S
O21 C9 1.249 . S
O22 Eu0 2.471 . S
O22 C9 1.244 . S
O23 Eu0 2.349 . S
O23 C2 1.265 1_655 S
C24 C25 1.379 . S
C24 C28 1.373 . S
C24 C30 1.505 . S
C25 C24 1.379 . S
C25 C27 1.369 . S
C25 H36 0.930 . S
C26 C28 1.383 . S
C26 C29 1.382 . S
C26 H37 0.930 . S
C27 C25 1.369 . S
C27 C29 1.392 . S
C27 H38 0.930 . S
C28 C24 1.373 . S
C28 C26 1.383 . S
C28 H39 0.931 . S
C29 C26 1.382 . S
C29 C27 1.392 . S
C30 Eu1 2.828 . S
C30 O14 1.249 . S
C30 O15 1.244 . S
C30 C24 1.505 . S
C31 O18 1.258 . S
C31 O19 1.242 . S
H32 C4 0.930 . S
H33 C5 0.930 . S
H34 C6 0.930 . S
H35 C7 0.931 . S
H36 C25 0.930 . S
H37 C26 0.930 . S
H38 C27 0.930 . S
H39 C28 0.931 . S
Eu40 C49 2.828 . S
Eu40 O51 2.392 1_565 S
Eu40 O53 2.418 . S
Eu40 O58 2.373 . S
Eu40 O61 2.488 . S
Eu40 O62 2.471 . S
Eu40 O63 2.355 . S
Eu41 O50 2.373 . S
Eu41 O54 2.488 . S
Eu41 O55 2.471 . S
Eu41 O56 2.349 . S
Eu41 O59 2.392 1_545 S
Eu41 O60 2.418 . S
Eu41 C70 2.828 . S
C42 O60 1.244 . S
C42 O63 1.259 1_545 S
C43 C44 1.379 . S
C43 C47 1.373 . S
C43 C49 1.505 . S
C44 C43 1.379 . S
C44 C46 1.369 . S
C44 H72 0.930 . S
C45 C47 1.383 . S
C45 C48 1.382 . S
C45 H73 0.930 . S
C46 C44 1.369 . S
C46 C48 1.392 . S
C46 H74 0.930 . S
C47 C43 1.373 . S
C47 C45 1.383 . S
C47 H75 0.931 . S
C48 C45 1.382 . S
C48 C46 1.392 . S
C49 Eu40 2.828 . S
C49 C43 1.505 . S
C49 O61 1.249 . S
C49 O62 1.244 . S
O50 Eu41 2.373 . S
O50 C52 1.258 . S
O51 Eu40 2.392 1_545 S
O51 C52 1.242 . S
C52 O50 1.258 . S
C52 O51 1.242 . S
O53 Eu40 2.418 . S
O53 C57 1.244 1_565 S
O54 Eu41 2.488 . S
O54 C70 1.249 . S
O55 Eu41 2.471 . S
O55 C70 1.244 . S
O56 Eu41 2.349 . S
O56 C57 1.265 . S
C57 O53 1.244 1_545 S
C57 O56 1.265 . S
O58 Eu40 2.373 . S
O58 C71 1.258 . S
O59 Eu41 2.392 1_565 S
O59 C71 1.242 . S
O60 Eu41 2.418 . S
O60 C42 1.244 . S
O61 Eu40 2.488 . S
O61 C49 1.249 . S
O62 Eu40 2.471 . S
O62 C49 1.244 . S
O63 Eu40 2.355 . S
O63 C42 1.259 1_565 S
C64 C65 1.379 . S
C64 C68 1.373 . S
C64 C70 1.505 . S
C65 C64 1.379 . S
C65 C67 1.369 . S
C65 H76 0.930 . S
C66 C68 1.383 . S
C66 C69 1.382 . S
C66 H77 0.930 . S
C67 C65 1.369 . S
C67 C69 1.392 . S
C67 H78 0.930 . S
C68 C64 1.373 . S
C68 C66 1.383 . S
C68 H79 0.931 . S
C69 C66 1.382 . S
C69 C67 1.392 . S
C70 Eu41 2.828 . S
C70 O54 1.249 . S
C70 O55 1.244 . S
C70 C64 1.505 . S
C71 O58 1.258 . S
C71 O59 1.242 . S
H72 C44 0.930 . S
H73 C45 0.930 . S
H74 C46 0.930 . S
H75 C47 0.931 . S
H76 C65 0.930 . S
H77 C66 0.930 . S
H78 C67 0.930 . S
H79 C68 0.931 . S
Eu80 C89 2.828 . S
Eu80 O91 2.392 . S
Eu80 O93 2.418 . S
Eu80 O98 2.373 . S
Eu80 O101 2.488 . S
Eu80 O102 2.471 . S
Eu80 O103 2.349 . S
Eu81 O90 2.373 . S
Eu81 O94 2.488 . S
Eu81 O95 2.471 . S
Eu81 O96 2.349 . S
Eu81 O99 2.392 . S
Eu81 O100 2.418 . S
Eu81 C110 2.828 . S
C82 O100 1.244 . S
C82 O103 1.265 . S
C83 C84 1.379 . S
C83 C87 1.373 . S
C83 C89 1.505 . S
C84 C83 1.379 . S
C84 C86 1.369 . S
C84 H112 0.930 . S
C85 C87 1.383 . S
C85 C88 1.382 . S
C85 H113 0.930 . S
C86 C84 1.369 . S
C86 C88 1.392 . S
C86 H114 0.930 . S
C87 C83 1.373 . S
C87 C85 1.383 . S
C87 H115 0.931 . S
C88 C85 1.382 . S
C88 C86 1.392 . S
C89 Eu80 2.828 . S
C89 C83 1.505 . S
C89 O101 1.249 . S
C89 O102 1.244 . S
O90 Eu81 2.373 . S
O90 C92 1.258 . S
O91 Eu80 2.392 . S
O91 C92 1.242 . S
C92 O90 1.258 . S
C92 O91 1.242 . S
O93 Eu80 2.418 . S
O93 C97 1.244 . S
O94 Eu81 2.488 . S
O94 C110 1.249 . S
O95 Eu81 2.471 . S
O95 C110 1.244 . S
O96 Eu81 2.349 . S
O96 C97 1.265 . S
C97 O93 1.244 . S
C97 O96 1.265 . S
O98 Eu80 2.373 . S
O98 C111 1.258 . S
O99 Eu81 2.392 . S
O99 C111 1.242 . S
O100 Eu81 2.418 . S
O100 C82 1.244 . S
O101 Eu80 2.488 . S
O101 C89 1.249 . S
O102 Eu80 2.471 . S
O102 C89 1.244 . S
O103 Eu80 2.349 . S
O103 C82 1.265 . S
C104 C105 1.379 . S
C104 C108 1.373 . S
C104 C110 1.505 . S
C105 C104 1.379 . S
C105 C107 1.369 . S
C105 H116 0.930 . S
C106 C108 1.383 . S
C106 C109 1.382 . S
C106 H117 0.930 . S
C107 C105 1.369 . S
C107 C109 1.392 . S
C107 H118 0.930 . S
C108 C104 1.373 . S
C108 C106 1.383 . S
C108 H119 0.931 . S
C109 C106 1.382 . S
C109 C107 1.392 . S
C110 Eu81 2.828 . S
C110 O94 1.249 . S
C110 O95 1.244 . S
C110 C104 1.505 . S
C111 O98 1.258 . S
C111 O99 1.242 . S
H112 C84 0.930 . S
H113 C85 0.930 . S
H114 C86 0.930 . S
H115 C87 0.931 . S
H116 C105 0.930 . S
H117 C106 0.930 . S
H118 C107 0.930 . S
H119 C108 0.931 . S
O120 Cd121 2.300 . S
O120 C127 1.275 . S
Cd121 O120 2.300 . S
Cd121 O129 2.381 . S
Cd121 O130 2.378 . S
O122 Cd123 2.385 . S
O122 C127 1.255 1_565 S
Cd123 O122 2.385 . S
Cd123 O124 2.317 . S
O124 Cd123 2.317 . S
O124 C125 1.232 . S
C125 O124 1.232 . S
C125 O126 1.218 . S
O126 C125 1.218 . S
C127 O120 1.275 . S
C127 O122 1.255 1_545 S
C128 O129 1.258 . S
C128 O130 1.256 . S
O129 Cd121 2.381 . S
O129 C128 1.258 . S
O130 Cd121 2.378 . S
O130 C128 1.256 . S
O131 Cd132 2.300 . S
O131 C138 1.275 . S
Cd132 O131 2.300 . S
Cd132 O140 2.381 . S
Cd132 O141 2.378 . S
O133 Cd134 2.385 . S
O133 C138 1.255 . S
Cd134 O133 2.385 . S
Cd134 O135 2.317 . S
O135 Cd134 2.317 . S
O135 C136 1.232 . S
C136 O135 1.232 . S
C136 O137 1.218 . S
O137 C136 1.218 . S
C138 O131 1.275 . S
C138 O133 1.255 . S
C139 O140 1.258 . S
C139 O141 1.256 . S
O140 Cd132 2.381 . S
O140 C139 1.258 . S
O141 Cd132 2.378 . S
O141 C139 1.256 . S
O142 Cd143 2.300 . S
O142 C149 1.275 . S
Cd143 O142 2.300 . S
Cd143 O151 2.381 . S
Cd143 O152 2.378 . S
O144 Cd145 2.385 . S
O144 C149 1.255 1_655 S
Cd145 O144 2.385 . S
Cd145 O146 2.317 . S
O146 Cd145 2.317 . S
O146 C147 1.232 . S
C147 O146 1.232 . S
C147 O148 1.218 . S
O148 C147 1.218 . S
C149 O142 1.275 . S
C149 O144 1.255 1_455 S
C150 O151 1.258 . S
C150 O152 1.256 . S
O151 Cd143 2.381 . S
O151 C150 1.258 . S
O152 Cd143 2.378 . S
O152 C150 1.256 . S
O153 Cd154 2.300 . S
O153 C160 1.275 . S
Cd154 O153 2.300 . S
Cd154 O162 2.381 . S
Cd154 O163 2.378 . S
O155 Cd156 2.385 . S
O155 C160 1.255 1_655 S
Cd156 O155 2.385 . S
Cd156 O157 2.317 . S
O157 Cd156 2.317 . S
O157 C158 1.232 . S
C158 O157 1.232 . S
C158 O159 1.218 . S
O159 C158 1.218 . S
C160 O153 1.275 . S
C160 O155 1.255 1_455 S
C161 O162 1.258 . S
C161 O163 1.256 . S
O162 Cd154 2.381 . S
O162 C161 1.258 . S
O163 Cd154 2.378 . S
O163 C161 1.256 . S
O164 Cd165 2.300 . S
O164 C171 1.275 1_565 S
Cd165 O164 2.300 . S
Cd165 O173 2.381 . S
Cd165 O174 2.378 . S
O166 Cd167 2.385 . S
O166 C171 1.255 . S
Cd167 O166 2.385 . S
Cd167 O168 2.317 . S
O168 Cd167 2.317 . S
O168 C169 1.232 . S
C169 O168 1.232 . S
C169 O170 1.218 . S
O170 C169 1.218 . S
C171 O164 1.275 1_545 S
C171 O166 1.255 . S
C172 O173 1.258 . S
C172 O174 1.256 . S
O173 Cd165 2.381 . S
O173 C172 1.258 . S
O174 Cd165 2.378 . S
O174 C172 1.256 . S
O175 Cd176 2.300 . S
O175 C182 1.275 . S
Cd176 O175 2.300 . S
Cd176 O184 2.381 . S
Cd176 O185 2.378 . S
O177 Cd178 2.385 . S
O177 C182 1.255 . S
Cd178 O177 2.385 . S
Cd178 O179 2.317 . S
O179 Cd178 2.317 . S
O179 C180 1.232 . S
C180 O179 1.232 . S
C180 O181 1.218 . S
O181 C180 1.218 . S
C182 O175 1.275 . S
C182 O177 1.255 . S
C183 O184 1.258 . S
C183 O185 1.256 . S
O184 Cd176 2.381 . S
O184 C183 1.258 . S
O185 Cd176 2.378 . S
O185 C183 1.256 . S
H186 C192 0.930 . S
H187 C196 0.930 . S
H188 C201 0.929 . S
H189 C199 0.929 . S
H190 C194 0.929 . S
H191 C200 0.929 . S
C192 H186 0.930 . S
C192 C193 1.367 . S
C192 C200 1.378 . S
C193 C192 1.367 . S
C193 C201 1.433 . S
C194 H190 0.929 . S
C194 C196 1.378 . S
C194 C198 1.350 . S
C195 C198 1.463 . S
C195 C200 1.350 . S
C195 N203 1.427 . S
C196 H187 0.930 . S
C196 C194 1.378 . S
C196 C197 1.367 . S
C197 C196 1.367 . S
C197 C199 1.433 . S
C198 C194 1.350 . S
C198 C195 1.463 . S
C198 N202 1.427 . S
C199 H189 0.929 . S
C199 C197 1.433 . S
C199 N202 1.384 . S
C200 H191 0.929 . S
C200 C192 1.378 . S
C200 C195 1.350 . S
C201 H188 0.929 . S
C201 C193 1.433 . S
C201 N203 1.384 . S
N202 C198 1.427 . S
N202 C199 1.384 . S
N203 C195 1.427 . S
N203 C201 1.384 . S
H204 C210 0.930 . S
H205 C214 0.930 . S
H206 C219 0.929 . S
H207 C217 0.929 . S
H208 C212 0.929 . S
H209 C218 0.929 . S
C210 H204 0.930 . S
C210 C211 1.367 . S
C210 C218 1.378 . S
C211 C210 1.367 . S
C211 C219 1.433 . S
C212 H208 0.929 . S
C212 C214 1.378 . S
C212 C216 1.350 . S
C213 C216 1.463 . S
C213 C218 1.350 . S
C213 N221 1.427 . S
C214 H205 0.930 . S
C214 C212 1.378 . S
C214 C215 1.367 . S
C215 C214 1.367 . S
C215 C217 1.433 . S
C216 C212 1.350 . S
C216 C213 1.463 . S
C216 N220 1.427 . S
C217 H207 0.929 . S
C217 C215 1.433 . S
C217 N220 1.384 . S
C218 H209 0.929 . S
C218 C210 1.378 . S
C218 C213 1.350 . S
C219 H206 0.929 . S
C219 C211 1.433 . S
C219 N221 1.384 . S
N220 C216 1.427 . S
N220 C217 1.384 . S
N221 C213 1.427 . S
N221 C219 1.384 . S
H222 C228 0.930 . S
H223 C232 0.930 . S
H224 C237 0.929 . S
H225 C235 0.929 . S
H226 C230 0.929 . S
H227 C236 0.929 . S
C228 H222 0.930 . S
C228 C229 1.367 . S
C228 C236 1.378 . S
C229 C228 1.367 . S
C229 C237 1.433 . S
C230 H226 0.929 . S
C230 C232 1.378 . S
C230 C234 1.350 . S
C231 C234 1.463 . S
C231 C236 1.350 . S
C231 N239 1.427 . S
C232 H223 0.930 . S
C232 C230 1.378 . S
C232 C233 1.367 . S
C233 C232 1.367 . S
C233 C235 1.433 . S
C234 C230 1.350 . S
C234 C231 1.463 . S
C234 N238 1.427 . S
C235 H225 0.929 . S
C235 C233 1.433 . S
C235 N238 1.384 . S
C236 H227 0.929 . S
C236 C228 1.378 . S
C236 C231 1.350 . S
C237 H224 0.929 . S
C237 C229 1.433 . S
C237 N239 1.384 . S
N238 C234 1.427 . S
N238 C235 1.384 . S
N239 C231 1.427 . S
N239 C237 1.384 . S
H240 C246 0.930 . S
H241 C250 0.930 . S
H242 C255 0.929 . S
H243 C253 0.929 . S
H244 C248 0.929 . S
H245 C254 0.929 . S
C246 H240 0.930 . S
C246 C247 1.367 . S
C246 C254 1.378 . S
C247 C246 1.367 . S
C247 C255 1.433 . S
C248 H244 0.929 . S
C248 C250 1.378 . S
C248 C252 1.350 . S
C249 C252 1.463 . S
C249 C254 1.350 . S
C249 N257 1.427 . S
C250 H241 0.930 . S
C250 C248 1.378 . S
C250 C251 1.367 . S
C251 C250 1.367 . S
C251 C253 1.433 . S
C252 C248 1.350 . S
C252 C249 1.463 . S
C252 N256 1.427 . S
C253 H243 0.929 . S
C253 C251 1.433 . S
C253 N256 1.384 . S
C254 H245 0.929 . S
C254 C246 1.378 . S
C254 C249 1.350 . S
C255 H242 0.929 . S
C255 C247 1.433 . S
C255 N257 1.384 . S
N256 C252 1.427 . S
N256 C253 1.384 . S
N257 C249 1.427 . S
N257 C255 1.384 . S
H258 C264 0.930 . S
H259 C268 0.930 . S
H260 C273 0.929 . S
H261 C271 0.929 . S
H262 C266 0.929 . S
H263 C272 0.929 . S
C264 H258 0.930 . S
C264 C265 1.367 . S
C264 C272 1.378 . S
C265 C264 1.367 . S
C265 C273 1.433 . S
C266 H262 0.929 . S
C266 C268 1.378 . S
C266 C270 1.350 . S
C267 C270 1.463 . S
C267 C272 1.350 . S
C267 N275 1.427 . S
C268 H259 0.930 . S
C268 C266 1.378 . S
C268 C269 1.367 . S
C269 C268 1.367 . S
C269 C271 1.433 . S
C270 C266 1.350 . S
C270 C267 1.463 . S
C270 N274 1.427 . S
C271 H261 0.929 . S
C271 C269 1.433 . S
C271 N274 1.384 . S
C272 H263 0.929 . S
C272 C264 1.378 . S
C272 C267 1.350 . S
C273 H260 0.929 . S
C273 C265 1.433 . S
C273 N275 1.384 . S
N274 C270 1.427 . S
N274 C271 1.384 . S
N275 C267 1.427 . S
N275 C273 1.384 . S
H276 C282 0.930 . S
H277 C286 0.930 . S
H278 C291 0.929 . S
H279 C289 0.929 . S
H280 C284 0.929 . S
H281 C290 0.929 . S
C282 H276 0.930 . S
C282 C283 1.367 . S
C282 C290 1.378 . S
C283 C282 1.367 . S
C283 C291 1.433 . S
C284 H280 0.929 . S
C284 C286 1.378 . S
C284 C288 1.350 . S
C285 C288 1.463 . S
C285 C290 1.350 . S
C285 N293 1.427 . S
C286 H277 0.930 . S
C286 C284 1.378 . S
C286 C287 1.367 . S
C287 C286 1.367 . S
C287 C289 1.433 . S
C288 C284 1.350 . S
C288 C285 1.463 . S
C288 N292 1.427 . S
C289 H279 0.929 . S
C289 C287 1.433 . S
C289 N292 1.384 . S
C290 H281 0.929 . S
C290 C282 1.378 . S
C290 C285 1.350 . S
C291 H278 0.929 . S
C291 C283 1.433 . S
C291 N293 1.384 . S
N292 C288 1.427 . S
N292 C289 1.384 . S
N293 C285 1.427 . S
N293 C291 1.384 . S
H294 C300 0.930 . S
H295 C304 0.930 . S
H296 C309 0.929 . S
H297 C307 0.929 . S
H298 C302 0.929 . S
H299 C308 0.929 . S
C300 H294 0.930 . S
C300 C301 1.367 . S
C300 C308 1.378 . S
C301 C300 1.367 . S
C301 C309 1.433 . S
C302 H298 0.929 . S
C302 C304 1.378 . S
C302 C306 1.350 . S
C303 C306 1.463 . S
C303 C308 1.350 . S
C303 N311 1.427 . S
C304 H295 0.930 . S
C304 C302 1.378 . S
C304 C305 1.367 . S
C305 C304 1.367 . S
C305 C307 1.433 . S
C306 C302 1.350 . S
C306 C303 1.463 . S
C306 N310 1.427 . S
C307 H297 0.929 . S
C307 C305 1.433 . S
C307 N310 1.384 . S
C308 H299 0.929 . S
C308 C300 1.378 . S
C308 C303 1.350 . S
C309 H296 0.929 . S
C309 C301 1.433 . S
C309 N311 1.384 . S
N310 C306 1.427 . S
N310 C307 1.384 . S
N311 C303 1.427 . S
N311 C309 1.384 . S
H312 C318 0.930 . S
H313 C322 0.930 . S
H314 C327 0.929 . S
H315 C325 0.929 . S
H316 C320 0.929 . S
H317 C326 0.929 . S
C318 H312 0.930 . S
C318 C319 1.367 . S
C318 C326 1.378 . S
C319 C318 1.367 . S
C319 C327 1.433 . S
C320 H316 0.929 . S
C320 C322 1.378 . S
C320 C324 1.350 . S
C321 C324 1.463 . S
C321 C326 1.350 . S
C321 N329 1.427 . S
C322 H313 0.930 . S
C322 C320 1.378 . S
C322 C323 1.367 . S
C323 C322 1.367 . S
C323 C325 1.433 . S
C324 C320 1.350 . S
C324 C321 1.463 . S
C324 N328 1.427 . S
C325 H315 0.929 . S
C325 C323 1.433 . S
C325 N328 1.384 . S
C326 H317 0.929 . S
C326 C318 1.378 . S
C326 C321 1.350 . S
C327 H314 0.929 . S
C327 C319 1.433 . S
C327 N329 1.384 . S
N328 C324 1.427 . S
N328 C325 1.384 . S
N329 C321 1.427 . S
N329 C327 1.384 . S
H330 C336 0.930 . S
H331 C340 0.930 . S
H332 C345 0.929 . S
H333 C343 0.929 . S
H334 C338 0.929 . S
H335 C344 0.929 . S
C336 H330 0.930 . S
C336 C337 1.367 . S
C336 C344 1.378 . S
C337 C336 1.367 . S
C337 C345 1.433 . S
C338 H334 0.929 . S
C338 C340 1.378 . S
C338 C342 1.350 . S
C339 C342 1.463 . S
C339 C344 1.350 . S
C339 N347 1.427 . S
C340 H331 0.930 . S
C340 C338 1.378 . S
C340 C341 1.367 . S
C341 C340 1.367 . S
C341 C343 1.433 . S
C342 C338 1.350 . S
C342 C339 1.463 . S
C342 N346 1.427 . S
C343 H333 0.929 . S
C343 C341 1.433 . S
C343 N346 1.384 . S
C344 H335 0.929 . S
C344 C336 1.378 . S
C344 C339 1.350 . S
C345 H332 0.929 . S
C345 C337 1.433 . S
C345 N347 1.384 . S
N346 C342 1.427 . S
N346 C343 1.384 . S
N347 C339 1.427 . S
N347 C345 1.384 . S
H348 C354 0.930 . S
H349 C358 0.930 . S
H350 C363 0.929 . S
H351 C361 0.929 . S
H352 C356 0.929 . S
H353 C362 0.929 . S
C354 H348 0.930 . S
C354 C355 1.367 . S
C354 C362 1.378 . S
C355 C354 1.367 . S
C355 C363 1.433 . S
C356 H352 0.929 . S
C356 C358 1.378 . S
C356 C360 1.350 . S
C357 C360 1.463 . S
C357 C362 1.350 . S
C357 N365 1.427 . S
C358 H349 0.930 . S
C358 C356 1.378 . S
C358 C359 1.367 . S
C359 C358 1.367 . S
C359 C361 1.433 . S
C360 C356 1.350 . S
C360 C357 1.463 . S
C360 N364 1.427 . S
C361 H351 0.929 . S
C361 C359 1.433 . S
C361 N364 1.384 . S
C362 H353 0.929 . S
C362 C354 1.378 . S
C362 C357 1.350 . S
C363 H350 0.929 . S
C363 C355 1.433 . S
C363 N365 1.384 . S
N364 C360 1.427 . S
N364 C361 1.384 . S
N365 C357 1.427 . S
N365 C363 1.384 . S
H366 C372 0.930 . S
H367 C376 0.930 . S
H368 C381 0.929 . S
H369 C379 0.929 . S
H370 C374 0.929 . S
H371 C380 0.929 . S
C372 H366 0.930 . S
C372 C373 1.367 . S
C372 C380 1.378 . S
C373 C372 1.367 . S
C373 C381 1.433 . S
C374 H370 0.929 . S
C374 C376 1.378 . S
C374 C378 1.350 . S
C375 C378 1.463 . S
C375 C380 1.350 . S
C375 N383 1.427 . S
C376 H367 0.930 . S
C376 C374 1.378 . S
C376 C377 1.367 . S
C377 C376 1.367 . S
C377 C379 1.433 . S
C378 C374 1.350 . S
C378 C375 1.463 . S
C378 N382 1.427 . S
C379 H369 0.929 . S
C379 C377 1.433 . S
C379 N382 1.384 . S
C380 H371 0.929 . S
C380 C372 1.378 . S
C380 C375 1.350 . S
C381 H368 0.929 . S
C381 C373 1.433 . S
C381 N383 1.384 . S
N382 C378 1.427 . S
N382 C379 1.384 . S
N383 C375 1.427 . S
N383 C381 1.384 . S
H384 C390 0.930 . S
H385 C394 0.930 . S
H386 C399 0.929 . S
H387 C397 0.929 . S
H388 C392 0.929 . S
H389 C398 0.929 . S
C390 H384 0.930 . S
C390 C391 1.367 . S
C390 C398 1.378 . S
C391 C390 1.367 . S
C391 C399 1.433 . S
C392 H388 0.929 . S
C392 C394 1.378 . S
C392 C396 1.350 . S
C393 C396 1.463 . S
C393 C398 1.350 . S
C393 N401 1.427 . S
C394 H385 0.930 . S
C394 C392 1.378 . S
C394 C395 1.367 . S
C395 C394 1.367 . S
C395 C397 1.433 . S
C396 C392 1.350 . S
C396 C393 1.463 . S
C396 N400 1.427 . S
C397 H387 0.929 . S
C397 C395 1.433 . S
C397 N400 1.384 . S
C398 H389 0.929 . S
C398 C390 1.378 . S
C398 C393 1.350 . S
C399 H386 0.929 . S
C399 C391 1.433 . S
C399 N401 1.384 . S
N400 C396 1.427 . S
N400 C397 1.384 . S
N401 C393 1.427 . S
N401 C399 1.384 . S
H402 C408 0.930 . S
H403 C412 0.930 . S
H404 C417 0.929 . S
H405 C415 0.929 . S
H406 C410 0.940 . S
H407 C416 0.929 . S
C408 H402 0.930 . S
C408 C409 1.367 1_655 S
C408 C416 1.378 . S
C409 C408 1.367 1_455 S
C409 C417 1.433 . S
C410 H406 0.940 . S
C410 C412 1.358 1_554 S
C410 C414 1.358 . S
C411 C414 1.463 . S
C411 C416 1.350 1_455 S
C411 N419 1.427 . S
C412 H403 0.930 . S
C412 C410 1.358 1_556 S
C412 C413 1.367 . S
C413 C412 1.367 . S
C413 C415 1.433 1_455 S
C414 C410 1.358 . S
C414 C411 1.463 . S
C414 N418 1.427 1_454 S
C415 H405 0.929 . S
C415 C413 1.433 1_655 S
C415 N418 1.384 . S
C416 H407 0.929 . S
C416 C408 1.378 . S
C416 C411 1.350 1_655 S
C417 H404 0.929 . S
C417 C409 1.433 . S
C417 N419 1.384 . S
N418 C414 1.427 1_656 S
N418 C415 1.384 . S
N419 C411 1.427 . S
N419 C417 1.384 . S
H420 C426 0.930 . S
H421 C430 0.930 1_565 S
H422 C435 0.929 . S
H423 C433 0.929 . S
H424 C428 0.928 1_565 S
H425 C434 0.929 . S
C426 H420 0.930 . S
C426 C427 1.367 . S
C426 C434 1.378 . S
C427 C426 1.367 . S
C427 C435 1.433 1_545 S
C428 H424 0.928 1_545 S
C428 C430 1.378 . S
C428 C432 1.350 . S
C429 C432 1.463 . S
C429 C434 1.350 . S
C429 N437 1.427 1_545 S
C430 H421 0.930 1_545 S
C430 C428 1.378 . S
C430 C431 1.367 . S
C431 C430 1.367 . S
C431 C433 1.433 . S
C432 C428 1.350 . S
C432 C429 1.463 . S
C432 N436 1.427 . S
C433 H423 0.929 . S
C433 C431 1.433 . S
C433 N436 1.384 . S
C434 H425 0.929 . S
C434 C426 1.378 . S
C434 C429 1.350 . S
C435 H422 0.929 . S
C435 C427 1.433 1_565 S
C435 N437 1.384 . S
N436 C432 1.427 . S
N436 C433 1.384 . S
N437 C429 1.427 1_565 S
N437 C435 1.384 . S
H438 C444 0.930 . S
H439 C448 0.930 . S
H440 C453 0.929 . S
H441 C451 0.929 . S
H442 C446 0.929 . S
H443 C452 0.929 . S
C444 H438 0.930 . S
C444 C445 1.367 . S
C444 C452 1.378 . S
C445 C444 1.367 . S
C445 C453 1.433 . S
C446 H442 0.929 . S
C446 C448 1.378 . S
C446 C450 1.350 . S
C447 C450 1.463 . S
C447 C452 1.350 . S
C447 N455 1.427 . S
C448 H439 0.930 . S
C448 C446 1.378 . S
C448 C449 1.367 . S
C449 C448 1.367 . S
C449 C451 1.433 . S
C450 C446 1.350 . S
C450 C447 1.463 . S
C450 N454 1.427 . S
C451 H441 0.929 . S
C451 C449 1.433 . S
C451 N454 1.384 . S
C452 H443 0.929 . S
C452 C444 1.378 . S
C452 C447 1.350 . S
C453 H440 0.929 . S
C453 C445 1.433 . S
C453 N455 1.384 . S
N454 C450 1.427 . S
N454 C451 1.384 . S
N455 C447 1.427 . S
N455 C453 1.384 . S
H456 C462 0.930 . S
H457 C466 0.930 . S
H458 C471 0.929 . S
H459 C469 0.929 . S
H460 C464 0.929 . S
H461 C470 0.929 . S
C462 H456 0.930 . S
C462 C463 1.367 1_565 S
C462 C470 1.378 . S
C463 C462 1.367 1_545 S
C463 C471 1.433 . S
C464 H460 0.929 . S
C464 C466 1.378 . S
C464 C468 1.350 . S
C465 C468 1.463 . S
C465 C470 1.350 1_545 S
C465 N473 1.427 . S
C466 H457 0.930 . S
C466 C464 1.378 . S
C466 C467 1.367 . S
C467 C466 1.367 . S
C467 C469 1.433 1_545 S
C468 C464 1.350 . S
C468 C465 1.463 . S
C468 N472 1.427 1_545 S
C469 H459 0.929 . S
C469 C467 1.433 1_565 S
C469 N472 1.384 . S
C470 H461 0.929 . S
C470 C462 1.378 . S
C470 C465 1.350 1_565 S
C471 H458 0.929 . S
C471 C463 1.433 . S
C471 N473 1.384 . S
N472 C468 1.427 1_565 S
N472 C469 1.384 . S
N473 C465 1.427 . S
N473 C471 1.384 . S
H474 C480 0.930 . S
H475 C484 0.930 . S
H476 C489 0.929 . S
H477 C487 0.929 . S
H478 C482 0.920 1_556 S
H479 C488 0.929 . S
C480 H474 0.930 . S
C480 C481 1.367 . S
C480 C488 1.378 . S
C481 C480 1.367 . S
C481 C489 1.433 . S
C482 H478 0.920 1_554 S
C482 C484 1.378 . S
C482 C486 1.350 1_554 S
C483 C486 1.463 . S
C483 C488 1.350 . S
C483 N491 1.427 . S
C484 H475 0.930 . S
C484 C482 1.378 . S
C484 C485 1.367 . S
C485 C484 1.367 . S
C485 C487 1.433 . S
C486 C482 1.350 1_556 S
C486 C483 1.463 . S
C486 N490 1.427 1_556 S
C487 H477 0.929 . S
C487 C485 1.433 . S
C487 N490 1.384 . S
C488 H479 0.929 . S
C488 C480 1.378 . S
C488 C483 1.350 . S
C489 H476 0.929 . S
C489 C481 1.433 . S
C489 N491 1.384 . S
N490 C486 1.427 1_554 S
N490 C487 1.384 . S
N491 C483 1.427 . S
N491 C489 1.384 . S
H492 C498 0.930 . S
H493 C502 0.930 . S
H494 C507 0.929 . S
H495 C505 0.929 . S
H496 C500 0.929 . S
H497 C506 0.929 . S
C498 H492 0.930 . S
C498 C499 1.367 . S
C498 C506 1.378 . S
C499 C498 1.367 . S
C499 C507 1.433 1_655 S
C500 H496 0.929 . S
C500 C502 1.378 . S
C500 C504 1.350 1_455 S
C501 C504 1.463 . S
C501 C506 1.350 . S
C501 N509 1.427 1_655 S
C502 H493 0.930 . S
C502 C500 1.378 . S
C502 C503 1.367 1_455 S
C503 C502 1.367 1_655 S
C503 C505 1.433 . S
C504 C500 1.350 1_655 S
C504 C501 1.463 . S
C504 N508 1.427 . S
C505 H495 0.929 . S
C505 C503 1.433 . S
C505 N508 1.384 . S
C506 H497 0.929 . S
C506 C498 1.378 . S
C506 C501 1.350 . S
C507 H494 0.929 . S
C507 C499 1.433 1_455 S
C507 N509 1.384 . S
N508 C504 1.427 . S
N508 C505 1.384 . S
N509 C501 1.427 1_455 S
N509 C507 1.384 . S
C193 C12 3.135 . S
C197 C180 2.785 . S
C211 C52 3.140 . S
C215 C158 2.808 . S
C229 C111 2.877 . S
C233 C172 2.810 . S
C247 C31 2.991 . S
C251 C183 2.906 . S
C269 C161 2.908 . S
C265 C71 2.990 . S
C287 C169 2.872 . S
C283 C92 3.230 . S
C301 C48 0.580 . S
C305 C136 0.753 . S
C319 C109 0.573 . S
C323 C147 0.707 . S
C337 C29 0.532 . S
C341 C125 0.726 . S
C359 C139 0.326 . S
C355 C69 0.268 . S
C377 C150 0.287 . S
C373 C88 0.176 . S
C391 C8 0.183 . S
C395 C128 0.276 . S
C413 C149 1.166 . S
C409 C17 1.194 1_455 S
C427 C57 1.200 . S
C431 C127 1.178 . S
C445 C97 1.218 . S
C449 C138 1.189 . S
C467 C171 1.666 . S
C463 C42 1.676 . S
C485 C182 1.669 . S
C481 C82 1.715 . S
C499 C2 1.717 1_655 S
C503 C160 1.677 1_655 S
