# Generated by pormake.
# Topology zzz, (3,6)-cn, num edge types: 1
# Building blocks:
#     Node 0, Type 0, BuildingBlock: OLANEW_clean_sbu_2, # of connection points: 3
#     Node 1, Type 0, BuildingBlock: OLANEW_clean_sbu_2, # of connection points: 3
#     Node 2, Type 0, BuildingBlock: OLANEW_clean_sbu_2, # of connection points: 3
#     Node 3, Type 0, BuildingBlock: OLANEW_clean_sbu_2, # of connection points: 3
#     Node 4, Type 0, BuildingBlock: OLANEW_clean_sbu_2, # of connection points: 3
#     Node 5, Type 0, BuildingBlock: OLANEW_clean_sbu_2, # of connection points: 3
#     Node 6, Type 0, BuildingBlock: OLANEW_clean_sbu_2, # of connection points: 3
#     Node 7, Type 0, BuildingBlock: OLANEW_clean_sbu_2, # of connection points: 3
#     Node 8, Type 1, BuildingBlock: FUNLAD_clean_sbu_0, # of connection points: 6
#     Node 9, Type 1, BuildingBlock: FUNLAD_clean_sbu_0, # of connection points: 6
#     Node 10, Type 1, BuildingBlock: FUNLAD_clean_sbu_0, # of connection points: 6
#     Node 11, Type 1, BuildingBlock: FUNLAD_clean_sbu_0, # of connection points: 6
#     Edge 12, Type (0, 1), BuildingBlock: EYOCIG_clean_linker_4, # of connection points: 2
#     Edge 13, Type (0, 1), BuildingBlock: EYOCIG_clean_linker_4, # of connection points: 2
#     Edge 14, Type (0, 1), BuildingBlock: EYOCIG_clean_linker_4, # of connection points: 2
#     Edge 15, Type (0, 1), BuildingBlock: EYOCIG_clean_linker_4, # of connection points: 2
#     Edge 16, Type (0, 1), BuildingBlock: EYOCIG_clean_linker_4, # of connection points: 2
#     Edge 17, Type (0, 1), BuildingBlock: EYOCIG_clean_linker_4, # of connection points: 2
#     Edge 18, Type (0, 1), BuildingBlock: EYOCIG_clean_linker_4, # of connection points: 2
#     Edge 19, Type (0, 1), BuildingBlock: EYOCIG_clean_linker_4, # of connection points: 2
#     Edge 20, Type (0, 1), BuildingBlock: EYOCIG_clean_linker_4, # of connection points: 2
#     Edge 21, Type (0, 1), BuildingBlock: EYOCIG_clean_linker_4, # of connection points: 2
#     Edge 22, Type (0, 1), BuildingBlock: EYOCIG_clean_linker_4, # of connection points: 2
#     Edge 23, Type (0, 1), BuildingBlock: EYOCIG_clean_linker_4, # of connection points: 2
#     Edge 24, Type (0, 1), BuildingBlock: EYOCIG_clean_linker_4, # of connection points: 2
#     Edge 25, Type (0, 1), BuildingBlock: EYOCIG_clean_linker_4, # of connection points: 2
#     Edge 26, Type (0, 1), BuildingBlock: EYOCIG_clean_linker_4, # of connection points: 2
#     Edge 27, Type (0, 1), BuildingBlock: EYOCIG_clean_linker_4, # of connection points: 2
#     Edge 28, Type (0, 1), BuildingBlock: EYOCIG_clean_linker_4, # of connection points: 2
#     Edge 29, Type (0, 1), BuildingBlock: EYOCIG_clean_linker_4, # of connection points: 2
#     Edge 30, Type (0, 1), BuildingBlock: EYOCIG_clean_linker_4, # of connection points: 2
#     Edge 31, Type (0, 1), BuildingBlock: EYOCIG_clean_linker_4, # of connection points: 2
#     Edge 32, Type (0, 1), BuildingBlock: EYOCIG_clean_linker_4, # of connection points: 2
#     Edge 33, Type (0, 1), BuildingBlock: EYOCIG_clean_linker_4, # of connection points: 2
#     Edge 34, Type (0, 1), BuildingBlock: EYOCIG_clean_linker_4, # of connection points: 2
#     Edge 35, Type (0, 1), BuildingBlock: EYOCIG_clean_linker_4, # of connection points: 2
# Relax obj value: 0.106
# Max RMSD: 0.172
# Mean RMSD: 0.097
data_MOF--net-zzz--node1-OLANEW_clean_sbu_2--node2-FUNLAD_clean_sbu_0--edge1-EYOCIG_clean_linker_4
_symmetry_space_group_name_H-M    P1
_symmetry_Int_Tables_number       1
_symmetry_cell_setting            triclinic
loop_
_symmetry_equiv_pos_as_xyz
'x, y, z'
_cell_length_a     45.388393
_cell_length_b     50.314625
_cell_length_c     16.121254
_cell_angle_alpha  85.069694
_cell_angle_beta   85.685719
_cell_angle_gamma 88.997362
loop_
_atom_site_label
_atom_site_type_symbol
_atom_site_fract_x
_atom_site_fract_y
_atom_site_fract_z
_atom_type_partial_charge
O0 O 0.8211 0.49 0.05049 0.0
Cd1 Cd 0.781 0.47952 0.15053 0.0
O2 O 0.83188 0.45841 0.14356 0.0
Cd3 Cd 0.85802 0.43269 0.22072 0.0
O4 O 0.85637 0.45717 0.32417 0.0
C5 C 0.88091 0.46848 0.32505 0.0
O6 O 0.90254 0.46282 0.27064 0.0
C7 C 0.84022 0.47592 0.08613 0.0
C8 C 0.73606 0.48102 0.05122 0.0
O9 O 0.75164 0.5016 0.05611 0.0
O10 O 0.74082 0.45954 0.09704 0.0
O11 O 0.93631 0.81334 0.85164 0.0
Cd12 Cd 0.94267 0.77737 0.9596 0.0
O13 O 0.97471 0.81638 0.92298 0.0
Cd14 Cd 0.00236 0.83655 -0.00027 0.0
O15 O 0.98433 0.83828 0.12782 0.0
C16 C 0.97262 0.8609 0.13732 0.0
O17 O 0.97492 0.87948 0.07513 0.0
C18 C 0.95644 0.82731 0.87474 0.0
C19 C 0.95715 0.73105 0.89099 0.0
O20 O 0.9307 0.74025 0.89407 0.0
O21 O 0.97754 0.74391 0.9206 0.0
O22 O 0.69986 0.98986 0.93943 0.0
Cd23 Cd 0.7427 0.99171 0.02632 0.0
O24 O 0.68887 0.01621 0.03616 0.0
Cd25 Cd 0.66815 0.03813 0.13347 0.0
O26 O 0.66095 0.02194 0.26242 0.0
C27 C 0.6358 0.01122 0.27376 0.0
O28 O 0.61847 0.01266 0.212 0.0
C29 C 0.68041 0.00354 0.97772 0.0
C30 C 0.80007 -0.00341 0.95128 0.0
O31 O 0.78581 0.97477 0.95406 0.0
O32 O 0.78716 0.01675 -0.01781 0.0
O33 O 0.53919 0.66028 0.96338 0.0
Cd34 Cd 0.53539 0.69603 0.0583 0.0
O35 O 0.50438 0.65254 0.06097 0.0
Cd36 Cd 0.47225 0.63266 0.14704 0.0
O37 O 0.49413 0.62968 0.26231 0.0
C38 C 0.50707 0.60733 0.27287 0.0
O39 O 0.50418 0.58957 0.2192 0.0
C40 C 0.51976 0.64467 -0.0011 0.0
C41 C 0.52256 0.74601 -0.01668 0.0
O42 O 0.54824 0.73532 0.97421 0.0
O43 O 0.50206 0.73295 0.02735 0.0
O44 O 0.17681 0.49762 0.41601 0.0
Cd45 Cd 0.21781 0.49117 0.31821 0.0
O46 O 0.16787 0.46401 0.34688 0.0
Cd47 Cd 0.1431 0.44035 0.27543 0.0
O48 O 0.14528 0.46471 0.15892 0.0
C49 C 0.12186 0.4783 0.15164 0.0
O50 O 0.10074 0.47587 0.21187 0.0
C51 C 0.15843 0.48229 0.39139 0.0
C52 C 0.26404 0.49443 0.41226 0.0
O53 O 0.24813 0.51493 0.39333 0.0
O54 O 0.25902 0.47222 0.38287 0.0
O55 O 0.05956 0.16936 0.6325 0.0
Cd56 Cd 0.06496 0.20432 0.51697 0.0
O57 O 0.09223 0.1603 0.53431 0.0
Cd58 Cd 0.10442 0.14534 0.41633 0.0
O59 O 0.07832 0.14554 0.30966 0.0
C60 C 0.07081 0.12176 0.30403 0.0
O61 O 0.08135 0.10268 0.35432 0.0
C62 C 0.07174 0.15226 0.58795 0.0
C63 C 0.0505 0.25397 0.5652 0.0
O64 O 0.03088 0.23597 0.56699 0.0
O65 O 0.07716 0.24869 0.5394 0.0
O66 O 0.30053 0.98911 0.52314 0.0
Cd67 Cd 0.25825 -0.00537 0.43362 0.0
O68 O 0.31291 0.01601 0.41535 0.0
Cd69 Cd 0.33272 0.03809 0.30641 0.0
O70 O 0.33875 0.02369 0.18362 0.0
C71 C 0.36363 0.01209 0.17666 0.0
O72 O 0.38089 0.01171 0.23843 0.0
C73 C 0.32077 0.00173 0.47878 0.0
C74 C 0.20045 -0.00647 0.50559 0.0
O75 O 0.21729 0.97289 0.51038 0.0
O76 O 0.21086 0.01523 0.46812 0.0
O77 O 0.47283 0.32202 0.5126 0.0
Cd78 Cd 0.46056 0.28863 0.41905 0.0
O79 O 0.44145 0.33736 0.42642 0.0
Cd80 Cd 0.4153 0.35538 0.33147 0.0
O81 O 0.43663 0.35465 0.20722 0.0
C82 C 0.44999 0.37648 0.1903 0.0
O83 O 0.44742 0.3946 0.24424 0.0
C84 C 0.4601 0.34202 0.47793 0.0
C85 C 0.47004 0.23656 0.48029 0.0
O86 O 0.49068 0.2537 0.47382 0.0
O87 O 0.44447 0.24386 0.45783 0.0
C88 C 0.00019 0.9457 0.81912 0.0
N89 N 0.98404 0.96452 0.56476 0.0
C90 C -0.00635 0.93873 0.56188 0.0
C91 C 0.986 0.92351 0.49848 0.0
C92 C 0.96855 0.93485 0.43683 0.0
C93 C 0.96047 0.96182 0.43677 0.0
C94 C 0.96835 0.97638 0.50222 0.0
Zn95 Zn -0.00603 0.98484 0.6683 0.0
C96 C 0.94064 -0.00348 0.78143 0.0
N97 N 0.01651 0.02049 0.89358 0.0
C98 C 0.03052 0.00878 0.95983 0.0
C99 C 0.00573 0.04592 0.89515 0.0
C100 C 0.00961 0.06078 0.96232 0.0
C101 C 0.02398 0.04935 0.03007 0.0
C102 C 0.0344 0.02297 0.02965 0.0
Zn103 Zn 0.00743 0.00059 0.78908 0.0
O104 O -0.0052 0.94932 0.74297 0.0
C105 C 0.06047 0.98831 0.67674 0.0
O106 O 0.00805 0.9646 0.85888 0.0
H107 H -0.00634 0.05487 0.84463 0.0
H108 H 0.00698 0.92963 0.60951 0.0
H109 H 0.03866 0.98848 0.95896 0.0
O110 O 0.04033 0.98156 0.63202 0.0
O111 O 0.05352 -0.00339 0.74837 0.0
H112 H 0.96131 -0.00303 0.50376 0.0
O113 O 0.00702 0.0366 0.71406 0.0
O114 O -0.00659 0.02171 0.59823 0.0
O115 O 0.96079 0.00357 0.82562 0.0
O116 O 0.94767 0.98841 0.70963 0.0
C117 C 0.0014 0.04067 0.63816 0.0
H118 H -0.00682 0.90284 0.49871 0.0
H119 H 0.94764 0.97132 0.38823 0.0
H120 H 0.00141 0.08117 0.96113 0.0
H121 H 0.04573 0.01364 0.08162 0.0
C122 C 0.45345 0.98544 0.63064 0.0
N123 N 0.49709 0.05595 0.68428 0.0
C124 C 0.48698 0.06423 0.60851 0.0
C125 C 0.48464 0.09138 0.58231 0.0
C126 C 0.49331 0.11044 0.63333 0.0
C127 C 0.50423 0.10183 0.7103 0.0
C128 C 0.5058 0.07433 0.73495 0.0
Zn129 Zn 0.49954 0.01413 0.71696 0.0
C130 C 0.45838 -0.00559 0.86124 0.0
N131 N 0.50364 0.92712 0.77402 0.0
C132 C 0.49517 0.90885 0.72283 0.0
C133 C 0.51363 0.91885 0.84992 0.0
C134 C 0.51616 0.8917 0.8757 0.0
C135 C 0.50773 0.87271 0.82402 0.0
C136 C 0.49691 0.88138 0.747 0.0
Zn137 Zn 0.50112 0.96849 0.74122 0.0
O138 O 0.46399 0.00799 0.64149 0.0
C139 C 0.54233 0.98719 0.59684 0.0
O140 O 0.46495 0.9642 0.66384 0.0
H141 H 0.51947 0.93326 0.8916 0.0
H142 H 0.48084 0.04984 0.56721 0.0
H143 H 0.48701 0.9155 0.66316 0.0
O144 O 0.53177 0.00982 0.61464 0.0
O145 O 0.53283 0.9659 0.63773 0.0
H146 H 0.514 0.06777 0.79465 0.0
O147 O 0.53707 0.97485 0.81666 0.0
O148 O 0.53511 0.01862 0.79461 0.0
O149 O 0.46959 0.97216 0.84304 0.0
O150 O 0.46727 0.01608 0.82087 0.0
C151 C 0.54705 -0.00236 0.82778 0.0
H152 H 0.47618 0.0974 0.52234 0.0
H153 H 0.51123 0.11615 0.75114 0.0
H154 H 0.52437 0.88564 0.93595 0.0
H155 H 0.48993 0.86712 0.70597 0.0
C156 C 0.50684 0.44891 0.62968 0.0
N157 N 0.43275 0.49669 0.6947 0.0
C158 C 0.42645 0.48858 0.61951 0.0
C159 C 0.39772 0.48964 0.59515 0.0
C160 C 0.37523 0.49996 0.64695 0.0
C161 C 0.38161 0.50826 0.72425 0.0
C162 C 0.41083 0.5062 0.7475 0.0
Zn163 Zn 0.47697 0.49403 0.72237 0.0
C164 C 0.48849 0.45479 0.86239 0.0
N165 N 0.56922 0.48606 0.7622 0.0
C166 C 0.59159 0.47761 0.70919 0.0
C167 C 0.57473 0.49425 0.83796 0.0
C168 C 0.60332 0.49472 0.86219 0.0
C169 C 0.62639 0.48568 0.80974 0.0
C170 C 0.62073 0.47699 0.73243 0.0
Zn171 Zn 0.52597 0.48799 0.73302 0.0
O172 O 0.48329 0.46168 0.64781 0.0
C173 C 0.51647 0.52706 0.59377 0.0
O174 O 0.53099 0.45524 0.65758 0.0
H175 H 0.55697 0.49996 0.88129 0.0
H176 H 0.44373 0.48175 0.57659 0.0
H177 H 0.58685 0.47115 0.64941 0.0
O178 O 0.48951 0.52215 0.61743 0.0
O179 O 0.53708 0.5147 0.62998 0.0
H180 H 0.41598 0.51249 0.80717 0.0
O181 O 0.51961 0.52085 0.8051 0.0
O182 O 0.4717 0.52611 0.79892 0.0
O183 O 0.5148 0.461 0.8373 0.0
O184 O 0.46682 0.46599 0.82694 0.0
C185 C 0.4959 0.53308 0.82464 0.0
H186 H 0.39329 0.48306 0.53503 0.0
H187 H 0.36441 0.51634 0.76552 0.0
H188 H 0.60724 0.50128 0.92273 0.0
H189 H 0.63842 0.46957 0.69139 0.0
C190 C 0.0457 0.50466 0.61338 0.0
N191 N 0.00843 0.42931 0.70867 0.0
C192 C 0.02025 0.42195 0.63363 0.0
C193 C 0.02446 0.39504 0.61985 0.0
C194 C 0.01612 0.37533 0.68317 0.0
C195 C 0.00355 0.38297 0.75962 0.0
C196 C 4e-05 0.41025 0.77134 0.0
Zn197 Zn 0.00258 0.47059 0.72337 0.0
C198 C 0.03812 0.49061 0.85092 0.0
N199 N -0.00823 0.55571 0.74786 0.0
C200 C -0.00036 0.57469 0.68494 0.0
C201 C 0.98003 0.56277 0.8234 0.0
C202 C 0.97513 0.58956 0.83695 0.0
C203 C 0.98291 0.60918 0.77286 0.0
C204 C -0.0044 0.60176 0.69651 0.0
Zn205 Zn -0.00181 0.5157 0.73028 0.0
O206 O 0.03774 0.48081 0.63502 0.0
C207 C 0.96239 0.49738 0.60345 0.0
O208 O 0.0334 0.52418 0.64675 0.0
H209 H 0.97448 0.5477 0.87372 0.0
H210 H 0.02639 0.43696 0.58367 0.0
H211 H 0.00894 0.56893 0.62538 0.0
O212 O 0.97278 0.47459 0.62785 0.0
O213 O 0.97003 0.51832 0.63426 0.0
H214 H -0.00935 0.41609 0.83076 0.0
O215 O 0.96326 0.50649 0.81141 0.0
O216 O 0.9671 0.46274 0.81008 0.0
O217 O 0.02611 0.51243 0.82606 0.0
O218 O 0.03229 0.46894 0.82026 0.0
C219 C 0.95436 0.48339 0.83586 0.0
H220 H 0.0342 0.38969 0.56 0.0
H221 H -0.00319 0.3681 0.80983 0.0
H222 H 0.96547 0.59487 0.89694 0.0
H223 H 0.00207 0.61667 0.6462 0.0
C224 C 0.14545 0.99045 0.57392 0.0
C225 C 0.17048 -0.00778 0.54238 0.0
C226 C 0.11613 0.98883 0.61179 0.0
C227 C 0.0909 0.98874 0.64249 0.0
C228 C 0.48099 0.18746 0.54278 0.0
C229 C 0.47554 0.20979 0.51408 0.0
C230 C 0.48678 0.16128 0.57782 0.0
C231 C 0.49026 0.13851 0.60628 0.0
C232 C 0.30392 0.49909 0.51901 0.0
C233 C 0.28589 0.49622 0.47002 0.0
C234 C 0.32533 0.50185 0.5759 0.0
C235 C 0.34632 0.50234 0.61679 0.0
C236 C 0.03532 0.30053 0.61954 0.0
C237 C 0.04271 0.27938 0.59444 0.0
C238 C 0.02702 0.32548 0.64845 0.0
C239 C 0.02136 0.34763 0.66883 0.0
C240 C 0.85522 -0.00189 0.8827 0.0
C241 C 0.83011 -0.00191 0.9144 0.0
C242 C 0.8847 -0.00249 0.84534 0.0
C243 C 0.90999 -0.00314 0.81475 0.0
C244 C 0.51472 0.79493 0.91406 0.0
C245 C 0.51748 0.77258 0.94657 0.0
C246 C 0.51212 0.82153 0.87839 0.0
C247 C 0.50979 0.8446 0.85141 0.0
C248 C 0.69714 0.48311 0.93982 0.0
C249 C 0.71486 0.48177 -0.00882 0.0
C250 C 0.67598 0.48383 0.88124 0.0
C251 C 0.65502 0.4837 0.84058 0.0
C252 C 0.96774 0.68497 0.82931 0.0
C253 C 0.96333 0.70607 0.85774 0.0
C254 C 0.97302 0.65936 0.80266 0.0
C255 C 0.97792 0.63679 0.78624 0.0
C256 C 0.04072 0.10913 0.57702 0.0
C257 C 0.05583 0.12844 0.5791 0.0
C258 C 0.02285 0.08646 0.58048 0.0
C259 C 0.01119 0.06519 0.59541 0.0
C260 C 0.37613 -0.00704 0.5187 0.0
C261 C 0.35143 -0.00217 0.49698 0.0
C262 C 0.40398 0.98751 0.55227 0.0
C263 C 0.42649 0.98476 0.58837 0.0
C264 C 0.48195 0.38792 0.50924 0.0
C265 C 0.47007 0.36834 0.48963 0.0
C266 C 0.49608 0.40886 0.54333 0.0
C267 C 0.50457 0.42638 0.58192 0.0
C268 C 0.10561 0.49862 0.43079 0.0
C269 C 0.12807 0.48842 0.40582 0.0
C270 C 0.0834 0.50789 0.48514 0.0
C271 C 0.06615 0.50945 0.54385 0.0
C272 C 0.96243 0.87795 0.86255 0.0
C273 C 0.95589 0.8553 0.86017 0.0
C274 C 0.97677 0.90151 0.87081 0.0
C275 C -0.01051 0.92207 0.86222 0.0
C276 C 0.62469 0.00177 0.93761 0.0
C277 C 0.64977 0.00319 0.95814 0.0
C278 C 0.59643 0.00035 0.90548 0.0
C279 C 0.5739 -0.00068 0.86995 0.0
C280 C 0.51063 0.59777 0.94475 0.0
C281 C 0.51496 0.61921 0.96902 0.0
C282 C 0.50327 0.57445 0.90899 0.0
C283 C 0.49774 0.55589 0.87077 0.0
C284 C 0.89271 0.48482 0.02062 0.0
C285 C 0.86996 0.47901 0.05775 0.0
C286 C 0.91472 0.48444 0.95748 0.0
C287 C 0.93276 0.48159 0.90203 0.0
C288 C 0.04036 0.10182 0.19525 0.0
C289 C 0.05318 0.11468 0.24015 0.0
C290 C 0.03219 0.08227 0.14449 0.0
C291 C 0.02933 0.0659 0.09559 0.0
C292 C 0.39095 -0.00233 0.03894 0.0
C293 C 0.37575 0.00457 0.09772 0.0
C294 C 0.4135 -0.00536 0.97545 0.0
C295 C 0.43398 -0.00545 0.92333 0.0
C296 C 0.47338 0.39607 0.0464 0.0
C297 C 0.4626 0.38396 0.10828 0.0
C298 C 0.48037 0.41551 -0.01965 0.0
C299 C 0.48379 0.43347 0.92644 0.0
C300 C 0.10084 0.49458 0.01142 0.0
C301 C 0.11414 0.48743 0.07058 0.0
C302 C 0.07987 0.49447 0.95244 0.0
C303 C 0.06097 0.49168 0.90606 0.0
C304 C 0.9544 0.88131 0.27484 0.0
C305 C 0.9625 0.86841 0.21795 0.0
C306 C 0.95354 0.90123 0.33109 0.0
C307 C 0.95898 0.91819 0.37588 0.0
C308 C 0.60915 -0.00719 0.41638 0.0
C309 C 0.62401 0.00141 0.35526 0.0
C310 C 0.58696 0.98734 0.48153 0.0
C311 C 0.56668 0.98601 0.5346 0.0
C312 C 0.52688 0.58582 0.41045 0.0
C313 C 0.51801 0.59876 0.35133 0.0
C314 C 0.52815 0.56584 0.47638 0.0
C315 C 0.52382 0.54799 0.53017 0.0
C316 C 0.89985 0.49346 0.44405 0.0
C317 C 0.88745 0.48241 0.39418 0.0
C318 C 0.92057 0.4991 0.49976 0.0
C319 C 0.93962 0.49927 0.54721 0.0
loop_
_geom_bond_atom_site_label_1
_geom_bond_atom_site_label_2
_geom_bond_distance
_geom_bond_site_symmetry_2
_ccdc_geom_bond_type
O0 Cd1 2.300 . S
O0 C7 1.275 . S
Cd1 O0 2.300 . S
Cd1 O9 2.381 . S
Cd1 O10 2.378 . S
O2 Cd3 2.385 . S
O2 C7 1.255 . S
Cd3 O2 2.385 . S
Cd3 O4 2.317 . S
O4 Cd3 2.317 . S
O4 C5 1.232 . S
C5 O4 1.232 . S
C5 O6 1.218 . S
O6 C5 1.218 . S
C7 O0 1.275 . S
C7 O2 1.255 . S
C8 O9 1.258 . S
C8 O10 1.256 . S
O9 Cd1 2.381 . S
O9 C8 1.258 . S
O10 Cd1 2.378 . S
O10 C8 1.256 . S
O11 Cd12 2.300 . S
O11 C18 1.275 . S
Cd12 O11 2.300 . S
Cd12 O20 2.381 . S
Cd12 O21 2.378 . S
O13 Cd14 2.385 1_656 S
O13 C18 1.255 . S
Cd14 O13 2.385 1_454 S
Cd14 O15 2.317 1_455 S
O15 Cd14 2.317 1_655 S
O15 C16 1.232 . S
C16 O15 1.232 . S
C16 O17 1.218 . S
O17 C16 1.218 . S
C18 O11 1.275 . S
C18 O13 1.255 . S
C19 O20 1.258 . S
C19 O21 1.256 . S
O20 Cd12 2.381 . S
O20 C19 1.258 . S
O21 Cd12 2.378 . S
O21 C19 1.256 . S
O22 Cd23 2.300 1_566 S
O22 C29 1.275 1_565 S
Cd23 O22 2.300 1_544 S
Cd23 O31 2.381 1_544 S
Cd23 O32 2.378 . S
O24 Cd25 2.385 . S
O24 C29 1.255 1_554 S
Cd25 O24 2.385 . S
Cd25 O26 2.317 . S
O26 Cd25 2.317 . S
O26 C27 1.232 . S
C27 O26 1.232 . S
C27 O28 1.218 . S
O28 C27 1.218 . S
C29 O22 1.275 1_545 S
C29 O24 1.255 1_556 S
C30 O31 1.257 1_545 S
C30 O32 1.256 1_556 S
O31 Cd23 2.381 1_566 S
O31 C30 1.257 1_565 S
O32 Cd23 2.378 . S
O32 C30 1.256 1_554 S
O33 Cd34 2.300 1_556 S
O33 C40 1.275 1_556 S
Cd34 O33 2.300 1_554 S
Cd34 O42 2.381 1_554 S
Cd34 O43 2.378 . S
O35 Cd36 2.385 . S
O35 C40 1.255 . S
Cd36 O35 2.385 . S
Cd36 O37 2.317 . S
O37 Cd36 2.317 . S
O37 C38 1.232 . S
C38 O37 1.232 . S
C38 O39 1.218 . S
O39 C38 1.218 . S
C40 O33 1.275 1_554 S
C40 O35 1.255 . S
C41 O42 1.258 1_554 S
C41 O43 1.256 . S
O42 Cd34 2.381 1_556 S
O42 C41 1.258 1_556 S
O43 Cd34 2.378 . S
O43 C41 1.256 . S
O44 Cd45 2.300 . S
O44 C51 1.275 . S
Cd45 O44 2.300 . S
Cd45 O53 2.381 . S
Cd45 O54 2.378 . S
O46 Cd47 2.385 . S
O46 C51 1.255 . S
Cd47 O46 2.385 . S
Cd47 O48 2.317 . S
O48 Cd47 2.317 . S
O48 C49 1.232 . S
C49 O48 1.232 . S
C49 O50 1.218 . S
O50 C49 1.218 . S
C51 O44 1.275 . S
C51 O46 1.255 . S
C52 O53 1.258 . S
C52 O54 1.256 . S
O53 Cd45 2.381 . S
O53 C52 1.258 . S
O54 Cd45 2.378 . S
O54 C52 1.256 . S
O55 Cd56 2.300 . S
O55 C62 1.275 . S
Cd56 O55 2.300 . S
Cd56 O64 2.381 . S
Cd56 O65 2.378 . S
O57 Cd58 2.385 . S
O57 C62 1.255 . S
Cd58 O57 2.385 . S
Cd58 O59 2.317 . S
O59 Cd58 2.317 . S
O59 C60 1.232 . S
C60 O59 1.232 . S
C60 O61 1.218 . S
O61 C60 1.218 . S
C62 O55 1.275 . S
C62 O57 1.255 . S
C63 O64 1.258 . S
C63 O65 1.256 . S
O64 Cd56 2.381 . S
O64 C63 1.258 . S
O65 Cd56 2.378 . S
O65 C63 1.256 . S
O66 Cd67 2.300 1_565 S
O66 C73 1.275 1_565 S
Cd67 O66 2.300 1_545 S
Cd67 O75 2.381 1_545 S
Cd67 O76 2.378 . S
O68 Cd69 2.385 . S
O68 C73 1.255 . S
Cd69 O68 2.385 . S
Cd69 O70 2.317 . S
O70 Cd69 2.317 . S
O70 C71 1.232 . S
C71 O70 1.232 . S
C71 O72 1.218 . S
O72 C71 1.218 . S
C73 O66 1.275 1_545 S
C73 O68 1.255 . S
C74 O75 1.258 1_545 S
C74 O76 1.256 . S
O75 Cd67 2.381 1_565 S
O75 C74 1.258 1_565 S
O76 Cd67 2.378 . S
O76 C74 1.256 . S
O77 Cd78 2.300 . S
O77 C84 1.275 . S
Cd78 O77 2.300 . S
Cd78 O86 2.381 . S
Cd78 O87 2.378 . S
O79 Cd80 2.385 . S
O79 C84 1.255 . S
Cd80 O79 2.385 . S
Cd80 O81 2.317 . S
O81 Cd80 2.317 . S
O81 C82 1.232 . S
C82 O81 1.232 . S
C82 O83 1.218 . S
O83 C82 1.218 . S
C84 O77 1.275 . S
C84 O79 1.255 . S
C85 O86 1.258 . S
C85 O87 1.256 . S
O86 Cd78 2.381 . S
O86 C85 1.258 . S
O87 Cd78 2.378 . S
O87 C85 1.256 . S
C88 O104 1.251 . S
C88 O106 1.254 . S
N89 C90 1.333 1_655 S
N89 C94 1.307 . S
N89 Zn95 2.020 1_655 S
C90 N89 1.333 1_455 S
C90 C91 1.379 1_455 S
C90 H108 0.952 . S
C91 C90 1.379 1_655 S
C91 C92 1.390 . S
C91 H118 0.949 1_655 S
C92 C91 1.390 . S
C92 C93 1.357 . S
C93 C92 1.357 . S
C93 C94 1.370 . S
C93 H119 0.950 . S
C94 N89 1.307 . S
C94 C93 1.370 . S
C94 H112 0.948 1_565 S
Zn95 N89 2.020 1_455 S
Zn95 O104 2.039 . S
Zn95 O110 2.034 . S
Zn95 O114 2.025 1_565 S
Zn95 O116 2.024 1_455 S
C96 O115 1.246 . S
C96 O116 1.249 1_545 S
N97 C98 1.307 1_556 S
N97 C99 1.333 . S
N97 Zn103 2.020 . S
C98 N97 1.307 1_554 S
C98 C102 1.370 . S
C98 H109 0.915 1_544 S
C99 N97 1.333 . S
C99 C100 1.379 1_556 S
C99 H107 0.952 . S
C100 C99 1.379 1_554 S
C100 C101 1.390 . S
C100 H120 0.949 . S
C101 C100 1.390 . S
C101 C102 1.357 . S
C102 C98 1.370 . S
C102 C101 1.357 . S
C102 H121 0.950 . S
Zn103 N97 2.020 . S
Zn103 O106 2.025 1_545 S
Zn103 O111 2.024 . S
Zn103 O113 2.039 . S
Zn103 O115 2.034 1_455 S
O104 C88 1.251 . S
O104 Zn95 2.039 . S
C105 O110 1.246 . S
C105 O111 1.249 1_565 S
O106 C88 1.254 . S
O106 Zn103 2.025 1_565 S
H107 C99 0.952 . S
H108 C90 0.952 . S
H109 C98 0.915 1_566 S
O110 Zn95 2.034 . S
O110 C105 1.246 . S
O111 Zn103 2.024 . S
O111 C105 1.249 1_545 S
H112 C94 0.948 1_545 S
O113 Zn103 2.039 . S
O113 C117 1.251 . S
O114 Zn95 2.025 1_545 S
O114 C117 1.254 . S
O115 C96 1.246 . S
O115 Zn103 2.034 1_655 S
O116 Zn95 2.024 1_655 S
O116 C96 1.249 1_565 S
C117 O113 1.251 . S
C117 O114 1.254 . S
H118 C91 0.949 1_455 S
H119 C93 0.950 . S
H120 C100 0.949 . S
H121 C102 0.950 . S
C122 O138 1.251 1_565 S
C122 O140 1.254 . S
N123 C124 1.333 . S
N123 C128 1.307 . S
N123 Zn129 2.020 . S
C124 N123 1.333 . S
C124 C125 1.379 . S
C124 H142 0.952 . S
C125 C124 1.379 . S
C125 C126 1.390 . S
C125 H152 0.949 . S
C126 C125 1.390 . S
C126 C127 1.357 . S
C127 C126 1.357 . S
C127 C128 1.370 . S
C127 H153 0.950 . S
C128 N123 1.307 . S
C128 C127 1.370 . S
C128 H146 0.948 . S
Zn129 N123 2.020 . S
Zn129 O138 2.039 . S
Zn129 O144 2.034 . S
Zn129 O148 2.025 . S
Zn129 O150 2.024 . S
C130 O149 1.246 1_545 S
C130 O150 1.249 . S
N131 C132 1.307 . S
N131 C133 1.333 . S
N131 Zn137 2.020 . S
C132 N131 1.307 . S
C132 C136 1.370 . S
C132 H143 0.948 . S
C133 N131 1.333 . S
C133 C134 1.379 . S
C133 H141 0.952 . S
C134 C133 1.379 . S
C134 C135 1.390 . S
C134 H154 0.949 . S
C135 C134 1.390 . S
C135 C136 1.357 . S
C136 C132 1.370 . S
C136 C135 1.357 . S
C136 H155 0.950 . S
Zn137 N131 2.020 . S
Zn137 O140 2.025 . S
Zn137 O145 2.024 . S
Zn137 O147 2.039 . S
Zn137 O149 2.034 . S
O138 C122 1.251 1_545 S
O138 Zn129 2.039 . S
C139 O144 1.246 1_565 S
C139 O145 1.249 . S
O140 C122 1.254 . S
O140 Zn137 2.025 . S
H141 C133 0.952 . S
H142 C124 0.952 . S
H143 C132 0.948 . S
O144 Zn129 2.034 . S
O144 C139 1.246 1_545 S
O145 Zn137 2.024 . S
O145 C139 1.249 . S
H146 C128 0.948 . S
O147 Zn137 2.039 . S
O147 C151 1.251 1_565 S
O148 Zn129 2.025 . S
O148 C151 1.254 . S
O149 C130 1.246 1_565 S
O149 Zn137 2.034 . S
O150 Zn129 2.024 . S
O150 C130 1.249 . S
C151 O147 1.251 1_545 S
C151 O148 1.254 . S
H152 C125 0.949 . S
H153 C127 0.950 . S
H154 C134 0.949 . S
H155 C136 0.950 . S
C156 O172 1.251 . S
C156 O174 1.254 . S
N157 C158 1.333 . S
N157 C162 1.307 . S
N157 Zn163 2.020 . S
C158 N157 1.333 . S
C158 C159 1.379 . S
C158 H176 0.952 . S
C159 C158 1.379 . S
C159 C160 1.390 . S
C159 H186 0.949 . S
C160 C159 1.390 . S
C160 C161 1.357 . S
C161 C160 1.357 . S
C161 C162 1.370 . S
C161 H187 0.950 . S
C162 N157 1.307 . S
C162 C161 1.370 . S
C162 H180 0.948 . S
Zn163 N157 2.020 . S
Zn163 O172 2.039 . S
Zn163 O178 2.034 . S
Zn163 O182 2.025 . S
Zn163 O184 2.024 . S
C164 O183 1.246 . S
C164 O184 1.249 . S
N165 C166 1.307 . S
N165 C167 1.333 . S
N165 Zn171 2.020 . S
C166 N165 1.307 . S
C166 C170 1.370 . S
C166 H177 0.948 . S
C167 N165 1.333 . S
C167 C168 1.379 . S
C167 H175 0.952 . S
C168 C167 1.379 . S
C168 C169 1.390 . S
C168 H188 0.949 . S
C169 C168 1.390 . S
C169 C170 1.357 . S
C170 C166 1.370 . S
C170 C169 1.357 . S
C170 H189 0.950 . S
Zn171 N165 2.020 . S
Zn171 O174 2.025 . S
Zn171 O179 2.024 . S
Zn171 O181 2.039 . S
Zn171 O183 2.034 . S
O172 C156 1.251 . S
O172 Zn163 2.039 . S
C173 O178 1.246 . S
C173 O179 1.249 . S
O174 C156 1.254 . S
O174 Zn171 2.025 . S
H175 C167 0.952 . S
H176 C158 0.952 . S
H177 C166 0.948 . S
O178 Zn163 2.034 . S
O178 C173 1.246 . S
O179 Zn171 2.024 . S
O179 C173 1.249 . S
H180 C162 0.948 . S
O181 Zn171 2.039 . S
O181 C185 1.251 . S
O182 Zn163 2.025 . S
O182 C185 1.254 . S
O183 C164 1.246 . S
O183 Zn171 2.034 . S
O184 Zn163 2.024 . S
O184 C164 1.249 . S
C185 O181 1.251 . S
C185 O182 1.254 . S
H186 C159 0.949 . S
H187 C161 0.950 . S
H188 C168 0.949 . S
H189 C170 0.950 . S
C190 O206 1.251 . S
C190 O208 1.254 . S
N191 C192 1.333 . S
N191 C196 1.307 . S
N191 Zn197 2.020 . S
C192 N191 1.333 . S
C192 C193 1.379 . S
C192 H210 0.952 . S
C193 C192 1.379 . S
C193 C194 1.390 . S
C193 H220 0.949 . S
C194 C193 1.390 . S
C194 C195 1.357 . S
C195 C194 1.357 . S
C195 C196 1.370 . S
C195 H221 0.950 . S
C196 N191 1.307 . S
C196 C195 1.370 . S
C196 H214 0.948 . S
Zn197 N191 2.020 . S
Zn197 O206 2.039 . S
Zn197 O212 2.034 1_455 S
Zn197 O216 2.025 1_455 S
Zn197 O218 2.024 . S
C198 O217 1.246 . S
C198 O218 1.249 . S
N199 C200 1.307 . S
N199 C201 1.333 1_455 S
N199 Zn205 2.020 . S
C200 N199 1.307 . S
C200 C204 1.370 . S
C200 H211 0.948 . S
C201 N199 1.333 1_655 S
C201 C202 1.379 . S
C201 H209 0.952 . S
C202 C201 1.379 . S
C202 C203 1.394 . S
C202 H222 0.949 . S
C203 C202 1.394 . S
C203 C204 1.352 1_655 S
C204 C200 1.370 . S
C204 C203 1.352 1_455 S
C204 H223 0.950 . S
Zn205 N199 2.020 . S
Zn205 O208 2.025 . S
Zn205 O213 2.024 1_455 S
Zn205 O215 2.039 1_455 S
Zn205 O217 2.034 . S
O206 C190 1.251 . S
O206 Zn197 2.039 . S
C207 O212 1.246 . S
C207 O213 1.249 . S
O208 C190 1.254 . S
O208 Zn205 2.025 . S
H209 C201 0.952 . S
H210 C192 0.952 . S
H211 C200 0.948 . S
O212 Zn197 2.034 1_655 S
O212 C207 1.246 . S
O213 Zn205 2.024 1_655 S
O213 C207 1.249 . S
H214 C196 0.948 . S
O215 Zn205 2.039 1_655 S
O215 C219 1.251 . S
O216 Zn197 2.025 1_655 S
O216 C219 1.254 . S
O217 C198 1.246 . S
O217 Zn205 2.034 . S
O218 Zn197 2.024 . S
O218 C198 1.249 . S
C219 O215 1.251 . S
C219 O216 1.254 . S
H220 C193 0.949 . S
H221 C195 0.950 . S
H222 C202 0.949 . S
H223 C204 0.950 . S
C224 C225 1.170 . S
C224 C226 1.380 . S
C225 C224 1.170 . S
C226 C224 1.380 . S
C226 C227 1.170 . S
C227 C226 1.170 . S
C228 C229 1.170 . S
C228 C230 1.380 . S
C229 C228 1.170 . S
C230 C228 1.380 . S
C230 C231 1.170 . S
C231 C230 1.170 . S
C232 C233 1.170 . S
C232 C234 1.380 . S
C233 C232 1.170 . S
C234 C232 1.380 . S
C234 C235 1.170 . S
C235 C234 1.170 . S
C236 C237 1.170 . S
C236 C238 1.380 . S
C237 C236 1.170 . S
C238 C236 1.380 . S
C238 C239 1.170 . S
C239 C238 1.170 . S
C240 C241 1.170 . S
C240 C242 1.380 . S
C241 C240 1.170 . S
C242 C240 1.380 . S
C242 C243 1.170 . S
C243 C242 1.170 . S
C244 C245 1.170 . S
C244 C246 1.380 . S
C245 C244 1.170 . S
C246 C244 1.380 . S
C246 C247 1.170 . S
C247 C246 1.170 . S
C248 C249 1.170 1_556 S
C248 C250 1.380 . S
C249 C248 1.170 1_554 S
C250 C248 1.380 . S
C250 C251 1.170 . S
C251 C250 1.170 . S
C252 C253 1.170 . S
C252 C254 1.380 . S
C253 C252 1.170 . S
C254 C252 1.380 . S
C254 C255 1.170 . S
C255 C254 1.170 . S
C256 C257 1.170 . S
C256 C258 1.380 . S
C257 C256 1.170 . S
C258 C256 1.380 . S
C258 C259 1.170 . S
C259 C258 1.170 . S
C260 C261 1.170 1_565 S
C260 C262 1.382 . S
C261 C260 1.170 1_545 S
C262 C260 1.382 . S
C262 C263 1.170 . S
C263 C262 1.170 . S
C264 C265 1.170 . S
C264 C266 1.380 . S
C265 C264 1.170 . S
C266 C264 1.380 . S
C266 C267 1.170 . S
C267 C266 1.170 . S
C268 C269 1.170 . S
C268 C270 1.380 . S
C269 C268 1.170 . S
C270 C268 1.380 . S
C270 C271 1.170 . S
C271 C270 1.170 . S
C272 C273 1.170 . S
C272 C274 1.380 . S
C273 C272 1.170 . S
C274 C272 1.380 . S
C274 C275 1.170 1_655 S
C275 C274 1.170 1_455 S
C276 C277 1.170 . S
C276 C278 1.380 . S
C277 C276 1.170 . S
C278 C276 1.380 . S
C278 C279 1.170 . S
C279 C278 1.170 . S
C280 C281 1.170 . S
C280 C282 1.380 . S
C281 C280 1.170 . S
C282 C280 1.380 . S
C282 C283 1.170 . S
C283 C282 1.170 . S
C284 C285 1.170 1_556 S
C284 C286 1.380 . S
C285 C284 1.170 1_554 S
C286 C284 1.380 . S
C286 C287 1.170 . S
C287 C286 1.170 . S
C288 C289 1.170 . S
C288 C290 1.380 . S
C289 C288 1.170 . S
C290 C288 1.380 . S
C290 C291 1.170 . S
C291 C290 1.170 . S
C292 C293 1.170 . S
C292 C294 1.380 . S
C293 C292 1.170 . S
C294 C292 1.380 . S
C294 C295 1.170 1_554 S
C295 C294 1.170 1_556 S
C296 C297 1.170 . S
C296 C298 1.380 . S
C297 C296 1.170 . S
C298 C296 1.380 . S
C298 C299 1.170 1_554 S
C299 C298 1.170 1_556 S
C300 C301 1.170 . S
C300 C302 1.380 1_554 S
C301 C300 1.170 . S
C302 C300 1.380 1_556 S
C302 C303 1.170 . S
C303 C302 1.170 . S
C304 C305 1.170 . S
C304 C306 1.380 . S
C305 C304 1.170 . S
C306 C304 1.380 . S
C306 C307 1.170 . S
C307 C306 1.170 . S
C308 C309 1.172 . S
C308 C310 1.382 1_545 S
C309 C308 1.172 . S
C310 C308 1.382 1_565 S
C310 C311 1.171 . S
C311 C310 1.171 . S
C312 C313 1.170 . S
C312 C314 1.380 . S
C313 C312 1.170 . S
C314 C312 1.380 . S
C314 C315 1.170 . S
C315 C314 1.170 . S
C316 C317 1.170 . S
C316 C318 1.380 . S
C317 C316 1.170 . S
C318 C316 1.380 . S
C318 C319 1.170 . S
C319 C318 1.170 . S
C225 C74 1.831 1_565 S
C227 C105 1.839 . S
C231 C126 1.523 . S
C229 C85 1.526 . S
C235 C160 1.383 . S
C233 C52 1.408 . S
C239 C194 1.559 . S
C237 C63 1.574 . S
C243 C96 1.841 . S
C241 C30 1.810 . S
C245 C41 1.490 1_556 S
C247 C135 1.533 . S
C249 C8 1.406 . S
C251 C169 1.379 . S
C253 C19 1.531 . S
C255 C203 1.568 . S
C259 C117 0.823 . S
C257 C62 0.876 . S
C263 C122 1.249 . S
C261 C73 1.235 . S
C267 C156 1.175 . S
C265 C84 1.185 . S
C269 C51 0.578 . S
C271 C190 0.557 . S
C273 C18 0.848 . S
C275 C88 0.843 . S
C279 C151 1.249 . S
C277 C29 1.222 . S
C283 C185 1.151 . S
C281 C40 1.143 1_556 S
C285 C7 0.596 . S
C287 C219 0.581 . S
C289 C60 1.206 . S
C291 C101 1.329 . S
C293 C71 1.436 . S
C295 C130 1.752 . S
C299 C164 1.530 . S
C297 C82 1.336 . S
C303 C198 1.593 . S
C301 C49 1.288 . S
C305 C16 1.067 . S
C307 C92 1.330 . S
C311 C139 1.751 . S
C309 C27 1.475 . S
C315 C173 1.533 . S
C313 C38 1.289 . S
C317 C5 1.373 . S
C319 C207 1.592 . S
