# Generated by pormake.
# Topology hwx, (6,3)-cn, num edge types: 1
# Building blocks:
#     Node 0, Type 0, BuildingBlock: IZENUY_clean_sbu_0, # of connection points: 6
#     Node 1, Type 0, BuildingBlock: IZENUY_clean_sbu_0, # of connection points: 6
#     Node 2, Type 0, BuildingBlock: IZENUY_clean_sbu_0, # of connection points: 6
#     Node 3, Type 0, BuildingBlock: IZENUY_clean_sbu_0, # of connection points: 6
#     Node 4, Type 1, BuildingBlock: OLANEW_clean_sbu_2, # of connection points: 3
#     Node 5, Type 1, BuildingBlock: OLANEW_clean_sbu_2, # of connection points: 3
#     Node 6, Type 1, BuildingBlock: OLANEW_clean_sbu_2, # of connection points: 3
#     Node 7, Type 1, BuildingBlock: OLANEW_clean_sbu_2, # of connection points: 3
#     Node 8, Type 1, BuildingBlock: OLANEW_clean_sbu_2, # of connection points: 3
#     Node 9, Type 1, BuildingBlock: OLANEW_clean_sbu_2, # of connection points: 3
#     Node 10, Type 1, BuildingBlock: OLANEW_clean_sbu_2, # of connection points: 3
#     Node 11, Type 1, BuildingBlock: OLANEW_clean_sbu_2, # of connection points: 3
#     Edge 12, Type (0, 1), BuildingBlock: UVAHIK_clean_linker_0, # of connection points: 2
#     Edge 13, Type (0, 1), BuildingBlock: UVAHIK_clean_linker_0, # of connection points: 2
#     Edge 14, Type (0, 1), BuildingBlock: UVAHIK_clean_linker_0, # of connection points: 2
#     Edge 15, Type (0, 1), BuildingBlock: UVAHIK_clean_linker_0, # of connection points: 2
#     Edge 16, Type (0, 1), BuildingBlock: UVAHIK_clean_linker_0, # of connection points: 2
#     Edge 17, Type (0, 1), BuildingBlock: UVAHIK_clean_linker_0, # of connection points: 2
#     Edge 18, Type (0, 1), BuildingBlock: UVAHIK_clean_linker_0, # of connection points: 2
#     Edge 19, Type (0, 1), BuildingBlock: UVAHIK_clean_linker_0, # of connection points: 2
#     Edge 20, Type (0, 1), BuildingBlock: UVAHIK_clean_linker_0, # of connection points: 2
#     Edge 21, Type (0, 1), BuildingBlock: UVAHIK_clean_linker_0, # of connection points: 2
#     Edge 22, Type (0, 1), BuildingBlock: UVAHIK_clean_linker_0, # of connection points: 2
#     Edge 23, Type (0, 1), BuildingBlock: UVAHIK_clean_linker_0, # of connection points: 2
#     Edge 24, Type (0, 1), BuildingBlock: UVAHIK_clean_linker_0, # of connection points: 2
#     Edge 25, Type (0, 1), BuildingBlock: UVAHIK_clean_linker_0, # of connection points: 2
#     Edge 26, Type (0, 1), BuildingBlock: UVAHIK_clean_linker_0, # of connection points: 2
#     Edge 27, Type (0, 1), BuildingBlock: UVAHIK_clean_linker_0, # of connection points: 2
#     Edge 28, Type (0, 1), BuildingBlock: UVAHIK_clean_linker_0, # of connection points: 2
#     Edge 29, Type (0, 1), BuildingBlock: UVAHIK_clean_linker_0, # of connection points: 2
#     Edge 30, Type (0, 1), BuildingBlock: UVAHIK_clean_linker_0, # of connection points: 2
#     Edge 31, Type (0, 1), BuildingBlock: UVAHIK_clean_linker_0, # of connection points: 2
#     Edge 32, Type (0, 1), BuildingBlock: UVAHIK_clean_linker_0, # of connection points: 2
#     Edge 33, Type (0, 1), BuildingBlock: UVAHIK_clean_linker_0, # of connection points: 2
#     Edge 34, Type (0, 1), BuildingBlock: UVAHIK_clean_linker_0, # of connection points: 2
#     Edge 35, Type (0, 1), BuildingBlock: UVAHIK_clean_linker_0, # of connection points: 2
# Relax obj value: 0.014
# Max RMSD: 0.071
# Mean RMSD: 0.062
data_MOF--net-hwx--node1-IZENUY_clean_sbu_0--node2-OLANEW_clean_sbu_2--edge1-UVAHIK_clean_linker_0
_symmetry_space_group_name_H-M    P1
_symmetry_Int_Tables_number       1
_symmetry_cell_setting            triclinic
loop_
_symmetry_equiv_pos_as_xyz
'x, y, z'
_cell_length_a     69.508351
_cell_length_b     69.151334
_cell_length_c     28.836506
_cell_angle_alpha  85.966715
_cell_angle_beta   93.992477
_cell_angle_gamma 89.983892
loop_
_atom_site_label
_atom_site_type_symbol
_atom_site_fract_x
_atom_site_fract_y
_atom_site_fract_z
_atom_type_partial_charge
Fe0 Fe 0.23368 0.20997 0.05678 0.0
Fe1 Fe 0.23002 0.20975 0.95014 0.0
O2 O 0.22463 0.19933 0.0056 0.0
Fe3 Fe 0.2102 0.17822 0.00951 0.0
O4 O 0.19905 0.18429 0.06253 0.0
O5 O 0.20966 0.21347 0.0755 0.0
O6 O 0.23211 0.23505 0.03044 0.0
C7 C 0.22254 0.24233 0.99428 0.0
C8 C 0.23768 0.16943 0.08037 0.0
O9 O 0.21831 0.23229 0.96018 0.0
C10 C 0.23437 0.17131 0.93748 0.0
O11 O 0.25839 0.2072 0.04215 0.0
O12 O 0.25386 0.2189 0.96954 0.0
O13 O 0.22925 0.1645 0.04291 0.0
O14 O 0.23685 0.18677 0.09193 0.0
C15 C 0.19097 0.19855 0.93604 0.0
O16 O 0.24212 0.1878 0.93704 0.0
O17 O 0.21884 0.16817 0.95726 0.0
C18 C 0.26506 0.21394 0.00489 0.0
O19 O 0.20713 0.20266 0.92014 0.0
O20 O 0.19012 0.19056 0.9765 0.0
C21 C 0.19751 0.20016 0.08141 0.0
Fe22 Fe 0.26195 0.71714 0.60397 0.0
Fe23 Fe 0.28162 0.68647 0.55061 0.0
O24 O 0.26741 0.70779 0.55062 0.0
Fe25 Fe 0.25864 0.71984 0.49705 0.0
O26 O 0.25932 0.7442 0.51843 0.0
O27 O 0.27335 0.74017 0.58896 0.0
O28 O 0.28492 0.70959 0.63535 0.0
C29 C 0.30094 0.70493 0.62078 0.0
C30 C 0.22697 0.72194 0.54742 0.0
O31 O 0.3017 0.69741 0.58238 0.0
C32 C 0.25497 0.68014 0.47923 0.0
O33 O 0.25022 0.69485 0.62302 0.0
O34 O 0.27264 0.67495 0.60422 0.0
O35 O 0.2339 0.71631 0.51138 0.0
O36 O 0.23793 0.72631 0.5821 0.0
C37 C 0.29506 0.71076 0.4761 0.0
O38 O 0.26257 0.67392 0.51846 0.0
O39 O 0.25628 0.69782 0.46541 0.0
C40 C 0.25779 0.67819 0.62564 0.0
O41 O 0.29318 0.6942 0.49706 0.0
O42 O 0.28285 0.72404 0.47916 0.0
C43 C 0.26883 0.75091 0.55266 0.0
Fe44 Fe 0.77907 0.79136 0.94409 0.0
Fe45 Fe 0.77989 0.78775 0.05073 0.0
O46 O 0.78599 0.80056 -0.00148 0.0
Fe47 Fe 0.79901 0.82256 0.00043 0.0
O48 O 0.77977 0.83593 0.96651 0.0
O49 O 0.77629 0.81529 0.91215 0.0
O50 O 0.75379 0.79288 0.95473 0.0
C51 C 0.74641 0.78455 0.98948 0.0
C52 C 0.81568 0.80326 0.92951 0.0
O53 O 0.75683 0.77865 0.02558 0.0
C54 C 0.81797 0.80081 0.07229 0.0
O55 O 0.78049 0.76562 0.96564 0.0
O56 O 0.79282 0.76633 0.03758 0.0
O57 O 0.8121 0.81875 0.94844 0.0
O58 O 0.80396 0.78934 0.93048 0.0
C59 C 0.77337 0.82488 0.07259 0.0
O60 O 0.80189 0.7945 0.08498 0.0
O61 O 0.81907 0.81073 0.03423 0.0
C62 C 0.78926 0.75728 0.00159 0.0
O63 O 0.7665 0.80823 0.0678 0.0
O64 O 0.78847 0.83021 0.05309 0.0
C65 C 0.77337 0.8319 0.92636 0.0
Fe66 Fe 0.69453 0.32675 0.50618 0.0
Fe67 Fe 0.71408 0.2937 0.56872 0.0
O68 O 0.70814 0.30492 0.51249 0.0
Fe69 Fe 0.71581 0.29429 0.46275 0.0
O70 O 0.71895 0.31753 0.42893 0.0
O71 O 0.71357 0.33966 0.4777 0.0
O72 O 0.70466 0.33597 0.56094 0.0
C73 C 0.72032 0.33174 0.58468 0.0
C74 C 0.6791 0.30558 0.4318 0.0
O75 O 0.72729 0.31485 0.58624 0.0
C76 C 0.70489 0.26187 0.52116 0.0
O77 O 0.67448 0.31532 0.53419 0.0
O78 O 0.69204 0.30156 0.5937 0.0
O79 O 0.69113 0.29186 0.4391 0.0
O80 O 0.68202 0.32151 0.45027 0.0
C81 C 0.74804 0.28856 0.52189 0.0
O82 O 0.7013 0.27184 0.55453 0.0
O83 O 0.7141 0.26912 0.4877 0.0
C84 C 0.67577 0.30667 0.57423 0.0
O85 O 0.73719 0.28368 0.55418 0.0
O86 O 0.74102 0.29598 0.48319 0.0
C87 C 0.721 0.33462 0.44175 0.0
O88 O 0.17844 0.50844 0.90256 0.0
Cd89 Cd 0.16045 0.48395 0.94709 0.0
O90 O 0.17999 0.52448 0.96539 0.0
Cd91 Cd 0.18845 0.54749 0.01097 0.0
O92 O 0.19581 0.56587 0.06822 0.0
C93 C 0.20147 0.55794 0.10795 0.0
O94 O 0.2029 0.53895 0.1132 0.0
C95 C 0.18356 0.52352 0.92292 0.0
C96 C 0.17431 0.44598 0.94935 0.0
O97 O 0.16219 0.45268 0.91661 0.0
O98 O 0.18024 0.45739 0.98043 0.0
O99 O 0.96743 0.77064 0.46665 0.0
Cd100 Cd 0.98397 0.76906 0.54452 0.0
O101 O 0.97424 0.8013 0.4498 0.0
Cd102 Cd 0.98289 0.805 0.52268 0.0
O103 O 0.97162 0.80547 0.59136 0.0
C104 C 0.9565 0.79539 0.59605 0.0
O105 O 0.94961 0.78576 0.5609 0.0
C106 C 0.96699 0.78539 0.43759 0.0
C107 C 0.02315 0.76096 0.54326 0.0
O108 O 0.01087 0.74728 0.54834 0.0
O109 O 0.01687 0.77846 0.53863 0.0
O110 O 0.78271 0.48977 0.09563 0.0
Cd111 Cd 0.78395 0.50901 0.02108 0.0
O112 O 0.80075 0.46678 0.07188 0.0
Cd113 Cd 0.80186 0.47888 0.00023 0.0
O114 O 0.79581 0.47113 0.92865 0.0
C115 C 0.80432 0.45602 0.9176 0.0
O116 O 0.81703 0.44736 0.94803 0.0
C117 C 0.79134 0.47352 0.10348 0.0
C118 C 0.78789 0.549 0.02715 0.0
O119 O 0.77127 0.54095 0.02667 0.0
O120 O 0.80272 0.53808 0.02572 0.0
O121 O 0.00482 0.20783 0.63101 0.0
Cd122 Cd 0.97973 0.20136 0.57025 0.0
O123 O 0.0238 0.21088 0.57382 0.0
Cd124 Cd 0.0502 0.21284 0.53661 0.0
O125 O 0.07115 0.21389 0.48347 0.0
C126 C 0.06931 0.2017 0.45249 0.0
O127 O 0.05533 0.18895 0.45461 0.0
C128 C 0.02166 0.21054 0.61736 0.0
C129 C 0.94461 0.22064 0.57254 0.0
O130 O 0.9482 0.20473 0.59721 0.0
O131 O 0.95786 0.22775 0.54776 0.0
O132 O 0.67939 0.99437 0.61628 0.0
Cd133 Cd 0.66 0.01682 0.5624 0.0
O134 O 0.68753 0.9799 0.55547 0.0
Cd135 Cd 0.70201 0.95945 0.51447 0.0
O136 O 0.71378 0.94311 0.4605 0.0
C137 C 0.70458 0.92881 0.44479 0.0
O138 O 0.68825 0.9237 0.4624 0.0
C139 C 0.68825 0.98065 0.59955 0.0
C140 C 0.67026 0.05588 0.56216 0.0
O141 O 0.65841 0.04856 0.59061 0.0
O142 O 0.67763 0.04461 0.53462 0.0
O143 O 0.52412 0.27247 0.0579 0.0
Cd144 Cd 0.5061 0.26842 0.98314 0.0
O145 O 0.5211 0.30423 0.05233 0.0
Cd146 Cd 0.51049 0.30443 0.97931 0.0
O147 O 0.52028 0.30259 0.90942 0.0
C148 C 0.53487 0.29163 0.90793 0.0
O149 O 0.54172 0.28212 0.94663 0.0
C150 C 0.52689 0.28871 0.07541 0.0
C151 C 0.46736 0.25922 0.99185 0.0
O152 O 0.48018 0.24589 0.99191 0.0
O153 O 0.4729 0.27691 0.98811 0.0
O154 O 0.29751 0.01633 0.45747 0.0
Cd155 Cd 0.30209 0.99811 0.53367 0.0
O156 O 0.31925 0.03767 0.47881 0.0
Cd157 Cd 0.32283 0.02689 0.55177 0.0
O158 O 0.31885 0.03576 0.62155 0.0
C159 C 0.30242 0.03387 0.63803 0.0
O160 O 0.28875 0.02483 0.61443 0.0
C161 C 0.30731 0.03146 0.44792 0.0
C162 C 0.2969 0.95805 0.53289 0.0
O163 O 0.28275 0.9694 0.53816 0.0
O164 O 0.31345 0.96568 0.52709 0.0
O165 O 0.48598 0.71951 0.92533 0.0
Cd166 Cd 0.50895 0.7219 0.99273 0.0
O167 O 0.46652 0.72501 0.97897 0.0
Cd168 Cd 0.4398 0.72772 0.01367 0.0
O169 O 0.41923 0.72863 0.06717 0.0
C170 C 0.42179 0.71652 0.10228 0.0
O171 O 0.43614 0.70407 0.10371 0.0
C172 C 0.46888 0.72198 0.93672 0.0
C173 C 0.54672 0.73089 0.97388 0.0
O174 O 0.54156 0.71325 0.98197 0.0
O175 O 0.53387 0.74422 0.97344 0.0
C176 C 0.18327 0.21751 0.14475 0.0
C177 C 0.18277 0.20201 0.11562 0.0
C178 C 0.17039 0.21823 0.17976 0.0
C179 C 0.1398 0.18607 0.25096 0.0
H180 H 0.11741 0.23423 0.28356 0.0
C181 C 0.08071 0.18798 0.38114 0.0
C182 C 0.08235 0.20208 0.41396 0.0
C183 C 0.09279 0.18838 0.34437 0.0
C184 C 0.12371 0.2207 0.27512 0.0
H185 H 0.1677 0.17562 0.09904 0.0
H186 H 0.14506 0.17709 0.15936 0.0
H187 H 0.13825 0.23449 0.21873 0.0
H188 H 0.09798 0.22772 0.43383 0.0
H189 H 0.11915 0.22836 0.36959 0.0
H190 H 0.12522 0.17227 0.30718 0.0
C191 C 0.15572 0.18843 0.15598 0.0
C192 C 0.13564 0.22084 0.23799 0.0
C193 C 0.16864 0.18765 0.12117 0.0
C194 C 0.09634 0.21663 0.40914 0.0
C195 C 0.10839 0.21708 0.37219 0.0
C196 C 0.12783 0.18593 0.28791 0.0
C197 C 0.15666 0.20352 0.18626 0.0
C198 C 0.1438 0.20351 0.22541 0.0
C199 C 0.10676 0.20293 0.33945 0.0
C200 C 0.11962 0.20322 0.30038 0.0
H201 H 0.19398 0.22881 0.14146 0.0
H202 H 0.17161 0.22999 0.20267 0.0
H203 H 0.14616 0.17252 0.24291 0.0
H204 H 0.07005 0.1766 0.38372 0.0
H205 H 0.09102 0.17741 0.31941 0.0
C206 C 0.23705 0.66674 0.69 0.0
C207 C 0.25021 0.66256 0.65715 0.0
C208 C 0.23037 0.65201 0.72051 0.0
C209 C 0.24172 0.60159 0.76905 0.0
H210 H 0.18875 0.60247 0.80309 0.0
C211 C 0.20441 0.5359 0.86021 0.0
C212 C 0.19298 0.53965 0.8969 0.0
C213 C 0.21223 0.55116 0.83327 0.0
C214 C 0.20364 0.60214 0.79429 0.0
H215 H 0.26631 0.63952 0.62994 0.0
H216 H 0.25427 0.61382 0.68204 0.0
H217 H 0.20034 0.62841 0.75067 0.0
H218 H 0.18032 0.56235 0.93327 0.0
H219 H 0.19408 0.58902 0.88645 0.0
H220 H 0.24477 0.575 0.81186 0.0
C221 C 0.2495 0.62853 0.68527 0.0
C222 C 0.21033 0.61704 0.76429 0.0
C223 C 0.25632 0.64328 0.65511 0.0
C224 C 0.18953 0.55898 0.90616 0.0
C225 C 0.19716 0.57426 0.87888 0.0
C226 C 0.23497 0.5866 0.79866 0.0
C227 C 0.23652 0.6327 0.71862 0.0
C228 C 0.22945 0.61695 0.75114 0.0
C229 C 0.20849 0.57051 0.84196 0.0
C230 C 0.21585 0.5867 0.81155 0.0
H231 H 0.23211 0.68145 0.69269 0.0
H232 H 0.22061 0.65585 0.7461 0.0
H233 H 0.25663 0.60119 0.76053 0.0
H234 H 0.20718 0.52114 0.85209 0.0
H235 H 0.22074 0.54783 0.80476 0.0
C236 C 0.85191 0.80941 0.09765 0.0
C237 C 0.83549 0.79792 0.10421 0.0
C238 C 0.86825 0.80711 0.1286 0.0
C239 C 0.89362 0.77305 0.21483 0.0
H240 H 0.91342 0.81911 0.27048 0.0
C241 C 0.94314 0.76951 0.38375 0.0
C242 C 0.95617 0.78465 0.39172 0.0
C243 C 0.93071 0.7702 0.34348 0.0
C244 C 0.90844 0.80612 0.25462 0.0
H245 H 0.82358 0.77461 0.14754 0.0
H246 H 0.8523 0.77046 0.20132 0.0
H247 H 0.88725 0.82204 0.20983 0.0
H248 H 0.96734 0.81171 0.36216 0.0
H249 H 0.94618 0.81257 0.29099 0.0
H250 H 0.91484 0.75707 0.25923 0.0
C251 C 0.85241 0.78128 0.17229 0.0
C252 C 0.89334 0.80783 0.22002 0.0
C253 C 0.83595 0.78377 0.14174 0.0
C254 C 0.95732 0.79991 0.35724 0.0
C255 C 0.94506 0.80048 0.31661 0.0
C256 C 0.90893 0.77135 0.24899 0.0
C257 C 0.86863 0.79308 0.16628 0.0
C258 C 0.88558 0.79128 0.20038 0.0
C259 C 0.93118 0.78593 0.30986 0.0
C260 C 0.91632 0.78783 0.26998 0.0
H261 H 0.85204 0.82042 0.06905 0.0
H262 H 0.88062 0.81631 0.12308 0.0
H263 H 0.88803 0.76009 0.19976 0.0
H264 H 0.94183 0.75756 0.4097 0.0
H265 H 0.92011 0.75884 0.33997 0.0
C266 C 0.72177 0.36503 0.61417 0.0
C267 C 0.72983 0.3464 0.61349 0.0
C268 C 0.73066 0.37881 0.64159 0.0
C269 C 0.77707 0.39081 0.70367 0.0
H270 H 0.74491 0.42023 0.77816 0.0
C271 C 0.80679 0.42929 0.86422 0.0
C272 C 0.79816 0.44675 0.8743 0.0
C273 C 0.79947 0.41912 0.82678 0.0
C274 C 0.75409 0.41242 0.75697 0.0
H275 H 0.75375 0.32778 0.64064 0.0
H276 H 0.76911 0.35174 0.68881 0.0
H277 H 0.72998 0.39832 0.72393 0.0
H278 H 0.77569 0.46776 0.85137 0.0
H279 H 0.76303 0.45008 0.78561 0.0
H280 H 0.80121 0.40468 0.73739 0.0
C281 C 0.75602 0.35575 0.66775 0.0
C282 C 0.74552 0.39982 0.72593 0.0
C283 C 0.74711 0.34196 0.64041 0.0
C284 C 0.78261 0.45429 0.84472 0.0
C285 C 0.77527 0.4441 0.80723 0.0
C286 C 0.78564 0.40344 0.73469 0.0
C287 C 0.74785 0.3743 0.66884 0.0
C288 C 0.75693 0.38866 0.69942 0.0
C289 C 0.78335 0.42618 0.79848 0.0
C290 C 0.77426 0.41419 0.76221 0.0
H291 H 0.70854 0.369 0.59361 0.0
H292 H 0.72413 0.39304 0.64125 0.0
H293 H 0.78623 0.38266 0.68314 0.0
H294 H 0.81881 0.42308 0.88623 0.0
H295 H 0.80593 0.40528 0.82134 0.0
C296 C 0.6577 0.2858 0.37974 0.0
C297 C 0.66198 0.30359 0.39886 0.0
C298 C 0.64153 0.28403 0.34866 0.0
C299 C 0.60868 0.31309 0.26593 0.0
H300 H 0.57585 0.2678 0.27331 0.0
C301 C 0.54146 0.30759 0.14007 0.0
C302 C 0.53865 0.28976 0.12006 0.0
C303 C 0.55468 0.30915 0.17841 0.0
C304 C 0.58495 0.28048 0.27056 0.0
H305 H 0.6524 0.3334 0.40068 0.0
H306 H 0.62429 0.33029 0.34649 0.0
H307 H 0.60294 0.27067 0.33105 0.0
H308 H 0.54688 0.25937 0.12614 0.0
H309 H 0.57013 0.26214 0.19237 0.0
H310 H 0.5911 0.32275 0.205 0.0
C311 C 0.63353 0.31776 0.35524 0.0
C312 C 0.60047 0.28211 0.30364 0.0
C313 C 0.64962 0.31951 0.38645 0.0
C314 C 0.54866 0.27333 0.1407 0.0
C315 C 0.56197 0.27491 0.17887 0.0
C316 C 0.59325 0.31143 0.23278 0.0
C317 C 0.62933 0.30003 0.33586 0.0
C318 C 0.61255 0.29841 0.30155 0.0
C319 C 0.56549 0.29294 0.19749 0.0
C320 C 0.58123 0.29507 0.23451 0.0
H321 H 0.66686 0.27323 0.38868 0.0
H322 H 0.63877 0.27023 0.33397 0.0
H323 H 0.61789 0.32569 0.26294 0.0
H324 H 0.53386 0.32051 0.1253 0.0
H325 H 0.55671 0.32317 0.19251 0.0
C326 C 0.23213 0.13917 0.90236 0.0
C327 C 0.2427 0.15596 0.91161 0.0
C328 C 0.23994 0.12477 0.87754 0.0
C329 C 0.27778 0.11712 0.79627 0.0
H330 H 0.2666 0.06278 0.82456 0.0
C331 C 0.31116 0.05757 0.69777 0.0
C332 C 0.29785 0.04445 0.67882 0.0
C333 C 0.30584 0.06972 0.73145 0.0
C334 C 0.2698 0.07791 0.81627 0.0
H335 H 0.27001 0.17052 0.90319 0.0
H336 H 0.28379 0.14523 0.86088 0.0
H337 H 0.25467 0.08712 0.87307 0.0
H338 H 0.26891 0.03296 0.68258 0.0
H339 H 0.25969 0.05412 0.74165 0.0
H340 H 0.2929 0.10789 0.73954 0.0
C341 C 0.26926 0.14339 0.87172 0.0
C342 C 0.26291 0.09187 0.84388 0.0
C343 C 0.26138 0.15787 0.89615 0.0
C344 C 0.27949 0.04296 0.69632 0.0
C345 C 0.27422 0.05502 0.73029 0.0
C346 C 0.2848 0.10316 0.769 0.0
C347 C 0.25859 0.12671 0.86176 0.0
C348 C 0.26665 0.11169 0.83392 0.0
C349 C 0.28717 0.0689 0.74722 0.0
C350 C 0.28075 0.08343 0.77843 0.0
H351 H 0.21768 0.13725 0.91371 0.0
H352 H 0.23116 0.11229 0.86991 0.0
H353 H 0.28065 0.13223 0.78694 0.0
H354 H 0.32546 0.05903 0.68526 0.0
H355 H 0.31621 0.0801 0.7444 0.0
C356 C 0.30927 0.72928 0.40874 0.0
C357 C 0.31005 0.71346 0.44223 0.0
C358 C 0.32225 0.73056 0.37372 0.0
C359 C 0.35336 0.69922 0.31199 0.0
H360 H 0.3745 0.74786 0.26378 0.0
C361 C 0.4115 0.70252 0.17895 0.0
C362 C 0.40916 0.71664 0.14149 0.0
C363 C 0.39976 0.70266 0.21629 0.0
C364 C 0.36856 0.7342 0.27665 0.0
H365 H 0.32579 0.68719 0.46683 0.0
H366 H 0.34861 0.68965 0.4065 0.0
H367 H 0.35398 0.74752 0.32928 0.0
H368 H 0.39267 0.74206 0.11395 0.0
H369 H 0.37211 0.74224 0.17923 0.0
H370 H 0.36794 0.6859 0.25953 0.0
C371 C 0.33765 0.70078 0.40643 0.0
C372 C 0.35681 0.734 0.31415 0.0
C373 C 0.32463 0.69944 0.44121 0.0
C374 C 0.39484 0.73096 0.14226 0.0
C375 C 0.38314 0.73115 0.17977 0.0
C376 C 0.36514 0.69942 0.27472 0.0
C377 C 0.33635 0.71611 0.37164 0.0
C378 C 0.3491 0.71648 0.33229 0.0
C379 C 0.38546 0.71696 0.21712 0.0
C380 C 0.37288 0.71689 0.25665 0.0
H381 H 0.29821 0.74033 0.40852 0.0
H382 H 0.32077 0.7425 0.3473 0.0
H383 H 0.34732 0.68554 0.32437 0.0
H384 H 0.42243 0.69132 0.17954 0.0
H385 H 0.40204 0.69166 0.24481 0.0
C386 C 0.75754 0.84307 0.84826 0.0
C387 C 0.76423 0.84729 0.89358 0.0
C388 C 0.74948 0.85761 0.8167 0.0
C389 C 0.74797 0.91076 0.79234 0.0
H390 H 0.7031 0.89971 0.7111 0.0
C391 C 0.7056 0.97034 0.67622 0.0
C392 C 0.69865 0.9658 0.63136 0.0
C393 C 0.71419 0.95607 0.70779 0.0
C394 C 0.71579 0.90297 0.73308 0.0
H395 H 0.76739 0.87014 0.94138 0.0
H396 H 0.75317 0.89548 0.88632 0.0
H397 H 0.71643 0.87453 0.76761 0.0
H398 H 0.69471 0.9425 0.58516 0.0
H399 H 0.71027 0.91778 0.63945 0.0
H400 H 0.7473 0.93922 0.75776 0.0
C401 C 0.75442 0.88094 0.87506 0.0
C402 C 0.72341 0.88854 0.76557 0.0
C403 C 0.76246 0.86638 0.90672 0.0
C404 C 0.70052 0.94667 0.61873 0.0
C405 C 0.70909 0.93239 0.65029 0.0
C406 C 0.74034 0.92521 0.7598 0.0
C407 C 0.74789 0.87674 0.8296 0.0
C408 C 0.73961 0.89224 0.79556 0.0
C409 C 0.71589 0.93687 0.69536 0.0
C410 C 0.72417 0.92148 0.72971 0.0
H411 H 0.75866 0.82854 0.83689 0.0
H412 H 0.74481 0.8539 0.78182 0.0
H413 H 0.76063 0.91401 0.81442 0.0
H414 H 0.70421 0.98492 0.68714 0.0
H415 H 0.71902 0.95999 0.74239 0.0
C416 C 0.84677 0.81693 0.90267 0.0
C417 C 0.83292 0.80212 0.9024 0.0
C418 C 0.86284 0.81599 0.87632 0.0
C419 C 0.89112 0.78194 0.81311 0.0
H420 H 0.9056 0.82862 0.7416 0.0
C421 C 0.93169 0.78128 0.6467 0.0
C422 C 0.94605 0.79519 0.63895 0.0
C423 C 0.92065 0.78177 0.68516 0.0
C424 C 0.90196 0.81554 0.76197 0.0
H425 H 0.82525 0.77455 0.87469 0.0
H426 H 0.85295 0.77313 0.82808 0.0
H427 H 0.88078 0.83028 0.79693 0.0
H428 H 0.96047 0.82025 0.66611 0.0
H429 H 0.94089 0.82125 0.73336 0.0
H430 H 0.91179 0.7671 0.77662 0.0
C431 C 0.85163 0.78532 0.84927 0.0
C432 C 0.88774 0.81648 0.79371 0.0
C433 C 0.83564 0.78622 0.87574 0.0
C434 C 0.9495 0.80933 0.6712 0.0
C435 C 0.93826 0.80996 0.70951 0.0
C436 C 0.90523 0.78099 0.78116 0.0
C437 C 0.86539 0.80023 0.84904 0.0
C438 C 0.88186 0.79961 0.81894 0.0
C439 C 0.9236 0.79629 0.71655 0.0
C440 C 0.9105 0.79771 0.75459 0.0
H441 H 0.84521 0.8293 0.92317 0.0
H442 H 0.87329 0.82759 0.87739 0.0
H443 H 0.88724 0.76875 0.83272 0.0
H444 H 0.92873 0.77015 0.62258 0.0
H445 H 0.90932 0.77117 0.68938 0.0
C446 C 0.72799 0.36924 0.41663 0.0
C447 C 0.73069 0.34935 0.41182 0.0
C448 C 0.7365 0.38312 0.38703 0.0
C449 C 0.75774 0.38835 0.27218 0.0
H450 H 0.77478 0.43806 0.31391 0.0
C451 C 0.79672 0.44246 0.15256 0.0
C452 C 0.78865 0.4612 0.14677 0.0
C453 C 0.79171 0.42947 0.18894 0.0
C454 C 0.77003 0.42424 0.30184 0.0
H455 H 0.74513 0.32845 0.37347 0.0
H456 H 0.76048 0.35257 0.32291 0.0
H457 H 0.76227 0.41372 0.36959 0.0
H458 H 0.76998 0.4814 0.17676 0.0
H459 H 0.76137 0.45864 0.24081 0.0
H460 H 0.76569 0.3988 0.20465 0.0
C461 C 0.75126 0.35752 0.34847 0.0
C462 C 0.76277 0.41031 0.33362 0.0
C463 C 0.74254 0.34365 0.37764 0.0
C464 C 0.77642 0.46706 0.18012 0.0
C465 C 0.77151 0.45406 0.21685 0.0
C466 C 0.76518 0.40215 0.24069 0.0
C467 C 0.74814 0.37746 0.35228 0.0
C468 C 0.75645 0.39219 0.31913 0.0
C469 C 0.77864 0.43494 0.22067 0.0
C470 C 0.77136 0.42025 0.25509 0.0
H471 H 0.7189 0.37412 0.44257 0.0
H472 H 0.73352 0.39829 0.39069 0.0
H473 H 0.7526 0.37481 0.25932 0.0
H474 H 0.80631 0.43746 0.12783 0.0
H475 H 0.79767 0.41492 0.19152 0.0
C476 C 0.17362 0.21058 0.86023 0.0
C477 C 0.17305 0.20139 0.90521 0.0
C478 C 0.15683 0.21284 0.83069 0.0
C479 C 0.10858 0.19192 0.81014 0.0
H480 H 0.09795 0.23948 0.73311 0.0
C481 C 0.03725 0.20316 0.69736 0.0
C482 C 0.03836 0.21168 0.65193 0.0
C483 C 0.05324 0.20303 0.72957 0.0
C484 C 0.1008 0.22603 0.75403 0.0
H485 H 0.15421 0.18771 0.95464 0.0
H486 H 0.12495 0.19166 0.90306 0.0
H487 H 0.12673 0.23708 0.78685 0.0
H488 H 0.0567 0.22813 0.60604 0.0
H489 H 0.08484 0.22726 0.66147 0.0
H490 H 0.08289 0.18072 0.77701 0.0
C491 C 0.13845 0.19694 0.89051 0.0
C492 C 0.11728 0.22467 0.78487 0.0
C493 C 0.15522 0.19476 0.92015 0.0
C494 C 0.05558 0.22077 0.64004 0.0
C495 C 0.07162 0.22059 0.67223 0.0
C496 C 0.09216 0.19325 0.77923 0.0
C497 C 0.13908 0.2059 0.84534 0.0
C498 C 0.12137 0.20758 0.81323 0.0
C499 C 0.07073 0.21147 0.7172 0.0
C500 C 0.08806 0.2103 0.75072 0.0
H501 H 0.18708 0.21593 0.84762 0.0
H502 H 0.15784 0.21964 0.79595 0.0
H503 H 0.11147 0.17844 0.83092 0.0
H504 H 0.02413 0.19619 0.70782 0.0
H505 H 0.05189 0.19624 0.76419 0.0
C506 C 0.23772 0.67369 0.40308 0.0
C507 C 0.24694 0.66643 0.44571 0.0
C508 C 0.23194 0.66124 0.36883 0.0
C509 C 0.22152 0.6104 0.34604 0.0
H510 H 0.23428 0.62747 0.22089 0.0
C511 C 0.21333 0.56113 0.19122 0.0
C512 C 0.2063 0.56987 0.14782 0.0
C513 C 0.21799 0.5724 0.2288 0.0
C514 C 0.23038 0.62257 0.25548 0.0
H515 H 0.25647 0.64021 0.48658 0.0
H516 H 0.24636 0.61836 0.4263 0.0
H517 H 0.24241 0.64779 0.28482 0.0
H518 H 0.19842 0.59729 0.1101 0.0
H519 H 0.2063 0.61688 0.17568 0.0
H520 H 0.20941 0.58516 0.31644 0.0
C521 C 0.24362 0.63376 0.41962 0.0
C522 C 0.23507 0.63422 0.29217 0.0
C523 C 0.24944 0.64627 0.45409 0.0
C524 C 0.20391 0.5901 0.14295 0.0
C525 C 0.20853 0.60135 0.18052 0.0
C526 C 0.21677 0.59872 0.30919 0.0
C527 C 0.23522 0.64119 0.37621 0.0
C528 C 0.23056 0.62837 0.3378 0.0
C529 C 0.21571 0.59265 0.22385 0.0
C530 C 0.22103 0.60476 0.26341 0.0
H531 H 0.2353 0.68911 0.39562 0.0
H532 H 0.2251 0.66738 0.33618 0.0
H533 H 0.21776 0.60555 0.38077 0.0
H534 H 0.21537 0.54558 0.19616 0.0
H535 H 0.22369 0.56525 0.26151 0.0
C536 C 0.33642 0.69924 0.63935 0.0
C537 C 0.31887 0.70718 0.65078 0.0
C538 C 0.35325 0.70119 0.66816 0.0
C539 C 0.37527 0.73104 0.75832 0.0
H540 H 0.40804 0.68615 0.7921 0.0
C541 C 0.435 0.73064 0.90717 0.0
C542 C 0.4523 0.72081 0.90198 0.0
C543 C 0.41928 0.7293 0.87467 0.0
C544 C 0.39922 0.69891 0.78249 0.0
H545 H 0.30535 0.72364 0.70116 0.0
H546 H 0.33468 0.72704 0.75122 0.0
H547 H 0.37966 0.68328 0.73835 0.0
H548 H 0.46698 0.70244 0.85765 0.0
H549 H 0.43964 0.70037 0.80028 0.0
H550 H 0.39479 0.74672 0.80219 0.0
C551 C 0.33543 0.71936 0.71992 0.0
C552 C 0.38294 0.69724 0.75174 0.0
C553 C 0.31859 0.71729 0.69136 0.0
C554 C 0.45375 0.71003 0.86283 0.0
C555 C 0.43803 0.70872 0.83017 0.0
C556 C 0.39159 0.73274 0.78883 0.0
C557 C 0.35292 0.71129 0.70873 0.0
C558 C 0.37068 0.71324 0.7397 0.0
C559 C 0.42056 0.71826 0.83584 0.0
C560 C 0.40367 0.71665 0.8017 0.0
H561 H 0.33717 0.6914 0.6083 0.0
H562 H 0.36656 0.69497 0.65843 0.0
H563 H 0.36627 0.74371 0.7491 0.0
H564 H 0.43365 0.7397 0.93583 0.0
H565 H 0.40604 0.73676 0.88033 0.0
C566 C 0.77443 0.85444 0.11859 0.0
C567 C 0.76514 0.83728 0.10629 0.0
C568 C 0.76751 0.86527 0.15313 0.0
C569 C 0.72458 0.87332 0.21848 0.0
H570 H 0.76196 0.89115 0.31201 0.0
C571 C 0.7018 0.90244 0.38935 0.0
C572 C 0.71175 0.91853 0.40596 0.0
C573 C 0.70825 0.89303 0.35192 0.0
C574 C 0.75134 0.88651 0.28587 0.0
H575 H 0.74087 0.81844 0.11971 0.0
H576 H 0.72888 0.83731 0.17992 0.0
H577 H 0.77298 0.87442 0.24702 0.0
H578 H 0.73635 0.93732 0.39626 0.0
H579 H 0.74746 0.92106 0.33067 0.0
H580 H 0.70293 0.88537 0.25733 0.0
C581 C 0.74147 0.84243 0.16273 0.0
C582 C 0.75766 0.87692 0.24859 0.0
C583 C 0.74842 0.83155 0.12835 0.0
C584 C 0.72838 0.92492 0.38447 0.0
C585 C 0.73481 0.91554 0.34696 0.0
C586 C 0.71825 0.88295 0.2557 0.0
C587 C 0.75109 0.85926 0.176 0.0
C588 C 0.74435 0.87013 0.21459 0.0
C589 C 0.72479 0.89951 0.33012 0.0
C590 C 0.73155 0.88957 0.29002 0.0
H591 H 0.78729 0.85932 0.10223 0.0
H592 H 0.77508 0.87833 0.16209 0.0
H593 H 0.71397 0.86849 0.19253 0.0
H594 H 0.68898 0.89708 0.4052 0.0
H595 H 0.70036 0.88054 0.34037 0.0
C596 C 0.65903 0.29126 0.64119 0.0
C597 C 0.65833 0.30377 0.60053 0.0
C598 C 0.64284 0.2887 0.6669 0.0
C599 C 0.59898 0.31316 0.69384 0.0
H600 H 0.58602 0.26233 0.74807 0.0
C601 C 0.5398 0.30293 0.8248 0.0
C602 C 0.54518 0.29085 0.86487 0.0
C603 C 0.55084 0.30334 0.78591 0.0
C604 C 0.58948 0.27663 0.73331 0.0
H605 H 0.63993 0.3232 0.55458 0.0
H606 H 0.61161 0.31889 0.60013 0.0
H607 H 0.61078 0.26537 0.69213 0.0
H608 H 0.56592 0.2692 0.89485 0.0
H609 H 0.58516 0.27009 0.82776 0.0
H610 H 0.57826 0.32453 0.73641 0.0
C611 C 0.62477 0.31109 0.61192 0.0
C612 C 0.60363 0.27836 0.70124 0.0
C613 C 0.64095 0.3135 0.58582 0.0
C614 C 0.56137 0.2787 0.86461 0.0
C615 C 0.57235 0.2791 0.82588 0.0
C616 C 0.58488 0.31145 0.72619 0.0
C617 C 0.62558 0.29869 0.65279 0.0
C618 C 0.60887 0.29668 0.68205 0.0
C619 C 0.56741 0.29162 0.7863 0.0
C620 C 0.58032 0.2932 0.7472 0.0
H621 H 0.67214 0.28346 0.65335 0.0
H622 H 0.64398 0.27924 0.69856 0.0
H623 H 0.60282 0.32749 0.67986 0.0
H624 H 0.52736 0.31242 0.82386 0.0
H625 H 0.54652 0.31299 0.75577 0.0
C626 C 0.26013 0.15961 0.1497 0.0
C627 C 0.24701 0.15437 0.11353 0.0
C628 C 0.26832 0.14552 0.18226 0.0
C629 C 0.27545 0.09203 0.20582 0.0
H630 H 0.28277 0.10609 0.33362 0.0
C631 C 0.28935 0.03768 0.36932 0.0
C632 C 0.3035 0.04318 0.40312 0.0
C633 C 0.284 0.05026 0.33032 0.0
C634 C 0.28098 0.102 0.29799 0.0
H635 H 0.2324 0.13017 0.08276 0.0
H636 H 0.24611 0.10567 0.14046 0.0
H637 H 0.27024 0.13002 0.27339 0.0
H638 H 0.32386 0.06579 0.42087 0.0
H639 H 0.31438 0.08762 0.35335 0.0
H640 H 0.28563 0.06367 0.23149 0.0
C641 C 0.25049 0.1206 0.14315 0.0
C642 C 0.27388 0.11576 0.26331 0.0
C643 C 0.24252 0.13468 0.11016 0.0
C644 C 0.31282 0.06109 0.39581 0.0
C645 C 0.30734 0.07367 0.35721 0.0
C646 C 0.28233 0.07815 0.24078 0.0
C647 C 0.26337 0.12584 0.17995 0.0
C648 C 0.2711 0.11103 0.21666 0.0
C649 C 0.29257 0.06861 0.3247 0.0
C650 C 0.28528 0.08307 0.28715 0.0
H651 H 0.26409 0.17464 0.15288 0.0
H652 H 0.27854 0.15011 0.20934 0.0
H653 H 0.27374 0.08789 0.17026 0.0
H654 H 0.28192 0.02398 0.37383 0.0
H655 H 0.27253 0.04602 0.30575 0.0
C656 C 0.22403 0.27541 0.02524 0.0
C657 C 0.21765 0.26329 0.99018 0.0
C658 C 0.21968 0.29524 0.02077 0.0
C659 C 0.18574 0.33101 0.9592 0.0
H660 H 0.22525 0.36824 0.99179 0.0
C661 C 0.17417 0.41312 0.91776 0.0
C662 C 0.18065 0.42544 0.95223 0.0
C663 C 0.17922 0.39347 0.92182 0.0
C664 C 0.21399 0.35803 0.983 0.0
H665 H 0.20152 0.26256 0.92308 0.0
H666 H 0.19405 0.29708 0.91532 0.0
H667 H 0.23271 0.33363 0.0009 0.0
H668 H 0.19781 0.42685 0.01768 0.0
H669 H 0.20645 0.39255 0.02503 0.0
H670 H 0.16697 0.35533 0.94157 0.0
C671 C 0.20229 0.29123 0.94642 0.0
C672 C 0.21827 0.3382 0.98824 0.0
C673 C 0.20669 0.27144 0.95077 0.0
C674 C 0.19261 0.41776 0.99042 0.0
C675 C 0.19764 0.3981 0.99453 0.0
C676 C 0.18145 0.35082 0.95407 0.0
C677 C 0.20878 0.30338 0.98128 0.0
C678 C 0.2042 0.32446 0.97631 0.0
C679 C 0.19085 0.38567 0.9605 0.0
C680 C 0.19553 0.36459 0.9658 0.0
H681 H 0.23245 0.26962 0.05611 0.0
H682 H 0.22469 0.30417 0.04851 0.0
H683 H 0.17449 0.3208 0.95038 0.0
H684 H 0.165 0.41858 0.88778 0.0
H685 H 0.17402 0.38439 0.89456 0.0
C686 C 0.19782 0.73139 0.58728 0.0
C687 C 0.20591 0.72517 0.5475 0.0
C688 C 0.178 0.73485 0.58706 0.0
C689 C 0.13131 0.72405 0.52486 0.0
H690 H 0.11369 0.76903 0.58332 0.0
C691 C 0.05086 0.73751 0.55068 0.0
C692 C 0.044 0.75667 0.54311 0.0
C693 C 0.07058 0.73349 0.55113 0.0
C694 C 0.11837 0.75649 0.56651 0.0
H695 H 0.19943 0.71752 0.47638 0.0
H696 H 0.16494 0.72381 0.47584 0.0
H697 H 0.14811 0.76238 0.58378 0.0
H698 H 0.05244 0.78663 0.52962 0.0
H699 H 0.0868 0.77959 0.52976 0.0
H700 H 0.10157 0.71843 0.50662 0.0
C701 C 0.17388 0.72578 0.50742 0.0
C702 C 0.1381 0.75254 0.5673 0.0
C703 C 0.19369 0.72229 0.50765 0.0
C704 C 0.05727 0.77171 0.53575 0.0
C705 C 0.07698 0.76769 0.5361 0.0
C706 C 0.11157 0.72802 0.52403 0.0
C707 C 0.16582 0.73219 0.54705 0.0
C708 C 0.14481 0.73628 0.54648 0.0
C709 C 0.08388 0.74854 0.54393 0.0
C710 C 0.10487 0.7443 0.54481 0.0
H711 H 0.20678 0.73363 0.61869 0.0
H712 H 0.17221 0.73947 0.61841 0.0
H713 H 0.13598 0.7113 0.5089 0.0
H714 H 0.04102 0.72559 0.55663 0.0
H715 H 0.07543 0.71861 0.55786 0.0
C716 C 0.78897 0.72547 0.96446 0.0
C717 C 0.79267 0.73604 0.00403 0.0
C718 C 0.79053 0.70524 0.96785 0.0
C719 C 0.78699 0.66359 0.05247 0.0
H720 H 0.80968 0.63471 0.95927 0.0
C721 C 0.7738 0.58186 0.03525 0.0
C722 C 0.7898 0.57032 0.02784 0.0
C723 C 0.77538 0.60204 0.03412 0.0
C724 C 0.80342 0.64259 0.98575 0.0
H725 H 0.8016 0.73357 0.07791 0.0
H726 H 0.80421 0.69833 0.08368 0.0
H727 H 0.81094 0.67016 0.95334 0.0
H728 H 0.82005 0.57093 0.0137 0.0
H729 H 0.82274 0.60623 0.01138 0.0
H730 H 0.77929 0.63608 0.08462 0.0
C731 C 0.79995 0.70571 0.05015 0.0
C732 C 0.804 0.66287 0.98213 0.0
C733 C 0.79855 0.72593 0.04672 0.0
C734 C 0.80746 0.5794 0.01961 0.0
C735 C 0.80898 0.59962 0.01799 0.0
C736 C 0.78624 0.64335 0.05581 0.0
C737 C 0.79568 0.69512 0.01092 0.0
C738 C 0.79574 0.67359 0.0154 0.0
C739 C 0.79294 0.61115 0.0251 0.0
C740 C 0.79436 0.63263 0.02239 0.0
H741 H 0.78446 0.73279 0.93102 0.0
H742 H 0.78704 0.69747 0.93705 0.0
H743 H 0.78033 0.67145 0.07839 0.0
H744 H 0.75999 0.57532 0.04165 0.0
H745 H 0.76272 0.61055 0.0393 0.0
C746 C 0.77591 0.27191 0.56783 0.0
C747 C 0.76881 0.28343 0.52818 0.0
C748 C 0.79526 0.2663 0.5733 0.0
C749 C 0.84362 0.27839 0.53699 0.0
H750 H 0.85454 0.22422 0.57327 0.0
C751 C 0.91999 0.2447 0.53643 0.0
C752 C 0.92535 0.22992 0.57087 0.0
C753 C 0.90123 0.25226 0.53232 0.0
C754 C 0.85182 0.23947 0.56389 0.0
H755 H 0.77668 0.29854 0.46378 0.0
H756 H 0.81066 0.28877 0.47363 0.0
H757 H 0.82128 0.23556 0.56372 0.0
H758 H 0.91549 0.21208 0.62931 0.0
H759 H 0.88301 0.22561 0.62309 0.0
H760 H 0.87419 0.28235 0.53772 0.0
C761 C 0.80113 0.28409 0.50035 0.0
C762 C 0.83272 0.24594 0.55821 0.0
C763 C 0.78166 0.28959 0.49462 0.0
C764 C 0.91177 0.22334 0.60213 0.0
C765 C 0.89308 0.23101 0.59831 0.0
C766 C 0.86278 0.27194 0.54306 0.0
C767 C 0.80805 0.27219 0.5395 0.0
C768 C 0.82841 0.26546 0.54481 0.0
C769 C 0.88745 0.24531 0.56281 0.0
C770 C 0.86712 0.25239 0.5567 0.0
H771 H 0.76647 0.26696 0.5945 0.0
H772 H 0.80024 0.25735 0.60414 0.0
H773 H 0.84071 0.29356 0.52703 0.0
H774 H 0.93011 0.25004 0.51168 0.0
H775 H 0.89739 0.2631 0.50427 0.0
C776 C 0.70704 0.22875 0.4913 0.0
C777 C 0.70038 0.24087 0.52403 0.0
C778 C 0.70366 0.2088 0.49541 0.0
C779 C 0.67245 0.17161 0.54909 0.0
H780 H 0.7146 0.13671 0.53151 0.0
C781 C 0.66701 0.089 0.59114 0.0
C782 C 0.67473 0.07687 0.55994 0.0
C783 C 0.67041 0.10897 0.58752 0.0
C784 C 0.7026 0.14623 0.53601 0.0
H785 H 0.68451 0.24149 0.58615 0.0
H786 H 0.67865 0.20668 0.59323 0.0
H787 H 0.71948 0.17164 0.52248 0.0
H788 H 0.69226 0.07618 0.50071 0.0
H789 H 0.69797 0.11098 0.49397 0.0
H790 H 0.65551 0.14625 0.56223 0.0
C791 C 0.68644 0.21264 0.56432 0.0
C792 C 0.70541 0.16627 0.53084 0.0
C793 C 0.68989 0.23259 0.56037 0.0
C794 C 0.68616 0.0851 0.52545 0.0
C795 C 0.68951 0.10507 0.52172 0.0
C796 C 0.66962 0.15158 0.55408 0.0
C797 C 0.69345 0.20049 0.53216 0.0
C798 C 0.69037 0.17919 0.53732 0.0
C799 C 0.68157 0.11728 0.5525 0.0
C800 C 0.68466 0.13862 0.54762 0.0
H801 H 0.7151 0.23463 0.46278 0.0
H802 H 0.70901 0.19986 0.46969 0.0
H803 H 0.66051 0.18118 0.55373 0.0
H804 H 0.6582 0.08312 0.61824 0.0
H805 H 0.66433 0.11788 0.6123 0.0
C806 C 0.29385 0.22475 0.96222 0.0
C807 C 0.28602 0.21777 0.0038 0.0
C808 C 0.31352 0.22885 0.96139 0.0
C809 C 0.36073 0.2191 0.02694 0.0
H810 H 0.37644 0.26484 0.95373 0.0
C811 C 0.44059 0.23497 -0.00473 0.0
C812 C 0.44673 0.25434 -0.0048 0.0
C813 C 0.42106 0.2304 -0.00287 0.0
C814 C 0.37231 0.25211 0.97471 0.0
H815 H 0.29283 0.20945 0.07709 0.0
H816 H 0.32704 0.2169 0.07577 0.0
H817 H 0.34233 0.25713 0.95583 0.0
H818 H 0.43716 0.28408 -0.00221 0.0
H819 H 0.40315 0.27609 0.00185 0.0
H820 H 0.39069 0.21436 0.04677 0.0
C821 C 0.31803 0.21895 0.04362 0.0
C822 C 0.35274 0.24753 0.9754 0.0
C823 C 0.29837 0.21478 0.04442 0.0
C824 C 0.43291 0.26902 -0.00245 0.0
C825 C 0.41338 0.26444 -0.00042 0.0
C826 C 0.3803 0.2237 0.02634 0.0
C827 C 0.32584 0.22613 0.00214 0.0
C828 C 0.3467 0.23096 0.00145 0.0
C829 C 0.40719 0.24509 -0.00087 0.0
C830 C 0.38634 0.24026 0.00018 0.0
H831 H 0.28479 0.22708 0.93019 0.0
H832 H 0.31909 0.23403 0.92866 0.0
H833 H 0.35661 0.20612 0.04702 0.0
H834 H 0.45086 0.22332 0.99331 0.0
H835 H 0.41679 0.21537 -0.0039 0.0
C836 C 0.26813 0.78381 0.51041 0.0
C837 C 0.27293 0.77199 0.55129 0.0
C838 C 0.27125 0.80377 0.50899 0.0
C839 C 0.29857 0.84204 0.56778 0.0
H840 H 0.25899 0.87556 0.5037 0.0
C841 C 0.3099 0.92438 0.52897 0.0
C842 C 0.2943 0.93675 0.53454 0.0
C843 C 0.30752 0.90425 0.53164 0.0
C844 C 0.27012 0.86644 0.52206 0.0
H845 H 0.2852 0.77195 0.62256 0.0
H846 H 0.29048 0.80694 0.62021 0.0
H847 H 0.25448 0.8406 0.50839 0.0
H848 H 0.26394 0.93762 0.5474 0.0
H849 H 0.25983 0.90257 0.55244 0.0
H850 H 0.31404 0.86798 0.58218 0.0
C851 C 0.28441 0.80067 0.58911 0.0
C852 C 0.26765 0.84636 0.52427 0.0
C853 C 0.2813 0.78062 0.59053 0.0
C854 C 0.27624 0.92853 0.54271 0.0
C855 C 0.27387 0.90841 0.5454 0.0
C856 C 0.30106 0.86216 0.56554 0.0
C857 C 0.27924 0.8125 0.54842 0.0
C858 C 0.28186 0.83389 0.54698 0.0
C859 C 0.28947 0.89602 0.53994 0.0
C860 C 0.28687 0.87461 0.54258 0.0
H861 H 0.26184 0.77766 0.47934 0.0
H862 H 0.26746 0.81237 0.4768 0.0
H863 H 0.30987 0.83286 0.58524 0.0
H864 H 0.324 0.93024 0.52258 0.0
H865 H 0.31978 0.89515 0.52664 0.0
C866 C 0.71281 0.79022 0.95406 0.0
C867 C 0.72574 0.77955 0.98574 0.0
C868 C 0.69333 0.78518 0.94978 0.0
C869 C 0.66091 0.74444 0.96297 0.0
H870 H 0.62132 0.78249 0.97839 0.0
C871 C 0.58182 0.72264 0.98392 0.0
C872 C 0.5671 0.73586 0.96791 0.0
C873 C 0.60116 0.72794 0.98235 0.0
C874 C 0.63211 0.77174 0.97297 0.0
H875 H 0.72846 0.7552 0.03752 0.0
H876 H 0.69446 0.74616 0.02913 0.0
H877 H 0.65511 0.79204 0.98263 0.0
H878 H 0.56103 0.76467 0.93568 0.0
H879 H 0.59475 0.77366 0.93087 0.0
H880 H 0.63811 0.7242 0.95207 0.0
C881 C 0.69943 0.75849 0.008 0.0
C882 C 0.65147 0.77723 0.97575 0.0
C883 C 0.71882 0.76375 0.01298 0.0
C884 C 0.57209 0.75423 0.94866 0.0
C885 C 0.59144 0.75943 0.9463 0.0
C886 C 0.64154 0.73901 0.95932 0.0
C887 C 0.68654 0.76916 0.9764 0.0
C888 C 0.66602 0.76357 0.97136 0.0
C889 C 0.60626 0.74649 0.96395 0.0
C890 C 0.62686 0.75252 0.96488 0.0
H891 H 0.71775 0.80251 0.93273 0.0
H892 H 0.68363 0.79359 0.92512 0.0
H893 H 0.67192 0.73371 0.95892 0.0
H894 H 0.57841 0.70841 -0.00072 0.0
H895 H 0.61207 0.71766 -0.00298 0.0
loop_
_geom_bond_atom_site_label_1
_geom_bond_atom_site_label_2
_geom_bond_distance
_geom_bond_site_symmetry_2
_ccdc_geom_bond_type
Fe0 O2 1.918 . S
Fe0 O5 1.997 . S
Fe0 O6 2.002 . S
Fe0 O11 1.976 . S
Fe0 O14 1.996 . S
Fe1 O2 1.918 1_556 S
Fe1 O9 1.997 . S
Fe1 O12 1.996 . S
Fe1 O16 1.976 . S
Fe1 O19 2.002 . S
O2 Fe0 1.918 . S
O2 Fe1 1.918 1_554 S
O2 Fe3 1.918 . S
Fe3 O2 1.918 . S
Fe3 O4 2.002 . S
Fe3 O13 1.976 . S
Fe3 O17 1.996 1_554 S
Fe3 O20 1.997 1_554 S
O4 Fe3 2.002 . S
O4 C21 1.295 . S
O5 Fe0 1.997 . S
O5 C21 1.235 . S
O6 Fe0 2.002 . S
O6 C7 1.295 . S
C7 O6 1.295 . S
C7 O9 1.235 1_554 S
C8 O13 1.287 . S
C8 O14 1.255 . S
O9 Fe1 1.997 . S
O9 C7 1.235 1_556 S
C10 O16 1.287 . S
C10 O17 1.255 . S
O11 Fe0 1.976 . S
O11 C18 1.287 . S
O12 Fe1 1.996 . S
O12 C18 1.255 1_556 S
O13 Fe3 1.976 . S
O13 C8 1.287 . S
O14 Fe0 1.996 . S
O14 C8 1.255 . S
C15 O19 1.295 . S
C15 O20 1.235 . S
O16 Fe1 1.976 . S
O16 C10 1.287 . S
O17 Fe3 1.996 1_556 S
O17 C10 1.255 . S
C18 O11 1.287 . S
C18 O12 1.255 1_554 S
O19 Fe1 2.002 . S
O19 C15 1.295 . S
O20 Fe3 1.997 1_556 S
O20 C15 1.235 . S
C21 O4 1.295 . S
C21 O5 1.235 . S
Fe22 O24 1.918 . S
Fe22 O27 1.997 . S
Fe22 O28 2.002 . S
Fe22 O33 1.976 . S
Fe22 O36 1.996 . S
Fe23 O24 1.918 . S
Fe23 O31 1.997 . S
Fe23 O34 1.996 . S
Fe23 O38 1.976 . S
Fe23 O41 2.002 . S
O24 Fe22 1.918 . S
O24 Fe23 1.918 . S
O24 Fe25 1.918 . S
Fe25 O24 1.918 . S
Fe25 O26 2.002 . S
Fe25 O35 1.976 . S
Fe25 O39 1.996 . S
Fe25 O42 1.997 . S
O26 Fe25 2.002 . S
O26 C43 1.295 . S
O27 Fe22 1.997 . S
O27 C43 1.235 . S
O28 Fe22 2.002 . S
O28 C29 1.295 . S
C29 O28 1.295 . S
C29 O31 1.235 . S
C30 O35 1.287 . S
C30 O36 1.255 . S
O31 Fe23 1.997 . S
O31 C29 1.235 . S
C32 O38 1.287 . S
C32 O39 1.255 . S
O33 Fe22 1.976 . S
O33 C40 1.287 . S
O34 Fe23 1.996 . S
O34 C40 1.255 . S
O35 Fe25 1.976 . S
O35 C30 1.287 . S
O36 Fe22 1.996 . S
O36 C30 1.255 . S
C37 O41 1.295 . S
C37 O42 1.235 . S
O38 Fe23 1.976 . S
O38 C32 1.287 . S
O39 Fe25 1.996 . S
O39 C32 1.255 . S
C40 O33 1.287 . S
C40 O34 1.255 . S
O41 Fe23 2.002 . S
O41 C37 1.295 . S
O42 Fe25 1.997 . S
O42 C37 1.235 . S
C43 O26 1.295 . S
C43 O27 1.235 . S
Fe44 O46 1.918 1_556 S
Fe44 O49 1.997 . S
Fe44 O50 2.002 . S
Fe44 O55 1.976 . S
Fe44 O58 1.996 . S
Fe45 O46 1.918 . S
Fe45 O53 1.997 . S
Fe45 O56 1.996 . S
Fe45 O60 1.976 . S
Fe45 O63 2.002 . S
O46 Fe44 1.918 1_554 S
O46 Fe45 1.918 . S
O46 Fe47 1.918 . S
Fe47 O46 1.918 . S
Fe47 O48 2.002 1_554 S
Fe47 O57 1.976 1_554 S
Fe47 O61 1.996 . S
Fe47 O64 1.997 . S
O48 Fe47 2.002 1_556 S
O48 C65 1.295 . S
O49 Fe44 1.997 . S
O49 C65 1.235 . S
O50 Fe44 2.002 . S
O50 C51 1.295 1_556 S
C51 O50 1.295 1_554 S
C51 O53 1.235 . S
C52 O57 1.287 . S
C52 O58 1.255 . S
O53 Fe45 1.997 . S
O53 C51 1.235 . S
C54 O60 1.287 . S
C54 O61 1.255 . S
O55 Fe44 1.976 . S
O55 C62 1.287 1_556 S
O56 Fe45 1.996 . S
O56 C62 1.255 . S
O57 Fe47 1.976 1_556 S
O57 C52 1.287 . S
O58 Fe44 1.996 . S
O58 C52 1.255 . S
C59 O63 1.295 . S
C59 O64 1.235 . S
O60 Fe45 1.976 . S
O60 C54 1.287 . S
O61 Fe47 1.996 . S
O61 C54 1.255 . S
C62 O55 1.287 1_554 S
C62 O56 1.255 . S
O63 Fe45 2.002 . S
O63 C59 1.295 . S
O64 Fe47 1.997 . S
O64 C59 1.235 . S
C65 O48 1.295 . S
C65 O49 1.235 . S
Fe66 O68 1.918 . S
Fe66 O71 1.997 . S
Fe66 O72 2.002 . S
Fe66 O77 1.976 . S
Fe66 O80 1.996 . S
Fe67 O68 1.918 . S
Fe67 O75 1.997 . S
Fe67 O78 1.996 . S
Fe67 O82 1.976 . S
Fe67 O85 2.002 . S
O68 Fe66 1.918 . S
O68 Fe67 1.918 . S
O68 Fe69 1.918 . S
Fe69 O68 1.918 . S
Fe69 O70 2.002 . S
Fe69 O79 1.976 . S
Fe69 O83 1.996 . S
Fe69 O86 1.997 . S
O70 Fe69 2.002 . S
O70 C87 1.295 . S
O71 Fe66 1.997 . S
O71 C87 1.235 . S
O72 Fe66 2.002 . S
O72 C73 1.295 . S
C73 O72 1.295 . S
C73 O75 1.235 . S
C74 O79 1.287 . S
C74 O80 1.255 . S
O75 Fe67 1.997 . S
O75 C73 1.235 . S
C76 O82 1.287 . S
C76 O83 1.255 . S
O77 Fe66 1.976 . S
O77 C84 1.287 . S
O78 Fe67 1.996 . S
O78 C84 1.255 . S
O79 Fe69 1.976 . S
O79 C74 1.287 . S
O80 Fe66 1.996 . S
O80 C74 1.255 . S
C81 O85 1.295 . S
C81 O86 1.235 . S
O82 Fe67 1.976 . S
O82 C76 1.287 . S
O83 Fe69 1.996 . S
O83 C76 1.255 . S
C84 O77 1.287 . S
C84 O78 1.255 . S
O85 Fe67 2.002 . S
O85 C81 1.295 . S
O86 Fe69 1.997 . S
O86 C81 1.235 . S
C87 O70 1.295 . S
C87 O71 1.235 . S
O88 Cd89 2.300 1_556 S
O88 C95 1.275 . S
Cd89 O88 2.300 1_554 S
Cd89 O97 2.381 1_554 S
Cd89 O98 2.378 . S
O90 Cd91 2.385 1_556 S
O90 C95 1.255 . S
Cd91 O90 2.385 1_554 S
Cd91 O92 2.317 . S
O92 Cd91 2.317 . S
O92 C93 1.232 . S
C93 O92 1.232 . S
C93 O94 1.218 . S
O94 C93 1.218 . S
C95 O88 1.275 . S
C95 O90 1.255 . S
C96 O97 1.258 1_554 S
C96 O98 1.256 . S
O97 Cd89 2.381 1_556 S
O97 C96 1.258 1_556 S
O98 Cd89 2.378 . S
O98 C96 1.256 . S
O99 Cd100 2.300 1_655 S
O99 C106 1.275 . S
Cd100 O99 2.300 1_455 S
Cd100 O108 2.381 . S
Cd100 O109 2.378 . S
O101 Cd102 2.385 . S
O101 C106 1.255 . S
Cd102 O101 2.385 . S
Cd102 O103 2.317 . S
O103 Cd102 2.317 . S
O103 C104 1.232 . S
C104 O103 1.232 . S
C104 O105 1.218 . S
O105 C104 1.218 . S
C106 O99 1.275 . S
C106 O101 1.255 . S
C107 O108 1.258 . S
C107 O109 1.256 . S
O108 Cd100 2.381 . S
O108 C107 1.258 . S
O109 Cd100 2.378 . S
O109 C107 1.256 . S
O110 Cd111 2.300 . S
O110 C117 1.275 . S
Cd111 O110 2.300 . S
Cd111 O119 2.381 . S
Cd111 O120 2.378 . S
O112 Cd113 2.393 . S
O112 C117 1.255 . S
Cd113 O112 2.393 . S
Cd113 O114 2.310 1_554 S
O114 Cd113 2.310 1_556 S
O114 C115 1.232 . S
C115 O114 1.232 . S
C115 O116 1.218 . S
O116 C115 1.218 . S
C117 O110 1.275 . S
C117 O112 1.255 . S
C118 O119 1.258 . S
C118 O120 1.256 . S
O119 Cd111 2.381 . S
O119 C118 1.258 . S
O120 Cd111 2.378 . S
O120 C118 1.256 . S
O121 Cd122 2.305 . S
O121 C128 1.275 . S
Cd122 O121 2.305 . S
Cd122 O130 2.371 1_455 S
Cd122 O131 2.368 1_455 S
O123 Cd124 2.385 . S
O123 C128 1.255 . S
Cd124 O123 2.385 . S
Cd124 O125 2.317 . S
O125 Cd124 2.317 . S
O125 C126 1.232 . S
C126 O125 1.232 . S
C126 O127 1.218 . S
O127 C126 1.218 . S
C128 O121 1.275 . S
C128 O123 1.255 . S
C129 O130 1.258 . S
C129 O131 1.256 . S
O130 Cd122 2.371 1_655 S
O130 C129 1.258 . S
O131 Cd122 2.368 1_655 S
O131 C129 1.256 . S
O132 Cd133 2.300 1_565 S
O132 C139 1.275 . S
Cd133 O132 2.300 1_545 S
Cd133 O141 2.381 . S
Cd133 O142 2.378 . S
O134 Cd135 2.385 . S
O134 C139 1.255 . S
Cd135 O134 2.385 . S
Cd135 O136 2.317 . S
O136 Cd135 2.317 . S
O136 C137 1.232 . S
C137 O136 1.232 . S
C137 O138 1.218 . S
O138 C137 1.218 . S
C139 O132 1.275 . S
C139 O134 1.255 . S
C140 O141 1.258 . S
C140 O142 1.256 . S
O141 Cd133 2.381 . S
O141 C140 1.258 . S
O142 Cd133 2.378 . S
O142 C140 1.256 . S
O143 Cd144 2.300 . S
O143 C150 1.275 . S
Cd144 O143 2.300 . S
Cd144 O152 2.381 . S
Cd144 O153 2.378 1_554 S
O145 Cd146 2.385 1_554 S
O145 C150 1.255 . S
Cd146 O145 2.385 1_556 S
Cd146 O147 2.317 . S
O147 Cd146 2.317 . S
O147 C148 1.232 . S
C148 O147 1.232 . S
C148 O149 1.218 . S
O149 C148 1.218 . S
C150 O143 1.275 . S
C150 O145 1.255 . S
C151 O152 1.258 . S
C151 O153 1.256 1_554 S
O152 Cd144 2.381 . S
O152 C151 1.258 . S
O153 Cd144 2.378 1_556 S
O153 C151 1.256 1_556 S
O154 Cd155 2.300 1_545 S
O154 C161 1.275 . S
Cd155 O154 2.300 1_565 S
Cd155 O163 2.381 . S
Cd155 O164 2.378 . S
O156 Cd157 2.385 . S
O156 C161 1.255 . S
Cd157 O156 2.385 . S
Cd157 O158 2.317 . S
O158 Cd157 2.317 . S
O158 C159 1.232 . S
C159 O158 1.232 . S
C159 O160 1.218 . S
O160 C159 1.218 . S
C161 O154 1.275 . S
C161 O156 1.255 . S
C162 O163 1.258 . S
C162 O164 1.256 . S
O163 Cd155 2.381 . S
O163 C162 1.258 . S
O164 Cd155 2.378 . S
O164 C162 1.256 . S
O165 Cd166 2.300 1_556 S
O165 C172 1.275 . S
Cd166 O165 2.300 1_554 S
Cd166 O174 2.381 . S
Cd166 O175 2.378 . S
O167 Cd168 2.385 . S
O167 C172 1.255 1_554 S
Cd168 O167 2.385 . S
Cd168 O169 2.317 . S
O169 Cd168 2.317 . S
O169 C170 1.232 . S
C170 O169 1.232 . S
C170 O171 1.218 . S
O171 C170 1.218 . S
C172 O165 1.275 . S
C172 O167 1.255 1_556 S
C173 O174 1.258 . S
C173 O175 1.256 . S
O174 Cd166 2.381 . S
O174 C173 1.258 . S
O175 Cd166 2.378 . S
O175 C173 1.256 . S
C176 C177 1.349 . S
C176 C178 1.327 . S
C176 H201 0.950 . S
C177 C176 1.349 . S
C177 C193 1.349 . S
C178 C176 1.327 . S
C178 C197 1.429 . S
C178 H202 0.950 . S
C179 C196 1.574 . S
C179 C198 1.368 . S
C179 H203 0.949 . S
H180 C184 0.949 . S
C181 C182 1.349 . S
C181 C183 1.327 . S
C181 H204 0.950 . S
C182 C181 1.349 . S
C182 C194 1.349 . S
C183 C181 1.327 . S
C183 C199 1.429 . S
C183 H205 0.950 . S
C184 H180 0.949 . S
C184 C192 1.574 . S
C184 C200 1.368 . S
H185 C193 0.950 . S
H186 C191 0.950 . S
H187 C192 0.949 . S
H188 C194 0.950 . S
H189 C195 0.950 . S
H190 C196 0.949 . S
C191 H186 0.950 . S
C191 C193 1.327 . S
C191 C197 1.429 . S
C192 C184 1.574 . S
C192 H187 0.949 . S
C192 C198 1.368 . S
C193 C177 1.349 . S
C193 H185 0.950 . S
C193 C191 1.327 . S
C194 C182 1.349 . S
C194 H188 0.950 . S
C194 C195 1.327 . S
C195 H189 0.950 . S
C195 C194 1.327 . S
C195 C199 1.429 . S
C196 C179 1.574 . S
C196 H190 0.949 . S
C196 C200 1.368 . S
C197 C178 1.429 . S
C197 C191 1.429 . S
C197 C198 1.523 . S
C198 C179 1.368 . S
C198 C192 1.368 . S
C198 C197 1.523 . S
C199 C183 1.429 . S
C199 C195 1.429 . S
C199 C200 1.523 . S
C200 C184 1.368 . S
C200 C196 1.368 . S
C200 C199 1.523 . S
H201 C176 0.950 . S
H202 C178 0.950 . S
H203 C179 0.949 . S
H204 C181 0.950 . S
H205 C183 0.950 . S
C206 C207 1.349 . S
C206 C208 1.327 . S
C206 H231 0.950 . S
C207 C206 1.349 . S
C207 C223 1.349 . S
C208 C206 1.327 . S
C208 C227 1.429 . S
C208 H232 0.950 . S
C209 C226 1.574 . S
C209 C228 1.368 . S
C209 H233 0.949 . S
H210 C214 0.949 . S
C211 C212 1.349 . S
C211 C213 1.327 . S
C211 H234 0.950 . S
C212 C211 1.349 . S
C212 C224 1.349 . S
C213 C211 1.327 . S
C213 C229 1.429 . S
C213 H235 0.950 . S
C214 H210 0.949 . S
C214 C222 1.574 . S
C214 C230 1.368 . S
H215 C223 0.950 . S
H216 C221 0.950 . S
H217 C222 0.949 . S
H218 C224 0.950 . S
H219 C225 0.950 . S
H220 C226 0.949 . S
C221 H216 0.950 . S
C221 C223 1.327 . S
C221 C227 1.429 . S
C222 C214 1.574 . S
C222 H217 0.949 . S
C222 C228 1.368 . S
C223 C207 1.349 . S
C223 H215 0.950 . S
C223 C221 1.327 . S
C224 C212 1.349 . S
C224 H218 0.950 . S
C224 C225 1.327 . S
C225 H219 0.950 . S
C225 C224 1.327 . S
C225 C229 1.429 . S
C226 C209 1.574 . S
C226 H220 0.949 . S
C226 C230 1.368 . S
C227 C208 1.429 . S
C227 C221 1.429 . S
C227 C228 1.523 . S
C228 C209 1.368 . S
C228 C222 1.368 . S
C228 C227 1.523 . S
C229 C213 1.429 . S
C229 C225 1.429 . S
C229 C230 1.523 . S
C230 C214 1.368 . S
C230 C226 1.368 . S
C230 C229 1.523 . S
H231 C206 0.950 . S
H232 C208 0.950 . S
H233 C209 0.949 . S
H234 C211 0.950 . S
H235 C213 0.950 . S
C236 C237 1.349 . S
C236 C238 1.327 . S
C236 H261 0.950 . S
C237 C236 1.349 . S
C237 C253 1.349 . S
C238 C236 1.327 . S
C238 C257 1.429 . S
C238 H262 0.950 . S
C239 C256 1.574 . S
C239 C258 1.368 . S
C239 H263 0.949 . S
H240 C244 0.949 . S
C241 C242 1.349 . S
C241 C243 1.327 . S
C241 H264 0.950 . S
C242 C241 1.349 . S
C242 C254 1.349 . S
C243 C241 1.327 . S
C243 C259 1.429 . S
C243 H265 0.950 . S
C244 H240 0.949 . S
C244 C252 1.574 . S
C244 C260 1.368 . S
H245 C253 0.950 . S
H246 C251 0.950 . S
H247 C252 0.949 . S
H248 C254 0.950 . S
H249 C255 0.950 . S
H250 C256 0.949 . S
C251 H246 0.950 . S
C251 C253 1.327 . S
C251 C257 1.429 . S
C252 C244 1.574 . S
C252 H247 0.949 . S
C252 C258 1.368 . S
C253 C237 1.349 . S
C253 H245 0.950 . S
C253 C251 1.327 . S
C254 C242 1.349 . S
C254 H248 0.950 . S
C254 C255 1.327 . S
C255 H249 0.950 . S
C255 C254 1.327 . S
C255 C259 1.429 . S
C256 C239 1.574 . S
C256 H250 0.949 . S
C256 C260 1.368 . S
C257 C238 1.429 . S
C257 C251 1.429 . S
C257 C258 1.523 . S
C258 C239 1.368 . S
C258 C252 1.368 . S
C258 C257 1.523 . S
C259 C243 1.429 . S
C259 C255 1.429 . S
C259 C260 1.523 . S
C260 C244 1.368 . S
C260 C256 1.368 . S
C260 C259 1.523 . S
H261 C236 0.950 . S
H262 C238 0.950 . S
H263 C239 0.949 . S
H264 C241 0.950 . S
H265 C243 0.950 . S
C266 C267 1.349 . S
C266 C268 1.327 . S
C266 H291 0.950 . S
C267 C266 1.349 . S
C267 C283 1.349 . S
C268 C266 1.327 . S
C268 C287 1.429 . S
C268 H292 0.950 . S
C269 C286 1.574 . S
C269 C288 1.368 . S
C269 H293 0.949 . S
H270 C274 0.949 . S
C271 C272 1.349 . S
C271 C273 1.327 . S
C271 H294 0.950 . S
C272 C271 1.349 . S
C272 C284 1.349 . S
C273 C271 1.327 . S
C273 C289 1.429 . S
C273 H295 0.950 . S
C274 H270 0.949 . S
C274 C282 1.574 . S
C274 C290 1.368 . S
H275 C283 0.950 . S
H276 C281 0.950 . S
H277 C282 0.949 . S
H278 C284 0.950 . S
H279 C285 0.950 . S
H280 C286 0.949 . S
C281 H276 0.950 . S
C281 C283 1.327 . S
C281 C287 1.429 . S
C282 C274 1.574 . S
C282 H277 0.949 . S
C282 C288 1.368 . S
C283 C267 1.349 . S
C283 H275 0.950 . S
C283 C281 1.327 . S
C284 C272 1.349 . S
C284 H278 0.950 . S
C284 C285 1.327 . S
C285 H279 0.950 . S
C285 C284 1.327 . S
C285 C289 1.429 . S
C286 C269 1.574 . S
C286 H280 0.949 . S
C286 C290 1.368 . S
C287 C268 1.429 . S
C287 C281 1.429 . S
C287 C288 1.523 . S
C288 C269 1.368 . S
C288 C282 1.368 . S
C288 C287 1.523 . S
C289 C273 1.429 . S
C289 C285 1.429 . S
C289 C290 1.523 . S
C290 C274 1.368 . S
C290 C286 1.368 . S
C290 C289 1.523 . S
H291 C266 0.950 . S
H292 C268 0.950 . S
H293 C269 0.949 . S
H294 C271 0.950 . S
H295 C273 0.950 . S
C296 C297 1.349 . S
C296 C298 1.327 . S
C296 H321 0.950 . S
C297 C296 1.349 . S
C297 C313 1.349 . S
C298 C296 1.327 . S
C298 C317 1.429 . S
C298 H322 0.950 . S
C299 C316 1.574 . S
C299 C318 1.368 . S
C299 H323 0.949 . S
H300 C304 0.949 . S
C301 C302 1.349 . S
C301 C303 1.327 . S
C301 H324 0.950 . S
C302 C301 1.349 . S
C302 C314 1.349 . S
C303 C301 1.327 . S
C303 C319 1.429 . S
C303 H325 0.950 . S
C304 H300 0.949 . S
C304 C312 1.574 . S
C304 C320 1.368 . S
H305 C313 0.950 . S
H306 C311 0.950 . S
H307 C312 0.949 . S
H308 C314 0.950 . S
H309 C315 0.950 . S
H310 C316 0.949 . S
C311 H306 0.950 . S
C311 C313 1.327 . S
C311 C317 1.429 . S
C312 C304 1.574 . S
C312 H307 0.949 . S
C312 C318 1.368 . S
C313 C297 1.349 . S
C313 H305 0.950 . S
C313 C311 1.327 . S
C314 C302 1.349 . S
C314 H308 0.950 . S
C314 C315 1.327 . S
C315 H309 0.950 . S
C315 C314 1.327 . S
C315 C319 1.429 . S
C316 C299 1.574 . S
C316 H310 0.949 . S
C316 C320 1.368 . S
C317 C298 1.429 . S
C317 C311 1.429 . S
C317 C318 1.523 . S
C318 C299 1.368 . S
C318 C312 1.368 . S
C318 C317 1.523 . S
C319 C303 1.429 . S
C319 C315 1.429 . S
C319 C320 1.523 . S
C320 C304 1.368 . S
C320 C316 1.368 . S
C320 C319 1.523 . S
H321 C296 0.950 . S
H322 C298 0.950 . S
H323 C299 0.949 . S
H324 C301 0.950 . S
H325 C303 0.950 . S
C326 C327 1.349 . S
C326 C328 1.327 . S
C326 H351 0.950 . S
C327 C326 1.349 . S
C327 C343 1.349 . S
C328 C326 1.327 . S
C328 C347 1.429 . S
C328 H352 0.950 . S
C329 C346 1.574 . S
C329 C348 1.368 . S
C329 H353 0.949 . S
H330 C334 0.949 . S
C331 C332 1.349 . S
C331 C333 1.327 . S
C331 H354 0.950 . S
C332 C331 1.349 . S
C332 C344 1.349 . S
C333 C331 1.327 . S
C333 C349 1.429 . S
C333 H355 0.950 . S
C334 H330 0.949 . S
C334 C342 1.574 . S
C334 C350 1.368 . S
H335 C343 0.950 . S
H336 C341 0.950 . S
H337 C342 0.949 . S
H338 C344 0.950 . S
H339 C345 0.950 . S
H340 C346 0.949 . S
C341 H336 0.950 . S
C341 C343 1.327 . S
C341 C347 1.429 . S
C342 C334 1.574 . S
C342 H337 0.949 . S
C342 C348 1.368 . S
C343 C327 1.349 . S
C343 H335 0.950 . S
C343 C341 1.327 . S
C344 C332 1.349 . S
C344 H338 0.950 . S
C344 C345 1.327 . S
C345 H339 0.950 . S
C345 C344 1.327 . S
C345 C349 1.429 . S
C346 C329 1.574 . S
C346 H340 0.949 . S
C346 C350 1.368 . S
C347 C328 1.429 . S
C347 C341 1.429 . S
C347 C348 1.523 . S
C348 C329 1.368 . S
C348 C342 1.368 . S
C348 C347 1.523 . S
C349 C333 1.429 . S
C349 C345 1.429 . S
C349 C350 1.523 . S
C350 C334 1.368 . S
C350 C346 1.368 . S
C350 C349 1.523 . S
H351 C326 0.950 . S
H352 C328 0.950 . S
H353 C329 0.949 . S
H354 C331 0.950 . S
H355 C333 0.950 . S
C356 C357 1.349 . S
C356 C358 1.327 . S
C356 H381 0.950 . S
C357 C356 1.349 . S
C357 C373 1.349 . S
C358 C356 1.327 . S
C358 C377 1.429 . S
C358 H382 0.950 . S
C359 C376 1.574 . S
C359 C378 1.368 . S
C359 H383 0.949 . S
H360 C364 0.949 . S
C361 C362 1.349 . S
C361 C363 1.327 . S
C361 H384 0.950 . S
C362 C361 1.349 . S
C362 C374 1.349 . S
C363 C361 1.327 . S
C363 C379 1.429 . S
C363 H385 0.950 . S
C364 H360 0.949 . S
C364 C372 1.574 . S
C364 C380 1.368 . S
H365 C373 0.950 . S
H366 C371 0.950 . S
H367 C372 0.949 . S
H368 C374 0.950 . S
H369 C375 0.950 . S
H370 C376 0.949 . S
C371 H366 0.950 . S
C371 C373 1.327 . S
C371 C377 1.429 . S
C372 C364 1.574 . S
C372 H367 0.949 . S
C372 C378 1.368 . S
C373 C357 1.349 . S
C373 H365 0.950 . S
C373 C371 1.327 . S
C374 C362 1.349 . S
C374 H368 0.950 . S
C374 C375 1.327 . S
C375 H369 0.950 . S
C375 C374 1.327 . S
C375 C379 1.429 . S
C376 C359 1.574 . S
C376 H370 0.949 . S
C376 C380 1.368 . S
C377 C358 1.429 . S
C377 C371 1.429 . S
C377 C378 1.523 . S
C378 C359 1.368 . S
C378 C372 1.368 . S
C378 C377 1.523 . S
C379 C363 1.429 . S
C379 C375 1.429 . S
C379 C380 1.523 . S
C380 C364 1.368 . S
C380 C376 1.368 . S
C380 C379 1.523 . S
H381 C356 0.950 . S
H382 C358 0.950 . S
H383 C359 0.949 . S
H384 C361 0.950 . S
H385 C363 0.950 . S
C386 C387 1.349 . S
C386 C388 1.327 . S
C386 H411 0.950 . S
C387 C386 1.349 . S
C387 C403 1.349 . S
C388 C386 1.327 . S
C388 C407 1.429 . S
C388 H412 0.950 . S
C389 C406 1.574 . S
C389 C408 1.368 . S
C389 H413 0.949 . S
H390 C394 0.949 . S
C391 C392 1.349 . S
C391 C393 1.327 . S
C391 H414 0.950 . S
C392 C391 1.349 . S
C392 C404 1.349 . S
C393 C391 1.327 . S
C393 C409 1.429 . S
C393 H415 0.950 . S
C394 H390 0.949 . S
C394 C402 1.574 . S
C394 C410 1.368 . S
H395 C403 0.950 . S
H396 C401 0.950 . S
H397 C402 0.949 . S
H398 C404 0.950 . S
H399 C405 0.950 . S
H400 C406 0.949 . S
C401 H396 0.950 . S
C401 C403 1.327 . S
C401 C407 1.429 . S
C402 C394 1.574 . S
C402 H397 0.949 . S
C402 C408 1.368 . S
C403 C387 1.349 . S
C403 H395 0.950 . S
C403 C401 1.327 . S
C404 C392 1.349 . S
C404 H398 0.950 . S
C404 C405 1.327 . S
C405 H399 0.950 . S
C405 C404 1.327 . S
C405 C409 1.429 . S
C406 C389 1.574 . S
C406 H400 0.949 . S
C406 C410 1.368 . S
C407 C388 1.429 . S
C407 C401 1.429 . S
C407 C408 1.523 . S
C408 C389 1.368 . S
C408 C402 1.368 . S
C408 C407 1.523 . S
C409 C393 1.429 . S
C409 C405 1.429 . S
C409 C410 1.523 . S
C410 C394 1.368 . S
C410 C406 1.368 . S
C410 C409 1.523 . S
H411 C386 0.950 . S
H412 C388 0.950 . S
H413 C389 0.949 . S
H414 C391 0.950 . S
H415 C393 0.950 . S
C416 C417 1.349 . S
C416 C418 1.327 . S
C416 H441 0.950 . S
C417 C416 1.349 . S
C417 C433 1.349 . S
C418 C416 1.327 . S
C418 C437 1.429 . S
C418 H442 0.950 . S
C419 C436 1.574 . S
C419 C438 1.368 . S
C419 H443 0.949 . S
H420 C424 0.949 . S
C421 C422 1.349 . S
C421 C423 1.327 . S
C421 H444 0.950 . S
C422 C421 1.349 . S
C422 C434 1.349 . S
C423 C421 1.327 . S
C423 C439 1.429 . S
C423 H445 0.950 . S
C424 H420 0.949 . S
C424 C432 1.574 . S
C424 C440 1.368 . S
H425 C433 0.950 . S
H426 C431 0.950 . S
H427 C432 0.949 . S
H428 C434 0.950 . S
H429 C435 0.950 . S
H430 C436 0.949 . S
C431 H426 0.950 . S
C431 C433 1.327 . S
C431 C437 1.429 . S
C432 C424 1.574 . S
C432 H427 0.949 . S
C432 C438 1.368 . S
C433 C417 1.349 . S
C433 H425 0.950 . S
C433 C431 1.327 . S
C434 C422 1.349 . S
C434 H428 0.950 . S
C434 C435 1.327 . S
C435 H429 0.950 . S
C435 C434 1.327 . S
C435 C439 1.429 . S
C436 C419 1.574 . S
C436 H430 0.949 . S
C436 C440 1.368 . S
C437 C418 1.429 . S
C437 C431 1.429 . S
C437 C438 1.523 . S
C438 C419 1.368 . S
C438 C432 1.368 . S
C438 C437 1.523 . S
C439 C423 1.429 . S
C439 C435 1.429 . S
C439 C440 1.523 . S
C440 C424 1.368 . S
C440 C436 1.368 . S
C440 C439 1.523 . S
H441 C416 0.950 . S
H442 C418 0.950 . S
H443 C419 0.949 . S
H444 C421 0.950 . S
H445 C423 0.950 . S
C446 C447 1.349 . S
C446 C448 1.327 . S
C446 H471 0.950 . S
C447 C446 1.349 . S
C447 C463 1.349 . S
C448 C446 1.327 . S
C448 C467 1.429 . S
C448 H472 0.950 . S
C449 C466 1.574 . S
C449 C468 1.368 . S
C449 H473 0.949 . S
H450 C454 0.949 . S
C451 C452 1.349 . S
C451 C453 1.327 . S
C451 H474 0.950 . S
C452 C451 1.349 . S
C452 C464 1.349 . S
C453 C451 1.327 . S
C453 C469 1.429 . S
C453 H475 0.950 . S
C454 H450 0.949 . S
C454 C462 1.574 . S
C454 C470 1.368 . S
H455 C463 0.950 . S
H456 C461 0.950 . S
H457 C462 0.949 . S
H458 C464 0.950 . S
H459 C465 0.950 . S
H460 C466 0.949 . S
C461 H456 0.950 . S
C461 C463 1.327 . S
C461 C467 1.429 . S
C462 C454 1.574 . S
C462 H457 0.949 . S
C462 C468 1.368 . S
C463 C447 1.349 . S
C463 H455 0.950 . S
C463 C461 1.327 . S
C464 C452 1.349 . S
C464 H458 0.950 . S
C464 C465 1.327 . S
C465 H459 0.950 . S
C465 C464 1.327 . S
C465 C469 1.429 . S
C466 C449 1.574 . S
C466 H460 0.949 . S
C466 C470 1.368 . S
C467 C448 1.429 . S
C467 C461 1.429 . S
C467 C468 1.523 . S
C468 C449 1.368 . S
C468 C462 1.368 . S
C468 C467 1.523 . S
C469 C453 1.429 . S
C469 C465 1.429 . S
C469 C470 1.523 . S
C470 C454 1.368 . S
C470 C466 1.368 . S
C470 C469 1.523 . S
H471 C446 0.950 . S
H472 C448 0.950 . S
H473 C449 0.949 . S
H474 C451 0.950 . S
H475 C453 0.950 . S
C476 C477 1.349 . S
C476 C478 1.327 . S
C476 H501 0.950 . S
C477 C476 1.349 . S
C477 C493 1.349 . S
C478 C476 1.327 . S
C478 C497 1.429 . S
C478 H502 0.950 . S
C479 C496 1.574 . S
C479 C498 1.368 . S
C479 H503 0.949 . S
H480 C484 0.949 . S
C481 C482 1.349 . S
C481 C483 1.327 . S
C481 H504 0.950 . S
C482 C481 1.349 . S
C482 C494 1.349 . S
C483 C481 1.327 . S
C483 C499 1.429 . S
C483 H505 0.950 . S
C484 H480 0.949 . S
C484 C492 1.574 . S
C484 C500 1.368 . S
H485 C493 0.950 . S
H486 C491 0.950 . S
H487 C492 0.949 . S
H488 C494 0.950 . S
H489 C495 0.950 . S
H490 C496 0.949 . S
C491 H486 0.950 . S
C491 C493 1.327 . S
C491 C497 1.429 . S
C492 C484 1.574 . S
C492 H487 0.949 . S
C492 C498 1.368 . S
C493 C477 1.349 . S
C493 H485 0.950 . S
C493 C491 1.327 . S
C494 C482 1.349 . S
C494 H488 0.950 . S
C494 C495 1.327 . S
C495 H489 0.950 . S
C495 C494 1.327 . S
C495 C499 1.429 . S
C496 C479 1.574 . S
C496 H490 0.949 . S
C496 C500 1.368 . S
C497 C478 1.429 . S
C497 C491 1.429 . S
C497 C498 1.523 . S
C498 C479 1.368 . S
C498 C492 1.368 . S
C498 C497 1.523 . S
C499 C483 1.429 . S
C499 C495 1.429 . S
C499 C500 1.523 . S
C500 C484 1.368 . S
C500 C496 1.368 . S
C500 C499 1.523 . S
H501 C476 0.950 . S
H502 C478 0.950 . S
H503 C479 0.949 . S
H504 C481 0.950 . S
H505 C483 0.950 . S
C506 C507 1.349 . S
C506 C508 1.327 . S
C506 H531 0.950 . S
C507 C506 1.349 . S
C507 C523 1.349 . S
C508 C506 1.327 . S
C508 C527 1.429 . S
C508 H532 0.950 . S
C509 C526 1.574 . S
C509 C528 1.368 . S
C509 H533 0.949 . S
H510 C514 0.949 . S
C511 C512 1.349 . S
C511 C513 1.327 . S
C511 H534 0.950 . S
C512 C511 1.349 . S
C512 C524 1.349 . S
C513 C511 1.327 . S
C513 C529 1.429 . S
C513 H535 0.950 . S
C514 H510 0.949 . S
C514 C522 1.574 . S
C514 C530 1.368 . S
H515 C523 0.950 . S
H516 C521 0.950 . S
H517 C522 0.949 . S
H518 C524 0.950 . S
H519 C525 0.950 . S
H520 C526 0.949 . S
C521 H516 0.950 . S
C521 C523 1.327 . S
C521 C527 1.429 . S
C522 C514 1.574 . S
C522 H517 0.949 . S
C522 C528 1.368 . S
C523 C507 1.349 . S
C523 H515 0.950 . S
C523 C521 1.327 . S
C524 C512 1.349 . S
C524 H518 0.950 . S
C524 C525 1.327 . S
C525 H519 0.950 . S
C525 C524 1.327 . S
C525 C529 1.429 . S
C526 C509 1.574 . S
C526 H520 0.949 . S
C526 C530 1.368 . S
C527 C508 1.429 . S
C527 C521 1.429 . S
C527 C528 1.523 . S
C528 C509 1.368 . S
C528 C522 1.368 . S
C528 C527 1.523 . S
C529 C513 1.429 . S
C529 C525 1.429 . S
C529 C530 1.523 . S
C530 C514 1.368 . S
C530 C526 1.368 . S
C530 C529 1.523 . S
H531 C506 0.950 . S
H532 C508 0.950 . S
H533 C509 0.949 . S
H534 C511 0.950 . S
H535 C513 0.950 . S
C536 C537 1.349 . S
C536 C538 1.327 . S
C536 H561 0.950 . S
C537 C536 1.349 . S
C537 C553 1.349 . S
C538 C536 1.327 . S
C538 C557 1.429 . S
C538 H562 0.950 . S
C539 C556 1.574 . S
C539 C558 1.368 . S
C539 H563 0.949 . S
H540 C544 0.949 . S
C541 C542 1.349 . S
C541 C543 1.327 . S
C541 H564 0.950 . S
C542 C541 1.349 . S
C542 C554 1.349 . S
C543 C541 1.327 . S
C543 C559 1.429 . S
C543 H565 0.950 . S
C544 H540 0.949 . S
C544 C552 1.574 . S
C544 C560 1.368 . S
H545 C553 0.950 . S
H546 C551 0.950 . S
H547 C552 0.949 . S
H548 C554 0.950 . S
H549 C555 0.950 . S
H550 C556 0.949 . S
C551 H546 0.950 . S
C551 C553 1.327 . S
C551 C557 1.429 . S
C552 C544 1.574 . S
C552 H547 0.949 . S
C552 C558 1.368 . S
C553 C537 1.349 . S
C553 H545 0.950 . S
C553 C551 1.327 . S
C554 C542 1.349 . S
C554 H548 0.950 . S
C554 C555 1.327 . S
C555 H549 0.950 . S
C555 C554 1.327 . S
C555 C559 1.429 . S
C556 C539 1.574 . S
C556 H550 0.949 . S
C556 C560 1.368 . S
C557 C538 1.429 . S
C557 C551 1.429 . S
C557 C558 1.523 . S
C558 C539 1.368 . S
C558 C552 1.368 . S
C558 C557 1.523 . S
C559 C543 1.429 . S
C559 C555 1.429 . S
C559 C560 1.523 . S
C560 C544 1.368 . S
C560 C556 1.368 . S
C560 C559 1.523 . S
H561 C536 0.950 . S
H562 C538 0.950 . S
H563 C539 0.949 . S
H564 C541 0.950 . S
H565 C543 0.950 . S
C566 C567 1.349 . S
C566 C568 1.327 . S
C566 H591 0.950 . S
C567 C566 1.349 . S
C567 C583 1.349 . S
C568 C566 1.327 . S
C568 C587 1.429 . S
C568 H592 0.950 . S
C569 C586 1.574 . S
C569 C588 1.368 . S
C569 H593 0.949 . S
H570 C574 0.949 . S
C571 C572 1.349 . S
C571 C573 1.327 . S
C571 H594 0.950 . S
C572 C571 1.349 . S
C572 C584 1.349 . S
C573 C571 1.327 . S
C573 C589 1.429 . S
C573 H595 0.950 . S
C574 H570 0.949 . S
C574 C582 1.574 . S
C574 C590 1.368 . S
H575 C583 0.950 . S
H576 C581 0.950 . S
H577 C582 0.949 . S
H578 C584 0.950 . S
H579 C585 0.950 . S
H580 C586 0.949 . S
C581 H576 0.950 . S
C581 C583 1.327 . S
C581 C587 1.429 . S
C582 C574 1.574 . S
C582 H577 0.949 . S
C582 C588 1.368 . S
C583 C567 1.349 . S
C583 H575 0.950 . S
C583 C581 1.327 . S
C584 C572 1.349 . S
C584 H578 0.950 . S
C584 C585 1.327 . S
C585 H579 0.950 . S
C585 C584 1.327 . S
C585 C589 1.429 . S
C586 C569 1.574 . S
C586 H580 0.949 . S
C586 C590 1.368 . S
C587 C568 1.429 . S
C587 C581 1.429 . S
C587 C588 1.523 . S
C588 C569 1.368 . S
C588 C582 1.368 . S
C588 C587 1.523 . S
C589 C573 1.429 . S
C589 C585 1.429 . S
C589 C590 1.523 . S
C590 C574 1.368 . S
C590 C586 1.368 . S
C590 C589 1.523 . S
H591 C566 0.950 . S
H592 C568 0.950 . S
H593 C569 0.949 . S
H594 C571 0.950 . S
H595 C573 0.950 . S
C596 C597 1.349 . S
C596 C598 1.327 . S
C596 H621 0.950 . S
C597 C596 1.349 . S
C597 C613 1.349 . S
C598 C596 1.327 . S
C598 C617 1.429 . S
C598 H622 0.950 . S
C599 C616 1.574 . S
C599 C618 1.368 . S
C599 H623 0.949 . S
H600 C604 0.949 . S
C601 C602 1.349 . S
C601 C603 1.327 . S
C601 H624 0.950 . S
C602 C601 1.349 . S
C602 C614 1.349 . S
C603 C601 1.327 . S
C603 C619 1.429 . S
C603 H625 0.950 . S
C604 H600 0.949 . S
C604 C612 1.574 . S
C604 C620 1.368 . S
H605 C613 0.950 . S
H606 C611 0.950 . S
H607 C612 0.949 . S
H608 C614 0.950 . S
H609 C615 0.950 . S
H610 C616 0.949 . S
C611 H606 0.950 . S
C611 C613 1.327 . S
C611 C617 1.429 . S
C612 C604 1.574 . S
C612 H607 0.949 . S
C612 C618 1.368 . S
C613 C597 1.349 . S
C613 H605 0.950 . S
C613 C611 1.327 . S
C614 C602 1.349 . S
C614 H608 0.950 . S
C614 C615 1.327 . S
C615 H609 0.950 . S
C615 C614 1.327 . S
C615 C619 1.429 . S
C616 C599 1.574 . S
C616 H610 0.949 . S
C616 C620 1.368 . S
C617 C598 1.429 . S
C617 C611 1.429 . S
C617 C618 1.523 . S
C618 C599 1.368 . S
C618 C612 1.368 . S
C618 C617 1.523 . S
C619 C603 1.429 . S
C619 C615 1.429 . S
C619 C620 1.523 . S
C620 C604 1.368 . S
C620 C616 1.368 . S
C620 C619 1.523 . S
H621 C596 0.950 . S
H622 C598 0.950 . S
H623 C599 0.949 . S
H624 C601 0.950 . S
H625 C603 0.950 . S
C626 C627 1.349 . S
C626 C628 1.327 . S
C626 H651 0.950 . S
C627 C626 1.349 . S
C627 C643 1.349 . S
C628 C626 1.327 . S
C628 C647 1.429 . S
C628 H652 0.950 . S
C629 C646 1.574 . S
C629 C648 1.368 . S
C629 H653 0.949 . S
H630 C634 0.949 . S
C631 C632 1.349 . S
C631 C633 1.327 . S
C631 H654 0.950 . S
C632 C631 1.349 . S
C632 C644 1.349 . S
C633 C631 1.327 . S
C633 C649 1.429 . S
C633 H655 0.950 . S
C634 H630 0.949 . S
C634 C642 1.574 . S
C634 C650 1.368 . S
H635 C643 0.950 . S
H636 C641 0.950 . S
H637 C642 0.949 . S
H638 C644 0.950 . S
H639 C645 0.950 . S
H640 C646 0.949 . S
C641 H636 0.950 . S
C641 C643 1.327 . S
C641 C647 1.429 . S
C642 C634 1.574 . S
C642 H637 0.949 . S
C642 C648 1.368 . S
C643 C627 1.349 . S
C643 H635 0.950 . S
C643 C641 1.327 . S
C644 C632 1.349 . S
C644 H638 0.950 . S
C644 C645 1.327 . S
C645 H639 0.950 . S
C645 C644 1.327 . S
C645 C649 1.429 . S
C646 C629 1.574 . S
C646 H640 0.949 . S
C646 C650 1.368 . S
C647 C628 1.429 . S
C647 C641 1.429 . S
C647 C648 1.523 . S
C648 C629 1.368 . S
C648 C642 1.368 . S
C648 C647 1.523 . S
C649 C633 1.429 . S
C649 C645 1.429 . S
C649 C650 1.523 . S
C650 C634 1.368 . S
C650 C646 1.368 . S
C650 C649 1.523 . S
H651 C626 0.950 . S
H652 C628 0.950 . S
H653 C629 0.949 . S
H654 C631 0.950 . S
H655 C633 0.950 . S
C656 C657 1.349 . S
C656 C658 1.327 . S
C656 H681 0.950 . S
C657 C656 1.349 . S
C657 C673 1.349 1_554 S
C658 C656 1.327 . S
C658 C677 1.429 . S
C658 H682 0.950 . S
C659 C676 1.574 . S
C659 C678 1.368 1_556 S
C659 H683 0.949 . S
H660 C664 0.949 . S
C661 C662 1.349 1_556 S
C661 C663 1.327 . S
C661 H684 0.950 . S
C662 C661 1.349 1_554 S
C662 C674 1.349 . S
C663 C661 1.327 . S
C663 C679 1.429 1_556 S
C663 H685 0.950 . S
C664 H660 0.949 . S
C664 C672 1.574 . S
C664 C680 1.368 . S
H665 C673 0.950 . S
H666 C671 0.950 . S
H667 C672 0.949 . S
H668 C674 0.950 . S
H669 C675 0.950 . S
H670 C676 0.949 . S
C671 H666 0.950 . S
C671 C673 1.327 . S
C671 C677 1.429 1_556 S
C672 C664 1.574 . S
C672 H667 0.949 . S
C672 C678 1.368 . S
C673 C657 1.349 1_556 S
C673 H665 0.950 . S
C673 C671 1.327 . S
C674 C662 1.349 . S
C674 H668 0.950 . S
C674 C675 1.327 . S
C675 H669 0.950 . S
C675 C674 1.327 . S
C675 C679 1.429 . S
C676 C659 1.574 . S
C676 H670 0.949 . S
C676 C680 1.368 1_556 S
C677 C658 1.429 . S
C677 C671 1.429 1_554 S
C677 C678 1.523 . S
C678 C659 1.368 1_554 S
C678 C672 1.368 . S
C678 C677 1.523 . S
C679 C663 1.429 1_554 S
C679 C675 1.429 . S
C679 C680 1.523 . S
C680 C664 1.368 . S
C680 C676 1.368 1_554 S
C680 C679 1.523 . S
H681 C656 0.950 . S
H682 C658 0.950 . S
H683 C659 0.949 . S
H684 C661 0.950 . S
H685 C663 0.950 . S
C686 C687 1.349 . S
C686 C688 1.327 . S
C686 H711 0.950 . S
C687 C686 1.349 . S
C687 C703 1.349 . S
C688 C686 1.327 . S
C688 C707 1.429 . S
C688 H712 0.950 . S
C689 C706 1.574 . S
C689 C708 1.368 . S
C689 H713 0.949 . S
H690 C694 0.949 . S
C691 C692 1.349 . S
C691 C693 1.327 . S
C691 H714 0.950 . S
C692 C691 1.349 . S
C692 C704 1.349 . S
C693 C691 1.327 . S
C693 C709 1.429 . S
C693 H715 0.950 . S
C694 H690 0.949 . S
C694 C702 1.574 . S
C694 C710 1.368 . S
H695 C703 0.950 . S
H696 C701 0.950 . S
H697 C702 0.949 . S
H698 C704 0.950 . S
H699 C705 0.950 . S
H700 C706 0.949 . S
C701 H696 0.950 . S
C701 C703 1.327 . S
C701 C707 1.429 . S
C702 C694 1.574 . S
C702 H697 0.949 . S
C702 C708 1.368 . S
C703 C687 1.349 . S
C703 H695 0.950 . S
C703 C701 1.327 . S
C704 C692 1.349 . S
C704 H698 0.950 . S
C704 C705 1.327 . S
C705 H699 0.950 . S
C705 C704 1.327 . S
C705 C709 1.429 . S
C706 C689 1.574 . S
C706 H700 0.949 . S
C706 C710 1.368 . S
C707 C688 1.429 . S
C707 C701 1.429 . S
C707 C708 1.523 . S
C708 C689 1.368 . S
C708 C702 1.368 . S
C708 C707 1.523 . S
C709 C693 1.429 . S
C709 C705 1.429 . S
C709 C710 1.523 . S
C710 C694 1.368 . S
C710 C706 1.368 . S
C710 C709 1.523 . S
H711 C686 0.950 . S
H712 C688 0.950 . S
H713 C689 0.949 . S
H714 C691 0.950 . S
H715 C693 0.950 . S
C716 C717 1.349 1_556 S
C716 C718 1.327 . S
C716 H741 0.950 . S
C717 C716 1.349 1_554 S
C717 C733 1.349 . S
C718 C716 1.327 . S
C718 C737 1.429 1_556 S
C718 H742 0.950 . S
C719 C736 1.574 . S
C719 C738 1.368 . S
C719 H743 0.949 . S
H720 C724 0.949 . S
C721 C722 1.349 . S
C721 C723 1.327 . S
C721 H744 0.950 . S
C722 C721 1.349 . S
C722 C734 1.349 1_554 S
C723 C721 1.327 . S
C723 C739 1.429 . S
C723 H745 0.950 . S
C724 H720 0.949 . S
C724 C732 1.574 . S
C724 C740 1.368 1_556 S
H725 C733 0.950 . S
H726 C731 0.950 . S
H727 C732 0.949 . S
H728 C734 0.950 . S
H729 C735 0.950 . S
H730 C736 0.949 . S
C731 H726 0.950 . S
C731 C733 1.327 . S
C731 C737 1.429 . S
C732 C724 1.574 . S
C732 H727 0.949 . S
C732 C738 1.368 1_556 S
C733 C717 1.349 . S
C733 H725 0.950 . S
C733 C731 1.327 . S
C734 C722 1.349 1_556 S
C734 H728 0.950 . S
C734 C735 1.327 . S
C735 H729 0.950 . S
C735 C734 1.327 . S
C735 C739 1.429 1_556 S
C736 C719 1.574 . S
C736 H730 0.949 . S
C736 C740 1.368 . S
C737 C718 1.429 1_554 S
C737 C731 1.429 . S
C737 C738 1.523 . S
C738 C719 1.368 . S
C738 C732 1.368 1_554 S
C738 C737 1.523 . S
C739 C723 1.429 . S
C739 C735 1.429 1_554 S
C739 C740 1.523 . S
C740 C724 1.368 1_554 S
C740 C736 1.368 . S
C740 C739 1.523 . S
H741 C716 0.950 . S
H742 C718 0.950 . S
H743 C719 0.949 . S
H744 C721 0.950 . S
H745 C723 0.950 . S
C746 C747 1.349 . S
C746 C748 1.327 . S
C746 H771 0.950 . S
C747 C746 1.349 . S
C747 C763 1.349 . S
C748 C746 1.327 . S
C748 C767 1.429 . S
C748 H772 0.950 . S
C749 C766 1.574 . S
C749 C768 1.368 . S
C749 H773 0.949 . S
H750 C754 0.949 . S
C751 C752 1.349 . S
C751 C753 1.327 . S
C751 H774 0.950 . S
C752 C751 1.349 . S
C752 C764 1.349 . S
C753 C751 1.327 . S
C753 C769 1.429 . S
C753 H775 0.950 . S
C754 H750 0.949 . S
C754 C762 1.574 . S
C754 C770 1.368 . S
H755 C763 0.950 . S
H756 C761 0.950 . S
H757 C762 0.949 . S
H758 C764 0.950 . S
H759 C765 0.950 . S
H760 C766 0.949 . S
C761 H756 0.950 . S
C761 C763 1.327 . S
C761 C767 1.429 . S
C762 C754 1.574 . S
C762 H757 0.949 . S
C762 C768 1.368 . S
C763 C747 1.349 . S
C763 H755 0.950 . S
C763 C761 1.327 . S
C764 C752 1.349 . S
C764 H758 0.950 . S
C764 C765 1.327 . S
C765 H759 0.950 . S
C765 C764 1.327 . S
C765 C769 1.429 . S
C766 C749 1.574 . S
C766 H760 0.949 . S
C766 C770 1.368 . S
C767 C748 1.429 . S
C767 C761 1.429 . S
C767 C768 1.523 . S
C768 C749 1.368 . S
C768 C762 1.368 . S
C768 C767 1.523 . S
C769 C753 1.429 . S
C769 C765 1.429 . S
C769 C770 1.523 . S
C770 C754 1.368 . S
C770 C766 1.368 . S
C770 C769 1.523 . S
H771 C746 0.950 . S
H772 C748 0.950 . S
H773 C749 0.949 . S
H774 C751 0.950 . S
H775 C753 0.950 . S
C776 C777 1.349 . S
C776 C778 1.327 . S
C776 H801 0.950 . S
C777 C776 1.349 . S
C777 C793 1.349 . S
C778 C776 1.327 . S
C778 C797 1.429 . S
C778 H802 0.950 . S
C779 C796 1.574 . S
C779 C798 1.368 . S
C779 H803 0.949 . S
H780 C784 0.949 . S
C781 C782 1.349 . S
C781 C783 1.327 . S
C781 H804 0.950 . S
C782 C781 1.349 . S
C782 C794 1.349 . S
C783 C781 1.327 . S
C783 C799 1.429 . S
C783 H805 0.950 . S
C784 H780 0.949 . S
C784 C792 1.574 . S
C784 C800 1.368 . S
H785 C793 0.950 . S
H786 C791 0.950 . S
H787 C792 0.949 . S
H788 C794 0.950 . S
H789 C795 0.950 . S
H790 C796 0.949 . S
C791 H786 0.950 . S
C791 C793 1.327 . S
C791 C797 1.429 . S
C792 C784 1.574 . S
C792 H787 0.949 . S
C792 C798 1.368 . S
C793 C777 1.349 . S
C793 H785 0.950 . S
C793 C791 1.327 . S
C794 C782 1.349 . S
C794 H788 0.950 . S
C794 C795 1.327 . S
C795 H789 0.950 . S
C795 C794 1.327 . S
C795 C799 1.429 . S
C796 C779 1.574 . S
C796 H790 0.949 . S
C796 C800 1.368 . S
C797 C778 1.429 . S
C797 C791 1.429 . S
C797 C798 1.523 . S
C798 C779 1.368 . S
C798 C792 1.368 . S
C798 C797 1.523 . S
C799 C783 1.429 . S
C799 C795 1.429 . S
C799 C800 1.523 . S
C800 C784 1.368 . S
C800 C796 1.368 . S
C800 C799 1.523 . S
H801 C776 0.950 . S
H802 C778 0.950 . S
H803 C779 0.949 . S
H804 C781 0.950 . S
H805 C783 0.950 . S
C806 C807 1.349 1_556 S
C806 C808 1.327 . S
C806 H831 0.950 . S
C807 C806 1.349 1_554 S
C807 C823 1.349 . S
C808 C806 1.327 . S
C808 C827 1.429 1_556 S
C808 H832 0.950 . S
C809 C826 1.574 . S
C809 C828 1.368 . S
C809 H833 0.949 . S
H810 C814 0.949 . S
C811 C812 1.349 . S
C811 C813 1.327 . S
C811 H834 0.950 . S
C812 C811 1.349 . S
C812 C824 1.349 1_554 S
C813 C811 1.327 . S
C813 C829 1.429 . S
C813 H835 0.950 . S
C814 H810 0.949 . S
C814 C822 1.574 . S
C814 C830 1.368 1_556 S
H815 C823 0.950 . S
H816 C821 0.950 . S
H817 C822 0.949 . S
H818 C824 0.950 . S
H819 C825 0.950 . S
H820 C826 0.949 . S
C821 H816 0.950 . S
C821 C823 1.327 . S
C821 C827 1.429 . S
C822 C814 1.574 . S
C822 H817 0.949 . S
C822 C828 1.368 1_556 S
C823 C807 1.349 . S
C823 H815 0.950 . S
C823 C821 1.327 . S
C824 C812 1.349 1_556 S
C824 H818 0.950 . S
C824 C825 1.327 . S
C825 H819 0.950 . S
C825 C824 1.327 . S
C825 C829 1.429 1_556 S
C826 C809 1.574 . S
C826 H820 0.949 . S
C826 C830 1.368 . S
C827 C808 1.429 1_554 S
C827 C821 1.429 . S
C827 C828 1.523 . S
C828 C809 1.368 . S
C828 C822 1.368 1_554 S
C828 C827 1.523 . S
C829 C813 1.429 . S
C829 C825 1.429 1_554 S
C829 C830 1.523 . S
C830 C814 1.368 1_554 S
C830 C826 1.368 . S
C830 C829 1.523 . S
H831 C806 0.950 . S
H832 C808 0.950 . S
H833 C809 0.949 . S
H834 C811 0.950 . S
H835 C813 0.950 . S
C836 C837 1.349 . S
C836 C838 1.327 . S
C836 H861 0.950 . S
C837 C836 1.349 . S
C837 C853 1.349 . S
C838 C836 1.327 . S
C838 C857 1.429 . S
C838 H862 0.950 . S
C839 C856 1.574 . S
C839 C858 1.368 . S
C839 H863 0.949 . S
H840 C844 0.949 . S
C841 C842 1.349 . S
C841 C843 1.327 . S
C841 H864 0.950 . S
C842 C841 1.349 . S
C842 C854 1.349 . S
C843 C841 1.327 . S
C843 C859 1.429 . S
C843 H865 0.950 . S
C844 H840 0.949 . S
C844 C852 1.574 . S
C844 C860 1.368 . S
H845 C853 0.950 . S
H846 C851 0.950 . S
H847 C852 0.949 . S
H848 C854 0.950 . S
H849 C855 0.950 . S
H850 C856 0.949 . S
C851 H846 0.950 . S
C851 C853 1.327 . S
C851 C857 1.429 . S
C852 C844 1.574 . S
C852 H847 0.949 . S
C852 C858 1.368 . S
C853 C837 1.349 . S
C853 H845 0.950 . S
C853 C851 1.327 . S
C854 C842 1.349 . S
C854 H848 0.950 . S
C854 C855 1.327 . S
C855 H849 0.950 . S
C855 C854 1.327 . S
C855 C859 1.429 . S
C856 C839 1.574 . S
C856 H850 0.949 . S
C856 C860 1.368 . S
C857 C838 1.429 . S
C857 C851 1.429 . S
C857 C858 1.523 . S
C858 C839 1.368 . S
C858 C852 1.368 . S
C858 C857 1.523 . S
C859 C843 1.429 . S
C859 C855 1.429 . S
C859 C860 1.523 . S
C860 C844 1.368 . S
C860 C856 1.368 . S
C860 C859 1.523 . S
H861 C836 0.950 . S
H862 C838 0.950 . S
H863 C839 0.949 . S
H864 C841 0.950 . S
H865 C843 0.950 . S
C866 C867 1.349 1_556 S
C866 C868 1.327 . S
C866 H891 0.950 . S
C867 C866 1.349 1_554 S
C867 C883 1.349 . S
C868 C866 1.327 . S
C868 C887 1.429 1_556 S
C868 H892 0.950 . S
C869 C886 1.574 . S
C869 C888 1.368 . S
C869 H893 0.949 . S
H870 C874 0.949 . S
C871 C872 1.349 . S
C871 C873 1.327 . S
C871 H894 0.950 . S
C872 C871 1.349 . S
C872 C884 1.349 1_554 S
C873 C871 1.327 . S
C873 C889 1.429 . S
C873 H895 0.950 . S
C874 H870 0.949 . S
C874 C882 1.574 . S
C874 C890 1.368 1_556 S
H875 C883 0.950 . S
H876 C881 0.950 . S
H877 C882 0.949 . S
H878 C884 0.950 . S
H879 C885 0.950 . S
H880 C886 0.949 . S
C881 H876 0.950 . S
C881 C883 1.327 . S
C881 C887 1.429 . S
C882 C874 1.574 . S
C882 H877 0.949 . S
C882 C888 1.368 1_556 S
C883 C867 1.349 . S
C883 H875 0.950 . S
C883 C881 1.327 . S
C884 C872 1.349 1_556 S
C884 H878 0.950 . S
C884 C885 1.327 . S
C885 H879 0.950 . S
C885 C884 1.327 . S
C885 C889 1.429 1_556 S
C886 C869 1.574 . S
C886 H880 0.949 . S
C886 C890 1.368 . S
C887 C868 1.429 1_554 S
C887 C881 1.429 . S
C887 C888 1.523 . S
C888 C869 1.368 . S
C888 C882 1.368 1_554 S
C888 C887 1.523 . S
C889 C873 1.429 . S
C889 C885 1.429 1_554 S
C889 C890 1.523 . S
C890 C874 1.368 1_554 S
C890 C886 1.368 . S
C890 C889 1.523 . S
H891 C866 0.950 . S
H892 C868 0.950 . S
H893 C869 0.949 . S
H894 C871 0.950 . S
H895 C873 0.950 . S
C177 C21 1.483 . S
C182 C126 1.247 . S
C207 C40 1.560 . S
C212 C95 1.487 . S
C242 C106 1.456 . S
C237 C54 1.467 . S
C267 C73 1.512 . S
C272 C115 1.395 . S
C302 C150 1.479 . S
C297 C74 1.491 . S
C332 C159 1.385 . S
C327 C10 1.511 . S
C362 C170 1.224 . S
C357 C37 1.456 . S
C392 C139 1.502 . S
C387 C65 1.563 . S
C417 C52 1.433 . S
C422 C104 1.289 . S
C447 C87 1.589 . S
C452 C117 1.587 . S
C477 C15 1.513 . S
C482 C128 1.479 . S
C512 C93 1.193 . S
C507 C32 1.475 . S
C537 C29 1.543 . S
C542 C172 1.506 . S
C572 C137 1.246 . S
C567 C59 1.541 . S
C602 C148 1.277 . S
C597 C84 1.413 . S
C627 C8 1.528 . S
C632 C161 1.519 . S
C662 C96 1.566 . S
C657 C7 1.597 . S
C692 C107 1.522 . S
C687 C30 1.518 . S
C717 C62 1.610 . S
C722 C118 1.610 . S
C747 C81 1.529 . S
C752 C129 1.520 . S
C782 C140 1.569 . S
C777 C76 1.610 . S
C807 C18 1.521 . S
C812 C151 1.526 . S
C837 C43 1.599 . S
C842 C162 1.606 . S
C867 C51 1.531 . S
C872 C173 1.523 . S
