# Generated by pormake.
# Topology csq, (4,8)-cn, num edge types: 1
# Building blocks:
#     Node 0, Type 0, BuildingBlock: NAWXER_clean_sbu_0, # of connection points: 4
#     Node 1, Type 0, BuildingBlock: NAWXER_clean_sbu_0, # of connection points: 4
#     Node 2, Type 0, BuildingBlock: NAWXER_clean_sbu_0, # of connection points: 4
#     Node 3, Type 0, BuildingBlock: NAWXER_clean_sbu_0, # of connection points: 4
#     Node 4, Type 0, BuildingBlock: NAWXER_clean_sbu_0, # of connection points: 4
#     Node 5, Type 0, BuildingBlock: NAWXER_clean_sbu_0, # of connection points: 4
#     Node 6, Type 1, BuildingBlock: TAGTUT_clean_sbu_1, # of connection points: 8
#     Node 7, Type 1, BuildingBlock: TAGTUT_clean_sbu_1, # of connection points: 8
#     Node 8, Type 1, BuildingBlock: TAGTUT_clean_sbu_1, # of connection points: 8
#     Edge 9, Type (0, 1), BuildingBlock: AJUNOK_clean_linker_0, # of connection points: 2
#     Edge 10, Type (0, 1), BuildingBlock: AJUNOK_clean_linker_0, # of connection points: 2
#     Edge 11, Type (0, 1), BuildingBlock: AJUNOK_clean_linker_0, # of connection points: 2
#     Edge 12, Type (0, 1), BuildingBlock: AJUNOK_clean_linker_0, # of connection points: 2
#     Edge 13, Type (0, 1), BuildingBlock: AJUNOK_clean_linker_0, # of connection points: 2
#     Edge 14, Type (0, 1), BuildingBlock: AJUNOK_clean_linker_0, # of connection points: 2
#     Edge 15, Type (0, 1), BuildingBlock: AJUNOK_clean_linker_0, # of connection points: 2
#     Edge 16, Type (0, 1), BuildingBlock: AJUNOK_clean_linker_0, # of connection points: 2
#     Edge 17, Type (0, 1), BuildingBlock: AJUNOK_clean_linker_0, # of connection points: 2
#     Edge 18, Type (0, 1), BuildingBlock: AJUNOK_clean_linker_0, # of connection points: 2
#     Edge 19, Type (0, 1), BuildingBlock: AJUNOK_clean_linker_0, # of connection points: 2
#     Edge 20, Type (0, 1), BuildingBlock: AJUNOK_clean_linker_0, # of connection points: 2
#     Edge 21, Type (0, 1), BuildingBlock: AJUNOK_clean_linker_0, # of connection points: 2
#     Edge 22, Type (0, 1), BuildingBlock: AJUNOK_clean_linker_0, # of connection points: 2
#     Edge 23, Type (0, 1), BuildingBlock: AJUNOK_clean_linker_0, # of connection points: 2
#     Edge 24, Type (0, 1), BuildingBlock: AJUNOK_clean_linker_0, # of connection points: 2
#     Edge 25, Type (0, 1), BuildingBlock: AJUNOK_clean_linker_0, # of connection points: 2
#     Edge 26, Type (0, 1), BuildingBlock: AJUNOK_clean_linker_0, # of connection points: 2
#     Edge 27, Type (0, 1), BuildingBlock: AJUNOK_clean_linker_0, # of connection points: 2
#     Edge 28, Type (0, 1), BuildingBlock: AJUNOK_clean_linker_0, # of connection points: 2
#     Edge 29, Type (0, 1), BuildingBlock: AJUNOK_clean_linker_0, # of connection points: 2
#     Edge 30, Type (0, 1), BuildingBlock: AJUNOK_clean_linker_0, # of connection points: 2
#     Edge 31, Type (0, 1), BuildingBlock: AJUNOK_clean_linker_0, # of connection points: 2
#     Edge 32, Type (0, 1), BuildingBlock: AJUNOK_clean_linker_0, # of connection points: 2
# Relax obj value: 0.042
# Max RMSD: 0.125
# Mean RMSD: 0.070
data_MOF--net-csq--node1-NAWXER_clean_sbu_0--node2-TAGTUT_clean_sbu_1--edge1-AJUNOK_clean_linker_0
_symmetry_space_group_name_H-M    P1
_symmetry_Int_Tables_number       1
_symmetry_cell_setting            triclinic
loop_
_symmetry_equiv_pos_as_xyz
'x, y, z'
_cell_length_a     37.124577
_cell_length_b     36.988726
_cell_length_c     14.698053
_cell_angle_alpha  92.384295
_cell_angle_beta   93.0992
_cell_angle_gamma 119.80241
loop_
_atom_site_label
_atom_site_type_symbol
_atom_site_fract_x
_atom_site_fract_y
_atom_site_fract_z
_atom_type_partial_charge
C0 C 0.31798 0.52058 0.10435 0.0
C1 C 0.21676 0.5228 0.3091 0.0
O2 O 0.32033 0.55398 0.13907 0.0
Zn3 Zn 0.27074 0.52605 0.20949 0.0
O4 O 0.29022 0.48513 0.128 0.0
Zn5 Zn 0.2385 0.45815 0.20839 0.0
O6 O 0.19511 0.42536 0.10754 0.0
O7 O 0.22528 0.49345 0.09841 0.0
O8 O 0.21114 0.48641 0.28677 0.0
O9 O 0.24671 0.55454 0.27796 0.0
O10 O 0.29235 0.50312 0.31587 0.0
O11 O 0.25774 0.4343 0.30381 0.0
C12 C 0.19979 0.45636 0.06395 0.0
C13 C 0.28546 0.46859 0.34645 0.0
C14 C 0.72299 0.20568 0.03878 0.0
C15 C 0.83636 0.32433 0.22861 0.0
O16 O 0.7486 0.19691 0.08043 0.0
Zn17 Zn 0.80381 0.22752 0.1726 0.0
O18 O 0.7275 0.24196 0.05238 0.0
Zn19 Zn 0.77669 0.26549 0.13957 0.0
O20 O 0.82233 0.26842 0.05311 0.0
O21 O 0.84659 0.22797 0.10088 0.0
O22 O 0.80494 0.32432 0.18915 0.0
O23 O 0.83774 0.29046 0.22774 0.0
O24 O 0.7883 0.19683 0.28109 0.0
O25 O 0.75505 0.23154 0.25918 0.0
C26 C 0.84688 0.25371 0.04564 0.0
C27 C 0.76214 0.20701 0.3066 0.0
C28 C 0.59988 0.85165 0.18168 0.0
C29 C 0.59116 0.74775 0.95567 0.0
O30 O 0.63057 0.84985 0.15216 0.0
Zn31 Zn 0.5976 0.8006 0.06876 0.0
O32 O 0.56255 0.8227 0.15692 0.0
Zn33 Zn 0.53019 0.768 0.06689 0.0
O34 O 0.50291 0.72185 0.14577 0.0
O35 O 0.57124 0.75032 0.15371 0.0
O36 O 0.55554 0.74105 0.97765 0.0
O37 O 0.62436 0.78058 0.98777 0.0
O38 O 0.56725 0.82226 0.97894 0.0
O39 O 0.49906 0.786 0.98701 0.0
C40 C 0.53581 0.7219 0.17565 0.0
C41 C 0.53069 0.81572 0.95533 0.0
C42 C 0.81912 0.50315 0.99846 0.0
C43 C 0.71422 0.50054 0.19527 0.0
O44 O 0.82331 0.53914 0.01838 0.0
Zn45 Zn 0.79448 0.56582 0.09715 0.0
O46 O 0.79109 0.47146 0.03378 0.0
Zn47 Zn 0.76568 0.49884 0.10003 0.0
O48 O 0.74186 0.51948 0.99122 0.0
O49 O 0.77475 0.58836 1.00071 0.0
O50 O 0.71635 0.46858 0.16757 0.0
O51 O 0.74052 0.53678 0.17221 0.0
O52 O 0.83745 0.6008 0.19668 0.0
O53 O 0.80966 0.53335 0.2123 0.0
C54 C 0.74753 0.55346 0.95941 0.0
C55 C 0.83413 0.57121 0.24351 0.0
C56 C 0.18996 0.76435 0.25679 0.0
C57 C 0.27145 0.81135 0.99101 0.0
O58 O 0.18893 0.78958 0.20176 0.0
Zn59 Zn 0.23081 0.79016 0.12651 0.0
O60 O 0.21464 0.74994 0.24665 0.0
Zn61 Zn 0.25906 0.75281 0.15673 0.0
O62 O 0.30901 0.77693 0.24203 0.0
O63 O 0.28672 0.82126 0.21625 0.0
O64 O 0.27935 0.78703 0.03722 0.0
O65 O 0.24507 0.82091 0.01811 0.0
O66 O 0.19681 0.72714 0.07231 0.0
O67 O 0.23062 0.69384 0.10723 0.0
C68 C 0.31299 0.81296 0.25636 0.0
C69 C 0.19852 0.69345 0.07062 0.0
C70 C 0.44696 0.27303 0.3472 0.0
C71 C 0.43273 0.17002 0.11083 0.0
O72 O 0.48174 0.27816 0.32286 0.0
Zn73 Zn 0.5049 0.25109 0.2281 0.0
O74 O 0.41295 0.24094 0.31535 0.0
Zn75 Zn 0.43762 0.2197 0.23134 0.0
O76 O 0.46815 0.19764 0.31724 0.0
O77 O 0.53596 0.23143 0.30416 0.0
O78 O 0.40315 0.17045 0.14957 0.0
O79 O 0.47055 0.19859 0.13242 0.0
O80 O 0.53198 0.29879 0.15347 0.0
O81 O 0.46365 0.27078 0.14847 0.0
C82 C 0.50441 0.20311 0.33897 0.0
C83 C 0.49907 0.29956 0.12731 0.0
C84 C 0.9665 0.37299 0.83044 0.0
C85 C 0.09137 0.45051 0.772 0.0
C86 C 0.06345 0.58053 0.8227 0.0
Mg87 Mg 1.00694 0.41437 0.6565 0.0
O88 O 0.99955 0.45696 0.70967 0.0
Mg89 Mg 0.02337 0.47899 0.83817 0.0
Mg90 Mg 0.01606 0.51022 0.65117 0.0
O91 O 0.03255 0.56338 0.59311 0.0
Mg92 Mg 0.0274 0.60718 0.64703 0.0
Mg93 Mg 0.00927 0.54209 0.46427 0.0
C94 C 0.96981 0.44003 0.47978 0.0
C95 C 0.08544 0.52415 0.50416 0.0
O96 O 0.98585 0.40926 0.87495 0.0
O97 O 0.96806 0.36781 0.74425 0.0
O98 O 0.07881 0.47035 0.82165 0.0
O99 O 0.06985 0.42739 0.70021 0.0
O100 O 0.98059 0.41569 0.51859 0.0
O101 O 0.97662 0.47477 0.5196 0.0
C102 C 0.94741 0.49726 0.7996 0.0
O103 O 0.95925 0.50926 0.72005 0.0
O104 O 0.96723 0.4855 0.85267 0.0
O105 O 0.04797 0.61192 0.42841 0.0
O106 O 0.06785 0.65291 0.56046 0.0
O107 O 0.95412 0.55213 0.48022 0.0
C108 C 0.0687 0.64786 0.47401 0.0
O109 O 0.96581 0.59687 0.60046 0.0
O110 O 0.0536 0.60579 0.78523 0.0
C111 C 0.94334 0.57383 0.52936 0.0
O112 O 0.05553 0.54568 0.78189 0.0
O113 O 0.07323 0.51165 0.58313 0.0
O114 O 0.06547 0.53546 0.45038 0.0
C115 C 0.43332 0.04113 0.8803 0.0
C116 C 0.38877 0.91838 0.75352 0.0
C117 C 0.55006 0.95769 0.76675 0.0
Mg118 Mg 0.42863 0.00516 0.6832 0.0
O119 O 0.4823 0.01954 0.73183 0.0
Mg120 Mg 0.48702 0.99098 0.83986 0.0
Mg121 Mg 0.51695 0.01002 0.6484 0.0
O122 O 0.55155 1.00046 0.56395 0.0
Mg123 Mg 0.60522 0.01338 0.60943 0.0
Mg124 Mg 0.54662 0.0305 0.45843 0.0
C125 C 0.48324 0.06142 0.52937 0.0
C126 C 0.45494 0.94973 0.47248 0.0
O127 O 0.4556 0.02564 0.91124 0.0
O128 O 0.41985 0.03642 0.79624 0.0
O129 O 0.42224 0.93341 0.80623 0.0
O130 O 0.38426 0.93945 0.69176 0.0
O131 O 0.4478 0.04115 0.56308 0.0
O132 O 0.51394 0.05591 0.55252 0.0
C133 C 0.57916 0.07078 0.82367 0.0
O134 O 0.57446 0.06399 0.73631 0.0
O135 O 0.55082 0.04746 0.8738 0.0
O136 O 0.57851 0.99852 0.38302 0.0
O137 O 0.61493 0.98505 0.49085 0.0
O138 O 0.61099 0.08757 0.49415 0.0
C139 C 0.60178 0.98322 0.40748 0.0
O140 O 0.64928 0.07978 0.60511 0.0
O141 O 0.58445 0.97558 0.72776 0.0
C142 C 0.64464 0.10183 0.54587 0.0
O143 O 0.51992 0.9645 0.74603 0.0
O144 O 0.45955 0.95597 0.55999 0.0
O145 O 0.48314 0.97379 0.4229 0.0
C146 C 0.54164 0.5885 0.35685 0.0
C147 C 0.60308 0.51866 0.42962 0.0
C148 C 0.46012 0.41362 0.56504 0.0
Mg149 Mg 0.58546 0.57992 0.53466 0.0
O150 O 0.52874 0.54142 0.54166 0.0
Mg151 Mg 0.50248 0.49454 0.44286 0.0
Mg152 Mg 0.51614 0.51029 0.65225 0.0
O153 O 0.50346 0.47871 0.7618 0.0
Mg154 Mg 0.4475 0.43763 0.76806 0.0
Mg155 Mg 0.52832 0.5254 0.86013 0.0
C156 C 0.57425 0.60646 0.73763 0.0
C157 C 0.60502 0.53056 0.7575 0.0
O158 O 0.51443 0.54912 0.34961 0.0
O159 O 0.57165 0.60552 0.41999 0.0
O160 O 0.56396 0.49912 0.40763 0.0
O161 O 0.61981 0.54979 0.4894 0.0
O162 O 0.59563 0.61378 0.66767 0.0
O163 O 0.54055 0.57126 0.74373 0.0
C164 C 0.42656 0.48938 0.5488 0.0
O165 O 0.44779 0.49877 0.62683 0.0
O166 O 0.44182 0.48756 0.47451 0.0
O167 O 0.51665 0.47155 0.95518 0.0
O168 O 0.46201 0.41314 0.88382 0.0
O169 O 0.46528 0.52056 0.88896 0.0
C170 C 0.49119 0.43178 0.94828 0.0
O171 O 0.41165 0.46621 0.81005 0.0
O172 O 0.43858 0.40417 0.63489 0.0
C173 C 0.42623 0.49884 0.86537 0.0
O174 O 0.49233 0.44996 0.56052 0.0
O175 O 0.5843 0.52163 0.67886 0.0
O176 O 0.5894 0.53236 0.8314 0.0
C177 C 0.16149 0.49255 0.41992 0.0
C178 C 0.18752 0.52652 0.36969 0.0
C179 C 0.13042 0.49297 0.47015 0.0
C180 C 0.12389 0.52721 0.47115 0.0
H181 H 0.16429 0.46475 0.41843 0.0
H182 H 0.10989 0.46542 0.50376 0.0
S183 S 0.18575 0.62575 0.35995 0.0
N184 N 0.20646 0.59679 0.33151 0.0
N185 N 0.14801 0.59738 0.42441 0.0
C186 C 0.15104 0.56223 0.42553 0.0
C187 C 0.18287 0.56199 0.37529 0.0
C188 C 0.74466 0.16025 0.43639 0.0
C189 C 0.73765 0.18819 0.3862 0.0
C190 C 0.71713 0.1361 0.49986 0.0
C191 C 0.68135 0.13871 0.51496 0.0
H192 H 0.77011 0.15497 0.42257 0.0
H193 H 0.72171 0.1123 0.53007 0.0
S194 S 0.65312 0.21282 0.41638 0.0
N195 N 0.6957 0.2218 0.36827 0.0
N196 N 0.64391 0.17582 0.48596 0.0
C197 C 0.67645 0.16959 0.47285 0.0
C198 C 0.70452 0.19438 0.4087 0.0
C199 C 0.57206 0.68556 0.23618 0.0
C200 C 0.53459 0.68644 0.22242 0.0
C201 C 0.5731 0.65192 0.27279 0.0
C202 C 0.53687 0.61757 0.29849 0.0
H203 H 0.60128 0.71103 0.21789 0.0
H204 H 0.60294 0.65342 0.28368 0.0
S205 S 0.43103 0.60473 0.28387 0.0
N206 N 0.46011 0.64976 0.23993 0.0
N207 N 0.46251 0.58665 0.31192 0.0
C208 C 0.49899 0.61749 0.28539 0.0
C209 C 0.49778 0.65195 0.24708 0.0
C210 C 0.89981 0.61199 0.3476 0.0
C211 C 0.85855 0.57887 0.3327 0.0
C212 C 0.92614 0.6133 0.42168 0.0
C213 C 0.91201 0.58175 0.48334 0.0
H214 H 0.91283 0.63497 0.2978 0.0
H215 H 0.95887 0.63688 0.42545 0.0
S216 S 0.80402 0.49466 0.48768 0.0
N217 N 0.80266 0.51844 0.39594 0.0
N218 N 0.85269 0.52076 0.53352 0.0
C219 C 0.86983 0.55118 0.47477 0.0
C220 C 0.84294 0.54983 0.39983 0.0
C221 C 0.36923 0.88692 0.28466 0.0
C222 C 0.34856 0.84656 0.31507 0.0
C223 C 0.4028 0.92001 0.33757 0.0
C224 C 0.41654 0.91447 0.42431 0.0
H225 H 0.35987 0.89285 0.21837 0.0
H226 H 0.41831 0.9503 0.30987 0.0
S227 S 0.37061 0.81552 0.53877 0.0
N228 N 0.34277 0.80297 0.43904 0.0
N229 N 0.40544 0.86579 0.54029 0.0
C230 C 0.3952 0.87457 0.45727 0.0
C231 C 0.36142 0.84043 0.40207 0.0
C232 C 0.48351 0.34802 0.40321 0.0
C233 C 0.4475 0.30823 0.40003 0.0
C234 C 0.48598 0.38268 0.45086 0.0
C235 C 0.45271 0.37904 0.49849 0.0
H236 H 0.51046 0.35268 0.36895 0.0
H237 H 0.51508 0.41205 0.45385 0.0
S238 S 0.34956 0.28308 0.50329 0.0
N239 N 0.37637 0.268 0.44173 0.0
N240 N 0.38106 0.33332 0.5329 0.0
C241 C 0.41565 0.33995 0.49229 0.0
C242 C 0.41303 0.30452 0.44281 0.0
C243 C 0.55527 0.86229 0.83034 0.0
C244 C 0.52792 0.8465 0.89914 0.0
C245 C 0.56203 0.89822 0.78939 0.0
C246 C 0.54181 0.92026 0.81538 0.0
H247 H 0.57283 0.84749 0.81009 0.0
H248 H 0.5836 0.9088 0.73675 0.0
S249 S 0.46711 0.89196 0.9933 0.0
N250 N 0.48028 0.85531 0.99236 0.0
N251 N 0.49248 0.923 0.91365 0.0
C252 C 0.51321 0.90409 0.88221 0.0
C253 C 0.50638 0.86719 0.92451 0.0
C254 C 0.71263 0.58486 0.86745 0.0
C255 C 0.71881 0.5509 0.88149 0.0
C256 C 0.67795 0.57948 0.81245 0.0
C257 C 0.64852 0.54015 0.76907 0.0
H258 H 0.73235 0.61476 0.90564 0.0
H259 H 0.67168 0.60514 0.81198 0.0
S260 S 0.65533 0.44378 0.76668 0.0
N261 N 0.69657 0.47839 0.83337 0.0
N262 N 0.63115 0.46867 0.73181 0.0
C263 C 0.65708 0.50745 0.77324 0.0
C264 C 0.6923 0.51272 0.82923 0.0
C265 C 0.16595 0.62802 0.96469 0.0
C266 C 0.16175 0.65508 0.02756 0.0
C267 C 0.13179 0.59935 0.90433 0.0
C268 C 0.09283 0.59732 0.90529 0.0
H269 H 0.19634 0.63155 0.95653 0.0
H270 H 0.13702 0.58177 0.851 0.0
S271 S 0.06376 0.65409 0.07178 0.0
N272 N 0.11386 0.67211 0.09895 0.0
N273 N 0.0504 0.61919 0.98419 0.0
C274 C 0.08735 0.62075 0.9746 0.0
C275 C 0.12171 0.64943 0.03619 0.0
C276 C 0.41278 0.09557 0.07893 0.0
C277 C 0.42536 0.13515 0.047 0.0
C278 C 0.41519 0.06461 0.02513 0.0
C279 C 0.42952 0.07242 0.93766 0.0
H280 H 0.40314 0.08933 0.14753 0.0
H281 H 0.40624 0.03477 0.05218 0.0
S282 S 0.46648 0.17137 0.82477 0.0
N283 N 0.45304 0.18066 0.92452 0.0
N284 N 0.45649 0.12256 0.822 0.0
C285 C 0.44117 0.11163 0.90468 0.0
C286 C 0.43938 0.14305 0.95981 0.0
C287 C 0.38758 0.54863 0.03906 0.0
C288 C 0.34456 0.52049 0.03244 0.0
C289 C 0.41353 0.54285 0.98091 0.0
C290 C 0.3974 0.50904 0.9131 0.0
H291 H 0.40159 0.57384 0.09243 0.0
H292 H 0.4467 0.56407 0.99215 0.0
S293 S 0.28516 0.43225 0.85554 0.0
N294 N 0.28597 0.46159 0.94422 0.0
N295 N 0.3343 0.45108 0.83453 0.0
C296 C 0.35382 0.48313 0.90061 0.0
C297 C 0.32758 0.48877 0.96035 0.0
C298 C 0.92048 0.3025 0.0223 0.0
C299 C 0.87999 0.27384 0.98403 0.0
C300 C 0.94922 0.33358 0.9709 0.0
C301 C 0.93857 0.33637 0.87916 0.0
H302 H 0.92882 0.30319 0.09441 0.0
H303 H 0.97931 0.35661 1.00424 0.0
S304 S 0.8373 0.26626 0.74608 0.0
N305 N 0.83124 0.24867 0.84885 0.0
N306 N 0.88558 0.30578 0.75062 0.0
C307 C 0.89912 0.30587 0.83848 0.0
C308 C 0.86969 0.27492 0.89144 0.0
C309 C 0.85638 0.46658 0.94375 0.0
C310 C 0.84786 0.49938 0.93685 0.0
C311 C 0.88704 0.46515 0.89454 0.0
C312 C 0.91011 0.49605 0.83511 0.0
H313 H 0.84064 0.44281 0.99069 0.0
H314 H 0.89369 0.44018 0.90553 0.0
S315 S 0.89587 0.58544 0.78271 0.0
N316 N 0.86219 0.56146 0.85877 0.0
N317 N 0.91957 0.55825 0.76598 0.0
C318 C 0.90001 0.52745 0.82272 0.0
C319 C 0.86906 0.5293 0.87384 0.0
C320 C 0.28978 0.86098 0.86693 0.0
C321 C 0.29558 0.83101 0.91157 0.0
C322 C 0.31736 0.88582 0.80438 0.0
C323 C 0.35196 0.88186 0.78469 0.0
H324 H 0.26537 0.86727 0.8846 0.0
H325 H 0.31383 0.91098 0.77841 0.0
S326 S 0.37592 0.80205 0.86578 0.0
N327 N 0.33451 0.79391 0.91794 0.0
N328 N 0.38672 0.8415 0.80251 0.0
C329 C 0.35565 0.84928 0.82123 0.0
C330 C 0.3274 0.82365 0.88417 0.0
C331 C 0.4639 0.33923 0.08251 0.0
C332 C 0.50032 0.33605 0.08563 0.0
C333 C 0.46252 0.37252 0.0448 0.0
C334 C 0.4975 0.40444 0.00903 0.0
H335 H 0.43562 0.31543 0.10834 0.0
H336 H 0.43323 0.37243 0.04028 0.0
S337 S 0.60086 0.41235 1.00107 0.0
N338 N 0.57292 0.36906 0.05201 0.0
N339 N 0.56983 0.43154 0.97854 0.0
C340 C 0.53463 0.40282 0.01389 0.0
C341 C 0.53616 0.36867 0.05279 0.0
C342 C 0.14071 0.41364 0.94268 0.0
C343 C 0.17715 0.45127 0.97314 0.0
C344 C 0.11541 0.41146 0.86531 0.0
C345 C 0.12575 0.44676 0.81601 0.0
H346 H 0.13007 0.38667 0.98236 0.0
H347 H 0.08543 0.38332 0.84994 0.0
S348 S 0.22167 0.54991 0.85555 0.0
N349 N 0.22574 0.52251 0.93723 0.0
N350 N 0.17713 0.51826 0.79514 0.0
C351 C 0.16398 0.48301 0.84008 0.0
C352 C 0.18993 0.48532 0.91789 0.0
C353 C 0.66692 0.13167 0.00832 0.0
C354 C 0.68734 0.17236 0.97957 0.0
C355 C 0.63274 0.09906 0.95579 0.0
C356 C 0.61814 0.10546 0.87102 0.0
H357 H 0.67683 0.12511 0.07325 0.0
H358 H 0.61738 0.06849 0.98225 0.0
S359 S 0.66291 0.20547 0.76096 0.0
N360 N 0.69183 0.21713 0.85898 0.0
N361 N 0.62806 0.15517 0.75834 0.0
C362 C 0.63922 0.14564 0.83946 0.0
C363 C 0.6736 0.17929 0.89436 0.0
C364 C 0.61212 0.71844 0.82594 0.0
C365 C 0.59281 0.7132 0.9073 0.0
C366 C 0.60815 0.68372 0.77421 0.0
C367 C 0.58491 0.64278 0.80265 0.0
H368 H 0.62844 0.74903 0.79989 0.0
H369 H 0.62157 0.68893 0.70909 0.0
S370 S 0.53709 0.61517 0.02262 0.0
N371 N 0.55536 0.6659 0.02142 0.0
N372 N 0.54868 0.60093 0.92568 0.0
C373 C 0.56867 0.6381 0.88805 0.0
C374 C 0.5724 0.67328 0.93998 0.0
C375 C 0.52835 0.1523 0.37632 0.0
C376 C 0.50675 0.17329 0.399 0.0
C377 C 0.52115 0.11611 0.41905 0.0
C378 C 0.49162 0.09963 0.48416 0.0
H379 H 0.54906 0.16248 0.32202 0.0
H380 H 0.53764 0.10019 0.39879 0.0
S381 S 0.4325 0.14774 0.57695 0.0
N382 N 0.45904 0.17833 0.49813 0.0
N383 N 0.44505 0.11079 0.57738 0.0
C384 C 0.472 0.12218 0.51097 0.0
C385 C 0.47975 0.15892 0.4687 0.0
C386 C 0.31932 0.43582 0.43737 0.0
C387 C 0.31329 0.46997 0.42504 0.0
C388 C 0.35368 0.44064 0.49283 0.0
C389 C 0.38296 0.47962 0.53815 0.0
H390 H 0.29988 0.40634 0.39739 0.0
H391 H 0.35998 0.41499 0.49188 0.0
S392 S 0.37589 0.57587 0.54609 0.0
N393 N 0.33507 0.54192 0.47748 0.0
N394 N 0.39992 0.55065 0.5796 0.0
C395 C 0.37428 0.51228 0.53603 0.0
C396 C 0.33938 0.50755 0.4797 0.0
C397 C 0.91189 0.3648 0.27664 0.0
C398 C 0.87277 0.36241 0.27399 0.0
C399 C 0.94532 0.39394 0.33653 0.0
C400 C 0.94104 0.422 0.39594 0.0
H401 H 0.916 0.34211 0.23634 0.0
H402 H 0.97367 0.39225 0.34146 0.0
S403 S 0.84762 0.43376 0.4035 0.0
N404 N 0.83342 0.39444 0.3259 0.0
N405 N 0.89654 0.4497 0.43926 0.0
C406 C 0.90365 0.4232 0.38664 0.0
C407 C 0.86935 0.39321 0.32538 0.0
C408 C 0.576 0.90191 0.21507 0.0
C409 C 0.60554 0.88928 0.23322 0.0
C410 C 0.57724 0.93497 0.2671 0.0
C411 C 0.60773 0.95625 0.34032 0.0
H412 H 0.55097 0.88543 0.16138 0.0
H413 H 0.55253 0.94203 0.25319 0.0
S414 S 0.69556 0.93889 0.40755 0.0
N415 N 0.66879 0.90329 0.32197 0.0
N416 N 0.67099 0.96539 0.42201 0.0
C417 C 0.63916 0.94574 0.35533 0.0
C418 C 0.63814 0.91226 0.30113 0.0
C419 C 0.68694 0.49685 0.34864 0.0
C420 C 0.68176 0.49747 0.25314 0.0
C421 C 0.66127 0.50334 0.40666 0.0
C422 C 0.62936 0.50996 0.37044 0.0
H423 H 0.71212 0.49323 0.37881 0.0
H424 H 0.66668 0.50364 0.47993 0.0
S425 S 0.60494 0.51672 0.12565 0.0
N426 N 0.644 0.50729 0.12594 0.0
N427 N 0.59477 0.51762 0.23343 0.0
C428 C 0.62363 0.5099 0.27494 0.0
C429 C 0.65014 0.5042 0.21663 0.0
C430 C 0.11618 0.7242 0.29271 0.0
C431 C 0.15877 0.74513 0.32318 0.0
C432 C 0.08653 0.69337 0.34323 0.0
C433 C 0.09856 0.68385 0.42712 0.0
H434 H 0.10619 0.72912 0.22606 0.0
H435 H 0.05432 0.67593 0.31517 0.0
S436 S 0.20566 0.73323 0.54072 0.0
N437 N 0.21108 0.75628 0.44452 0.0
N438 N 0.15527 0.70002 0.54167 0.0
C439 C 0.14056 0.70701 0.46154 0.0
C440 C 0.17072 0.73739 0.40908 0.0
loop_
_geom_bond_atom_site_label_1
_geom_bond_atom_site_label_2
_geom_bond_distance
_geom_bond_site_symmetry_2
_ccdc_geom_bond_type
C0 O2 1.247 . S
C0 O4 1.258 . S
C1 O8 1.247 . S
C1 O9 1.258 . S
O2 C0 1.247 . S
O2 Zn3 2.028 . S
Zn3 O2 2.028 . S
Zn3 O7 2.035 . S
Zn3 O9 2.035 . S
Zn3 O10 2.028 . S
O4 C0 1.258 . S
O4 Zn5 2.035 . S
Zn5 O4 2.035 . S
Zn5 O6 2.028 . S
Zn5 O8 2.028 . S
Zn5 O11 2.035 . S
O6 Zn5 2.028 . S
O6 C12 1.247 . S
O7 Zn3 2.035 . S
O7 C12 1.258 . S
O8 C1 1.247 . S
O8 Zn5 2.028 . S
O9 C1 1.258 . S
O9 Zn3 2.035 . S
O10 Zn3 2.028 . S
O10 C13 1.247 . S
O11 Zn5 2.035 . S
O11 C13 1.258 . S
C12 O6 1.247 . S
C12 O7 1.258 . S
C13 O10 1.247 . S
C13 O11 1.258 . S
C14 O16 1.247 . S
C14 O18 1.258 . S
C15 O22 1.247 . S
C15 O23 1.258 . S
O16 C14 1.247 . S
O16 Zn17 2.028 . S
Zn17 O16 2.028 . S
Zn17 O21 2.035 . S
Zn17 O23 2.035 . S
Zn17 O24 2.028 . S
O18 C14 1.258 . S
O18 Zn19 2.035 . S
Zn19 O18 2.035 . S
Zn19 O20 2.028 . S
Zn19 O22 2.028 . S
Zn19 O25 2.035 . S
O20 Zn19 2.028 . S
O20 C26 1.247 . S
O21 Zn17 2.035 . S
O21 C26 1.258 . S
O22 C15 1.247 . S
O22 Zn19 2.028 . S
O23 C15 1.258 . S
O23 Zn17 2.035 . S
O24 Zn17 2.028 . S
O24 C27 1.247 . S
O25 Zn19 2.035 . S
O25 C27 1.258 . S
C26 O20 1.247 . S
C26 O21 1.258 . S
C27 O24 1.247 . S
C27 O25 1.258 . S
C28 O30 1.247 . S
C28 O32 1.258 . S
C29 O36 1.247 . S
C29 O37 1.258 . S
O30 C28 1.247 . S
O30 Zn31 2.028 . S
Zn31 O30 2.028 . S
Zn31 O35 2.035 . S
Zn31 O37 2.035 1_554 S
Zn31 O38 2.028 1_554 S
O32 C28 1.258 . S
O32 Zn33 2.035 . S
Zn33 O32 2.035 . S
Zn33 O34 2.028 . S
Zn33 O36 2.028 1_554 S
Zn33 O39 2.035 1_554 S
O34 Zn33 2.028 . S
O34 C40 1.247 . S
O35 Zn31 2.035 . S
O35 C40 1.258 . S
O36 C29 1.247 . S
O36 Zn33 2.028 1_556 S
O37 C29 1.258 . S
O37 Zn31 2.035 1_556 S
O38 Zn31 2.028 1_556 S
O38 C41 1.247 . S
O39 Zn33 2.035 1_556 S
O39 C41 1.258 . S
C40 O34 1.247 . S
C40 O35 1.258 . S
C41 O38 1.247 . S
C41 O39 1.258 . S
C42 O44 1.247 . S
C42 O46 1.258 . S
C43 O50 1.247 . S
C43 O51 1.258 . S
O44 C42 1.247 . S
O44 Zn45 2.028 1_556 S
Zn45 O44 2.028 1_554 S
Zn45 O49 2.035 1_554 S
Zn45 O51 2.035 . S
Zn45 O52 2.028 . S
O46 C42 1.258 . S
O46 Zn47 2.035 1_556 S
Zn47 O46 2.035 1_554 S
Zn47 O48 2.028 1_554 S
Zn47 O50 2.028 . S
Zn47 O53 2.035 . S
O48 Zn47 2.028 1_556 S
O48 C54 1.247 . S
O49 Zn45 2.035 1_556 S
O49 C54 1.258 . S
O50 C43 1.247 . S
O50 Zn47 2.028 . S
O51 C43 1.258 . S
O51 Zn45 2.035 . S
O52 Zn45 2.028 . S
O52 C55 1.247 . S
O53 Zn47 2.035 . S
O53 C55 1.258 . S
C54 O48 1.247 . S
C54 O49 1.258 . S
C55 O52 1.247 . S
C55 O53 1.258 . S
C56 O58 1.247 . S
C56 O60 1.258 . S
C57 O64 1.247 . S
C57 O65 1.258 . S
O58 C56 1.247 . S
O58 Zn59 2.028 . S
Zn59 O58 2.028 . S
Zn59 O63 2.035 . S
Zn59 O65 2.035 . S
Zn59 O66 2.028 . S
O60 C56 1.258 . S
O60 Zn61 2.035 . S
Zn61 O60 2.035 . S
Zn61 O62 2.028 . S
Zn61 O64 2.028 . S
Zn61 O67 2.035 . S
O62 Zn61 2.028 . S
O62 C68 1.247 . S
O63 Zn59 2.035 . S
O63 C68 1.258 . S
O64 C57 1.247 . S
O64 Zn61 2.028 . S
O65 C57 1.258 . S
O65 Zn59 2.035 . S
O66 Zn59 2.028 . S
O66 C69 1.247 1_554 S
O67 Zn61 2.035 . S
O67 C69 1.258 1_554 S
C68 O62 1.247 . S
C68 O63 1.258 . S
C69 O66 1.247 1_556 S
C69 O67 1.258 1_556 S
C70 O72 1.247 . S
C70 O74 1.258 . S
C71 O78 1.247 . S
C71 O79 1.258 . S
O72 C70 1.247 . S
O72 Zn73 2.028 . S
Zn73 O72 2.028 . S
Zn73 O77 2.035 . S
Zn73 O79 2.035 . S
Zn73 O80 2.028 . S
O74 C70 1.258 . S
O74 Zn75 2.035 . S
Zn75 O74 2.035 . S
Zn75 O76 2.028 . S
Zn75 O78 2.028 . S
Zn75 O81 2.035 . S
O76 Zn75 2.028 . S
O76 C82 1.247 . S
O77 Zn73 2.035 . S
O77 C82 1.258 . S
O78 C71 1.247 . S
O78 Zn75 2.028 . S
O79 C71 1.258 . S
O79 Zn73 2.035 . S
O80 Zn73 2.028 . S
O80 C83 1.247 . S
O81 Zn75 2.035 . S
O81 C83 1.258 . S
C82 O76 1.247 . S
C82 O77 1.258 . S
C83 O80 1.247 . S
C83 O81 1.258 . S
C84 O96 1.241 . S
C84 O97 1.280 . S
C85 O98 1.277 . S
C85 O99 1.245 . S
C86 O110 1.247 . S
C86 O112 1.289 . S
Mg87 O88 1.926 . S
Mg87 O97 1.984 . S
Mg87 O99 1.988 1_655 S
Mg87 O100 2.061 . S
O88 Mg87 1.926 . S
O88 Mg89 1.986 1_655 S
O88 Mg90 1.917 1_655 S
Mg89 O88 1.986 1_455 S
Mg89 O96 2.042 1_455 S
Mg89 O98 2.041 . S
Mg89 O104 2.038 1_455 S
Mg89 O112 2.238 . S
Mg90 O88 1.917 1_455 S
Mg90 O91 1.917 . S
Mg90 O101 2.106 1_455 S
Mg90 O103 2.079 1_455 S
Mg90 O112 2.106 . S
Mg90 O113 2.079 . S
O91 Mg90 1.917 . S
O91 Mg92 1.926 . S
O91 Mg93 1.986 . S
Mg92 O91 1.926 . S
Mg92 O106 1.984 . S
Mg92 O109 1.988 1_455 S
Mg92 O110 2.061 . S
Mg93 O91 1.986 . S
Mg93 O101 2.238 1_455 S
Mg93 O105 2.042 . S
Mg93 O107 2.041 1_455 S
Mg93 O114 2.038 . S
C94 O100 1.247 . S
C94 O101 1.289 . S
C95 O113 1.245 . S
C95 O114 1.274 . S
O96 C84 1.241 . S
O96 Mg89 2.042 1_655 S
O97 C84 1.280 . S
O97 Mg87 1.984 . S
O98 C85 1.277 . S
O98 Mg89 2.041 . S
O99 C85 1.245 . S
O99 Mg87 1.988 1_455 S
O100 Mg87 2.061 . S
O100 C94 1.247 . S
O101 Mg90 2.106 1_655 S
O101 Mg93 2.238 1_655 S
O101 C94 1.289 . S
C102 O103 1.245 . S
C102 O104 1.274 . S
O103 Mg90 2.079 1_655 S
O103 C102 1.245 . S
O104 Mg89 2.038 1_655 S
O104 C102 1.274 . S
O105 Mg93 2.042 . S
O105 C108 1.241 . S
O106 Mg92 1.984 . S
O106 C108 1.280 . S
O107 Mg93 2.041 1_655 S
O107 C111 1.277 . S
C108 O105 1.241 . S
C108 O106 1.280 . S
O109 Mg92 1.988 1_655 S
O109 C111 1.245 . S
O110 C86 1.247 . S
O110 Mg92 2.061 . S
C111 O107 1.277 . S
C111 O109 1.245 . S
O112 C86 1.289 . S
O112 Mg89 2.238 . S
O112 Mg90 2.106 . S
O113 Mg90 2.079 . S
O113 C95 1.245 . S
O114 Mg93 2.038 . S
O114 C95 1.274 . S
C115 O127 1.241 . S
C115 O128 1.280 . S
C116 O129 1.277 . S
C116 O130 1.245 . S
C117 O141 1.247 . S
C117 O143 1.289 . S
Mg118 O119 1.926 . S
Mg118 O128 1.984 . S
Mg118 O130 1.988 1_545 S
Mg118 O131 2.061 . S
O119 Mg118 1.926 . S
O119 Mg120 1.986 . S
O119 Mg121 1.917 . S
Mg120 O119 1.986 . S
Mg120 O127 2.042 . S
Mg120 O129 2.041 1_545 S
Mg120 O135 2.038 . S
Mg120 O143 2.238 1_545 S
Mg121 O119 1.917 . S
Mg121 O122 1.917 1_545 S
Mg121 O132 2.106 . S
Mg121 O134 2.079 . S
Mg121 O143 2.106 1_545 S
Mg121 O144 2.079 1_545 S
O122 Mg121 1.917 1_565 S
O122 Mg123 1.926 . S
O122 Mg124 1.986 1_565 S
Mg123 O122 1.926 . S
Mg123 O137 1.984 . S
Mg123 O140 1.988 1_565 S
Mg123 O141 2.061 . S
Mg124 O122 1.986 1_545 S
Mg124 O132 2.238 . S
Mg124 O136 2.042 1_545 S
Mg124 O138 2.041 . S
Mg124 O145 2.038 1_545 S
C125 O131 1.247 . S
C125 O132 1.289 . S
C126 O144 1.245 . S
C126 O145 1.274 . S
O127 C115 1.241 . S
O127 Mg120 2.042 . S
O128 C115 1.280 . S
O128 Mg118 1.984 . S
O129 C116 1.277 . S
O129 Mg120 2.041 1_565 S
O130 C116 1.245 . S
O130 Mg118 1.988 1_565 S
O131 Mg118 2.061 . S
O131 C125 1.247 . S
O132 Mg121 2.106 . S
O132 Mg124 2.238 . S
O132 C125 1.289 . S
C133 O134 1.245 . S
C133 O135 1.274 . S
O134 Mg121 2.079 . S
O134 C133 1.245 . S
O135 Mg120 2.038 . S
O135 C133 1.274 . S
O136 Mg124 2.042 1_565 S
O136 C139 1.241 . S
O137 Mg123 1.984 . S
O137 C139 1.280 . S
O138 Mg124 2.041 . S
O138 C142 1.277 . S
C139 O136 1.241 . S
C139 O137 1.280 . S
O140 Mg123 1.988 1_545 S
O140 C142 1.245 . S
O141 C117 1.247 . S
O141 Mg123 2.061 . S
C142 O138 1.277 . S
C142 O140 1.245 . S
O143 C117 1.289 . S
O143 Mg120 2.238 1_565 S
O143 Mg121 2.106 1_565 S
O144 Mg121 2.079 1_565 S
O144 C126 1.245 . S
O145 Mg124 2.038 1_565 S
O145 C126 1.274 . S
C146 O158 1.241 . S
C146 O159 1.280 . S
C147 O160 1.277 . S
C147 O161 1.245 . S
C148 O172 1.247 . S
C148 O174 1.289 . S
Mg149 O150 1.926 . S
Mg149 O159 1.984 . S
Mg149 O161 1.988 . S
Mg149 O162 2.061 . S
O150 Mg149 1.926 . S
O150 Mg151 1.986 . S
O150 Mg152 1.917 . S
Mg151 O150 1.986 . S
Mg151 O158 2.042 . S
Mg151 O160 2.041 . S
Mg151 O166 2.038 . S
Mg151 O174 2.238 . S
Mg152 O150 1.917 . S
Mg152 O153 1.917 . S
Mg152 O163 2.106 . S
Mg152 O165 2.079 . S
Mg152 O174 2.106 . S
Mg152 O175 2.079 . S
O153 Mg152 1.917 . S
O153 Mg154 1.926 . S
O153 Mg155 1.986 . S
Mg154 O153 1.926 . S
Mg154 O168 1.984 . S
Mg154 O171 1.988 . S
Mg154 O172 2.061 . S
Mg155 O153 1.986 . S
Mg155 O163 2.238 . S
Mg155 O167 2.042 . S
Mg155 O169 2.041 . S
Mg155 O176 2.038 . S
C156 O162 1.247 . S
C156 O163 1.289 . S
C157 O175 1.245 . S
C157 O176 1.274 . S
O158 C146 1.241 . S
O158 Mg151 2.042 . S
O159 C146 1.280 . S
O159 Mg149 1.984 . S
O160 C147 1.277 . S
O160 Mg151 2.041 . S
O161 C147 1.245 . S
O161 Mg149 1.988 . S
O162 Mg149 2.061 . S
O162 C156 1.247 . S
O163 Mg152 2.106 . S
O163 Mg155 2.238 . S
O163 C156 1.289 . S
C164 O165 1.245 . S
C164 O166 1.274 . S
O165 Mg152 2.079 . S
O165 C164 1.245 . S
O166 Mg151 2.038 . S
O166 C164 1.274 . S
O167 Mg155 2.042 . S
O167 C170 1.241 . S
O168 Mg154 1.984 . S
O168 C170 1.280 . S
O169 Mg155 2.041 . S
O169 C173 1.277 . S
C170 O167 1.241 . S
C170 O168 1.280 . S
O171 Mg154 1.988 . S
O171 C173 1.245 . S
O172 C148 1.247 . S
O172 Mg154 2.061 . S
C173 O169 1.277 . S
C173 O171 1.245 . S
O174 C148 1.289 . S
O174 Mg151 2.238 . S
O174 Mg152 2.106 . S
O175 Mg152 2.079 . S
O175 C157 1.245 . S
O176 Mg155 2.038 . S
O176 C157 1.274 . S
C177 C178 1.369 . S
C177 C179 1.419 . S
C177 H181 0.930 . S
C178 C177 1.369 . S
C178 C187 1.429 . S
C179 C177 1.419 . S
C179 C180 1.363 . S
C179 H182 0.929 . S
C180 C179 1.363 . S
C180 C186 1.428 . S
H181 C177 0.930 . S
H182 C179 0.929 . S
S183 N184 1.613 . S
S183 N185 1.610 . S
N184 S183 1.613 . S
N184 C187 1.350 . S
N185 S183 1.610 . S
N185 C186 1.351 . S
C186 C180 1.428 . S
C186 N185 1.351 . S
C186 C187 1.434 . S
C187 C178 1.429 . S
C187 N184 1.350 . S
C187 C186 1.434 . S
C188 C189 1.369 . S
C188 C190 1.419 . S
C188 H192 0.930 . S
C189 C188 1.369 . S
C189 C198 1.429 . S
C190 C188 1.419 . S
C190 C191 1.363 . S
C190 H193 0.929 . S
C191 C190 1.363 . S
C191 C197 1.428 . S
H192 C188 0.930 . S
H193 C190 0.929 . S
S194 N195 1.613 . S
S194 N196 1.610 . S
N195 S194 1.613 . S
N195 C198 1.350 . S
N196 S194 1.610 . S
N196 C197 1.351 . S
C197 C191 1.428 . S
C197 N196 1.351 . S
C197 C198 1.434 . S
C198 C189 1.429 . S
C198 N195 1.350 . S
C198 C197 1.434 . S
C199 C200 1.369 . S
C199 C201 1.419 . S
C199 H203 0.930 . S
C200 C199 1.369 . S
C200 C209 1.429 . S
C201 C199 1.419 . S
C201 C202 1.363 . S
C201 H204 0.929 . S
C202 C201 1.363 . S
C202 C208 1.428 . S
H203 C199 0.930 . S
H204 C201 0.929 . S
S205 N206 1.613 . S
S205 N207 1.610 . S
N206 S205 1.613 . S
N206 C209 1.350 . S
N207 S205 1.610 . S
N207 C208 1.351 . S
C208 C202 1.428 . S
C208 N207 1.351 . S
C208 C209 1.434 . S
C209 C200 1.429 . S
C209 N206 1.350 . S
C209 C208 1.434 . S
C210 C211 1.369 . S
C210 C212 1.419 . S
C210 H214 0.930 . S
C211 C210 1.369 . S
C211 C220 1.429 . S
C212 C210 1.419 . S
C212 C213 1.363 . S
C212 H215 0.929 . S
C213 C212 1.363 . S
C213 C219 1.428 . S
H214 C210 0.930 . S
H215 C212 0.929 . S
S216 N217 1.613 . S
S216 N218 1.610 . S
N217 S216 1.613 . S
N217 C220 1.350 . S
N218 S216 1.610 . S
N218 C219 1.351 . S
C219 C213 1.428 . S
C219 N218 1.351 . S
C219 C220 1.434 . S
C220 C211 1.429 . S
C220 N217 1.350 . S
C220 C219 1.434 . S
C221 C222 1.369 . S
C221 C223 1.419 . S
C221 H225 0.930 . S
C222 C221 1.369 . S
C222 C231 1.429 . S
C223 C221 1.419 . S
C223 C224 1.363 . S
C223 H226 0.929 . S
C224 C223 1.363 . S
C224 C230 1.428 . S
H225 C221 0.930 . S
H226 C223 0.929 . S
S227 N228 1.613 . S
S227 N229 1.610 . S
N228 S227 1.613 . S
N228 C231 1.350 . S
N229 S227 1.610 . S
N229 C230 1.351 . S
C230 C224 1.428 . S
C230 N229 1.351 . S
C230 C231 1.434 . S
C231 C222 1.429 . S
C231 N228 1.350 . S
C231 C230 1.434 . S
C232 C233 1.369 . S
C232 C234 1.419 . S
C232 H236 0.930 . S
C233 C232 1.369 . S
C233 C242 1.429 . S
C234 C232 1.419 . S
C234 C235 1.363 . S
C234 H237 0.929 . S
C235 C234 1.363 . S
C235 C241 1.428 . S
H236 C232 0.930 . S
H237 C234 0.929 . S
S238 N239 1.613 . S
S238 N240 1.610 . S
N239 S238 1.613 . S
N239 C242 1.350 . S
N240 S238 1.610 . S
N240 C241 1.351 . S
C241 C235 1.428 . S
C241 N240 1.351 . S
C241 C242 1.434 . S
C242 C233 1.429 . S
C242 N239 1.350 . S
C242 C241 1.434 . S
C243 C244 1.369 . S
C243 C245 1.419 . S
C243 H247 0.930 . S
C244 C243 1.369 . S
C244 C253 1.429 . S
C245 C243 1.419 . S
C245 C246 1.363 . S
C245 H248 0.929 . S
C246 C245 1.363 . S
C246 C252 1.428 . S
H247 C243 0.930 . S
H248 C245 0.929 . S
S249 N250 1.613 . S
S249 N251 1.610 1_554 S
N250 S249 1.613 . S
N250 C253 1.350 1_554 S
N251 S249 1.610 1_556 S
N251 C252 1.351 . S
C252 C246 1.428 . S
C252 N251 1.351 . S
C252 C253 1.434 . S
C253 C244 1.429 . S
C253 N250 1.350 1_556 S
C253 C252 1.434 . S
C254 C255 1.369 . S
C254 C256 1.419 . S
C254 H258 0.930 . S
C255 C254 1.369 . S
C255 C264 1.429 . S
C256 C254 1.419 . S
C256 C257 1.363 . S
C256 H259 0.929 . S
C257 C256 1.363 . S
C257 C263 1.428 . S
H258 C254 0.930 . S
H259 C256 0.929 . S
S260 N261 1.613 . S
S260 N262 1.610 . S
N261 S260 1.613 . S
N261 C264 1.350 . S
N262 S260 1.610 . S
N262 C263 1.351 . S
C263 C257 1.428 . S
C263 N262 1.351 . S
C263 C264 1.434 . S
C264 C255 1.429 . S
C264 N261 1.350 . S
C264 C263 1.434 . S
C265 C266 1.369 . S
C265 C267 1.419 . S
C265 H269 0.930 . S
C266 C265 1.369 . S
C266 C275 1.429 . S
C267 C265 1.419 . S
C267 C268 1.363 . S
C267 H270 0.929 . S
C268 C267 1.363 . S
C268 C274 1.428 . S
H269 C265 0.930 . S
H270 C267 0.929 . S
S271 N272 1.613 1_556 S
S271 N273 1.610 . S
N272 S271 1.613 1_554 S
N272 C275 1.350 1_554 S
N273 S271 1.610 . S
N273 C274 1.351 . S
C274 C268 1.428 . S
C274 N273 1.351 . S
C274 C275 1.434 . S
C275 C266 1.429 . S
C275 N272 1.350 1_556 S
C275 C274 1.434 . S
C276 C277 1.369 . S
C276 C278 1.419 . S
C276 H280 0.930 . S
C277 C276 1.369 . S
C277 C286 1.429 1_554 S
C278 C276 1.419 . S
C278 C279 1.363 1_554 S
C278 H281 0.929 . S
C279 C278 1.363 1_556 S
C279 C285 1.428 . S
H280 C276 0.930 . S
H281 C278 0.929 . S
S282 N283 1.613 . S
S282 N284 1.610 . S
N283 S282 1.613 . S
N283 C286 1.350 . S
N284 S282 1.610 . S
N284 C285 1.351 . S
C285 C279 1.428 . S
C285 N284 1.351 . S
C285 C286 1.434 . S
C286 C277 1.429 1_556 S
C286 N283 1.350 . S
C286 C285 1.434 . S
C287 C288 1.369 . S
C287 C289 1.419 1_554 S
C287 H291 0.930 . S
C288 C287 1.369 . S
C288 C297 1.429 1_554 S
C289 C287 1.419 1_556 S
C289 C290 1.363 . S
C289 H292 0.929 . S
C290 C289 1.363 . S
C290 C296 1.428 . S
H291 C287 0.930 . S
H292 C289 0.929 . S
S293 N294 1.613 . S
S293 N295 1.610 . S
N294 S293 1.613 . S
N294 C297 1.350 . S
N295 S293 1.610 . S
N295 C296 1.351 . S
C296 C290 1.428 . S
C296 N295 1.351 . S
C296 C297 1.434 . S
C297 C288 1.429 1_556 S
C297 N294 1.350 . S
C297 C296 1.434 . S
C298 C299 1.369 . S
C298 C300 1.419 1_554 S
C298 H302 0.930 . S
C299 C298 1.369 . S
C299 C308 1.429 1_554 S
C300 C298 1.419 1_556 S
C300 C301 1.363 . S
C300 H303 0.929 1_556 S
C301 C300 1.363 . S
C301 C307 1.428 . S
H302 C298 0.930 . S
H303 C300 0.929 1_554 S
S304 N305 1.613 . S
S304 N306 1.610 . S
N305 S304 1.613 . S
N305 C308 1.350 . S
N306 S304 1.610 . S
N306 C307 1.351 . S
C307 C301 1.428 . S
C307 N306 1.351 . S
C307 C308 1.434 . S
C308 C299 1.429 1_556 S
C308 N305 1.350 . S
C308 C307 1.434 . S
C309 C310 1.369 . S
C309 C311 1.419 . S
C309 H313 0.930 . S
C310 C309 1.369 . S
C310 C319 1.429 . S
C311 C309 1.419 . S
C311 C312 1.363 . S
C311 H314 0.929 . S
C312 C311 1.363 . S
C312 C318 1.428 . S
H313 C309 0.930 . S
H314 C311 0.929 . S
S315 N316 1.613 . S
S315 N317 1.610 1_554 S
N316 S315 1.613 . S
N316 C319 1.343 1_554 S
N317 S315 1.610 1_556 S
N317 C318 1.351 . S
C318 C312 1.428 . S
C318 N317 1.351 . S
C318 C319 1.434 . S
C319 C310 1.429 . S
C319 N316 1.343 1_556 S
C319 C318 1.434 . S
C320 C321 1.369 . S
C320 C322 1.419 . S
C320 H324 0.930 . S
C321 C320 1.369 . S
C321 C330 1.429 . S
C322 C320 1.419 . S
C322 C323 1.363 . S
C322 H325 0.929 . S
C323 C322 1.363 . S
C323 C329 1.428 . S
H324 C320 0.930 . S
H325 C322 0.929 . S
S326 N327 1.613 . S
S326 N328 1.610 1_554 S
N327 S326 1.613 . S
N327 C330 1.350 1_554 S
N328 S326 1.610 1_556 S
N328 C329 1.351 . S
C329 C323 1.428 . S
C329 N328 1.351 . S
C329 C330 1.434 . S
C330 C321 1.429 . S
C330 N327 1.350 1_556 S
C330 C329 1.434 . S
C331 C332 1.369 . S
C331 C333 1.419 1_554 S
C331 H335 0.930 . S
C332 C331 1.369 . S
C332 C341 1.429 . S
C333 C331 1.419 1_556 S
C333 C334 1.363 . S
C333 H336 0.929 . S
C334 C333 1.363 . S
C334 C340 1.428 1_556 S
H335 C331 0.930 . S
H336 C333 0.929 . S
S337 N338 1.613 . S
S337 N339 1.610 . S
N338 S337 1.613 . S
N338 C341 1.350 . S
N339 S337 1.610 . S
N339 C340 1.351 . S
C340 C334 1.428 1_554 S
C340 N339 1.351 . S
C340 C341 1.434 . S
C341 C332 1.429 . S
C341 N338 1.350 . S
C341 C340 1.434 . S
C342 C343 1.369 1_556 S
C342 C344 1.419 . S
C342 H346 0.930 . S
C343 C342 1.369 1_554 S
C343 C352 1.429 . S
C344 C342 1.419 . S
C344 C345 1.363 . S
C344 H347 0.929 . S
C345 C344 1.363 . S
C345 C351 1.428 . S
H346 C342 0.930 . S
H347 C344 0.929 . S
S348 N349 1.613 . S
S348 N350 1.610 1_554 S
N349 S348 1.613 . S
N349 C352 1.350 . S
N350 S348 1.610 1_556 S
N350 C351 1.351 . S
C351 C345 1.428 . S
C351 N350 1.351 . S
C351 C352 1.434 1_556 S
C352 C343 1.429 . S
C352 N349 1.350 . S
C352 C351 1.434 1_554 S
C353 C354 1.369 . S
C353 C355 1.419 . S
C353 H357 0.930 1_556 S
C354 C353 1.369 . S
C354 C363 1.429 . S
C355 C353 1.419 . S
C355 C356 1.363 . S
C355 H358 0.929 . S
C356 C355 1.363 . S
C356 C362 1.428 . S
H357 C353 0.930 1_554 S
H358 C355 0.929 . S
S359 N360 1.613 . S
S359 N361 1.610 . S
N360 S359 1.613 . S
N360 C363 1.350 . S
N361 S359 1.610 . S
N361 C362 1.351 . S
C362 C356 1.428 . S
C362 N361 1.351 . S
C362 C363 1.434 . S
C363 C354 1.429 . S
C363 N360 1.350 . S
C363 C362 1.434 . S
C364 C365 1.369 . S
C364 C366 1.419 . S
C364 H368 0.930 . S
C365 C364 1.369 . S
C365 C374 1.429 . S
C366 C364 1.419 . S
C366 C367 1.363 . S
C366 H369 0.929 . S
C367 C366 1.363 . S
C367 C373 1.428 . S
H368 C364 0.930 . S
H369 C366 0.929 . S
S370 N371 1.613 . S
S370 N372 1.610 . S
N371 S370 1.613 . S
N371 C374 1.350 . S
N372 S370 1.610 . S
N372 C373 1.351 . S
C373 C367 1.428 . S
C373 N372 1.351 . S
C373 C374 1.434 . S
C374 C365 1.429 . S
C374 N371 1.350 . S
C374 C373 1.434 . S
C375 C376 1.369 . S
C375 C377 1.419 . S
C375 H379 0.930 . S
C376 C375 1.369 . S
C376 C385 1.429 . S
C377 C375 1.419 . S
C377 C378 1.363 . S
C377 H380 0.929 . S
C378 C377 1.363 . S
C378 C384 1.428 . S
H379 C375 0.930 . S
H380 C377 0.929 . S
S381 N382 1.613 . S
S381 N383 1.610 . S
N382 S381 1.613 . S
N382 C385 1.350 . S
N383 S381 1.610 . S
N383 C384 1.351 . S
C384 C378 1.428 . S
C384 N383 1.351 . S
C384 C385 1.434 . S
C385 C376 1.429 . S
C385 N382 1.350 . S
C385 C384 1.434 . S
C386 C387 1.369 . S
C386 C388 1.419 . S
C386 H390 0.930 . S
C387 C386 1.369 . S
C387 C396 1.429 . S
C388 C386 1.419 . S
C388 C389 1.363 . S
C388 H391 0.929 . S
C389 C388 1.363 . S
C389 C395 1.428 . S
H390 C386 0.930 . S
H391 C388 0.929 . S
S392 N393 1.613 . S
S392 N394 1.610 . S
N393 S392 1.613 . S
N393 C396 1.350 . S
N394 S392 1.610 . S
N394 C395 1.351 . S
C395 C389 1.428 . S
C395 N394 1.351 . S
C395 C396 1.434 . S
C396 C387 1.429 . S
C396 N393 1.350 . S
C396 C395 1.434 . S
C397 C398 1.369 . S
C397 C399 1.419 . S
C397 H401 0.930 . S
C398 C397 1.369 . S
C398 C407 1.429 . S
C399 C397 1.419 . S
C399 C400 1.363 . S
C399 H402 0.929 . S
C400 C399 1.363 . S
C400 C406 1.428 . S
H401 C397 0.930 . S
H402 C399 0.929 . S
S403 N404 1.613 . S
S403 N405 1.610 . S
N404 S403 1.613 . S
N404 C407 1.350 . S
N405 S403 1.610 . S
N405 C406 1.351 . S
C406 C400 1.428 . S
C406 N405 1.351 . S
C406 C407 1.434 . S
C407 C398 1.429 . S
C407 N404 1.350 . S
C407 C406 1.434 . S
C408 C409 1.369 . S
C408 C410 1.419 . S
C408 H412 0.930 . S
C409 C408 1.369 . S
C409 C418 1.429 . S
C410 C408 1.419 . S
C410 C411 1.363 . S
C410 H413 0.929 . S
C411 C410 1.363 . S
C411 C417 1.428 . S
H412 C408 0.930 . S
H413 C410 0.929 . S
S414 N415 1.613 . S
S414 N416 1.610 . S
N415 S414 1.613 . S
N415 C418 1.350 . S
N416 S414 1.610 . S
N416 C417 1.351 . S
C417 C411 1.428 . S
C417 N416 1.351 . S
C417 C418 1.434 . S
C418 C409 1.429 . S
C418 N415 1.350 . S
C418 C417 1.434 . S
C419 C420 1.369 . S
C419 C421 1.419 . S
C419 H423 0.930 . S
C420 C419 1.369 . S
C420 C429 1.429 . S
C421 C419 1.419 . S
C421 C422 1.363 . S
C421 H424 0.929 . S
C422 C421 1.363 . S
C422 C428 1.428 . S
H423 C419 0.930 . S
H424 C421 0.929 . S
S425 N426 1.613 . S
S425 N427 1.610 . S
N426 S425 1.613 . S
N426 C429 1.350 . S
N427 S425 1.610 . S
N427 C428 1.351 . S
C428 C422 1.428 . S
C428 N427 1.351 . S
C428 C429 1.434 . S
C429 C420 1.429 . S
C429 N426 1.350 . S
C429 C428 1.434 . S
C430 C431 1.369 . S
C430 C432 1.419 . S
C430 H434 0.930 . S
C431 C430 1.369 . S
C431 C440 1.429 . S
C432 C430 1.419 . S
C432 C433 1.363 . S
C432 H435 0.929 . S
C433 C432 1.363 . S
C433 C439 1.428 . S
H434 C430 0.930 . S
H435 C432 0.929 . S
S436 N437 1.613 . S
S436 N438 1.610 . S
N437 S436 1.613 . S
N437 C440 1.350 . S
N438 S436 1.610 . S
N438 C439 1.351 . S
C439 C433 1.428 . S
C439 N438 1.351 . S
C439 C440 1.434 . S
C440 C431 1.429 . S
C440 N437 1.350 . S
C440 C439 1.434 . S
C178 C1 1.812 . S
C180 C95 1.739 . S
C189 C27 1.524 . S
C191 C142 1.492 . S
C202 C146 1.623 . S
C200 C40 1.678 . S
C213 C111 1.411 . S
C211 C55 1.456 . S
C222 C68 1.749 . S
C224 C126 1.672 . S
C235 C148 1.129 . S
C233 C70 1.174 . S
C246 C117 1.480 . S
C244 C41 1.539 . S
C255 C54 1.431 . S
C257 C157 1.392 . S
C268 C86 1.396 . S
C266 C69 1.467 . S
C277 C71 1.375 . S
C279 C115 1.334 . S
C288 C0 1.772 . S
C290 C173 1.717 . S
C301 C84 1.403 . S
C299 C26 1.451 . S
C312 C102 1.732 . S
C310 C42 1.815 . S
C323 C116 1.488 . S
C321 C57 1.523 1_556 S
C334 C170 1.622 . S
C332 C83 1.679 . S
C345 C85 1.412 . S
C343 C12 1.456 . S
C356 C133 1.672 . S
C354 C14 1.750 1_556 S
C365 C29 1.169 . S
C367 C156 1.137 . S
C378 C125 1.474 . S
C376 C82 1.544 . S
C389 C164 1.392 . S
C387 C13 1.432 . S
C400 C94 1.395 . S
C398 C15 1.465 . S
C411 C139 1.332 . S
C409 C28 1.375 . S
C420 C43 1.774 . S
C422 C147 1.712 . S
C431 C56 1.449 . S
C433 C108 1.408 . S
