# Generated by pormake.
# Topology ocu, (6,8)-cn, num edge types: 1
# Building blocks:
#     Node 0, Type 0, BuildingBlock: KUMBUR_clean_sbu_0, # of connection points: 6
#     Node 1, Type 0, BuildingBlock: KUMBUR_clean_sbu_0, # of connection points: 6
#     Node 2, Type 0, BuildingBlock: KUMBUR_clean_sbu_0, # of connection points: 6
#     Node 3, Type 0, BuildingBlock: KUMBUR_clean_sbu_0, # of connection points: 6
#     Node 4, Type 0, BuildingBlock: KUMBUR_clean_sbu_0, # of connection points: 6
#     Node 5, Type 0, BuildingBlock: KUMBUR_clean_sbu_0, # of connection points: 6
#     Node 6, Type 0, BuildingBlock: KUMBUR_clean_sbu_0, # of connection points: 6
#     Node 7, Type 0, BuildingBlock: KUMBUR_clean_sbu_0, # of connection points: 6
#     Node 8, Type 1, BuildingBlock: GIZVER_clean_sbu_0, # of connection points: 8
#     Node 9, Type 1, BuildingBlock: GIZVER_clean_sbu_0, # of connection points: 8
#     Node 10, Type 1, BuildingBlock: GIZVER_clean_sbu_0, # of connection points: 8
#     Node 11, Type 1, BuildingBlock: GIZVER_clean_sbu_0, # of connection points: 8
#     Node 12, Type 1, BuildingBlock: GIZVER_clean_sbu_0, # of connection points: 8
#     Node 13, Type 1, BuildingBlock: GIZVER_clean_sbu_0, # of connection points: 8
#     Edge 14, Type (0, 1), BuildingBlock: AJUNOK_clean_linker_0, # of connection points: 2
#     Edge 15, Type (0, 1), BuildingBlock: AJUNOK_clean_linker_0, # of connection points: 2
#     Edge 16, Type (0, 1), BuildingBlock: AJUNOK_clean_linker_0, # of connection points: 2
#     Edge 17, Type (0, 1), BuildingBlock: AJUNOK_clean_linker_0, # of connection points: 2
#     Edge 18, Type (0, 1), BuildingBlock: AJUNOK_clean_linker_0, # of connection points: 2
#     Edge 19, Type (0, 1), BuildingBlock: AJUNOK_clean_linker_0, # of connection points: 2
#     Edge 20, Type (0, 1), BuildingBlock: AJUNOK_clean_linker_0, # of connection points: 2
#     Edge 21, Type (0, 1), BuildingBlock: AJUNOK_clean_linker_0, # of connection points: 2
#     Edge 22, Type (0, 1), BuildingBlock: AJUNOK_clean_linker_0, # of connection points: 2
#     Edge 23, Type (0, 1), BuildingBlock: AJUNOK_clean_linker_0, # of connection points: 2
#     Edge 24, Type (0, 1), BuildingBlock: AJUNOK_clean_linker_0, # of connection points: 2
#     Edge 25, Type (0, 1), BuildingBlock: AJUNOK_clean_linker_0, # of connection points: 2
#     Edge 26, Type (0, 1), BuildingBlock: AJUNOK_clean_linker_0, # of connection points: 2
#     Edge 27, Type (0, 1), BuildingBlock: AJUNOK_clean_linker_0, # of connection points: 2
#     Edge 28, Type (0, 1), BuildingBlock: AJUNOK_clean_linker_0, # of connection points: 2
#     Edge 29, Type (0, 1), BuildingBlock: AJUNOK_clean_linker_0, # of connection points: 2
#     Edge 30, Type (0, 1), BuildingBlock: AJUNOK_clean_linker_0, # of connection points: 2
#     Edge 31, Type (0, 1), BuildingBlock: AJUNOK_clean_linker_0, # of connection points: 2
#     Edge 32, Type (0, 1), BuildingBlock: AJUNOK_clean_linker_0, # of connection points: 2
#     Edge 33, Type (0, 1), BuildingBlock: AJUNOK_clean_linker_0, # of connection points: 2
#     Edge 34, Type (0, 1), BuildingBlock: AJUNOK_clean_linker_0, # of connection points: 2
#     Edge 35, Type (0, 1), BuildingBlock: AJUNOK_clean_linker_0, # of connection points: 2
#     Edge 36, Type (0, 1), BuildingBlock: AJUNOK_clean_linker_0, # of connection points: 2
#     Edge 37, Type (0, 1), BuildingBlock: AJUNOK_clean_linker_0, # of connection points: 2
#     Edge 38, Type (0, 1), BuildingBlock: AJUNOK_clean_linker_0, # of connection points: 2
#     Edge 39, Type (0, 1), BuildingBlock: AJUNOK_clean_linker_0, # of connection points: 2
#     Edge 40, Type (0, 1), BuildingBlock: AJUNOK_clean_linker_0, # of connection points: 2
#     Edge 41, Type (0, 1), BuildingBlock: AJUNOK_clean_linker_0, # of connection points: 2
#     Edge 42, Type (0, 1), BuildingBlock: AJUNOK_clean_linker_0, # of connection points: 2
#     Edge 43, Type (0, 1), BuildingBlock: AJUNOK_clean_linker_0, # of connection points: 2
#     Edge 44, Type (0, 1), BuildingBlock: AJUNOK_clean_linker_0, # of connection points: 2
#     Edge 45, Type (0, 1), BuildingBlock: AJUNOK_clean_linker_0, # of connection points: 2
#     Edge 46, Type (0, 1), BuildingBlock: AJUNOK_clean_linker_0, # of connection points: 2
#     Edge 47, Type (0, 1), BuildingBlock: AJUNOK_clean_linker_0, # of connection points: 2
#     Edge 48, Type (0, 1), BuildingBlock: AJUNOK_clean_linker_0, # of connection points: 2
#     Edge 49, Type (0, 1), BuildingBlock: AJUNOK_clean_linker_0, # of connection points: 2
#     Edge 50, Type (0, 1), BuildingBlock: AJUNOK_clean_linker_0, # of connection points: 2
#     Edge 51, Type (0, 1), BuildingBlock: AJUNOK_clean_linker_0, # of connection points: 2
#     Edge 52, Type (0, 1), BuildingBlock: AJUNOK_clean_linker_0, # of connection points: 2
#     Edge 53, Type (0, 1), BuildingBlock: AJUNOK_clean_linker_0, # of connection points: 2
#     Edge 54, Type (0, 1), BuildingBlock: AJUNOK_clean_linker_0, # of connection points: 2
#     Edge 55, Type (0, 1), BuildingBlock: AJUNOK_clean_linker_0, # of connection points: 2
#     Edge 56, Type (0, 1), BuildingBlock: AJUNOK_clean_linker_0, # of connection points: 2
#     Edge 57, Type (0, 1), BuildingBlock: AJUNOK_clean_linker_0, # of connection points: 2
#     Edge 58, Type (0, 1), BuildingBlock: AJUNOK_clean_linker_0, # of connection points: 2
#     Edge 59, Type (0, 1), BuildingBlock: AJUNOK_clean_linker_0, # of connection points: 2
#     Edge 60, Type (0, 1), BuildingBlock: AJUNOK_clean_linker_0, # of connection points: 2
#     Edge 61, Type (0, 1), BuildingBlock: AJUNOK_clean_linker_0, # of connection points: 2
# Relax obj value: 0.182
# Max RMSD: 0.291
# Mean RMSD: 0.215
data_MOF--net-ocu--node1-KUMBUR_clean_sbu_0--node2-GIZVER_clean_sbu_0--edge1-AJUNOK_clean_linker_0
_symmetry_space_group_name_H-M    P1
_symmetry_Int_Tables_number       1
_symmetry_cell_setting            triclinic
loop_
_symmetry_equiv_pos_as_xyz
'x, y, z'
_cell_length_a     33.695349
_cell_length_b     34.851029
_cell_length_c     27.616622
_cell_angle_alpha  75.89231
_cell_angle_beta   103.74772
_cell_angle_gamma 118.20122
loop_
_atom_site_label
_atom_site_type_symbol
_atom_site_fract_x
_atom_site_fract_y
_atom_site_fract_z
_atom_type_partial_charge
Tb0 Tb 0.26425 0.2332 0.20543 0.0
C1 C 0.41074 0.36252 0.32697 0.0
C2 C 0.43027 0.31424 0.39666 0.0
C3 C 0.48819 0.38759 0.37097 0.0
C4 C 0.39846 0.32226 0.35747 0.0
C5 C 0.45527 0.39638 0.33456 0.0
C6 C 0.4757 0.34644 0.40197 0.0
C7 C 0.4292 0.44655 0.27604 0.0
N8 N 0.37748 0.36984 0.29343 0.0
C9 C 0.38538 0.41192 0.27044 0.0
C10 C 0.46455 0.43856 0.30744 0.0
Tb11 Tb 0.30725 0.31016 0.28557 0.0
N12 N 0.35401 0.29281 0.35233 0.0
C13 C 0.33817 0.25714 0.38888 0.0
C14 C 0.41471 0.27542 0.43121 0.0
C15 C 0.3681 0.24784 0.42851 0.0
H16 H 0.3581 0.41852 0.24678 0.0
H17 H 0.3545 0.21954 0.45677 0.0
H18 H 0.5008 0.3407 0.43155 0.0
H19 H 0.43558 0.47944 0.25648 0.0
H20 H 0.30239 0.23527 0.38742 0.0
H21 H 0.25377 0.33101 0.02248 0.0
H22 H 0.43807 0.26757 0.46113 0.0
H23 H 0.19412 0.13305 0.2548 0.0
H24 H 0.28248 0.32057 0.11189 0.0
H25 H 0.12212 0.07189 0.22622 0.0
H26 H 0.52278 0.41296 0.37703 0.0
H27 H 0.1875 0.27007 0.98495 0.0
H28 H 0.12216 0.19474 0.9969 0.0
H29 H 0.4983 0.46555 0.31225 0.0
H30 H 0.08399 0.12581 0.05314 0.0
N31 N 0.23177 0.25397 0.12698 0.0
C32 C 0.25258 0.29362 0.09725 0.0
C33 C 0.19854 0.2658 0.02496 0.0
C34 C 0.17546 0.22644 0.05579 0.0
C35 C 0.23636 0.30003 0.04599 0.0
C36 C 0.19325 0.22144 0.10728 0.0
H37 H 0.08313 0.08004 0.13903 0.0
N38 N 0.19391 0.17718 0.18608 0.0
C39 C 0.13593 0.10276 0.2011 0.0
C40 C 0.17294 0.18211 0.13827 0.0
C41 C 0.1766 0.13766 0.21725 0.0
C42 C 0.11397 0.10752 0.15194 0.0
C43 C 0.13292 0.14722 0.11949 0.0
O44 O 0.2747 0.17756 0.21005 0.0
O45 O 0.31822 0.2556 0.27049 0.0
O46 O 0.35824 0.33846 0.23436 0.0
O47 O 0.32287 0.29021 0.17582 0.0
O48 O 0.27403 0.19072 0.27487 0.0
O49 O 0.29745 0.23197 0.14991 0.0
O50 O 0.28033 0.35282 0.29059 0.0
O51 O 0.2529 0.28599 0.22221 0.0
O52 O 0.20754 0.21766 0.24379 0.0
O53 O 0.25161 0.24761 0.31494 0.0
O54 O 0.28938 0.35183 0.2186 0.0
O55 O 0.2951 0.3128 0.35633 0.0
C56 C 0.31189 0.21712 0.29731 0.0
C57 C 0.28795 0.16191 0.13863 0.0
C58 C 0.3191 0.12503 0.10459 0.0
C59 C 0.32561 0.15903 0.12896 0.0
C60 C 0.27467 0.09446 0.08912 0.0
C61 C 0.24381 0.13127 0.12247 0.0
C62 C 0.23729 0.0979 0.09756 0.0
C63 C 0.35588 0.32638 0.19171 0.0
C64 C 0.2959 0.19356 0.17089 0.0
C65 C 0.11436 0.15238 0.06849 0.0
C66 C 0.13607 0.19164 0.03649 0.0
C67 C 0.25454 0.32275 0.19517 0.0
C68 C 0.30053 0.38099 0.36712 0.0
C69 C 0.27132 0.39353 0.38159 0.0
C70 C 0.28904 0.43163 0.40488 0.0
C71 C 0.33648 0.45771 0.41111 0.0
C72 C 0.34766 0.40571 0.37825 0.0
C73 C 0.36542 0.44418 0.39914 0.0
C74 C 0.21266 0.2201 0.29199 0.0
C75 C 0.28143 0.34322 0.339 0.0
H76 H 0.35988 0.18234 0.14167 0.0
H77 H 0.26896 0.06827 0.06988 0.0
H78 H 0.21447 0.13237 0.13014 0.0
H79 H 0.20314 0.07426 0.08535 0.0
H80 H 0.23491 0.37336 0.37502 0.0
H81 H 0.35155 0.4885 0.42569 0.0
H82 H 0.37091 0.39569 0.37045 0.0
H83 H 0.40191 0.46376 0.40593 0.0
Tb84 Tb 0.82751 0.24362 0.25739 0.0
C85 C 0.69 0.26325 0.31111 0.0
C86 C 0.61834 0.22403 0.26111 0.0
C87 C 0.62189 0.21828 0.35134 0.0
C88 C 0.66571 0.25094 0.26541 0.0
C89 C 0.66783 0.24915 0.35407 0.0
C90 C 0.59708 0.2057 0.30476 0.0
C91 C 0.7343 0.3046 0.39479 0.0
N92 N 0.734 0.29358 0.31172 0.0
C93 C 0.75417 0.31782 0.35083 0.0
C94 C 0.69154 0.26884 0.39717 0.0
Tb95 Tb 0.76619 0.30563 0.24031 0.0
N96 N 0.6874 0.27056 0.22421 0.0
C97 C 0.66201 0.27081 0.17729 0.0
C98 C 0.59336 0.21909 0.21289 0.0
C99 C 0.61508 0.24384 0.17081 0.0
H100 H 0.78611 0.34726 0.34901 0.0
H101 H 0.59566 0.24244 0.13339 0.0
H102 H 0.56095 0.18406 0.30241 0.0
H103 H 0.75166 0.32253 0.4264 0.0
H104 H 0.67821 0.29054 0.14441 0.0
H105 H 1.01057 0.31812 0.31747 0.0
H106 H 0.55692 0.19872 0.20788 0.0
H107 H 0.77674 0.19115 0.15176 0.0
H108 H 0.93022 0.2774 0.32971 0.0
H109 H 0.78989 0.20651 0.0651 0.0
H110 H 0.60459 0.20614 0.38422 0.0
H111 H 1.03168 0.3407 0.23161 0.0
H112 H 1.00718 0.33903 0.13881 0.0
H113 H 0.67586 0.25899 0.43096 0.0
H114 H 0.94601 0.31123 0.06896 0.0
N115 N 0.90462 0.27768 0.25096 0.0
C116 C 0.93847 0.2868 0.29171 0.0
C117 C 0.99613 0.32268 0.23668 0.0
C118 C 0.96196 0.31051 0.19551 0.0
C119 C 0.98433 0.31 0.28511 0.0
C120 C 0.91608 0.28709 0.20415 0.0
H121 H 0.86455 0.2621 0.04075 0.0
N122 N 0.83906 0.24506 0.17652 0.0
C123 C 0.81579 0.22615 0.09237 0.0
C124 C 0.88194 0.27106 0.16527 0.0
C125 C 0.80768 0.21903 0.1419 0.0
C126 C 0.85799 0.25723 0.07889 0.0
C127 C 0.89247 0.27843 0.11616 0.0
O128 O 0.80713 0.17703 0.25336 0.0
O129 O 0.76676 0.24285 0.27365 0.0
O130 O 0.81417 0.31531 0.31034 0.0
O131 O 0.87071 0.30271 0.29574 0.0
O132 O 0.80626 0.22465 0.333 0.0
O133 O 0.85797 0.20917 0.31285 0.0
O134 O 0.81145 0.37213 0.24537 0.0
O135 O 0.82688 0.30613 0.22545 0.0
O136 O 0.75887 0.21058 0.21382 0.0
O137 O 0.73645 0.2659 0.17826 0.0
O138 O 0.79198 0.33046 0.16648 0.0
O139 O 0.74058 0.35243 0.21829 0.0
C140 C 0.76783 0.22663 0.32008 0.0
C141 C 0.80443 0.1377 0.33707 0.0
C142 C 0.80676 0.10811 0.4269 0.0
C143 C 0.82881 0.13305 0.38471 0.0
C144 C 0.75906 0.08557 0.42022 0.0
C145 C 0.75671 0.11489 0.33065 0.0
C146 C 0.7343 0.08857 0.37204 0.0
C147 C 0.85679 0.32252 0.31852 0.0
C148 C 0.82987 0.17165 0.29767 0.0
C149 C 0.93749 0.30464 0.10653 0.0
C150 C 0.9723 0.32034 0.14629 0.0
C151 C 0.82896 0.32545 0.18011 0.0
C152 C 0.793 0.41533 0.17309 0.0
C153 C 0.75847 0.41065 0.13236 0.0
C154 C 0.76812 0.43189 0.08407 0.0
C155 C 0.81317 0.46057 0.07623 0.0
C156 C 0.83836 0.44365 0.1654 0.0
C157 C 0.84827 0.46634 0.11706 0.0
C158 C 0.73278 0.22619 0.1797 0.0
C159 C 0.78118 0.38528 0.22061 0.0
H160 H 0.86569 0.14955 0.38875 0.0
H161 H 0.74113 0.06521 0.45181 0.0
H162 H 0.73675 0.11819 0.29421 0.0
H163 H 0.69761 0.07081 0.36673 0.0
H164 H 0.7232 0.39002 0.13801 0.0
H165 H 0.82091 0.47871 0.03912 0.0
H166 H 0.866 0.44745 0.19627 0.0
H167 H 0.88316 0.4882 0.11123 0.0
Tb168 Tb 0.75974 0.76107 0.28694 0.0
C169 C 0.86009 0.89355 0.15632 0.0
C170 C 0.80734 0.89387 0.07973 0.0
C171 C 0.86362 0.96312 0.10718 0.0
C172 C 0.82381 0.87075 0.12245 0.0
C173 C 0.88167 0.94015 0.14773 0.0
C174 C 0.82625 0.93996 0.07356 0.0
C175 C 0.94139 0.93827 0.21477 0.0
N176 N 0.87712 0.87024 0.19459 0.0
C177 C 0.91915 0.89229 0.22146 0.0
C178 C 0.92208 0.96238 0.17845 0.0
Tb179 Tb 0.83516 0.79409 0.20397 0.0
N180 N 0.80698 0.8262 0.12921 0.0
C181 C 0.77675 0.80365 0.09141 0.0
C182 C 0.77375 0.87021 0.04339 0.0
C183 C 0.75924 0.82504 0.04869 0.0
H184 H 0.93646 0.87502 0.2485 0.0
H185 H 0.73469 0.80661 0.01968 0.0
H186 H 0.81335 0.95816 0.04202 0.0
H187 H 0.97386 0.95503 0.23721 0.0
H188 H 0.76601 0.76922 0.09278 0.0
H189 H 0.86145 0.70654 0.44354 0.0
H190 H 0.76018 0.88662 0.01018 0.0
H191 H 0.64703 0.72117 0.25965 0.0
H192 H 0.84355 0.76088 0.37786 0.0
H193 H 0.57995 0.65254 0.28227 0.0
H194 H 0.87932 0.99883 0.10044 0.0
H195 H 0.80282 0.62913 0.45659 0.0
H196 H 0.72046 0.57435 0.43913 0.0
H197 H 0.93975 0.99806 0.17279 0.0
H198 H 0.64277 0.56033 0.39703 0.0
N199 N 0.77763 0.71443 0.3524 0.0
C200 C 0.81843 0.72726 0.38321 0.0
C201 C 0.79505 0.65309 0.42834 0.0
C202 C 0.75154 0.64149 0.40059 0.0
C203 C 0.82826 0.69663 0.42081 0.0
C204 C 0.74387 0.67347 0.36258 0.0
H205 H 0.5897 0.59022 0.34044 0.0
N206 N 0.69494 0.69811 0.30389 0.0
C207 C 0.61376 0.65548 0.29785 0.0
C208 C 0.70066 0.66515 0.33797 0.0
C209 C 0.65206 0.69434 0.28483 0.0
C210 C 0.61939 0.62035 0.33065 0.0
C211 C 0.66328 0.62503 0.35148 0.0
O212 O 0.71887 0.78854 0.29752 0.0
O213 O 0.78249 0.81006 0.21896 0.0
O214 O 0.87208 0.81455 0.27764 0.0
O215 O 0.81785 0.8242 0.30154 0.0
O216 O 0.71414 0.77207 0.21994 0.0
O217 O 0.7699 0.78139 0.35665 0.0
O218 O 0.9036 0.80821 0.20814 0.0
O219 O 0.82017 0.75415 0.278 0.0
O220 O 0.72766 0.70762 0.24039 0.0
O221 O 0.77288 0.73994 0.17627 0.0
O222 O 0.82849 0.72653 0.22689 0.0
O223 O 0.85404 0.77807 0.14572 0.0
C224 C 0.74265 0.80489 0.19348 0.0
C225 C 0.70845 0.7838 0.38094 0.0
C226 C 0.67277 0.80744 0.42803 0.0
C227 C 0.70308 0.8176 0.39423 0.0
C228 C 0.64826 0.76293 0.44828 0.0
C229 C 0.68489 0.7401 0.40326 0.0
C230 C 0.65492 0.72979 0.43669 0.0
C231 C 0.86063 0.83327 0.3045 0.0
C232 C 0.73827 0.79468 0.34337 0.0
C233 C 0.67092 0.59179 0.38688 0.0
C234 C 0.71515 0.59984 0.411 0.0
C235 C 0.82349 0.71942 0.27349 0.0
C236 C 0.93294 0.79123 0.14825 0.0
C237 C 0.92561 0.7566 0.12393 0.0
C238 C 0.96273 0.75513 0.11039 0.0
C239 C 1.00688 0.7883 0.12199 0.0
C240 C 0.97742 0.82398 0.15881 0.0
C241 C 1.01404 0.8225 0.14568 0.0
C242 C 0.7371 0.70795 0.19621 0.0
C243 C 0.89585 0.79116 0.16815 0.0
H244 H 0.72132 0.85148 0.37709 0.0
H245 H 0.62359 0.75353 0.47305 0.0
H246 H 0.68933 0.7139 0.39463 0.0
H247 H 0.63626 0.69587 0.45319 0.0
H248 H 0.89151 0.73083 0.11611 0.0
H249 H 1.0361 0.78763 0.1129 0.0
H250 H 0.98399 0.8505 0.17803 0.0
H251 H 0.04824 0.84773 0.15441 0.0
Tb252 Tb 0.32007 0.74261 0.27335 0.0
C253 C 0.23207 0.83993 0.09986 0.0
C254 C 0.29598 0.90594 0.07023 0.0
C255 C 0.22553 0.87596 0.01303 0.0
C256 C 0.27636 0.87093 0.10867 0.0
C257 C 0.20555 0.84266 0.05236 0.0
C258 C 0.27077 0.90757 0.02195 0.0
C259 C 0.14055 0.78267 0.08783 0.0
N260 N 0.21405 0.80889 0.13924 0.0
C261 C 0.16831 0.78131 0.13423 0.0
C262 C 0.1594 0.81301 0.04647 0.0
Tb263 Tb 0.26228 0.8096 0.21436 0.0
N264 N 0.29878 0.869 0.15628 0.0
C265 C 0.33913 0.90384 0.16898 0.0
C266 C 0.33955 0.93916 0.0821 0.0
C267 C 0.36102 0.93821 0.13188 0.0
H268 H 0.15282 0.75756 0.16547 0.0
H269 H 0.39454 0.96381 0.14184 0.0
H270 H 0.28537 0.93398 0.99183 0.0
H271 H 0.10465 0.76019 0.08398 0.0
H272 H 0.35575 0.90453 0.20752 0.0
H273 H 0.17957 0.57889 0.30234 0.0
H274 H 0.35616 0.96639 0.05366 0.0
H275 H 0.41834 0.7855 0.34627 0.0
H276 H 0.22224 0.64996 0.25495 0.0
H277 H 0.45017 0.77561 0.43625 0.0
H278 H 0.2059 0.8784 0.97611 0.0
H279 H 0.20488 0.56168 0.39295 0.0
H280 H 0.26262 0.58489 0.46928 0.0
H281 H 0.13781 0.81406 0.01065 0.0
H282 H 0.33609 0.63915 0.50622 0.0
N283 N 0.27428 0.67503 0.3164 0.0
C284 C 0.23576 0.64363 0.29357 0.0
C285 C 0.22459 0.59328 0.37195 0.0
C286 C 0.26438 0.62451 0.39516 0.0
C287 C 0.21044 0.60279 0.32082 0.0
C288 C 0.28882 0.66527 0.36591 0.0
H289 H 0.40576 0.71118 0.49461 0.0
N290 N 0.35344 0.73188 0.35549 0.0
C291 C 0.41625 0.75268 0.4227 0.0
C292 C 0.32958 0.69537 0.38652 0.0
C293 C 0.39769 0.75877 0.37206 0.0
C294 C 0.39093 0.71645 0.45567 0.0
C295 C 0.34763 0.68631 0.43726 0.0
O296 O 0.38163 0.74533 0.26387 0.0
O297 O 0.31949 0.79655 0.21336 0.0
O298 O 0.24815 0.76891 0.15788 0.0
O299 O 0.26647 0.71414 0.20919 0.0
O300 O 0.38085 0.80271 0.25466 0.0
O301 O 0.31779 0.69487 0.23685 0.0
O302 O 0.20817 0.81015 0.23896 0.0
O303 O 0.2648 0.75685 0.27542 0.0
O304 O 0.33782 0.79039 0.32545 0.0
O305 O 0.31843 0.84392 0.27161 0.0
O306 O 0.20248 0.7502 0.23966 0.0
O307 O 0.27274 0.8678 0.23609 0.0
C308 C 0.36239 0.82187 0.21733 0.0
C309 C 0.38102 0.67851 0.25902 0.0
C310 C 0.42038 0.64102 0.24078 0.0
C311 C 0.40072 0.67069 0.2251 0.0
C312 C 0.41971 0.61913 0.29085 0.0
C313 C 0.38086 0.65639 0.30875 0.0
C314 C 0.40012 0.62686 0.3245 0.0
C315 C 0.24601 0.72898 0.16662 0.0
C316 C 0.36178 0.71051 0.24203 0.0
C317 C 0.32277 0.64672 0.46723 0.0
C318 C 0.28109 0.6158 0.44618 0.0
C319 C 0.2224 0.73149 0.27551 0.0
C320 C 0.20747 0.87883 0.22733 0.0
C321 C 0.19415 0.89046 0.26341 0.0
C322 C 0.16852 0.91439 0.24888 0.0
C323 C 0.15774 0.92835 0.19745 0.0
C324 C 0.19639 0.89243 0.17592 0.0
C325 C 0.17174 0.91736 0.16111 0.0
C326 C 0.33901 0.83046 0.31458 0.0
C327 C 0.23129 0.85115 0.24545 0.0
H328 H 0.40033 0.68741 0.18647 0.0
H329 H 0.43477 0.59634 0.30411 0.0
H330 H 0.36604 0.66201 0.33538 0.0
H331 H 0.4 0.60997 0.363 0.0
H332 H 0.20315 0.88012 0.30316 0.0
H333 H 0.13777 0.94677 0.1855 0.0
H334 H 0.20651 0.88379 0.14747 0.0
H335 H 0.16299 0.92769 0.12143 0.0
Tb336 Tb 0.32917 0.73259 0.76739 0.0
C337 C 0.20503 0.79739 0.80004 0.0
C338 C 0.1322 0.7335 0.79169 0.0
C339 C 0.14327 0.78742 0.8409 0.0
C340 C 0.17728 0.75904 0.78032 0.0
C341 C 0.18779 0.81268 0.82943 0.0
C342 C 0.11558 0.74777 0.82224 0.0
C343 C 0.25768 0.87913 0.8296 0.0
N344 N 0.24825 0.8206 0.78899 0.0
C345 C 0.27359 0.86232 0.80141 0.0
C346 C 0.2151 0.85372 0.84491 0.0
Tb347 Tb 0.26832 0.79473 0.73311 0.0
N348 N 0.19472 0.74603 0.75131 0.0
C349 C 0.16887 0.70545 0.73621 0.0
C350 C 0.10524 0.69392 0.77279 0.0
C351 C 0.12387 0.67965 0.74528 0.0
H352 H 0.30678 0.88333 0.79004 0.0
H353 H 0.10438 0.64768 0.7331 0.0
H354 H 0.0813 0.72844 0.83149 0.0
H355 H 0.27837 0.9119 0.83934 0.0
H356 H 0.18365 0.69001 0.7221 0.0
H357 H 0.49409 0.87947 0.76417 0.0
H358 H 0.0707 0.67337 0.78085 0.0
H359 H 0.28987 0.64257 0.7109 0.0
H360 H 0.41823 0.83559 0.78357 0.0
H361 H 0.31622 0.61535 0.65811 0.0
H362 H 0.12977 0.79852 0.86372 0.0
H363 H 0.52301 0.85675 0.70777 0.0
H364 H 0.50896 0.80345 0.65308 0.0
H365 H 0.20299 0.86675 0.86704 0.0
H366 H 0.45978 0.73299 0.62203 0.0
N367 N 0.40307 0.78073 0.74848 0.0
C368 C 0.43022 0.82098 0.76441 0.0
C369 C 0.48965 0.8353 0.7189 0.0
C370 C 0.46175 0.79586 0.70006 0.0
C371 C 0.47369 0.84792 0.75113 0.0
C372 C 0.41827 0.76897 0.71564 0.0
H373 H 0.38894 0.66254 0.62481 0.0
N374 N 0.3484 0.70563 0.7116 0.0
C375 C 0.3373 0.64794 0.66829 0.0
C376 C 0.39008 0.73027 0.69668 0.0
C377 C 0.32275 0.66388 0.69895 0.0
C378 C 0.37822 0.67463 0.64952 0.0
C379 C 0.40539 0.71612 0.66391 0.0
O380 O 0.29382 0.66445 0.78599 0.0
O381 O 0.26448 0.7317 0.77025 0.0
O382 O 0.32091 0.81784 0.80224 0.0
O383 O 0.36201 0.77604 0.82458 0.0
O384 O 0.29993 0.71807 0.83691 0.0
O385 O 0.36369 0.69914 0.81936 0.0
O386 O 0.29794 0.86291 0.71088 0.0
O387 O 0.33306 0.79626 0.73008 0.0
O388 O 0.28198 0.71311 0.69699 0.0
O389 O 0.23587 0.7496 0.67596 0.0
O390 O 0.29838 0.8115 0.66391 0.0
O391 O 0.22757 0.82239 0.6831 0.0
C392 C 0.26186 0.719 0.81721 0.0
C393 C 0.31113 0.63988 0.87116 0.0
C394 C 0.32588 0.63472 0.96294 0.0
C395 C 0.34045 0.65326 0.91521 0.0
C396 C 0.2801 0.60445 0.96556 0.0
C397 C 0.2662 0.60749 0.87484 0.0
C398 C 0.25049 0.59089 0.92159 0.0
C399 C 0.3539 0.80793 0.83171 0.0
C400 C 0.32622 0.662 0.82129 0.0
C401 C 0.44796 0.74306 0.64776 0.0
C402 C 0.47603 0.78297 0.66566 0.0
C403 C 0.33638 0.81011 0.68322 0.0
C404 C 0.26877 0.89019 0.63251 0.0
C405 C 0.25508 0.87282 0.58758 0.0
C406 C 0.25818 0.90092 0.54136 0.0
C407 C 0.27644 0.94835 0.53846 0.0
C408 C 0.28791 0.93562 0.6315 0.0
C409 C 0.29149 0.96418 0.58606 0.0
C410 C 0.24775 0.72027 0.66842 0.0
C411 C 0.26124 0.86205 0.68146 0.0
H412 H 0.37568 0.67617 0.91221 0.0
H413 H 0.26824 0.58899 0.00176 0.0
H414 H 0.24295 0.59557 0.84146 0.0
H415 H 0.21565 0.56645 0.92388 0.0
H416 H 0.23896 0.83747 0.58822 0.0
H417 H 0.26329 0.9858 0.45053 0.0
H418 H 0.29841 0.94913 0.66639 0.0
H419 H 0.30369 0.99862 0.58842 0.0
Tb420 Tb 0.26094 0.24882 0.78801 0.0
C421 C 0.40531 0.38346 0.65333 0.0
C422 C 0.36329 0.39768 0.57272 0.0
C423 C 0.44137 0.45037 0.59499 0.0
C424 C 0.36554 0.37133 0.62006 0.0
C425 C 0.44386 0.42314 0.64125 0.0
C426 C 0.40121 0.43747 0.56056 0.0
C427 C 0.48548 0.40455 0.71965 0.0
N428 N 0.40671 0.35548 0.69673 0.0
C429 C 0.44661 0.36528 0.72953 0.0
C430 C 0.48409 0.43372 0.67539 0.0
Tb431 Tb 0.34169 0.29049 0.70828 0.0
N432 N 0.32976 0.33257 0.63298 0.0
C433 C 0.29054 0.31829 0.59931 0.0
C434 C 0.3235 0.38256 0.53839 0.0
C435 C 0.28676 0.34301 0.55194 0.0
H436 H 0.44905 0.3435 0.76396 0.0
H437 H 0.25576 0.33106 0.52551 0.0
H438 H 0.39997 0.45819 0.52447 0.0
H439 H 0.51662 0.41216 0.74611 0.0
H440 H 0.26182 0.2875 0.60772 0.0
H441 H 0.35124 0.21328 0.96751 0.0
H442 H 0.32112 0.40053 0.501 0.0
H443 H 0.15463 0.19251 0.7324 0.0
H444 H 0.34024 0.25799 0.88862 0.0
H445 H 0.091 0.11894 0.74779 0.0
H446 H 0.47059 0.48094 0.58504 0.0
H447 H 0.29301 0.13598 0.98795 0.0
H448 H 0.21623 0.07541 0.96356 0.0
H449 H 0.5144 0.4639 0.66759 0.0
H450 H 0.14543 0.04999 0.90351 0.0
N451 N 0.27634 0.20792 0.86154 0.0
C452 C 0.31447 0.22464 0.89576 0.0
C453 C 0.28801 0.15581 0.95245 0.0
C454 C 0.24832 0.13921 0.91813 0.0
C455 C 0.32092 0.19897 0.94127 0.0
C456 C 0.24334 0.16655 0.8725 0.0
H457 H 0.09849 0.06599 0.82296 0.0
N458 N 0.19933 0.18089 0.79699 0.0
C459 C 0.1225 0.12797 0.7737 0.0
C460 C 0.20346 0.15251 0.83911 0.0
C461 C 0.15881 0.16972 0.76512 0.0
C462 C 0.12689 0.0981 0.81613 0.0
C463 C 0.16745 0.11041 0.84989 0.0
O464 O 0.21351 0.27261 0.78498 0.0
O465 O 0.28636 0.30094 0.72386 0.0
O466 O 0.35875 0.3455 0.7464 0.0
O467 O 0.32398 0.30347 0.81642 0.0
O468 O 0.21846 0.26396 0.71908 0.0
O469 O 0.25655 0.26681 0.8541 0.0
O470 O 0.39049 0.26968 0.70608 0.0
O471 O 0.31787 0.23947 0.77408 0.0
O472 O 0.24298 0.19541 0.74686 0.0
O473 O 0.27579 0.2411 0.67761 0.0
O474 O 0.38496 0.27728 0.77768 0.0
O475 O 0.3317 0.25664 0.6493 0.0
C476 C 0.24852 0.29855 0.69618 0.0
C477 C 0.18613 0.26623 0.85823 0.0
C478 C 0.14394 0.28977 0.89604 0.0
C479 C 0.18342 0.2989 0.87713 0.0
C480 C 0.10682 0.24777 0.89403 0.0
C481 C 0.1495 0.22411 0.85911 0.0
C482 C 0.10997 0.2151 0.87657 0.0
C483 C 0.35221 0.34132 0.79317 0.0
C484 C 0.22454 0.27852 0.83168 0.0
C485 C 0.17269 0.08245 0.89455 0.0
C486 C 0.21302 0.09688 0.92869 0.0
C487 C 0.35614 0.24313 0.80206 0.0
C488 C 0.39574 0.25579 0.62887 0.0
C489 C 0.3945 0.21752 0.61865 0.0
C490 C 0.42253 0.22071 0.58598 0.0
C491 C 0.4524 0.26259 0.56445 0.0
C492 C 0.42469 0.29728 0.60572 0.0
C493 C 0.45293 0.30057 0.57363 0.0
C494 C 0.24678 0.20287 0.6988 0.0
C495 C 0.36849 0.25131 0.66606 0.0
H496 H 0.21197 0.33134 0.87699 0.0
H497 H 0.07515 0.24001 0.90598 0.0
H498 H 0.15076 0.19858 0.84491 0.0
H499 H 0.08136 0.18282 0.8759 0.0
H500 H 0.37236 0.18536 0.63676 0.0
H501 H 0.47602 0.26589 0.54137 0.0
H502 H 0.42616 0.327 0.61328 0.0
H503 H 0.47593 0.33268 0.55657 0.0
Tb504 Tb 0.8308 0.22973 0.77988 0.0
C505 C 0.74987 0.33475 0.61028 0.0
C506 C 0.81366 0.40467 0.58952 0.0
C507 C 0.74819 0.37641 0.52568 0.0
C508 C 0.79301 0.36615 0.6239 0.0
C509 C 0.72639 0.34001 0.56133 0.0
C510 C 0.7917 0.40891 0.53989 0.0
C511 C 0.65919 0.27752 0.58902 0.0
N512 N 0.72937 0.30117 0.64643 0.0
C513 C 0.68368 0.27448 0.63722 0.0
C514 C 0.68092 0.30989 0.55053 0.0
Tb515 Tb 0.77285 0.29712 0.72404 0.0
N516 N 0.81315 0.36069 0.67213 0.0
C517 C 0.85267 0.39471 0.68924 0.0
C518 C 0.8548 0.43855 0.6066 0.0
C519 C 0.87408 0.43374 0.65688 0.0
H520 H 0.66583 0.25061 0.66701 0.0
H521 H 0.90572 0.45991 0.67072 0.0
H522 H 0.80741 0.43784 0.51274 0.0
H523 H 0.62339 0.25535 0.58187 0.0
H524 H 0.86885 0.3918 0.72753 0.0
H525 H 0.69808 0.0696 0.84003 0.0
H526 H 0.87146 0.4688 0.58162 0.0
H527 H 0.93748 0.28063 0.83465 0.0
H528 H 0.73684 0.13425 0.77917 0.0
H529 H 0.98255 0.27551 0.91825 0.0
H530 H 0.73092 0.38073 0.48776 0.0
H531 H 0.73201 0.06475 0.92979 0.0
H532 H 0.79863 0.09659 0.99627 0.0
H533 H 0.66172 0.31269 0.51342 0.0
H534 H 0.87667 0.1529 0.01771 0.0
N535 N 0.79168 0.16775 0.8339 0.0
C536 C 0.75226 0.13316 0.81814 0.0
C537 C 0.74914 0.09358 0.90325 0.0
C538 C 0.79127 0.12732 0.91847 0.0
C539 C 0.73 0.09614 0.85261 0.0
C540 C 0.81202 0.16419 0.88235 0.0
H541 H 0.94613 0.21905 0.98839 0.0
N542 N 0.87538 0.22805 0.85694 0.0
C543 C 0.94677 0.25296 0.91215 0.0
C544 C 0.85562 0.19555 0.89436 0.0
C545 C 0.92098 0.25568 0.86466 0.0
C546 C 0.92605 0.22119 0.95171 0.0
C547 C 0.88012 0.19139 0.94286 0.0
O548 O 0.88753 0.22868 0.76167 0.0
O549 O 0.82864 0.28359 0.72032 0.0
O550 O 0.75088 0.24923 0.67051 0.0
O551 O 0.77595 0.19778 0.72022 0.0
O552 O 0.89096 0.2885 0.75409 0.0
O553 O 0.82115 0.17413 0.75265 0.0
O554 O 0.7253 0.29441 0.76439 0.0
O555 O 0.77386 0.24239 0.7831 0.0
O556 O 0.84468 0.27074 0.83651 0.0
O557 O 0.83138 0.32731 0.78292 0.0
O558 O 0.71228 0.23737 0.74317 0.0
O559 O 0.7755 0.3563 0.7358 0.0
C560 C 0.87121 0.30809 0.71914 0.0
C561 C 0.88441 0.15839 0.76961 0.0
C562 C 0.92208 0.11864 0.75417 0.0
C563 C 0.90264 0.14818 0.73663 0.0
C564 C 0.92351 0.09942 0.80504 0.0
C565 C 0.88592 0.13893 0.82047 0.0
C566 C 0.90551 0.10965 0.83807 0.0
C567 C 0.75233 0.21029 0.67937 0.0
C568 C 0.86409 0.18928 0.74974 0.0
C569 C 0.85864 0.15641 0.98005 0.0
C570 C 0.81422 0.12437 0.96785 0.0
C571 C 0.73078 0.21701 0.77917 0.0
C572 C 0.70642 0.35432 0.74587 0.0
C573 C 0.71187 0.38859 0.76945 0.0
C574 C 0.67656 0.40166 0.76204 0.0
C575 C 0.63701 0.38105 0.72824 0.0
C576 C 0.66654 0.33481 0.71272 0.0
C577 C 0.63249 0.34858 0.70341 0.0
C578 C 0.84934 0.31168 0.82679 0.0
C579 C 0.7406 0.33666 0.75956 0.0
H580 H 0.90176 0.16322 0.6973 0.0
H581 H 0.93884 0.07688 0.81915 0.0
H582 H 0.87197 0.14617 0.84646 0.0
H583 H 0.90675 0.09489 0.87739 0.0
H584 H 0.74328 0.40419 0.79397 0.0
H585 H 0.60841 0.3887 0.72207 0.0
H586 H 0.66095 0.30798 0.69514 0.0
H587 H 0.60162 0.33288 0.67812 0.0
Tb588 Tb 0.7878 0.73444 0.71078 0.0
C589 C 0.92346 0.8576 0.8601 0.0
C590 C 0.92278 0.81257 0.94221 0.0
C591 C 0.98492 0.88587 0.92814 0.0
C592 C 0.90325 0.81822 0.89145 0.0
C593 C 0.96484 0.89169 0.87789 0.0
C594 C 0.96346 0.84677 0.96049 0.0
C595 C 0.96041 0.93703 0.79718 0.0
N596 N 0.90129 0.86335 0.81305 0.0
C597 C 0.91845 0.90303 0.78204 0.0
C598 C 0.98373 0.93136 0.84535 0.0
Tb599 Tb 0.82984 0.80817 0.79616 0.0
N600 N 0.86309 0.7865 0.87309 0.0
C601 C 0.8418 0.74732 0.9032 0.0
C602 C 0.9 0.77332 0.97351 0.0
C603 C 0.86002 0.74013 0.95364 0.0
H604 H 0.89999 0.90838 0.74537 0.0
H605 H 0.84253 0.70944 0.97753 0.0
H606 H 0.97846 0.84348 -0.00034 0.0
H607 H 0.97419 0.96795 0.77215 0.0
H608 H 0.81008 0.72162 0.88931 0.0
H609 H 0.74421 0.83746 0.54773 0.0
H610 H 0.91265 0.76848 0.01313 0.0
H611 H 0.73407 0.62586 0.74435 0.0
H612 H 0.79645 0.81483 0.61224 0.0
H613 H 0.65668 0.56624 0.7286 0.0
H614 H 1.01632 0.91192 0.94276 0.0
H615 H 0.66129 0.78989 0.54098 0.0
H616 H 0.59779 0.71379 0.56173 0.0
H617 H 1.01561 0.95821 0.85752 0.0
H618 H 0.57405 0.63865 0.60968 0.0
N619 N 0.74376 0.75504 0.64249 0.0
C620 C 0.76055 0.79302 0.60893 0.0
C621 C 0.68428 0.77885 0.56781 0.0
C622 C 0.66806 0.73731 0.59752 0.0
C623 C 0.731 0.80602 0.57198 0.0
C624 C 0.69915 0.72642 0.63504 0.0
H625 H 0.59619 0.58278 0.67121 0.0
N626 N 0.71763 0.676 0.69666 0.0
C627 C 0.66422 0.59959 0.71017 0.0
C628 C 0.68563 0.68493 0.66259 0.0
C629 C 0.70815 0.63347 0.71879 0.0
C630 C 0.63016 0.60909 0.6778 0.0
C631 C 0.64084 0.65213 0.65284 0.0
O632 O 0.80762 0.68738 0.70243 0.0
O633 O 0.83914 0.75535 0.77725 0.0
O634 O 0.88749 0.82256 0.75985 0.0
O635 O 0.84464 0.79753 0.68583 0.0
O636 O 0.80469 0.69041 0.77625 0.0
O637 O 0.81226 0.74123 0.64385 0.0
O638 O 0.81439 0.86067 0.79154 0.0
O639 O 0.77698 0.78736 0.7299 0.0
O640 O 0.73322 0.7073 0.75687 0.0
O641 O 0.76937 0.74988 0.82138 0.0
O642 O 0.82041 0.85223 0.72806 0.0
O643 O 0.80614 0.8128 0.85867 0.0
C644 C 0.83753 0.71835 0.80284 0.0
C645 C 0.80006 0.67512 0.61927 0.0
C646 C 0.81167 0.63066 0.57153 0.0
C647 C 0.82848 0.66016 0.60709 0.0
C648 C 0.76574 0.61598 0.54962 0.0
C649 C 0.75496 0.66071 0.59531 0.0
C650 C 0.73793 0.63118 0.56102 0.0
C651 C 0.88385 0.82177 0.7114 0.0
C652 C 0.81746 0.70529 0.65722 0.0
C653 C 0.60888 0.66317 0.61728 0.0
C654 C 0.62239 0.70592 0.58998 0.0
C655 C 0.78316 0.82603 0.70435 0.0
C656 C 0.81492 0.88472 0.86412 0.0
C657 C 0.7806 0.88948 0.87949 0.0
C658 C 0.78925 0.92963 0.89352 0.0
C659 C 0.83393 0.9639 0.89394 0.0
C660 C 0.85914 0.91897 0.86701 0.0
C661 C 0.86856 0.95811 0.88207 0.0
C662 C 0.73467 0.71676 0.80087 0.0
C663 C 0.80191 0.8484 0.83589 0.0
H664 H 0.86329 0.67103 0.62578 0.0
H665 H 0.75131 0.59316 0.5228 0.0
H666 H 0.73278 0.67217 0.60313 0.0
H667 H 0.70291 0.62004 0.54303 0.0
H668 H 0.74715 0.86197 0.87924 0.0
H669 H 0.84244 0.99578 0.9026 0.0
H670 H 0.88605 0.91639 0.85556 0.0
H671 H 0.90263 0.9848 0.8828 0.0
Co672 Co 0.07966 0.95632 0.45745 0.0
Co673 Co 0.11242 0.96166 0.55196 0.0
Co674 Co 0.05216 1.01594 0.50579 0.0
O675 O 0.09891 0.99979 0.49852 0.0
H676 H 0.12667 0.02537 0.49042 0.0
O677 O 1.00571 0.03189 0.51448 0.0
Co678 Co 1.02337 0.07532 0.55621 0.0
Co679 Co 0.99611 0.07235 0.46299 0.0
H680 H 0.97729 1.00646 0.52074 0.0
O681 O 0.16954 0.96238 0.55874 0.0
O682 O 0.10452 0.92243 0.51208 0.0
O683 O 0.06986 0.93254 0.60148 0.0
O684 O 1.02488 0.96476 0.56029 0.0
O685 O 0.09759 0.05192 0.55821 0.0
O686 O 1.03634 0.11306 0.59658 0.0
O687 O 0.97331 0.04948 0.58731 0.0
O688 O 0.079 0.10668 0.53116 0.0
O689 O 0.08036 0.06747 0.45094 0.0
O690 O 1.03731 0.10232 0.41386 0.0
O691 O 0.9945 0.10695 0.50199 0.0
O692 O 0.93841 0.06328 0.44762 0.0
C693 C 0.10584 0.94736 0.40471 0.0
C694 C 0.99596 0.93896 0.45572 0.0
C695 C 1.03343 0.93691 0.59546 0.0
C696 C 0.14776 0.93504 0.52639 0.0
C697 C 0.99698 0.08445 0.60956 0.0
C698 C 0.10695 0.09207 0.55707 0.0
C699 C 0.07238 0.09656 0.41728 0.0
C700 C 0.95165 0.08771 0.48269 0.0
O701 O 0.06618 0.91882 0.41693 0.0
O702 O 0.13007 0.98183 0.4274 0.0
O703 O 1.00568 0.9795 0.45298 0.0
O704 O 1.02428 0.92553 0.48249 0.0
Co705 Co 0.60029 0.95584 0.98973 0.0
Co706 Co 0.59492 0.95257 0.07856 0.0
Co707 Co 0.54691 1.02084 0.0002 0.0
O708 O 0.59736 0.99814 0.02346 0.0
H709 H 0.62693 0.023 0.02745 0.0
O710 O 0.49703 0.0444 0.97702 0.0
Co711 Co 0.49923 0.09112 0.00799 0.0
Co712 Co 0.49863 0.08824 0.91944 0.0
H713 H 0.46703 1.01991 0.97574 0.0
O714 O 0.64877 0.94908 0.1216 0.0
O715 O 0.61078 0.91374 0.05581 0.0
O716 O 0.53461 0.92714 0.1008 0.0
O717 O 0.50706 0.97555 0.05528 0.0
O718 O 0.58267 0.06673 0.04787 0.0
O719 O 0.49677 0.12834 0.04049 0.0
O720 O 0.43975 0.06571 0.01513 0.0
O721 O 0.56448 0.12204 0.00898 0.0
O722 O 0.58703 0.06581 0.945 0.0
O723 O 0.55746 0.11095 0.89465 0.0
O724 O 0.48558 0.13052 0.93959 0.0
O725 O 0.44466 0.0918 0.87707 0.0
C726 C 0.64979 0.95197 0.9619 0.0
C727 C 0.5047 0.93424 0.95856 0.0
C728 C 0.50362 0.94071 0.08852 0.0
C729 C 0.64353 0.92034 0.09527 0.0
C730 C 0.45431 0.09953 0.03819 0.0
C731 C 0.59088 0.10768 0.04078 0.0
C732 C 0.58932 0.09854 0.90885 0.0
C733 C 0.45184 0.12288 0.90091 0.0
O734 O 0.60747 0.92303 0.95527 0.0
O735 O 0.66113 0.98336 0.98783 0.0
O736 O 0.51006 0.97425 0.95324 0.0
O737 O 0.53533 0.92251 0.98416 0.0
Co738 Co 0.07594 0.43682 0.99504 0.0
Co739 Co 0.0883 0.45181 0.08299 0.0
Co740 Co 1.04552 0.52043 -0.00159 0.0
O741 O 0.09061 0.49115 0.02034 0.0
H742 H 0.12155 0.51288 0.01707 0.0
O743 O 1.00014 0.54962 0.97668 0.0
Co744 Co 1.01427 0.60289 0.00419 0.0
Co745 Co 1.00438 0.59138 0.91586 0.0
H746 H 0.96903 0.52779 0.97868 0.0
O747 O 0.14181 0.44492 0.12123 0.0
O748 O 0.0901 0.40194 0.06632 0.0
O749 O 1.0311 0.43384 0.10904 0.0
O750 O 1.00295 0.47705 0.05213 0.0
O751 O 0.08542 0.56464 0.04641 0.0
O752 O 1.02534 0.64741 0.03183 0.0
O753 O 0.95715 0.59014 0.01568 0.0
O754 O 0.07696 0.62288 -0.0002 0.0
O755 O 0.08843 0.56411 0.94455 0.0
O756 O 0.06337 0.61231 0.89357 0.0
O757 O 1.00049 0.63922 0.93421 0.0
O758 O 0.95221 0.59901 0.87505 0.0
C759 C 0.1083 0.4109 0.96854 0.0
C760 C 0.99123 0.43369 0.96246 0.0
C761 C 0.9994 0.44603 0.09081 0.0
C762 C 0.12761 0.41041 0.10005 0.0
C763 C 0.98176 0.62835 0.03159 0.0
C764 C 0.09973 0.60669 0.03509 0.0
C765 C 0.0936 0.59802 0.90915 0.0
C766 C 0.96446 0.6318 0.89851 0.0
O767 O 0.0648 0.39119 0.96918 0.0
O768 O 0.1327 0.44941 0.98364 0.0
O769 O 1.00576 0.47582 0.95074 0.0
O770 O 1.01317 0.41752 -0.00093 0.0
Co771 Co 0.58251 0.48139 0.92228 0.0
Co772 Co 0.55158 0.43902 0.00187 0.0
Co773 Co 0.54396 0.52523 0.9944 0.0
O774 O 0.58264 0.49922 0.98489 0.0
H775 H 0.61256 0.51106 0.00431 0.0
O776 O 0.50616 0.55142 0.00508 0.0
Co777 Co 0.52856 0.59106 0.05377 0.0
Co778 Co 0.50737 0.59985 0.95831 0.0
H779 H 0.475 0.52975 0.00707 0.0
O780 O 0.58672 0.41838 0.04662 0.0
O781 O 0.57306 0.42213 0.96096 0.0
O782 O 0.49144 0.41331 0.0204 0.0
O783 O 0.51112 0.47527 0.04881 0.0
O784 O 0.5939 0.55545 0.0487 0.0
O785 O 0.5444 0.6263 0.09981 0.0
O786 O 0.47666 0.57001 0.07988 0.0
O787 O 0.58576 0.61663 0.0331 0.0
O788 O 0.57805 0.57485 0.94078 0.0
O789 O 0.55521 0.62817 0.91747 0.0
O790 O 0.51266 0.6335 0.00282 0.0
O791 O 0.45426 0.60507 0.94151 0.0
C792 C 0.62777 0.48104 0.88231 0.0
C793 C 0.48822 0.46901 0.91255 0.0
C794 C 0.48594 0.43373 0.04869 0.0
C795 C 0.59676 0.41638 0.00497 0.0
C796 C 0.502 0.60198 0.10624 0.0
C797 C 0.6093 0.59582 0.05329 0.0
C798 C 0.5815 0.61214 0.91521 0.0
C799 C 0.47144 0.62524 0.98077 0.0
O800 O 0.58454 0.46599 0.86681 0.0
O801 O 0.64391 0.49756 0.92457 0.0
O802 O 0.49228 0.49463 0.9414 0.0
O803 O 0.52101 0.46281 0.90797 0.0
Co804 Co 0.13623 0.47758 0.56223 0.0
Co805 Co 0.12945 0.51169 0.47543 0.0
Co806 Co 1.046 0.52042 0.49611 0.0
O807 O 0.08092 0.48101 0.51102 0.0
H808 H 0.06134 0.4529 0.49968 0.0
O809 O 1.01105 0.5602 0.48031 0.0
Co810 Co 0.95672 0.56399 0.42644 0.0
Co811 Co 0.96315 0.53347 0.51749 0.0
H812 H 1.03151 0.58904 0.48938 0.0
O813 O 0.13225 0.48216 0.43196 0.0
O814 O 0.17508 0.49765 0.508 0.0
O815 O 0.15202 0.57377 0.45768 0.0
O816 O 0.08096 0.56513 0.43589 0.0
O817 O 0.99758 0.48082 0.44813 0.0
O818 O 0.90915 0.57182 0.37883 0.0
O819 O 0.96336 0.62331 0.42219 0.0
O820 O 0.94109 0.50294 0.41792 0.0
O821 O 1.01091 0.47526 0.55624 0.0
O822 O 0.94184 0.47237 0.54334 0.0
O823 O 0.91657 0.54474 0.47988 0.0
O824 O 0.95915 0.56875 0.55321 0.0
C825 C 0.16715 0.42906 0.5974 0.0
C826 C 0.13604 0.56705 0.56473 0.0
C827 C 0.12416 0.58814 0.43226 0.0
C828 C 0.16663 0.48237 0.46571 0.0
C829 C 0.92582 0.61162 0.38919 0.0
C830 C 0.95804 0.47527 0.42379 0.0
C831 C 0.96856 0.45527 0.56415 0.0
C832 C 0.92493 0.56545 0.51788 0.0
O833 O 0.18462 0.46876 0.60862 0.0
O834 O 0.12918 0.41836 0.5651 0.0
O835 O 0.09496 0.56 0.54423 0.0
O836 O 0.15294 0.53946 0.56941 0.0
Co837 Co 0.63206 0.97005 0.55974 0.0
Co838 Co 0.61359 0.99025 0.46545 0.0
Co839 Co 0.54711 1.01926 0.49737 0.0
O840 O 0.57478 0.97372 0.51243 0.0
H841 H 0.55083 0.94441 0.50914 0.0
O842 O 0.51974 0.06498 0.48212 0.0
Co843 Co 0.461 0.06796 0.43856 0.0
Co844 Co 0.48651 0.05208 0.53249 0.0
H845 H 0.54401 0.09451 0.48262 0.0
O846 O 0.60101 0.94823 0.43154 0.0
O847 O 0.65638 0.97179 0.49831 0.0
O848 O 0.64082 0.04869 0.43254 0.0
O849 O 0.59161 0.06842 0.44778 0.0
O850 O 0.4995 0.98955 0.44086 0.0
O851 O 0.40879 0.07418 0.39909 0.0
O852 O 0.47101 0.13074 0.42391 0.0
O853 O 0.43864 1.00253 0.43935 0.0
O854 O 0.5027 0.97016 0.54697 0.0
O855 O 0.46684 0.99735 0.57589 0.0
O856 O 0.43828 0.06383 0.50303 0.0
O857 O 0.50024 0.09678 0.56098 0.0
C858 C 0.66328 0.92209 0.60026 0.0
C859 C 0.63728 0.05941 0.56559 0.0
C860 C 0.62659 0.07714 0.42759 0.0
C861 C 0.6341 0.94446 0.46465 0.0
C862 C 0.42903 0.11656 0.39951 0.0
C863 C 0.45636 0.97929 0.43014 0.0
C864 C 0.47467 0.96555 0.57534 0.0
C865 C 0.45966 0.09023 0.53785 0.0
O866 O 0.68291 0.96429 0.60123 0.0
O867 O 0.62147 0.90734 0.5754 0.0
O868 O 0.59422 0.04906 0.55405 0.0
O869 O 0.65515 0.03584 0.55762 0.0
C870 C 0.1869 0.17637 0.37472 0.0
C871 C 0.17585 0.18836 0.32256 0.0
C872 C 0.15334 0.14584 0.40464 0.0
C873 C 0.10714 0.12684 0.38394 0.0
H874 H 0.2219 0.19024 0.3927 0.0
H875 H 0.16356 0.13776 0.44458 0.0
S876 S 0.05983 0.14573 0.24945 0.0
N877 N 0.11511 0.17728 0.2513 0.0
N878 N 0.05195 0.12121 0.30799 0.0
C879 C 0.09543 0.13836 0.33195 0.0
C880 C 0.12977 0.1687 0.30116 0.0
C881 C 0.87758 0.1376 0.48671 0.0
C882 C 0.83559 0.10133 0.47467 0.0
C883 C 0.91809 0.13295 0.49772 0.0
C884 C 0.9162 0.09146 0.50058 0.0
H885 H 0.8801 0.17066 0.47674 0.0
H886 H 0.95024 0.16227 0.49637 0.0
S887 S 0.81407 0.98439 0.50239 0.0
N888 N 0.794 0.02147 0.48696 0.0
N889 N 0.86993 1.01239 0.51235 0.0
C890 C 0.87423 0.05417 0.50397 0.0
C891 C 0.83334 0.05907 0.49072 0.0
C892 C 0.89634 0.89966 0.34902 0.0
C893 C 0.89502 0.86009 0.34287 0.0
C894 C 0.92863 0.92502 0.38572 0.0
C895 C 0.9596 0.91079 0.41903 0.0
H896 H 0.87289 0.91159 0.32454 0.0
H897 H 0.92933 0.95593 0.38793 0.0
S898 S 0.9659 0.8063 0.42203 0.0
N899 N 0.92667 0.80754 0.37372 0.0
N900 N 0.98286 0.85137 0.4461 0.0
C901 C 0.95667 0.86989 0.41464 0.0
C902 C 0.92571 0.84564 0.37564 0.0
C903 C 0.16169 0.96587 0.29205 0.0
C904 C 0.15171 0.92268 0.28804 0.0
C905 C 0.14804 0.97407 0.33111 0.0
C906 C 0.12331 0.93918 0.36642 0.0
H907 H 0.1807 0.99342 0.26535 0.0
H908 H 0.15599 1.00769 0.33303 0.0
S909 S 0.09055 0.82059 0.37344 0.0
N910 N 0.11688 0.84493 0.32331 0.0
N911 N 0.09088 0.86034 0.39619 0.0
C912 C 0.11341 0.89599 0.36289 0.0
C913 C 0.12767 0.88772 0.32373 0.0
C914 C 0.18465 0.85729 0.49556 0.0
C915 C 0.23156 0.88382 0.49368 0.0
C916 C 0.15628 0.87447 0.50322 0.0
C917 C 0.17198 0.91973 0.50393 0.0
H918 H 0.17173 0.82192 0.49942 0.0
H919 H 0.12277 0.85133 0.51285 0.0
S920 S 0.31984 1.01862 0.4933 0.0
N921 N 0.30003 0.95781 0.46553 0.0
N922 N 0.24959 0.99823 0.50361 0.0
C923 C 0.21275 0.94848 0.48561 0.0
C924 C 0.243 0.9236 0.46342 0.0
C925 C 0.18848 0.19043 0.62276 0.0
C926 C 0.21093 0.17288 0.66487 0.0
C927 C 0.15569 0.16409 0.58801 0.0
C928 C 0.14384 0.11889 0.59379 0.0
H929 H 0.19568 0.2248 0.61694 0.0
H930 H 0.13935 0.17943 0.55639 0.0
S931 S 0.19199 0.05662 0.69925 0.0
N932 N 0.21863 0.10765 0.71176 0.0
N933 N 0.15692 0.05747 0.64622 0.0
C934 C 0.16586 0.1007 0.63624 0.0
C935 C 0.1992 0.12779 0.67199 0.0
C936 C 0.9172 0.07159 0.69574 0.0
C937 C 0.94225 0.10926 0.71937 0.0
C938 C 0.93529 0.06355 0.66054 0.0
C939 C 0.979 0.09291 0.64794 0.0
H940 H 0.88323 0.04859 0.70406 0.0
H941 H 0.91473 0.03438 0.64276 0.0
S942 S 0.0582 0.19613 0.70131 0.0
N943 N 1.01255 0.17573 0.72915 0.0
N944 N 0.0471 0.16118 0.66337 0.0
C945 C 1.00449 0.13058 0.67217 0.0
C946 C 0.98594 0.13862 0.70781 0.0
C947 C 0.91539 0.8637 0.63133 0.0
C948 C 0.92331 0.85074 0.68369 0.0
C949 C 0.95135 0.89136 0.60363 0.0
C950 C 0.99697 0.90661 0.62677 0.0
H951 H 0.88101 0.85299 0.61142 0.0
H952 H 0.94326 0.90066 0.56345 0.0
S953 S 1.03657 0.88237 0.76284 0.0
N954 N 0.98052 0.85567 0.75788 0.0
N955 N 0.0483 0.9068 0.70523 0.0
C956 C 1.00565 0.89358 0.67898 0.0
C957 C 0.96881 0.866 0.70758 0.0
C958 C 0.3809 0.14999 0.05295 0.0
C959 C 0.35809 0.12164 0.09334 0.0
C960 C 0.41218 0.14268 0.03537 0.0
C961 C 0.42246 0.10723 0.05865 0.0
H962 H 0.37373 0.17741 0.03442 0.0
H963 H 0.42789 0.16447 0.00296 0.0
S964 S 0.3823 0.03188 0.1755 0.0
N965 N 0.35387 0.06181 0.16187 0.0
N966 N 0.41454 0.04917 0.13061 0.0
C967 C 0.40311 0.08111 0.10211 0.0
C968 C 0.37054 0.08812 0.11924 0.0
C969 C 0.91472 0.37698 0.18715 0.0
C970 C 0.8721 0.35756 0.15706 0.0
C971 C 0.95511 0.40638 0.16573 0.0
C972 C 0.955 0.41957 0.11303 0.0
H973 H 0.9173 0.36864 0.22776 0.0
H974 H 0.98699 0.41847 0.19084 0.0
S975 S 0.85201 0.38156 0.01713 0.0
N976 N 0.83246 0.35597 0.0713 0.0
N977 N 0.90725 0.41174 0.03153 0.0
C978 C 0.91222 0.40217 0.08266 0.0
C979 C 0.87127 0.37147 0.10445 0.0
C980 C 0.73633 0.88012 0.17539 0.0
C981 C 0.72474 0.83908 0.16127 0.0
C982 C 0.71112 0.90575 0.15329 0.0
C983 C 0.67221 0.89289 0.11495 0.0
H984 H 0.76395 0.89176 0.20575 0.0
H985 H 0.72195 0.93599 0.16761 0.0
S986 S 0.62714 0.78879 0.0625 0.0
N987 N 0.67028 0.78745 0.10522 0.0
N988 N 0.62554 0.83527 0.06342 0.0
C989 C 0.6613 0.85262 0.09945 0.0
C990 C 0.68641 0.82617 0.12256 0.0
C991 C 0.1892 0.71234 0.08695 0.0
C992 C 0.21432 0.69788 0.12944 0.0
C993 C 0.15301 0.68296 0.0568 0.0
C994 C 0.14088 0.63743 0.06606 0.0
H995 H 0.19688 0.74678 0.07707 0.0
H996 H 0.13398 0.69631 0.02623 0.0
S997 S 0.20347 0.58357 0.16379 0.0
N998 N 0.22964 0.63551 0.1729 0.0
N999 N 0.16224 0.58047 0.11624 0.0
C1000 C 0.1684 0.62293 0.10546 0.0
C1001 C 0.20506 0.653 0.13673 0.0
C1002 C 0.43252 0.83778 0.88366 0.0
C1003 C 0.3891 0.83754 0.86959 0.0
C1004 C 0.46887 0.8686 0.91231 0.0
C1005 C 0.46415 0.90086 0.92964 0.0
H1006 H 0.43938 0.81461 0.87127 0.0
H1007 H 0.50146 0.8676 0.91998 0.0
S1008 S 0.35492 0.90548 0.92018 0.0
N1009 N 0.34173 0.86598 0.88768 0.0
N1010 N 0.41018 0.92482 0.93957 0.0
C1011 C 0.4203 0.89887 0.92 0.0
C1012 C 0.38289 0.867 0.89092 0.0
C1013 C 0.15666 0.36764 0.89557 0.0
C1014 C 0.14139 0.32318 0.91892 0.0
C1015 C 0.14986 0.39812 0.91411 0.0
C1016 C 0.12828 0.38513 0.957 0.0
H1017 H 0.17164 0.37837 0.86118 0.0
H1018 H 0.15886 0.43099 0.89306 0.0
S1019 S 0.08769 0.27507 0.03619 0.0
N1020 N 0.10728 0.26962 0.99022 0.0
N1021 N 0.0959 0.32677 0.02508 0.0
C1022 C 0.11591 0.34193 0.98254 0.0
C1023 C 0.12201 0.31095 0.96349 0.0
C1024 C 0.65619 0.15296 0.79653 0.0
C1025 C 0.70053 0.18167 0.81653 0.0
C1026 C 0.62181 0.12487 0.82696 0.0
C1027 C 0.62964 0.12288 0.87971 0.0
H1028 H 0.64716 0.15354 0.7561 0.0
H1029 H 0.58809 0.10539 0.8086 0.0
S1030 S 0.73967 0.18988 0.95279 0.0
N1031 N 0.74995 0.20606 0.89372 0.0
N1032 N 0.68636 0.15151 0.95119 0.0
C1033 C 0.67436 0.14989 0.90096 0.0
C1034 C 0.70939 0.17962 0.86951 0.0
C1035 C 0.86746 0.67059 0.87527 0.0
C1036 C 0.87645 0.70539 0.83337 0.0
C1037 C 0.89713 0.6498 0.89793 0.0
C1038 C 0.93835 0.66141 0.88031 0.0
H1039 H 0.83569 0.65775 0.88984 0.0
H1040 H 0.88638 0.62268 0.92856 0.0
S1041 S 0.97829 0.74805 0.76943 0.0
N1042 N 0.9308 0.74884 0.77458 0.0
N1043 N 0.98503 0.71033 0.81563 0.0
C1044 C 0.94799 0.69623 0.83848 0.0
C1045 C 0.91789 0.7178 0.8157 0.0
C1046 C 0.22983 0.37815 0.13095 0.0
C1047 C 0.21652 0.33712 0.16414 0.0
C1048 C 0.20055 0.39935 0.10885 0.0
C1049 C 0.15472 0.38154 0.11735 0.0
H1050 H 0.26467 0.39548 0.12327 0.0
H1051 H 0.21483 0.4313 0.08571 0.0
S1052 S 0.1007 0.27558 0.20251 0.0
N1053 N 0.15227 0.28023 0.20474 0.0
N1054 N 0.09811 0.31898 0.16367 0.0
C1055 C 0.14028 0.34003 0.14983 0.0
C1056 C 0.17045 0.31833 0.1727 0.0
C1057 C 0.1906 0.64516 0.82792 0.0
C1058 C 0.21933 0.68764 0.84131 0.0
C1059 C 0.15127 0.6153 0.85124 0.0
C1060 C 0.13881 0.62639 0.88934 0.0
H1061 H 0.1981 0.6352 0.79832 0.0
H1062 H 0.12978 0.58385 0.83826 0.0
S1063 S 0.20398 0.73197 0.94096 0.0
N1064 N 0.23385 0.73729 0.89815 0.0
N1065 N 0.15986 0.68297 0.93991 0.0
C1066 C 0.16797 0.66831 0.90377 0.0
C1067 C 0.20825 0.69819 0.88072 0.0
C1068 C 0.41243 0.21957 0.87084 0.0
C1069 C 0.37352 0.20773 0.83246 0.0
C1070 C 0.43616 0.19258 0.89357 0.0
C1071 C 0.42396 0.15139 0.87919 0.0
H1072 H 0.42577 0.25125 0.88294 0.0
H1073 H 0.46554 0.20511 0.92186 0.0
S1074 S 0.32568 0.10382 0.77911 0.0
N1075 N 0.32507 0.15048 0.78128 0.0
N1076 N 0.36823 0.10101 0.82188 0.0
C1077 C 0.3848 0.13903 0.84086 0.0
C1078 C 0.36035 0.16639 0.81829 0.0
C1079 C 0.90295 0.32789 0.90921 0.0
C1080 C 0.88086 0.34286 0.86401 0.0
C1081 C 0.93758 0.35709 0.94096 0.0
C1082 C 0.95131 0.40298 0.93009 0.0
H1083 H 0.89387 0.29316 0.92018 0.0
H1084 H 0.95418 0.34337 0.97403 0.0
S1085 S 0.89671 0.4586 0.82348 0.0
N1086 N 0.87021 0.40646 0.81522 0.0
N1087 N 0.93455 0.46098 0.87455 0.0
C1088 C 0.92678 0.41807 0.88742 0.0
C1089 C 0.89173 0.38824 0.85477 0.0
C1090 C 0.76412 0.96457 0.94332 0.0
C1091 C 0.75266 0.93645 0.90782 0.0
C1092 C 0.73103 0.96995 0.95995 0.0
C1093 C 0.68464 0.94778 0.94161 0.0
H1094 H 0.79904 0.98214 0.95962 0.0
H1095 H 0.74198 0.99108 0.9882 0.0
S1096 S 0.63601 0.87729 0.84088 0.0
N1097 N 0.69104 0.89148 0.84927 0.0
N1098 N 0.62899 0.90054 0.88151 0.0
C1099 C 0.67251 0.92135 0.90421 0.0
C1100 C 0.70633 0.91604 0.88701 0.0
C1101 C 0.93724 0.67501 0.10492 0.0
C1102 C 0.9569 0.71997 0.08365 0.0
C1103 C 0.94053 0.64304 0.08494 0.0
C1104 C 0.96248 0.65517 0.04241 0.0
H1105 H 0.92241 0.66507 0.13931 0.0
H1106 H 0.92908 0.60965 0.10502 0.0
S1107 S 1.01365 0.76703 0.96881 0.0
N1108 N 0.99605 0.77369 0.01566 0.0
N1109 N 0.99896 0.71384 0.9764 0.0
C1110 C 0.97816 0.69912 0.01833 0.0
C1111 C 0.97639 0.73152 0.03945 0.0
C1112 C 0.43183 0.89197 0.1965 0.0
C1113 C 0.39193 0.85607 0.17903 0.0
C1114 C 0.46592 0.92083 0.16586 0.0
C1115 C 0.4626 0.915 0.11613 0.0
H1116 H 0.4373 0.89732 0.23502 0.0
H1117 H 0.49617 0.94695 0.1821 0.0
S1118 S 0.36696 0.82474 0.0522 0.0
N1119 N 0.352 0.81607 0.10819 0.0
N1120 N 0.41635 0.86921 0.05125 0.0
C1121 C 0.4228 0.87944 0.09777 0.0
C1122 C 0.38755 0.85032 0.12891 0.0
C1123 C 0.6701 0.15188 0.1604 0.0
C1124 C 0.69689 0.19678 0.14344 0.0
C1125 C 0.63672 0.1233 0.12702 0.0
C1126 C 0.62859 0.13817 0.07497 0.0
H1127 H 0.67464 0.13874 0.20003 0.0
H1128 H 0.6165 0.08938 0.14235 0.0
S1129 S 0.69625 0.25005 0.00966 0.0
N1130 N 0.71714 0.25295 0.06989 0.0
N1131 N 0.65455 0.19978 0.00753 0.0
C1132 C 0.6564 0.18259 0.05728 0.0
C1133 C 0.69042 0.21166 0.0913 0.0
C1134 C 0.67206 0.64402 0.83236 0.0
C1135 C 0.69474 0.69028 0.8285 0.0
C1136 C 0.6355 0.61879 0.86046 0.0
C1137 C 0.61948 0.63899 0.88457 0.0
H1138 H 0.6834 0.6271 0.81478 0.0
H1139 H 0.61956 0.58324 0.86314 0.0
S1140 S 0.6669 0.75923 0.88528 0.0
N1141 N 0.69837 0.75515 0.85102 0.0
N1142 N 0.62958 0.70826 0.9026 0.0
C1143 C 0.64157 0.68529 0.88027 0.0
C1144 C 0.6792 0.71076 0.85262 0.0
C1145 C 0.36324 0.59588 0.02409 0.0
C1146 C 0.36125 0.63643 0.00718 0.0
C1147 C 0.4018 0.5926 0.01951 0.0
C1148 C 0.44059 0.6305 0.00504 0.0
H1149 H 0.33231 0.56551 0.02826 0.0
H1150 H 0.39943 0.56009 0.02188 0.0
S1151 S 0.45966 0.74581 0.99118 0.0
N1152 N 0.40574 0.71588 -0.00037 0.0
N1153 N 0.48027 0.7104 0.99466 0.0
C1154 C 0.44302 0.67182 0.00432 0.0
C1155 C 0.40297 0.67472 0.00752 0.0
C1156 C 0.41464 0.41741 0.80005 0.0
C1157 C 0.38006 0.379 0.82188 0.0
C1158 C 0.44682 0.44984 0.82893 0.0
C1159 C 0.44522 0.44575 0.88048 0.0
H1160 H 0.41873 0.42144 0.76116 0.0
H1161 H 0.47533 0.47672 0.81172 0.0
S1162 S 0.35597 0.3571 0.95324 0.0
N1163 N 0.34187 0.34266 0.89661 0.0
N1164 N 0.40258 0.40422 0.95031 0.0
C1165 C 0.4081 0.41031 0.90141 0.0
C1166 C 0.37543 0.37677 0.87223 0.0
C1167 C 0.65389 0.45918 0.76971 0.0
C1168 C 0.67759 0.4334 0.79155 0.0
C1169 C 0.64224 0.47878 0.79929 0.0
C1170 C 0.65529 0.47534 0.85189 0.0
H1171 H 0.64131 0.4618 0.72973 0.0
H1172 H 0.61988 0.49411 0.78116 0.0
S1173 S 0.73059 0.42454 0.92547 0.0
N1174 N 0.72146 0.41326 0.86816 0.0
N1175 N 0.70267 0.45349 0.9225 0.0
C1176 C 0.68491 0.45574 0.87306 0.0
C1177 C 0.69548 0.43415 0.84321 0.0
C1178 C 0.72128 0.46611 0.03395 0.0
C1179 C 0.7288 0.42842 0.04586 0.0
C1180 C 0.67826 0.46275 0.01816 0.0
C1181 C 0.64302 0.42252 0.00849 0.0
H1182 H 0.74812 0.49748 0.04359 0.0
H1183 H 0.67241 0.49104 0.01651 0.0
S1184 S 0.63657 0.30257 0.02189 0.0
N1185 N 0.65038 0.35741 0.01912 0.0
N1186 N 0.62313 0.34483 0.00855 0.0
C1187 C 0.65352 0.3834 0.01734 0.0
C1188 C 0.69613 0.38454 0.03814 0.0
C1189 C 0.71882 0.67393 0.11855 0.0
C1190 C 0.70682 0.672 0.16519 0.0
C1191 C 0.68823 0.64652 0.08346 0.0
C1192 C 0.64538 0.61435 0.09465 0.0
H1193 H 0.7515 0.69798 0.10769 0.0
H1194 H 0.6974 0.65192 0.04648 0.0
S1195 S 0.60114 0.58641 0.21535 0.0
N1196 N 0.65129 0.62925 0.22329 0.0
N1197 N 0.59482 0.57625 0.15797 0.0
C1198 C 0.63475 0.60818 0.14295 0.0
C1199 C 0.66533 0.63711 0.17826 0.0
C1200 C 0.42968 0.58839 0.20159 0.0
C1201 C 0.44117 0.63215 0.2053 0.0
C1202 C 0.44943 0.57892 0.16947 0.0
C1203 C 0.48195 0.61272 0.14035 0.0
H1204 H 0.40498 0.56117 0.22356 0.0
H1205 H 0.4398 0.54486 0.16825 0.0
S1206 S 0.52403 0.73282 0.13597 0.0
N1207 N 0.48727 0.7097 0.17675 0.0
N1208 N 0.52455 0.69178 0.11672 0.0
C1209 C 0.49391 0.65662 0.1437 0.0
C1210 C 0.47339 0.66634 0.17592 0.0
C1211 C 0.41185 0.33694 0.13821 0.0
C1212 C 0.39088 0.35514 0.15801 0.0
C1213 C 0.44249 0.36258 0.10318 0.0
C1214 C 0.45329 0.40756 0.08613 0.0
H1215 H 0.4044 0.30246 0.14981 0.0
H1216 H 0.45793 0.34695 0.08947 0.0
S1217 S 0.40121 0.46857 0.12001 0.0
N1218 N 0.3789 0.41922 0.15378 0.0
N1219 N 0.43679 0.46771 0.08867 0.0
C1220 C 0.43162 0.42579 0.10488 0.0
C1221 C 0.40034 0.39955 0.14054 0.0
C1222 C 0.82369 0.5704 0.54999 0.0
C1223 C 0.84104 0.61489 0.55643 0.0
C1224 C 0.84977 0.55502 0.53416 0.0
C1225 C 0.89446 0.58335 0.52435 0.0
H1226 H 0.78983 0.54691 0.55817 0.0
H1227 H 0.83546 0.52034 0.53157 0.0
S1228 S 0.95485 0.70325 0.52997 0.0
N1229 N 0.90498 0.68758 0.54707 0.0
N1230 N 0.95419 0.65829 0.51936 0.0
C1231 C 0.91191 0.62791 0.52938 0.0
C1232 C 0.88528 0.64374 0.54493 0.0
C1233 C 0.40205 0.8868 0.67852 0.0
C1234 C 0.37848 0.84578 0.66114 0.0
C1235 C 0.43543 0.9238 0.65253 0.0
C1236 C 0.44726 0.92235 0.60726 0.0
H1237 H 0.39322 0.89094 0.71151 0.0
H1238 H 0.45081 0.9547 0.66706 0.0
S1239 S 0.39561 0.82277 0.5451 0.0
N1240 N 0.36961 0.80598 0.59536 0.0
N1241 N 0.43225 0.87504 0.54697 0.0
C1242 C 0.42497 0.88108 0.59024 0.0
C1243 C 0.39054 0.84327 0.6167 0.0
C1244 C 0.18942 0.32262 0.63674 0.0
C1245 C 0.23333 0.33517 0.66643 0.0
C1246 C 0.16925 0.35237 0.6144 0.0
C1247 C 0.19077 0.39745 0.62052 0.0
H1248 H 0.16948 0.28846 0.63134 0.0
H1249 H 0.13558 0.33929 0.59285 0.0
S1250 S 0.30688 0.44956 0.69358 0.0
N1251 N 0.29797 0.39793 0.69901 0.0
N1252 N 0.26093 0.45283 0.65895 0.0
C1253 C 0.23519 0.41081 0.64958 0.0
C1254 C 0.25601 0.38039 0.67178 0.0
C1255 C 0.74211 0.15267 0.62963 0.0
C1256 C 0.72339 0.1758 0.64507 0.0
C1257 C 0.71475 0.11598 0.60353 0.0
C1258 C 0.66692 0.0999 0.59192 0.0
H1259 H 0.7784 0.16267 0.6385 0.0
H1260 H 0.73134 0.09981 0.5929 0.0
S1261 S 0.60023 0.14553 0.62929 0.0
N1262 N 0.65348 0.17704 0.65032 0.0
N1263 N 0.60237 0.11007 0.60107 0.0
C1264 C 0.64791 0.12276 0.6077 0.0
C1265 C 0.67588 0.15995 0.63421 0.0
C1266 C 0.90468 0.40335 0.31947 0.0
C1267 C 0.88901 0.36001 0.34607 0.0
C1268 C 0.92571 0.44037 0.34473 0.0
C1269 C 0.93255 0.4356 0.39774 0.0
H1270 H 0.8993 0.40875 0.27864 0.0
H1271 H 0.937 0.47298 0.32259 0.0
S1272 S 0.89893 0.32946 0.48504 0.0
N1273 N 0.88145 0.31468 0.42835 0.0
N1274 N 0.92369 0.38394 0.47589 0.0
C1275 C 0.91841 0.3925 0.42475 0.0
C1276 C 0.89586 0.35484 0.39896 0.0
C1277 C 0.69882 0.88043 0.45813 0.0
C1278 C 0.66362 0.84216 0.43951 0.0
C1279 C 0.68936 0.91255 0.46951 0.0
C1280 C 0.64465 0.90797 0.46171 0.0
H1281 H 0.7338 0.88554 0.46391 0.0
H1282 H 0.71707 0.94178 0.4827 0.0
S1283 S 0.54066 0.8136 0.41448 0.0
N1284 N 0.58254 0.80182 0.41432 0.0
N1285 N 0.56475 0.8608 0.43635 0.0
C1286 C 0.60934 0.86926 0.44431 0.0
C1287 C 0.61885 0.83689 0.4329 0.0
C1288 C 0.21374 0.69538 0.36803 0.0
C1289 C 0.19633 0.69634 0.31629 0.0
C1290 C 0.18864 0.662 0.40516 0.0
C1291 C 0.14422 0.62838 0.39296 0.0
H1292 H 0.24744 0.71999 0.37991 0.0
H1293 H 0.20493 0.66174 0.44403 0.0
S1294 S 0.08176 0.6174 0.26316 0.0
N1295 N 0.13052 0.66149 0.25522 0.0
N1296 N 0.08397 0.59983 0.32454 0.0
C1297 C 0.12564 0.63034 0.34161 0.0
C1298 C 0.15133 0.66403 0.3037 0.0
C1299 C 0.39409 0.21611 0.33364 0.0
C1300 C 0.34537 0.19579 0.32681 0.0
C1301 C 0.42119 0.19204 0.35769 0.0
C1302 C 0.40185 0.14543 0.37533 0.0
H1303 H 0.41174 0.25093 0.31986 0.0
H1304 H 0.45787 0.21022 0.36121 0.0
S1305 S 0.27652 0.07565 0.36936 0.0
N1306 N 0.28055 0.12513 0.34423 0.0
N1307 N 0.32927 0.08161 0.38396 0.0
C1308 C 0.35348 0.12542 0.36876 0.0
C1309 C 0.32633 0.14975 0.34626 0.0
C1310 C 0.70053 0.82489 0.66734 0.0
C1311 C 0.74921 0.84649 0.67504 0.0
C1312 C 0.67261 0.84779 0.64235 0.0
C1313 C 0.69114 0.8943 0.62477 0.0
H1314 H 0.68361 0.78996 0.68095 0.0
H1315 H 0.636 0.82882 0.63802 0.0
S1316 S 0.81595 0.96741 0.6356 0.0
N1317 N 0.81317 0.91836 0.66062 0.0
N1318 N 0.7628 0.9598 0.61823 0.0
C1319 C 0.73948 0.91569 0.63268 0.0
C1320 C 0.76748 0.89257 0.6564 0.0
C1321 C 0.68618 0.16548 0.32095 0.0
C1322 C 0.72735 0.19412 0.34687 0.0
C1323 C 0.65118 0.13014 0.34705 0.0
C1324 C 0.65515 0.12207 0.40033 0.0
H1325 H 0.68195 0.16887 0.28027 0.0
H1326 H 0.62192 0.10734 0.32537 0.0
S1327 S 0.75516 0.18813 0.48598 0.0
N1328 N 0.76903 0.21222 0.42907 0.0
N1329 N 0.70382 0.14699 0.47743 0.0
C1330 C 0.69539 0.1516 0.42629 0.0
C1331 C 0.73115 0.18709 0.39988 0.0
C1332 C 0.82799 0.64838 0.32695 0.0
C1333 C 0.84978 0.69462 0.31088 0.0
C1334 C 0.85233 0.62289 0.3529 0.0
C1335 C 0.90067 0.64131 0.36448 0.0
H1336 H 0.79133 0.63117 0.31819 0.0
H1337 H 0.83269 0.58777 0.36336 0.0
S1338 S 0.97585 0.75897 0.32266 0.0
N1339 N 0.92429 0.75588 0.30333 0.0
N1340 N 0.96905 0.70948 0.35251 0.0
C1341 C 0.923 0.68736 0.34787 0.0
C1342 C 0.89814 0.7132 0.32093 0.0
C1343 C 0.35019 0.88622 0.36762 0.0
C1344 C 0.36855 0.86466 0.34882 0.0
C1345 C 0.37818 0.92231 0.39449 0.0
C1346 C 0.4262 0.93935 0.40319 0.0
H1347 H 0.31374 0.87543 0.36094 0.0
H1348 H 0.36193 0.93733 0.40789 0.0
S1349 S 0.49158 0.89793 0.35613 0.0
N1350 N 0.43795 0.86562 0.33741 0.0
N1351 N 0.49031 0.93198 0.38739 0.0
C1352 C 0.44477 0.91809 0.38384 0.0
C1353 C 0.41618 0.8814 0.35682 0.0
C1354 C 0.21615 0.43884 0.39319 0.0
C1355 C 0.25838 0.44437 0.42227 0.0
C1356 C 0.18691 0.45074 0.408 0.0
C1357 C 0.19827 0.46876 0.45273 0.0
H1358 H 0.20575 0.42596 0.35798 0.0
H1359 H 0.15508 0.44592 0.38365 0.0
S1360 S 0.30449 0.48988 0.54339 0.0
N1361 N 0.30975 0.46908 0.49898 0.0
N1362 N 0.25483 0.49137 0.52626 0.0
C1363 C 0.24021 0.47435 0.48246 0.0
C1364 C 0.27021 0.46234 0.46734 0.0
C1365 C 0.40851 0.16811 0.52872 0.0
C1366 C 0.42349 0.1809 0.57688 0.0
C1367 C 0.41543 0.13478 0.51732 0.0
C1368 C 0.43938 0.11432 0.55322 0.0
H1369 H 0.39292 0.185 0.49902 0.0
H1370 H 0.40465 0.12724 0.47943 0.0
S1371 S 0.48061 0.13188 0.68717 0.0
N1372 N 0.45863 0.16704 0.66239 0.0
N1373 N 0.47314 0.10537 0.64121 0.0
C1374 C 0.45166 0.12463 0.60274 0.0
C1375 C 0.44363 0.15784 0.61445 0.0
C1376 C 0.8791 0.34632 0.62687 0.0
C1377 C 0.89727 0.3437 0.67844 0.0
C1378 C 0.90356 0.381 0.5902 0.0
C1379 C 0.94859 0.41372 0.60222 0.0
H1380 H 0.84501 0.32238 0.61494 0.0
H1381 H 0.88606 0.38319 0.55207 0.0
S1382 S 1.01381 0.41952 0.73111 0.0
N1383 N 0.96466 0.37593 0.73896 0.0
N1384 N 1.01055 0.43905 0.67018 0.0
C1385 C 0.96814 0.40972 0.65313 0.0
C1386 C 0.9428 0.37517 0.6908 0.0
C1387 C 0.17076 0.66621 0.6295 0.0
C1388 C 0.21846 0.68877 0.63121 0.0
C1389 C 0.14465 0.62716 0.60802 0.0
C1390 C 0.16468 0.60959 0.58555 0.0
H1391 H 0.15309 0.67755 0.64605 0.0
H1392 H 0.10849 0.61005 0.61011 0.0
S1393 S 0.28314 0.66825 0.55713 0.0
N1394 N 0.28137 0.69842 0.59367 0.0
N1395 N 0.23234 0.62586 0.55228 0.0
C1396 C 0.21102 0.63527 0.58049 0.0
C1397 C 0.23772 0.67473 0.6031 0.0
loop_
_geom_bond_atom_site_label_1
_geom_bond_atom_site_label_2
_geom_bond_distance
_geom_bond_site_symmetry_2
_ccdc_geom_bond_type
Tb0 N31 2.660 . S
Tb0 N38 2.600 . S
Tb0 O44 2.546 . S
Tb0 O45 2.610 . S
Tb0 O47 2.320 . S
Tb0 O48 2.552 . S
Tb0 O49 2.413 . S
Tb0 O51 2.362 . S
Tb0 O52 2.421 . S
Tb0 C64 2.833 . S
C1 C4 1.432 . S
C1 C5 1.414 . S
C1 N8 1.359 . S
C2 C4 1.417 . S
C2 C6 1.432 . S
C2 C14 1.410 . S
C3 C5 1.444 . S
C3 C6 1.317 . S
C3 H26 0.929 . S
C4 C1 1.432 . S
C4 C2 1.417 . S
C4 N12 1.360 . S
C5 C1 1.414 . S
C5 C3 1.444 . S
C5 C10 1.385 . S
C6 C2 1.432 . S
C6 C3 1.317 . S
C6 H18 0.930 . S
C7 C9 1.392 . S
C7 C10 1.370 . S
C7 H19 0.931 . S
N8 C1 1.359 . S
N8 C9 1.327 . S
N8 Tb11 2.600 . S
C9 C7 1.392 . S
C9 N8 1.327 . S
C9 H16 0.930 . S
C10 C5 1.385 . S
C10 C7 1.370 . S
C10 H29 0.930 . S
Tb11 N8 2.600 . S
Tb11 N12 2.660 . S
Tb11 O45 2.362 . S
Tb11 O46 2.421 . S
Tb11 O50 2.546 . S
Tb11 O51 2.610 . S
Tb11 O53 2.320 . S
Tb11 O54 2.552 . S
Tb11 O55 2.413 . S
Tb11 C75 2.833 . S
N12 C4 1.360 . S
N12 Tb11 2.660 . S
N12 C13 1.305 . S
C13 N12 1.305 . S
C13 C15 1.407 . S
C13 H20 0.930 . S
C14 C2 1.410 . S
C14 C15 1.345 . S
C14 H22 0.930 . S
C15 C13 1.407 . S
C15 C14 1.345 . S
C15 H17 0.930 . S
H16 C9 0.930 . S
H17 C15 0.930 . S
H18 C6 0.930 . S
H19 C7 0.931 . S
H20 C13 0.930 . S
H21 C35 0.930 . S
H22 C14 0.930 . S
H23 C41 0.930 . S
H24 C32 0.930 . S
H25 C39 0.931 . S
H26 C3 0.929 . S
H27 C33 0.930 1_556 S
H28 C66 0.930 1_556 S
H29 C10 0.930 . S
H30 C65 0.929 . S
N31 Tb0 2.660 . S
N31 C32 1.305 . S
N31 C36 1.360 . S
C32 H24 0.930 . S
C32 N31 1.305 . S
C32 C35 1.407 . S
C33 H27 0.930 1_554 S
C33 C34 1.410 . S
C33 C35 1.345 . S
C34 C33 1.410 . S
C34 C36 1.417 . S
C34 C66 1.432 . S
C35 H21 0.930 . S
C35 C32 1.407 . S
C35 C33 1.345 . S
C36 N31 1.360 . S
C36 C34 1.417 . S
C36 C40 1.432 . S
H37 C42 0.930 . S
N38 Tb0 2.600 . S
N38 C40 1.359 . S
N38 C41 1.327 . S
C39 H25 0.931 . S
C39 C41 1.392 . S
C39 C42 1.370 . S
C40 C36 1.432 . S
C40 N38 1.359 . S
C40 C43 1.414 . S
C41 H23 0.930 . S
C41 N38 1.327 . S
C41 C39 1.392 . S
C42 H37 0.930 . S
C42 C39 1.370 . S
C42 C43 1.385 . S
C43 C40 1.414 . S
C43 C42 1.385 . S
C43 C65 1.444 . S
O44 Tb0 2.546 . S
O44 C64 1.251 . S
O45 Tb0 2.610 . S
O45 Tb11 2.362 . S
O45 C56 1.283 . S
O46 Tb11 2.421 . S
O46 C63 1.262 . S
O47 Tb0 2.320 . S
O47 C63 1.260 . S
O48 Tb0 2.552 . S
O48 C56 1.243 . S
O49 Tb0 2.413 . S
O49 C64 1.256 . S
O50 Tb11 2.546 . S
O50 C75 1.251 . S
O51 Tb0 2.362 . S
O51 Tb11 2.610 . S
O51 C67 1.283 . S
O52 Tb0 2.421 . S
O52 C74 1.262 . S
O53 Tb11 2.320 . S
O53 C74 1.260 . S
O54 Tb11 2.552 . S
O54 C67 1.243 . S
O55 Tb11 2.413 . S
O55 C75 1.256 . S
C56 O45 1.283 . S
C56 O48 1.243 . S
C57 C59 1.382 . S
C57 C61 1.393 . S
C57 C64 1.500 . S
C58 C59 1.400 . S
C58 C60 1.384 . S
C59 C57 1.382 . S
C59 C58 1.400 . S
C59 H76 0.930 . S
C60 C58 1.384 . S
C60 C62 1.392 . S
C60 H77 0.931 . S
C61 C57 1.393 . S
C61 C62 1.401 . S
C61 H78 0.930 . S
C62 C60 1.392 . S
C62 C61 1.401 . S
C62 H79 0.930 . S
C63 O46 1.262 . S
C63 O47 1.260 . S
C64 Tb0 2.833 . S
C64 O44 1.251 . S
C64 O49 1.256 . S
C64 C57 1.500 . S
C65 H30 0.929 . S
C65 C43 1.444 . S
C65 C66 1.317 . S
C66 H28 0.930 1_554 S
C66 C34 1.432 . S
C66 C65 1.317 . S
C67 O51 1.283 . S
C67 O54 1.243 . S
C68 C69 1.382 . S
C68 C72 1.393 . S
C68 C75 1.500 . S
C69 C68 1.382 . S
C69 C70 1.400 . S
C69 H80 0.930 . S
C70 C69 1.400 . S
C70 C71 1.384 . S
C71 C70 1.384 . S
C71 C73 1.392 . S
C71 H81 0.931 . S
C72 C68 1.393 . S
C72 C73 1.401 . S
C72 H82 0.930 . S
C73 C71 1.392 . S
C73 C72 1.401 . S
C73 H83 0.930 . S
C74 O52 1.262 . S
C74 O53 1.260 . S
C75 Tb11 2.833 . S
C75 O50 1.251 . S
C75 O55 1.256 . S
C75 C68 1.500 . S
H76 C59 0.930 . S
H77 C60 0.931 . S
H78 C61 0.930 . S
H79 C62 0.930 . S
H80 C69 0.930 . S
H81 C71 0.931 . S
H82 C72 0.930 . S
H83 C73 0.930 . S
Tb84 N115 2.660 . S
Tb84 N122 2.600 . S
Tb84 O128 2.546 . S
Tb84 O129 2.610 . S
Tb84 O131 2.320 . S
Tb84 O132 2.552 . S
Tb84 O133 2.413 . S
Tb84 O135 2.362 . S
Tb84 O136 2.421 . S
Tb84 C148 2.833 . S
C85 C88 1.432 . S
C85 C89 1.414 . S
C85 N92 1.359 . S
C86 C88 1.417 . S
C86 C90 1.432 . S
C86 C98 1.410 . S
C87 C89 1.444 . S
C87 C90 1.317 . S
C87 H110 0.929 . S
C88 C85 1.432 . S
C88 C86 1.417 . S
C88 N96 1.360 . S
C89 C85 1.414 . S
C89 C87 1.444 . S
C89 C94 1.385 . S
C90 C86 1.432 . S
C90 C87 1.317 . S
C90 H102 0.930 . S
C91 C93 1.392 . S
C91 C94 1.370 . S
C91 H103 0.931 . S
N92 C85 1.359 . S
N92 C93 1.327 . S
N92 Tb95 2.600 . S
C93 C91 1.392 . S
C93 N92 1.327 . S
C93 H100 0.930 . S
C94 C89 1.385 . S
C94 C91 1.370 . S
C94 H113 0.930 . S
Tb95 N92 2.600 . S
Tb95 N96 2.660 . S
Tb95 O129 2.362 . S
Tb95 O130 2.421 . S
Tb95 O134 2.546 . S
Tb95 O135 2.610 . S
Tb95 O137 2.320 . S
Tb95 O138 2.552 . S
Tb95 O139 2.413 . S
Tb95 C159 2.833 . S
N96 C88 1.360 . S
N96 Tb95 2.660 . S
N96 C97 1.305 . S
C97 N96 1.305 . S
C97 C99 1.407 . S
C97 H104 0.930 . S
C98 C86 1.410 . S
C98 C99 1.345 . S
C98 H106 0.930 . S
C99 C97 1.407 . S
C99 C98 1.345 . S
C99 H101 0.930 . S
H100 C93 0.930 . S
H101 C99 0.930 . S
H102 C90 0.930 . S
H103 C91 0.931 . S
H104 C97 0.930 . S
H105 C119 0.930 . S
H106 C98 0.930 . S
H107 C125 0.930 . S
H108 C116 0.930 . S
H109 C123 0.931 . S
H110 C87 0.929 . S
H111 C117 0.930 . S
H112 C150 0.930 . S
H113 C94 0.930 . S
H114 C149 0.929 . S
N115 Tb84 2.660 . S
N115 C116 1.305 . S
N115 C120 1.360 . S
C116 H108 0.930 . S
C116 N115 1.305 . S
C116 C119 1.407 . S
C117 H111 0.930 . S
C117 C118 1.410 . S
C117 C119 1.345 . S
C118 C117 1.410 . S
C118 C120 1.417 . S
C118 C150 1.432 . S
C119 H105 0.930 . S
C119 C116 1.407 . S
C119 C117 1.345 . S
C120 N115 1.360 . S
C120 C118 1.417 . S
C120 C124 1.432 . S
H121 C126 0.930 . S
N122 Tb84 2.600 . S
N122 C124 1.359 . S
N122 C125 1.327 . S
C123 H109 0.931 . S
C123 C125 1.392 . S
C123 C126 1.370 . S
C124 C120 1.432 . S
C124 N122 1.359 . S
C124 C127 1.414 . S
C125 H107 0.930 . S
C125 N122 1.327 . S
C125 C123 1.392 . S
C126 H121 0.930 . S
C126 C123 1.370 . S
C126 C127 1.385 . S
C127 C124 1.414 . S
C127 C126 1.385 . S
C127 C149 1.444 . S
O128 Tb84 2.546 . S
O128 C148 1.251 . S
O129 Tb84 2.610 . S
O129 Tb95 2.362 . S
O129 C140 1.283 . S
O130 Tb95 2.421 . S
O130 C147 1.262 . S
O131 Tb84 2.320 . S
O131 C147 1.260 . S
O132 Tb84 2.552 . S
O132 C140 1.243 . S
O133 Tb84 2.413 . S
O133 C148 1.256 . S
O134 Tb95 2.546 . S
O134 C159 1.251 . S
O135 Tb84 2.362 . S
O135 Tb95 2.610 . S
O135 C151 1.283 . S
O136 Tb84 2.421 . S
O136 C158 1.262 . S
O137 Tb95 2.320 . S
O137 C158 1.260 . S
O138 Tb95 2.552 . S
O138 C151 1.243 . S
O139 Tb95 2.413 . S
O139 C159 1.256 . S
C140 O129 1.283 . S
C140 O132 1.243 . S
C141 C143 1.382 . S
C141 C145 1.393 . S
C141 C148 1.500 . S
C142 C143 1.400 . S
C142 C144 1.384 . S
C143 C141 1.382 . S
C143 C142 1.400 . S
C143 H160 0.930 . S
C144 C142 1.384 . S
C144 C146 1.392 . S
C144 H161 0.931 . S
C145 C141 1.393 . S
C145 C146 1.401 . S
C145 H162 0.930 . S
C146 C144 1.392 . S
C146 C145 1.401 . S
C146 H163 0.930 . S
C147 O130 1.262 . S
C147 O131 1.260 . S
C148 Tb84 2.833 . S
C148 O128 1.251 . S
C148 O133 1.256 . S
C148 C141 1.500 . S
C149 H114 0.929 . S
C149 C127 1.444 . S
C149 C150 1.317 . S
C150 H112 0.930 . S
C150 C118 1.432 . S
C150 C149 1.317 . S
C151 O135 1.283 . S
C151 O138 1.243 . S
C152 C153 1.382 . S
C152 C156 1.393 . S
C152 C159 1.500 . S
C153 C152 1.382 . S
C153 C154 1.400 . S
C153 H164 0.930 . S
C154 C153 1.400 . S
C154 C155 1.384 . S
C155 C154 1.384 . S
C155 C157 1.392 . S
C155 H165 0.931 . S
C156 C152 1.393 . S
C156 C157 1.401 . S
C156 H166 0.930 . S
C157 C155 1.392 . S
C157 C156 1.401 . S
C157 H167 0.930 . S
C158 O136 1.262 . S
C158 O137 1.260 . S
C159 Tb95 2.833 . S
C159 O134 1.251 . S
C159 O139 1.256 . S
C159 C152 1.500 . S
H160 C143 0.930 . S
H161 C144 0.931 . S
H162 C145 0.930 . S
H163 C146 0.930 . S
H164 C153 0.930 . S
H165 C155 0.931 . S
H166 C156 0.930 . S
H167 C157 0.930 . S
Tb168 N199 2.660 . S
Tb168 N206 2.600 . S
Tb168 O212 2.546 . S
Tb168 O213 2.610 . S
Tb168 O215 2.320 . S
Tb168 O216 2.552 . S
Tb168 O217 2.413 . S
Tb168 O219 2.362 . S
Tb168 O220 2.421 . S
Tb168 C232 2.833 . S
C169 C172 1.432 . S
C169 C173 1.414 . S
C169 N176 1.359 . S
C170 C172 1.417 . S
C170 C174 1.432 . S
C170 C182 1.410 . S
C171 C173 1.444 . S
C171 C174 1.317 . S
C171 H194 0.929 . S
C172 C169 1.432 . S
C172 C170 1.417 . S
C172 N180 1.360 . S
C173 C169 1.414 . S
C173 C171 1.444 . S
C173 C178 1.385 . S
C174 C170 1.432 . S
C174 C171 1.317 . S
C174 H186 0.930 1_554 S
C175 C177 1.392 . S
C175 C178 1.370 . S
C175 H187 0.931 . S
N176 C169 1.359 . S
N176 C177 1.327 . S
N176 Tb179 2.600 . S
C177 C175 1.392 . S
C177 N176 1.327 . S
C177 H184 0.930 . S
C178 C173 1.385 . S
C178 C175 1.370 . S
C178 H197 0.930 . S
Tb179 N176 2.600 . S
Tb179 N180 2.660 . S
Tb179 O213 2.362 . S
Tb179 O214 2.421 . S
Tb179 O218 2.546 . S
Tb179 O219 2.610 . S
Tb179 O221 2.320 . S
Tb179 O222 2.552 . S
Tb179 O223 2.413 . S
Tb179 C243 2.833 . S
N180 C172 1.360 . S
N180 Tb179 2.660 . S
N180 C181 1.305 . S
C181 N180 1.305 . S
C181 C183 1.407 . S
C181 H188 0.930 . S
C182 C170 1.410 . S
C182 C183 1.345 . S
C182 H190 0.930 1_554 S
C183 C181 1.407 . S
C183 C182 1.345 . S
C183 H185 0.930 . S
H184 C177 0.930 . S
H185 C183 0.930 . S
H186 C174 0.930 1_556 S
H187 C175 0.931 . S
H188 C181 0.930 . S
H189 C203 0.930 . S
H190 C182 0.930 1_556 S
H191 C209 0.930 . S
H192 C200 0.930 . S
H193 C207 0.931 . S
H194 C171 0.929 . S
H195 C201 0.930 . S
H196 C234 0.930 . S
H197 C178 0.930 . S
H198 C233 0.929 . S
N199 Tb168 2.660 . S
N199 C200 1.305 . S
N199 C204 1.360 . S
C200 H192 0.930 . S
C200 N199 1.305 . S
C200 C203 1.407 . S
C201 H195 0.930 . S
C201 C202 1.410 . S
C201 C203 1.345 . S
C202 C201 1.410 . S
C202 C204 1.417 . S
C202 C234 1.432 . S
C203 H189 0.930 . S
C203 C200 1.407 . S
C203 C201 1.345 . S
C204 N199 1.360 . S
C204 C202 1.417 . S
C204 C208 1.432 . S
H205 C210 0.930 . S
N206 Tb168 2.600 . S
N206 C208 1.359 . S
N206 C209 1.327 . S
C207 H193 0.931 . S
C207 C209 1.392 . S
C207 C210 1.370 . S
C208 C204 1.432 . S
C208 N206 1.359 . S
C208 C211 1.414 . S
C209 H191 0.930 . S
C209 N206 1.327 . S
C209 C207 1.392 . S
C210 H205 0.930 . S
C210 C207 1.370 . S
C210 C211 1.385 . S
C211 C208 1.414 . S
C211 C210 1.385 . S
C211 C233 1.444 . S
O212 Tb168 2.546 . S
O212 C232 1.251 . S
O213 Tb168 2.610 . S
O213 Tb179 2.362 . S
O213 C224 1.283 . S
O214 Tb179 2.421 . S
O214 C231 1.262 . S
O215 Tb168 2.320 . S
O215 C231 1.260 . S
O216 Tb168 2.552 . S
O216 C224 1.243 . S
O217 Tb168 2.413 . S
O217 C232 1.256 . S
O218 Tb179 2.546 . S
O218 C243 1.251 . S
O219 Tb168 2.362 . S
O219 Tb179 2.610 . S
O219 C235 1.283 . S
O220 Tb168 2.421 . S
O220 C242 1.262 . S
O221 Tb179 2.320 . S
O221 C242 1.260 . S
O222 Tb179 2.552 . S
O222 C235 1.243 . S
O223 Tb179 2.413 . S
O223 C243 1.256 . S
C224 O213 1.283 . S
C224 O216 1.243 . S
C225 C227 1.382 . S
C225 C229 1.393 . S
C225 C232 1.500 . S
C226 C227 1.400 . S
C226 C228 1.384 . S
C227 C225 1.382 . S
C227 C226 1.400 . S
C227 H244 0.930 . S
C228 C226 1.384 . S
C228 C230 1.392 . S
C228 H245 0.931 . S
C229 C225 1.393 . S
C229 C230 1.401 . S
C229 H246 0.930 . S
C230 C228 1.392 . S
C230 C229 1.401 . S
C230 H247 0.930 . S
C231 O214 1.262 . S
C231 O215 1.260 . S
C232 Tb168 2.833 . S
C232 O212 1.251 . S
C232 O217 1.256 . S
C232 C225 1.500 . S
C233 H198 0.929 . S
C233 C211 1.444 . S
C233 C234 1.317 . S
C234 H196 0.930 . S
C234 C202 1.432 . S
C234 C233 1.317 . S
C235 O219 1.283 . S
C235 O222 1.243 . S
C236 C237 1.382 . S
C236 C240 1.393 . S
C236 C243 1.500 . S
C237 C236 1.382 . S
C237 C238 1.400 . S
C237 H248 0.930 . S
C238 C237 1.400 . S
C238 C239 1.384 . S
C239 C238 1.384 . S
C239 C241 1.392 . S
C239 H249 0.931 . S
C240 C236 1.393 . S
C240 C241 1.401 . S
C240 H250 0.930 . S
C241 C239 1.392 . S
C241 C240 1.401 . S
C241 H251 0.930 . S
C242 O220 1.262 . S
C242 O221 1.260 . S
C243 Tb179 2.833 . S
C243 O218 1.251 . S
C243 O223 1.256 . S
C243 C236 1.500 . S
H244 C227 0.930 . S
H245 C228 0.931 . S
H246 C229 0.930 . S
H247 C230 0.930 . S
H248 C237 0.930 . S
H249 C239 0.931 . S
H250 C240 0.930 . S
H251 C241 0.930 . S
Tb252 N283 2.660 . S
Tb252 N290 2.600 . S
Tb252 O296 2.546 . S
Tb252 O297 2.610 . S
Tb252 O299 2.320 . S
Tb252 O300 2.552 . S
Tb252 O301 2.413 . S
Tb252 O303 2.362 . S
Tb252 O304 2.421 . S
Tb252 C316 2.833 . S
C253 C256 1.432 . S
C253 C257 1.414 . S
C253 N260 1.359 . S
C254 C256 1.417 . S
C254 C258 1.432 . S
C254 C266 1.410 . S
C255 C257 1.444 . S
C255 C258 1.317 . S
C255 H278 0.917 1_554 S
C256 C253 1.432 . S
C256 C254 1.417 . S
C256 N264 1.360 . S
C257 C253 1.414 . S
C257 C255 1.444 . S
C257 C262 1.385 . S
C258 C254 1.432 . S
C258 C255 1.317 . S
C258 H270 0.930 . S
C259 C261 1.392 . S
C259 C262 1.370 . S
C259 H271 0.931 . S
N260 C253 1.359 . S
N260 C261 1.327 . S
N260 Tb263 2.600 . S
C261 C259 1.392 . S
C261 N260 1.327 . S
C261 H268 0.930 . S
C262 C257 1.385 . S
C262 C259 1.370 . S
C262 H281 0.925 1_554 S
Tb263 N260 2.600 . S
Tb263 N264 2.660 . S
Tb263 O297 2.362 . S
Tb263 O298 2.421 . S
Tb263 O302 2.546 . S
Tb263 O303 2.610 . S
Tb263 O305 2.320 . S
Tb263 O306 2.552 . S
Tb263 O307 2.413 . S
Tb263 C327 2.833 . S
N264 C256 1.360 . S
N264 Tb263 2.660 . S
N264 C265 1.305 . S
C265 N264 1.305 . S
C265 C267 1.407 . S
C265 H272 0.930 . S
C266 C254 1.410 . S
C266 C267 1.345 . S
C266 H274 0.930 . S
C267 C265 1.407 . S
C267 C266 1.345 . S
C267 H269 0.930 . S
H268 C261 0.930 . S
H269 C267 0.930 . S
H270 C258 0.930 . S
H271 C259 0.931 . S
H272 C265 0.930 . S
H273 C287 0.930 . S
H274 C266 0.930 . S
H275 C293 0.930 . S
H276 C284 0.930 . S
H277 C291 0.931 . S
H278 C255 0.917 1_556 S
H279 C285 0.930 . S
H280 C318 0.930 . S
H281 C262 0.925 1_556 S
H282 C317 0.929 . S
N283 Tb252 2.660 . S
N283 C284 1.305 . S
N283 C288 1.360 . S
C284 H276 0.930 . S
C284 N283 1.305 . S
C284 C287 1.407 . S
C285 H279 0.930 . S
C285 C286 1.410 . S
C285 C287 1.345 . S
C286 C285 1.410 . S
C286 C288 1.417 . S
C286 C318 1.432 . S
C287 H273 0.930 . S
C287 C284 1.407 . S
C287 C285 1.345 . S
C288 N283 1.360 . S
C288 C286 1.417 . S
C288 C292 1.432 . S
H289 C294 0.930 . S
N290 Tb252 2.600 . S
N290 C292 1.359 . S
N290 C293 1.327 . S
C291 H277 0.931 . S
C291 C293 1.392 . S
C291 C294 1.370 . S
C292 C288 1.432 . S
C292 N290 1.359 . S
C292 C295 1.414 . S
C293 H275 0.930 . S
C293 N290 1.327 . S
C293 C291 1.392 . S
C294 H289 0.930 . S
C294 C291 1.370 . S
C294 C295 1.385 . S
C295 C292 1.414 . S
C295 C294 1.385 . S
C295 C317 1.444 . S
O296 Tb252 2.546 . S
O296 C316 1.251 . S
O297 Tb252 2.610 . S
O297 Tb263 2.362 . S
O297 C308 1.283 . S
O298 Tb263 2.421 . S
O298 C315 1.262 . S
O299 Tb252 2.320 . S
O299 C315 1.260 . S
O300 Tb252 2.552 . S
O300 C308 1.243 . S
O301 Tb252 2.413 . S
O301 C316 1.256 . S
O302 Tb263 2.546 . S
O302 C327 1.251 . S
O303 Tb252 2.362 . S
O303 Tb263 2.610 . S
O303 C319 1.283 . S
O304 Tb252 2.421 . S
O304 C326 1.262 . S
O305 Tb263 2.320 . S
O305 C326 1.260 . S
O306 Tb263 2.552 . S
O306 C319 1.243 . S
O307 Tb263 2.413 . S
O307 C327 1.256 . S
C308 O297 1.283 . S
C308 O300 1.243 . S
C309 C311 1.382 . S
C309 C313 1.393 . S
C309 C316 1.500 . S
C310 C311 1.400 . S
C310 C312 1.384 . S
C311 C309 1.382 . S
C311 C310 1.400 . S
C311 H328 0.930 . S
C312 C310 1.384 . S
C312 C314 1.392 . S
C312 H329 0.931 . S
C313 C309 1.393 . S
C313 C314 1.401 . S
C313 H330 0.930 . S
C314 C312 1.392 . S
C314 C313 1.401 . S
C314 H331 0.930 . S
C315 O298 1.262 . S
C315 O299 1.260 . S
C316 Tb252 2.833 . S
C316 O296 1.251 . S
C316 O301 1.256 . S
C316 C309 1.500 . S
C317 H282 0.929 . S
C317 C295 1.444 . S
C317 C318 1.317 . S
C318 H280 0.930 . S
C318 C286 1.432 . S
C318 C317 1.317 . S
C319 O303 1.283 . S
C319 O306 1.243 . S
C320 C321 1.382 . S
C320 C324 1.393 . S
C320 C327 1.500 . S
C321 C320 1.382 . S
C321 C322 1.400 . S
C321 H332 0.930 . S
C322 C321 1.400 . S
C322 C323 1.384 . S
C323 C322 1.384 . S
C323 C325 1.392 . S
C323 H333 0.931 . S
C324 C320 1.393 . S
C324 C325 1.401 . S
C324 H334 0.930 . S
C325 C323 1.392 . S
C325 C324 1.401 . S
C325 H335 0.930 . S
C326 O304 1.262 . S
C326 O305 1.260 . S
C327 Tb263 2.833 . S
C327 O302 1.251 . S
C327 O307 1.256 . S
C327 C320 1.500 . S
H328 C311 0.930 . S
H329 C312 0.931 . S
H330 C313 0.930 . S
H331 C314 0.930 . S
H332 C321 0.930 . S
H333 C323 0.931 . S
H334 C324 0.930 . S
H335 C325 0.930 . S
Tb336 N367 2.660 . S
Tb336 N374 2.600 . S
Tb336 O380 2.546 . S
Tb336 O381 2.610 . S
Tb336 O383 2.320 . S
Tb336 O384 2.552 . S
Tb336 O385 2.413 . S
Tb336 O387 2.362 . S
Tb336 O388 2.421 . S
Tb336 C400 2.833 . S
C337 C340 1.432 . S
C337 C341 1.414 . S
C337 N344 1.359 . S
C338 C340 1.417 . S
C338 C342 1.432 . S
C338 C350 1.410 . S
C339 C341 1.444 . S
C339 C342 1.317 . S
C339 H362 0.929 . S
C340 C337 1.432 . S
C340 C338 1.417 . S
C340 N348 1.360 . S
C341 C337 1.414 . S
C341 C339 1.444 . S
C341 C346 1.385 . S
C342 C338 1.432 . S
C342 C339 1.317 . S
C342 H354 0.930 . S
C343 C345 1.392 . S
C343 C346 1.370 . S
C343 H355 0.931 . S
N344 C337 1.359 . S
N344 C345 1.327 . S
N344 Tb347 2.600 . S
C345 C343 1.392 . S
C345 N344 1.327 . S
C345 H352 0.930 . S
C346 C341 1.385 . S
C346 C343 1.370 . S
C346 H365 0.930 . S
Tb347 N344 2.600 . S
Tb347 N348 2.660 . S
Tb347 O381 2.362 . S
Tb347 O382 2.421 . S
Tb347 O386 2.546 . S
Tb347 O387 2.610 . S
Tb347 O389 2.320 . S
Tb347 O390 2.552 . S
Tb347 O391 2.413 . S
Tb347 C411 2.833 . S
N348 C340 1.360 . S
N348 Tb347 2.660 . S
N348 C349 1.305 . S
C349 N348 1.305 . S
C349 C351 1.407 . S
C349 H356 0.930 . S
C350 C338 1.410 . S
C350 C351 1.345 . S
C350 H358 0.930 . S
C351 C349 1.407 . S
C351 C350 1.345 . S
C351 H353 0.930 . S
H352 C345 0.930 . S
H353 C351 0.930 . S
H354 C342 0.930 . S
H355 C343 0.931 . S
H356 C349 0.930 . S
H357 C371 0.930 . S
H358 C350 0.930 . S
H359 C377 0.930 . S
H360 C368 0.930 . S
H361 C375 0.931 . S
H362 C339 0.929 . S
H363 C369 0.930 . S
H364 C402 0.930 . S
H365 C346 0.930 . S
H366 C401 0.929 . S
N367 Tb336 2.660 . S
N367 C368 1.305 . S
N367 C372 1.360 . S
C368 H360 0.930 . S
C368 N367 1.305 . S
C368 C371 1.407 . S
C369 H363 0.930 . S
C369 C370 1.410 . S
C369 C371 1.345 . S
C370 C369 1.410 . S
C370 C372 1.417 . S
C370 C402 1.432 . S
C371 H357 0.930 . S
C371 C368 1.407 . S
C371 C369 1.345 . S
C372 N367 1.360 . S
C372 C370 1.417 . S
C372 C376 1.432 . S
H373 C378 0.930 . S
N374 Tb336 2.600 . S
N374 C376 1.359 . S
N374 C377 1.327 . S
C375 H361 0.931 . S
C375 C377 1.392 . S
C375 C378 1.370 . S
C376 C372 1.432 . S
C376 N374 1.359 . S
C376 C379 1.414 . S
C377 H359 0.930 . S
C377 N374 1.327 . S
C377 C375 1.392 . S
C378 H373 0.930 . S
C378 C375 1.370 . S
C378 C379 1.385 . S
C379 C376 1.414 . S
C379 C378 1.385 . S
C379 C401 1.444 . S
O380 Tb336 2.546 . S
O380 C400 1.251 . S
O381 Tb336 2.610 . S
O381 Tb347 2.362 . S
O381 C392 1.283 . S
O382 Tb347 2.421 . S
O382 C399 1.262 . S
O383 Tb336 2.320 . S
O383 C399 1.260 . S
O384 Tb336 2.552 . S
O384 C392 1.243 . S
O385 Tb336 2.413 . S
O385 C400 1.256 . S
O386 Tb347 2.546 . S
O386 C411 1.251 . S
O387 Tb336 2.362 . S
O387 Tb347 2.610 . S
O387 C403 1.283 . S
O388 Tb336 2.421 . S
O388 C410 1.262 . S
O389 Tb347 2.320 . S
O389 C410 1.260 . S
O390 Tb347 2.552 . S
O390 C403 1.243 . S
O391 Tb347 2.413 . S
O391 C411 1.256 . S
C392 O381 1.283 . S
C392 O384 1.243 . S
C393 C395 1.382 . S
C393 C397 1.393 . S
C393 C400 1.500 . S
C394 C395 1.400 . S
C394 C396 1.384 . S
C395 C393 1.382 . S
C395 C394 1.400 . S
C395 H412 0.930 . S
C396 C394 1.384 . S
C396 C398 1.392 . S
C396 H413 0.931 . S
C397 C393 1.393 . S
C397 C398 1.401 . S
C397 H414 0.930 . S
C398 C396 1.392 . S
C398 C397 1.401 . S
C398 H415 0.930 . S
C399 O382 1.262 . S
C399 O383 1.260 . S
C400 Tb336 2.833 . S
C400 O380 1.251 . S
C400 O385 1.256 . S
C400 C393 1.500 . S
C401 H366 0.929 . S
C401 C379 1.444 . S
C401 C402 1.317 . S
C402 H364 0.930 . S
C402 C370 1.432 . S
C402 C401 1.317 . S
C403 O387 1.283 . S
C403 O390 1.243 . S
C404 C405 1.382 . S
C404 C408 1.393 . S
C404 C411 1.500 . S
C405 C404 1.382 . S
C405 C406 1.400 . S
C405 H416 0.930 . S
C406 C405 1.400 . S
C406 C407 1.384 . S
C407 C406 1.384 . S
C407 C409 1.392 . S
C407 H417 0.931 . S
C408 C404 1.393 . S
C408 C409 1.401 . S
C408 H418 0.930 . S
C409 C407 1.392 . S
C409 C408 1.401 . S
C409 H419 0.930 . S
C410 O388 1.262 . S
C410 O389 1.260 . S
C411 Tb347 2.833 . S
C411 O386 1.251 . S
C411 O391 1.256 . S
C411 C404 1.500 . S
H412 C395 0.930 . S
H413 C396 0.931 . S
H414 C397 0.930 . S
H415 C398 0.930 . S
H416 C405 0.930 . S
H417 C407 0.931 . S
H418 C408 0.930 . S
H419 C409 0.930 . S
Tb420 N451 2.660 . S
Tb420 N458 2.600 . S
Tb420 O464 2.546 . S
Tb420 O465 2.610 . S
Tb420 O467 2.320 . S
Tb420 O468 2.552 . S
Tb420 O469 2.413 . S
Tb420 O471 2.362 . S
Tb420 O472 2.421 . S
Tb420 C484 2.833 . S
C421 C424 1.432 . S
C421 C425 1.414 . S
C421 N428 1.359 . S
C422 C424 1.417 . S
C422 C426 1.432 . S
C422 C434 1.410 . S
C423 C425 1.444 . S
C423 C426 1.317 . S
C423 H446 0.929 . S
C424 C421 1.432 . S
C424 C422 1.417 . S
C424 N432 1.360 . S
C425 C421 1.414 . S
C425 C423 1.444 . S
C425 C430 1.385 . S
C426 C422 1.432 . S
C426 C423 1.317 . S
C426 H438 0.930 . S
C427 C429 1.392 . S
C427 C430 1.370 . S
C427 H439 0.931 . S
N428 C421 1.359 . S
N428 C429 1.327 . S
N428 Tb431 2.600 . S
C429 C427 1.392 . S
C429 N428 1.327 . S
C429 H436 0.930 . S
C430 C425 1.385 . S
C430 C427 1.370 . S
C430 H449 0.930 . S
Tb431 N428 2.600 . S
Tb431 N432 2.660 . S
Tb431 O465 2.362 . S
Tb431 O466 2.421 . S
Tb431 O470 2.546 . S
Tb431 O471 2.610 . S
Tb431 O473 2.320 . S
Tb431 O474 2.552 . S
Tb431 O475 2.413 . S
Tb431 C495 2.833 . S
N432 C424 1.360 . S
N432 Tb431 2.660 . S
N432 C433 1.305 . S
C433 N432 1.305 . S
C433 C435 1.407 . S
C433 H440 0.930 . S
C434 C422 1.410 . S
C434 C435 1.345 . S
C434 H442 0.930 . S
C435 C433 1.407 . S
C435 C434 1.345 . S
C435 H437 0.930 . S
H436 C429 0.930 . S
H437 C435 0.930 . S
H438 C426 0.930 . S
H439 C427 0.931 . S
H440 C433 0.930 . S
H441 C455 0.930 . S
H442 C434 0.930 . S
H443 C461 0.930 . S
H444 C452 0.930 . S
H445 C459 0.931 . S
H446 C423 0.929 . S
H447 C453 0.930 1_554 S
H448 C486 0.930 1_554 S
H449 C430 0.930 . S
H450 C485 0.929 . S
N451 Tb420 2.660 . S
N451 C452 1.305 . S
N451 C456 1.360 . S
C452 H444 0.930 . S
C452 N451 1.305 . S
C452 C455 1.407 . S
C453 H447 0.930 1_556 S
C453 C454 1.410 . S
C453 C455 1.345 . S
C454 C453 1.410 . S
C454 C456 1.417 . S
C454 C486 1.432 . S
C455 H441 0.930 . S
C455 C452 1.407 . S
C455 C453 1.345 . S
C456 N451 1.360 . S
C456 C454 1.417 . S
C456 C460 1.432 . S
H457 C462 0.930 . S
N458 Tb420 2.600 . S
N458 C460 1.359 . S
N458 C461 1.327 . S
C459 H445 0.931 . S
C459 C461 1.392 . S
C459 C462 1.370 . S
C460 C456 1.432 . S
C460 N458 1.359 . S
C460 C463 1.414 . S
C461 H443 0.930 . S
C461 N458 1.327 . S
C461 C459 1.392 . S
C462 H457 0.930 . S
C462 C459 1.370 . S
C462 C463 1.385 . S
C463 C460 1.414 . S
C463 C462 1.385 . S
C463 C485 1.444 . S
O464 Tb420 2.546 . S
O464 C484 1.251 . S
O465 Tb420 2.610 . S
O465 Tb431 2.362 . S
O465 C476 1.283 . S
O466 Tb431 2.421 . S
O466 C483 1.262 . S
O467 Tb420 2.320 . S
O467 C483 1.260 . S
O468 Tb420 2.552 . S
O468 C476 1.243 . S
O469 Tb420 2.413 . S
O469 C484 1.256 . S
O470 Tb431 2.546 . S
O470 C495 1.251 . S
O471 Tb420 2.362 . S
O471 Tb431 2.610 . S
O471 C487 1.283 . S
O472 Tb420 2.421 . S
O472 C494 1.262 . S
O473 Tb431 2.320 . S
O473 C494 1.260 . S
O474 Tb431 2.552 . S
O474 C487 1.243 . S
O475 Tb431 2.413 . S
O475 C495 1.256 . S
C476 O465 1.283 . S
C476 O468 1.243 . S
C477 C479 1.382 . S
C477 C481 1.393 . S
C477 C484 1.500 . S
C478 C479 1.400 . S
C478 C480 1.384 . S
C479 C477 1.382 . S
C479 C478 1.400 . S
C479 H496 0.930 . S
C480 C478 1.384 . S
C480 C482 1.392 . S
C480 H497 0.931 . S
C481 C477 1.393 . S
C481 C482 1.401 . S
C481 H498 0.930 . S
C482 C480 1.392 . S
C482 C481 1.401 . S
C482 H499 0.930 . S
C483 O466 1.262 . S
C483 O467 1.260 . S
C484 Tb420 2.833 . S
C484 O464 1.251 . S
C484 O469 1.256 . S
C484 C477 1.500 . S
C485 H450 0.929 . S
C485 C463 1.444 . S
C485 C486 1.317 . S
C486 H448 0.930 1_556 S
C486 C454 1.432 . S
C486 C485 1.317 . S
C487 O471 1.283 . S
C487 O474 1.243 . S
C488 C489 1.382 . S
C488 C492 1.393 . S
C488 C495 1.500 . S
C489 C488 1.382 . S
C489 C490 1.400 . S
C489 H500 0.930 . S
C490 C489 1.400 . S
C490 C491 1.384 . S
C491 C490 1.384 . S
C491 C493 1.392 . S
C491 H501 0.931 . S
C492 C488 1.393 . S
C492 C493 1.401 . S
C492 H502 0.930 . S
C493 C491 1.392 . S
C493 C492 1.401 . S
C493 H503 0.930 . S
C494 O472 1.262 . S
C494 O473 1.260 . S
C495 Tb431 2.833 . S
C495 O470 1.251 . S
C495 O475 1.256 . S
C495 C488 1.500 . S
H496 C479 0.930 . S
H497 C480 0.931 . S
H498 C481 0.930 . S
H499 C482 0.930 . S
H500 C489 0.930 . S
H501 C491 0.931 . S
H502 C492 0.930 . S
H503 C493 0.930 . S
Tb504 N535 2.660 . S
Tb504 N542 2.600 . S
Tb504 O548 2.546 . S
Tb504 O549 2.610 . S
Tb504 O551 2.320 . S
Tb504 O552 2.552 . S
Tb504 O553 2.413 . S
Tb504 O555 2.362 . S
Tb504 O556 2.421 . S
Tb504 C568 2.833 . S
C505 C508 1.432 . S
C505 C509 1.414 . S
C505 N512 1.359 . S
C506 C508 1.417 . S
C506 C510 1.432 . S
C506 C518 1.410 . S
C507 C509 1.444 . S
C507 C510 1.317 . S
C507 H530 0.929 . S
C508 C505 1.432 . S
C508 C506 1.417 . S
C508 N516 1.360 . S
C509 C505 1.414 . S
C509 C507 1.444 . S
C509 C514 1.385 . S
C510 C506 1.432 . S
C510 C507 1.317 . S
C510 H522 0.930 . S
C511 C513 1.392 . S
C511 C514 1.370 . S
C511 H523 0.931 . S
N512 C505 1.359 . S
N512 C513 1.327 . S
N512 Tb515 2.600 . S
C513 C511 1.392 . S
C513 N512 1.327 . S
C513 H520 0.930 . S
C514 C509 1.385 . S
C514 C511 1.370 . S
C514 H533 0.930 . S
Tb515 N512 2.600 . S
Tb515 N516 2.660 . S
Tb515 O549 2.362 . S
Tb515 O550 2.421 . S
Tb515 O554 2.546 . S
Tb515 O555 2.610 . S
Tb515 O557 2.320 . S
Tb515 O558 2.552 . S
Tb515 O559 2.413 . S
Tb515 C579 2.833 . S
N516 C508 1.360 . S
N516 Tb515 2.660 . S
N516 C517 1.305 . S
C517 N516 1.305 . S
C517 C519 1.407 . S
C517 H524 0.930 . S
C518 C506 1.410 . S
C518 C519 1.345 . S
C518 H526 0.930 . S
C519 C517 1.407 . S
C519 C518 1.345 . S
C519 H521 0.930 . S
H520 C513 0.930 . S
H521 C519 0.930 . S
H522 C510 0.930 . S
H523 C511 0.931 . S
H524 C517 0.930 . S
H525 C539 0.930 . S
H526 C518 0.930 . S
H527 C545 0.930 . S
H528 C536 0.930 . S
H529 C543 0.931 . S
H530 C507 0.929 . S
H531 C537 0.930 . S
H532 C570 0.930 . S
H533 C514 0.930 . S
H534 C569 0.916 1_554 S
N535 Tb504 2.660 . S
N535 C536 1.305 . S
N535 C540 1.360 . S
C536 H528 0.930 . S
C536 N535 1.305 . S
C536 C539 1.407 . S
C537 H531 0.930 . S
C537 C538 1.410 . S
C537 C539 1.345 . S
C538 C537 1.410 . S
C538 C540 1.417 . S
C538 C570 1.432 . S
C539 H525 0.930 . S
C539 C536 1.407 . S
C539 C537 1.345 . S
C540 N535 1.360 . S
C540 C538 1.417 . S
C540 C544 1.432 . S
H541 C546 0.924 1_554 S
N542 Tb504 2.600 . S
N542 C544 1.359 . S
N542 C545 1.327 . S
C543 H529 0.931 . S
C543 C545 1.392 . S
C543 C546 1.370 . S
C544 C540 1.432 . S
C544 N542 1.359 . S
C544 C547 1.414 . S
C545 H527 0.930 . S
C545 N542 1.327 . S
C545 C543 1.392 . S
C546 H541 0.924 1_556 S
C546 C543 1.370 . S
C546 C547 1.385 . S
C547 C544 1.414 . S
C547 C546 1.385 . S
C547 C569 1.444 . S
O548 Tb504 2.546 . S
O548 C568 1.251 . S
O549 Tb504 2.610 . S
O549 Tb515 2.362 . S
O549 C560 1.283 . S
O550 Tb515 2.421 . S
O550 C567 1.262 . S
O551 Tb504 2.320 . S
O551 C567 1.260 . S
O552 Tb504 2.552 . S
O552 C560 1.243 . S
O553 Tb504 2.413 . S
O553 C568 1.256 . S
O554 Tb515 2.546 . S
O554 C579 1.251 . S
O555 Tb504 2.362 . S
O555 Tb515 2.610 . S
O555 C571 1.283 . S
O556 Tb504 2.421 . S
O556 C578 1.262 . S
O557 Tb515 2.320 . S
O557 C578 1.260 . S
O558 Tb515 2.552 . S
O558 C571 1.243 . S
O559 Tb515 2.413 . S
O559 C579 1.256 . S
C560 O549 1.283 . S
C560 O552 1.243 . S
C561 C563 1.382 . S
C561 C565 1.393 . S
C561 C568 1.500 . S
C562 C563 1.400 . S
C562 C564 1.384 . S
C563 C561 1.382 . S
C563 C562 1.400 . S
C563 H580 0.930 . S
C564 C562 1.384 . S
C564 C566 1.392 . S
C564 H581 0.931 . S
C565 C561 1.393 . S
C565 C566 1.401 . S
C565 H582 0.930 . S
C566 C564 1.392 . S
C566 C565 1.401 . S
C566 H583 0.930 . S
C567 O550 1.262 . S
C567 O551 1.260 . S
C568 Tb504 2.833 . S
C568 O548 1.251 . S
C568 O553 1.256 . S
C568 C561 1.500 . S
C569 H534 0.916 1_556 S
C569 C547 1.444 . S
C569 C570 1.317 . S
C570 H532 0.930 . S
C570 C538 1.432 . S
C570 C569 1.317 . S
C571 O555 1.283 . S
C571 O558 1.243 . S
C572 C573 1.382 . S
C572 C576 1.393 . S
C572 C579 1.500 . S
C573 C572 1.382 . S
C573 C574 1.400 . S
C573 H584 0.930 . S
C574 C573 1.400 . S
C574 C575 1.384 . S
C575 C574 1.384 . S
C575 C577 1.392 . S
C575 H585 0.931 . S
C576 C572 1.393 . S
C576 C577 1.401 . S
C576 H586 0.930 . S
C577 C575 1.392 . S
C577 C576 1.401 . S
C577 H587 0.930 . S
C578 O556 1.262 . S
C578 O557 1.260 . S
C579 Tb515 2.833 . S
C579 O554 1.251 . S
C579 O559 1.256 . S
C579 C572 1.500 . S
H580 C563 0.930 . S
H581 C564 0.931 . S
H582 C565 0.930 . S
H583 C566 0.930 . S
H584 C573 0.930 . S
H585 C575 0.931 . S
H586 C576 0.930 . S
H587 C577 0.930 . S
Tb588 N619 2.660 . S
Tb588 N626 2.600 . S
Tb588 O632 2.546 . S
Tb588 O633 2.610 . S
Tb588 O635 2.320 . S
Tb588 O636 2.552 . S
Tb588 O637 2.413 . S
Tb588 O639 2.362 . S
Tb588 O640 2.421 . S
Tb588 C652 2.833 . S
C589 C592 1.432 . S
C589 C593 1.414 . S
C589 N596 1.359 . S
C590 C592 1.417 . S
C590 C594 1.432 . S
C590 C602 1.410 . S
C591 C593 1.444 . S
C591 C594 1.317 . S
C591 H614 0.929 . S
C592 C589 1.432 . S
C592 C590 1.417 . S
C592 N600 1.360 . S
C593 C589 1.414 . S
C593 C591 1.444 . S
C593 C598 1.385 . S
C594 C590 1.432 . S
C594 C591 1.317 . S
C594 H606 0.930 1_556 S
C595 C597 1.392 . S
C595 C598 1.370 . S
C595 H607 0.931 . S
N596 C589 1.359 . S
N596 C597 1.327 . S
N596 Tb599 2.600 . S
C597 C595 1.392 . S
C597 N596 1.327 . S
C597 H604 0.930 . S
C598 C593 1.385 . S
C598 C595 1.370 . S
C598 H617 0.930 . S
Tb599 N596 2.600 . S
Tb599 N600 2.660 . S
Tb599 O633 2.362 . S
Tb599 O634 2.421 . S
Tb599 O638 2.546 . S
Tb599 O639 2.610 . S
Tb599 O641 2.320 . S
Tb599 O642 2.552 . S
Tb599 O643 2.413 . S
Tb599 C663 2.833 . S
N600 C592 1.360 . S
N600 Tb599 2.660 . S
N600 C601 1.305 . S
C601 N600 1.305 . S
C601 C603 1.407 . S
C601 H608 0.930 . S
C602 C590 1.410 . S
C602 C603 1.345 . S
C602 H610 0.930 1_556 S
C603 C601 1.407 . S
C603 C602 1.345 . S
C603 H605 0.930 . S
H604 C597 0.930 . S
H605 C603 0.930 . S
H606 C594 0.930 1_554 S
H607 C595 0.931 . S
H608 C601 0.930 . S
H609 C623 0.930 . S
H610 C602 0.930 1_554 S
H611 C629 0.930 . S
H612 C620 0.930 . S
H613 C627 0.931 . S
H614 C591 0.929 . S
H615 C621 0.930 . S
H616 C654 0.930 . S
H617 C598 0.930 . S
H618 C653 0.929 . S
N619 Tb588 2.660 . S
N619 C620 1.305 . S
N619 C624 1.360 . S
C620 H612 0.930 . S
C620 N619 1.305 . S
C620 C623 1.407 . S
C621 H615 0.930 . S
C621 C622 1.410 . S
C621 C623 1.345 . S
C622 C621 1.410 . S
C622 C624 1.417 . S
C622 C654 1.432 . S
C623 H609 0.930 . S
C623 C620 1.407 . S
C623 C621 1.345 . S
C624 N619 1.360 . S
C624 C622 1.417 . S
C624 C628 1.432 . S
H625 C630 0.930 . S
N626 Tb588 2.600 . S
N626 C628 1.359 . S
N626 C629 1.327 . S
C627 H613 0.931 . S
C627 C629 1.392 . S
C627 C630 1.370 . S
C628 C624 1.432 . S
C628 N626 1.359 . S
C628 C631 1.414 . S
C629 H611 0.930 . S
C629 N626 1.327 . S
C629 C627 1.392 . S
C630 H625 0.930 . S
C630 C627 1.370 . S
C630 C631 1.385 . S
C631 C628 1.414 . S
C631 C630 1.385 . S
C631 C653 1.444 . S
O632 Tb588 2.546 . S
O632 C652 1.251 . S
O633 Tb588 2.610 . S
O633 Tb599 2.362 . S
O633 C644 1.283 . S
O634 Tb599 2.421 . S
O634 C651 1.262 . S
O635 Tb588 2.320 . S
O635 C651 1.260 . S
O636 Tb588 2.552 . S
O636 C644 1.243 . S
O637 Tb588 2.413 . S
O637 C652 1.256 . S
O638 Tb599 2.546 . S
O638 C663 1.251 . S
O639 Tb588 2.362 . S
O639 Tb599 2.610 . S
O639 C655 1.283 . S
O640 Tb588 2.421 . S
O640 C662 1.262 . S
O641 Tb599 2.320 . S
O641 C662 1.260 . S
O642 Tb599 2.552 . S
O642 C655 1.243 . S
O643 Tb599 2.413 . S
O643 C663 1.256 . S
C644 O633 1.283 . S
C644 O636 1.243 . S
C645 C647 1.382 . S
C645 C649 1.393 . S
C645 C652 1.500 . S
C646 C647 1.400 . S
C646 C648 1.384 . S
C647 C645 1.382 . S
C647 C646 1.400 . S
C647 H664 0.930 . S
C648 C646 1.384 . S
C648 C650 1.392 . S
C648 H665 0.931 . S
C649 C645 1.393 . S
C649 C650 1.401 . S
C649 H666 0.930 . S
C650 C648 1.392 . S
C650 C649 1.401 . S
C650 H667 0.930 . S
C651 O634 1.262 . S
C651 O635 1.260 . S
C652 Tb588 2.833 . S
C652 O632 1.251 . S
C652 O637 1.256 . S
C652 C645 1.500 . S
C653 H618 0.929 . S
C653 C631 1.444 . S
C653 C654 1.317 . S
C654 H616 0.930 . S
C654 C622 1.432 . S
C654 C653 1.317 . S
C655 O639 1.283 . S
C655 O642 1.243 . S
C656 C657 1.382 . S
C656 C660 1.393 . S
C656 C663 1.500 . S
C657 C656 1.382 . S
C657 C658 1.400 . S
C657 H668 0.930 . S
C658 C657 1.400 . S
C658 C659 1.384 . S
C659 C658 1.384 . S
C659 C661 1.392 . S
C659 H669 0.931 . S
C660 C656 1.393 . S
C660 C661 1.401 . S
C660 H670 0.930 . S
C661 C659 1.392 . S
C661 C660 1.401 . S
C661 H671 0.930 . S
C662 O640 1.262 . S
C662 O641 1.260 . S
C663 Tb599 2.833 . S
C663 O638 1.251 . S
C663 O643 1.256 . S
C663 C656 1.500 . S
H664 C647 0.930 . S
H665 C648 0.931 . S
H666 C649 0.930 . S
H667 C650 0.930 . S
H668 C657 0.930 . S
H669 C659 0.931 . S
H670 C660 0.930 . S
H671 C661 0.930 . S
Co672 O675 2.042 . S
Co672 O682 2.264 . S
Co672 O701 2.286 . S
Co672 O702 2.069 . S
Co672 O704 2.015 1_455 S
Co673 O675 2.122 . S
Co673 O681 2.073 . S
Co673 O682 2.327 . S
Co673 O683 1.976 1_455 S
Co674 O675 2.091 1_545 S
Co674 O677 2.083 1_455 S
Co674 O684 2.109 1_445 S
Co674 O685 2.145 . S
Co674 O689 2.114 . S
Co674 O703 2.142 1_445 S
O675 Co672 2.042 . S
O675 Co673 2.122 . S
O675 Co674 2.091 1_565 S
O675 H676 0.980 . S
H676 O675 0.980 . S
O677 Co674 2.083 1_655 S
O677 Co678 2.042 . S
O677 Co679 2.122 . S
O677 H680 0.980 . S
Co678 O677 2.042 . S
Co678 O686 2.286 . S
Co678 O687 2.069 . S
Co678 O688 2.015 1_655 S
Co678 O691 2.264 . S
Co679 O677 2.122 . S
Co679 O690 1.976 1_655 S
Co679 O691 2.327 . S
Co679 O692 2.073 . S
H680 O677 0.980 . S
O681 Co673 2.073 . S
O681 C696 1.245 . S
O682 Co672 2.264 . S
O682 Co673 2.327 . S
O682 C696 1.257 . S
O683 Co673 1.976 1_655 S
O683 C695 1.251 . S
O684 Co674 2.109 1_665 S
O684 C695 1.274 . S
O685 Co674 2.145 . S
O685 C698 1.246 . S
O686 Co678 2.286 . S
O686 C697 1.259 . S
O687 Co678 2.069 . S
O687 C697 1.289 . S
O688 Co678 2.015 1_455 S
O688 C698 1.257 . S
O689 Co674 2.114 . S
O689 C699 1.274 . S
O690 Co679 1.976 1_455 S
O690 C699 1.251 . S
O691 Co678 2.264 . S
O691 Co679 2.327 . S
O691 C700 1.257 . S
O692 Co679 2.073 . S
O692 C700 1.245 . S
C693 O701 1.259 . S
C693 O702 1.289 . S
C694 O703 1.246 . S
C694 O704 1.257 . S
C695 O683 1.251 . S
C695 O684 1.274 . S
C696 O681 1.245 . S
C696 O682 1.257 . S
C697 O686 1.259 . S
C697 O687 1.289 . S
C698 O685 1.246 . S
C698 O688 1.257 . S
C699 O689 1.274 . S
C699 O690 1.251 . S
C700 O691 1.257 . S
C700 O692 1.245 . S
O701 Co672 2.286 . S
O701 C693 1.259 . S
O702 Co672 2.069 . S
O702 C693 1.289 . S
O703 Co674 2.142 1_665 S
O703 C694 1.246 . S
O704 Co672 2.015 1_655 S
O704 C694 1.257 . S
Co705 O708 2.042 1_556 S
Co705 O715 2.264 1_556 S
Co705 O734 2.286 . S
Co705 O735 2.069 . S
Co705 O737 2.015 . S
Co706 O708 2.122 . S
Co706 O714 2.073 . S
Co706 O715 2.327 . S
Co706 O716 1.976 . S
Co707 O708 2.087 1_545 S
Co707 O710 2.087 1_554 S
Co707 O717 2.111 1_545 S
Co707 O718 2.143 . S
Co707 O722 2.111 1_554 S
Co707 O736 2.143 1_544 S
O708 Co705 2.042 1_554 S
O708 Co706 2.122 . S
O708 Co707 2.087 1_565 S
O708 H709 0.980 . S
H709 O708 0.980 . S
O710 Co707 2.087 1_556 S
O710 Co711 2.042 1_556 S
O710 Co712 2.122 . S
O710 H713 0.980 . S
Co711 O710 2.042 1_554 S
Co711 O719 2.286 . S
Co711 O720 2.069 . S
Co711 O721 2.015 . S
Co711 O724 2.264 1_554 S
Co712 O710 2.122 . S
Co712 O723 1.976 . S
Co712 O724 2.327 . S
Co712 O725 2.073 . S
H713 O710 0.980 . S
O714 Co706 2.073 . S
O714 C729 1.245 . S
O715 Co705 2.264 1_554 S
O715 Co706 2.327 . S
O715 C729 1.257 . S
O716 Co706 1.976 . S
O716 C728 1.251 . S
O717 Co707 2.111 1_565 S
O717 C728 1.274 . S
O718 Co707 2.143 . S
O718 C731 1.246 . S
O719 Co711 2.286 . S
O719 C730 1.259 . S
O720 Co711 2.069 . S
O720 C730 1.289 . S
O721 Co711 2.015 . S
O721 C731 1.257 . S
O722 Co707 2.111 1_556 S
O722 C732 1.274 . S
O723 Co712 1.976 . S
O723 C732 1.251 . S
O724 Co711 2.264 1_556 S
O724 Co712 2.327 . S
O724 C733 1.257 . S
O725 Co712 2.073 . S
O725 C733 1.245 . S
C726 O734 1.259 . S
C726 O735 1.289 . S
C727 O736 1.246 . S
C727 O737 1.257 . S
C728 O716 1.251 . S
C728 O717 1.274 . S
C729 O714 1.245 . S
C729 O715 1.257 . S
C730 O719 1.259 . S
C730 O720 1.289 . S
C731 O718 1.246 . S
C731 O721 1.257 . S
C732 O722 1.274 . S
C732 O723 1.251 . S
C733 O724 1.257 . S
C733 O725 1.245 . S
O734 Co705 2.286 . S
O734 C726 1.259 . S
O735 Co705 2.069 . S
O735 C726 1.289 . S
O736 Co707 2.143 1_566 S
O736 C727 1.246 . S
O737 Co705 2.015 . S
O737 C727 1.257 . S
Co738 O741 2.042 1_556 S
Co738 O748 2.264 1_556 S
Co738 O767 2.286 . S
Co738 O768 2.069 . S
Co738 O770 2.015 1_455 S
Co739 O741 2.122 . S
Co739 O747 2.073 . S
Co739 O748 2.327 . S
Co739 O749 1.976 1_455 S
Co740 O741 2.092 . S
Co740 O743 2.082 1_454 S
Co740 O750 2.108 1_455 S
Co740 O751 2.145 . S
Co740 O755 2.114 1_554 S
Co740 O769 2.142 1_454 S
O741 Co738 2.042 1_554 S
O741 Co739 2.122 . S
O741 Co740 2.092 . S
O741 H742 0.980 . S
H742 O741 0.980 . S
O743 Co740 2.082 1_656 S
O743 Co744 2.042 1_556 S
O743 Co745 2.122 . S
O743 H746 0.980 . S
Co744 O743 2.042 1_554 S
Co744 O752 2.286 . S
Co744 O753 2.069 . S
Co744 O754 2.015 1_655 S
Co744 O757 2.264 1_554 S
Co745 O743 2.122 . S
Co745 O756 1.976 1_655 S
Co745 O757 2.327 . S
Co745 O758 2.073 . S
H746 O743 0.980 . S
O747 Co739 2.073 . S
O747 C762 1.245 . S
O748 Co738 2.264 1_554 S
O748 Co739 2.327 . S
O748 C762 1.257 . S
O749 Co739 1.976 1_655 S
O749 C761 1.251 . S
O750 Co740 2.108 1_655 S
O750 C761 1.274 . S
O751 Co740 2.145 . S
O751 C764 1.246 . S
O752 Co744 2.286 . S
O752 C763 1.259 . S
O753 Co744 2.069 . S
O753 C763 1.289 . S
O754 Co744 2.015 1_455 S
O754 C764 1.257 . S
O755 Co740 2.114 1_556 S
O755 C765 1.274 . S
O756 Co745 1.976 1_455 S
O756 C765 1.251 . S
O757 Co744 2.264 1_556 S
O757 Co745 2.327 . S
O757 C766 1.257 . S
O758 Co745 2.073 . S
O758 C766 1.245 . S
C759 O767 1.259 . S
C759 O768 1.289 . S
C760 O769 1.246 . S
C760 O770 1.257 . S
C761 O749 1.251 . S
C761 O750 1.274 . S
C762 O747 1.245 . S
C762 O748 1.257 . S
C763 O752 1.259 . S
C763 O753 1.289 . S
C764 O751 1.246 . S
C764 O754 1.257 . S
C765 O755 1.274 . S
C765 O756 1.251 . S
C766 O757 1.257 . S
C766 O758 1.245 . S
O767 Co738 2.286 . S
O767 C759 1.259 . S
O768 Co738 2.069 . S
O768 C759 1.289 . S
O769 Co740 2.142 1_656 S
O769 C760 1.246 . S
O770 Co738 2.015 1_655 S
O770 C760 1.257 . S
Co771 O774 2.042 1_556 S
Co771 O781 2.264 1_556 S
Co771 O800 2.286 . S
Co771 O801 2.069 . S
Co771 O803 2.015 . S
Co772 O774 2.122 . S
Co772 O780 2.073 . S
Co772 O781 2.327 . S
Co772 O782 1.976 . S
Co773 O774 2.087 . S
Co773 O776 2.087 1_554 S
Co773 O783 2.111 . S
Co773 O784 2.143 . S
Co773 O788 2.111 1_554 S
Co773 O802 2.143 1_554 S
O774 Co771 2.042 1_554 S
O774 Co772 2.122 . S
O774 Co773 2.087 . S
O774 H775 0.980 . S
H775 O774 0.980 . S
O776 Co773 2.087 1_556 S
O776 Co777 2.042 1_556 S
O776 Co778 2.122 . S
O776 H779 0.980 . S
Co777 O776 2.042 1_554 S
Co777 O785 2.286 . S
Co777 O786 2.069 . S
Co777 O787 2.015 . S
Co777 O790 2.264 1_554 S
Co778 O776 2.122 . S
Co778 O789 1.976 . S
Co778 O790 2.327 . S
Co778 O791 2.073 . S
H779 O776 0.980 . S
O780 Co772 2.073 . S
O780 C795 1.245 . S
O781 Co771 2.264 1_554 S
O781 Co772 2.327 . S
O781 C795 1.257 . S
O782 Co772 1.976 . S
O782 C794 1.251 . S
O783 Co773 2.111 . S
O783 C794 1.274 . S
O784 Co773 2.143 . S
O784 C797 1.246 . S
O785 Co777 2.286 . S
O785 C796 1.259 . S
O786 Co777 2.069 . S
O786 C796 1.289 . S
O787 Co777 2.015 . S
O787 C797 1.257 . S
O788 Co773 2.111 1_556 S
O788 C798 1.274 . S
O789 Co778 1.976 . S
O789 C798 1.251 . S
O790 Co777 2.264 1_556 S
O790 Co778 2.327 . S
O790 C799 1.257 . S
O791 Co778 2.073 . S
O791 C799 1.245 . S
C792 O800 1.259 . S
C792 O801 1.289 . S
C793 O802 1.246 . S
C793 O803 1.257 . S
C794 O782 1.251 . S
C794 O783 1.274 . S
C795 O780 1.245 . S
C795 O781 1.257 . S
C796 O785 1.259 . S
C796 O786 1.289 . S
C797 O784 1.246 . S
C797 O787 1.257 . S
C798 O788 1.274 . S
C798 O789 1.251 . S
C799 O790 1.257 . S
C799 O791 1.245 . S
O800 Co771 2.286 . S
O800 C792 1.259 . S
O801 Co771 2.069 . S
O801 C792 1.289 . S
O802 Co773 2.143 1_556 S
O802 C793 1.246 . S
O803 Co771 2.015 . S
O803 C793 1.257 . S
Co804 O807 2.042 . S
Co804 O814 2.264 . S
Co804 O833 2.286 . S
Co804 O834 2.069 . S
Co804 O836 2.015 . S
Co805 O807 2.122 . S
Co805 O813 2.073 . S
Co805 O814 2.327 . S
Co805 O815 1.976 . S
Co806 O807 2.092 . S
Co806 O809 2.082 1_455 S
Co806 O816 2.112 . S
Co806 O817 2.141 1_455 S
Co806 O821 2.110 1_455 S
Co806 O835 2.146 . S
O807 Co804 2.042 . S
O807 Co805 2.122 . S
O807 Co806 2.092 . S
O807 H808 0.980 . S
H808 O807 0.980 . S
O809 Co806 2.082 1_655 S
O809 Co810 2.042 . S
O809 Co811 2.122 . S
O809 H812 0.980 . S
Co810 O809 2.042 . S
Co810 O818 2.286 . S
Co810 O819 2.069 . S
Co810 O820 2.015 . S
Co810 O823 2.264 . S
Co811 O809 2.122 . S
Co811 O822 1.976 . S
Co811 O823 2.327 . S
Co811 O824 2.073 . S
H812 O809 0.980 . S
O813 Co805 2.073 . S
O813 C828 1.245 . S
O814 Co804 2.264 . S
O814 Co805 2.327 . S
O814 C828 1.257 . S
O815 Co805 1.976 . S
O815 C827 1.251 . S
O816 Co806 2.112 . S
O816 C827 1.274 . S
O817 Co806 2.141 1_655 S
O817 C830 1.246 . S
O818 Co810 2.286 . S
O818 C829 1.259 . S
O819 Co810 2.069 . S
O819 C829 1.289 . S
O820 Co810 2.015 . S
O820 C830 1.257 . S
O821 Co806 2.110 1_655 S
O821 C831 1.274 . S
O822 Co811 1.976 . S
O822 C831 1.251 . S
O823 Co810 2.264 . S
O823 Co811 2.327 . S
O823 C832 1.257 . S
O824 Co811 2.073 . S
O824 C832 1.245 . S
C825 O833 1.259 . S
C825 O834 1.289 . S
C826 O835 1.246 . S
C826 O836 1.257 . S
C827 O815 1.251 . S
C827 O816 1.274 . S
C828 O813 1.245 . S
C828 O814 1.257 . S
C829 O818 1.259 . S
C829 O819 1.289 . S
C830 O817 1.246 . S
C830 O820 1.257 . S
C831 O821 1.274 . S
C831 O822 1.251 . S
C832 O823 1.257 . S
C832 O824 1.245 . S
O833 Co804 2.286 . S
O833 C825 1.259 . S
O834 Co804 2.069 . S
O834 C825 1.289 . S
O835 Co806 2.146 . S
O835 C826 1.246 . S
O836 Co804 2.015 . S
O836 C826 1.257 . S
Co837 O840 2.042 . S
Co837 O847 2.264 . S
Co837 O866 2.286 . S
Co837 O867 2.069 . S
Co837 O869 2.015 1_565 S
Co838 O840 2.122 . S
Co838 O846 2.073 . S
Co838 O847 2.327 . S
Co838 O848 1.976 1_565 S
Co839 O840 2.087 1_545 S
Co839 O842 2.087 . S
Co839 O849 2.111 . S
Co839 O850 2.143 1_545 S
Co839 O854 2.111 1_545 S
Co839 O868 2.143 . S
O840 Co837 2.042 . S
O840 Co838 2.122 . S
O840 Co839 2.087 1_565 S
O840 H841 0.980 . S
H841 O840 0.980 . S
O842 Co839 2.087 . S
O842 Co843 2.042 . S
O842 Co844 2.122 . S
O842 H845 0.980 . S
Co843 O842 2.042 . S
Co843 O851 2.286 . S
Co843 O852 2.069 . S
Co843 O853 2.015 1_545 S
Co843 O856 2.264 . S
Co844 O842 2.122 . S
Co844 O855 1.976 1_545 S
Co844 O856 2.327 . S
Co844 O857 2.073 . S
H845 O842 0.980 . S
O846 Co838 2.073 . S
O846 C861 1.245 . S
O847 Co837 2.264 . S
O847 Co838 2.327 . S
O847 C861 1.257 . S
O848 Co838 1.976 1_545 S
O848 C860 1.251 . S
O849 Co839 2.111 . S
O849 C860 1.274 . S
O850 Co839 2.143 1_565 S
O850 C863 1.246 . S
O851 Co843 2.286 . S
O851 C862 1.259 . S
O852 Co843 2.069 . S
O852 C862 1.289 . S
O853 Co843 2.015 1_565 S
O853 C863 1.257 . S
O854 Co839 2.111 1_565 S
O854 C864 1.274 . S
O855 Co844 1.976 1_565 S
O855 C864 1.251 . S
O856 Co843 2.264 . S
O856 Co844 2.327 . S
O856 C865 1.257 . S
O857 Co844 2.073 . S
O857 C865 1.245 . S
C858 O866 1.259 . S
C858 O867 1.289 . S
C859 O868 1.246 . S
C859 O869 1.257 . S
C860 O848 1.251 . S
C860 O849 1.274 . S
C861 O846 1.245 . S
C861 O847 1.257 . S
C862 O851 1.259 . S
C862 O852 1.289 . S
C863 O850 1.246 . S
C863 O853 1.257 . S
C864 O854 1.274 . S
C864 O855 1.251 . S
C865 O856 1.257 . S
C865 O857 1.245 . S
O866 Co837 2.286 . S
O866 C858 1.259 . S
O867 Co837 2.069 . S
O867 C858 1.289 . S
O868 Co839 2.143 . S
O868 C859 1.246 . S
O869 Co837 2.015 1_545 S
O869 C859 1.257 . S
C870 C871 1.369 . S
C870 C872 1.419 . S
C870 H874 0.930 . S
C871 C870 1.369 . S
C871 C880 1.429 . S
C872 C870 1.419 . S
C872 C873 1.363 . S
C872 H875 0.929 . S
C873 C872 1.363 . S
C873 C879 1.428 . S
H874 C870 0.930 . S
H875 C872 0.929 . S
S876 N877 1.613 . S
S876 N878 1.610 . S
N877 S876 1.613 . S
N877 C880 1.350 . S
N878 S876 1.610 . S
N878 C879 1.351 . S
C879 C873 1.428 . S
C879 N878 1.351 . S
C879 C880 1.434 . S
C880 C871 1.429 . S
C880 N877 1.350 . S
C880 C879 1.434 . S
C881 C882 1.369 . S
C881 C883 1.419 . S
C881 H885 0.930 . S
C882 C881 1.369 . S
C882 C891 1.429 . S
C883 C881 1.419 . S
C883 C884 1.363 . S
C883 H886 0.929 . S
C884 C883 1.363 . S
C884 C890 1.428 . S
H885 C881 0.930 . S
H886 C883 0.929 . S
S887 N888 1.613 . S
S887 N889 1.610 . S
N888 S887 1.613 . S
N888 C891 1.350 . S
N889 S887 1.610 . S
N889 C890 1.351 . S
C890 C884 1.428 . S
C890 N889 1.351 . S
C890 C891 1.434 . S
C891 C882 1.429 . S
C891 N888 1.350 . S
C891 C890 1.434 . S
C892 C893 1.369 . S
C892 C894 1.419 . S
C892 H896 0.930 . S
C893 C892 1.369 . S
C893 C902 1.429 . S
C894 C892 1.419 . S
C894 C895 1.363 . S
C894 H897 0.929 . S
C895 C894 1.363 . S
C895 C901 1.428 . S
H896 C892 0.930 . S
H897 C894 0.929 . S
S898 N899 1.613 . S
S898 N900 1.610 . S
N899 S898 1.613 . S
N899 C902 1.350 . S
N900 S898 1.610 . S
N900 C901 1.351 . S
C901 C895 1.428 . S
C901 N900 1.351 . S
C901 C902 1.434 . S
C902 C893 1.429 . S
C902 N899 1.350 . S
C902 C901 1.434 . S
C903 C904 1.369 . S
C903 C905 1.419 . S
C903 H907 0.930 . S
C904 C903 1.369 . S
C904 C913 1.429 . S
C905 C903 1.419 . S
C905 C906 1.363 . S
C905 H908 0.929 . S
C906 C905 1.363 . S
C906 C912 1.428 . S
H907 C903 0.930 . S
H908 C905 0.929 . S
S909 N910 1.613 . S
S909 N911 1.610 . S
N910 S909 1.613 . S
N910 C913 1.350 . S
N911 S909 1.610 . S
N911 C912 1.351 . S
C912 C906 1.428 . S
C912 N911 1.351 . S
C912 C913 1.434 . S
C913 C904 1.429 . S
C913 N910 1.350 . S
C913 C912 1.434 . S
C914 C915 1.369 . S
C914 C916 1.419 . S
C914 H918 0.930 . S
C915 C914 1.369 . S
C915 C924 1.429 . S
C916 C914 1.419 . S
C916 C917 1.363 . S
C916 H919 0.929 . S
C917 C916 1.363 . S
C917 C923 1.428 . S
H918 C914 0.930 . S
H919 C916 0.929 . S
S920 N921 1.613 . S
S920 N922 1.610 . S
N921 S920 1.613 . S
N921 C924 1.350 . S
N922 S920 1.610 . S
N922 C923 1.351 . S
C923 C917 1.428 . S
C923 N922 1.351 . S
C923 C924 1.434 . S
C924 C915 1.429 . S
C924 N921 1.350 . S
C924 C923 1.434 . S
C925 C926 1.369 . S
C925 C927 1.419 . S
C925 H929 0.930 . S
C926 C925 1.369 . S
C926 C935 1.429 . S
C927 C925 1.419 . S
C927 C928 1.363 . S
C927 H930 0.929 . S
C928 C927 1.363 . S
C928 C934 1.428 . S
H929 C925 0.930 . S
H930 C927 0.929 . S
S931 N932 1.613 . S
S931 N933 1.610 . S
N932 S931 1.613 . S
N932 C935 1.350 . S
N933 S931 1.610 . S
N933 C934 1.351 . S
C934 C928 1.428 . S
C934 N933 1.351 . S
C934 C935 1.434 . S
C935 C926 1.429 . S
C935 N932 1.350 . S
C935 C934 1.434 . S
C936 C937 1.369 . S
C936 C938 1.419 . S
C936 H940 0.930 . S
C937 C936 1.369 . S
C937 C946 1.429 . S
C938 C936 1.419 . S
C938 C939 1.363 . S
C938 H941 0.929 . S
C939 C938 1.363 . S
C939 C945 1.428 . S
H940 C936 0.930 . S
H941 C938 0.929 . S
S942 N943 1.613 1_455 S
S942 N944 1.610 1_455 S
N943 S942 1.613 1_655 S
N943 C946 1.350 . S
N944 S942 1.610 1_655 S
N944 C945 1.351 . S
C945 C939 1.428 . S
C945 N944 1.351 . S
C945 C946 1.434 . S
C946 C937 1.429 . S
C946 N943 1.350 . S
C946 C945 1.434 . S
C947 C948 1.369 . S
C947 C949 1.419 . S
C947 H951 0.930 . S
C948 C947 1.369 . S
C948 C957 1.429 . S
C949 C947 1.419 . S
C949 C950 1.363 . S
C949 H952 0.929 . S
C950 C949 1.363 . S
C950 C956 1.428 . S
H951 C947 0.930 . S
H952 C949 0.929 . S
S953 N954 1.613 . S
S953 N955 1.610 . S
N954 S953 1.613 . S
N954 C957 1.350 . S
N955 S953 1.610 . S
N955 C956 1.351 . S
C956 C950 1.428 . S
C956 N955 1.351 . S
C956 C957 1.434 . S
C957 C948 1.429 . S
C957 N954 1.350 . S
C957 C956 1.434 . S
C958 C959 1.369 . S
C958 C960 1.419 . S
C958 H962 0.930 . S
C959 C958 1.369 . S
C959 C968 1.429 . S
C960 C958 1.419 . S
C960 C961 1.363 . S
C960 H963 0.929 . S
C961 C960 1.363 . S
C961 C967 1.428 . S
H962 C958 0.930 . S
H963 C960 0.929 . S
S964 N965 1.613 . S
S964 N966 1.610 . S
N965 S964 1.613 . S
N965 C968 1.350 . S
N966 S964 1.610 . S
N966 C967 1.351 . S
C967 C961 1.428 . S
C967 N966 1.351 . S
C967 C968 1.434 . S
C968 C959 1.429 . S
C968 N965 1.350 . S
C968 C967 1.434 . S
C969 C970 1.369 . S
C969 C971 1.419 . S
C969 H973 0.930 . S
C970 C969 1.369 . S
C970 C979 1.429 . S
C971 C969 1.419 . S
C971 C972 1.363 . S
C971 H974 0.929 . S
C972 C971 1.363 . S
C972 C978 1.428 . S
H973 C969 0.930 . S
H974 C971 0.929 . S
S975 N976 1.613 . S
S975 N977 1.610 . S
N976 S975 1.613 . S
N976 C979 1.350 . S
N977 S975 1.610 . S
N977 C978 1.351 . S
C978 C972 1.428 . S
C978 N977 1.351 . S
C978 C979 1.434 . S
C979 C970 1.429 . S
C979 N976 1.350 . S
C979 C978 1.434 . S
C980 C981 1.369 . S
C980 C982 1.419 . S
C980 H984 0.930 . S
C981 C980 1.369 . S
C981 C990 1.429 . S
C982 C980 1.419 . S
C982 C983 1.363 . S
C982 H985 0.929 . S
C983 C982 1.363 . S
C983 C989 1.428 . S
H984 C980 0.930 . S
H985 C982 0.929 . S
S986 N987 1.613 . S
S986 N988 1.610 . S
N987 S986 1.613 . S
N987 C990 1.350 . S
N988 S986 1.610 . S
N988 C989 1.351 . S
C989 C983 1.428 . S
C989 N988 1.351 . S
C989 C990 1.434 . S
C990 C981 1.429 . S
C990 N987 1.350 . S
C990 C989 1.434 . S
C991 C992 1.369 . S
C991 C993 1.419 . S
C991 H995 0.930 . S
C992 C991 1.369 . S
C992 C1001 1.429 . S
C993 C991 1.419 . S
C993 C994 1.363 . S
C993 H996 0.929 . S
C994 C993 1.363 . S
C994 C1000 1.428 . S
H995 C991 0.930 . S
H996 C993 0.929 . S
S997 N998 1.613 . S
S997 N999 1.610 . S
N998 S997 1.613 . S
N998 C1001 1.350 . S
N999 S997 1.610 . S
N999 C1000 1.351 . S
C1000 C994 1.428 . S
C1000 N999 1.351 . S
C1000 C1001 1.434 . S
C1001 C992 1.429 . S
C1001 N998 1.350 . S
C1001 C1000 1.434 . S
C1002 C1003 1.369 . S
C1002 C1004 1.419 . S
C1002 H1006 0.930 . S
C1003 C1002 1.369 . S
C1003 C1012 1.429 . S
C1004 C1002 1.419 . S
C1004 C1005 1.363 . S
C1004 H1007 0.929 . S
C1005 C1004 1.363 . S
C1005 C1011 1.428 . S
H1006 C1002 0.930 . S
H1007 C1004 0.929 . S
S1008 N1009 1.613 . S
S1008 N1010 1.610 . S
N1009 S1008 1.613 . S
N1009 C1012 1.350 . S
N1010 S1008 1.610 . S
N1010 C1011 1.351 . S
C1011 C1005 1.428 . S
C1011 N1010 1.351 . S
C1011 C1012 1.434 . S
C1012 C1003 1.429 . S
C1012 N1009 1.350 . S
C1012 C1011 1.434 . S
C1013 C1014 1.369 . S
C1013 C1015 1.419 . S
C1013 H1017 0.930 . S
C1014 C1013 1.369 . S
C1014 C1023 1.429 . S
C1015 C1013 1.419 . S
C1015 C1016 1.363 . S
C1015 H1018 0.929 . S
C1016 C1015 1.363 . S
C1016 C1022 1.428 . S
H1017 C1013 0.930 . S
H1018 C1015 0.929 . S
S1019 N1020 1.613 . S
S1019 N1021 1.610 . S
N1020 S1019 1.613 . S
N1020 C1023 1.350 . S
N1021 S1019 1.610 . S
N1021 C1022 1.351 . S
C1022 C1016 1.428 . S
C1022 N1021 1.351 . S
C1022 C1023 1.434 . S
C1023 C1014 1.429 . S
C1023 N1020 1.350 . S
C1023 C1022 1.434 . S
C1024 C1025 1.369 . S
C1024 C1026 1.419 . S
C1024 H1028 0.930 . S
C1025 C1024 1.369 . S
C1025 C1034 1.429 . S
C1026 C1024 1.419 . S
C1026 C1027 1.363 . S
C1026 H1029 0.929 . S
C1027 C1026 1.363 . S
C1027 C1033 1.428 . S
H1028 C1024 0.930 . S
H1029 C1026 0.929 . S
S1030 N1031 1.613 . S
S1030 N1032 1.610 . S
N1031 S1030 1.613 . S
N1031 C1034 1.350 . S
N1032 S1030 1.610 . S
N1032 C1033 1.351 . S
C1033 C1027 1.428 . S
C1033 N1032 1.351 . S
C1033 C1034 1.434 . S
C1034 C1025 1.429 . S
C1034 N1031 1.350 . S
C1034 C1033 1.434 . S
C1035 C1036 1.369 . S
C1035 C1037 1.419 . S
C1035 H1039 0.930 . S
C1036 C1035 1.369 . S
C1036 C1045 1.429 . S
C1037 C1035 1.419 . S
C1037 C1038 1.363 . S
C1037 H1040 0.929 . S
C1038 C1037 1.363 . S
C1038 C1044 1.428 . S
H1039 C1035 0.930 . S
H1040 C1037 0.929 . S
S1041 N1042 1.613 . S
S1041 N1043 1.610 . S
N1042 S1041 1.613 . S
N1042 C1045 1.350 . S
N1043 S1041 1.610 . S
N1043 C1044 1.351 . S
C1044 C1038 1.428 . S
C1044 N1043 1.351 . S
C1044 C1045 1.434 . S
C1045 C1036 1.429 . S
C1045 N1042 1.350 . S
C1045 C1044 1.434 . S
C1046 C1047 1.369 . S
C1046 C1048 1.419 . S
C1046 H1050 0.930 . S
C1047 C1046 1.369 . S
C1047 C1056 1.429 . S
C1048 C1046 1.419 . S
C1048 C1049 1.363 . S
C1048 H1051 0.929 . S
C1049 C1048 1.363 . S
C1049 C1055 1.428 . S
H1050 C1046 0.930 . S
H1051 C1048 0.929 . S
S1052 N1053 1.613 . S
S1052 N1054 1.610 . S
N1053 S1052 1.613 . S
N1053 C1056 1.350 . S
N1054 S1052 1.610 . S
N1054 C1055 1.351 . S
C1055 C1049 1.428 . S
C1055 N1054 1.351 . S
C1055 C1056 1.434 . S
C1056 C1047 1.429 . S
C1056 N1053 1.350 . S
C1056 C1055 1.434 . S
C1057 C1058 1.369 . S
C1057 C1059 1.419 . S
C1057 H1061 0.930 . S
C1058 C1057 1.369 . S
C1058 C1067 1.429 . S
C1059 C1057 1.419 . S
C1059 C1060 1.363 . S
C1059 H1062 0.929 . S
C1060 C1059 1.363 . S
C1060 C1066 1.428 . S
H1061 C1057 0.930 . S
H1062 C1059 0.929 . S
S1063 N1064 1.613 . S
S1063 N1065 1.610 . S
N1064 S1063 1.613 . S
N1064 C1067 1.350 . S
N1065 S1063 1.610 . S
N1065 C1066 1.351 . S
C1066 C1060 1.428 . S
C1066 N1065 1.351 . S
C1066 C1067 1.434 . S
C1067 C1058 1.429 . S
C1067 N1064 1.350 . S
C1067 C1066 1.434 . S
C1068 C1069 1.369 . S
C1068 C1070 1.419 . S
C1068 H1072 0.930 . S
C1069 C1068 1.369 . S
C1069 C1078 1.429 . S
C1070 C1068 1.419 . S
C1070 C1071 1.363 . S
C1070 H1073 0.929 . S
C1071 C1070 1.363 . S
C1071 C1077 1.428 . S
H1072 C1068 0.930 . S
H1073 C1070 0.929 . S
S1074 N1075 1.613 . S
S1074 N1076 1.610 . S
N1075 S1074 1.613 . S
N1075 C1078 1.350 . S
N1076 S1074 1.610 . S
N1076 C1077 1.351 . S
C1077 C1071 1.428 . S
C1077 N1076 1.351 . S
C1077 C1078 1.434 . S
C1078 C1069 1.429 . S
C1078 N1075 1.350 . S
C1078 C1077 1.434 . S
C1079 C1080 1.369 . S
C1079 C1081 1.419 . S
C1079 H1083 0.930 . S
C1080 C1079 1.369 . S
C1080 C1089 1.429 . S
C1081 C1079 1.419 . S
C1081 C1082 1.363 . S
C1081 H1084 0.929 . S
C1082 C1081 1.363 . S
C1082 C1088 1.428 . S
H1083 C1079 0.930 . S
H1084 C1081 0.929 . S
S1085 N1086 1.613 . S
S1085 N1087 1.610 . S
N1086 S1085 1.613 . S
N1086 C1089 1.350 . S
N1087 S1085 1.610 . S
N1087 C1088 1.351 . S
C1088 C1082 1.428 . S
C1088 N1087 1.351 . S
C1088 C1089 1.434 . S
C1089 C1080 1.429 . S
C1089 N1086 1.350 . S
C1089 C1088 1.434 . S
C1090 C1091 1.369 . S
C1090 C1092 1.419 . S
C1090 H1094 0.930 . S
C1091 C1090 1.369 . S
C1091 C1100 1.429 . S
C1092 C1090 1.419 . S
C1092 C1093 1.363 . S
C1092 H1095 0.929 . S
C1093 C1092 1.363 . S
C1093 C1099 1.428 . S
H1094 C1090 0.930 . S
H1095 C1092 0.929 . S
S1096 N1097 1.613 . S
S1096 N1098 1.610 . S
N1097 S1096 1.613 . S
N1097 C1100 1.350 . S
N1098 S1096 1.610 . S
N1098 C1099 1.351 . S
C1099 C1093 1.428 . S
C1099 N1098 1.351 . S
C1099 C1100 1.434 . S
C1100 C1091 1.429 . S
C1100 N1097 1.350 . S
C1100 C1099 1.434 . S
C1101 C1102 1.369 . S
C1101 C1103 1.419 . S
C1101 H1105 0.930 . S
C1102 C1101 1.369 . S
C1102 C1111 1.429 . S
C1103 C1101 1.419 . S
C1103 C1104 1.363 . S
C1103 H1106 0.929 . S
C1104 C1103 1.363 . S
C1104 C1110 1.428 . S
H1105 C1101 0.930 . S
H1106 C1103 0.929 . S
S1107 N1108 1.613 . S
S1107 N1109 1.610 . S
N1108 S1107 1.613 . S
N1108 C1111 1.350 . S
N1109 S1107 1.610 . S
N1109 C1110 1.351 . S
C1110 C1104 1.428 . S
C1110 N1109 1.351 . S
C1110 C1111 1.434 . S
C1111 C1102 1.429 . S
C1111 N1108 1.350 . S
C1111 C1110 1.434 . S
C1112 C1113 1.369 . S
C1112 C1114 1.419 . S
C1112 H1116 0.930 . S
C1113 C1112 1.369 . S
C1113 C1122 1.429 . S
C1114 C1112 1.419 . S
C1114 C1115 1.363 . S
C1114 H1117 0.929 . S
C1115 C1114 1.363 . S
C1115 C1121 1.428 . S
H1116 C1112 0.930 . S
H1117 C1114 0.929 . S
S1118 N1119 1.613 . S
S1118 N1120 1.610 . S
N1119 S1118 1.613 . S
N1119 C1122 1.350 . S
N1120 S1118 1.610 . S
N1120 C1121 1.351 . S
C1121 C1115 1.428 . S
C1121 N1120 1.351 . S
C1121 C1122 1.434 . S
C1122 C1113 1.429 . S
C1122 N1119 1.350 . S
C1122 C1121 1.434 . S
C1123 C1124 1.369 . S
C1123 C1125 1.419 . S
C1123 H1127 0.930 . S
C1124 C1123 1.369 . S
C1124 C1133 1.429 . S
C1125 C1123 1.419 . S
C1125 C1126 1.363 . S
C1125 H1128 0.929 . S
C1126 C1125 1.363 . S
C1126 C1132 1.428 . S
H1127 C1123 0.930 . S
H1128 C1125 0.929 . S
S1129 N1130 1.613 . S
S1129 N1131 1.610 . S
N1130 S1129 1.613 . S
N1130 C1133 1.350 . S
N1131 S1129 1.610 . S
N1131 C1132 1.351 . S
C1132 C1126 1.428 . S
C1132 N1131 1.351 . S
C1132 C1133 1.434 . S
C1133 C1124 1.429 . S
C1133 N1130 1.350 . S
C1133 C1132 1.434 . S
C1134 C1135 1.369 . S
C1134 C1136 1.419 . S
C1134 H1138 0.930 . S
C1135 C1134 1.369 . S
C1135 C1144 1.429 . S
C1136 C1134 1.419 . S
C1136 C1137 1.363 . S
C1136 H1139 0.929 . S
C1137 C1136 1.363 . S
C1137 C1143 1.428 . S
H1138 C1134 0.930 . S
H1139 C1136 0.929 . S
S1140 N1141 1.613 . S
S1140 N1142 1.610 . S
N1141 S1140 1.613 . S
N1141 C1144 1.350 . S
N1142 S1140 1.610 . S
N1142 C1143 1.351 . S
C1143 C1137 1.428 . S
C1143 N1142 1.351 . S
C1143 C1144 1.434 . S
C1144 C1135 1.429 . S
C1144 N1141 1.350 . S
C1144 C1143 1.434 . S
C1145 C1146 1.369 . S
C1145 C1147 1.419 . S
C1145 H1149 0.930 . S
C1146 C1145 1.369 . S
C1146 C1155 1.429 . S
C1147 C1145 1.419 . S
C1147 C1148 1.363 . S
C1147 H1150 0.929 . S
C1148 C1147 1.363 . S
C1148 C1154 1.428 . S
H1149 C1145 0.930 . S
H1150 C1147 0.929 . S
S1151 N1152 1.613 . S
S1151 N1153 1.610 . S
N1152 S1151 1.613 . S
N1152 C1155 1.350 . S
N1153 S1151 1.610 . S
N1153 C1154 1.351 . S
C1154 C1148 1.428 . S
C1154 N1153 1.351 . S
C1154 C1155 1.434 . S
C1155 C1146 1.429 . S
C1155 N1152 1.350 . S
C1155 C1154 1.434 . S
C1156 C1157 1.369 . S
C1156 C1158 1.419 . S
C1156 H1160 0.930 . S
C1157 C1156 1.369 . S
C1157 C1166 1.429 . S
C1158 C1156 1.419 . S
C1158 C1159 1.363 . S
C1158 H1161 0.929 . S
C1159 C1158 1.363 . S
C1159 C1165 1.428 . S
H1160 C1156 0.930 . S
H1161 C1158 0.929 . S
S1162 N1163 1.613 . S
S1162 N1164 1.610 . S
N1163 S1162 1.613 . S
N1163 C1166 1.350 . S
N1164 S1162 1.610 . S
N1164 C1165 1.351 . S
C1165 C1159 1.428 . S
C1165 N1164 1.351 . S
C1165 C1166 1.434 . S
C1166 C1157 1.429 . S
C1166 N1163 1.350 . S
C1166 C1165 1.434 . S
C1167 C1168 1.369 . S
C1167 C1169 1.419 . S
C1167 H1171 0.930 . S
C1168 C1167 1.369 . S
C1168 C1177 1.429 . S
C1169 C1167 1.419 . S
C1169 C1170 1.363 . S
C1169 H1172 0.929 . S
C1170 C1169 1.363 . S
C1170 C1176 1.428 . S
H1171 C1167 0.930 . S
H1172 C1169 0.929 . S
S1173 N1174 1.613 1_554 S
S1173 N1175 1.610 . S
N1174 S1173 1.613 1_556 S
N1174 C1177 1.350 . S
N1175 S1173 1.610 . S
N1175 C1176 1.351 1_554 S
C1176 C1170 1.428 . S
C1176 N1175 1.351 1_556 S
C1176 C1177 1.434 . S
C1177 C1168 1.429 . S
C1177 N1174 1.350 . S
C1177 C1176 1.434 . S
C1178 C1179 1.369 . S
C1178 C1180 1.419 . S
C1178 H1182 0.930 . S
C1179 C1178 1.369 . S
C1179 C1188 1.429 . S
C1180 C1178 1.419 . S
C1180 C1181 1.363 . S
C1180 H1183 0.929 . S
C1181 C1180 1.363 . S
C1181 C1187 1.428 . S
H1182 C1178 0.930 . S
H1183 C1180 0.929 . S
S1184 N1185 1.613 . S
S1184 N1186 1.610 . S
N1185 S1184 1.613 . S
N1185 C1188 1.350 1_556 S
N1186 S1184 1.610 . S
N1186 C1187 1.351 1_556 S
C1187 C1181 1.428 . S
C1187 N1186 1.351 1_554 S
C1187 C1188 1.434 . S
C1188 C1179 1.429 . S
C1188 N1185 1.350 1_554 S
C1188 C1187 1.434 . S
C1189 C1190 1.369 . S
C1189 C1191 1.419 . S
C1189 H1193 0.930 . S
C1190 C1189 1.369 . S
C1190 C1199 1.429 . S
C1191 C1189 1.419 . S
C1191 C1192 1.363 . S
C1191 H1194 0.929 . S
C1192 C1191 1.363 . S
C1192 C1198 1.428 . S
H1193 C1189 0.930 . S
H1194 C1191 0.929 . S
S1195 N1196 1.613 . S
S1195 N1197 1.610 . S
N1196 S1195 1.613 . S
N1196 C1199 1.350 . S
N1197 S1195 1.610 . S
N1197 C1198 1.351 . S
C1198 C1192 1.428 . S
C1198 N1197 1.351 . S
C1198 C1199 1.434 . S
C1199 C1190 1.429 . S
C1199 N1196 1.350 . S
C1199 C1198 1.434 . S
C1200 C1201 1.369 . S
C1200 C1202 1.419 . S
C1200 H1204 0.930 . S
C1201 C1200 1.369 . S
C1201 C1210 1.429 . S
C1202 C1200 1.419 . S
C1202 C1203 1.363 . S
C1202 H1205 0.929 . S
C1203 C1202 1.363 . S
C1203 C1209 1.428 . S
H1204 C1200 0.930 . S
H1205 C1202 0.929 . S
S1206 N1207 1.613 . S
S1206 N1208 1.610 . S
N1207 S1206 1.613 . S
N1207 C1210 1.350 . S
N1208 S1206 1.610 . S
N1208 C1209 1.351 . S
C1209 C1203 1.428 . S
C1209 N1208 1.351 . S
C1209 C1210 1.434 . S
C1210 C1201 1.429 . S
C1210 N1207 1.350 . S
C1210 C1209 1.434 . S
C1211 C1212 1.369 . S
C1211 C1213 1.419 . S
C1211 H1215 0.930 . S
C1212 C1211 1.369 . S
C1212 C1221 1.429 . S
C1213 C1211 1.419 . S
C1213 C1214 1.363 . S
C1213 H1216 0.929 . S
C1214 C1213 1.363 . S
C1214 C1220 1.428 . S
H1215 C1211 0.930 . S
H1216 C1213 0.929 . S
S1217 N1218 1.613 . S
S1217 N1219 1.610 . S
N1218 S1217 1.613 . S
N1218 C1221 1.350 . S
N1219 S1217 1.610 . S
N1219 C1220 1.351 . S
C1220 C1214 1.428 . S
C1220 N1219 1.351 . S
C1220 C1221 1.434 . S
C1221 C1212 1.429 . S
C1221 N1218 1.350 . S
C1221 C1220 1.434 . S
C1222 C1223 1.369 . S
C1222 C1224 1.419 . S
C1222 H1226 0.930 . S
C1223 C1222 1.369 . S
C1223 C1232 1.429 . S
C1224 C1222 1.419 . S
C1224 C1225 1.363 . S
C1224 H1227 0.929 . S
C1225 C1224 1.363 . S
C1225 C1231 1.428 . S
H1226 C1222 0.930 . S
H1227 C1224 0.929 . S
S1228 N1229 1.613 . S
S1228 N1230 1.610 . S
N1229 S1228 1.613 . S
N1229 C1232 1.350 . S
N1230 S1228 1.610 . S
N1230 C1231 1.351 . S
C1231 C1225 1.428 . S
C1231 N1230 1.351 . S
C1231 C1232 1.434 . S
C1232 C1223 1.429 . S
C1232 N1229 1.350 . S
C1232 C1231 1.434 . S
C1233 C1234 1.369 . S
C1233 C1235 1.419 . S
C1233 H1237 0.930 . S
C1234 C1233 1.369 . S
C1234 C1243 1.429 . S
C1235 C1233 1.419 . S
C1235 C1236 1.363 . S
C1235 H1238 0.929 . S
C1236 C1235 1.363 . S
C1236 C1242 1.428 . S
H1237 C1233 0.930 . S
H1238 C1235 0.929 . S
S1239 N1240 1.613 . S
S1239 N1241 1.610 . S
N1240 S1239 1.613 . S
N1240 C1243 1.350 . S
N1241 S1239 1.610 . S
N1241 C1242 1.351 . S
C1242 C1236 1.428 . S
C1242 N1241 1.351 . S
C1242 C1243 1.434 . S
C1243 C1234 1.429 . S
C1243 N1240 1.350 . S
C1243 C1242 1.434 . S
C1244 C1245 1.369 . S
C1244 C1246 1.419 . S
C1244 H1248 0.930 . S
C1245 C1244 1.369 . S
C1245 C1254 1.429 . S
C1246 C1244 1.419 . S
C1246 C1247 1.363 . S
C1246 H1249 0.929 . S
C1247 C1246 1.363 . S
C1247 C1253 1.428 . S
H1248 C1244 0.930 . S
H1249 C1246 0.929 . S
S1250 N1251 1.613 . S
S1250 N1252 1.610 . S
N1251 S1250 1.613 . S
N1251 C1254 1.350 . S
N1252 S1250 1.610 . S
N1252 C1253 1.351 . S
C1253 C1247 1.428 . S
C1253 N1252 1.351 . S
C1253 C1254 1.434 . S
C1254 C1245 1.429 . S
C1254 N1251 1.350 . S
C1254 C1253 1.434 . S
C1255 C1256 1.369 . S
C1255 C1257 1.419 . S
C1255 H1259 0.930 . S
C1256 C1255 1.369 . S
C1256 C1265 1.429 . S
C1257 C1255 1.419 . S
C1257 C1258 1.363 . S
C1257 H1260 0.929 . S
C1258 C1257 1.363 . S
C1258 C1264 1.428 . S
H1259 C1255 0.930 . S
H1260 C1257 0.929 . S
S1261 N1262 1.613 . S
S1261 N1263 1.610 . S
N1262 S1261 1.613 . S
N1262 C1265 1.350 . S
N1263 S1261 1.610 . S
N1263 C1264 1.351 . S
C1264 C1258 1.428 . S
C1264 N1263 1.351 . S
C1264 C1265 1.434 . S
C1265 C1256 1.429 . S
C1265 N1262 1.350 . S
C1265 C1264 1.434 . S
C1266 C1267 1.369 . S
C1266 C1268 1.419 . S
C1266 H1270 0.930 . S
C1267 C1266 1.369 . S
C1267 C1276 1.429 . S
C1268 C1266 1.419 . S
C1268 C1269 1.363 . S
C1268 H1271 0.929 . S
C1269 C1268 1.363 . S
C1269 C1275 1.428 . S
H1270 C1266 0.930 . S
H1271 C1268 0.929 . S
S1272 N1273 1.613 . S
S1272 N1274 1.610 . S
N1273 S1272 1.613 . S
N1273 C1276 1.350 . S
N1274 S1272 1.610 . S
N1274 C1275 1.351 . S
C1275 C1269 1.428 . S
C1275 N1274 1.351 . S
C1275 C1276 1.434 . S
C1276 C1267 1.429 . S
C1276 N1273 1.350 . S
C1276 C1275 1.434 . S
C1277 C1278 1.369 . S
C1277 C1279 1.419 . S
C1277 H1281 0.930 . S
C1278 C1277 1.369 . S
C1278 C1287 1.429 . S
C1279 C1277 1.419 . S
C1279 C1280 1.363 . S
C1279 H1282 0.929 . S
C1280 C1279 1.363 . S
C1280 C1286 1.428 . S
H1281 C1277 0.930 . S
H1282 C1279 0.929 . S
S1283 N1284 1.613 . S
S1283 N1285 1.610 . S
N1284 S1283 1.613 . S
N1284 C1287 1.350 . S
N1285 S1283 1.610 . S
N1285 C1286 1.351 . S
C1286 C1280 1.428 . S
C1286 N1285 1.351 . S
C1286 C1287 1.434 . S
C1287 C1278 1.429 . S
C1287 N1284 1.350 . S
C1287 C1286 1.434 . S
C1288 C1289 1.369 . S
C1288 C1290 1.419 . S
C1288 H1292 0.930 . S
C1289 C1288 1.369 . S
C1289 C1298 1.429 . S
C1290 C1288 1.419 . S
C1290 C1291 1.363 . S
C1290 H1293 0.929 . S
C1291 C1290 1.363 . S
C1291 C1297 1.428 . S
H1292 C1288 0.930 . S
H1293 C1290 0.929 . S
S1294 N1295 1.613 . S
S1294 N1296 1.610 . S
N1295 S1294 1.613 . S
N1295 C1298 1.350 . S
N1296 S1294 1.610 . S
N1296 C1297 1.351 . S
C1297 C1291 1.428 . S
C1297 N1296 1.351 . S
C1297 C1298 1.434 . S
C1298 C1289 1.429 . S
C1298 N1295 1.350 . S
C1298 C1297 1.434 . S
C1299 C1300 1.369 . S
C1299 C1301 1.419 . S
C1299 H1303 0.930 . S
C1300 C1299 1.369 . S
C1300 C1309 1.429 . S
C1301 C1299 1.419 . S
C1301 C1302 1.363 . S
C1301 H1304 0.929 . S
C1302 C1301 1.363 . S
C1302 C1308 1.428 . S
H1303 C1299 0.930 . S
H1304 C1301 0.929 . S
S1305 N1306 1.613 . S
S1305 N1307 1.610 . S
N1306 S1305 1.613 . S
N1306 C1309 1.350 . S
N1307 S1305 1.610 . S
N1307 C1308 1.351 . S
C1308 C1302 1.428 . S
C1308 N1307 1.351 . S
C1308 C1309 1.434 . S
C1309 C1300 1.429 . S
C1309 N1306 1.350 . S
C1309 C1308 1.434 . S
C1310 C1311 1.369 . S
C1310 C1312 1.419 . S
C1310 H1314 0.930 . S
C1311 C1310 1.369 . S
C1311 C1320 1.429 . S
C1312 C1310 1.419 . S
C1312 C1313 1.363 . S
C1312 H1315 0.929 . S
C1313 C1312 1.363 . S
C1313 C1319 1.428 . S
H1314 C1310 0.930 . S
H1315 C1312 0.929 . S
S1316 N1317 1.613 . S
S1316 N1318 1.610 . S
N1317 S1316 1.613 . S
N1317 C1320 1.350 . S
N1318 S1316 1.610 . S
N1318 C1319 1.351 . S
C1319 C1313 1.428 . S
C1319 N1318 1.351 . S
C1319 C1320 1.434 . S
C1320 C1311 1.429 . S
C1320 N1317 1.350 . S
C1320 C1319 1.434 . S
C1321 C1322 1.369 . S
C1321 C1323 1.419 . S
C1321 H1325 0.930 . S
C1322 C1321 1.369 . S
C1322 C1331 1.429 . S
C1323 C1321 1.419 . S
C1323 C1324 1.363 . S
C1323 H1326 0.929 . S
C1324 C1323 1.363 . S
C1324 C1330 1.428 . S
H1325 C1321 0.930 . S
H1326 C1323 0.929 . S
S1327 N1328 1.613 . S
S1327 N1329 1.610 . S
N1328 S1327 1.613 . S
N1328 C1331 1.350 . S
N1329 S1327 1.610 . S
N1329 C1330 1.351 . S
C1330 C1324 1.428 . S
C1330 N1329 1.351 . S
C1330 C1331 1.434 . S
C1331 C1322 1.429 . S
C1331 N1328 1.350 . S
C1331 C1330 1.434 . S
C1332 C1333 1.369 . S
C1332 C1334 1.419 . S
C1332 H1336 0.930 . S
C1333 C1332 1.369 . S
C1333 C1342 1.429 . S
C1334 C1332 1.419 . S
C1334 C1335 1.363 . S
C1334 H1337 0.929 . S
C1335 C1334 1.363 . S
C1335 C1341 1.428 . S
H1336 C1332 0.930 . S
H1337 C1334 0.929 . S
S1338 N1339 1.613 . S
S1338 N1340 1.610 . S
N1339 S1338 1.613 . S
N1339 C1342 1.350 . S
N1340 S1338 1.610 . S
N1340 C1341 1.351 . S
C1341 C1335 1.428 . S
C1341 N1340 1.351 . S
C1341 C1342 1.434 . S
C1342 C1333 1.429 . S
C1342 N1339 1.350 . S
C1342 C1341 1.434 . S
C1343 C1344 1.369 . S
C1343 C1345 1.419 . S
C1343 H1347 0.930 . S
C1344 C1343 1.369 . S
C1344 C1353 1.429 . S
C1345 C1343 1.419 . S
C1345 C1346 1.363 . S
C1345 H1348 0.929 . S
C1346 C1345 1.363 . S
C1346 C1352 1.428 . S
H1347 C1343 0.930 . S
H1348 C1345 0.929 . S
S1349 N1350 1.613 . S
S1349 N1351 1.610 . S
N1350 S1349 1.613 . S
N1350 C1353 1.350 . S
N1351 S1349 1.610 . S
N1351 C1352 1.351 . S
C1352 C1346 1.428 . S
C1352 N1351 1.351 . S
C1352 C1353 1.434 . S
C1353 C1344 1.429 . S
C1353 N1350 1.350 . S
C1353 C1352 1.434 . S
C1354 C1355 1.369 . S
C1354 C1356 1.419 . S
C1354 H1358 0.930 . S
C1355 C1354 1.369 . S
C1355 C1364 1.429 . S
C1356 C1354 1.419 . S
C1356 C1357 1.363 . S
C1356 H1359 0.929 . S
C1357 C1356 1.363 . S
C1357 C1363 1.428 . S
H1358 C1354 0.930 . S
H1359 C1356 0.929 . S
S1360 N1361 1.613 . S
S1360 N1362 1.610 . S
N1361 S1360 1.613 . S
N1361 C1364 1.350 . S
N1362 S1360 1.610 . S
N1362 C1363 1.351 . S
C1363 C1357 1.428 . S
C1363 N1362 1.351 . S
C1363 C1364 1.434 . S
C1364 C1355 1.429 . S
C1364 N1361 1.350 . S
C1364 C1363 1.434 . S
C1365 C1366 1.369 . S
C1365 C1367 1.419 . S
C1365 H1369 0.930 . S
C1366 C1365 1.369 . S
C1366 C1375 1.429 . S
C1367 C1365 1.419 . S
C1367 C1368 1.363 . S
C1367 H1370 0.929 . S
C1368 C1367 1.363 . S
C1368 C1374 1.428 . S
H1369 C1365 0.930 . S
H1370 C1367 0.929 . S
S1371 N1372 1.613 . S
S1371 N1373 1.610 . S
N1372 S1371 1.613 . S
N1372 C1375 1.350 . S
N1373 S1371 1.610 . S
N1373 C1374 1.351 . S
C1374 C1368 1.428 . S
C1374 N1373 1.351 . S
C1374 C1375 1.434 . S
C1375 C1366 1.429 . S
C1375 N1372 1.350 . S
C1375 C1374 1.434 . S
C1376 C1377 1.369 . S
C1376 C1378 1.419 . S
C1376 H1380 0.930 . S
C1377 C1376 1.369 . S
C1377 C1386 1.429 . S
C1378 C1376 1.419 . S
C1378 C1379 1.363 . S
C1378 H1381 0.929 . S
C1379 C1378 1.363 . S
C1379 C1385 1.428 . S
H1380 C1376 0.930 . S
H1381 C1378 0.929 . S
S1382 N1383 1.613 . S
S1382 N1384 1.610 . S
N1383 S1382 1.613 . S
N1383 C1386 1.350 . S
N1384 S1382 1.610 . S
N1384 C1385 1.351 . S
C1385 C1379 1.428 . S
C1385 N1384 1.351 . S
C1385 C1386 1.434 . S
C1386 C1377 1.429 . S
C1386 N1383 1.350 . S
C1386 C1385 1.434 . S
C1387 C1388 1.369 . S
C1387 C1389 1.419 . S
C1387 H1391 0.930 . S
C1388 C1387 1.369 . S
C1388 C1397 1.429 . S
C1389 C1387 1.419 . S
C1389 C1390 1.363 . S
C1389 H1392 0.929 . S
C1390 C1389 1.363 . S
C1390 C1396 1.428 . S
H1391 C1387 0.930 . S
H1392 C1389 0.929 . S
S1393 N1394 1.613 . S
S1393 N1395 1.610 . S
N1394 S1393 1.613 . S
N1394 C1397 1.350 . S
N1395 S1393 1.610 . S
N1395 C1396 1.351 . S
C1396 C1390 1.428 . S
C1396 N1395 1.351 . S
C1396 C1397 1.434 . S
C1397 C1388 1.429 . S
C1397 N1394 1.350 . S
C1397 C1396 1.434 . S
C873 C699 1.378 . S
C871 C74 1.447 . S
C884 C700 0.589 . S
C882 C142 0.801 . S
C895 C694 1.413 . S
C893 C231 1.336 . S
C904 C322 1.123 . S
C906 C693 1.155 . S
C915 C406 0.786 . S
C917 C696 0.593 . S
C928 C698 1.413 . S
C926 C494 1.350 . S
C937 C562 1.119 . S
C939 C697 1.150 . S
C948 C651 1.444 . S
C950 C695 1.379 . S
C961 C730 1.536 . S
C959 C58 1.438 . S
C970 C151 1.809 . S
C972 C761 1.761 . S
C983 C729 2.603 . S
C981 C224 2.453 . S
C994 C764 1.336 . S
C992 C315 1.299 . S
C1003 C399 1.571 . S
C1005 C727 1.591 . S
C1016 C759 1.469 . S
C1014 C478 1.391 . S
C1025 C571 1.393 . S
C1027 C732 1.462 . S
C1036 C644 2.483 . S
C1038 C766 2.560 . S
C1047 C67 2.485 . S
C1049 C762 2.559 . S
C1058 C392 1.810 . S
C1060 C765 1.759 . S
C1071 C733 2.599 . S
C1069 C487 2.448 . S
C1082 C760 1.335 . S
C1080 C578 1.299 . S
C1091 C658 1.444 . S
C1093 C726 1.538 . S
C1102 C238 1.392 . S
C1104 C763 1.468 . S
C1115 C728 1.458 . S
C1113 C308 1.382 . S
C1124 C158 1.580 . S
C1126 C731 1.586 . S
C1135 C662 1.416 . S
C1137 C798 1.342 . S
C1146 C394 1.041 . S
C1148 C799 0.143 . S
C1159 C793 1.561 . S
C1157 C483 1.519 . S
C1170 C792 1.382 . S
C1168 C574 1.261 . S
C1179 C154 1.050 . S
C1181 C795 0.132 . S
C1192 C797 1.553 . S
C1190 C242 1.517 . S
C1201 C310 1.258 . S
C1203 C796 1.380 . S
C1212 C63 1.410 . S
C1214 C794 1.342 . S
C1223 C646 1.467 . S
C1225 C832 1.549 . S
C1236 C864 1.352 . S
C1234 C403 1.402 . S
C1245 C476 2.340 . S
C1247 C825 2.485 . S
C1256 C567 1.635 . S
C1258 C859 1.697 . S
C1269 C830 1.553 . S
C1267 C147 1.399 . S
C1278 C226 1.628 . S
C1280 C861 1.646 . S
C1291 C827 1.604 . S
C1289 C319 1.652 . S
C1302 C862 2.558 . S
C1300 C56 2.276 . S
C1313 C858 2.557 . S
C1311 C655 2.280 . S
C1322 C140 1.395 . S
C1324 C860 1.344 . S
C1333 C235 2.335 . S
C1335 C829 2.486 . S
C1346 C863 1.701 . S
C1344 C326 1.639 . S
C1355 C70 1.461 . S
C1357 C828 1.548 . S
C1366 C490 1.629 . S
C1368 C865 1.643 . S
C1379 C831 1.606 . S
C1377 C560 1.653 . S
C1390 C826 1.553 . S
C1388 C410 1.396 . S
