# Generated by pormake.
# Topology pyr, (3,6)-cn, num edge types: 1
# Building blocks:
#     Node 0, Type 0, BuildingBlock: OLANEW_clean_sbu_2, # of connection points: 3
#     Node 1, Type 0, BuildingBlock: OLANEW_clean_sbu_2, # of connection points: 3
#     Node 2, Type 0, BuildingBlock: OLANEW_clean_sbu_2, # of connection points: 3
#     Node 3, Type 0, BuildingBlock: OLANEW_clean_sbu_2, # of connection points: 3
#     Node 4, Type 0, BuildingBlock: OLANEW_clean_sbu_2, # of connection points: 3
#     Node 5, Type 0, BuildingBlock: OLANEW_clean_sbu_2, # of connection points: 3
#     Node 6, Type 0, BuildingBlock: OLANEW_clean_sbu_2, # of connection points: 3
#     Node 7, Type 0, BuildingBlock: OLANEW_clean_sbu_2, # of connection points: 3
#     Node 8, Type 1, BuildingBlock: FUNLAD_clean_sbu_0, # of connection points: 6
#     Node 9, Type 1, BuildingBlock: FUNLAD_clean_sbu_0, # of connection points: 6
#     Node 10, Type 1, BuildingBlock: FUNLAD_clean_sbu_0, # of connection points: 6
#     Node 11, Type 1, BuildingBlock: FUNLAD_clean_sbu_0, # of connection points: 6
#     Edge 12, Type (0, 1), BuildingBlock: MIFKUJ_clean_linker_0, # of connection points: 2
#     Edge 13, Type (0, 1), BuildingBlock: MIFKUJ_clean_linker_0, # of connection points: 2
#     Edge 14, Type (0, 1), BuildingBlock: MIFKUJ_clean_linker_0, # of connection points: 2
#     Edge 15, Type (0, 1), BuildingBlock: MIFKUJ_clean_linker_0, # of connection points: 2
#     Edge 16, Type (0, 1), BuildingBlock: MIFKUJ_clean_linker_0, # of connection points: 2
#     Edge 17, Type (0, 1), BuildingBlock: MIFKUJ_clean_linker_0, # of connection points: 2
#     Edge 18, Type (0, 1), BuildingBlock: MIFKUJ_clean_linker_0, # of connection points: 2
#     Edge 19, Type (0, 1), BuildingBlock: MIFKUJ_clean_linker_0, # of connection points: 2
#     Edge 20, Type (0, 1), BuildingBlock: MIFKUJ_clean_linker_0, # of connection points: 2
#     Edge 21, Type (0, 1), BuildingBlock: MIFKUJ_clean_linker_0, # of connection points: 2
#     Edge 22, Type (0, 1), BuildingBlock: MIFKUJ_clean_linker_0, # of connection points: 2
#     Edge 23, Type (0, 1), BuildingBlock: MIFKUJ_clean_linker_0, # of connection points: 2
#     Edge 24, Type (0, 1), BuildingBlock: MIFKUJ_clean_linker_0, # of connection points: 2
#     Edge 25, Type (0, 1), BuildingBlock: MIFKUJ_clean_linker_0, # of connection points: 2
#     Edge 26, Type (0, 1), BuildingBlock: MIFKUJ_clean_linker_0, # of connection points: 2
#     Edge 27, Type (0, 1), BuildingBlock: MIFKUJ_clean_linker_0, # of connection points: 2
#     Edge 28, Type (0, 1), BuildingBlock: MIFKUJ_clean_linker_0, # of connection points: 2
#     Edge 29, Type (0, 1), BuildingBlock: MIFKUJ_clean_linker_0, # of connection points: 2
#     Edge 30, Type (0, 1), BuildingBlock: MIFKUJ_clean_linker_0, # of connection points: 2
#     Edge 31, Type (0, 1), BuildingBlock: MIFKUJ_clean_linker_0, # of connection points: 2
#     Edge 32, Type (0, 1), BuildingBlock: MIFKUJ_clean_linker_0, # of connection points: 2
#     Edge 33, Type (0, 1), BuildingBlock: MIFKUJ_clean_linker_0, # of connection points: 2
#     Edge 34, Type (0, 1), BuildingBlock: MIFKUJ_clean_linker_0, # of connection points: 2
#     Edge 35, Type (0, 1), BuildingBlock: MIFKUJ_clean_linker_0, # of connection points: 2
# Relax obj value: 0.113
# Max RMSD: 0.168
# Mean RMSD: 0.115
data_MOF--net-pry--node1-OLANEW_clean_sbu_2--node2-FUNLAD_clean_sbu_0--edge1-MIFKUJ_clean_linker_0
_symmetry_space_group_name_H-M    P1
_symmetry_Int_Tables_number       1
_symmetry_cell_setting            triclinic
loop_
_symmetry_equiv_pos_as_xyz
'x, y, z'
_cell_length_a     48.877507
_cell_length_b     51.71724
_cell_length_c     51.749748
_cell_angle_alpha  93.900858
_cell_angle_beta   89.154569
_cell_angle_gamma 92.115217
loop_
_atom_site_label
_atom_site_type_symbol
_atom_site_fract_x
_atom_site_fract_y
_atom_site_fract_z
_atom_type_partial_charge
O0 O 0.20203 0.17398 0.17698 0.0
Cd1 Cd 0.16186 0.19955 0.19135 0.0
O2 O 0.20699 0.14859 0.20961 0.0
Cd3 Cd 0.17248 0.15322 0.23761 0.0
O4 O 0.14957 0.14174 0.27281 0.0
C5 C 0.1432 0.11785 0.27501 0.0
O6 O 0.14951 0.10101 0.25588 0.0
C7 C 0.21506 0.15685 0.18795 0.0
C8 C 0.1475 0.24041 0.16072 0.0
O9 O 0.16663 0.24354 0.17744 0.0
O10 O 0.1356 0.21791 0.15787 0.0
O11 O 0.39993 0.88268 0.75712 0.0
Cd12 Cd 0.3835 0.86471 0.7147 0.0
O13 O 0.37922 0.91936 0.75345 0.0
Cd14 Cd 0.35587 0.90761 0.7185 0.0
O15 O 0.32115 0.90888 0.69228 0.0
C16 C 0.31363 0.93129 0.68736 0.0
O17 O 0.32764 0.9517 0.69722 0.0
C18 C 0.39483 0.90562 0.76591 0.0
C19 C 0.40945 0.82005 0.69472 0.0
O20 O 0.42009 0.84271 0.69182 0.0
O21 O 0.38681 0.81844 0.70744 0.0
O22 O 0.67839 0.51225 0.9879 0.0
Cd23 Cd 0.62872 0.51525 0.98698 0.0
O24 O 0.67152 0.47189 0.97346 0.0
Cd25 Cd 0.68075 0.43125 0.96411 0.0
O26 O 0.67291 0.38936 0.96245 0.0
C27 C 0.67715 0.37727 0.9825 0.0
O28 O 0.68778 0.39013 0.00295 0.0
C29 C 0.68808 0.49043 0.98066 0.0
C30 C 0.61046 0.50993 0.93614 0.0
O31 O 0.61572 0.53237 0.94741 0.0
O32 O 0.61356 0.48997 0.94904 0.0
O33 O 0.00517 0.60782 0.4714 0.0
Cd34 Cd 0.01305 0.56164 0.46447 0.0
O35 O 0.97252 0.60131 0.49998 0.0
Cd36 Cd 0.93704 0.61327 0.52328 0.0
O37 O 0.89524 0.61689 0.53785 0.0
C38 C 0.87752 0.62477 0.52279 0.0
O39 O 0.88542 0.63147 0.49972 0.0
C40 C 0.9866 0.61674 0.48654 0.0
C41 C 0.00956 0.55017 0.41128 0.0
O42 O 0.98842 0.54782 0.426 0.0
O43 O 0.03249 0.55694 0.42189 0.0
O44 O 0.89641 0.84826 0.84374 0.0
Cd45 Cd 0.87678 0.82474 0.88049 0.0
O46 O 0.87137 0.88303 0.85032 0.0
Cd47 Cd 0.84467 0.87466 0.88368 0.0
O48 O 0.80991 0.88437 0.91005 0.0
C49 C 0.8007 0.90702 0.90919 0.0
O50 O 0.8125 0.92284 0.89323 0.0
C51 C 0.88974 0.87063 0.83745 0.0
C52 C 0.90413 0.78213 0.89848 0.0
O53 O 0.88807 0.77928 0.87904 0.0
O54 O 0.90817 0.80517 0.90883 0.0
O55 O 0.66023 0.13256 0.36918 0.0
Cd56 Cd 0.67576 0.14876 0.41247 0.0
O57 O 0.64223 0.16914 0.35934 0.0
Cd58 Cd 0.65049 0.19398 0.3947 0.0
O59 O 0.64637 0.23048 0.4187 0.0
C60 C 0.62349 0.23529 0.42971 0.0
O61 O 0.6035 0.21761 0.42757 0.0
C62 C 0.64764 0.14557 0.35335 0.0
C63 C 0.72143 0.12408 0.43033 0.0
O64 O 0.6972 0.11406 0.43255 0.0
O65 O 0.72418 0.14552 0.41934 0.0
O66 O 0.49493 0.63691 0.11416 0.0
Cd67 Cd 0.50057 0.59131 0.12128 0.0
O68 O 0.45056 0.62994 0.11276 0.0
Cd69 Cd 0.40738 0.63765 0.10733 0.0
O70 O 0.36331 0.63264 0.10153 0.0
C71 C 0.3536 0.6317 0.07883 0.0
O72 O 0.37033 0.63502 0.05912 0.0
C73 C 0.47117 0.64564 0.11202 0.0
C74 C 0.50468 0.58568 0.1742 0.0
O75 O 0.48143 0.58342 0.16298 0.0
O76 O 0.52601 0.59018 0.16028 0.0
O77 O 0.12268 0.50168 0.6308 0.0
Cd78 Cd 0.13736 0.49939 0.58547 0.0
O79 O 0.13655 0.46194 0.62984 0.0
Cd80 Cd 0.14471 0.42451 0.64479 0.0
O81 O 0.13606 0.38379 0.65095 0.0
C82 C 0.13283 0.36909 0.63048 0.0
O83 O 0.13633 0.37908 0.60793 0.0
C84 C 0.12572 0.48108 0.64233 0.0
C85 C 0.19412 0.49745 0.58129 0.0
O86 O 0.17937 0.47687 0.58438 0.0
O87 O 0.18204 0.5189 0.58001 0.0
C88 C 0.02969 0.01733 0.50998 0.0
N89 N 0.0209 0.0561 0.58331 0.0
C90 C 0.04569 0.06692 0.57703 0.0
C91 C 0.05274 0.0923 0.58571 0.0
C92 C 0.03423 0.10669 0.60122 0.0
C93 C 0.00922 0.09482 0.60839 0.0
C94 C 1.00283 0.06932 0.59899 0.0
Zn95 Zn 0.01162 0.02004 0.56656 0.0
C96 C 0.95713 0.01683 0.54175 0.0
N97 N 0.99539 0.94501 0.52963 0.0
C98 C 0.01541 0.93211 0.51622 0.0
C99 C 0.97066 0.93323 0.53448 0.0
C100 C 0.96572 0.90712 0.5267 0.0
C101 C 0.98653 0.89298 0.51401 0.0
C102 C 0.01141 0.90594 0.50823 0.0
Zn103 Zn 0.00389 0.9813 0.54621 0.0
O104 O 0.0283 0.03207 0.53061 0.0
C105 C 0.05871 0.98531 0.57078 0.0
O106 O 0.02083 0.9939 0.51043 0.0
H107 H 0.95511 0.94381 0.54535 0.0
H108 H 0.05987 0.05606 0.56473 0.0
H109 H 0.03489 0.94186 0.51256 0.0
O110 O 0.0504 0.00784 0.5772 0.0
O111 O 0.04327 0.96945 0.55737 0.0
H112 H 0.98323 0.0603 0.60371 0.0
O113 O 0.98755 0.96909 0.58209 0.0
O114 O 0.99467 0.00731 0.60236 0.0
O115 O 0.96455 0.99389 0.53538 0.0
O116 O 0.97293 0.03209 0.55544 0.0
C117 C 0.98633 0.98372 0.60282 0.0
H118 H 0.07236 0.10075 0.58006 0.0
H119 H 0.99443 0.10544 0.62028 0.0
H120 H 0.94633 0.89779 0.53169 0.0
H121 H 0.02784 0.89578 0.49818 0.0
C122 C 0.5627 0.00608 0.04498 0.0
N123 N 0.53274 0.08061 0.04246 0.0
C124 C 0.55882 0.08843 0.04876 0.0
C125 C 0.56953 0.11233 0.04186 0.0
C126 C 0.55334 0.12854 0.02829 0.0
C127 C 0.52661 0.11989 0.02158 0.0
C128 C 0.51661 0.09571 0.02899 0.0
Zn129 Zn 0.51934 0.04551 0.0548 0.0
C130 C 0.49149 0.01132 0.01448 0.0
N131 N 0.49554 0.972 0.08238 0.0
C132 C 0.51415 0.95886 0.09514 0.0
C133 C 0.47073 0.96091 0.07572 0.0
C134 C 0.46432 0.93517 0.0809 0.0
C135 C 0.48374 0.92079 0.09289 0.0
C136 C 0.50864 0.93315 0.10061 0.0
Zn137 Zn 0.50731 0.0075 0.07011 0.0
O138 O 0.55685 0.02924 0.04116 0.0
C139 C 0.53569 0.04128 0.11043 0.0
O140 O 0.5457 0.99225 0.05735 0.0
H141 H 0.45629 0.97169 0.06548 0.0
H142 H 0.57142 0.07613 0.05932 0.0
H143 H 0.53374 0.96802 0.10028 0.0
O144 O 0.53672 0.05604 0.09175 0.0
O145 O 0.52407 0.01893 0.10711 0.0
H146 H 0.49593 0.08911 0.02419 0.0
O147 O 0.46873 0.02336 0.08232 0.0
O148 O 0.48174 0.06123 0.06853 0.0
O149 O 0.49129 0.99644 0.03305 0.0
O150 O 0.50158 0.03432 0.01801 0.0
C151 C 0.4638 0.04702 0.07943 0.0
H152 H 0.59041 0.118 0.047 0.0
H153 H 0.51342 0.13187 0.0112 0.0
H154 H 0.44495 0.92631 0.07452 0.0
H155 H 0.524 0.92285 0.11026 0.0
C156 C 0.55541 0.48945 0.5385 0.0
N157 N 0.54893 0.52306 0.61444 0.0
C158 C 0.53843 0.50053 0.62328 0.0
C159 C 0.54124 0.49543 0.64929 0.0
C160 C 0.55494 0.51374 0.66628 0.0
C161 C 0.56608 0.53651 0.6564 0.0
C162 C 0.56277 0.54082 0.63038 0.0
Zn163 Zn 0.54298 0.53207 0.57719 0.0
C164 C 0.59359 0.55633 0.55456 0.0
N165 N 0.53066 0.55365 0.50027 0.0
C166 C 0.51665 0.53619 0.48412 0.0
C167 C 0.54126 0.57628 0.49174 0.0
C168 C 0.53829 0.58185 0.4659 0.0
C169 C 0.52411 0.56404 0.44878 0.0
C170 C 0.51304 0.54105 0.45824 0.0
Zn171 Zn 0.5366 0.54451 0.53749 0.0
O172 O 0.5547 0.49465 0.56286 0.0
C173 C 0.48583 0.52099 0.56017 0.0
O174 O 0.54894 0.50675 0.52356 0.0
H175 H 0.55228 0.58991 0.50492 0.0
H176 H 0.52744 0.4867 0.61026 0.0
H177 H 0.50857 0.51822 0.49123 0.0
O178 O 0.50141 0.51859 0.57925 0.0
O179 O 0.49549 0.53097 0.54006 0.0
H180 H 0.57098 0.55861 0.62298 0.0
O181 O 0.52422 0.58188 0.55201 0.0
O182 O 0.53111 0.5697 0.5911 0.0
O183 O 0.5778 0.55837 0.53558 0.0
O184 O 0.58437 0.54577 0.57455 0.0
C185 C 0.52399 0.58692 0.57641 0.0
H186 H 0.53218 0.4777 0.65615 0.0
H187 H 0.57723 0.55094 0.66867 0.0
H188 H 0.54696 0.5999 0.45939 0.0
H189 H 0.50231 0.52664 0.44561 0.0
C190 C 0.00963 0.55563 0.00758 0.0
N191 N 0.01103 0.52568 0.08127 0.0
C192 C 0.0195 0.54898 0.09276 0.0
C193 C 0.01495 0.55454 0.11922 0.0
C194 C 1.00143 0.53598 0.13391 0.0
C195 C 0.9919 0.51256 0.12131 0.0
C196 C 0.99702 0.50775 0.09486 0.0
Zn197 Zn 0.02208 0.51584 0.04384 0.0
C198 C 0.97601 0.48791 0.01495 0.0
N199 N 0.04512 0.49299 0.96609 0.0
C200 C 0.06035 0.51133 0.95414 0.0
C201 C 0.03634 0.47063 0.9529 0.0
C202 C 0.04226 0.46643 0.92641 0.0
C203 C 0.0575 0.48537 0.91351 0.0
C204 C 0.06706 0.50776 0.92797 0.0
Zn205 Zn 0.03387 0.50212 0.00375 0.0
O206 O 0.0091 0.55236 0.03175 0.0
C207 C 0.07963 0.53093 0.03291 0.0
O208 O 0.01892 0.53786 0.99204 0.0
H209 H 0.02413 0.45635 0.96273 0.0
H210 H 0.03056 0.56296 0.08156 0.0
H211 H 0.06685 0.52915 0.96476 0.0
O212 O 0.06176 0.53186 0.05094 0.0
O213 O 0.0734 0.51987 0.011 0.0
H214 H 0.99063 0.48928 0.08538 0.0
O215 O 0.04847 0.4663 0.01597 0.0
O216 O 0.03521 0.47924 0.05528 0.0
O217 O 0.99412 0.48489 0.99722 0.0
O218 O 0.98248 0.49994 0.03634 0.0
C219 C 0.04597 0.46211 0.03989 0.0
H220 H 0.02237 0.57295 0.12819 0.0
H221 H 0.98168 0.49761 0.13197 0.0
H222 H 0.03426 0.44894 0.91606 0.0
H223 H 0.07943 0.52265 0.91914 0.0
H224 H 0.13196 0.14594 0.32091 0.0
H225 H 0.11193 0.12975 0.36072 0.0
H226 H 0.10479 0.0527 0.32344 0.0
H227 H 0.12451 0.06869 0.2837 0.0
H228 H 0.0592 0.06377 0.35115 0.0
H229 H 0.15632 0.06988 0.36604 0.0
H230 H 0.2019 0.09189 0.36905 0.0
H231 H 0.17176 0.14625 0.42817 0.0
H232 H 0.12588 0.12475 0.42527 0.0
H233 H 0.03734 0.99141 0.46232 0.0
H234 H 0.05588 0.00905 0.42269 0.0
H235 H 0.06614 0.0845 0.46298 0.0
H236 H 0.04821 0.06693 0.5027 0.0
H237 H 0.10957 0.07523 0.43388 0.0
H238 H 0.01286 0.06932 0.41989 0.0
H239 H 0.967 0.04787 0.41717 0.0
H240 H 0.99559 0.99417 0.35668 0.0
H241 H 0.04175 0.0151 0.35928 0.0
C242 C 0.12601 0.12557 0.32114 0.0
C243 C 0.12998 0.10864 0.29905 0.0
C244 C 0.11467 0.1163 0.34398 0.0
C245 C 0.10707 0.08989 0.34526 0.0
C246 C 0.11047 0.07312 0.32304 0.0
C247 C 0.12186 0.08233 0.30029 0.0
C248 C 0.09586 0.07954 0.3697 0.0
C249 C 0.07037 0.06604 0.36916 0.0
C250 C 0.11004 0.08295 0.39345 0.0
C251 C 0.13761 0.09588 0.39524 0.0
C252 C 0.15936 0.08665 0.37953 0.0
C253 C 0.18526 0.09901 0.38124 0.0
C254 C 0.1897 0.1205 0.39874 0.0
C255 C 0.16827 0.12963 0.4146 0.0
C256 C 0.14233 0.11735 0.41294 0.0
C257 C 0.04356 0.01176 0.46276 0.0
C258 C 0.04116 0.02772 0.48576 0.0
C259 C 0.05404 0.02188 0.44001 0.0
C260 C 0.06213 0.04826 0.43962 0.0
C261 C 0.06006 0.06412 0.46266 0.0
C262 C 0.0497 0.05401 0.4854 0.0
C263 C 0.07289 0.05937 0.41535 0.0
C264 C 0.09832 0.07301 0.4159 0.0
C265 C 0.05858 0.05619 0.39164 0.0
C266 C 0.03083 0.04362 0.38996 0.0
C267 C 0.00942 0.05282 0.40614 0.0
C268 C 0.98336 0.04077 0.4046 0.0
C269 C 0.9784 0.01963 0.38681 0.0
C270 C 0.99947 0.01053 0.37048 0.0
C271 C 0.02558 0.02249 0.37196 0.0
H272 H 0.95821 0.01032 0.38565 0.0
H273 H 0.20977 0.13004 0.40004 0.0
H274 H 0.39669 0.95623 0.78487 0.0
H275 H 0.41419 0.97416 0.82655 0.0
H276 H 0.4364 0.89784 0.84545 0.0
H277 H 0.41909 0.87966 0.80354 0.0
H278 H 0.40683 0.92566 0.88523 0.0
H279 H 0.4854 0.93875 0.82976 0.0
H280 H 0.50977 0.9542 0.79137 0.0
H281 H 0.48893 0.03246 0.81423 0.0
H282 H 0.4641 0.01743 0.85259 0.0
H283 H 0.48268 0.96081 0.99745 0.0
H284 H 0.46713 0.94352 0.95505 0.0
H285 H 0.46075 0.02133 0.93097 0.0
H286 H 0.47762 0.03881 0.97327 0.0
H287 H 0.48175 0.993 0.89331 0.0
H288 H 0.40308 0.98176 0.94774 0.0
H289 H 0.37692 0.96784 0.9858 0.0
H290 H 0.39484 0.88847 0.96471 0.0
H291 H 0.42143 0.90194 0.9267 0.0
C292 C 0.40541 0.94322 0.7978 0.0
C293 C 0.40649 0.91647 0.79085 0.0
C294 C 0.41548 0.95354 0.8216 0.0
C295 C 0.4267 0.93736 0.83904 0.0
C296 C 0.42784 0.91066 0.83223 0.0
C297 C 0.41805 0.90033 0.80825 0.0
C298 C 0.43661 0.94832 0.86463 0.0
C299 C 0.42348 0.9401 0.88707 0.0
C300 C 0.45765 0.96784 0.86691 0.0
C301 C 0.47266 0.97692 0.84391 0.0
C302 C 0.48581 0.95923 0.82648 0.0
C303 C 0.49975 0.96791 0.80475 0.0
C304 C 0.50083 0.99429 0.80032 0.0
C305 C 0.48804 0.01204 0.81766 0.0
C306 C 0.47406 1.00344 0.83942 0.0
C307 C 0.47784 0.9743 0.98321 0.0
C308 C 0.48117 1.00122 0.98882 0.0
C309 C 0.4688 0.96436 0.95894 0.0
C310 C 0.46215 0.98107 0.93987 0.0
C311 C 0.46563 0.008 0.94535 0.0
C312 C 0.47517 0.01799 0.96956 0.0
C313 C 0.45205 0.97031 0.91414 0.0
C314 C 0.46508 0.97858 0.89161 0.0
C315 C 0.43059 0.95109 0.91175 0.0
C316 C 0.41445 0.94289 0.93449 0.0
C317 C 0.40159 0.96135 0.95131 0.0
C318 C 0.38667 0.95354 0.97286 0.0
C319 C 0.38427 0.9273 0.9777 0.0
C320 C 0.39674 0.9088 0.96095 0.0
C321 C 0.41171 0.9165 0.93938 0.0
H322 H 0.37272 0.92129 0.9944 0.0
H323 H 0.51164 1.00098 0.78349 0.0
H324 H 0.60573 0.46548 0.90446 0.0
H325 H 0.59277 0.46144 0.85878 0.0
H326 H 0.58212 0.54396 0.86062 0.0
H327 H 0.59512 0.54821 0.90618 0.0
H328 H 0.5398 0.51488 0.83542 0.0
H329 H 0.639 0.52014 0.83571 0.0
H330 H 0.68471 0.50625 0.84728 0.0
H331 H 0.66767 0.431 0.80948 0.0
H332 H 0.62168 0.44435 0.798 0.0
H333 H 0.54882 0.54942 0.70707 0.0
H334 H 0.55468 0.54356 0.75292 0.0
H335 H 0.57094 0.46282 0.73512 0.0
H336 H 0.56609 0.46881 0.68883 0.0
H337 H 0.60734 0.48461 0.76856 0.0
H338 H 0.51035 0.48052 0.76359 0.0
H339 H 0.46462 0.49399 0.75168 0.0
H340 H 0.4764 0.56549 0.79803 0.0
H341 H 0.5224 0.55263 0.80993 0.0
C342 C 0.60048 0.48274 0.89517 0.0
C343 C 0.60155 0.50719 0.90888 0.0
C344 C 0.59315 0.4804 0.86909 0.0
C345 C 0.58665 0.50243 0.85635 0.0
C346 C 0.58705 0.52673 0.87015 0.0
C347 C 0.59459 0.52913 0.89614 0.0
C348 C 0.58015 0.50043 0.82842 0.0
C349 C 0.55457 0.50841 0.82075 0.0
C350 C 0.59915 0.49115 0.80942 0.0
C351 C 0.62679 0.48314 0.81629 0.0
C352 C 0.64491 0.50056 0.83008 0.0
C353 C 0.67089 0.4928 0.83658 0.0
C354 C 0.67906 0.46773 0.8292 0.0
C355 C 0.66129 0.45039 0.81523 0.0
C356 C 0.63528 0.45805 0.80872 0.0
C357 C 0.55379 0.53042 0.71284 0.0
C358 C 0.55716 0.50961 0.69427 0.0
C359 C 0.55679 0.52702 0.73912 0.0
C360 C 0.56289 0.50267 0.7475 0.0
C361 C 0.56608 0.48175 0.72907 0.0
C362 C 0.56313 0.48515 0.70267 0.0
C363 C 0.56713 0.49961 0.77543 0.0
C364 C 0.59231 0.49068 0.78316 0.0
C365 C 0.54767 0.50787 0.79449 0.0
C366 C 0.51993 0.51567 0.78751 0.0
C367 C 0.50328 0.4992 0.7711 0.0
C368 C 0.47729 0.50672 0.76437 0.0
C369 C 0.46763 0.5306 0.77406 0.0
C370 C 0.48392 0.547 0.79054 0.0
C371 C 0.50994 0.53959 0.79731 0.0
H372 H 0.4475 0.53639 0.76882 0.0
H373 H 0.69918 0.46177 0.83423 0.0
H374 H 0.96414 0.53521 0.38292 0.0
H375 H 0.95977 0.5331 0.33576 0.0
H376 H 0.0452 0.55564 0.32811 0.0
H377 H 0.04975 0.5579 0.37516 0.0
H378 H 0.012 0.58433 0.29971 0.0
H379 H 0.02389 0.49394 0.31365 0.0
H380 H 0.01263 0.45253 0.33301 0.0
H381 H 0.93208 0.45114 0.3008 0.0
H382 H 0.94275 0.49275 0.28153 0.0
H383 H 0.04077 0.55519 0.16746 0.0
H384 H 0.0384 0.55875 0.21465 0.0
H385 H 0.95466 0.52924 0.21233 0.0
H386 H 0.95703 0.52539 0.1649 0.0
H387 H 0.98243 0.50528 0.24622 0.0
H388 H 0.97045 0.59354 0.22988 0.0
H389 H 0.98043 0.63518 0.21054 0.0
H390 H 0.05876 0.64153 0.24738 0.0
H391 H 0.04942 0.59973 0.26666 0.0
C392 C 0.98206 0.53946 0.37119 0.0
C393 C 0.0073 0.54671 0.38278 0.0
C394 C 0.97953 0.53823 0.34426 0.0
C395 C 1.00218 0.54418 0.32848 0.0
C396 C 0.02746 0.55104 0.33997 0.0
C397 C 0.03004 0.55219 0.36686 0.0
C398 C 0.99949 0.544 0.3 0.0
C399 C 0.00581 0.567 0.28794 0.0
C400 C 0.99042 0.52162 0.28485 0.0
C401 C 0.98402 0.49659 0.29639 0.0
C402 C 0.0037 0.48492 0.31088 0.0
C403 C 0.99744 0.46139 0.3218 0.0
C404 C 0.97163 0.44925 0.3182 0.0
C405 C 0.95205 0.46059 0.30361 0.0
C406 C 0.9582 0.48413 0.29267 0.0
C407 C 0.02167 0.54994 0.17696 0.0
C408 C 0.99903 0.54013 0.16248 0.0
C409 C 0.02034 0.55196 0.20397 0.0
C410 C 0.99624 0.54455 0.21705 0.0
C411 C 0.97346 0.53508 0.20264 0.0
C412 C 0.97484 0.53288 0.17558 0.0
C413 C 0.99544 0.54553 0.24577 0.0
C414 C 0.9884 0.52271 0.25793 0.0
C415 C 0.00361 0.56816 0.26105 0.0
C416 C 0.0093 0.59338 0.24956 0.0
C417 C 0.98989 0.60371 0.23371 0.0
C418 C 0.99542 0.62737 0.22278 0.0
C419 C 0.02024 0.64096 0.22769 0.0
C420 C 0.03955 0.63096 0.24359 0.0
C421 C 0.03413 0.6073 0.25455 0.0
H422 H 0.02448 0.65927 0.21921 0.0
H423 H 0.96682 0.43104 0.32667 0.0
H424 H 0.25782 0.13655 0.21196 0.0
H425 H 0.29953 0.11904 0.19252 0.0
H426 H 0.27081 0.13392 0.11663 0.0
H427 H 0.22967 0.15296 0.13632 0.0
H428 H 0.31079 0.08056 0.16413 0.0
H429 H 0.32258 0.14092 0.0738 0.0
H430 H 0.31261 0.18456 0.06069 0.0
H431 H 0.31542 0.21441 0.14013 0.0
H432 H 0.32572 0.17104 0.15367 0.0
H433 H 0.41401 0.02194 0.08554 0.0
H434 H 0.37121 0.04056 0.10166 0.0
H435 H 0.41243 0.11569 0.11301 0.0
H436 H 0.45464 0.09741 0.0952 0.0
H437 H 0.36621 0.12416 0.09771 0.0
H438 H 0.39525 0.07215 0.16438 0.0
H439 H 0.40999 0.03259 0.18348 0.0
H440 H 0.33381 0.99347 0.16212 0.0
H441 H 0.31875 0.03271 0.14262 0.0
C442 C 0.26044 0.13626 0.19112 0.0
C443 C 0.24043 0.14629 0.17572 0.0
C444 C 0.28434 0.1261 0.17996 0.0
C445 C 0.28875 0.12524 0.153 0.0
C446 C 0.26848 0.13488 0.1375 0.0
C447 C 0.24481 0.14566 0.14877 0.0
C448 C 0.31434 0.11395 0.14137 0.0
C449 C 0.32286 0.09019 0.14961 0.0
C450 C 0.33064 0.12649 0.12271 0.0
C451 C 0.3246 0.15267 0.11475 0.0
C452 C 0.32113 0.15682 0.08845 0.0
C453 C 0.31542 0.1815 0.08095 0.0
C454 C 0.31328 0.20222 0.09958 0.0
C455 C 0.31696 0.19832 0.12574 0.0
C456 C 0.3227 0.17369 0.13333 0.0
C457 C 0.41386 0.04244 0.09142 0.0
C458 C 0.43773 0.05818 0.0892 0.0
C459 C 0.38939 0.0531 0.10084 0.0
C460 C 0.38845 0.07956 0.10921 0.0
C461 C 0.41234 0.09528 0.10672 0.0
C462 C 0.43658 0.08478 0.09662 0.0
C463 C 0.3628 0.09091 0.12066 0.0
C464 C 0.35416 0.11456 0.11225 0.0
C465 C 0.34706 0.07888 0.14006 0.0
C466 C 0.356 0.05527 0.15181 0.0
C467 C 0.38172 0.05505 0.16362 0.0
C468 C 0.39012 0.0327 0.17453 0.0
C469 C 0.37288 0.01051 0.17395 0.0
C470 C 0.34716 0.01066 0.16252 0.0
C471 C 0.33868 0.03295 0.15155 0.0
H472 H 0.37942 0.99322 0.1824 0.0
H473 H 0.30884 0.22131 0.09373 0.0
H474 H 0.27759 0.89362 0.66668 0.0
H475 H 0.23453 0.89998 0.64467 0.0
H476 H 0.24984 0.9828 0.65227 0.0
H477 H 0.29258 0.97668 0.6744 0.0
H478 H 0.19877 0.9697 0.66805 0.0
H479 H 0.25712 0.94804 0.59402 0.0
H480 H 0.28861 0.92051 0.56774 0.0
H481 H 0.22735 0.85875 0.56264 0.0
H482 H 0.19561 0.88582 0.58919 0.0
H483 H 0.10048 0.01723 0.58926 0.0
H484 H 0.14392 0.0051 0.60661 0.0
H485 H 0.1215 0.92418 0.59058 0.0
H486 H 0.07812 0.9363 0.57228 0.0
H487 H 0.1744 0.9325 0.58014 0.0
H488 H 0.11542 0.95361 0.65226 0.0
H489 H 0.08332 0.98019 0.67884 0.0
H490 H 0.14497 0.04125 0.68878 0.0
H491 H 0.17734 0.01517 0.66195 0.0
C492 C 0.27189 0.91318 0.66346 0.0
C493 C 0.28851 0.93465 0.67239 0.0
C494 C 0.24731 0.91677 0.65081 0.0
C495 C 0.23899 0.94188 0.64675 0.0
C496 C 0.2558 0.96326 0.65526 0.0
C497 C 0.2803 0.9597 0.66786 0.0
C498 C 0.21228 0.94619 0.63468 0.0
C499 C 0.19358 0.96179 0.64871 0.0
C500 C 0.20506 0.93508 0.60984 0.0
C501 C 0.22411 0.91885 0.59382 0.0
C502 C 0.25045 0.92851 0.58747 0.0
C503 C 0.26832 0.91301 0.57249 0.0
C504 C 0.26001 0.88787 0.56359 0.0
C505 C 0.23377 0.87821 0.56959 0.0
C506 C 0.21583 0.89363 0.58458 0.0
C507 C 0.10481 0.99683 0.58928 0.0
C508 C 0.08573 0.9777 0.57965 0.0
C509 C 0.12964 0.98992 0.59931 0.0
C510 C 0.13574 0.9637 0.6005 0.0
C511 C 0.11718 0.94453 0.59003 0.0
C512 C 0.09239 0.95147 0.57962 0.0
C513 C 0.16118 0.95654 0.61329 0.0
C514 C 0.17954 0.94031 0.59952 0.0
C515 C 0.16805 0.96687 0.63852 0.0
C516 C 0.14874 0.9825 0.65493 0.0
C517 C 0.12208 0.97277 0.65999 0.0
C518 C 0.10385 0.98774 0.67511 0.0
C519 C 0.11209 0.01241 0.68545 0.0
C520 C 0.13861 0.02214 0.68074 0.0
C521 C 0.15692 0.00726 0.66561 0.0
H522 H 0.09793 0.02398 0.69714 0.0
H523 H 0.27388 0.8759 0.55199 0.0
H524 H 0.71924 0.45763 0.94965 0.0
H525 H 0.76877 0.45256 0.95142 0.0
H526 H 0.77375 0.51078 0.01516 0.0
H527 H 0.72438 0.516 0.01332 0.0
H528 H 0.81335 0.51896 0.9814 0.0
H529 H 0.77596 0.44472 0.02369 0.0
H530 H 0.7468 0.405 0.0262 0.0
H531 H 0.78997 0.36909 0.96123 0.0
H532 H 0.81915 0.40877 0.9581 0.0
H533 H 0.93236 0.49705 0.0471 0.0
H534 H 0.88402 0.49176 0.03648 0.0
H535 H 0.9049 0.4566 0.96122 0.0
H536 H 0.95379 0.46226 0.97145 0.0
H537 H 0.85412 0.43428 0.9941 0.0
H538 H 0.89356 0.5092 0.95415 0.0
H539 H 0.92309 0.54893 0.95427 0.0
H540 H 0.87569 0.58356 0.01707 0.0
H541 H 0.84622 0.5438 0.01769 0.0
C542 C 0.73083 0.46895 0.96435 0.0
C543 C 0.71787 0.48681 0.98172 0.0
C544 C 0.75916 0.46618 0.96523 0.0
C545 C 0.77495 0.48107 0.98363 0.0
C546 C 0.76201 0.49909 1.00078 0.0
C547 C 0.73379 0.50201 0.99977 0.0
C548 C 0.80498 0.47814 0.98518 0.0
C549 C 0.82217 0.50042 0.9842 0.0
C550 C 0.81666 0.45386 0.98826 0.0
C551 C 0.79953 0.42981 0.99048 0.0
C552 C 0.77913 0.4284 0.00985 0.0
C553 C 0.7626 0.4059 0.01139 0.0
C554 C 0.76646 0.38457 0.99383 0.0
C555 C 0.78696 0.38565 0.97478 0.0
C556 C 0.80351 0.40814 0.97312 0.0
C557 C 0.92681 0.48773 0.02843 0.0
C558 C 0.94697 0.48034 0.00999 0.0
C559 C 0.89914 0.4847 0.02245 0.0
C560 C 0.89104 0.47397 0.99806 0.0
C561 C 0.91089 0.46488 0.98018 0.0
C562 C 0.93875 0.4682 0.98603 0.0
C563 C 0.86207 0.47511 0.99069 0.0
C564 C 0.84518 0.45262 0.99072 0.0
C565 C 0.85057 0.4992 0.98684 0.0
C566 C 0.86784 0.52341 0.98612 0.0
C567 C 0.88957 0.5252 0.96814 0.0
C568 C 0.90629 0.54773 0.96805 0.0
C569 C 0.90132 0.56873 0.9857 0.0
C570 C 0.87955 0.56726 0.00342 0.0
C571 C 0.86282 0.54473 0.00364 0.0
H572 H 0.9143 0.58615 0.98562 0.0
H573 H 0.7536 0.36718 0.99502 0.0
H574 H 0.83436 0.63812 0.4941 0.0
H575 H 0.78569 0.63064 0.5033 0.0
H576 H 0.80523 0.60098 0.57649 0.0
H577 H 0.85401 0.608 0.56725 0.0
H578 H 0.77119 0.56837 0.54972 0.0
H579 H 0.77481 0.65919 0.57365 0.0
H580 H 0.78578 0.70543 0.56822 0.0
H581 H 0.73345 0.70302 0.50212 0.0
H582 H 0.7225 0.65663 0.50689 0.0
H583 H 0.63303 0.55372 0.59113 0.0
H584 H 0.68079 0.56921 0.58884 0.0
H585 H 0.66713 0.59663 0.51339 0.0
H586 H 0.61923 0.5814 0.51557 0.0
H587 H 0.69802 0.63167 0.54406 0.0
H588 H 0.69751 0.54046 0.51819 0.0
H589 H 0.68694 0.49405 0.52297 0.0
H590 H 0.73393 0.49747 0.59266 0.0
H591 H 0.74447 0.54405 0.58847 0.0
C592 C 0.82832 0.63032 0.51232 0.0
C593 C 0.84808 0.62342 0.52983 0.0
C594 C 0.80045 0.62618 0.51761 0.0
C595 C 0.7918 0.61531 0.54062 0.0
C596 C 0.81145 0.60933 0.55858 0.0
C597 C 0.83933 0.61343 0.55329 0.0
C598 C 0.76246 0.60831 0.54499 0.0
C599 C 0.75525 0.58235 0.54899 0.0
C600 C 0.7416 0.62639 0.54335 0.0
C601 C 0.74801 0.65435 0.5405 0.0
C602 C 0.7658 0.66846 0.55783 0.0
C603 C 0.772 0.69471 0.55489 0.0
C604 C 0.76037 0.70714 0.5348 0.0
C605 C 0.74247 0.69335 0.51765 0.0
C606 C 0.73624 0.66708 0.52048 0.0
C607 C 0.64014 0.56309 0.57406 0.0
C608 C 0.62237 0.56614 0.55344 0.0
C609 C 0.66745 0.57192 0.57279 0.0
C610 C 0.67754 0.58386 0.55084 0.0
C611 C 0.65973 0.58748 0.53049 0.0
C612 C 0.63241 0.57862 0.53173 0.0
C613 C 0.7069 0.59179 0.54873 0.0
C614 C 0.71406 0.61783 0.54505 0.0
C615 C 0.72778 0.57381 0.55064 0.0
C616 C 0.72153 0.54579 0.55316 0.0
C617 C 0.7054 0.53137 0.53465 0.0
C618 C 0.69944 0.50502 0.53723 0.0
C619 C 0.70969 0.49283 0.55815 0.0
C620 C 0.72597 0.50695 0.57649 0.0
C621 C 0.73196 0.53332 0.57401 0.0
H622 H 0.7051 0.47243 0.56012 0.0
H623 H 0.76519 0.72746 0.53256 0.0
H624 H 0.09988 0.24408 0.13414 0.0
H625 H 0.08433 0.281 0.11199 0.0
H626 H 0.16004 0.32318 0.13081 0.0
H627 H 0.17505 0.28671 0.15411 0.0
H628 H 0.12274 0.35487 0.13775 0.0
H629 H 0.14305 0.29494 0.06682 0.0
H630 H 0.14164 0.25327 0.04062 0.0
H631 H 0.05479 0.25823 0.03195 0.0
H632 H 0.05563 0.29978 0.05839 0.0
H633 H 0.07956 0.42608 0.01578 0.0
H634 H 0.09871 0.38835 0.03425 0.0
H635 H 0.05399 0.40559 0.10545 0.0
H636 H 0.03563 0.44367 0.08748 0.0
H637 H 0.08024 0.34506 0.05104 0.0
H638 H 0.08871 0.38913 0.15739 0.0
H639 H 0.09568 0.43212 0.18053 0.0
H640 H 0.13543 0.46103 0.11325 0.0
H641 H 0.1294 0.41807 0.08992 0.0
C642 C 0.11331 0.26115 0.13342 0.0
C643 C 0.13877 0.26235 0.14586 0.0
C644 C 0.10444 0.2823 0.12057 0.0
C645 C 0.1211 0.30498 0.11922 0.0
C646 C 0.14667 0.30606 0.13149 0.0
C647 C 0.15532 0.2851 0.14475 0.0
C648 C 0.11153 0.32782 0.10581 0.0
C649 C 0.11351 0.35262 0.11877 0.0
C650 C 0.09998 0.32534 0.08071 0.0
C651 C 0.09938 0.30037 0.06478 0.0
C652 C 0.12363 0.28706 0.05948 0.0
C653 C 0.12293 0.26347 0.04456 0.0
C654 C 0.09813 0.25308 0.03468 0.0
C655 C 0.07398 0.26629 0.03964 0.0
C656 C 0.07456 0.28987 0.05457 0.0
C657 C 0.07376 0.42178 0.03535 0.0
C658 C 0.05622 0.43809 0.05019 0.0
C659 C 0.0847 0.40014 0.04591 0.0
C660 C 0.07828 0.39422 0.0715 0.0
C661 C 0.05992 0.40997 0.08594 0.0
C662 C 0.04927 0.43174 0.07554 0.0
C663 C 0.09093 0.37188 0.08326 0.0
C664 C 0.08953 0.34724 0.07 0.0
C665 C 0.10387 0.37465 0.10771 0.0
C666 C 0.10833 0.4004 0.12183 0.0
C667 C 0.09913 0.4046 0.1476 0.0
C668 C 0.10294 0.42896 0.16075 0.0
C669 C 0.11598 0.44929 0.14836 0.0
C670 C 0.12538 0.44526 0.12283 0.0
C671 C 0.12177 0.4209 0.10964 0.0
H672 H 0.11881 0.46816 0.15854 0.0
H673 H 0.09764 0.23482 0.02313 0.0
H674 H 0.65109 0.346 0.94492 0.0
H675 H 0.63111 0.30238 0.94892 0.0
H676 H 0.66045 0.30334 0.02721 0.0
H677 H 0.68084 0.34673 0.02326 0.0
H678 H 0.66719 0.25685 1.00193 0.0
H679 H 0.59418 0.31707 0.01469 0.0
H680 H 0.56494 0.35207 1.0026 0.0
H681 H 0.53869 0.30567 0.93491 0.0
H682 H 0.56808 0.2705 0.94643 0.0
H683 H 0.5829 0.16378 0.05908 0.0
H684 H 0.60453 0.20466 0.04731 0.0
H685 H 0.5709 0.19281 0.97064 0.0
H686 H 0.5491 0.15162 0.98234 0.0
H687 H 0.56699 0.24296 0.9902 0.0
H688 H 0.63711 0.18105 0.97981 0.0
H689 H 0.66577 0.14596 0.99268 0.0
H690 H 0.69735 0.19539 0.0562 0.0
H691 H 0.66856 0.23067 0.04395 0.0
C692 C 0.65355 0.33683 0.96291 0.0
C693 C 0.66737 0.34995 0.98386 0.0
C694 C 0.64199 0.31194 0.96519 0.0
C695 C 0.64389 0.29978 0.98851 0.0
C696 C 0.65864 0.31239 0.00906 0.0
C697 C 0.67024 0.33724 0.00678 0.0
C698 C 0.6298 0.27431 0.99194 0.0
C699 C 0.64526 0.25387 0.99955 0.0
C700 C 0.60128 0.2702 0.98816 0.0
C701 C 0.58356 0.29129 0.98126 0.0
C702 C 0.58234 0.31442 0.99712 0.0
C703 C 0.56571 0.33427 0.99039 0.0
C704 C 0.55003 0.33113 0.96796 0.0
C705 C 0.55089 0.30809 0.95225 0.0
C706 C 0.56751 0.28819 0.95887 0.0
C707 C 0.58016 0.1698 0.03967 0.0
C708 C 0.56459 0.15431 0.02152 0.0
C709 C 0.59254 0.19317 0.03298 0.0
C710 C 0.58979 0.20151 0.00794 0.0
C711 C 0.5734 0.18663 0.99003 0.0
C712 C 0.56091 0.16318 0.99675 0.0
C713 C 0.60433 0.22568 1.00064 0.0
C714 C 0.58897 0.24584 0.99229 0.0
C715 C 0.63295 0.22955 0.00376 0.0
C716 C 0.65051 0.20845 0.01106 0.0
C717 C 0.65003 0.18439 0.99663 0.0
C718 C 0.66632 0.16447 0.0038 0.0
C719 C 0.68333 0.16843 0.02527 0.0
C720 C 0.68415 0.19235 0.03958 0.0
C721 C 0.66787 0.21232 0.03251 0.0
H722 H 0.69592 0.15298 0.0308 0.0
H723 H 0.53717 0.34652 0.96278 0.0
H724 H 0.97292 0.64892 0.52848 0.0
H725 H 0.96663 0.6957 0.52943 0.0
H726 H 0.98074 0.69376 0.44676 0.0
H727 H 0.98793 0.64721 0.44599 0.0
H728 H 0.00939 0.73057 0.46714 0.0
H729 H 0.91539 0.70605 0.47545 0.0
H730 H 0.87448 0.68345 0.49274 0.0
H731 H 0.88815 0.72212 0.56774 0.0
H732 H 0.92915 0.745 0.55089 0.0
H733 H 0.94209 0.86542 0.49326 0.0
H734 H 0.93679 0.8182 0.48499 0.0
H735 H 0.01741 0.80941 0.51539 0.0
H736 H 0.02293 0.85631 0.52326 0.0
H737 H 0.93608 0.77846 0.51477 0.0
H738 H 0.04951 0.76182 0.48329 0.0
H739 H 0.08687 0.78467 0.46054 0.0
H740 H 0.02816 0.82764 0.4218 0.0
H741 H 0.99045 0.80478 0.44402 0.0
C742 C 0.97412 0.65844 0.51049 0.0
C743 C 0.98075 0.64452 0.48715 0.0
C744 C 0.97046 0.68517 0.511 0.0
C745 C 0.97288 0.69829 0.4881 0.0
C746 C 0.97882 0.68414 0.46469 0.0
C747 C 0.98293 0.65757 0.46426 0.0
C748 C 0.97159 0.72701 0.48886 0.0
C749 C 0.99322 0.74096 0.47742 0.0
C750 C 0.95018 0.7407 0.50168 0.0
C751 C 0.92548 0.72709 0.51194 0.0
C752 C 0.90977 0.70963 0.49567 0.0
C753 C 0.88654 0.69679 0.50538 0.0
C754 C 0.87881 0.70122 0.53136 0.0
C755 C 0.89419 0.71866 0.54763 0.0
C756 C 0.91737 0.73165 0.53798 0.0
C757 C 0.95866 0.85334 0.49811 0.0
C758 C 0.98309 0.86454 0.50853 0.0
C759 C 0.95559 0.82642 0.49344 0.0
C760 C 0.97686 0.8103 0.4992 0.0
C761 C 1.00097 0.82148 0.5102 0.0
C762 C 0.00414 0.8483 0.51462 0.0
C763 C 0.97425 0.78179 0.49367 0.0
C764 C 0.952 0.76794 0.50425 0.0
C765 C 0.99456 0.76812 0.47923 0.0
C766 C 0.01716 0.78171 0.4655 0.0
C767 C 0.04457 0.77604 0.46982 0.0
C768 C 0.06581 0.78902 0.45703 0.0
C769 C 0.0599 0.80764 0.43979 0.0
C770 C 0.03272 0.81327 0.43523 0.0
C771 C 0.0114 0.80033 0.44794 0.0
H772 H 0.07637 0.81768 0.42993 0.0
H773 H 0.86087 0.69119 0.53884 0.0
H774 H 0.38666 0.77112 0.68707 0.0
H775 H 0.40783 0.73262 0.66688 0.0
H776 H 0.48337 0.77691 0.65683 0.0
H777 H 0.46185 0.81577 0.67601 0.0
H778 H 0.47563 0.74768 0.61576 0.0
H779 H 0.47334 0.73228 0.70556 0.0
H780 H 0.45296 0.72826 0.74904 0.0
H781 H 0.39893 0.66645 0.71896 0.0
H782 H 0.41875 0.67032 0.6752 0.0
H783 H 0.53318 0.60825 0.62527 0.0
H784 H 0.51657 0.64897 0.6451 0.0
H785 H 0.47595 0.66275 0.57407 0.0
H786 H 0.49359 0.6225 0.55378 0.0
H787 H 0.46917 0.66385 0.65701 0.0
H788 H 0.46859 0.72652 0.56799 0.0
H789 H 0.49495 0.73182 0.52755 0.0
H790 H 0.56566 0.70156 0.56152 0.0
H791 H 0.53985 0.6964 0.60226 0.0
C792 C 0.40781 0.77265 0.68065 0.0
C793 C 0.42261 0.79649 0.68326 0.0
C794 C 0.41996 0.75056 0.66918 0.0
C795 C 0.4474 0.75165 0.66064 0.0
C796 C 0.46219 0.77549 0.66321 0.0
C797 C 0.4499 0.7977 0.67429 0.0
C798 C 0.46056 0.72802 0.64881 0.0
C799 C 0.47424 0.72937 0.62483 0.0
C800 C 0.45935 0.70416 0.66078 0.0
C801 C 0.44736 0.70176 0.68706 0.0
C802 C 0.45697 0.71796 0.70818 0.0
C803 C 0.44554 0.71568 0.73288 0.0
C804 C 0.42462 0.69715 0.73675 0.0
C805 C 0.41512 0.68081 0.71593 0.0
C806 C 0.42646 0.68302 0.69118 0.0
C807 C 0.52093 0.62009 0.61378 0.0
C808 C 0.51478 0.6122 0.58791 0.0
C809 C 0.51134 0.64335 0.62519 0.0
C810 C 0.49512 0.65917 0.61111 0.0
C811 C 0.4889 0.65127 0.58524 0.0
C812 C 0.49891 0.62817 0.57366 0.0
C813 C 0.48407 0.68342 0.62384 0.0
C814 C 0.47066 0.68217 0.64796 0.0
C815 C 0.48639 0.70755 0.61242 0.0
C816 C 0.50218 0.71084 0.58808 0.0
C817 C 0.48979 0.72109 0.56686 0.0
C818 C 0.50464 0.72405 0.54388 0.0
C819 C 0.53193 0.71695 0.54194 0.0
C820 C 0.54448 0.70696 0.56301 0.0
C821 C 0.52975 0.70398 0.58604 0.0
H822 H 0.54338 0.71924 0.52413 0.0
H823 H 0.4158 0.69542 0.75589 0.0
H824 H 0.91769 0.84661 0.79641 0.0
H825 H 0.93508 0.86598 0.75722 0.0
H826 H 0.90848 0.94084 0.7875 0.0
H827 H 0.89017 0.92143 0.82606 0.0
H828 H 0.89516 0.93569 0.74026 0.0
H829 H 0.97871 0.92263 0.78369 0.0
H830 H 0.01299 0.89832 0.80561 0.0
H831 H 0.02255 0.84767 0.73707 0.0
H832 H 0.98805 0.87149 0.71484 0.0
H833 H 0.9716 0.00977 0.64884 0.0
H834 H 0.95622 0.99097 0.68914 0.0
H835 H 0.96421 0.91411 0.65274 0.0
H836 H 0.97911 0.93263 0.61243 0.0
H837 H 0.98774 0.92097 0.70289 0.0
H838 H 0.90317 0.93573 0.66019 0.0
H839 H 0.87031 0.96227 0.63904 0.0
H840 H 0.86472 0.01275 0.70816 0.0
H841 H 0.89788 0.98671 0.72961 0.0
C842 C 0.91578 0.86724 0.79481 0.0
C843 C 0.9025 0.88242 0.81445 0.0
C844 C 0.92584 0.87837 0.77238 0.0
C845 C 0.92342 0.90506 0.7693 0.0
C846 C 0.91058 0.92024 0.78916 0.0
C847 C 0.90018 0.90908 0.81133 0.0
C848 C 0.93337 0.91712 0.74517 0.0
C849 C 0.91559 0.93272 0.73241 0.0
C850 C 0.95986 0.91307 0.73439 0.0
C851 C 0.98058 0.89868 0.7477 0.0
C852 C 0.98796 0.90618 0.77336 0.0
C853 C 0.00746 0.89251 0.78583 0.0
C854 C 0.01989 0.87142 0.77276 0.0
C855 C 0.01288 0.86399 0.74718 0.0
C856 C 0.99337 0.87758 0.73463 0.0
C857 C 0.96999 0.98888 0.64939 0.0
C858 C 0.97648 0.97274 0.62732 0.0
C859 C 0.96119 0.97815 0.67244 0.0
C860 C 0.95903 0.9511 0.67398 0.0
C861 C 0.96576 0.935 0.65206 0.0
C862 C 0.97414 0.94567 0.62896 0.0
C863 C 0.94957 0.93946 0.69831 0.0
C864 C 0.9674 0.92394 0.71096 0.0
C865 C 0.92331 0.94387 0.70921 0.0
C866 C 0.90323 0.95943 0.69641 0.0
C867 C 0.89511 0.95262 0.67081 0.0
C868 C 0.8764 0.96755 0.65878 0.0
C869 C 0.86549 0.98923 0.67222 0.0
C870 C 0.87322 0.99597 0.69776 0.0
C871 C 0.89196 0.98113 0.70987 0.0
H872 H 0.85101 1.00076 0.66287 0.0
H873 H 0.03498 0.86086 0.78245 0.0
H874 H 0.62854 0.16946 0.31212 0.0
H875 H 0.61045 0.14942 0.27164 0.0
H876 H 0.6263 0.07365 0.29688 0.0
H877 H 0.64527 0.09372 0.33734 0.0
H878 H 0.63856 0.07499 0.24718 0.0
H879 H 0.56098 0.09772 0.29937 0.0
H880 H 0.53168 0.12583 0.32743 0.0
H881 H 0.52336 0.17662 0.26597 0.0
H882 H 0.55294 0.149 0.23763 0.0
H883 H 0.5479 0.01228 0.15095 0.0
H884 H 0.56785 0.02779 0.19269 0.0
H885 H 0.57008 0.10616 0.16897 0.0
H886 H 0.55061 0.09087 0.1272 0.0
H887 H 0.54711 0.10019 0.21935 0.0
H888 H 0.62697 0.07655 0.16804 0.0
H889 H 0.65495 0.04659 0.14066 0.0
H890 H 0.65671 0.99476 0.20196 0.0
H891 H 0.62836 0.02426 0.22959 0.0
C892 C 0.62832 0.14853 0.30909 0.0
C893 C 0.63817 0.1332 0.32813 0.0
C894 C 0.61781 0.13706 0.28593 0.0
C895 C 0.61639 0.10996 0.28138 0.0
C896 C 0.627 0.09459 0.29998 0.0
C897 C 0.63783 0.1061 0.32312 0.0
C898 C 0.60352 0.09786 0.25734 0.0
C899 C 0.61838 0.08021 0.24134 0.0
C900 C 0.57723 0.10473 0.24949 0.0
C901 C 0.55938 0.1214 0.26645 0.0
C902 C 0.55307 0.11498 0.29189 0.0
C903 C 0.53639 0.13082 0.30784 0.0
C904 C 0.52572 0.15303 0.29851 0.0
C905 C 0.53166 0.15942 0.27318 0.0
C906 C 0.54837 0.14367 0.25716 0.0
C907 C 0.55267 0.03281 0.15463 0.0
C908 C 0.54769 0.05034 0.13575 0.0
C909 C 0.56413 0.04161 0.17844 0.0
C910 C 0.5705 0.06811 0.18387 0.0
C911 C 0.56531 0.08564 0.16516 0.0
C912 C 0.55426 0.07684 0.14126 0.0
C913 C 0.58234 0.07777 0.20913 0.0
C914 C 0.56722 0.09491 0.22535 0.0
C915 C 0.60815 0.07014 0.21731 0.0
C916 C 0.62528 0.05246 0.20076 0.0
C917 C 0.6331 0.05865 0.17559 0.0
C918 C 0.64907 0.04178 0.16005 0.0
C919 C 0.65753 0.01875 0.16954 0.0
C920 C 0.6501 0.01258 0.19462 0.0
C921 C 0.63409 0.02937 0.21024 0.0
H922 H 0.66991 0.00571 0.15747 0.0
H923 H 0.5128 0.16526 0.31089 0.0
H924 H 0.4637 0.57388 0.20845 0.0
H925 H 0.46711 0.57155 0.25529 0.0
H926 H 0.55354 0.59121 0.25087 0.0
H927 H 0.55041 0.59305 0.20394 0.0
H928 H 0.54436 0.55293 0.28175 0.0
H929 H 0.50702 0.63619 0.27291 0.0
H930 H 0.47463 0.66708 0.25763 0.0
H931 H 0.4085 0.62842 0.2968 0.0
H932 H 0.44045 0.59706 0.31203 0.0
H933 H 0.56383 0.58217 0.41623 0.0
H934 H 0.56032 0.58746 0.36976 0.0
H935 H 0.47547 0.56154 0.37203 0.0
H936 H 0.47871 0.55659 0.41859 0.0
H937 H 0.48425 0.60382 0.34255 0.0
H938 H 0.52206 0.52019 0.35067 0.0
H939 H 0.55489 0.48982 0.36617 0.0
H940 H 0.62081 0.53017 0.32837 0.0
H941 H 0.58841 0.56103 0.31295 0.0
C942 C 0.48345 0.57767 0.21743 0.0
C943 C 0.50678 0.58371 0.20248 0.0
C944 C 0.48534 0.57647 0.24423 0.0
C945 C 0.51051 0.58159 0.25664 0.0
C946 C 0.5339 0.58726 0.24171 0.0
C947 C 0.53206 0.58833 0.21489 0.0
C948 C 0.51253 0.58075 0.28515 0.0
C949 C 0.53149 0.56436 0.29503 0.0
C950 C 0.49535 0.59526 0.30249 0.0
C951 C 0.47609 0.61412 0.2934 0.0
C952 C 0.48554 0.63414 0.27809 0.0
C953 C 0.46726 0.65176 0.26947 0.0
C954 C 0.43951 0.64967 0.27618 0.0
C955 C 0.42999 0.62999 0.29159 0.0
C956 C 0.44818 0.6123 0.30024 0.0
C957 C 0.54433 0.57796 0.4069 0.0
C958 C 0.52157 0.56885 0.42101 0.0
C959 C 0.54241 0.58079 0.38034 0.0
C960 C 0.51772 0.5746 0.36744 0.0
C961 C 0.49473 0.56633 0.38162 0.0
C962 C 0.49667 0.56335 0.40815 0.0
C963 C 0.51606 0.57604 0.33903 0.0
C964 C 0.49716 0.59249 0.3292 0.0
C965 C 0.53335 0.56168 0.32173 0.0
C966 C 0.55285 0.54308 0.33089 0.0
C967 C 0.54359 0.52272 0.34584 0.0
C968 C 0.56211 0.50539 0.35458 0.0
C969 C 0.58993 0.50811 0.34832 0.0
C970 C 0.59927 0.52812 0.33324 0.0
C971 C 0.58083 0.54552 0.32448 0.0
H972 H 0.60424 0.49467 0.3551 0.0
H973 H 0.4254 0.66334 0.26949 0.0
H974 H 0.12372 0.52112 0.67912 0.0
H975 H 0.11118 0.51926 0.72483 0.0
H976 H 0.0965 0.43648 0.71337 0.0
H977 H 0.10654 0.43873 0.66727 0.0
H978 H 0.05988 0.45425 0.74415 0.0
H979 H 0.15694 0.46493 0.74246 0.0
H980 H 0.20203 0.48441 0.73133 0.0
H981 H 0.18087 0.55613 0.77213 0.0
H982 H 0.1355 0.53719 0.78322 0.0
H983 H 0.06833 0.4409 0.88318 0.0
H984 H 0.07861 0.43718 0.83657 0.0
H985 H 0.07007 0.51951 0.83318 0.0
H986 H 0.05847 0.52334 0.87915 0.0
H987 H 0.12069 0.49795 0.81088 0.0
H988 H 0.02156 0.4846 0.81032 0.0
H989 H 0.97836 0.46204 0.82229 0.0
H990 H 0.00716 0.39053 0.78665 0.0
H991 H 0.05072 0.41262 0.7748 0.0
C992 C 0.11772 0.50255 0.68635 0.0
C993 C 0.11736 0.47986 0.6698 0.0
C994 C 0.11082 0.50144 0.71254 0.0
C995 C 0.10384 0.47757 0.72282 0.0
C996 C 0.10238 0.45506 0.70607 0.0
C997 C 0.10879 0.45625 0.67977 0.0
C998 C 0.09781 0.4762 0.75094 0.0
C999 C 0.07345 0.46346 0.7587 0.0
C1000 C 0.11542 0.48821 0.77007 0.0
C1001 C 0.14272 0.4997 0.76348 0.0
C1002 C 0.16183 0.48492 0.74891 0.0
C1003 C 0.18745 0.49585 0.74263 0.0
C1004 C 0.19428 0.52151 0.75097 0.0
C1005 C 0.17553 0.53626 0.76566 0.0
C1006 C 0.14987 0.52543 0.77197 0.0
C1007 C 0.0682 0.45815 0.87247 0.0
C1008 C 0.06288 0.48248 0.88508 0.0
C1009 C 0.07424 0.45599 0.84589 0.0
C1010 C 0.07526 0.47812 0.83161 0.0
C1011 C 0.06964 0.50228 0.844 0.0
C1012 C 0.06322 0.50441 0.87036 0.0
C1013 C 0.08271 0.47648 0.8038 0.0
C1014 C 0.10737 0.48858 0.7962 0.0
C1015 C 0.06572 0.46341 0.78492 0.0
C1016 C 0.03951 0.45019 0.79195 0.0
C1017 C 0.01878 0.46402 0.80526 0.0
C1018 C 0.99421 0.45132 0.81197 0.0
C1019 C 0.99005 0.42485 0.80531 0.0
C1020 C 0.01043 0.41102 0.79185 0.0
C1021 C 0.03505 0.42362 0.78511 0.0
H1022 H 0.97101 0.41506 0.81052 0.0
H1023 H 0.21413 0.52994 0.74609 0.0
H1024 H 0.77794 0.95453 0.91187 0.0
H1025 H 0.7388 0.96915 0.93786 0.0
H1026 H 0.73013 0.89426 0.96955 0.0
H1027 H 0.7694 0.87925 0.94321 0.0
H1028 H 0.68078 0.91174 0.95595 0.0
H1029 H 0.75693 0.94607 0.00596 0.0
H1030 H 0.80104 0.96977 0.0138 0.0
H1031 H 0.76646 0.03979 0.99111 0.0
H1032 H 0.72222 0.01642 0.98279 0.0
H1033 H 0.58186 0.95735 0.0495 0.0
H1034 H 0.62316 0.93887 0.02962 0.0
H1035 H 0.64271 0.01114 0.99541 0.0
H1036 H 0.60186 0.02988 0.01559 0.0
H1037 H 0.6876 0.99234 0.01357 0.0
H1038 H 0.61303 0.95792 0.96035 0.0
H1039 H 0.56875 0.93476 0.95171 0.0
H1040 H 0.60019 0.86553 0.9796 0.0
H1041 H 0.64456 0.8884 0.98874 0.0
C1042 C 0.76784 0.94109 0.92439 0.0
C1043 C 0.77696 0.9157 0.92548 0.0
C1044 C 0.74546 0.94957 0.93936 0.0
C1045 C 0.73168 0.93296 0.95598 0.0
C1046 C 0.74049 0.90748 0.95696 0.0
C1047 C 0.763 0.89895 0.94195 0.0
C1048 C 0.70788 0.94231 0.97191 0.0
C1049 C 0.68238 0.92909 0.96892 0.0
C1050 C 0.70976 0.96527 0.98846 0.0
C1051 C 0.73631 0.97943 0.99356 0.0
C1052 C 0.75878 0.96647 1.00246 0.0
C1053 C 0.7838 0.97986 0.00703 0.0
C1054 C 0.78657 0.00626 0.00291 0.0
C1055 C 0.76429 0.01934 0.99428 0.0
C1056 C 0.73923 0.00604 0.98967 0.0
C1057 C 0.59503 0.96937 0.03786 0.0
C1058 C 0.58843 0.99509 0.03407 0.0
C1059 C 0.61859 0.95871 0.02638 0.0
C1060 C 0.63593 0.97346 0.01067 0.0
C1061 C 0.6297 0.99932 0.00739 0.0
C1062 C 0.60624 0.01001 0.01892 0.0
C1063 C 0.66038 0.96201 0.99733 0.0
C1064 C 0.68602 0.97484 1.0008 0.0
C1065 C 0.65859 0.93878 0.98114 0.0
C1066 C 0.632 0.92495 0.97549 0.0
C1067 C 0.61043 0.93781 0.96482 0.0
C1068 C 0.58533 0.92473 0.95981 0.0
C1069 C 0.58163 0.89871 0.96518 0.0
C1070 C 0.60306 0.8857 0.9755 0.0
C1071 C 0.6282 0.8987 0.98058 0.0
H1072 H 0.56218 0.88862 0.96129 0.0
H1073 H 0.80596 0.01659 0.00645 0.0
H1074 H 0.77214 0.146 0.44062 0.0
H1075 H 0.81108 0.12607 0.45931 0.0
H1076 H 0.76435 0.05376 0.4615 0.0
H1077 H 0.72484 0.07407 0.44394 0.0
H1078 H 0.79062 0.06047 0.50357 0.0
H1079 H 0.81789 0.06515 0.41526 0.0
H1080 H 0.827 0.08509 0.37391 0.0
H1081 H 0.88718 0.13733 0.41061 0.0
H1082 H 0.87817 0.11793 0.45228 0.0
H1083 H 0.9132 0.98837 0.52107 0.0
H1084 H 0.87197 0.00491 0.50228 0.0
H1085 H 0.90219 0.08334 0.52015 0.0
H1086 H 0.94301 0.06711 0.53942 0.0
H1087 H 0.88433 0.07055 0.46664 0.0
H1088 H 0.85436 0.06427 0.55577 0.0
H1089 H 0.84574 0.04099 0.59528 0.0
H1090 H 0.79077 0.98711 0.55359 0.0
H1091 H 0.7994 0.00986 0.5137 0.0
C1092 C 0.77019 0.12581 0.44496 0.0
C1093 C 0.74542 0.11159 0.44069 0.0
C1094 C 0.79257 0.11435 0.45553 0.0
C1095 C 0.79099 0.08817 0.46143 0.0
C1096 C 0.76622 0.07394 0.45713 0.0
C1097 C 0.74364 0.08555 0.447 0.0
C1098 C 0.81492 0.07591 0.47264 0.0
C1099 C 0.81099 0.06237 0.49516 0.0
C1100 C 0.84171 0.07844 0.46197 0.0
C1101 C 0.84716 0.09023 0.43696 0.0
C1102 C 0.83291 0.08102 0.41457 0.0
C1103 C 0.83809 0.09221 0.39106 0.0
C1104 C 0.85761 0.11251 0.38965 0.0
C1105 C 0.87204 0.12163 0.41174 0.0
C1106 C 0.86693 0.11052 0.4353 0.0
C1107 C 0.91092 0.00913 0.5212 0.0
C1108 C 0.93135 0.02642 0.53179 0.0
C1109 C 0.88739 0.01853 0.51047 0.0
C1110 C 0.88411 0.04534 0.5098 0.0
C1111 C 0.90438 0.06259 0.52045 0.0
C1112 C 0.92762 0.05325 0.53158 0.0
C1113 C 0.85988 0.05555 0.49748 0.0
C1114 C 0.86384 0.06862 0.47479 0.0
C1115 C 0.83311 0.05214 0.50767 0.0
C1116 C 0.82777 0.03858 0.53168 0.0
C1117 C 0.84064 0.04731 0.55496 0.0
C1118 C 0.83571 0.03424 0.57744 0.0
C1119 C 0.81779 0.01253 0.57693 0.0
C1120 C 0.80469 0.0039 0.55395 0.0
C1121 C 0.80957 0.01688 0.5314 0.0
H1122 H 0.81401 1.00244 0.59435 0.0
H1123 H 0.86159 0.12114 0.37143 0.0
H1124 H 0.3267 0.62623 0.03268 0.0
H1125 H 0.27926 0.61138 0.02529 0.0
H1126 H 0.26668 0.60654 0.10753 0.0
H1127 H 0.3142 0.62107 0.11509 0.0
H1128 H 0.248 0.56332 0.08135 0.0
H1129 H 0.23862 0.65444 0.07575 0.0
H1130 H 0.24928 0.69777 0.06029 0.0
H1131 H 0.22952 0.6695 0.98262 0.0
H1132 H 0.2191 0.62587 0.99755 0.0
H1133 H 0.10294 0.54631 0.07931 0.0
H1134 H 0.14909 0.56493 0.08686 0.0
H1135 H 0.16513 0.56071 0.00455 0.0
H1136 H 0.11904 0.54178 0.99677 0.0
H1137 H 0.18148 0.60893 0.03085 0.0
H1138 H 0.19169 0.5176 0.03685 0.0
H1139 H 0.18114 0.47439 0.05264 0.0
H1140 H 0.19908 0.50373 0.13039 0.0
H1141 H 0.20934 0.54725 0.1151 0.0
C1142 C 0.31379 0.62225 0.04923 0.0
C1143 C 0.32428 0.62477 0.07447 0.0
C1144 C 0.28662 0.61385 0.04497 0.0
C1145 C 0.26937 0.60798 0.06587 0.0
C1146 C 0.27964 0.61093 0.09112 0.0
C1147 C 0.3068 0.61932 0.0954 0.0
C1148 C 0.24101 0.59762 0.0613 0.0
C1149 C 0.23333 0.57352 0.07067 0.0
C1150 C 0.22208 0.61061 0.0468 0.0
C1151 C 0.22835 0.63681 0.03774 0.0
C1152 C 0.23678 0.65739 0.05533 0.0
C1153 C 0.24273 0.68202 0.04667 0.0
C1154 C 0.24015 0.68637 0.02048 0.0
C1155 C 0.23155 0.6661 0.0029 0.0
C1156 C 0.22559 0.64142 0.01145 0.0
C1157 C 0.11626 0.54936 0.06279 0.0
C1158 C 0.1074 0.54249 0.03744 0.0
C1159 C 0.14262 0.55995 0.06716 0.0
C1160 C 0.16049 0.56405 0.04626 0.0
C1161 C 0.15159 0.55766 0.02091 0.0
C1162 C 0.12533 0.54676 0.01653 0.0
C1163 C 0.18861 0.57477 0.05097 0.0
C1164 C 0.1962 0.59886 0.0416 0.0
C1165 C 0.20745 0.56185 0.06555 0.0
C1166 C 0.20102 0.53576 0.07486 0.0
C1167 C 0.1931 0.51492 0.05735 0.0
C1168 C 0.18724 0.49035 0.0662 0.0
C1169 C 0.18942 0.48633 0.09251 0.0
C1170 C 0.1974 0.50688 0.11002 0.0
C1171 C 0.20325 0.5315 0.10127 0.0
H1172 H 0.18504 0.46726 0.09929 0.0
H1173 H 0.24476 0.70545 0.01382 0.0
H1174 H 0.22938 0.53221 0.55981 0.0
H1175 H 0.27934 0.53058 0.55639 0.0
H1176 H 0.27694 0.45955 0.59552 0.0
H1177 H 0.2268 0.46061 0.59839 0.0
H1178 H 0.31688 0.50526 0.61411 0.0
H1179 H 0.28922 0.44819 0.54041 0.0
H1180 H 0.263 0.43664 0.50068 0.0
H1181 H 0.30017 0.50188 0.46477 0.0
H1182 H 0.3263 0.51405 0.50446 0.0
H1183 H 0.45969 0.48964 0.59412 0.0
H1184 H 0.4104 0.47997 0.59774 0.0
H1185 H 0.39624 0.52776 0.53436 0.0
H1186 H 0.44532 0.53638 0.52987 0.0
H1187 H 0.36389 0.48825 0.52934 0.0
H1188 H 0.38762 0.54881 0.601 0.0
H1189 H 0.4127 0.56476 0.64027 0.0
H1190 H 0.38219 0.49895 0.67965 0.0
H1191 H 0.35719 0.48244 0.64047 0.0
C1192 C 0.23948 0.51623 0.56765 0.0
C1193 C 0.22424 0.49651 0.57932 0.0
C1194 C 0.26795 0.51532 0.56565 0.0
C1195 C 0.28165 0.49494 0.57568 0.0
C1196 C 0.2666 0.4754 0.58767 0.0
C1197 C 0.23804 0.476 0.58919 0.0
C1198 C 0.31178 0.49428 0.57359 0.0
C1199 C 0.3273 0.50106 0.59573 0.0
C1200 C 0.32508 0.48952 0.54943 0.0
C1201 C 0.30951 0.48216 0.5255 0.0
C1202 C 0.2916 0.46021 0.52414 0.0
C1203 C 0.2768 0.45353 0.5016 0.0
C1204 C 0.27986 0.46856 0.48024 0.0
C1205 C 0.29779 0.49027 0.48135 0.0
C1206 C 0.31262 0.49706 0.50385 0.0
C1207 C 0.44602 0.49787 0.58085 0.0
C1208 C 0.45634 0.51384 0.56178 0.0
C1209 C 0.41785 0.49247 0.58302 0.0
C1210 C 0.39948 0.50351 0.56663 0.0
C1211 C 0.40992 0.51896 0.54722 0.0
C1212 C 0.43803 0.52394 0.54472 0.0
C1213 C 0.36936 0.49967 0.56987 0.0
C1214 C 0.3537 0.49211 0.5479 0.0
C1215 C 0.35591 0.5043 0.59413 0.0
C1216 C 0.37081 0.51424 0.61772 0.0
C1217 C 0.38642 0.53765 0.61798 0.0
C1218 C 0.4006 0.54681 0.64023 0.0
C1219 C 0.39911 0.53283 0.66242 0.0
C1220 C 0.38337 0.50972 0.66243 0.0
C1221 C 0.36918 0.50046 0.64022 0.0
H1222 H 0.4101 0.53995 0.67962 0.0
H1223 H 0.26839 0.46334 0.46281 0.0
H1224 H 0.90525 0.73206 0.87733 0.0
H1225 H 0.92351 0.69436 0.8963 0.0
H1226 H 0.94829 0.74257 0.96382 0.0
H1227 H 0.93096 0.78052 0.94449 0.0
H1228 H 0.9861 0.71024 0.95317 0.0
H1229 H 0.88901 0.70033 0.96219 0.0
H1230 H 0.84089 0.69736 0.94831 0.0
H1231 H 0.85782 0.63044 0.8977 0.0
H1232 H 0.90616 0.63323 0.911 0.0
H1233 H 1.00138 0.60306 0.03336 0.0
H1234 H 0.98382 0.64199 0.01555 0.0
H1235 H 0.97496 0.6004 0.94092 0.0
H1236 H 0.99291 0.56173 0.95836 0.0
H1237 H 0.92867 0.62944 0.95695 0.0
H1238 H 0.0268 0.64091 0.9489 0.0
H1239 H 0.07401 0.64393 0.96526 0.0
H1240 H 0.05328 0.70849 0.01756 0.0
H1241 H 0.00579 0.7056 1.00175 0.0
C1242 C 0.91472 0.73469 0.89616 0.0
C1243 C 0.91652 0.75937 0.90939 0.0
C1244 C 0.925 0.71301 0.90713 0.0
C1245 C 0.93684 0.71532 0.93185 0.0
C1246 C 0.93922 0.7401 0.94481 0.0
C1247 C 0.92925 0.76184 0.93371 0.0
C1248 C 0.94669 0.692 0.94418 0.0
C1249 C 0.9733 0.69276 0.95428 0.0
C1250 C 0.93032 0.66886 0.94551 0.0
C1251 C 0.90128 0.66717 0.93739 0.0
C1252 C 0.88253 0.68511 0.94794 0.0
C1253 C 0.8552 0.68344 0.9402 0.0
C1254 C 0.84632 0.66377 0.92208 0.0
C1255 C 0.86474 0.64569 0.9117 0.0
C1256 C 0.8921 0.6473 0.91934 0.0
C1257 C 0.99572 0.60224 0.01316 0.0
C1258 C 0.99877 0.57933 0.99725 0.0
C1259 C 0.98573 0.62451 0.00299 0.0
C1260 C 0.9782 0.62418 0.97684 0.0
C1261 C 0.98067 0.60116 0.96112 0.0
C1262 C 0.99109 0.5791 0.97111 0.0
C1263 C 0.96794 0.6478 0.96569 0.0
C1264 C 0.9413 0.64704 0.95585 0.0
C1265 C 0.98412 0.67102 0.96493 0.0
C1266 C 0.01267 0.67285 0.97435 0.0
C1267 C 0.03224 0.6556 0.96405 0.0
C1268 C 0.05906 0.65732 0.97319 0.0
C1269 C 0.06662 0.67634 0.99249 0.0
C1270 C 0.04738 0.69374 1.00264 0.0
C1271 C 0.02052 0.69208 0.99359 0.0
H1272 H 0.0874 0.67764 0.99954 0.0
H1273 H 0.82515 0.6625 0.91612 0.0
H1274 H 0.42792 0.67613 0.12682 0.0
H1275 H 0.42525 0.72302 0.12411 0.0
H1276 H 0.50605 0.72562 0.08953 0.0
H1277 H 0.50859 0.67876 0.09162 0.0
H1278 H 0.50028 0.76124 0.13092 0.0
H1279 H 0.45043 0.73202 0.0533 0.0
H1280 H 0.41341 0.70747 0.02954 0.0
H1281 H 0.35329 0.74946 0.07491 0.0
H1282 H 0.38998 0.77402 0.0992 0.0
H1283 H 0.51956 0.88248 0.08188 0.0
H1284 H 0.51263 0.83619 0.08682 0.0
H1285 H 0.43034 0.84872 0.115 0.0
H1286 H 0.43712 0.8954 0.1098 0.0
H1287 H 0.43191 0.80613 0.08187 0.0
H1288 H 0.48029 0.83773 0.15719 0.0
H1289 H 0.51631 0.86213 0.18243 0.0
H1290 H 0.57766 0.81555 0.14412 0.0
H1291 H 0.54205 0.7911 0.11835 0.0
C1292 C 0.4447 0.6865 0.11783 0.0
C1293 C 0.46822 0.67361 0.1089 0.0
C1294 C 0.44328 0.71337 0.11657 0.0
C1295 C 0.4654 0.72775 0.10649 0.0
C1296 C 0.48876 0.71487 0.09739 0.0
C1297 C 0.49015 0.6881 0.09856 0.0
C1298 C 0.465 0.75637 0.10641 0.0
C1299 C 0.48548 0.77106 0.12002 0.0
C1300 C 0.44497 0.76917 0.09309 0.0
C1301 C 0.42294 0.75464 0.07826 0.0
C1302 C 0.42931 0.73587 0.05835 0.0
C1303 C 0.40839 0.72198 0.04476 0.0
C1304 C 0.38101 0.72684 0.05077 0.0
C1305 C 0.37451 0.74568 0.07031 0.0
C1306 C 0.39535 0.75961 0.08398 0.0
C1307 C 0.50006 0.87546 0.08937 0.0
C1308 C 0.47902 0.89263 0.09584 0.0
C1309 C 0.4961 0.84897 0.09214 0.0
C1310 C 0.47115 0.83904 0.10177 0.0
C1311 C 0.4498 0.856 0.10766 0.0
C1312 C 0.4537 0.88262 0.10471 0.0
C1313 C 0.46779 0.81094 0.10568 0.0
C1314 C 0.44656 0.79636 0.09298 0.0
C1315 C 0.48696 0.79816 0.1201 0.0
C1316 C 0.50848 0.81269 0.1357 0.0
C1317 C 0.50148 0.83279 0.15402 0.0
C1318 C 0.52182 0.84662 0.16844 0.0
C1319 C 0.54926 0.84042 0.16485 0.0
C1320 C 0.5564 0.82033 0.14687 0.0
C1321 C 0.53614 0.80646 0.13237 0.0
H1322 H 0.56498 0.85115 0.17603 0.0
H1323 H 0.36484 0.71605 0.04024 0.0
H1324 H 0.12367 0.33343 0.5901 0.0
H1325 H 0.10384 0.28964 0.59161 0.0
H1326 H 0.09926 0.29905 0.675 0.0
H1327 H 0.11943 0.34309 0.67371 0.0
H1328 H 0.11685 0.2506 0.65728 0.0
H1329 H 0.0424 0.30408 0.64268 0.0
H1330 H 0.01764 0.33783 0.62222 0.0
H1331 H 0.02118 0.29369 0.54899 0.0
H1332 H 0.04634 0.25984 0.56892 0.0
H1333 H 0.03227 0.13214 0.64943 0.0
H1334 H 0.04577 0.17781 0.66084 0.0
H1335 H 0.06396 0.18873 0.58039 0.0
H1336 H 0.05071 0.14346 0.56902 0.0
H1337 H 0.03386 0.22855 0.60499 0.0
H1338 H 0.11428 0.17875 0.61918 0.0
H1339 H 0.13934 0.14524 0.63975 0.0
H1340 H 0.12352 0.18284 0.71476 0.0
H1341 H 0.09802 0.21639 0.69462 0.0
C1342 C 0.11864 0.32621 0.60881 0.0
C1343 C 0.12291 0.34184 0.63177 0.0
C1344 C 0.10719 0.30119 0.60963 0.0
C1345 C 0.09961 0.29132 0.63339 0.0
C1346 C 0.10481 0.30642 0.65647 0.0
C1347 C 0.1163 0.33155 0.65567 0.0
C1348 C 0.08579 0.26538 0.63372 0.0
C1349 C 0.09836 0.24588 0.64634 0.0
C1350 C 0.06171 0.25925 0.61938 0.0
C1351 C 0.04641 0.27948 0.60729 0.0
C1352 C 0.03806 0.30164 0.62217 0.0
C1353 C 0.02394 0.32079 0.61067 0.0
C1354 C 0.01788 0.31793 0.58431 0.0
C1355 C 0.02589 0.29588 0.56941 0.0
C1356 C 0.04005 0.27669 0.58081 0.0
C1357 C 0.03894 0.14446 0.63426 0.0
C1358 C 0.04068 0.13436 0.6084 0.0
C1359 C 0.04672 0.17039 0.64077 0.0
C1360 C 0.05596 0.18652 0.62144 0.0
C1361 C 0.05688 0.17658 0.59557 0.0
C1362 C 0.04947 0.15073 0.58913 0.0
C1363 C 0.06545 0.21366 0.62777 0.0
C1364 C 0.05199 0.23341 0.61642 0.0
C1365 C 0.08859 0.21999 0.64337 0.0
C1366 C 0.10393 0.19986 0.65544 0.0
C1367 C 0.11592 0.17973 0.64008 0.0
C1368 C 0.13025 0.16076 0.65165 0.0
C1369 C 0.13293 0.16186 0.67855 0.0
C1370 C 0.12136 0.18198 0.69393 0.0
C1371 C 0.10698 0.20097 0.68245 0.0
H1372 H 0.14405 0.14716 0.68748 0.0
H1373 H 0.00694 0.33277 0.57544 0.0
H1374 H 0.57777 0.25068 0.45674 0.0
H1375 H 0.56816 0.29393 0.47577 0.0
H1376 H 0.64794 0.32197 0.45124 0.0
H1377 H 0.65794 0.27853 0.43253 0.0
H1378 H 0.63612 0.34267 0.49833 0.0
H1379 H 0.59064 0.333 0.41687 0.0
H1380 H 0.56016 0.31195 0.38353 0.0
H1381 H 0.4916 0.31912 0.43605 0.0
H1382 H 0.52176 0.33992 0.46983 0.0
H1383 H 0.56131 0.47295 0.48741 0.0
H1384 H 0.57509 0.43044 0.46937 0.0
H1385 H 0.58141 0.40464 0.54653 0.0
H1386 H 0.56816 0.44729 0.56475 0.0
H1387 H 0.55221 0.38403 0.47102 0.0
H1388 H 0.63112 0.36043 0.54785 0.0
H1389 H 0.66414 0.38355 0.57762 0.0
H1390 H 0.67052 0.44673 0.5279 0.0
H1391 H 0.63784 0.42388 0.49772 0.0
C1392 C 0.59339 0.26597 0.45552 0.0
C1393 C 0.61857 0.26114 0.44292 0.0
C1394 C 0.5878 0.29076 0.46634 0.0
C1395 C 0.60713 0.31136 0.46457 0.0
C1396 C 0.63266 0.30642 0.45279 0.0
C1397 C 0.63833 0.28156 0.44206 0.0
C1398 C 0.60038 0.33815 0.47437 0.0
C1399 C 0.61775 0.35169 0.49239 0.0
C1400 C 0.57672 0.35022 0.46624 0.0
C1401 C 0.55851 0.3378 0.44595 0.0
C1402 C 0.5691 0.32992 0.42137 0.0
C1403 C 0.55188 0.31806 0.40238 0.0
C1404 C 0.52398 0.31414 0.40769 0.0
C1405 C 0.51323 0.32214 0.43197 0.0
C1406 C 0.53037 0.33398 0.45104 0.0
C1407 C 0.56572 0.45827 0.50058 0.0
C1408 C 0.56371 0.46359 0.52755 0.0
C1409 C 0.57354 0.43393 0.49021 0.0
C1410 C 0.57957 0.41435 0.50655 0.0
C1411 C 0.57734 0.41953 0.5335 0.0
C1412 C 0.56963 0.44392 0.5439 0.0
C1413 C 0.58769 0.38842 0.49535 0.0
C1414 C 0.57055 0.37501 0.47704 0.0
C1415 C 0.61189 0.37675 0.50277 0.0
C1416 C 0.63181 0.39054 0.52067 0.0
C1417 C 0.63965 0.37922 0.54324 0.0
C1418 C 0.6583 0.39229 0.56019 0.0
C1419 C 0.66936 0.41664 0.55471 0.0
C1420 C 0.66187 0.42793 0.53221 0.0
C1421 C 0.64325 0.41494 0.51518 0.0
H1422 H 0.68377 0.42672 0.56788 0.0
H1423 H 0.51068 0.30496 0.39296 0.0
loop_
_geom_bond_atom_site_label_1
_geom_bond_atom_site_label_2
_geom_bond_distance
_geom_bond_site_symmetry_2
_ccdc_geom_bond_type
O0 Cd1 2.300 . S
O0 C7 1.275 . S
Cd1 O0 2.300 . S
Cd1 O9 2.381 . S
Cd1 O10 2.378 . S
O2 Cd3 2.385 . S
O2 C7 1.255 . S
Cd3 O2 2.385 . S
Cd3 O4 2.317 . S
O4 Cd3 2.317 . S
O4 C5 1.232 . S
C5 O4 1.232 . S
C5 O6 1.218 . S
O6 C5 1.218 . S
C7 O0 1.275 . S
C7 O2 1.255 . S
C8 O9 1.258 . S
C8 O10 1.256 . S
O9 Cd1 2.381 . S
O9 C8 1.258 . S
O10 Cd1 2.378 . S
O10 C8 1.256 . S
O11 Cd12 2.300 . S
O11 C18 1.275 . S
Cd12 O11 2.300 . S
Cd12 O20 2.381 . S
Cd12 O21 2.378 . S
O13 Cd14 2.385 . S
O13 C18 1.255 . S
Cd14 O13 2.385 . S
Cd14 O15 2.317 . S
O15 Cd14 2.317 . S
O15 C16 1.232 . S
C16 O15 1.232 . S
C16 O17 1.218 . S
O17 C16 1.218 . S
C18 O11 1.275 . S
C18 O13 1.255 . S
C19 O20 1.258 . S
C19 O21 1.256 . S
O20 Cd12 2.381 . S
O20 C19 1.258 . S
O21 Cd12 2.378 . S
O21 C19 1.256 . S
O22 Cd23 2.300 . S
O22 C29 1.275 . S
Cd23 O22 2.300 . S
Cd23 O31 2.381 . S
Cd23 O32 2.378 . S
O24 Cd25 2.385 . S
O24 C29 1.255 . S
Cd25 O24 2.385 . S
Cd25 O26 2.317 . S
O26 Cd25 2.317 . S
O26 C27 1.232 . S
C27 O26 1.232 . S
C27 O28 1.218 . S
O28 C27 1.218 . S
C29 O22 1.275 . S
C29 O24 1.255 . S
C30 O31 1.258 . S
C30 O32 1.256 . S
O31 Cd23 2.381 . S
O31 C30 1.258 . S
O32 Cd23 2.378 . S
O32 C30 1.256 . S
O33 Cd34 2.300 . S
O33 C40 1.275 . S
Cd34 O33 2.300 . S
Cd34 O42 2.381 . S
Cd34 O43 2.378 . S
O35 Cd36 2.385 . S
O35 C40 1.255 . S
Cd36 O35 2.385 . S
Cd36 O37 2.317 . S
O37 Cd36 2.317 . S
O37 C38 1.232 . S
C38 O37 1.232 . S
C38 O39 1.218 . S
O39 C38 1.218 . S
C40 O33 1.275 . S
C40 O35 1.255 . S
C41 O42 1.258 . S
C41 O43 1.256 . S
O42 Cd34 2.381 . S
O42 C41 1.258 . S
O43 Cd34 2.378 . S
O43 C41 1.256 . S
O44 Cd45 2.300 . S
O44 C51 1.275 . S
Cd45 O44 2.300 . S
Cd45 O53 2.381 . S
Cd45 O54 2.378 . S
O46 Cd47 2.385 . S
O46 C51 1.255 . S
Cd47 O46 2.385 . S
Cd47 O48 2.317 . S
O48 Cd47 2.317 . S
O48 C49 1.232 . S
C49 O48 1.232 . S
C49 O50 1.218 . S
O50 C49 1.218 . S
C51 O44 1.275 . S
C51 O46 1.255 . S
C52 O53 1.258 . S
C52 O54 1.256 . S
O53 Cd45 2.381 . S
O53 C52 1.258 . S
O54 Cd45 2.378 . S
O54 C52 1.256 . S
O55 Cd56 2.300 . S
O55 C62 1.275 . S
Cd56 O55 2.300 . S
Cd56 O64 2.381 . S
Cd56 O65 2.378 . S
O57 Cd58 2.385 . S
O57 C62 1.255 . S
Cd58 O57 2.385 . S
Cd58 O59 2.317 . S
O59 Cd58 2.317 . S
O59 C60 1.232 . S
C60 O59 1.232 . S
C60 O61 1.218 . S
O61 C60 1.218 . S
C62 O55 1.275 . S
C62 O57 1.255 . S
C63 O64 1.258 . S
C63 O65 1.256 . S
O64 Cd56 2.381 . S
O64 C63 1.258 . S
O65 Cd56 2.378 . S
O65 C63 1.256 . S
O66 Cd67 2.300 . S
O66 C73 1.275 . S
Cd67 O66 2.300 . S
Cd67 O75 2.381 . S
Cd67 O76 2.378 . S
O68 Cd69 2.385 . S
O68 C73 1.255 . S
Cd69 O68 2.385 . S
Cd69 O70 2.317 . S
O70 Cd69 2.317 . S
O70 C71 1.232 . S
C71 O70 1.232 . S
C71 O72 1.218 . S
O72 C71 1.218 . S
C73 O66 1.275 . S
C73 O68 1.255 . S
C74 O75 1.258 . S
C74 O76 1.256 . S
O75 Cd67 2.381 . S
O75 C74 1.258 . S
O76 Cd67 2.378 . S
O76 C74 1.256 . S
O77 Cd78 2.300 . S
O77 C84 1.275 . S
Cd78 O77 2.300 . S
Cd78 O86 2.381 . S
Cd78 O87 2.378 . S
O79 Cd80 2.385 . S
O79 C84 1.255 . S
Cd80 O79 2.385 . S
Cd80 O81 2.317 . S
O81 Cd80 2.317 . S
O81 C82 1.232 . S
C82 O81 1.232 . S
C82 O83 1.218 . S
O83 C82 1.218 . S
C84 O77 1.275 . S
C84 O79 1.255 . S
C85 O86 1.258 . S
C85 O87 1.256 . S
O86 Cd78 2.381 . S
O86 C85 1.258 . S
O87 Cd78 2.378 . S
O87 C85 1.256 . S
C88 O104 1.251 . S
C88 O106 1.254 1_545 S
N89 C90 1.333 . S
N89 C94 1.307 . S
N89 Zn95 2.020 . S
C90 N89 1.333 . S
C90 C91 1.379 . S
C90 H108 0.952 . S
C91 C90 1.379 . S
C91 C92 1.390 . S
C91 H118 0.949 . S
C92 C91 1.390 . S
C92 C93 1.357 . S
C93 C92 1.357 . S
C93 C94 1.370 . S
C93 H119 0.950 . S
C94 N89 1.307 . S
C94 C93 1.370 . S
C94 H112 0.948 . S
Zn95 N89 2.020 . S
Zn95 O104 2.039 . S
Zn95 O110 2.034 . S
Zn95 O114 2.025 . S
Zn95 O116 2.024 1_455 S
C96 O115 1.246 . S
C96 O116 1.249 . S
N97 C98 1.307 1_655 S
N97 C99 1.333 . S
N97 Zn103 2.020 1_655 S
C98 N97 1.307 1_455 S
C98 C102 1.370 1_455 S
C98 H109 0.948 . S
C99 N97 1.333 . S
C99 C100 1.379 . S
C99 H107 0.952 . S
C100 C99 1.379 . S
C100 C101 1.390 . S
C100 H120 0.949 . S
C101 C100 1.390 . S
C101 C102 1.357 . S
C102 C98 1.370 1_655 S
C102 C101 1.357 . S
C102 H121 0.950 1_655 S
Zn103 N97 2.020 1_455 S
Zn103 O106 2.025 . S
Zn103 O111 2.024 . S
Zn103 O113 2.039 1_455 S
Zn103 O115 2.034 1_465 S
O104 C88 1.251 . S
O104 Zn95 2.039 . S
C105 O110 1.246 1_565 S
C105 O111 1.249 . S
O106 C88 1.254 1_565 S
O106 Zn103 2.025 . S
H107 C99 0.952 . S
H108 C90 0.952 . S
H109 C98 0.948 . S
O110 Zn95 2.034 . S
O110 C105 1.246 1_545 S
O111 Zn103 2.024 . S
O111 C105 1.249 . S
H112 C94 0.948 . S
O113 Zn103 2.039 1_655 S
O113 C117 1.251 . S
O114 Zn95 2.025 . S
O114 C117 1.254 1_445 S
O115 C96 1.246 . S
O115 Zn103 2.034 1_645 S
O116 Zn95 2.024 1_655 S
O116 C96 1.249 . S
C117 O113 1.251 . S
C117 O114 1.254 1_665 S
H118 C91 0.949 . S
H119 C93 0.950 . S
H120 C100 0.949 . S
H121 C102 0.950 1_455 S
C122 O138 1.251 . S
C122 O140 1.254 1_545 S
N123 C124 1.333 . S
N123 C128 1.307 . S
N123 Zn129 2.020 . S
C124 N123 1.333 . S
C124 C125 1.379 . S
C124 H142 0.952 . S
C125 C124 1.379 . S
C125 C126 1.390 . S
C125 H152 0.949 . S
C126 C125 1.390 . S
C126 C127 1.357 . S
C127 C126 1.357 . S
C127 C128 1.370 . S
C127 H153 0.950 . S
C128 N123 1.307 . S
C128 C127 1.370 . S
C128 H146 0.948 . S
Zn129 N123 2.020 . S
Zn129 O138 2.039 . S
Zn129 O144 2.034 . S
Zn129 O148 2.025 . S
Zn129 O150 2.024 . S
C130 O149 1.246 1_545 S
C130 O150 1.249 . S
N131 C132 1.307 . S
N131 C133 1.333 . S
N131 Zn137 2.020 . S
C132 N131 1.307 . S
C132 C136 1.370 . S
C132 H143 0.948 . S
C133 N131 1.333 . S
C133 C134 1.379 . S
C133 H141 0.952 . S
C134 C133 1.379 . S
C134 C135 1.390 . S
C134 H154 0.949 . S
C135 C134 1.390 . S
C135 C136 1.357 . S
C136 C132 1.370 . S
C136 C135 1.357 . S
C136 H155 0.950 . S
Zn137 N131 2.020 . S
Zn137 O140 2.025 . S
Zn137 O145 2.024 1_565 S
Zn137 O147 2.039 1_565 S
Zn137 O149 2.034 . S
O138 C122 1.251 . S
O138 Zn129 2.039 . S
C139 O144 1.246 . S
C139 O145 1.249 . S
O140 C122 1.254 1_565 S
O140 Zn137 2.025 . S
H141 C133 0.952 . S
H142 C124 0.952 . S
H143 C132 0.948 . S
O144 Zn129 2.034 . S
O144 C139 1.246 . S
O145 Zn137 2.024 1_545 S
O145 C139 1.249 . S
H146 C128 0.948 . S
O147 Zn137 2.039 1_545 S
O147 C151 1.251 . S
O148 Zn129 2.025 . S
O148 C151 1.254 . S
O149 C130 1.246 1_565 S
O149 Zn137 2.034 . S
O150 Zn129 2.024 . S
O150 C130 1.249 . S
C151 O147 1.251 . S
C151 O148 1.254 . S
H152 C125 0.949 . S
H153 C127 0.950 . S
H154 C134 0.949 . S
H155 C136 0.950 . S
C156 O172 1.251 . S
C156 O174 1.254 . S
N157 C158 1.333 . S
N157 C162 1.307 . S
N157 Zn163 2.020 . S
C158 N157 1.333 . S
C158 C159 1.379 . S
C158 H176 0.952 . S
C159 C158 1.379 . S
C159 C160 1.390 . S
C159 H186 0.949 . S
C160 C159 1.390 . S
C160 C161 1.357 . S
C161 C160 1.357 . S
C161 C162 1.370 . S
C161 H187 0.950 . S
C162 N157 1.307 . S
C162 C161 1.370 . S
C162 H180 0.948 . S
Zn163 N157 2.020 . S
Zn163 O172 2.039 . S
Zn163 O178 2.034 . S
Zn163 O182 2.025 . S
Zn163 O184 2.024 . S
C164 O183 1.246 . S
C164 O184 1.249 . S
N165 C166 1.307 . S
N165 C167 1.333 . S
N165 Zn171 2.020 . S
C166 N165 1.307 . S
C166 C170 1.370 . S
C166 H177 0.948 . S
C167 N165 1.333 . S
C167 C168 1.379 . S
C167 H175 0.952 . S
C168 C167 1.379 . S
C168 C169 1.390 . S
C168 H188 0.949 . S
C169 C168 1.390 . S
C169 C170 1.357 . S
C170 C166 1.370 . S
C170 C169 1.357 . S
C170 H189 0.950 . S
Zn171 N165 2.020 . S
Zn171 O174 2.025 . S
Zn171 O179 2.024 . S
Zn171 O181 2.039 . S
Zn171 O183 2.034 . S
O172 C156 1.251 . S
O172 Zn163 2.039 . S
C173 O178 1.246 . S
C173 O179 1.249 . S
O174 C156 1.254 . S
O174 Zn171 2.025 . S
H175 C167 0.952 . S
H176 C158 0.952 . S
H177 C166 0.948 . S
O178 Zn163 2.034 . S
O178 C173 1.246 . S
O179 Zn171 2.024 . S
O179 C173 1.249 . S
H180 C162 0.948 . S
O181 Zn171 2.039 . S
O181 C185 1.251 . S
O182 Zn163 2.025 . S
O182 C185 1.254 . S
O183 C164 1.246 . S
O183 Zn171 2.034 . S
O184 Zn163 2.024 . S
O184 C164 1.249 . S
C185 O181 1.251 . S
C185 O182 1.254 . S
H186 C159 0.949 . S
H187 C161 0.950 . S
H188 C168 0.949 . S
H189 C170 0.950 . S
C190 O206 1.251 . S
C190 O208 1.254 1_554 S
N191 C192 1.333 . S
N191 C196 1.307 1_455 S
N191 Zn197 2.020 . S
C192 N191 1.333 . S
C192 C193 1.379 1_455 S
C192 H210 0.952 . S
C193 C192 1.379 1_655 S
C193 C194 1.390 . S
C193 H220 0.950 . S
C194 C193 1.390 . S
C194 C195 1.357 . S
C195 C194 1.357 . S
C195 C196 1.370 . S
C195 H221 0.950 . S
C196 N191 1.307 1_655 S
C196 C195 1.370 . S
C196 H214 0.948 . S
Zn197 N191 2.020 . S
Zn197 O206 2.039 . S
Zn197 O212 2.034 . S
Zn197 O216 2.025 . S
Zn197 O218 2.024 1_455 S
C198 O217 1.243 1_554 S
C198 O218 1.249 . S
N199 C200 1.307 . S
N199 C201 1.333 . S
N199 Zn205 2.020 . S
C200 N199 1.307 . S
C200 C204 1.370 . S
C200 H211 0.948 . S
C201 N199 1.333 . S
C201 C202 1.379 . S
C201 H209 0.952 . S
C202 C201 1.379 . S
C202 C203 1.390 . S
C202 H222 0.949 . S
C203 C202 1.390 . S
C203 C204 1.357 . S
C204 C200 1.370 . S
C204 C203 1.357 . S
C204 H223 0.950 . S
Zn205 N199 2.020 . S
Zn205 O208 2.025 . S
Zn205 O213 2.024 1_556 S
Zn205 O215 2.039 1_556 S
Zn205 O217 2.038 1_455 S
O206 C190 1.251 . S
O206 Zn197 2.039 . S
C207 O212 1.246 . S
C207 O213 1.249 . S
O208 C190 1.254 1_556 S
O208 Zn205 2.025 . S
H209 C201 0.952 . S
H210 C192 0.952 . S
H211 C200 0.948 . S
O212 Zn197 2.034 . S
O212 C207 1.246 . S
O213 Zn205 2.024 1_554 S
O213 C207 1.249 . S
H214 C196 0.948 . S
O215 Zn205 2.039 1_554 S
O215 C219 1.251 . S
O216 Zn197 2.025 . S
O216 C219 1.254 . S
O217 C198 1.243 1_556 S
O217 Zn205 2.038 1_655 S
O218 Zn197 2.024 1_655 S
O218 C198 1.249 . S
C219 O215 1.251 . S
C219 O216 1.254 . S
H220 C193 0.950 . S
H221 C195 0.950 . S
H222 C202 0.949 . S
H223 C204 0.950 . S
H224 C242 0.951 . S
H225 C244 0.951 . S
H226 C246 0.950 . S
H227 C247 0.950 . S
H228 C249 0.950 . S
H229 C252 0.950 . S
H230 C253 0.950 . S
H231 C255 0.950 . S
H232 C256 0.950 . S
H233 C257 0.951 1_565 S
H234 C259 0.951 . S
H235 C261 0.950 . S
H236 C262 0.950 . S
H237 C264 0.950 . S
H238 C267 0.950 . S
H239 C268 0.950 . S
H240 C270 0.950 . S
H241 C271 0.950 . S
C242 H224 0.951 . S
C242 C243 1.366 . S
C242 C244 1.388 . S
C243 C242 1.366 . S
C243 C247 1.385 . S
C244 H225 0.951 . S
C244 C242 1.388 . S
C244 C245 1.366 . S
C245 C244 1.366 . S
C245 C246 1.414 . S
C245 C248 1.499 . S
C246 H226 0.950 . S
C246 C245 1.414 . S
C246 C247 1.374 . S
C247 H227 0.950 . S
C247 C243 1.385 . S
C247 C246 1.374 . S
C248 C245 1.499 . S
C248 C249 1.373 . S
C248 C250 1.389 . S
C249 H228 0.950 . S
C249 C248 1.373 . S
C249 C265 1.377 . S
C250 C248 1.389 . S
C250 C251 1.524 . S
C250 C264 1.377 . S
C251 C250 1.524 . S
C251 C252 1.397 . S
C251 C256 1.363 . S
C252 H229 0.950 . S
C252 C251 1.397 . S
C252 C253 1.334 . S
C253 H230 0.950 . S
C253 C252 1.334 . S
C253 C254 1.287 . S
C254 C253 1.287 . S
C254 C255 1.524 . S
C254 H273 0.913 . S
C255 H231 0.950 . S
C255 C254 1.524 . S
C255 C256 1.415 . S
C256 H232 0.950 . S
C256 C251 1.363 . S
C256 C255 1.415 . S
C257 H233 0.951 1_545 S
C257 C258 1.366 . S
C257 C259 1.388 . S
C258 C257 1.366 . S
C258 C262 1.385 . S
C259 H234 0.951 . S
C259 C257 1.388 . S
C259 C260 1.366 . S
C260 C259 1.366 . S
C260 C261 1.414 . S
C260 C263 1.499 . S
C261 H235 0.950 . S
C261 C260 1.414 . S
C261 C262 1.374 . S
C262 H236 0.950 . S
C262 C258 1.385 . S
C262 C261 1.374 . S
C263 C260 1.499 . S
C263 C264 1.373 . S
C263 C265 1.389 . S
C264 H237 0.950 . S
C264 C250 1.377 . S
C264 C263 1.373 . S
C265 C249 1.377 . S
C265 C263 1.389 . S
C265 C266 1.524 . S
C266 C265 1.524 . S
C266 C267 1.397 . S
C266 C271 1.363 1_545 S
C267 H238 0.950 . S
C267 C266 1.397 . S
C267 C268 1.334 1_455 S
C268 H239 0.950 . S
C268 C267 1.334 1_655 S
C268 C269 1.287 1_545 S
C269 C268 1.287 1_565 S
C269 C270 1.524 1_655 S
C269 H272 0.999 . S
C270 H240 0.950 . S
C270 C269 1.524 1_455 S
C270 C271 1.415 . S
C271 H241 0.950 . S
C271 C266 1.363 1_565 S
C271 C270 1.415 . S
H272 C269 0.999 . S
H273 C254 0.913 . S
H274 C292 0.951 . S
H275 C294 0.951 . S
H276 C296 0.950 . S
H277 C297 0.950 . S
H278 C299 0.950 . S
H279 C302 0.950 . S
H280 C303 0.950 1_565 S
H281 C305 0.950 . S
H282 C306 0.950 . S
H283 C307 0.951 . S
H284 C309 0.951 . S
H285 C311 0.950 . S
H286 C312 0.950 . S
H287 C314 0.950 1_545 S
H288 C317 0.950 . S
H289 C318 0.950 . S
H290 C320 0.950 . S
H291 C321 0.950 . S
C292 H274 0.951 . S
C292 C293 1.366 . S
C292 C294 1.388 . S
C293 C292 1.366 . S
C293 C297 1.385 . S
C294 H275 0.951 . S
C294 C292 1.388 . S
C294 C295 1.366 . S
C295 C294 1.366 . S
C295 C296 1.414 . S
C295 C298 1.499 . S
C296 H276 0.950 . S
C296 C295 1.414 . S
C296 C297 1.374 . S
C297 H277 0.950 . S
C297 C293 1.385 . S
C297 C296 1.374 . S
C298 C295 1.499 . S
C298 C299 1.373 . S
C298 C300 1.389 . S
C299 H278 0.950 . S
C299 C298 1.373 . S
C299 C315 1.377 . S
C300 C298 1.389 . S
C300 C301 1.552 . S
C300 C314 1.377 . S
C301 C300 1.552 . S
C301 C302 1.414 . S
C301 C306 1.321 1_565 S
C302 H279 0.950 . S
C302 C301 1.414 . S
C302 C303 1.334 1_565 S
C303 H280 0.950 1_545 S
C303 C302 1.334 1_545 S
C303 C304 1.287 . S
C304 C303 1.287 . S
C304 C305 1.524 . S
C304 H323 0.913 . S
C305 H281 0.950 . S
C305 C304 1.524 . S
C305 C306 1.415 . S
C306 H282 0.950 . S
C306 C301 1.321 1_545 S
C306 C305 1.415 . S
C307 H283 0.951 . S
C307 C308 1.366 . S
C307 C309 1.388 . S
C308 C307 1.366 . S
C308 C312 1.385 1_565 S
C309 H284 0.951 . S
C309 C307 1.388 . S
C309 C310 1.366 . S
C310 C309 1.366 . S
C310 C311 1.414 1_565 S
C310 C313 1.499 . S
C311 H285 0.950 . S
C311 C310 1.414 1_545 S
C311 C312 1.374 . S
C312 H286 0.950 . S
C312 C308 1.385 1_545 S
C312 C311 1.374 . S
C313 C310 1.499 . S
C313 C314 1.373 . S
C313 C315 1.389 . S
C314 H287 0.950 1_565 S
C314 C300 1.377 . S
C314 C313 1.373 . S
C315 C299 1.377 . S
C315 C313 1.389 . S
C315 C316 1.524 . S
C316 C315 1.524 . S
C316 C317 1.397 . S
C316 C321 1.363 . S
C317 H288 0.950 . S
C317 C316 1.397 . S
C317 C318 1.334 . S
C318 H289 0.950 . S
C318 C317 1.334 . S
C318 C319 1.287 . S
C319 C318 1.287 . S
C319 C320 1.524 . S
C319 H322 0.999 . S
C320 H290 0.950 . S
C320 C319 1.524 . S
C320 C321 1.415 . S
C321 H291 0.950 . S
C321 C316 1.363 . S
C321 C320 1.415 . S
H322 C319 0.999 . S
H323 C304 0.913 . S
H324 C342 0.951 . S
H325 C344 0.951 . S
H326 C346 0.950 . S
H327 C347 0.950 . S
H328 C349 0.950 . S
H329 C352 0.950 . S
H330 C353 0.950 . S
H331 C355 0.950 . S
H332 C356 0.950 . S
H333 C357 0.951 . S
H334 C359 0.951 . S
H335 C361 0.950 . S
H336 C362 0.950 . S
H337 C364 0.950 . S
H338 C367 0.950 . S
H339 C368 0.950 . S
H340 C370 0.950 . S
H341 C371 0.950 . S
C342 H324 0.951 . S
C342 C343 1.366 . S
C342 C344 1.388 . S
C343 C342 1.366 . S
C343 C347 1.385 . S
C344 H325 0.951 . S
C344 C342 1.388 . S
C344 C345 1.366 . S
C345 C344 1.366 . S
C345 C346 1.414 . S
C345 C348 1.499 . S
C346 H326 0.950 . S
C346 C345 1.414 . S
C346 C347 1.374 . S
C347 H327 0.950 . S
C347 C343 1.385 . S
C347 C346 1.374 . S
C348 C345 1.499 . S
C348 C349 1.373 . S
C348 C350 1.389 . S
C349 H328 0.950 . S
C349 C348 1.373 . S
C349 C365 1.377 . S
C350 C348 1.389 . S
C350 C351 1.524 . S
C350 C364 1.377 . S
C351 C350 1.524 . S
C351 C352 1.397 . S
C351 C356 1.363 . S
C352 H329 0.950 . S
C352 C351 1.397 . S
C352 C353 1.334 . S
C353 H330 0.950 . S
C353 C352 1.334 . S
C353 C354 1.287 . S
C354 C353 1.287 . S
C354 C355 1.524 . S
C354 H373 0.913 . S
C355 H331 0.950 . S
C355 C354 1.524 . S
C355 C356 1.415 . S
C356 H332 0.950 . S
C356 C351 1.363 . S
C356 C355 1.415 . S
C357 H333 0.951 . S
C357 C358 1.366 . S
C357 C359 1.388 . S
C358 C357 1.366 . S
C358 C362 1.385 . S
C359 H334 0.951 . S
C359 C357 1.388 . S
C359 C360 1.366 . S
C360 C359 1.366 . S
C360 C361 1.414 . S
C360 C363 1.499 . S
C361 H335 0.950 . S
C361 C360 1.414 . S
C361 C362 1.374 . S
C362 H336 0.950 . S
C362 C358 1.385 . S
C362 C361 1.374 . S
C363 C360 1.499 . S
C363 C364 1.373 . S
C363 C365 1.389 . S
C364 H337 0.950 . S
C364 C350 1.377 . S
C364 C363 1.373 . S
C365 C349 1.377 . S
C365 C363 1.389 . S
C365 C366 1.524 . S
C366 C365 1.524 . S
C366 C367 1.397 . S
C366 C371 1.363 . S
C367 H338 0.950 . S
C367 C366 1.397 . S
C367 C368 1.334 . S
C368 H339 0.950 . S
C368 C367 1.334 . S
C368 C369 1.287 . S
C369 C368 1.287 . S
C369 C370 1.524 . S
C369 H372 0.999 . S
C370 H340 0.950 . S
C370 C369 1.524 . S
C370 C371 1.415 . S
C371 H341 0.950 . S
C371 C366 1.363 . S
C371 C370 1.415 . S
H372 C369 0.999 . S
H373 C354 0.913 . S
H374 C392 0.951 . S
H375 C394 0.951 . S
H376 C396 0.950 . S
H377 C397 0.950 . S
H378 C399 0.950 . S
H379 C402 0.950 . S
H380 C403 0.950 . S
H381 C405 0.950 . S
H382 C406 0.950 . S
H383 C407 0.951 . S
H384 C409 0.951 1_455 S
H385 C411 0.950 . S
H386 C412 0.950 . S
H387 C414 0.950 . S
H388 C417 0.952 1_655 S
H389 C418 0.950 . S
H390 C420 0.950 . S
H391 C421 0.950 . S
C392 H374 0.951 . S
C392 C393 1.366 . S
C392 C394 1.388 . S
C393 C392 1.366 . S
C393 C397 1.385 . S
C394 H375 0.951 . S
C394 C392 1.388 . S
C394 C395 1.366 . S
C395 C394 1.366 . S
C395 C396 1.414 . S
C395 C398 1.499 . S
C396 H376 0.950 . S
C396 C395 1.414 . S
C396 C397 1.374 . S
C397 H377 0.950 . S
C397 C393 1.385 . S
C397 C396 1.374 . S
C398 C395 1.499 . S
C398 C399 1.373 . S
C398 C400 1.389 . S
C399 H378 0.950 . S
C399 C398 1.373 . S
C399 C415 1.377 . S
C400 C398 1.389 . S
C400 C401 1.524 . S
C400 C414 1.377 . S
C401 C400 1.524 . S
C401 C402 1.397 . S
C401 C406 1.363 . S
C402 H379 0.950 . S
C402 C401 1.397 . S
C402 C403 1.334 . S
C403 H380 0.950 . S
C403 C402 1.334 . S
C403 C404 1.287 . S
C404 C403 1.287 . S
C404 C405 1.524 . S
C404 H423 0.913 . S
C405 H381 0.950 . S
C405 C404 1.524 . S
C405 C406 1.415 . S
C406 H382 0.950 . S
C406 C401 1.363 . S
C406 C405 1.415 . S
C407 H383 0.951 . S
C407 C408 1.366 1_455 S
C407 C409 1.388 1_455 S
C408 C407 1.366 1_655 S
C408 C412 1.385 . S
C409 H384 0.951 1_655 S
C409 C407 1.388 1_655 S
C409 C410 1.366 . S
C410 C409 1.366 . S
C410 C411 1.414 . S
C410 C413 1.499 . S
C411 H385 0.950 . S
C411 C410 1.414 . S
C411 C412 1.374 . S
C412 H386 0.950 . S
C412 C408 1.385 . S
C412 C411 1.374 . S
C413 C410 1.499 . S
C413 C414 1.373 . S
C413 C415 1.389 . S
C414 H387 0.950 . S
C414 C400 1.377 . S
C414 C413 1.373 . S
C415 C399 1.377 . S
C415 C413 1.389 . S
C415 C416 1.524 1_655 S
C416 C415 1.524 1_455 S
C416 C417 1.396 . S
C416 C421 1.363 . S
C417 H388 0.952 1_455 S
C417 C416 1.396 . S
C417 C418 1.332 . S
C418 H389 0.950 . S
C418 C417 1.332 . S
C418 C419 1.287 . S
C419 C418 1.287 . S
C419 C420 1.524 . S
C419 H422 0.999 . S
C420 H390 0.950 . S
C420 C419 1.524 . S
C420 C421 1.415 . S
C421 H391 0.950 . S
C421 C416 1.363 . S
C421 C420 1.415 . S
H422 C419 0.999 . S
H423 C404 0.913 . S
H424 C442 0.951 . S
H425 C444 0.951 . S
H426 C446 0.950 . S
H427 C447 0.950 . S
H428 C449 0.950 . S
H429 C452 0.950 . S
H430 C453 0.950 . S
H431 C455 0.950 . S
H432 C456 0.950 . S
H433 C457 0.951 . S
H434 C459 0.951 . S
H435 C461 0.950 . S
H436 C462 0.950 . S
H437 C464 0.950 . S
H438 C467 0.950 . S
H439 C468 0.950 . S
H440 C470 0.950 . S
H441 C471 0.950 . S
C442 H424 0.951 . S
C442 C443 1.366 . S
C442 C444 1.388 . S
C443 C442 1.366 . S
C443 C447 1.385 . S
C444 H425 0.951 . S
C444 C442 1.388 . S
C444 C445 1.366 . S
C445 C444 1.366 . S
C445 C446 1.414 . S
C445 C448 1.499 . S
C446 H426 0.950 . S
C446 C445 1.414 . S
C446 C447 1.374 . S
C447 H427 0.950 . S
C447 C443 1.385 . S
C447 C446 1.374 . S
C448 C445 1.499 . S
C448 C449 1.373 . S
C448 C450 1.389 . S
C449 H428 0.950 . S
C449 C448 1.373 . S
C449 C465 1.377 . S
C450 C448 1.389 . S
C450 C451 1.524 . S
C450 C464 1.377 . S
C451 C450 1.524 . S
C451 C452 1.397 . S
C451 C456 1.363 . S
C452 H429 0.950 . S
C452 C451 1.397 . S
C452 C453 1.334 . S
C453 H430 0.950 . S
C453 C452 1.334 . S
C453 C454 1.287 . S
C454 C453 1.287 . S
C454 C455 1.524 . S
C454 H473 0.913 . S
C455 H431 0.950 . S
C455 C454 1.524 . S
C455 C456 1.415 . S
C456 H432 0.950 . S
C456 C451 1.363 . S
C456 C455 1.415 . S
C457 H433 0.951 . S
C457 C458 1.366 . S
C457 C459 1.388 . S
C458 C457 1.366 . S
C458 C462 1.385 . S
C459 H434 0.951 . S
C459 C457 1.388 . S
C459 C460 1.366 . S
C460 C459 1.366 . S
C460 C461 1.414 . S
C460 C463 1.499 . S
C461 H435 0.950 . S
C461 C460 1.414 . S
C461 C462 1.374 . S
C462 H436 0.950 . S
C462 C458 1.385 . S
C462 C461 1.374 . S
C463 C460 1.499 . S
C463 C464 1.373 . S
C463 C465 1.389 . S
C464 H437 0.950 . S
C464 C450 1.377 . S
C464 C463 1.373 . S
C465 C449 1.377 . S
C465 C463 1.389 . S
C465 C466 1.524 . S
C466 C465 1.524 . S
C466 C467 1.397 . S
C466 C471 1.363 . S
C467 H438 0.950 . S
C467 C466 1.397 . S
C467 C468 1.334 1_545 S
C468 H439 0.950 . S
C468 C467 1.334 1_565 S
C468 C469 1.287 . S
C469 C468 1.287 . S
C469 C470 1.524 . S
C469 H472 0.999 . S
C470 H440 0.950 . S
C470 C469 1.524 . S
C470 C471 1.415 1_565 S
C471 H441 0.950 . S
C471 C466 1.363 . S
C471 C470 1.415 1_545 S
H472 C469 0.999 . S
H473 C454 0.913 . S
H474 C492 0.951 . S
H475 C494 0.951 . S
H476 C496 0.950 . S
H477 C497 0.950 . S
H478 C499 0.950 . S
H479 C502 0.950 . S
H480 C503 0.950 . S
H481 C505 0.950 . S
H482 C506 0.950 . S
H483 C507 0.951 . S
H484 C509 0.951 . S
H485 C511 0.950 . S
H486 C512 0.950 . S
H487 C514 0.950 . S
H488 C517 0.950 . S
H489 C518 0.950 . S
H490 C520 0.950 . S
H491 C521 0.950 . S
C492 H474 0.951 . S
C492 C493 1.366 . S
C492 C494 1.388 . S
C493 C492 1.366 . S
C493 C497 1.385 . S
C494 H475 0.951 . S
C494 C492 1.388 . S
C494 C495 1.366 . S
C495 C494 1.366 . S
C495 C496 1.414 . S
C495 C498 1.499 . S
C496 H476 0.950 . S
C496 C495 1.414 . S
C496 C497 1.374 . S
C497 H477 0.950 . S
C497 C493 1.385 . S
C497 C496 1.374 . S
C498 C495 1.499 . S
C498 C499 1.373 . S
C498 C500 1.389 . S
C499 H478 0.950 . S
C499 C498 1.373 . S
C499 C515 1.377 . S
C500 C498 1.389 . S
C500 C501 1.524 . S
C500 C514 1.377 . S
C501 C500 1.524 . S
C501 C502 1.397 . S
C501 C506 1.363 . S
C502 H479 0.950 . S
C502 C501 1.397 . S
C502 C503 1.334 . S
C503 H480 0.950 . S
C503 C502 1.334 . S
C503 C504 1.287 . S
C504 C503 1.287 . S
C504 C505 1.524 . S
C504 H523 0.913 . S
C505 H481 0.950 . S
C505 C504 1.524 . S
C505 C506 1.415 . S
C506 H482 0.950 . S
C506 C501 1.363 . S
C506 C505 1.415 . S
C507 H483 0.951 . S
C507 C508 1.366 . S
C507 C509 1.388 . S
C508 C507 1.366 . S
C508 C512 1.385 . S
C509 H484 0.951 . S
C509 C507 1.388 . S
C509 C510 1.366 . S
C510 C509 1.366 . S
C510 C511 1.414 . S
C510 C513 1.499 . S
C511 H485 0.950 . S
C511 C510 1.414 . S
C511 C512 1.374 . S
C512 H486 0.950 . S
C512 C508 1.385 . S
C512 C511 1.374 . S
C513 C510 1.499 . S
C513 C514 1.373 . S
C513 C515 1.389 . S
C514 H487 0.950 . S
C514 C500 1.377 . S
C514 C513 1.373 . S
C515 C499 1.377 . S
C515 C513 1.389 . S
C515 C516 1.524 1_565 S
C516 C515 1.524 1_545 S
C516 C517 1.397 . S
C516 C521 1.363 . S
C517 H488 0.950 . S
C517 C516 1.397 . S
C517 C518 1.334 . S
C518 H489 0.950 . S
C518 C517 1.334 . S
C518 C519 1.287 . S
C519 C518 1.287 . S
C519 C520 1.524 . S
C519 H522 0.999 . S
C520 H490 0.950 . S
C520 C519 1.524 . S
C520 C521 1.415 . S
C521 H491 0.950 . S
C521 C516 1.363 . S
C521 C520 1.415 . S
H522 C519 0.999 . S
H523 C504 0.913 . S
H524 C542 0.951 . S
H525 C544 0.951 . S
H526 C546 0.950 . S
H527 C547 0.950 . S
H528 C549 0.950 . S
H529 C552 0.950 . S
H530 C553 0.950 . S
H531 C555 0.950 . S
H532 C556 0.950 . S
H533 C557 0.951 . S
H534 C559 0.951 . S
H535 C561 0.950 . S
H536 C562 0.950 . S
H537 C564 0.950 . S
H538 C567 0.950 . S
H539 C568 0.950 . S
H540 C570 0.950 . S
H541 C571 0.950 . S
C542 H524 0.951 . S
C542 C543 1.366 . S
C542 C544 1.388 . S
C543 C542 1.366 . S
C543 C547 1.385 . S
C544 H525 0.951 . S
C544 C542 1.388 . S
C544 C545 1.366 . S
C545 C544 1.366 . S
C545 C546 1.414 . S
C545 C548 1.499 . S
C546 H526 0.950 . S
C546 C545 1.414 . S
C546 C547 1.374 . S
C547 H527 0.950 . S
C547 C543 1.385 . S
C547 C546 1.374 . S
C548 C545 1.499 . S
C548 C549 1.373 . S
C548 C550 1.389 . S
C549 H528 0.950 . S
C549 C548 1.373 . S
C549 C565 1.377 . S
C550 C548 1.389 . S
C550 C551 1.524 . S
C550 C564 1.377 . S
C551 C550 1.524 . S
C551 C552 1.397 1_556 S
C551 C556 1.363 . S
C552 H529 0.950 . S
C552 C551 1.397 1_554 S
C552 C553 1.334 . S
C553 H530 0.950 . S
C553 C552 1.334 . S
C553 C554 1.287 . S
C554 C553 1.287 . S
C554 C555 1.524 1_554 S
C554 H573 0.913 . S
C555 H531 0.950 . S
C555 C554 1.524 1_556 S
C555 C556 1.415 . S
C556 H532 0.950 . S
C556 C551 1.363 . S
C556 C555 1.415 . S
C557 H533 0.951 . S
C557 C558 1.353 1_554 S
C557 C559 1.388 . S
C558 C557 1.353 1_556 S
C558 C562 1.405 . S
C559 H534 0.951 . S
C559 C557 1.388 . S
C559 C560 1.366 1_554 S
C560 C559 1.366 1_556 S
C560 C561 1.414 . S
C560 C563 1.499 . S
C561 H535 0.950 . S
C561 C560 1.414 . S
C561 C562 1.374 . S
C562 H536 0.950 . S
C562 C558 1.405 . S
C562 C561 1.374 . S
C563 C560 1.499 . S
C563 C564 1.373 . S
C563 C565 1.389 . S
C564 H537 0.950 . S
C564 C550 1.377 . S
C564 C563 1.373 . S
C565 C549 1.377 . S
C565 C563 1.389 . S
C565 C566 1.524 . S
C566 C565 1.524 . S
C566 C567 1.397 . S
C566 C571 1.363 . S
C567 H538 0.950 . S
C567 C566 1.397 . S
C567 C568 1.334 . S
C568 H539 0.950 . S
C568 C567 1.334 . S
C568 C569 1.287 . S
C569 C568 1.287 . S
C569 C570 1.524 . S
C569 H572 0.999 . S
C570 H540 0.950 . S
C570 C569 1.524 . S
C570 C571 1.415 . S
C571 H541 0.950 . S
C571 C566 1.363 . S
C571 C570 1.415 . S
H572 C569 0.999 . S
H573 C554 0.913 . S
H574 C592 0.951 . S
H575 C594 0.951 . S
H576 C596 0.950 . S
H577 C597 0.950 . S
H578 C599 0.950 . S
H579 C602 0.950 . S
H580 C603 0.950 . S
H581 C605 0.950 . S
H582 C606 0.950 . S
H583 C607 0.951 . S
H584 C609 0.951 . S
H585 C611 0.950 . S
H586 C612 0.950 . S
H587 C614 0.950 . S
H588 C617 0.950 . S
H589 C618 0.950 . S
H590 C620 0.950 . S
H591 C621 0.950 . S
C592 H574 0.951 . S
C592 C593 1.366 . S
C592 C594 1.388 . S
C593 C592 1.366 . S
C593 C597 1.385 . S
C594 H575 0.951 . S
C594 C592 1.388 . S
C594 C595 1.366 . S
C595 C594 1.366 . S
C595 C596 1.414 . S
C595 C598 1.499 . S
C596 H576 0.950 . S
C596 C595 1.414 . S
C596 C597 1.374 . S
C597 H577 0.950 . S
C597 C593 1.385 . S
C597 C596 1.374 . S
C598 C595 1.499 . S
C598 C599 1.373 . S
C598 C600 1.389 . S
C599 H578 0.950 . S
C599 C598 1.373 . S
C599 C615 1.377 . S
C600 C598 1.389 . S
C600 C601 1.524 . S
C600 C614 1.377 . S
C601 C600 1.524 . S
C601 C602 1.397 . S
C601 C606 1.363 . S
C602 H579 0.950 . S
C602 C601 1.397 . S
C602 C603 1.334 . S
C603 H580 0.950 . S
C603 C602 1.334 . S
C603 C604 1.287 . S
C604 C603 1.287 . S
C604 C605 1.524 . S
C604 H623 0.913 . S
C605 H581 0.950 . S
C605 C604 1.524 . S
C605 C606 1.415 . S
C606 H582 0.950 . S
C606 C601 1.363 . S
C606 C605 1.415 . S
C607 H583 0.951 . S
C607 C608 1.366 . S
C607 C609 1.388 . S
C608 C607 1.366 . S
C608 C612 1.385 . S
C609 H584 0.951 . S
C609 C607 1.388 . S
C609 C610 1.366 . S
C610 C609 1.366 . S
C610 C611 1.414 . S
C610 C613 1.499 . S
C611 H585 0.950 . S
C611 C610 1.414 . S
C611 C612 1.374 . S
C612 H586 0.950 . S
C612 C608 1.385 . S
C612 C611 1.374 . S
C613 C610 1.499 . S
C613 C614 1.373 . S
C613 C615 1.389 . S
C614 H587 0.950 . S
C614 C600 1.377 . S
C614 C613 1.373 . S
C615 C599 1.377 . S
C615 C613 1.389 . S
C615 C616 1.524 . S
C616 C615 1.524 . S
C616 C617 1.397 . S
C616 C621 1.363 . S
C617 H588 0.950 . S
C617 C616 1.397 . S
C617 C618 1.334 . S
C618 H589 0.950 . S
C618 C617 1.334 . S
C618 C619 1.287 . S
C619 C618 1.287 . S
C619 C620 1.524 . S
C619 H622 0.999 . S
C620 H590 0.950 . S
C620 C619 1.524 . S
C620 C621 1.415 . S
C621 H591 0.950 . S
C621 C616 1.363 . S
C621 C620 1.415 . S
H622 C619 0.999 . S
H623 C604 0.913 . S
H624 C642 0.951 . S
H625 C644 0.951 . S
H626 C646 0.950 . S
H627 C647 0.950 . S
H628 C649 0.950 . S
H629 C652 0.950 . S
H630 C653 0.950 . S
H631 C655 0.950 . S
H632 C656 0.950 . S
H633 C657 0.951 . S
H634 C659 0.951 . S
H635 C661 0.950 . S
H636 C662 0.950 . S
H637 C664 0.950 . S
H638 C667 0.950 . S
H639 C668 0.950 . S
H640 C670 0.950 . S
H641 C671 0.950 . S
C642 H624 0.951 . S
C642 C643 1.366 . S
C642 C644 1.388 . S
C643 C642 1.366 . S
C643 C647 1.385 . S
C644 H625 0.951 . S
C644 C642 1.388 . S
C644 C645 1.366 . S
C645 C644 1.366 . S
C645 C646 1.414 . S
C645 C648 1.499 . S
C646 H626 0.950 . S
C646 C645 1.414 . S
C646 C647 1.374 . S
C647 H627 0.950 . S
C647 C643 1.385 . S
C647 C646 1.374 . S
C648 C645 1.499 . S
C648 C649 1.373 . S
C648 C650 1.389 . S
C649 H628 0.950 . S
C649 C648 1.373 . S
C649 C665 1.377 . S
C650 C648 1.389 . S
C650 C651 1.524 . S
C650 C664 1.377 . S
C651 C650 1.524 . S
C651 C652 1.397 . S
C651 C656 1.363 . S
C652 H629 0.950 . S
C652 C651 1.397 . S
C652 C653 1.334 . S
C653 H630 0.950 . S
C653 C652 1.334 . S
C653 C654 1.287 1_455 S
C654 C653 1.287 1_655 S
C654 C655 1.524 . S
C654 H673 0.913 . S
C655 H631 0.950 . S
C655 C654 1.524 . S
C655 C656 1.415 1_655 S
C656 H632 0.950 . S
C656 C651 1.363 . S
C656 C655 1.415 1_455 S
C657 H633 0.951 . S
C657 C658 1.366 . S
C657 C659 1.388 . S
C658 C657 1.366 . S
C658 C662 1.385 . S
C659 H634 0.951 . S
C659 C657 1.388 . S
C659 C660 1.366 . S
C660 C659 1.366 . S
C660 C661 1.414 . S
C660 C663 1.499 . S
C661 H635 0.950 . S
C661 C660 1.414 . S
C661 C662 1.374 . S
C662 H636 0.950 . S
C662 C658 1.385 . S
C662 C661 1.374 . S
C663 C660 1.499 . S
C663 C664 1.373 . S
C663 C665 1.389 . S
C664 H637 0.950 . S
C664 C650 1.377 . S
C664 C663 1.373 . S
C665 C649 1.377 . S
C665 C663 1.389 . S
C665 C666 1.524 . S
C666 C665 1.524 . S
C666 C667 1.397 . S
C666 C671 1.363 . S
C667 H638 0.950 . S
C667 C666 1.397 . S
C667 C668 1.334 . S
C668 H639 0.950 . S
C668 C667 1.334 . S
C668 C669 1.287 . S
C669 C668 1.287 . S
C669 C670 1.524 . S
C669 H672 0.999 . S
C670 H640 0.950 . S
C670 C669 1.524 . S
C670 C671 1.415 . S
C671 H641 0.950 . S
C671 C666 1.363 . S
C671 C670 1.415 . S
H672 C669 0.999 . S
H673 C654 0.913 . S
H674 C692 0.951 . S
H675 C694 0.951 . S
H676 C696 0.950 . S
H677 C697 0.950 . S
H678 C699 0.950 . S
H679 C702 0.942 1_554 S
H680 C703 0.950 . S
H681 C705 0.950 . S
H682 C706 0.950 . S
H683 C707 0.951 . S
H684 C709 0.951 . S
H685 C711 0.950 . S
H686 C712 0.950 . S
H687 C714 0.950 . S
H688 C717 0.950 . S
H689 C718 0.950 . S
H690 C720 0.950 . S
H691 C721 0.950 . S
C692 H674 0.951 . S
C692 C693 1.366 . S
C692 C694 1.388 . S
C693 C692 1.366 . S
C693 C697 1.385 1_556 S
C694 H675 0.951 . S
C694 C692 1.388 . S
C694 C695 1.366 . S
C695 C694 1.366 . S
C695 C696 1.414 1_556 S
C695 C698 1.499 . S
C696 H676 0.950 . S
C696 C695 1.414 1_554 S
C696 C697 1.374 . S
C697 H677 0.950 . S
C697 C693 1.385 1_554 S
C697 C696 1.374 . S
C698 C695 1.499 . S
C698 C699 1.373 1_556 S
C698 C700 1.389 . S
C699 H678 0.950 . S
C699 C698 1.373 1_554 S
C699 C715 1.377 . S
C700 C698 1.389 . S
C700 C701 1.524 . S
C700 C714 1.377 . S
C701 C700 1.524 . S
C701 C702 1.397 . S
C701 C706 1.363 . S
C702 H679 0.942 1_556 S
C702 C701 1.397 . S
C702 C703 1.334 . S
C703 H680 0.950 . S
C703 C702 1.334 . S
C703 C704 1.287 . S
C704 C703 1.287 . S
C704 C705 1.524 . S
C704 H723 0.913 . S
C705 H681 0.950 . S
C705 C704 1.524 . S
C705 C706 1.415 . S
C706 H682 0.950 . S
C706 C701 1.363 . S
C706 C705 1.415 . S
C707 H683 0.951 . S
C707 C708 1.366 . S
C707 C709 1.388 . S
C708 C707 1.366 . S
C708 C712 1.385 1_554 S
C709 H684 0.951 . S
C709 C707 1.388 . S
C709 C710 1.366 . S
C710 C709 1.366 . S
C710 C711 1.414 1_554 S
C710 C713 1.499 . S
C711 H685 0.950 . S
C711 C710 1.414 1_556 S
C711 C712 1.374 . S
C712 H686 0.950 . S
C712 C708 1.385 1_556 S
C712 C711 1.374 . S
C713 C710 1.499 . S
C713 C714 1.373 1_554 S
C713 C715 1.389 . S
C714 H687 0.950 . S
C714 C700 1.377 . S
C714 C713 1.373 1_556 S
C715 C699 1.377 . S
C715 C713 1.389 . S
C715 C716 1.524 . S
C716 C715 1.524 . S
C716 C717 1.397 . S
C716 C721 1.363 . S
C717 H688 0.950 . S
C717 C716 1.397 . S
C717 C718 1.334 . S
C718 H689 0.950 . S
C718 C717 1.334 . S
C718 C719 1.287 . S
C719 C718 1.287 . S
C719 C720 1.524 . S
C719 H722 0.999 . S
C720 H690 0.950 . S
C720 C719 1.524 . S
C720 C721 1.415 . S
C721 H691 0.950 . S
C721 C716 1.363 . S
C721 C720 1.415 . S
H722 C719 0.999 . S
H723 C704 0.913 . S
H724 C742 0.951 . S
H725 C744 0.951 . S
H726 C746 0.950 . S
H727 C747 0.950 . S
H728 C749 0.950 . S
H729 C752 0.950 . S
H730 C753 0.950 . S
H731 C755 0.950 . S
H732 C756 0.950 . S
H733 C757 0.951 . S
H734 C759 0.951 . S
H735 C761 0.950 . S
H736 C762 0.950 1_455 S
H737 C764 0.950 . S
H738 C767 0.950 . S
H739 C768 0.950 . S
H740 C770 0.950 . S
H741 C771 0.950 . S
C742 H724 0.951 . S
C742 C743 1.366 . S
C742 C744 1.388 . S
C743 C742 1.366 . S
C743 C747 1.385 . S
C744 H725 0.951 . S
C744 C742 1.388 . S
C744 C745 1.366 . S
C745 C744 1.366 . S
C745 C746 1.414 . S
C745 C748 1.499 . S
C746 H726 0.950 . S
C746 C745 1.414 . S
C746 C747 1.374 . S
C747 H727 0.950 . S
C747 C743 1.385 . S
C747 C746 1.374 . S
C748 C745 1.499 . S
C748 C749 1.373 . S
C748 C750 1.389 . S
C749 H728 0.950 . S
C749 C748 1.373 . S
C749 C765 1.377 . S
C750 C748 1.389 . S
C750 C751 1.524 . S
C750 C764 1.377 . S
C751 C750 1.524 . S
C751 C752 1.397 . S
C751 C756 1.363 . S
C752 H729 0.950 . S
C752 C751 1.397 . S
C752 C753 1.334 . S
C753 H730 0.950 . S
C753 C752 1.334 . S
C753 C754 1.287 . S
C754 C753 1.287 . S
C754 C755 1.524 . S
C754 H773 0.913 . S
C755 H731 0.950 . S
C755 C754 1.524 . S
C755 C756 1.415 . S
C756 H732 0.950 . S
C756 C751 1.363 . S
C756 C755 1.415 . S
C757 H733 0.951 . S
C757 C758 1.366 . S
C757 C759 1.388 . S
C758 C757 1.366 . S
C758 C762 1.385 . S
C759 H734 0.951 . S
C759 C757 1.388 . S
C759 C760 1.366 . S
C760 C759 1.366 . S
C760 C761 1.414 . S
C760 C763 1.499 . S
C761 H735 0.950 . S
C761 C760 1.414 . S
C761 C762 1.374 . S
C762 H736 0.950 1_655 S
C762 C758 1.385 . S
C762 C761 1.374 . S
C763 C760 1.499 . S
C763 C764 1.373 . S
C763 C765 1.389 . S
C764 H737 0.950 . S
C764 C750 1.377 . S
C764 C763 1.373 . S
C765 C749 1.377 . S
C765 C763 1.389 . S
C765 C766 1.524 . S
C766 C765 1.524 . S
C766 C767 1.397 . S
C766 C771 1.363 . S
C767 H738 0.950 . S
C767 C766 1.397 . S
C767 C768 1.334 . S
C768 H739 0.950 . S
C768 C767 1.334 . S
C768 C769 1.287 . S
C769 C768 1.287 . S
C769 C770 1.524 . S
C769 H772 0.999 . S
C770 H740 0.950 . S
C770 C769 1.524 . S
C770 C771 1.415 . S
C771 H741 0.950 . S
C771 C766 1.363 . S
C771 C770 1.415 . S
H772 C769 0.999 . S
H773 C754 0.913 . S
H774 C792 0.951 . S
H775 C794 0.951 . S
H776 C796 0.950 . S
H777 C797 0.950 . S
H778 C799 0.950 . S
H779 C802 0.950 . S
H780 C803 0.950 . S
H781 C805 0.950 . S
H782 C806 0.950 . S
H783 C807 0.951 . S
H784 C809 0.951 . S
H785 C811 0.950 . S
H786 C812 0.950 . S
H787 C814 0.950 . S
H788 C817 0.950 . S
H789 C818 0.950 . S
H790 C820 0.950 . S
H791 C821 0.950 . S
C792 H774 0.951 . S
C792 C793 1.366 . S
C792 C794 1.388 . S
C793 C792 1.366 . S
C793 C797 1.385 . S
C794 H775 0.951 . S
C794 C792 1.388 . S
C794 C795 1.366 . S
C795 C794 1.366 . S
C795 C796 1.414 . S
C795 C798 1.499 . S
C796 H776 0.950 . S
C796 C795 1.414 . S
C796 C797 1.374 . S
C797 H777 0.950 . S
C797 C793 1.385 . S
C797 C796 1.374 . S
C798 C795 1.499 . S
C798 C799 1.373 . S
C798 C800 1.389 . S
C799 H778 0.950 . S
C799 C798 1.373 . S
C799 C815 1.377 . S
C800 C798 1.389 . S
C800 C801 1.524 . S
C800 C814 1.377 . S
C801 C800 1.524 . S
C801 C802 1.397 . S
C801 C806 1.363 . S
C802 H779 0.950 . S
C802 C801 1.397 . S
C802 C803 1.334 . S
C803 H780 0.950 . S
C803 C802 1.334 . S
C803 C804 1.287 . S
C804 C803 1.287 . S
C804 C805 1.524 . S
C804 H823 0.913 . S
C805 H781 0.950 . S
C805 C804 1.524 . S
C805 C806 1.415 . S
C806 H782 0.950 . S
C806 C801 1.363 . S
C806 C805 1.415 . S
C807 H783 0.951 . S
C807 C808 1.366 . S
C807 C809 1.388 . S
C808 C807 1.366 . S
C808 C812 1.385 . S
C809 H784 0.951 . S
C809 C807 1.388 . S
C809 C810 1.366 . S
C810 C809 1.366 . S
C810 C811 1.414 . S
C810 C813 1.499 . S
C811 H785 0.950 . S
C811 C810 1.414 . S
C811 C812 1.374 . S
C812 H786 0.950 . S
C812 C808 1.385 . S
C812 C811 1.374 . S
C813 C810 1.499 . S
C813 C814 1.373 . S
C813 C815 1.389 . S
C814 H787 0.950 . S
C814 C800 1.377 . S
C814 C813 1.373 . S
C815 C799 1.377 . S
C815 C813 1.389 . S
C815 C816 1.524 . S
C816 C815 1.524 . S
C816 C817 1.397 . S
C816 C821 1.363 . S
C817 H788 0.950 . S
C817 C816 1.397 . S
C817 C818 1.334 . S
C818 H789 0.950 . S
C818 C817 1.334 . S
C818 C819 1.287 . S
C819 C818 1.287 . S
C819 C820 1.524 . S
C819 H822 0.999 . S
C820 H790 0.950 . S
C820 C819 1.524 . S
C820 C821 1.415 . S
C821 H791 0.950 . S
C821 C816 1.363 . S
C821 C820 1.415 . S
H822 C819 0.999 . S
H823 C804 0.913 . S
H824 C842 0.951 . S
H825 C844 0.951 . S
H826 C846 0.950 . S
H827 C847 0.950 . S
H828 C849 0.950 . S
H829 C852 0.969 . S
H830 C853 0.950 . S
H831 C855 0.950 . S
H832 C856 0.950 . S
H833 C857 0.952 1_545 S
H834 C859 0.951 1_545 S
H835 C861 0.950 . S
H836 C862 0.950 1_455 S
H837 C864 0.950 . S
H838 C867 0.950 . S
H839 C868 0.950 . S
H840 C870 0.950 . S
H841 C871 0.950 . S
C842 H824 0.951 . S
C842 C843 1.366 . S
C842 C844 1.388 . S
C843 C842 1.366 . S
C843 C847 1.385 . S
C844 H825 0.951 . S
C844 C842 1.388 . S
C844 C845 1.366 . S
C845 C844 1.366 . S
C845 C846 1.414 . S
C845 C848 1.499 . S
C846 H826 0.950 . S
C846 C845 1.414 . S
C846 C847 1.374 . S
C847 H827 0.950 . S
C847 C843 1.385 . S
C847 C846 1.374 . S
C848 C845 1.499 . S
C848 C849 1.373 . S
C848 C850 1.389 . S
C849 H828 0.950 . S
C849 C848 1.373 . S
C849 C865 1.377 . S
C850 C848 1.389 . S
C850 C851 1.524 . S
C850 C864 1.377 . S
C851 C850 1.524 . S
C851 C852 1.399 . S
C851 C856 1.363 1_655 S
C852 H829 0.969 . S
C852 C851 1.399 . S
C852 C853 1.314 1_655 S
C853 H830 0.950 . S
C853 C852 1.314 1_455 S
C853 C854 1.287 . S
C854 C853 1.287 . S
C854 C855 1.524 . S
C854 H873 0.913 . S
C855 H831 0.950 . S
C855 C854 1.524 . S
C855 C856 1.415 . S
C856 H832 0.950 . S
C856 C851 1.363 1_455 S
C856 C855 1.415 . S
C857 H833 0.952 1_565 S
C857 C858 1.365 . S
C857 C859 1.387 . S
C858 C857 1.365 . S
C858 C862 1.385 . S
C859 H834 0.951 1_565 S
C859 C857 1.387 . S
C859 C860 1.366 . S
C860 C859 1.366 . S
C860 C861 1.414 . S
C860 C863 1.499 . S
C861 H835 0.950 . S
C861 C860 1.414 . S
C861 C862 1.374 . S
C862 H836 0.950 1_655 S
C862 C858 1.385 . S
C862 C861 1.374 . S
C863 C860 1.499 . S
C863 C864 1.373 . S
C863 C865 1.389 . S
C864 H837 0.950 . S
C864 C850 1.377 . S
C864 C863 1.373 . S
C865 C849 1.377 . S
C865 C863 1.389 . S
C865 C866 1.524 . S
C866 C865 1.524 . S
C866 C867 1.397 . S
C866 C871 1.363 . S
C867 H838 0.950 . S
C867 C866 1.397 . S
C867 C868 1.334 . S
C868 H839 0.950 . S
C868 C867 1.334 . S
C868 C869 1.287 . S
C869 C868 1.287 . S
C869 C870 1.524 . S
C869 H872 0.999 . S
C870 H840 0.950 . S
C870 C869 1.524 . S
C870 C871 1.415 . S
C871 H841 0.950 . S
C871 C866 1.363 . S
C871 C870 1.415 . S
H872 C869 0.999 . S
H873 C854 0.913 . S
H874 C892 0.951 . S
H875 C894 0.951 . S
H876 C896 0.950 . S
H877 C897 0.950 . S
H878 C899 0.950 . S
H879 C902 0.950 . S
H880 C903 0.950 . S
H881 C905 0.950 . S
H882 C906 0.950 . S
H883 C907 0.951 . S
H884 C909 0.951 . S
H885 C911 0.950 . S
H886 C912 0.950 . S
H887 C914 0.950 . S
H888 C917 0.950 . S
H889 C918 0.950 . S
H890 C920 0.950 . S
H891 C921 0.950 . S
C892 H874 0.951 . S
C892 C893 1.366 . S
C892 C894 1.388 . S
C893 C892 1.366 . S
C893 C897 1.385 . S
C894 H875 0.951 . S
C894 C892 1.388 . S
C894 C895 1.366 . S
C895 C894 1.366 . S
C895 C896 1.414 . S
C895 C898 1.499 . S
C896 H876 0.950 . S
C896 C895 1.414 . S
C896 C897 1.374 . S
C897 H877 0.950 . S
C897 C893 1.385 . S
C897 C896 1.374 . S
C898 C895 1.499 . S
C898 C899 1.373 . S
C898 C900 1.389 . S
C899 H878 0.950 . S
C899 C898 1.373 . S
C899 C915 1.377 . S
C900 C898 1.389 . S
C900 C901 1.524 . S
C900 C914 1.377 . S
C901 C900 1.524 . S
C901 C902 1.397 . S
C901 C906 1.363 . S
C902 H879 0.950 . S
C902 C901 1.397 . S
C902 C903 1.334 . S
C903 H880 0.950 . S
C903 C902 1.334 . S
C903 C904 1.287 . S
C904 C903 1.287 . S
C904 C905 1.524 . S
C904 H923 0.913 . S
C905 H881 0.950 . S
C905 C904 1.524 . S
C905 C906 1.415 . S
C906 H882 0.950 . S
C906 C901 1.363 . S
C906 C905 1.415 . S
C907 H883 0.951 . S
C907 C908 1.366 . S
C907 C909 1.388 . S
C908 C907 1.366 . S
C908 C912 1.385 . S
C909 H884 0.951 . S
C909 C907 1.388 . S
C909 C910 1.366 . S
C910 C909 1.366 . S
C910 C911 1.414 . S
C910 C913 1.499 . S
C911 H885 0.950 . S
C911 C910 1.414 . S
C911 C912 1.374 . S
C912 H886 0.950 . S
C912 C908 1.385 . S
C912 C911 1.374 . S
C913 C910 1.499 . S
C913 C914 1.373 . S
C913 C915 1.389 . S
C914 H887 0.950 . S
C914 C900 1.377 . S
C914 C913 1.373 . S
C915 C899 1.377 . S
C915 C913 1.389 . S
C915 C916 1.524 . S
C916 C915 1.524 . S
C916 C917 1.397 . S
C916 C921 1.363 . S
C917 H888 0.950 . S
C917 C916 1.397 . S
C917 C918 1.334 . S
C918 H889 0.950 . S
C918 C917 1.334 . S
C918 C919 1.287 . S
C919 C918 1.287 . S
C919 C920 1.524 . S
C919 H922 0.999 . S
C920 H890 0.950 . S
C920 C919 1.524 . S
C920 C921 1.415 . S
C921 H891 0.950 . S
C921 C916 1.363 . S
C921 C920 1.415 . S
H922 C919 0.999 . S
H923 C904 0.913 . S
H924 C942 0.951 . S
H925 C944 0.951 . S
H926 C946 0.950 . S
H927 C947 0.950 . S
H928 C949 0.950 . S
H929 C952 0.950 . S
H930 C953 0.950 . S
H931 C955 0.950 . S
H932 C956 0.950 . S
H933 C957 0.951 . S
H934 C959 0.951 . S
H935 C961 0.950 . S
H936 C962 0.950 . S
H937 C964 0.950 . S
H938 C967 0.950 . S
H939 C968 0.950 . S
H940 C970 0.950 . S
H941 C971 0.950 . S
C942 H924 0.951 . S
C942 C943 1.366 . S
C942 C944 1.388 . S
C943 C942 1.366 . S
C943 C947 1.385 . S
C944 H925 0.951 . S
C944 C942 1.388 . S
C944 C945 1.366 . S
C945 C944 1.366 . S
C945 C946 1.414 . S
C945 C948 1.499 . S
C946 H926 0.950 . S
C946 C945 1.414 . S
C946 C947 1.374 . S
C947 H927 0.950 . S
C947 C943 1.385 . S
C947 C946 1.374 . S
C948 C945 1.499 . S
C948 C949 1.373 . S
C948 C950 1.389 . S
C949 H928 0.950 . S
C949 C948 1.373 . S
C949 C965 1.377 . S
C950 C948 1.389 . S
C950 C951 1.524 . S
C950 C964 1.377 . S
C951 C950 1.524 . S
C951 C952 1.397 . S
C951 C956 1.363 . S
C952 H929 0.950 . S
C952 C951 1.397 . S
C952 C953 1.334 . S
C953 H930 0.950 . S
C953 C952 1.334 . S
C953 C954 1.287 . S
C954 C953 1.287 . S
C954 C955 1.524 . S
C954 H973 0.913 . S
C955 H931 0.950 . S
C955 C954 1.524 . S
C955 C956 1.415 . S
C956 H932 0.950 . S
C956 C951 1.363 . S
C956 C955 1.415 . S
C957 H933 0.951 . S
C957 C958 1.366 . S
C957 C959 1.388 . S
C958 C957 1.366 . S
C958 C962 1.385 . S
C959 H934 0.951 . S
C959 C957 1.388 . S
C959 C960 1.366 . S
C960 C959 1.366 . S
C960 C961 1.414 . S
C960 C963 1.499 . S
C961 H935 0.950 . S
C961 C960 1.414 . S
C961 C962 1.374 . S
C962 H936 0.950 . S
C962 C958 1.385 . S
C962 C961 1.374 . S
C963 C960 1.499 . S
C963 C964 1.373 . S
C963 C965 1.389 . S
C964 H937 0.950 . S
C964 C950 1.377 . S
C964 C963 1.373 . S
C965 C949 1.377 . S
C965 C963 1.389 . S
C965 C966 1.524 . S
C966 C965 1.524 . S
C966 C967 1.397 . S
C966 C971 1.363 . S
C967 H938 0.950 . S
C967 C966 1.397 . S
C967 C968 1.334 . S
C968 H939 0.950 . S
C968 C967 1.334 . S
C968 C969 1.287 . S
C969 C968 1.287 . S
C969 C970 1.524 . S
C969 H972 0.999 . S
C970 H940 0.950 . S
C970 C969 1.524 . S
C970 C971 1.415 . S
C971 H941 0.950 . S
C971 C966 1.363 . S
C971 C970 1.415 . S
H972 C969 0.999 . S
H973 C954 0.913 . S
H974 C992 0.951 . S
H975 C994 0.951 . S
H976 C996 0.950 . S
H977 C997 0.950 . S
H978 C999 0.950 . S
H979 C1002 0.950 . S
H980 C1003 0.950 . S
H981 C1005 0.950 . S
H982 C1006 0.950 . S
H983 C1007 0.951 . S
H984 C1009 0.951 . S
H985 C1011 0.950 . S
H986 C1012 0.950 . S
H987 C1014 0.950 . S
H988 C1017 0.950 . S
H989 C1018 0.950 . S
H990 C1020 0.950 . S
H991 C1021 0.950 . S
C992 H974 0.951 . S
C992 C993 1.366 . S
C992 C994 1.388 . S
C993 C992 1.366 . S
C993 C997 1.385 . S
C994 H975 0.951 . S
C994 C992 1.388 . S
C994 C995 1.366 . S
C995 C994 1.366 . S
C995 C996 1.414 . S
C995 C998 1.499 . S
C996 H976 0.950 . S
C996 C995 1.414 . S
C996 C997 1.374 . S
C997 H977 0.950 . S
C997 C993 1.385 . S
C997 C996 1.374 . S
C998 C995 1.499 . S
C998 C999 1.373 . S
C998 C1000 1.389 . S
C999 H978 0.950 . S
C999 C998 1.373 . S
C999 C1015 1.377 . S
C1000 C998 1.389 . S
C1000 C1001 1.524 . S
C1000 C1014 1.377 . S
C1001 C1000 1.524 . S
C1001 C1002 1.397 . S
C1001 C1006 1.363 . S
C1002 H979 0.950 . S
C1002 C1001 1.397 . S
C1002 C1003 1.334 . S
C1003 H980 0.950 . S
C1003 C1002 1.334 . S
C1003 C1004 1.287 . S
C1004 C1003 1.287 . S
C1004 C1005 1.524 . S
C1004 H1023 0.913 . S
C1005 H981 0.950 . S
C1005 C1004 1.524 . S
C1005 C1006 1.415 . S
C1006 H982 0.950 . S
C1006 C1001 1.363 . S
C1006 C1005 1.415 . S
C1007 H983 0.951 . S
C1007 C1008 1.366 . S
C1007 C1009 1.388 . S
C1008 C1007 1.366 . S
C1008 C1012 1.385 . S
C1009 H984 0.951 . S
C1009 C1007 1.388 . S
C1009 C1010 1.366 . S
C1010 C1009 1.366 . S
C1010 C1011 1.414 . S
C1010 C1013 1.499 . S
C1011 H985 0.950 . S
C1011 C1010 1.414 . S
C1011 C1012 1.374 . S
C1012 H986 0.950 . S
C1012 C1008 1.385 . S
C1012 C1011 1.374 . S
C1013 C1010 1.499 . S
C1013 C1014 1.373 . S
C1013 C1015 1.389 . S
C1014 H987 0.950 . S
C1014 C1000 1.377 . S
C1014 C1013 1.373 . S
C1015 C999 1.377 . S
C1015 C1013 1.389 . S
C1015 C1016 1.524 . S
C1016 C1015 1.524 . S
C1016 C1017 1.397 . S
C1016 C1021 1.363 . S
C1017 H988 0.950 . S
C1017 C1016 1.397 . S
C1017 C1018 1.334 . S
C1018 H989 0.950 . S
C1018 C1017 1.334 . S
C1018 C1019 1.287 . S
C1019 C1018 1.287 . S
C1019 C1020 1.524 . S
C1019 H1022 0.999 . S
C1020 H990 0.950 . S
C1020 C1019 1.524 . S
C1020 C1021 1.415 . S
C1021 H991 0.950 . S
C1021 C1016 1.363 . S
C1021 C1020 1.415 . S
H1022 C1019 0.999 . S
H1023 C1004 0.913 . S
H1024 C1042 0.951 . S
H1025 C1044 0.951 . S
H1026 C1046 0.950 1_554 S
H1027 C1047 0.950 . S
H1028 C1049 0.950 1_554 S
H1029 C1052 0.950 . S
H1030 C1053 0.950 . S
H1031 C1055 0.950 . S
H1032 C1056 0.950 . S
H1033 C1057 0.951 . S
H1034 C1059 0.951 . S
H1035 C1061 0.950 . S
H1036 C1062 0.950 1_546 S
H1037 C1064 0.950 1_545 S
H1038 C1067 0.950 1_556 S
H1039 C1068 0.950 . S
H1040 C1070 0.950 . S
H1041 C1071 0.950 . S
C1042 H1024 0.951 . S
C1042 C1043 1.366 . S
C1042 C1044 1.388 . S
C1043 C1042 1.366 . S
C1043 C1047 1.385 . S
C1044 H1025 0.951 . S
C1044 C1042 1.388 . S
C1044 C1045 1.366 . S
C1045 C1044 1.366 . S
C1045 C1046 1.414 . S
C1045 C1048 1.499 . S
C1046 H1026 0.950 1_556 S
C1046 C1045 1.414 . S
C1046 C1047 1.374 . S
C1047 H1027 0.950 . S
C1047 C1043 1.385 . S
C1047 C1046 1.374 . S
C1048 C1045 1.499 . S
C1048 C1049 1.373 . S
C1048 C1050 1.389 . S
C1049 H1028 0.950 1_556 S
C1049 C1048 1.373 . S
C1049 C1065 1.377 1_556 S
C1050 C1048 1.389 . S
C1050 C1051 1.524 1_565 S
C1050 C1064 1.377 . S
C1051 C1050 1.524 1_545 S
C1051 C1052 1.397 . S
C1051 C1056 1.363 . S
C1052 H1029 0.950 . S
C1052 C1051 1.397 . S
C1052 C1053 1.334 . S
C1053 H1030 0.950 . S
C1053 C1052 1.334 . S
C1053 C1054 1.287 . S
C1054 C1053 1.287 . S
C1054 C1055 1.524 . S
C1054 H1073 0.913 . S
C1055 H1031 0.950 . S
C1055 C1054 1.524 . S
C1055 C1056 1.415 . S
C1056 H1032 0.950 . S
C1056 C1051 1.363 . S
C1056 C1055 1.415 . S
C1057 H1033 0.951 . S
C1057 C1058 1.366 . S
C1057 C1059 1.388 . S
C1058 C1057 1.366 . S
C1058 C1062 1.385 . S
C1059 H1034 0.951 . S
C1059 C1057 1.388 . S
C1059 C1060 1.366 . S
C1060 C1059 1.366 . S
C1060 C1061 1.414 1_554 S
C1060 C1063 1.509 . S
C1061 H1035 0.950 . S
C1061 C1060 1.414 1_556 S
C1061 C1062 1.374 1_556 S
C1062 H1036 0.950 1_564 S
C1062 C1058 1.385 . S
C1062 C1061 1.374 1_554 S
C1063 C1060 1.509 . S
C1063 C1064 1.357 1_554 S
C1063 C1065 1.397 . S
C1064 H1037 0.950 1_565 S
C1064 C1050 1.377 . S
C1064 C1063 1.357 1_556 S
C1065 C1049 1.377 1_554 S
C1065 C1063 1.397 . S
C1065 C1066 1.524 . S
C1066 C1065 1.524 . S
C1066 C1067 1.397 . S
C1066 C1071 1.363 . S
C1067 H1038 0.950 1_554 S
C1067 C1066 1.397 . S
C1067 C1068 1.334 . S
C1068 H1039 0.950 . S
C1068 C1067 1.334 . S
C1068 C1069 1.287 . S
C1069 C1068 1.287 . S
C1069 C1070 1.524 . S
C1069 H1072 0.999 . S
C1070 H1040 0.950 . S
C1070 C1069 1.524 . S
C1070 C1071 1.415 . S
C1071 H1041 0.950 . S
C1071 C1066 1.363 . S
C1071 C1070 1.415 . S
H1072 C1069 0.999 . S
H1073 C1054 0.913 . S
H1074 C1092 0.951 . S
H1075 C1094 0.951 . S
H1076 C1096 0.950 . S
H1077 C1097 0.950 . S
H1078 C1099 0.950 . S
H1079 C1102 0.950 . S
H1080 C1103 0.950 . S
H1081 C1105 0.950 . S
H1082 C1106 0.950 . S
H1083 C1107 0.951 1_565 S
H1084 C1109 0.951 . S
H1085 C1111 0.950 . S
H1086 C1112 0.950 . S
H1087 C1114 0.950 . S
H1088 C1117 0.950 . S
H1089 C1118 0.950 . S
H1090 C1120 0.950 . S
H1091 C1121 0.950 1_565 S
C1092 H1074 0.951 . S
C1092 C1093 1.366 . S
C1092 C1094 1.388 . S
C1093 C1092 1.366 . S
C1093 C1097 1.385 . S
C1094 H1075 0.951 . S
C1094 C1092 1.388 . S
C1094 C1095 1.366 . S
C1095 C1094 1.366 . S
C1095 C1096 1.414 . S
C1095 C1098 1.499 . S
C1096 H1076 0.950 . S
C1096 C1095 1.414 . S
C1096 C1097 1.374 . S
C1097 H1077 0.950 . S
C1097 C1093 1.385 . S
C1097 C1096 1.374 . S
C1098 C1095 1.499 . S
C1098 C1099 1.373 . S
C1098 C1100 1.389 . S
C1099 H1078 0.950 . S
C1099 C1098 1.373 . S
C1099 C1115 1.377 . S
C1100 C1098 1.389 . S
C1100 C1101 1.524 . S
C1100 C1114 1.377 . S
C1101 C1100 1.524 . S
C1101 C1102 1.397 . S
C1101 C1106 1.363 . S
C1102 H1079 0.950 . S
C1102 C1101 1.397 . S
C1102 C1103 1.334 . S
C1103 H1080 0.950 . S
C1103 C1102 1.334 . S
C1103 C1104 1.287 . S
C1104 C1103 1.287 . S
C1104 C1105 1.524 . S
C1104 H1123 0.913 . S
C1105 H1081 0.950 . S
C1105 C1104 1.524 . S
C1105 C1106 1.415 . S
C1106 H1082 0.950 . S
C1106 C1101 1.363 . S
C1106 C1105 1.415 . S
C1107 H1083 0.951 1_545 S
C1107 C1108 1.366 . S
C1107 C1109 1.388 . S
C1108 C1107 1.366 . S
C1108 C1112 1.385 . S
C1109 H1084 0.951 . S
C1109 C1107 1.388 . S
C1109 C1110 1.366 . S
C1110 C1109 1.366 . S
C1110 C1111 1.414 . S
C1110 C1113 1.499 . S
C1111 H1085 0.950 . S
C1111 C1110 1.414 . S
C1111 C1112 1.374 . S
C1112 H1086 0.950 . S
C1112 C1108 1.385 . S
C1112 C1111 1.374 . S
C1113 C1110 1.499 . S
C1113 C1114 1.373 . S
C1113 C1115 1.389 . S
C1114 H1087 0.950 . S
C1114 C1100 1.377 . S
C1114 C1113 1.373 . S
C1115 C1099 1.377 . S
C1115 C1113 1.389 . S
C1115 C1116 1.524 . S
C1116 C1115 1.524 . S
C1116 C1117 1.397 . S
C1116 C1121 1.363 . S
C1117 H1088 0.950 . S
C1117 C1116 1.397 . S
C1117 C1118 1.334 . S
C1118 H1089 0.950 . S
C1118 C1117 1.334 . S
C1118 C1119 1.287 1_545 S
C1119 C1118 1.287 1_565 S
C1119 C1120 1.524 . S
C1119 H1122 0.999 . S
C1120 H1090 0.950 . S
C1120 C1119 1.524 . S
C1120 C1121 1.415 1_565 S
C1121 H1091 0.950 1_545 S
C1121 C1116 1.363 . S
C1121 C1120 1.415 1_545 S
H1122 C1119 0.999 . S
H1123 C1104 0.913 . S
H1124 C1142 0.951 . S
H1125 C1144 0.951 . S
H1126 C1146 0.950 . S
H1127 C1147 0.950 . S
H1128 C1149 0.950 . S
H1129 C1152 0.950 . S
H1130 C1153 0.950 . S
H1131 C1155 0.950 . S
H1132 C1156 0.950 . S
H1133 C1157 0.951 . S
H1134 C1159 0.951 . S
H1135 C1161 0.950 . S
H1136 C1162 0.950 . S
H1137 C1164 0.950 . S
H1138 C1167 0.950 . S
H1139 C1168 0.950 . S
H1140 C1170 0.950 . S
H1141 C1171 0.950 . S
C1142 H1124 0.951 . S
C1142 C1143 1.366 . S
C1142 C1144 1.388 . S
C1143 C1142 1.366 . S
C1143 C1147 1.385 . S
C1144 H1125 0.951 . S
C1144 C1142 1.388 . S
C1144 C1145 1.366 . S
C1145 C1144 1.366 . S
C1145 C1146 1.414 . S
C1145 C1148 1.499 . S
C1146 H1126 0.950 . S
C1146 C1145 1.414 . S
C1146 C1147 1.374 . S
C1147 H1127 0.950 . S
C1147 C1143 1.385 . S
C1147 C1146 1.374 . S
C1148 C1145 1.499 . S
C1148 C1149 1.373 . S
C1148 C1150 1.389 . S
C1149 H1128 0.950 . S
C1149 C1148 1.373 . S
C1149 C1165 1.377 . S
C1150 C1148 1.389 . S
C1150 C1151 1.524 . S
C1150 C1164 1.377 . S
C1151 C1150 1.524 . S
C1151 C1152 1.397 . S
C1151 C1156 1.363 . S
C1152 H1129 0.950 . S
C1152 C1151 1.397 . S
C1152 C1153 1.334 . S
C1153 H1130 0.950 . S
C1153 C1152 1.334 . S
C1153 C1154 1.287 . S
C1154 C1153 1.287 . S
C1154 C1155 1.524 . S
C1154 H1173 0.913 . S
C1155 H1131 0.950 . S
C1155 C1154 1.524 . S
C1155 C1156 1.415 . S
C1156 H1132 0.950 . S
C1156 C1151 1.363 . S
C1156 C1155 1.415 . S
C1157 H1133 0.951 . S
C1157 C1158 1.366 . S
C1157 C1159 1.388 . S
C1158 C1157 1.366 . S
C1158 C1162 1.385 . S
C1159 H1134 0.951 . S
C1159 C1157 1.388 . S
C1159 C1160 1.366 . S
C1160 C1159 1.366 . S
C1160 C1161 1.414 . S
C1160 C1163 1.499 . S
C1161 H1135 0.950 . S
C1161 C1160 1.414 . S
C1161 C1162 1.374 . S
C1162 H1136 0.950 . S
C1162 C1158 1.385 . S
C1162 C1161 1.374 . S
C1163 C1160 1.499 . S
C1163 C1164 1.373 . S
C1163 C1165 1.389 . S
C1164 H1137 0.950 . S
C1164 C1150 1.377 . S
C1164 C1163 1.373 . S
C1165 C1149 1.377 . S
C1165 C1163 1.389 . S
C1165 C1166 1.524 . S
C1166 C1165 1.524 . S
C1166 C1167 1.397 . S
C1166 C1171 1.363 . S
C1167 H1138 0.950 . S
C1167 C1166 1.397 . S
C1167 C1168 1.334 . S
C1168 H1139 0.950 . S
C1168 C1167 1.334 . S
C1168 C1169 1.287 . S
C1169 C1168 1.287 . S
C1169 C1170 1.524 . S
C1169 H1172 0.999 . S
C1170 H1140 0.950 . S
C1170 C1169 1.524 . S
C1170 C1171 1.415 . S
C1171 H1141 0.950 . S
C1171 C1166 1.363 . S
C1171 C1170 1.415 . S
H1172 C1169 0.999 . S
H1173 C1154 0.913 . S
H1174 C1192 0.951 . S
H1175 C1194 0.951 . S
H1176 C1196 0.950 . S
H1177 C1197 0.950 . S
H1178 C1199 0.950 . S
H1179 C1202 0.950 . S
H1180 C1203 0.950 . S
H1181 C1205 0.950 . S
H1182 C1206 0.950 . S
H1183 C1207 0.951 . S
H1184 C1209 0.951 . S
H1185 C1211 0.950 . S
H1186 C1212 0.950 . S
H1187 C1214 0.950 . S
H1188 C1217 0.950 . S
H1189 C1218 0.950 . S
H1190 C1220 0.950 . S
H1191 C1221 0.950 . S
C1192 H1174 0.951 . S
C1192 C1193 1.366 . S
C1192 C1194 1.388 . S
C1193 C1192 1.366 . S
C1193 C1197 1.385 . S
C1194 H1175 0.951 . S
C1194 C1192 1.388 . S
C1194 C1195 1.366 . S
C1195 C1194 1.366 . S
C1195 C1196 1.414 . S
C1195 C1198 1.499 . S
C1196 H1176 0.950 . S
C1196 C1195 1.414 . S
C1196 C1197 1.374 . S
C1197 H1177 0.950 . S
C1197 C1193 1.385 . S
C1197 C1196 1.374 . S
C1198 C1195 1.499 . S
C1198 C1199 1.373 . S
C1198 C1200 1.389 . S
C1199 H1178 0.950 . S
C1199 C1198 1.373 . S
C1199 C1215 1.377 . S
C1200 C1198 1.389 . S
C1200 C1201 1.524 . S
C1200 C1214 1.377 . S
C1201 C1200 1.524 . S
C1201 C1202 1.397 . S
C1201 C1206 1.363 . S
C1202 H1179 0.950 . S
C1202 C1201 1.397 . S
C1202 C1203 1.334 . S
C1203 H1180 0.950 . S
C1203 C1202 1.334 . S
C1203 C1204 1.287 . S
C1204 C1203 1.287 . S
C1204 C1205 1.524 . S
C1204 H1223 0.913 . S
C1205 H1181 0.950 . S
C1205 C1204 1.524 . S
C1205 C1206 1.415 . S
C1206 H1182 0.950 . S
C1206 C1201 1.363 . S
C1206 C1205 1.415 . S
C1207 H1183 0.951 . S
C1207 C1208 1.366 . S
C1207 C1209 1.388 . S
C1208 C1207 1.366 . S
C1208 C1212 1.385 . S
C1209 H1184 0.951 . S
C1209 C1207 1.388 . S
C1209 C1210 1.366 . S
C1210 C1209 1.366 . S
C1210 C1211 1.414 . S
C1210 C1213 1.499 . S
C1211 H1185 0.950 . S
C1211 C1210 1.414 . S
C1211 C1212 1.374 . S
C1212 H1186 0.950 . S
C1212 C1208 1.385 . S
C1212 C1211 1.374 . S
C1213 C1210 1.499 . S
C1213 C1214 1.373 . S
C1213 C1215 1.389 . S
C1214 H1187 0.950 . S
C1214 C1200 1.377 . S
C1214 C1213 1.373 . S
C1215 C1199 1.377 . S
C1215 C1213 1.389 . S
C1215 C1216 1.524 . S
C1216 C1215 1.524 . S
C1216 C1217 1.397 . S
C1216 C1221 1.363 . S
C1217 H1188 0.950 . S
C1217 C1216 1.397 . S
C1217 C1218 1.334 . S
C1218 H1189 0.950 . S
C1218 C1217 1.334 . S
C1218 C1219 1.287 . S
C1219 C1218 1.287 . S
C1219 C1220 1.524 . S
C1219 H1222 0.999 . S
C1220 H1190 0.950 . S
C1220 C1219 1.524 . S
C1220 C1221 1.415 . S
C1221 H1191 0.950 . S
C1221 C1216 1.363 . S
C1221 C1220 1.415 . S
H1222 C1219 0.999 . S
H1223 C1204 0.913 . S
H1224 C1242 0.951 . S
H1225 C1244 0.951 . S
H1226 C1246 0.950 . S
H1227 C1247 0.950 . S
H1228 C1249 0.950 1_455 S
H1229 C1252 0.938 1_554 S
H1230 C1253 0.950 . S
H1231 C1255 0.950 . S
H1232 C1256 0.950 . S
H1233 C1257 0.951 . S
H1234 C1259 0.951 . S
H1235 C1261 0.950 . S
H1236 C1262 0.950 . S
H1237 C1264 0.950 . S
H1238 C1267 0.950 . S
H1239 C1268 0.950 . S
H1240 C1270 0.950 . S
H1241 C1271 0.950 . S
C1242 H1224 0.951 . S
C1242 C1243 1.366 . S
C1242 C1244 1.388 . S
C1243 C1242 1.366 . S
C1243 C1247 1.385 . S
C1244 H1225 0.951 . S
C1244 C1242 1.388 . S
C1244 C1245 1.366 . S
C1245 C1244 1.366 . S
C1245 C1246 1.414 . S
C1245 C1248 1.499 . S
C1246 H1226 0.950 . S
C1246 C1245 1.414 . S
C1246 C1247 1.374 . S
C1247 H1227 0.950 . S
C1247 C1243 1.385 . S
C1247 C1246 1.374 . S
C1248 C1245 1.499 . S
C1248 C1249 1.373 . S
C1248 C1250 1.389 . S
C1249 H1228 0.950 1_655 S
C1249 C1248 1.373 . S
C1249 C1265 1.377 1_655 S
C1250 C1248 1.389 . S
C1250 C1251 1.524 . S
C1250 C1264 1.377 . S
C1251 C1250 1.524 . S
C1251 C1252 1.413 . S
C1251 C1256 1.363 . S
C1252 H1229 0.938 1_556 S
C1252 C1251 1.413 . S
C1252 C1253 1.330 1_556 S
C1253 H1230 0.950 . S
C1253 C1252 1.330 1_554 S
C1253 C1254 1.287 1_554 S
C1254 C1253 1.287 1_556 S
C1254 C1255 1.524 . S
C1254 H1273 0.913 . S
C1255 H1231 0.950 . S
C1255 C1254 1.524 . S
C1255 C1256 1.415 . S
C1256 H1232 0.950 . S
C1256 C1251 1.363 . S
C1256 C1255 1.415 . S
C1257 H1233 0.951 . S
C1257 C1258 1.366 1_554 S
C1257 C1259 1.388 . S
C1258 C1257 1.366 1_556 S
C1258 C1262 1.385 1_455 S
C1259 H1234 0.951 . S
C1259 C1257 1.388 . S
C1259 C1260 1.366 1_454 S
C1260 C1259 1.366 1_656 S
C1260 C1261 1.414 . S
C1260 C1263 1.499 . S
C1261 H1235 0.950 . S
C1261 C1260 1.414 . S
C1261 C1262 1.374 . S
C1262 H1236 0.950 . S
C1262 C1258 1.385 1_655 S
C1262 C1261 1.374 . S
C1263 C1260 1.499 . S
C1263 C1264 1.373 . S
C1263 C1265 1.389 1_655 S
C1264 H1237 0.950 . S
C1264 C1250 1.377 . S
C1264 C1263 1.373 . S
C1265 C1249 1.377 1_455 S
C1265 C1263 1.389 1_455 S
C1265 C1266 1.524 . S
C1266 C1265 1.524 . S
C1266 C1267 1.397 . S
C1266 C1271 1.363 . S
C1267 H1238 0.950 . S
C1267 C1266 1.397 . S
C1267 C1268 1.334 . S
C1268 H1239 0.950 . S
C1268 C1267 1.334 . S
C1268 C1269 1.287 . S
C1269 C1268 1.287 . S
C1269 C1270 1.524 . S
C1269 H1272 0.999 . S
C1270 H1240 0.950 . S
C1270 C1269 1.524 . S
C1270 C1271 1.415 . S
C1271 H1241 0.950 . S
C1271 C1266 1.363 . S
C1271 C1270 1.415 . S
H1272 C1269 0.999 . S
H1273 C1254 0.913 . S
H1274 C1292 0.951 . S
H1275 C1294 0.951 . S
H1276 C1296 0.950 . S
H1277 C1297 0.950 . S
H1278 C1299 0.950 . S
H1279 C1302 0.950 . S
H1280 C1303 0.950 . S
H1281 C1305 0.950 . S
H1282 C1306 0.950 . S
H1283 C1307 0.951 . S
H1284 C1309 0.951 . S
H1285 C1311 0.950 . S
H1286 C1312 0.950 . S
H1287 C1314 0.950 . S
H1288 C1317 0.950 . S
H1289 C1318 0.950 . S
H1290 C1320 0.950 . S
H1291 C1321 0.950 . S
C1292 H1274 0.951 . S
C1292 C1293 1.366 . S
C1292 C1294 1.388 . S
C1293 C1292 1.366 . S
C1293 C1297 1.385 . S
C1294 H1275 0.951 . S
C1294 C1292 1.388 . S
C1294 C1295 1.366 . S
C1295 C1294 1.366 . S
C1295 C1296 1.414 . S
C1295 C1298 1.499 . S
C1296 H1276 0.950 . S
C1296 C1295 1.414 . S
C1296 C1297 1.374 . S
C1297 H1277 0.950 . S
C1297 C1293 1.385 . S
C1297 C1296 1.374 . S
C1298 C1295 1.499 . S
C1298 C1299 1.373 . S
C1298 C1300 1.389 . S
C1299 H1278 0.950 . S
C1299 C1298 1.373 . S
C1299 C1315 1.377 . S
C1300 C1298 1.389 . S
C1300 C1301 1.524 . S
C1300 C1314 1.377 . S
C1301 C1300 1.524 . S
C1301 C1302 1.397 . S
C1301 C1306 1.363 . S
C1302 H1279 0.950 . S
C1302 C1301 1.397 . S
C1302 C1303 1.334 . S
C1303 H1280 0.950 . S
C1303 C1302 1.334 . S
C1303 C1304 1.287 . S
C1304 C1303 1.287 . S
C1304 C1305 1.524 . S
C1304 H1323 0.913 . S
C1305 H1281 0.950 . S
C1305 C1304 1.524 . S
C1305 C1306 1.415 . S
C1306 H1282 0.950 . S
C1306 C1301 1.363 . S
C1306 C1305 1.415 . S
C1307 H1283 0.951 . S
C1307 C1308 1.366 . S
C1307 C1309 1.388 . S
C1308 C1307 1.366 . S
C1308 C1312 1.385 . S
C1309 H1284 0.951 . S
C1309 C1307 1.388 . S
C1309 C1310 1.366 . S
C1310 C1309 1.366 . S
C1310 C1311 1.414 . S
C1310 C1313 1.499 . S
C1311 H1285 0.950 . S
C1311 C1310 1.414 . S
C1311 C1312 1.374 . S
C1312 H1286 0.950 . S
C1312 C1308 1.385 . S
C1312 C1311 1.374 . S
C1313 C1310 1.499 . S
C1313 C1314 1.373 . S
C1313 C1315 1.389 . S
C1314 H1287 0.950 . S
C1314 C1300 1.377 . S
C1314 C1313 1.373 . S
C1315 C1299 1.377 . S
C1315 C1313 1.389 . S
C1315 C1316 1.524 . S
C1316 C1315 1.524 . S
C1316 C1317 1.397 . S
C1316 C1321 1.363 . S
C1317 H1288 0.950 . S
C1317 C1316 1.397 . S
C1317 C1318 1.334 . S
C1318 H1289 0.950 . S
C1318 C1317 1.334 . S
C1318 C1319 1.287 . S
C1319 C1318 1.287 . S
C1319 C1320 1.524 . S
C1319 H1322 0.999 . S
C1320 H1290 0.950 . S
C1320 C1319 1.524 . S
C1320 C1321 1.415 . S
C1321 H1291 0.950 . S
C1321 C1316 1.363 . S
C1321 C1320 1.415 . S
H1322 C1319 0.999 . S
H1323 C1304 0.913 . S
H1324 C1342 0.951 . S
H1325 C1344 0.951 . S
H1326 C1346 0.950 . S
H1327 C1347 0.950 . S
H1328 C1349 0.950 . S
H1329 C1352 0.950 . S
H1330 C1353 0.950 . S
H1331 C1355 0.950 . S
H1332 C1356 0.950 . S
H1333 C1357 0.951 . S
H1334 C1359 0.951 . S
H1335 C1361 0.950 . S
H1336 C1362 0.950 . S
H1337 C1364 0.950 . S
H1338 C1367 0.950 . S
H1339 C1368 0.950 . S
H1340 C1370 0.950 . S
H1341 C1371 0.950 . S
C1342 H1324 0.951 . S
C1342 C1343 1.366 . S
C1342 C1344 1.388 . S
C1343 C1342 1.366 . S
C1343 C1347 1.385 . S
C1344 H1325 0.951 . S
C1344 C1342 1.388 . S
C1344 C1345 1.366 . S
C1345 C1344 1.366 . S
C1345 C1346 1.414 . S
C1345 C1348 1.499 . S
C1346 H1326 0.950 . S
C1346 C1345 1.414 . S
C1346 C1347 1.374 . S
C1347 H1327 0.950 . S
C1347 C1343 1.385 . S
C1347 C1346 1.374 . S
C1348 C1345 1.499 . S
C1348 C1349 1.373 . S
C1348 C1350 1.389 . S
C1349 H1328 0.950 . S
C1349 C1348 1.373 . S
C1349 C1365 1.377 . S
C1350 C1348 1.389 . S
C1350 C1351 1.524 . S
C1350 C1364 1.377 . S
C1351 C1350 1.524 . S
C1351 C1352 1.397 . S
C1351 C1356 1.363 . S
C1352 H1329 0.950 . S
C1352 C1351 1.397 . S
C1352 C1353 1.334 . S
C1353 H1330 0.950 . S
C1353 C1352 1.334 . S
C1353 C1354 1.287 . S
C1354 C1353 1.287 . S
C1354 C1355 1.524 . S
C1354 H1373 0.913 . S
C1355 H1331 0.950 . S
C1355 C1354 1.524 . S
C1355 C1356 1.415 . S
C1356 H1332 0.950 . S
C1356 C1351 1.363 . S
C1356 C1355 1.415 . S
C1357 H1333 0.951 . S
C1357 C1358 1.366 . S
C1357 C1359 1.388 . S
C1358 C1357 1.366 . S
C1358 C1362 1.385 . S
C1359 H1334 0.951 . S
C1359 C1357 1.388 . S
C1359 C1360 1.366 . S
C1360 C1359 1.366 . S
C1360 C1361 1.414 . S
C1360 C1363 1.499 . S
C1361 H1335 0.950 . S
C1361 C1360 1.414 . S
C1361 C1362 1.374 . S
C1362 H1336 0.950 . S
C1362 C1358 1.385 . S
C1362 C1361 1.374 . S
C1363 C1360 1.499 . S
C1363 C1364 1.373 . S
C1363 C1365 1.389 . S
C1364 H1337 0.950 . S
C1364 C1350 1.377 . S
C1364 C1363 1.373 . S
C1365 C1349 1.377 . S
C1365 C1363 1.389 . S
C1365 C1366 1.524 . S
C1366 C1365 1.524 . S
C1366 C1367 1.397 . S
C1366 C1371 1.363 . S
C1367 H1338 0.950 . S
C1367 C1366 1.397 . S
C1367 C1368 1.334 . S
C1368 H1339 0.950 . S
C1368 C1367 1.334 . S
C1368 C1369 1.287 . S
C1369 C1368 1.287 . S
C1369 C1370 1.524 . S
C1369 H1372 0.999 . S
C1370 H1340 0.950 . S
C1370 C1369 1.524 . S
C1370 C1371 1.415 . S
C1371 H1341 0.950 . S
C1371 C1366 1.363 . S
C1371 C1370 1.415 . S
H1372 C1369 0.999 . S
H1373 C1354 0.913 . S
H1374 C1392 0.951 . S
H1375 C1394 0.951 . S
H1376 C1396 0.950 . S
H1377 C1397 0.950 . S
H1378 C1399 0.950 . S
H1379 C1402 0.950 . S
H1380 C1403 0.950 . S
H1381 C1405 0.950 . S
H1382 C1406 0.950 . S
H1383 C1407 0.951 . S
H1384 C1409 0.951 . S
H1385 C1411 0.950 . S
H1386 C1412 0.950 . S
H1387 C1414 0.950 . S
H1388 C1417 0.950 . S
H1389 C1418 0.950 . S
H1390 C1420 0.950 . S
H1391 C1421 0.950 . S
C1392 H1374 0.951 . S
C1392 C1393 1.366 . S
C1392 C1394 1.388 . S
C1393 C1392 1.366 . S
C1393 C1397 1.385 . S
C1394 H1375 0.951 . S
C1394 C1392 1.388 . S
C1394 C1395 1.366 . S
C1395 C1394 1.366 . S
C1395 C1396 1.414 . S
C1395 C1398 1.499 . S
C1396 H1376 0.950 . S
C1396 C1395 1.414 . S
C1396 C1397 1.374 . S
C1397 H1377 0.950 . S
C1397 C1393 1.385 . S
C1397 C1396 1.374 . S
C1398 C1395 1.499 . S
C1398 C1399 1.373 . S
C1398 C1400 1.389 . S
C1399 H1378 0.950 . S
C1399 C1398 1.373 . S
C1399 C1415 1.377 . S
C1400 C1398 1.389 . S
C1400 C1401 1.524 . S
C1400 C1414 1.377 . S
C1401 C1400 1.524 . S
C1401 C1402 1.397 . S
C1401 C1406 1.363 . S
C1402 H1379 0.950 . S
C1402 C1401 1.397 . S
C1402 C1403 1.334 . S
C1403 H1380 0.950 . S
C1403 C1402 1.334 . S
C1403 C1404 1.287 . S
C1404 C1403 1.287 . S
C1404 C1405 1.524 . S
C1404 H1423 0.913 . S
C1405 H1381 0.950 . S
C1405 C1404 1.524 . S
C1405 C1406 1.415 . S
C1406 H1382 0.950 . S
C1406 C1401 1.363 . S
C1406 C1405 1.415 . S
C1407 H1383 0.951 . S
C1407 C1408 1.366 . S
C1407 C1409 1.388 . S
C1408 C1407 1.366 . S
C1408 C1412 1.385 . S
C1409 H1384 0.951 . S
C1409 C1407 1.388 . S
C1409 C1410 1.366 . S
C1410 C1409 1.366 . S
C1410 C1411 1.414 . S
C1410 C1413 1.499 . S
C1411 H1385 0.950 . S
C1411 C1410 1.414 . S
C1411 C1412 1.374 . S
C1412 H1386 0.950 . S
C1412 C1408 1.385 . S
C1412 C1411 1.374 . S
C1413 C1410 1.499 . S
C1413 C1414 1.373 . S
C1413 C1415 1.389 . S
C1414 H1387 0.950 . S
C1414 C1400 1.377 . S
C1414 C1413 1.373 . S
C1415 C1399 1.377 . S
C1415 C1413 1.389 . S
C1415 C1416 1.524 . S
C1416 C1415 1.524 . S
C1416 C1417 1.397 . S
C1416 C1421 1.363 . S
C1417 H1388 0.950 . S
C1417 C1416 1.397 . S
C1417 C1418 1.334 . S
C1418 H1389 0.950 . S
C1418 C1417 1.334 . S
C1418 C1419 1.287 . S
C1419 C1418 1.287 . S
C1419 C1420 1.524 . S
C1419 H1422 0.999 . S
C1420 H1390 0.950 . S
C1420 C1419 1.524 . S
C1420 C1421 1.415 . S
C1421 H1391 0.950 . S
C1421 C1416 1.363 . S
C1421 C1420 1.415 . S
H1422 C1419 0.999 . S
H1423 C1404 0.913 . S
C243 C5 2.546 . S
C258 C88 2.711 . S
C293 C18 2.274 . S
C308 C130 2.406 1_566 S
C358 C160 0.744 . S
C343 C30 0.744 . S
C393 C41 0.730 . S
C408 C194 0.730 . S
C458 C151 2.171 . S
C443 C7 2.110 . S
C508 C105 2.176 . S
C493 C16 1.846 . S
C558 C198 1.348 1_556 S
C543 C29 1.248 . S
C608 C164 0.808 . S
C593 C38 0.797 . S
C643 C8 2.314 . S
C658 C219 2.310 . S
C708 C126 1.254 . S
C693 C27 1.041 . S
C743 C40 1.037 . S
C758 C101 1.056 . S
C793 C19 1.705 . S
C808 C185 1.744 . S
C858 C117 2.429 . S
C843 C51 2.374 . S
C893 C62 2.364 . S
C908 C139 2.487 . S
C943 C74 0.831 . S
C958 C169 0.838 . S
C993 C84 0.853 . S
C1008 C203 0.874 . S
C1043 C49 2.149 . S
C1058 C122 2.296 1_565 S
C1108 C96 1.843 . S
C1093 C63 1.801 . S
C1158 C207 1.274 . S
C1143 C71 1.040 . S
C1208 C173 0.930 . S
C1193 C85 0.910 . S
C1243 C52 2.284 . S
C1258 C190 2.283 1_556 S
C1308 C135 1.341 . S
C1293 C73 1.239 . S
C1358 C92 0.912 . S
C1343 C82 0.805 . S
C1393 C60 1.975 . S
C1408 C156 2.322 . S
