# Generated by pormake.
# Topology cml, (3,6)-cn, num edge types: 1
# Building blocks:
#     Node 0, Type 0, BuildingBlock: WUSLED_clean_sbu_0, # of connection points: 3
#     Node 1, Type 0, BuildingBlock: WUSLED_clean_sbu_0, # of connection points: 3
#     Node 2, Type 0, BuildingBlock: WUSLED_clean_sbu_0, # of connection points: 3
#     Node 3, Type 0, BuildingBlock: WUSLED_clean_sbu_0, # of connection points: 3
#     Node 4, Type 0, BuildingBlock: WUSLED_clean_sbu_0, # of connection points: 3
#     Node 5, Type 0, BuildingBlock: WUSLED_clean_sbu_0, # of connection points: 3
#     Node 6, Type 0, BuildingBlock: WUSLED_clean_sbu_0, # of connection points: 3
#     Node 7, Type 0, BuildingBlock: WUSLED_clean_sbu_0, # of connection points: 3
#     Node 8, Type 1, BuildingBlock: IZENUY_clean_sbu_0, # of connection points: 6
#     Node 9, Type 1, BuildingBlock: IZENUY_clean_sbu_0, # of connection points: 6
#     Node 10, Type 1, BuildingBlock: IZENUY_clean_sbu_0, # of connection points: 6
#     Node 11, Type 1, BuildingBlock: IZENUY_clean_sbu_0, # of connection points: 6
#     Edge 12, Type (0, 1), BuildingBlock: XIVTED_clean_linker_0, # of connection points: 2
#     Edge 13, Type (0, 1), BuildingBlock: XIVTED_clean_linker_0, # of connection points: 2
#     Edge 14, Type (0, 1), BuildingBlock: XIVTED_clean_linker_0, # of connection points: 2
#     Edge 15, Type (0, 1), BuildingBlock: XIVTED_clean_linker_0, # of connection points: 2
#     Edge 16, Type (0, 1), BuildingBlock: XIVTED_clean_linker_0, # of connection points: 2
#     Edge 17, Type (0, 1), BuildingBlock: XIVTED_clean_linker_0, # of connection points: 2
#     Edge 18, Type (0, 1), BuildingBlock: XIVTED_clean_linker_0, # of connection points: 2
#     Edge 19, Type (0, 1), BuildingBlock: XIVTED_clean_linker_0, # of connection points: 2
#     Edge 20, Type (0, 1), BuildingBlock: XIVTED_clean_linker_0, # of connection points: 2
#     Edge 21, Type (0, 1), BuildingBlock: XIVTED_clean_linker_0, # of connection points: 2
#     Edge 22, Type (0, 1), BuildingBlock: XIVTED_clean_linker_0, # of connection points: 2
#     Edge 23, Type (0, 1), BuildingBlock: XIVTED_clean_linker_0, # of connection points: 2
#     Edge 24, Type (0, 1), BuildingBlock: XIVTED_clean_linker_0, # of connection points: 2
#     Edge 25, Type (0, 1), BuildingBlock: XIVTED_clean_linker_0, # of connection points: 2
#     Edge 26, Type (0, 1), BuildingBlock: XIVTED_clean_linker_0, # of connection points: 2
#     Edge 27, Type (0, 1), BuildingBlock: XIVTED_clean_linker_0, # of connection points: 2
#     Edge 28, Type (0, 1), BuildingBlock: XIVTED_clean_linker_0, # of connection points: 2
#     Edge 29, Type (0, 1), BuildingBlock: XIVTED_clean_linker_0, # of connection points: 2
#     Edge 30, Type (0, 1), BuildingBlock: XIVTED_clean_linker_0, # of connection points: 2
#     Edge 31, Type (0, 1), BuildingBlock: XIVTED_clean_linker_0, # of connection points: 2
#     Edge 32, Type (0, 1), BuildingBlock: XIVTED_clean_linker_0, # of connection points: 2
#     Edge 33, Type (0, 1), BuildingBlock: XIVTED_clean_linker_0, # of connection points: 2
#     Edge 34, Type (0, 1), BuildingBlock: XIVTED_clean_linker_0, # of connection points: 2
#     Edge 35, Type (0, 1), BuildingBlock: XIVTED_clean_linker_0, # of connection points: 2
# Relax obj value: 0.051
# Max RMSD: 0.068
# Mean RMSD: 0.065
data_MOF--net-cml--node1-WUSLED_clean_sbu_0--node2-IZENUY_clean_sbu_0--edge1-XIVTED_clean_linker_0
_symmetry_space_group_name_H-M    P1
_symmetry_Int_Tables_number       1
_symmetry_cell_setting            triclinic
loop_
_symmetry_equiv_pos_as_xyz
'x, y, z'
_cell_length_a     46.129048
_cell_length_b     53.011152
_cell_length_c     48.744172
_cell_angle_alpha  90.30894
_cell_angle_beta   90.120813
_cell_angle_gamma 89.996664
loop_
_atom_site_label
_atom_site_type_symbol
_atom_site_fract_x
_atom_site_fract_y
_atom_site_fract_z
_atom_type_partial_charge
C0 C 0.30708 0.44047 0.95541 0.0
C1 C 0.31522 0.45965 0.97385 0.0
C2 C 0.34026 0.48199 0.93728 0.0
C3 C 0.33145 0.48025 0.96485 0.0
C4 C 0.33183 0.46278 0.91884 0.0
C5 C 0.31537 0.44225 0.92784 0.0
U6 U 0.29064 0.39365 1.01161 0.0
O7 O 0.24946 0.3771 0.02556 0.0
O8 O 0.28441 0.35255 1.01051 0.0
C9 C 0.25726 0.35411 0.01856 0.0
C10 C 0.29106 0.41814 0.96499 0.0
C11 C 0.23582 0.33959 1.00244 0.0
C12 C 0.21895 0.32062 0.9597 0.0
C13 C 0.23919 0.3353 0.97415 0.0
C14 C 0.19142 0.31495 1.00145 0.0
C15 C 0.19492 0.31004 0.97323 0.0
C16 C 0.21168 0.32949 0.01586 0.0
C17 C 0.3328 0.40361 0.07954 0.0
C18 C 0.33887 0.37347 0.11657 0.0
C19 C 0.35566 0.41648 0.12229 0.0
C20 C 0.34588 0.42219 0.09591 0.0
C21 C 0.35258 0.39199 0.13289 0.0
C22 C 0.32901 0.37925 0.0901 0.0
C23 C 0.32468 0.40996 0.0512 0.0
O24 O 0.30705 0.39805 0.96947 0.0
O25 O 0.27186 0.42231 0.98441 0.0
O26 O 0.29815 0.41832 0.04748 0.0
O27 O 0.3331 0.39399 0.0321 0.0
H28 H 0.30923 0.45862 0.9953 0.0
H29 H 0.33708 0.49483 0.97956 0.0
H30 H 0.33854 0.46325 0.89758 0.0
H31 H 0.3095 0.42753 0.91336 0.0
H32 H 0.2225 0.31711 0.93806 0.0
H33 H 0.2576 0.34303 0.9633 0.0
H34 H 0.17291 0.30763 1.01247 0.0
H35 H 0.20857 0.33273 0.03763 0.0
H36 H 0.33586 0.35451 0.12419 0.0
H37 H 0.3665 0.43111 0.13403 0.0
H38 H 0.34909 0.44106 0.08804 0.0
H39 H 0.31886 0.36465 0.07776 0.0
C40 C 0.70448 0.67104 0.58814 0.0
C41 C 0.6751 0.67819 0.58876 0.0
C42 C 0.67357 0.67236 0.63829 0.0
C43 C 0.65987 0.67884 0.61352 0.0
C44 C 0.70298 0.66539 0.63774 0.0
C45 C 0.71829 0.66488 0.61296 0.0
U46 U 0.72057 0.63887 0.51975 0.0
O47 O 0.72661 0.65452 0.47838 0.0
O48 O 0.76131 0.63228 0.49748 0.0
C49 C 0.75363 0.64676 0.47685 0.0
C50 C 0.72073 0.66989 0.56188 0.0
C51 C 0.77498 0.66571 0.4676 0.0
C52 C 0.79192 0.69395 0.43184 0.0
C53 C 0.77164 0.6766 0.44162 0.0
C54 C 0.8194 0.68991 0.47395 0.0
C55 C 0.81621 0.70073 0.44778 0.0
C56 C 0.79898 0.67264 0.48379 0.0
C57 C 0.67677 0.57805 0.50506 0.0
C58 C 0.6755 0.55465 0.46203 0.0
C59 C 0.6499 0.53884 0.50175 0.0
C60 C 0.65933 0.55958 0.51706 0.0
C61 C 0.65779 0.53609 0.47402 0.0
C62 C 0.68498 0.57549 0.47748 0.0
C63 C 0.68547 0.59992 0.52178 0.0
O64 O 0.73929 0.65118 0.55928 0.0
O65 O 0.70564 0.67392 0.53941 0.0
O66 O 0.67761 0.62214 0.51252 0.0
O67 O 0.71206 0.59953 0.53148 0.0
H68 H 0.66369 0.68314 0.57012 0.0
H69 H 0.63716 0.68402 0.61316 0.0
H70 H 0.71425 0.66059 0.65652 0.0
H71 H 0.74097 0.65955 0.61321 0.0
H72 H 0.78843 0.70218 0.41182 0.0
H73 H 0.7533 0.67158 0.42877 0.0
H74 H 0.83797 0.69439 0.48668 0.0
H75 H 0.80218 0.66456 0.50393 0.0
H76 H 0.68213 0.55302 0.4408 0.0
H77 H 0.63585 0.52523 0.51153 0.0
H78 H 0.65269 0.56134 0.53831 0.0
H79 H 0.69853 0.58962 0.46791 0.0
C80 C 0.71023 0.44179 0.9618 0.0
C81 C 0.69018 0.45361 0.97926 0.0
C82 C 0.67958 0.48497 0.94419 0.0
C83 C 0.67502 0.47502 0.97056 0.0
C84 C 0.70002 0.47317 0.92694 0.0
C85 C 0.71518 0.45178 0.93569 0.0
U86 U 0.7237 0.3914 1.01518 0.0
O87 O 0.72954 0.35037 1.01132 0.0
O88 O 0.76412 0.37355 0.02945 0.0
C89 C 0.75618 0.35101 0.02095 0.0
C90 C 0.72565 0.41886 0.97054 0.0
C91 C 0.77796 0.33666 1.00522 0.0
C92 C 0.80195 0.32548 0.96241 0.0
C93 C 0.78168 0.34009 0.97691 0.0
C94 C 0.81517 0.30421 1.00447 0.0
C95 C 0.8188 0.30719 0.976 0.0
C96 C 0.79496 0.31877 0.01887 0.0
C97 C 0.67868 0.39814 0.08195 0.0
C98 C 0.67307 0.36732 0.11839 0.0
C99 C 0.65398 0.40959 0.1241 0.0
C100 C 0.66409 0.41595 0.09809 0.0
C101 C 0.65829 0.38521 0.13465 0.0
C102 C 0.68327 0.37377 0.09222 0.0
C103 C 0.6881 0.40561 0.05434 0.0
O104 O 0.74365 0.42189 0.99123 0.0
O105 O 0.70939 0.39862 0.97284 0.0
O106 O 0.68043 0.39065 0.034 0.0
O107 O 0.71482 0.41397 0.05229 0.0
H108 H 0.68603 0.44609 0.99951 0.0
H109 H 0.65921 0.48339 0.98425 0.0
H110 H 0.70437 0.4805 0.90667 0.0
H111 H 0.73066 0.44295 0.92198 0.0
H112 H 0.80399 0.32816 0.9405 0.0
H113 H 0.76873 0.35384 0.966 0.0
H114 H 0.8281 0.29071 0.01574 0.0
H115 H 0.7925 0.31595 0.04075 0.0
H116 H 0.67691 0.34844 0.12594 0.0
H117 H 0.6422 0.42371 0.13572 0.0
H118 H 0.6602 0.43481 0.09043 0.0
H119 H 0.69456 0.35976 0.08001 0.0
C120 C 0.30849 0.67075 0.5925 0.0
C121 C 0.33018 0.65279 0.59737 0.0
C122 C 0.33948 0.67107 0.64255 0.0
C123 C 0.34556 0.65298 0.6221 0.0
C124 C 0.31769 0.68908 0.6375 0.0
C125 C 0.30231 0.68889 0.61267 0.0
U126 U 0.29249 0.63891 0.5247 0.0
O127 O 0.25177 0.63289 0.50207 0.0
O128 O 0.28705 0.6544 0.48315 0.0
C129 C 0.25998 0.64684 0.48126 0.0
C130 C 0.29242 0.67047 0.56639 0.0
C131 C 0.239 0.66594 0.47196 0.0
C132 C 0.20553 0.70043 0.48111 0.0
C133 C 0.22598 0.68287 0.49043 0.0
C134 C 0.21132 0.68457 0.43476 0.0
C135 C 0.19779 0.7014 0.45315 0.0
C136 C 0.23167 0.66703 0.4441 0.0
C137 C 0.3348 0.577 0.51117 0.0
C138 C 0.33767 0.55426 0.46782 0.0
C139 C 0.36072 0.5372 0.50839 0.0
C140 C 0.35098 0.55788 0.52367 0.0
C141 C 0.35446 0.5352 0.4802 0.0
C142 C 0.3279 0.57499 0.4832 0.0
C143 C 0.32643 0.59916 0.52764 0.0
O144 O 0.30843 0.67367 0.54441 0.0
O145 O 0.27352 0.65206 0.56366 0.0
O146 O 0.29971 0.59944 0.53692 0.0
O147 O 0.33503 0.62114 0.51834 0.0
H148 H 0.3353 0.63866 0.58197 0.0
H149 H 0.3625 0.6391 0.62501 0.0
H150 H 0.31223 0.70311 0.65287 0.0
H151 H 0.28557 0.70286 0.60925 0.0
H152 H 0.19539 0.71291 0.49591 0.0
H153 H 0.23143 0.68234 0.51205 0.0
H154 H 0.20637 0.68504 0.41305 0.0
H155 H 0.24163 0.65421 0.42952 0.0
H156 H 0.33217 0.55319 0.44624 0.0
H157 H 0.37395 0.52317 0.51854 0.0
H158 H 0.35658 0.55918 0.54524 0.0
H159 H 0.31532 0.58958 0.47323 0.0
C160 C 0.81001 0.93722 0.95541 0.0
C161 C 0.83269 0.94797 0.9707 0.0
C162 C 0.84018 0.97959 0.93528 0.0
C163 C 0.84767 0.9689 0.96072 0.0
C164 C 0.8173 0.96876 0.9201 0.0
C165 C 0.80235 0.94775 0.93011 0.0
U166 U 0.7963 0.89091 1.01267 0.0
O167 O 0.75601 0.87394 0.02797 0.0
O168 O 0.79066 0.84967 1.0119 0.0
C169 C 0.76389 0.85095 0.02098 0.0
C170 C 0.79449 0.91502 0.9658 0.0
C171 C 0.74234 0.83623 1.0054 0.0
C172 C 0.70957 0.83099 0.9666 0.0
C173 C 0.7306 0.84514 0.98068 0.0
C174 C 0.71224 0.79881 1.00162 0.0
C175 C 0.69995 0.80772 0.97704 0.0
C176 C 0.73316 0.81295 0.01564 0.0
C177 C 0.8403 0.90142 0.07931 0.0
C178 C 0.84581 0.87173 0.11683 0.0
C179 C 0.86403 0.9144 0.1216 0.0
C180 C 0.8542 0.91991 0.09518 0.0
C181 C 0.86016 0.89019 0.13273 0.0
C182 C 0.8359 0.87732 0.09034 0.0
C183 C 0.83147 0.90768 0.05113 0.0
O184 O 0.81074 0.89503 0.96996 0.0
O185 O 0.77642 0.91956 0.98605 0.0
O186 O 0.80478 0.91586 0.04807 0.0
O187 O 0.83945 0.89169 0.03187 0.0
H188 H 0.83892 0.94004 0.99029 0.0
H189 H 0.86544 0.97645 0.97278 0.0
H190 H 0.81073 0.97666 0.90062 0.0
H191 H 0.78481 0.93972 0.9181 0.0
H192 H 0.70044 0.83853 0.94788 0.0
H193 H 0.73751 0.8631 0.97244 0.0
H194 H 0.7058 0.7808 1.01001 0.0
H195 H 0.74213 0.80572 0.0346 0.0
H196 H 0.84222 0.85299 0.12487 0.0
H197 H 0.87537 0.92896 0.13301 0.0
H198 H 0.85786 0.93859 0.08696 0.0
H199 H 0.82508 0.86281 0.07839 0.0
C200 C 0.2069 0.17107 0.58932 0.0
C201 C 0.18911 0.15057 0.59611 0.0
C202 C 0.17619 0.1708 0.63941 0.0
C203 C 0.17394 0.15041 0.62091 0.0
C204 C 0.19416 0.19129 0.63251 0.0
C205 C 0.2094 0.19139 0.60767 0.0
U206 U 0.22071 0.14071 0.52052 0.0
O207 O 0.22546 0.15662 0.47919 0.0
O208 O 0.26081 0.13434 0.49705 0.0
C209 C 0.25224 0.14851 0.47652 0.0
C210 C 0.22234 0.17137 0.56293 0.0
C211 C 0.27341 0.16716 0.46674 0.0
C212 C 0.29884 0.20715 0.4713 0.0
C213 C 0.27873 0.18963 0.48124 0.0
C214 C 0.30855 0.17981 0.43241 0.0
C215 C 0.31397 0.20248 0.44669 0.0
C216 C 0.28847 0.16237 0.44235 0.0
C217 C 0.17705 0.07972 0.50664 0.0
C218 C 0.17652 0.0558 0.46393 0.0
C219 C 0.14885 0.04123 0.50297 0.0
C220 C 0.15846 0.06192 0.5183 0.0
C221 C 0.15772 0.03787 0.47559 0.0
C222 C 0.18616 0.07658 0.47938 0.0
C223 C 0.18606 0.10149 0.52335 0.0
O224 O 0.24099 0.15292 0.55928 0.0
O225 O 0.20583 0.17528 0.54136 0.0
O226 O 0.17768 0.1237 0.51451 0.0
O227 O 0.21297 0.10124 0.53224 0.0
H228 H 0.18678 0.13476 0.58208 0.0
H229 H 0.15998 0.13452 0.62532 0.0
H230 H 0.19662 0.20717 0.64638 0.0
H231 H 0.22304 0.20737 0.60275 0.0
H232 H 0.30224 0.2245 0.48269 0.0
H233 H 0.26725 0.19365 0.50014 0.0
H234 H 0.32011 0.17535 0.41369 0.0
H235 H 0.28472 0.14506 0.43096 0.0
H236 H 0.18391 0.05369 0.44298 0.0
H237 H 0.13396 0.02815 0.51248 0.0
H238 H 0.1511 0.06415 0.53928 0.0
H239 H 0.20057 0.0902 0.47008 0.0
C240 C 0.2065 0.93977 0.96372 0.0
C241 C 0.17617 0.93981 0.96657 0.0
C242 C 0.17326 0.98138 0.94566 0.0
C243 C 0.15975 0.9603 0.95748 0.0
C244 C 0.20364 0.98161 0.9434 0.0
C245 C 0.22009 0.96092 0.95222 0.0
U246 U 0.22487 0.89153 0.01823 0.0
O247 O 0.23285 0.85071 0.01591 0.0
O248 O 0.26659 0.87586 0.03229 0.0
C249 C 0.25961 0.85273 0.02499 0.0
C250 C 0.22408 0.91801 0.97295 0.0
C251 C 0.28166 0.83845 1.00956 0.0
C252 C 0.30468 0.82572 0.96678 0.0
C253 C 0.28452 0.84066 0.981 0.0
C254 C 0.31956 0.80661 1.00958 0.0
C255 C 0.32225 0.8083 0.98089 0.0
C256 C 0.29947 0.82151 0.02371 0.0
C257 C 0.18028 0.898 0.08527 0.0
C258 C 0.17571 0.86763 0.12227 0.0
C259 C 0.15671 0.90996 0.12784 0.0
C260 C 0.16611 0.916 0.10151 0.0
C261 C 0.16133 0.8857 0.13861 0.0
C262 C 0.18521 0.87376 0.09579 0.0
C263 C 0.18892 0.90513 0.05734 0.0
O264 O 0.24222 0.92263 0.99321 0.0
O265 O 0.21014 0.89653 0.97571 0.0
O266 O 0.1819 0.88935 0.03752 0.0
O267 O 0.21508 0.91461 0.05475 0.0
H268 H 0.16504 0.92398 0.97574 0.0
H269 H 0.13642 0.95972 0.95984 0.0
H270 H 0.21463 0.99753 0.93424 0.0
H271 H 0.24344 0.96139 0.94994 0.0
H272 H 0.30601 0.8274 0.94469 0.0
H273 H 0.2709 0.85363 0.9697 0.0
H274 H 0.33306 0.7938 0.0212 0.0
H275 H 0.29763 0.8196 0.04577 0.0
H276 H 0.17976 0.84884 0.13 0.0
H277 H 0.14523 0.9242 0.13954 0.0
H278 H 0.16199 0.93476 0.09366 0.0
H279 H 0.19619 0.85962 0.08352 0.0
C280 C 0.80389 0.16959 0.59064 0.0
C281 C 0.81138 0.14681 0.60337 0.0
C282 C 0.83674 0.16973 0.63972 0.0
C283 C 0.82743 0.14688 0.62772 0.0
C284 C 0.82875 0.19254 0.62711 0.0
C285 C 0.81247 0.19244 0.60281 0.0
U286 U 0.78915 0.13915 0.52147 0.0
O287 O 0.74895 0.13399 0.49781 0.0
O288 O 0.78479 0.15587 0.48037 0.0
C289 C 0.75776 0.14841 0.47761 0.0
C290 C 0.78858 0.16966 0.56404 0.0
C291 C 0.73703 0.16771 0.4683 0.0
C292 C 0.70315 0.20188 0.47749 0.0
C293 C 0.72356 0.1843 0.48684 0.0
C294 C 0.7099 0.18672 0.43097 0.0
C295 C 0.69588 0.20318 0.44943 0.0
C296 C 0.73021 0.16917 0.44034 0.0
C297 C 0.83117 0.07719 0.50581 0.0
C298 C 0.85953 0.05921 0.46839 0.0
C299 C 0.8344 0.0316 0.49974 0.0
C300 C 0.82384 0.05264 0.51403 0.0
C301 C 0.85278 0.03458 0.47698 0.0
C302 C 0.84887 0.08024 0.4826 0.0
C303 C 0.82258 0.09901 0.52315 0.0
O304 O 0.80522 0.17325 0.54257 0.0
O305 O 0.76938 0.15161 0.56027 0.0
O306 O 0.7958 0.09922 0.53236 0.0
O307 O 0.83172 0.1214 0.51555 0.0
H308 H 0.80516 0.1289 0.5943 0.0
H309 H 0.83267 0.12896 0.63704 0.0
H310 H 0.8358 0.21047 0.63552 0.0
H311 H 0.8071 0.21022 0.59319 0.0
H312 H 0.69262 0.21407 0.49232 0.0
H313 H 0.72858 0.18345 0.50854 0.0
H314 H 0.70531 0.18746 0.4092 0.0
H315 H 0.74051 0.1566 0.42571 0.0
H316 H 0.87396 0.06233 0.45125 0.0
H317 H 0.82837 1.01297 0.50674 0.0
H318 H 0.81044 0.04969 0.53196 0.0
H319 H 0.85522 0.09885 0.47581 0.0
Fe320 Fe 1.00746 0.83248 0.33818 0.0
Fe321 Fe 0.00783 0.85968 0.39418 0.0
O322 O 0.00777 0.86091 0.35776 0.0
Fe323 Fe 0.00793 0.8905 0.34094 0.0
O324 O 0.97418 0.88352 0.32329 0.0
O325 O 0.98612 0.8454 0.30959 0.0
O326 O 0.97346 0.82256 0.35347 0.0
C327 C 0.96913 0.82033 0.37891 0.0
C328 C 0.04594 0.86058 0.30846 0.0
O329 O 0.98587 0.83084 0.39615 0.0
C330 C 0.04593 0.90048 0.3828 0.0
O331 O 0.02888 0.81427 0.36308 0.0
O332 O 0.04151 0.84199 0.39457 0.0
O333 O 0.0297 0.8796 0.3118 0.0
O334 O 0.04138 0.84034 0.3213 0.0
C335 C 0.97004 0.89887 0.38602 0.0
O336 O 0.02973 0.88827 0.39893 0.0
O337 O 0.04167 0.89988 0.35725 0.0
C338 C 0.04556 0.82124 0.38239 0.0
O339 O 0.97419 0.87747 0.39659 0.0
O340 O 0.98628 0.90682 0.36704 0.0
C341 C 0.97013 0.86475 0.30776 0.0
Fe342 Fe 1.00735 0.15874 0.88959 0.0
Fe343 Fe 0.00815 0.13459 0.83229 0.0
O344 O 0.00755 0.16194 0.85339 0.0
Fe345 Fe 1.00713 0.19235 0.83819 0.0
O346 O 0.04058 0.20141 0.85541 0.0
O347 O 0.02871 0.18731 0.89623 0.0
O348 O 0.0414 0.14126 0.88951 0.0
C349 C 0.04531 0.12099 0.87632 0.0
C350 C 0.96858 0.19764 0.88338 0.0
O351 O 0.029 0.11529 0.85635 0.0
C352 C 0.97035 0.16725 0.80334 0.0
O353 O 0.98578 0.12961 0.88949 0.0
O354 O 0.97401 0.12342 0.84623 0.0
O355 O 0.98475 0.20709 0.86512 0.0
O356 O 0.97338 0.1758 0.89249 0.0
C357 C 0.04632 0.16447 0.80458 0.0
O358 O 0.9874 0.14859 0.8042 0.0
O359 O 0.97359 0.18562 0.81966 0.0
C360 C 0.96949 0.11973 0.87143 0.0
O361 O 0.0423 0.14389 0.81694 0.0
O362 O 0.02953 0.1831 0.80855 0.0
C363 C 0.04496 0.20038 0.88095 0.0
Fe364 Fe 0.50432 0.33381 0.33519 0.0
Fe365 Fe 0.50557 0.36103 0.39115 0.0
O366 O 0.50497 0.36222 0.35476 0.0
Fe367 Fe 0.50489 0.39181 0.33796 0.0
O368 O 0.47077 0.38489 0.32096 0.0
O369 O 0.48245 0.34677 0.30698 0.0
O370 O 0.47056 0.32391 0.35103 0.0
C371 C 0.46665 0.32168 0.37652 0.0
C372 C 0.54229 0.36193 0.30489 0.0
O373 O 0.48371 0.33216 0.39349 0.0
C374 C 0.54366 0.40167 0.37916 0.0
O375 O 0.52621 0.31561 0.35979 0.0
O376 O 0.53925 0.34336 0.39111 0.0
O377 O 0.52601 0.38089 0.30842 0.0
O378 O 0.53796 0.34166 0.31775 0.0
C379 C 0.46784 0.4003 0.38363 0.0
O380 O 0.52757 0.38964 0.39555 0.0
O381 O 0.539 0.40103 0.35367 0.0
C382 C 0.54314 0.3226 0.3789 0.0
O383 O 0.47193 0.37879 0.39393 0.0
O384 O 0.48389 0.40822 0.36449 0.0
C385 C 0.46638 0.36611 0.30551 0.0
Fe386 Fe 0.50973 0.66057 0.89183 0.0
Fe387 Fe 0.50992 0.63653 0.83439 0.0
O388 O 0.50962 0.66379 0.85559 0.0
Fe389 Fe 0.50917 0.69427 0.84058 0.0
O390 O 0.54303 0.7029 0.85737 0.0
O391 O 0.53086 0.68936 0.89829 0.0
O392 O 0.54387 0.64332 0.89144 0.0
C393 C 0.54822 0.62336 0.87779 0.0
C394 C 0.47101 0.69942 0.88601 0.0
O395 O 0.53178 0.61747 0.85793 0.0
C396 C 0.47128 0.66938 0.80659 0.0
O397 O 0.48864 0.63119 0.89202 0.0
O398 O 0.47622 0.62509 0.84898 0.0
O399 O 0.4874 0.70893 0.86796 0.0
O400 O 0.4756 0.67746 0.8949 0.0
C401 C 0.54735 0.66658 0.8059 0.0
O402 O 0.48812 0.65053 0.80694 0.0
O403 O 0.47532 0.68785 0.8226 0.0
C404 C 0.47229 0.62109 0.87418 0.0
O405 O 0.54362 0.64596 0.81821 0.0
O406 O 0.53076 0.68519 0.81043 0.0
C407 C 0.54729 0.7022 0.88295 0.0
H408 H 0.17371 0.31508 0.92052 0.0
H409 H 0.06414 0.19878 0.93395 0.0
H410 H 0.168 0.26726 0.99173 0.0
H411 H 0.07856 0.23753 0.8575 0.0
H412 H 0.10118 0.22492 0.95554 0.0
H413 H 0.13837 0.28796 0.89709 0.0
C414 C 0.16522 0.29883 0.93121 0.0
C415 C 0.17381 0.29362 0.95829 0.0
C416 C 0.09635 0.22772 0.93402 0.0
C417 C 0.13303 0.26266 0.93164 0.0
C418 C 0.07509 0.2128 0.92165 0.0
C419 C 0.06807 0.21597 0.89383 0.0
C420 C 0.11075 0.24617 0.91862 0.0
C421 C 0.08322 0.23441 0.87899 0.0
C422 C 0.14493 0.28342 0.91783 0.0
C423 C 0.16169 0.27242 0.97112 0.0
N424 N 0.10376 0.24889 0.8916 0.0
N425 N 0.14193 0.25785 0.95774 0.0
H426 H 0.8366 0.70516 0.39497 0.0
H427 H 0.95148 0.81331 0.43191 0.0
H428 H 0.84629 0.73756 0.47595 0.0
H429 H 0.93344 0.78885 0.34898 0.0
H430 H 0.91398 0.78478 0.44846 0.0
H431 H 0.87268 0.73483 0.37785 0.0
C432 C 0.8461 0.71861 0.40916 0.0
C433 C 0.83823 0.71878 0.43702 0.0
C434 C 0.91815 0.78567 0.42663 0.0
C435 C 0.88008 0.75265 0.41749 0.0
C436 C 0.93964 0.80196 0.41713 0.0
C437 C 0.94577 0.80348 0.38896 0.0
C438 C 0.90266 0.7706 0.40791 0.0
C439 C 0.92953 0.78833 0.37086 0.0
C440 C 0.86686 0.73548 0.39935 0.0
C441 C 0.85187 0.73639 0.45442 0.0
N442 N 0.90882 0.77247 0.38065 0.0
N443 N 0.8721 0.75254 0.44439 0.0
H444 H 0.85552 0.32064 0.93398 0.0
H445 H 0.92972 0.18406 0.92326 0.0
H446 H 0.83031 0.2568 0.98307 0.0
H447 H 0.95407 0.24688 0.87222 0.0
H448 H 0.89257 0.21035 0.94464 0.0
H449 H 0.89081 0.29387 0.91023 0.0
C450 C 0.85722 0.30098 0.93966 0.0
C451 C 0.83993 0.29107 0.96073 0.0
C452 C 0.90598 0.2184 0.92872 0.0
C453 C 0.88061 0.2603 0.93374 0.0
C454 C 0.92726 0.20337 0.91647 0.0
C455 C 0.94524 0.21324 0.89592 0.0
C456 C 0.90253 0.24359 0.92048 0.0
C457 C 0.94083 0.23842 0.888 0.0
C458 C 0.87752 0.28572 0.92618 0.0
C459 C 0.84346 0.26546 0.96735 0.0
N460 N 0.92002 0.25272 0.90033 0.0
N461 N 0.86336 0.25105 0.95398 0.0
H462 H 0.18893 0.75073 0.46929 0.0
H463 H 0.05777 0.77343 0.36403 0.0
H464 H 0.15559 0.69366 0.41415 0.0
H465 H 0.08564 0.82908 0.42348 0.0
H466 H 0.09473 0.7446 0.3812 0.0
H467 H 0.15221 0.78009 0.45225 0.0
C468 C 0.17384 0.74429 0.45372 0.0
C469 C 0.17551 0.71961 0.44314 0.0
C470 C 0.09279 0.76311 0.39052 0.0
C471 C 0.13353 0.75333 0.42328 0.0
C472 C 0.07167 0.77964 0.38068 0.0
C473 C 0.06844 0.80376 0.39235 0.0
C474 C 0.11101 0.77066 0.41219 0.0
C475 C 0.08722 0.81067 0.41388 0.0
C476 C 0.15296 0.76114 0.44388 0.0
C477 C 0.15554 0.71256 0.42266 0.0
N478 N 0.10766 0.79421 0.42309 0.0
N479 N 0.13547 0.72929 0.41343 0.0
H480 H 0.65499 0.78162 1.00009 0.0
H481 H 0.588 0.73228 0.85768 0.0
H482 H 0.69203 0.80009 0.92147 0.0
H483 H 0.55868 0.70864 0.93759 0.0
H484 H 0.625 0.75862 0.87998 0.0
H485 H 0.61827 0.75629 0.97689 0.0
C486 C 0.65555 0.78024 0.97792 0.0
C487 C 0.6769 0.79288 0.96278 0.0
C488 C 0.61044 0.74764 0.89258 0.0
C489 C 0.63439 0.764 0.93589 0.0
C490 C 0.5893 0.7326 0.87987 0.0
C491 C 0.57011 0.71818 0.89574 0.0
C492 C 0.61234 0.74834 0.92136 0.0
C493 C 0.57291 0.71937 0.92443 0.0
C494 C 0.63442 0.76584 0.96464 0.0
C495 C 0.67593 0.79083 0.93401 0.0
N496 N 0.59352 0.73416 0.93624 0.0
N497 N 0.65509 0.77662 0.9215 0.0
H498 H 0.32354 0.21631 0.39317 0.0
H499 H 0.4534 0.31109 0.43 0.0
H500 H 0.35355 0.23093 0.47567 0.0
H501 H 0.42661 0.29405 0.34701 0.0
H502 H 0.41576 0.28297 0.44701 0.0
H503 H 0.36001 0.24561 0.37591 0.0
C504 C 0.33785 0.22559 0.40769 0.0
C505 C 0.33547 0.22099 0.43597 0.0
C506 C 0.41807 0.28537 0.42507 0.0
C507 C 0.37719 0.25489 0.41626 0.0
C508 C 0.43961 0.30146 0.41529 0.0
C509 C 0.44335 0.30493 0.38696 0.0
C510 C 0.39997 0.27257 0.40646 0.0
C511 C 0.42464 0.29195 0.369 0.0
C512 C 0.35859 0.24245 0.39779 0.0
C513 C 0.3543 0.23402 0.45376 0.0
N514 N 0.40382 0.27633 0.37905 0.0
N515 N 0.37437 0.25028 0.44361 0.0
H516 H 0.33431 0.75835 0.9902 0.0
H517 H 0.456 0.74815 0.87351 0.0
H518 H 0.35762 0.82012 0.9373 0.0
H519 H 0.43326 0.68689 0.92737 0.0
H520 H 0.41909 0.77433 0.89552 0.0
H521 H 0.36952 0.73167 0.96657 0.0
C522 C 0.34692 0.76638 0.97369 0.0
C523 C 0.34306 0.79166 0.96592 0.0
C524 C 0.42212 0.75515 0.9025 0.0
C525 C 0.38337 0.76094 0.93844 0.0
C526 C 0.44323 0.74014 0.88993 0.0
C527 C 0.44793 0.71523 0.89864 0.0
C528 C 0.40548 0.74527 0.92402 0.0
C529 C 0.43055 0.70597 0.91998 0.0
C530 C 0.36694 0.75104 0.96008 0.0
C531 C 0.35964 0.80074 0.94392 0.0
N532 N 0.4102 0.72099 0.93195 0.0
N533 N 0.37912 0.78544 0.93105 0.0
H534 H 0.68631 0.25225 0.46608 0.0
H535 H 0.55551 0.27486 0.36034 0.0
H536 H 0.65429 0.19552 0.40983 0.0
H537 H 0.5833 0.33048 0.41986 0.0
H538 H 0.59264 0.24609 0.3774 0.0
H539 H 0.64949 0.28149 0.44901 0.0
C540 C 0.67149 0.24586 0.45025 0.0
C541 C 0.67355 0.22132 0.43938 0.0
C542 C 0.59065 0.26459 0.38675 0.0
C543 C 0.63146 0.25489 0.41949 0.0
C544 C 0.56943 0.28108 0.37697 0.0
C545 C 0.56613 0.30517 0.3887 0.0
C546 C 0.60887 0.27216 0.40842 0.0
C547 C 0.58493 0.31209 0.4102 0.0
C548 C 0.65055 0.26264 0.4404 0.0
C549 C 0.65393 0.21432 0.41858 0.0
N550 N 0.60544 0.29569 0.41936 0.0
N551 N 0.63378 0.23098 0.40935 0.0
H552 H 0.38435 0.50535 0.96551 0.0
H553 H 0.43211 0.59551 0.84271 0.0
H554 H 0.339 0.50733 0.88795 0.0
H555 H 0.46352 0.60289 0.92589 0.0
H556 H 0.39888 0.56233 0.85789 0.0
H557 H 0.41465 0.54016 0.95039 0.0
C558 C 0.3805 0.51323 0.94538 0.0
C559 C 0.35885 0.50336 0.92809 0.0
C560 C 0.41297 0.57133 0.87279 0.0
C561 C 0.39413 0.54314 0.91034 0.0
C562 C 0.43197 0.59026 0.86415 0.0
C563 C 0.45079 0.60198 0.883 0.0
C564 C 0.41295 0.56392 0.90043 0.0
C565 C 0.44952 0.59441 0.91056 0.0
C566 C 0.398 0.53307 0.93668 0.0
C567 C 0.35558 0.51406 0.90191 0.0
N568 N 0.43111 0.57582 0.91836 0.0
N569 N 0.37306 0.53332 0.89382 0.0
H570 H 0.65208 0.48691 0.4903 0.0
H571 H 0.57069 0.44131 0.3535 0.0
H572 H 0.63795 0.53541 0.42068 0.0
H573 H 0.56647 0.40228 0.43089 0.0
H574 H 0.603 0.47262 0.37463 0.0
H575 H 0.62845 0.4525 0.46547 0.0
C576 C 0.64408 0.49034 0.46975 0.0
C577 C 0.64661 0.51427 0.45777 0.0
C578 C 0.59516 0.45707 0.38687 0.0
C579 C 0.61975 0.47474 0.42905 0.0
C580 C 0.57682 0.43914 0.37482 0.0
C581 C 0.5656 0.41927 0.39054 0.0
C582 C 0.60257 0.45496 0.41474 0.0
C583 C 0.57431 0.41742 0.41806 0.0
C584 C 0.63068 0.47063 0.45554 0.0
C585 C 0.63654 0.51731 0.43075 0.0
N586 N 0.59215 0.43507 0.42928 0.0
N587 N 0.62333 0.49784 0.41738 0.0
H588 H 0.6638 0.52784 0.97278 0.0
H589 H 0.56811 0.58243 0.8494 0.0
H590 H 0.6559 0.49237 0.89321 0.0
H591 H 0.57901 0.62187 0.92644 0.0
H592 H 0.60168 0.55015 0.86506 0.0
H593 H 0.63392 0.56292 0.9564 0.0
C594 C 0.6558 0.52739 0.95189 0.0
C595 C 0.66241 0.50702 0.93439 0.0
C596 C 0.5969 0.56588 0.87857 0.0
C597 C 0.62831 0.54726 0.91545 0.0
C598 C 0.57766 0.58439 0.86963 0.0
C599 C 0.57049 0.60488 0.88669 0.0
C600 C 0.60911 0.56763 0.90492 0.0
C601 C 0.58384 0.60641 0.91259 0.0
C602 C 0.63888 0.54752 0.94251 0.0
C603 C 0.65174 0.50773 0.90739 0.0
N604 N 0.60234 0.58793 0.92101 0.0
N605 N 0.63518 0.52739 0.89885 0.0
H606 H 0.3771 0.53669 0.42819 0.0
H607 H 0.43553 0.39436 0.43073 0.0
H608 H 0.36018 0.48527 0.49463 0.0
H609 H 0.45194 0.44688 0.36516 0.0
H610 H 0.40433 0.42593 0.45274 0.0
H611 H 0.40075 0.50257 0.40303 0.0
C612 C 0.37797 0.51815 0.43737 0.0
C613 C 0.36672 0.51397 0.4637 0.0
C614 C 0.41462 0.43044 0.43344 0.0
C615 C 0.39437 0.47473 0.43507 0.0
C616 C 0.43239 0.4124 0.42082 0.0
C617 C 0.44666 0.41802 0.39617 0.0
C618 C 0.41105 0.45426 0.4213 0.0
C619 C 0.44167 0.44173 0.38428 0.0
C620 C 0.39171 0.49866 0.42304 0.0
C621 C 0.36897 0.48953 0.47462 0.0
N622 N 0.42448 0.45896 0.39702 0.0
N623 N 0.38266 0.47091 0.46035 0.0
H624 H 0.85704 0.98922 0.8822 0.0
H625 H 0.94974 0.11114 0.92333 0.0
H626 H 0.86054 0.02062 0.96405 0.0
H627 H 0.93872 0.08594 0.83958 0.0
H628 H 0.91608 0.07857 0.93819 0.0
H629 H 0.88565 0.02491 0.86576 0.0
C630 C 0.86355 1.00371 0.8967 0.0
C631 C 0.85647 1.00175 0.92464 0.0
C632 C 0.92086 0.08021 0.91653 0.0
C633 C 0.88962 0.04254 0.90594 0.0
C634 C 0.94015 0.09882 0.908 0.0
C635 C 0.94729 0.1012 0.88015 0.0
C636 C 0.90866 0.06361 0.89714 0.0
C637 C 0.93392 0.08478 0.86126 0.0
C638 C 0.88003 0.02403 0.88729 0.0
C639 C 0.86591 0.021 0.94245 0.0
N640 N 0.91544 0.06655 0.87013 0.0
N641 N 0.88206 0.04046 0.93284 0.0
H642 H 0.14006 0.03674 0.42158 0.0
H643 H 0.06828 0.90071 0.43467 0.0
H644 H 0.14981 0.98912 0.49257 0.0
H645 H 0.07247 0.94082 0.35796 0.0
H646 H 0.09974 0.93245 0.4555 0.0
H647 H 0.11728 1.00152 0.39702 0.0
C648 C 0.13781 0.01881 0.4319 0.0
C649 C 0.14656 0.01604 0.45935 0.0
C650 C 0.09403 0.93424 0.43404 0.0
C651 C 0.12009 0.97576 0.43146 0.0
C652 C 0.076 0.91612 0.42213 0.0
C653 C 0.06749 0.91821 0.39458 0.0
C654 C 0.10343 0.95488 0.41844 0.0
C655 C 0.07842 0.93848 0.37929 0.0
C656 C 0.12466 0.99873 0.41789 0.0
C657 C 0.1428 0.99237 0.47168 0.0
N658 N 0.09554 0.95621 0.39151 0.0
N659 N 0.12964 0.97328 0.45776 0.0
H660 H 0.12469 0.97842 0.91386 0.0
H661 H 0.08723 0.12553 0.9168 0.0
H662 H 0.18124 0.03249 0.95313 0.0
H663 H 0.05134 0.07248 0.85838 0.0
H664 H 0.11977 0.09214 0.93353 0.0
H665 H 0.09488 1.01301 0.89687 0.0
C666 C 0.13077 0.99762 0.91899 0.0
C667 C 0.15543 1.00257 0.935 0.0
C668 C 0.10482 0.08797 0.91695 0.0
C669 C 0.12134 0.04243 0.91552 0.0
C670 C 0.08623 0.10698 0.90743 0.0
C671 C 0.06639 0.10185 0.88619 0.0
C672 C 0.10325 0.06365 0.90538 0.0
C673 C 0.06616 0.07744 0.87479 0.0
C674 C 0.11384 0.01739 0.90914 0.0
C675 C 0.16247 0.02787 0.9407 0.0
N676 N 0.08407 0.05931 0.88464 0.0
N677 N 0.14539 0.04689 0.93113 0.0
H678 H 0.87258 0.99055 0.50016 0.0
H679 H 0.94786 0.94146 0.3629 0.0
H680 H 0.86352 0.02756 0.42191 0.0
H681 H 0.9431 0.8966 0.43638 0.0
H682 H 0.91609 0.97266 0.38411 0.0
H683 H 0.89719 0.9555 0.47729 0.0
C684 C 0.87537 0.99122 0.47813 0.0
C685 C 0.86601 1.01225 0.46303 0.0
C686 C 0.92175 0.95592 0.39557 0.0
C687 C 0.89479 0.97221 0.43676 0.0
C688 C 0.93997 0.93808 0.38347 0.0
C689 C 0.94838 0.91644 0.39795 0.0
C690 C 0.91203 0.95236 0.42255 0.0
C691 C 0.93722 0.91301 0.42446 0.0
C692 C 0.8896 0.9712 0.46511 0.0
C693 C 0.87079 1.01207 0.43456 0.0
N694 N 0.91988 0.93092 0.43603 0.0
N695 N 0.88499 0.99251 0.42243 0.0
H696 H 0.38154 0.34904 0.14838 0.0
H697 H 0.42898 0.40512 0.29442 0.0
H698 H 0.35206 0.42078 0.17998 0.0
H699 H 0.45533 0.33187 0.26438 0.0
H700 H 0.3977 0.40976 0.25425 0.0
H701 H 0.40541 0.34089 0.19224 0.0
C702 C 0.37971 0.36294 0.16464 0.0
C703 C 0.36491 0.38574 0.16032 0.0
C704 C 0.41016 0.39259 0.25655 0.0
C705 C 0.39268 0.37668 0.21058 0.0
C706 C 0.42804 0.3899 0.27952 0.0
C707 C 0.44509 0.36816 0.28273 0.0
C708 C 0.40934 0.37345 0.23649 0.0
C709 C 0.44276 0.34904 0.26275 0.0
C710 C 0.39354 0.35834 0.18966 0.0
C711 C 0.36366 0.40316 0.18214 0.0
N712 N 0.42545 0.35222 0.24042 0.0
N713 N 0.37752 0.39834 0.2062 0.0
H714 H 0.63486 0.70796 0.65629 0.0
H715 H 0.58708 0.63083 0.78947 0.0
H716 H 0.6745 0.63761 0.67994 0.0
H717 H 0.55645 0.70572 0.7705 0.0
H718 H 0.6197 0.63291 0.74999 0.0
H719 H 0.60611 0.70731 0.69827 0.0
C720 C 0.6375 0.69234 0.67032 0.0
C721 C 0.65703 0.67274 0.66448 0.0
C722 C 0.60595 0.64893 0.75458 0.0
C723 C 0.62419 0.67191 0.71281 0.0
C724 C 0.5873 0.64776 0.77713 0.0
C725 C 0.5688 0.66807 0.78329 0.0
C726 C 0.60602 0.6705 0.73793 0.0
C727 C 0.57018 0.68955 0.76657 0.0
C728 C 0.62119 0.69205 0.6944 0.0
C729 C 0.65987 0.65321 0.68368 0.0
N730 N 0.58827 0.69011 0.74462 0.0
N731 N 0.64349 0.6532 0.70688 0.0
H732 H 0.63155 0.34126 0.15108 0.0
H733 H 0.57112 0.40354 0.28786 0.0
H734 H 0.65833 0.41435 0.18124 0.0
H735 H 0.56375 0.32363 0.27221 0.0
H736 H 0.60372 0.40721 0.24883 0.0
H737 H 0.60769 0.33338 0.19514 0.0
C738 C 0.63282 0.3555 0.16705 0.0
C739 C 0.64661 0.3787 0.16221 0.0
C740 C 0.59528 0.38878 0.25401 0.0
C741 C 0.619 0.36991 0.21249 0.0
C742 C 0.57659 0.38669 0.27628 0.0
C743 C 0.56458 0.36328 0.28317 0.0
C744 C 0.60171 0.36738 0.23805 0.0
C745 C 0.57259 0.34204 0.26758 0.0
C746 C 0.61908 0.35101 0.19217 0.0
C747 C 0.64734 0.39647 0.18369 0.0
N748 N 0.59036 0.34465 0.24545 0.0
N749 N 0.63348 0.39181 0.20767 0.0
H750 H 0.35685 0.63026 0.67273 0.0
H751 H 0.44083 0.7107 0.78781 0.0
H752 H 0.35952 0.71167 0.67273 0.0
H753 H 0.45008 0.63034 0.77605 0.0
H754 H 0.40615 0.71159 0.74949 0.0
H755 H 0.38631 0.63018 0.71427 0.0
C756 C 0.36369 0.64816 0.68139 0.0
C757 C 0.35594 0.671 0.66891 0.0
C758 C 0.41571 0.69378 0.75544 0.0
C759 C 0.38952 0.67104 0.71695 0.0
C760 C 0.43541 0.69324 0.77736 0.0
C761 C 0.44859 0.67044 0.78502 0.0
C762 C 0.40899 0.67133 0.74131 0.0
C763 C 0.44073 0.6484 0.77072 0.0
C764 C 0.38042 0.64809 0.70525 0.0
C765 C 0.36485 0.69359 0.68164 0.0
N766 N 0.42156 0.64942 0.7496 0.0
N767 N 0.38129 0.69305 0.70488 0.0
H768 H 0.88779 0.84694 0.14939 0.0
H769 H 0.93346 0.90401 0.29559 0.0
H770 H 0.86006 0.91986 0.17915 0.0
H771 H 0.95964 0.83034 0.26665 0.0
H772 H 0.90324 0.90869 0.25472 0.0
H773 H 0.91077 0.83901 0.19374 0.0
C774 C 0.88617 0.86116 0.16534 0.0
C775 C 0.87212 0.8842 0.16037 0.0
C776 C 0.91543 0.89142 0.2574 0.0
C777 C 0.89882 0.87536 0.2112 0.0
C778 C 0.9327 0.88871 0.28079 0.0
C779 C 0.9494 0.86683 0.28453 0.0
C780 C 0.91485 0.87216 0.23747 0.0
C781 C 0.94733 0.84761 0.26463 0.0
C782 C 0.89948 0.85668 0.19064 0.0
C783 C 0.8711 0.90202 0.18181 0.0
N784 N 0.9306 0.85081 0.2419 0.0
N785 N 0.8844 0.89729 0.20617 0.0
H786 H 0.14732 0.21033 0.66372 0.0
H787 H 0.08261 0.12697 0.78594 0.0
H788 H 0.1665 0.13132 0.67457 0.0
H789 H 0.06034 0.20508 0.77258 0.0
H790 H 0.11615 0.12899 0.74726 0.0
H791 H 0.11822 0.20953 0.70553 0.0
C792 C 0.14566 0.19286 0.67502 0.0
C793 C 0.15935 0.17084 0.66548 0.0
C794 C 0.10402 0.14572 0.75287 0.0
C795 C 0.12569 0.16972 0.71335 0.0
C796 C 0.08488 0.1446 0.77503 0.0
C797 C 0.0684 0.16584 0.78249 0.0
C798 C 0.10681 0.16823 0.73802 0.0
C799 C 0.07241 0.18817 0.76754 0.0
C800 C 0.12887 0.19238 0.69884 0.0
C801 C 0.15601 0.14867 0.68086 0.0
N802 N 0.09107 0.18873 0.74599 0.0
N803 N 0.13951 0.14867 0.70395 0.0
H804 H 0.16268 0.91527 0.18484 0.0
H805 H 0.06829 0.82171 0.27724 0.0
H806 H 0.13486 0.84201 0.15607 0.0
H807 H 0.07415 0.90213 0.29011 0.0
H808 H 0.10116 0.82566 0.23778 0.0
H809 H 0.13902 0.90728 0.22862 0.0
C810 C 0.15167 0.89744 0.18774 0.0
C811 C 0.15031 0.87949 0.16648 0.0
C812 C 0.09542 0.84235 0.24948 0.0
C813 C 0.12337 0.8701 0.21687 0.0
C814 C 0.07684 0.8401 0.27204 0.0
C815 C 0.06831 0.86167 0.28679 0.0
C816 C 0.10583 0.86626 0.242 0.0
C817 C 0.0799 0.88505 0.27912 0.0
C818 C 0.13825 0.89286 0.2128 0.0
C819 C 0.13645 0.85641 0.17182 0.0
N820 N 0.09798 0.88672 0.25727 0.0
N821 N 0.12326 0.85245 0.19641 0.0
H822 H 0.8805 0.13672 0.65199 0.0
H823 H 0.93087 0.20496 0.79105 0.0
H824 H 0.83678 0.20258 0.68403 0.0
H825 H 0.9606 0.13177 0.76376 0.0
H826 H 0.89732 0.20603 0.75177 0.0
H827 H 0.9113 0.13624 0.69244 0.0
C828 C 0.8771 0.15097 0.66766 0.0
C829 C 0.85569 0.16957 0.66457 0.0
C830 C 0.91117 0.18974 0.75454 0.0
C831 C 0.89163 0.16943 0.7111 0.0
C832 C 0.93031 0.18912 0.77694 0.0
C833 C 0.94876 0.16831 0.78072 0.0
C834 C 0.91065 0.16949 0.73578 0.0
C835 C 0.947 0.1483 0.76176 0.0
C836 C 0.89491 0.15078 0.69077 0.0
C837 C 0.8531 0.18797 0.68536 0.0
N838 N 0.92847 0.14947 0.74017 0.0
N839 N 0.87086 0.18745 0.70774 0.0
loop_
_geom_bond_atom_site_label_1
_geom_bond_atom_site_label_2
_geom_bond_distance
_geom_bond_site_symmetry_2
_ccdc_geom_bond_type
C0 C1 1.264 . S
C0 C5 1.479 . S
C0 C10 1.465 . S
C1 C0 1.264 . S
C1 C3 1.339 . S
C1 H28 0.967 . S
C2 C3 1.395 . S
C2 C4 1.320 . S
C3 C1 1.339 . S
C3 C2 1.395 . S
C3 H29 0.929 . S
C4 C2 1.320 . S
C4 C5 1.405 . S
C4 H30 0.930 . S
C5 C0 1.479 . S
C5 C4 1.405 . S
C5 H31 0.931 . S
U6 O7 2.454 1_554 S
U6 O8 2.458 . S
U6 C9 2.984 1_554 S
U6 C10 2.847 1_554 S
U6 C23 2.882 . S
U6 O24 2.441 1_554 S
U6 O25 2.420 . S
U6 O26 2.455 . S
U6 O27 2.449 . S
O7 U6 2.454 1_556 S
O7 C9 1.353 . S
O8 U6 2.458 . S
O8 C9 1.286 1_554 S
C9 U6 2.984 1_556 S
C9 O7 1.353 . S
C9 O8 1.286 1_556 S
C9 C11 1.363 . S
C10 C0 1.465 . S
C10 U6 2.847 1_556 S
C10 O24 1.249 . S
C10 O25 1.202 1_556 S
C11 C9 1.363 . S
C11 C13 1.408 . S
C11 C16 1.342 . S
C12 C13 1.310 . S
C12 C15 1.461 . S
C12 H32 0.932 . S
C13 C11 1.408 . S
C13 C12 1.310 . S
C13 H33 0.930 . S
C14 C15 1.474 . S
C14 C16 1.285 . S
C14 H34 0.929 . S
C15 C12 1.461 . S
C15 C14 1.474 . S
C16 C11 1.342 . S
C16 C14 1.285 . S
C16 H35 0.930 1_556 S
C17 C20 1.424 . S
C17 C22 1.245 . S
C17 C23 1.428 . S
C18 C21 1.260 . S
C18 C22 1.477 . S
C18 H36 0.932 . S
C19 C20 1.384 . S
C19 C21 1.479 . S
C19 H37 0.929 . S
C20 C17 1.424 . S
C20 C19 1.384 . S
C20 H38 0.928 . S
C21 C18 1.260 . S
C21 C19 1.479 . S
C22 C17 1.245 . S
C22 C18 1.477 . S
C22 H39 0.932 . S
C23 U6 2.882 . S
C23 C17 1.428 . S
C23 O26 1.301 . S
C23 O27 1.282 . S
O24 U6 2.441 1_556 S
O24 C10 1.249 . S
O25 U6 2.420 . S
O25 C10 1.202 1_554 S
O26 U6 2.455 . S
O26 C23 1.301 . S
O27 U6 2.449 . S
O27 C23 1.282 . S
H28 C1 0.967 . S
H29 C3 0.929 . S
H30 C4 0.930 . S
H31 C5 0.931 . S
H32 C12 0.932 . S
H33 C13 0.930 . S
H34 C14 0.929 . S
H35 C16 0.930 1_554 S
H36 C18 0.932 . S
H37 C19 0.929 . S
H38 C20 0.928 . S
H39 C22 0.932 . S
C40 C41 1.264 . S
C40 C45 1.479 . S
C40 C50 1.465 . S
C41 C40 1.264 . S
C41 C43 1.339 . S
C41 H68 0.931 . S
C42 C43 1.395 . S
C42 C44 1.320 . S
C43 C41 1.339 . S
C43 C42 1.395 . S
C43 H69 0.929 . S
C44 C42 1.320 . S
C44 C45 1.405 . S
C44 H70 0.930 . S
C45 C40 1.479 . S
C45 C44 1.405 . S
C45 H71 0.931 . S
U46 O47 2.454 . S
U46 O48 2.458 . S
U46 C49 2.984 . S
U46 C50 2.847 . S
U46 C63 2.882 . S
U46 O64 2.441 . S
U46 O65 2.420 . S
U46 O66 2.455 . S
U46 O67 2.449 . S
O47 U46 2.454 . S
O47 C49 1.353 . S
O48 U46 2.458 . S
O48 C49 1.286 . S
C49 U46 2.984 . S
C49 O47 1.353 . S
C49 O48 1.286 . S
C49 C51 1.363 . S
C50 C40 1.465 . S
C50 U46 2.847 . S
C50 O64 1.249 . S
C50 O65 1.202 . S
C51 C49 1.363 . S
C51 C53 1.408 . S
C51 C56 1.342 . S
C52 C53 1.310 . S
C52 C55 1.461 . S
C52 H72 0.932 . S
C53 C51 1.408 . S
C53 C52 1.310 . S
C53 H73 0.930 . S
C54 C55 1.474 . S
C54 C56 1.285 . S
C54 H74 0.929 . S
C55 C52 1.461 . S
C55 C54 1.474 . S
C56 C51 1.342 . S
C56 C54 1.285 . S
C56 H75 0.930 . S
C57 C60 1.424 . S
C57 C62 1.245 . S
C57 C63 1.428 . S
C58 C61 1.260 . S
C58 C62 1.477 . S
C58 H76 0.932 . S
C59 C60 1.384 . S
C59 C61 1.479 . S
C59 H77 0.929 . S
C60 C57 1.424 . S
C60 C59 1.384 . S
C60 H78 0.928 . S
C61 C58 1.260 . S
C61 C59 1.479 . S
C62 C57 1.245 . S
C62 C58 1.477 . S
C62 H79 0.932 . S
C63 U46 2.882 . S
C63 C57 1.428 . S
C63 O66 1.301 . S
C63 O67 1.282 . S
O64 U46 2.441 . S
O64 C50 1.249 . S
O65 U46 2.420 . S
O65 C50 1.202 . S
O66 U46 2.455 . S
O66 C63 1.301 . S
O67 U46 2.449 . S
O67 C63 1.282 . S
H68 C41 0.931 . S
H69 C43 0.929 . S
H70 C44 0.930 . S
H71 C45 0.931 . S
H72 C52 0.932 . S
H73 C53 0.930 . S
H74 C54 0.929 . S
H75 C56 0.930 . S
H76 C58 0.932 . S
H77 C59 0.929 . S
H78 C60 0.928 . S
H79 C62 0.932 . S
C80 C81 1.264 . S
C80 C85 1.479 . S
C80 C90 1.465 . S
C81 C80 1.264 . S
C81 C83 1.339 . S
C81 H108 0.931 . S
C82 C83 1.395 . S
C82 C84 1.320 . S
C83 C81 1.339 . S
C83 C82 1.395 . S
C83 H109 0.929 . S
C84 C82 1.320 . S
C84 C85 1.405 . S
C84 H110 0.930 . S
C85 C80 1.479 . S
C85 C84 1.405 . S
C85 H111 0.931 . S
U86 O87 2.457 . S
U86 O88 2.457 1_556 S
U86 C89 2.986 . S
U86 C90 2.850 . S
U86 C103 2.878 1_556 S
U86 O104 2.445 . S
U86 O105 2.422 . S
U86 O106 2.451 1_556 S
U86 O107 2.445 1_556 S
O87 U86 2.457 . S
O87 C89 1.353 . S
O88 U86 2.457 1_554 S
O88 C89 1.286 1_554 S
C89 U86 2.986 . S
C89 O87 1.353 . S
C89 O88 1.286 1_556 S
C89 C91 1.363 . S
C90 C80 1.465 . S
C90 U86 2.850 . S
C90 O104 1.249 . S
C90 O105 1.202 . S
C91 C89 1.363 . S
C91 C93 1.408 . S
C91 C96 1.342 . S
C92 C93 1.310 . S
C92 C95 1.461 . S
C92 H112 0.932 . S
C93 C91 1.408 . S
C93 C92 1.310 . S
C93 H113 0.930 . S
C94 C95 1.474 . S
C94 C96 1.285 . S
C94 H114 0.929 . S
C95 C92 1.461 . S
C95 C94 1.474 . S
C96 C91 1.342 . S
C96 C94 1.285 . S
C96 H115 0.930 1_556 S
C97 C100 1.424 . S
C97 C102 1.245 . S
C97 C103 1.428 . S
C98 C101 1.260 . S
C98 C102 1.477 . S
C98 H116 0.932 . S
C99 C100 1.384 . S
C99 C101 1.479 . S
C99 H117 0.929 . S
C100 C97 1.424 . S
C100 C99 1.384 . S
C100 H118 0.928 . S
C101 C98 1.260 . S
C101 C99 1.479 . S
C102 C97 1.245 . S
C102 C98 1.477 . S
C102 H119 0.932 . S
C103 U86 2.878 1_554 S
C103 C97 1.428 . S
C103 O106 1.301 . S
C103 O107 1.282 . S
O104 U86 2.445 . S
O104 C90 1.249 . S
O105 U86 2.422 . S
O105 C90 1.202 . S
O106 U86 2.451 1_554 S
O106 C103 1.301 . S
O107 U86 2.445 1_554 S
O107 C103 1.282 . S
H108 C81 0.931 . S
H109 C83 0.929 . S
H110 C84 0.930 . S
H111 C85 0.931 . S
H112 C92 0.932 . S
H113 C93 0.930 . S
H114 C94 0.929 . S
H115 C96 0.930 1_554 S
H116 C98 0.932 . S
H117 C99 0.929 . S
H118 C100 0.928 . S
H119 C102 0.932 . S
C120 C121 1.264 . S
C120 C125 1.479 . S
C120 C130 1.465 . S
C121 C120 1.264 . S
C121 C123 1.339 . S
C121 H148 0.931 . S
C122 C123 1.395 . S
C122 C124 1.320 . S
C123 C121 1.339 . S
C123 C122 1.395 . S
C123 H149 0.929 . S
C124 C122 1.320 . S
C124 C125 1.405 . S
C124 H150 0.930 . S
C125 C120 1.479 . S
C125 C124 1.405 . S
C125 H151 0.931 . S
U126 O127 2.454 . S
U126 O128 2.458 . S
U126 C129 2.984 . S
U126 C130 2.847 . S
U126 C143 2.882 . S
U126 O144 2.441 . S
U126 O145 2.420 . S
U126 O146 2.455 . S
U126 O147 2.449 . S
O127 U126 2.454 . S
O127 C129 1.353 . S
O128 U126 2.458 . S
O128 C129 1.286 . S
C129 U126 2.984 . S
C129 O127 1.353 . S
C129 O128 1.286 . S
C129 C131 1.363 . S
C130 C120 1.465 . S
C130 U126 2.847 . S
C130 O144 1.249 . S
C130 O145 1.202 . S
C131 C129 1.363 . S
C131 C133 1.408 . S
C131 C136 1.342 . S
C132 C133 1.310 . S
C132 C135 1.461 . S
C132 H152 0.932 . S
C133 C131 1.408 . S
C133 C132 1.310 . S
C133 H153 0.930 . S
C134 C135 1.474 . S
C134 C136 1.285 . S
C134 H154 0.929 . S
C135 C132 1.461 . S
C135 C134 1.474 . S
C136 C131 1.342 . S
C136 C134 1.285 . S
C136 H155 0.930 . S
C137 C140 1.424 . S
C137 C142 1.245 . S
C137 C143 1.428 . S
C138 C141 1.260 . S
C138 C142 1.477 . S
C138 H156 0.932 . S
C139 C140 1.384 . S
C139 C141 1.479 . S
C139 H157 0.929 . S
C140 C137 1.424 . S
C140 C139 1.384 . S
C140 H158 0.928 . S
C141 C138 1.260 . S
C141 C139 1.479 . S
C142 C137 1.245 . S
C142 C138 1.477 . S
C142 H159 0.932 . S
C143 U126 2.882 . S
C143 C137 1.428 . S
C143 O146 1.301 . S
C143 O147 1.282 . S
O144 U126 2.441 . S
O144 C130 1.249 . S
O145 U126 2.420 . S
O145 C130 1.202 . S
O146 U126 2.455 . S
O146 C143 1.301 . S
O147 U126 2.449 . S
O147 C143 1.282 . S
H148 C121 0.931 . S
H149 C123 0.929 . S
H150 C124 0.930 . S
H151 C125 0.931 . S
H152 C132 0.932 . S
H153 C133 0.930 . S
H154 C134 0.929 . S
H155 C136 0.930 . S
H156 C138 0.932 . S
H157 C139 0.929 . S
H158 C140 0.928 . S
H159 C142 0.932 . S
C160 C161 1.264 . S
C160 C165 1.479 . S
C160 C170 1.465 . S
C161 C160 1.264 . S
C161 C163 1.339 . S
C161 H188 0.967 . S
C162 C163 1.396 . S
C162 C164 1.326 . S
C163 C161 1.339 . S
C163 C162 1.396 . S
C163 H189 0.929 1_565 S
C164 C162 1.326 . S
C164 C165 1.405 . S
C164 H190 0.930 . S
C165 C160 1.479 . S
C165 C164 1.405 . S
C165 H191 0.931 . S
U166 O167 2.454 1_554 S
U166 O168 2.458 . S
U166 C169 2.984 1_554 S
U166 C170 2.847 1_554 S
U166 C183 2.882 . S
U166 O184 2.441 1_554 S
U166 O185 2.420 . S
U166 O186 2.455 . S
U166 O187 2.449 . S
O167 U166 2.454 1_556 S
O167 C169 1.353 . S
O168 U166 2.458 . S
O168 C169 1.286 1_554 S
C169 U166 2.984 1_556 S
C169 O167 1.353 . S
C169 O168 1.286 1_556 S
C169 C171 1.363 . S
C170 C160 1.465 . S
C170 U166 2.847 1_556 S
C170 O184 1.249 . S
C170 O185 1.202 1_556 S
C171 C169 1.363 . S
C171 C173 1.408 . S
C171 C176 1.342 . S
C172 C173 1.310 . S
C172 C175 1.461 . S
C172 H192 0.932 . S
C173 C171 1.408 . S
C173 C172 1.310 . S
C173 H193 0.930 . S
C174 C175 1.474 . S
C174 C176 1.285 . S
C174 H194 0.929 . S
C175 C172 1.461 . S
C175 C174 1.474 . S
C176 C171 1.342 . S
C176 C174 1.285 . S
C176 H195 0.930 1_556 S
C177 C180 1.424 . S
C177 C182 1.245 . S
C177 C183 1.428 . S
C178 C181 1.260 . S
C178 C182 1.477 . S
C178 H196 0.932 . S
C179 C180 1.384 . S
C179 C181 1.479 . S
C179 H197 0.929 . S
C180 C177 1.424 . S
C180 C179 1.384 . S
C180 H198 0.928 . S
C181 C178 1.260 . S
C181 C179 1.479 . S
C182 C177 1.245 . S
C182 C178 1.477 . S
C182 H199 0.932 . S
C183 U166 2.882 . S
C183 C177 1.428 . S
C183 O186 1.301 . S
C183 O187 1.282 . S
O184 U166 2.441 1_556 S
O184 C170 1.249 . S
O185 U166 2.420 . S
O185 C170 1.202 1_554 S
O186 U166 2.455 . S
O186 C183 1.301 . S
O187 U166 2.449 . S
O187 C183 1.282 . S
H188 C161 0.967 . S
H189 C163 0.929 1_545 S
H190 C164 0.930 . S
H191 C165 0.931 . S
H192 C172 0.932 . S
H193 C173 0.930 . S
H194 C174 0.929 . S
H195 C176 0.930 1_554 S
H196 C178 0.932 . S
H197 C179 0.929 . S
H198 C180 0.928 . S
H199 C182 0.932 . S
C200 C201 1.264 . S
C200 C205 1.479 . S
C200 C210 1.465 . S
C201 C200 1.264 . S
C201 C203 1.339 . S
C201 H228 0.931 . S
C202 C203 1.395 . S
C202 C204 1.320 . S
C203 C201 1.339 . S
C203 C202 1.395 . S
C203 H229 0.929 . S
C204 C202 1.320 . S
C204 C205 1.405 . S
C204 H230 0.930 . S
C205 C200 1.479 . S
C205 C204 1.405 . S
C205 H231 0.931 . S
U206 O207 2.454 . S
U206 O208 2.458 . S
U206 C209 2.984 . S
U206 C210 2.847 . S
U206 C223 2.882 . S
U206 O224 2.441 . S
U206 O225 2.420 . S
U206 O226 2.455 . S
U206 O227 2.449 . S
O207 U206 2.454 . S
O207 C209 1.353 . S
O208 U206 2.458 . S
O208 C209 1.286 . S
C209 U206 2.984 . S
C209 O207 1.353 . S
C209 O208 1.286 . S
C209 C211 1.363 . S
C210 C200 1.465 . S
C210 U206 2.847 . S
C210 O224 1.249 . S
C210 O225 1.202 . S
C211 C209 1.363 . S
C211 C213 1.408 . S
C211 C216 1.342 . S
C212 C213 1.310 . S
C212 C215 1.461 . S
C212 H232 0.932 . S
C213 C211 1.408 . S
C213 C212 1.310 . S
C213 H233 0.930 . S
C214 C215 1.474 . S
C214 C216 1.285 . S
C214 H234 0.929 . S
C215 C212 1.461 . S
C215 C214 1.474 . S
C216 C211 1.342 . S
C216 C214 1.285 . S
C216 H235 0.930 . S
C217 C220 1.424 . S
C217 C222 1.245 . S
C217 C223 1.428 . S
C218 C221 1.260 . S
C218 C222 1.477 . S
C218 H236 0.932 . S
C219 C220 1.384 . S
C219 C221 1.479 . S
C219 H237 0.929 . S
C220 C217 1.424 . S
C220 C219 1.384 . S
C220 H238 0.928 . S
C221 C218 1.260 . S
C221 C219 1.479 . S
C222 C217 1.245 . S
C222 C218 1.477 . S
C222 H239 0.932 . S
C223 U206 2.882 . S
C223 C217 1.428 . S
C223 O226 1.301 . S
C223 O227 1.282 . S
O224 U206 2.441 . S
O224 C210 1.249 . S
O225 U206 2.420 . S
O225 C210 1.202 . S
O226 U206 2.455 . S
O226 C223 1.301 . S
O227 U206 2.449 . S
O227 C223 1.282 . S
H228 C201 0.931 . S
H229 C203 0.929 . S
H230 C204 0.930 . S
H231 C205 0.931 . S
H232 C212 0.932 . S
H233 C213 0.930 . S
H234 C214 0.929 . S
H235 C216 0.930 . S
H236 C218 0.932 . S
H237 C219 0.929 . S
H238 C220 0.928 . S
H239 C222 0.932 . S
C240 C241 1.264 . S
C240 C245 1.479 . S
C240 C250 1.465 . S
C241 C240 1.264 . S
C241 C243 1.339 . S
C241 H268 0.931 . S
C242 C243 1.399 . S
C242 C244 1.326 . S
C243 C241 1.339 . S
C243 C242 1.399 . S
C243 H269 0.929 . S
C244 C242 1.326 . S
C244 C245 1.405 . S
C244 H270 0.930 . S
C245 C240 1.479 . S
C245 C244 1.405 . S
C245 H271 0.931 . S
U246 O247 2.457 . S
U246 O248 2.457 1_556 S
U246 C249 2.986 . S
U246 C250 2.850 . S
U246 C263 2.878 1_556 S
U246 O264 2.445 . S
U246 O265 2.422 . S
U246 O266 2.451 1_556 S
U246 O267 2.445 1_556 S
O247 U246 2.457 . S
O247 C249 1.353 . S
O248 U246 2.457 1_554 S
O248 C249 1.286 1_554 S
C249 U246 2.986 . S
C249 O247 1.353 . S
C249 O248 1.286 1_556 S
C249 C251 1.363 . S
C250 C240 1.465 . S
C250 U246 2.850 . S
C250 O264 1.249 . S
C250 O265 1.202 . S
C251 C249 1.363 . S
C251 C253 1.408 . S
C251 C256 1.342 . S
C252 C253 1.310 . S
C252 C255 1.461 . S
C252 H272 0.932 . S
C253 C251 1.408 . S
C253 C252 1.310 . S
C253 H273 0.930 . S
C254 C255 1.474 . S
C254 C256 1.285 . S
C254 H274 0.929 . S
C255 C252 1.461 . S
C255 C254 1.474 . S
C256 C251 1.342 . S
C256 C254 1.285 . S
C256 H275 0.930 1_556 S
C257 C260 1.424 . S
C257 C262 1.245 . S
C257 C263 1.428 . S
C258 C261 1.260 . S
C258 C262 1.477 . S
C258 H276 0.932 . S
C259 C260 1.384 . S
C259 C261 1.479 . S
C259 H277 0.929 . S
C260 C257 1.424 . S
C260 C259 1.384 . S
C260 H278 0.928 . S
C261 C258 1.260 . S
C261 C259 1.479 . S
C262 C257 1.245 . S
C262 C258 1.477 . S
C262 H279 0.932 . S
C263 U246 2.878 1_554 S
C263 C257 1.428 . S
C263 O266 1.301 . S
C263 O267 1.282 . S
O264 U246 2.445 . S
O264 C250 1.249 . S
O265 U246 2.422 . S
O265 C250 1.202 . S
O266 U246 2.451 1_554 S
O266 C263 1.301 . S
O267 U246 2.445 1_554 S
O267 C263 1.282 . S
H268 C241 0.931 . S
H269 C243 0.929 . S
H270 C244 0.930 . S
H271 C245 0.931 . S
H272 C252 0.932 . S
H273 C253 0.930 . S
H274 C254 0.929 . S
H275 C256 0.930 1_554 S
H276 C258 0.932 . S
H277 C259 0.929 . S
H278 C260 0.928 . S
H279 C262 0.932 . S
C280 C281 1.264 . S
C280 C285 1.479 . S
C280 C290 1.465 . S
C281 C280 1.264 . S
C281 C283 1.339 . S
C281 H308 0.931 . S
C282 C283 1.395 . S
C282 C284 1.320 . S
C283 C281 1.339 . S
C283 C282 1.395 . S
C283 H309 0.929 . S
C284 C282 1.320 . S
C284 C285 1.405 . S
C284 H310 0.930 . S
C285 C280 1.479 . S
C285 C284 1.405 . S
C285 H311 0.931 . S
U286 O287 2.454 . S
U286 O288 2.458 . S
U286 C289 2.984 . S
U286 C290 2.847 . S
U286 C303 2.882 . S
U286 O304 2.441 . S
U286 O305 2.420 . S
U286 O306 2.455 . S
U286 O307 2.449 . S
O287 U286 2.454 . S
O287 C289 1.353 . S
O288 U286 2.458 . S
O288 C289 1.286 . S
C289 U286 2.984 . S
C289 O287 1.353 . S
C289 O288 1.286 . S
C289 C291 1.363 . S
C290 C280 1.465 . S
C290 U286 2.847 . S
C290 O304 1.249 . S
C290 O305 1.202 . S
C291 C289 1.363 . S
C291 C293 1.408 . S
C291 C296 1.342 . S
C292 C293 1.310 . S
C292 C295 1.461 . S
C292 H312 0.932 . S
C293 C291 1.408 . S
C293 C292 1.310 . S
C293 H313 0.930 . S
C294 C295 1.474 . S
C294 C296 1.285 . S
C294 H314 0.929 . S
C295 C292 1.461 . S
C295 C294 1.474 . S
C296 C291 1.342 . S
C296 C294 1.285 . S
C296 H315 0.930 . S
C297 C300 1.424 . S
C297 C302 1.245 . S
C297 C303 1.428 . S
C298 C301 1.260 1_545 S
C298 C302 1.477 . S
C298 H316 0.932 . S
C299 C300 1.384 . S
C299 C301 1.479 1_545 S
C299 H317 0.929 1_545 S
C300 C297 1.424 . S
C300 C299 1.384 . S
C300 H318 0.928 . S
C301 C298 1.260 1_565 S
C301 C299 1.479 1_565 S
C302 C297 1.245 . S
C302 C298 1.477 . S
C302 H319 0.932 . S
C303 U286 2.882 . S
C303 C297 1.428 . S
C303 O306 1.301 . S
C303 O307 1.282 . S
O304 U286 2.441 . S
O304 C290 1.249 . S
O305 U286 2.420 . S
O305 C290 1.202 . S
O306 U286 2.455 . S
O306 C303 1.301 . S
O307 U286 2.449 . S
O307 C303 1.282 . S
H308 C281 0.931 . S
H309 C283 0.929 . S
H310 C284 0.930 . S
H311 C285 0.931 . S
H312 C292 0.932 . S
H313 C293 0.930 . S
H314 C294 0.929 . S
H315 C296 0.930 . S
H316 C298 0.932 . S
H317 C299 0.929 1_565 S
H318 C300 0.928 . S
H319 C302 0.932 . S
Fe320 O322 1.918 . S
Fe320 O325 1.997 1_455 S
Fe320 O326 2.002 1_455 S
Fe320 O331 1.976 . S
Fe320 O334 1.996 . S
Fe321 O322 1.918 . S
Fe321 O329 1.997 1_455 S
Fe321 O332 1.996 . S
Fe321 O336 1.976 . S
Fe321 O339 2.002 1_455 S
O322 Fe320 1.918 . S
O322 Fe321 1.918 . S
O322 Fe323 1.918 . S
Fe323 O322 1.918 . S
Fe323 O324 2.002 1_455 S
Fe323 O333 1.976 . S
Fe323 O337 1.996 . S
Fe323 O340 1.997 1_455 S
O324 Fe323 2.002 1_655 S
O324 C341 1.295 . S
O325 Fe320 1.997 1_655 S
O325 C341 1.235 . S
O326 Fe320 2.002 1_655 S
O326 C327 1.295 . S
C327 O326 1.295 . S
C327 O329 1.235 . S
C328 O333 1.287 . S
C328 O334 1.255 . S
O329 Fe321 1.997 1_655 S
O329 C327 1.235 . S
C330 O336 1.287 . S
C330 O337 1.255 . S
O331 Fe320 1.976 . S
O331 C338 1.287 . S
O332 Fe321 1.996 . S
O332 C338 1.255 . S
O333 Fe323 1.976 . S
O333 C328 1.287 . S
O334 Fe320 1.996 . S
O334 C328 1.255 . S
C335 O339 1.295 . S
C335 O340 1.235 . S
O336 Fe321 1.976 . S
O336 C330 1.287 . S
O337 Fe323 1.996 . S
O337 C330 1.255 . S
C338 O331 1.287 . S
C338 O332 1.255 . S
O339 Fe321 2.002 1_655 S
O339 C335 1.295 . S
O340 Fe323 1.997 1_655 S
O340 C335 1.235 . S
C341 O324 1.295 . S
C341 O325 1.235 . S
Fe342 O344 1.919 . S
Fe342 O347 1.981 1_655 S
Fe342 O348 1.986 1_655 S
Fe342 O353 1.992 . S
Fe342 O356 2.011 . S
Fe343 O344 1.919 . S
Fe343 O351 1.981 1_655 S
Fe343 O354 2.011 . S
Fe343 O358 1.991 . S
Fe343 O361 1.987 1_655 S
O344 Fe342 1.919 . S
O344 Fe343 1.919 . S
O344 Fe345 1.919 . S
Fe345 O344 1.919 . S
Fe345 O346 1.987 1_655 S
Fe345 O355 1.991 . S
Fe345 O359 2.011 . S
Fe345 O362 1.981 1_655 S
O346 Fe345 1.987 1_455 S
O346 C363 1.295 . S
O347 Fe342 1.981 1_455 S
O347 C363 1.235 . S
O348 Fe342 1.986 1_455 S
O348 C349 1.295 . S
C349 O348 1.295 . S
C349 O351 1.235 . S
C350 O355 1.287 . S
C350 O356 1.255 . S
O351 Fe343 1.981 1_455 S
O351 C349 1.235 . S
C352 O358 1.287 . S
C352 O359 1.255 . S
O353 Fe342 1.992 . S
O353 C360 1.287 . S
O354 Fe343 2.011 . S
O354 C360 1.255 . S
O355 Fe345 1.991 . S
O355 C350 1.287 . S
O356 Fe342 2.011 . S
O356 C350 1.255 . S
C357 O361 1.295 . S
C357 O362 1.235 . S
O358 Fe343 1.991 . S
O358 C352 1.287 . S
O359 Fe345 2.011 . S
O359 C352 1.255 . S
C360 O353 1.287 . S
C360 O354 1.255 . S
O361 Fe343 1.987 1_455 S
O361 C357 1.295 . S
O362 Fe345 1.981 1_455 S
O362 C357 1.235 . S
C363 O346 1.295 . S
C363 O347 1.235 . S
Fe364 O366 1.918 . S
Fe364 O369 1.997 . S
Fe364 O370 2.002 . S
Fe364 O375 1.976 . S
Fe364 O378 1.996 . S
Fe365 O366 1.918 . S
Fe365 O373 1.997 . S
Fe365 O376 1.996 . S
Fe365 O380 1.976 . S
Fe365 O383 2.002 . S
O366 Fe364 1.918 . S
O366 Fe365 1.918 . S
O366 Fe367 1.918 . S
Fe367 O366 1.918 . S
Fe367 O368 2.002 . S
Fe367 O377 1.976 . S
Fe367 O381 1.996 . S
Fe367 O384 1.997 . S
O368 Fe367 2.002 . S
O368 C385 1.295 . S
O369 Fe364 1.997 . S
O369 C385 1.235 . S
O370 Fe364 2.002 . S
O370 C371 1.295 . S
C371 O370 1.295 . S
C371 O373 1.235 . S
C372 O377 1.287 . S
C372 O378 1.255 . S
O373 Fe365 1.997 . S
O373 C371 1.235 . S
C374 O380 1.287 . S
C374 O381 1.255 . S
O375 Fe364 1.976 . S
O375 C382 1.287 . S
O376 Fe365 1.996 . S
O376 C382 1.255 . S
O377 Fe367 1.976 . S
O377 C372 1.287 . S
O378 Fe364 1.996 . S
O378 C372 1.255 . S
C379 O383 1.295 . S
C379 O384 1.235 . S
O380 Fe365 1.976 . S
O380 C374 1.287 . S
O381 Fe367 1.996 . S
O381 C374 1.255 . S
C382 O375 1.287 . S
C382 O376 1.255 . S
O383 Fe365 2.002 . S
O383 C379 1.295 . S
O384 Fe367 1.997 . S
O384 C379 1.235 . S
C385 O368 1.295 . S
C385 O369 1.235 . S
Fe386 O388 1.918 . S
Fe386 O391 1.997 . S
Fe386 O392 2.002 . S
Fe386 O397 1.976 . S
Fe386 O400 1.996 . S
Fe387 O388 1.918 . S
Fe387 O395 1.997 . S
Fe387 O398 1.996 . S
Fe387 O402 1.976 . S
Fe387 O405 2.002 . S
O388 Fe386 1.918 . S
O388 Fe387 1.918 . S
O388 Fe389 1.918 . S
Fe389 O388 1.918 . S
Fe389 O390 2.002 . S
Fe389 O399 1.976 . S
Fe389 O403 1.996 . S
Fe389 O406 1.997 . S
O390 Fe389 2.002 . S
O390 C407 1.295 . S
O391 Fe386 1.997 . S
O391 C407 1.235 . S
O392 Fe386 2.002 . S
O392 C393 1.295 . S
C393 O392 1.295 . S
C393 O395 1.235 . S
C394 O399 1.287 . S
C394 O400 1.255 . S
O395 Fe387 1.997 . S
O395 C393 1.235 . S
C396 O402 1.287 . S
C396 O403 1.255 . S
O397 Fe386 1.976 . S
O397 C404 1.287 . S
O398 Fe387 1.996 . S
O398 C404 1.255 . S
O399 Fe389 1.976 . S
O399 C394 1.287 . S
O400 Fe386 1.996 . S
O400 C394 1.255 . S
C401 O405 1.295 . S
C401 O406 1.235 . S
O402 Fe387 1.976 . S
O402 C396 1.287 . S
O403 Fe389 1.996 . S
O403 C396 1.255 . S
C404 O397 1.287 . S
C404 O398 1.255 . S
O405 Fe387 2.002 . S
O405 C401 1.295 . S
O406 Fe389 1.997 . S
O406 C401 1.235 . S
C407 O390 1.295 . S
C407 O391 1.235 . S
H408 C414 0.930 . S
H409 C418 0.930 . S
H410 C423 0.929 . S
H411 C421 0.929 . S
H412 C416 0.929 . S
H413 C422 0.929 . S
C414 H408 0.930 . S
C414 C415 1.367 . S
C414 C422 1.378 . S
C415 C414 1.367 . S
C415 C423 1.433 . S
C416 H412 0.929 . S
C416 C418 1.378 . S
C416 C420 1.350 . S
C417 C420 1.463 . S
C417 C422 1.350 . S
C417 N425 1.427 . S
C418 H409 0.930 . S
C418 C416 1.378 . S
C418 C419 1.367 . S
C419 C418 1.367 . S
C419 C421 1.433 . S
C420 C416 1.350 . S
C420 C417 1.463 . S
C420 N424 1.427 . S
C421 H411 0.929 . S
C421 C419 1.433 . S
C421 N424 1.384 . S
C422 H413 0.929 . S
C422 C414 1.378 . S
C422 C417 1.350 . S
C423 H410 0.929 . S
C423 C415 1.433 . S
C423 N425 1.384 . S
N424 C420 1.427 . S
N424 C421 1.384 . S
N425 C417 1.427 . S
N425 C423 1.384 . S
H426 C432 0.930 . S
H427 C436 0.930 . S
H428 C441 0.929 . S
H429 C439 0.929 . S
H430 C434 0.929 . S
H431 C440 0.929 . S
C432 H426 0.930 . S
C432 C433 1.367 . S
C432 C440 1.378 . S
C433 C432 1.367 . S
C433 C441 1.433 . S
C434 H430 0.929 . S
C434 C436 1.378 . S
C434 C438 1.350 . S
C435 C438 1.463 . S
C435 C440 1.350 . S
C435 N443 1.427 . S
C436 H427 0.930 . S
C436 C434 1.378 . S
C436 C437 1.367 . S
C437 C436 1.367 . S
C437 C439 1.433 . S
C438 C434 1.350 . S
C438 C435 1.463 . S
C438 N442 1.427 . S
C439 H429 0.929 . S
C439 C437 1.433 . S
C439 N442 1.384 . S
C440 H431 0.929 . S
C440 C432 1.378 . S
C440 C435 1.350 . S
C441 H428 0.929 . S
C441 C433 1.433 . S
C441 N443 1.384 . S
N442 C438 1.427 . S
N442 C439 1.384 . S
N443 C435 1.427 . S
N443 C441 1.384 . S
H444 C450 0.930 . S
H445 C454 0.930 . S
H446 C459 0.929 . S
H447 C457 0.929 . S
H448 C452 0.929 . S
H449 C458 0.929 . S
C450 H444 0.930 . S
C450 C451 1.367 . S
C450 C458 1.378 . S
C451 C450 1.367 . S
C451 C459 1.433 . S
C452 H448 0.929 . S
C452 C454 1.378 . S
C452 C456 1.350 . S
C453 C456 1.463 . S
C453 C458 1.350 . S
C453 N461 1.427 . S
C454 H445 0.930 . S
C454 C452 1.378 . S
C454 C455 1.367 . S
C455 C454 1.367 . S
C455 C457 1.433 . S
C456 C452 1.350 . S
C456 C453 1.463 . S
C456 N460 1.427 . S
C457 H447 0.929 . S
C457 C455 1.433 . S
C457 N460 1.384 . S
C458 H449 0.929 . S
C458 C450 1.378 . S
C458 C453 1.350 . S
C459 H446 0.929 . S
C459 C451 1.433 . S
C459 N461 1.384 . S
N460 C456 1.427 . S
N460 C457 1.384 . S
N461 C453 1.427 . S
N461 C459 1.384 . S
H462 C468 0.930 . S
H463 C472 0.930 . S
H464 C477 0.929 . S
H465 C475 0.929 . S
H466 C470 0.929 . S
H467 C476 0.929 . S
C468 H462 0.930 . S
C468 C469 1.367 . S
C468 C476 1.378 . S
C469 C468 1.367 . S
C469 C477 1.433 . S
C470 H466 0.929 . S
C470 C472 1.378 . S
C470 C474 1.350 . S
C471 C474 1.463 . S
C471 C476 1.350 . S
C471 N479 1.427 . S
C472 H463 0.930 . S
C472 C470 1.378 . S
C472 C473 1.367 . S
C473 C472 1.367 . S
C473 C475 1.433 . S
C474 C470 1.350 . S
C474 C471 1.463 . S
C474 N478 1.427 . S
C475 H465 0.929 . S
C475 C473 1.433 . S
C475 N478 1.384 . S
C476 H467 0.929 . S
C476 C468 1.378 . S
C476 C471 1.350 . S
C477 H464 0.929 . S
C477 C469 1.433 . S
C477 N479 1.384 . S
N478 C474 1.427 . S
N478 C475 1.384 . S
N479 C471 1.427 . S
N479 C477 1.384 . S
H480 C486 0.930 . S
H481 C490 0.930 . S
H482 C495 0.929 . S
H483 C493 0.929 . S
H484 C488 0.929 . S
H485 C494 0.929 . S
C486 H480 0.930 . S
C486 C487 1.367 . S
C486 C494 1.378 . S
C487 C486 1.367 . S
C487 C495 1.433 . S
C488 H484 0.929 . S
C488 C490 1.378 . S
C488 C492 1.350 . S
C489 C492 1.463 . S
C489 C494 1.350 . S
C489 N497 1.427 . S
C490 H481 0.930 . S
C490 C488 1.378 . S
C490 C491 1.367 . S
C491 C490 1.367 . S
C491 C493 1.433 . S
C492 C488 1.350 . S
C492 C489 1.463 . S
C492 N496 1.427 . S
C493 H483 0.929 . S
C493 C491 1.433 . S
C493 N496 1.384 . S
C494 H485 0.929 . S
C494 C486 1.378 . S
C494 C489 1.350 . S
C495 H482 0.929 . S
C495 C487 1.433 . S
C495 N497 1.384 . S
N496 C492 1.427 . S
N496 C493 1.384 . S
N497 C489 1.427 . S
N497 C495 1.384 . S
H498 C504 0.930 . S
H499 C508 0.930 . S
H500 C513 0.929 . S
H501 C511 0.929 . S
H502 C506 0.929 . S
H503 C512 0.929 . S
C504 H498 0.930 . S
C504 C505 1.367 . S
C504 C512 1.378 . S
C505 C504 1.367 . S
C505 C513 1.433 . S
C506 H502 0.929 . S
C506 C508 1.378 . S
C506 C510 1.350 . S
C507 C510 1.463 . S
C507 C512 1.350 . S
C507 N515 1.427 . S
C508 H499 0.930 . S
C508 C506 1.378 . S
C508 C509 1.367 . S
C509 C508 1.367 . S
C509 C511 1.433 . S
C510 C506 1.350 . S
C510 C507 1.463 . S
C510 N514 1.427 . S
C511 H501 0.929 . S
C511 C509 1.433 . S
C511 N514 1.384 . S
C512 H503 0.929 . S
C512 C504 1.378 . S
C512 C507 1.350 . S
C513 H500 0.929 . S
C513 C505 1.433 . S
C513 N515 1.384 . S
N514 C510 1.427 . S
N514 C511 1.384 . S
N515 C507 1.427 . S
N515 C513 1.384 . S
H516 C522 0.930 . S
H517 C526 0.930 . S
H518 C531 0.929 . S
H519 C529 0.929 . S
H520 C524 0.929 . S
H521 C530 0.929 . S
C522 H516 0.930 . S
C522 C523 1.367 . S
C522 C530 1.378 . S
C523 C522 1.367 . S
C523 C531 1.433 . S
C524 H520 0.929 . S
C524 C526 1.378 . S
C524 C528 1.350 . S
C525 C528 1.463 . S
C525 C530 1.350 . S
C525 N533 1.427 . S
C526 H517 0.930 . S
C526 C524 1.378 . S
C526 C527 1.367 . S
C527 C526 1.367 . S
C527 C529 1.433 . S
C528 C524 1.350 . S
C528 C525 1.463 . S
C528 N532 1.427 . S
C529 H519 0.929 . S
C529 C527 1.433 . S
C529 N532 1.384 . S
C530 H521 0.929 . S
C530 C522 1.378 . S
C530 C525 1.350 . S
C531 H518 0.929 . S
C531 C523 1.433 . S
C531 N533 1.384 . S
N532 C528 1.427 . S
N532 C529 1.384 . S
N533 C525 1.427 . S
N533 C531 1.384 . S
H534 C540 0.930 . S
H535 C544 0.930 . S
H536 C549 0.929 . S
H537 C547 0.929 . S
H538 C542 0.929 . S
H539 C548 0.929 . S
C540 H534 0.930 . S
C540 C541 1.367 . S
C540 C548 1.378 . S
C541 C540 1.367 . S
C541 C549 1.433 . S
C542 H538 0.929 . S
C542 C544 1.378 . S
C542 C546 1.350 . S
C543 C546 1.463 . S
C543 C548 1.350 . S
C543 N551 1.427 . S
C544 H535 0.930 . S
C544 C542 1.378 . S
C544 C545 1.367 . S
C545 C544 1.367 . S
C545 C547 1.433 . S
C546 C542 1.350 . S
C546 C543 1.463 . S
C546 N550 1.427 . S
C547 H537 0.929 . S
C547 C545 1.433 . S
C547 N550 1.384 . S
C548 H539 0.929 . S
C548 C540 1.378 . S
C548 C543 1.350 . S
C549 H536 0.929 . S
C549 C541 1.433 . S
C549 N551 1.384 . S
N550 C546 1.427 . S
N550 C547 1.384 . S
N551 C543 1.427 . S
N551 C549 1.384 . S
H552 C558 0.930 . S
H553 C562 0.930 . S
H554 C567 0.929 . S
H555 C565 0.929 . S
H556 C560 0.929 . S
H557 C566 0.929 . S
C558 H552 0.930 . S
C558 C559 1.367 . S
C558 C566 1.378 . S
C559 C558 1.367 . S
C559 C567 1.433 . S
C560 H556 0.929 . S
C560 C562 1.378 . S
C560 C564 1.350 . S
C561 C564 1.463 . S
C561 C566 1.350 . S
C561 N569 1.427 . S
C562 H553 0.930 . S
C562 C560 1.378 . S
C562 C563 1.367 . S
C563 C562 1.367 . S
C563 C565 1.433 . S
C564 C560 1.350 . S
C564 C561 1.463 . S
C564 N568 1.427 . S
C565 H555 0.929 . S
C565 C563 1.433 . S
C565 N568 1.384 . S
C566 H557 0.929 . S
C566 C558 1.378 . S
C566 C561 1.350 . S
C567 H554 0.929 . S
C567 C559 1.433 . S
C567 N569 1.384 . S
N568 C564 1.427 . S
N568 C565 1.384 . S
N569 C561 1.427 . S
N569 C567 1.384 . S
H570 C576 0.930 . S
H571 C580 0.930 . S
H572 C585 0.929 . S
H573 C583 0.929 . S
H574 C578 0.929 . S
H575 C584 0.929 . S
C576 H570 0.930 . S
C576 C577 1.367 . S
C576 C584 1.378 . S
C577 C576 1.367 . S
C577 C585 1.433 . S
C578 H574 0.929 . S
C578 C580 1.378 . S
C578 C582 1.350 . S
C579 C582 1.463 . S
C579 C584 1.350 . S
C579 N587 1.427 . S
C580 H571 0.930 . S
C580 C578 1.378 . S
C580 C581 1.367 . S
C581 C580 1.367 . S
C581 C583 1.433 . S
C582 C578 1.350 . S
C582 C579 1.463 . S
C582 N586 1.427 . S
C583 H573 0.929 . S
C583 C581 1.433 . S
C583 N586 1.384 . S
C584 H575 0.929 . S
C584 C576 1.378 . S
C584 C579 1.350 . S
C585 H572 0.929 . S
C585 C577 1.433 . S
C585 N587 1.384 . S
N586 C582 1.427 . S
N586 C583 1.384 . S
N587 C579 1.427 . S
N587 C585 1.384 . S
H588 C594 0.930 . S
H589 C598 0.930 . S
H590 C603 0.929 . S
H591 C601 0.929 . S
H592 C596 0.929 . S
H593 C602 0.929 . S
C594 H588 0.930 . S
C594 C595 1.367 . S
C594 C602 1.378 . S
C595 C594 1.367 . S
C595 C603 1.433 . S
C596 H592 0.929 . S
C596 C598 1.378 . S
C596 C600 1.350 . S
C597 C600 1.463 . S
C597 C602 1.350 . S
C597 N605 1.427 . S
C598 H589 0.930 . S
C598 C596 1.378 . S
C598 C599 1.367 . S
C599 C598 1.367 . S
C599 C601 1.433 . S
C600 C596 1.350 . S
C600 C597 1.463 . S
C600 N604 1.427 . S
C601 H591 0.929 . S
C601 C599 1.433 . S
C601 N604 1.384 . S
C602 H593 0.929 . S
C602 C594 1.378 . S
C602 C597 1.350 . S
C603 H590 0.929 . S
C603 C595 1.433 . S
C603 N605 1.384 . S
N604 C600 1.427 . S
N604 C601 1.384 . S
N605 C597 1.427 . S
N605 C603 1.384 . S
H606 C612 0.930 . S
H607 C616 0.930 . S
H608 C621 0.929 . S
H609 C619 0.929 . S
H610 C614 0.929 . S
H611 C620 0.929 . S
C612 H606 0.930 . S
C612 C613 1.367 . S
C612 C620 1.378 . S
C613 C612 1.367 . S
C613 C621 1.433 . S
C614 H610 0.929 . S
C614 C616 1.378 . S
C614 C618 1.350 . S
C615 C618 1.463 . S
C615 C620 1.350 . S
C615 N623 1.427 . S
C616 H607 0.930 . S
C616 C614 1.378 . S
C616 C617 1.367 . S
C617 C616 1.367 . S
C617 C619 1.433 . S
C618 C614 1.350 . S
C618 C615 1.463 . S
C618 N622 1.427 . S
C619 H609 0.929 . S
C619 C617 1.433 . S
C619 N622 1.384 . S
C620 H611 0.929 . S
C620 C612 1.378 . S
C620 C615 1.350 . S
C621 H608 0.929 . S
C621 C613 1.433 . S
C621 N623 1.384 . S
N622 C618 1.427 . S
N622 C619 1.384 . S
N623 C615 1.427 . S
N623 C621 1.384 . S
H624 C630 0.930 1_565 S
H625 C634 0.930 . S
H626 C639 0.929 . S
H627 C637 0.929 . S
H628 C632 0.929 . S
H629 C638 0.929 . S
C630 H624 0.930 1_545 S
C630 C631 1.367 . S
C630 C638 1.378 . S
C631 C630 1.367 . S
C631 C639 1.433 . S
C632 H628 0.929 . S
C632 C634 1.378 . S
C632 C636 1.350 . S
C633 C636 1.463 . S
C633 C638 1.350 . S
C633 N641 1.427 . S
C634 H625 0.930 . S
C634 C632 1.378 . S
C634 C635 1.367 . S
C635 C634 1.367 . S
C635 C637 1.433 . S
C636 C632 1.350 . S
C636 C633 1.463 . S
C636 N640 1.427 . S
C637 H627 0.929 . S
C637 C635 1.433 . S
C637 N640 1.384 . S
C638 H629 0.929 . S
C638 C630 1.378 . S
C638 C633 1.350 . S
C639 H626 0.929 . S
C639 C631 1.433 . S
C639 N641 1.384 . S
N640 C636 1.427 . S
N640 C637 1.384 . S
N641 C633 1.427 . S
N641 C639 1.384 . S
H642 C648 0.930 . S
H643 C652 0.930 . S
H644 C657 0.929 . S
H645 C655 0.929 . S
H646 C650 0.929 . S
H647 C656 0.929 . S
C648 H642 0.930 . S
C648 C649 1.367 . S
C648 C656 1.378 . S
C649 C648 1.367 . S
C649 C657 1.433 . S
C650 H646 0.929 . S
C650 C652 1.378 . S
C650 C654 1.350 . S
C651 C654 1.463 . S
C651 C656 1.350 . S
C651 N659 1.427 . S
C652 H643 0.930 . S
C652 C650 1.378 . S
C652 C653 1.367 . S
C653 C652 1.367 . S
C653 C655 1.433 . S
C654 C650 1.350 . S
C654 C651 1.463 . S
C654 N658 1.427 . S
C655 H645 0.929 . S
C655 C653 1.433 . S
C655 N658 1.384 . S
C656 H647 0.929 . S
C656 C648 1.378 . S
C656 C651 1.350 . S
C657 H644 0.929 . S
C657 C649 1.433 . S
C657 N659 1.384 . S
N658 C654 1.427 . S
N658 C655 1.384 . S
N659 C651 1.427 . S
N659 C657 1.384 . S
H660 C666 0.930 1_565 S
H661 C670 0.930 . S
H662 C675 0.929 . S
H663 C673 0.929 . S
H664 C668 0.929 . S
H665 C674 0.929 . S
C666 H660 0.930 1_545 S
C666 C667 1.367 . S
C666 C674 1.378 . S
C667 C666 1.367 . S
C667 C675 1.433 . S
C668 H664 0.929 . S
C668 C670 1.378 . S
C668 C672 1.350 . S
C669 C672 1.463 . S
C669 C674 1.350 . S
C669 N677 1.427 . S
C670 H661 0.930 . S
C670 C668 1.378 . S
C670 C671 1.367 . S
C671 C670 1.367 . S
C671 C673 1.433 . S
C672 C668 1.350 . S
C672 C669 1.463 . S
C672 N676 1.427 . S
C673 H663 0.929 . S
C673 C671 1.433 . S
C673 N676 1.384 . S
C674 H665 0.929 . S
C674 C666 1.378 . S
C674 C669 1.350 . S
C675 H662 0.929 . S
C675 C667 1.433 . S
C675 N677 1.384 . S
N676 C672 1.427 . S
N676 C673 1.384 . S
N677 C669 1.427 . S
N677 C675 1.384 . S
H678 C684 0.930 . S
H679 C688 0.930 . S
H680 C693 0.929 . S
H681 C691 0.929 . S
H682 C686 0.929 . S
H683 C692 0.929 . S
C684 H678 0.930 . S
C684 C685 1.367 . S
C684 C692 1.378 . S
C685 C684 1.367 . S
C685 C693 1.433 . S
C686 H682 0.929 . S
C686 C688 1.378 . S
C686 C690 1.350 . S
C687 C690 1.463 . S
C687 C692 1.350 . S
C687 N695 1.427 . S
C688 H679 0.930 . S
C688 C686 1.378 . S
C688 C689 1.367 . S
C689 C688 1.367 . S
C689 C691 1.433 . S
C690 C686 1.350 . S
C690 C687 1.463 . S
C690 N694 1.427 . S
C691 H681 0.929 . S
C691 C689 1.433 . S
C691 N694 1.384 . S
C692 H683 0.929 . S
C692 C684 1.378 . S
C692 C687 1.350 . S
C693 H680 0.929 . S
C693 C685 1.433 . S
C693 N695 1.384 . S
N694 C690 1.427 . S
N694 C691 1.384 . S
N695 C687 1.427 . S
N695 C693 1.384 . S
H696 C702 0.930 . S
H697 C706 0.930 . S
H698 C711 0.929 . S
H699 C709 0.929 . S
H700 C704 0.929 . S
H701 C710 0.929 . S
C702 H696 0.930 . S
C702 C703 1.367 . S
C702 C710 1.378 . S
C703 C702 1.367 . S
C703 C711 1.433 . S
C704 H700 0.929 . S
C704 C706 1.378 . S
C704 C708 1.350 . S
C705 C708 1.463 . S
C705 C710 1.350 . S
C705 N713 1.427 . S
C706 H697 0.930 . S
C706 C704 1.378 . S
C706 C707 1.367 . S
C707 C706 1.367 . S
C707 C709 1.433 . S
C708 C704 1.350 . S
C708 C705 1.463 . S
C708 N712 1.427 . S
C709 H699 0.929 . S
C709 C707 1.433 . S
C709 N712 1.384 . S
C710 H701 0.929 . S
C710 C702 1.378 . S
C710 C705 1.350 . S
C711 H698 0.929 . S
C711 C703 1.433 . S
C711 N713 1.384 . S
N712 C708 1.427 . S
N712 C709 1.384 . S
N713 C705 1.427 . S
N713 C711 1.384 . S
H714 C720 0.930 . S
H715 C724 0.930 . S
H716 C729 0.929 . S
H717 C727 0.929 . S
H718 C722 0.929 . S
H719 C728 0.929 . S
C720 H714 0.930 . S
C720 C721 1.367 . S
C720 C728 1.378 . S
C721 C720 1.367 . S
C721 C729 1.433 . S
C722 H718 0.929 . S
C722 C724 1.378 . S
C722 C726 1.350 . S
C723 C726 1.463 . S
C723 C728 1.350 . S
C723 N731 1.427 . S
C724 H715 0.930 . S
C724 C722 1.378 . S
C724 C725 1.367 . S
C725 C724 1.367 . S
C725 C727 1.433 . S
C726 C722 1.350 . S
C726 C723 1.463 . S
C726 N730 1.427 . S
C727 H717 0.929 . S
C727 C725 1.433 . S
C727 N730 1.384 . S
C728 H719 0.929 . S
C728 C720 1.378 . S
C728 C723 1.350 . S
C729 H716 0.929 . S
C729 C721 1.433 . S
C729 N731 1.384 . S
N730 C726 1.427 . S
N730 C727 1.384 . S
N731 C723 1.427 . S
N731 C729 1.384 . S
H732 C738 0.930 . S
H733 C742 0.930 . S
H734 C747 0.929 . S
H735 C745 0.929 . S
H736 C740 0.929 . S
H737 C746 0.929 . S
C738 H732 0.930 . S
C738 C739 1.367 . S
C738 C746 1.378 . S
C739 C738 1.367 . S
C739 C747 1.433 . S
C740 H736 0.929 . S
C740 C742 1.378 . S
C740 C744 1.350 . S
C741 C744 1.463 . S
C741 C746 1.350 . S
C741 N749 1.427 . S
C742 H733 0.930 . S
C742 C740 1.378 . S
C742 C743 1.367 . S
C743 C742 1.367 . S
C743 C745 1.433 . S
C744 C740 1.350 . S
C744 C741 1.463 . S
C744 N748 1.427 . S
C745 H735 0.929 . S
C745 C743 1.433 . S
C745 N748 1.384 . S
C746 H737 0.929 . S
C746 C738 1.378 . S
C746 C741 1.350 . S
C747 H734 0.929 . S
C747 C739 1.433 . S
C747 N749 1.384 . S
N748 C744 1.427 . S
N748 C745 1.384 . S
N749 C741 1.427 . S
N749 C747 1.384 . S
H750 C756 0.930 . S
H751 C760 0.930 . S
H752 C765 0.929 . S
H753 C763 0.929 . S
H754 C758 0.929 . S
H755 C764 0.929 . S
C756 H750 0.930 . S
C756 C757 1.367 . S
C756 C764 1.378 . S
C757 C756 1.367 . S
C757 C765 1.433 . S
C758 H754 0.929 . S
C758 C760 1.378 . S
C758 C762 1.350 . S
C759 C762 1.463 . S
C759 C764 1.350 . S
C759 N767 1.427 . S
C760 H751 0.930 . S
C760 C758 1.378 . S
C760 C761 1.367 . S
C761 C760 1.367 . S
C761 C763 1.433 . S
C762 C758 1.350 . S
C762 C759 1.463 . S
C762 N766 1.427 . S
C763 H753 0.929 . S
C763 C761 1.433 . S
C763 N766 1.384 . S
C764 H755 0.929 . S
C764 C756 1.378 . S
C764 C759 1.350 . S
C765 H752 0.929 . S
C765 C757 1.433 . S
C765 N767 1.384 . S
N766 C762 1.427 . S
N766 C763 1.384 . S
N767 C759 1.427 . S
N767 C765 1.384 . S
H768 C774 0.930 . S
H769 C778 0.930 . S
H770 C783 0.929 . S
H771 C781 0.929 . S
H772 C776 0.929 . S
H773 C782 0.929 . S
C774 H768 0.930 . S
C774 C775 1.367 . S
C774 C782 1.378 . S
C775 C774 1.367 . S
C775 C783 1.433 . S
C776 H772 0.929 . S
C776 C778 1.378 . S
C776 C780 1.350 . S
C777 C780 1.463 . S
C777 C782 1.350 . S
C777 N785 1.427 . S
C778 H769 0.930 . S
C778 C776 1.378 . S
C778 C779 1.367 . S
C779 C778 1.367 . S
C779 C781 1.433 . S
C780 C776 1.350 . S
C780 C777 1.463 . S
C780 N784 1.427 . S
C781 H771 0.929 . S
C781 C779 1.433 . S
C781 N784 1.384 . S
C782 H773 0.929 . S
C782 C774 1.378 . S
C782 C777 1.350 . S
C783 H770 0.929 . S
C783 C775 1.433 . S
C783 N785 1.384 . S
N784 C780 1.427 . S
N784 C781 1.384 . S
N785 C777 1.427 . S
N785 C783 1.384 . S
H786 C792 0.930 . S
H787 C796 0.930 . S
H788 C801 0.929 . S
H789 C799 0.929 . S
H790 C794 0.929 . S
H791 C800 0.929 . S
C792 H786 0.930 . S
C792 C793 1.367 . S
C792 C800 1.378 . S
C793 C792 1.367 . S
C793 C801 1.433 . S
C794 H790 0.929 . S
C794 C796 1.378 . S
C794 C798 1.350 . S
C795 C798 1.463 . S
C795 C800 1.350 . S
C795 N803 1.427 . S
C796 H787 0.930 . S
C796 C794 1.378 . S
C796 C797 1.367 . S
C797 C796 1.367 . S
C797 C799 1.433 . S
C798 C794 1.350 . S
C798 C795 1.463 . S
C798 N802 1.427 . S
C799 H789 0.929 . S
C799 C797 1.433 . S
C799 N802 1.384 . S
C800 H791 0.929 . S
C800 C792 1.378 . S
C800 C795 1.350 . S
C801 H788 0.929 . S
C801 C793 1.433 . S
C801 N803 1.384 . S
N802 C798 1.427 . S
N802 C799 1.384 . S
N803 C795 1.427 . S
N803 C801 1.384 . S
H804 C810 0.930 . S
H805 C814 0.930 . S
H806 C819 0.929 . S
H807 C817 0.929 . S
H808 C812 0.929 . S
H809 C818 0.929 . S
C810 H804 0.930 . S
C810 C811 1.367 . S
C810 C818 1.378 . S
C811 C810 1.367 . S
C811 C819 1.433 . S
C812 H808 0.929 . S
C812 C814 1.378 . S
C812 C816 1.350 . S
C813 C816 1.463 . S
C813 C818 1.350 . S
C813 N821 1.427 . S
C814 H805 0.930 . S
C814 C812 1.378 . S
C814 C815 1.367 . S
C815 C814 1.367 . S
C815 C817 1.433 . S
C816 C812 1.350 . S
C816 C813 1.463 . S
C816 N820 1.427 . S
C817 H807 0.929 . S
C817 C815 1.433 . S
C817 N820 1.384 . S
C818 H809 0.929 . S
C818 C810 1.378 . S
C818 C813 1.350 . S
C819 H806 0.929 . S
C819 C811 1.433 . S
C819 N821 1.384 . S
N820 C816 1.427 . S
N820 C817 1.384 . S
N821 C813 1.427 . S
N821 C819 1.384 . S
H822 C828 0.930 . S
H823 C832 0.930 . S
H824 C837 0.929 . S
H825 C835 0.929 . S
H826 C830 0.929 . S
H827 C836 0.929 . S
C828 H822 0.930 . S
C828 C829 1.367 . S
C828 C836 1.378 . S
C829 C828 1.367 . S
C829 C837 1.433 . S
C830 H826 0.929 . S
C830 C832 1.378 . S
C830 C834 1.350 . S
C831 C834 1.463 . S
C831 C836 1.350 . S
C831 N839 1.427 . S
C832 H823 0.930 . S
C832 C830 1.378 . S
C832 C833 1.367 . S
C833 C832 1.367 . S
C833 C835 1.433 . S
C834 C830 1.350 . S
C834 C831 1.463 . S
C834 N838 1.427 . S
C835 H825 0.929 . S
C835 C833 1.433 . S
C835 N838 1.384 . S
C836 H827 0.929 . S
C836 C828 1.378 . S
C836 C831 1.350 . S
C837 H824 0.929 . S
C837 C829 1.433 . S
C837 N839 1.384 . S
N838 C834 1.427 . S
N838 C835 1.384 . S
N839 C831 1.427 . S
N839 C837 1.384 . S
C415 C15 1.552 . S
C419 C363 1.536 . S
C437 C327 1.574 . S
C433 C55 1.588 . S
C455 C350 1.528 . S
C451 C95 1.527 . S
C473 C338 1.572 . S
C469 C135 1.574 . S
C491 C407 1.539 . S
C487 C175 1.554 . S
C509 C371 1.576 . S
C505 C215 1.591 . S
C523 C255 1.523 . S
C527 C394 1.528 . S
C545 C382 1.576 . S
C541 C295 1.576 . S
C559 C2 1.517 . S
C563 C404 1.522 . S
C581 C374 1.593 . S
C577 C61 1.526 . S
C595 C82 1.513 . S
C599 C393 1.556 . S
C613 C141 1.613 . S
C617 C379 1.629 . S
C635 C360 1.522 . S
C631 C162 1.512 1_545 S
C649 C221 1.530 1_565 S
C653 C330 1.594 . S
C671 C349 1.557 . S
C667 C242 1.495 1_545 S
C689 C335 1.629 . S
C685 C301 1.609 . S
C707 C385 1.564 . S
C703 C21 1.562 . S
C725 C401 1.565 . S
C721 C42 1.514 . S
C739 C101 1.468 . S
C743 C372 1.535 . S
C761 C396 1.534 . S
C757 C122 1.534 . S
C779 C341 1.565 . S
C775 C181 1.561 . S
C793 C202 1.518 . S
C797 C357 1.560 . S
C811 C261 1.467 . S
C815 C328 1.538 . S
C829 C282 1.532 . S
C833 C352 1.534 . S
