# Generated by pormake.
# Topology soc, (4,6)-cn, num edge types: 1
# Building blocks:
#     Node 0, Type 0, BuildingBlock: ESEHIV_clean_sbu_0, # of connection points: 4
#     Node 1, Type 0, BuildingBlock: ESEHIV_clean_sbu_0, # of connection points: 4
#     Node 2, Type 0, BuildingBlock: ESEHIV_clean_sbu_0, # of connection points: 4
#     Node 3, Type 0, BuildingBlock: ESEHIV_clean_sbu_0, # of connection points: 4
#     Node 4, Type 0, BuildingBlock: ESEHIV_clean_sbu_0, # of connection points: 4
#     Node 5, Type 0, BuildingBlock: ESEHIV_clean_sbu_0, # of connection points: 4
#     Node 6, Type 0, BuildingBlock: ESEHIV_clean_sbu_0, # of connection points: 4
#     Node 7, Type 0, BuildingBlock: ESEHIV_clean_sbu_0, # of connection points: 4
#     Node 8, Type 0, BuildingBlock: ESEHIV_clean_sbu_0, # of connection points: 4
#     Node 9, Type 0, BuildingBlock: ESEHIV_clean_sbu_0, # of connection points: 4
#     Node 10, Type 0, BuildingBlock: ESEHIV_clean_sbu_0, # of connection points: 4
#     Node 11, Type 0, BuildingBlock: ESEHIV_clean_sbu_0, # of connection points: 4
#     Node 12, Type 1, BuildingBlock: BETDEL_clean_sbu_0, # of connection points: 6
#     Node 13, Type 1, BuildingBlock: BETDEL_clean_sbu_0, # of connection points: 6
#     Node 14, Type 1, BuildingBlock: BETDEL_clean_sbu_0, # of connection points: 6
#     Node 15, Type 1, BuildingBlock: BETDEL_clean_sbu_0, # of connection points: 6
#     Node 16, Type 1, BuildingBlock: BETDEL_clean_sbu_0, # of connection points: 6
#     Node 17, Type 1, BuildingBlock: BETDEL_clean_sbu_0, # of connection points: 6
#     Node 18, Type 1, BuildingBlock: BETDEL_clean_sbu_0, # of connection points: 6
#     Node 19, Type 1, BuildingBlock: BETDEL_clean_sbu_0, # of connection points: 6
#     Edge 20, Type (0, 1), BuildingBlock: CIFDUS_clean_linker_0, # of connection points: 2
#     Edge 21, Type (0, 1), BuildingBlock: CIFDUS_clean_linker_0, # of connection points: 2
#     Edge 22, Type (0, 1), BuildingBlock: CIFDUS_clean_linker_0, # of connection points: 2
#     Edge 23, Type (0, 1), BuildingBlock: CIFDUS_clean_linker_0, # of connection points: 2
#     Edge 24, Type (0, 1), BuildingBlock: CIFDUS_clean_linker_0, # of connection points: 2
#     Edge 25, Type (0, 1), BuildingBlock: CIFDUS_clean_linker_0, # of connection points: 2
#     Edge 26, Type (0, 1), BuildingBlock: CIFDUS_clean_linker_0, # of connection points: 2
#     Edge 27, Type (0, 1), BuildingBlock: CIFDUS_clean_linker_0, # of connection points: 2
#     Edge 28, Type (0, 1), BuildingBlock: CIFDUS_clean_linker_0, # of connection points: 2
#     Edge 29, Type (0, 1), BuildingBlock: CIFDUS_clean_linker_0, # of connection points: 2
#     Edge 30, Type (0, 1), BuildingBlock: CIFDUS_clean_linker_0, # of connection points: 2
#     Edge 31, Type (0, 1), BuildingBlock: CIFDUS_clean_linker_0, # of connection points: 2
#     Edge 32, Type (0, 1), BuildingBlock: CIFDUS_clean_linker_0, # of connection points: 2
#     Edge 33, Type (0, 1), BuildingBlock: CIFDUS_clean_linker_0, # of connection points: 2
#     Edge 34, Type (0, 1), BuildingBlock: CIFDUS_clean_linker_0, # of connection points: 2
#     Edge 35, Type (0, 1), BuildingBlock: CIFDUS_clean_linker_0, # of connection points: 2
#     Edge 36, Type (0, 1), BuildingBlock: CIFDUS_clean_linker_0, # of connection points: 2
#     Edge 37, Type (0, 1), BuildingBlock: CIFDUS_clean_linker_0, # of connection points: 2
#     Edge 38, Type (0, 1), BuildingBlock: CIFDUS_clean_linker_0, # of connection points: 2
#     Edge 39, Type (0, 1), BuildingBlock: CIFDUS_clean_linker_0, # of connection points: 2
#     Edge 40, Type (0, 1), BuildingBlock: CIFDUS_clean_linker_0, # of connection points: 2
#     Edge 41, Type (0, 1), BuildingBlock: CIFDUS_clean_linker_0, # of connection points: 2
#     Edge 42, Type (0, 1), BuildingBlock: CIFDUS_clean_linker_0, # of connection points: 2
#     Edge 43, Type (0, 1), BuildingBlock: CIFDUS_clean_linker_0, # of connection points: 2
#     Edge 44, Type (0, 1), BuildingBlock: CIFDUS_clean_linker_0, # of connection points: 2
#     Edge 45, Type (0, 1), BuildingBlock: CIFDUS_clean_linker_0, # of connection points: 2
#     Edge 46, Type (0, 1), BuildingBlock: CIFDUS_clean_linker_0, # of connection points: 2
#     Edge 47, Type (0, 1), BuildingBlock: CIFDUS_clean_linker_0, # of connection points: 2
#     Edge 48, Type (0, 1), BuildingBlock: CIFDUS_clean_linker_0, # of connection points: 2
#     Edge 49, Type (0, 1), BuildingBlock: CIFDUS_clean_linker_0, # of connection points: 2
#     Edge 50, Type (0, 1), BuildingBlock: CIFDUS_clean_linker_0, # of connection points: 2
#     Edge 51, Type (0, 1), BuildingBlock: CIFDUS_clean_linker_0, # of connection points: 2
#     Edge 52, Type (0, 1), BuildingBlock: CIFDUS_clean_linker_0, # of connection points: 2
#     Edge 53, Type (0, 1), BuildingBlock: CIFDUS_clean_linker_0, # of connection points: 2
#     Edge 54, Type (0, 1), BuildingBlock: CIFDUS_clean_linker_0, # of connection points: 2
#     Edge 55, Type (0, 1), BuildingBlock: CIFDUS_clean_linker_0, # of connection points: 2
#     Edge 56, Type (0, 1), BuildingBlock: CIFDUS_clean_linker_0, # of connection points: 2
#     Edge 57, Type (0, 1), BuildingBlock: CIFDUS_clean_linker_0, # of connection points: 2
#     Edge 58, Type (0, 1), BuildingBlock: CIFDUS_clean_linker_0, # of connection points: 2
#     Edge 59, Type (0, 1), BuildingBlock: CIFDUS_clean_linker_0, # of connection points: 2
#     Edge 60, Type (0, 1), BuildingBlock: CIFDUS_clean_linker_0, # of connection points: 2
#     Edge 61, Type (0, 1), BuildingBlock: CIFDUS_clean_linker_0, # of connection points: 2
#     Edge 62, Type (0, 1), BuildingBlock: CIFDUS_clean_linker_0, # of connection points: 2
#     Edge 63, Type (0, 1), BuildingBlock: CIFDUS_clean_linker_0, # of connection points: 2
#     Edge 64, Type (0, 1), BuildingBlock: CIFDUS_clean_linker_0, # of connection points: 2
#     Edge 65, Type (0, 1), BuildingBlock: CIFDUS_clean_linker_0, # of connection points: 2
#     Edge 66, Type (0, 1), BuildingBlock: CIFDUS_clean_linker_0, # of connection points: 2
#     Edge 67, Type (0, 1), BuildingBlock: CIFDUS_clean_linker_0, # of connection points: 2
# Relax obj value: 0.119
# Max RMSD: 0.173
# Mean RMSD: 0.149
data_MOF--net-soc--node1-ESEHIV_clean_sbu_0--node2-BETDEL_clean_sbu_0--edge1-CIFDUS_clean_linker_0
_symmetry_space_group_name_H-M    P1
_symmetry_Int_Tables_number       1
_symmetry_cell_setting            triclinic
loop_
_symmetry_equiv_pos_as_xyz
'x, y, z'
_cell_length_a     40.257405
_cell_length_b     39.656201
_cell_length_c     37.492027
_cell_angle_alpha  88.82206
_cell_angle_beta   90.314403
_cell_angle_gamma 78.72119
loop_
_atom_site_label
_atom_site_type_symbol
_atom_site_fract_x
_atom_site_fract_y
_atom_site_fract_z
_atom_type_partial_charge
Cu0 Cu 0.04454 0.03392 0.30789 0.0
N1 N 0.06429 0.06223 0.33728 0.0
N2 N 0.094 0.10292 0.3494 0.0
C3 C 0.07704 0.08893 0.32431 0.0
C4 C 0.09168 0.08432 0.37955 0.0
C5 C 0.07323 0.05927 0.37202 0.0
O6 O 0.08161 1.0106 0.27931 0.0
C7 C 0.9818 0.07529 0.29587 0.0
O8 O 0.97681 0.06304 0.32778 0.0
H9 H 0.07547 0.0967 0.2964 0.0
H10 H 0.06782 0.03968 0.39031 0.0
N11 N 1.02544 1.00049 0.33237 0.0
N12 N 0.99421 0.95992 0.34046 0.0
C13 C 0.99909 0.98726 0.32048 0.0
C14 C 0.03781 0.98071 0.36086 0.0
C15 C 1.01855 0.95579 0.366 0.0
C16 C 0.08425 0.97973 0.2694 0.0
O17 O 0.05807 0.96468 0.2723 0.0
H18 H 0.98516 0.99625 0.29622 0.0
H19 H 0.0603 0.98303 0.37572 0.0
O20 O 1.00996 0.06482 0.2806 0.0
H21 H 0.10305 0.08809 0.40502 0.0
H22 H 1.02277 0.93567 0.3864 0.0
Cu23 Cu 0.04688 1.00259 0.73713 0.0
N24 N 1.0217 0.97979 0.70735 0.0
N25 N 0.98315 0.9478 0.69543 0.0
C26 C 0.99144 0.97245 0.71607 0.0
C27 C 1.00915 0.93942 0.67263 0.0
C28 C 1.03292 0.95922 0.68006 0.0
O29 O 1.01496 0.03688 0.76376 0.0
C30 C 0.10696 0.95421 0.74891 0.0
O31 O 0.11447 0.96828 0.71881 0.0
H32 H 0.97733 0.98261 0.73929 0.0
H33 H 0.05777 0.95677 0.6684 0.0
N34 N 0.07304 0.02963 0.7132 0.0
N35 N 0.10481 0.06976 0.70952 0.0
C36 C 0.08898 0.05071 0.73127 0.0
C37 C 0.07894 0.03522 0.67849 0.0
C38 C 0.09884 0.05999 0.67614 0.0
C39 C 1.00002 0.06179 0.74362 0.0
O40 O 1.00505 0.06002 0.70908 0.0
H41 H 0.08874 0.05197 0.76007 0.0
H42 H 0.06901 0.02274 0.65658 0.0
O43 O 0.07844 0.96601 0.76349 0.0
H44 H 1.0116 0.9192 0.6533 0.0
H45 H 0.1074 0.0706 0.65183 0.0
Cu46 Cu 0.35716 0.03726 0.03488 0.0
N47 N 0.38113 1.00839 1.00122 0.0
N48 N 0.3907 0.96575 0.96248 0.0
C49 C 0.37638 0.97667 0.99363 0.0
C50 C 0.40547 0.99133 0.95013 0.0
C51 C 0.39974 0.01757 0.97428 0.0
O52 O 0.34061 1.01002 0.07253 0.0
C53 C 0.31707 0.07417 0.97729 0.0
O54 O 0.3251 0.04555 0.95957 0.0
H55 H 0.36015 0.96313 0.00881 0.0
H56 H 0.40605 0.04273 0.97088 0.0
N57 N 0.38578 0.06013 0.05956 0.0
N58 N 0.39981 0.09378 0.10178 0.0
C59 C 0.3755 0.07847 0.0885 0.0
C60 C 0.4179 0.06376 0.05401 0.0
C61 C 0.42661 0.08479 0.08006 0.0
C62 C 0.32038 0.98909 0.07123 0.0
O63 O 0.30414 0.98607 0.04134 0.0
H64 H 0.35006 0.0814 0.09882 0.0
H65 H 0.43366 0.05238 0.03244 0.0
O66 O 0.32466 0.074 0.01044 0.0
H67 H 0.41764 0.99187 0.9245 0.0
H68 H 0.45063 0.09295 0.08266 0.0
Cu69 Cu 0.05786 0.32436 0.05863 0.0
N70 N 0.07719 0.35577 0.03239 0.0
N71 N 0.10964 0.37199 0.98969 0.0
C72 C 0.09267 0.34778 1.00121 0.0
C73 C 0.10459 0.39638 0.01479 0.0
C74 C 0.08445 0.38628 0.04118 0.0
O75 O 0.09618 0.29978 0.08812 0.0
C76 C 1.01583 0.28123 0.02254 0.0
O77 O 1.00717 0.27017 0.05372 0.0
H78 H 0.09348 0.32334 0.98856 0.0
H79 H 0.07718 0.39938 0.06577 0.0
N80 N 1.02405 0.34764 0.08839 0.0
N81 N 0.97667 0.35934 0.12065 0.0
C82 C 0.99209 0.34259 0.09238 0.0
C83 C 1.02872 0.36899 0.11456 0.0
C84 C 0.99962 0.37626 0.13446 0.0
C85 C 0.09484 0.29257 0.12142 0.0
O86 O 0.06513 0.29454 0.13641 0.0
H87 H 0.98055 0.32633 0.07556 0.0
H88 H 0.05241 0.37686 0.12023 0.0
O89 O 0.03812 0.30006 0.02088 0.0
H90 H 0.11561 0.41918 0.01476 0.0
H91 H 0.99652 0.39095 0.15863 0.0
Cu92 Cu 0.73969 1.00543 0.03271 0.0
N93 N 0.73226 0.03322 0.99185 0.0
N94 N 0.73421 0.06732 0.94435 0.0
C95 C 0.75024 0.05372 0.9747 0.0
C96 C 0.70536 0.05499 0.94262 0.0
C97 C 0.7043 0.03402 0.97181 0.0
O98 O 0.71783 0.03083 0.07373 0.0
C99 C 0.74848 0.95073 0.99041 0.0
O100 O 0.77343 0.9667 0.98327 0.0
H101 H 0.77449 0.05821 0.98395 0.0
H102 H 0.68446 0.02009 0.9782 0.0
N103 N 0.78437 0.99323 0.04888 0.0
N104 N 0.81861 0.96145 0.08943 0.0
C105 C 0.79473 0.9619 0.064 0.0
C106 C 0.80291 0.01354 0.06478 0.0
C107 C 0.82417 0.99395 0.08979 0.0
C108 C 0.70851 0.06358 0.07176 0.0
O109 O 0.70223 0.07846 0.0402 0.0
H110 H 0.78074 0.94144 0.06086 0.0
H111 H 0.79787 0.04131 0.06228 0.0
O112 O 0.72778 0.9627 0.01505 0.0
H113 H 0.68603 0.06123 0.92204 0.0
H114 H 0.83962 1.00372 0.10927 0.0
Cu115 Cu 0.05086 0.71863 0.00947 0.0
N116 N 1.0235 0.71653 0.96997 0.0
N117 N 0.98064 0.72357 0.93106 0.0
C118 C 0.99167 0.7331 0.96267 0.0
C119 C 1.0066 0.70047 0.91803 0.0
C120 C 1.03296 0.69622 0.94208 0.0
O121 O 0.0362 0.6956 0.05188 0.0
C122 C 0.10639 0.72473 0.96944 0.0
O123 O 0.08449 0.75283 0.96057 0.0
H124 H 0.97678 0.75116 0.9804 0.0
H125 H 0.05722 0.679 0.9398 0.0
N126 N 0.04723 0.76331 0.02497 0.0
N127 N 0.06506 0.79868 0.06307 0.0
C128 C 0.074 0.77252 0.04051 0.0
C129 C 1.01993 0.78471 0.03766 0.0
C130 C 1.0309 0.80674 0.06119 0.0
C131 C 1.00679 0.68814 0.05429 0.0
O132 O 0.98926 0.68646 0.02499 0.0
H133 H 0.09909 0.75659 0.03963 0.0
H134 H 0.99405 0.78165 0.03386 0.0
O135 O 0.09761 0.70385 0.99238 0.0
H136 H 1.00612 0.68657 0.89354 0.0
H137 H 1.01492 0.82469 0.07819 0.0
Cu138 Cu 0.55006 0.51146 0.82619 0.0
N139 N 0.56973 0.53844 0.85679 0.0
N140 N 0.59644 0.58062 0.87157 0.0
C141 C 0.58431 0.56417 0.8448 0.0
C142 C 0.58928 0.56437 0.90178 0.0
C143 C 0.57259 0.53839 0.89255 0.0
O144 O 0.58839 0.48398 0.80167 0.0
C145 C 0.49608 0.54547 0.77594 0.0
O146 O 0.48868 0.51606 0.76666 0.0
H147 H 0.58642 0.57024 0.81673 0.0
H148 H 0.56319 0.52088 0.9106 0.0
N149 N 0.52551 0.48341 0.85183 0.0
N150 N 0.48673 0.45146 0.86442 0.0
C151 C 0.49445 0.47738 0.8442 0.0
C152 C 0.53756 0.46098 0.87844 0.0
C153 C 0.51379 0.4412 0.8862 0.0
C154 C 0.59309 0.4515 0.79825 0.0
O155 O 0.56836 0.43541 0.80593 0.0
H156 H 0.47847 0.4903 0.82299 0.0
H157 H 0.56267 0.45795 0.89001 0.0
O158 O 0.5207 0.54625 0.79708 0.0
H159 H 0.59537 0.57092 0.92859 0.0
H160 H 0.51676 0.42011 0.90548 0.0
Cu161 Cu 0.54019 0.53779 0.22325 0.0
N162 N 0.51984 0.50958 0.19465 0.0
N163 N 0.49073 0.46808 0.18415 0.0
C164 C 0.49815 0.49078 0.20784 0.0
C165 C 0.50834 0.47318 0.15458 0.0
C166 C 0.52651 0.49866 0.16125 0.0
O167 O 0.50326 0.56811 0.24703 0.0
C168 C 0.59663 0.48927 0.24046 0.0
O169 O 0.60317 0.49678 0.20728 0.0
H170 H 0.48887 0.49316 0.23488 0.0
H171 H 0.5445 0.50732 0.14368 0.0
N172 N 0.5667 0.56369 0.19758 0.0
N173 N 0.6083 0.5925 0.18677 0.0
C174 C 0.59457 0.57336 0.2106 0.0
C175 C 0.56238 0.57737 0.16434 0.0
C176 C 0.58802 0.59524 0.1576 0.0
C177 C 0.50014 0.60071 0.24753 0.0
O178 O 0.52503 0.61485 0.23593 0.0
H179 H 0.60414 0.56695 0.23743 0.0
H180 H 0.54191 0.57479 0.14644 0.0
O181 O 0.5697 0.50542 0.2548 0.0
H182 H 0.50939 0.45846 0.13049 0.0
H183 H 0.59153 0.60897 0.1331 0.0
Cu184 Cu 0.80498 0.538 0.53113 0.0
N185 N 0.77629 0.56884 0.50148 0.0
N186 N 0.7662 0.60454 0.45407 0.0
C187 C 0.78561 0.57579 0.46824 0.0
C188 C 0.74307 0.61579 0.47933 0.0
C189 C 0.74954 0.59376 0.50877 0.0
O190 O 0.83169 0.567 0.55583 0.0
C191 C 0.84661 0.4746 0.50208 0.0
O192 O 0.86103 0.46626 0.53339 0.0
H193 H 0.80787 0.56118 0.45576 0.0
H194 H 0.73745 0.59727 0.53449 0.0
N195 N 0.78126 0.5172 0.56518 0.0
N196 N 0.77578 0.4768 0.60585 0.0
C197 C 0.78711 0.48328 0.57319 0.0
C198 C 0.76459 0.5326 0.59339 0.0
C199 C 0.7615 0.50768 0.61876 0.0
C200 C 0.83832 0.56333 0.58914 0.0
O201 O 0.83723 0.53372 0.60497 0.0
H202 H 0.80226 0.46394 0.55708 0.0
H203 H 0.75854 0.56012 0.59693 0.0
O204 O 0.82657 0.50348 0.49759 0.0
H205 H 0.72468 0.63969 0.47785 0.0
H206 H 0.75168 0.51204 0.64544 0.0
Cu207 Cu 0.56634 0.79507 0.52894 0.0
N208 N 0.60286 0.7691 0.50369 0.0
N209 N 0.64857 0.75768 0.46851 0.0
C210 C 0.62429 0.78237 0.48227 0.0
C211 C 0.642 0.72773 0.48162 0.0
C212 C 0.61383 0.73479 0.50306 0.0
O213 O 0.58724 0.82496 0.55851 0.0
C214 C 0.52666 0.80075 0.46906 0.0
O215 O 0.54281 0.76866 0.46758 0.0
H216 H 0.62241 0.80968 0.47738 0.0
H217 H 0.6021 0.71607 0.51681 0.0
N218 N 0.54214 0.76917 0.55815 0.0
N219 N 0.50071 0.75899 0.59424 0.0
C220 C 0.51081 0.78128 0.57088 0.0
C221 C 0.55214 0.73806 0.57409 0.0
C222 C 0.52654 0.7316 0.59607 0.0
C223 C 0.58352 0.82751 0.59214 0.0
O224 O 0.55896 0.81551 0.60764 0.0
H225 H 0.49631 0.80664 0.56426 0.0
H226 H 0.57691 0.72195 0.5716 0.0
O227 O 0.53359 0.81917 0.49441 0.0
H228 H 0.65626 0.7024 0.47572 0.0
H229 H 0.52763 0.70939 0.61363 0.0
Cu230 Cu 0.25289 0.52725 0.52188 0.0
N231 N 0.23102 0.57 0.5018 0.0
N232 N 0.22167 0.61735 0.46634 0.0
C233 C 0.24361 0.5883 0.47614 0.0
C234 C 0.19381 0.61711 0.48612 0.0
C235 C 0.19964 0.58795 0.50791 0.0
O236 O 0.29376 0.53144 0.54753 0.0
C237 C 0.27852 0.49383 0.45842 0.0
O238 O 0.29797 0.51681 0.45701 0.0
H239 H 0.2681 0.58013 0.46409 0.0
H240 H 0.18193 0.5802 0.52642 0.0
N241 N 0.22938 0.5097 0.55854 0.0
N242 N 0.22876 0.47356 0.60537 0.0
C243 C 0.24087 0.47788 0.57237 0.0
C244 C 0.20904 0.52627 0.58367 0.0
C245 C 0.20825 0.5039 0.61235 0.0
C246 C 0.30765 0.55757 0.54754 0.0
O247 O 0.30553 0.57765 0.51909 0.0
H248 H 0.26001 0.45924 0.55948 0.0
H249 H 0.19847 0.55351 0.58302 0.0
O250 O 0.25905 0.49329 0.48485 0.0
H251 H 0.17089 0.63663 0.485 0.0
H252 H 0.19598 0.5105 0.63757 0.0
Cu253 Cu 0.53825 0.2295 0.51931 0.0
N254 N 0.57149 0.20062 0.49356 0.0
N255 N 0.61534 0.18826 0.45674 0.0
C256 C 0.5935 0.21325 0.47292 0.0
C257 C 0.60668 0.15849 0.46752 0.0
C258 C 0.57966 0.16619 0.49057 0.0
O259 O 0.56434 0.25475 0.55016 0.0
C260 C 0.49841 0.23863 0.45714 0.0
O261 O 0.514 0.20656 0.45383 0.0
H262 H 0.59302 0.24051 0.46943 0.0
H263 H 0.56705 0.14799 0.5041 0.0
N264 N 0.51399 0.20642 0.55043 0.0
N265 N 0.48069 0.20054 0.59682 0.0
C266 C 0.49921 0.22083 0.57996 0.0
C267 C 0.50453 0.17584 0.54816 0.0
C268 C 0.48405 0.17207 0.57686 0.0
C269 C 0.58679 0.23437 0.56875 0.0
O270 O 0.58852 0.20109 0.56607 0.0
H271 H 0.50085 0.24655 0.58784 0.0
H272 H 0.51099 0.15809 0.52665 0.0
O273 O 0.5052 0.25522 0.48434 0.0
H274 H 0.61916 0.13307 0.45964 0.0
H275 H 0.47213 0.1503 0.58211 0.0
Dy276 Dy 0.27335 0.26507 0.3068 0.0
C277 C 0.37526 0.33893 0.25254 0.0
C278 C 0.2288 0.22428 0.32697 0.0
Dy279 Dy 0.32373 0.30485 0.26617 0.0
O280 O 0.26055 0.21938 0.33623 0.0
O281 O 0.22112 0.25181 0.30668 0.0
O282 O 0.298 0.27353 0.35848 0.0
O283 O 0.32721 0.26852 0.31181 0.0
C284 C 0.32719 0.27533 0.34475 0.0
C285 C 0.2654 0.30823 0.2277 0.0
O286 O 0.34591 0.25139 0.25101 0.0
O287 O 0.30028 0.22646 0.26803 0.0
O288 O 0.3608 0.32293 0.22886 0.0
O289 O 0.36197 0.33571 0.28363 0.0
O290 O 0.29041 0.32239 0.21759 0.0
O291 O 0.2733 0.29456 0.25797 0.0
O292 O 0.25211 0.31917 0.32328 0.0
O293 O 0.29759 0.34332 0.30419 0.0
C294 C 0.32952 0.22547 0.25127 0.0
C295 C 0.26927 0.34468 0.32238 0.0
Dy296 Dy 0.79936 0.30131 0.30002 0.0
C297 C 0.75083 0.2099 0.19918 0.0
C298 C 0.8107 0.35098 0.34607 0.0
Dy299 Dy 0.76819 0.25529 0.24727 0.0
O300 O 0.82491 0.3186 0.34846 0.0
O301 O 0.79026 0.35604 0.31867 0.0
O302 O 0.85021 0.26692 0.29432 0.0
O303 O 0.80593 0.24635 0.29003 0.0
C304 C 0.83767 0.24002 0.28679 0.0
C305 C 0.73077 0.31752 0.26068 0.0
O306 O 0.74858 0.2381 0.29863 0.0
O307 O 0.75932 0.28322 0.33297 0.0
O308 O 0.74401 0.24324 0.19593 0.0
O309 O 0.76793 0.20113 0.2286 0.0
O310 O 0.71762 0.29091 0.25396 0.0
O311 O 0.76233 0.31006 0.25698 0.0
O312 O 0.81931 0.3176 0.24869 0.0
O313 O 0.81124 0.2705 0.21587 0.0
C314 C 0.7451 0.25602 0.32833 0.0
C315 C 0.82494 0.2982 0.22015 0.0
Dy316 Dy 0.79281 0.74331 0.2387 0.0
C317 C 0.88794 0.81408 0.30436 0.0
C318 C 0.74926 0.70539 0.21094 0.0
Dy319 Dy 0.84893 0.77032 0.27903 0.0
O320 O 0.74926 0.73741 0.20297 0.0
O321 O 0.77357 0.69382 0.23362 0.0
O322 O 0.77346 0.79656 0.21664 0.0
O323 O 0.82482 0.78065 0.22694 0.0
C324 C 0.80255 0.80613 0.21734 0.0
C325 C 0.83949 0.70799 0.30106 0.0
O326 O 0.80246 0.79189 0.31244 0.0
O327 O 0.76295 0.76397 0.28636 0.0
O328 O 0.89454 0.78079 0.30882 0.0
O329 O 0.85979 0.82344 0.28643 0.0
O330 O 0.86869 0.7175 0.30276 0.0
O331 O 0.81744 0.73316 0.29039 0.0
O332 O 0.83957 0.71597 0.21037 0.0
O333 O 0.87856 0.74716 0.23165 0.0
C334 C 0.7716 0.78425 0.31097 0.0
C335 C 0.87018 0.72403 0.20987 0.0
Dy336 Dy 0.26641 0.77933 0.2475 0.0
C337 C 0.37762 0.81085 0.32849 0.0
C338 C 0.21619 0.77582 0.19989 0.0
Dy339 Dy 0.3195 0.80712 0.29249 0.0
O340 O 0.24817 0.76383 0.19515 0.0
O341 O 0.21124 0.78813 0.23171 0.0
O342 O 0.3011 0.72769 0.24676 0.0
O343 O 0.32135 0.77286 0.24783 0.0
C344 C 0.32845 0.7404 0.24934 0.0
C345 C 0.25744 0.84579 0.29127 0.0
O346 O 0.32417 0.83652 0.24132 0.0
O347 O 0.27495 0.82536 0.21564 0.0
O348 O 0.34744 0.82586 0.33817 0.0
O349 O 0.37579 0.79407 0.29946 0.0
O350 O 0.28452 0.8588 0.29525 0.0
O351 O 0.26504 0.81346 0.29191 0.0
O352 O 0.25674 0.75427 0.29895 0.0
O353 O 0.30602 0.76357 0.32701 0.0
C354 C 0.30063 0.84173 0.21575 0.0
C355 C 0.2789 0.74874 0.3258 0.0
Dy356 Dy 0.31723 0.77533 0.80135 0.0
C357 C 0.28726 0.66278 0.72513 0.0
C358 C 0.33141 0.83017 0.83688 0.0
Dy359 Dy 0.28692 0.72026 0.76406 0.0
O360 O 0.33639 0.79879 0.84939 0.0
O361 O 0.3181 0.83177 0.80507 0.0
O362 O 0.36793 0.74002 0.80286 0.0
O363 O 0.32384 0.71937 0.80634 0.0
C364 C 0.35564 0.71212 0.8033 0.0
C365 C 0.24835 0.78351 0.76005 0.0
O366 O 0.26768 0.71325 0.81924 0.0
O367 O 0.2734 0.76785 0.83602 0.0
O368 O 0.25996 0.68306 0.7361 0.0
O369 O 0.31372 0.67349 0.7363 0.0
O370 O 0.23607 0.75557 0.75878 0.0
O371 O 0.28031 0.77624 0.75847 0.0
O372 O 0.34311 0.7786 0.74893 0.0
O373 O 0.3257 0.73146 0.72471 0.0
C374 C 0.26051 0.73965 0.84101 0.0
C375 C 0.34464 0.75532 0.72381 0.0
Dy376 Dy 0.25994 0.24985 0.76973 0.0
C377 C 0.3557 0.32938 0.82797 0.0
C378 C 0.22648 0.19997 0.74939 0.0
Dy379 Dy 0.30842 0.29251 0.80745 0.0
O380 O 0.22438 0.21361 0.78081 0.0
O381 O 0.24691 0.21343 0.72942 0.0
O382 O 0.23577 0.29019 0.72884 0.0
O383 O 0.27295 0.29989 0.76328 0.0
C384 C 0.25373 0.31254 0.73782 0.0
C385 C 0.29779 0.23569 0.84284 0.0
O386 O 0.25804 0.31835 0.82841 0.0
O387 O 0.22868 0.27479 0.81473 0.0
O388 O 0.32612 0.34283 0.81429 0.0
O389 O 0.35915 0.29617 0.83023 0.0
O390 O 0.30334 0.26307 0.85835 0.0
O391 O 0.30084 0.23904 0.80948 0.0
O392 O 0.30965 0.22754 0.74573 0.0
O393 O 0.33898 0.27049 0.76024 0.0
C394 C 0.2311 0.30368 0.83108 0.0
C395 C 0.33591 0.24282 0.7421 0.0
Dy396 Dy 0.78418 0.25351 0.75684 0.0
C397 C 0.87569 0.28075 0.86884 0.0
C398 C 0.73745 0.24759 0.70463 0.0
Dy399 Dy 0.83105 0.27798 0.81333 0.0
O400 O 0.76915 0.23246 0.70514 0.0
O401 O 0.73096 0.26587 0.73308 0.0
O402 O 0.81455 0.20054 0.75977 0.0
O403 O 0.83938 0.24215 0.76856 0.0
C404 C 0.8425 0.20953 0.76957 0.0
C405 C 0.76908 0.31757 0.80427 0.0
O406 O 0.84234 0.31056 0.76725 0.0
O407 O 0.79981 0.29864 0.72976 0.0
O408 O 0.84289 0.28625 0.87089 0.0
O409 O 0.88443 0.27446 0.83583 0.0
O410 O 0.79536 0.32975 0.81417 0.0
O411 O 0.77677 0.28532 0.8034 0.0
O412 O 0.76762 0.22832 0.80538 0.0
O413 O 0.81502 0.23251 0.8397 0.0
C414 C 0.82346 0.31636 0.73776 0.0
C415 C 0.7874 0.21982 0.8339 0.0
Dy416 Dy 0.74847 0.75703 0.79187 0.0
C417 C 0.85305 0.82472 0.73551 0.0
C418 C 0.69671 0.72485 0.8108 0.0
Dy419 Dy 0.80146 0.79182 0.75371 0.0
O420 O 0.72349 0.72549 0.82991 0.0
O421 O 0.69778 0.74244 0.7813 0.0
O422 O 0.78351 0.74374 0.83908 0.0
O423 O 0.80324 0.74682 0.78769 0.0
C424 C 0.8106 0.74316 0.82032 0.0
C425 C 0.73982 0.80561 0.72388 0.0
O426 O 0.81096 0.74224 0.7237 0.0
O427 O 0.7652 0.72099 0.74668 0.0
O428 O 0.82182 0.83965 0.74066 0.0
O429 O 0.85618 0.79168 0.74034 0.0
O430 O 0.76766 0.80451 0.70626 0.0
O431 O 0.74587 0.80252 0.75706 0.0
O432 O 0.7407 0.80601 0.82221 0.0
O433 O 0.79366 0.81675 0.80744 0.0
C434 C 0.79134 0.71888 0.72467 0.0
C435 C 0.76629 0.8219 0.82792 0.0
H436 H 0.1526 0.10848 0.38188 0.0
H437 H 0.07917 0.1573 0.30346 0.0
H438 H 0.11358 0.20048 0.29046 0.0
H439 H 0.16594 0.22313 0.29978 0.0
H440 H 0.24024 0.17254 0.37663 0.0
H441 H 0.20415 0.13167 0.39208 0.0
C442 C 0.14391 0.12886 0.36234 0.0
C443 C 0.11333 0.12965 0.3437 0.0
C444 C 0.16412 0.15328 0.35461 0.0
C445 C 0.10273 0.15594 0.31797 0.0
C446 C 0.12237 0.18068 0.31058 0.0
C447 C 0.17403 0.20331 0.32009 0.0
C448 C 0.20569 0.20089 0.33707 0.0
C449 C 0.15333 0.17942 0.32844 0.0
C450 C 0.216 0.17492 0.36314 0.0
C451 C 0.19537 0.15151 0.372 0.0
H452 H 0.91395 0.08695 0.30197 0.0
H453 H 0.99562 0.13119 0.25986 0.0
H454 H 0.95687 0.18652 0.2504 0.0
H455 H 0.90156 0.22391 0.2621 0.0
H456 H 0.81951 0.17892 0.30209 0.0
H457 H 0.85647 0.12206 0.30414 0.0
C458 C 0.92299 0.10854 0.28993 0.0
C459 C 0.95748 0.10531 0.28194 0.0
C460 C 0.90064 0.14014 0.28472 0.0
C461 C 0.96905 0.13318 0.26605 0.0
C462 C 0.94701 0.16486 0.26099 0.0
C463 C 0.89178 0.2015 0.27078 0.0
C464 C 0.85828 0.20544 0.2827 0.0
C465 C 0.91306 0.16892 0.2715 0.0
C466 C 0.84542 0.17636 0.29315 0.0
C467 C 0.86653 0.14393 0.2944 0.0
H468 H 1.00086 0.89224 0.35765 0.0
H469 H 0.93325 0.97798 0.30718 0.0
H470 H 0.89389 0.94062 0.29226 0.0
H471 H 0.87923 0.88311 0.29209 0.0
H472 H 0.94693 0.79738 0.34235 0.0
H473 H 0.98538 0.83521 0.35922 0.0
C474 C 0.97733 0.90291 0.34384 0.0
C475 C 0.9702 0.93798 0.33349 0.0
C476 C 0.95477 0.8812 0.33525 0.0
C477 C 0.9397 0.95108 0.31508 0.0
C478 C 0.91706 0.92973 0.30665 0.0
C479 C 0.9023 0.87279 0.30694 0.0
C480 C 0.91023 0.8375 0.31597 0.0
C481 C 0.92444 0.89468 0.31633 0.0
C482 C 0.94025 0.82446 0.3351 0.0
C483 C 0.96228 0.84608 0.34472 0.0
H484 H 0.10259 0.9102 0.27288 0.0
H485 H 0.14299 1.00232 0.25597 0.0
H486 H 0.20063 0.96854 0.25981 0.0
H487 H 0.23944 0.91358 0.27363 0.0
H488 H 0.19856 0.82233 0.29359 0.0
H489 H 0.14121 0.85499 0.28295 0.0
C490 C 0.12395 0.92285 0.26928 0.0
C491 C 0.11848 0.95876 0.26431 0.0
C492 C 0.15696 0.90347 0.27268 0.0
C493 C 0.14652 0.97471 0.25992 0.0
C494 C 0.17948 0.95545 0.26237 0.0
C495 C 0.21792 0.90094 0.27559 0.0
C496 C 0.22305 0.86572 0.28446 0.0
C497 C 0.18499 0.91998 0.26982 0.0
C498 C 0.19512 0.84945 0.28662 0.0
C499 C 0.16236 0.8681 0.2806 0.0
H500 H 0.17484 0.93867 0.74179 0.0
H501 H 0.09087 0.89774 0.78325 0.0
H502 H 0.12789 0.84106 0.79164 0.0
H503 H 0.18296 0.80197 0.78125 0.0
H504 H 0.26699 0.84391 0.74141 0.0
H505 H 0.23117 0.90142 0.73823 0.0
C506 C 0.16477 0.91748 0.75331 0.0
C507 C 0.13009 0.92235 0.76173 0.0
C508 C 0.18613 0.88506 0.75775 0.0
C509 C 0.11747 0.89475 0.77684 0.0
C510 C 0.13859 0.86226 0.78124 0.0
C511 C 0.19341 0.82379 0.77205 0.0
C512 C 0.2274 0.81866 0.76089 0.0
C513 C 0.17272 0.8569 0.77079 0.0
C514 C 0.24086 0.84718 0.74979 0.0
C515 C 0.22037 0.88004 0.74798 0.0
H516 H 0.15686 0.08982 0.67544 0.0
H517 H 0.09399 0.10819 0.76861 0.0
H518 H 0.12708 0.14896 0.78996 0.0
H519 H 0.1741 0.17944 0.78259 0.0
H520 H 0.23571 0.16348 0.68845 0.0
H521 H 0.20298 0.12195 0.66704 0.0
C522 C 0.15023 0.10302 0.70019 0.0
C523 C 0.12326 0.09553 0.72055 0.0
C524 C 0.16926 0.1268 0.71228 0.0
C525 C 0.1151 0.11278 0.75274 0.0
C526 C 0.1339 0.1363 0.76495 0.0
C527 C 0.18039 0.16673 0.75748 0.0
C528 C 0.20728 0.17427 0.7372 0.0
C529 C 0.16118 0.14332 0.7451 0.0
C530 C 0.21507 0.15795 0.70454 0.0
C531 C 0.19635 0.13427 0.69225 0.0
H532 H 0.94501 0.06952 0.7875 0.0
H533 H 1.0078 0.1262 0.72776 0.0
H534 H 0.96682 0.17964 0.73576 0.0
H535 H 0.90861 0.20858 0.75105 0.0
H536 H 0.84421 0.15071 0.80682 0.0
H537 H 0.88991 0.10022 0.8098 0.0
C538 C 0.95015 0.09379 0.77739 0.0
C539 C 0.97938 0.09397 0.7572 0.0
C540 C 0.92573 0.12439 0.78095 0.0
C541 C 0.98542 0.1255 0.74349 0.0
C542 C 0.96189 0.15608 0.74787 0.0
C543 C 0.90508 0.18525 0.76484 0.0
C544 C 0.87313 0.18333 0.77862 0.0
C545 C 0.93125 0.15568 0.76528 0.0
C546 C 0.86864 0.15273 0.7959 0.0
C547 C 0.89473 0.12373 0.79747 0.0
H548 H 0.98467 0.8797 0.6915 0.0
H549 H 0.91942 0.97663 0.71336 0.0
H550 H 0.87275 0.94712 0.72686 0.0
H551 H 0.851 0.89351 0.73396 0.0
H552 H 0.91713 0.79621 0.71515 0.0
H553 H 0.96295 0.82592 0.69887 0.0
C554 C 0.96008 0.89432 0.69874 0.0
C555 C 0.95534 0.93032 0.70116 0.0
C556 C 0.93365 0.87705 0.70723 0.0
C557 C 0.92358 0.94892 0.71136 0.0
C558 C 0.89696 0.93205 0.71907 0.0
C559 C 0.87543 0.87885 0.7262 0.0
C560 C 0.88069 0.84274 0.72566 0.0
C561 C 0.90177 0.8961 0.71739 0.0
C562 C 0.9125 0.82403 0.71579 0.0
C563 C 0.93868 0.84102 0.70643 0.0
H564 H 0.3594 0.09289 0.15842 0.0
H565 H 0.43131 0.14758 0.11102 0.0
H566 H 0.41835 0.19182 0.15612 0.0
H567 H 0.38211 0.21789 0.20472 0.0
H568 H 0.30786 0.16435 0.24967 0.0
H569 H 0.32605 0.11684 0.20952 0.0
C570 C 0.37226 0.11448 0.15793 0.0
C571 C 0.39585 0.11723 0.131 0.0
C572 C 0.36401 0.14018 0.18328 0.0
C573 C 0.41308 0.14481 0.13144 0.0
C574 C 0.40546 0.17025 0.15705 0.0
C575 C 0.37015 0.19567 0.20612 0.0
C576 C 0.34336 0.19494 0.22999 0.0
C577 C 0.3803 0.16865 0.18249 0.0
C578 C 0.32829 0.16582 0.23139 0.0
C579 C 0.33867 0.1386 0.20841 0.0
H580 H 0.94534 0.30499 0.11519 0.0
H581 H 0.93644 0.40468 0.16242 0.0
H582 H 0.88673 0.39548 0.1953 0.0
H583 H 0.84865 0.35757 0.21409 0.0
H584 H 0.85744 0.2576 0.1675 0.0
H585 H 0.90385 0.26894 0.13014 0.0
C586 C 0.9322 0.32506 0.13206 0.0
C587 C 0.94497 0.35542 0.13654 0.0
C588 C 0.90364 0.31951 0.15108 0.0
C589 C 0.92761 0.38086 0.15892 0.0
C590 C 0.89909 0.37567 0.17766 0.0
C591 C 0.86046 0.3383 0.19555 0.0
C592 C 0.84973 0.30661 0.19391 0.0
C593 C 0.88736 0.34479 0.17455 0.0
C594 C 0.86512 0.2822 0.16936 0.0
C595 C 0.89181 0.28861 0.14811 0.0
H596 H 0.82363 0.89385 0.08139 0.0
H597 H 0.8286 0.97016 0.16039 0.0
H598 H 0.82675 0.92752 0.20806 0.0
H599 H 0.81607 0.87009 0.2271 0.0
H600 H 0.80686 0.79598 0.14702 0.0
H601 H 0.81723 0.83616 0.09998 0.0
C602 C 0.82476 0.90101 0.10907 0.0
C603 C 0.82584 0.93522 0.11721 0.0
C604 C 0.82203 0.87688 0.13617 0.0
C605 C 0.82793 0.94401 0.15322 0.0
C606 C 0.82636 0.91972 0.18055 0.0
C607 C 0.81653 0.86293 0.19932 0.0
C608 C 0.81021 0.83059 0.19017 0.0
C609 C 0.82211 0.88642 0.17233 0.0
C610 C 0.8112 0.82108 0.15432 0.0
C611 C 0.81727 0.84393 0.12753 0.0
H612 H 0.13147 0.7961 0.05783 0.0
H613 H 0.04855 0.81705 0.13151 0.0
H614 H 0.08865 0.81381 0.18134 0.0
H615 H 0.1477 0.79736 0.20445 0.0
H616 H 0.22906 0.76841 0.1298 0.0
H617 H 0.18923 0.78084 0.08005 0.0
C618 C 0.12216 0.80019 0.08479 0.0
C619 C 0.08715 0.80613 0.09093 0.0
C620 C 0.14517 0.79564 0.11329 0.0
C621 C 0.07537 0.81245 0.12589 0.0
C622 C 0.09832 0.81 0.1545 0.0
C623 C 0.15651 0.79364 0.17726 0.0
C624 C 0.19109 0.78151 0.17072 0.0
C625 C 0.13328 0.80018 0.14861 0.0
C626 C 0.20244 0.77714 0.13548 0.0
C627 C 0.17976 0.78456 0.10699 0.0
H628 H 0.37194 0.96535 0.89378 0.0
H629 H 0.39321 0.90183 0.98883 0.0
H630 H 0.37691 0.85351 0.95801 0.0
H631 H 0.35501 0.83017 0.90449 0.0
H632 H 0.33082 0.8947 0.81025 0.0
H633 H 0.34966 0.94203 0.84019 0.0
C634 C 0.37353 0.94069 0.9074 0.0
C635 C 0.38416 0.93676 0.94326 0.0
C636 C 0.3632 0.91352 0.8898 0.0
C637 C 0.38528 0.90512 0.96112 0.0
C638 C 0.37586 0.87767 0.94357 0.0
C639 C 0.35385 0.85463 0.89057 0.0
C640 C 0.34157 0.85906 0.8553 0.0
C641 C 0.36445 0.8817 0.90803 0.0
C642 C 0.34008 0.89081 0.8375 0.0
C643 C 0.35096 0.9178 0.85454 0.0
H644 H 0.10327 0.33936 0.92891 0.0
H645 H 0.16757 0.39712 0.98339 0.0
H646 H 0.21008 0.38389 0.93668 0.0
H647 H 0.23143 0.35052 0.8837 0.0
H648 H 0.1673 0.29059 0.8316 0.0
H649 H 0.12254 0.30977 0.87415 0.0
C650 C 0.12654 0.34916 0.9305 0.0
C651 C 0.13241 0.36876 0.95985 0.0
C652 C 0.15112 0.34071 0.90414 0.0
C653 C 0.16233 0.38204 0.96106 0.0
C654 C 0.18679 0.37421 0.9345 0.0
C655 C 0.2075 0.34205 0.88137 0.0
C656 C 0.20296 0.3188 0.8547 0.0
C657 C 0.18184 0.35278 0.90639 0.0
C658 C 0.17174 0.3081 0.8521 0.0
C659 C 0.14603 0.31909 0.87641 0.0
H660 H 0.77004 0.1161 0.95854 0.0
H661 H 0.72041 0.07238 0.87382 0.0
H662 H 0.73138 0.11684 0.83223 0.0
H663 H 0.75376 0.16892 0.82027 0.0
H664 H 0.80541 0.21177 0.90406 0.0
H665 H 0.79503 0.16686 0.94576 0.0
C666 C 0.76215 0.11606 0.93087 0.0
C667 C 0.74415 0.09129 0.91935 0.0
C668 C 0.76855 0.14172 0.90707 0.0
C669 C 0.73377 0.09162 0.88345 0.0
C670 C 0.74007 0.11696 0.85964 0.0
C671 C 0.76245 0.16857 0.84775 0.0
C672 C 0.77987 0.19372 0.85928 0.0
C673 C 0.75697 0.14242 0.8713 0.0
C674 C 0.79174 0.19264 0.89469 0.0
C675 C 0.78591 0.16697 0.9185 0.0
H676 H 0.96434 0.72633 0.86152 0.0
H677 H 0.92163 0.74129 0.96661 0.0
H678 H 0.86455 0.75044 0.94108 0.0
H679 H 0.82705 0.74978 0.88928 0.0
H680 H 0.86997 0.73305 0.78446 0.0
H681 H 0.92692 0.72857 0.80949 0.0
C682 C 0.94253 0.73157 0.8788 0.0
C683 C 0.94717 0.73275 0.91587 0.0
C684 C 0.90993 0.7361 0.86403 0.0
C685 C 0.91871 0.74044 0.93795 0.0
C686 C 0.88609 0.74536 0.92341 0.0
C687 C 0.84893 0.74514 0.87201 0.0
C688 C 0.84462 0.74137 0.83526 0.0
C689 C 0.88146 0.7425 0.88659 0.0
C690 C 0.87291 0.73593 0.81291 0.0
C691 C 0.90538 0.73334 0.82718 0.0
H692 H 0.15477 0.31189 0.10614 0.0
H693 H 0.10434 0.2654 0.18949 0.0
H694 H 0.15246 0.26502 0.2299 0.0
H695 H 0.20842 0.28069 0.24262 0.0
H696 H 0.25636 0.32978 0.15914 0.0
H697 H 0.21004 0.32652 0.1183 0.0
C698 C 0.15446 0.30114 0.13294 0.0
C699 C 0.12591 0.28843 0.14448 0.0
C700 C 0.18183 0.3019 0.15642 0.0
C701 C 0.12594 0.27523 0.17968 0.0
C702 C 0.15346 0.27515 0.20294 0.0
C703 C 0.20869 0.29056 0.21552 0.0
C704 C 0.23599 0.30553 0.20418 0.0
C705 C 0.18143 0.28892 0.19184 0.0
C706 C 0.23576 0.31825 0.16883 0.0
C707 C 0.20923 0.31633 0.14526 0.0
H708 H 0.14341 0.77215 0.95369 0.0
H709 H 0.14342 0.66419 0.94381 0.0
H710 H 0.19249 0.65837 0.90387 0.0
H711 H 0.23217 0.68589 0.86733 0.0
H712 H 0.23105 0.79421 0.87997 0.0
H713 H 0.18592 0.79783 0.92306 0.0
C714 C 0.15453 0.74717 0.94329 0.0
C715 C 0.1398 0.71867 0.95159 0.0
C716 C 0.1824 0.74419 0.92039 0.0
C717 C 0.15453 0.68645 0.93809 0.0
C718 C 0.18236 0.68326 0.91496 0.0
C719 C 0.22227 0.71017 0.87978 0.0
C720 C 0.23507 0.73977 0.86991 0.0
C721 C 0.19603 0.7122 0.90517 0.0
C722 C 0.22196 0.77093 0.88671 0.0
C723 C 0.19595 0.77315 0.91146 0.0
H724 H 0.30771 0.08467 0.90523 0.0
H725 H 0.30274 0.13906 1.00426 0.0
H726 H 0.29408 0.19381 0.97123 0.0
H727 H 0.29305 0.22607 0.9143 0.0
H728 H 0.29875 0.17208 0.81519 0.0
H729 H 0.30181 0.11749 0.84812 0.0
C730 C 0.30419 0.10849 0.91969 0.0
C731 C 0.30613 0.10751 0.95735 0.0
C732 C 0.29973 0.14003 0.90044 0.0
C733 C 0.30147 0.13882 0.97541 0.0
C734 C 0.29667 0.17023 0.95649 0.0
C735 C 0.29466 0.20238 0.89988 0.0
C736 C 0.29609 0.20308 0.86234 0.0
C737 C 0.29661 0.1711 0.91903 0.0
C738 C 0.29784 0.17222 0.84406 0.0
C739 C 0.29964 0.14099 0.86292 0.0
H740 H 0.95013 0.27369 0.01893 0.0
H741 H 0.03536 0.28202 0.95258 0.0
H742 H 1.00036 0.28137 0.89896 0.0
H743 H 0.94432 0.2807 0.87065 0.0
H744 H 0.85872 0.27699 0.93826 0.0
H745 H 0.89476 0.27369 0.99117 0.0
C746 C 0.96124 0.27481 0.99274 0.0
C747 C 0.99554 0.2774 0.9899 0.0
C748 C 0.94063 0.27567 0.96203 0.0
C749 C 1.00915 0.27973 0.95563 0.0
C750 C 0.98906 0.2795 0.92491 0.0
C751 C 0.93365 0.27912 0.89699 0.0
C752 C 0.89876 0.27912 0.90037 0.0
C753 C 0.95459 0.27789 0.92771 0.0
C754 C 0.88536 0.27723 0.93476 0.0
C755 C 0.90602 0.27522 0.96514 0.0
H756 H 0.79854 0.90987 0.9568 0.0
H757 H 0.69038 0.92738 0.97037 0.0
H758 H 0.68593 0.88752 0.92171 0.0
H759 H 0.71318 0.85162 0.8713 0.0
H760 H 0.82154 0.83897 0.85829 0.0
H761 H 0.82529 0.87333 0.91019 0.0
C762 C 0.7739 0.90475 0.94949 0.0
C763 C 0.74482 0.92172 0.96713 0.0
C764 C 0.77154 0.8831 0.92093 0.0
C765 C 0.71322 0.91443 0.95749 0.0
C766 C 0.71069 0.89197 0.92934 0.0
C767 C 0.73755 0.85641 0.87991 0.0
C768 C 0.76694 0.84308 0.86024 0.0
C769 C 0.73967 0.87683 0.91014 0.0
C770 C 0.79834 0.84934 0.87212 0.0
C771 C 0.80065 0.86885 0.90211 0.0
H772 H 0.94689 0.66899 0.06945 0.0
H773 H 1.02586 0.71283 0.11759 0.0
H774 H 0.99149 0.72596 0.17096 0.0
H775 H 0.93665 0.73 0.2017 0.0
H776 H 0.858 0.6859 0.15301 0.0
H777 H 0.89456 0.66792 0.10252 0.0
C778 C 0.9569 0.68088 0.09184 0.0
C779 C 0.98899 0.68996 0.08925 0.0
C780 C 0.9368 0.68875 0.12236 0.0
C781 C 1.00143 0.70529 0.11872 0.0
C782 C 0.9816 0.71311 0.14923 0.0
C783 C 0.92758 0.71613 0.18026 0.0
C784 C 0.89429 0.7097 0.18126 0.0
C785 C 0.94887 0.70576 0.151 0.0
C786 C 0.88331 0.6914 0.15319 0.0
C787 C 0.90424 0.68112 0.12411 0.0
H788 H 0.28532 0.9367 0.07643 0.0
H789 H 0.35207 0.98785 0.13627 0.0
H790 H 0.35289 0.94671 0.18575 0.0
H791 H 0.33531 0.89517 0.21213 0.0
H792 H 0.26793 0.84506 0.15184 0.0
H793 H 0.26698 0.88642 0.10294 0.0
C794 C 0.29986 0.93907 0.10036 0.0
C795 C 0.31857 0.96548 0.10238 0.0
C796 C 0.30039 0.91518 0.12882 0.0
C797 C 0.33734 0.96789 0.13376 0.0
C798 C 0.33795 0.94423 0.16216 0.0
C799 C 0.32061 0.89322 0.18822 0.0
C800 C 0.30184 0.86684 0.18587 0.0
C801 C 0.31979 0.91753 0.15994 0.0
C802 C 0.28261 0.86503 0.15468 0.0
C803 C 0.28199 0.88875 0.12652 0.0
H804 H 0.69302 0.13321 0.07416 0.0
H805 H 0.73701 0.0437 0.138 0.0
H806 H 0.75376 0.08083 0.18351 0.0
H807 H 0.75909 0.13923 0.20344 0.0
H808 H 0.71611 0.2276 0.13747 0.0
H809 H 0.69632 0.19047 0.09454 0.0
C810 C 0.70588 0.12166 0.09821 0.0
C811 C 0.71359 0.08554 0.10248 0.0
C812 C 0.71618 0.14309 0.12377 0.0
C813 C 0.73036 0.07133 0.13398 0.0
C814 C 0.74028 0.09261 0.15991 0.0
C815 C 0.74538 0.15027 0.17966 0.0
C816 C 0.73931 0.18623 0.17361 0.0
C817 C 0.73392 0.12857 0.1548 0.0
C818 C 0.72131 0.20011 0.14277 0.0
C819 C 0.70987 0.17886 0.11818 0.0
H820 H 0.58973 0.62841 0.81834 0.0
H821 H 0.64398 0.59596 0.91659 0.0
H822 H 0.67802 0.64008 0.90779 0.0
H823 H 0.69532 0.68485 0.86988 0.0
H824 H 0.64236 0.71612 0.7707 0.0
H825 H 0.60489 0.67537 0.78204 0.0
C826 C 0.60906 0.63089 0.83779 0.0
C827 C 0.61453 0.60854 0.86789 0.0
C828 C 0.62883 0.65603 0.8323 0.0
C829 C 0.6391 0.61281 0.89329 0.0
C830 C 0.65874 0.63792 0.88815 0.0
C831 C 0.67532 0.683 0.85095 0.0
C832 C 0.67165 0.70329 0.81941 0.0
C833 C 0.65422 0.65925 0.85745 0.0
C834 C 0.64565 0.70072 0.79514 0.0
C835 C 0.62433 0.67736 0.80157 0.0
H836 H 0.42784 0.55721 0.78365 0.0
H837 H 0.51079 0.60699 0.75704 0.0
H838 H 0.47353 0.66337 0.76094 0.0
H839 H 0.4194 0.69832 0.77854 0.0
H840 H 0.33688 0.64943 0.80913 0.0
H841 H 0.3718 0.59284 0.79724 0.0
C842 C 0.43736 0.58044 0.77761 0.0
C843 C 0.47184 0.5781 0.76961 0.0
C844 C 0.41609 0.61283 0.78155 0.0
C845 C 0.48423 0.60829 0.76284 0.0
C846 C 0.46304 0.64048 0.76544 0.0
C847 C 0.40902 0.67527 0.78255 0.0
C848 C 0.37582 0.67791 0.79514 0.0
C849 C 0.42929 0.64304 0.77598 0.0
C850 C 0.36252 0.64793 0.79974 0.0
C851 C 0.38244 0.61564 0.79285 0.0
H852 H 0.48512 0.38448 0.87628 0.0
H853 H 0.42394 0.48095 0.84026 0.0
H854 H 0.37723 0.45201 0.82639 0.0
H855 H 0.35448 0.39851 0.82231 0.0
H856 H 0.41658 0.30237 0.85809 0.0
H857 H 0.46193 0.33194 0.87456 0.0
C858 C 0.46141 0.39934 0.86602 0.0
C859 C 0.45816 0.43488 0.85932 0.0
C860 C 0.43478 0.38249 0.85783 0.0
C861 C 0.42731 0.45352 0.84534 0.0
C862 C 0.40054 0.43698 0.83745 0.0
C863 C 0.3779 0.38416 0.83387 0.0
C864 C 0.38221 0.3483 0.83885 0.0
C865 C 0.40411 0.40136 0.84315 0.0
C866 C 0.41266 0.32998 0.85387 0.0
C867 C 0.43864 0.34687 0.86333 0.0
H868 H 0.61302 0.38191 0.79395 0.0
H869 H 0.65185 0.47597 0.79068 0.0
H870 H 0.70976 0.44289 0.79087 0.0
H871 H 0.74967 0.38711 0.79675 0.0
H872 H 0.71056 0.29335 0.80017 0.0
H873 H 0.65271 0.32634 0.79506 0.0
C874 C 0.63409 0.39524 0.79278 0.0
C875 C 0.62791 0.43146 0.79259 0.0
C876 C 0.66743 0.37605 0.79333 0.0
C877 C 0.65569 0.44816 0.79092 0.0
C878 C 0.68892 0.42924 0.79123 0.0
C879 C 0.72843 0.37398 0.79622 0.0
C880 C 0.73434 0.33788 0.79914 0.0
C881 C 0.69512 0.39318 0.79328 0.0
C882 C 0.70667 0.32112 0.798 0.0
C883 C 0.67356 0.33999 0.79514 0.0
H884 H 0.66446 0.47347 0.24161 0.0
H885 H 0.57584 0.43609 0.27513 0.0
H886 H 0.61051 0.37882 0.28719 0.0
H887 H 0.66492 0.33784 0.27972 0.0
H888 H 0.7535 0.37654 0.24786 0.0
H889 H 0.72014 0.43493 0.24388 0.0
C890 C 0.653 0.45297 0.25259 0.0
C891 C 0.61783 0.4587 0.25745 0.0
C892 C 0.673 0.42029 0.2591 0.0
C893 C 0.60301 0.43219 0.27162 0.0
C894 C 0.62276 0.3994 0.27804 0.0
C895 C 0.67689 0.35921 0.2724 0.0
C896 C 0.71136 0.35295 0.26336 0.0
C897 C 0.65757 0.39285 0.27053 0.0
C898 C 0.72688 0.38076 0.25458 0.0
C899 C 0.70783 0.41413 0.25226 0.0
H900 H 0.62119 0.65099 0.15656 0.0
H901 H 0.66234 0.56744 0.22934 0.0
H902 H 0.71078 0.59406 0.2418 0.0
H903 H 0.74032 0.64249 0.23417 0.0
H904 H 0.6988 0.72656 0.1622 0.0
H905 H 0.6521 0.69814 0.14679 0.0
C906 C 0.64097 0.63839 0.17475 0.0
C907 C 0.63789 0.60738 0.19219 0.0
C908 C 0.66877 0.65397 0.18195 0.0
C909 C 0.66368 0.5916 0.21602 0.0
C910 C 0.69154 0.60672 0.22303 0.0
C911 C 0.72124 0.65436 0.21481 0.0
C912 C 0.72297 0.68654 0.19933 0.0
C913 C 0.69415 0.63812 0.20651 0.0
C914 C 0.698 0.70176 0.17447 0.0
C915 C 0.67123 0.68557 0.16572 0.0
H916 H 0.48295 0.67053 0.24254 0.0
H917 H 0.44189 0.58044 0.26876 0.0
H918 H 0.38529 0.61607 0.27304 0.0
H919 H 0.34678 0.67228 0.26514 0.0
H920 H 0.38777 0.76182 0.23713 0.0
H921 H 0.44505 0.727 0.23792 0.0
C922 C 0.46174 0.65866 0.24965 0.0
C923 C 0.46675 0.62276 0.2551 0.0
C924 C 0.42915 0.67921 0.25146 0.0
C925 C 0.43886 0.60796 0.26433 0.0
C926 C 0.40641 0.62831 0.26662 0.0
C927 C 0.36832 0.68412 0.25934 0.0
C928 C 0.36313 0.71954 0.25114 0.0
C929 C 0.40115 0.66384 0.25948 0.0
C930 C 0.39118 0.73466 0.24386 0.0
C931 C 0.42392 0.71473 0.24415 0.0
H932 H 0.47732 0.44053 0.24777 0.0
H933 H 0.45826 0.43683 0.13469 0.0
H934 H 0.42262 0.39439 0.14555 0.0
H935 H 0.39457 0.36028 0.18766 0.0
H936 H 0.41192 0.36675 0.30072 0.0
H937 H 0.45031 0.40637 0.28939 0.0
C938 C 0.46515 0.43086 0.22541 0.0
C939 C 0.47031 0.44233 0.19042 0.0
C940 C 0.44433 0.40686 0.2319 0.0
C941 C 0.45495 0.42847 0.16186 0.0
C942 C 0.43441 0.40428 0.16808 0.0
C943 C 0.40705 0.37015 0.20974 0.0
C944 C 0.40048 0.36062 0.24498 0.0
C945 C 0.42867 0.39349 0.20303 0.0
C946 C 0.41658 0.37374 0.27337 0.0
C947 C 0.43847 0.39644 0.26691 0.0
H948 H 0.81593 0.57178 0.65678 0.0
H949 H 0.85501 0.62543 0.57039 0.0
H950 H 0.84569 0.67825 0.60516 0.0
H951 H 0.82346 0.71001 0.65961 0.0
H952 H 0.7798 0.65582 0.74252 0.0
H953 H 0.79373 0.60274 0.70971 0.0
C954 C 0.82304 0.59482 0.6457 0.0
C955 C 0.8367 0.59442 0.6112 0.0
C956 C 0.8163 0.6253 0.66518 0.0
C957 C 0.8448 0.6249 0.59702 0.0
C958 C 0.83929 0.65516 0.61685 0.0
C959 C 0.81715 0.68652 0.67045 0.0
C960 C 0.80046 0.68707 0.70351 0.0
C961 C 0.82457 0.65584 0.65085 0.0
C962 C 0.79227 0.65639 0.71704 0.0
C963 C 0.80039 0.62586 0.69835 0.0
H964 H 0.46208 0.71326 0.61212 0.0
H965 H 0.47251 0.81812 0.62629 0.0
H966 H 0.42434 0.8272 0.66709 0.0
H967 H 0.3805 0.80424 0.70102 0.0
H968 H 0.36901 0.69978 0.6837 0.0
H969 H 0.4158 0.69179 0.64209 0.0
C970 C 0.45364 0.73809 0.62407 0.0
C971 C 0.4709 0.7649 0.61632 0.0
C972 C 0.42561 0.74324 0.64706 0.0
C973 C 0.45948 0.79714 0.63164 0.0
C974 C 0.43204 0.80228 0.65512 0.0
C975 C 0.38802 0.77987 0.68785 0.0
C976 C 0.37102 0.75274 0.69566 0.0
C977 C 0.41502 0.7754 0.66333 0.0
C978 C 0.38121 0.72134 0.67817 0.0
C979 C 0.40824 0.71658 0.6544 0.0
H980 H 0.19371 0.45314 0.66047 0.0
H981 H 0.28945 0.42907 0.60633 0.0
H982 H 0.30757 0.37937 0.64589 0.0
H983 H 0.29485 0.33987 0.69348 0.0
H984 H 0.1985 0.3624 0.74599 0.0
H985 H 0.18245 0.41579 0.71058 0.0
C986 C 0.21866 0.43726 0.65758 0.0
C987 C 0.23982 0.44476 0.62991 0.0
C988 C 0.22905 0.40847 0.68056 0.0
C989 C 0.27211 0.42364 0.6266 0.0
C990 C 0.28272 0.39526 0.64954 0.0
C991 C 0.27082 0.35711 0.69781 0.0
C992 C 0.24815 0.34783 0.72277 0.0
C993 C 0.26127 0.3871 0.67632 0.0
C994 C 0.21657 0.36957 0.72738 0.0
C995 C 0.20727 0.39987 0.70687 0.0
H996 H 0.6512 0.20272 0.57975 0.0
H997 H 0.57854 0.29148 0.61154 0.0
H998 H 0.61874 0.30386 0.65695 0.0
H999 H 0.674 0.28674 0.69005 0.0
H1000 H 0.74604 0.19861 0.65489 0.0
H1001 H 0.70664 0.18856 0.60865 0.0
C1002 C 0.64421 0.22503 0.59638 0.0
C1003 C 0.61186 0.24605 0.59243 0.0
C1004 C 0.66731 0.23181 0.62216 0.0
C1005 C 0.60336 0.27504 0.61389 0.0
C1006 C 0.62627 0.28189 0.64005 0.0
C1007 C 0.68097 0.26542 0.67216 0.0
C1008 C 0.71285 0.24319 0.67621 0.0
C1009 C 0.65817 0.26004 0.6449 0.0
C1010 C 0.72171 0.21598 0.65254 0.0
C1011 C 0.69918 0.2102 0.62601 0.0
H1012 H 0.81366 0.48205 0.43788 0.0
H1013 H 0.8815 0.40758 0.50308 0.0
H1014 H 0.87733 0.36289 0.46012 0.0
H1015 H 0.85156 0.34413 0.40551 0.0
H1016 H 0.78259 0.41896 0.34195 0.0
H1017 H 0.78994 0.46413 0.38283 0.0
C1018 C 0.82791 0.45616 0.44264 0.0
C1019 C 0.84786 0.44834 0.47389 0.0
C1020 C 0.82487 0.43045 0.4182 0.0
C1021 C 0.86601 0.4145 0.47935 0.0
C1022 C 0.86348 0.38883 0.45483 0.0
C1023 C 0.83828 0.37037 0.40059 0.0
C1024 C 0.81642 0.37813 0.37078 0.0
C1025 C 0.84251 0.39635 0.42445 0.0
C1026 C 0.79945 0.41225 0.36472 0.0
C1027 C 0.80367 0.43813 0.38809 0.0
H1028 H 0.64765 0.8057 0.41572 0.0
H1029 H 0.71155 0.71866 0.46813 0.0
H1030 H 0.75732 0.72282 0.42682 0.0
H1031 H 0.77789 0.74822 0.37283 0.0
H1032 H 0.71279 0.83158 0.31658 0.0
H1033 H 0.66924 0.83258 0.36245 0.0
C1034 C 0.67176 0.78799 0.41834 0.0
C1035 C 0.67605 0.76184 0.44504 0.0
C1036 C 0.69788 0.79005 0.39379 0.0
C1037 C 0.70736 0.73876 0.44769 0.0
C1038 C 0.73365 0.74122 0.42412 0.0
C1039 C 0.75451 0.76721 0.37124 0.0
C1040 C 0.74885 0.79049 0.34201 0.0
C1041 C 0.72906 0.76639 0.39674 0.0
C1042 C 0.71801 0.81411 0.33942 0.0
C1043 C 0.69299 0.81435 0.36542 0.0
H1044 H 0.28003 0.63852 0.45135 0.0
H1045 H 0.17457 0.65359 0.42137 0.0
H1046 H 0.18286 0.69583 0.37547 0.0
H1047 H 0.22023 0.72784 0.34309 0.0
H1048 H 0.32536 0.71466 0.37437 0.0
H1049 H 0.31709 0.67251 0.4204 0.0
C1050 C 0.25894 0.65098 0.43463 0.0
C1051 C 0.22673 0.64273 0.43968 0.0
C1052 C 0.26383 0.67565 0.40853 0.0
C1053 C 0.19951 0.65958 0.41822 0.0
C1054 C 0.20429 0.68365 0.39187 0.0
C1055 C 0.24138 0.71581 0.35998 0.0
C1056 C 0.27345 0.7244 0.35505 0.0
C1057 C 0.23635 0.69182 0.38669 0.0
C1058 C 0.30039 0.70872 0.37754 0.0
C1059 C 0.2957 0.68447 0.40383 0.0
H1060 H 0.43472 0.2765 0.46782 0.0
H1061 H 0.50232 0.23042 0.38592 0.0
H1062 H 0.45613 0.24122 0.34211 0.0
H1063 H 0.39479 0.25702 0.32866 0.0
H1064 H 0.32656 0.29962 0.41165 0.0
H1065 H 0.37414 0.29732 0.45287 0.0
C1066 C 0.43946 0.26984 0.44015 0.0
C1067 C 0.47197 0.25289 0.43012 0.0
C1068 C 0.41233 0.27495 0.41523 0.0
C1069 C 0.47754 0.24364 0.39429 0.0
C1070 C 0.45105 0.2496 0.36922 0.0
C1071 C 0.39047 0.26633 0.35557 0.0
C1072 C 0.35713 0.27811 0.36713 0.0
C1073 C 0.41805 0.26417 0.37959 0.0
C1074 C 0.35196 0.29005 0.40215 0.0
C1075 C 0.3792 0.28875 0.42582 0.0
H1076 H 0.59094 0.82209 0.66459 0.0
H1077 H 0.64061 0.84819 0.5689 0.0
H1078 H 0.6929 0.84604 0.60253 0.0
H1079 H 0.72631 0.82928 0.65675 0.0
H1080 H 0.67769 0.80406 0.75311 0.0
H1081 H 0.62304 0.81308 0.72144 0.0
C1082 C 0.61296 0.82806 0.65121 0.0
C1083 C 0.61196 0.83466 0.61408 0.0
C1084 C 0.64327 0.82615 0.67062 0.0
C1085 C 0.64069 0.84267 0.59732 0.0
C1086 C 0.67072 0.84123 0.61649 0.0
C1087 C 0.7037 0.82604 0.67096 0.0
C1088 C 0.70607 0.81496 0.70688 0.0
C1089 C 0.6726 0.83168 0.65275 0.0
C1090 C 0.67653 0.81168 0.72519 0.0
C1091 C 0.64533 0.81702 0.70712 0.0
H1092 H 0.65152 0.23821 0.45878 0.0
H1093 H 0.63802 0.14964 0.39982 0.0
H1094 H 0.67859 0.16185 0.35521 0.0
H1095 H 0.71502 0.19997 0.33128 0.0
H1096 H 0.72734 0.28913 0.39055 0.0
H1097 H 0.68983 0.27452 0.43661 0.0
C1098 C 0.65741 0.22163 0.43612 0.0
C1099 C 0.64151 0.19332 0.43233 0.0
C1100 C 0.68035 0.22904 0.41055 0.0
C1101 C 0.65003 0.17151 0.40336 0.0
C1102 C 0.67302 0.17864 0.37776 0.0
C1103 C 0.70964 0.21617 0.35432 0.0
C1104 C 0.72384 0.2458 0.35719 0.0
C1105 C 0.68791 0.20769 0.3808 0.0
C1106 C 0.71675 0.26626 0.38745 0.0
C1107 C 0.69524 0.25796 0.41386 0.0
H1108 H 0.82735 0.60202 0.42395 0.0
H1109 H 0.72158 0.64897 0.41271 0.0
H1110 H 0.73464 0.68237 0.36076 0.0
H1111 H 0.77667 0.70054 0.32123 0.0
H1112 H 0.88268 0.65567 0.33524 0.0
H1113 H 0.8687 0.61768 0.3827 0.0
C1114 C 0.80691 0.61887 0.40978 0.0
C1115 C 0.7734 0.62274 0.42218 0.0
C1116 C 0.81468 0.63813 0.38033 0.0
C1117 C 0.74754 0.64561 0.40387 0.0
C1118 C 0.755 0.66455 0.37408 0.0
C1119 C 0.7967 0.68212 0.33432 0.0
C1120 C 0.83074 0.68105 0.32497 0.0
C1121 C 0.78856 0.66136 0.36244 0.0
C1122 C 0.85635 0.657 0.34207 0.0
C1123 C 0.84836 0.63548 0.36933 0.0
H1124 H 0.52033 0.77792 0.40304 0.0
H1125 H 0.46948 0.85006 0.47893 0.0
H1126 H 0.41864 0.8615 0.44072 0.0
H1127 H 0.38703 0.84613 0.38837 0.0
H1128 H 0.4393 0.7737 0.31329 0.0
H1129 H 0.49123 0.76718 0.34855 0.0
C1130 C 0.49827 0.79652 0.41099 0.0
C1131 C 0.49842 0.81287 0.44381 0.0
C1132 C 0.46929 0.80257 0.38921 0.0
C1133 C 0.46991 0.83724 0.45366 0.0
C1134 C 0.44079 0.84353 0.43197 0.0
C1135 C 0.40994 0.82924 0.37966 0.0
C1136 C 0.40932 0.81011 0.34857 0.0
C1137 C 0.43989 0.8256 0.40014 0.0
C1138 C 0.43913 0.78853 0.33727 0.0
C1139 C 0.46884 0.78476 0.3574 0.0
H1140 H 0.2411 0.44347 0.45288 0.0
H1141 H 0.31403 0.49085 0.39656 0.0
H1142 H 0.31339 0.45188 0.3473 0.0
H1143 H 0.29499 0.40276 0.32183 0.0
H1144 H 0.22474 0.35229 0.37863 0.0
H1145 H 0.22049 0.39505 0.42552 0.0
C1146 C 0.25683 0.44531 0.42981 0.0
C1147 C 0.27787 0.46992 0.42864 0.0
C1148 C 0.25649 0.42261 0.40149 0.0
C1149 C 0.29786 0.47204 0.3984 0.0
C1150 C 0.29739 0.44986 0.3701 0.0
C1151 C 0.27836 0.40115 0.34421 0.0
C1152 C 0.26039 0.37407 0.34674 0.0
C1153 C 0.27712 0.42486 0.37157 0.0
C1154 C 0.23875 0.37288 0.37583 0.0
C1155 C 0.23663 0.39711 0.40287 0.0
H1156 H 0.42633 0.17388 0.6163 0.0
H1157 H 0.48667 0.24752 0.64701 0.0
H1158 H 0.44769 0.26668 0.69521 0.0
H1159 H 0.39499 0.26439 0.72723 0.0
H1160 H 0.33566 0.18954 0.69716 0.0
H1161 H 0.37609 0.16873 0.65081 0.0
C1162 C 0.43138 0.19372 0.63379 0.0
C1163 C 0.45931 0.20946 0.62744 0.0
C1164 C 0.40893 0.20455 0.66173 0.0
C1165 C 0.46505 0.23537 0.65052 0.0
C1166 C 0.44283 0.24628 0.67834 0.0
C1167 C 0.39097 0.24339 0.71071 0.0
C1168 C 0.36207 0.22884 0.71566 0.0
C1169 C 0.41438 0.23142 0.68388 0.0
C1170 C 0.35752 0.20145 0.69403 0.0
C1171 C 0.38065 0.18948 0.66737 0.0
H1172 H 0.8043 0.46592 0.67113 0.0
H1173 H 0.7677 0.41537 0.58282 0.0
H1174 H 0.78312 0.35975 0.61452 0.0
H1175 H 0.80426 0.32634 0.66848 0.0
H1176 H 0.84233 0.37628 0.75669 0.0
H1177 H 0.83019 0.43122 0.72355 0.0
C1178 C 0.79955 0.44266 0.65913 0.0
C1179 C 0.7842 0.44455 0.62515 0.0
C1180 C 0.80928 0.41076 0.6772 0.0
C1181 C 0.77906 0.4143 0.60917 0.0
C1182 C 0.78802 0.38263 0.6272 0.0
C1183 C 0.81049 0.34913 0.68024 0.0
C1184 C 0.82412 0.34722 0.71505 0.0
C1185 C 0.80291 0.38061 0.66131 0.0
C1186 C 0.8322 0.37692 0.72981 0.0
C1187 C 0.82481 0.40846 0.71105 0.0
H1188 H 0.2662 0.56179 0.60382 0.0
H1189 H 0.35952 0.58832 0.5679 0.0
H1190 H 0.3634 0.61979 0.62301 0.0
H1191 H 0.33732 0.64398 0.67828 0.0
H1192 H 0.23976 0.62448 0.70948 0.0
H1193 H 0.24036 0.58554 0.65933 0.0
C1194 C 0.28777 0.57382 0.60848 0.0
C1195 C 0.31294 0.57234 0.58232 0.0
C1196 C 0.28875 0.59328 0.63913 0.0
C1197 C 0.34018 0.58889 0.58798 0.0
C1198 C 0.34225 0.60694 0.61932 0.0
C1199 C 0.31643 0.63075 0.67439 0.0
C1200 C 0.28859 0.63673 0.69752 0.0
C1201 C 0.31628 0.60992 0.64465 0.0
C1202 C 0.26141 0.62007 0.69196 0.0
C1203 C 0.26177 0.59795 0.66332 0.0
loop_
_geom_bond_atom_site_label_1
_geom_bond_atom_site_label_2
_geom_bond_distance
_geom_bond_site_symmetry_2
_ccdc_geom_bond_type
Cu0 N1 1.999 1_565 S
Cu0 O6 1.974 . S
Cu0 N11 1.985 1_455 S
Cu0 O20 1.959 1_465 S
N1 Cu0 1.999 1_545 S
N1 C3 1.263 . S
N1 C5 1.389 . S
N2 C3 1.358 . S
N2 C4 1.400 . S
C3 N1 1.263 . S
C3 N2 1.358 . S
C3 H9 0.930 . S
C4 N2 1.400 . S
C4 C5 1.351 . S
C4 H21 0.930 . S
C5 N1 1.389 . S
C5 C4 1.351 . S
C5 H10 0.930 . S
O6 Cu0 1.974 . S
O6 C16 1.282 . S
C7 O8 1.261 . S
C7 O20 1.251 . S
O8 C7 1.261 . S
H9 C3 0.930 . S
H10 C5 0.930 . S
N11 Cu0 1.985 1_655 S
N11 C13 1.335 . S
N11 C14 1.390 1_655 S
N12 C13 1.345 . S
N12 C15 1.336 . S
C13 N11 1.335 . S
C13 N12 1.345 . S
C13 H18 0.930 . S
C14 N11 1.390 1_455 S
C14 C15 1.346 1_455 S
C14 H19 0.930 . S
C15 N12 1.336 . S
C15 C14 1.346 1_655 S
C15 H22 0.929 . S
C16 O6 1.282 . S
C16 O17 1.216 . S
O17 C16 1.216 . S
H18 C13 0.930 . S
H19 C14 0.930 . S
O20 Cu0 1.959 1_645 S
O20 C7 1.251 . S
H21 C4 0.930 . S
H22 C15 0.929 . S
Cu23 N24 1.999 1_445 S
Cu23 O29 1.974 1_455 S
Cu23 N34 1.985 . S
Cu23 O43 1.959 1_545 S
N24 Cu23 1.999 1_665 S
N24 C26 1.263 . S
N24 C28 1.389 . S
N25 C26 1.358 . S
N25 C27 1.400 . S
C26 N24 1.263 . S
C26 N25 1.358 . S
C26 H32 0.930 1_565 S
C27 N25 1.400 . S
C27 C28 1.351 . S
C27 H44 0.930 . S
C28 N24 1.389 . S
C28 C27 1.351 . S
C28 H33 0.930 . S
O29 Cu23 1.974 1_655 S
O29 C39 1.282 . S
C30 O31 1.261 . S
C30 O43 1.251 . S
O31 C30 1.261 . S
H32 C26 0.930 1_545 S
H33 C28 0.930 . S
N34 Cu23 1.985 . S
N34 C36 1.335 . S
N34 C37 1.390 . S
N35 C36 1.345 . S
N35 C38 1.336 . S
C36 N34 1.335 . S
C36 N35 1.345 . S
C36 H41 0.930 . S
C37 N34 1.390 . S
C37 C38 1.346 . S
C37 H42 0.937 . S
C38 N35 1.336 . S
C38 C37 1.346 . S
C38 H45 0.929 . S
C39 O29 1.282 . S
C39 O40 1.216 . S
O40 C39 1.216 . S
H41 C36 0.930 . S
H42 C37 0.937 . S
O43 Cu23 1.959 1_565 S
O43 C30 1.251 . S
H44 C27 0.930 . S
H45 C38 0.929 . S
Cu46 N47 1.999 1_545 S
Cu46 O52 1.974 1_545 S
Cu46 N57 1.985 . S
Cu46 O66 1.959 . S
N47 Cu46 1.999 1_565 S
N47 C49 1.263 . S
N47 C51 1.389 1_554 S
N48 C49 1.358 1_556 S
N48 C50 1.400 . S
C49 N47 1.263 . S
C49 N48 1.358 1_554 S
C49 H55 0.930 . S
C50 N48 1.400 . S
C50 C51 1.351 . S
C50 H67 0.930 . S
C51 N47 1.389 1_556 S
C51 C50 1.351 . S
C51 H56 0.930 . S
O52 Cu46 1.974 1_565 S
O52 C62 1.282 . S
C53 O54 1.259 1_556 S
C53 O66 1.247 1_556 S
O54 C53 1.259 1_554 S
H55 C49 0.930 . S
H56 C51 0.930 . S
N57 Cu46 1.985 . S
N57 C59 1.335 . S
N57 C60 1.390 . S
N58 C59 1.345 . S
N58 C61 1.336 . S
C59 N57 1.335 . S
C59 N58 1.345 . S
C59 H64 0.930 . S
C60 N57 1.390 . S
C60 C61 1.346 . S
C60 H65 0.930 . S
C61 N58 1.336 . S
C61 C60 1.346 . S
C61 H68 0.929 . S
C62 O52 1.282 . S
C62 O63 1.216 . S
O63 C62 1.216 . S
H64 C59 0.930 . S
H65 C60 0.930 . S
O66 Cu46 1.959 . S
O66 C53 1.247 1_554 S
H67 C50 0.930 . S
H68 C61 0.929 . S
Cu69 N70 1.999 1_554 S
Cu69 O75 1.974 . S
Cu69 N80 1.985 1_455 S
Cu69 O89 1.939 1_454 S
N70 Cu69 1.999 1_556 S
N70 C72 1.263 . S
N70 C74 1.389 . S
N71 C72 1.358 . S
N71 C73 1.400 . S
C72 N70 1.263 . S
C72 N71 1.358 . S
C72 H78 0.930 1_556 S
C73 N71 1.400 . S
C73 C74 1.351 . S
C73 H90 0.930 . S
C74 N70 1.389 . S
C74 C73 1.351 . S
C74 H79 0.930 . S
O75 Cu69 1.974 . S
O75 C85 1.282 . S
C76 O77 1.261 . S
C76 O89 1.261 . S
O77 C76 1.261 . S
H78 C72 0.930 1_554 S
H79 C74 0.930 . S
N80 Cu69 1.985 1_655 S
N80 C82 1.335 . S
N80 C83 1.390 . S
N81 C82 1.345 . S
N81 C84 1.336 . S
C82 N80 1.335 . S
C82 N81 1.345 . S
C82 H87 0.930 . S
C83 N80 1.390 . S
C83 C84 1.346 . S
C83 H88 0.930 1_655 S
C84 N81 1.336 . S
C84 C83 1.346 . S
C84 H91 0.929 . S
C85 O75 1.282 . S
C85 O86 1.216 . S
O86 C85 1.216 . S
H87 C82 0.930 . S
H88 C83 0.930 1_455 S
O89 Cu69 1.939 1_656 S
O89 C76 1.261 . S
H90 C73 0.930 . S
H91 C84 0.929 . S
Cu92 N93 1.999 1_554 S
Cu92 O98 1.974 . S
Cu92 N103 1.985 1_545 S
Cu92 O112 1.959 1_544 S
N93 Cu92 1.999 1_556 S
N93 C95 1.263 . S
N93 C97 1.389 . S
N94 C95 1.358 . S
N94 C96 1.400 . S
C95 N93 1.263 . S
C95 N94 1.358 . S
C95 H101 0.930 . S
C96 N94 1.400 . S
C96 C97 1.351 . S
C96 H113 0.930 . S
C97 N93 1.389 . S
C97 C96 1.351 . S
C97 H102 0.930 . S
O98 Cu92 1.974 . S
O98 C108 1.282 . S
C99 O100 1.261 . S
C99 O112 1.251 . S
O100 C99 1.261 . S
H101 C95 0.930 . S
H102 C97 0.930 . S
N103 Cu92 1.985 1_565 S
N103 C105 1.335 . S
N103 C106 1.390 . S
N104 C105 1.345 . S
N104 C107 1.336 . S
C105 N103 1.335 . S
C105 N104 1.345 . S
C105 H110 0.930 . S
C106 N103 1.390 . S
C106 C107 1.346 . S
C106 H111 0.930 1_565 S
C107 N104 1.336 . S
C107 C106 1.346 . S
C107 H114 0.929 . S
C108 O98 1.282 . S
C108 O109 1.216 . S
O109 C108 1.216 . S
H110 C105 0.930 . S
H111 C106 0.930 1_545 S
O112 Cu92 1.959 1_566 S
O112 C99 1.251 . S
H113 C96 0.930 . S
H114 C107 0.929 . S
Cu115 N116 1.999 1_454 S
Cu115 O121 1.974 1_455 S
Cu115 N126 1.985 . S
Cu115 O135 1.959 1_554 S
N116 Cu115 1.999 1_656 S
N116 C118 1.263 . S
N116 C120 1.389 . S
N117 C118 1.358 . S
N117 C119 1.400 . S
C118 N116 1.263 . S
C118 N117 1.358 . S
C118 H124 0.930 . S
C119 N117 1.400 . S
C119 C120 1.351 . S
C119 H136 0.930 . S
C120 N116 1.389 . S
C120 C119 1.351 . S
C120 H125 0.930 1_655 S
O121 Cu115 1.974 1_655 S
O121 C131 1.282 . S
C122 O123 1.261 . S
C122 O135 1.251 . S
O123 C122 1.261 . S
H124 C118 0.930 . S
H125 C120 0.930 1_455 S
N126 Cu115 1.985 . S
N126 C128 1.335 . S
N126 C129 1.390 . S
N127 C128 1.345 . S
N127 C130 1.336 . S
C128 N126 1.335 . S
C128 N127 1.345 . S
C128 H133 0.930 . S
C129 N126 1.390 . S
C129 C130 1.346 . S
C129 H134 0.930 . S
C130 N127 1.336 . S
C130 C129 1.346 . S
C130 H137 0.929 . S
C131 O121 1.282 . S
C131 O132 1.216 . S
O132 C131 1.216 . S
H133 C128 0.930 . S
H134 C129 0.930 . S
O135 Cu115 1.959 1_556 S
O135 C122 1.251 . S
H136 C119 0.930 . S
H137 C130 0.929 . S
Cu138 N139 1.999 . S
Cu138 O144 1.974 . S
Cu138 N149 1.985 . S
Cu138 O158 1.959 . S
N139 Cu138 1.999 . S
N139 C141 1.263 . S
N139 C143 1.389 . S
N140 C141 1.358 . S
N140 C142 1.400 . S
C141 N139 1.263 . S
C141 N140 1.358 . S
C141 H147 0.930 . S
C142 N140 1.400 . S
C142 C143 1.351 . S
C142 H159 0.930 . S
C143 N139 1.389 . S
C143 C142 1.351 . S
C143 H148 0.930 . S
O144 Cu138 1.974 . S
O144 C154 1.282 . S
C145 O146 1.261 . S
C145 O158 1.251 . S
O146 C145 1.261 . S
H147 C141 0.930 . S
H148 C143 0.930 . S
N149 Cu138 1.985 . S
N149 C151 1.335 . S
N149 C152 1.390 . S
N150 C151 1.345 . S
N150 C153 1.336 . S
C151 N149 1.335 . S
C151 N150 1.345 . S
C151 H156 0.930 . S
C152 N149 1.390 . S
C152 C153 1.346 . S
C152 H157 0.930 . S
C153 N150 1.336 . S
C153 C152 1.346 . S
C153 H160 0.929 . S
C154 O144 1.282 . S
C154 O155 1.216 . S
O155 C154 1.216 . S
H156 C151 0.930 . S
H157 C152 0.930 . S
O158 Cu138 1.959 . S
O158 C145 1.251 . S
H159 C142 0.930 . S
H160 C153 0.929 . S
Cu161 N162 1.999 . S
Cu161 O167 1.974 . S
Cu161 N172 1.985 . S
Cu161 O181 1.959 . S
N162 Cu161 1.999 . S
N162 C164 1.263 . S
N162 C166 1.389 . S
N163 C164 1.358 . S
N163 C165 1.400 . S
C164 N162 1.263 . S
C164 N163 1.358 . S
C164 H170 0.930 . S
C165 N163 1.400 . S
C165 C166 1.351 . S
C165 H182 0.930 . S
C166 N162 1.389 . S
C166 C165 1.351 . S
C166 H171 0.930 . S
O167 Cu161 1.974 . S
O167 C177 1.282 . S
C168 O169 1.261 . S
C168 O181 1.251 . S
O169 C168 1.261 . S
H170 C164 0.930 . S
H171 C166 0.930 . S
N172 Cu161 1.985 . S
N172 C174 1.335 . S
N172 C175 1.390 . S
N173 C174 1.345 . S
N173 C176 1.336 . S
C174 N172 1.335 . S
C174 N173 1.345 . S
C174 H179 0.930 . S
C175 N172 1.390 . S
C175 C176 1.346 . S
C175 H180 0.930 . S
C176 N173 1.336 . S
C176 C175 1.346 . S
C176 H183 0.929 . S
C177 O167 1.282 . S
C177 O178 1.216 . S
O178 C177 1.216 . S
H179 C174 0.930 . S
H180 C175 0.930 . S
O181 Cu161 1.959 . S
O181 C168 1.251 . S
H182 C165 0.930 . S
H183 C176 0.929 . S
Cu184 N185 1.999 . S
Cu184 O190 1.974 . S
Cu184 N195 1.985 . S
Cu184 O204 1.959 . S
N185 Cu184 1.999 . S
N185 C187 1.263 . S
N185 C189 1.389 . S
N186 C187 1.358 . S
N186 C188 1.400 . S
C187 N185 1.263 . S
C187 N186 1.358 . S
C187 H193 0.930 . S
C188 N186 1.400 . S
C188 C189 1.351 . S
C188 H205 0.930 . S
C189 N185 1.389 . S
C189 C188 1.351 . S
C189 H194 0.930 . S
O190 Cu184 1.974 . S
O190 C200 1.282 . S
C191 O192 1.261 . S
C191 O204 1.251 . S
O192 C191 1.261 . S
H193 C187 0.930 . S
H194 C189 0.930 . S
N195 Cu184 1.985 . S
N195 C197 1.335 . S
N195 C198 1.390 . S
N196 C197 1.345 . S
N196 C199 1.336 . S
C197 N195 1.335 . S
C197 N196 1.345 . S
C197 H202 0.930 . S
C198 N195 1.390 . S
C198 C199 1.346 . S
C198 H203 0.930 . S
C199 N196 1.336 . S
C199 C198 1.346 . S
C199 H206 0.929 . S
C200 O190 1.282 . S
C200 O201 1.216 . S
O201 C200 1.216 . S
H202 C197 0.930 . S
H203 C198 0.930 . S
O204 Cu184 1.959 . S
O204 C191 1.251 . S
H205 C188 0.930 . S
H206 C199 0.929 . S
Cu207 N208 1.999 . S
Cu207 O213 1.974 . S
Cu207 N218 1.985 . S
Cu207 O227 1.959 . S
N208 Cu207 1.999 . S
N208 C210 1.263 . S
N208 C212 1.389 . S
N209 C210 1.358 . S
N209 C211 1.400 . S
C210 N208 1.263 . S
C210 N209 1.358 . S
C210 H216 0.930 . S
C211 N209 1.400 . S
C211 C212 1.351 . S
C211 H228 0.930 . S
C212 N208 1.389 . S
C212 C211 1.351 . S
C212 H217 0.930 . S
O213 Cu207 1.974 . S
O213 C223 1.282 . S
C214 O215 1.261 . S
C214 O227 1.251 . S
O215 C214 1.261 . S
H216 C210 0.930 . S
H217 C212 0.930 . S
N218 Cu207 1.985 . S
N218 C220 1.335 . S
N218 C221 1.390 . S
N219 C220 1.345 . S
N219 C222 1.336 . S
C220 N218 1.335 . S
C220 N219 1.345 . S
C220 H225 0.930 . S
C221 N218 1.390 . S
C221 C222 1.346 . S
C221 H226 0.930 . S
C222 N219 1.336 . S
C222 C221 1.346 . S
C222 H229 0.929 . S
C223 O213 1.282 . S
C223 O224 1.216 . S
O224 C223 1.216 . S
H225 C220 0.930 . S
H226 C221 0.930 . S
O227 Cu207 1.959 . S
O227 C214 1.251 . S
H228 C211 0.930 . S
H229 C222 0.929 . S
Cu230 N231 1.999 . S
Cu230 O236 1.974 . S
Cu230 N241 1.985 . S
Cu230 O250 1.959 . S
N231 Cu230 1.999 . S
N231 C233 1.263 . S
N231 C235 1.389 . S
N232 C233 1.358 . S
N232 C234 1.400 . S
C233 N231 1.263 . S
C233 N232 1.358 . S
C233 H239 0.930 . S
C234 N232 1.400 . S
C234 C235 1.351 . S
C234 H251 0.930 . S
C235 N231 1.389 . S
C235 C234 1.351 . S
C235 H240 0.930 . S
O236 Cu230 1.974 . S
O236 C246 1.282 . S
C237 O238 1.261 . S
C237 O250 1.251 . S
O238 C237 1.261 . S
H239 C233 0.930 . S
H240 C235 0.930 . S
N241 Cu230 1.985 . S
N241 C243 1.335 . S
N241 C244 1.390 . S
N242 C243 1.345 . S
N242 C245 1.336 . S
C243 N241 1.335 . S
C243 N242 1.345 . S
C243 H248 0.930 . S
C244 N241 1.390 . S
C244 C245 1.346 . S
C244 H249 0.930 . S
C245 N242 1.336 . S
C245 C244 1.346 . S
C245 H252 0.929 . S
C246 O236 1.282 . S
C246 O247 1.216 . S
O247 C246 1.216 . S
H248 C243 0.930 . S
H249 C244 0.930 . S
O250 Cu230 1.959 . S
O250 C237 1.251 . S
H251 C234 0.930 . S
H252 C245 0.929 . S
Cu253 N254 1.999 . S
Cu253 O259 1.974 . S
Cu253 N264 1.985 . S
Cu253 O273 1.959 . S
N254 Cu253 1.999 . S
N254 C256 1.263 . S
N254 C258 1.389 . S
N255 C256 1.358 . S
N255 C257 1.400 . S
C256 N254 1.263 . S
C256 N255 1.358 . S
C256 H262 0.930 . S
C257 N255 1.400 . S
C257 C258 1.351 . S
C257 H274 0.930 . S
C258 N254 1.389 . S
C258 C257 1.351 . S
C258 H263 0.930 . S
O259 Cu253 1.974 . S
O259 C269 1.282 . S
C260 O261 1.261 . S
C260 O273 1.251 . S
O261 C260 1.261 . S
H262 C256 0.930 . S
H263 C258 0.930 . S
N264 Cu253 1.985 . S
N264 C266 1.335 . S
N264 C267 1.390 . S
N265 C266 1.345 . S
N265 C268 1.336 . S
C266 N264 1.335 . S
C266 N265 1.345 . S
C266 H271 0.930 . S
C267 N264 1.390 . S
C267 C268 1.346 . S
C267 H272 0.930 . S
C268 N265 1.336 . S
C268 C267 1.346 . S
C268 H275 0.929 . S
C269 O259 1.282 . S
C269 O270 1.216 . S
O270 C269 1.216 . S
H271 C266 0.930 . S
H272 C267 0.930 . S
O273 Cu253 1.959 . S
O273 C260 1.251 . S
H274 C257 0.930 . S
H275 C268 0.929 . S
Dy276 O280 2.398 . S
Dy276 O281 2.491 . S
Dy276 O282 2.403 . S
Dy276 O283 2.664 . S
Dy276 O287 2.326 . S
Dy276 O291 2.310 . S
Dy276 O292 2.351 . S
C277 O288 1.185 . S
C277 O289 1.355 . S
C278 O280 1.185 . S
C278 O281 1.355 . S
Dy279 O283 2.310 . S
Dy279 O286 2.351 . S
Dy279 O288 2.398 . S
Dy279 O289 2.491 . S
Dy279 O290 2.403 . S
Dy279 O291 2.664 . S
Dy279 O293 2.326 . S
O280 Dy276 2.398 . S
O280 C278 1.185 . S
O281 Dy276 2.491 . S
O281 C278 1.355 . S
O282 Dy276 2.403 . S
O282 C284 1.254 . S
O283 Dy276 2.664 . S
O283 Dy279 2.310 . S
O283 C284 1.268 . S
C284 O282 1.254 . S
C284 O283 1.268 . S
C285 O290 1.254 . S
C285 O291 1.268 . S
O286 Dy279 2.351 . S
O286 C294 1.249 . S
O287 Dy276 2.326 . S
O287 C294 1.267 . S
O288 C277 1.185 . S
O288 Dy279 2.398 . S
O289 C277 1.355 . S
O289 Dy279 2.491 . S
O290 Dy279 2.403 . S
O290 C285 1.254 . S
O291 Dy276 2.310 . S
O291 Dy279 2.664 . S
O291 C285 1.268 . S
O292 Dy276 2.351 . S
O292 C295 1.249 . S
O293 Dy279 2.326 . S
O293 C295 1.267 . S
C294 O286 1.249 . S
C294 O287 1.267 . S
C295 O292 1.249 . S
C295 O293 1.267 . S
Dy296 O300 2.398 . S
Dy296 O301 2.491 . S
Dy296 O302 2.403 . S
Dy296 O303 2.664 . S
Dy296 O307 2.326 . S
Dy296 O311 2.310 . S
Dy296 O312 2.351 . S
C297 O308 1.185 . S
C297 O309 1.355 . S
C298 O300 1.185 . S
C298 O301 1.355 . S
Dy299 O303 2.310 . S
Dy299 O306 2.351 . S
Dy299 O308 2.398 . S
Dy299 O309 2.491 . S
Dy299 O310 2.403 . S
Dy299 O311 2.664 . S
Dy299 O313 2.326 . S
O300 Dy296 2.398 . S
O300 C298 1.185 . S
O301 Dy296 2.491 . S
O301 C298 1.355 . S
O302 Dy296 2.403 . S
O302 C304 1.254 . S
O303 Dy296 2.664 . S
O303 Dy299 2.310 . S
O303 C304 1.268 . S
C304 O302 1.254 . S
C304 O303 1.268 . S
C305 O310 1.254 . S
C305 O311 1.268 . S
O306 Dy299 2.351 . S
O306 C314 1.249 . S
O307 Dy296 2.326 . S
O307 C314 1.267 . S
O308 C297 1.185 . S
O308 Dy299 2.398 . S
O309 C297 1.355 . S
O309 Dy299 2.491 . S
O310 Dy299 2.403 . S
O310 C305 1.254 . S
O311 Dy296 2.310 . S
O311 Dy299 2.664 . S
O311 C305 1.268 . S
O312 Dy296 2.351 . S
O312 C315 1.249 . S
O313 Dy299 2.326 . S
O313 C315 1.267 . S
C314 O306 1.249 . S
C314 O307 1.267 . S
C315 O312 1.249 . S
C315 O313 1.267 . S
Dy316 O320 2.398 . S
Dy316 O321 2.491 . S
Dy316 O322 2.403 . S
Dy316 O323 2.664 . S
Dy316 O327 2.326 . S
Dy316 O331 2.310 . S
Dy316 O332 2.351 . S
C317 O328 1.185 . S
C317 O329 1.355 . S
C318 O320 1.185 . S
C318 O321 1.355 . S
Dy319 O323 2.310 . S
Dy319 O326 2.351 . S
Dy319 O328 2.398 . S
Dy319 O329 2.491 . S
Dy319 O330 2.403 . S
Dy319 O331 2.664 . S
Dy319 O333 2.326 . S
O320 Dy316 2.398 . S
O320 C318 1.185 . S
O321 Dy316 2.491 . S
O321 C318 1.355 . S
O322 Dy316 2.403 . S
O322 C324 1.254 . S
O323 Dy316 2.664 . S
O323 Dy319 2.310 . S
O323 C324 1.268 . S
C324 O322 1.254 . S
C324 O323 1.268 . S
C325 O330 1.254 . S
C325 O331 1.268 . S
O326 Dy319 2.351 . S
O326 C334 1.249 . S
O327 Dy316 2.326 . S
O327 C334 1.267 . S
O328 C317 1.185 . S
O328 Dy319 2.398 . S
O329 C317 1.355 . S
O329 Dy319 2.491 . S
O330 Dy319 2.403 . S
O330 C325 1.254 . S
O331 Dy316 2.310 . S
O331 Dy319 2.664 . S
O331 C325 1.268 . S
O332 Dy316 2.351 . S
O332 C335 1.249 . S
O333 Dy319 2.326 . S
O333 C335 1.267 . S
C334 O326 1.249 . S
C334 O327 1.267 . S
C335 O332 1.249 . S
C335 O333 1.267 . S
Dy336 O340 2.398 . S
Dy336 O341 2.491 . S
Dy336 O342 2.403 . S
Dy336 O343 2.664 . S
Dy336 O347 2.326 . S
Dy336 O351 2.310 . S
Dy336 O352 2.351 . S
C337 O348 1.185 . S
C337 O349 1.355 . S
C338 O340 1.185 . S
C338 O341 1.355 . S
Dy339 O343 2.310 . S
Dy339 O346 2.351 . S
Dy339 O348 2.398 . S
Dy339 O349 2.491 . S
Dy339 O350 2.403 . S
Dy339 O351 2.664 . S
Dy339 O353 2.326 . S
O340 Dy336 2.398 . S
O340 C338 1.185 . S
O341 Dy336 2.491 . S
O341 C338 1.355 . S
O342 Dy336 2.403 . S
O342 C344 1.254 . S
O343 Dy336 2.664 . S
O343 Dy339 2.310 . S
O343 C344 1.268 . S
C344 O342 1.254 . S
C344 O343 1.268 . S
C345 O350 1.254 . S
C345 O351 1.268 . S
O346 Dy339 2.351 . S
O346 C354 1.249 . S
O347 Dy336 2.326 . S
O347 C354 1.267 . S
O348 C337 1.185 . S
O348 Dy339 2.398 . S
O349 C337 1.355 . S
O349 Dy339 2.491 . S
O350 Dy339 2.403 . S
O350 C345 1.254 . S
O351 Dy336 2.310 . S
O351 Dy339 2.664 . S
O351 C345 1.268 . S
O352 Dy336 2.351 . S
O352 C355 1.249 . S
O353 Dy339 2.326 . S
O353 C355 1.267 . S
C354 O346 1.249 . S
C354 O347 1.267 . S
C355 O352 1.249 . S
C355 O353 1.267 . S
Dy356 O360 2.398 . S
Dy356 O361 2.491 . S
Dy356 O362 2.403 . S
Dy356 O363 2.664 . S
Dy356 O367 2.326 . S
Dy356 O371 2.310 . S
Dy356 O372 2.351 . S
C357 O368 1.185 . S
C357 O369 1.355 . S
C358 O360 1.185 . S
C358 O361 1.355 . S
Dy359 O363 2.310 . S
Dy359 O366 2.351 . S
Dy359 O368 2.398 . S
Dy359 O369 2.491 . S
Dy359 O370 2.403 . S
Dy359 O371 2.664 . S
Dy359 O373 2.326 . S
O360 Dy356 2.398 . S
O360 C358 1.185 . S
O361 Dy356 2.491 . S
O361 C358 1.355 . S
O362 Dy356 2.403 . S
O362 C364 1.254 . S
O363 Dy356 2.664 . S
O363 Dy359 2.310 . S
O363 C364 1.268 . S
C364 O362 1.254 . S
C364 O363 1.268 . S
C365 O370 1.254 . S
C365 O371 1.268 . S
O366 Dy359 2.351 . S
O366 C374 1.249 . S
O367 Dy356 2.326 . S
O367 C374 1.267 . S
O368 C357 1.185 . S
O368 Dy359 2.398 . S
O369 C357 1.355 . S
O369 Dy359 2.491 . S
O370 Dy359 2.403 . S
O370 C365 1.254 . S
O371 Dy356 2.310 . S
O371 Dy359 2.664 . S
O371 C365 1.268 . S
O372 Dy356 2.351 . S
O372 C375 1.249 . S
O373 Dy359 2.326 . S
O373 C375 1.267 . S
C374 O366 1.249 . S
C374 O367 1.267 . S
C375 O372 1.249 . S
C375 O373 1.267 . S
Dy376 O380 2.398 . S
Dy376 O381 2.491 . S
Dy376 O382 2.403 . S
Dy376 O383 2.664 . S
Dy376 O387 2.326 . S
Dy376 O391 2.310 . S
Dy376 O392 2.351 . S
C377 O388 1.185 . S
C377 O389 1.355 . S
C378 O380 1.185 . S
C378 O381 1.355 . S
Dy379 O383 2.310 . S
Dy379 O386 2.351 . S
Dy379 O388 2.398 . S
Dy379 O389 2.491 . S
Dy379 O390 2.403 . S
Dy379 O391 2.664 . S
Dy379 O393 2.326 . S
O380 Dy376 2.398 . S
O380 C378 1.185 . S
O381 Dy376 2.491 . S
O381 C378 1.355 . S
O382 Dy376 2.403 . S
O382 C384 1.254 . S
O383 Dy376 2.664 . S
O383 Dy379 2.310 . S
O383 C384 1.268 . S
C384 O382 1.254 . S
C384 O383 1.268 . S
C385 O390 1.254 . S
C385 O391 1.268 . S
O386 Dy379 2.351 . S
O386 C394 1.249 . S
O387 Dy376 2.326 . S
O387 C394 1.267 . S
O388 C377 1.185 . S
O388 Dy379 2.398 . S
O389 C377 1.355 . S
O389 Dy379 2.491 . S
O390 Dy379 2.403 . S
O390 C385 1.254 . S
O391 Dy376 2.310 . S
O391 Dy379 2.664 . S
O391 C385 1.268 . S
O392 Dy376 2.351 . S
O392 C395 1.249 . S
O393 Dy379 2.326 . S
O393 C395 1.267 . S
C394 O386 1.249 . S
C394 O387 1.267 . S
C395 O392 1.249 . S
C395 O393 1.267 . S
Dy396 O400 2.398 . S
Dy396 O401 2.491 . S
Dy396 O402 2.403 . S
Dy396 O403 2.664 . S
Dy396 O407 2.326 . S
Dy396 O411 2.310 . S
Dy396 O412 2.351 . S
C397 O408 1.185 . S
C397 O409 1.355 . S
C398 O400 1.185 . S
C398 O401 1.355 . S
Dy399 O403 2.310 . S
Dy399 O406 2.351 . S
Dy399 O408 2.398 . S
Dy399 O409 2.491 . S
Dy399 O410 2.403 . S
Dy399 O411 2.664 . S
Dy399 O413 2.326 . S
O400 Dy396 2.398 . S
O400 C398 1.185 . S
O401 Dy396 2.491 . S
O401 C398 1.355 . S
O402 Dy396 2.403 . S
O402 C404 1.254 . S
O403 Dy396 2.664 . S
O403 Dy399 2.310 . S
O403 C404 1.268 . S
C404 O402 1.254 . S
C404 O403 1.268 . S
C405 O410 1.254 . S
C405 O411 1.268 . S
O406 Dy399 2.351 . S
O406 C414 1.249 . S
O407 Dy396 2.326 . S
O407 C414 1.267 . S
O408 C397 1.185 . S
O408 Dy399 2.398 . S
O409 C397 1.355 . S
O409 Dy399 2.491 . S
O410 Dy399 2.403 . S
O410 C405 1.254 . S
O411 Dy396 2.310 . S
O411 Dy399 2.664 . S
O411 C405 1.268 . S
O412 Dy396 2.351 . S
O412 C415 1.249 . S
O413 Dy399 2.326 . S
O413 C415 1.267 . S
C414 O406 1.249 . S
C414 O407 1.267 . S
C415 O412 1.249 . S
C415 O413 1.267 . S
Dy416 O420 2.398 . S
Dy416 O421 2.491 . S
Dy416 O422 2.403 . S
Dy416 O423 2.664 . S
Dy416 O427 2.326 . S
Dy416 O431 2.310 . S
Dy416 O432 2.351 . S
C417 O428 1.185 . S
C417 O429 1.355 . S
C418 O420 1.185 . S
C418 O421 1.355 . S
Dy419 O423 2.310 . S
Dy419 O426 2.351 . S
Dy419 O428 2.398 . S
Dy419 O429 2.491 . S
Dy419 O430 2.403 . S
Dy419 O431 2.664 . S
Dy419 O433 2.326 . S
O420 Dy416 2.398 . S
O420 C418 1.185 . S
O421 Dy416 2.491 . S
O421 C418 1.355 . S
O422 Dy416 2.403 . S
O422 C424 1.254 . S
O423 Dy416 2.664 . S
O423 Dy419 2.310 . S
O423 C424 1.268 . S
C424 O422 1.254 . S
C424 O423 1.268 . S
C425 O430 1.254 . S
C425 O431 1.268 . S
O426 Dy419 2.351 . S
O426 C434 1.249 . S
O427 Dy416 2.326 . S
O427 C434 1.267 . S
O428 C417 1.185 . S
O428 Dy419 2.398 . S
O429 C417 1.355 . S
O429 Dy419 2.491 . S
O430 Dy419 2.403 . S
O430 C425 1.254 . S
O431 Dy416 2.310 . S
O431 Dy419 2.664 . S
O431 C425 1.268 . S
O432 Dy416 2.351 . S
O432 C435 1.249 . S
O433 Dy419 2.326 . S
O433 C435 1.267 . S
C434 O426 1.249 . S
C434 O427 1.267 . S
C435 O432 1.249 . S
C435 O433 1.267 . S
H436 C442 0.930 . S
H437 C445 0.930 . S
H438 C446 0.930 . S
H439 C447 0.930 . S
H440 C450 0.930 . S
H441 C451 0.930 . S
C442 H436 0.930 . S
C442 C443 1.355 . S
C442 C444 1.415 . S
C443 C442 1.355 . S
C443 C445 1.419 . S
C444 C442 1.415 . S
C444 C449 1.425 . S
C444 C451 1.409 . S
C445 H437 0.930 . S
C445 C443 1.419 . S
C445 C446 1.362 . S
C446 H438 0.930 . S
C446 C445 1.362 . S
C446 C449 1.409 . S
C447 H439 0.930 . S
C447 C448 1.355 . S
C447 C449 1.415 . S
C448 C447 1.355 . S
C448 C450 1.419 . S
C449 C444 1.425 . S
C449 C446 1.409 . S
C449 C447 1.415 . S
C450 H440 0.930 . S
C450 C448 1.419 . S
C450 C451 1.362 . S
C451 H441 0.930 . S
C451 C444 1.409 . S
C451 C450 1.362 . S
H452 C458 0.930 . S
H453 C461 0.930 . S
H454 C462 0.930 . S
H455 C463 0.930 . S
H456 C466 0.930 . S
H457 C467 0.930 . S
C458 H452 0.930 . S
C458 C459 1.355 . S
C458 C460 1.415 . S
C459 C458 1.355 . S
C459 C461 1.419 . S
C460 C458 1.415 . S
C460 C465 1.425 . S
C460 C467 1.409 . S
C461 H453 0.930 . S
C461 C459 1.419 . S
C461 C462 1.362 . S
C462 H454 0.930 . S
C462 C461 1.362 . S
C462 C465 1.409 . S
C463 H455 0.930 . S
C463 C464 1.355 . S
C463 C465 1.415 . S
C464 C463 1.355 . S
C464 C466 1.419 . S
C465 C460 1.425 . S
C465 C462 1.409 . S
C465 C463 1.415 . S
C466 H456 0.930 . S
C466 C464 1.419 . S
C466 C467 1.362 . S
C467 H457 0.930 . S
C467 C460 1.409 . S
C467 C466 1.362 . S
H468 C474 0.930 . S
H469 C477 0.930 . S
H470 C478 0.930 . S
H471 C479 0.930 . S
H472 C482 0.930 . S
H473 C483 0.930 . S
C474 H468 0.930 . S
C474 C475 1.355 . S
C474 C476 1.415 . S
C475 C474 1.355 . S
C475 C477 1.419 . S
C476 C474 1.415 . S
C476 C481 1.425 . S
C476 C483 1.409 . S
C477 H469 0.930 . S
C477 C475 1.419 . S
C477 C478 1.362 . S
C478 H470 0.930 . S
C478 C477 1.362 . S
C478 C481 1.409 . S
C479 H471 0.930 . S
C479 C480 1.355 . S
C479 C481 1.415 . S
C480 C479 1.355 . S
C480 C482 1.419 . S
C481 C476 1.425 . S
C481 C478 1.409 . S
C481 C479 1.415 . S
C482 H472 0.930 . S
C482 C480 1.419 . S
C482 C483 1.362 . S
C483 H473 0.930 . S
C483 C476 1.409 . S
C483 C482 1.362 . S
H484 C490 0.930 . S
H485 C493 0.930 . S
H486 C494 0.930 . S
H487 C495 0.930 . S
H488 C498 0.930 . S
H489 C499 0.930 . S
C490 H484 0.930 . S
C490 C491 1.355 . S
C490 C492 1.415 . S
C491 C490 1.355 . S
C491 C493 1.419 . S
C492 C490 1.415 . S
C492 C497 1.425 . S
C492 C499 1.409 . S
C493 H485 0.930 . S
C493 C491 1.419 . S
C493 C494 1.362 . S
C494 H486 0.930 . S
C494 C493 1.362 . S
C494 C497 1.409 . S
C495 H487 0.930 . S
C495 C496 1.355 . S
C495 C497 1.415 . S
C496 C495 1.355 . S
C496 C498 1.419 . S
C497 C492 1.425 . S
C497 C494 1.409 . S
C497 C495 1.415 . S
C498 H488 0.930 . S
C498 C496 1.419 . S
C498 C499 1.362 . S
C499 H489 0.930 . S
C499 C492 1.409 . S
C499 C498 1.362 . S
H500 C506 0.930 . S
H501 C509 0.930 . S
H502 C510 0.930 . S
H503 C511 0.930 . S
H504 C514 0.930 . S
H505 C515 0.930 . S
C506 H500 0.930 . S
C506 C507 1.355 . S
C506 C508 1.415 . S
C507 C506 1.355 . S
C507 C509 1.419 . S
C508 C506 1.415 . S
C508 C513 1.425 . S
C508 C515 1.409 . S
C509 H501 0.930 . S
C509 C507 1.419 . S
C509 C510 1.362 . S
C510 H502 0.930 . S
C510 C509 1.362 . S
C510 C513 1.409 . S
C511 H503 0.930 . S
C511 C512 1.355 . S
C511 C513 1.415 . S
C512 C511 1.355 . S
C512 C514 1.419 . S
C513 C508 1.425 . S
C513 C510 1.409 . S
C513 C511 1.415 . S
C514 H504 0.930 . S
C514 C512 1.419 . S
C514 C515 1.362 . S
C515 H505 0.930 . S
C515 C508 1.409 . S
C515 C514 1.362 . S
H516 C522 0.930 . S
H517 C525 0.930 . S
H518 C526 0.930 . S
H519 C527 0.930 . S
H520 C530 0.930 . S
H521 C531 0.930 . S
C522 H516 0.930 . S
C522 C523 1.355 . S
C522 C524 1.415 . S
C523 C522 1.355 . S
C523 C525 1.419 . S
C524 C522 1.415 . S
C524 C529 1.425 . S
C524 C531 1.409 . S
C525 H517 0.930 . S
C525 C523 1.419 . S
C525 C526 1.362 . S
C526 H518 0.930 . S
C526 C525 1.362 . S
C526 C529 1.409 . S
C527 H519 0.930 . S
C527 C528 1.355 . S
C527 C529 1.415 . S
C528 C527 1.355 . S
C528 C530 1.419 . S
C529 C524 1.425 . S
C529 C526 1.409 . S
C529 C527 1.415 . S
C530 H520 0.930 . S
C530 C528 1.419 . S
C530 C531 1.362 . S
C531 H521 0.930 . S
C531 C524 1.409 . S
C531 C530 1.362 . S
H532 C538 0.930 . S
H533 C541 0.930 . S
H534 C542 0.930 . S
H535 C543 0.930 . S
H536 C546 0.930 . S
H537 C547 0.930 . S
C538 H532 0.930 . S
C538 C539 1.355 . S
C538 C540 1.415 . S
C539 C538 1.355 . S
C539 C541 1.419 . S
C540 C538 1.415 . S
C540 C545 1.425 . S
C540 C547 1.409 . S
C541 H533 0.930 . S
C541 C539 1.419 . S
C541 C542 1.362 . S
C542 H534 0.930 . S
C542 C541 1.362 . S
C542 C545 1.409 . S
C543 H535 0.930 . S
C543 C544 1.355 . S
C543 C545 1.415 . S
C544 C543 1.355 . S
C544 C546 1.419 . S
C545 C540 1.425 . S
C545 C542 1.409 . S
C545 C543 1.415 . S
C546 H536 0.930 . S
C546 C544 1.419 . S
C546 C547 1.362 . S
C547 H537 0.930 . S
C547 C540 1.409 . S
C547 C546 1.362 . S
H548 C554 0.930 . S
H549 C557 0.930 . S
H550 C558 0.930 . S
H551 C559 0.930 . S
H552 C562 0.930 . S
H553 C563 0.930 . S
C554 H548 0.930 . S
C554 C555 1.355 . S
C554 C556 1.415 . S
C555 C554 1.355 . S
C555 C557 1.419 . S
C556 C554 1.415 . S
C556 C561 1.425 . S
C556 C563 1.409 . S
C557 H549 0.930 . S
C557 C555 1.419 . S
C557 C558 1.362 . S
C558 H550 0.930 . S
C558 C557 1.362 . S
C558 C561 1.409 . S
C559 H551 0.930 . S
C559 C560 1.355 . S
C559 C561 1.415 . S
C560 C559 1.355 . S
C560 C562 1.419 . S
C561 C556 1.425 . S
C561 C558 1.409 . S
C561 C559 1.415 . S
C562 H552 0.930 . S
C562 C560 1.419 . S
C562 C563 1.362 . S
C563 H553 0.930 . S
C563 C556 1.409 . S
C563 C562 1.362 . S
H564 C570 0.930 . S
H565 C573 0.930 . S
H566 C574 0.930 . S
H567 C575 0.930 . S
H568 C578 0.930 . S
H569 C579 0.930 . S
C570 H564 0.930 . S
C570 C571 1.355 . S
C570 C572 1.415 . S
C571 C570 1.355 . S
C571 C573 1.419 . S
C572 C570 1.415 . S
C572 C577 1.425 . S
C572 C579 1.409 . S
C573 H565 0.930 . S
C573 C571 1.419 . S
C573 C574 1.362 . S
C574 H566 0.930 . S
C574 C573 1.362 . S
C574 C577 1.409 . S
C575 H567 0.930 . S
C575 C576 1.355 . S
C575 C577 1.415 . S
C576 C575 1.355 . S
C576 C578 1.419 . S
C577 C572 1.425 . S
C577 C574 1.409 . S
C577 C575 1.415 . S
C578 H568 0.930 . S
C578 C576 1.419 . S
C578 C579 1.362 . S
C579 H569 0.930 . S
C579 C572 1.409 . S
C579 C578 1.362 . S
H580 C586 0.930 . S
H581 C589 0.930 . S
H582 C590 0.930 . S
H583 C591 0.930 . S
H584 C594 0.930 . S
H585 C595 0.930 . S
C586 H580 0.930 . S
C586 C587 1.355 . S
C586 C588 1.415 . S
C587 C586 1.355 . S
C587 C589 1.419 . S
C588 C586 1.415 . S
C588 C593 1.425 . S
C588 C595 1.409 . S
C589 H581 0.930 . S
C589 C587 1.419 . S
C589 C590 1.362 . S
C590 H582 0.930 . S
C590 C589 1.362 . S
C590 C593 1.409 . S
C591 H583 0.930 . S
C591 C592 1.355 . S
C591 C593 1.415 . S
C592 C591 1.355 . S
C592 C594 1.419 . S
C593 C588 1.425 . S
C593 C590 1.409 . S
C593 C591 1.415 . S
C594 H584 0.930 . S
C594 C592 1.419 . S
C594 C595 1.362 . S
C595 H585 0.930 . S
C595 C588 1.409 . S
C595 C594 1.362 . S
H596 C602 0.930 . S
H597 C605 0.930 . S
H598 C606 0.930 . S
H599 C607 0.930 . S
H600 C610 0.930 . S
H601 C611 0.930 . S
C602 H596 0.930 . S
C602 C603 1.355 . S
C602 C604 1.415 . S
C603 C602 1.355 . S
C603 C605 1.419 . S
C604 C602 1.415 . S
C604 C609 1.425 . S
C604 C611 1.409 . S
C605 H597 0.930 . S
C605 C603 1.419 . S
C605 C606 1.362 . S
C606 H598 0.930 . S
C606 C605 1.362 . S
C606 C609 1.409 . S
C607 H599 0.930 . S
C607 C608 1.355 . S
C607 C609 1.415 . S
C608 C607 1.355 . S
C608 C610 1.419 . S
C609 C604 1.425 . S
C609 C606 1.409 . S
C609 C607 1.415 . S
C610 H600 0.930 . S
C610 C608 1.419 . S
C610 C611 1.362 . S
C611 H601 0.930 . S
C611 C604 1.409 . S
C611 C610 1.362 . S
H612 C618 0.930 . S
H613 C621 0.930 . S
H614 C622 0.930 . S
H615 C623 0.930 . S
H616 C626 0.930 . S
H617 C627 0.930 . S
C618 H612 0.930 . S
C618 C619 1.355 . S
C618 C620 1.415 . S
C619 C618 1.355 . S
C619 C621 1.419 . S
C620 C618 1.415 . S
C620 C625 1.425 . S
C620 C627 1.409 . S
C621 H613 0.930 . S
C621 C619 1.419 . S
C621 C622 1.362 . S
C622 H614 0.930 . S
C622 C621 1.362 . S
C622 C625 1.409 . S
C623 H615 0.930 . S
C623 C624 1.355 . S
C623 C625 1.415 . S
C624 C623 1.355 . S
C624 C626 1.419 . S
C625 C620 1.425 . S
C625 C622 1.409 . S
C625 C623 1.415 . S
C626 H616 0.930 . S
C626 C624 1.419 . S
C626 C627 1.362 . S
C627 H617 0.930 . S
C627 C620 1.409 . S
C627 C626 1.362 . S
H628 C634 0.930 . S
H629 C637 0.930 1_554 S
H630 C638 0.930 . S
H631 C639 0.930 . S
H632 C642 0.930 . S
H633 C643 0.930 . S
C634 H628 0.930 . S
C634 C635 1.355 . S
C634 C636 1.415 . S
C635 C634 1.355 . S
C635 C637 1.419 . S
C636 C634 1.415 . S
C636 C641 1.425 . S
C636 C643 1.409 . S
C637 H629 0.930 1_556 S
C637 C635 1.419 . S
C637 C638 1.362 . S
C638 H630 0.930 . S
C638 C637 1.362 . S
C638 C641 1.409 . S
C639 H631 0.930 . S
C639 C640 1.355 . S
C639 C641 1.415 . S
C640 C639 1.355 . S
C640 C642 1.419 . S
C641 C636 1.425 . S
C641 C638 1.409 . S
C641 C639 1.415 . S
C642 H632 0.930 . S
C642 C640 1.419 . S
C642 C643 1.362 . S
C643 H633 0.930 . S
C643 C636 1.409 . S
C643 C642 1.362 . S
H644 C650 0.930 . S
H645 C653 0.930 . S
H646 C654 0.930 . S
H647 C655 0.930 . S
H648 C658 0.930 . S
H649 C659 0.930 . S
C650 H644 0.930 . S
C650 C651 1.355 . S
C650 C652 1.415 . S
C651 C650 1.355 . S
C651 C653 1.419 . S
C652 C650 1.415 . S
C652 C657 1.425 . S
C652 C659 1.409 . S
C653 H645 0.930 . S
C653 C651 1.419 . S
C653 C654 1.362 . S
C654 H646 0.930 . S
C654 C653 1.362 . S
C654 C657 1.409 . S
C655 H647 0.930 . S
C655 C656 1.355 . S
C655 C657 1.415 . S
C656 C655 1.355 . S
C656 C658 1.419 . S
C657 C652 1.425 . S
C657 C654 1.409 . S
C657 C655 1.415 . S
C658 H648 0.930 . S
C658 C656 1.419 . S
C658 C659 1.362 . S
C659 H649 0.930 . S
C659 C652 1.409 . S
C659 C658 1.362 . S
H660 C666 0.930 . S
H661 C669 0.930 . S
H662 C670 0.930 . S
H663 C671 0.930 . S
H664 C674 0.930 . S
H665 C675 0.930 . S
C666 H660 0.930 . S
C666 C667 1.355 . S
C666 C668 1.415 . S
C667 C666 1.355 . S
C667 C669 1.419 . S
C668 C666 1.415 . S
C668 C673 1.425 . S
C668 C675 1.409 . S
C669 H661 0.930 . S
C669 C667 1.419 . S
C669 C670 1.362 . S
C670 H662 0.930 . S
C670 C669 1.362 . S
C670 C673 1.409 . S
C671 H663 0.930 . S
C671 C672 1.355 . S
C671 C673 1.415 . S
C672 C671 1.355 . S
C672 C674 1.419 . S
C673 C668 1.425 . S
C673 C670 1.409 . S
C673 C671 1.415 . S
C674 H664 0.930 . S
C674 C672 1.419 . S
C674 C675 1.362 . S
C675 H665 0.930 . S
C675 C668 1.409 . S
C675 C674 1.362 . S
H676 C682 0.930 . S
H677 C685 0.930 . S
H678 C686 0.930 . S
H679 C687 0.930 . S
H680 C690 0.930 . S
H681 C691 0.930 . S
C682 H676 0.930 . S
C682 C683 1.355 . S
C682 C684 1.415 . S
C683 C682 1.355 . S
C683 C685 1.419 . S
C684 C682 1.415 . S
C684 C689 1.425 . S
C684 C691 1.409 . S
C685 H677 0.930 . S
C685 C683 1.419 . S
C685 C686 1.362 . S
C686 H678 0.930 . S
C686 C685 1.362 . S
C686 C689 1.409 . S
C687 H679 0.930 . S
C687 C688 1.355 . S
C687 C689 1.415 . S
C688 C687 1.355 . S
C688 C690 1.419 . S
C689 C684 1.425 . S
C689 C686 1.409 . S
C689 C687 1.415 . S
C690 H680 0.930 . S
C690 C688 1.419 . S
C690 C691 1.362 . S
C691 H681 0.930 . S
C691 C684 1.409 . S
C691 C690 1.362 . S
H692 C698 0.930 . S
H693 C701 0.930 . S
H694 C702 0.930 . S
H695 C703 0.930 . S
H696 C706 0.930 . S
H697 C707 0.930 . S
C698 H692 0.930 . S
C698 C699 1.355 . S
C698 C700 1.415 . S
C699 C698 1.355 . S
C699 C701 1.419 . S
C700 C698 1.415 . S
C700 C705 1.425 . S
C700 C707 1.409 . S
C701 H693 0.930 . S
C701 C699 1.419 . S
C701 C702 1.362 . S
C702 H694 0.930 . S
C702 C701 1.362 . S
C702 C705 1.409 . S
C703 H695 0.930 . S
C703 C704 1.355 . S
C703 C705 1.415 . S
C704 C703 1.355 . S
C704 C706 1.419 . S
C705 C700 1.425 . S
C705 C702 1.409 . S
C705 C703 1.415 . S
C706 H696 0.930 . S
C706 C704 1.419 . S
C706 C707 1.362 . S
C707 H697 0.930 . S
C707 C700 1.409 . S
C707 C706 1.362 . S
H708 C714 0.930 . S
H709 C717 0.930 . S
H710 C718 0.930 . S
H711 C719 0.930 . S
H712 C722 0.930 . S
H713 C723 0.930 . S
C714 H708 0.930 . S
C714 C715 1.355 . S
C714 C716 1.415 . S
C715 C714 1.355 . S
C715 C717 1.419 . S
C716 C714 1.415 . S
C716 C721 1.425 . S
C716 C723 1.409 . S
C717 H709 0.930 . S
C717 C715 1.419 . S
C717 C718 1.362 . S
C718 H710 0.930 . S
C718 C717 1.362 . S
C718 C721 1.409 . S
C719 H711 0.930 . S
C719 C720 1.355 . S
C719 C721 1.415 . S
C720 C719 1.355 . S
C720 C722 1.419 . S
C721 C716 1.425 . S
C721 C718 1.409 . S
C721 C719 1.415 . S
C722 H712 0.930 . S
C722 C720 1.419 . S
C722 C723 1.362 . S
C723 H713 0.930 . S
C723 C716 1.409 . S
C723 C722 1.362 . S
H724 C730 0.930 . S
H725 C733 0.930 . S
H726 C734 0.930 . S
H727 C735 0.930 . S
H728 C738 0.930 . S
H729 C739 0.930 . S
C730 H724 0.930 . S
C730 C731 1.355 . S
C730 C732 1.415 . S
C731 C730 1.355 . S
C731 C733 1.419 . S
C732 C730 1.415 . S
C732 C737 1.425 . S
C732 C739 1.409 . S
C733 H725 0.930 . S
C733 C731 1.419 . S
C733 C734 1.362 . S
C734 H726 0.930 . S
C734 C733 1.362 . S
C734 C737 1.409 . S
C735 H727 0.930 . S
C735 C736 1.355 . S
C735 C737 1.415 . S
C736 C735 1.355 . S
C736 C738 1.419 . S
C737 C732 1.425 . S
C737 C734 1.409 . S
C737 C735 1.415 . S
C738 H728 0.930 . S
C738 C736 1.419 . S
C738 C739 1.362 . S
C739 H729 0.930 . S
C739 C732 1.409 . S
C739 C738 1.362 . S
H740 C746 0.930 . S
H741 C749 0.930 . S
H742 C750 0.930 . S
H743 C751 0.930 . S
H744 C754 0.930 . S
H745 C755 0.930 . S
C746 H740 0.930 . S
C746 C747 1.355 . S
C746 C748 1.415 . S
C747 C746 1.355 . S
C747 C749 1.419 . S
C748 C746 1.415 . S
C748 C753 1.425 . S
C748 C755 1.409 . S
C749 H741 0.930 . S
C749 C747 1.419 . S
C749 C750 1.362 . S
C750 H742 0.930 . S
C750 C749 1.362 . S
C750 C753 1.409 . S
C751 H743 0.930 . S
C751 C752 1.355 . S
C751 C753 1.415 . S
C752 C751 1.355 . S
C752 C754 1.419 . S
C753 C748 1.425 . S
C753 C750 1.409 . S
C753 C751 1.415 . S
C754 H744 0.930 . S
C754 C752 1.419 . S
C754 C755 1.362 . S
C755 H745 0.930 . S
C755 C748 1.409 . S
C755 C754 1.362 . S
H756 C762 0.930 . S
H757 C765 0.930 . S
H758 C766 0.930 . S
H759 C767 0.930 . S
H760 C770 0.930 . S
H761 C771 0.930 . S
C762 H756 0.930 . S
C762 C763 1.355 . S
C762 C764 1.415 . S
C763 C762 1.355 . S
C763 C765 1.419 . S
C764 C762 1.415 . S
C764 C769 1.425 . S
C764 C771 1.409 . S
C765 H757 0.930 . S
C765 C763 1.419 . S
C765 C766 1.362 . S
C766 H758 0.930 . S
C766 C765 1.362 . S
C766 C769 1.409 . S
C767 H759 0.930 . S
C767 C768 1.355 . S
C767 C769 1.415 . S
C768 C767 1.355 . S
C768 C770 1.419 . S
C769 C764 1.425 . S
C769 C766 1.409 . S
C769 C767 1.415 . S
C770 H760 0.930 . S
C770 C768 1.419 . S
C770 C771 1.362 . S
C771 H761 0.930 . S
C771 C764 1.409 . S
C771 C770 1.362 . S
H772 C778 0.930 . S
H773 C781 0.930 . S
H774 C782 0.930 . S
H775 C783 0.930 . S
H776 C786 0.930 . S
H777 C787 0.930 . S
C778 H772 0.930 . S
C778 C779 1.355 . S
C778 C780 1.415 . S
C779 C778 1.355 . S
C779 C781 1.419 . S
C780 C778 1.415 . S
C780 C785 1.425 . S
C780 C787 1.409 . S
C781 H773 0.930 . S
C781 C779 1.419 . S
C781 C782 1.362 . S
C782 H774 0.930 . S
C782 C781 1.362 . S
C782 C785 1.409 . S
C783 H775 0.930 . S
C783 C784 1.355 . S
C783 C785 1.415 . S
C784 C783 1.355 . S
C784 C786 1.419 . S
C785 C780 1.425 . S
C785 C782 1.409 . S
C785 C783 1.415 . S
C786 H776 0.930 . S
C786 C784 1.419 . S
C786 C787 1.362 . S
C787 H777 0.930 . S
C787 C780 1.409 . S
C787 C786 1.362 . S
H788 C794 0.930 . S
H789 C797 0.930 . S
H790 C798 0.930 . S
H791 C799 0.930 . S
H792 C802 0.930 . S
H793 C803 0.930 . S
C794 H788 0.930 . S
C794 C795 1.355 . S
C794 C796 1.415 . S
C795 C794 1.355 . S
C795 C797 1.419 . S
C796 C794 1.415 . S
C796 C801 1.425 . S
C796 C803 1.409 . S
C797 H789 0.930 . S
C797 C795 1.419 . S
C797 C798 1.362 . S
C798 H790 0.930 . S
C798 C797 1.362 . S
C798 C801 1.409 . S
C799 H791 0.930 . S
C799 C800 1.355 . S
C799 C801 1.415 . S
C800 C799 1.355 . S
C800 C802 1.419 . S
C801 C796 1.425 . S
C801 C798 1.409 . S
C801 C799 1.415 . S
C802 H792 0.930 . S
C802 C800 1.419 . S
C802 C803 1.362 . S
C803 H793 0.930 . S
C803 C796 1.409 . S
C803 C802 1.362 . S
H804 C810 0.930 . S
H805 C813 0.930 . S
H806 C814 0.930 . S
H807 C815 0.930 . S
H808 C818 0.930 . S
H809 C819 0.930 . S
C810 H804 0.930 . S
C810 C811 1.355 . S
C810 C812 1.415 . S
C811 C810 1.355 . S
C811 C813 1.419 . S
C812 C810 1.415 . S
C812 C817 1.425 . S
C812 C819 1.409 . S
C813 H805 0.930 . S
C813 C811 1.419 . S
C813 C814 1.362 . S
C814 H806 0.930 . S
C814 C813 1.362 . S
C814 C817 1.409 . S
C815 H807 0.930 . S
C815 C816 1.355 . S
C815 C817 1.415 . S
C816 C815 1.355 . S
C816 C818 1.419 . S
C817 C812 1.425 . S
C817 C814 1.409 . S
C817 C815 1.415 . S
C818 H808 0.930 . S
C818 C816 1.419 . S
C818 C819 1.362 . S
C819 H809 0.930 . S
C819 C812 1.409 . S
C819 C818 1.362 . S
H820 C826 0.930 . S
H821 C829 0.930 . S
H822 C830 0.930 . S
H823 C831 0.930 . S
H824 C834 0.930 . S
H825 C835 0.930 . S
C826 H820 0.930 . S
C826 C827 1.355 . S
C826 C828 1.415 . S
C827 C826 1.355 . S
C827 C829 1.419 . S
C828 C826 1.415 . S
C828 C833 1.425 . S
C828 C835 1.409 . S
C829 H821 0.930 . S
C829 C827 1.419 . S
C829 C830 1.362 . S
C830 H822 0.930 . S
C830 C829 1.362 . S
C830 C833 1.409 . S
C831 H823 0.930 . S
C831 C832 1.355 . S
C831 C833 1.415 . S
C832 C831 1.355 . S
C832 C834 1.419 . S
C833 C828 1.425 . S
C833 C830 1.409 . S
C833 C831 1.415 . S
C834 H824 0.930 . S
C834 C832 1.419 . S
C834 C835 1.362 . S
C835 H825 0.930 . S
C835 C828 1.409 . S
C835 C834 1.362 . S
H836 C842 0.930 . S
H837 C845 0.930 . S
H838 C846 0.930 . S
H839 C847 0.930 . S
H840 C850 0.930 . S
H841 C851 0.930 . S
C842 H836 0.930 . S
C842 C843 1.355 . S
C842 C844 1.415 . S
C843 C842 1.355 . S
C843 C845 1.419 . S
C844 C842 1.415 . S
C844 C849 1.425 . S
C844 C851 1.409 . S
C845 H837 0.930 . S
C845 C843 1.419 . S
C845 C846 1.362 . S
C846 H838 0.930 . S
C846 C845 1.362 . S
C846 C849 1.409 . S
C847 H839 0.930 . S
C847 C848 1.355 . S
C847 C849 1.415 . S
C848 C847 1.355 . S
C848 C850 1.419 . S
C849 C844 1.425 . S
C849 C846 1.409 . S
C849 C847 1.415 . S
C850 H840 0.930 . S
C850 C848 1.419 . S
C850 C851 1.362 . S
C851 H841 0.930 . S
C851 C844 1.409 . S
C851 C850 1.362 . S
H852 C858 0.930 . S
H853 C861 0.930 . S
H854 C862 0.930 . S
H855 C863 0.930 . S
H856 C866 0.930 . S
H857 C867 0.930 . S
C858 H852 0.930 . S
C858 C859 1.355 . S
C858 C860 1.415 . S
C859 C858 1.355 . S
C859 C861 1.419 . S
C860 C858 1.415 . S
C860 C865 1.425 . S
C860 C867 1.409 . S
C861 H853 0.930 . S
C861 C859 1.419 . S
C861 C862 1.362 . S
C862 H854 0.930 . S
C862 C861 1.362 . S
C862 C865 1.409 . S
C863 H855 0.930 . S
C863 C864 1.355 . S
C863 C865 1.415 . S
C864 C863 1.355 . S
C864 C866 1.419 . S
C865 C860 1.425 . S
C865 C862 1.409 . S
C865 C863 1.415 . S
C866 H856 0.930 . S
C866 C864 1.419 . S
C866 C867 1.362 . S
C867 H857 0.930 . S
C867 C860 1.409 . S
C867 C866 1.362 . S
H868 C874 0.930 . S
H869 C877 0.930 . S
H870 C878 0.930 . S
H871 C879 0.930 . S
H872 C882 0.930 . S
H873 C883 0.930 . S
C874 H868 0.930 . S
C874 C875 1.355 . S
C874 C876 1.415 . S
C875 C874 1.355 . S
C875 C877 1.419 . S
C876 C874 1.415 . S
C876 C881 1.425 . S
C876 C883 1.409 . S
C877 H869 0.930 . S
C877 C875 1.419 . S
C877 C878 1.362 . S
C878 H870 0.930 . S
C878 C877 1.362 . S
C878 C881 1.409 . S
C879 H871 0.930 . S
C879 C880 1.355 . S
C879 C881 1.415 . S
C880 C879 1.355 . S
C880 C882 1.419 . S
C881 C876 1.425 . S
C881 C878 1.409 . S
C881 C879 1.415 . S
C882 H872 0.930 . S
C882 C880 1.419 . S
C882 C883 1.362 . S
C883 H873 0.930 . S
C883 C876 1.409 . S
C883 C882 1.362 . S
H884 C890 0.930 . S
H885 C893 0.930 . S
H886 C894 0.930 . S
H887 C895 0.930 . S
H888 C898 0.930 . S
H889 C899 0.930 . S
C890 H884 0.930 . S
C890 C891 1.355 . S
C890 C892 1.415 . S
C891 C890 1.355 . S
C891 C893 1.419 . S
C892 C890 1.415 . S
C892 C897 1.425 . S
C892 C899 1.409 . S
C893 H885 0.930 . S
C893 C891 1.419 . S
C893 C894 1.362 . S
C894 H886 0.930 . S
C894 C893 1.362 . S
C894 C897 1.409 . S
C895 H887 0.930 . S
C895 C896 1.355 . S
C895 C897 1.415 . S
C896 C895 1.355 . S
C896 C898 1.419 . S
C897 C892 1.425 . S
C897 C894 1.409 . S
C897 C895 1.415 . S
C898 H888 0.930 . S
C898 C896 1.419 . S
C898 C899 1.362 . S
C899 H889 0.930 . S
C899 C892 1.409 . S
C899 C898 1.362 . S
H900 C906 0.930 . S
H901 C909 0.930 . S
H902 C910 0.930 . S
H903 C911 0.930 . S
H904 C914 0.930 . S
H905 C915 0.930 . S
C906 H900 0.930 . S
C906 C907 1.355 . S
C906 C908 1.415 . S
C907 C906 1.355 . S
C907 C909 1.419 . S
C908 C906 1.415 . S
C908 C913 1.425 . S
C908 C915 1.409 . S
C909 H901 0.930 . S
C909 C907 1.419 . S
C909 C910 1.362 . S
C910 H902 0.930 . S
C910 C909 1.362 . S
C910 C913 1.409 . S
C911 H903 0.930 . S
C911 C912 1.355 . S
C911 C913 1.415 . S
C912 C911 1.355 . S
C912 C914 1.419 . S
C913 C908 1.425 . S
C913 C910 1.409 . S
C913 C911 1.415 . S
C914 H904 0.930 . S
C914 C912 1.419 . S
C914 C915 1.362 . S
C915 H905 0.930 . S
C915 C908 1.409 . S
C915 C914 1.362 . S
H916 C922 0.930 . S
H917 C925 0.930 . S
H918 C926 0.930 . S
H919 C927 0.930 . S
H920 C930 0.930 . S
H921 C931 0.930 . S
C922 H916 0.930 . S
C922 C923 1.355 . S
C922 C924 1.415 . S
C923 C922 1.355 . S
C923 C925 1.419 . S
C924 C922 1.415 . S
C924 C929 1.425 . S
C924 C931 1.409 . S
C925 H917 0.930 . S
C925 C923 1.419 . S
C925 C926 1.362 . S
C926 H918 0.930 . S
C926 C925 1.362 . S
C926 C929 1.409 . S
C927 H919 0.930 . S
C927 C928 1.355 . S
C927 C929 1.415 . S
C928 C927 1.355 . S
C928 C930 1.419 . S
C929 C924 1.425 . S
C929 C926 1.409 . S
C929 C927 1.415 . S
C930 H920 0.930 . S
C930 C928 1.419 . S
C930 C931 1.362 . S
C931 H921 0.930 . S
C931 C924 1.409 . S
C931 C930 1.362 . S
H932 C938 0.930 . S
H933 C941 0.930 . S
H934 C942 0.930 . S
H935 C943 0.930 . S
H936 C946 0.930 . S
H937 C947 0.930 . S
C938 H932 0.930 . S
C938 C939 1.355 . S
C938 C940 1.415 . S
C939 C938 1.355 . S
C939 C941 1.419 . S
C940 C938 1.415 . S
C940 C945 1.425 . S
C940 C947 1.409 . S
C941 H933 0.930 . S
C941 C939 1.419 . S
C941 C942 1.362 . S
C942 H934 0.930 . S
C942 C941 1.362 . S
C942 C945 1.409 . S
C943 H935 0.930 . S
C943 C944 1.355 . S
C943 C945 1.415 . S
C944 C943 1.355 . S
C944 C946 1.419 . S
C945 C940 1.425 . S
C945 C942 1.409 . S
C945 C943 1.415 . S
C946 H936 0.930 . S
C946 C944 1.419 . S
C946 C947 1.362 . S
C947 H937 0.930 . S
C947 C940 1.409 . S
C947 C946 1.362 . S
H948 C954 0.930 . S
H949 C957 0.930 . S
H950 C958 0.930 . S
H951 C959 0.930 . S
H952 C962 0.930 . S
H953 C963 0.930 . S
C954 H948 0.930 . S
C954 C955 1.355 . S
C954 C956 1.415 . S
C955 C954 1.355 . S
C955 C957 1.419 . S
C956 C954 1.415 . S
C956 C961 1.425 . S
C956 C963 1.409 . S
C957 H949 0.930 . S
C957 C955 1.419 . S
C957 C958 1.362 . S
C958 H950 0.930 . S
C958 C957 1.362 . S
C958 C961 1.409 . S
C959 H951 0.930 . S
C959 C960 1.355 . S
C959 C961 1.415 . S
C960 C959 1.355 . S
C960 C962 1.419 . S
C961 C956 1.425 . S
C961 C958 1.409 . S
C961 C959 1.415 . S
C962 H952 0.930 . S
C962 C960 1.419 . S
C962 C963 1.362 . S
C963 H953 0.930 . S
C963 C956 1.409 . S
C963 C962 1.362 . S
H964 C970 0.930 . S
H965 C973 0.930 . S
H966 C974 0.930 . S
H967 C975 0.930 . S
H968 C978 0.930 . S
H969 C979 0.930 . S
C970 H964 0.930 . S
C970 C971 1.355 . S
C970 C972 1.415 . S
C971 C970 1.355 . S
C971 C973 1.419 . S
C972 C970 1.415 . S
C972 C977 1.425 . S
C972 C979 1.409 . S
C973 H965 0.930 . S
C973 C971 1.419 . S
C973 C974 1.362 . S
C974 H966 0.930 . S
C974 C973 1.362 . S
C974 C977 1.409 . S
C975 H967 0.930 . S
C975 C976 1.355 . S
C975 C977 1.415 . S
C976 C975 1.355 . S
C976 C978 1.419 . S
C977 C972 1.425 . S
C977 C974 1.409 . S
C977 C975 1.415 . S
C978 H968 0.930 . S
C978 C976 1.419 . S
C978 C979 1.362 . S
C979 H969 0.930 . S
C979 C972 1.409 . S
C979 C978 1.362 . S
H980 C986 0.930 . S
H981 C989 0.930 . S
H982 C990 0.930 . S
H983 C991 0.930 . S
H984 C994 0.930 . S
H985 C995 0.930 . S
C986 H980 0.930 . S
C986 C987 1.355 . S
C986 C988 1.415 . S
C987 C986 1.355 . S
C987 C989 1.419 . S
C988 C986 1.415 . S
C988 C993 1.425 . S
C988 C995 1.409 . S
C989 H981 0.930 . S
C989 C987 1.419 . S
C989 C990 1.362 . S
C990 H982 0.930 . S
C990 C989 1.362 . S
C990 C993 1.409 . S
C991 H983 0.930 . S
C991 C992 1.355 . S
C991 C993 1.415 . S
C992 C991 1.355 . S
C992 C994 1.419 . S
C993 C988 1.425 . S
C993 C990 1.409 . S
C993 C991 1.415 . S
C994 H984 0.930 . S
C994 C992 1.419 . S
C994 C995 1.362 . S
C995 H985 0.930 . S
C995 C988 1.409 . S
C995 C994 1.362 . S
H996 C1002 0.930 . S
H997 C1005 0.930 . S
H998 C1006 0.930 . S
H999 C1007 0.930 . S
H1000 C1010 0.930 . S
H1001 C1011 0.930 . S
C1002 H996 0.930 . S
C1002 C1003 1.355 . S
C1002 C1004 1.415 . S
C1003 C1002 1.355 . S
C1003 C1005 1.419 . S
C1004 C1002 1.415 . S
C1004 C1009 1.425 . S
C1004 C1011 1.409 . S
C1005 H997 0.930 . S
C1005 C1003 1.419 . S
C1005 C1006 1.362 . S
C1006 H998 0.930 . S
C1006 C1005 1.362 . S
C1006 C1009 1.409 . S
C1007 H999 0.930 . S
C1007 C1008 1.355 . S
C1007 C1009 1.415 . S
C1008 C1007 1.355 . S
C1008 C1010 1.419 . S
C1009 C1004 1.425 . S
C1009 C1006 1.409 . S
C1009 C1007 1.415 . S
C1010 H1000 0.930 . S
C1010 C1008 1.419 . S
C1010 C1011 1.362 . S
C1011 H1001 0.930 . S
C1011 C1004 1.409 . S
C1011 C1010 1.362 . S
H1012 C1018 0.930 . S
H1013 C1021 0.930 . S
H1014 C1022 0.930 . S
H1015 C1023 0.930 . S
H1016 C1026 0.930 . S
H1017 C1027 0.930 . S
C1018 H1012 0.930 . S
C1018 C1019 1.355 . S
C1018 C1020 1.415 . S
C1019 C1018 1.355 . S
C1019 C1021 1.419 . S
C1020 C1018 1.415 . S
C1020 C1025 1.425 . S
C1020 C1027 1.409 . S
C1021 H1013 0.930 . S
C1021 C1019 1.419 . S
C1021 C1022 1.362 . S
C1022 H1014 0.930 . S
C1022 C1021 1.362 . S
C1022 C1025 1.409 . S
C1023 H1015 0.930 . S
C1023 C1024 1.355 . S
C1023 C1025 1.415 . S
C1024 C1023 1.355 . S
C1024 C1026 1.419 . S
C1025 C1020 1.425 . S
C1025 C1022 1.409 . S
C1025 C1023 1.415 . S
C1026 H1016 0.930 . S
C1026 C1024 1.419 . S
C1026 C1027 1.362 . S
C1027 H1017 0.930 . S
C1027 C1020 1.409 . S
C1027 C1026 1.362 . S
H1028 C1034 0.930 . S
H1029 C1037 0.930 . S
H1030 C1038 0.930 . S
H1031 C1039 0.930 . S
H1032 C1042 0.930 . S
H1033 C1043 0.930 . S
C1034 H1028 0.930 . S
C1034 C1035 1.355 . S
C1034 C1036 1.415 . S
C1035 C1034 1.355 . S
C1035 C1037 1.419 . S
C1036 C1034 1.415 . S
C1036 C1041 1.425 . S
C1036 C1043 1.409 . S
C1037 H1029 0.930 . S
C1037 C1035 1.419 . S
C1037 C1038 1.362 . S
C1038 H1030 0.930 . S
C1038 C1037 1.362 . S
C1038 C1041 1.409 . S
C1039 H1031 0.930 . S
C1039 C1040 1.355 . S
C1039 C1041 1.415 . S
C1040 C1039 1.355 . S
C1040 C1042 1.419 . S
C1041 C1036 1.425 . S
C1041 C1038 1.409 . S
C1041 C1039 1.415 . S
C1042 H1032 0.930 . S
C1042 C1040 1.419 . S
C1042 C1043 1.362 . S
C1043 H1033 0.930 . S
C1043 C1036 1.409 . S
C1043 C1042 1.362 . S
H1044 C1050 0.930 . S
H1045 C1053 0.930 . S
H1046 C1054 0.930 . S
H1047 C1055 0.930 . S
H1048 C1058 0.930 . S
H1049 C1059 0.930 . S
C1050 H1044 0.930 . S
C1050 C1051 1.355 . S
C1050 C1052 1.415 . S
C1051 C1050 1.355 . S
C1051 C1053 1.419 . S
C1052 C1050 1.415 . S
C1052 C1057 1.425 . S
C1052 C1059 1.409 . S
C1053 H1045 0.930 . S
C1053 C1051 1.419 . S
C1053 C1054 1.362 . S
C1054 H1046 0.930 . S
C1054 C1053 1.362 . S
C1054 C1057 1.409 . S
C1055 H1047 0.930 . S
C1055 C1056 1.355 . S
C1055 C1057 1.415 . S
C1056 C1055 1.355 . S
C1056 C1058 1.419 . S
C1057 C1052 1.425 . S
C1057 C1054 1.409 . S
C1057 C1055 1.415 . S
C1058 H1048 0.930 . S
C1058 C1056 1.419 . S
C1058 C1059 1.362 . S
C1059 H1049 0.930 . S
C1059 C1052 1.409 . S
C1059 C1058 1.362 . S
H1060 C1066 0.930 . S
H1061 C1069 0.930 . S
H1062 C1070 0.930 . S
H1063 C1071 0.930 . S
H1064 C1074 0.930 . S
H1065 C1075 0.930 . S
C1066 H1060 0.930 . S
C1066 C1067 1.355 . S
C1066 C1068 1.415 . S
C1067 C1066 1.355 . S
C1067 C1069 1.419 . S
C1068 C1066 1.415 . S
C1068 C1073 1.425 . S
C1068 C1075 1.409 . S
C1069 H1061 0.930 . S
C1069 C1067 1.419 . S
C1069 C1070 1.362 . S
C1070 H1062 0.930 . S
C1070 C1069 1.362 . S
C1070 C1073 1.409 . S
C1071 H1063 0.930 . S
C1071 C1072 1.355 . S
C1071 C1073 1.415 . S
C1072 C1071 1.355 . S
C1072 C1074 1.419 . S
C1073 C1068 1.425 . S
C1073 C1070 1.409 . S
C1073 C1071 1.415 . S
C1074 H1064 0.930 . S
C1074 C1072 1.419 . S
C1074 C1075 1.362 . S
C1075 H1065 0.930 . S
C1075 C1068 1.409 . S
C1075 C1074 1.362 . S
H1076 C1082 0.930 . S
H1077 C1085 0.930 . S
H1078 C1086 0.930 . S
H1079 C1087 0.930 . S
H1080 C1090 0.930 . S
H1081 C1091 0.930 . S
C1082 H1076 0.930 . S
C1082 C1083 1.355 . S
C1082 C1084 1.415 . S
C1083 C1082 1.355 . S
C1083 C1085 1.419 . S
C1084 C1082 1.415 . S
C1084 C1089 1.425 . S
C1084 C1091 1.409 . S
C1085 H1077 0.930 . S
C1085 C1083 1.419 . S
C1085 C1086 1.362 . S
C1086 H1078 0.930 . S
C1086 C1085 1.362 . S
C1086 C1089 1.409 . S
C1087 H1079 0.930 . S
C1087 C1088 1.355 . S
C1087 C1089 1.415 . S
C1088 C1087 1.355 . S
C1088 C1090 1.419 . S
C1089 C1084 1.425 . S
C1089 C1086 1.409 . S
C1089 C1087 1.415 . S
C1090 H1080 0.930 . S
C1090 C1088 1.419 . S
C1090 C1091 1.362 . S
C1091 H1081 0.930 . S
C1091 C1084 1.409 . S
C1091 C1090 1.362 . S
H1092 C1098 0.930 . S
H1093 C1101 0.930 . S
H1094 C1102 0.930 . S
H1095 C1103 0.930 . S
H1096 C1106 0.930 . S
H1097 C1107 0.930 . S
C1098 H1092 0.930 . S
C1098 C1099 1.355 . S
C1098 C1100 1.415 . S
C1099 C1098 1.355 . S
C1099 C1101 1.419 . S
C1100 C1098 1.415 . S
C1100 C1105 1.425 . S
C1100 C1107 1.409 . S
C1101 H1093 0.930 . S
C1101 C1099 1.419 . S
C1101 C1102 1.362 . S
C1102 H1094 0.930 . S
C1102 C1101 1.362 . S
C1102 C1105 1.409 . S
C1103 H1095 0.930 . S
C1103 C1104 1.355 . S
C1103 C1105 1.415 . S
C1104 C1103 1.355 . S
C1104 C1106 1.419 . S
C1105 C1100 1.425 . S
C1105 C1102 1.409 . S
C1105 C1103 1.415 . S
C1106 H1096 0.930 . S
C1106 C1104 1.419 . S
C1106 C1107 1.362 . S
C1107 H1097 0.930 . S
C1107 C1100 1.409 . S
C1107 C1106 1.362 . S
H1108 C1114 0.930 . S
H1109 C1117 0.930 . S
H1110 C1118 0.930 . S
H1111 C1119 0.930 . S
H1112 C1122 0.930 . S
H1113 C1123 0.930 . S
C1114 H1108 0.930 . S
C1114 C1115 1.355 . S
C1114 C1116 1.415 . S
C1115 C1114 1.355 . S
C1115 C1117 1.419 . S
C1116 C1114 1.415 . S
C1116 C1121 1.425 . S
C1116 C1123 1.409 . S
C1117 H1109 0.930 . S
C1117 C1115 1.419 . S
C1117 C1118 1.362 . S
C1118 H1110 0.930 . S
C1118 C1117 1.362 . S
C1118 C1121 1.409 . S
C1119 H1111 0.930 . S
C1119 C1120 1.355 . S
C1119 C1121 1.415 . S
C1120 C1119 1.355 . S
C1120 C1122 1.419 . S
C1121 C1116 1.425 . S
C1121 C1118 1.409 . S
C1121 C1119 1.415 . S
C1122 H1112 0.930 . S
C1122 C1120 1.419 . S
C1122 C1123 1.362 . S
C1123 H1113 0.930 . S
C1123 C1116 1.409 . S
C1123 C1122 1.362 . S
H1124 C1130 0.930 . S
H1125 C1133 0.930 . S
H1126 C1134 0.930 . S
H1127 C1135 0.930 . S
H1128 C1138 0.930 . S
H1129 C1139 0.930 . S
C1130 H1124 0.930 . S
C1130 C1131 1.355 . S
C1130 C1132 1.415 . S
C1131 C1130 1.355 . S
C1131 C1133 1.419 . S
C1132 C1130 1.415 . S
C1132 C1137 1.425 . S
C1132 C1139 1.409 . S
C1133 H1125 0.930 . S
C1133 C1131 1.419 . S
C1133 C1134 1.362 . S
C1134 H1126 0.930 . S
C1134 C1133 1.362 . S
C1134 C1137 1.409 . S
C1135 H1127 0.930 . S
C1135 C1136 1.355 . S
C1135 C1137 1.415 . S
C1136 C1135 1.355 . S
C1136 C1138 1.419 . S
C1137 C1132 1.425 . S
C1137 C1134 1.409 . S
C1137 C1135 1.415 . S
C1138 H1128 0.930 . S
C1138 C1136 1.419 . S
C1138 C1139 1.362 . S
C1139 H1129 0.930 . S
C1139 C1132 1.409 . S
C1139 C1138 1.362 . S
H1140 C1146 0.930 . S
H1141 C1149 0.930 . S
H1142 C1150 0.930 . S
H1143 C1151 0.930 . S
H1144 C1154 0.930 . S
H1145 C1155 0.930 . S
C1146 H1140 0.930 . S
C1146 C1147 1.355 . S
C1146 C1148 1.415 . S
C1147 C1146 1.355 . S
C1147 C1149 1.419 . S
C1148 C1146 1.415 . S
C1148 C1153 1.425 . S
C1148 C1155 1.409 . S
C1149 H1141 0.930 . S
C1149 C1147 1.419 . S
C1149 C1150 1.362 . S
C1150 H1142 0.930 . S
C1150 C1149 1.362 . S
C1150 C1153 1.409 . S
C1151 H1143 0.930 . S
C1151 C1152 1.355 . S
C1151 C1153 1.415 . S
C1152 C1151 1.355 . S
C1152 C1154 1.419 . S
C1153 C1148 1.425 . S
C1153 C1150 1.409 . S
C1153 C1151 1.415 . S
C1154 H1144 0.930 . S
C1154 C1152 1.419 . S
C1154 C1155 1.362 . S
C1155 H1145 0.930 . S
C1155 C1148 1.409 . S
C1155 C1154 1.362 . S
H1156 C1162 0.930 . S
H1157 C1165 0.930 . S
H1158 C1166 0.930 . S
H1159 C1167 0.930 . S
H1160 C1170 0.930 . S
H1161 C1171 0.930 . S
C1162 H1156 0.930 . S
C1162 C1163 1.355 . S
C1162 C1164 1.415 . S
C1163 C1162 1.355 . S
C1163 C1165 1.419 . S
C1164 C1162 1.415 . S
C1164 C1169 1.425 . S
C1164 C1171 1.409 . S
C1165 H1157 0.930 . S
C1165 C1163 1.419 . S
C1165 C1166 1.362 . S
C1166 H1158 0.930 . S
C1166 C1165 1.362 . S
C1166 C1169 1.409 . S
C1167 H1159 0.930 . S
C1167 C1168 1.355 . S
C1167 C1169 1.415 . S
C1168 C1167 1.355 . S
C1168 C1170 1.419 . S
C1169 C1164 1.425 . S
C1169 C1166 1.409 . S
C1169 C1167 1.415 . S
C1170 H1160 0.930 . S
C1170 C1168 1.419 . S
C1170 C1171 1.362 . S
C1171 H1161 0.930 . S
C1171 C1164 1.409 . S
C1171 C1170 1.362 . S
H1172 C1178 0.930 . S
H1173 C1181 0.930 . S
H1174 C1182 0.930 . S
H1175 C1183 0.930 . S
H1176 C1186 0.930 . S
H1177 C1187 0.930 . S
C1178 H1172 0.930 . S
C1178 C1179 1.355 . S
C1178 C1180 1.415 . S
C1179 C1178 1.355 . S
C1179 C1181 1.419 . S
C1180 C1178 1.415 . S
C1180 C1185 1.425 . S
C1180 C1187 1.409 . S
C1181 H1173 0.930 . S
C1181 C1179 1.419 . S
C1181 C1182 1.362 . S
C1182 H1174 0.930 . S
C1182 C1181 1.362 . S
C1182 C1185 1.409 . S
C1183 H1175 0.930 . S
C1183 C1184 1.355 . S
C1183 C1185 1.415 . S
C1184 C1183 1.355 . S
C1184 C1186 1.419 . S
C1185 C1180 1.425 . S
C1185 C1182 1.409 . S
C1185 C1183 1.415 . S
C1186 H1176 0.930 . S
C1186 C1184 1.419 . S
C1186 C1187 1.362 . S
C1187 H1177 0.930 . S
C1187 C1180 1.409 . S
C1187 C1186 1.362 . S
H1188 C1194 0.930 . S
H1189 C1197 0.930 . S
H1190 C1198 0.930 . S
H1191 C1199 0.930 . S
H1192 C1202 0.930 . S
H1193 C1203 0.930 . S
C1194 H1188 0.930 . S
C1194 C1195 1.355 . S
C1194 C1196 1.415 . S
C1195 C1194 1.355 . S
C1195 C1197 1.419 . S
C1196 C1194 1.415 . S
C1196 C1201 1.425 . S
C1196 C1203 1.409 . S
C1197 H1189 0.930 . S
C1197 C1195 1.419 . S
C1197 C1198 1.362 . S
C1198 H1190 0.930 . S
C1198 C1197 1.362 . S
C1198 C1201 1.409 . S
C1199 H1191 0.930 . S
C1199 C1200 1.355 . S
C1199 C1201 1.415 . S
C1200 C1199 1.355 . S
C1200 C1202 1.419 . S
C1201 C1196 1.425 . S
C1201 C1198 1.409 . S
C1201 C1199 1.415 . S
C1202 H1192 0.930 . S
C1202 C1200 1.419 . S
C1202 C1203 1.362 . S
C1203 H1193 0.930 . S
C1203 C1196 1.409 . S
C1203 C1202 1.362 . S
C448 C278 1.636 . S
C443 N2 1.648 . S
C464 C304 2.259 . S
C459 C7 2.300 . S
C480 C317 1.725 . S
C475 N12 1.690 . S
C491 C16 1.712 . S
C496 C345 1.736 . S
C512 C365 2.382 . S
C507 C30 2.364 . S
C528 C378 1.501 . S
C523 N35 1.517 . S
C539 C39 1.848 . S
C544 C404 1.794 . S
C560 C417 1.483 . S
C555 N25 1.470 . S
C576 C294 1.292 . S
C571 N58 1.226 . S
C587 N81 1.494 . S
C592 C315 1.519 . S
C608 C324 1.308 . S
C603 N104 1.272 . S
C619 N127 1.260 . S
C624 C338 1.296 . S
C640 C358 0.943 . S
C635 N48 1.080 . S
C656 C394 1.591 . S
C651 N71 1.547 . S
C667 N94 1.099 . S
C672 C415 1.124 . S
C688 C424 1.710 . S
C683 N117 1.721 . S
C699 C85 2.111 . S
C704 C285 2.091 . S
C715 C122 1.879 . S
C720 C374 1.856 . S
C731 C53 1.850 . S
C736 C385 1.773 . S
C752 C397 1.485 . S
C747 C76 1.540 . S
C768 C435 1.725 . S
C763 C99 1.717 . S
C784 C335 1.903 . S
C779 C131 1.862 . S
C800 C354 1.381 . S
C795 C62 1.377 . S
C811 C108 1.260 . S
C816 C297 1.227 . S
C832 C418 1.745 . S
C827 N140 1.756 . S
C843 C145 2.285 . S
C848 C364 2.274 . S
C864 C377 1.655 . S
C859 N150 1.607 . S
C875 C154 1.711 . S
C880 C405 1.731 . S
C896 C305 2.386 . S
C891 C168 2.392 . S
C907 N173 1.403 . S
C912 C318 1.409 . S
C928 C344 1.771 . S
C923 C177 1.833 . S
C944 C277 1.591 . S
C939 N163 1.527 . S
C960 C434 1.703 . S
C955 C200 1.730 . S
C976 C375 1.805 . S
C971 N219 1.762 . S
C987 N242 1.486 . S
C992 C384 1.540 . S
C1008 C398 1.520 . S
C1003 C269 1.594 . S
C1024 C298 1.290 . S
C1019 C191 1.385 . S
C1035 N209 1.771 . S
C1040 C334 1.780 . S
C1051 N232 1.401 . S
C1056 C355 1.386 . S
C1067 C260 2.173 . S
C1072 C284 2.132 . S
C1083 C223 1.857 . S
C1088 C425 1.847 . S
C1099 N255 1.380 . S
C1104 C314 1.455 . S
C1115 N186 1.281 . S
C1120 C325 1.305 . S
C1136 C337 1.232 . S
C1131 C214 1.245 . S
C1152 C295 1.417 . S
C1147 C237 1.415 . S
C1168 C395 1.506 . S
C1163 N265 1.469 . S
C1184 C414 1.012 . S
C1179 N196 1.060 . S
C1200 C357 0.894 . S
C1195 C246 0.938 . S
