# Generated by pormake.
# Topology tsx, (6,3)-cn, num edge types: 1
# Building blocks:
#     Node 0, Type 0, BuildingBlock: VOLQOD_clean_sbu_1, # of connection points: 6
#     Node 1, Type 0, BuildingBlock: VOLQOD_clean_sbu_1, # of connection points: 6
#     Node 2, Type 1, BuildingBlock: OLANEW_clean_sbu_2, # of connection points: 3
#     Node 3, Type 1, BuildingBlock: OLANEW_clean_sbu_2, # of connection points: 3
#     Node 4, Type 1, BuildingBlock: OLANEW_clean_sbu_2, # of connection points: 3
#     Node 5, Type 1, BuildingBlock: OLANEW_clean_sbu_2, # of connection points: 3
#     Edge 6, Type (0, 1), BuildingBlock: KIFKEQ_clean_linker_1, # of connection points: 2
#     Edge 7, Type (0, 1), BuildingBlock: KIFKEQ_clean_linker_1, # of connection points: 2
#     Edge 8, Type (0, 1), BuildingBlock: KIFKEQ_clean_linker_1, # of connection points: 2
#     Edge 9, Type (0, 1), BuildingBlock: KIFKEQ_clean_linker_1, # of connection points: 2
#     Edge 10, Type (0, 1), BuildingBlock: KIFKEQ_clean_linker_1, # of connection points: 2
#     Edge 11, Type (0, 1), BuildingBlock: KIFKEQ_clean_linker_1, # of connection points: 2
#     Edge 12, Type (0, 1), BuildingBlock: KIFKEQ_clean_linker_1, # of connection points: 2
#     Edge 13, Type (0, 1), BuildingBlock: KIFKEQ_clean_linker_1, # of connection points: 2
#     Edge 14, Type (0, 1), BuildingBlock: KIFKEQ_clean_linker_1, # of connection points: 2
#     Edge 15, Type (0, 1), BuildingBlock: KIFKEQ_clean_linker_1, # of connection points: 2
#     Edge 16, Type (0, 1), BuildingBlock: KIFKEQ_clean_linker_1, # of connection points: 2
#     Edge 17, Type (0, 1), BuildingBlock: KIFKEQ_clean_linker_1, # of connection points: 2
# Relax obj value: 0.029
# Max RMSD: 0.075
# Mean RMSD: 0.070
data_MOF--net-tsx--node1-VOLQOD_clean_sbu_1--node2-OLANEW_clean_sbu_2--edge1-KIFKEQ_clean_linker_1
_symmetry_space_group_name_H-M    P1
_symmetry_Int_Tables_number       1
_symmetry_cell_setting            triclinic
loop_
_symmetry_equiv_pos_as_xyz
'x, y, z'
_cell_length_a     23.699714
_cell_length_b     24.23512
_cell_length_c     40.256709
_cell_angle_alpha  95.705967
_cell_angle_beta   90.344366
_cell_angle_gamma 89.973654
loop_
_atom_site_label
_atom_site_type_symbol
_atom_site_fract_x
_atom_site_fract_y
_atom_site_fract_z
_atom_type_partial_charge
O0 O 0.03572 -0.00329 0.07204 0.0
Zn1 Zn 0.05508 -0.00224 0.02375 0.0
O2 O -0.01267 0.00475 -0.00319 0.0
Zn3 Zn 0.97744 0.93796 0.96561 0.0
Zn4 Zn 0.92169 0.01516 0.02617 0.0
Zn5 Zn -0.00392 0.0688 0.97154 0.0
O6 O 0.9793 0.95597 0.91744 0.0
O7 O 0.00199 0.0453 0.92246 0.0
O8 O 0.09805 0.92803 0.00899 0.0
O9 O 0.04158 0.88492 0.97057 0.0
O10 O 0.90571 0.89718 0.97502 0.0
O11 O 0.86933 0.95005 0.0178 0.0
O12 O 0.87729 0.08382 0.01698 0.0
O13 O 0.10663 0.06281 0.02148 0.0
O14 O 0.92867 0.11863 0.97804 0.0
O15 O 0.06531 0.11373 0.98547 0.0
C16 C -0.00884 0.00678 0.08907 0.0
C17 C -0.00755 6e-05 0.90442 0.0
C18 C 0.86764 0.90682 -0.00293 0.0
C19 C 0.08662 0.88659 0.98805 0.0
C20 C 0.8853 0.12018 -0.00336 0.0
C21 C 0.10541 0.10563 0.00559 0.0
O22 O 0.94444 0.01733 0.07511 0.0
O23 O 0.54659 0.49927 0.56813 0.0
Zn24 Zn 0.56353 0.49769 0.51926 0.0
O25 O 0.4937 0.50301 0.4937 0.0
Zn26 Zn 0.48366 0.43438 0.46405 0.0
Zn27 Zn 0.42938 0.51407 0.52401 0.0
Zn28 Zn 0.49884 0.56653 0.46757 0.0
O29 O 0.48432 0.4502 0.41559 0.0
O30 O 0.50104 0.54086 0.41865 0.0
O31 O 0.60647 0.42735 0.50535 0.0
O32 O 0.54854 0.382 0.46878 0.0
O33 O 0.41274 0.39341 0.47536 0.0
O34 O 0.37862 0.44704 0.51856 0.0
O35 O 0.38168 0.58041 0.51403 0.0
O36 O 0.61514 0.562 0.51354 0.0
O37 O 0.43093 0.61591 0.47454 0.0
O38 O 0.56891 0.61218 0.47904 0.0
C39 C 0.50299 0.5113 0.58573 0.0
C40 C 0.49362 0.49427 0.40161 0.0
C41 C 0.37628 0.40309 0.49839 0.0
C42 C 0.5945 0.38483 0.48539 0.0
C43 C 0.38791 0.61658 0.49338 0.0
C44 C 0.61174 0.60437 0.49728 0.0
O45 O 0.4557 0.52157 0.57231 0.0
O46 O -0.00989 0.94283 0.35121 0.0
Cd47 Cd -0.01227 0.93815 0.41189 0.0
O48 O 0.02322 0.02807 0.35631 0.0
Cd49 Cd 0.00095 0.04301 0.40894 0.0
O50 O 0.93521 0.09043 0.43688 0.0
C51 C 0.8927 0.09983 0.41885 0.0
O52 O 0.89226 0.07887 0.38746 0.0
C53 C 0.00931 0.98443 0.33793 0.0
C54 C 0.07358 0.8717 0.43484 0.0
O55 O 0.02522 0.85122 0.42617 0.0
O56 O 0.08145 0.92351 0.43254 0.0
O57 O 0.0292 0.02808 0.63854 0.0
Cd58 Cd 0.0315 0.02672 0.57753 0.0
O59 O 0.04076 0.93783 0.63754 0.0
Cd60 Cd 0.02615 0.92002 0.58398 0.0
O61 O 0.97024 0.8702 0.54967 0.0
C62 C 0.91901 0.88529 0.54803 0.0
O63 O 0.90373 0.93255 0.56434 0.0
C64 C 0.03611 0.98519 0.65395 0.0
C65 C 0.10334 0.10781 0.55634 0.0
O66 O 0.05125 0.1183 0.56263 0.0
O67 O 0.12154 0.05899 0.56012 0.0
O68 O 0.51424 0.45866 0.8482 0.0
Cd69 Cd 0.50374 0.45315 0.90835 0.0
O70 O 0.51674 0.54983 0.85451 0.0
Cd71 Cd 0.49674 0.55793 0.90749 0.0
O72 O 0.42977 0.59906 0.93731 0.0
C73 C 0.3853 0.60484 0.92021 0.0
O74 O 0.38423 0.58356 0.88887 0.0
C75 C 0.5189 0.50459 0.83567 0.0
C76 C 0.58431 0.38483 0.93423 0.0
O77 O 0.53668 0.36535 0.92331 0.0
O78 O 0.59383 0.43661 0.93283 0.0
O79 O 0.53521 0.52678 0.13776 0.0
Cd80 Cd 0.53069 0.52791 0.07702 0.0
O81 O 0.53754 0.43561 0.13357 0.0
Cd82 Cd 0.52437 0.42485 0.07973 0.0
O83 O 0.45648 0.3847 0.04985 0.0
C84 C 0.41091 0.38468 0.06631 0.0
O85 O 0.40995 0.41088 0.09651 0.0
C86 C 0.5379 0.48181 0.15151 0.0
C87 C 0.59905 0.60932 0.05392 0.0
O88 O 0.54766 0.61963 0.06214 0.0
O89 O 0.61813 0.56049 0.05675 0.0
H90 H 0.13387 0.18882 0.96726 0.0
H91 H 0.17838 0.11772 0.05823 0.0
H92 H 0.20655 0.2602 0.9794 0.0
H93 H 0.2499 0.18912 0.0703 0.0
H94 H 0.31649 0.36287 0.1007 0.0
H95 H 0.24175 0.29712 0.08363 0.0
H96 H 0.31984 0.2618 0.98731 0.0
H97 H 0.39576 0.32752 0.00446 0.0
C98 C 0.15912 0.18837 0.98975 0.0
C99 C 0.15034 0.14773 0.01183 0.0
C100 C 0.20071 0.229 -0.00343 0.0
C101 C 0.23329 0.23017 0.02586 0.0
C102 C 0.22484 0.18933 0.04771 0.0
C103 C 0.18412 0.14832 0.04067 0.0
C104 C 0.31762 0.34169 0.07573 0.0
C105 C 0.3624 0.34999 0.05404 0.0
C106 C 0.27488 0.30391 0.06605 0.0
C107 C 0.27555 0.27417 0.03435 0.0
C108 C 0.31854 0.28439 0.0119 0.0
C109 C 0.36192 0.32181 0.02175 0.0
H110 H 0.19662 0.88467 0.00896 0.0
H111 H 0.06884 0.78379 0.95539 0.0
H112 H 0.26593 0.8117 -0.00427 0.0
H113 H 0.13756 0.71006 0.94321 0.0
H114 H 0.29 0.63155 0.88742 0.0
H115 H 0.21613 0.69547 0.90722 0.0
H116 H 0.29775 0.71993 0.00389 0.0
H117 H 0.37325 0.65689 0.98353 0.0
C118 C 0.18309 0.84654 -0.00516 0.0
C119 C 0.12739 0.84032 0.98287 0.0
C120 C 0.22277 0.8045 0.98744 0.0
C121 C 0.20749 0.75511 0.96815 0.0
C122 C 0.1511 0.74801 0.9575 0.0
C123 C 0.11161 0.79022 0.96461 0.0
C124 C 0.29207 0.65008 0.91301 0.0
C125 C 0.33774 0.63939 0.93383 0.0
C126 C 0.24935 0.68654 0.92448 0.0
C127 C 0.2509 0.71297 0.95718 0.0
C128 C 0.29568 0.70088 0.97841 0.0
C129 C 0.33874 0.6645 0.96683 0.0
H130 H 0.77808 0.91514 0.0397 0.0
H131 H 0.85618 0.80362 0.96289 0.0
H132 H 0.71098 0.84328 0.05028 0.0
H133 H 0.78801 0.73186 0.97315 0.0
H134 H 0.70975 0.60051 0.03544 0.0
H135 H 0.77081 0.67309 0.01804 0.0
H136 H 0.63157 0.78863 0.02717 0.0
H137 H 0.57071 0.71631 0.04519 0.0
C138 C 0.78048 0.87556 0.0247 0.0
C139 C 0.82287 0.8651 0.00059 0.0
C140 C 0.7417 0.8344 0.03067 0.0
C141 C 0.74431 0.78171 0.0127 0.0
C142 C 0.78541 0.77179 0.98776 0.0
C143 C 0.82422 0.81307 0.98171 0.0
C144 C 0.69207 0.64132 0.03359 0.0
C145 C 0.63547 0.65272 0.04192 0.0
C146 C 0.72698 0.68283 0.02336 0.0
C147 C 0.70608 0.73668 0.02123 0.0
C148 C 0.64915 0.74775 0.02894 0.0
C149 C 0.61423 0.70624 0.03916 0.0
H150 H 0.89463 0.21117 0.9622 0.0
H151 H 0.77771 0.12655 0.02174 0.0
H152 H 0.8213 0.27686 0.95071 0.0
H153 H 0.70423 0.19316 0.01047 0.0
H154 H 0.69039 0.41312 0.95694 0.0
H155 H 0.76274 0.35236 0.97662 0.0
H156 H 0.64835 0.21338 0.96101 0.0
H157 H 0.57569 0.27421 0.94174 0.0
C158 C 0.85345 0.20693 0.9732 0.0
C159 C 0.84202 0.16332 -0.00724 0.0
C160 C 0.81146 0.2449 0.96676 0.0
C161 C 0.75687 0.24015 0.97958 0.0
C162 C 0.74574 0.19752 -7e-05 0.0
C163 C 0.78795 0.15962 0.00657 0.0
C164 C 0.68052 0.36968 0.95789 0.0
C165 C 0.62739 0.34844 0.94755 0.0
C166 C 0.72206 0.33484 0.96908 0.0
C167 C 0.71135 0.27802 0.97028 0.0
C168 C 0.65773 0.25707 0.96074 0.0
C169 C 0.61623 0.29188 0.94945 0.0
H170 H 0.71389 0.59594 0.52822 0.0
H171 H 0.61539 0.70578 0.47247 0.0
H172 H 0.78912 0.66442 0.53472 0.0
H173 H 0.69132 0.77424 0.47877 0.0
H174 H 0.80582 0.90368 0.542 0.0
H175 H 0.73284 0.83561 0.52526 0.0
H176 H 0.86077 0.71062 0.50306 0.0
H177 H 0.93393 0.77853 0.52018 0.0
C178 C 0.70837 0.63453 0.51713 0.0
C179 C 0.65837 0.64541 0.49997 0.0
C180 C 0.7518 0.67363 0.52062 0.0
C181 C 0.74628 0.72471 0.50717 0.0
C182 C 0.69665 0.7354 0.48961 0.0
C183 C 0.65325 0.69608 0.48592 0.0
C184 C 0.81851 0.86191 0.53306 0.0
C185 C 0.8757 0.84641 0.53283 0.0
C186 C 0.77663 0.82294 0.52332 0.0
C187 C 0.791 0.76756 0.51321 0.0
C188 C 0.84835 0.75277 0.51128 0.0
C189 C 0.89027 0.7918 0.52089 0.0
H190 H 0.70445 0.38309 0.5068 0.0
H191 H 0.57795 0.2823 0.45198 0.0
H192 H 0.77434 0.31057 0.49349 0.0
H193 H 0.64729 0.20925 0.43957 0.0
H194 H 0.80019 0.13048 0.38482 0.0
H195 H 0.7271 0.19586 0.40397 0.0
H196 H 0.80567 0.21788 0.50155 0.0
H197 H 0.88029 0.15311 0.48194 0.0
C198 C 0.69131 0.34514 0.49235 0.0
C199 C 0.63573 0.33881 0.48013 0.0
C200 C 0.73135 0.30337 0.48488 0.0
C201 C 0.71663 0.25421 0.46519 0.0
C202 C 0.66042 0.24703 0.4542 0.0
C203 C 0.62055 0.28887 0.46146 0.0
C204 C 0.80184 0.14888 0.41045 0.0
C205 C 0.84626 0.13669 0.4318 0.0
C206 C 0.75955 0.18619 0.42154 0.0
C207 C 0.76031 0.21214 0.45436 0.0
C208 C 0.80415 0.19912 0.476 0.0
C209 C 0.84671 0.16176 0.46483 0.0
H210 H 0.3649 0.29833 0.46616 0.0
H211 H 0.28837 0.41225 0.54231 0.0
H212 H 0.29693 0.22714 0.47778 0.0
H213 H 0.22128 0.34097 0.55416 0.0
H214 H 0.21494 0.09755 0.53971 0.0
H215 H 0.27814 0.16923 0.52316 0.0
H216 H 0.14093 0.2871 0.53091 0.0
H217 H 0.0779 0.21567 0.54794 0.0
C218 C 0.33339 0.30839 0.48519 0.0
C219 C 0.33231 0.36106 0.50335 0.0
C220 C 0.29469 0.26742 0.49201 0.0
C221 C 0.25382 0.27824 0.51702 0.0
C222 C 0.25179 0.33136 0.53451 0.0
C223 C 0.29055 0.3722 0.5278 0.0
C224 C 0.19819 0.13871 0.5378 0.0
C225 C 0.1414 0.15091 0.54531 0.0
C226 C 0.23435 0.17972 0.52807 0.0
C227 C 0.21462 0.23395 0.52571 0.0
C228 C 0.15765 0.24594 0.53285 0.0
C229 C 0.12145 0.2049 0.54248 0.0
H230 H 0.3919 0.7054 0.45663 0.0
H231 H 0.28162 0.62164 0.52049 0.0
H232 H 0.31587 0.7684 0.44539 0.0
H233 H 0.20547 0.68555 0.5095 0.0
H234 H 0.06879 0.76144 0.44418 0.0
H235 H 0.14482 0.70277 0.46177 0.0
H236 H 0.25732 0.84371 0.47078 0.0
H237 H 0.18156 0.90223 0.45273 0.0
C238 C 0.35162 0.70077 0.46862 0.0
C239 C 0.34292 0.65817 0.48937 0.0
C240 C 0.30803 0.7372 0.46229 0.0
C241 C 0.25447 0.73196 0.47644 0.0
C242 C 0.24606 0.69029 0.49788 0.0
C243 C 0.28985 0.65392 0.50438 0.0
C244 C 0.10968 0.77998 0.45003 0.0
C245 C 0.11916 0.83648 0.44681 0.0
C246 C 0.15317 0.74641 0.46037 0.0
C247 C 0.20723 0.76849 0.46764 0.0
C248 C 0.21639 0.82522 0.46498 0.0
C249 C 0.17287 0.85882 0.45474 0.0
H250 H 0.08533 0.01249 0.12853 0.0
H251 H 0.90401 -0.00437 0.13245 0.0
H252 H 0.09149 0.00507 0.1884 0.0
H253 H 0.91046 0.9879 0.19254 0.0
H254 H 0.95632 0.91282 0.29086 0.0
H255 H 0.95183 0.91858 0.23058 0.0
H256 H 0.06071 0.06204 0.24159 0.0
H257 H 0.06504 0.05668 0.30177 0.0
C258 C 0.04675 0.00729 0.14217 0.0
C259 C -0.00586 0.00466 0.1257 0.0
C260 C 0.05033 0.00323 0.17648 0.0
C261 C 0.00151 -0.00432 0.19507 0.0
C262 C 0.94883 -0.00686 0.17872 0.0
C263 C 0.94513 -0.00197 0.1444 0.0
C264 C 0.9798 0.94523 0.28039 0.0
C265 C 0.01106 0.98429 0.30112 0.0
C266 C 0.97677 0.9488 0.24594 0.0
C267 C 0.00562 -0.00904 0.23147 0.0
C268 C 0.03822 0.02898 0.25205 0.0
C269 C 0.04062 0.02591 0.28651 0.0
H270 H 0.03319 0.08187 0.86902 0.0
H271 H 0.96649 0.91507 0.85658 0.0
H272 H 0.04708 0.07889 0.80911 0.0
H273 H 0.97877 0.91277 0.7964 0.0
H274 H 0.0081 0.07538 0.69722 0.0
H275 H -0.00293 0.07918 0.75754 0.0
H276 H 0.05065 0.9083 0.75479 0.0
H277 H 0.05998 0.90403 0.69443 0.0
C278 C 0.02096 0.04468 0.85349 0.0
C279 C -0.00128 -0.00134 0.8677 0.0
C280 C 0.02873 0.0431 0.81903 0.0
C281 C 0.01416 -0.00441 0.79782 0.0
C282 C -0.0086 0.94972 0.812 0.0
C283 C 0.98394 0.95117 0.84653 0.0
C284 C 0.01797 0.03876 0.70951 0.0
C285 C 0.03472 0.98936 0.69094 0.0
C286 C 0.01178 0.04096 0.74416 0.0
C287 C 0.02255 -0.0061 0.76109 0.0
C288 C 0.04083 0.94499 0.74255 0.0
C289 C 0.04667 0.94269 0.70792 0.0
H290 H 0.58679 0.46682 0.62155 0.0
H291 H 0.42895 0.55597 0.63305 0.0
H292 H 0.59335 0.46528 0.68197 0.0
H293 H 0.43599 0.55465 0.69358 0.0
H294 H 0.50436 0.59427 0.80065 0.0
H295 H 0.50184 0.59627 0.74026 0.0
H296 H 0.53757 0.42083 0.72709 0.0
H297 H 0.53969 0.41844 0.78775 0.0
C298 C 0.55361 0.48633 0.63695 0.0
C299 C 0.50733 0.51162 0.62247 0.0
C300 C 0.55729 0.48509 0.67152 0.0
C301 C 0.51522 0.50982 0.69239 0.0
C302 C 0.46923 0.53562 0.67803 0.0
C303 C 0.4651 0.53616 0.64339 0.0
C304 C 0.51219 0.55612 0.78496 0.0
C305 C 0.52219 0.50613 0.79904 0.0
C306 C 0.5103 0.55729 0.75037 0.0
C307 C 0.51915 0.50868 0.72906 0.0
C308 C 0.5308 0.45896 0.74302 0.0
C309 C 0.5319 0.45759 0.77769 0.0
H310 H 0.47748 0.57751 0.36172 0.0
H311 H 0.52258 0.40448 0.35875 0.0
H312 H 0.48972 0.57388 0.30159 0.0
H313 H 0.53815 0.40132 0.29891 0.0
H314 H 0.50626 0.39793 0.1875 0.0
H315 H 0.49444 0.4007 0.24741 0.0
H316 H 0.55592 0.56964 0.25902 0.0
H317 H 0.56447 0.56761 0.19857 0.0
C318 C 0.49034 0.53873 0.34817 0.0
C319 C 0.4988 0.49121 0.3649 0.0
C320 C 0.49799 0.53673 0.31368 0.0
C321 C 0.51539 0.4874 0.29514 0.0
C322 C 0.52378 0.43984 0.31206 0.0
C323 C 0.51503 0.4416 0.34646 0.0
C324 C 0.51769 0.43556 0.20286 0.0
C325 C 0.53628 0.4826 0.18829 0.0
C326 C 0.51115 0.4371 0.23737 0.0
C327 C 0.52405 0.48543 0.25835 0.0
C328 C 0.54428 0.53204 0.24374 0.0
C329 C 0.54978 0.5308 0.20908 0.0
loop_
_geom_bond_atom_site_label_1
_geom_bond_atom_site_label_2
_geom_bond_distance
_geom_bond_site_symmetry_2
_ccdc_geom_bond_type
O0 Zn1 1.953 . S
O0 C16 1.225 1_565 S
Zn1 O0 1.953 . S
Zn1 O2 1.948 1_565 S
Zn1 O8 1.919 . S
Zn1 O13 1.924 1_565 S
O2 Zn1 1.948 1_545 S
O2 Zn3 1.923 1_444 S
O2 Zn4 1.950 1_455 S
O2 Zn5 1.945 1_554 S
Zn3 O2 1.923 1_666 S
Zn3 O6 1.933 . S
Zn3 O9 1.941 1_655 S
Zn3 O10 1.965 . S
Zn4 O2 1.950 1_655 S
Zn4 O11 1.938 1_545 S
Zn4 O12 1.906 . S
Zn4 O22 1.953 . S
Zn5 O2 1.945 1_556 S
Zn5 O7 1.932 . S
Zn5 O14 1.977 1_455 S
Zn5 O15 1.910 . S
O6 Zn3 1.933 . S
O6 C17 1.226 1_665 S
O7 Zn5 1.932 . S
O7 C17 1.307 . S
O8 Zn1 1.919 . S
O8 C19 1.253 1_554 S
O9 Zn3 1.941 1_455 S
O9 C19 1.283 . S
O10 Zn3 1.965 . S
O10 C18 1.303 1_556 S
O11 Zn4 1.938 1_565 S
O11 C18 1.247 . S
O12 Zn4 1.906 . S
O12 C20 1.304 1_554 S
O13 Zn1 1.924 1_545 S
O13 C21 1.311 . S
O14 Zn5 1.977 1_655 S
O14 C20 1.272 . S
O15 Zn5 1.910 . S
O15 C21 1.231 1_556 S
C16 O0 1.225 1_545 S
C16 O22 1.298 1_455 S
C17 O6 1.226 1_445 S
C17 O7 1.307 . S
C18 O10 1.303 1_554 S
C18 O11 1.247 . S
C19 O8 1.253 1_556 S
C19 O9 1.283 . S
C20 O12 1.304 1_556 S
C20 O14 1.272 . S
C21 O13 1.311 . S
C21 O15 1.231 1_554 S
O22 Zn4 1.953 . S
O22 C16 1.298 1_655 S
O23 Zn24 1.953 . S
O23 C39 1.225 . S
Zn24 O23 1.953 . S
Zn24 O25 1.949 . S
Zn24 O31 1.919 . S
Zn24 O36 1.924 . S
O25 Zn24 1.949 . S
O25 Zn26 1.923 . S
O25 Zn27 1.950 . S
O25 Zn28 1.945 . S
Zn26 O25 1.923 . S
Zn26 O29 1.933 . S
Zn26 O32 1.941 . S
Zn26 O33 1.965 . S
Zn27 O25 1.950 . S
Zn27 O34 1.938 . S
Zn27 O35 1.906 . S
Zn27 O45 1.953 . S
Zn28 O25 1.945 . S
Zn28 O30 1.932 . S
Zn28 O37 1.977 . S
Zn28 O38 1.910 . S
O29 Zn26 1.933 . S
O29 C40 1.226 . S
O30 Zn28 1.932 . S
O30 C40 1.307 . S
O31 Zn24 1.919 . S
O31 C42 1.253 . S
O32 Zn26 1.941 . S
O32 C42 1.283 . S
O33 Zn26 1.965 . S
O33 C41 1.303 . S
O34 Zn27 1.938 . S
O34 C41 1.247 . S
O35 Zn27 1.906 . S
O35 C43 1.304 . S
O36 Zn24 1.924 . S
O36 C44 1.311 . S
O37 Zn28 1.977 . S
O37 C43 1.272 . S
O38 Zn28 1.910 . S
O38 C44 1.231 . S
C39 O23 1.225 . S
C39 O45 1.298 . S
C40 O29 1.226 . S
C40 O30 1.307 . S
C41 O33 1.303 . S
C41 O34 1.247 . S
C42 O31 1.253 . S
C42 O32 1.283 . S
C43 O35 1.304 . S
C43 O37 1.272 . S
C44 O36 1.311 . S
C44 O38 1.231 . S
O45 Zn27 1.953 . S
O45 C39 1.298 . S
O46 Cd47 2.300 . S
O46 C53 1.275 1_565 S
Cd47 O46 2.300 . S
Cd47 O55 2.381 . S
Cd47 O56 2.378 . S
O48 Cd49 2.385 . S
O48 C53 1.255 . S
Cd49 O48 2.385 . S
Cd49 O50 2.317 1_455 S
O50 Cd49 2.317 1_655 S
O50 C51 1.232 . S
C51 O50 1.232 . S
C51 O52 1.218 . S
O52 C51 1.218 . S
C53 O46 1.275 1_545 S
C53 O48 1.255 . S
C54 O55 1.258 . S
C54 O56 1.256 . S
O55 Cd47 2.381 . S
O55 C54 1.258 . S
O56 Cd47 2.378 . S
O56 C54 1.256 . S
O57 Cd58 2.300 . S
O57 C64 1.275 1_545 S
Cd58 O57 2.300 . S
Cd58 O66 2.381 . S
Cd58 O67 2.378 . S
O59 Cd60 2.385 . S
O59 C64 1.255 . S
Cd60 O59 2.385 . S
Cd60 O61 2.317 1_455 S
O61 Cd60 2.317 1_655 S
O61 C62 1.232 . S
C62 O61 1.232 . S
C62 O63 1.218 . S
O63 C62 1.218 . S
C64 O57 1.275 1_565 S
C64 O59 1.255 . S
C65 O66 1.258 . S
C65 O67 1.256 . S
O66 Cd58 2.381 . S
O66 C65 1.258 . S
O67 Cd58 2.378 . S
O67 C65 1.256 . S
O68 Cd69 2.300 . S
O68 C75 1.275 . S
Cd69 O68 2.300 . S
Cd69 O77 2.381 . S
Cd69 O78 2.378 . S
O70 Cd71 2.385 . S
O70 C75 1.255 . S
Cd71 O70 2.385 . S
Cd71 O72 2.317 . S
O72 Cd71 2.317 . S
O72 C73 1.232 . S
C73 O72 1.232 . S
C73 O74 1.218 . S
O74 C73 1.218 . S
C75 O68 1.275 . S
C75 O70 1.255 . S
C76 O77 1.258 . S
C76 O78 1.256 . S
O77 Cd69 2.381 . S
O77 C76 1.258 . S
O78 Cd69 2.378 . S
O78 C76 1.256 . S
O79 Cd80 2.300 . S
O79 C86 1.275 . S
Cd80 O79 2.300 . S
Cd80 O88 2.381 . S
Cd80 O89 2.378 . S
O81 Cd82 2.385 . S
O81 C86 1.255 . S
Cd82 O81 2.385 . S
Cd82 O83 2.317 . S
O83 Cd82 2.317 . S
O83 C84 1.232 . S
C84 O83 1.232 . S
C84 O85 1.218 . S
O85 C84 1.218 . S
C86 O79 1.275 . S
C86 O81 1.255 . S
C87 O88 1.258 . S
C87 O89 1.256 . S
O88 Cd80 2.381 . S
O88 C87 1.258 . S
O89 Cd80 2.378 . S
O89 C87 1.256 . S
H90 C98 0.950 1_556 S
H91 C103 0.950 . S
H92 C100 0.950 1_556 S
H93 C102 0.950 . S
H94 C104 0.950 . S
H95 C106 0.950 . S
H96 C108 0.950 . S
H97 C109 0.950 . S
C98 H90 0.950 1_554 S
C98 C99 1.386 . S
C98 C100 1.391 . S
C99 C98 1.386 . S
C99 C103 1.393 . S
C100 H92 0.950 1_554 S
C100 C98 1.391 . S
C100 C101 1.400 . S
C101 C100 1.400 . S
C101 C102 1.398 . S
C101 C107 1.491 . S
C102 H93 0.950 . S
C102 C101 1.398 . S
C102 C103 1.391 . S
C103 H91 0.950 . S
C103 C99 1.393 . S
C103 C102 1.391 . S
C104 H94 0.950 . S
C104 C105 1.386 . S
C104 C106 1.391 . S
C105 C104 1.386 . S
C105 C109 1.393 . S
C106 H95 0.950 . S
C106 C104 1.391 . S
C106 C107 1.400 . S
C107 C101 1.491 . S
C107 C106 1.400 . S
C107 C108 1.398 . S
C108 H96 0.950 . S
C108 C107 1.398 . S
C108 C109 1.391 . S
C109 H97 0.950 . S
C109 C105 1.393 . S
C109 C108 1.391 . S
H110 C118 0.950 1_554 S
H111 C123 0.950 . S
H112 C120 0.950 . S
H113 C122 0.950 . S
H114 C124 0.950 . S
H115 C126 0.950 . S
H116 C128 0.950 . S
H117 C129 0.950 . S
C118 H110 0.950 1_556 S
C118 C119 1.386 . S
C118 C120 1.391 . S
C119 C118 1.386 . S
C119 C123 1.393 . S
C120 H112 0.950 . S
C120 C118 1.391 . S
C120 C121 1.400 . S
C121 C120 1.400 . S
C121 C122 1.398 . S
C121 C127 1.491 . S
C122 H113 0.950 . S
C122 C121 1.398 . S
C122 C123 1.391 . S
C123 H111 0.950 . S
C123 C119 1.393 . S
C123 C122 1.391 . S
C124 H114 0.950 . S
C124 C125 1.386 . S
C124 C126 1.391 . S
C125 C124 1.386 . S
C125 C129 1.393 . S
C126 H115 0.950 . S
C126 C124 1.391 . S
C126 C127 1.400 . S
C127 C121 1.491 . S
C127 C126 1.400 . S
C127 C128 1.398 . S
C128 H116 0.950 . S
C128 C127 1.398 . S
C128 C129 1.391 . S
C129 H117 0.950 . S
C129 C125 1.393 . S
C129 C128 1.391 . S
H130 C138 0.950 . S
H131 C143 0.950 1_556 S
H132 C140 0.950 . S
H133 C142 0.950 1_556 S
H134 C144 0.950 . S
H135 C146 0.950 . S
H136 C148 0.950 . S
H137 C149 0.950 . S
C138 H130 0.950 . S
C138 C139 1.386 . S
C138 C140 1.391 . S
C139 C138 1.386 . S
C139 C143 1.393 . S
C140 H132 0.950 . S
C140 C138 1.391 . S
C140 C141 1.400 . S
C141 C140 1.400 . S
C141 C142 1.398 . S
C141 C147 1.491 . S
C142 H133 0.950 1_554 S
C142 C141 1.398 . S
C142 C143 1.391 . S
C143 H131 0.950 1_554 S
C143 C139 1.393 . S
C143 C142 1.391 . S
C144 H134 0.950 . S
C144 C145 1.386 . S
C144 C146 1.391 . S
C145 C144 1.386 . S
C145 C149 1.393 . S
C146 H135 0.950 . S
C146 C144 1.391 . S
C146 C147 1.400 . S
C147 C141 1.491 . S
C147 C146 1.400 . S
C147 C148 1.398 . S
C148 H136 0.950 . S
C148 C147 1.398 . S
C148 C149 1.391 . S
C149 H137 0.950 . S
C149 C145 1.393 . S
C149 C148 1.391 . S
H150 C158 0.950 . S
H151 C163 0.950 . S
H152 C160 0.950 . S
H153 C162 0.950 . S
H154 C164 0.950 1_554 S
H155 C166 0.950 1_554 S
H156 C168 0.950 . S
H157 C169 0.950 . S
C158 H150 0.950 . S
C158 C159 1.386 . S
C158 C160 1.391 . S
C159 C158 1.386 . S
C159 C163 1.393 1_556 S
C160 H152 0.950 . S
C160 C158 1.391 . S
C160 C161 1.400 . S
C161 C160 1.400 . S
C161 C162 1.398 1_556 S
C161 C167 1.491 . S
C162 H153 0.950 . S
C162 C161 1.398 1_554 S
C162 C163 1.391 . S
C163 H151 0.950 . S
C163 C159 1.393 1_554 S
C163 C162 1.391 . S
C164 H154 0.950 1_556 S
C164 C165 1.386 . S
C164 C166 1.391 . S
C165 C164 1.386 . S
C165 C169 1.393 . S
C166 H155 0.950 1_556 S
C166 C164 1.391 . S
C166 C167 1.400 . S
C167 C161 1.491 . S
C167 C166 1.400 . S
C167 C168 1.398 . S
C168 H156 0.950 . S
C168 C167 1.398 . S
C168 C169 1.391 . S
C169 H157 0.950 . S
C169 C165 1.393 . S
C169 C168 1.391 . S
H170 C178 0.950 . S
H171 C183 0.950 . S
H172 C180 0.950 . S
H173 C182 0.950 . S
H174 C184 0.950 . S
H175 C186 0.950 . S
H176 C188 0.950 . S
H177 C189 0.950 . S
C178 H170 0.950 . S
C178 C179 1.386 . S
C178 C180 1.391 . S
C179 C178 1.386 . S
C179 C183 1.393 . S
C180 H172 0.950 . S
C180 C178 1.391 . S
C180 C181 1.400 . S
C181 C180 1.400 . S
C181 C182 1.398 . S
C181 C187 1.491 . S
C182 H173 0.950 . S
C182 C181 1.398 . S
C182 C183 1.391 . S
C183 H171 0.950 . S
C183 C179 1.393 . S
C183 C182 1.391 . S
C184 H174 0.950 . S
C184 C185 1.386 . S
C184 C186 1.391 . S
C185 C184 1.386 . S
C185 C189 1.393 . S
C186 H175 0.950 . S
C186 C184 1.391 . S
C186 C187 1.400 . S
C187 C181 1.491 . S
C187 C186 1.400 . S
C187 C188 1.398 . S
C188 H176 0.950 . S
C188 C187 1.398 . S
C188 C189 1.391 . S
C189 H177 0.950 . S
C189 C185 1.393 . S
C189 C188 1.391 . S
H190 C198 0.950 . S
H191 C203 0.950 . S
H192 C200 0.950 . S
H193 C202 0.950 . S
H194 C204 0.950 . S
H195 C206 0.950 . S
H196 C208 0.950 . S
H197 C209 0.950 . S
C198 H190 0.950 . S
C198 C199 1.386 . S
C198 C200 1.391 . S
C199 C198 1.386 . S
C199 C203 1.393 . S
C200 H192 0.950 . S
C200 C198 1.391 . S
C200 C201 1.400 . S
C201 C200 1.400 . S
C201 C202 1.398 . S
C201 C207 1.491 . S
C202 H193 0.950 . S
C202 C201 1.398 . S
C202 C203 1.391 . S
C203 H191 0.950 . S
C203 C199 1.393 . S
C203 C202 1.391 . S
C204 H194 0.950 . S
C204 C205 1.386 . S
C204 C206 1.391 . S
C205 C204 1.386 . S
C205 C209 1.393 . S
C206 H195 0.950 . S
C206 C204 1.391 . S
C206 C207 1.400 . S
C207 C201 1.491 . S
C207 C206 1.400 . S
C207 C208 1.398 . S
C208 H196 0.950 . S
C208 C207 1.398 . S
C208 C209 1.391 . S
C209 H197 0.950 . S
C209 C205 1.393 . S
C209 C208 1.391 . S
H210 C218 0.950 . S
H211 C223 0.950 . S
H212 C220 0.950 . S
H213 C222 0.950 . S
H214 C224 0.950 . S
H215 C226 0.950 . S
H216 C228 0.950 . S
H217 C229 0.950 . S
C218 H210 0.950 . S
C218 C219 1.386 . S
C218 C220 1.391 . S
C219 C218 1.386 . S
C219 C223 1.393 . S
C220 H212 0.950 . S
C220 C218 1.391 . S
C220 C221 1.400 . S
C221 C220 1.400 . S
C221 C222 1.398 . S
C221 C227 1.491 . S
C222 H213 0.950 . S
C222 C221 1.398 . S
C222 C223 1.391 . S
C223 H211 0.950 . S
C223 C219 1.393 . S
C223 C222 1.391 . S
C224 H214 0.950 . S
C224 C225 1.386 . S
C224 C226 1.391 . S
C225 C224 1.386 . S
C225 C229 1.393 . S
C226 H215 0.950 . S
C226 C224 1.391 . S
C226 C227 1.400 . S
C227 C221 1.491 . S
C227 C226 1.400 . S
C227 C228 1.398 . S
C228 H216 0.950 . S
C228 C227 1.398 . S
C228 C229 1.391 . S
C229 H217 0.950 . S
C229 C225 1.393 . S
C229 C228 1.391 . S
H230 C238 0.950 . S
H231 C243 0.950 . S
H232 C240 0.950 . S
H233 C242 0.950 . S
H234 C244 0.950 . S
H235 C246 0.950 . S
H236 C248 0.950 . S
H237 C249 0.950 . S
C238 H230 0.950 . S
C238 C239 1.386 . S
C238 C240 1.391 . S
C239 C238 1.386 . S
C239 C243 1.393 . S
C240 H232 0.950 . S
C240 C238 1.391 . S
C240 C241 1.400 . S
C241 C240 1.400 . S
C241 C242 1.398 . S
C241 C247 1.491 . S
C242 H233 0.950 . S
C242 C241 1.398 . S
C242 C243 1.391 . S
C243 H231 0.950 . S
C243 C239 1.393 . S
C243 C242 1.391 . S
C244 H234 0.950 . S
C244 C245 1.386 . S
C244 C246 1.391 . S
C245 C244 1.386 . S
C245 C249 1.393 . S
C246 H235 0.950 . S
C246 C244 1.391 . S
C246 C247 1.400 . S
C247 C241 1.491 . S
C247 C246 1.400 . S
C247 C248 1.398 . S
C248 H236 0.950 . S
C248 C247 1.398 . S
C248 C249 1.391 . S
C249 H237 0.950 . S
C249 C245 1.393 . S
C249 C248 1.391 . S
H250 C258 0.950 . S
H251 C263 0.950 . S
H252 C260 0.950 . S
H253 C262 0.950 . S
H254 C264 0.950 . S
H255 C266 0.950 . S
H256 C268 0.950 . S
H257 C269 0.950 . S
C258 H250 0.950 . S
C258 C259 1.386 . S
C258 C260 1.391 . S
C259 C258 1.386 . S
C259 C263 1.393 1_445 S
C260 H252 0.950 . S
C260 C258 1.391 . S
C260 C261 1.400 . S
C261 C260 1.400 . S
C261 C262 1.398 1_445 S
C261 C267 1.491 . S
C262 H253 0.950 . S
C262 C261 1.398 1_665 S
C262 C263 1.391 . S
C263 H251 0.950 . S
C263 C259 1.393 1_665 S
C263 C262 1.391 . S
C264 H254 0.950 . S
C264 C265 1.387 1_565 S
C264 C266 1.391 . S
C265 C264 1.387 1_545 S
C265 C269 1.391 1_655 S
C266 H255 0.950 . S
C266 C264 1.391 . S
C266 C267 1.400 1_665 S
C267 C261 1.491 . S
C267 C266 1.400 1_445 S
C267 C268 1.398 . S
C268 H256 0.950 . S
C268 C267 1.398 . S
C268 C269 1.391 . S
C269 H257 0.950 . S
C269 C265 1.391 1_455 S
C269 C268 1.391 . S
H270 C278 0.950 . S
H271 C283 0.950 . S
H272 C280 0.950 . S
H273 C282 0.950 . S
H274 C284 0.950 . S
H275 C286 0.950 . S
H276 C288 0.950 . S
H277 C289 0.950 1_545 S
C278 H270 0.950 . S
C278 C279 1.386 . S
C278 C280 1.391 . S
C279 C278 1.386 . S
C279 C283 1.393 1_455 S
C280 H272 0.950 . S
C280 C278 1.391 . S
C280 C281 1.400 . S
C281 C280 1.400 . S
C281 C282 1.398 1_455 S
C281 C287 1.491 . S
C282 H273 0.950 . S
C282 C281 1.398 1_655 S
C282 C283 1.391 . S
C283 H271 0.950 . S
C283 C279 1.393 1_655 S
C283 C282 1.391 . S
C284 H274 0.950 . S
C284 C285 1.386 1_655 S
C284 C286 1.391 . S
C285 C284 1.386 1_455 S
C285 C289 1.393 . S
C286 H275 0.950 . S
C286 C284 1.391 . S
C286 C287 1.400 1_655 S
C287 C281 1.491 . S
C287 C286 1.400 1_455 S
C287 C288 1.398 1_565 S
C288 H276 0.950 . S
C288 C287 1.398 1_545 S
C288 C289 1.391 1_545 S
C289 H277 0.950 1_565 S
C289 C285 1.393 . S
C289 C288 1.391 1_565 S
H290 C298 0.950 . S
H291 C303 0.950 . S
H292 C300 0.950 . S
H293 C302 0.950 . S
H294 C304 0.950 . S
H295 C306 0.950 . S
H296 C308 0.950 . S
H297 C309 0.950 . S
C298 H290 0.950 . S
C298 C299 1.386 . S
C298 C300 1.391 . S
C299 C298 1.386 . S
C299 C303 1.393 . S
C300 H292 0.950 . S
C300 C298 1.391 . S
C300 C301 1.400 . S
C301 C300 1.400 . S
C301 C302 1.398 . S
C301 C307 1.491 . S
C302 H293 0.950 . S
C302 C301 1.398 . S
C302 C303 1.391 . S
C303 H291 0.950 . S
C303 C299 1.393 . S
C303 C302 1.391 . S
C304 H294 0.950 . S
C304 C305 1.386 . S
C304 C306 1.391 . S
C305 C304 1.386 . S
C305 C309 1.393 . S
C306 H295 0.950 . S
C306 C304 1.391 . S
C306 C307 1.400 . S
C307 C301 1.491 . S
C307 C306 1.400 . S
C307 C308 1.398 . S
C308 H296 0.950 . S
C308 C307 1.398 . S
C308 C309 1.391 . S
C309 H297 0.950 . S
C309 C305 1.393 . S
C309 C308 1.391 . S
H310 C318 0.950 . S
H311 C323 0.950 . S
H312 C320 0.950 . S
H313 C322 0.950 . S
H314 C324 0.950 . S
H315 C326 0.950 . S
H316 C328 0.950 . S
H317 C329 0.950 . S
C318 H310 0.950 . S
C318 C319 1.386 . S
C318 C320 1.391 . S
C319 C318 1.386 . S
C319 C323 1.393 . S
C320 H312 0.950 . S
C320 C318 1.391 . S
C320 C321 1.400 . S
C321 C320 1.400 . S
C321 C322 1.398 . S
C321 C327 1.491 . S
C322 H313 0.950 . S
C322 C321 1.398 . S
C322 C323 1.391 . S
C323 H311 0.950 . S
C323 C319 1.393 . S
C323 C322 1.391 . S
C324 H314 0.950 . S
C324 C325 1.386 . S
C324 C326 1.391 . S
C325 C324 1.386 . S
C325 C329 1.393 . S
C326 H315 0.950 . S
C326 C324 1.391 . S
C326 C327 1.400 . S
C327 C321 1.491 . S
C327 C326 1.400 . S
C327 C328 1.398 . S
C328 H316 0.950 . S
C328 C327 1.398 . S
C328 C329 1.391 . S
C329 H317 0.950 . S
C329 C325 1.393 . S
C329 C328 1.391 . S
C105 C84 1.297 . S
C99 C21 1.508 . S
C119 C19 1.491 . S
C125 C73 1.281 . S
C139 C18 1.399 . S
C145 C87 1.396 . S
C159 C20 1.423 . S
C165 C76 1.404 . S
C179 C44 1.502 . S
C185 C62 1.295 . S
C199 C42 1.490 . S
C205 C51 1.287 . S
C225 C65 1.407 . S
C219 C41 1.411 . S
C245 C54 1.418 . S
C239 C43 1.419 . S
C259 C16 1.520 . S
C265 C53 1.449 1_655 S
C279 C17 1.486 1_565 S
C285 C64 1.430 . S
C305 C75 1.464 . S
C299 C39 1.519 . S
C319 C40 1.487 . S
C325 C86 1.446 . S
