# Generated by pormake.
# Topology bcu-b, (8,8)-cn, num edge types: 1
# Building blocks:
#     Node 0, Type 0, BuildingBlock: VETTIZ_charged_sbu_0, # of connection points: 8
#     Node 1, Type 1, BuildingBlock: TAGTUT_clean_sbu_1, # of connection points: 8
#     Edge 2, Type (0, 1), BuildingBlock: ZUJKAS_clean_linker_0, # of connection points: 2
#     Edge 3, Type (0, 1), BuildingBlock: ZUJKAS_clean_linker_0, # of connection points: 2
#     Edge 4, Type (0, 1), BuildingBlock: ZUJKAS_clean_linker_0, # of connection points: 2
#     Edge 5, Type (0, 1), BuildingBlock: ZUJKAS_clean_linker_0, # of connection points: 2
#     Edge 6, Type (0, 1), BuildingBlock: ZUJKAS_clean_linker_0, # of connection points: 2
#     Edge 7, Type (0, 1), BuildingBlock: ZUJKAS_clean_linker_0, # of connection points: 2
#     Edge 8, Type (0, 1), BuildingBlock: ZUJKAS_clean_linker_0, # of connection points: 2
#     Edge 9, Type (0, 1), BuildingBlock: ZUJKAS_clean_linker_0, # of connection points: 2
# Relax obj value: 0.029
# Max RMSD: 0.123
# Mean RMSD: 0.086
data_MOF--net-bcu-b--node1-VETTIZ_charged_sbu_0--node2-TAGTUT_clean_sbu_1--edge1-ZUJKAS_clean_linker_0
_symmetry_space_group_name_H-M    P1
_symmetry_Int_Tables_number       1
_symmetry_cell_setting            triclinic
loop_
_symmetry_equiv_pos_as_xyz
'x, y, z'
_cell_length_a     24.83528
_cell_length_b     23.838129
_cell_length_c     26.269036
_cell_angle_alpha  89.362085
_cell_angle_beta   91.277824
_cell_angle_gamma 98.20793
loop_
_atom_site_label
_atom_site_type_symbol
_atom_site_fract_x
_atom_site_fract_y
_atom_site_fract_z
_atom_type_partial_charge
Fe0 Fe 0.04 0.88607 -0.00018 0.0
O1 O 0.04162 0.96863 -0.00392 0.0
Fe2 Fe 0.99964 1.00183 0.93521 0.0
Fe3 Fe 0.01736 0.01445 0.05228 0.0
O4 O 0.04038 0.96779 0.99116 0.0
O5 O 0.97415 0.04682 0.99135 0.0
O6 O 0.97535 0.04763 -0.00348 0.0
Fe7 Fe 0.97622 0.12953 0.98686 0.0
C8 C 0.94985 0.90199 0.07421 0.0
O9 O 0.10176 0.90929 0.05217 0.0
O10 O 0.06659 0.97321 0.10318 0.0
O11 O 0.02775 0.14002 0.92522 0.0
O12 O 0.06647 0.06156 0.92432 0.0
O13 O 0.03367 0.95018 0.88362 0.0
O14 O 0.08491 0.89729 0.93449 0.0
O15 O 0.08405 0.07513 0.04252 0.0
O16 O 0.04241 0.15156 0.03446 0.0
C17 C 0.07079 0.91696 0.89053 0.0
O18 O 0.91421 0.1061 0.93484 0.0
O19 O 0.95159 0.04384 0.88383 0.0
O20 O 0.98773 0.87491 0.06049 0.0
O21 O 0.95094 0.95471 0.06562 0.0
C22 C 0.10187 0.93934 0.09306 0.0
C23 C 0.08374 0.12817 0.04697 0.0
C24 C 0.94759 0.10061 0.09698 0.0
O25 O 0.98476 0.06741 0.1037 0.0
O26 O 0.9322 0.11926 0.05299 0.0
C27 C 0.06674 0.11358 0.91327 0.0
O28 O 0.93278 0.94093 0.94302 0.0
O29 O 0.97426 0.86437 0.9515 0.0
C30 C 0.9156 0.07703 0.89354 0.0
C31 C 0.93309 0.88788 0.93859 0.0
C32 C 0.35648 0.64254 0.53055 0.0
C33 C 0.43748 0.63833 0.39223 0.0
C34 C 0.42941 0.41349 0.42547 0.0
Mg35 Mg 0.47707 0.63838 0.50256 0.0
O36 O 0.45322 0.56097 0.51183 0.0
Mg37 Mg 0.38836 0.52785 0.46949 0.0
Mg38 Mg 0.50561 0.50861 0.49394 0.0
O39 O 0.55806 0.45669 0.47586 0.0
Mg40 Mg 0.53576 0.37874 0.48183 0.0
Mg41 Mg 0.62342 0.48959 0.51755 0.0
C42 C 0.58207 0.60364 0.56187 0.0
C43 C 0.60274 0.58025 0.42784 0.0
O44 O 0.3419 0.5935 0.51035 0.0
O45 O 0.40606 0.66664 0.53241 0.0
O46 O 0.40521 0.5936 0.40418 0.0
O47 O 0.475 0.66013 0.42298 0.0
O48 O 0.55365 0.64171 0.54588 0.0
O49 O 0.5682 0.55062 0.55221 0.0
C50 C 0.40811 0.4382 0.5606 0.0
O51 O 0.45974 0.44727 0.55347 0.0
O52 O 0.37499 0.46389 0.53417 0.0
O53 O 0.67023 0.42543 0.4744 0.0
O54 O 0.6063 0.35452 0.44772 0.0
O55 O 0.60742 0.42223 0.58175 0.0
C56 C 0.65591 0.37838 0.45062 0.0
O57 O 0.54029 0.35364 0.56051 0.0
O58 O 0.4583 0.37532 0.44012 0.0
C59 C 0.57658 0.37599 0.5922 0.0
O60 O 0.44329 0.46626 0.43593 0.0
O61 O 0.55109 0.56991 0.43425 0.0
O62 O 0.63631 0.55516 0.45424 0.0
H63 H 0.15474 0.09126 0.11663 0.0
H64 H 0.21197 0.14991 0.17862 0.0
H65 H 0.16814 0.30098 0.10693 0.0
H66 H 0.11072 0.24293 0.04491 0.0
H67 H 0.28759 0.2989 0.14299 0.0
H68 H 0.12644 0.2401 0.28565 0.0
H69 H 0.14748 0.18311 0.25012 0.0
H70 H 0.113 0.23483 0.21787 0.0
C71 C 0.1585 0.13698 0.11312 0.0
C72 C 0.12786 0.16252 0.07621 0.0
C73 C 0.19084 0.17034 0.14876 0.0
C74 C 0.19337 0.22953 0.14759 0.0
C75 C 0.16628 0.25531 0.10848 0.0
H76 H 0.3795 0.47686 0.3556 0.0
H77 H 0.31449 0.43971 0.28805 0.0
C78 C 0.1336 0.22206 0.07314 0.0
C79 C 0.22061 0.26416 0.18948 0.0
H80 H 0.20882 0.29294 0.31532 0.0
C81 C 0.27038 0.29817 0.18062 0.0
C82 C 0.19737 0.26329 0.23813 0.0
C83 C 0.14292 0.22876 0.24877 0.0
C84 C 0.2991 0.32936 0.22016 0.0
C85 C 0.27657 0.32731 0.26935 0.0
C86 C 0.22578 0.29474 0.27754 0.0
C87 C 0.30815 0.35252 0.31401 0.0
C88 C 0.35449 0.36188 0.20956 0.0
C89 C 0.32313 0.31643 0.35262 0.0
C90 C 0.35952 0.33745 0.39121 0.0
C91 C 0.38169 0.3951 0.39205 0.0
C92 C 0.36321 0.43221 0.35581 0.0
C93 C 0.32661 0.41097 0.31692 0.0
H94 H 0.36999 0.35073 0.17219 0.0
H95 H 0.35187 0.40796 0.20915 0.0
H96 H 0.38438 0.3536 0.2398 0.0
H97 H 0.30894 0.2713 0.35139 0.0
H98 H 0.37241 0.30789 0.41898 0.0
H99 H 0.98798 0.10658 0.19547 0.0
H100 H 0.95301 0.15446 0.26734 0.0
H101 H 0.81887 0.19347 0.17278 0.0
H102 H 0.8535 0.14664 0.10108 0.0
H103 H 0.87479 0.2874 0.22396 0.0
H104 H 0.81881 0.10436 0.35524 0.0
H105 H 0.88708 0.11469 0.33189 0.0
H106 H 0.83085 0.09516 0.28853 0.0
C107 C 0.95051 0.12449 0.19029 0.0
C108 C 0.92361 0.12286 0.14245 0.0
C109 C 0.93065 0.15189 0.23138 0.0
C110 C 0.88332 0.17748 0.22537 0.0
C111 C 0.85564 0.1743 0.17816 0.0
H112 H 0.63893 0.27837 0.39955 0.0
H113 H 0.70378 0.2336 0.35237 0.0
C114 C 0.87549 0.14735 0.1372 0.0
C115 C 0.86285 0.20953 0.26712 0.0
H116 H 0.79871 0.19298 0.38098 0.0
C117 C 0.85883 0.26708 0.25872 0.0
C118 C 0.84219 0.18277 0.31232 0.0
C119 C 0.84446 0.12077 0.32272 0.0
C120 C 0.8321 0.2979 0.29296 0.0
C121 C 0.8097 0.27062 0.33736 0.0
C122 C 0.81623 0.21384 0.34706 0.0
C123 C 0.77255 0.29734 0.36991 0.0
C124 C 0.82505 0.35824 0.27969 0.0
C125 C 0.78975 0.34797 0.39627 0.0
C126 C 0.75231 0.37435 0.42329 0.0
C127 C 0.69718 0.35026 0.42453 0.0
C128 C 0.68085 0.2986 0.39932 0.0
C129 C 0.71802 0.27258 0.37242 0.0
H130 H 0.837 0.36977 0.24 0.0
H131 H 0.7821 0.36493 0.28435 0.0
H132 H 0.85087 0.38751 0.30576 0.0
H133 H 0.83189 0.36736 0.39547 0.0
H134 H 0.76638 0.41382 0.44256 0.0
H135 H 0.90811 0.79019 0.06769 0.0
H136 H 0.83535 0.73801 0.1178 0.0
H137 H 0.81748 0.8914 0.1976 0.0
H138 H 0.8883 0.94424 0.14562 0.0
H139 H 0.83623 0.71736 0.21253 0.0
H140 H 0.66151 0.83257 0.17587 0.0
H141 H 0.72215 0.84478 0.13841 0.0
H142 H 0.71938 0.87997 0.19851 0.0
C143 C 0.88812 0.81288 0.09549 0.0
C144 C 0.90399 0.87122 0.10289 0.0
C145 C 0.8464 0.78308 0.12404 0.0
C146 C 0.82011 0.81072 0.16118 0.0
C147 C 0.83566 0.86923 0.16822 0.0
H148 H 0.69846 0.64961 0.43473 0.0
H149 H 0.74512 0.70745 0.36761 0.0
C150 C 0.87663 0.89936 0.13883 0.0
C151 C 0.78072 0.77721 0.19581 0.0
H152 H 0.65727 0.77407 0.25202 0.0
C153 C 0.7968 0.7295 0.2204 0.0
C154 C 0.7287 0.7921 0.20584 0.0
C155 C 0.70671 0.83978 0.17777 0.0
C156 C 0.76357 0.69773 0.25587 0.0
C157 C 0.71354 0.71523 0.26884 0.0
C158 C 0.69611 0.76135 0.2428 0.0
C159 C 0.68072 0.68736 0.3111 0.0
C160 C 0.78264 0.64558 0.27914 0.0
C161 C 0.62722 0.66008 0.30278 0.0
C162 C 0.59975 0.62764 0.34176 0.0
C163 C 0.62586 0.62181 0.38917 0.0
C164 C 0.67781 0.65239 0.39821 0.0
C165 C 0.70462 0.6853 0.35982 0.0
H166 H 0.81117 0.62786 0.25384 0.0
H167 H 0.80465 0.6571 0.3156 0.0
H168 H 0.74788 0.61205 0.28693 0.0
H169 H 0.60775 0.66174 0.26559 0.0
H170 H 0.55958 0.60473 0.33397 0.0
H171 H 0.09207 0.89982 0.19084 0.0
H172 H 0.16313 0.86125 0.24106 0.0
H173 H 0.28066 0.92109 0.1271 0.0
H174 H 0.20944 0.95785 0.07646 0.0
H175 H 0.27738 0.81061 0.14347 0.0
H176 H 0.29386 0.91905 0.32957 0.0
H177 H 0.22512 0.88996 0.31305 0.0
H178 H 0.26032 0.94603 0.27473 0.0
C179 C 0.13358 0.9067 0.17777 0.0
C180 C 0.14563 0.93214 0.1302 0.0
C181 C 0.1742 0.88457 0.20636 0.0
C182 C 0.22744 0.88839 0.18797 0.0
C183 C 0.24001 0.91756 0.14209 0.0
H184 H 0.47898 0.74772 0.36669 0.0
H185 H 0.43542 0.81119 0.31062 0.0
C186 C 0.19945 0.93892 0.11338 0.0
C187 C 0.26798 0.8559 0.2126 0.0
H188 H 0.3308 0.83143 0.32595 0.0
C189 C 0.28959 0.81578 0.18324 0.0
C190 C 0.28445 0.86286 0.26429 0.0
C191 C 0.26517 0.90722 0.29712 0.0
C192 C 0.32564 0.78122 0.20451 0.0
C193 C 0.33977 0.78603 0.25685 0.0
C194 C 0.31977 0.82751 0.28583 0.0
C195 C 0.37208 0.7461 0.28322 0.0
C196 C 0.34807 0.73973 0.1707 0.0
C197 C 0.35238 0.68792 0.28478 0.0
C198 C 0.37738 0.65138 0.3165 0.0
C199 C 0.42226 0.67241 0.34788 0.0
C200 C 0.44454 0.72993 0.34314 0.0
C201 C 0.4194 0.76648 0.31139 0.0
H202 H 0.34815 0.75374 0.13022 0.0
H203 H 0.39018 0.73415 0.18258 0.0
H204 H 0.32201 0.69795 0.17319 0.0
H205 H 0.31556 0.67124 0.26393 0.0
H206 H 0.35906 0.60742 0.31906 0.0
H207 H 0.1513 0.85012 0.88961 0.0
H208 H 0.19165 0.8123 0.81663 0.0
H209 H 0.092 0.89944 0.71524 0.0
H210 H 0.04993 0.93726 0.78878 0.0
H211 H 0.09475 0.78544 0.68849 0.0
H212 H 0.30253 0.89858 0.72209 0.0
H213 H 0.27632 0.86136 0.77798 0.0
H214 H 0.24381 0.91878 0.75252 0.0
C215 C 0.13788 0.86184 0.85197 0.0
C216 C 0.09733 0.89713 0.8453 0.0
C217 C 0.16133 0.84022 0.81017 0.0
C218 C 0.14546 0.85374 0.76055 0.0
C219 C 0.10501 0.88881 0.75333 0.0
H220 H 0.35439 0.75557 0.52673 0.0
H221 H 0.29532 0.80962 0.57309 0.0
C222 C 0.08124 0.91056 0.79539 0.0
C223 C 0.17096 0.8298 0.71686 0.0
H224 H 0.29517 0.81516 0.67058 0.0
C225 C 0.13848 0.79258 0.68384 0.0
C226 C 0.22787 0.83987 0.71038 0.0
C227 C 0.26457 0.88231 0.74231 0.0
C228 C 0.16186 0.76293 0.64607 0.0
C229 C 0.21921 0.76985 0.64217 0.0
C230 C 0.25124 0.8092 0.67373 0.0
C231 C 0.24771 0.73606 0.60703 0.0
C232 C 0.12487 0.72456 0.61092 0.0
C233 C 0.23962 0.67642 0.60924 0.0
C234 C 0.27281 0.64527 0.58176 0.0
C235 C 0.31545 0.67345 0.55286 0.0
C236 C 0.32206 0.73285 0.54913 0.0
C237 C 0.28829 0.76377 0.57558 0.0
H238 H 0.08422 0.73864 0.60683 0.0
H239 H 0.14247 0.72309 0.57255 0.0
H240 H 0.11884 0.68101 0.62718 0.0
H241 H 0.20957 0.654 0.63417 0.0
H242 H 0.26726 0.59952 0.58556 0.0
H243 H 0.15438 0.06976 0.87651 0.0
H244 H 0.22795 0.11792 0.82487 0.0
H245 H 0.15637 0.27221 0.82981 0.0
H246 H 0.08308 0.22479 0.88205 0.0
H247 H 0.21866 0.16445 0.73107 0.0
H248 H 0.31492 0.32946 0.86363 0.0
H249 H 0.26826 0.26889 0.88457 0.0
H250 H 0.24291 0.32978 0.85708 0.0
C251 C 0.1545 0.11415 0.86715 0.0
C252 C 0.11263 0.14336 0.88353 0.0
C253 C 0.19671 0.14161 0.83762 0.0
C254 C 0.19827 0.19894 0.82415 0.0
C255 C 0.15684 0.22835 0.84076 0.0
H256 H 0.30179 0.39426 0.57055 0.0
H257 H 0.26065 0.33043 0.63595 0.0
C258 C 0.1146 0.20096 0.87029 0.0
C259 C 0.24056 0.22692 0.7894 0.0
H260 H 0.33247 0.34675 0.77423 0.0
C261 C 0.24426 0.20375 0.74091 0.0
C262 C 0.27479 0.27767 0.8024 0.0
C263 C 0.27551 0.30259 0.85497 0.0
C264 C 0.27846 0.23191 0.70404 0.0
C265 C 0.30928 0.28494 0.71571 0.0
C266 C 0.30846 0.30629 0.7652 0.0
C267 C 0.33647 0.32195 0.67533 0.0
C268 C 0.28003 0.20554 0.65225 0.0
C269 C 0.39305 0.33908 0.67602 0.0
C270 C 0.41713 0.376 0.63821 0.0
C271 C 0.38472 0.39697 0.5998 0.0
C272 C 0.32816 0.3793 0.59951 0.0
C273 C 0.30443 0.34237 0.63677 0.0
H274 H 0.26837 0.15881 0.65407 0.0
H275 H 0.25064 0.223 0.62622 0.0
H276 H 0.32116 0.21519 0.63579 0.0
H277 H 0.41843 0.324 0.70576 0.0
H278 H 0.46076 0.38889 0.63961 0.0
H279 H 0.93101 0.13317 0.80338 0.0
H280 H 0.86079 0.17323 0.75321 0.0
H281 H 0.73676 0.08368 0.84816 0.0
H282 H 0.80711 0.04538 0.89927 0.0
H283 H 0.76696 0.13498 0.69867 0.0
H284 H 0.71907 0.24758 0.87234 0.0
H285 H 0.77717 0.2103 0.86923 0.0
H286 H 0.71038 0.17183 0.87883 0.0
C287 C 0.88857 0.12059 0.81224 0.0
C288 C 0.87414 0.08603 0.85473 0.0
C289 C 0.84852 0.14379 0.78393 0.0
C290 C 0.79363 0.13265 0.79782 0.0
C291 C 0.77893 0.09406 0.83759 0.0
H292 H 0.53942 0.26451 0.61424 0.0
H293 H 0.58541 0.20177 0.669 0.0
C294 C 0.81896 0.07156 0.86627 0.0
C295 C 0.75278 0.16488 0.77347 0.0
H296 H 0.66663 0.26069 0.79833 0.0
C297 C 0.74467 0.16207 0.72048 0.0
C298 C 0.72436 0.20104 0.80195 0.0
C299 C 0.73342 0.20845 0.85865 0.0
C300 C 0.70921 0.19458 0.69516 0.0
C301 C 0.68034 0.23013 0.72373 0.0
C302 C 0.68816 0.23272 0.7767 0.0
C303 C 0.64571 0.26858 0.69854 0.0
C304 C 0.70454 0.19235 0.6378 0.0
C305 C 0.66193 0.32738 0.69991 0.0
C306 C 0.63554 0.36351 0.66894 0.0
C307 C 0.59239 0.34143 0.63599 0.0
C308 C 0.57273 0.28306 0.63876 0.0
C309 C 0.59931 0.24694 0.66968 0.0
H310 H 0.73708 0.17136 0.62101 0.0
H311 H 0.66465 0.16811 0.62645 0.0
H312 H 0.70665 0.23571 0.62135 0.0
H313 H 0.69725 0.34503 0.72245 0.0
H314 H 0.65152 0.40824 0.66822 0.0
H315 H 0.90683 0.77294 0.93955 0.0
H316 H 0.84822 0.71532 0.87808 0.0
H317 H 0.80241 0.86682 0.80888 0.0
H318 H 0.86083 0.92504 0.87029 0.0
H319 H 0.7278 0.71752 0.84475 0.0
H320 H 0.88527 0.77772 0.6989 0.0
H321 H 0.90041 0.78236 0.76645 0.0
H322 H 0.86514 0.83435 0.73555 0.0
C323 C 0.88335 0.794 0.91196 0.0
C324 C 0.88885 0.85356 0.90942 0.0
C325 C 0.84996 0.76099 0.87694 0.0
C326 C 0.82188 0.78701 0.83869 0.0
C327 C 0.82429 0.84619 0.83806 0.0
H328 H 0.6378 0.70985 0.56929 0.0
H329 H 0.70149 0.74652 0.63667 0.0
C330 C 0.85735 0.87931 0.87336 0.0
C331 C 0.79361 0.7527 0.79708 0.0
H332 H 0.80228 0.72506 0.67062 0.0
C333 C 0.74408 0.7186 0.80672 0.0
C334 C 0.8156 0.75404 0.74787 0.0
C335 C 0.86973 0.78871 0.73631 0.0
C336 C 0.71439 0.68776 0.7675 0.0
C337 C 0.73569 0.69026 0.7178 0.0
C338 C 0.78624 0.72295 0.70878 0.0
C339 C 0.70319 0.66518 0.67359 0.0
C340 C 0.65932 0.65508 0.77903 0.0
C341 C 0.68501 0.60669 0.67054 0.0
C342 C 0.64826 0.58539 0.63178 0.0
C343 C 0.62933 0.62247 0.59576 0.0
C344 C 0.651 0.68027 0.59687 0.0
C345 C 0.68753 0.70135 0.63535 0.0
H346 H 0.64467 0.66601 0.81682 0.0
H347 H 0.62874 0.66344 0.74946 0.0
H348 H 0.66201 0.60902 0.77907 0.0
H349 H 0.69767 0.5779 0.69911 0.0
H350 H 0.63242 0.54063 0.63179 0.0
loop_
_geom_bond_atom_site_label_1
_geom_bond_atom_site_label_2
_geom_bond_distance
_geom_bond_site_symmetry_2
_ccdc_geom_bond_type
Fe0 O1 1.892 . S
Fe0 O4 1.708 1_554 S
Fe0 O9 2.083 1_655 S
Fe0 O14 1.930 1_654 S
Fe0 O20 2.083 . S
Fe0 O29 1.930 1_554 S
O1 Fe0 1.892 . S
O1 Fe3 1.715 1_665 S
Fe2 O4 1.886 . S
Fe2 O5 1.715 1_665 S
Fe2 O12 1.935 1_665 S
Fe2 O13 2.077 1_655 S
Fe2 O19 1.935 1_565 S
Fe2 O28 2.077 . S
Fe3 O1 1.715 1_445 S
Fe3 O6 1.886 . S
Fe3 O10 1.935 1_545 S
Fe3 O15 2.077 . S
Fe3 O21 1.935 1_445 S
Fe3 O25 2.077 1_455 S
O4 Fe0 1.708 1_556 S
O4 Fe2 1.886 . S
O5 Fe2 1.715 1_445 S
O5 Fe7 1.888 . S
O6 Fe3 1.886 . S
O6 Fe7 1.712 1_554 S
Fe7 O5 1.888 . S
Fe7 O6 1.712 1_556 S
Fe7 O11 2.080 . S
Fe7 O16 1.933 1_556 S
Fe7 O18 2.080 1_455 S
Fe7 O26 1.933 1_456 S
C8 O20 1.381 . S
C8 O21 1.421 . S
O9 Fe0 2.083 1_455 S
O9 C22 1.381 . S
O10 Fe3 1.935 1_565 S
O10 C22 1.421 . S
O11 Fe7 2.080 . S
O11 C27 1.381 . S
O12 Fe2 1.935 1_445 S
O12 C27 1.421 . S
O13 Fe2 2.077 1_455 S
O13 C17 1.381 . S
O14 Fe0 1.930 1_456 S
O14 C17 1.421 . S
O15 Fe3 2.077 . S
O15 C23 1.381 . S
O16 Fe7 1.933 1_554 S
O16 C23 1.421 . S
C17 O13 1.381 . S
C17 O14 1.421 . S
O18 Fe7 2.080 1_655 S
O18 C30 1.381 . S
O19 Fe2 1.935 1_545 S
O19 C30 1.421 . S
O20 Fe0 2.083 . S
O20 C8 1.381 . S
O21 Fe3 1.935 1_665 S
O21 C8 1.421 . S
C22 O9 1.381 . S
C22 O10 1.421 . S
C23 O15 1.381 . S
C23 O16 1.421 . S
C24 O25 1.381 . S
C24 O26 1.421 . S
O25 Fe3 2.077 1_655 S
O25 C24 1.381 . S
O26 Fe7 1.933 1_654 S
O26 C24 1.421 . S
C27 O11 1.381 . S
C27 O12 1.421 . S
O28 Fe2 2.077 . S
O28 C31 1.381 . S
O29 Fe0 1.930 1_556 S
O29 C31 1.421 . S
C30 O18 1.381 . S
C30 O19 1.421 . S
C31 O28 1.381 . S
C31 O29 1.421 . S
C32 O44 1.241 . S
C32 O45 1.280 . S
C33 O46 1.277 . S
C33 O47 1.245 . S
C34 O58 1.247 . S
C34 O60 1.289 . S
Mg35 O36 1.926 . S
Mg35 O45 1.984 . S
Mg35 O47 1.988 . S
Mg35 O48 2.061 . S
O36 Mg35 1.926 . S
O36 Mg37 1.986 . S
O36 Mg38 1.917 . S
Mg37 O36 1.986 . S
Mg37 O44 2.042 . S
Mg37 O46 2.041 . S
Mg37 O52 2.038 . S
Mg37 O60 2.238 . S
Mg38 O36 1.917 . S
Mg38 O39 1.917 . S
Mg38 O49 2.106 . S
Mg38 O51 2.079 . S
Mg38 O60 2.106 . S
Mg38 O61 2.079 . S
O39 Mg38 1.917 . S
O39 Mg40 1.926 . S
O39 Mg41 1.986 . S
Mg40 O39 1.926 . S
Mg40 O54 1.984 . S
Mg40 O57 1.988 . S
Mg40 O58 2.061 . S
Mg41 O39 1.986 . S
Mg41 O49 2.238 . S
Mg41 O53 2.042 . S
Mg41 O55 2.041 . S
Mg41 O62 2.038 . S
C42 O48 1.247 . S
C42 O49 1.289 . S
C43 O61 1.245 . S
C43 O62 1.274 . S
O44 C32 1.241 . S
O44 Mg37 2.042 . S
O45 C32 1.280 . S
O45 Mg35 1.984 . S
O46 C33 1.277 . S
O46 Mg37 2.041 . S
O47 C33 1.245 . S
O47 Mg35 1.988 . S
O48 Mg35 2.061 . S
O48 C42 1.247 . S
O49 Mg38 2.106 . S
O49 Mg41 2.238 . S
O49 C42 1.289 . S
C50 O51 1.245 . S
C50 O52 1.274 . S
O51 Mg38 2.079 . S
O51 C50 1.245 . S
O52 Mg37 2.038 . S
O52 C50 1.274 . S
O53 Mg41 2.042 . S
O53 C56 1.241 . S
O54 Mg40 1.984 . S
O54 C56 1.280 . S
O55 Mg41 2.041 . S
O55 C59 1.277 . S
C56 O53 1.241 . S
C56 O54 1.280 . S
O57 Mg40 1.988 . S
O57 C59 1.245 . S
O58 C34 1.247 . S
O58 Mg40 2.061 . S
C59 O55 1.277 . S
C59 O57 1.245 . S
O60 C34 1.289 . S
O60 Mg37 2.238 . S
O60 Mg38 2.106 . S
O61 Mg38 2.079 . S
O61 C43 1.245 . S
O62 Mg41 2.038 . S
O62 C43 1.274 . S
H63 C71 0.929 . S
H64 C73 0.930 . S
H65 C75 0.930 . S
H66 C78 0.929 . S
H67 C81 0.930 . S
H68 C83 0.960 . S
H69 C83 0.960 . S
H70 C83 0.960 . S
C71 H63 0.929 . S
C71 C72 1.377 . S
C71 C73 1.384 . S
C72 C71 1.377 . S
C72 C78 1.390 . S
C73 H64 0.930 . S
C73 C71 1.384 . S
C73 C74 1.372 . S
C74 C73 1.372 . S
C74 C75 1.400 . S
C74 C79 1.490 . S
C75 H65 0.930 . S
C75 C74 1.400 . S
C75 C78 1.386 . S
H76 C92 0.930 . S
H77 C93 0.931 . S
C78 H66 0.929 . S
C78 C72 1.390 . S
C78 C75 1.386 . S
C79 C74 1.490 . S
C79 C81 1.395 . S
C79 C82 1.403 . S
H80 C86 0.930 . S
C81 H67 0.930 . S
C81 C79 1.395 . S
C81 C84 1.403 . S
C82 C79 1.403 . S
C82 C83 1.524 . S
C82 C86 1.400 . S
C83 H68 0.960 . S
C83 H69 0.960 . S
C83 H70 0.960 . S
C83 C82 1.524 . S
C84 C81 1.403 . S
C84 C85 1.392 . S
C84 C88 1.495 . S
C85 C84 1.392 . S
C85 C86 1.385 . S
C85 C87 1.478 . S
C86 H80 0.930 . S
C86 C82 1.400 . S
C86 C85 1.385 . S
C87 C85 1.478 . S
C87 C89 1.381 . S
C87 C93 1.383 . S
C88 C84 1.495 . S
C88 H94 0.959 . S
C88 H95 0.961 . S
C88 H96 0.960 . S
C89 C87 1.381 . S
C89 C90 1.394 . S
C89 H97 0.930 . S
C90 C89 1.394 . S
C90 C91 1.383 . S
C90 H98 0.929 . S
C91 C90 1.383 . S
C91 C92 1.377 . S
C92 H76 0.930 . S
C92 C91 1.377 . S
C92 C93 1.379 . S
C93 H77 0.931 . S
C93 C87 1.383 . S
C93 C92 1.379 . S
H94 C88 0.959 . S
H95 C88 0.961 . S
H96 C88 0.960 . S
H97 C89 0.930 . S
H98 C90 0.929 . S
H99 C107 0.929 . S
H100 C109 0.930 . S
H101 C111 0.930 . S
H102 C114 0.929 . S
H103 C117 0.930 . S
H104 C119 0.960 . S
H105 C119 0.960 . S
H106 C119 0.960 . S
C107 H99 0.929 . S
C107 C108 1.377 . S
C107 C109 1.384 . S
C108 C107 1.377 . S
C108 C114 1.390 . S
C109 H100 0.930 . S
C109 C107 1.384 . S
C109 C110 1.372 . S
C110 C109 1.372 . S
C110 C111 1.400 . S
C110 C115 1.490 . S
C111 H101 0.930 . S
C111 C110 1.400 . S
C111 C114 1.386 . S
H112 C128 0.930 . S
H113 C129 0.931 . S
C114 H102 0.929 . S
C114 C108 1.390 . S
C114 C111 1.386 . S
C115 C110 1.490 . S
C115 C117 1.395 . S
C115 C118 1.403 . S
H116 C122 0.930 . S
C117 H103 0.930 . S
C117 C115 1.395 . S
C117 C120 1.403 . S
C118 C115 1.403 . S
C118 C119 1.524 . S
C118 C122 1.400 . S
C119 H104 0.960 . S
C119 H105 0.960 . S
C119 H106 0.960 . S
C119 C118 1.524 . S
C120 C117 1.403 . S
C120 C121 1.392 . S
C120 C124 1.495 . S
C121 C120 1.392 . S
C121 C122 1.385 . S
C121 C123 1.478 . S
C122 H116 0.930 . S
C122 C118 1.400 . S
C122 C121 1.385 . S
C123 C121 1.478 . S
C123 C125 1.381 . S
C123 C129 1.383 . S
C124 C120 1.495 . S
C124 H130 0.959 . S
C124 H131 0.961 . S
C124 H132 0.960 . S
C125 C123 1.381 . S
C125 C126 1.394 . S
C125 H133 0.930 . S
C126 C125 1.394 . S
C126 C127 1.383 . S
C126 H134 0.929 . S
C127 C126 1.383 . S
C127 C128 1.377 . S
C128 H112 0.930 . S
C128 C127 1.377 . S
C128 C129 1.379 . S
C129 H113 0.931 . S
C129 C123 1.383 . S
C129 C128 1.379 . S
H130 C124 0.959 . S
H131 C124 0.961 . S
H132 C124 0.960 . S
H133 C125 0.930 . S
H134 C126 0.929 . S
H135 C143 0.929 . S
H136 C145 0.930 . S
H137 C147 0.930 . S
H138 C150 0.929 . S
H139 C153 0.930 . S
H140 C155 0.960 . S
H141 C155 0.960 . S
H142 C155 0.960 . S
C143 H135 0.929 . S
C143 C144 1.377 . S
C143 C145 1.384 . S
C144 C143 1.377 . S
C144 C150 1.390 . S
C145 H136 0.930 . S
C145 C143 1.384 . S
C145 C146 1.372 . S
C146 C145 1.372 . S
C146 C147 1.400 . S
C146 C151 1.490 . S
C147 H137 0.930 . S
C147 C146 1.400 . S
C147 C150 1.386 . S
H148 C164 0.930 . S
H149 C165 0.931 . S
C150 H138 0.929 . S
C150 C144 1.390 . S
C150 C147 1.386 . S
C151 C146 1.490 . S
C151 C153 1.395 . S
C151 C154 1.403 . S
H152 C158 0.930 . S
C153 H139 0.930 . S
C153 C151 1.395 . S
C153 C156 1.403 . S
C154 C151 1.403 . S
C154 C155 1.524 . S
C154 C158 1.400 . S
C155 H140 0.960 . S
C155 H141 0.960 . S
C155 H142 0.960 . S
C155 C154 1.524 . S
C156 C153 1.403 . S
C156 C157 1.392 . S
C156 C160 1.495 . S
C157 C156 1.392 . S
C157 C158 1.385 . S
C157 C159 1.478 . S
C158 H152 0.930 . S
C158 C154 1.400 . S
C158 C157 1.385 . S
C159 C157 1.478 . S
C159 C161 1.381 . S
C159 C165 1.383 . S
C160 C156 1.495 . S
C160 H166 0.959 . S
C160 H167 0.961 . S
C160 H168 0.960 . S
C161 C159 1.381 . S
C161 C162 1.394 . S
C161 H169 0.930 . S
C162 C161 1.394 . S
C162 C163 1.383 . S
C162 H170 0.929 . S
C163 C162 1.383 . S
C163 C164 1.377 . S
C164 H148 0.930 . S
C164 C163 1.377 . S
C164 C165 1.379 . S
C165 H149 0.931 . S
C165 C159 1.383 . S
C165 C164 1.379 . S
H166 C160 0.959 . S
H167 C160 0.961 . S
H168 C160 0.960 . S
H169 C161 0.930 . S
H170 C162 0.929 . S
H171 C179 0.929 . S
H172 C181 0.930 . S
H173 C183 0.930 . S
H174 C186 0.929 . S
H175 C189 0.930 . S
H176 C191 0.960 . S
H177 C191 0.960 . S
H178 C191 0.960 . S
C179 H171 0.929 . S
C179 C180 1.377 . S
C179 C181 1.384 . S
C180 C179 1.377 . S
C180 C186 1.390 . S
C181 H172 0.930 . S
C181 C179 1.384 . S
C181 C182 1.372 . S
C182 C181 1.372 . S
C182 C183 1.400 . S
C182 C187 1.490 . S
C183 H173 0.930 . S
C183 C182 1.400 . S
C183 C186 1.386 . S
H184 C200 0.930 . S
H185 C201 0.931 . S
C186 H174 0.929 . S
C186 C180 1.390 . S
C186 C183 1.386 . S
C187 C182 1.490 . S
C187 C189 1.395 . S
C187 C190 1.403 . S
H188 C194 0.930 . S
C189 H175 0.930 . S
C189 C187 1.395 . S
C189 C192 1.403 . S
C190 C187 1.403 . S
C190 C191 1.524 . S
C190 C194 1.400 . S
C191 H176 0.960 . S
C191 H177 0.960 . S
C191 H178 0.960 . S
C191 C190 1.524 . S
C192 C189 1.403 . S
C192 C193 1.392 . S
C192 C196 1.495 . S
C193 C192 1.392 . S
C193 C194 1.385 . S
C193 C195 1.478 . S
C194 H188 0.930 . S
C194 C190 1.400 . S
C194 C193 1.385 . S
C195 C193 1.478 . S
C195 C197 1.381 . S
C195 C201 1.383 . S
C196 C192 1.495 . S
C196 H202 0.959 . S
C196 H203 0.961 . S
C196 H204 0.960 . S
C197 C195 1.381 . S
C197 C198 1.394 . S
C197 H205 0.930 . S
C198 C197 1.394 . S
C198 C199 1.383 . S
C198 H206 0.929 . S
C199 C198 1.383 . S
C199 C200 1.377 . S
C200 H184 0.930 . S
C200 C199 1.377 . S
C200 C201 1.379 . S
C201 H185 0.931 . S
C201 C195 1.383 . S
C201 C200 1.379 . S
H202 C196 0.959 . S
H203 C196 0.961 . S
H204 C196 0.960 . S
H205 C197 0.930 . S
H206 C198 0.929 . S
H207 C215 0.929 . S
H208 C217 0.930 . S
H209 C219 0.930 . S
H210 C222 0.929 . S
H211 C225 0.930 . S
H212 C227 0.960 . S
H213 C227 0.960 . S
H214 C227 0.960 . S
C215 H207 0.929 . S
C215 C216 1.377 . S
C215 C217 1.384 . S
C216 C215 1.377 . S
C216 C222 1.390 . S
C217 H208 0.930 . S
C217 C215 1.384 . S
C217 C218 1.372 . S
C218 C217 1.372 . S
C218 C219 1.400 . S
C218 C223 1.490 . S
C219 H209 0.930 . S
C219 C218 1.400 . S
C219 C222 1.386 . S
H220 C236 0.930 . S
H221 C237 0.931 . S
C222 H210 0.929 . S
C222 C216 1.390 . S
C222 C219 1.386 . S
C223 C218 1.490 . S
C223 C225 1.395 . S
C223 C226 1.403 . S
H224 C230 0.930 . S
C225 H211 0.930 . S
C225 C223 1.395 . S
C225 C228 1.403 . S
C226 C223 1.403 . S
C226 C227 1.524 . S
C226 C230 1.400 . S
C227 H212 0.960 . S
C227 H213 0.960 . S
C227 H214 0.960 . S
C227 C226 1.524 . S
C228 C225 1.403 . S
C228 C229 1.392 . S
C228 C232 1.495 . S
C229 C228 1.392 . S
C229 C230 1.385 . S
C229 C231 1.478 . S
C230 H224 0.930 . S
C230 C226 1.400 . S
C230 C229 1.385 . S
C231 C229 1.478 . S
C231 C233 1.381 . S
C231 C237 1.383 . S
C232 C228 1.495 . S
C232 H238 0.959 . S
C232 H239 0.961 . S
C232 H240 0.960 . S
C233 C231 1.381 . S
C233 C234 1.394 . S
C233 H241 0.930 . S
C234 C233 1.394 . S
C234 C235 1.383 . S
C234 H242 0.929 . S
C235 C234 1.383 . S
C235 C236 1.377 . S
C236 H220 0.930 . S
C236 C235 1.377 . S
C236 C237 1.379 . S
C237 H221 0.931 . S
C237 C231 1.383 . S
C237 C236 1.379 . S
H238 C232 0.959 . S
H239 C232 0.961 . S
H240 C232 0.960 . S
H241 C233 0.930 . S
H242 C234 0.929 . S
H243 C251 0.929 . S
H244 C253 0.930 . S
H245 C255 0.930 . S
H246 C258 0.929 . S
H247 C261 0.930 . S
H248 C263 0.960 . S
H249 C263 0.960 . S
H250 C263 0.960 . S
C251 H243 0.929 . S
C251 C252 1.377 . S
C251 C253 1.384 . S
C252 C251 1.377 . S
C252 C258 1.390 . S
C253 H244 0.930 . S
C253 C251 1.384 . S
C253 C254 1.372 . S
C254 C253 1.372 . S
C254 C255 1.400 . S
C254 C259 1.490 . S
C255 H245 0.930 . S
C255 C254 1.400 . S
C255 C258 1.386 . S
H256 C272 0.930 . S
H257 C273 0.931 . S
C258 H246 0.929 . S
C258 C252 1.390 . S
C258 C255 1.386 . S
C259 C254 1.490 . S
C259 C261 1.395 . S
C259 C262 1.403 . S
H260 C266 0.930 . S
C261 H247 0.930 . S
C261 C259 1.395 . S
C261 C264 1.403 . S
C262 C259 1.403 . S
C262 C263 1.524 . S
C262 C266 1.400 . S
C263 H248 0.960 . S
C263 H249 0.960 . S
C263 H250 0.960 . S
C263 C262 1.524 . S
C264 C261 1.403 . S
C264 C265 1.392 . S
C264 C268 1.495 . S
C265 C264 1.392 . S
C265 C266 1.385 . S
C265 C267 1.478 . S
C266 H260 0.930 . S
C266 C262 1.400 . S
C266 C265 1.385 . S
C267 C265 1.478 . S
C267 C269 1.381 . S
C267 C273 1.383 . S
C268 C264 1.495 . S
C268 H274 0.959 . S
C268 H275 0.961 . S
C268 H276 0.960 . S
C269 C267 1.381 . S
C269 C270 1.394 . S
C269 H277 0.930 . S
C270 C269 1.394 . S
C270 C271 1.383 . S
C270 H278 0.929 . S
C271 C270 1.383 . S
C271 C272 1.377 . S
C272 H256 0.930 . S
C272 C271 1.377 . S
C272 C273 1.379 . S
C273 H257 0.931 . S
C273 C267 1.383 . S
C273 C272 1.379 . S
H274 C268 0.959 . S
H275 C268 0.961 . S
H276 C268 0.960 . S
H277 C269 0.930 . S
H278 C270 0.929 . S
H279 C287 0.929 . S
H280 C289 0.930 . S
H281 C291 0.930 . S
H282 C294 0.929 . S
H283 C297 0.930 . S
H284 C299 0.960 . S
H285 C299 0.960 . S
H286 C299 0.960 . S
C287 H279 0.929 . S
C287 C288 1.377 . S
C287 C289 1.384 . S
C288 C287 1.377 . S
C288 C294 1.390 . S
C289 H280 0.930 . S
C289 C287 1.384 . S
C289 C290 1.372 . S
C290 C289 1.372 . S
C290 C291 1.400 . S
C290 C295 1.490 . S
C291 H281 0.930 . S
C291 C290 1.400 . S
C291 C294 1.386 . S
H292 C308 0.930 . S
H293 C309 0.931 . S
C294 H282 0.929 . S
C294 C288 1.390 . S
C294 C291 1.386 . S
C295 C290 1.490 . S
C295 C297 1.395 . S
C295 C298 1.403 . S
H296 C302 0.930 . S
C297 H283 0.930 . S
C297 C295 1.395 . S
C297 C300 1.403 . S
C298 C295 1.403 . S
C298 C299 1.524 . S
C298 C302 1.400 . S
C299 H284 0.960 . S
C299 H285 0.960 . S
C299 H286 0.960 . S
C299 C298 1.524 . S
C300 C297 1.403 . S
C300 C301 1.392 . S
C300 C304 1.495 . S
C301 C300 1.392 . S
C301 C302 1.385 . S
C301 C303 1.478 . S
C302 H296 0.930 . S
C302 C298 1.400 . S
C302 C301 1.385 . S
C303 C301 1.478 . S
C303 C305 1.381 . S
C303 C309 1.383 . S
C304 C300 1.495 . S
C304 H310 0.959 . S
C304 H311 0.961 . S
C304 H312 0.960 . S
C305 C303 1.381 . S
C305 C306 1.394 . S
C305 H313 0.930 . S
C306 C305 1.394 . S
C306 C307 1.383 . S
C306 H314 0.929 . S
C307 C306 1.383 . S
C307 C308 1.377 . S
C308 H292 0.930 . S
C308 C307 1.377 . S
C308 C309 1.379 . S
C309 H293 0.931 . S
C309 C303 1.383 . S
C309 C308 1.379 . S
H310 C304 0.959 . S
H311 C304 0.961 . S
H312 C304 0.960 . S
H313 C305 0.930 . S
H314 C306 0.929 . S
H315 C323 0.929 . S
H316 C325 0.930 . S
H317 C327 0.930 . S
H318 C330 0.929 . S
H319 C333 0.930 . S
H320 C335 0.960 . S
H321 C335 0.960 . S
H322 C335 0.960 . S
C323 H315 0.929 . S
C323 C324 1.377 . S
C323 C325 1.384 . S
C324 C323 1.377 . S
C324 C330 1.390 . S
C325 H316 0.930 . S
C325 C323 1.384 . S
C325 C326 1.372 . S
C326 C325 1.372 . S
C326 C327 1.400 . S
C326 C331 1.490 . S
C327 H317 0.930 . S
C327 C326 1.400 . S
C327 C330 1.386 . S
H328 C344 0.930 . S
H329 C345 0.931 . S
C330 H318 0.929 . S
C330 C324 1.390 . S
C330 C327 1.386 . S
C331 C326 1.490 . S
C331 C333 1.395 . S
C331 C334 1.403 . S
H332 C338 0.930 . S
C333 H319 0.930 . S
C333 C331 1.395 . S
C333 C336 1.403 . S
C334 C331 1.403 . S
C334 C335 1.524 . S
C334 C338 1.400 . S
C335 H320 0.960 . S
C335 H321 0.960 . S
C335 H322 0.960 . S
C335 C334 1.524 . S
C336 C333 1.403 . S
C336 C337 1.392 . S
C336 C340 1.495 . S
C337 C336 1.392 . S
C337 C338 1.385 . S
C337 C339 1.478 . S
C338 H332 0.930 . S
C338 C334 1.400 . S
C338 C337 1.385 . S
C339 C337 1.478 . S
C339 C341 1.381 . S
C339 C345 1.383 . S
C340 C336 1.495 . S
C340 H346 0.959 . S
C340 H347 0.961 . S
C340 H348 0.960 . S
C341 C339 1.381 . S
C341 C342 1.394 . S
C341 H349 0.930 . S
C342 C341 1.394 . S
C342 C343 1.383 . S
C342 H350 0.929 . S
C343 C342 1.383 . S
C343 C344 1.377 . S
C344 H328 0.930 . S
C344 C343 1.377 . S
C344 C345 1.379 . S
C345 H329 0.931 . S
C345 C339 1.383 . S
C345 C344 1.379 . S
H346 C340 0.959 . S
H347 C340 0.961 . S
H348 C340 0.960 . S
H349 C341 0.930 . S
H350 C342 0.929 . S
C72 C23 1.088 . S
C91 C34 1.098 . S
C108 C24 1.565 . S
C127 C56 1.567 . S
C144 C8 1.489 . S
C163 C43 1.453 . S
C180 C22 1.635 . S
C199 C33 1.659 . S
C216 C17 1.562 . S
C235 C32 1.554 . S
C271 C50 1.464 . S
C252 C27 1.487 . S
C288 C30 1.643 . S
C307 C59 1.632 . S
C343 C42 1.111 . S
C324 C31 1.081 . S
