# Generated by pormake.
# Topology ibd, (4,6)-cn, num edge types: 1
# Building blocks:
#     Node 0, Type 0, BuildingBlock: QUQFOY_clean_sbu_3, # of connection points: 4
#     Node 1, Type 0, BuildingBlock: QUQFOY_clean_sbu_3, # of connection points: 4
#     Node 2, Type 0, BuildingBlock: QUQFOY_clean_sbu_3, # of connection points: 4
#     Node 3, Type 0, BuildingBlock: QUQFOY_clean_sbu_3, # of connection points: 4
#     Node 4, Type 0, BuildingBlock: QUQFOY_clean_sbu_3, # of connection points: 4
#     Node 5, Type 0, BuildingBlock: QUQFOY_clean_sbu_3, # of connection points: 4
#     Node 6, Type 0, BuildingBlock: QUQFOY_clean_sbu_3, # of connection points: 4
#     Node 7, Type 0, BuildingBlock: QUQFOY_clean_sbu_3, # of connection points: 4
#     Node 8, Type 0, BuildingBlock: QUQFOY_clean_sbu_3, # of connection points: 4
#     Node 9, Type 0, BuildingBlock: QUQFOY_clean_sbu_3, # of connection points: 4
#     Node 10, Type 0, BuildingBlock: QUQFOY_clean_sbu_3, # of connection points: 4
#     Node 11, Type 0, BuildingBlock: QUQFOY_clean_sbu_3, # of connection points: 4
#     Node 12, Type 0, BuildingBlock: QUQFOY_clean_sbu_3, # of connection points: 4
#     Node 13, Type 0, BuildingBlock: QUQFOY_clean_sbu_3, # of connection points: 4
#     Node 14, Type 0, BuildingBlock: QUQFOY_clean_sbu_3, # of connection points: 4
#     Node 15, Type 0, BuildingBlock: QUQFOY_clean_sbu_3, # of connection points: 4
#     Node 16, Type 0, BuildingBlock: QUQFOY_clean_sbu_3, # of connection points: 4
#     Node 17, Type 0, BuildingBlock: QUQFOY_clean_sbu_3, # of connection points: 4
#     Node 18, Type 0, BuildingBlock: QUQFOY_clean_sbu_3, # of connection points: 4
#     Node 19, Type 0, BuildingBlock: QUQFOY_clean_sbu_3, # of connection points: 4
#     Node 20, Type 0, BuildingBlock: QUQFOY_clean_sbu_3, # of connection points: 4
#     Node 21, Type 0, BuildingBlock: QUQFOY_clean_sbu_3, # of connection points: 4
#     Node 22, Type 0, BuildingBlock: QUQFOY_clean_sbu_3, # of connection points: 4
#     Node 23, Type 0, BuildingBlock: QUQFOY_clean_sbu_3, # of connection points: 4
#     Node 24, Type 1, BuildingBlock: OJICUG_clean_sbu_0, # of connection points: 6
#     Node 25, Type 1, BuildingBlock: OJICUG_clean_sbu_0, # of connection points: 6
#     Node 26, Type 1, BuildingBlock: OJICUG_clean_sbu_0, # of connection points: 6
#     Node 27, Type 1, BuildingBlock: OJICUG_clean_sbu_0, # of connection points: 6
#     Node 28, Type 1, BuildingBlock: OJICUG_clean_sbu_0, # of connection points: 6
#     Node 29, Type 1, BuildingBlock: OJICUG_clean_sbu_0, # of connection points: 6
#     Node 30, Type 1, BuildingBlock: OJICUG_clean_sbu_0, # of connection points: 6
#     Node 31, Type 1, BuildingBlock: OJICUG_clean_sbu_0, # of connection points: 6
#     Node 32, Type 1, BuildingBlock: OJICUG_clean_sbu_0, # of connection points: 6
#     Node 33, Type 1, BuildingBlock: OJICUG_clean_sbu_0, # of connection points: 6
#     Node 34, Type 1, BuildingBlock: OJICUG_clean_sbu_0, # of connection points: 6
#     Node 35, Type 1, BuildingBlock: OJICUG_clean_sbu_0, # of connection points: 6
#     Node 36, Type 1, BuildingBlock: OJICUG_clean_sbu_0, # of connection points: 6
#     Node 37, Type 1, BuildingBlock: OJICUG_clean_sbu_0, # of connection points: 6
#     Node 38, Type 1, BuildingBlock: OJICUG_clean_sbu_0, # of connection points: 6
#     Node 39, Type 1, BuildingBlock: OJICUG_clean_sbu_0, # of connection points: 6
#     Edge 40, Type (0, 1), BuildingBlock: TEMPAE_clean_linker_10, # of connection points: 2
#     Edge 41, Type (0, 1), BuildingBlock: TEMPAE_clean_linker_10, # of connection points: 2
#     Edge 42, Type (0, 1), BuildingBlock: TEMPAE_clean_linker_10, # of connection points: 2
#     Edge 43, Type (0, 1), BuildingBlock: TEMPAE_clean_linker_10, # of connection points: 2
#     Edge 44, Type (0, 1), BuildingBlock: TEMPAE_clean_linker_10, # of connection points: 2
#     Edge 45, Type (0, 1), BuildingBlock: TEMPAE_clean_linker_10, # of connection points: 2
#     Edge 46, Type (0, 1), BuildingBlock: TEMPAE_clean_linker_10, # of connection points: 2
#     Edge 47, Type (0, 1), BuildingBlock: TEMPAE_clean_linker_10, # of connection points: 2
#     Edge 48, Type (0, 1), BuildingBlock: TEMPAE_clean_linker_10, # of connection points: 2
#     Edge 49, Type (0, 1), BuildingBlock: TEMPAE_clean_linker_10, # of connection points: 2
#     Edge 50, Type (0, 1), BuildingBlock: TEMPAE_clean_linker_10, # of connection points: 2
#     Edge 51, Type (0, 1), BuildingBlock: TEMPAE_clean_linker_10, # of connection points: 2
#     Edge 52, Type (0, 1), BuildingBlock: TEMPAE_clean_linker_10, # of connection points: 2
#     Edge 53, Type (0, 1), BuildingBlock: TEMPAE_clean_linker_10, # of connection points: 2
#     Edge 54, Type (0, 1), BuildingBlock: TEMPAE_clean_linker_10, # of connection points: 2
#     Edge 55, Type (0, 1), BuildingBlock: TEMPAE_clean_linker_10, # of connection points: 2
#     Edge 56, Type (0, 1), BuildingBlock: TEMPAE_clean_linker_10, # of connection points: 2
#     Edge 57, Type (0, 1), BuildingBlock: TEMPAE_clean_linker_10, # of connection points: 2
#     Edge 58, Type (0, 1), BuildingBlock: TEMPAE_clean_linker_10, # of connection points: 2
#     Edge 59, Type (0, 1), BuildingBlock: TEMPAE_clean_linker_10, # of connection points: 2
#     Edge 60, Type (0, 1), BuildingBlock: TEMPAE_clean_linker_10, # of connection points: 2
#     Edge 61, Type (0, 1), BuildingBlock: TEMPAE_clean_linker_10, # of connection points: 2
#     Edge 62, Type (0, 1), BuildingBlock: TEMPAE_clean_linker_10, # of connection points: 2
#     Edge 63, Type (0, 1), BuildingBlock: TEMPAE_clean_linker_10, # of connection points: 2
#     Edge 64, Type (0, 1), BuildingBlock: TEMPAE_clean_linker_10, # of connection points: 2
#     Edge 65, Type (0, 1), BuildingBlock: TEMPAE_clean_linker_10, # of connection points: 2
#     Edge 66, Type (0, 1), BuildingBlock: TEMPAE_clean_linker_10, # of connection points: 2
#     Edge 67, Type (0, 1), BuildingBlock: TEMPAE_clean_linker_10, # of connection points: 2
#     Edge 68, Type (0, 1), BuildingBlock: TEMPAE_clean_linker_10, # of connection points: 2
#     Edge 69, Type (0, 1), BuildingBlock: TEMPAE_clean_linker_10, # of connection points: 2
#     Edge 70, Type (0, 1), BuildingBlock: TEMPAE_clean_linker_10, # of connection points: 2
#     Edge 71, Type (0, 1), BuildingBlock: TEMPAE_clean_linker_10, # of connection points: 2
#     Edge 72, Type (0, 1), BuildingBlock: TEMPAE_clean_linker_10, # of connection points: 2
#     Edge 73, Type (0, 1), BuildingBlock: TEMPAE_clean_linker_10, # of connection points: 2
#     Edge 74, Type (0, 1), BuildingBlock: TEMPAE_clean_linker_10, # of connection points: 2
#     Edge 75, Type (0, 1), BuildingBlock: TEMPAE_clean_linker_10, # of connection points: 2
#     Edge 76, Type (0, 1), BuildingBlock: TEMPAE_clean_linker_10, # of connection points: 2
#     Edge 77, Type (0, 1), BuildingBlock: TEMPAE_clean_linker_10, # of connection points: 2
#     Edge 78, Type (0, 1), BuildingBlock: TEMPAE_clean_linker_10, # of connection points: 2
#     Edge 79, Type (0, 1), BuildingBlock: TEMPAE_clean_linker_10, # of connection points: 2
#     Edge 80, Type (0, 1), BuildingBlock: TEMPAE_clean_linker_10, # of connection points: 2
#     Edge 81, Type (0, 1), BuildingBlock: TEMPAE_clean_linker_10, # of connection points: 2
#     Edge 82, Type (0, 1), BuildingBlock: TEMPAE_clean_linker_10, # of connection points: 2
#     Edge 83, Type (0, 1), BuildingBlock: TEMPAE_clean_linker_10, # of connection points: 2
#     Edge 84, Type (0, 1), BuildingBlock: TEMPAE_clean_linker_10, # of connection points: 2
#     Edge 85, Type (0, 1), BuildingBlock: TEMPAE_clean_linker_10, # of connection points: 2
#     Edge 86, Type (0, 1), BuildingBlock: TEMPAE_clean_linker_10, # of connection points: 2
#     Edge 87, Type (0, 1), BuildingBlock: TEMPAE_clean_linker_10, # of connection points: 2
#     Edge 88, Type (0, 1), BuildingBlock: TEMPAE_clean_linker_10, # of connection points: 2
#     Edge 89, Type (0, 1), BuildingBlock: TEMPAE_clean_linker_10, # of connection points: 2
#     Edge 90, Type (0, 1), BuildingBlock: TEMPAE_clean_linker_10, # of connection points: 2
#     Edge 91, Type (0, 1), BuildingBlock: TEMPAE_clean_linker_10, # of connection points: 2
#     Edge 92, Type (0, 1), BuildingBlock: TEMPAE_clean_linker_10, # of connection points: 2
#     Edge 93, Type (0, 1), BuildingBlock: TEMPAE_clean_linker_10, # of connection points: 2
#     Edge 94, Type (0, 1), BuildingBlock: TEMPAE_clean_linker_10, # of connection points: 2
#     Edge 95, Type (0, 1), BuildingBlock: TEMPAE_clean_linker_10, # of connection points: 2
#     Edge 96, Type (0, 1), BuildingBlock: TEMPAE_clean_linker_10, # of connection points: 2
#     Edge 97, Type (0, 1), BuildingBlock: TEMPAE_clean_linker_10, # of connection points: 2
#     Edge 98, Type (0, 1), BuildingBlock: TEMPAE_clean_linker_10, # of connection points: 2
#     Edge 99, Type (0, 1), BuildingBlock: TEMPAE_clean_linker_10, # of connection points: 2
#     Edge 100, Type (0, 1), BuildingBlock: TEMPAE_clean_linker_10, # of connection points: 2
#     Edge 101, Type (0, 1), BuildingBlock: TEMPAE_clean_linker_10, # of connection points: 2
#     Edge 102, Type (0, 1), BuildingBlock: TEMPAE_clean_linker_10, # of connection points: 2
#     Edge 103, Type (0, 1), BuildingBlock: TEMPAE_clean_linker_10, # of connection points: 2
#     Edge 104, Type (0, 1), BuildingBlock: TEMPAE_clean_linker_10, # of connection points: 2
#     Edge 105, Type (0, 1), BuildingBlock: TEMPAE_clean_linker_10, # of connection points: 2
#     Edge 106, Type (0, 1), BuildingBlock: TEMPAE_clean_linker_10, # of connection points: 2
#     Edge 107, Type (0, 1), BuildingBlock: TEMPAE_clean_linker_10, # of connection points: 2
#     Edge 108, Type (0, 1), BuildingBlock: TEMPAE_clean_linker_10, # of connection points: 2
#     Edge 109, Type (0, 1), BuildingBlock: TEMPAE_clean_linker_10, # of connection points: 2
#     Edge 110, Type (0, 1), BuildingBlock: TEMPAE_clean_linker_10, # of connection points: 2
#     Edge 111, Type (0, 1), BuildingBlock: TEMPAE_clean_linker_10, # of connection points: 2
#     Edge 112, Type (0, 1), BuildingBlock: TEMPAE_clean_linker_10, # of connection points: 2
#     Edge 113, Type (0, 1), BuildingBlock: TEMPAE_clean_linker_10, # of connection points: 2
#     Edge 114, Type (0, 1), BuildingBlock: TEMPAE_clean_linker_10, # of connection points: 2
#     Edge 115, Type (0, 1), BuildingBlock: TEMPAE_clean_linker_10, # of connection points: 2
#     Edge 116, Type (0, 1), BuildingBlock: TEMPAE_clean_linker_10, # of connection points: 2
#     Edge 117, Type (0, 1), BuildingBlock: TEMPAE_clean_linker_10, # of connection points: 2
#     Edge 118, Type (0, 1), BuildingBlock: TEMPAE_clean_linker_10, # of connection points: 2
#     Edge 119, Type (0, 1), BuildingBlock: TEMPAE_clean_linker_10, # of connection points: 2
#     Edge 120, Type (0, 1), BuildingBlock: TEMPAE_clean_linker_10, # of connection points: 2
#     Edge 121, Type (0, 1), BuildingBlock: TEMPAE_clean_linker_10, # of connection points: 2
#     Edge 122, Type (0, 1), BuildingBlock: TEMPAE_clean_linker_10, # of connection points: 2
#     Edge 123, Type (0, 1), BuildingBlock: TEMPAE_clean_linker_10, # of connection points: 2
#     Edge 124, Type (0, 1), BuildingBlock: TEMPAE_clean_linker_10, # of connection points: 2
#     Edge 125, Type (0, 1), BuildingBlock: TEMPAE_clean_linker_10, # of connection points: 2
#     Edge 126, Type (0, 1), BuildingBlock: TEMPAE_clean_linker_10, # of connection points: 2
#     Edge 127, Type (0, 1), BuildingBlock: TEMPAE_clean_linker_10, # of connection points: 2
#     Edge 128, Type (0, 1), BuildingBlock: TEMPAE_clean_linker_10, # of connection points: 2
#     Edge 129, Type (0, 1), BuildingBlock: TEMPAE_clean_linker_10, # of connection points: 2
#     Edge 130, Type (0, 1), BuildingBlock: TEMPAE_clean_linker_10, # of connection points: 2
#     Edge 131, Type (0, 1), BuildingBlock: TEMPAE_clean_linker_10, # of connection points: 2
#     Edge 132, Type (0, 1), BuildingBlock: TEMPAE_clean_linker_10, # of connection points: 2
#     Edge 133, Type (0, 1), BuildingBlock: TEMPAE_clean_linker_10, # of connection points: 2
#     Edge 134, Type (0, 1), BuildingBlock: TEMPAE_clean_linker_10, # of connection points: 2
#     Edge 135, Type (0, 1), BuildingBlock: TEMPAE_clean_linker_10, # of connection points: 2
# Relax obj value: 0.375
# Max RMSD: 0.287
# Mean RMSD: 0.282
data_MOF--net-ibd--node1-QUQFOY_clean_sbu_3--node2-OJICUG_clean_sbu_0--edge1-TEMPAE_clean_linker_10
_symmetry_space_group_name_H-M    P1
_symmetry_Int_Tables_number       1
_symmetry_cell_setting            triclinic
loop_
_symmetry_equiv_pos_as_xyz
'x, y, z'
_cell_length_a     50.069106
_cell_length_b     50.161303
_cell_length_c     50.106791
_cell_angle_alpha  90.183968
_cell_angle_beta   90.134536
_cell_angle_gamma 91.267482
loop_
_atom_site_label
_atom_site_type_symbol
_atom_site_fract_x
_atom_site_fract_y
_atom_site_fract_z
_atom_type_partial_charge
C0 C 0.95391 0.27178 0.41739 0.0
O1 O 0.94458 0.29514 0.41853 0.0
Cd2 Cd 0.95099 0.33051 0.38714 0.0
O3 O 0.96888 0.26481 0.39809 0.0
Cd4 Cd 0.98794 0.28566 0.3571 0.0
C5 C 0.01876 0.3366 0.39199 0.0
O6 O 0.94654 0.30639 0.34645 0.0
O7 O 0.97818 0.31485 0.31861 0.0
O8 O -0.00995 0.24279 0.33319 0.0
C9 C 0.95404 0.31786 0.32532 0.0
O10 O -0.0037 0.34719 0.39631 0.0
C11 C 0.01493 0.24516 0.32836 0.0
O12 O 0.02011 0.31461 0.37947 0.0
O13 O 0.02683 0.26598 0.33717 0.0
C14 C 0.01 0.83474 0.59965 0.0
O15 O 0.98776 0.84587 0.6032 0.0
Cd16 Cd 0.95161 0.8232 0.62515 0.0
O17 O 0.01427 0.81193 0.60966 0.0
Cd18 Cd -0.00732 0.77792 0.63788 0.0
C19 C 0.95054 0.76637 0.58674 0.0
O20 O 0.96873 0.80731 0.66687 0.0
O21 O 0.95443 0.76639 0.66655 0.0
O22 O 0.03492 0.77043 0.66107 0.0
C23 C 0.95343 0.78951 0.67673 0.0
O24 O 0.93869 0.78772 0.59304 0.0
C25 C 0.03381 0.74528 0.65789 0.0
O26 O 0.97123 0.7593 0.59932 0.0
O27 O 0.01371 0.73567 0.64541 0.0
C28 C 0.43766 0.72703 0.90433 0.0
O29 O 0.4292 0.7477 0.89272 0.0
Cd30 Cd 0.44518 0.76702 0.85208 0.0
O31 O 0.45699 0.71399 0.89459 0.0
Cd32 Cd 0.48653 0.71911 0.85508 0.0
C33 C 0.50836 0.78208 0.87183 0.0
O34 O 0.45169 0.72913 0.82363 0.0
O35 O 0.4917 0.73547 0.80932 0.0
O36 O 0.49556 0.67239 0.84495 0.0
C37 C 0.46694 0.73471 0.80428 0.0
O38 O 0.4862 0.79182 0.86469 0.0
C39 C 0.52074 0.6753 0.84761 0.0
O40 O 0.51176 0.75707 0.87124 0.0
O41 O 0.52928 0.69777 0.85609 0.0
C42 C 0.5309 0.30372 0.1217 0.0
O43 O 0.50888 0.31126 0.13134 0.0
Cd44 Cd 0.47741 0.28013 0.1502 0.0
O45 O 0.53778 0.27951 0.12375 0.0
Cd46 Cd 0.52393 0.23648 0.14325 0.0
C47 C 0.47512 0.23476 0.09767 0.0
O48 O 0.50102 0.25331 0.18107 0.0
O49 O 0.48943 0.21322 0.17028 0.0
O50 O 0.56901 0.23239 0.1597 0.0
C51 C 0.48687 0.23274 0.18611 0.0
O52 O 0.46348 0.25231 0.11171 0.0
C53 C 0.57138 0.20818 0.1528 0.0
O54 O 0.49825 0.22673 0.10389 0.0
O55 O 0.55172 0.19722 0.14062 0.0
C56 C 0.89247 0.71771 0.12332 0.0
O57 O 0.88402 0.7413 0.1214 0.0
Cd58 Cd 0.91143 0.776 0.10243 0.0
O59 O 0.91489 0.71168 0.11333 0.0
Cd60 Cd 0.95186 0.73033 0.08709 0.0
C61 C 0.96833 0.76734 0.1403 0.0
O62 O 0.92688 0.76054 0.06001 0.0
O63 O 0.96915 0.76944 0.06304 0.0
O64 O 0.95295 0.68851 0.06219 0.0
C65 C 0.94676 0.77474 0.05275 0.0
O66 O 0.94864 0.78202 0.13458 0.0
C67 C 0.97808 0.68626 0.06437 0.0
O68 O 0.97275 0.74631 0.127 0.0
O69 O -0.00921 0.70465 0.07678 0.0
C70 C 0.48585 0.78469 0.32335 0.0
O71 O 0.464 0.79713 0.32277 0.0
Cd72 Cd 0.43092 0.79992 0.35674 0.0
O73 O 0.49221 0.77074 0.34358 0.0
Cd74 Cd 0.4702 0.75939 0.38655 0.0
C75 C 0.41289 0.73482 0.35687 0.0
O76 O 0.45928 0.80516 0.39485 0.0
O77 O 0.44555 0.77784 0.42499 0.0
O78 O 0.51221 0.7487 0.40948 0.0
C79 C 0.44812 0.80175 0.41712 0.0
O80 O 0.40494 0.75826 0.35222 0.0
C81 C 0.50396 0.72546 0.41611 0.0
O82 O 0.43551 0.73132 0.3676 0.0
O83 O 0.48062 0.71848 0.40864 0.0
C84 C 0.39761 0.22026 0.63402 0.0
O85 O 0.38654 0.24262 0.63144 0.0
Cd86 Cd 0.4112 0.27962 0.61225 0.0
O87 O 0.421 0.21695 0.62498 0.0
Cd88 Cd 0.45611 0.24125 0.60095 0.0
C89 C 0.46479 0.2807 0.6543 0.0
O90 O 0.43057 0.26784 0.56969 0.0
O91 O 0.47181 0.28001 0.57623 0.0
O92 O 0.46412 0.20188 0.57398 0.0
C93 C 0.45058 0.28216 0.56266 0.0
O94 O 0.44394 0.2927 0.64675 0.0
C95 C 0.48892 0.20128 0.57926 0.0
O96 O 0.47268 0.26029 0.6418 0.0
O97 O 0.49819 0.21901 0.5951 0.0
C98 C -0.00748 0.26004 0.83266 0.0
O99 O 0.97081 0.2685 0.84227 0.0
Cd100 Cd 0.95001 0.25191 0.88204 0.0
O101 O 0.00499 0.24133 0.84411 0.0
Cd102 Cd -0.00111 0.21283 0.88395 0.0
C103 C 0.93897 0.18785 0.86222 0.0
O104 O 0.98658 0.24873 0.91305 0.0
O105 O 0.98192 0.20942 0.92983 0.0
O106 O 0.04677 0.2101 0.89213 0.0
C107 C 0.98186 0.23444 0.93332 0.0
O108 O 0.92818 0.20988 0.86796 0.0
C109 C 0.0466 0.1848 0.89333 0.0
O110 O 0.96392 0.18498 0.8653 0.0
O111 O 0.02459 0.1728 0.88825 0.0
C112 C 0.42853 0.93386 0.22296 0.0
O113 O 0.43194 0.92041 0.24409 0.0
Cd114 Cd 0.40431 0.92127 0.28278 0.0
O115 O 0.40996 0.95077 0.22161 0.0
Cd116 Cd 0.37643 0.96587 0.25443 0.0
C117 C 0.41824 0.98277 0.30545 0.0
O118 O 0.35969 0.92098 0.26463 0.0
O119 O 0.34293 0.95281 0.28765 0.0
O120 O 0.34675 0.98015 0.21851 0.0
C121 C 0.34167 0.92863 0.28032 0.0
O122 O 0.41975 0.95821 0.31123 0.0
C123 C 0.34341 0.00322 0.22836 0.0
O124 O 0.40548 -0.01007 0.28488 0.0
O125 O 0.35634 0.00898 0.24945 0.0
C126 C 0.29418 0.08435 0.50099 0.0
O127 O 0.30802 0.08093 0.48005 0.0
Cd128 Cd 0.2968 0.10031 0.43792 0.0
O129 O 0.27315 0.09811 0.50036 0.0
Cd130 Cd 0.24499 0.12543 0.47189 0.0
C131 C 0.23261 0.07375 0.42957 0.0
O132 O 0.28449 0.14332 0.45232 0.0
O133 O 0.24857 0.16099 0.43768 0.0
O134 O 0.2396 0.14318 0.51638 0.0
C135 C 0.27378 0.15944 0.4365 0.0
O136 O 0.25714 0.07507 0.42282 0.0
C137 C 0.21577 0.15052 0.51301 0.0
O138 O 0.22346 0.08905 0.44752 0.0
O139 O 0.20536 0.1465 0.49013 0.0
C140 C 0.14715 0.91896 0.72547 0.0
O141 O 0.13824 0.91163 0.74804 0.0
Cd142 Cd 0.11485 0.94202 0.77573 0.0
O143 O 0.14317 0.94237 0.71673 0.0
Cd144 Cd 0.11992 0.98333 0.72816 0.0
C145 C 0.15989 -0.00559 0.78129 0.0
O146 O 0.08216 0.95916 0.74545 0.0
O147 O 0.08216 0.00122 0.75405 0.0
O148 O 0.10918 -0.01144 0.68093 0.0
C149 C 0.06985 0.9789 0.75454 0.0
O150 O 0.14812 0.97495 0.79301 0.0
C151 C 0.11469 0.01339 0.68043 0.0
O152 O 0.15395 0.00033 0.75744 0.0
O153 O 0.12373 0.02374 0.70185 0.0
C154 C 0.28798 0.8136 0.03008 0.0
O155 O 0.30253 0.80808 0.01017 0.0
Cd156 Cd 0.29816 0.83142 0.96862 0.0
O157 O 0.27005 0.83101 0.0281 0.0
Cd158 Cd 0.25259 0.86118 -0.00557 0.0
C159 C 0.23556 0.81354 0.949 0.0
O160 O 0.29672 0.87804 0.98141 0.0
O161 O 0.26327 0.89418 0.96006 0.0
O162 O 0.24327 0.88814 0.03328 0.0
C163 C 0.28804 0.8953 0.96537 0.0
O164 O 0.26033 0.81126 0.94412 0.0
C165 C 0.21893 0.89179 0.02757 0.0
O166 O 0.2279 0.82931 0.96715 0.0
O167 O 0.21019 0.88132 0.00608 0.0
C168 C 0.24256 0.34064 0.04475 0.0
O169 O 0.266 0.34782 0.05184 0.0
Cd170 Cd 0.29296 0.37836 0.02671 0.0
O171 O 0.23201 0.34999 0.02369 0.0
Cd172 Cd 0.24303 0.38231 0.98835 0.0
C173 C 0.29473 0.34652 0.96667 0.0
O174 O 0.263 0.4142 0.01817 0.0
O175 O 0.27008 0.42275 0.97671 0.0
O176 O 0.19641 0.39529 0.98385 0.0
C177 C 0.27213 0.43013 0.00084 0.0
O178 O 0.30821 0.35355 0.98719 0.0
C179 C 0.19565 0.39119 0.9588 0.0
O180 O 0.27075 0.35351 0.96388 0.0
O181 O 0.21672 0.38265 0.94806 0.0
C182 C 0.73125 0.06659 0.02036 0.0
O183 O 0.74986 0.07608 0.03512 0.0
Cd184 Cd 0.76792 0.12087 0.03397 0.0
O185 O 0.72063 0.08088 0.00241 0.0
Cd186 Cd 0.72735 0.12669 0.98569 0.0
C187 C 0.79378 0.12109 0.9718 0.0
O188 O 0.72951 0.14834 0.02912 0.0
O189 O 0.73908 0.17297 -0.00482 0.0
O190 O 0.68093 0.1331 0.97291 0.0
C191 C 0.73477 0.17135 0.02002 0.0
O192 O 0.79937 0.1226 -0.00344 0.0
C193 C 0.6863 0.13831 0.94867 0.0
O194 O 0.7696 0.12056 0.96398 0.0
O195 O 0.71044 0.13611 0.94154 0.0
C196 C 0.17029 0.47939 0.24534 0.0
O197 O 0.16309 0.45849 0.23255 0.0
Cd198 Cd 0.12388 0.43166 0.24163 0.0
O199 O 0.15658 0.48769 0.26499 0.0
Cd200 Cd 0.115 0.47554 0.28929 0.0
C201 C 0.13676 0.41438 0.30671 0.0
O202 O 0.09146 0.46441 0.24903 0.0
O203 O 0.06913 0.45621 0.28476 0.0
O204 O 0.1085 0.52318 0.29307 0.0
C205 C 0.06992 0.45617 0.25948 0.0
O206 O 0.13306 0.40725 0.28253 0.0
C207 C 0.10211 0.52289 0.31757 0.0
O208 O 0.13345 0.43846 0.31393 0.0
O209 O 0.10288 0.50052 0.32935 0.0
C210 C 0.73078 0.83365 0.55575 0.0
O211 O 0.75489 0.8393 0.5618 0.0
Cd212 Cd 0.78222 0.86852 0.53517 0.0
O213 O 0.72001 0.84393 0.53529 0.0
Cd214 Cd 0.73026 0.87587 0.49961 0.0
C215 C 0.77817 0.83801 0.47372 0.0
O216 O 0.75566 0.90686 0.52693 0.0
O217 O 0.75927 0.91297 0.48449 0.0
O218 O 0.68537 0.89363 0.50221 0.0
C219 C 0.76455 0.92102 0.50793 0.0
O220 O 0.7926 0.84414 0.49391 0.0
C221 C 0.68038 0.89039 0.47753 0.0
O222 O 0.75427 0.84575 0.4719 0.0
O223 O 0.69841 0.87977 0.46355 0.0
C224 C 0.89109 0.00368 0.15848 0.0
O225 O 0.88849 0.97992 0.14991 0.0
Cd226 Cd 0.86497 0.94525 0.17325 0.0
O227 O 0.8804 0.01055 0.18043 0.0
Cd228 Cd 0.85237 -0.00978 0.21544 0.0
C229 C 0.89888 0.94647 0.23267 0.0
O230 O 0.82345 0.96354 0.18717 0.0
O231 O 0.82417 0.95177 0.22853 0.0
O232 O 0.82541 0.02932 0.22453 0.0
C233 C 0.81389 0.949 0.20554 0.0
O234 O 0.89313 0.93316 0.21164 0.0
C235 C 0.83264 0.03111 0.24883 0.0
O236 O 0.88821 0.96871 0.23725 0.0
O237 O 0.84924 0.01423 0.257 0.0
C238 C 0.24147 0.57237 0.53038 0.0
O239 O 0.26458 0.57517 0.54071 0.0
Cd240 Cd 0.29809 0.60632 0.52394 0.0
O241 O 0.23498 0.58602 0.51015 0.0
Cd242 Cd 0.25275 0.62024 0.48046 0.0
C243 C 0.30544 0.58518 0.45958 0.0
O244 O 0.27537 0.64666 0.51434 0.0
O245 O 0.28197 0.65911 0.47363 0.0
O246 O 0.20865 0.63899 0.47797 0.0
C247 C 0.28662 0.66277 0.49825 0.0
O248 O 0.31623 0.58847 0.48244 0.0
C249 C 0.20627 0.63625 0.45286 0.0
O250 O 0.28194 0.59306 0.45497 0.0
O251 O 0.22576 0.62616 0.44055 0.0
C252 C 0.38578 0.50433 0.71213 0.0
O253 O 0.37511 0.48274 0.70358 0.0
Cd254 Cd 0.33943 0.45961 0.72593 0.0
O255 O 0.37723 0.51549 0.73324 0.0
Cd256 Cd 0.34193 0.50931 0.76691 0.0
C257 C 0.36762 0.45129 0.78762 0.0
O258 O 0.30824 0.49366 0.73625 0.0
O259 O 0.29818 0.48816 0.77758 0.0
O260 O 0.33426 0.5571 0.76987 0.0
C261 C 0.29115 0.48618 0.75333 0.0
O262 O 0.35977 0.44025 0.76595 0.0
C263 C 0.33731 0.55828 0.79504 0.0
O264 O 0.36452 0.47601 0.79173 0.0
O265 O 0.34356 0.53685 0.80666 0.0
C266 C 0.66455 0.0096 0.72428 0.0
O267 O 0.65289 -0.00914 0.71132 0.0
Cd268 Cd 0.60933 0.97264 0.72101 0.0
O269 O 0.65355 0.01994 0.74462 0.0
Cd270 Cd 0.61171 0.01406 0.76958 0.0
C271 C 0.61973 0.94795 0.78287 0.0
O272 O 0.58428 0.01201 0.73017 0.0
O273 O 0.56336 0.00426 0.76687 0.0
O274 O 0.61064 0.06102 0.78205 0.0
C275 C 0.56229 0.00774 0.74186 0.0
O276 O 0.6148 0.94195 0.75863 0.0
C277 C 0.609 0.05658 0.80696 0.0
O278 O 0.62087 0.97217 0.79035 0.0
O279 O 0.61024 0.03245 0.81427 0.0
C280 C 0.80147 0.57761 0.98079 0.0
O281 O 0.80523 0.58794 0.95789 0.0
Cd282 Cd 0.77963 0.62265 0.93774 0.0
O283 O 0.78257 0.58516 -0.00406 0.0
Cd284 Cd 0.74585 0.61699 -0.00371 0.0
C285 C 0.71827 0.5919 0.93797 0.0
O286 O 0.77374 0.65009 0.97604 0.0
O287 O 0.73551 0.66455 0.98821 0.0
O288 O 0.74313 0.62199 0.04498 0.0
C289 C 0.7578 0.66918 0.97709 0.0
O290 O 0.7379 0.60003 0.92382 0.0
C291 C 0.71837 0.61559 0.04583 0.0
O292 O 0.71801 0.59568 0.96303 0.0
O293 O 0.70752 0.60825 0.02402 0.0
C294 C 0.89185 0.39318 0.68221 0.0
O295 O 0.89402 0.38162 0.70461 0.0
Cd296 Cd 0.87331 0.39726 0.74483 0.0
O297 O 0.88002 0.41526 0.68039 0.0
Cd298 Cd 0.85862 0.44547 0.71157 0.0
C299 C 0.90879 0.45374 0.75646 0.0
O300 O 0.82965 0.41098 0.7306 0.0
O301 O 0.82646 0.45022 0.74786 0.0
O302 O 0.83368 0.462 0.67367 0.0
C303 C 0.81724 0.42658 0.74581 0.0
O304 O 0.90232 0.43122 0.76641 0.0
C305 C 0.83862 0.48644 0.67878 0.0
O306 O 0.89743 0.46175 0.7354 0.0
O307 O 0.85345 0.49159 0.69876 0.0
C308 C 0.82251 0.32375 0.542 0.0
O309 O 0.83694 0.32301 0.52118 0.0
Cd310 Cd 0.83169 0.34959 0.48211 0.0
O311 O 0.80188 0.33812 0.54292 0.0
Cd312 Cd 0.77951 0.36723 0.51086 0.0
C313 C 0.77361 0.32411 0.45838 0.0
O314 O 0.8202 0.39212 0.50036 0.0
O315 O 0.78508 0.40275 0.47821 0.0
O316 O 0.75973 0.39299 0.54683 0.0
C317 C 0.80918 0.40792 0.48438 0.0
O318 O 0.79832 0.32756 0.45331 0.0
C319 C 0.73602 0.3907 0.53788 0.0
O320 O 0.76338 0.3347 0.47889 0.0
O321 O 0.73259 0.37651 0.51712 0.0
C322 C 0.6375 0.47694 0.18255 0.0
O323 O 0.62921 0.46428 0.20292 0.0
Cd324 Cd 0.60448 0.48538 0.23702 0.0
O325 O 0.63316 0.50173 0.17988 0.0
Cd326 Cd 0.61025 0.53853 0.20207 0.0
C327 C 0.65003 0.53423 0.25625 0.0
O328 O 0.57349 0.50926 0.21014 0.0
O329 O 0.56985 0.5468 0.23032 0.0
O330 O 0.60369 0.55273 0.15637 0.0
C331 C 0.55923 0.52455 0.22373 0.0
O332 O 0.63762 0.51259 0.26211 0.0
C333 C 0.60523 0.57753 0.16134 0.0
O334 O 0.64452 0.54672 0.23499 0.0
O335 O 0.61033 0.58418 0.18533 0.0
Sc336 Sc 0.10171 0.14366 0.11867 0.0
Sc337 Sc 0.12144 0.08777 0.15585 0.0
Sc338 Sc 0.16147 0.11209 0.10309 0.0
O339 O 0.12825 0.11454 0.12598 0.0
C340 C 0.11923 0.1286 0.0593 0.0
C341 C 0.06326 0.09413 0.13018 0.0
C342 C 0.14355 0.05105 0.10921 0.0
C343 C 0.10088 0.14106 0.18258 0.0
C344 C 0.15732 0.17469 0.11243 0.0
C345 C 0.18459 0.09678 0.16015 0.0
O346 O 0.10365 0.1391 0.07609 0.0
O347 O 0.08016 0.08253 0.14487 0.0
O348 O 0.15582 0.07014 0.09759 0.0
O349 O 0.09604 0.15187 0.16025 0.0
O350 O 0.17009 0.15395 0.10628 0.0
O351 O 0.16221 0.08948 0.16999 0.0
O352 O 0.13257 0.17419 0.11812 0.0
O353 O 0.1114 0.11827 0.18455 0.0
O354 O 0.18696 0.10597 0.1367 0.0
O355 O 0.06834 0.11603 0.11839 0.0
O356 O 0.14067 0.11749 0.06611 0.0
O357 O 0.1302 0.0541 0.13054 0.0
Sc358 Sc 0.13673 0.84614 0.38197 0.0
Sc359 Sc 0.07213 0.82515 0.36234 0.0
Sc360 Sc 0.10849 0.87241 0.32398 0.0
O361 O 0.10573 0.84788 0.35604 0.0
C362 C 0.1357 0.90838 0.36913 0.0
C363 C 0.08733 0.84447 0.42136 0.0
C364 C 0.04749 0.87877 0.34117 0.0
C365 C 0.11764 0.78505 0.37791 0.0
C366 C 0.16773 0.85022 0.32706 0.0
C367 C 0.0785 0.82179 0.29893 0.0
O368 O 0.14263 0.88853 0.38298 0.0
O369 O 0.07108 0.83447 0.40434 0.0
O370 O 0.06858 0.886 0.32887 0.0
O371 O 0.13433 0.8036 0.38372 0.0
O372 O 0.14889 0.86177 0.31499 0.0
O373 O 0.06897 0.81381 0.32108 0.0
O374 O 0.16576 0.84231 0.35102 0.0
O375 O 0.09423 0.78947 0.36945 0.0
O376 O 0.09433 0.84186 0.29694 0.0
O377 O 0.11148 0.85023 0.41597 0.0
O378 O 0.12248 0.90594 0.34754 0.0
O379 O 0.04594 0.85781 0.3553 0.0
Sc380 Sc 0.39691 0.87222 0.60388 0.0
Sc381 Sc 0.33016 0.88683 0.5889 0.0
Sc382 Sc 0.35577 0.90011 0.65305 0.0
O383 O 0.361 0.88647 0.61524 0.0
C384 C 0.39123 0.84865 0.66207 0.0
C385 C 0.35671 0.83208 0.57379 0.0
C386 C 0.3016 0.86737 0.64228 0.0
C387 C 0.37964 0.90481 0.55259 0.0
C388 C 0.414 0.92207 0.64058 0.0
C389 C 0.32247 0.94163 0.61959 0.0
O390 O 0.39971 0.84729 0.63828 0.0
O391 O 0.33714 0.84754 0.57537 0.0
O392 O 0.3193 0.87752 0.65766 0.0
O393 O 0.39714 0.89559 0.56827 0.0
O394 O 0.39165 0.92381 0.65221 0.0
O395 O 0.31947 0.92625 0.59963 0.0
O396 O 0.41906 0.90402 0.62358 0.0
O397 O 0.35468 0.90302 0.55724 0.0
O398 O 0.33524 0.9353 0.64045 0.0
O399 O 0.37981 0.83824 0.58274 0.0
O400 O 0.37618 0.86701 0.67032 0.0
O401 O 0.30245 0.86976 0.61707 0.0
Sc402 Sc 0.38585 0.09101 0.8518 0.0
Sc403 Sc 0.39998 0.15792 0.86617 0.0
Sc404 Sc 0.34967 0.1239 0.90086 0.0
O405 O 0.37857 0.1242 0.87299 0.0
C406 C 0.32176 0.09049 0.85588 0.0
C407 C 0.39081 0.13476 0.80734 0.0
C408 C 0.34513 0.1827 0.8764 0.0
C409 C 0.44469 0.11561 0.86278 0.0
C410 C 0.3732 0.06511 0.90664 0.0
C411 C 0.39392 0.15751 0.9299 0.0
O412 O 0.34384 0.08064 0.84855 0.0
O413 O 0.40042 0.15208 0.82352 0.0
O414 O 0.33865 0.16458 0.89306 0.0
O415 O 0.42878 0.09781 0.85315 0.0
O416 O 0.3569 0.08331 0.91257 0.0
O417 O 0.40171 0.168 0.90807 0.0
O418 O 0.38901 0.06695 0.88691 0.0
O419 O 0.43687 0.13804 0.87099 0.0
O420 O 0.37723 0.13804 0.93083 0.0
O421 O 0.38234 0.11194 0.81473 0.0
O422 O 0.32041 0.1096 0.87257 0.0
O423 O 0.36495 0.18072 0.86092 0.0
Sc424 Sc 0.62477 0.36532 0.89845 0.0
Sc425 Sc 0.56049 0.33973 0.8849 0.0
Sc426 Sc 0.58628 0.39351 0.84807 0.0
O427 O 0.5905 0.36621 0.87716 0.0
C428 C 0.6159 0.4282 0.89133 0.0
C429 C 0.58235 0.35483 0.94338 0.0
C430 C 0.52749 0.39049 0.8736 0.0
C431 C 0.6102 0.30312 0.89041 0.0
C432 C 0.64766 0.37786 0.84171 0.0
C433 C 0.55915 0.3434 0.82104 0.0
O434 O 0.62842 0.40832 0.9004 0.0
O435 O 0.56618 0.34278 0.92755 0.0
O436 O 0.54498 0.39986 0.85758 0.0
O437 O 0.62536 0.32213 0.89876 0.0
O438 O 0.62704 0.39049 0.83473 0.0
O439 O 0.55106 0.33386 0.84318 0.0
O440 O 0.64891 0.36479 0.86332 0.0
O441 O 0.58654 0.30666 0.88231 0.0
O442 O 0.57478 0.36362 0.8195 0.0
O443 O 0.6038 0.36621 0.93556 0.0
O444 O 0.5974 0.42584 0.87406 0.0
O445 O 0.53129 0.37005 0.88782 0.0
Sc446 Sc 0.87158 0.3465 0.13506 0.0
Sc447 Sc 0.86164 0.41449 0.12957 0.0
Sc448 Sc 0.83853 0.37142 0.07963 0.0
O449 O 0.8575 0.37753 0.11451 0.0
C450 C 0.88748 0.33108 0.07724 0.0
C451 C 0.91597 0.39243 0.14622 0.0
C452 C 0.86977 0.42429 0.0669 0.0
C453 C 0.84976 0.37958 0.18176 0.0
C454 C 0.81731 0.32199 0.11128 0.0
C455 C 0.80303 0.41515 0.10777 0.0
O456 O 0.89463 0.33379 0.10151 0.0
O457 O 0.90374 0.41049 0.13376 0.0
O458 O 0.86269 0.40093 0.05955 0.0
O459 O 0.84874 0.35752 0.16922 0.0
O460 O 0.81236 0.34197 0.09681 0.0
O461 O 0.81967 0.42036 0.12637 0.0
O462 O 0.83936 0.31953 0.12354 0.0
O463 O 0.85648 0.40138 0.17041 0.0
O464 O 0.80823 0.4001 0.08807 0.0
O465 O 0.9058 0.36926 0.15005 0.0
O466 O 0.8666 0.34163 0.06769 0.0
O467 O 0.86813 0.43219 0.09098 0.0
Sc468 Sc 0.88091 0.59718 0.34322 0.0
Sc469 Sc 0.89967 0.66367 0.35808 0.0
Sc470 Sc 0.84822 0.63119 0.39426 0.0
O471 O 0.8763 0.63075 0.36525 0.0
C472 C 0.81746 0.59717 0.35009 0.0
C473 C 0.8847 0.64225 0.29954 0.0
C474 C 0.84357 0.68964 0.36986 0.0
C475 C 0.94151 0.61796 0.35012 0.0
C476 C 0.87329 0.57351 0.40099 0.0
C477 C 0.89575 0.66438 0.42168 0.0
O478 O 0.83881 0.58875 0.33977 0.0
O479 O 0.89434 0.65983 0.31547 0.0
O480 O 0.83469 0.66977 0.38307 0.0
O481 O 0.92362 0.60085 0.34351 0.0
O482 O 0.85914 0.59273 0.4089 0.0
O483 O 0.90675 0.67139 0.39986 0.0
O484 O 0.88373 0.57266 0.37794 0.0
O485 O 0.9361 0.64152 0.3573 0.0
O486 O 0.87526 0.64903 0.42268 0.0
O487 O 0.87796 0.61885 0.30676 0.0
O488 O 0.81749 0.61384 0.3692 0.0
O489 O 0.86636 0.69008 0.35874 0.0
Sc490 Sc 0.87562 0.87603 0.88068 0.0
Sc491 Sc 0.82181 0.90773 0.91128 0.0
Sc492 Sc 0.83791 0.92139 0.84399 0.0
O493 O 0.84505 0.90167 0.87863 0.0
C494 C 0.9013 0.9228 0.84559 0.0
C495 C 0.87959 0.9028 0.9379 0.0
C496 C 0.83129 0.9663 0.88842 0.0
C497 C 0.82924 0.84538 0.9128 0.0
C498 C 0.85194 0.86348 0.82272 0.0
C499 C 0.77891 0.90884 0.86433 0.0
O500 O 0.90332 0.90311 0.86131 0.0
O501 O 0.85509 0.9089 0.93903 0.0
O502 O 0.83548 0.95902 0.8645 0.0
O503 O 0.85157 0.84594 0.90073 0.0
O504 O 0.84071 0.8858 0.81978 0.0
O505 O 0.78519 0.90635 0.88871 0.0
O506 O 0.86492 0.85754 0.84359 0.0
O507 O 0.81567 0.86593 0.91744 0.0
O508 O 0.79576 0.91425 0.84619 0.0
O509 O 0.88974 0.89187 0.9176 0.0
O510 O 0.87902 0.93116 0.8375 0.0
O511 O 0.82594 0.95014 0.90728 0.0
Sc512 Sc 0.862 0.12349 0.60463 0.0
Sc513 Sc 0.92312 0.14187 0.63486 0.0
Sc514 Sc 0.89755 0.0761 0.64069 0.0
O515 O 0.89429 0.11383 0.62664 0.0
C516 C 0.83506 0.08532 0.64738 0.0
C517 C 0.87075 0.1761 0.63994 0.0
C518 C 0.91542 0.11131 0.69046 0.0
C519 C 0.9089 0.15466 0.57418 0.0
C520 C 0.87526 0.06532 0.58248 0.0
C521 C 0.95817 0.09091 0.62623 0.0
O522 O 0.83418 0.10548 0.63218 0.0
O523 O 0.895 0.17189 0.64574 0.0
O524 O 0.90442 0.0904 0.68065 0.0
O525 O 0.88619 0.1428 0.57465 0.0
O526 O 0.89001 0.05862 0.60196 0.0
O527 O 0.9551 0.11587 0.62467 0.0
O528 O 0.86341 0.08745 0.58165 0.0
O529 O 0.92421 0.15621 0.59445 0.0
O530 O 0.93954 0.0747 0.63283 0.0
O531 O 0.8569 0.16045 0.6252 0.0
O532 O 0.85617 0.07227 0.65097 0.0
O533 O 0.92436 0.13051 0.67624 0.0
Sc534 Sc 0.62917 0.08494 0.34976 0.0
Sc535 Sc 0.65404 0.11101 0.40946 0.0
Sc536 Sc 0.60746 0.14632 0.37275 0.0
O537 O 0.63022 0.11416 0.37734 0.0
C538 C 0.62766 0.13478 0.31318 0.0
C539 C 0.69093 0.08876 0.36515 0.0
C540 C 0.66014 0.17285 0.39488 0.0
C541 C 0.63101 0.05149 0.40177 0.0
C542 C 0.56812 0.10126 0.3531 0.0
C543 C 0.60333 0.13504 0.43546 0.0
O544 O 0.63811 0.11252 0.31824 0.0
O545 O 0.68834 0.10463 0.38471 0.0
O546 O 0.64141 0.1731 0.37768 0.0
O547 O 0.61993 0.05542 0.37936 0.0
O548 O 0.5719 0.12167 0.36785 0.0
O549 O 0.62138 0.11763 0.43623 0.0
O550 O 0.58711 0.08842 0.34278 0.0
O551 O 0.64623 0.06876 0.41313 0.0
O552 O 0.59839 0.14863 0.41468 0.0
O553 O 0.67119 0.0777 0.35317 0.0
O554 O 0.61394 0.14748 0.3302 0.0
O555 O 0.66465 0.15272 0.40944 0.0
Sc556 Sc 0.65113 0.82633 0.07331 0.0
Sc557 Sc 0.58528 0.80986 0.09405 0.0
Sc558 Sc 0.62087 0.86257 0.12473 0.0
O559 O 0.61908 0.83293 0.09731 0.0
C560 C 0.67859 0.83721 0.12959 0.0
C561 C 0.63029 0.76702 0.08622 0.0
C562 C 0.58969 0.81689 0.15696 0.0
C563 C 0.60218 0.81974 0.03325 0.0
C564 C 0.65236 0.88982 0.07646 0.0
C565 C 0.56121 0.86753 0.10367 0.0
O566 O 0.67899 0.82676 0.10641 0.0
O567 O 0.60705 0.77334 0.09359 0.0
O568 O 0.60404 0.83805 0.15579 0.0
O569 O 0.62652 0.82581 0.03798 0.0
O570 O 0.63804 0.89093 0.0973 0.0
O571 O 0.55915 0.84361 0.09521 0.0
O572 O 0.65903 0.86793 0.06588 0.0
O573 O 0.58567 0.81278 0.05133 0.0
O574 O 0.58241 0.87704 0.11431 0.0
O575 O 0.64752 0.78384 0.07763 0.0
O576 O 0.65927 0.85082 0.13806 0.0
O577 O 0.58138 0.80453 0.13631 0.0
Sc578 Sc 0.3327 0.63296 0.11953 0.0
Sc579 Sc 0.39067 0.66453 0.14449 0.0
Sc580 Sc 0.38113 0.59511 0.15175 0.0
O581 O 0.36817 0.63089 0.13865 0.0
C582 C 0.31836 0.59082 0.16412 0.0
C583 C 0.33293 0.68737 0.15293 0.0
C584 C 0.39502 0.6337 0.20007 0.0
C585 C 0.36972 0.67158 0.0848 0.0
C586 C 0.35694 0.57943 0.09564 0.0
C587 C 0.43559 0.62316 0.13184 0.0
O588 O 0.31195 0.61075 0.15006 0.0
O589 O 0.35774 0.68757 0.15818 0.0
O590 O 0.38758 0.61091 0.1913 0.0
O591 O 0.35031 0.65496 0.08703 0.0
O592 O 0.37496 0.57644 0.11327 0.0
O593 O 0.42641 0.64644 0.13091 0.0
O594 O 0.33967 0.59753 0.09702 0.0
O595 O 0.38509 0.67788 0.10417 0.0
O596 O 0.4221 0.6032 0.14042 0.0
O597 O 0.32165 0.6691 0.13907 0.0
O598 O 0.34202 0.58216 0.16497 0.0
O599 O 0.39844 0.65406 0.18527 0.0
Sc600 Sc 0.1166 0.58329 0.82917 0.0
Sc601 Sc 0.12668 0.60264 0.89609 0.0
Sc602 Sc 0.07386 0.62844 0.8594 0.0
O603 O 0.10577 0.60473 0.86154 0.0
C604 C 0.0993 0.63633 0.80144 0.0
C605 C 0.17284 0.60316 0.85332 0.0
C606 C 0.11488 0.66472 0.89151 0.0
C607 C 0.12601 0.54231 0.87569 0.0
C608 C 0.05299 0.57659 0.82931 0.0
C609 C 0.06862 0.60562 0.9188 0.0
O610 O 0.11542 0.61716 0.80267 0.0
O611 O 0.16404 0.61006 0.87601 0.0
O612 O 0.09743 0.66257 0.87304 0.0
O613 O 0.11864 0.54709 0.85196 0.0
O614 O 0.04862 0.59567 0.84547 0.0
O615 O 0.0915 0.59525 0.91985 0.0
O616 O 0.07605 0.57193 0.82003 0.0
O617 O 0.13117 0.56042 0.89282 0.0
O618 O 0.06113 0.61951 0.89914 0.0
O619 O 0.15831 0.59201 0.83546 0.0
O620 O 0.08229 0.64074 0.81954 0.0
O621 O 0.12476 0.64472 0.90313 0.0
Sc622 Sc 0.14912 0.35559 0.60134 0.0
Sc623 Sc 0.0868 0.32201 0.6028 0.0
Sc624 Sc 0.09462 0.3855 0.63239 0.0
O625 O 0.11016 0.35433 0.61225 0.0
C626 C 0.15224 0.37981 0.65953 0.0
C627 C 0.14136 0.29348 0.614 0.0
C628 C 0.06835 0.33517 0.66208 0.0
C629 C 0.11992 0.33361 0.54933 0.0
C630 C 0.13307 0.4164 0.59306 0.0
C631 C 0.04595 0.36888 0.59412 0.0
O632 O 0.16211 0.36515 0.64139 0.0
O633 O 0.11606 0.2936 0.61418 0.0
O634 O 0.07648 0.35936 0.66144 0.0
O635 O 0.1387 0.34714 0.56039 0.0
O636 O 0.11128 0.41524 0.60595 0.0
O637 O 0.05389 0.34542 0.58984 0.0
O638 O 0.14867 0.39692 0.59125 0.0
O639 O 0.10093 0.32245 0.56234 0.0
O640 O 0.05866 0.38536 0.609 0.0
O641 O 0.15547 0.31421 0.60915 0.0
O642 O 0.12891 0.38922 0.658 0.0
O643 O 0.0705 0.31925 0.64242 0.0
Sc644 Sc 0.59153 0.63146 0.62932 0.0
Sc645 Sc 0.62152 0.57182 0.64832 0.0
Sc646 Sc 0.64231 0.60479 0.58989 0.0
O647 O 0.61844 0.60262 0.6225 0.0
C648 C 0.58954 0.62717 0.56537 0.0
C649 C 0.55837 0.57867 0.6423 0.0
C650 C 0.63037 0.54217 0.59291 0.0
C651 C 0.60883 0.61764 0.68931 0.0
C652 C 0.64188 0.66522 0.61103 0.0
C653 C 0.68252 0.58533 0.63454 0.0
O654 O 0.58164 0.63591 0.58776 0.0
O655 O 0.5789 0.56596 0.6495 0.0
O656 O 0.63781 0.56304 0.5804 0.0
O657 O 0.59715 0.63159 0.6719 0.0
O658 O 0.65002 0.64661 0.59601 0.0
O659 O 0.6644 0.57506 0.64928 0.0
O660 O 0.62168 0.66255 0.62623 0.0
O661 O 0.62051 0.59625 0.68349 0.0
O662 O 0.67751 0.59715 0.61279 0.0
O663 O 0.55959 0.60228 0.63302 0.0
O664 O 0.61007 0.61297 0.56303 0.0
O665 O 0.62303 0.54262 0.61711 0.0
Sc666 Sc 0.36059 0.36774 0.37427 0.0
Sc667 Sc 0.35941 0.39042 0.30881 0.0
Sc668 Sc 0.41029 0.34989 0.33019 0.0
O669 O 0.37657 0.36934 0.33781 0.0
C670 C 0.41973 0.36738 0.39086 0.0
C671 C 0.3536 0.42852 0.35769 0.0
C672 C 0.42141 0.40426 0.30277 0.0
C673 C 0.30873 0.3654 0.33959 0.0
C674 C 0.37812 0.3079 0.36258 0.0
C675 C 0.37725 0.34145 0.27687 0.0
O676 O 0.39776 0.37933 0.39255 0.0
O677 O 0.35959 0.42561 0.33324 0.0
O678 O 0.42956 0.38687 0.31919 0.0
O679 O 0.32173 0.3564 0.35927 0.0
O680 O 0.39103 0.31281 0.34122 0.0
O681 O 0.35787 0.35599 0.28315 0.0
O682 O 0.36938 0.32603 0.37794 0.0
O683 O 0.31961 0.37967 0.3215 0.0
O684 O 0.3994 0.34199 0.28928 0.0
O685 O 0.35061 0.40911 0.37376 0.0
O686 O 0.4258 0.35385 0.37036 0.0
O687 O 0.39765 0.40414 0.29353 0.0
C688 C 0.01514 0.20617 0.29704 0.0
C689 C 0.02925 0.22569 0.31176 0.0
C690 C 0.02829 0.19005 0.2785 0.0
C691 C 0.05621 0.19346 0.27479 0.0
C692 C 0.07078 0.21192 0.29085 0.0
C693 C 0.0571 0.2279 0.30907 0.0
C694 C 0.01206 0.17059 0.26169 0.0
C695 C 0.10058 0.21597 0.2877 0.0
C696 C 0.0919 0.14251 0.23199 0.0
C697 C 0.09196 0.15511 0.207 0.0
C698 C 0.0808 0.1549 0.25449 0.0
C699 C 0.06946 0.18038 0.25184 0.0
C700 C 0.07023 0.19349 0.2269 0.0
C701 C 0.08152 0.18077 0.20488 0.0
C702 C 0.08057 0.14049 0.28088 0.0
C703 C 0.05846 0.22073 0.22323 0.0
H704 H -0.00637 0.20429 0.2991 0.0
H705 H 0.0682 0.24275 0.3206 0.0
H706 H 0.01145 0.17776 0.24077 0.0
H707 H 0.02146 0.15078 0.26148 0.0
H708 H -0.00879 0.16818 0.269 0.0
H709 H 0.10941 0.22833 0.30405 0.0
H710 H 0.11067 0.1965 0.28724 0.0
H711 H 0.10481 0.22606 0.26845 0.0
H712 H 0.09988 0.1227 0.23387 0.0
H713 H 0.0816 0.19084 0.18577 0.0
H714 H 0.05966 0.13565 0.28672 0.0
H715 H 0.0893 0.15349 0.29674 0.0
H716 H 0.09186 0.12168 0.28009 0.0
H717 H 0.03678 0.21985 0.22777 0.0
H718 H 0.06112 0.2284 0.20261 0.0
H719 H 0.06793 0.23521 0.23732 0.0
C720 C 0.02185 0.86755 0.564 0.0
C721 C 0.0288 0.84553 0.57953 0.0
C722 C 0.03477 0.87275 0.53973 0.0
C723 C 0.05488 0.85544 0.53097 0.0
C724 C 0.06428 0.8354 0.54818 0.0
C725 C 0.05121 0.8308 0.57243 0.0
C726 C 0.02484 0.8949 0.52225 0.0
C727 C 0.08593 0.81669 0.53968 0.0
C728 C 0.0549 0.83587 0.45814 0.0
C729 C 0.07806 0.84893 0.44891 0.0
C730 C 0.04689 0.83839 0.48473 0.0
C731 C 0.06224 0.8547 0.5024 0.0
C732 C 0.08505 0.8688 0.49301 0.0
C733 C 0.09285 0.86557 0.46636 0.0
C734 C 0.02243 0.8229 0.49409 0.0
C735 C 0.1016 0.88667 0.51121 0.0
H736 H 0.00492 0.87942 0.56963 0.0
H737 H 0.05713 0.8141 0.58462 0.0
H738 H 0.04165 0.90519 0.51185 0.0
H739 H 0.01124 0.88634 0.50677 0.0
H740 H 0.01364 0.90983 0.53393 0.0
H741 H 0.09392 0.8053 0.55681 0.0
H742 H 0.07761 0.80226 0.52484 0.0
H743 H 0.10266 0.82777 0.53002 0.0
H744 H 0.04342 0.82298 0.44478 0.0
H745 H 0.11065 0.87597 0.45926 0.0
H746 H 0.00781 0.83665 0.50293 0.0
H747 H 0.02814 0.8086 0.50986 0.0
H748 H 0.01244 0.81157 0.47764 0.0
H749 H 0.08859 0.89998 0.52289 0.0
H750 H 0.11633 0.89911 0.49996 0.0
H751 H 0.11263 0.87432 0.52567 0.0
C752 C 0.47233 0.76194 0.76318 0.0
C753 C 0.45612 0.7458 0.77949 0.0
C754 C 0.46127 0.77615 0.74201 0.0
C755 C 0.43352 0.77367 0.73689 0.0
C756 C 0.41747 0.75583 0.75205 0.0
C757 C 0.42896 0.74223 0.77339 0.0
C758 C 0.47895 0.7952 0.72635 0.0
C759 C 0.38791 0.75226 0.74673 0.0
C760 C 0.40111 0.83471 0.70858 0.0
C761 C 0.40025 0.8286 0.68129 0.0
C762 C 0.41157 0.81675 0.72692 0.0
C763 C 0.4209 0.79192 0.71775 0.0
C764 C 0.41915 0.78518 0.69038 0.0
C765 C 0.40906 0.80377 0.67238 0.0
C766 C 0.41342 0.82471 0.75599 0.0
C767 C 0.42838 0.75861 0.68009 0.0
H768 H 0.49337 0.76466 0.76783 0.0
H769 H 0.41648 0.72944 0.78583 0.0
H770 H 0.47619 0.79193 0.70461 0.0
H771 H 0.47325 0.81601 0.73076 0.0
H772 H 0.50043 0.79305 0.73129 0.0
H773 H 0.37913 0.73497 0.75769 0.0
H774 H 0.37741 0.77047 0.75305 0.0
H775 H 0.38407 0.74943 0.72508 0.0
H776 H 0.39444 0.85394 0.71551 0.0
H777 H 0.40814 0.79889 0.65129 0.0
H778 H 0.43463 0.82516 0.76248 0.0
H779 H 0.40267 0.8098 0.76853 0.0
H780 H 0.4049 0.84462 0.75986 0.0
H781 H 0.45028 0.75717 0.68286 0.0
H782 H 0.42367 0.75565 0.65859 0.0
H783 H 0.41886 0.74212 0.69161 0.0
C784 C 0.43683 0.23266 0.06541 0.0
C785 C 0.4617 0.22339 0.07379 0.0
C786 C 0.42426 0.22211 0.04253 0.0
C787 C 0.43689 0.20184 0.02784 0.0
C788 C 0.46181 0.19219 0.03636 0.0
C789 C 0.47392 0.2031 0.05921 0.0
C790 C 0.39768 0.23288 0.03387 0.0
C791 C 0.47586 0.17058 0.02112 0.0
C792 C 0.39751 0.15762 0.97979 0.0
C793 C 0.40439 0.16903 0.95515 0.0
C794 C 0.40745 0.16848 0.00375 0.0
C795 C 0.42463 0.19123 0.00297 0.0
C796 C 0.43129 0.20311 0.97825 0.0
C797 C 0.42112 0.19186 0.95465 0.0
C798 C 0.39997 0.15534 0.02984 0.0
C799 C 0.44955 0.22745 0.97669 0.0
H800 H 0.42724 0.2483 0.07658 0.0
H801 H 0.49309 0.19572 0.06556 0.0
H802 H 0.39959 0.24204 0.01382 0.0
H803 H 0.38263 0.21639 0.03222 0.0
H804 H 0.39013 0.24808 0.04797 0.0
H805 H 0.4948 0.16476 0.03088 0.0
H806 H 0.46264 0.15262 0.01929 0.0
H807 H 0.48045 0.17751 0.0006 0.0
H808 H 0.38451 0.14007 0.98041 0.0
H809 H 0.42642 0.20099 0.93575 0.0
H810 H 0.39124 0.17014 0.04361 0.0
H811 H 0.41813 0.14766 0.03964 0.0
H812 H 0.3854 0.13852 0.0271 0.0
H813 H 0.4417 0.24371 -0.01069 0.0
H814 H 0.45182 0.23494 0.95596 0.0
H815 H 0.46961 0.22263 0.98453 0.0
C816 C 0.9805 0.79539 0.18008 0.0
C817 C 0.98654 0.77458 0.16254 0.0
C818 C -0.00253 0.80185 0.20154 0.0
C819 C 0.02108 0.78728 0.20535 0.0
C820 C 0.0275 0.76654 0.18751 0.0
C821 C 0.0101 0.76038 0.16636 0.0
C822 C -0.01001 0.82408 0.22032 0.0
C823 C 0.05259 0.7507 0.19093 0.0
C824 C 0.07343 0.82096 0.24925 0.0
C825 C 0.06759 0.80956 0.27418 0.0
C826 C 0.05916 0.8131 0.22635 0.0
C827 C 0.03866 0.79338 0.22847 0.0
C828 C 0.03387 0.78055 0.25314 0.0
C829 C 0.04846 0.78873 0.27569 0.0
C830 C 0.065 0.82697 0.20023 0.0
C831 C 0.01226 0.75926 0.25607 0.0
H832 H 0.96235 0.80642 0.17725 0.0
H833 H 0.01504 0.74435 0.1528 0.0
H834 H 0.9881 0.81633 0.24096 0.0
H835 H 0.00596 0.83977 0.22055 0.0
H836 H 0.97086 0.83333 0.21462 0.0
H837 H 0.05508 0.73574 0.17478 0.0
H838 H 0.07038 0.76429 0.19118 0.0
H839 H 0.05209 0.74016 0.21035 0.0
H840 H 0.08825 0.83697 0.2478 0.0
H841 H 0.04392 0.77961 0.29478 0.0
H842 H 0.04792 0.83958 0.19475 0.0
H843 H 0.06743 0.81215 0.18399 0.0
H844 H 0.08332 0.83984 0.20131 0.0
H845 H -0.00759 0.76818 0.25297 0.0
H846 H 0.01252 0.74978 0.27607 0.0
H847 H 0.01454 0.74354 0.24068 0.0
C848 C 0.42675 0.82052 0.4576 0.0
C849 C 0.43732 0.8244 0.43209 0.0
C850 C 0.41702 0.84197 0.47229 0.0
C851 C 0.4178 0.86795 0.46108 0.0
C852 C 0.42811 0.87195 0.43514 0.0
C853 C 0.43773 0.85006 0.42091 0.0
C854 C 0.40619 0.83674 0.50001 0.0
C855 C 0.42861 0.89907 0.42214 0.0
C856 C 0.37102 0.90499 0.50386 0.0
C857 C 0.38856 0.91068 0.52511 0.0
C858 C 0.38085 0.89477 0.47984 0.0
C859 C 0.40857 0.89057 0.47746 0.0
C860 C 0.4264 0.90221 0.49629 0.0
C861 C 0.41608 0.91254 0.52 0.0
C862 C 0.36134 0.88431 0.45916 0.0
C863 C 0.45624 0.89947 0.49375 0.0
H864 H 0.42633 0.80072 0.46623 0.0
H865 H 0.44561 0.85309 0.40099 0.0
H866 H 0.41759 0.84883 0.51491 0.0
H867 H 0.385 0.84265 0.50113 0.0
H868 H 0.4073 0.81541 0.50576 0.0
H869 H 0.44334 0.90021 0.4056 0.0
H870 H 0.40858 0.90293 0.41368 0.0
H871 H 0.43336 0.91519 0.43672 0.0
H872 H 0.34962 0.9046 0.5072 0.0
H873 H 0.42974 0.9182 0.53598 0.0
H874 H 0.35758 0.86268 0.46249 0.0
H875 H 0.36954 0.88683 0.43875 0.0
H876 H 0.34195 0.89456 0.46046 0.0
H877 H 0.46182 0.87921 0.50032 0.0
H878 H 0.46722 0.9143 0.5064 0.0
H879 H 0.46272 0.90194 0.47274 0.0
C880 C 0.39901 0.17541 0.65496 0.0
C881 C 0.38624 0.19988 0.65224 0.0
C882 C 0.39528 0.15982 0.67783 0.0
C883 C 0.37825 0.16894 0.69823 0.0
C884 C 0.36233 0.19148 0.69374 0.0
C885 C 0.36652 0.20677 0.67068 0.0
C886 C 0.41219 0.13556 0.68157 0.0
C887 C 0.34334 0.20136 0.71471 0.0
C888 C 0.36983 0.12906 0.76217 0.0
C889 C 0.3885 0.14211 0.77892 0.0
C890 C 0.36622 0.13735 0.73567 0.0
C891 C 0.3818 0.159 0.72582 0.0
C892 C 0.40113 0.17176 0.74248 0.0
C893 C 0.40412 0.16324 0.76883 0.0
C894 C 0.34524 0.1235 0.71859 0.0
C895 C 0.41852 0.19468 0.7326 0.0
H896 H 0.4138 0.16958 0.64041 0.0
H897 H 0.35618 0.22541 0.66849 0.0
H898 H 0.42952 0.1409 0.69453 0.0
H899 H 0.40072 0.11927 0.69151 0.0
H900 H 0.41991 0.12805 0.66225 0.0
H901 H 0.32871 0.21537 0.70622 0.0
H902 H 0.33232 0.1845 0.7242 0.0
H903 H 0.3549 0.21201 0.73056 0.0
H904 H 0.35751 0.11285 0.76996 0.0
H905 H 0.41871 0.17325 0.78162 0.0
H906 H 0.35328 0.11883 0.69855 0.0
H907 H 0.32819 0.13695 0.71569 0.0
H908 H 0.3376 0.10474 0.72785 0.0
H909 H 0.42978 0.18849 0.71465 0.0
H910 H 0.43305 0.20191 0.74792 0.0
H911 H 0.40586 0.21158 0.72673 0.0
C912 C 0.08921 0.18509 0.91889 0.0
C913 C 0.06863 0.17051 0.90616 0.0
C914 C 0.10356 0.1738 0.9399 0.0
C915 C 0.09709 0.14745 0.94801 0.0
C916 C 0.07984 0.13133 0.93209 0.0
C917 C 0.06569 0.14311 0.91123 0.0
C918 C 0.12268 0.19133 0.95577 0.0
C919 C 0.07343 0.10274 0.93935 0.0
C920 C 0.13094 0.12272 0.01092 0.0
C921 C 0.11274 0.13073 0.03055 0.0
C922 C 0.12583 0.12699 0.98371 0.0
C923 C 0.10212 0.13977 0.97609 0.0
C924 C 0.08321 0.14687 -0.00426 0.0
C925 C 0.08874 0.14219 0.02265 0.0
C926 C 0.14635 0.11881 0.96342 0.0
C927 C 0.05743 0.16029 0.98849 0.0
H928 H 0.09211 0.20612 0.91456 0.0
H929 H 0.05035 0.13149 0.90086 0.0
H930 H 0.11257 0.19827 0.97414 0.0
H931 H 0.14045 0.18006 0.96195 0.0
H932 H 0.12938 0.20912 0.94423 0.0
H933 H 0.06518 0.09137 0.92202 0.0
H934 H 0.09144 0.09264 0.94685 0.0
H935 H 0.05828 0.10229 0.95548 0.0
H936 H 0.14954 0.11372 0.01679 0.0
H937 H 0.0744 0.14818 0.03758 0.0
H938 H 0.15967 0.13617 0.95892 0.0
H939 H 0.13686 0.11212 0.94445 0.0
H940 H 0.15894 0.10257 0.97115 0.0
H941 H 0.0619 0.17976 0.97885 0.0
H942 H 0.04461 0.16385 0.00616 0.0
H943 H 0.0459 0.14783 0.974 0.0
C944 C 0.30728 0.01376 0.19593 0.0
C945 C 0.32356 0.02161 0.21745 0.0
C946 C 0.28601 0.0295 0.18771 0.0
C947 C 0.28099 0.05365 0.20135 0.0
C948 C 0.29811 0.06231 0.22226 0.0
C949 C 0.31922 0.04615 0.23008 0.0
C950 C 0.26827 0.01974 0.1651 0.0
C951 C 0.29347 0.08804 0.2371 0.0
C952 C 0.23433 0.09878 0.16427 0.0
C953 C 0.20945 0.09065 0.17474 0.0
C954 C 0.2581 0.08811 0.17387 0.0
C955 C 0.25694 0.06895 0.19448 0.0
C956 C 0.2322 0.0624 0.20669 0.0
C957 C 0.2087 0.07339 0.1967 0.0
C958 C 0.28417 0.09586 0.1606 0.0
C959 C 0.23026 0.04226 0.22898 0.0
H960 H 0.31058 -0.00515 0.18605 0.0
H961 H 0.3318 0.05239 0.2467 0.0
H962 H 0.24778 0.01566 0.17267 0.0
H963 H 0.26683 0.03534 0.14955 0.0
H964 H 0.27572 0.00126 0.1557 0.0
H965 H 0.3101 0.09322 0.25103 0.0
H966 H 0.29105 0.10472 0.22286 0.0
H967 H 0.27471 0.08622 0.24875 0.0
H968 H 0.23518 0.11241 0.14753 0.0
H969 H 0.18965 0.0671 0.20506 0.0
H970 H 0.2909 0.07907 0.148 0.0
H971 H 0.29996 0.09996 0.17571 0.0
H972 H 0.28223 0.11372 0.14773 0.0
H973 H 0.23456 0.02214 0.22102 0.0
H974 H 0.21013 0.04159 0.23826 0.0
H975 H 0.24532 0.04692 0.24469 0.0
C976 C 0.22533 0.03443 0.39951 0.0
C977 C 0.21491 0.05298 0.41749 0.0
C978 C 0.20967 0.01289 0.39016 0.0
C979 C 0.18292 0.00991 0.39889 0.0
C980 C 0.17179 0.02934 0.41582 0.0
C981 C 0.18797 0.05065 0.425 0.0
C982 C 0.22223 -0.00749 0.3721 0.0
C983 C 0.14325 0.0269 0.42532 0.0
C984 C 0.14139 0.95764 0.36173 0.0
C985 C 0.14488 0.93524 0.37798 0.0
C986 C 0.15265 0.98255 0.36884 0.0
C987 C 0.16777 0.98496 0.39264 0.0
C988 C 0.17026 0.96276 0.40972 0.0
C989 C 0.15873 0.93822 0.40223 0.0
C990 C 0.14936 0.00595 0.35034 0.0
C991 C 0.18619 0.96457 0.43535 0.0
H992 H 0.24605 0.03616 0.39342 0.0
H993 H 0.17966 0.06503 0.43869 0.0
H994 H 0.22387 0.97331 0.38286 0.0
H995 H 0.20951 -0.01124 0.35427 0.0
H996 H 0.2425 -0.00109 0.36535 0.0
H997 H 0.13663 0.04533 0.43545 0.0
H998 H 0.1296 0.02243 0.40833 0.0
H999 H 0.14131 0.01009 0.43958 0.0
H1000 H 0.13058 0.95559 0.34304 0.0
H1001 H 0.1613 0.92114 0.41511 0.0
H1002 H 0.1688 0.01103 0.34086 0.0
H1003 H 0.14308 0.02377 0.36168 0.0
H1004 H 0.13445 0.00165 0.33435 0.0
H1005 H 0.20753 0.96875 0.43071 0.0
H1006 H 0.18477 0.9459 0.44719 0.0
H1007 H 0.17914 0.98127 0.44787 0.0
C1008 C 0.18263 0.91242 0.69211 0.0
C1009 C 0.16433 0.90119 0.71009 0.0
C1010 C 0.20191 0.89688 0.67999 0.0
C1011 C 0.20242 0.86915 0.68547 0.0
C1012 C 0.18253 0.85724 0.70182 0.0
C1013 C 0.1638 0.87355 0.71429 0.0
C1014 C 0.22278 0.91068 0.66275 0.0
C1015 C 0.18109 0.8275 0.70628 0.0
C1016 C 0.25488 0.84889 0.63871 0.0
C1017 C 0.27712 0.85597 0.65455 0.0
C1018 C 0.22928 0.84762 0.64996 0.0
C1019 C 0.22625 0.85439 0.67715 0.0
C1020 C 0.24898 0.85599 0.69396 0.0
C1021 C 0.27434 0.85658 0.68238 0.0
C1022 C 0.20537 0.84317 0.63205 0.0
C1023 C 0.24664 0.86192 0.72342 0.0
H1024 H 0.18291 0.93375 0.68864 0.0
H1025 H 0.14905 0.86476 0.72762 0.0
H1026 H 0.24298 0.90794 0.67132 0.0
H1027 H 0.22255 0.90194 0.64241 0.0
H1028 H 0.21949 0.93243 0.66089 0.0
H1029 H 0.1682 0.82212 0.72354 0.0
H1030 H 0.17254 0.81773 0.68818 0.0
H1031 H 0.20119 0.8192 0.70949 0.0
H1032 H 0.25698 0.84695 0.61727 0.0
H1033 H 0.29161 0.86063 0.69496 0.0
H1034 H 0.19833 0.86267 0.62475 0.0
H1035 H 0.1887 0.83329 0.64307 0.0
H1036 H 0.21051 0.83082 0.61443 0.0
H1037 H 0.24193 0.88328 0.7262 0.0
H1038 H 0.26551 0.85793 0.73426 0.0
H1039 H 0.23027 0.84984 0.73253 0.0
C1040 C 0.33064 0.92211 0.96763 0.0
C1041 C 0.30524 0.91778 0.95629 0.0
C1042 C 0.34608 0.94487 0.96127 0.0
C1043 C 0.33595 0.96352 0.94297 0.0
C1044 C 0.31078 0.95871 0.93066 0.0
C1045 C 0.29567 0.93593 0.93758 0.0
C1046 C 0.37275 0.94944 0.97486 0.0
C1047 C 0.29943 0.97803 0.91076 0.0
C1048 C 0.3543 0.03691 0.94323 0.0
C1049 C 0.36982 0.03902 0.92004 0.0
C1050 C 0.34476 0.01204 0.95217 0.0
C1051 C 0.35081 -0.01118 0.93747 0.0
C1052 C 0.36848 -0.00945 0.91553 0.0
C1053 C 0.37794 0.01567 0.90715 0.0
C1054 C 0.32641 0.01092 0.97604 0.0
C1055 C 0.3755 0.9662 0.89943 0.0
H1056 H 0.33813 0.90815 0.98216 0.0
H1057 H 0.27613 0.93259 0.92866 0.0
H1058 H 0.38852 0.95383 0.95989 0.0
H1059 H 0.37172 0.96705 0.98825 0.0
H1060 H 0.37876 0.93199 0.98688 0.0
H1061 H 0.28028 0.97062 0.90192 0.0
H1062 H 0.2959 -0.00256 0.92068 0.0
H1063 H 0.31391 0.98176 0.89439 0.0
H1064 H 0.34824 0.05483 0.95351 0.0
H1065 H 0.39 0.01706 0.88925 0.0
H1066 H 0.33208 -0.00539 -0.01032 0.0
H1067 H 0.30564 0.00667 0.96923 0.0
H1068 H 0.32671 0.02999 0.98739 0.0
H1069 H 0.38054 0.94938 0.9127 0.0
H1070 H 0.39257 0.97021 0.88579 0.0
H1071 H 0.35796 0.95976 0.88725 0.0
C1072 C 0.31583 0.88574 0.27558 0.0
C1073 C 0.31881 0.91107 0.28736 0.0
C1074 C 0.29272 0.87005 0.27985 0.0
C1075 C 0.27228 0.88002 0.29625 0.0
C1076 C 0.27568 0.90511 0.30903 0.0
C1077 C 0.29893 0.92034 0.3044 0.0
C1078 C 0.28975 0.84338 0.26597 0.0
C1079 C 0.25436 0.91633 0.3269 0.0
C1080 C 0.19889 0.86397 0.29057 0.0
C1081 C 0.19449 0.85034 0.31462 0.0
C1082 C 0.22478 0.87154 0.28275 0.0
C1083 C 0.24661 0.86517 0.29935 0.0
C1084 C 0.2426 0.84846 0.3217 0.0
C1085 C 0.2165 0.84113 0.32905 0.0
C1086 C 0.22838 0.88887 0.25838 0.0
C1087 C 0.26549 0.84078 0.33955 0.0
H1088 H 0.33118 0.87849 0.26237 0.0
H1089 H 0.30122 0.93984 0.31363 0.0
H1090 H 0.28249 0.82785 0.28007 0.0
H1091 H 0.2747 0.84475 0.24979 0.0
H1092 H 0.30886 0.83689 0.25708 0.0
H1093 H 0.26062 0.93565 0.33614 0.0
H1094 H 0.23585 0.91944 0.31518 0.0
H1095 H 0.24935 0.90201 0.34305 0.0
H1096 H 0.18205 0.87069 0.27893 0.0
H1097 H 0.21338 0.83002 0.34735 0.0
H1098 H 0.24595 0.88272 0.24664 0.0
H1099 H 0.23198 0.90986 0.26477 0.0
H1100 H 0.21045 0.88813 0.24526 0.0
H1101 H 0.28326 0.83551 0.32763 0.0
H1102 H 0.25998 0.82369 0.35263 0.0
H1103 H 0.27124 0.85801 0.35244 0.0
C1104 C 0.31946 0.0501 0.52573 0.0
C1105 C 0.30139 0.07097 0.52607 0.0
C1106 C 0.32299 0.03419 0.54827 0.0
C1107 C 0.30832 0.0396 0.57179 0.0
C1108 C 0.29225 0.06235 0.57312 0.0
C1109 C 0.28872 0.07766 0.55009 0.0
C1110 C 0.34057 0.01017 0.54606 0.0
C1111 C 0.27718 0.06948 0.5981 0.0
C1112 C 0.29074 0.97317 0.60048 0.0
C1113 C 0.3133 0.96899 0.61631 0.0
C1114 C 0.28686 -0.00222 0.58834 0.0
C1115 C 0.30608 0.01854 0.59233 0.0
C1116 C 0.32647 0.01568 0.61165 0.0
C1117 C 0.32997 -0.00934 0.62347 0.0
C1118 C 0.26435 0.0002 0.56842 0.0
C1119 C 0.34643 0.0379 0.61746 0.0
H1120 H 0.3296 0.04509 0.50735 0.0
H1121 H 0.27521 0.09425 0.55068 0.0
H1122 H 0.35477 0.00962 0.56304 0.0
H1123 H 0.32803 -0.00834 0.54678 0.0
H1124 H 0.35219 0.01007 0.52719 0.0
H1125 H 0.27365 0.09125 0.5991 0.0
H1126 H 0.25741 0.05904 0.59793 0.0
H1127 H 0.28802 0.0634 0.61636 0.0
H1128 H 0.27753 0.95643 0.59551 0.0
H1129 H 0.34727 0.98748 0.63603 0.0
H1130 H 0.27261 -5e-05 0.54788 0.0
H1131 H 0.25401 0.01932 0.57115 0.0
H1132 H 0.24941 0.9836 0.5702 0.0
H1133 H 0.3626 0.03753 0.60237 0.0
H1134 H 0.35565 0.03554 0.63748 0.0
H1135 H 0.33694 0.05766 0.61639 0.0
C1136 C 0.19269 0.00129 0.81875 0.0
C1137 C 0.18118 0.01018 0.79494 0.0
C1138 C 0.21438 0.01526 0.8304 0.0
C1139 C 0.22459 0.03865 0.81795 0.0
C1140 C 0.21234 0.04829 0.79457 0.0
C1141 C 0.19083 0.03393 0.78333 0.0
C1142 C 0.22704 0.00446 0.8554 0.0
C1143 C 0.2226 0.07323 0.78079 0.0
C1144 C 0.27177 0.08586 0.85534 0.0
C1145 C 0.29668 0.07802 0.84562 0.0
C1146 C 0.24806 0.07303 0.84677 0.0
C1147 C 0.24936 0.05194 0.82804 0.0
C1148 C 0.27437 0.04404 0.81804 0.0
C1149 C 0.2977 0.05718 0.82692 0.0
C1150 C 0.22166 0.08199 0.85775 0.0
C1151 C 0.27651 0.02172 0.79788 0.0
H1152 H 0.18529 0.98301 0.82786 0.0
H1153 H 0.18187 0.04114 0.76509 0.0
H1154 H 0.24755 -0.00217 0.85088 0.0
H1155 H 0.22883 0.0203 0.87083 0.0
H1156 H 0.21544 0.98732 0.86378 0.0
H1157 H 0.20958 0.07914 0.76392 0.0
H1158 H 0.2241 0.09005 0.79518 0.0
H1159 H 0.24297 0.0699 0.77295 0.0
H1160 H 0.27075 0.10185 0.86987 0.0
H1161 H 0.3168 0.05092 0.81926 0.0
H1162 H 0.21104 0.06501 0.86749 0.0
H1163 H 0.20874 0.08885 0.84124 0.0
H1164 H 0.22412 0.09845 0.8725 0.0
H1165 H 0.26724 0.00315 0.80595 0.0
H1166 H 0.29755 0.01769 0.79248 0.0
H1167 H 0.26545 0.0268 0.77944 0.0
C1168 C 0.17504 0.91192 0.03848 0.0
C1169 C 0.20224 0.90901 0.04424 0.0
C1170 C 0.16008 0.93122 0.05172 0.0
C1171 C 0.17287 0.94817 0.07064 0.0
C1172 C 0.1997 0.94377 0.07809 0.0
C1173 C 0.21402 0.92409 0.06488 0.0
C1174 C 0.13124 0.93477 0.04396 0.0
C1175 C 0.21407 0.96142 0.09823 0.0
C1176 C 0.158 0.02128 0.07252 0.0
C1177 C 0.14655 0.02405 0.09787 0.0
C1178 C 0.16515 -0.00367 0.06281 0.0
C1179 C 0.16043 0.97346 0.07869 0.0
C1180 C 0.14688 0.97573 0.10332 0.0
C1181 C 0.14017 0.00113 0.11275 0.0
C1182 C 0.17947 -0.0052 0.03633 0.0
C1183 C 0.14089 0.95165 0.12044 0.0
H1184 H 0.16569 0.8999 0.0229 0.0
H1185 H 0.23495 0.92164 0.06969 0.0
H1186 H 0.11891 0.93919 0.06173 0.0
H1187 H 0.12978 0.95189 0.03011 0.0
H1188 H 0.12278 0.91677 0.03378 0.0
H1189 H 0.23379 0.95347 0.10401 0.0
H1190 H 0.21733 0.98159 0.08962 0.0
H1191 H 0.20184 0.96368 0.11648 0.0
H1192 H 0.16246 0.03881 0.0606 0.0
H1193 H 0.13106 0.00307 0.13224 0.0
H1194 H 0.16954 0.97978 0.02315 0.0
H1195 H 0.2003 0.98841 0.0396 0.0
H1196 H 0.1801 0.01424 0.02576 0.0
H1197 H 0.13459 0.93425 0.10804 0.0
H1198 H 0.12502 0.95567 0.13529 0.0
H1199 H 0.15921 0.94617 0.13144 0.0
C1200 C 0.20603 0.30647 0.04862 0.0
C1201 C 0.22797 0.32002 0.06013 0.0
C1202 C 0.19394 0.28465 0.06145 0.0
C1203 C 0.20379 0.27654 0.08657 0.0
C1204 C 0.2247 0.29125 0.09916 0.0
C1205 C 0.23677 0.31274 0.08564 0.0
C1206 C 0.1718 0.26925 0.04728 0.0
C1207 C 0.23523 0.28347 0.12623 0.0
C1208 C 0.15947 0.22418 0.11918 0.0
C1209 C 0.17136 0.20077 0.11013 0.0
C1210 C 0.17089 0.24926 0.11334 0.0
C1211 C 0.19438 0.25077 0.09775 0.0
C1212 C 0.20734 0.22721 0.09003 0.0
C1213 C 0.1958 0.20249 0.09654 0.0
C1214 C 0.157 0.27406 0.12251 0.0
C1215 C 0.23235 0.22802 0.07318 0.0
H1216 H 0.19908 0.31207 0.02896 0.0
H1217 H 0.25349 0.32343 0.09479 0.0
H1218 H 0.17881 0.24909 0.04193 0.0
H1219 H 0.1543 0.26658 0.06059 0.0
H1220 H 0.16522 0.27931 0.02874 0.0
H1221 H 0.24829 0.29937 0.1351 0.0
H1222 H 0.21852 0.27903 0.14014 0.0
H1223 H 0.24702 0.26509 0.12432 0.0
H1224 H 0.14079 0.22299 0.13004 0.0
H1225 H 0.20524 0.18452 0.08959 0.0
H1226 H 0.14669 0.28321 0.10532 0.0
H1227 H 0.17169 0.28902 0.13037 0.0
H1228 H 0.14193 0.26961 0.13821 0.0
H1229 H 0.22763 0.2361 0.05315 0.0
H1230 H 0.241 0.20798 0.07056 0.0
H1231 H 0.24772 0.24145 0.08232 0.0
C1232 C 0.64368 0.16204 0.94253 0.0
C1233 C 0.66711 0.1521 0.93142 0.0
C1234 C 0.63056 0.18325 0.93045 0.0
C1235 C 0.6411 0.19436 0.90666 0.0
C1236 C 0.66206 0.18153 0.89324 0.0
C1237 C 0.67496 0.16049 0.90587 0.0
C1238 C 0.60771 0.19592 0.945 0.0
C1239 C 0.67301 0.19204 0.86719 0.0
C1240 C 0.60531 0.25442 0.87946 0.0
C1241 C 0.61972 0.27544 0.89186 0.0
C1242 C 0.61266 0.22781 0.88296 0.0
C1243 C 0.63462 0.22217 0.89962 0.0
C1244 C 0.64986 0.24334 0.9113 0.0
C1245 C 0.64233 0.2697 0.90711 0.0
C1246 C 0.59624 0.20587 0.86971 0.0
C1247 C 0.67353 0.23817 0.92921 0.0
H1248 H 0.63714 0.15523 0.96202 0.0
H1249 H 0.69269 0.15237 0.89681 0.0
H1250 H 0.61498 0.21462 0.95475 0.0
H1251 H 0.5916 0.20118 0.93089 0.0
H1252 H 0.59918 0.18257 0.96061 0.0
H1253 H 0.68469 0.17675 0.85653 0.0
H1254 H 0.65667 0.19871 0.85398 0.0
H1255 H 0.68641 0.20951 0.87123 0.0
H1256 H 0.58793 0.25868 0.86738 0.0
H1257 H 0.6536 0.28576 0.91671 0.0
H1258 H 0.58177 0.19743 0.8843 0.0
H1259 H 0.609 0.1894 0.86282 0.0
H1260 H 0.58478 0.21343 0.85241 0.0
H1261 H 0.66691 0.22655 0.9469 0.0
H1262 H 0.68354 0.25689 0.93626 0.0
H1263 H 0.68842 0.22616 0.91843 0.0
C1264 C 0.05297 0.43902 0.2159 0.0
C1265 C 0.04831 0.44441 0.24295 0.0
C1266 C 0.03268 0.42845 0.19953 0.0
C1267 C 0.00704 0.42352 0.21042 0.0
C1268 C 0.0023 0.42838 0.23784 0.0
C1269 C 0.02312 0.43866 0.25388 0.0
C1270 C 0.03851 0.4232 0.17043 0.0
C1271 C 0.97509 0.4234 0.25003 0.0
C1272 C 0.94827 0.42693 0.16325 0.0
C1273 C 0.94112 0.3999 0.16008 0.0
C1274 C 0.96973 0.43481 0.17957 0.0
C1275 C 0.98473 0.41517 0.19264 0.0
C1276 C 0.97836 0.38782 0.18876 0.0
C1277 C 0.95645 0.38048 0.17265 0.0
C1278 C 0.97583 0.46421 0.18347 0.0
C1279 C -0.00558 0.36639 0.20197 0.0
H1280 H 0.07252 0.44316 0.20743 0.0
H1281 H 0.01952 0.44273 0.27481 0.0
H1282 H 0.03222 0.40255 0.16494 0.0
H1283 H 0.0269 0.43691 0.1578 0.0
H1284 H 0.06004 0.42601 0.16565 0.0
H1285 H 0.97477 0.42802 0.27172 0.0
H1286 H 0.96009 0.43581 0.23986 0.0
H1287 H 0.96879 0.40226 0.24713 0.0
H1288 H 0.93644 0.44212 0.15383 0.0
H1289 H 0.95104 0.35956 0.17031 0.0
H1290 H -0.00328 0.46895 0.17753 0.0
H1291 H 0.97389 0.46951 0.20489 0.0
H1292 H 0.96228 0.47694 0.1717 0.0
H1293 H 0.01579 0.36871 0.19646 0.0
H1294 H 0.98733 0.34601 0.19627 0.0
H1295 H -0.0068 0.36842 0.22398 0.0
C1296 C 0.80931 0.80337 0.45781 0.0
C1297 C 0.78877 0.82102 0.45236 0.0
C1298 C 0.8173 0.78489 0.43857 0.0
C1299 C 0.80479 0.78454 0.41314 0.0
C1300 C 0.78541 0.80362 0.40691 0.0
C1301 C 0.77734 0.82143 0.42676 0.0
C1302 C 0.83805 0.76476 0.44603 0.0
C1303 C 0.77228 0.80445 0.37978 0.0
C1304 C 0.84209 0.73932 0.36695 0.0
C1305 C 0.82906 0.71488 0.37243 0.0
C1306 C 0.83271 0.76314 0.37784 0.0
C1307 C 0.81002 0.76224 0.39459 0.0
C1308 C 0.79486 0.73825 0.39713 0.0
C1309 C 0.80444 0.71486 0.38573 0.0
C1310 C 0.84866 0.78865 0.37367 0.0
C1311 C 0.77028 0.73652 0.41452 0.0
H1312 H 0.81823 0.8031 0.47755 0.0
H1313 H 0.76174 0.83541 0.42235 0.0
H1314 H 0.82893 0.74439 0.44564 0.0
H1315 H 0.85459 0.76518 0.43134 0.0
H1316 H 0.84658 0.7685 0.46621 0.0
H1317 H 0.76269 0.82388 0.37617 0.0
H1318 H 0.78698 0.80089 0.36369 0.0
H1319 H 0.75663 0.78851 0.37843 0.0
H1320 H 0.86085 0.73967 0.3562 0.0
H1321 H 0.79383 0.69616 0.38942 0.0
H1322 H 0.8618 0.79236 0.39122 0.0
H1323 H 0.83534 0.80593 0.37171 0.0
H1324 H 0.86147 0.78751 0.35564 0.0
H1325 H 0.77633 0.73826 0.4358 0.0
H1326 H 0.75904 0.71736 0.41178 0.0
H1327 H 0.75671 0.75313 0.41017 0.0
C1328 C 0.91647 0.04692 0.15707 0.0
C1329 C 0.90997 0.0223 0.14514 0.0
C1330 C 0.93919 0.06155 0.14913 0.0
C1331 C 0.95553 0.05133 0.12869 0.0
C1332 C 0.94713 0.02835 0.11427 0.0
C1333 C 0.9244 0.01399 0.12274 0.0
C1334 C 0.94731 0.08622 0.16478 0.0
C1335 C 0.96365 0.01731 0.09182 0.0
C1336 C 0.01698 0.09303 0.11076 0.0
C1337 C 0.03616 0.08205 0.12777 0.0
C1338 C -0.00926 0.08262 0.10989 0.0
C1339 C 0.98357 0.06104 0.12667 0.0
C1340 C 0.00305 0.04934 0.14319 0.0
C1341 C 0.02908 0.0599 0.14342 0.0
C1342 C 0.97057 0.09528 0.09173 0.0
C1343 C -0.0038 0.0262 0.1614 0.0
H1344 H 0.90509 0.05381 0.17403 0.0
H1345 H 0.91914 -0.00473 0.11298 0.0
H1346 H 0.96385 0.08135 0.1786 0.0
H1347 H 0.9547 0.10221 0.15128 0.0
H1348 H 0.93051 0.09397 0.17676 0.0
H1349 H 0.95178 0.00327 0.07906 0.0
H1350 H 0.97198 0.03357 0.07917 0.0
H1351 H 0.9807 0.00636 0.10031 0.0
H1352 H 0.02232 0.11002 0.09841 0.0
H1353 H 0.04373 0.05116 0.15653 0.0
H1354 H 0.95697 0.10763 0.10378 0.0
H1355 H 0.95813 0.07985 0.08138 0.0
H1356 H 0.98031 0.10829 0.07654 0.0
H1357 H 0.98098 0.03229 0.17615 0.0
H1358 H 0.01389 0.019 0.17243 0.0
H1359 H 0.98751 0.00933 0.14967 0.0
C1360 C 0.31477 0.70348 0.48987 0.0
C1361 C 0.30465 0.68435 0.50774 0.0
C1362 C 0.32924 0.72586 0.49919 0.0
C1363 C 0.33351 0.72903 0.52695 0.0
C1364 C 0.32548 0.70855 0.54475 0.0
C1365 C 0.31101 0.68644 0.5349 0.0
C1366 C 0.33773 0.7472 0.4796 0.0
C1367 C 0.3299 0.71112 0.57446 0.0
C1368 C 0.37255 0.78851 0.55531 0.0
C1369 C 0.35169 0.80579 0.56119 0.0
C1370 C 0.3672 0.76348 0.54352 0.0
C1371 C 0.34043 0.75573 0.53781 0.0
C1372 C 0.31943 0.77327 0.54338 0.0
C1373 C 0.32532 0.79799 0.55494 0.0
C1374 C 0.39002 0.74525 0.53761 0.0
C1375 C 0.29055 0.76579 0.53754 0.0
H1376 H 0.31031 0.70168 0.4688 0.0
H1377 H 0.30372 0.67136 0.54873 0.0
H1378 H 0.32351 0.76383 0.48058 0.0
H1379 H 0.35786 0.75547 0.48463 0.0
H1380 H 0.33796 0.73951 0.45878 0.0
H1381 H 0.32685 0.69177 0.58486 0.0
H1382 H 0.35037 0.71887 0.57886 0.0
H1383 H 0.31561 0.72555 0.58279 0.0
H1384 H 0.39299 0.79449 0.55992 0.0
H1385 H 0.309 0.81113 0.55937 0.0
H1386 H 0.38857 0.73754 0.51687 0.0
H1387 H 0.38894 0.72779 0.55113 0.0
H1388 H 0.40978 0.75543 0.54033 0.0
H1389 H 0.28801 0.76077 0.5161 0.0
H1390 H 0.27672 0.78208 0.54256 0.0
H1391 H 0.28454 0.74788 0.54919 0.0
C1392 C 0.07776 0.54386 0.35532 0.0
C1393 C 0.08962 0.54622 0.3301 0.0
C1394 C 0.05829 0.56182 0.36348 0.0
C1395 C 0.05049 0.5822 0.34581 0.0
C1396 C 0.06557 0.5872 0.32245 0.0
C1397 C 0.08507 0.56907 0.31483 0.0
C1398 C 0.04354 0.55668 0.38923 0.0
C1399 C 0.05855 0.60934 0.30356 0.0
C1400 C 0.9759 0.58583 0.33616 0.0
C1401 C 0.9697 0.60966 0.34917 0.0
C1402 C 0.0021 0.57697 0.33501 0.0
C1403 C 0.02286 0.5922 0.34741 0.0
C1404 C 0.0169 0.61628 0.36072 0.0
C1405 C -0.00968 0.62489 0.36123 0.0
C1406 C 0.00747 0.55118 0.32042 0.0
C1407 C 0.03842 0.63314 0.3741 0.0
H1408 H 0.08177 0.52666 0.36762 0.0
H1409 H 0.09478 0.57148 0.29565 0.0
H1410 H 0.03826 0.5757 0.39906 0.0
H1411 H 0.02468 0.54543 0.38486 0.0
H1412 H 0.05555 0.54472 0.40328 0.0
H1413 H 0.07514 0.61399 0.28952 0.0
H1414 H 0.0407 0.60316 0.2917 0.0
H1415 H 0.0536 0.6277 0.31471 0.0
H1416 H 0.96021 0.57399 0.32659 0.0
H1417 H 0.9857 0.64336 0.37133 0.0
H1418 H 0.01623 0.53658 0.33433 0.0
H1419 H 0.02207 0.55481 0.30414 0.0
H1420 H 0.98907 0.54202 0.31156 0.0
H1421 H 0.05364 0.62063 0.38378 0.0
H1422 H 0.02997 0.6467 0.38933 0.0
H1423 H 0.04872 0.6456 0.35887 0.0
C1424 C 0.38485 0.44534 0.8337 0.0
C1425 C 0.38316 0.43629 0.80722 0.0
C1426 C 0.40434 0.43573 0.85103 0.0
C1427 C 0.42279 0.41717 0.84131 0.0
C1428 C 0.41932 0.40588 0.81553 0.0
C1429 C 0.39929 0.41548 0.79878 0.0
C1430 C 0.40676 0.44738 0.87876 0.0
C1431 C 0.43849 0.38576 0.80457 0.0
C1432 C 0.4959 0.42448 0.85766 0.0
C1433 C 0.50025 0.40102 0.87193 0.0
C1434 C 0.47025 0.43096 0.84919 0.0
C1435 C 0.44844 0.41364 0.85543 0.0
C1436 C 0.45224 0.39154 0.87233 0.0
C1437 C 0.47822 0.38543 0.88041 0.0
C1438 C 0.46693 0.45507 0.83157 0.0
C1439 C 0.42936 0.37307 0.88004 0.0
H1440 H 0.37191 0.46104 0.84044 0.0
H1441 H 0.39784 0.4083 0.77838 0.0
H1442 H 0.41252 0.43197 0.89339 0.0
H1443 H 0.42257 0.46323 0.87894 0.0
H1444 H 0.38777 0.45636 0.88532 0.0
H1445 H 0.43113 0.37656 0.78566 0.0
H1446 H 0.45808 0.39577 0.80063 0.0
H1447 H 0.44187 0.36972 0.81929 0.0
H1448 H 0.51278 0.43689 0.85151 0.0
H1449 H 0.48135 0.36736 0.8917 0.0
H1450 H 0.45068 0.46767 0.83918 0.0
H1451 H 0.4613 0.44849 0.81111 0.0
H1452 H 0.48552 0.46751 0.83031 0.0
H1453 H 0.41075 0.38421 0.88336 0.0
H1454 H 0.43403 0.36166 0.89838 0.0
H1455 H 0.4255 0.35857 0.86364 0.0
C1456 C 0.90884 0.78235 0.69819 0.0
C1457 C 0.93329 0.79644 0.69672 0.0
C1458 C 0.88926 0.78976 0.71665 0.0
C1459 C 0.89472 0.81125 0.73433 0.0
C1460 C 0.91954 0.82533 0.73299 0.0
C1461 C 0.93836 0.81794 0.71394 0.0
C1462 C 0.86268 0.77495 0.71695 0.0
C1463 C 0.92645 0.84804 0.75188 0.0
C1464 C 0.84871 0.85429 0.77367 0.0
C1465 C 0.85423 0.84531 0.79955 0.0
C1466 C 0.85903 0.84108 0.75136 0.0
C1467 C 0.87539 0.81876 0.75525 0.0
C1468 C 0.87778 0.80754 0.78096 0.0
C1469 C 0.86687 0.82082 0.80281 0.0
C1470 C 0.85507 0.85292 0.72403 0.0
C1471 C 0.89489 0.78364 0.78602 0.0
H1472 H 0.90481 0.76594 0.68453 0.0
H1473 H 0.95731 0.82877 0.71279 0.0
H1474 H 0.85788 0.76789 0.73737 0.0
H1475 H 0.84667 0.78867 0.71095 0.0
H1476 H 0.86229 0.75756 0.70316 0.0
H1477 H 0.9469 0.85641 0.74854 0.0
H1478 H 0.91201 0.86431 0.7494 0.0
H1479 H 0.92505 0.84109 0.77285 0.0
H1480 H 0.83841 0.87286 0.77086 0.0
H1481 H 0.87052 0.81325 0.82271 0.0
H1482 H 0.8529 0.83706 0.70865 0.0
H1483 H 0.87282 0.86546 0.71881 0.0
H1484 H 0.83721 0.86566 0.7234 0.0
H1485 H 0.8918 0.76822 0.77035 0.0
H1486 H 0.89068 0.77453 0.80579 0.0
H1487 H 0.91626 0.79002 0.78555 0.0
C1488 C 0.93045 0.26018 0.45989 0.0
C1489 C 0.94742 0.25269 0.43904 0.0
C1490 C 0.92451 0.24274 0.48093 0.0
C1491 C 0.93582 0.21715 0.48115 0.0
C1492 C 0.95268 0.20926 0.46006 0.0
C1493 C 0.9583 0.22714 0.43922 0.0
C1494 C 0.90634 0.25183 0.50307 0.0
C1495 C 0.96502 0.18206 0.45969 0.0
C1496 C 0.94021 0.1851 0.54928 0.0
C1497 C 0.9172 0.16861 0.54943 0.0
C1498 C 0.94698 0.20037 0.52682 0.0
C1499 C 0.93042 0.19902 0.50392 0.0
C1500 C 0.90775 0.18168 0.50352 0.0
C1501 C 0.90137 0.16671 0.52631 0.0
C1502 C 0.97127 0.21874 0.528 0.0
C1503 C 0.8897 0.17965 0.47937 0.0
H1504 H 0.92184 0.27982 0.45992 0.0
H1505 H 0.97139 0.22116 0.42319 0.0
H1506 H 0.8888 0.23802 0.50468 0.0
H1507 H 0.91705 0.25138 0.52246 0.0
H1508 H 0.89905 0.27232 0.49982 0.0
H1509 H 0.97701 0.17868 0.44141 0.0
H1510 H 0.97815 0.17982 0.47737 0.0
H1511 H 0.94918 0.1663 0.46094 0.0
H1512 H 0.9526 0.18673 0.567 0.0
H1513 H 0.88364 0.15392 0.52613 0.0
H1514 H 0.96494 0.23978 0.52702 0.0
H1515 H 0.9844 0.21522 0.51059 0.0
H1516 H 0.98308 0.21609 0.54656 0.0
H1517 H 0.87961 0.19888 0.47635 0.0
H1518 H 0.87417 0.16363 0.48145 0.0
H1519 H 0.90158 0.17572 0.46118 0.0
C1520 C 0.58892 0.16528 0.16882 0.0
C1521 C 0.59337 0.19242 0.16357 0.0
C1522 C 0.60348 0.15269 0.18889 0.0
C1523 C 0.62293 0.16768 0.20339 0.0
C1524 C 0.63125 0.19307 0.19403 0.0
C1525 C 0.61597 0.20548 0.17439 0.0
C1526 C 0.5949 0.12501 0.19747 0.0
C1527 C 0.6535 0.20871 0.20758 0.0
C1528 C 0.61077 0.16414 0.27748 0.0
C1529 C 0.62917 0.14521 0.28568 0.0
C1530 C 0.60924 0.17205 0.25087 0.0
C1531 C 0.62707 0.16126 0.23193 0.0
C1532 C 0.64688 0.14341 0.24032 0.0
C1533 C 0.64744 0.13525 0.26712 0.0
C1534 C 0.58764 0.19117 0.24296 0.0
C1535 C 0.6669 0.13208 0.22116 0.0
H1536 H 0.57191 0.15486 0.15989 0.0
H1537 H 0.62009 0.22622 0.16958 0.0
H1538 H 0.61251 0.113 0.20253 0.0
H1539 H 0.58229 0.12639 0.2156 0.0
H1540 H 0.58313 0.11446 0.18168 0.0
H1541 H 0.66231 0.224 0.19401 0.0
H1542 H 0.64546 0.2191 0.22532 0.0
H1543 H 0.66945 0.19531 0.21445 0.0
H1544 H 0.59661 0.17198 0.29167 0.0
H1545 H 0.66195 0.12081 0.27341 0.0
H1546 H 0.57443 0.18191 0.22755 0.0
H1547 H 0.59676 0.20953 0.23432 0.0
H1548 H 0.57504 0.19705 0.26013 0.0
H1549 H 0.65944 0.11235 0.21394 0.0
H1550 H 0.68631 0.12892 0.23135 0.0
H1551 H 0.67037 0.14516 0.20363 0.0
C1552 C 0.55469 0.7886 0.88858 0.0
C1553 C 0.52916 0.79893 0.88481 0.0
C1554 C 0.57159 0.79876 0.90861 0.0
C1555 C 0.56258 0.81967 0.92501 0.0
C1556 C 0.53914 0.83327 0.91795 0.0
C1557 C 0.52242 0.82257 0.8979 0.0
C1558 C 0.59707 0.78446 0.91473 0.0
C1559 C 0.5299 0.85682 0.93397 0.0
C1560 C 0.5698 0.80505 -0.00159 0.0
C1561 C 0.59233 0.82048 0.00549 0.0
C1562 C 0.55989 0.80507 0.97236 0.0
C1563 C 0.57254 0.82139 0.95285 0.0
C1564 C 0.59496 0.8376 0.95995 0.0
C1565 C 0.60487 0.83665 0.9862 0.0
C1566 C 0.53609 0.78713 0.96569 0.0
C1567 C 0.60888 0.85558 0.94002 0.0
H1568 H 0.56043 0.77089 0.87772 0.0
H1569 H 0.50302 0.83114 0.89453 0.0
H1570 H 0.6134 0.79892 0.91972 0.0
H1571 H 0.59387 0.77137 0.93231 0.0
H1572 H 0.60349 0.7719 0.8977 0.0
H1573 H 0.51561 0.86894 0.92244 0.0
H1574 H 0.51968 0.84956 0.95228 0.0
H1575 H 0.54713 0.86969 0.9402 0.0
H1576 H 0.56012 0.79243 0.0132 0.0
H1577 H 0.62221 0.84882 -0.00833 0.0
H1578 H 0.54138 0.77296 0.94959 0.0
H1579 H 0.51933 0.79921 0.95834 0.0
H1580 H 0.52895 0.77542 0.98316 0.0
H1581 H 0.62524 0.84455 0.93037 0.0
H1582 H 0.618 0.87336 0.95004 0.0
H1583 H 0.59509 0.86236 0.92419 0.0
C1584 C 0.93483 0.14184 0.84399 0.0
C1585 C 0.92402 0.16725 0.84691 0.0
C1586 C 0.92798 0.12576 0.82202 0.0
C1587 C 0.91023 0.13566 0.80264 0.0
C1588 C 0.89575 0.15896 0.80813 0.0
C1589 C 0.90282 0.1746 0.8304 0.0
C1590 C 0.94273 0.10024 0.81759 0.0
C1591 C 0.87573 0.1695 0.78848 0.0
C1592 C 0.93365 0.13354 0.73117 0.0
C1593 C 0.91606 0.11466 0.71974 0.0
C1594 C 0.93238 0.13974 0.75832 0.0
C1595 C 0.91292 0.12678 0.77454 0.0
C1596 C 0.89588 0.10676 0.76347 0.0
C1597 C 0.89766 0.10091 0.73609 0.0
C1598 C 0.95135 0.16094 0.76938 0.0
C1599 C 0.87491 0.09245 0.77998 0.0
H1600 H 0.95062 0.13566 0.85731 0.0
H1601 H 0.8939 0.19394 0.83293 0.0
H1602 H 0.92965 0.0849 0.80788 0.0
H1603 H 0.95999 0.10424 0.80422 0.0
H1604 H 0.95043 0.09214 0.83667 0.0
H1605 H 0.86246 0.18426 0.79791 0.0
H1606 H 0.88654 0.17944 0.7718 0.0
H1607 H 0.86328 0.15301 0.77994 0.0
H1608 H 0.94809 0.14399 0.71869 0.0
H1609 H 0.88386 0.08638 0.72733 0.0
H1610 H 0.96276 0.1529 0.78645 0.0
H1611 H 0.93988 0.17811 0.77684 0.0
H1612 H 0.96581 0.16839 0.75422 0.0
H1613 H 0.88164 0.08957 0.80087 0.0
H1614 H 0.86944 0.07269 0.77122 0.0
H1615 H 0.85662 0.10454 0.78049 0.0
C1616 C 0.5345 0.18656 0.56714 0.0
C1617 C 0.50672 0.18302 0.56505 0.0
C1618 C 0.55158 0.17389 0.54926 0.0
C1619 C 0.54051 0.15723 0.52906 0.0
C1620 C 0.51276 0.15124 0.52884 0.0
C1621 C 0.49612 0.16435 0.54683 0.0
C1622 C 0.58109 0.1807 0.55024 0.0
C1623 C 0.50028 0.13318 0.50789 0.0
C1624 C 0.57256 0.16352 0.46124 0.0
C1625 C 0.58749 0.14027 0.45968 0.0
C1626 C 0.55731 0.16913 0.48378 0.0
C1627 C 0.55674 0.15092 0.50529 0.0
C1628 C 0.57164 0.12732 0.50393 0.0
C1629 C 0.58702 0.12231 0.48112 0.0
C1630 C 0.54185 0.19469 0.48455 0.0
C1631 C 0.5712 0.1074 0.52645 0.0
H1632 H 0.54285 0.2007 0.58146 0.0
H1633 H 0.47467 0.16118 0.54545 0.0
H1634 H 0.59313 0.16276 0.54662 0.0
H1635 H 0.58599 0.19529 0.53428 0.0
H1636 H 0.58711 0.18964 0.56972 0.0
H1637 H 0.47982 0.12635 0.51362 0.0
H1638 H 0.49893 0.14416 0.48876 0.0
H1639 H 0.51269 0.11547 0.50439 0.0
H1640 H 0.57295 0.1776 0.44487 0.0
H1641 H 0.59841 0.10422 0.47996 0.0
H1642 H 0.54822 0.20694 0.50201 0.0
H1643 H 0.5202 0.19008 0.48681 0.0
H1644 H 0.54472 0.20682 0.46622 0.0
H1645 H 0.57829 0.11709 0.54517 0.0
H1646 H 0.58387 0.08998 0.52224 0.0
H1647 H 0.55042 0.10014 0.53001 0.0
C1648 C 0.52801 0.77291 0.29942 0.0
C1649 C 0.50401 0.78684 0.30019 0.0
C1650 C 0.54522 0.77516 0.27741 0.0
C1651 C 0.53818 0.79172 0.25582 0.0
C1652 C 0.51404 0.80582 0.2565 0.0
C1653 C 0.49726 0.80317 0.27863 0.0
C1654 C 0.57086 0.75989 0.27722 0.0
C1655 C 0.50588 0.82377 0.23383 0.0
C1656 C 0.58656 0.82232 0.20649 0.0
C1657 C 0.58041 0.80749 0.18339 0.0
C1658 C 0.57443 0.8161 0.23092 0.0
C1659 C 0.55576 0.79457 0.23222 0.0
C1660 C 0.55108 0.77826 0.20955 0.0
C1661 C 0.56348 0.78491 0.18537 0.0
C1662 C 0.58005 0.83386 0.25476 0.0
C1663 C 0.53142 0.755 0.21023 0.0
H1664 H 0.53337 0.76025 0.316 0.0
H1665 H 0.47881 0.81405 0.279 0.0
H1666 H 0.57122 0.74636 0.25967 0.0
H1667 H 0.58819 0.77392 0.27535 0.0
H1668 H 0.57341 0.74786 0.29559 0.0
H1669 H 0.48661 0.83364 0.23769 0.0
H1670 H 0.52149 0.83943 0.23052 0.0
H1671 H 0.50394 0.81203 0.2151 0.0
H1672 H 0.59988 0.8396 0.20529 0.0
H1673 H 0.55889 0.77306 0.16775 0.0
H1674 H 0.58308 0.82179 0.27298 0.0
H1675 H 0.56262 0.84666 0.25837 0.0
H1676 H 0.59795 0.84698 0.25171 0.0
H1677 H 0.53445 0.74277 0.22834 0.0
H1678 H 0.5331 0.74199 0.19235 0.0
H1679 H 0.51079 0.76261 0.21102 0.0
C1680 C 0.92546 0.80031 0.01687 0.0
C1681 C 0.94257 0.79994 0.03885 0.0
C1682 C 0.91933 0.82435 0.00449 0.0
C1683 C 0.92975 0.84872 0.01516 0.0
C1684 C 0.94715 0.84842 0.03744 0.0
C1685 C 0.95366 0.82386 0.04886 0.0
C1686 C 0.90126 0.82356 0.98026 0.0
C1687 C 0.95781 0.87382 0.05016 0.0
C1688 C 0.92324 0.89769 0.96042 0.0
C1689 C 0.89575 0.9022 0.96257 0.0
C1690 C 0.9365 0.88324 0.98005 0.0
C1691 C 0.92194 0.87402 0.00244 0.0
C1692 C 0.89615 0.8839 0.0074 0.0
C1693 C 0.8831 0.89785 0.98715 0.0
C1694 C 0.9644 0.87395 0.97441 0.0
C1695 C 0.88083 0.87615 0.03215 0.0
H1696 H 0.91687 0.7817 0.00937 0.0
H1697 H 0.96645 0.82345 0.06634 0.0
H1698 H 0.88175 0.83233 0.98532 0.0
H1699 H 0.91017 0.83546 0.96377 0.0
H1700 H 0.89751 0.80291 0.97287 0.0
H1701 H 0.97652 0.87035 0.06147 0.0
H1702 H 0.96165 0.8897 0.03522 0.0
H1703 H 0.94272 0.88125 0.06439 0.0
H1704 H 0.93343 0.90208 0.9418 0.0
H1705 H 0.86208 0.9021 -0.01063 0.0
H1706 H 0.96322 0.85348 0.96592 0.0
H1707 H 0.97647 0.87324 -0.00705 0.0
H1708 H 0.97482 0.88712 0.95979 0.0
H1709 H 0.87162 0.85601 0.02929 0.0
H1710 H 0.86462 0.89034 0.03631 0.0
H1711 H 0.89433 0.87539 0.04972 0.0
C1712 C 0.63213 0.93438 0.82868 0.0
C1713 C 0.62933 0.92764 0.80161 0.0
C1714 C 0.65165 0.92243 0.84435 0.0
C1715 C 0.66832 0.90341 0.83244 0.0
C1716 C 0.66114 0.89224 0.80741 0.0
C1717 C 0.64172 0.90477 0.79193 0.0
C1718 C 0.6576 0.93379 0.87169 0.0
C1719 C 0.67708 0.87023 0.79515 0.0
C1720 C 0.74128 0.92326 0.83648 0.0
C1721 C 0.75063 0.90667 0.85659 0.0
C1722 C 0.71458 0.92214 0.82856 0.0
C1723 C 0.69678 0.90336 0.84064 0.0
C1724 C 0.7062 0.88614 0.86075 0.0
C1725 C 0.73312 0.8882 0.86872 0.0
C1726 C 0.70551 0.94144 0.80739 0.0
C1727 C 0.68836 0.86504 0.8733 0.0
H1728 H 0.62157 0.95128 0.83666 0.0
H1729 H 0.63886 0.89871 0.77131 0.0
H1730 H 0.66432 0.91808 0.88553 0.0
H1731 H 0.67392 0.94905 0.87009 0.0
H1732 H 0.63983 0.94348 0.88034 0.0
H1733 H 0.6652 0.85908 0.77986 0.0
H1734 H 0.69505 0.87899 0.78529 0.0
H1735 H 0.68386 0.85615 0.81068 0.0
H1736 H 0.75486 0.93763 0.82725 0.0
H1737 H 0.74058 0.87503 0.88401 0.0
H1738 H 0.68872 0.95337 0.81496 0.0
H1739 H 0.69835 0.93031 0.78951 0.0
H1740 H 0.72175 0.95546 0.80104 0.0
H1741 H 0.66731 0.87133 0.87466 0.0
H1742 H 0.69551 0.85974 0.89357 0.0
H1743 H 0.68874 0.84678 0.86075 0.0
C1744 C 0.80362 0.9499 0.49491 0.0
C1745 C 0.78341 0.94327 0.51319 0.0
C1746 C 0.82294 0.96972 0.50104 0.0
C1747 C 0.82148 0.98339 0.52571 0.0
C1748 C 0.80058 0.97718 0.54384 0.0
C1749 C 0.782 0.95696 0.53746 0.0
C1750 C 0.84529 0.97541 0.48156 0.0
C1751 C 0.79791 -0.00824 0.57014 0.0
C1752 C 0.87576 0.01861 0.56478 0.0
C1753 C 0.86795 0.04514 0.56197 0.0
C1754 C 0.86276 -0.0019 0.55039 0.0
C1755 C 0.84142 0.00438 0.53311 0.0
C1756 C 0.83586 0.03132 0.52766 0.0
C1757 C 0.84939 0.05143 0.54201 0.0
C1758 C 0.86988 0.96957 0.55596 0.0
C1759 C 0.81339 0.0389 0.50921 0.0
H1760 H 0.80485 0.93902 0.47624 0.0
H1761 H 0.76626 0.95185 0.5515 0.0
H1762 H 0.84766 -0.00285 0.47803 0.0
H1763 H 0.86438 0.9685 0.49011 0.0
H1764 H 0.84191 0.9652 0.4621 0.0
H1765 H 0.77987 0.98519 0.58141 0.0
H1766 H 0.81574 0.98834 0.58276 0.0
H1767 H 0.79682 0.01354 0.56666 0.0
H1768 H 0.89052 0.01356 0.57969 0.0
H1769 H 0.84369 0.07195 0.53912 0.0
H1770 H 0.8692 0.95748 0.53738 0.0
H1771 H 0.85513 0.96071 0.57005 0.0
H1772 H 0.89007 0.9682 0.56503 0.0
H1773 H 0.81305 0.0263 0.49099 0.0
H1774 H 0.81497 0.06017 0.5032 0.0
H1775 H 0.79404 0.03566 0.51961 0.0
C1776 C 0.79843 0.06491 0.25937 0.0
C1777 C 0.81981 0.04942 0.26771 0.0
C1778 C 0.78175 0.07689 0.27812 0.0
C1779 C 0.78663 0.07306 0.30568 0.0
C1780 C 0.81011 0.06036 0.31406 0.0
C1781 C 0.82649 0.04864 0.29491 0.0
C1782 C 0.75724 0.09097 0.26841 0.0
C1783 C 0.81632 0.05645 0.34326 0.0
C1784 C 0.73704 0.10427 0.35299 0.0
C1785 C 0.71762 0.08377 0.35439 0.0
C1786 C 0.7605 0.10087 0.33815 0.0
C1787 C 0.76441 0.07637 0.32476 0.0
C1788 C 0.74565 0.05505 0.32781 0.0
C1789 C 0.72243 0.05909 0.34248 0.0
C1790 C 0.78008 0.124 0.33545 0.0
C1791 C 0.7493 0.02837 0.31433 0.0
H1792 H 0.79351 0.06606 0.23833 0.0
H1793 H 0.84339 0.03719 0.30146 0.0
H1794 H 0.73944 0.07765 0.27097 0.0
H1795 H 0.75394 0.10931 0.28025 0.0
H1796 H 0.7588 0.0964 0.24698 0.0
H1797 H 0.83765 0.05172 0.34648 0.0
H1798 H 0.81152 0.07448 0.35504 0.0
H1799 H 0.80387 0.03963 0.35104 0.0
H1800 H 0.7332 0.12343 0.36213 0.0
H1801 H 0.7075 0.04316 0.34388 0.0
H1802 H 0.77653 0.13419 0.31619 0.0
H1803 H 0.80099 0.11714 0.33543 0.0
H1804 H 0.7777 0.13879 0.35178 0.0
H1805 H 0.74842 0.03083 0.29235 0.0
H1806 H 0.73373 0.01343 0.32024 0.0
H1807 H 0.76917 0.02037 0.31934 0.0
C1808 C 0.69891 0.02903 0.01052 0.0
C1809 C 0.721 0.03909 0.02496 0.0
C1810 C 0.68764 0.00386 0.0163 0.0
C1811 C 0.69876 0.98844 0.03695 0.0
C1812 C 0.72169 -0.00201 0.05084 0.0
C1813 C 0.73253 0.0232 0.04469 0.0
C1814 C 0.66324 -0.00577 0.001 0.0
C1815 C 0.73421 0.98198 0.0729 0.0
C1816 C 0.65485 0.93966 0.07529 0.0
C1817 C 0.66273 0.91509 0.06479 0.0
C1818 C 0.66593 0.9637 0.06584 0.0
C1819 C 0.68539 0.9632 0.04543 0.0
C1820 C 0.69288 0.9386 0.03415 0.0
C1821 C 0.68143 0.91481 0.04395 0.0
C1822 C 0.65734 -0.01038 0.07826 0.0
C1823 C 0.71357 0.93735 0.01233 0.0
H1824 H 0.68994 0.04109 -0.00486 0.0
H1825 H 0.74973 0.0307 0.0558 0.0
H1826 H 0.66627 0.97383 -0.0069 0.0
H1827 H 0.6458 -0.00684 0.01459 0.0
H1828 H 0.6584 0.00757 0.98409 0.0
H1829 H 0.75303 -0.00858 0.0805 0.0
H1830 H 0.72 0.9799 0.08977 0.0
H1831 H 0.73856 0.9616 0.06573 0.0
H1832 H 0.64031 0.94015 0.09126 0.0
H1833 H 0.68765 0.89596 0.03565 0.0
H1834 H 0.65042 0.00342 0.06256 0.0
H1835 H 0.6746 -0.00052 0.08847 0.0
H1836 H 0.64102 0.98665 0.09301 0.0
H1837 H 0.70815 0.95064 -0.00439 0.0
H1838 H 0.71583 0.91681 0.00442 0.0
H1839 H 0.7332 0.94455 0.02014 0.0
C1840 C 0.70221 0.01028 0.69169 0.0
C1841 C 0.69053 0.02043 0.7149 0.0
C1842 C 0.72604 0.02139 0.68168 0.0
C1843 C 0.73847 0.04311 0.69526 0.0
C1844 C 0.72711 0.05317 0.71895 0.0
C1845 C 0.70324 0.0417 0.72851 0.0
C1846 C 0.73772 0.0101 0.65638 0.0
C1847 C 0.73998 0.07625 0.73397 0.0
C1848 C 0.81161 0.05562 0.6801 0.0
C1849 C 0.81042 0.07594 0.66095 0.0
C1850 C 0.78836 0.04522 0.69197 0.0
C1851 C 0.76333 0.05535 0.68446 0.0
C1852 C 0.76198 0.07636 0.66575 0.0
C1853 C 0.78558 0.08646 0.65423 0.0
C1854 C 0.79053 0.02292 0.712 0.0
C1855 C 0.73555 0.08765 0.65735 0.0
H1856 H 0.69256 -0.00616 0.68108 0.0
H1857 H 0.69438 0.04965 0.74649 0.0
H1858 H 0.73886 0.02578 0.64083 0.0
H1859 H 0.75838 0.00348 0.66013 0.0
H1860 H 0.72574 -0.00707 0.64844 0.0
H1861 H 0.72891 0.0813 0.75243 0.0
H1862 H 0.7608 0.07146 0.73947 0.0
H1863 H 0.74096 0.09413 0.72101 0.0
H1864 H 0.83072 0.04751 0.68564 0.0
H1865 H 0.78448 0.10218 0.6395 0.0
H1866 H 0.78056 0.00459 0.70402 0.0
H1867 H 0.78016 0.02822 0.73076 0.0
H1868 H 0.81162 0.01835 0.71679 0.0
H1869 H 0.72327 0.07195 0.64719 0.0
H1870 H 0.73804 0.10484 0.6436 0.0
H1871 H 0.72424 0.09419 0.67513 0.0
C1872 C 0.65725 0.90639 0.43701 0.0
C1873 C 0.65742 0.90318 0.46479 0.0
C1874 C 0.64302 0.92706 0.42537 0.0
C1875 C 0.62849 0.94433 0.44203 0.0
C1876 C 0.62407 0.93743 0.46901 0.0
C1877 C 0.63903 0.91703 0.48033 0.0
C1878 C 0.64749 0.93312 0.39621 0.0
C1879 C 0.6069 0.95417 0.48682 0.0
C1880 C 0.64879 0.01608 0.43057 0.0
C1881 C 0.6283 0.02494 0.41405 0.0
C1882 C 0.64847 -0.00989 0.4404 0.0
C1883 C 0.62669 0.97263 0.43406 0.0
C1884 C 0.60516 0.98185 0.41853 0.0
C1885 C 0.60634 0.00796 0.40843 0.0
C1886 C 0.67216 0.98117 0.45666 0.0
C1887 C 0.58089 0.96439 0.41271 0.0
H1888 H 0.67072 0.89503 0.42472 0.0
H1889 H 0.63826 0.91386 0.50171 0.0
H1890 H 0.62897 0.94025 0.38669 0.0
H1891 H 0.663 0.94918 0.39439 0.0
H1892 H 0.65442 0.91536 0.38512 0.0
H1893 H 0.59966 0.94261 0.50435 0.0
H1894 H 0.61882 0.97158 0.49426 0.0
H1895 H 0.58949 0.96178 0.47567 0.0
H1896 H 0.6658 0.02914 0.43493 0.0
H1897 H 0.5902 0.01503 0.39606 0.0
H1898 H 0.68152 0.96383 0.44692 0.0
H1899 H 0.66552 0.97487 0.47681 0.0
H1900 H 0.68768 -0.00283 0.45909 0.0
H1901 H 0.58648 0.94362 0.40802 0.0
H1902 H 0.56891 0.97223 0.39589 0.0
H1903 H 0.56804 0.96366 0.43071 0.0
C1904 C 0.77581 0.92989 0.1802 0.0
C1905 C 0.79609 0.92639 0.19891 0.0
C1906 C 0.75948 0.90841 0.17211 0.0
C1907 C 0.76426 0.8826 0.18236 0.0
C1908 C 0.78496 0.87891 0.20117 0.0
C1909 C 0.80051 0.90105 0.20952 0.0
C1910 C 0.73712 0.91347 0.15253 0.0
C1911 C 0.79148 0.85162 0.21164 0.0
C1912 C 0.70056 0.84429 0.17341 0.0
C1913 C 0.70285 0.83759 0.14632 0.0
C1914 C 0.72215 0.85586 0.18724 0.0
C1915 C 0.74655 0.86019 0.17365 0.0
C1916 C 0.75031 0.84867 0.14814 0.0
C1917 C 0.72819 0.83761 0.13451 0.0
C1918 C 0.71745 0.86721 0.21473 0.0
C1919 C 0.77668 0.85139 0.13381 0.0
H1920 H 0.77263 0.94956 0.17202 0.0
H1921 H 0.81673 0.89839 0.22358 0.0
H1922 H 0.74066 0.90248 0.13367 0.0
H1923 H 0.71778 0.90613 0.16078 0.0
H1924 H 0.73532 0.93496 0.14772 0.0
H1925 H 0.80351 0.85289 0.23028 0.0
H1926 H 0.77315 0.83944 0.21549 0.0
H1927 H 0.80327 0.84097 0.19639 0.0
H1928 H 0.68113 0.84334 0.18293 0.0
H1929 H 0.73024 0.83178 0.11377 0.0
H1930 H 0.71406 0.88894 0.21305 0.0
H1931 H 0.73508 0.86455 0.22781 0.0
H1932 H 0.69968 0.85779 0.2244 0.0
H1933 H 0.77834 0.87144 0.12458 0.0
H1934 H 0.77841 0.83621 0.11775 0.0
H1935 H 0.79359 0.84939 0.14797 0.0
C1936 C 0.83768 0.10139 0.96095 0.0
C1937 C 0.81454 0.11406 0.9523 0.0
C1938 C 0.85006 0.08291 0.94425 0.0
C1939 C 0.83842 0.07701 0.91912 0.0
C1940 C 0.81974 0.09463 0.90819 0.0
C1941 C 0.80786 0.1132 0.92508 0.0
C1942 C 0.87208 0.0662 0.95538 0.0
C1943 C 0.8086 0.09049 0.88049 0.0
C1944 C 0.85134 0.01203 0.88231 0.0
C1945 C 0.83286 -0.00513 0.89495 0.0
C1946 C 0.85403 0.0389 0.89011 0.0
C1947 C 0.83715 0.04877 0.91033 0.0
C1948 C 0.81797 0.03146 0.92256 0.0
C1949 C 0.8164 0.00471 0.91494 0.0
C1950 C 0.87484 0.05629 0.87651 0.0
C1951 C 0.79897 0.04095 0.94386 0.0
H1952 H 0.84387 0.10296 0.98166 0.0
H1953 H 0.79091 0.1242 0.91786 0.0
H1954 H 0.86319 0.04818 0.96496 0.0
H1955 H 0.88564 0.05962 0.93926 0.0
H1956 H 0.88385 0.07742 0.97071 0.0
H1957 H 0.79854 0.10857 0.87313 0.0
H1958 H 0.82469 0.08524 0.86636 0.0
H1959 H 0.79373 0.07373 0.88075 0.0
H1960 H 0.86423 0.0043 0.86688 0.0
H1961 H 0.80199 -0.00857 0.92452 0.0
H1962 H 0.88057 0.07419 0.88845 0.0
H1963 H 0.86687 0.06295 0.85701 0.0
H1964 H 0.89308 0.04478 0.87235 0.0
H1965 H 0.81035 0.04744 0.96183 0.0
H1966 H 0.78436 0.02516 0.95001 0.0
H1967 H 0.78761 0.0582 0.93652 0.0
C1968 C 0.75968 0.71857 0.98083 0.0
C1969 C 0.76537 0.69543 0.96647 0.0
C1970 C 0.76948 0.74349 0.97224 0.0
C1971 C 0.78434 0.74517 0.94825 0.0
C1972 C 0.78898 0.72189 0.93308 0.0
C1973 C 0.77989 0.69717 0.94271 0.0
C1974 C 0.7649 0.76781 -0.01067 0.0
C1975 C 0.80385 0.72305 0.9069 0.0
C1976 C 0.79156 0.81274 0.9153 0.0
C1977 C 0.81808 0.81965 0.92153 0.0
C1978 C 0.78034 0.78834 0.92361 0.0
C1979 C 0.79581 0.7711 0.93937 0.0
C1980 C 0.8225 0.77833 0.94616 0.0
C1981 C 0.83353 0.8024 0.93665 0.0
C1982 C 0.75217 0.78085 0.91519 0.0
C1983 C 0.83926 0.7608 0.96365 0.0
H1984 H 0.74864 0.717 -0.00063 0.0
H1985 H 0.78407 0.67913 0.93162 0.0
H1986 H 0.7844 0.77649 -0.00405 0.0
H1987 H 0.75472 0.78332 0.9776 0.0
H1988 H 0.75267 0.76311 0.00725 0.0
H1989 H 0.80372 0.70346 0.89649 0.0
H1990 H 0.79483 0.73799 0.89353 0.0
H1991 H 0.82491 0.72946 0.91044 0.0
H1992 H 0.77978 0.82623 0.90345 0.0
H1993 H 0.85396 0.80809 0.9416 0.0
H1994 H 0.7394 0.77774 0.93301 0.0
H1995 H 0.75213 0.76176 0.90394 0.0
H1996 H 0.74308 0.79634 0.90247 0.0
H1997 H 0.82865 0.75655 0.98265 0.0
H1998 H 0.85906 0.77008 0.96836 0.0
H1999 H 0.84245 0.74141 0.9536 0.0
C2000 C 0.28027 0.80996 0.07926 0.0
C2001 C 0.29182 0.79998 0.05583 0.0
C2002 C 0.2833 0.79689 0.10377 0.0
C2003 C 0.29815 0.77329 0.10474 0.0
C2004 C 0.31023 0.76339 0.08118 0.0
C2005 C 0.307 0.77695 0.05708 0.0
C2006 C 0.27101 0.80873 0.12849 0.0
C2007 C 0.32629 0.73816 0.0812 0.0
C2008 C 0.33329 0.73663 0.15769 0.0
C2009 C 0.31846 0.7126 0.15583 0.0
C2010 C 0.32448 0.75941 0.14449 0.0
C2011 C 0.30044 0.75771 0.12968 0.0
C2012 C 0.28266 0.73579 0.13362 0.0
C2013 C 0.29183 0.71338 0.14711 0.0
C2014 C 0.34299 0.78342 0.1425 0.0
C2015 C 0.25604 0.73392 0.1195 0.0
H2016 H 0.2689 0.82809 0.07851 0.0
H2017 H 0.31603 0.76923 0.03907 0.0
H2018 H 0.26333 0.7931 0.14225 0.0
H2019 H 0.28653 0.82061 0.13936 0.0
H2020 H 0.25445 0.82221 0.12342 0.0
H2021 H 0.33404 0.73312 0.06108 0.0
H2022 H 0.34354 0.74042 0.09501 0.0
H2023 H 0.31375 0.72111 0.08831 0.0
H2024 H 0.35343 0.73669 0.16571 0.0
H2025 H 0.27965 0.69523 0.14696 0.0
H2026 H 0.33154 0.80207 0.14143 0.0
H2027 H 0.35506 0.78189 0.12402 0.0
H2028 H 0.35691 0.78465 0.15979 0.0
H2029 H 0.24619 0.75351 0.11929 0.0
H2030 H 0.24246 0.71898 0.12906 0.0
H2031 H 0.25923 0.72771 0.09848 0.0
C2032 C 0.93906 0.46575 0.79493 0.0
C2033 C 0.92913 0.47134 0.76941 0.0
C2034 C 0.95808 0.48282 0.8072 0.0
C2035 C 0.96747 0.5058 0.79347 0.0
C2036 C 0.95735 0.51163 0.76782 0.0
C2037 C 0.93829 0.4944 0.75616 0.0
C2038 C 0.96842 0.4761 0.83463 0.0
C2039 C 0.9671 0.53578 0.7524 0.0
C2040 C 0.00423 0.56332 0.82808 0.0
C2041 C 0.0308 0.5582 0.82128 0.0
C2042 C 0.98335 0.54591 0.81999 0.0
C2043 C -0.01074 0.5229 0.80484 0.0
C2044 C 0.01605 0.51724 0.7986 0.0
C2045 C 0.03644 0.53493 0.80685 0.0
C2046 C 0.95494 0.55248 0.82701 0.0
C2047 C 0.02319 0.4929 0.78248 0.0
H2048 H 0.93194 0.44809 0.80536 0.0
H2049 H 0.93077 0.49892 0.73643 0.0
H2050 H -0.00993 0.47197 0.83357 0.0
H2051 H 0.96608 0.49332 0.84831 0.0
H2052 H 0.95791 0.45843 0.8433 0.0
H2053 H 0.95635 0.53808 0.73315 0.0
H2054 H 0.96453 0.55413 0.76444 0.0
H2055 H 0.98875 0.53412 0.74817 0.0
H2056 H -0.00031 0.58111 0.83937 0.0
H2057 H 0.0569 0.53049 0.80177 0.0
H2058 H 0.94482 0.53507 0.83652 0.0
H2059 H 0.94366 0.55703 0.80855 0.0
H2060 H 0.95387 0.56987 0.84073 0.0
H2061 H 0.01443 0.47465 0.79171 0.0
H2062 H 0.04512 0.49052 0.78077 0.0
H2063 H 0.01467 0.49441 0.76209 0.0
C2064 C 0.20918 0.16155 0.56106 0.0
C2065 C 0.20172 0.16479 0.53428 0.0
C2066 C 0.19851 0.17765 0.58114 0.0
C2067 C 0.18084 0.19804 0.57397 0.0
C2068 C 0.17207 0.2003 0.54714 0.0
C2069 C 0.18236 0.18332 0.52767 0.0
C2070 C 0.20738 0.1737 0.60963 0.0
C2071 C 0.15334 0.22192 0.53859 0.0
C2072 C 0.13941 0.2436 0.61572 0.0
C2073 C 0.15458 0.26738 0.61342 0.0
C2074 C 0.1492 0.21949 0.6059 0.0
C2075 C 0.17435 0.2195 0.59314 0.0
C2076 C 0.19114 0.24254 0.59427 0.0
C2077 C 0.18117 0.26616 0.60481 0.0
C2078 C 0.13149 0.19479 0.60667 0.0
C2079 C 0.21835 0.24329 0.58128 0.0
H2080 H 0.22385 0.14683 0.56625 0.0
H2081 H 0.17653 0.18573 0.50698 0.0
H2082 H 0.22516 0.18665 0.61377 0.0
H2083 H 0.19151 0.179 0.62399 0.0
H2084 H 0.21311 0.15273 0.61316 0.0
H2085 H 0.14778 0.22029 0.51716 0.0
H2086 H 0.13481 0.221 0.55064 0.0
H2087 H 0.16297 0.24178 0.54204 0.0
H2088 H 0.11911 0.24414 0.62314 0.0
H2089 H 0.19335 0.28425 0.60363 0.0
H2090 H 0.14346 0.17667 0.60968 0.0
H2091 H 0.12074 0.19256 0.58738 0.0
H2092 H 0.11637 0.196 0.62281 0.0
H2093 H 0.2301 0.2259 0.5875 0.0
H2094 H 0.22992 0.26179 0.58631 0.0
H2095 H 0.21593 0.24223 0.55927 0.0
C2096 C 0.03518 -0.00697 0.78712 0.0
C2097 C 0.04399 0.97495 0.76788 0.0
C2098 C 0.01165 0.98776 0.80151 0.0
C2099 C -0.00336 0.96412 0.79606 0.0
C2100 C 0.00498 0.94637 0.7759 0.0
C2101 C 0.02869 0.95193 0.76218 0.0
C2102 C 0.00331 0.00697 0.82303 0.0
C2103 C -0.01082 0.9212 0.76915 0.0
C2104 C 0.95095 0.92954 0.84538 0.0
C2105 C 0.9258 0.93595 0.8352 0.0
C2106 C 0.97434 0.94013 0.83391 0.0
C2107 C 0.97243 0.95726 0.81163 0.0
C2108 C 0.94715 0.96495 0.80218 0.0
C2109 C 0.92411 0.95428 0.81417 0.0
C2110 C 0.00107 0.93182 0.8447 0.0
C2111 C 0.94437 0.98303 0.77833 0.0
H2112 H 0.04715 0.01086 0.79157 0.0
H2113 H 0.03536 0.9381 0.7471 0.0
H2114 H 0.98243 0.01314 0.8197 0.0
H2115 H 0.00395 -0.00303 0.84273 0.0
H2116 H 0.01645 0.0251 0.82383 0.0
H2117 H -0.00214 0.91018 0.7521 0.0
H2118 H 0.98853 0.90779 0.78672 0.0
H2119 H 0.96826 0.92608 0.76412 0.0
H2120 H 0.95241 0.91572 0.86188 0.0
H2121 H 0.90476 0.95954 0.80626 0.0
H2122 H 0.01457 0.94947 0.84738 0.0
H2123 H 0.01066 0.91831 0.8302 0.0
H2124 H -0.00084 0.92128 0.86409 0.0
H2125 H 0.95776 0.00084 0.78031 0.0
H2126 H 0.92355 -0.01024 0.77563 0.0
H2127 H 0.95039 0.97222 0.76002 0.0
C2128 C 0.72891 0.30539 0.44562 0.0
C2129 C 0.75659 0.30662 0.44133 0.0
C2130 C 0.71277 0.28607 0.43294 0.0
C2131 C 0.72461 0.26754 0.41552 0.0
C2132 C 0.75208 0.2702 0.40918 0.0
C2133 C 0.76783 0.28975 0.42224 0.0
C2134 C 0.68352 0.28399 0.44018 0.0
C2135 C 0.76528 0.25105 0.39033 0.0
C2136 C 0.69441 0.19829 0.42114 0.0
C2137 C 0.67733 0.1969 0.39891 0.0
C2138 C 0.71039 0.2209 0.42618 0.0
C2139 C 0.70953 0.24275 0.40845 0.0
C2140 C 0.69299 0.24133 0.38551 0.0
C2141 C 0.67688 0.21842 0.38108 0.0
C2142 C 0.7276 0.22168 0.45104 0.0
C2143 C 0.6919 0.26417 0.36604 0.0
H2144 H 0.71993 0.31875 0.45991 0.0
H2145 H 0.78915 0.29083 0.41852 0.0
H2146 H 0.67103 0.28083 0.4221 0.0
H2147 H 0.68014 0.26654 0.45341 0.0
H2148 H 0.67666 0.30209 0.45075 0.0
H2149 H 0.78503 0.25883 0.38345 0.0
H2150 H 0.76834 0.23182 0.40067 0.0
H2151 H 0.75243 0.24691 0.37266 0.0
H2152 H 0.69495 0.18182 0.43507 0.0
H2153 H 0.66392 0.21741 0.36374 0.0
H2154 H 0.72108 0.23793 0.46445 0.0
H2155 H 0.74874 0.22596 0.4457 0.0
H2156 H 0.72659 0.20263 0.46228 0.0
H2157 H 0.68203 0.28133 0.37556 0.0
H2158 H 0.68067 0.25866 0.3476 0.0
H2159 H 0.71238 0.27093 0.36045 0.0
C2160 C 0.92871 0.36765 0.66241 0.0
C2161 C 0.90607 0.38301 0.65874 0.0
C2162 C 0.94658 0.36372 0.64146 0.0
C2163 C 0.9411 0.37482 0.61601 0.0
C2164 C 0.91634 0.38699 0.61134 0.0
C2165 C 0.89925 0.39143 0.63296 0.0
C2166 C 0.97261 0.35015 0.64749 0.0
C2167 C 0.90851 0.39716 0.58419 0.0
C2168 C 0.00768 0.3995 0.59506 0.0
C2169 C 0.01817 0.37517 0.58675 0.0
C2170 C 0.98045 0.40139 0.60066 0.0
C2171 C 0.96364 0.37856 0.5972 0.0
C2172 C 0.97302 0.35648 0.58274 0.0
C2173 C 0.00052 0.35481 0.57788 0.0
C2174 C 0.97076 0.42621 0.61437 0.0
C2175 C 0.95483 0.33309 0.57592 0.0
H2176 H 0.93376 0.36071 0.68223 0.0
H2177 H 0.88121 0.40259 0.62987 0.0
H2178 H 0.9756 0.33339 0.63343 0.0
H2179 H -0.0104 0.36451 0.64502 0.0
H2180 H 0.97331 0.34216 0.66813 0.0
H2181 H 0.88716 0.39213 0.58016 0.0
H2182 H 0.91061 0.41923 0.5839 0.0
H2183 H 0.92081 0.38878 0.56793 0.0
H2184 H 0.02107 0.41591 0.60054 0.0
H2185 H 0.00826 0.33637 0.57002 0.0
H2186 H 0.96692 0.42192 0.63576 0.0
H2187 H 0.95177 0.43263 0.60528 0.0
H2188 H 0.98556 0.44299 0.61311 0.0
H2189 H 0.95453 0.31875 0.59273 0.0
H2190 H 0.96204 0.32247 0.55792 0.0
H2191 H 0.93407 0.33959 0.5724 0.0
C2192 C 0.58588 0.58781 0.11699 0.0
C2193 C 0.59434 0.59679 0.14224 0.0
C2194 C 0.5634 0.59886 0.10494 0.0
C2195 C 0.54933 0.61852 0.119 0.0
C2196 C 0.56194 0.63196 0.14064 0.0
C2197 C 0.58473 0.62093 0.15204 0.0
C2198 C 0.55211 0.58628 0.0799 0.0
C2199 C 0.54881 0.6548 0.15471 0.0
C2200 C 0.47733 0.63822 0.1083 0.0
C2201 C 0.46394 0.61979 0.12487 0.0
C2202 C 0.50506 0.63709 0.10443 0.0
C2203 C 0.51969 0.61762 0.11817 0.0
C2204 C 0.50595 0.59815 0.13387 0.0
C2205 C 0.47823 0.59931 0.13667 0.0
C2206 C 0.51835 0.65747 0.08647 0.0
C2207 C 0.52054 0.57682 0.14901 0.0
H2208 H 0.59431 0.56998 0.10846 0.0
H2209 H 0.59222 0.62889 0.17083 0.0
H2210 H 0.53819 0.56966 0.08535 0.0
H2211 H 0.54084 0.60098 0.06809 0.0
H2212 H 0.56824 0.578 0.06737 0.0
H2213 H 0.56299 0.66569 0.16816 0.0
H2214 H 0.54077 0.66903 0.14002 0.0
H2215 H 0.53186 0.64698 0.16686 0.0
H2216 H 0.46625 0.65388 0.09872 0.0
H2217 H 0.46795 0.585 0.1494 0.0
H2218 H 0.53867 0.65169 0.08019 0.0
H2219 H 0.51982 0.67689 0.09708 0.0
H2220 H 0.50598 0.66053 0.06835 0.0
H2221 H 0.53163 0.56409 0.13492 0.0
H2222 H 0.5068 0.56372 0.16073 0.0
H2223 H 0.53523 0.58614 0.163 0.0
C2224 C 0.56698 0.66212 0.83613 0.0
C2225 C 0.5394 0.65651 0.83525 0.0
C2226 C 0.58406 0.65163 0.8168 0.0
C2227 C 0.57313 0.63538 0.79623 0.0
C2228 C 0.54614 0.62645 0.79777 0.0
C2229 C 0.52955 0.63705 0.81744 0.0
C2230 C 0.61301 0.66061 0.81655 0.0
C2231 C 0.53386 0.6085 0.77661 0.0
C2232 C 0.5926 0.64831 0.72469 0.0
C2233 C 0.60528 0.62463 0.71782 0.0
C2234 C 0.58353 0.65268 0.75069 0.0
C2235 C 0.58744 0.63298 0.77045 0.0
C2236 C 0.60239 0.61018 0.76432 0.0
C2237 C 0.61108 0.6062 0.738 0.0
C2238 C 0.56805 0.67759 0.75646 0.0
C2239 C 0.60764 0.58905 0.78493 0.0
H2240 H 0.57488 0.67668 0.85029 0.0
H2241 H 0.50834 0.63222 0.81697 0.0
H2242 H 0.62601 0.64438 0.8096 0.0
H2243 H 0.61556 0.67759 0.80258 0.0
H2244 H 0.6198 0.66732 0.83665 0.0
H2245 H 0.51412 0.60011 0.78285 0.0
H2246 H 0.53102 0.62009 0.75802 0.0
H2247 H 0.54723 0.59181 0.77189 0.0
H2248 H 0.58842 0.66288 0.70939 0.0
H2249 H 0.62108 0.58791 0.733 0.0
H2250 H 0.57654 0.68814 0.77413 0.0
H2251 H 0.54698 0.67207 0.7611 0.0
H2252 H 0.56819 0.69162 0.73935 0.0
H2253 H 0.61064 0.59787 0.80508 0.0
H2254 H 0.62545 0.57731 0.77968 0.0
H2255 H 0.59017 0.57509 0.7859 0.0
C2256 C 0.56962 0.31243 0.09174 0.0
C2257 C 0.54615 0.32151 0.10359 0.0
C2258 C 0.57936 0.32405 0.06825 0.0
C2259 C 0.56532 0.34526 0.05664 0.0
C2260 C 0.54427 0.35716 0.07081 0.0
C2261 C 0.53481 0.34506 0.09424 0.0
C2262 C 0.60242 0.31127 0.05411 0.0
C2263 C 0.52963 0.3806 0.05959 0.0
C2264 C 0.59159 0.37043 -0.00983 0.0
C2265 C 0.57659 0.35444 0.97229 0.0
C2266 C 0.58744 0.3687 0.01781 0.0
C2267 C 0.56821 0.3502 0.02767 0.0
C2268 C 0.55245 0.33466 0.00967 0.0
C2269 C 0.55672 0.33711 0.98223 0.0
C2270 C 0.60433 0.38593 0.03629 0.0
C2271 C 0.53167 0.31462 0.01939 0.0
H2272 H 0.57901 0.29472 0.09935 0.0
H2273 H 0.51707 0.35266 0.10369 0.0
H2274 H 0.59461 0.29887 0.03732 0.0
H2275 H 0.61618 0.32664 0.04565 0.0
H2276 H 0.61392 0.29829 0.06767 0.0
H2277 H 0.51829 0.39113 0.07532 0.0
H2278 H 0.54372 0.39498 0.04997 0.0
H2279 H 0.51525 0.37341 0.04414 0.0
H2280 H 0.60686 0.38408 0.98264 0.0
H2281 H 0.54501 0.32473 0.96861 0.0
H2282 H 0.6214 0.37428 0.04366 0.0
H2283 H 0.59276 0.39249 0.05389 0.0
H2284 H 0.61253 0.40383 0.02588 0.0
H2285 H 0.54139 0.29914 0.03159 0.0
H2286 H 0.52075 0.30457 0.00271 0.0
H2287 H 0.51692 0.32462 0.03227 0.0
C2288 C 0.94035 0.33836 0.28246 0.0
C2289 C 0.93538 0.33364 0.30949 0.0
C2290 C 0.92117 0.3504 0.26642 0.0
C2291 C 0.89679 0.35856 0.27796 0.0
C2292 C 0.89257 0.35566 0.30568 0.0
C2293 C 0.91177 0.34278 0.32107 0.0
C2294 C 0.92651 0.35315 0.23684 0.0
C2295 C 0.86744 0.36499 0.31905 0.0
C2296 C 0.8636 0.39899 0.2256 0.0
C2297 C 0.85077 0.37831 0.2112 0.0
C2298 C 0.87586 0.3938 0.25016 0.0
C2299 C 0.87515 0.36747 0.26012 0.0
C2300 C 0.85806 0.34802 0.24816 0.0
C2301 C 0.84573 0.35381 0.22384 0.0
C2302 C 0.89245 0.41551 0.26348 0.0
C2303 C 0.856 0.31991 0.25874 0.0
H2304 H 0.95868 0.33145 0.27357 0.0
H2305 H 0.9081 0.33955 0.34215 0.0
H2306 H 0.91066 0.34247 0.22523 0.0
H2307 H 0.92619 0.37445 0.23101 0.0
H2308 H 0.9461 0.345 0.23104 0.0
H2309 H 0.87138 0.37058 0.34019 0.0
H2310 H 0.85882 0.3823 0.30863 0.0
H2311 H 0.8523 0.3485 0.31898 0.0
H2312 H 0.86683 0.41834 0.21644 0.0
H2313 H 0.83491 0.33805 0.21328 0.0
H2314 H 0.91364 0.41362 0.25746 0.0
H2315 H 0.89147 0.41375 0.28554 0.0
H2316 H 0.88578 0.43562 0.25755 0.0
H2317 H 0.87482 0.30946 0.25438 0.0
H2318 H 0.83916 0.3084 0.24947 0.0
H2319 H 0.85325 0.32001 0.28067 0.0
C2320 C 0.95355 0.72574 0.55823 0.0
C2321 C 0.94118 0.74997 0.56386 0.0
C2322 C 0.9464 0.71062 0.53571 0.0
C2323 C 0.92639 0.71994 0.51838 0.0
C2324 C 0.91336 0.74404 0.52418 0.0
C2325 C 0.9209 0.7588 0.54692 0.0
C2326 C 0.96064 0.68493 0.5302 0.0
C2327 C 0.89182 0.75446 0.50608 0.0
C2328 C 0.92617 0.696 0.44661 0.0
C2329 C 0.90546 0.67668 0.44689 0.0
C2330 C 0.93334 0.71008 0.46984 0.0
C2331 C 0.91951 0.70467 0.49388 0.0
C2332 C 0.89916 0.6847 0.49453 0.0
C2333 C 0.89242 0.6709 0.47104 0.0
C2334 C 0.95532 0.73115 0.46853 0.0
C2335 C 0.8841 0.67835 0.5199 0.0
H2336 H 0.96916 0.71865 0.57127 0.0
H2337 H 0.91127 0.77748 0.55112 0.0
H2338 H 0.94594 0.66815 0.52831 0.0
H2339 H 0.97148 0.68644 0.51096 0.0
H2340 H 0.97518 0.68007 0.54614 0.0
H2341 H 0.8831 0.77312 0.51382 0.0
H2342 H 0.90017 0.75842 0.48596 0.0
H2343 H 0.87556 0.73925 0.50368 0.0
H2344 H 0.93637 0.70064 0.42809 0.0
H2345 H 0.8764 0.65602 0.47154 0.0
H2346 H 0.97116 0.7268 0.48331 0.0
H2347 H 0.94722 0.7509 0.47375 0.0
H2348 H 0.96454 0.73248 0.44842 0.0
H2349 H 0.89825 0.67292 0.53595 0.0
H2350 H 0.86932 0.66171 0.5172 0.0
H2351 H 0.8734 0.69623 0.52679 0.0
C2352 C 0.4704 0.31086 0.69392 0.0
C2353 C 0.47985 0.29001 0.67809 0.0
C2354 C 0.48419 0.31911 0.717 0.0
C2355 C 0.50799 0.30622 0.72427 0.0
C2356 C 0.5178 0.28538 0.70826 0.0
C2357 C 0.5036 0.27751 0.68536 0.0
C2358 C 0.4732 0.34144 0.73372 0.0
C2359 C 0.54316 0.27126 0.71543 0.0
C2360 C 0.55499 0.34335 0.77131 0.0
C2361 C 0.54808 0.33199 0.79599 0.0
C2362 C 0.54241 0.33482 0.74771 0.0
C2363 C 0.52252 0.3144 0.74882 0.0
C2364 C 0.5161 0.30217 0.77345 0.0
C2365 C 0.52898 0.31111 0.79677 0.0
C2366 C 0.54983 0.34818 0.7217 0.0
C2367 C 0.49509 0.28018 0.77528 0.0
H2368 H 0.45206 0.32058 0.68845 0.0
H2369 H 0.51111 0.26141 0.67322 0.0
H2370 H 0.46884 0.33416 0.75418 0.0
H2371 H 0.48829 0.35787 0.73558 0.0
H2372 H 0.45462 0.34959 0.72513 0.0
H2373 H 0.54829 0.2557 0.70059 0.0
H2374 H 0.56009 0.28586 0.71685 0.0
H2375 H 0.541 0.26173 0.73528 0.0
H2376 H 0.56977 0.35944 0.77045 0.0
H2377 H 0.52353 0.30215 0.8157 0.0
H2378 H 0.53229 0.35859 0.71355 0.0
H2379 H 0.55565 0.33305 0.70673 0.0
H2380 H 0.56657 0.36292 0.72409 0.0
H2381 H 0.47541 0.28789 0.76917 0.0
H2382 H 0.49328 0.27198 0.79578 0.0
H2383 H 0.49989 0.2637 0.76141 0.0
C2384 C 0.96104 0.231 0.97847 0.0
C2385 C 0.97327 0.24656 0.95859 0.0
C2386 C 0.94975 0.24302 0.00096 0.0
C2387 C 0.95097 0.27113 0.00351 0.0
C2388 C 0.96504 0.2867 0.98446 0.0
C2389 C 0.97595 0.27421 0.96215 0.0
C2390 C 0.93494 0.22582 0.02096 0.0
C2391 C 0.96697 0.31673 0.98664 0.0
C2392 C 0.89311 0.30675 0.03437 0.0
C2393 C 0.90363 0.31465 0.05919 0.0
C2394 C 0.90809 0.29179 0.01652 0.0
C2395 C 0.93433 0.28463 0.02358 0.0
C2396 C 0.94493 0.29189 0.04883 0.0
C2397 C 0.92939 0.30682 0.06644 0.0
C2398 C 0.89603 0.28424 -0.01022 0.0
C2399 C 0.97288 0.28456 0.05691 0.0
H2400 H 0.95916 0.20958 0.97587 0.0
H2401 H 0.98581 0.28626 0.94702 0.0
H2402 H 0.94014 0.23197 0.04165 0.0
H2403 H 0.91313 0.22835 0.01841 0.0
H2404 H 0.93935 0.20435 0.01843 0.0
H2405 H 0.9814 0.32551 0.97215 0.0
H2406 H 0.94706 0.32522 0.98277 0.0
H2407 H 0.97311 0.32287 0.00708 0.0
H2408 H 0.8731 0.31236 0.02873 0.0
H2409 H 0.93761 0.31279 0.08564 0.0
H2410 H 0.89704 0.26239 0.98659 0.0
H2411 H 0.9076 0.29405 0.97355 0.0
H2412 H 0.87485 0.29016 0.988 0.0
H2413 H 0.97586 0.26291 0.05387 0.0
H2414 H 0.97725 0.28962 0.0781 0.0
H2415 H 0.98758 0.29532 0.04412 0.0
C2416 C 0.85944 0.70754 0.15924 0.0
C2417 C 0.87948 0.69881 0.14198 0.0
C2418 C 0.85409 0.69396 0.18309 0.0
C2419 C 0.86925 0.6714 0.18958 0.0
C2420 C 0.88629 0.66021 0.17029 0.0
C2421 C 0.89105 0.674 0.1465 0.0
C2422 C 0.83494 0.70587 0.20278 0.0
C2423 C 0.90248 0.63588 0.17623 0.0
C2424 C 0.89576 0.67031 0.26014 0.0
C2425 C 0.8806 0.64951 0.27141 0.0
C2426 C 0.89212 0.67753 0.23349 0.0
C2427 C 0.87249 0.66385 0.21788 0.0
C2428 C 0.85687 0.64301 0.2292 0.0
C2429 C 0.86125 0.63594 0.25588 0.0
C2430 C 0.90951 0.69967 0.222 0.0
C2431 C 0.8354 0.62847 0.21331 0.0
H2432 H 0.84984 0.72633 0.15553 0.0
H2433 H 0.90597 0.66667 0.13282 0.0
H2434 H 0.82385 0.69009 0.21388 0.0
H2435 H 0.84637 0.71815 0.21753 0.0
H2436 H 0.82039 0.71891 0.19271 0.0
H2437 H 0.91016 0.62661 0.15768 0.0
H2438 H 0.91984 0.64183 0.18891 0.0
H2439 H 0.89053 0.62075 0.18734 0.0
H2440 H 0.91079 0.68074 0.27208 0.0
H2441 H 0.84922 0.62005 0.2647 0.0
H2442 H 0.89688 0.71614 0.21495 0.0
H2443 H 0.92072 0.69219 0.20453 0.0
H2444 H 0.9241 0.70793 0.23676 0.0
H2445 H 0.81921 0.6424 0.20844 0.0
H2446 H 0.82659 0.61126 0.22438 0.0
H2447 H 0.8435 0.62118 0.19411 0.0
C2448 C 0.51068 0.68146 0.43773 0.0
C2449 C 0.51966 0.70778 0.43335 0.0
C2450 C 0.52296 0.66538 0.45677 0.0
C2451 C 0.54459 0.67597 0.47189 0.0
C2452 C 0.55475 0.70198 0.46647 0.0
C2453 C 0.54218 0.71759 0.44714 0.0
C2454 C 0.51176 0.63764 0.46175 0.0
C2455 C 0.57789 0.7139 0.48217 0.0
C2456 C 0.55349 0.65256 0.54301 0.0
C2457 C 0.57597 0.63648 0.5409 0.0
C2458 C 0.54274 0.66496 0.52054 0.0
C2459 C 0.55464 0.66109 0.49528 0.0
C2460 C 0.57647 0.64385 0.49271 0.0
C2461 C 0.58691 0.63174 0.51558 0.0
C2462 C 0.51925 0.68304 0.52404 0.0
C2463 C 0.58945 0.63904 0.46601 0.0
H2464 H 0.49345 0.67364 0.42689 0.0
H2465 H 0.54924 0.73788 0.44375 0.0
H2466 H 0.52806 0.62304 0.46262 0.0
H2467 H 0.50145 0.63714 0.48132 0.0
H2468 H 0.49725 0.63118 0.44608 0.0
H2469 H 0.58502 0.73326 0.4738 0.0
H2470 H 0.57165 0.71718 0.50314 0.0
H2471 H 0.59479 0.69998 0.48253 0.0
H2472 H 0.54474 0.65624 0.5624 0.0
H2473 H 0.60426 0.61933 0.51369 0.0
H2474 H 0.50267 0.67671 0.51056 0.0
H2475 H 0.52517 0.70375 0.51855 0.0
H2476 H 0.51169 0.68312 0.54487 0.0
H2477 H 0.57416 0.63332 0.45086 0.0
H2478 H 0.60455 0.62317 0.46696 0.0
H2479 H 0.59943 0.65771 0.45904 0.0
C2480 C 0.8054 0.50112 0.64531 0.0
C2481 C 0.82452 0.50776 0.6648 0.0
C2482 C 0.78658 0.51969 0.63732 0.0
C2483 C 0.78711 0.54539 0.6491 0.0
C2484 C 0.80857 0.55328 0.66593 0.0
C2485 C 0.82708 0.53424 0.67372 0.0
C2486 C 0.76434 0.51072 0.61872 0.0
C2487 C 0.8104 0.58088 0.67795 0.0
C2488 C 0.73131 0.58792 0.62364 0.0
C2489 C 0.71074 0.58048 0.64134 0.0
C2490 C 0.75725 0.5785 0.62706 0.0
C2491 C 0.76249 0.56113 0.64849 0.0
C2492 C 0.74247 0.55565 0.66777 0.0
C2493 C 0.71687 0.56553 0.66402 0.0
C2494 C 0.77829 0.58549 0.60658 0.0
C2495 C 0.74739 0.53748 0.69121 0.0
H2496 H 0.80374 0.48083 0.63789 0.0
H2497 H 0.84227 0.53966 0.68834 0.0
H2498 H 0.74574 0.50741 0.63038 0.0
H2499 H 0.76034 0.52622 0.6036 0.0
H2500 H 0.76906 0.49186 0.60822 0.0
H2501 H 0.83106 0.58593 0.6847 0.0
H2502 H 0.80392 0.59613 0.66347 0.0
H2503 H 0.797 0.58184 0.69552 0.0
H2504 H 0.72692 0.59988 0.60627 0.0
H2505 H 0.70128 0.56012 0.67809 0.0
H2506 H 0.77863 0.56961 0.59114 0.0
H2507 H 0.79847 0.58704 0.61571 0.0
H2508 H 0.77392 0.6046 0.59648 0.0
H2509 H 0.75057 0.51688 0.68389 0.0
H2510 H 0.73039 0.53697 0.70543 0.0
H2511 H 0.76566 0.54402 0.70217 0.0
C2512 C 0.70183 0.55987 0.90311 0.0
C2513 C 0.69698 0.57473 0.92624 0.0
C2514 C 0.68465 0.53864 0.89573 0.0
C2515 C 0.66209 0.53247 0.91176 0.0
C2516 C 0.65562 0.5492 0.93344 0.0
C2517 C 0.67323 0.57012 0.9405 0.0
C2518 C 0.69205 0.52134 0.87229 0.0
C2519 C 0.63145 0.54361 0.95066 0.0
C2520 C 0.61473 0.47791 0.88657 0.0
C2521 C 0.62512 0.45537 0.89916 0.0
C2522 C 0.62594 0.50341 0.89108 0.0
C2523 C 0.64804 0.50635 0.90852 0.0
C2524 C 0.65776 0.48392 0.92228 0.0
C2525 C 0.64614 0.45873 0.91749 0.0
C2526 C 0.61487 0.52696 0.87636 0.0
C2527 C 0.68117 0.48633 0.94131 0.0
H2528 H 0.72007 0.56345 0.89195 0.0
H2529 H 0.66915 0.58189 0.95815 0.0
H2530 H 0.6995 0.50204 0.87971 0.0
H2531 H 0.67431 0.51689 0.8596 0.0
H2532 H 0.70784 0.53085 0.85977 0.0
H2533 H 0.62656 0.56099 0.9634 0.0
H2534 H 0.61376 0.53822 0.93823 0.0
H2535 H 0.63543 0.52642 0.96387 0.0
H2536 H 0.59842 0.47557 0.87243 0.0
H2537 H 0.65418 0.44153 0.92749 0.0
H2538 H 0.62935 0.53375 0.86096 0.0
H2539 H 0.6119 0.54393 0.89021 0.0
H2540 H 0.59557 0.52197 0.86636 0.0
H2541 H 0.69923 0.49332 0.93035 0.0
H2542 H 0.68565 0.4671 0.95111 0.0
H2543 H 0.67708 0.50131 0.95702 0.0
C2544 C 0.66142 0.47639 0.13901 0.0
C2545 C 0.65445 0.46354 0.16291 0.0
C2546 C 0.68196 0.46673 0.12301 0.0
C2547 C 0.69592 0.44411 0.13151 0.0
C2548 C 0.68675 0.42926 0.15377 0.0
C2549 C 0.66595 0.43914 0.16922 0.0
C2550 C 0.69048 0.48232 0.09865 0.0
C2551 C 0.70087 0.40467 0.16311 0.0
C2552 C 0.75448 0.41387 0.09588 0.0
C2553 C 0.77585 0.42549 0.11029 0.0
C2554 C 0.72808 0.42087 0.10129 0.0
C2555 C 0.72321 0.43974 0.1216 0.0
C2556 C 0.74482 0.45284 0.13483 0.0
C2557 C 0.77089 0.44558 0.12895 0.0
C2558 C 0.70557 0.40683 0.08642 0.0
C2559 C 0.74044 0.47339 0.15645 0.0
H2560 H 0.65196 0.49484 0.13358 0.0
H2561 H 0.6602 0.4288 0.18735 0.0
H2562 H 0.70804 0.49525 0.10375 0.0
H2563 H 0.69647 0.46875 0.0823 0.0
H2564 H 0.67429 0.49524 0.09134 0.0
H2565 H 0.68896 0.39331 0.1781 0.0
H2566 H 0.70513 0.39132 0.14604 0.0
H2567 H 0.72028 0.41067 0.17234 0.0
H2568 H 0.7582 0.39839 0.08129 0.0
H2569 H 0.78737 0.45498 0.13977 0.0
H2570 H 0.71232 0.39932 0.06673 0.0
H2571 H 0.68845 0.42013 0.08331 0.0
H2572 H 0.69839 0.38945 0.09826 0.0
H2573 H 0.72757 0.48945 0.14894 0.0
H2574 H 0.75947 0.48262 0.16376 0.0
H2575 H 0.73005 0.4639 0.17363 0.0
C2576 C 0.81141 0.44754 0.45487 0.0
C2577 C 0.82375 0.43122 0.47358 0.0
C2578 C 0.82453 0.47034 0.44513 0.0
C2579 C 0.85058 0.47695 0.45445 0.0
C2580 C 0.86333 0.46039 0.47309 0.0
C2581 C 0.84972 0.4376 0.48245 0.0
C2582 C 0.81033 0.48756 0.42511 0.0
C2583 C 0.89106 0.46698 0.48342 0.0
C2584 C 0.88317 0.52543 0.40723 0.0
C2585 C 0.87452 0.54961 0.41798 0.0
C2586 C 0.87787 0.50134 0.42039 0.0
C2587 C 0.86383 0.50166 0.44482 0.0
C2588 C 0.85806 0.52618 0.4573 0.0
C2589 C 0.8635 0.54996 0.44368 0.0
C2590 C 0.88465 0.47552 0.40666 0.0
C2591 C 0.84352 0.52727 0.48364 0.0
H2592 H 0.79136 0.44261 0.44795 0.0
H2593 H 0.8593 0.42499 0.49699 0.0
H2594 H 0.80774 0.50783 0.4335 0.0
H2595 H 0.8225 0.48967 0.40673 0.0
H2596 H 0.79034 0.47922 0.41952 0.0
H2597 H 0.89869 0.45123 0.49679 0.0
H2598 H 0.90515 0.4697 0.46655 0.0
H2599 H 0.89093 0.48608 0.49464 0.0
H2600 H 0.89217 0.525 0.38759 0.0
H2601 H 0.85738 0.56865 0.45243 0.0
H2602 H 0.86635 0.46686 0.3972 0.0
H2603 H 0.89204 0.46075 0.42119 0.0
H2604 H 0.89997 0.47861 0.3909 0.0
H2605 H 0.82205 0.52234 0.48034 0.0
H2606 H 0.84513 0.54738 0.49294 0.0
H2607 H 0.85142 0.51244 0.49782 0.0
C2608 C 0.78039 0.4346 0.77806 0.0
C2609 C 0.79267 0.41779 0.75963 0.0
C2610 C 0.75663 0.42667 0.79075 0.0
C2611 C 0.74487 0.40145 0.78464 0.0
C2612 C 0.75718 0.3844 0.76607 0.0
C2613 C 0.78104 0.39274 0.75386 0.0
C2614 C 0.74408 0.44527 0.81065 0.0
C2615 C 0.74504 0.35745 0.75897 0.0
C2616 C 0.69681 0.37297 0.83575 0.0
C2617 C 0.67211 0.38079 0.82541 0.0
C2618 C 0.72065 0.37901 0.82232 0.0
C2619 C 0.71973 0.39292 0.79785 0.0
C2620 C 0.69485 0.39973 0.78663 0.0
C2621 C 0.6713 0.39364 0.8006 0.0
C2622 C 0.74689 0.37152 0.83488 0.0
C2623 C 0.69317 0.4143 0.76037 0.0
H2624 H 0.78934 0.45397 0.78257 0.0
H2625 H 0.79042 0.37972 0.73952 0.0
H2626 H 0.72368 0.45034 0.80396 0.0
H2627 H 0.7421 0.43528 0.83029 0.0
H2628 H 0.75594 0.46408 0.81336 0.0
H2629 H 0.75709 0.34666 0.744 0.0
H2630 H 0.74319 0.34496 0.77713 0.0
H2631 H 0.7246 0.35988 0.75086 0.0
H2632 H 0.69767 0.36307 0.85492 0.0
H2633 H 0.65231 0.3996 0.79238 0.0
H2634 H 0.75856 0.38987 0.84014 0.0
H2635 H 0.759 0.36008 0.82051 0.0
H2636 H 0.74408 0.35942 0.85323 0.0
H2637 H 0.70239 0.43452 0.76248 0.0
H2638 H 0.67222 0.41637 0.75344 0.0
H2639 H 0.70451 0.40365 0.74478 0.0
C2640 C 0.84277 0.55049 0.97673 0.0
C2641 C 0.81866 0.55584 -0.01023 0.0
C2642 C 0.85879 0.52941 0.98502 0.0
C2643 C 0.85005 0.51306 0.00637 0.0
C2644 C 0.82579 0.51853 0.01964 0.0
C2645 C 0.81056 0.53995 0.0113 0.0
C2646 C 0.88462 0.52446 0.97056 0.0
C2647 C 0.81562 0.50152 0.04252 0.0
C2648 C 0.86293 0.44176 0.02107 0.0
C2649 C 0.8748 0.44474 0.04631 0.0
C2650 C 0.85797 0.46415 0.00533 0.0
C2651 C 0.86542 0.48974 0.0151 0.0
C2652 C 0.88174 0.49217 0.03808 0.0
C2653 C 0.88608 0.46954 0.05365 0.0
C2654 C 0.84126 0.4607 0.98042 0.0
C2655 C 0.8913 0.51905 0.0483 0.0
H2656 H 0.84919 0.56279 0.96009 0.0
H2657 H 0.79192 0.5439 0.0214 0.0
H2658 H 0.90031 0.51743 0.98436 0.0
H2659 H 0.88116 0.5088 0.95519 0.0
H2660 H 0.89217 0.54273 0.96031 0.0
H2661 H 0.79617 0.50833 0.05035 0.0
H2662 H 0.81309 0.48048 0.03594 0.0
H2663 H 0.83031 0.50201 0.05913 0.0
H2664 H 0.85468 0.42252 0.01496 0.0
H2665 H 0.89609 0.47178 0.07277 0.0
H2666 H 0.8483 0.47446 0.96452 0.0
H2667 H 0.82023 0.46554 0.98502 0.0
H2668 H 0.84166 0.43992 0.97273 0.0
H2669 H 0.89719 0.53235 0.03157 0.0
H2670 H 0.90852 0.51721 0.06215 0.0
H2671 H 0.87482 0.52863 0.05929 0.0
C2672 C 0.6857 0.56823 0.26677 0.0
C2673 C 0.6721 0.54441 0.27345 0.0
C2674 C 0.70812 0.57711 0.28127 0.0
C2675 C 0.71718 0.56186 0.30305 0.0
C2676 C 0.70299 0.53838 0.31061 0.0
C2677 C 0.68058 0.5299 0.29569 0.0
C2678 C 0.72275 0.60228 0.27259 0.0
C2679 C 0.71206 0.5217 0.33382 0.0
C2680 C 0.79115 0.56903 0.31773 0.0
C2681 C 0.79159 0.58727 0.33905 0.0
C2682 C 0.767 0.56008 0.30635 0.0
C2683 C 0.74263 0.56956 0.31651 0.0
C2684 C 0.7428 0.58748 0.33838 0.0
C2685 C 0.76731 0.59616 0.34939 0.0
C2686 C 0.76762 0.54098 0.28299 0.0
C2687 C 0.71715 0.59794 0.34972 0.0
H2688 H 0.67923 0.5797 0.24974 0.0
H2689 H 0.67015 0.51153 0.30106 0.0
H2690 H 0.72534 0.61616 0.28973 0.0
H2691 H 0.743 0.59733 0.2654 0.0
H2692 H 0.71212 0.61275 0.25636 0.0
H2693 H 0.69756 0.50532 0.33857 0.0
H2694 H 0.73159 0.51282 0.32908 0.0
H2695 H 0.715 0.53433 0.35185 0.0
H2696 H 0.80974 0.56192 0.30962 0.0
H2697 H 0.76739 0.61015 0.36592 0.0
H2698 H 0.75918 0.55061 0.26503 0.0
H2699 H 0.75504 0.52301 0.28723 0.0
H2700 H 0.78818 0.53456 0.27828 0.0
H2701 H 0.70694 0.6101 0.33448 0.0
H2702 H 0.72062 0.61044 0.36779 0.0
H2703 H 0.70338 0.58114 0.35492 0.0
C2704 C 0.71944 0.4253 0.56906 0.0
C2705 C 0.7141 0.4065 0.54894 0.0
C2706 C 0.70043 0.44414 0.57606 0.0
C2707 C 0.67549 0.44402 0.56264 0.0
C2708 C 0.66913 0.42367 0.54396 0.0
C2709 C 0.6886 0.40514 0.53723 0.0
C2710 C 0.70792 0.46538 0.59635 0.0
C2711 C 0.64252 0.42251 0.52974 0.0
C2712 C 0.62843 0.49233 0.59454 0.0
C2713 C 0.63515 0.51581 0.58063 0.0
C2714 C 0.63956 0.46792 0.5874 0.0
C2715 C 0.65782 0.46712 0.56597 0.0
C2716 C 0.66228 0.49006 0.55006 0.0
C2717 C 0.65072 0.51413 0.55749 0.0
C2718 C 0.63373 0.44368 0.60437 0.0
C2719 C 0.68136 0.4899 0.52676 0.0
H2720 H 0.73902 0.42631 0.57834 0.0
H2721 H 0.68424 0.39044 0.52183 0.0
H2722 H 0.71113 0.48474 0.58606 0.0
H2723 H 0.69161 0.46793 0.61101 0.0
H2724 H 0.72647 0.46058 0.60738 0.0
H2725 H 0.63861 0.40272 0.52031 0.0
H2726 H 0.62597 0.42684 0.54367 0.0
H2727 H 0.64238 0.43786 0.51385 0.0
H2728 H 0.61597 0.49328 0.61217 0.0
H2729 H 0.65574 0.53204 0.54635 0.0
H2730 H 0.6506 0.44077 0.61839 0.0
H2731 H 0.63169 0.42545 0.59187 0.0
H2732 H 0.61521 0.44594 0.61626 0.0
H2733 H 0.70212 0.4883 0.53431 0.0
H2734 H 0.68016 0.50831 0.51458 0.0
H2735 H 0.67721 0.47242 0.51367 0.0
C2736 C 0.69005 0.80515 0.56266 0.0
C2737 C 0.71561 0.81342 0.57122 0.0
C2738 C 0.67709 0.78306 0.57417 0.0
C2739 C 0.68993 0.76911 0.59488 0.0
C2740 C 0.71458 0.77881 0.60527 0.0
C2741 C 0.72726 0.80084 0.59319 0.0
C2742 C 0.65077 0.7733 0.5625 0.0
C2743 C 0.72855 0.76473 0.62773 0.0
C2744 C 0.6482 0.71305 0.62523 0.0
C2745 C 0.65598 0.69139 0.60945 0.0
C2746 C 0.6601 0.73842 0.62182 0.0
C2747 C 0.67989 0.74211 0.60199 0.0
C2748 C 0.68862 0.7201 0.58689 0.0
C2749 C 0.67669 0.69504 0.59092 0.0
C2750 C 0.65073 0.76141 0.63861 0.0
C2751 C 0.70966 0.72324 0.56544 0.0
H2752 H 0.68069 0.815 0.54596 0.0
H2753 H 0.74682 0.80741 0.60022 0.0
H2754 H 0.65391 0.75465 0.55106 0.0
H2755 H 0.63623 0.76863 0.57855 0.0
H2756 H 0.64191 0.78816 0.54888 0.0
H2757 H 0.74449 0.77751 0.63693 0.0
H2758 H 0.71411 0.75856 0.64343 0.0
H2759 H 0.73783 0.74642 0.6199 0.0
H2760 H 0.6324 0.71037 0.63979 0.0
H2761 H 0.68307 0.67845 0.57877 0.0
H2762 H 0.63836 0.77466 0.62622 0.0
H2763 H 0.668 0.77351 0.64611 0.0
H2764 H 0.63858 0.75452 0.65589 0.0
H2765 H 0.70222 0.73634 0.54938 0.0
H2766 H 0.71509 0.70385 0.55639 0.0
H2767 H 0.72801 0.73285 0.5738 0.0
C2768 C 0.16451 0.66213 0.45226 0.0
C2769 C 0.1834 0.64732 0.43838 0.0
C2770 C 0.14727 0.67891 0.43857 0.0
C2771 C 0.14908 0.6807 0.41045 0.0
C2772 C 0.16493 0.66253 0.39623 0.0
C2773 C 0.18224 0.64614 0.41042 0.0
C2774 C 0.1299 0.69735 0.45444 0.0
C2775 C 0.16604 0.66273 0.36616 0.0
C2776 C 0.10755 0.73575 0.38094 0.0
C2777 C 0.1259 0.7573 0.3824 0.0
C2778 C 0.1151 0.70994 0.38824 0.0
C2779 C 0.1414 0.70592 0.39757 0.0
C2780 C 0.16036 0.7273 0.39744 0.0
C2781 C 0.15241 0.75258 0.38968 0.0
C2782 C 0.09451 0.68753 0.38715 0.0
C2783 C 0.1888 0.72395 0.40696 0.0
H2784 H 0.16472 0.66246 0.4739 0.0
H2785 H 0.1962 0.63398 0.39955 0.0
H2786 H 0.13916 0.71767 0.45464 0.0
H2787 H 0.10987 0.69873 0.44515 0.0
H2788 H 0.12747 0.69062 0.47542 0.0
H2789 H 0.17331 0.64352 0.35818 0.0
H2790 H 0.14609 0.66664 0.3575 0.0
H2791 H 0.17998 0.67888 0.35952 0.0
H2792 H 0.08708 0.73912 0.37495 0.0
H2793 H 0.16693 0.76893 0.39029 0.0
H2794 H 0.08338 0.68686 0.40626 0.0
H2795 H 0.10377 0.66787 0.38404 0.0
H2796 H 0.0798 0.69083 0.37092 0.0
H2797 H 0.18886 0.71794 0.42825 0.0
H2798 H 0.2011 0.74255 0.40499 0.0
H2799 H 0.19854 0.70802 0.39536 0.0
C2800 C 0.51767 0.98545 0.73724 0.0
C2801 C 0.53798 0.00162 0.72635 0.0
C2802 C 0.49652 0.97594 0.72128 0.0
C2803 C 0.4955 0.98332 0.69404 0.0
C2804 C 0.51489 0.00125 0.6835 0.0
C2805 C 0.53614 0.00997 0.69976 0.0
C2806 C 0.47626 0.95665 0.73316 0.0
C2807 C 0.51396 0.01012 0.65476 0.0
C2808 C 0.46203 0.93124 0.6501 0.0
C2809 C 0.43573 0.94014 0.64963 0.0
C2810 C 0.48207 0.94584 0.66353 0.0
C2811 C 0.47565 0.97014 0.6762 0.0
C2812 C 0.44964 0.98029 0.67389 0.0
C2813 C 0.42984 0.96497 0.66085 0.0
C2814 C 0.5096 0.93429 0.66579 0.0
C2815 C 0.44233 0.00652 0.68646 0.0
H2816 H 0.51907 0.97903 0.75777 0.0
H2817 H 0.55174 0.02281 0.69143 0.0
H2818 H 0.45571 0.96359 0.72946 0.0
H2819 H 0.47797 0.93686 0.72341 0.0
H2820 H 0.47905 0.95415 0.755 0.0
H2821 H 0.52811 0.02702 0.65082 0.0
H2822 H 0.51922 -0.00673 0.64153 0.0
H2823 H 0.4935 0.01621 0.64927 0.0
H2824 H 0.46658 0.912 0.64152 0.0
H2825 H 0.40952 0.97201 0.66019 0.0
H2826 H 0.51362 0.92901 0.68689 0.0
H2827 H 0.52505 0.94923 0.65971 0.0
H2828 H 0.51176 0.91613 0.6533 0.0
H2829 H 0.44114 0.00419 0.70843 0.0
H2830 H 0.42276 0.01358 0.67914 0.0
H2831 H 0.45787 0.02206 0.6823 0.0
C2832 C 0.29273 0.32505 0.92195 0.0
C2833 C 0.30565 0.32812 0.94672 0.0
C2834 C 0.29891 0.30406 0.90478 0.0
C2835 C 0.31836 0.28574 0.9127 0.0
C2836 C 0.33314 0.29009 0.93655 0.0
C2837 C 0.32663 0.31139 0.95332 0.0
C2838 C 0.28314 0.30037 0.87926 0.0
C2839 C 0.35438 0.27108 0.94539 0.0
C2840 C 0.31179 0.21245 0.89706 0.0
C2841 C 0.33312 0.20916 0.8794 0.0
C2842 C 0.30548 0.23777 0.90661 0.0
C2843 C 0.32086 0.26021 0.8982 0.0
C2844 C 0.34042 0.2574 0.87818 0.0
C2845 C 0.34625 0.23183 0.86887 0.0
C2846 C 0.28392 0.24014 0.92749 0.0
C2847 C 0.35688 0.28096 0.86838 0.0
H2848 H 0.27681 0.33831 0.91651 0.0
H2849 H 0.33678 0.31383 0.97234 0.0
H2850 H 0.29631 0.29452 0.86256 0.0
H2851 H 0.26801 0.28411 0.88196 0.0
H2852 H 0.27258 0.31877 0.87359 0.0
H2853 H 0.36589 0.27879 0.96287 0.0
H2854 H 0.34488 0.25167 0.95089 0.0
H2855 H 0.3685 0.26727 0.92885 0.0
H2856 H 0.30124 0.19509 0.90492 0.0
H2857 H 0.36259 0.22957 0.85495 0.0
H2858 H 0.2702 0.2564 0.92231 0.0
H2859 H 0.29321 0.24523 0.94704 0.0
H2860 H 0.27201 0.22134 0.92975 0.0
H2861 H 0.34434 0.2987 0.86561 0.0
H2862 H 0.36704 0.27648 0.84924 0.0
H2863 H 0.3724 0.2862 0.88347 0.0
C2864 C 0.42409 0.53683 0.71013 0.0
C2865 C 0.40902 0.51618 0.69808 0.0
C2866 C 0.4473 0.54702 0.69807 0.0
C2867 C 0.45545 0.5365 0.67323 0.0
C2868 C 0.43981 0.51641 0.66042 0.0
C2869 C 0.4168 0.50635 0.6731 0.0
C2870 C 0.46366 0.56833 0.71244 0.0
C2871 C 0.44783 0.505 0.63377 0.0
C2872 C 0.50847 0.5784 0.63837 0.0
C2873 C 0.53184 0.56604 0.64694 0.0
C2874 C 0.48323 0.56816 0.64556 0.0
C2875 C 0.48144 0.54523 0.66187 0.0
C2876 C 0.50485 0.53192 0.66946 0.0
C2877 C 0.52976 0.5424 0.66177 0.0
C2878 C 0.45857 0.58257 0.63678 0.0
C2879 C 0.50372 0.50746 0.68699 0.0
H2880 H 0.4182 0.54454 0.72942 0.0
H2881 H 0.40512 0.49054 0.66357 0.0
H2882 H 0.48352 0.56046 0.71773 0.0
H2883 H 0.46711 0.58575 0.69922 0.0
H2884 H 0.45387 0.57524 0.73101 0.0
H2885 H 0.43218 0.49137 0.6253 0.0
H2886 H 0.45196 0.52127 0.61931 0.0
H2887 H 0.46652 0.49374 0.63606 0.0
H2888 H 0.50987 0.59651 0.62666 0.0
H2889 H 0.54766 0.53259 0.66841 0.0
H2890 H 0.44941 0.59242 0.65426 0.0
H2891 H 0.44348 0.56825 0.6285 0.0
H2892 H 0.46315 0.598 0.62151 0.0
H2893 H 0.49617 0.51293 0.70703 0.0
H2894 H 0.5236 0.49834 0.68942 0.0
H2895 H 0.48967 0.49225 0.67852 0.0
C2896 C 0.75552 0.21588 0.02857 0.0
C2897 C 0.74046 0.19405 0.03794 0.0
C2898 C 0.76378 0.23634 0.04587 0.0
C2899 C 0.75618 0.23524 0.07308 0.0
C2900 C 0.73959 0.21406 0.08233 0.0
C2901 C 0.73223 0.19341 0.06467 0.0
C2902 C 0.78166 0.25853 0.03519 0.0
C2903 C 0.73041 0.2126 0.11097 0.0
C2904 C 0.80826 0.27314 0.11219 0.0
C2905 C 0.79855 0.29901 0.1099 0.0
C2906 C 0.79312 0.25121 0.10293 0.0
C2907 C 0.76761 0.25543 0.09168 0.0
C2908 C 0.75623 0.28093 0.09307 0.0
C2909 C 0.77202 0.30261 0.1019 0.0
C2910 C 0.80586 0.22423 0.10202 0.0
C2911 C 0.72854 0.28586 0.0825 0.0
H2912 H 0.76186 0.21644 0.0079 0.0
H2913 H 0.72031 0.17662 0.07186 0.0
H2914 H 0.77241 0.27811 0.03866 0.0
H2915 H 0.80111 0.25872 0.04587 0.0
H2916 H 0.78556 0.2564 0.01347 0.0
H2917 H 0.7122 0.19971 0.11304 0.0
H2918 H 0.74639 0.20396 0.12338 0.0
H2919 H 0.72618 0.23269 0.11904 0.0
H2920 H 0.82865 0.27022 0.11871 0.0
H2921 H 0.7642 0.32257 0.1008 0.0
H2922 H 0.81201 0.21982 0.08123 0.0
H2923 H 0.79145 0.20835 0.10823 0.0
H2924 H 0.82381 0.22342 0.11506 0.0
H2925 H 0.72926 0.28742 0.06042 0.0
H2926 H 0.72043 0.30468 0.09055 0.0
H2927 H 0.71466 0.26908 0.08757 0.0
C2928 C 0.59326 0.06998 0.85192 0.0
C2929 C 0.5992 0.07705 0.82549 0.0
C2930 C 0.57282 0.08275 0.86568 0.0
C2931 C 0.55821 0.10249 0.85236 0.0
C2932 C 0.56826 0.11354 0.82837 0.0
C2933 C 0.58891 0.10062 0.81509 0.0
C2934 C 0.56405 0.07212 0.89244 0.0
C2935 C 0.55435 0.13599 0.81451 0.0
C2936 C 0.48379 0.08937 0.84841 0.0
C2937 C 0.47373 0.11083 0.86283 0.0
C2938 C 0.51129 0.08615 0.84566 0.0
C2939 C 0.52931 0.10467 0.85803 0.0
C2940 C 0.51936 0.12555 0.8739 0.0
C2941 C 0.49162 0.12853 0.87591 0.0
C2942 C 0.52096 0.06339 0.82858 0.0
C2943 C 0.53762 0.14545 0.88794 0.0
H2944 H 0.60209 0.05246 0.86061 0.0
H2945 H 0.5943 0.10691 0.7951 0.0
H2946 H 0.55613 0.0883 0.90513 0.0
H2947 H 0.54785 0.05692 0.88948 0.0
H2948 H 0.5808 0.06253 0.90305 0.0
H2949 H 0.56714 0.14532 0.79888 0.0
H2950 H 0.53578 0.12812 0.8049 0.0
H2951 H 0.54866 0.15153 0.8291 0.0
H2952 H 0.47015 0.07555 0.83836 0.0
H2953 H 0.48404 0.14507 0.88739 0.0
H2954 H 0.53397 0.05033 0.8405 0.0
H2955 H 0.53294 0.0713 0.81164 0.0
H2956 H 0.50425 0.05094 0.82032 0.0
H2957 H 0.55775 0.13747 0.89179 0.0
H2958 H 0.52882 0.15175 0.90723 0.0
H2959 H 0.53991 0.16352 0.87537 0.0
C2960 C 0.93592 0.91647 0.24548 0.0
C2961 C 0.91785 0.93618 0.25247 0.0
C2962 C 0.95507 0.90796 0.26384 0.0
C2963 C 0.95574 0.91914 0.28986 0.0
C2964 C 0.9368 0.93819 0.29738 0.0
C2965 C 0.91819 0.94664 0.27851 0.0
C2966 C 0.97509 0.88761 0.25513 0.0
C2967 C 0.93667 0.95016 0.32508 0.0
C2968 C -0.00221 0.87993 0.33779 0.0
C2969 C 0.02273 0.89284 0.33464 0.0
C2970 C 0.97509 0.88937 0.32476 0.0
C2971 C 0.97755 0.9122 0.30838 0.0
C2972 C 0.00201 0.92681 0.30739 0.0
C2973 C 0.02431 0.917 0.32067 0.0
C2974 C 0.94912 0.87365 0.32675 0.0
C2975 C 0.00531 0.95145 0.29035 0.0
H2976 H 0.93563 0.90829 0.22543 0.0
H2977 H 0.90396 0.96162 0.28416 0.0
H2978 H -0.00431 0.89602 0.25722 0.0
H2979 H 0.97359 0.86977 0.26811 0.0
H2980 H 0.97203 0.88124 0.23408 0.0
H2981 H 0.91898 0.9627 0.32852 0.0
H2982 H 0.93689 0.93421 0.34035 0.0
H2983 H 0.95496 0.96271 0.32809 0.0
H2984 H -0.00368 0.86133 0.34871 0.0
H2985 H 0.04344 0.92733 0.31854 0.0
H2986 H 0.94591 0.86196 0.30813 0.0
H2987 H 0.93199 0.88713 0.32896 0.0
H2988 H 0.94916 0.85956 0.34382 0.0
H2989 H 0.00436 0.94568 0.26895 0.0
H2990 H 0.02467 0.96207 0.29408 0.0
H2991 H 0.98889 0.96545 0.29409 0.0
C2992 C 0.46359 0.25057 0.2252 0.0
C2993 C 0.46229 0.23603 0.20144 0.0
C2994 C 0.44068 0.26185 0.23587 0.0
C2995 C 0.41607 0.25898 0.22193 0.0
C2996 C 0.41412 0.24177 0.19957 0.0
C2997 C 0.43742 0.23033 0.18954 0.0
C2998 C 0.44355 0.27925 0.26045 0.0
C2999 C 0.38821 0.23751 0.18459 0.0
C3000 C 0.36752 0.29521 0.26388 0.0
C3001 C 0.37427 0.32126 0.25603 0.0
C3002 C 0.37758 0.27336 0.24994 0.0
C3003 C 0.39476 0.2781 0.22803 0.0
C3004 C 0.39733 0.30418 0.21733 0.0
C3005 C 0.38725 0.32565 0.23178 0.0
C3006 C 0.37321 0.24581 0.26128 0.0
C3007 C 0.41454 0.30999 0.19326 0.0
H3008 H 0.4829 0.25477 0.23434 0.0
H3009 H 0.43648 0.21913 0.171 0.0
H3010 H 0.4415 0.3005 0.25482 0.0
H3011 H 0.42763 0.27428 0.27508 0.0
H3012 H 0.46323 0.27701 0.27038 0.0
H3013 H 0.38753 0.2177 0.17461 0.0
H3014 H 0.37067 0.2391 0.19795 0.0
H3015 H 0.38662 0.25294 0.16889 0.0
H3016 H 0.35739 0.29196 0.28274 0.0
H3017 H 0.3924 0.3459 0.22586 0.0
H3018 H 0.38817 0.24242 0.27722 0.0
H3019 H 0.37536 0.23013 0.24582 0.0
H3020 H 0.35305 0.24385 0.27037 0.0
H3021 H 0.43592 0.30961 0.19917 0.0
H3022 H 0.41049 0.32991 0.18472 0.0
H3023 H 0.41118 0.29465 0.17756 0.0
C3024 C 0.40457 0.7335 0.94096 0.0
C3025 C 0.42539 0.71875 0.92993 0.0
C3026 C 0.39355 0.72679 0.9658 0.0
C3027 C 0.40356 0.7048 0.97992 0.0
C3028 C 0.4242 0.68951 0.96874 0.0
C3029 C 0.43488 0.69667 0.94386 0.0
C3030 C 0.37155 0.74354 0.97716 0.0
C3031 C 0.43534 0.66587 0.9833 0.0
C3032 C 0.3969 0.70146 0.05508 0.0
C3033 C 0.37618 0.6824 0.05808 0.0
C3034 C 0.4055 0.70948 0.02971 0.0
C3035 C 0.39307 0.69821 0.0068 0.0
C3036 C 0.37141 0.67987 0.00964 0.0
C3037 C 0.36317 0.67221 0.03527 0.0
C3038 C 0.42854 0.7293 0.02743 0.0
C3039 C 0.3576 0.66757 0.98561 0.0
H3040 H 0.39703 0.75058 0.93036 0.0
H3041 H 0.45092 0.68515 0.9355 0.0
H3042 H 0.35384 0.73076 0.98192 0.0
H3043 H 0.37836 0.75303 -0.00391 0.0
H3044 H 0.36534 0.75943 0.96321 0.0
H3045 H 0.45078 0.65554 0.97149 0.0
H3046 H 0.44436 0.67252 0.00251 0.0
H3047 H 0.41903 0.65133 0.98806 0.0
H3048 H 0.40694 0.70963 0.07256 0.0
H3049 H 0.34711 0.65752 0.03735 0.0
H3050 H 0.42292 0.74619 0.0145 0.0
H3051 H 0.44582 0.71958 0.01793 0.0
H3052 H 0.43499 0.73734 0.04716 0.0
H3053 H 0.35093 0.68337 0.97183 0.0
H3054 H 0.34002 0.65492 -0.00879 0.0
H3055 H 0.37185 0.65509 0.97447 0.0
C3056 C 0.07653 0.73831 0.68266 0.0
C3057 C 0.05327 0.7277 0.6707 0.0
C3058 C 0.09197 0.72265 0.69969 0.0
C3059 C 0.0833 0.69626 0.70542 0.0
C3060 C 0.06169 0.68463 0.69093 0.0
C3061 C 0.04705 0.70048 0.67352 0.0
C3062 C 0.11592 0.73516 0.71356 0.0
C3063 C 0.05195 0.65644 0.69621 0.0
C3064 C 0.1142 0.64858 0.75491 0.0
C3065 C 0.09881 0.65377 0.77766 0.0
C3066 C 0.11094 0.66356 0.73146 0.0
C3067 C 0.09149 0.68363 0.73078 0.0
C3068 C 0.07712 0.68989 0.75417 0.0
C3069 C 0.08121 0.67514 0.7773 0.0
C3070 C 0.12742 0.65693 0.70727 0.0
C3071 C 0.0561 0.71112 0.75448 0.0
H3072 H 0.08189 0.75918 0.67991 0.0
H3073 H 0.0294 0.69202 0.66386 0.0
H3074 H 0.11006 0.74204 0.73373 0.0
H3075 H 0.13198 0.72045 0.71601 0.0
H3076 H 0.12395 0.75265 0.70235 0.0
H3077 H 0.03723 0.64934 0.68101 0.0
H3078 H 0.06891 0.64262 0.69648 0.0
H3079 H 0.04227 0.65553 0.71611 0.0
H3080 H 0.12815 0.63237 0.75509 0.0
H3081 H 0.06961 0.67978 0.79488 0.0
H3082 H 0.13089 0.67462 0.6944 0.0
H3083 H 0.11673 0.6414 0.6953 0.0
H3084 H 0.14703 0.64884 0.71321 0.0
H3085 H 0.06495 0.73058 0.74831 0.0
H3086 H 0.04696 0.71363 0.77448 0.0
H3087 H 0.03996 0.70582 0.74006 0.0
C3088 C 0.06795 0.33631 0.40022 0.0
C3089 C 0.04285 0.34679 0.40609 0.0
C3090 C 0.08893 0.33831 0.41876 0.0
C3091 C 0.08426 0.35042 0.44376 0.0
C3092 C 0.06044 0.36459 0.44791 0.0
C3093 C 0.04002 0.36279 0.42882 0.0
C3094 C 0.1148 0.32466 0.41285 0.0
C3095 C 0.05493 0.37847 0.47406 0.0
C3096 C 0.10029 0.31518 0.50753 0.0
C3097 C 0.11746 0.33381 0.51997 0.0
C3098 C 0.09123 0.31921 0.4815 0.0
C3099 C 0.09986 0.34232 0.46746 0.0
C3100 C 0.11981 0.35938 0.47865 0.0
C3101 C 0.12834 0.355 0.50498 0.0
C3102 C 0.07032 0.30008 0.47018 0.0
C3103 C 0.13051 0.38351 0.46394 0.0
H3104 H 0.07058 0.32466 0.38219 0.0
H3105 H 0.02089 0.37151 0.43319 0.0
H3106 H 0.13196 0.33517 0.42262 0.0
H3107 H 0.11375 0.30398 0.42063 0.0
H3108 H 0.11849 0.3236 0.39102 0.0
H3109 H 0.03729 0.39147 0.47275 0.0
H3110 H 0.05104 0.36331 0.48976 0.0
H3111 H 0.07247 0.39079 0.48042 0.0
H3112 H 0.09237 0.2984 0.51884 0.0
H3113 H 0.14191 0.36935 0.51436 0.0
H3114 H 0.07621 0.29326 0.45002 0.0
H3115 H 0.051 0.31035 0.46822 0.0
H3116 H 0.06714 0.28225 0.48299 0.0
H3117 H 0.12972 0.38063 0.44198 0.0
H3118 H 0.15146 0.38822 0.46996 0.0
H3119 H 0.11834 0.40101 0.46907 0.0
C3120 C 0.40909 0.6859 0.34848 0.0
C3121 C 0.39896 0.71151 0.34464 0.0
C3122 C 0.40403 0.66558 0.32977 0.0
C3123 C 0.38859 0.67124 0.30695 0.0
C3124 C 0.37438 0.69532 0.30574 0.0
C3125 C 0.37976 0.71532 0.32471 0.0
C3126 C 0.41837 0.6396 0.33249 0.0
C3127 C 0.35665 0.70157 0.28229 0.0
C3128 C 0.4158 0.65685 0.23869 0.0
C3129 C 0.39721 0.638 0.22902 0.0
C3130 C 0.41437 0.6662 0.2649 0.0
C3131 C 0.39354 0.65666 0.28173 0.0
C3132 C 0.37613 0.63586 0.2728 0.0
C3133 C 0.37823 0.62666 0.2464 0.0
C3134 C 0.43396 0.68784 0.27381 0.0
C3135 C 0.35399 0.62476 0.29015 0.0
H3136 H 0.42319 0.68245 0.3645 0.0
H3137 H 0.37117 0.73478 0.32208 0.0
H3138 H 0.40616 0.62272 0.32432 0.0
H3139 H 0.43731 0.64078 0.32106 0.0
H3140 H 0.42333 0.63541 0.35367 0.0
H3141 H 0.34334 0.71845 0.28669 0.0
H3142 H 0.36928 0.70708 0.26489 0.0
H3143 H 0.3442 0.68389 0.27659 0.0
H3144 H 0.43067 0.6653 0.22526 0.0
H3145 H 0.36378 0.61206 0.23885 0.0
H3146 H 0.4433 0.68244 0.29309 0.0
H3147 H 0.42329 0.70677 0.27687 0.0
H3148 H 0.45009 0.69147 0.25899 0.0
H3149 H 0.35925 0.62575 0.31165 0.0
H3150 H 0.34904 0.60373 0.28472 0.0
H3151 H 0.33578 0.63657 0.28702 0.0
C3152 C 0.97901 0.64075 0.04404 0.0
C3153 C -0.00775 0.66474 0.0508 0.0
C3154 C -0.00887 0.62224 0.02714 0.0
C3155 C 0.01631 0.62872 0.01586 0.0
C3156 C 0.03071 0.65174 0.02472 0.0
C3157 C 0.0186 0.66928 0.04248 0.0
C3158 C 0.97611 0.59686 0.01982 0.0
C3159 C 0.05769 0.65945 0.01328 0.0
C3160 C 0.05906 0.59248 0.9663 0.0
C3161 C 0.05122 0.60502 0.94262 0.0
C3162 C 0.04563 0.59738 -0.00963 0.0
C3163 C 0.0247 0.61588 -0.00933 0.0
C3164 C 0.01503 0.62631 0.96637 0.0
C3165 C 0.02808 0.62028 0.94262 0.0
C3166 C 0.05526 0.58428 0.01556 0.0
C3167 C -0.00725 0.6462 0.96562 0.0
H3168 H 0.95887 0.63685 0.05116 0.0
H3169 H 0.029 0.68766 0.04806 0.0
H3170 H 0.96388 0.60019 0.0017 0.0
H3171 H -0.00999 0.58046 0.01551 0.0
H3172 H 0.96237 0.59053 0.0361 0.0
H3173 H 0.06678 0.6772 0.02338 0.0
H3174 H 0.07162 0.64269 0.01513 0.0
H3175 H 0.05557 0.66398 -0.00829 0.0
H3176 H 0.07646 0.58 0.96641 0.0
H3177 H 0.02133 0.62946 0.92432 0.0
H3178 H 0.03927 0.58276 0.03082 0.0
H3179 H 0.07221 0.59616 0.02404 0.0
H3180 H 0.06262 0.56399 0.01121 0.0
H3181 H 0.97467 0.63788 0.97551 0.0
H3182 H 0.98728 0.65186 0.94493 0.0
H3183 H -0.00103 0.66458 0.9766 0.0
C3184 C 0.02858 0.26494 0.79849 0.0
C3185 C 0.00324 0.27184 0.80777 0.0
C3186 C 0.03888 0.27576 0.77481 0.0
C3187 C 0.02339 0.29378 0.75999 0.0
C3188 C -0.00217 0.30089 0.76922 0.0
C3189 C 0.98809 0.2899 0.79307 0.0
C3190 C 0.06632 0.26788 0.76561 0.0
C3191 C 0.98073 0.31996 0.7538 0.0
C3192 C 0.05992 0.33893 0.71108 0.0
C3193 C 0.05608 0.32503 0.68697 0.0
C3194 C 0.04913 0.32912 0.73499 0.0
C3195 C 0.03394 0.30501 0.7347 0.0
C3196 C 0.02947 0.2912 0.71037 0.0
C3197 C 0.04072 0.30131 0.6868 0.0
C3198 C 0.05441 0.3443 0.76062 0.0
C3199 C 0.01305 0.26559 0.7093 0.0
H3200 H 0.04046 0.25108 0.80976 0.0
H3201 H 0.96846 0.2953 0.80005 0.0
H3202 H 0.06491 0.25818 0.74572 0.0
H3203 H 0.07939 0.2859 0.76345 0.0
H3204 H 0.07597 0.25397 0.77968 0.0
H3205 H 0.96128 0.32342 0.76371 0.0
H3206 H -0.00856 0.33941 0.75151 0.0
H3207 H 0.97682 0.31202 0.73344 0.0
H3208 H 0.07181 0.35725 0.71139 0.0
H3209 H 0.03743 0.29062 0.6682 0.0
H3210 H 0.06561 0.33168 0.77472 0.0
H3211 H 0.03526 0.34923 0.77035 0.0
H3212 H 0.06609 0.36308 0.75731 0.0
H3213 H 0.02271 0.25014 0.72156 0.0
H3214 H 0.01062 0.25784 0.68862 0.0
H3215 H -0.00705 0.2688 0.71786 0.0
C3216 C 0.42785 0.29796 0.52159 0.0
C3217 C 0.44966 0.29966 0.53909 0.0
C3218 C 0.42753 0.31291 0.49806 0.0
C3219 C 0.44942 0.33026 0.49209 0.0
C3220 C 0.47113 0.33273 0.51007 0.0
C3221 C 0.47108 0.31722 0.53333 0.0
C3222 C 0.40402 0.30958 0.47924 0.0
C3223 C 0.49465 0.35121 0.50446 0.0
C3224 C 0.45192 0.34174 0.41805 0.0
C3225 C 0.43511 0.36364 0.41576 0.0
C3226 C 0.4591 0.332 0.44316 0.0
C3227 C 0.44961 0.34479 0.46637 0.0
C3228 C 0.43588 0.36903 0.46413 0.0
C3229 C 0.42869 0.37817 0.43876 0.0
C3230 C 0.47403 0.30622 0.4447 0.0
C3231 C 0.42615 0.3837 0.48846 0.0
H3232 H 0.41128 0.28439 0.52593 0.0
H3233 H 0.48797 0.31866 0.54688 0.0
H3234 H 0.39475 0.32914 0.4757 0.0
H3235 H 0.41091 0.302 0.45966 0.0
H3236 H 0.38848 0.29554 0.48705 0.0
H3237 H 0.50832 0.3532 0.52189 0.0
H3238 H 0.50613 0.34346 0.48731 0.0
H3239 H 0.48771 0.37129 0.49889 0.0
H3240 H 0.45732 0.33056 0.40039 0.0
H3241 H 0.41619 0.39546 0.43714 0.0
H3242 H 0.45975 0.28968 0.44949 0.0
H3243 H 0.4893 0.30709 0.46076 0.0
H3244 H 0.484 0.30143 0.42554 0.0
H3245 H 0.40804 0.37331 0.49633 0.0
H3246 H 0.42092 0.40457 0.4837 0.0
H3247 H 0.44147 0.38394 0.50449 0.0
C3248 C 0.1542 0.36934 0.31699 0.0
C3249 C 0.1505 0.39591 0.3248 0.0
C3250 C 0.1759 0.35516 0.32687 0.0
C3251 C 0.19431 0.36834 0.34406 0.0
C3252 C 0.18719 0.39261 0.35633 0.0
C3253 C 0.16511 0.40621 0.34655 0.0
C3254 C 0.18153 0.32803 0.31549 0.0
C3255 C 0.20538 0.40643 0.37629 0.0
C3256 C 0.26545 0.34817 0.35926 0.0
C3257 C 0.27933 0.36165 0.33883 0.0
C3258 C 0.23739 0.34835 0.36044 0.0
C3259 C 0.22314 0.36285 0.34109 0.0
C3260 C 0.23705 0.37498 0.3195 0.0
C3261 C 0.26483 0.3739 0.31852 0.0
C3262 C 0.22351 0.33403 0.3831 0.0
C3263 C 0.22286 0.39056 0.29808 0.0
H3264 H 0.14207 0.36066 0.30111 0.0
H3265 H 0.1616 0.42629 0.35359 0.0
H3266 H 0.19436 0.33031 0.29756 0.0
H3267 H 0.19226 0.31566 0.3302 0.0
H3268 H 0.16275 0.31747 0.30937 0.0
H3269 H 0.195 0.42246 0.38724 0.0
H3270 H 0.21308 0.39194 0.39092 0.0
H3271 H 0.22276 0.41551 0.36569 0.0
H3272 H 0.27644 0.33821 0.37485 0.0
H3273 H 0.27527 0.38394 0.30237 0.0
H3274 H 0.20206 0.3298 0.37889 0.0
H3275 H 0.22511 0.34647 0.4014 0.0
H3276 H 0.23346 0.31493 0.38738 0.0
H3277 H 0.20814 0.37748 0.28752 0.0
H3278 H 0.23685 0.39905 0.283 0.0
H3279 H 0.21188 0.40725 0.3072 0.0
C3280 C 0.30885 0.46397 -0.00634 0.0
C3281 C 0.28768 0.4539 0.00915 0.0
C3282 C 0.32517 0.4851 0.00316 0.0
C3283 C 0.31971 0.49646 0.02841 0.0
C3284 C 0.29782 0.48674 0.04367 0.0
C3285 C 0.28226 0.46543 0.03393 0.0
C3286 C 0.34864 0.49466 0.98664 0.0
C3287 C 0.29087 0.49871 0.07046 0.0
C3288 C 0.36472 0.53442 0.07571 0.0
C3289 C 0.35382 0.55983 0.07374 0.0
C3290 C 0.35614 0.51382 0.0585 0.0
C3291 C 0.33613 0.51889 0.03926 0.0
C3292 C 0.32765 0.54523 0.03508 0.0
C3293 C 0.33674 0.56544 0.05231 0.0
C3294 C 0.36628 0.48608 0.06289 0.0
C3295 C 0.30649 0.55156 0.01466 0.0
H3296 H 0.31319 0.45476 0.97459 0.0
H3297 H 0.26578 0.45767 0.04581 0.0
H3298 H 0.34901 0.51671 0.98502 0.0
H3299 H 0.36747 0.48896 -0.00339 0.0
H3300 H 0.34829 0.48593 0.96623 0.0
H3301 H 0.2727 0.48926 0.07933 0.0
H3302 H 0.30772 0.49635 0.08461 0.0
H3303 H 0.28747 0.52038 0.06833 0.0
H3304 H 0.37834 0.53005 0.09189 0.0
H3305 H 0.32886 0.58528 0.05013 0.0
H3306 H 0.36915 0.47564 0.04359 0.0
H3307 H 0.35133 0.47436 0.07455 0.0
H3308 H 0.38545 0.48641 0.07412 0.0
H3309 H 0.30982 0.54067 -0.00428 0.0
H3310 H 0.30595 0.57326 0.01037 0.0
H3311 H 0.28663 0.54513 0.02243 0.0
C3312 C 0.31668 0.60291 0.79717 0.0
C3313 C 0.32758 0.58116 0.81052 0.0
C3314 C 0.29617 0.61734 0.80905 0.0
C3315 C 0.28629 0.609 0.83415 0.0
C3316 C 0.30157 0.5916 0.84989 0.0
C3317 C 0.32241 0.57786 0.83782 0.0
C3318 C 0.28186 0.63782 0.79279 0.0
C3319 C 0.29271 0.58342 0.87748 0.0
C3320 C 0.2173 0.62644 0.85994 0.0
C3321 C 0.20164 0.60616 0.84796 0.0
C3322 C 0.24496 0.62837 0.85523 0.0
C3323 C 0.25703 0.60923 0.83858 0.0
C3324 C 0.24108 0.58879 0.82642 0.0
C3325 C 0.21364 0.58777 0.83105 0.0
C3326 C 0.26083 0.6512 0.86755 0.0
C3327 C 0.25287 0.56752 0.80876 0.0
H3328 H 0.32159 0.60648 0.7764 0.0
H3329 H 0.33175 0.56189 0.84871 0.0
H3330 H 0.26509 0.62796 0.78178 0.0
H3331 H 0.27348 0.65345 0.80586 0.0
H3332 H 0.29548 0.64734 0.77797 0.0
H3333 H 0.30952 0.57527 0.88919 0.0
H3334 H 0.28431 0.60049 0.8885 0.0
H3335 H 0.27687 0.56766 0.87576 0.0
H3336 H 0.2079 0.64093 0.87276 0.0
H3337 H 0.20161 0.57195 0.82195 0.0
H3338 H 0.2616 0.66799 0.85319 0.0
H3339 H 0.28168 0.64573 0.87213 0.0
H3340 H 0.25125 0.65842 0.88612 0.0
H3341 H 0.26202 0.5768 0.79083 0.0
H3342 H 0.23768 0.55251 0.80193 0.0
H3343 H 0.2687 0.55688 0.81965 0.0
C3344 C 0.22886 0.53601 0.56238 0.0
C3345 C 0.22195 0.55269 0.5412 0.0
C3346 C 0.2111 0.51597 0.57129 0.0
C3347 C 0.1859 0.51257 0.55866 0.0
C3348 C 0.17831 0.53012 0.53814 0.0
C3349 C 0.19644 0.54997 0.52964 0.0
C3350 C 0.21978 0.49765 0.5934 0.0
C3351 C 0.15158 0.52714 0.5243 0.0
C3352 C 0.15991 0.44145 0.55965 0.0
C3353 C 0.1423 0.44183 0.58133 0.0
C3354 C 0.17321 0.46471 0.55124 0.0
C3355 C 0.16889 0.4889 0.56498 0.0
C3356 C 0.14983 0.48979 0.58579 0.0
C3357 C 0.13661 0.46614 0.59369 0.0
C3358 C 0.19304 0.46303 0.52864 0.0
C3359 C 0.14463 0.51531 0.60074 0.0
H3360 H 0.24842 0.53812 0.57157 0.0
H3361 H 0.19077 0.56295 0.51342 0.0
H3362 H 0.20426 0.49638 0.60914 0.0
H3363 H 0.22227 0.47723 0.58531 0.0
H3364 H 0.23895 0.50437 0.60268 0.0
H3365 H 0.14749 0.54423 0.51095 0.0
H3366 H 0.15112 0.50861 0.51215 0.0
H3367 H 0.13525 0.52533 0.53915 0.0
H3368 H 0.16407 0.42267 0.54986 0.0
H3369 H 0.12308 0.46643 0.61055 0.0
H3370 H 0.21355 0.46682 0.53643 0.0
H3371 H 0.18907 0.4785 0.51347 0.0
H3372 H 0.19243 0.44319 0.5187 0.0
H3373 H 0.16223 0.5206 0.61334 0.0
H3374 H 0.12681 0.51346 0.61383 0.0
H3375 H 0.14172 0.53201 0.58664 0.0
C3376 C 0.20271 0.51789 0.25044 0.0
C3377 C 0.19383 0.49524 0.23616 0.0
C3378 C 0.2237 0.53417 0.24082 0.0
C3379 C 0.23595 0.52772 0.21629 0.0
C3380 C 0.22752 0.50458 0.2021 0.0
C3381 C 0.20664 0.48857 0.21225 0.0
C3382 C 0.23238 0.55856 0.25661 0.0
C3383 C 0.24009 0.49708 0.17582 0.0
C3384 C 0.2702 0.5815 0.17483 0.0
C3385 C 0.29726 0.57625 0.17925 0.0
C3386 C 0.25002 0.56632 0.18738 0.0
C3387 C 0.25707 0.54552 0.20489 0.0
C3388 C 0.28429 0.54077 0.21025 0.0
C3389 C 0.30406 0.55614 0.19731 0.0
C3390 C 0.22116 0.57194 0.18116 0.0
C3391 C 0.29256 0.51893 0.22902 0.0
H3392 H 0.19301 0.52315 0.26898 0.0
H3393 H 0.19994 0.47114 0.20106 0.0
H3394 H 0.25419 0.55825 0.26051 0.0
H3395 H 0.22846 0.57678 0.24488 0.0
H3396 H 0.22178 0.56001 0.276 0.0
H3397 H 0.2317 0.47806 0.16763 0.0
H3398 H 0.23691 0.51309 0.16099 0.0
H3399 H 0.26198 0.4951 0.17831 0.0
H3400 H 0.2647 0.59699 0.16096 0.0
H3401 H 0.32491 0.55208 0.20109 0.0
H3402 H 0.20987 0.5751 0.19988 0.0
H3403 H 0.21181 0.55449 0.17082 0.0
H3404 H 0.219 0.58976 0.16828 0.0
H3405 H 0.28223 0.52095 0.24846 0.0
H3406 H 0.31446 0.51914 0.23262 0.0
H3407 H 0.28654 0.49923 0.22055 0.0
C3408 C 0.17654 0.40192 0.91443 0.0
C3409 C 0.17337 0.40046 0.9422 0.0
C3410 C 0.16125 0.41942 0.89935 0.0
C3411 C 0.14244 0.43537 0.91252 0.0
C3412 C 0.13546 0.42973 0.93929 0.0
C3413 C 0.15137 0.4125 0.95409 0.0
C3414 C 0.16832 0.42395 0.87045 0.0
C3415 C 0.11399 0.44496 0.95336 0.0
C3416 C 0.15127 0.50918 0.90093 0.0
C3417 C 0.13004 0.51462 0.88382 0.0
C3418 C 0.15556 0.48336 0.90988 0.0
C3419 C 0.13762 0.46244 0.90211 0.0
C3420 C 0.11595 0.46779 0.88486 0.0
C3421 C 0.11271 0.4939 0.87545 0.0
C3422 C 0.17935 0.47864 0.92782 0.0
C3423 C 0.09622 0.44628 0.87619 0.0
H3424 H 0.1929 0.39179 0.9049 0.0
H3425 H 0.14814 0.41058 0.97539 0.0
H3426 H 0.15009 0.4271 0.85837 0.0
H3427 H 0.18124 0.44215 0.86881 0.0
H3428 H 0.17929 0.40689 0.86195 0.0
H3429 H 0.10631 0.43391 0.97103 0.0
H3430 H 0.12242 0.46444 0.96031 0.0
H3431 H 0.09712 0.44894 0.93962 0.0
H3432 H 0.16481 0.52523 0.90711 0.0
H3433 H 0.09621 0.49823 0.8622 0.0
H3434 H 0.19191 0.46277 0.91933 0.0
H3435 H 0.17243 0.47193 0.94776 0.0
H3436 H 0.19208 0.49686 0.93058 0.0
H3437 H 0.10315 0.43736 0.85721 0.0
H3438 H 0.07623 0.45469 0.87243 0.0
H3439 H 0.09416 0.43015 0.8912 0.0
C3440 C 0.25561 0.45153 0.76199 0.0
C3441 C 0.26734 0.47057 0.74499 0.0
C3442 C 0.23521 0.43419 0.75271 0.0
C3443 C 0.22629 0.43634 0.72601 0.0
C3444 C 0.23725 0.45641 0.70922 0.0
C3445 C 0.25779 0.47315 0.71888 0.0
C3446 C 0.22408 0.4129 0.77106 0.0
C3447 C 0.22785 0.45975 0.68075 0.0
C3448 C 0.19626 0.38138 0.6834 0.0
C3449 C 0.16971 0.38953 0.68154 0.0
C3450 C 0.21457 0.39497 0.70005 0.0
C3451 C 0.20611 0.41732 0.71486 0.0
C3452 C 0.17883 0.42395 0.7151 0.0
C3453 C 0.1609 0.40982 0.69858 0.0
C3454 C 0.24343 0.38691 0.69987 0.0
C3455 C 0.16901 0.44761 0.73068 0.0
H3456 H 0.26313 0.44942 0.78217 0.0
H3457 H 0.26674 0.48801 0.7058 0.0
H3458 H 0.20192 0.41263 0.77068 0.0
H3459 H 0.23055 0.39306 0.76407 0.0
H3460 H 0.23094 0.41579 0.79199 0.0
H3461 H 0.23747 0.47726 0.67085 0.0
H3462 H 0.23241 0.44164 0.66898 0.0
H3463 H 0.20588 0.46215 0.68021 0.0
H3464 H 0.20317 0.36541 0.67072 0.0
H3465 H 0.14033 0.41606 0.69768 0.0
H3466 H 0.2518 0.38719 0.72039 0.0
H3467 H 0.25531 0.40139 0.68781 0.0
H3468 H 0.24589 0.36671 0.69117 0.0
H3469 H 0.17796 0.44835 0.75094 0.0
H3470 H 0.14691 0.44723 0.73257 0.0
H3471 H 0.17516 0.46624 0.72025 0.0
C3472 C 0.30666 0.56542 0.414 0.0
C3473 C 0.31937 0.57027 0.43858 0.0
C3474 C 0.3166 0.54669 0.3961 0.0
C3475 C 0.33977 0.5327 0.40303 0.0
C3476 C 0.35468 0.54021 0.42596 0.0
C3477 C 0.34417 0.55888 0.44369 0.0
C3478 C 0.3004 0.53954 0.37154 0.0
C3479 C 0.38008 0.52636 0.43337 0.0
C3480 C 0.33424 0.45873 0.39114 0.0
C3481 C 0.34991 0.4555 0.36834 0.0
C3482 C 0.33096 0.48383 0.40248 0.0
C3483 C 0.34398 0.50629 0.39087 0.0
C3484 C 0.36 0.50326 0.36789 0.0
C3485 C 0.36253 0.47778 0.35663 0.0
C3486 C 0.31344 0.48622 0.42689 0.0
C3487 C 0.37429 0.52674 0.35512 0.0
H3488 H 0.28789 0.5748 0.40948 0.0
H3489 H 0.35454 0.56317 0.46228 0.0
H3490 H 0.31359 0.53613 0.35418 0.0
H3491 H 0.28888 0.52076 0.37524 0.0
H3492 H 0.28609 0.55534 0.36638 0.0
H3493 H 0.39218 0.53824 0.44794 0.0
H3494 H 0.37497 0.5068 0.44255 0.0
H3495 H 0.39237 0.52256 0.41541 0.0
H3496 H 0.32429 0.44156 0.40009 0.0
H3497 H 0.3748 0.47524 0.33904 0.0
H3498 H 0.29696 0.50009 0.42286 0.0
H3499 H 0.32527 0.49452 0.44385 0.0
H3500 H 0.30453 0.46674 0.43311 0.0
H3501 H 0.35984 0.53816 0.34316 0.0
H3502 H 0.39052 0.5203 0.34162 0.0
H3503 H 0.38293 0.54045 0.37044 0.0
C3504 C 0.28001 0.19916 0.40728 0.0
C3505 C 0.29019 0.17593 0.41838 0.0
C3506 C 0.29683 0.21709 0.39357 0.0
C3507 C 0.32427 0.21134 0.39079 0.0
C3508 C 0.33399 0.18669 0.3997 0.0
C3509 C 0.31685 0.16932 0.41365 0.0
C3510 C 0.28571 0.24311 0.38397 0.0
C3511 C 0.3629 0.17952 0.39619 0.0
C3512 C 0.36295 0.26201 0.34944 0.0
C3513 C 0.37056 0.28032 0.36937 0.0
C3514 C 0.34928 0.23822 0.3561 0.0
C3515 C 0.34328 0.23298 0.38321 0.0
C3516 C 0.35322 0.2503 0.40345 0.0
C3517 C 0.36677 0.27377 0.39624 0.0
C3518 C 0.33956 0.21999 0.33397 0.0
C3519 C 0.34769 0.24522 0.43267 0.0
H3520 H 0.25932 0.2041 0.41064 0.0
H3521 H 0.3246 0.15099 0.4217 0.0
H3522 H 0.29385 0.25973 0.39645 0.0
H3523 H 0.2919 0.24699 0.36307 0.0
H3524 H 0.26355 0.24327 0.38504 0.0
H3525 H 0.36615 0.15801 0.39989 0.0
H3526 H 0.36982 0.1845 0.37574 0.0
H3527 H 0.37545 0.1913 0.41042 0.0
H3528 H 0.36592 0.26708 0.32862 0.0
H3529 H 0.3731 0.2878 0.41164 0.0
H3530 H 0.31938 0.22612 0.32755 0.0
H3531 H 0.33815 0.1989 0.34049 0.0
H3532 H 0.35298 0.22136 0.31639 0.0
H3533 H 0.32598 0.24694 0.43654 0.0
H3534 H 0.35865 0.25957 0.44588 0.0
H3535 H 0.35343 0.22473 0.43818 0.0
C3536 C 0.82103 0.31366 0.59086 0.0
C3537 C 0.82938 0.30706 0.565 0.0
C3538 C 0.8267 0.29707 0.61258 0.0
C3539 C 0.84057 0.27322 0.60804 0.0
C3540 C 0.84964 0.26693 0.58199 0.0
C3541 C 0.84418 0.2841 0.5609 0.0
C3542 C 0.81818 0.30532 0.64022 0.0
C3543 C 0.8644 0.24157 0.57603 0.0
C3544 C 0.87721 0.22475 0.64885 0.0
C3545 C 0.8598 0.2027 0.64525 0.0
C3546 C 0.86933 0.25026 0.64114 0.0
C3547 C 0.84388 0.2532 0.62938 0.0
C3548 C 0.82464 0.23222 0.63122 0.0
C3549 C 0.83284 0.20708 0.63945 0.0
C3550 C 0.88959 0.27295 0.64155 0.0
C3551 C 0.79682 0.23488 0.62003 0.0
H3552 H 0.81014 0.33182 0.59411 0.0
H3553 H 0.85076 0.27905 0.54095 0.0
H3554 H 0.81081 0.28804 0.65206 0.0
H3555 H 0.83572 0.31412 0.6509 0.0
H3556 H 0.80238 0.32051 0.63957 0.0
H3557 H 0.86929 0.23944 0.55453 0.0
H3558 H 0.88335 0.24131 0.58752 0.0
H3559 H 0.85216 0.22392 0.58211 0.0
H3560 H 0.89786 0.22175 0.6544 0.0
H3561 H 0.81894 0.19025 0.63788 0.0
H3562 H 0.87977 0.29226 0.64511 0.0
H3563 H 0.8998 0.27409 0.62194 0.0
H3564 H 0.905 0.26996 0.65719 0.0
H3565 H 0.78855 0.2546 0.62503 0.0
H3566 H 0.78302 0.21902 0.62763 0.0
H3567 H 0.79759 0.23319 0.59794 0.0
C3568 C 0.45441 -0.00415 0.33768 0.0
C3569 C 0.43343 0.00318 0.32088 0.0
C3570 C 0.47265 0.0151 0.34756 0.0
C3571 C 0.46963 0.0422 0.3405 0.0
C3572 C 0.44675 0.04999 0.32618 0.0
C3573 C 0.42895 0.03034 0.31641 0.0
C3574 C 0.49663 0.00606 0.36314 0.0
C3575 C 0.44248 0.07874 0.31882 0.0
C3576 C 0.52144 0.09131 0.36858 0.0
C3577 C 0.54091 0.09047 0.34855 0.0
C3578 C 0.49736 0.07656 0.36595 0.0
C3579 C 0.49291 0.06085 0.34275 0.0
C3580 C 0.51182 0.06146 0.32179 0.0
C3581 C 0.53556 0.07623 0.32499 0.0
C3582 C 0.47753 0.07659 0.38856 0.0
C3583 C 0.50769 0.04537 0.29648 0.0
H3584 H 0.45777 0.97493 0.34155 0.0
H3585 H 0.41236 0.03622 0.30397 0.0
H3586 H 0.51448 0.0067 0.35004 0.0
H3587 H 0.50075 0.01957 0.38029 0.0
H3588 H 0.49386 0.98538 0.37069 0.0
H3589 H 0.42146 0.0822 0.31284 0.0
H3590 H 0.4478 0.09222 0.33569 0.0
H3591 H 0.45561 0.08418 0.30178 0.0
H3592 H 0.52563 0.10224 0.38687 0.0
H3593 H 0.55048 0.07587 0.30934 0.0
H3594 H 0.47932 0.05791 0.40016 0.0
H3595 H 0.45675 0.07729 0.38091 0.0
H3596 H 0.48114 0.09371 0.40233 0.0
H3597 H 0.50716 0.02378 0.30127 0.0
H3598 H 0.52378 0.04913 0.28165 0.0
H3599 H 0.48828 0.05016 0.28714 0.0
C3600 C 0.67356 0.62018 0.06629 0.0
C3601 C 0.70144 0.62308 0.06868 0.0
C3602 C 0.6568 0.63846 0.07874 0.0
C3603 C 0.66852 0.65965 0.09359 0.0
C3604 C 0.69555 0.6581 0.10158 0.0
C3605 C 0.71202 0.63986 0.08868 0.0
C3606 C 0.62739 0.63782 0.0722 0.0
C3607 C 0.70802 0.67874 0.11993 0.0
C3608 C 0.65558 0.7291 0.06854 0.0
C3609 C 0.63801 0.73889 0.08761 0.0
C3610 C 0.6647 0.70304 0.06995 0.0
C3611 C 0.6567 0.68647 0.0916 0.0
C3612 C 0.63848 0.6961 0.11076 0.0
C3613 C 0.62901 0.72218 0.10828 0.0
C3614 C 0.68331 0.69358 0.04829 0.0
C3615 C 0.62884 0.67945 0.13398 0.0
H3616 H 0.66505 0.60617 0.05192 0.0
H3617 H 0.73345 0.64133 0.0917 0.0
H3618 H 0.6155 0.64327 0.08999 0.0
H3619 H 0.6234 0.6526 0.05631 0.0
H3620 H 0.62057 0.61782 0.06502 0.0
H3621 H 0.72602 0.67095 0.13 0.0
H3622 H 0.71421 0.69651 0.10812 0.0
H3623 H 0.69348 0.68514 0.13525 0.0
H3624 H 0.66222 0.74191 0.05235 0.0
H3625 H 0.61531 0.72977 0.12306 0.0
H3626 H 0.67603 0.67424 0.03994 0.0
H3627 H 0.70352 0.69064 0.05675 0.0
H3628 H 0.68523 0.70805 0.03162 0.0
H3629 H 0.60749 0.67392 0.13075 0.0
H3630 H 0.62998 0.69137 0.15269 0.0
H3631 H 0.64024 0.66096 0.13678 0.0
C3632 C 0.52002 0.49412 0.22141 0.0
C3633 C 0.53431 0.51399 0.2354 0.0
C3634 C 0.49953 0.47938 0.23368 0.0
C3635 C 0.49335 0.48458 0.2607 0.0
C3636 C 0.50642 0.50592 0.2744 0.0
C3637 C 0.52683 0.52056 0.26147 0.0
C3638 C 0.48579 0.45706 0.21823 0.0
C3639 C 0.50012 0.51212 0.30316 0.0
C3640 C 0.42997 0.44938 0.28344 0.0
C3641 C 0.44001 0.42569 0.29395 0.0
C3642 C 0.44719 0.46963 0.27408 0.0
C3643 C 0.47506 0.46589 0.27491 0.0
C3644 C 0.48536 0.4425 0.28649 0.0
C3645 C 0.46768 0.42272 0.29603 0.0
C3646 C 0.43551 0.49447 0.26225 0.0
C3647 C 0.51503 0.43779 0.28761 0.0
H3648 H 0.52572 0.48927 0.20112 0.0
H3649 H 0.538 0.53589 0.27229 0.0
H3650 H 0.49124 0.43759 0.2269 0.0
H3651 H 0.46378 0.45864 0.2197 0.0
H3652 H 0.49142 0.45712 0.19679 0.0
H3653 H 0.50886 0.53168 0.30955 0.0
H3654 H 0.47822 0.51222 0.3064 0.0
H3655 H 0.50837 0.49639 0.31613 0.0
H3656 H 0.40857 0.45206 0.28232 0.0
H3657 H 0.47553 0.40455 0.30433 0.0
H3658 H 0.43822 0.49425 0.24028 0.0
H3659 H 0.44605 0.51257 0.27006 0.0
H3660 H 0.41384 0.49601 0.26657 0.0
H3661 H 0.52284 0.43536 0.26705 0.0
H3662 H 0.51986 0.41971 0.29926 0.0
H3663 H 0.52567 0.45523 0.29666 0.0
C3664 C 0.18812 0.80059 0.93879 0.0
C3665 C 0.21549 0.79641 0.93501 0.0
C3666 C 0.16883 0.78242 0.92888 0.0
C3667 C 0.17713 0.75946 0.91504 0.0
C3668 C 0.2046 0.75606 0.90958 0.0
C3669 C 0.22347 0.77464 0.91957 0.0
C3670 C 0.13972 0.7869 0.93485 0.0
C3671 C 0.21424 0.7318 0.89483 0.0
C3672 C 0.1386 0.69454 0.92375 0.0
C3673 C 0.12642 0.69113 0.89871 0.0
C3674 C 0.15425 0.71724 0.92959 0.0
C3675 C 0.15781 0.73714 0.90989 0.0
C3676 C 0.14424 0.73467 0.88513 0.0
C3677 C 0.1286 0.71162 0.87981 0.0
C3678 C 0.16812 0.71919 0.95637 0.0
C3679 C 0.14742 0.75563 0.86377 0.0
H3680 H 0.18173 0.81758 0.95038 0.0
H3681 H 0.24456 0.77136 0.91639 0.0
H3682 H 0.12725 0.783 0.91687 0.0
H3683 H 0.13289 0.77279 0.95055 0.0
H3684 H 0.13622 0.80753 0.94197 0.0
H3685 H 0.23571 0.73367 0.88944 0.0
H3686 H 0.21142 0.71389 0.90756 0.0
H3687 H 0.2024 0.7284 0.87634 0.0
H3688 H 0.13672 0.67887 0.93855 0.0
H3689 H 0.11934 0.709 0.86037 0.0
H3690 H 0.16368 0.73843 0.96619 0.0
H3691 H 0.19007 0.71858 0.95353 0.0
H3692 H 0.16202 0.70272 0.96999 0.0
H3693 H 0.14495 0.77585 0.87231 0.0
H3694 H 0.13282 0.7526 0.84725 0.0
H3695 H 0.16787 0.7549 0.85535 0.0
C3696 C 0.43937 0.93858 0.17421 0.0
C3697 C 0.44577 0.92883 0.19963 0.0
C3698 C 0.45499 0.93231 0.15185 0.0
C3699 C 0.47743 0.91596 0.15514 0.0
C3700 C 0.48421 0.90654 0.18086 0.0
C3701 C 0.4683 0.91305 0.20269 0.0
C3702 C 0.44697 0.94251 0.12476 0.0
C3703 C 0.50815 0.8892 0.18539 0.0
C3704 C 0.51169 0.87059 0.10752 0.0
C3705 C 0.53683 0.88344 0.10642 0.0
C3706 C 0.49025 0.88278 0.12034 0.0
C3707 C 0.49427 0.90822 0.13217 0.0
C3708 C 0.51813 0.92291 0.12708 0.0
C3709 C 0.53919 0.91033 0.11413 0.0
C3710 C 0.46467 0.86689 0.12443 0.0
C3711 C 0.52293 0.95042 0.13864 0.0
H3712 H 0.42185 0.95065 0.17167 0.0
H3713 H 0.47348 0.90552 0.22224 0.0
H3714 H 0.46466 0.94943 0.11321 0.0
H3715 H 0.43717 0.92605 0.11327 0.0
H3716 H 0.43273 0.95911 0.12631 0.0
H3717 H 0.51121 0.88452 0.20682 0.0
H3718 H 0.50552 0.87015 0.17429 0.0
H3719 H 0.52654 0.8993 0.17781 0.0
H3720 H 0.50946 0.85002 0.10106 0.0
H3721 H 0.55834 0.92072 0.11256 0.0
H3722 H 0.44709 0.87992 0.12328 0.0
H3723 H 0.46489 0.85776 0.14458 0.0
H3724 H 0.46233 0.85065 0.10943 0.0
H3725 H 0.50463 0.96243 0.13751 0.0
H3726 H 0.53943 0.96124 0.1282 0.0
H3727 H 0.52848 0.94861 0.16002 0.0
C3728 C 0.09452 0.01844 0.63524 0.0
C3729 C 0.10524 0.03023 0.65842 0.0
C3730 C 0.0757 0.03197 0.6199 0.0
C3731 C 0.06694 0.05705 0.62885 0.0
C3732 C 0.08161 0.07091 0.64891 0.0
C3733 C 0.10099 0.05733 0.66335 0.0
C3734 C 0.06222 0.01775 0.59683 0.0
C3735 C 0.07366 0.0982 0.65841 0.0
C3736 C 0.00419 0.09213 0.60653 0.0
C3737 C 0.9853 0.08053 0.62382 0.0
C3738 C 0.03079 0.08368 0.60655 0.0
C3739 C 0.03855 0.06386 0.62489 0.0
C3740 C 0.0192 0.05169 0.64186 0.0
C3741 C -0.00721 0.05987 0.64071 0.0
C3742 C 0.05026 0.09577 0.58682 0.0
C3743 C 0.02644 0.03083 0.66225 0.0
H3744 H 0.09863 -0.00221 0.63064 0.0
H3745 H 0.11001 0.0669 0.6807 0.0
H3746 H 0.04399 0.00705 0.60402 0.0
H3747 H 0.0561 0.03217 0.58132 0.0
H3748 H 0.07558 0.00287 0.58773 0.0
H3749 H 0.08977 0.10808 0.67039 0.0
H3750 H 0.06871 0.11121 0.64135 0.0
H3751 H 0.05559 0.09618 0.67112 0.0
H3752 H -0.00182 0.10783 0.59311 0.0
H3753 H 0.9782 0.05102 0.65419 0.0
H3754 H 0.05174 0.08216 0.56941 0.0
H3755 H 0.0706 0.0983 0.59541 0.0
H3756 H 0.04351 0.11539 0.57949 0.0
H3757 H 0.03402 0.01288 0.65205 0.0
H3758 H 0.00915 0.02454 0.67478 0.0
H3759 H 0.04247 0.03864 0.67566 0.0
loop_
_geom_bond_atom_site_label_1
_geom_bond_atom_site_label_2
_geom_bond_distance
_geom_bond_site_symmetry_2
_ccdc_geom_bond_type
C0 O1 1.306 . S
C0 O3 1.160 . S
O1 C0 1.306 . S
O1 Cd2 2.228 . S
Cd2 O1 2.228 . S
Cd2 O6 2.273 . S
Cd2 O10 2.277 . S
O3 C0 1.160 . S
O3 Cd4 2.203 1_655 S
Cd4 O3 2.203 1_455 S
Cd4 O6 2.411 1_455 S
Cd4 O7 2.333 . S
Cd4 O8 2.352 . S
Cd4 O12 2.277 . S
Cd4 O13 2.356 . S
C5 O10 1.209 1_455 S
C5 O12 1.226 . S
O6 Cd2 2.273 . S
O6 Cd4 2.411 1_655 S
O6 C9 1.320 . S
O7 Cd4 2.333 . S
O7 C9 1.214 1_455 S
O8 Cd4 2.352 . S
O8 C11 1.258 . S
C9 O6 1.320 . S
C9 O7 1.214 1_655 S
O10 Cd2 2.277 . S
O10 C5 1.209 1_655 S
C11 O8 1.258 . S
C11 O13 1.282 . S
O12 Cd4 2.277 . S
O12 C5 1.226 . S
O13 Cd4 2.356 . S
O13 C11 1.282 . S
C14 O15 1.306 . S
C14 O17 1.160 . S
O15 C14 1.306 . S
O15 Cd16 2.228 1_455 S
Cd16 O15 2.228 1_655 S
Cd16 O20 2.273 . S
Cd16 O24 2.277 . S
O17 C14 1.160 . S
O17 Cd18 2.203 . S
Cd18 O17 2.203 . S
Cd18 O20 2.411 1_455 S
Cd18 O21 2.333 1_455 S
Cd18 O22 2.352 . S
Cd18 O26 2.277 1_455 S
Cd18 O27 2.356 . S
C19 O24 1.209 . S
C19 O26 1.226 . S
O20 Cd16 2.273 . S
O20 Cd18 2.411 1_655 S
O20 C23 1.320 . S
O21 Cd18 2.333 1_655 S
O21 C23 1.214 . S
O22 Cd18 2.352 . S
O22 C25 1.258 . S
C23 O20 1.320 . S
C23 O21 1.214 . S
O24 Cd16 2.277 . S
O24 C19 1.209 . S
C25 O22 1.258 . S
C25 O27 1.282 . S
O26 Cd18 2.277 1_655 S
O26 C19 1.226 . S
O27 Cd18 2.356 . S
O27 C25 1.282 . S
C28 O29 1.306 . S
C28 O31 1.160 . S
O29 C28 1.306 . S
O29 Cd30 2.228 . S
Cd30 O29 2.228 . S
Cd30 O34 2.273 . S
Cd30 O38 2.277 . S
O31 C28 1.160 . S
O31 Cd32 2.203 . S
Cd32 O31 2.203 . S
Cd32 O34 2.411 . S
Cd32 O35 2.333 . S
Cd32 O36 2.352 . S
Cd32 O40 2.277 . S
Cd32 O41 2.356 . S
C33 O38 1.209 . S
C33 O40 1.226 . S
O34 Cd30 2.273 . S
O34 Cd32 2.411 . S
O34 C37 1.320 . S
O35 Cd32 2.333 . S
O35 C37 1.214 . S
O36 Cd32 2.352 . S
O36 C39 1.258 . S
C37 O34 1.320 . S
C37 O35 1.214 . S
O38 Cd30 2.277 . S
O38 C33 1.209 . S
C39 O36 1.258 . S
C39 O41 1.282 . S
O40 Cd32 2.277 . S
O40 C33 1.226 . S
O41 Cd32 2.356 . S
O41 C39 1.282 . S
C42 O43 1.306 . S
C42 O45 1.160 . S
O43 C42 1.306 . S
O43 Cd44 2.228 . S
Cd44 O43 2.228 . S
Cd44 O48 2.273 . S
Cd44 O52 2.277 . S
O45 C42 1.160 . S
O45 Cd46 2.203 . S
Cd46 O45 2.203 . S
Cd46 O48 2.411 . S
Cd46 O49 2.333 . S
Cd46 O50 2.352 . S
Cd46 O54 2.277 . S
Cd46 O55 2.356 . S
C47 O52 1.209 . S
C47 O54 1.226 . S
O48 Cd44 2.273 . S
O48 Cd46 2.411 . S
O48 C51 1.320 . S
O49 Cd46 2.333 . S
O49 C51 1.214 . S
O50 Cd46 2.352 . S
O50 C53 1.258 . S
C51 O48 1.320 . S
C51 O49 1.214 . S
O52 Cd44 2.277 . S
O52 C47 1.209 . S
C53 O50 1.258 . S
C53 O55 1.282 . S
O54 Cd46 2.277 . S
O54 C47 1.226 . S
O55 Cd46 2.356 . S
O55 C53 1.282 . S
C56 O57 1.306 . S
C56 O59 1.160 . S
O57 C56 1.306 . S
O57 Cd58 2.228 . S
Cd58 O57 2.228 . S
Cd58 O62 2.273 . S
Cd58 O66 2.277 . S
O59 C56 1.160 . S
O59 Cd60 2.203 1_655 S
Cd60 O59 2.203 1_455 S
Cd60 O62 2.411 1_455 S
Cd60 O63 2.333 . S
Cd60 O64 2.352 . S
Cd60 O68 2.277 . S
Cd60 O69 2.356 . S
C61 O66 1.209 1_455 S
C61 O68 1.226 . S
O62 Cd58 2.273 . S
O62 Cd60 2.411 1_655 S
O62 C65 1.320 . S
O63 Cd60 2.333 . S
O63 C65 1.214 1_455 S
O64 Cd60 2.352 . S
O64 C67 1.258 . S
C65 O62 1.320 . S
C65 O63 1.214 1_655 S
O66 Cd58 2.277 . S
O66 C61 1.209 1_655 S
C67 O64 1.258 . S
C67 O69 1.282 . S
O68 Cd60 2.277 . S
O68 C61 1.226 . S
O69 Cd60 2.356 . S
O69 C67 1.282 . S
C70 O71 1.306 . S
C70 O73 1.160 . S
O71 C70 1.306 . S
O71 Cd72 2.228 . S
Cd72 O71 2.228 . S
Cd72 O76 2.273 . S
Cd72 O80 2.277 . S
O73 C70 1.160 . S
O73 Cd74 2.203 . S
Cd74 O73 2.203 . S
Cd74 O76 2.411 . S
Cd74 O77 2.333 . S
Cd74 O78 2.352 . S
Cd74 O82 2.277 . S
Cd74 O83 2.356 . S
C75 O80 1.209 . S
C75 O82 1.226 . S
O76 Cd72 2.273 . S
O76 Cd74 2.411 . S
O76 C79 1.320 . S
O77 Cd74 2.333 . S
O77 C79 1.214 . S
O78 Cd74 2.352 . S
O78 C81 1.258 . S
C79 O76 1.320 . S
C79 O77 1.214 . S
O80 Cd72 2.277 . S
O80 C75 1.209 . S
C81 O78 1.258 . S
C81 O83 1.282 . S
O82 Cd74 2.277 . S
O82 C75 1.226 . S
O83 Cd74 2.356 . S
O83 C81 1.282 . S
C84 O85 1.306 . S
C84 O87 1.160 . S
O85 C84 1.306 . S
O85 Cd86 2.228 . S
Cd86 O85 2.228 . S
Cd86 O90 2.273 . S
Cd86 O94 2.277 . S
O87 C84 1.160 . S
O87 Cd88 2.203 . S
Cd88 O87 2.203 . S
Cd88 O90 2.411 . S
Cd88 O91 2.333 . S
Cd88 O92 2.352 . S
Cd88 O96 2.277 . S
Cd88 O97 2.356 . S
C89 O94 1.209 . S
C89 O96 1.226 . S
O90 Cd86 2.273 . S
O90 Cd88 2.411 . S
O90 C93 1.320 . S
O91 Cd88 2.333 . S
O91 C93 1.214 . S
O92 Cd88 2.352 . S
O92 C95 1.258 . S
C93 O90 1.320 . S
C93 O91 1.214 . S
O94 Cd86 2.277 . S
O94 C89 1.209 . S
C95 O92 1.258 . S
C95 O97 1.282 . S
O96 Cd88 2.277 . S
O96 C89 1.226 . S
O97 Cd88 2.356 . S
O97 C95 1.282 . S
C98 O99 1.306 . S
C98 O101 1.160 . S
O99 C98 1.306 . S
O99 Cd100 2.228 1_455 S
Cd100 O99 2.228 1_655 S
Cd100 O104 2.273 . S
Cd100 O108 2.277 . S
O101 C98 1.160 . S
O101 Cd102 2.203 . S
Cd102 O101 2.203 . S
Cd102 O104 2.411 1_455 S
Cd102 O105 2.333 1_455 S
Cd102 O106 2.352 . S
Cd102 O110 2.277 1_455 S
Cd102 O111 2.356 . S
C103 O108 1.209 . S
C103 O110 1.226 . S
O104 Cd100 2.273 . S
O104 Cd102 2.411 1_655 S
O104 C107 1.320 . S
O105 Cd102 2.333 1_655 S
O105 C107 1.214 . S
O106 Cd102 2.352 . S
O106 C109 1.258 . S
C107 O104 1.320 . S
C107 O105 1.214 . S
O108 Cd100 2.277 . S
O108 C103 1.209 . S
C109 O106 1.258 . S
C109 O111 1.282 . S
O110 Cd102 2.277 1_655 S
O110 C103 1.226 . S
O111 Cd102 2.356 . S
O111 C109 1.282 . S
C112 O113 1.306 . S
C112 O115 1.136 1_565 S
O113 C112 1.306 . S
O113 Cd114 2.228 . S
Cd114 O113 2.228 . S
Cd114 O118 2.273 . S
Cd114 O122 2.277 1_565 S
O115 C112 1.136 1_545 S
O115 Cd116 2.210 . S
Cd116 O115 2.210 . S
Cd116 O118 2.411 1_545 S
Cd116 O119 2.333 . S
Cd116 O120 2.352 . S
Cd116 O124 2.277 . S
Cd116 O125 2.356 . S
C117 O122 1.209 . S
C117 O124 1.226 . S
O118 Cd114 2.273 . S
O118 Cd116 2.411 1_565 S
O118 C121 1.320 . S
O119 Cd116 2.333 . S
O119 C121 1.214 1_545 S
O120 Cd116 2.352 . S
O120 C123 1.258 . S
C121 O118 1.320 . S
C121 O119 1.214 1_565 S
O122 Cd114 2.277 1_545 S
O122 C117 1.209 . S
C123 O120 1.258 . S
C123 O125 1.282 . S
O124 Cd116 2.277 . S
O124 C117 1.226 . S
O125 Cd116 2.356 . S
O125 C123 1.282 . S
C126 O127 1.306 . S
C126 O129 1.160 . S
O127 C126 1.306 . S
O127 Cd128 2.228 . S
Cd128 O127 2.228 . S
Cd128 O132 2.273 . S
Cd128 O136 2.277 . S
O129 C126 1.160 . S
O129 Cd130 2.203 . S
Cd130 O129 2.203 . S
Cd130 O132 2.411 . S
Cd130 O133 2.333 . S
Cd130 O134 2.352 . S
Cd130 O138 2.277 . S
Cd130 O139 2.356 . S
C131 O136 1.209 . S
C131 O138 1.226 . S
O132 Cd128 2.273 . S
O132 Cd130 2.411 . S
O132 C135 1.320 . S
O133 Cd130 2.333 . S
O133 C135 1.214 . S
O134 Cd130 2.352 . S
O134 C137 1.258 . S
C135 O132 1.320 . S
C135 O133 1.214 . S
O136 Cd128 2.277 . S
O136 C131 1.209 . S
C137 O134 1.258 . S
C137 O139 1.282 . S
O138 Cd130 2.277 . S
O138 C131 1.226 . S
O139 Cd130 2.356 . S
O139 C137 1.282 . S
C140 O141 1.306 . S
C140 O143 1.160 . S
O141 C140 1.306 . S
O141 Cd142 2.228 . S
Cd142 O141 2.228 . S
Cd142 O146 2.273 . S
Cd142 O150 2.277 . S
O143 C140 1.160 . S
O143 Cd144 2.203 1_565 S
Cd144 O143 2.203 1_545 S
Cd144 O146 2.411 1_545 S
Cd144 O147 2.333 . S
Cd144 O148 2.352 . S
Cd144 O152 2.277 . S
Cd144 O153 2.356 . S
C145 O150 1.209 1_545 S
C145 O152 1.226 . S
O146 Cd142 2.273 . S
O146 Cd144 2.411 1_565 S
O146 C149 1.320 . S
O147 Cd144 2.333 . S
O147 C149 1.214 1_545 S
O148 Cd144 2.352 . S
O148 C151 1.258 . S
C149 O146 1.320 . S
C149 O147 1.214 1_565 S
O150 Cd142 2.277 . S
O150 C145 1.209 1_565 S
C151 O148 1.258 . S
C151 O153 1.282 . S
O152 Cd144 2.277 . S
O152 C145 1.226 . S
O153 Cd144 2.356 . S
O153 C151 1.282 . S
C154 O155 1.306 . S
C154 O157 1.160 . S
O155 C154 1.306 . S
O155 Cd156 2.228 1_554 S
Cd156 O155 2.228 1_556 S
Cd156 O160 2.273 . S
Cd156 O164 2.277 . S
O157 C154 1.160 . S
O157 Cd158 2.203 . S
Cd158 O157 2.203 . S
Cd158 O160 2.411 1_554 S
Cd158 O161 2.333 1_554 S
Cd158 O162 2.352 . S
Cd158 O166 2.277 1_554 S
Cd158 O167 2.356 . S
C159 O164 1.209 . S
C159 O166 1.226 . S
O160 Cd156 2.273 . S
O160 Cd158 2.411 1_556 S
O160 C163 1.320 . S
O161 Cd158 2.333 1_556 S
O161 C163 1.214 . S
O162 Cd158 2.352 . S
O162 C165 1.258 . S
C163 O160 1.320 . S
C163 O161 1.214 . S
O164 Cd156 2.277 . S
O164 C159 1.209 . S
C165 O162 1.258 . S
C165 O167 1.282 . S
O166 Cd158 2.277 1_556 S
O166 C159 1.226 . S
O167 Cd158 2.356 . S
O167 C165 1.282 . S
C168 O169 1.306 . S
C168 O171 1.160 . S
O169 C168 1.306 . S
O169 Cd170 2.228 . S
Cd170 O169 2.228 . S
Cd170 O174 2.273 . S
Cd170 O178 2.277 . S
O171 C168 1.160 . S
O171 Cd172 2.203 1_554 S
Cd172 O171 2.203 1_556 S
Cd172 O174 2.411 1_556 S
Cd172 O175 2.333 . S
Cd172 O176 2.348 1_556 S
Cd172 O180 2.277 . S
Cd172 O181 2.356 . S
C173 O178 1.209 1_556 S
C173 O180 1.226 . S
O174 Cd170 2.273 . S
O174 Cd172 2.411 1_554 S
O174 C177 1.320 . S
O175 Cd172 2.333 . S
O175 C177 1.214 1_556 S
O176 Cd172 2.348 1_554 S
O176 C179 1.235 1_554 S
C177 O174 1.320 . S
C177 O175 1.214 1_554 S
O178 Cd170 2.277 . S
O178 C173 1.209 1_554 S
C179 O176 1.235 1_556 S
C179 O181 1.282 . S
O180 Cd172 2.277 . S
O180 C173 1.226 . S
O181 Cd172 2.356 . S
O181 C179 1.282 . S
C182 O183 1.306 . S
C182 O185 1.160 . S
O183 C182 1.306 . S
O183 Cd184 2.228 . S
Cd184 O183 2.228 . S
Cd184 O188 2.273 . S
Cd184 O192 2.277 . S
O185 C182 1.160 . S
O185 Cd186 2.203 1_554 S
Cd186 O185 2.203 1_556 S
Cd186 O188 2.411 1_556 S
Cd186 O189 2.333 . S
Cd186 O190 2.352 . S
Cd186 O194 2.277 . S
Cd186 O195 2.356 . S
C187 O192 1.209 1_556 S
C187 O194 1.226 . S
O188 Cd184 2.273 . S
O188 Cd186 2.411 1_554 S
O188 C191 1.320 . S
O189 Cd186 2.333 . S
O189 C191 1.214 1_556 S
O190 Cd186 2.352 . S
O190 C193 1.258 . S
C191 O188 1.320 . S
C191 O189 1.214 1_554 S
O192 Cd184 2.277 . S
O192 C187 1.209 1_554 S
C193 O190 1.258 . S
C193 O195 1.282 . S
O194 Cd186 2.277 . S
O194 C187 1.226 . S
O195 Cd186 2.356 . S
O195 C193 1.282 . S
C196 O197 1.306 . S
C196 O199 1.160 . S
O197 C196 1.306 . S
O197 Cd198 2.228 . S
Cd198 O197 2.228 . S
Cd198 O202 2.273 . S
Cd198 O206 2.277 . S
O199 C196 1.160 . S
O199 Cd200 2.203 . S
Cd200 O199 2.203 . S
Cd200 O202 2.411 . S
Cd200 O203 2.333 . S
Cd200 O204 2.352 . S
Cd200 O208 2.277 . S
Cd200 O209 2.356 . S
C201 O206 1.209 . S
C201 O208 1.226 . S
O202 Cd198 2.273 . S
O202 Cd200 2.411 . S
O202 C205 1.320 . S
O203 Cd200 2.333 . S
O203 C205 1.214 . S
O204 Cd200 2.352 . S
O204 C207 1.258 . S
C205 O202 1.320 . S
C205 O203 1.214 . S
O206 Cd198 2.277 . S
O206 C201 1.209 . S
C207 O204 1.258 . S
C207 O209 1.282 . S
O208 Cd200 2.277 . S
O208 C201 1.226 . S
O209 Cd200 2.356 . S
O209 C207 1.282 . S
C210 O211 1.306 . S
C210 O213 1.160 . S
O211 C210 1.306 . S
O211 Cd212 2.228 . S
Cd212 O211 2.228 . S
Cd212 O216 2.273 . S
Cd212 O220 2.277 . S
O213 C210 1.160 . S
O213 Cd214 2.203 . S
Cd214 O213 2.203 . S
Cd214 O216 2.411 . S
Cd214 O217 2.333 . S
Cd214 O218 2.352 . S
Cd214 O222 2.277 . S
Cd214 O223 2.356 . S
C215 O220 1.209 . S
C215 O222 1.226 . S
O216 Cd212 2.273 . S
O216 Cd214 2.411 . S
O216 C219 1.320 . S
O217 Cd214 2.333 . S
O217 C219 1.214 . S
O218 Cd214 2.352 . S
O218 C221 1.258 . S
C219 O216 1.320 . S
C219 O217 1.214 . S
O220 Cd212 2.277 . S
O220 C215 1.209 . S
C221 O218 1.258 . S
C221 O223 1.282 . S
O222 Cd214 2.277 . S
O222 C215 1.226 . S
O223 Cd214 2.356 . S
O223 C221 1.282 . S
C224 O225 1.306 . S
C224 O227 1.160 . S
O225 C224 1.306 . S
O225 Cd226 2.228 1_545 S
Cd226 O225 2.228 1_565 S
Cd226 O230 2.273 . S
Cd226 O234 2.277 . S
O227 C224 1.160 . S
O227 Cd228 2.203 . S
Cd228 O227 2.203 . S
Cd228 O230 2.411 1_545 S
Cd228 O231 2.333 1_545 S
Cd228 O232 2.352 . S
Cd228 O236 2.277 1_545 S
Cd228 O237 2.356 . S
C229 O234 1.209 . S
C229 O236 1.226 . S
O230 Cd226 2.273 . S
O230 Cd228 2.411 1_565 S
O230 C233 1.320 . S
O231 Cd228 2.333 1_565 S
O231 C233 1.214 . S
O232 Cd228 2.352 . S
O232 C235 1.258 . S
C233 O230 1.320 . S
C233 O231 1.214 . S
O234 Cd226 2.277 . S
O234 C229 1.209 . S
C235 O232 1.258 . S
C235 O237 1.282 . S
O236 Cd228 2.277 1_565 S
O236 C229 1.226 . S
O237 Cd228 2.356 . S
O237 C235 1.282 . S
C238 O239 1.306 . S
C238 O241 1.160 . S
O239 C238 1.306 . S
O239 Cd240 2.228 . S
Cd240 O239 2.228 . S
Cd240 O244 2.273 . S
Cd240 O248 2.277 . S
O241 C238 1.160 . S
O241 Cd242 2.203 . S
Cd242 O241 2.203 . S
Cd242 O244 2.411 . S
Cd242 O245 2.333 . S
Cd242 O246 2.352 . S
Cd242 O250 2.277 . S
Cd242 O251 2.356 . S
C243 O248 1.209 . S
C243 O250 1.226 . S
O244 Cd240 2.273 . S
O244 Cd242 2.411 . S
O244 C247 1.320 . S
O245 Cd242 2.333 . S
O245 C247 1.214 . S
O246 Cd242 2.352 . S
O246 C249 1.258 . S
C247 O244 1.320 . S
C247 O245 1.214 . S
O248 Cd240 2.277 . S
O248 C243 1.209 . S
C249 O246 1.258 . S
C249 O251 1.282 . S
O250 Cd242 2.277 . S
O250 C243 1.226 . S
O251 Cd242 2.356 . S
O251 C249 1.282 . S
C252 O253 1.306 . S
C252 O255 1.160 . S
O253 C252 1.306 . S
O253 Cd254 2.228 . S
Cd254 O253 2.228 . S
Cd254 O258 2.273 . S
Cd254 O262 2.277 . S
O255 C252 1.160 . S
O255 Cd256 2.203 . S
Cd256 O255 2.203 . S
Cd256 O258 2.411 . S
Cd256 O259 2.333 . S
Cd256 O260 2.352 . S
Cd256 O264 2.277 . S
Cd256 O265 2.356 . S
C257 O262 1.209 . S
C257 O264 1.226 . S
O258 Cd254 2.273 . S
O258 Cd256 2.411 . S
O258 C261 1.320 . S
O259 Cd256 2.333 . S
O259 C261 1.214 . S
O260 Cd256 2.352 . S
O260 C263 1.258 . S
C261 O258 1.320 . S
C261 O259 1.214 . S
O262 Cd254 2.277 . S
O262 C257 1.209 . S
C263 O260 1.258 . S
C263 O265 1.282 . S
O264 Cd256 2.277 . S
O264 C257 1.226 . S
O265 Cd256 2.356 . S
O265 C263 1.282 . S
C266 O267 1.306 . S
C266 O269 1.160 . S
O267 C266 1.306 . S
O267 Cd268 2.228 1_545 S
Cd268 O267 2.228 1_565 S
Cd268 O272 2.273 . S
Cd268 O276 2.277 . S
O269 C266 1.160 . S
O269 Cd270 2.203 . S
Cd270 O269 2.203 . S
Cd270 O272 2.411 1_545 S
Cd270 O273 2.333 1_545 S
Cd270 O274 2.352 . S
Cd270 O278 2.277 1_545 S
Cd270 O279 2.356 . S
C271 O276 1.209 . S
C271 O278 1.226 . S
O272 Cd268 2.273 . S
O272 Cd270 2.411 1_565 S
O272 C275 1.320 . S
O273 Cd270 2.333 1_565 S
O273 C275 1.214 . S
O274 Cd270 2.352 . S
O274 C277 1.258 . S
C275 O272 1.320 . S
C275 O273 1.214 . S
O276 Cd268 2.277 . S
O276 C271 1.209 . S
C277 O274 1.258 . S
C277 O279 1.282 . S
O278 Cd270 2.277 1_565 S
O278 C271 1.226 . S
O279 Cd270 2.356 . S
O279 C277 1.282 . S
C280 O281 1.306 . S
C280 O283 1.160 . S
O281 C280 1.306 . S
O281 Cd282 2.228 1_554 S
Cd282 O281 2.228 1_556 S
Cd282 O286 2.273 . S
Cd282 O290 2.277 . S
O283 C280 1.160 . S
O283 Cd284 2.203 . S
Cd284 O283 2.203 . S
Cd284 O286 2.411 1_554 S
Cd284 O287 2.333 1_554 S
Cd284 O288 2.352 . S
Cd284 O292 2.277 1_554 S
Cd284 O293 2.356 . S
C285 O290 1.209 . S
C285 O292 1.226 . S
O286 Cd282 2.273 . S
O286 Cd284 2.411 1_556 S
O286 C289 1.320 . S
O287 Cd284 2.333 1_556 S
O287 C289 1.214 . S
O288 Cd284 2.352 . S
O288 C291 1.258 . S
C289 O286 1.320 . S
C289 O287 1.214 . S
O290 Cd282 2.277 . S
O290 C285 1.209 . S
C291 O288 1.258 . S
C291 O293 1.282 . S
O292 Cd284 2.277 1_556 S
O292 C285 1.226 . S
O293 Cd284 2.356 . S
O293 C291 1.282 . S
C294 O295 1.306 . S
C294 O297 1.160 . S
O295 C294 1.306 . S
O295 Cd296 2.228 . S
Cd296 O295 2.228 . S
Cd296 O300 2.273 . S
Cd296 O304 2.277 . S
O297 C294 1.160 . S
O297 Cd298 2.203 . S
Cd298 O297 2.203 . S
Cd298 O300 2.411 . S
Cd298 O301 2.333 . S
Cd298 O302 2.352 . S
Cd298 O306 2.277 . S
Cd298 O307 2.356 . S
C299 O304 1.209 . S
C299 O306 1.226 . S
O300 Cd296 2.273 . S
O300 Cd298 2.411 . S
O300 C303 1.320 . S
O301 Cd298 2.333 . S
O301 C303 1.214 . S
O302 Cd298 2.352 . S
O302 C305 1.258 . S
C303 O300 1.320 . S
C303 O301 1.214 . S
O304 Cd296 2.277 . S
O304 C299 1.209 . S
C305 O302 1.258 . S
C305 O307 1.282 . S
O306 Cd298 2.277 . S
O306 C299 1.226 . S
O307 Cd298 2.356 . S
O307 C305 1.282 . S
C308 O309 1.306 . S
C308 O311 1.160 . S
O309 C308 1.306 . S
O309 Cd310 2.228 . S
Cd310 O309 2.228 . S
Cd310 O314 2.273 . S
Cd310 O318 2.277 . S
O311 C308 1.160 . S
O311 Cd312 2.203 . S
Cd312 O311 2.203 . S
Cd312 O314 2.411 . S
Cd312 O315 2.333 . S
Cd312 O316 2.352 . S
Cd312 O320 2.277 . S
Cd312 O321 2.356 . S
C313 O318 1.209 . S
C313 O320 1.226 . S
O314 Cd310 2.273 . S
O314 Cd312 2.411 . S
O314 C317 1.320 . S
O315 Cd312 2.333 . S
O315 C317 1.214 . S
O316 Cd312 2.352 . S
O316 C319 1.258 . S
C317 O314 1.320 . S
C317 O315 1.214 . S
O318 Cd310 2.277 . S
O318 C313 1.209 . S
C319 O316 1.258 . S
C319 O321 1.282 . S
O320 Cd312 2.277 . S
O320 C313 1.226 . S
O321 Cd312 2.356 . S
O321 C319 1.282 . S
C322 O323 1.306 . S
C322 O325 1.160 . S
O323 C322 1.306 . S
O323 Cd324 2.228 . S
Cd324 O323 2.228 . S
Cd324 O328 2.273 . S
Cd324 O332 2.277 . S
O325 C322 1.160 . S
O325 Cd326 2.203 . S
Cd326 O325 2.203 . S
Cd326 O328 2.411 . S
Cd326 O329 2.333 . S
Cd326 O330 2.352 . S
Cd326 O334 2.277 . S
Cd326 O335 2.356 . S
C327 O332 1.209 . S
C327 O334 1.226 . S
O328 Cd324 2.273 . S
O328 Cd326 2.411 . S
O328 C331 1.320 . S
O329 Cd326 2.333 . S
O329 C331 1.214 . S
O330 Cd326 2.352 . S
O330 C333 1.258 . S
C331 O328 1.320 . S
C331 O329 1.214 . S
O332 Cd324 2.277 . S
O332 C327 1.209 . S
C333 O330 1.258 . S
C333 O335 1.282 . S
O334 Cd326 2.277 . S
O334 C327 1.226 . S
O335 Cd326 2.356 . S
O335 C333 1.282 . S
Sc336 O339 2.025 . S
Sc336 O346 2.105 . S
Sc336 O349 2.105 . S
Sc336 O352 2.105 . S
Sc336 O355 2.105 . S
Sc337 O339 2.025 . S
Sc337 O347 2.105 . S
Sc337 O351 2.105 . S
Sc337 O353 2.105 . S
Sc337 O357 2.105 . S
Sc338 O339 2.025 . S
Sc338 O348 2.105 . S
Sc338 O350 2.105 . S
Sc338 O354 2.105 . S
Sc338 O356 2.105 . S
O339 Sc336 2.025 . S
O339 Sc337 2.025 . S
O339 Sc338 2.025 . S
C340 O346 1.268 . S
C340 O356 1.268 . S
C341 O347 1.268 . S
C341 O355 1.268 . S
C342 O348 1.268 . S
C342 O357 1.268 . S
C343 O349 1.268 . S
C343 O353 1.268 . S
C344 O350 1.268 . S
C344 O352 1.268 . S
C345 O351 1.268 . S
C345 O354 1.268 . S
O346 Sc336 2.105 . S
O346 C340 1.268 . S
O347 Sc337 2.105 . S
O347 C341 1.268 . S
O348 Sc338 2.105 . S
O348 C342 1.268 . S
O349 Sc336 2.105 . S
O349 C343 1.268 . S
O350 Sc338 2.105 . S
O350 C344 1.268 . S
O351 Sc337 2.105 . S
O351 C345 1.268 . S
O352 Sc336 2.105 . S
O352 C344 1.268 . S
O353 Sc337 2.105 . S
O353 C343 1.268 . S
O354 Sc338 2.105 . S
O354 C345 1.268 . S
O355 Sc336 2.105 . S
O355 C341 1.268 . S
O356 Sc338 2.105 . S
O356 C340 1.268 . S
O357 Sc337 2.105 . S
O357 C342 1.268 . S
Sc358 O361 2.025 . S
Sc358 O368 2.105 . S
Sc358 O371 2.105 . S
Sc358 O374 2.105 . S
Sc358 O377 2.105 . S
Sc359 O361 2.025 . S
Sc359 O369 2.105 . S
Sc359 O373 2.105 . S
Sc359 O375 2.105 . S
Sc359 O379 2.105 . S
Sc360 O361 2.025 . S
Sc360 O370 2.105 . S
Sc360 O372 2.105 . S
Sc360 O376 2.105 . S
Sc360 O378 2.105 . S
O361 Sc358 2.025 . S
O361 Sc359 2.025 . S
O361 Sc360 2.025 . S
C362 O368 1.268 . S
C362 O378 1.268 . S
C363 O369 1.268 . S
C363 O377 1.268 . S
C364 O370 1.268 . S
C364 O379 1.268 . S
C365 O371 1.268 . S
C365 O375 1.268 . S
C366 O372 1.268 . S
C366 O374 1.268 . S
C367 O373 1.268 . S
C367 O376 1.268 . S
O368 Sc358 2.105 . S
O368 C362 1.268 . S
O369 Sc359 2.105 . S
O369 C363 1.268 . S
O370 Sc360 2.105 . S
O370 C364 1.268 . S
O371 Sc358 2.105 . S
O371 C365 1.268 . S
O372 Sc360 2.105 . S
O372 C366 1.268 . S
O373 Sc359 2.105 . S
O373 C367 1.268 . S
O374 Sc358 2.105 . S
O374 C366 1.268 . S
O375 Sc359 2.105 . S
O375 C365 1.268 . S
O376 Sc360 2.105 . S
O376 C367 1.268 . S
O377 Sc358 2.105 . S
O377 C363 1.268 . S
O378 Sc360 2.105 . S
O378 C362 1.268 . S
O379 Sc359 2.105 . S
O379 C364 1.268 . S
Sc380 O383 2.025 . S
Sc380 O390 2.105 . S
Sc380 O393 2.105 . S
Sc380 O396 2.105 . S
Sc380 O399 2.105 . S
Sc381 O383 2.025 . S
Sc381 O391 2.105 . S
Sc381 O395 2.105 . S
Sc381 O397 2.105 . S
Sc381 O401 2.105 . S
Sc382 O383 2.025 . S
Sc382 O392 2.105 . S
Sc382 O394 2.105 . S
Sc382 O398 2.105 . S
Sc382 O400 2.105 . S
O383 Sc380 2.025 . S
O383 Sc381 2.025 . S
O383 Sc382 2.025 . S
C384 O390 1.268 . S
C384 O400 1.268 . S
C385 O391 1.268 . S
C385 O399 1.268 . S
C386 O392 1.268 . S
C386 O401 1.268 . S
C387 O393 1.268 . S
C387 O397 1.268 . S
C388 O394 1.268 . S
C388 O396 1.268 . S
C389 O395 1.268 . S
C389 O398 1.268 . S
O390 Sc380 2.105 . S
O390 C384 1.268 . S
O391 Sc381 2.105 . S
O391 C385 1.268 . S
O392 Sc382 2.105 . S
O392 C386 1.268 . S
O393 Sc380 2.105 . S
O393 C387 1.268 . S
O394 Sc382 2.105 . S
O394 C388 1.268 . S
O395 Sc381 2.105 . S
O395 C389 1.268 . S
O396 Sc380 2.105 . S
O396 C388 1.268 . S
O397 Sc381 2.105 . S
O397 C387 1.268 . S
O398 Sc382 2.105 . S
O398 C389 1.268 . S
O399 Sc380 2.105 . S
O399 C385 1.268 . S
O400 Sc382 2.105 . S
O400 C384 1.268 . S
O401 Sc381 2.105 . S
O401 C386 1.268 . S
Sc402 O405 2.025 . S
Sc402 O412 2.105 . S
Sc402 O415 2.105 . S
Sc402 O418 2.105 . S
Sc402 O421 2.105 . S
Sc403 O405 2.025 . S
Sc403 O413 2.105 . S
Sc403 O417 2.105 . S
Sc403 O419 2.105 . S
Sc403 O423 2.105 . S
Sc404 O405 2.025 . S
Sc404 O414 2.105 . S
Sc404 O416 2.105 . S
Sc404 O420 2.105 . S
Sc404 O422 2.105 . S
O405 Sc402 2.025 . S
O405 Sc403 2.025 . S
O405 Sc404 2.025 . S
C406 O412 1.268 . S
C406 O422 1.268 . S
C407 O413 1.268 . S
C407 O421 1.268 . S
C408 O414 1.268 . S
C408 O423 1.268 . S
C409 O415 1.268 . S
C409 O419 1.268 . S
C410 O416 1.268 . S
C410 O418 1.268 . S
C411 O417 1.268 . S
C411 O420 1.268 . S
O412 Sc402 2.105 . S
O412 C406 1.268 . S
O413 Sc403 2.105 . S
O413 C407 1.268 . S
O414 Sc404 2.105 . S
O414 C408 1.268 . S
O415 Sc402 2.105 . S
O415 C409 1.268 . S
O416 Sc404 2.105 . S
O416 C410 1.268 . S
O417 Sc403 2.105 . S
O417 C411 1.268 . S
O418 Sc402 2.105 . S
O418 C410 1.268 . S
O419 Sc403 2.105 . S
O419 C409 1.268 . S
O420 Sc404 2.105 . S
O420 C411 1.268 . S
O421 Sc402 2.105 . S
O421 C407 1.268 . S
O422 Sc404 2.105 . S
O422 C406 1.268 . S
O423 Sc403 2.105 . S
O423 C408 1.268 . S
Sc424 O427 2.025 . S
Sc424 O434 2.105 . S
Sc424 O437 2.105 . S
Sc424 O440 2.105 . S
Sc424 O443 2.105 . S
Sc425 O427 2.025 . S
Sc425 O435 2.105 . S
Sc425 O439 2.105 . S
Sc425 O441 2.105 . S
Sc425 O445 2.105 . S
Sc426 O427 2.025 . S
Sc426 O436 2.105 . S
Sc426 O438 2.105 . S
Sc426 O442 2.105 . S
Sc426 O444 2.105 . S
O427 Sc424 2.025 . S
O427 Sc425 2.025 . S
O427 Sc426 2.025 . S
C428 O434 1.268 . S
C428 O444 1.268 . S
C429 O435 1.268 . S
C429 O443 1.268 . S
C430 O436 1.268 . S
C430 O445 1.268 . S
C431 O437 1.268 . S
C431 O441 1.268 . S
C432 O438 1.268 . S
C432 O440 1.268 . S
C433 O439 1.268 . S
C433 O442 1.268 . S
O434 Sc424 2.105 . S
O434 C428 1.268 . S
O435 Sc425 2.105 . S
O435 C429 1.268 . S
O436 Sc426 2.105 . S
O436 C430 1.268 . S
O437 Sc424 2.105 . S
O437 C431 1.268 . S
O438 Sc426 2.105 . S
O438 C432 1.268 . S
O439 Sc425 2.105 . S
O439 C433 1.268 . S
O440 Sc424 2.105 . S
O440 C432 1.268 . S
O441 Sc425 2.105 . S
O441 C431 1.268 . S
O442 Sc426 2.105 . S
O442 C433 1.268 . S
O443 Sc424 2.105 . S
O443 C429 1.268 . S
O444 Sc426 2.105 . S
O444 C428 1.268 . S
O445 Sc425 2.105 . S
O445 C430 1.268 . S
Sc446 O449 2.025 . S
Sc446 O456 2.105 . S
Sc446 O459 2.105 . S
Sc446 O462 2.105 . S
Sc446 O465 2.105 . S
Sc447 O449 2.025 . S
Sc447 O457 2.105 . S
Sc447 O461 2.105 . S
Sc447 O463 2.105 . S
Sc447 O467 2.105 . S
Sc448 O449 2.025 . S
Sc448 O458 2.105 . S
Sc448 O460 2.105 . S
Sc448 O464 2.105 . S
Sc448 O466 2.105 . S
O449 Sc446 2.025 . S
O449 Sc447 2.025 . S
O449 Sc448 2.025 . S
C450 O456 1.268 . S
C450 O466 1.268 . S
C451 O457 1.268 . S
C451 O465 1.268 . S
C452 O458 1.268 . S
C452 O467 1.268 . S
C453 O459 1.268 . S
C453 O463 1.268 . S
C454 O460 1.268 . S
C454 O462 1.268 . S
C455 O461 1.268 . S
C455 O464 1.268 . S
O456 Sc446 2.105 . S
O456 C450 1.268 . S
O457 Sc447 2.105 . S
O457 C451 1.268 . S
O458 Sc448 2.105 . S
O458 C452 1.268 . S
O459 Sc446 2.105 . S
O459 C453 1.268 . S
O460 Sc448 2.105 . S
O460 C454 1.268 . S
O461 Sc447 2.105 . S
O461 C455 1.268 . S
O462 Sc446 2.105 . S
O462 C454 1.268 . S
O463 Sc447 2.105 . S
O463 C453 1.268 . S
O464 Sc448 2.105 . S
O464 C455 1.268 . S
O465 Sc446 2.105 . S
O465 C451 1.268 . S
O466 Sc448 2.105 . S
O466 C450 1.268 . S
O467 Sc447 2.105 . S
O467 C452 1.268 . S
Sc468 O471 2.025 . S
Sc468 O478 2.105 . S
Sc468 O481 2.105 . S
Sc468 O484 2.105 . S
Sc468 O487 2.105 . S
Sc469 O471 2.025 . S
Sc469 O479 2.105 . S
Sc469 O483 2.105 . S
Sc469 O485 2.105 . S
Sc469 O489 2.105 . S
Sc470 O471 2.025 . S
Sc470 O480 2.105 . S
Sc470 O482 2.105 . S
Sc470 O486 2.105 . S
Sc470 O488 2.105 . S
O471 Sc468 2.025 . S
O471 Sc469 2.025 . S
O471 Sc470 2.025 . S
C472 O478 1.268 . S
C472 O488 1.268 . S
C473 O479 1.268 . S
C473 O487 1.268 . S
C474 O480 1.268 . S
C474 O489 1.268 . S
C475 O481 1.268 . S
C475 O485 1.268 . S
C476 O482 1.268 . S
C476 O484 1.268 . S
C477 O483 1.268 . S
C477 O486 1.268 . S
O478 Sc468 2.105 . S
O478 C472 1.268 . S
O479 Sc469 2.105 . S
O479 C473 1.268 . S
O480 Sc470 2.105 . S
O480 C474 1.268 . S
O481 Sc468 2.105 . S
O481 C475 1.268 . S
O482 Sc470 2.105 . S
O482 C476 1.268 . S
O483 Sc469 2.105 . S
O483 C477 1.268 . S
O484 Sc468 2.105 . S
O484 C476 1.268 . S
O485 Sc469 2.105 . S
O485 C475 1.268 . S
O486 Sc470 2.105 . S
O486 C477 1.268 . S
O487 Sc468 2.105 . S
O487 C473 1.268 . S
O488 Sc470 2.105 . S
O488 C472 1.268 . S
O489 Sc469 2.105 . S
O489 C474 1.268 . S
Sc490 O493 2.025 . S
Sc490 O500 2.105 . S
Sc490 O503 2.105 . S
Sc490 O506 2.105 . S
Sc490 O509 2.105 . S
Sc491 O493 2.025 . S
Sc491 O501 2.105 . S
Sc491 O505 2.105 . S
Sc491 O507 2.105 . S
Sc491 O511 2.105 . S
Sc492 O493 2.025 . S
Sc492 O502 2.105 . S
Sc492 O504 2.105 . S
Sc492 O508 2.105 . S
Sc492 O510 2.105 . S
O493 Sc490 2.025 . S
O493 Sc491 2.025 . S
O493 Sc492 2.025 . S
C494 O500 1.268 . S
C494 O510 1.268 . S
C495 O501 1.268 . S
C495 O509 1.268 . S
C496 O502 1.268 . S
C496 O511 1.268 . S
C497 O503 1.268 . S
C497 O507 1.268 . S
C498 O504 1.268 . S
C498 O506 1.268 . S
C499 O505 1.268 . S
C499 O508 1.268 . S
O500 Sc490 2.105 . S
O500 C494 1.268 . S
O501 Sc491 2.105 . S
O501 C495 1.268 . S
O502 Sc492 2.105 . S
O502 C496 1.268 . S
O503 Sc490 2.105 . S
O503 C497 1.268 . S
O504 Sc492 2.105 . S
O504 C498 1.268 . S
O505 Sc491 2.105 . S
O505 C499 1.268 . S
O506 Sc490 2.105 . S
O506 C498 1.268 . S
O507 Sc491 2.105 . S
O507 C497 1.268 . S
O508 Sc492 2.105 . S
O508 C499 1.268 . S
O509 Sc490 2.105 . S
O509 C495 1.268 . S
O510 Sc492 2.105 . S
O510 C494 1.268 . S
O511 Sc491 2.105 . S
O511 C496 1.268 . S
Sc512 O515 2.025 . S
Sc512 O522 2.105 . S
Sc512 O525 2.105 . S
Sc512 O528 2.105 . S
Sc512 O531 2.105 . S
Sc513 O515 2.025 . S
Sc513 O523 2.105 . S
Sc513 O527 2.105 . S
Sc513 O529 2.105 . S
Sc513 O533 2.105 . S
Sc514 O515 2.025 . S
Sc514 O524 2.105 . S
Sc514 O526 2.105 . S
Sc514 O530 2.105 . S
Sc514 O532 2.105 . S
O515 Sc512 2.025 . S
O515 Sc513 2.025 . S
O515 Sc514 2.025 . S
C516 O522 1.268 . S
C516 O532 1.268 . S
C517 O523 1.268 . S
C517 O531 1.268 . S
C518 O524 1.268 . S
C518 O533 1.268 . S
C519 O525 1.268 . S
C519 O529 1.268 . S
C520 O526 1.268 . S
C520 O528 1.268 . S
C521 O527 1.268 . S
C521 O530 1.268 . S
O522 Sc512 2.105 . S
O522 C516 1.268 . S
O523 Sc513 2.105 . S
O523 C517 1.268 . S
O524 Sc514 2.105 . S
O524 C518 1.268 . S
O525 Sc512 2.105 . S
O525 C519 1.268 . S
O526 Sc514 2.105 . S
O526 C520 1.268 . S
O527 Sc513 2.105 . S
O527 C521 1.268 . S
O528 Sc512 2.105 . S
O528 C520 1.268 . S
O529 Sc513 2.105 . S
O529 C519 1.268 . S
O530 Sc514 2.105 . S
O530 C521 1.268 . S
O531 Sc512 2.105 . S
O531 C517 1.268 . S
O532 Sc514 2.105 . S
O532 C516 1.268 . S
O533 Sc513 2.105 . S
O533 C518 1.268 . S
Sc534 O537 2.025 . S
Sc534 O544 2.105 . S
Sc534 O547 2.105 . S
Sc534 O550 2.105 . S
Sc534 O553 2.105 . S
Sc535 O537 2.025 . S
Sc535 O545 2.105 . S
Sc535 O549 2.105 . S
Sc535 O551 2.105 . S
Sc535 O555 2.105 . S
Sc536 O537 2.025 . S
Sc536 O546 2.105 . S
Sc536 O548 2.105 . S
Sc536 O552 2.105 . S
Sc536 O554 2.105 . S
O537 Sc534 2.025 . S
O537 Sc535 2.025 . S
O537 Sc536 2.025 . S
C538 O544 1.268 . S
C538 O554 1.268 . S
C539 O545 1.268 . S
C539 O553 1.268 . S
C540 O546 1.268 . S
C540 O555 1.268 . S
C541 O547 1.268 . S
C541 O551 1.268 . S
C542 O548 1.268 . S
C542 O550 1.268 . S
C543 O549 1.268 . S
C543 O552 1.268 . S
O544 Sc534 2.105 . S
O544 C538 1.268 . S
O545 Sc535 2.105 . S
O545 C539 1.268 . S
O546 Sc536 2.105 . S
O546 C540 1.268 . S
O547 Sc534 2.105 . S
O547 C541 1.268 . S
O548 Sc536 2.105 . S
O548 C542 1.268 . S
O549 Sc535 2.105 . S
O549 C543 1.268 . S
O550 Sc534 2.105 . S
O550 C542 1.268 . S
O551 Sc535 2.105 . S
O551 C541 1.268 . S
O552 Sc536 2.105 . S
O552 C543 1.268 . S
O553 Sc534 2.105 . S
O553 C539 1.268 . S
O554 Sc536 2.105 . S
O554 C538 1.268 . S
O555 Sc535 2.105 . S
O555 C540 1.268 . S
Sc556 O559 2.025 . S
Sc556 O566 2.105 . S
Sc556 O569 2.105 . S
Sc556 O572 2.105 . S
Sc556 O575 2.105 . S
Sc557 O559 2.025 . S
Sc557 O567 2.105 . S
Sc557 O571 2.105 . S
Sc557 O573 2.105 . S
Sc557 O577 2.105 . S
Sc558 O559 2.025 . S
Sc558 O568 2.105 . S
Sc558 O570 2.105 . S
Sc558 O574 2.105 . S
Sc558 O576 2.105 . S
O559 Sc556 2.025 . S
O559 Sc557 2.025 . S
O559 Sc558 2.025 . S
C560 O566 1.268 . S
C560 O576 1.268 . S
C561 O567 1.268 . S
C561 O575 1.268 . S
C562 O568 1.268 . S
C562 O577 1.268 . S
C563 O569 1.268 . S
C563 O573 1.268 . S
C564 O570 1.268 . S
C564 O572 1.268 . S
C565 O571 1.268 . S
C565 O574 1.268 . S
O566 Sc556 2.105 . S
O566 C560 1.268 . S
O567 Sc557 2.105 . S
O567 C561 1.268 . S
O568 Sc558 2.105 . S
O568 C562 1.268 . S
O569 Sc556 2.105 . S
O569 C563 1.268 . S
O570 Sc558 2.105 . S
O570 C564 1.268 . S
O571 Sc557 2.105 . S
O571 C565 1.268 . S
O572 Sc556 2.105 . S
O572 C564 1.268 . S
O573 Sc557 2.105 . S
O573 C563 1.268 . S
O574 Sc558 2.105 . S
O574 C565 1.268 . S
O575 Sc556 2.105 . S
O575 C561 1.268 . S
O576 Sc558 2.105 . S
O576 C560 1.268 . S
O577 Sc557 2.105 . S
O577 C562 1.268 . S
Sc578 O581 2.025 . S
Sc578 O588 2.105 . S
Sc578 O591 2.105 . S
Sc578 O594 2.105 . S
Sc578 O597 2.105 . S
Sc579 O581 2.025 . S
Sc579 O589 2.105 . S
Sc579 O593 2.105 . S
Sc579 O595 2.105 . S
Sc579 O599 2.105 . S
Sc580 O581 2.025 . S
Sc580 O590 2.105 . S
Sc580 O592 2.105 . S
Sc580 O596 2.105 . S
Sc580 O598 2.105 . S
O581 Sc578 2.025 . S
O581 Sc579 2.025 . S
O581 Sc580 2.025 . S
C582 O588 1.268 . S
C582 O598 1.268 . S
C583 O589 1.268 . S
C583 O597 1.268 . S
C584 O590 1.268 . S
C584 O599 1.268 . S
C585 O591 1.268 . S
C585 O595 1.268 . S
C586 O592 1.268 . S
C586 O594 1.268 . S
C587 O593 1.268 . S
C587 O596 1.268 . S
O588 Sc578 2.105 . S
O588 C582 1.268 . S
O589 Sc579 2.105 . S
O589 C583 1.268 . S
O590 Sc580 2.105 . S
O590 C584 1.268 . S
O591 Sc578 2.105 . S
O591 C585 1.268 . S
O592 Sc580 2.105 . S
O592 C586 1.268 . S
O593 Sc579 2.105 . S
O593 C587 1.268 . S
O594 Sc578 2.105 . S
O594 C586 1.268 . S
O595 Sc579 2.105 . S
O595 C585 1.268 . S
O596 Sc580 2.105 . S
O596 C587 1.268 . S
O597 Sc578 2.105 . S
O597 C583 1.268 . S
O598 Sc580 2.105 . S
O598 C582 1.268 . S
O599 Sc579 2.105 . S
O599 C584 1.268 . S
Sc600 O603 2.025 . S
Sc600 O610 2.105 . S
Sc600 O613 2.105 . S
Sc600 O616 2.105 . S
Sc600 O619 2.105 . S
Sc601 O603 2.025 . S
Sc601 O611 2.105 . S
Sc601 O615 2.105 . S
Sc601 O617 2.105 . S
Sc601 O621 2.105 . S
Sc602 O603 2.025 . S
Sc602 O612 2.105 . S
Sc602 O614 2.105 . S
Sc602 O618 2.105 . S
Sc602 O620 2.105 . S
O603 Sc600 2.025 . S
O603 Sc601 2.025 . S
O603 Sc602 2.025 . S
C604 O610 1.268 . S
C604 O620 1.268 . S
C605 O611 1.268 . S
C605 O619 1.268 . S
C606 O612 1.268 . S
C606 O621 1.268 . S
C607 O613 1.268 . S
C607 O617 1.268 . S
C608 O614 1.268 . S
C608 O616 1.268 . S
C609 O615 1.268 . S
C609 O618 1.268 . S
O610 Sc600 2.105 . S
O610 C604 1.268 . S
O611 Sc601 2.105 . S
O611 C605 1.268 . S
O612 Sc602 2.105 . S
O612 C606 1.268 . S
O613 Sc600 2.105 . S
O613 C607 1.268 . S
O614 Sc602 2.105 . S
O614 C608 1.268 . S
O615 Sc601 2.105 . S
O615 C609 1.268 . S
O616 Sc600 2.105 . S
O616 C608 1.268 . S
O617 Sc601 2.105 . S
O617 C607 1.268 . S
O618 Sc602 2.105 . S
O618 C609 1.268 . S
O619 Sc600 2.105 . S
O619 C605 1.268 . S
O620 Sc602 2.105 . S
O620 C604 1.268 . S
O621 Sc601 2.105 . S
O621 C606 1.268 . S
Sc622 O625 2.025 . S
Sc622 O632 2.105 . S
Sc622 O635 2.105 . S
Sc622 O638 2.105 . S
Sc622 O641 2.105 . S
Sc623 O625 2.025 . S
Sc623 O633 2.105 . S
Sc623 O637 2.105 . S
Sc623 O639 2.105 . S
Sc623 O643 2.105 . S
Sc624 O625 2.025 . S
Sc624 O634 2.105 . S
Sc624 O636 2.105 . S
Sc624 O640 2.105 . S
Sc624 O642 2.105 . S
O625 Sc622 2.025 . S
O625 Sc623 2.025 . S
O625 Sc624 2.025 . S
C626 O632 1.268 . S
C626 O642 1.268 . S
C627 O633 1.268 . S
C627 O641 1.268 . S
C628 O634 1.268 . S
C628 O643 1.268 . S
C629 O635 1.268 . S
C629 O639 1.268 . S
C630 O636 1.268 . S
C630 O638 1.268 . S
C631 O637 1.268 . S
C631 O640 1.268 . S
O632 Sc622 2.105 . S
O632 C626 1.268 . S
O633 Sc623 2.105 . S
O633 C627 1.268 . S
O634 Sc624 2.105 . S
O634 C628 1.268 . S
O635 Sc622 2.105 . S
O635 C629 1.268 . S
O636 Sc624 2.105 . S
O636 C630 1.268 . S
O637 Sc623 2.105 . S
O637 C631 1.268 . S
O638 Sc622 2.105 . S
O638 C630 1.268 . S
O639 Sc623 2.105 . S
O639 C629 1.268 . S
O640 Sc624 2.105 . S
O640 C631 1.268 . S
O641 Sc622 2.105 . S
O641 C627 1.268 . S
O642 Sc624 2.105 . S
O642 C626 1.268 . S
O643 Sc623 2.105 . S
O643 C628 1.268 . S
Sc644 O647 2.025 . S
Sc644 O654 2.105 . S
Sc644 O657 2.105 . S
Sc644 O660 2.105 . S
Sc644 O663 2.105 . S
Sc645 O647 2.025 . S
Sc645 O655 2.105 . S
Sc645 O659 2.105 . S
Sc645 O661 2.105 . S
Sc645 O665 2.105 . S
Sc646 O647 2.025 . S
Sc646 O656 2.105 . S
Sc646 O658 2.105 . S
Sc646 O662 2.105 . S
Sc646 O664 2.105 . S
O647 Sc644 2.025 . S
O647 Sc645 2.025 . S
O647 Sc646 2.025 . S
C648 O654 1.268 . S
C648 O664 1.268 . S
C649 O655 1.268 . S
C649 O663 1.268 . S
C650 O656 1.268 . S
C650 O665 1.268 . S
C651 O657 1.268 . S
C651 O661 1.268 . S
C652 O658 1.268 . S
C652 O660 1.268 . S
C653 O659 1.268 . S
C653 O662 1.268 . S
O654 Sc644 2.105 . S
O654 C648 1.268 . S
O655 Sc645 2.105 . S
O655 C649 1.268 . S
O656 Sc646 2.105 . S
O656 C650 1.268 . S
O657 Sc644 2.105 . S
O657 C651 1.268 . S
O658 Sc646 2.105 . S
O658 C652 1.268 . S
O659 Sc645 2.105 . S
O659 C653 1.268 . S
O660 Sc644 2.105 . S
O660 C652 1.268 . S
O661 Sc645 2.105 . S
O661 C651 1.268 . S
O662 Sc646 2.105 . S
O662 C653 1.268 . S
O663 Sc644 2.105 . S
O663 C649 1.268 . S
O664 Sc646 2.105 . S
O664 C648 1.268 . S
O665 Sc645 2.105 . S
O665 C650 1.268 . S
Sc666 O669 2.025 . S
Sc666 O676 2.105 . S
Sc666 O679 2.105 . S
Sc666 O682 2.105 . S
Sc666 O685 2.105 . S
Sc667 O669 2.025 . S
Sc667 O677 2.105 . S
Sc667 O681 2.105 . S
Sc667 O683 2.105 . S
Sc667 O687 2.105 . S
Sc668 O669 2.025 . S
Sc668 O678 2.105 . S
Sc668 O680 2.105 . S
Sc668 O684 2.105 . S
Sc668 O686 2.105 . S
O669 Sc666 2.025 . S
O669 Sc667 2.025 . S
O669 Sc668 2.025 . S
C670 O676 1.268 . S
C670 O686 1.268 . S
C671 O677 1.268 . S
C671 O685 1.268 . S
C672 O678 1.268 . S
C672 O687 1.268 . S
C673 O679 1.268 . S
C673 O683 1.268 . S
C674 O680 1.268 . S
C674 O682 1.268 . S
C675 O681 1.268 . S
C675 O684 1.268 . S
O676 Sc666 2.105 . S
O676 C670 1.268 . S
O677 Sc667 2.105 . S
O677 C671 1.268 . S
O678 Sc668 2.105 . S
O678 C672 1.268 . S
O679 Sc666 2.105 . S
O679 C673 1.268 . S
O680 Sc668 2.105 . S
O680 C674 1.268 . S
O681 Sc667 2.105 . S
O681 C675 1.268 . S
O682 Sc666 2.105 . S
O682 C674 1.268 . S
O683 Sc667 2.105 . S
O683 C673 1.268 . S
O684 Sc668 2.105 . S
O684 C675 1.268 . S
O685 Sc666 2.105 . S
O685 C671 1.268 . S
O686 Sc668 2.105 . S
O686 C670 1.268 . S
O687 Sc667 2.105 . S
O687 C672 1.268 . S
C688 C689 1.391 . S
C688 C690 1.394 . S
C688 H704 0.931 . S
C689 C688 1.391 . S
C689 C693 1.376 . S
C690 C688 1.394 . S
C690 C691 1.369 . S
C690 C694 1.531 . S
C691 C690 1.369 . S
C691 C692 1.410 . S
C691 C699 1.503 . S
C692 C691 1.410 . S
C692 C693 1.392 . S
C692 C695 1.511 . S
C693 C689 1.376 . S
C693 C692 1.392 . S
C693 H705 0.929 . S
C694 C690 1.531 . S
C694 H706 0.960 . S
C694 H707 0.962 . S
C694 H708 0.960 . S
C695 C692 1.511 . S
C695 H709 0.961 . S
C695 H710 0.961 . S
C695 H711 0.961 . S
C696 C697 1.370 . S
C696 C698 1.363 . S
C696 H712 0.931 . S
C697 C696 1.370 . S
C697 C701 1.408 . S
C698 C696 1.363 . S
C698 C699 1.370 . S
C698 C702 1.524 . S
C699 C691 1.503 . S
C699 C698 1.370 . S
C699 C700 1.403 . S
C700 C699 1.403 . S
C700 C701 1.404 . S
C700 C703 1.539 . S
C701 C697 1.408 . S
C701 C700 1.404 . S
C701 H713 0.930 . S
C702 C698 1.524 . S
C702 H714 0.956 . S
C702 H715 0.961 . S
C702 H716 0.961 . S
C703 C700 1.539 . S
C703 H717 0.958 . S
C703 H718 0.961 . S
C703 H719 0.960 . S
H704 C688 0.931 . S
H705 C693 0.929 . S
H706 C694 0.960 . S
H707 C694 0.962 . S
H708 C694 0.960 . S
H709 C695 0.961 . S
H710 C695 0.961 . S
H711 C695 0.961 . S
H712 C696 0.931 . S
H713 C701 0.930 . S
H714 C702 0.956 . S
H715 C702 0.961 . S
H716 C702 0.961 . S
H717 C703 0.958 . S
H718 C703 0.961 . S
H719 C703 0.960 . S
C720 C721 1.391 . S
C720 C722 1.394 . S
C720 H736 0.931 . S
C721 C720 1.391 . S
C721 C725 1.376 . S
C722 C720 1.394 . S
C722 C723 1.369 . S
C722 C726 1.531 . S
C723 C722 1.369 . S
C723 C724 1.410 . S
C723 C731 1.503 . S
C724 C723 1.410 . S
C724 C725 1.392 . S
C724 C727 1.511 . S
C725 C721 1.376 . S
C725 C724 1.392 . S
C725 H737 0.929 . S
C726 C722 1.531 . S
C726 H738 0.960 . S
C726 H739 0.962 . S
C726 H740 0.960 . S
C727 C724 1.511 . S
C727 H741 0.961 . S
C727 H742 0.961 . S
C727 H743 0.961 . S
C728 C729 1.370 . S
C728 C730 1.363 . S
C728 H744 0.931 . S
C729 C728 1.370 . S
C729 C733 1.408 . S
C730 C728 1.363 . S
C730 C731 1.370 . S
C730 C734 1.524 . S
C731 C723 1.503 . S
C731 C730 1.370 . S
C731 C732 1.403 . S
C732 C731 1.403 . S
C732 C733 1.404 . S
C732 C735 1.539 . S
C733 C729 1.408 . S
C733 C732 1.404 . S
C733 H745 0.930 . S
C734 C730 1.524 . S
C734 H746 0.956 . S
C734 H747 0.961 . S
C734 H748 0.961 . S
C735 C732 1.539 . S
C735 H749 0.958 . S
C735 H750 0.961 . S
C735 H751 0.960 . S
H736 C720 0.931 . S
H737 C725 0.929 . S
H738 C726 0.960 . S
H739 C726 0.962 . S
H740 C726 0.960 . S
H741 C727 0.961 . S
H742 C727 0.961 . S
H743 C727 0.961 . S
H744 C728 0.931 . S
H745 C733 0.930 . S
H746 C734 0.956 . S
H747 C734 0.961 . S
H748 C734 0.961 . S
H749 C735 0.958 . S
H750 C735 0.961 . S
H751 C735 0.960 . S
C752 C753 1.391 . S
C752 C754 1.394 . S
C752 H768 0.931 . S
C753 C752 1.391 . S
C753 C757 1.376 . S
C754 C752 1.394 . S
C754 C755 1.369 . S
C754 C758 1.531 . S
C755 C754 1.369 . S
C755 C756 1.410 . S
C755 C763 1.503 . S
C756 C755 1.410 . S
C756 C757 1.392 . S
C756 C759 1.511 . S
C757 C753 1.376 . S
C757 C756 1.392 . S
C757 H769 0.929 . S
C758 C754 1.531 . S
C758 H770 0.960 . S
C758 H771 0.962 . S
C758 H772 0.960 . S
C759 C756 1.511 . S
C759 H773 0.961 . S
C759 H774 0.961 . S
C759 H775 0.961 . S
C760 C761 1.370 . S
C760 C762 1.363 . S
C760 H776 0.931 . S
C761 C760 1.370 . S
C761 C765 1.408 . S
C762 C760 1.363 . S
C762 C763 1.370 . S
C762 C766 1.524 . S
C763 C755 1.503 . S
C763 C762 1.370 . S
C763 C764 1.403 . S
C764 C763 1.403 . S
C764 C765 1.404 . S
C764 C767 1.539 . S
C765 C761 1.408 . S
C765 C764 1.404 . S
C765 H777 0.930 . S
C766 C762 1.524 . S
C766 H778 0.956 . S
C766 H779 0.961 . S
C766 H780 0.961 . S
C767 C764 1.539 . S
C767 H781 0.958 . S
C767 H782 0.961 . S
C767 H783 0.960 . S
H768 C752 0.931 . S
H769 C757 0.929 . S
H770 C758 0.960 . S
H771 C758 0.962 . S
H772 C758 0.960 . S
H773 C759 0.961 . S
H774 C759 0.961 . S
H775 C759 0.961 . S
H776 C760 0.931 . S
H777 C765 0.930 . S
H778 C766 0.956 . S
H779 C766 0.961 . S
H780 C766 0.961 . S
H781 C767 0.958 . S
H782 C767 0.961 . S
H783 C767 0.960 . S
C784 C785 1.391 . S
C784 C786 1.394 . S
C784 H800 0.931 . S
C785 C784 1.391 . S
C785 C789 1.376 . S
C786 C784 1.394 . S
C786 C787 1.369 . S
C786 C790 1.531 1_554 S
C787 C786 1.369 . S
C787 C788 1.410 . S
C787 C795 1.503 . S
C788 C787 1.410 . S
C788 C789 1.392 . S
C788 C791 1.511 . S
C789 C785 1.376 . S
C789 C788 1.392 . S
C789 H801 0.929 . S
C790 C786 1.531 1_556 S
C790 H802 0.960 . S
C790 H803 0.962 . S
C790 H804 0.960 . S
C791 C788 1.511 . S
C791 H805 0.961 . S
C791 H806 0.961 . S
C791 H807 0.961 . S
C792 C793 1.370 . S
C792 C794 1.342 1_556 S
C792 H808 0.931 . S
C793 C792 1.370 . S
C793 C797 1.408 . S
C794 C792 1.342 1_554 S
C794 C795 1.375 . S
C794 C798 1.541 . S
C795 C787 1.503 . S
C795 C794 1.375 . S
C795 C796 1.403 1_554 S
C796 C795 1.403 1_556 S
C796 C797 1.404 . S
C796 C799 1.539 . S
C797 C793 1.408 . S
C797 C796 1.404 . S
C797 H809 0.930 . S
C798 C794 1.541 . S
C798 H810 0.956 . S
C798 H811 0.961 . S
C798 H812 0.961 . S
C799 C796 1.539 . S
C799 H813 0.958 . S
C799 H814 0.961 . S
C799 H815 0.960 1_556 S
H800 C784 0.931 . S
H801 C789 0.929 . S
H802 C790 0.960 . S
H803 C790 0.962 . S
H804 C790 0.960 . S
H805 C791 0.961 . S
H806 C791 0.961 . S
H807 C791 0.961 . S
H808 C792 0.931 . S
H809 C797 0.930 . S
H810 C798 0.956 . S
H811 C798 0.961 . S
H812 C798 0.961 . S
H813 C799 0.958 . S
H814 C799 0.961 . S
H815 C799 0.960 1_554 S
C816 C817 1.391 . S
C816 C818 1.394 . S
C816 H832 0.931 . S
C817 C816 1.391 . S
C817 C821 1.376 . S
C818 C816 1.394 . S
C818 C819 1.369 . S
C818 C822 1.531 . S
C819 C818 1.369 . S
C819 C820 1.410 . S
C819 C827 1.503 . S
C820 C819 1.410 . S
C820 C821 1.392 . S
C820 C823 1.511 . S
C821 C817 1.376 . S
C821 C820 1.392 . S
C821 H833 0.929 . S
C822 C818 1.531 . S
C822 H834 0.960 . S
C822 H835 0.962 . S
C822 H836 0.960 . S
C823 C820 1.511 . S
C823 H837 0.961 . S
C823 H838 0.961 . S
C823 H839 0.961 . S
C824 C825 1.370 . S
C824 C826 1.363 . S
C824 H840 0.931 . S
C825 C824 1.370 . S
C825 C829 1.408 . S
C826 C824 1.363 . S
C826 C827 1.370 . S
C826 C830 1.524 . S
C827 C819 1.503 . S
C827 C826 1.370 . S
C827 C828 1.403 . S
C828 C827 1.403 . S
C828 C829 1.404 . S
C828 C831 1.539 . S
C829 C825 1.408 . S
C829 C828 1.404 . S
C829 H841 0.930 . S
C830 C826 1.524 . S
C830 H842 0.956 . S
C830 H843 0.961 . S
C830 H844 0.961 . S
C831 C828 1.539 . S
C831 H845 0.958 . S
C831 H846 0.961 . S
C831 H847 0.960 . S
H832 C816 0.931 . S
H833 C821 0.929 . S
H834 C822 0.960 . S
H835 C822 0.962 . S
H836 C822 0.960 . S
H837 C823 0.961 . S
H838 C823 0.961 . S
H839 C823 0.961 . S
H840 C824 0.931 . S
H841 C829 0.930 . S
H842 C830 0.956 . S
H843 C830 0.961 . S
H844 C830 0.961 . S
H845 C831 0.958 . S
H846 C831 0.961 . S
H847 C831 0.960 . S
C848 C849 1.391 . S
C848 C850 1.394 . S
C848 H864 0.931 . S
C849 C848 1.391 . S
C849 C853 1.376 . S
C850 C848 1.394 . S
C850 C851 1.369 . S
C850 C854 1.531 . S
C851 C850 1.369 . S
C851 C852 1.410 . S
C851 C859 1.503 . S
C852 C851 1.410 . S
C852 C853 1.392 . S
C852 C855 1.511 . S
C853 C849 1.376 . S
C853 C852 1.392 . S
C853 H865 0.929 . S
C854 C850 1.531 . S
C854 H866 0.960 . S
C854 H867 0.962 . S
C854 H868 0.960 . S
C855 C852 1.511 . S
C855 H869 0.961 . S
C855 H870 0.961 . S
C855 H871 0.961 . S
C856 C857 1.370 . S
C856 C858 1.363 . S
C856 H872 0.931 . S
C857 C856 1.370 . S
C857 C861 1.408 . S
C858 C856 1.363 . S
C858 C859 1.370 . S
C858 C862 1.524 . S
C859 C851 1.503 . S
C859 C858 1.370 . S
C859 C860 1.403 . S
C860 C859 1.403 . S
C860 C861 1.404 . S
C860 C863 1.539 . S
C861 C857 1.408 . S
C861 C860 1.404 . S
C861 H873 0.930 . S
C862 C858 1.524 . S
C862 H874 0.956 . S
C862 H875 0.961 . S
C862 H876 0.961 . S
C863 C860 1.539 . S
C863 H877 0.958 . S
C863 H878 0.961 . S
C863 H879 0.960 . S
H864 C848 0.931 . S
H865 C853 0.929 . S
H866 C854 0.960 . S
H867 C854 0.962 . S
H868 C854 0.960 . S
H869 C855 0.961 . S
H870 C855 0.961 . S
H871 C855 0.961 . S
H872 C856 0.931 . S
H873 C861 0.930 . S
H874 C862 0.956 . S
H875 C862 0.961 . S
H876 C862 0.961 . S
H877 C863 0.958 . S
H878 C863 0.961 . S
H879 C863 0.960 . S
C880 C881 1.391 . S
C880 C882 1.394 . S
C880 H896 0.931 . S
C881 C880 1.391 . S
C881 C885 1.376 . S
C882 C880 1.394 . S
C882 C883 1.369 . S
C882 C886 1.531 . S
C883 C882 1.369 . S
C883 C884 1.410 . S
C883 C891 1.503 . S
C884 C883 1.410 . S
C884 C885 1.392 . S
C884 C887 1.511 . S
C885 C881 1.376 . S
C885 C884 1.392 . S
C885 H897 0.929 . S
C886 C882 1.531 . S
C886 H898 0.960 . S
C886 H899 0.962 . S
C886 H900 0.960 . S
C887 C884 1.511 . S
C887 H901 0.961 . S
C887 H902 0.961 . S
C887 H903 0.961 . S
C888 C889 1.370 . S
C888 C890 1.363 . S
C888 H904 0.931 . S
C889 C888 1.370 . S
C889 C893 1.408 . S
C890 C888 1.363 . S
C890 C891 1.370 . S
C890 C894 1.524 . S
C891 C883 1.503 . S
C891 C890 1.370 . S
C891 C892 1.403 . S
C892 C891 1.403 . S
C892 C893 1.404 . S
C892 C895 1.539 . S
C893 C889 1.408 . S
C893 C892 1.404 . S
C893 H905 0.930 . S
C894 C890 1.524 . S
C894 H906 0.956 . S
C894 H907 0.961 . S
C894 H908 0.961 . S
C895 C892 1.539 . S
C895 H909 0.958 . S
C895 H910 0.961 . S
C895 H911 0.960 . S
H896 C880 0.931 . S
H897 C885 0.929 . S
H898 C886 0.960 . S
H899 C886 0.962 . S
H900 C886 0.960 . S
H901 C887 0.961 . S
H902 C887 0.961 . S
H903 C887 0.961 . S
H904 C888 0.931 . S
H905 C893 0.930 . S
H906 C894 0.956 . S
H907 C894 0.961 . S
H908 C894 0.961 . S
H909 C895 0.958 . S
H910 C895 0.961 . S
H911 C895 0.960 . S
C912 C913 1.391 . S
C912 C914 1.394 . S
C912 H928 0.931 . S
C913 C912 1.391 . S
C913 C917 1.376 . S
C914 C912 1.394 . S
C914 C915 1.369 . S
C914 C918 1.531 . S
C915 C914 1.369 . S
C915 C916 1.410 . S
C915 C923 1.503 1_556 S
C916 C915 1.410 . S
C916 C917 1.392 . S
C916 C919 1.511 . S
C917 C913 1.376 . S
C917 C916 1.392 . S
C917 H929 0.929 . S
C918 C914 1.531 . S
C918 H930 0.960 1_556 S
C918 H931 0.962 . S
C918 H932 0.960 . S
C919 C916 1.511 . S
C919 H933 0.961 . S
C919 H934 0.961 . S
C919 H935 0.961 . S
C920 C921 1.370 . S
C920 C922 1.363 . S
C920 H936 0.931 . S
C921 C920 1.370 . S
C921 C925 1.408 . S
C922 C920 1.363 . S
C922 C923 1.370 . S
C922 C926 1.524 1_554 S
C923 C915 1.503 1_554 S
C923 C922 1.370 . S
C923 C924 1.403 . S
C924 C923 1.403 . S
C924 C925 1.404 . S
C924 C927 1.539 . S
C925 C921 1.408 . S
C925 C924 1.404 . S
C925 H937 0.930 . S
C926 C922 1.524 1_556 S
C926 H938 0.956 . S
C926 H939 0.961 . S
C926 H940 0.961 . S
C927 C924 1.539 . S
C927 H941 0.958 . S
C927 H942 0.961 . S
C927 H943 0.960 . S
H928 C912 0.931 . S
H929 C917 0.929 . S
H930 C918 0.960 1_554 S
H931 C918 0.962 . S
H932 C918 0.960 . S
H933 C919 0.961 . S
H934 C919 0.961 . S
H935 C919 0.961 . S
H936 C920 0.931 . S
H937 C925 0.930 . S
H938 C926 0.956 . S
H939 C926 0.961 . S
H940 C926 0.961 . S
H941 C927 0.958 . S
H942 C927 0.961 . S
H943 C927 0.960 . S
C944 C945 1.391 . S
C944 C946 1.394 . S
C944 H960 0.931 . S
C945 C944 1.391 . S
C945 C949 1.376 . S
C946 C944 1.394 . S
C946 C947 1.369 . S
C946 C950 1.531 . S
C947 C946 1.369 . S
C947 C948 1.410 . S
C947 C955 1.503 . S
C948 C947 1.410 . S
C948 C949 1.392 . S
C948 C951 1.511 . S
C949 C945 1.376 . S
C949 C948 1.392 . S
C949 H961 0.929 . S
C950 C946 1.531 . S
C950 H962 0.960 . S
C950 H963 0.962 . S
C950 H964 0.960 . S
C951 C948 1.511 . S
C951 H965 0.961 . S
C951 H966 0.961 . S
C951 H967 0.961 . S
C952 C953 1.370 . S
C952 C954 1.363 . S
C952 H968 0.931 . S
C953 C952 1.370 . S
C953 C957 1.408 . S
C954 C952 1.363 . S
C954 C955 1.370 . S
C954 C958 1.524 . S
C955 C947 1.503 . S
C955 C954 1.370 . S
C955 C956 1.403 . S
C956 C955 1.403 . S
C956 C957 1.404 . S
C956 C959 1.539 . S
C957 C953 1.408 . S
C957 C956 1.404 . S
C957 H969 0.930 . S
C958 C954 1.524 . S
C958 H970 0.956 . S
C958 H971 0.961 . S
C958 H972 0.961 . S
C959 C956 1.539 . S
C959 H973 0.958 . S
C959 H974 0.961 . S
C959 H975 0.960 . S
H960 C944 0.931 . S
H961 C949 0.929 . S
H962 C950 0.960 . S
H963 C950 0.962 . S
H964 C950 0.960 . S
H965 C951 0.961 . S
H966 C951 0.961 . S
H967 C951 0.961 . S
H968 C952 0.931 . S
H969 C957 0.930 . S
H970 C958 0.956 . S
H971 C958 0.961 . S
H972 C958 0.961 . S
H973 C959 0.958 . S
H974 C959 0.961 . S
H975 C959 0.960 . S
C976 C977 1.391 . S
C976 C978 1.394 . S
C976 H992 0.931 . S
C977 C976 1.391 . S
C977 C981 1.376 . S
C978 C976 1.394 . S
C978 C979 1.369 . S
C978 C982 1.501 1_545 S
C979 C978 1.369 . S
C979 C980 1.410 . S
C979 C987 1.503 . S
C980 C979 1.410 . S
C980 C981 1.392 . S
C980 C983 1.511 . S
C981 C977 1.376 . S
C981 C980 1.392 . S
C981 H993 0.929 . S
C982 C978 1.501 1_565 S
C982 H994 0.984 . S
C982 H995 0.966 . S
C982 H996 0.963 . S
C983 C980 1.511 . S
C983 H997 0.961 . S
C983 H998 0.961 . S
C983 H999 0.961 . S
C984 C985 1.370 . S
C984 C986 1.363 1_565 S
C984 H1000 0.931 . S
C985 C984 1.370 . S
C985 C989 1.408 . S
C986 C984 1.363 1_545 S
C986 C987 1.370 . S
C986 C990 1.524 . S
C987 C979 1.503 . S
C987 C986 1.370 . S
C987 C988 1.403 1_545 S
C988 C987 1.403 1_565 S
C988 C989 1.404 . S
C988 C991 1.539 . S
C989 C985 1.408 . S
C989 C988 1.404 . S
C989 H1001 0.930 . S
C990 C986 1.524 . S
C990 H1002 0.956 . S
C990 H1003 0.961 . S
C990 H1004 0.961 . S
C991 C988 1.539 . S
C991 H1005 0.958 . S
C991 H1006 0.961 . S
C991 H1007 0.960 1_565 S
H992 C976 0.931 . S
H993 C981 0.929 . S
H994 C982 0.984 . S
H995 C982 0.966 . S
H996 C982 0.963 . S
H997 C983 0.961 . S
H998 C983 0.961 . S
H999 C983 0.961 . S
H1000 C984 0.931 . S
H1001 C989 0.930 . S
H1002 C990 0.956 . S
H1003 C990 0.961 . S
H1004 C990 0.961 . S
H1005 C991 0.958 . S
H1006 C991 0.961 . S
H1007 C991 0.960 1_545 S
C1008 C1009 1.391 . S
C1008 C1010 1.394 . S
C1008 H1024 0.931 . S
C1009 C1008 1.391 . S
C1009 C1013 1.376 . S
C1010 C1008 1.394 . S
C1010 C1011 1.369 . S
C1010 C1014 1.531 . S
C1011 C1010 1.369 . S
C1011 C1012 1.410 . S
C1011 C1019 1.503 . S
C1012 C1011 1.410 . S
C1012 C1013 1.392 . S
C1012 C1015 1.511 . S
C1013 C1009 1.376 . S
C1013 C1012 1.392 . S
C1013 H1025 0.929 . S
C1014 C1010 1.531 . S
C1014 H1026 0.960 . S
C1014 H1027 0.962 . S
C1014 H1028 0.960 . S
C1015 C1012 1.511 . S
C1015 H1029 0.961 . S
C1015 H1030 0.961 . S
C1015 H1031 0.961 . S
C1016 C1017 1.370 . S
C1016 C1018 1.363 . S
C1016 H1032 0.931 . S
C1017 C1016 1.370 . S
C1017 C1021 1.408 . S
C1018 C1016 1.363 . S
C1018 C1019 1.370 . S
C1018 C1022 1.524 . S
C1019 C1011 1.503 . S
C1019 C1018 1.370 . S
C1019 C1020 1.403 . S
C1020 C1019 1.403 . S
C1020 C1021 1.404 . S
C1020 C1023 1.539 . S
C1021 C1017 1.408 . S
C1021 C1020 1.404 . S
C1021 H1033 0.930 . S
C1022 C1018 1.524 . S
C1022 H1034 0.956 . S
C1022 H1035 0.961 . S
C1022 H1036 0.961 . S
C1023 C1020 1.539 . S
C1023 H1037 0.958 . S
C1023 H1038 0.961 . S
C1023 H1039 0.960 . S
H1024 C1008 0.931 . S
H1025 C1013 0.929 . S
H1026 C1014 0.960 . S
H1027 C1014 0.962 . S
H1028 C1014 0.960 . S
H1029 C1015 0.961 . S
H1030 C1015 0.961 . S
H1031 C1015 0.961 . S
H1032 C1016 0.931 . S
H1033 C1021 0.930 . S
H1034 C1022 0.956 . S
H1035 C1022 0.961 . S
H1036 C1022 0.961 . S
H1037 C1023 0.958 . S
H1038 C1023 0.961 . S
H1039 C1023 0.960 . S
C1040 C1041 1.391 . S
C1040 C1042 1.394 . S
C1040 H1056 0.931 . S
C1041 C1040 1.391 . S
C1041 C1045 1.376 . S
C1042 C1040 1.394 . S
C1042 C1043 1.369 . S
C1042 C1046 1.531 . S
C1043 C1042 1.369 . S
C1043 C1044 1.410 . S
C1043 C1051 1.503 . S
C1044 C1043 1.410 . S
C1044 C1045 1.392 . S
C1044 C1047 1.511 . S
C1045 C1041 1.376 . S
C1045 C1044 1.392 . S
C1045 H1057 0.929 . S
C1046 C1042 1.531 . S
C1046 H1058 0.960 . S
C1046 H1059 0.962 . S
C1046 H1060 0.960 . S
C1047 C1044 1.511 . S
C1047 H1061 0.961 . S
C1047 H1062 0.961 . S
C1047 H1063 0.961 . S
C1048 C1049 1.370 . S
C1048 C1050 1.363 . S
C1048 H1064 0.931 . S
C1049 C1048 1.370 . S
C1049 C1053 1.408 . S
C1050 C1048 1.363 . S
C1050 C1051 1.370 1_545 S
C1050 C1054 1.524 . S
C1051 C1043 1.503 . S
C1051 C1050 1.370 1_565 S
C1051 C1052 1.403 . S
C1052 C1051 1.403 . S
C1052 C1053 1.404 1_565 S
C1052 C1055 1.539 . S
C1053 C1049 1.408 . S
C1053 C1052 1.404 1_545 S
C1053 H1065 0.930 . S
C1054 C1050 1.524 . S
C1054 H1066 0.956 . S
C1054 H1067 0.961 . S
C1054 H1068 0.961 . S
C1055 C1052 1.539 . S
C1055 H1069 0.958 . S
C1055 H1070 0.961 . S
C1055 H1071 0.960 . S
H1056 C1040 0.931 . S
H1057 C1045 0.929 . S
H1058 C1046 0.960 . S
H1059 C1046 0.962 . S
H1060 C1046 0.960 . S
H1061 C1047 0.961 . S
H1062 C1047 0.961 . S
H1063 C1047 0.961 . S
H1064 C1048 0.931 . S
H1065 C1053 0.930 . S
H1066 C1054 0.956 . S
H1067 C1054 0.961 . S
H1068 C1054 0.961 . S
H1069 C1055 0.958 . S
H1070 C1055 0.961 . S
H1071 C1055 0.960 . S
C1072 C1073 1.391 . S
C1072 C1074 1.394 . S
C1072 H1088 0.931 . S
C1073 C1072 1.391 . S
C1073 C1077 1.376 . S
C1074 C1072 1.394 . S
C1074 C1075 1.369 . S
C1074 C1078 1.531 . S
C1075 C1074 1.369 . S
C1075 C1076 1.410 . S
C1075 C1083 1.503 . S
C1076 C1075 1.410 . S
C1076 C1077 1.392 . S
C1076 C1079 1.511 . S
C1077 C1073 1.376 . S
C1077 C1076 1.392 . S
C1077 H1089 0.929 . S
C1078 C1074 1.531 . S
C1078 H1090 0.960 . S
C1078 H1091 0.962 . S
C1078 H1092 0.960 . S
C1079 C1076 1.511 . S
C1079 H1093 0.961 . S
C1079 H1094 0.961 . S
C1079 H1095 0.961 . S
C1080 C1081 1.370 . S
C1080 C1082 1.363 . S
C1080 H1096 0.931 . S
C1081 C1080 1.370 . S
C1081 C1085 1.408 . S
C1082 C1080 1.363 . S
C1082 C1083 1.370 . S
C1082 C1086 1.524 . S
C1083 C1075 1.503 . S
C1083 C1082 1.370 . S
C1083 C1084 1.403 . S
C1084 C1083 1.403 . S
C1084 C1085 1.404 . S
C1084 C1087 1.539 . S
C1085 C1081 1.408 . S
C1085 C1084 1.404 . S
C1085 H1097 0.930 . S
C1086 C1082 1.524 . S
C1086 H1098 0.956 . S
C1086 H1099 0.961 . S
C1086 H1100 0.961 . S
C1087 C1084 1.539 . S
C1087 H1101 0.958 . S
C1087 H1102 0.961 . S
C1087 H1103 0.960 . S
H1088 C1072 0.931 . S
H1089 C1077 0.929 . S
H1090 C1078 0.960 . S
H1091 C1078 0.962 . S
H1092 C1078 0.960 . S
H1093 C1079 0.961 . S
H1094 C1079 0.961 . S
H1095 C1079 0.961 . S
H1096 C1080 0.931 . S
H1097 C1085 0.930 . S
H1098 C1086 0.956 . S
H1099 C1086 0.961 . S
H1100 C1086 0.961 . S
H1101 C1087 0.958 . S
H1102 C1087 0.961 . S
H1103 C1087 0.960 . S
C1104 C1105 1.391 . S
C1104 C1106 1.394 . S
C1104 H1120 0.931 . S
C1105 C1104 1.391 . S
C1105 C1109 1.376 . S
C1106 C1104 1.394 . S
C1106 C1107 1.369 . S
C1106 C1110 1.531 . S
C1107 C1106 1.369 . S
C1107 C1108 1.410 . S
C1107 C1115 1.503 . S
C1108 C1107 1.410 . S
C1108 C1109 1.392 . S
C1108 C1111 1.511 1_545 S
C1109 C1105 1.376 . S
C1109 C1108 1.392 . S
C1109 H1121 0.929 . S
C1110 C1106 1.531 . S
C1110 H1122 0.960 . S
C1110 H1123 0.962 . S
C1110 H1124 0.960 . S
C1111 C1108 1.511 1_565 S
C1111 H1125 0.961 . S
C1111 H1126 0.961 . S
C1111 H1127 0.961 . S
C1112 C1113 1.370 . S
C1112 C1114 1.363 . S
C1112 H1128 0.931 . S
C1113 C1112 1.370 . S
C1113 C1117 1.408 . S
C1114 C1112 1.363 . S
C1114 C1115 1.370 1_565 S
C1114 C1118 1.524 1_565 S
C1115 C1107 1.503 . S
C1115 C1114 1.370 1_545 S
C1115 C1116 1.403 1_545 S
C1116 C1115 1.403 1_565 S
C1116 C1117 1.404 . S
C1116 C1119 1.539 . S
C1117 C1113 1.408 . S
C1117 C1116 1.404 . S
C1117 H1129 0.930 . S
C1118 C1114 1.524 1_545 S
C1118 H1130 0.956 . S
C1118 H1131 0.961 . S
C1118 H1132 0.961 . S
C1119 C1116 1.539 . S
C1119 H1133 0.958 1_565 S
C1119 H1134 0.961 . S
C1119 H1135 0.960 1_565 S
H1120 C1104 0.931 . S
H1121 C1109 0.929 . S
H1122 C1110 0.960 . S
H1123 C1110 0.962 . S
H1124 C1110 0.960 . S
H1125 C1111 0.961 . S
H1126 C1111 0.961 . S
H1127 C1111 0.961 . S
H1128 C1112 0.931 . S
H1129 C1117 0.930 . S
H1130 C1118 0.956 . S
H1131 C1118 0.961 . S
H1132 C1118 0.961 . S
H1133 C1119 0.958 1_545 S
H1134 C1119 0.961 . S
H1135 C1119 0.960 1_545 S
C1136 C1137 1.391 . S
C1136 C1138 1.394 . S
C1136 H1152 0.971 . S
C1137 C1136 1.391 . S
C1137 C1141 1.376 . S
C1138 C1136 1.394 . S
C1138 C1139 1.369 . S
C1138 C1142 1.531 . S
C1139 C1138 1.369 . S
C1139 C1140 1.410 . S
C1139 C1147 1.503 . S
C1140 C1139 1.410 . S
C1140 C1141 1.392 . S
C1140 C1143 1.511 . S
C1141 C1137 1.376 . S
C1141 C1140 1.392 . S
C1141 H1153 0.929 . S
C1142 C1138 1.531 . S
C1142 H1154 0.960 . S
C1142 H1155 0.962 . S
C1142 H1156 0.960 . S
C1143 C1140 1.511 . S
C1143 H1157 0.961 . S
C1143 H1158 0.961 . S
C1143 H1159 0.961 . S
C1144 C1145 1.370 . S
C1144 C1146 1.363 . S
C1144 H1160 0.931 . S
C1145 C1144 1.370 . S
C1145 C1149 1.408 . S
C1146 C1144 1.363 . S
C1146 C1147 1.370 . S
C1146 C1150 1.524 . S
C1147 C1139 1.503 . S
C1147 C1146 1.370 . S
C1147 C1148 1.403 . S
C1148 C1147 1.403 . S
C1148 C1149 1.404 . S
C1148 C1151 1.539 . S
C1149 C1145 1.408 . S
C1149 C1148 1.404 . S
C1149 H1161 0.930 . S
C1150 C1146 1.524 . S
C1150 H1162 0.956 . S
C1150 H1163 0.961 . S
C1150 H1164 0.961 . S
C1151 C1148 1.539 . S
C1151 H1165 0.958 . S
C1151 H1166 0.961 . S
C1151 H1167 0.960 . S
H1152 C1136 0.971 . S
H1153 C1141 0.929 . S
H1154 C1142 0.960 . S
H1155 C1142 0.962 . S
H1156 C1142 0.960 . S
H1157 C1143 0.961 . S
H1158 C1143 0.961 . S
H1159 C1143 0.961 . S
H1160 C1144 0.931 . S
H1161 C1149 0.930 . S
H1162 C1150 0.956 . S
H1163 C1150 0.961 . S
H1164 C1150 0.961 . S
H1165 C1151 0.958 . S
H1166 C1151 0.961 . S
H1167 C1151 0.960 . S
C1168 C1169 1.391 . S
C1168 C1170 1.394 . S
C1168 H1184 0.931 . S
C1169 C1168 1.391 . S
C1169 C1173 1.376 . S
C1170 C1168 1.394 . S
C1170 C1171 1.369 . S
C1170 C1174 1.531 . S
C1171 C1170 1.369 . S
C1171 C1172 1.410 . S
C1171 C1179 1.503 1_565 S
C1172 C1171 1.410 . S
C1172 C1173 1.392 . S
C1172 C1175 1.511 1_565 S
C1173 C1169 1.376 . S
C1173 C1172 1.392 . S
C1173 H1185 0.929 . S
C1174 C1170 1.531 . S
C1174 H1186 0.960 . S
C1174 H1187 0.962 . S
C1174 H1188 0.960 . S
C1175 C1172 1.511 1_545 S
C1175 H1189 0.961 . S
C1175 H1190 0.961 . S
C1175 H1191 0.961 . S
C1176 C1177 1.370 . S
C1176 C1178 1.363 . S
C1176 H1192 0.931 . S
C1177 C1176 1.370 . S
C1177 C1181 1.408 . S
C1178 C1176 1.363 . S
C1178 C1179 1.370 . S
C1178 C1182 1.514 1_545 S
C1179 C1171 1.503 1_545 S
C1179 C1178 1.370 . S
C1179 C1180 1.403 . S
C1180 C1179 1.403 . S
C1180 C1181 1.404 . S
C1180 C1183 1.539 . S
C1181 C1177 1.408 . S
C1181 C1180 1.404 . S
C1181 H1193 0.930 . S
C1182 C1178 1.514 1_565 S
C1182 H1194 0.978 . S
C1182 H1195 0.963 . S
C1182 H1196 0.948 1_565 S
C1183 C1180 1.539 . S
C1183 H1197 0.958 1_545 S
C1183 H1198 0.961 . S
C1183 H1199 0.960 1_545 S
H1184 C1168 0.931 . S
H1185 C1173 0.929 . S
H1186 C1174 0.960 . S
H1187 C1174 0.962 . S
H1188 C1174 0.960 . S
H1189 C1175 0.961 . S
H1190 C1175 0.961 . S
H1191 C1175 0.961 . S
H1192 C1176 0.931 . S
H1193 C1181 0.930 . S
H1194 C1182 0.978 . S
H1195 C1182 0.963 . S
H1196 C1182 0.948 1_545 S
H1197 C1183 0.958 1_565 S
H1198 C1183 0.961 . S
H1199 C1183 0.960 1_565 S
C1200 C1201 1.391 . S
C1200 C1202 1.394 . S
C1200 H1216 0.931 . S
C1201 C1200 1.391 . S
C1201 C1205 1.376 . S
C1202 C1200 1.394 . S
C1202 C1203 1.369 . S
C1202 C1206 1.531 . S
C1203 C1202 1.369 . S
C1203 C1204 1.410 . S
C1203 C1211 1.503 . S
C1204 C1203 1.410 . S
C1204 C1205 1.392 . S
C1204 C1207 1.511 . S
C1205 C1201 1.376 . S
C1205 C1204 1.392 . S
C1205 H1217 0.929 . S
C1206 C1202 1.531 . S
C1206 H1218 0.960 . S
C1206 H1219 0.962 . S
C1206 H1220 0.960 . S
C1207 C1204 1.511 . S
C1207 H1221 0.961 . S
C1207 H1222 0.961 . S
C1207 H1223 0.961 . S
C1208 C1209 1.370 . S
C1208 C1210 1.363 . S
C1208 H1224 0.931 . S
C1209 C1208 1.370 . S
C1209 C1213 1.408 . S
C1210 C1208 1.363 . S
C1210 C1211 1.370 . S
C1210 C1214 1.524 . S
C1211 C1203 1.503 . S
C1211 C1210 1.370 . S
C1211 C1212 1.403 . S
C1212 C1211 1.403 . S
C1212 C1213 1.404 . S
C1212 C1215 1.539 . S
C1213 C1209 1.408 . S
C1213 C1212 1.404 . S
C1213 H1225 0.930 . S
C1214 C1210 1.524 . S
C1214 H1226 0.956 . S
C1214 H1227 0.961 . S
C1214 H1228 0.961 . S
C1215 C1212 1.539 . S
C1215 H1229 0.958 . S
C1215 H1230 0.961 . S
C1215 H1231 0.960 . S
H1216 C1200 0.931 . S
H1217 C1205 0.929 . S
H1218 C1206 0.960 . S
H1219 C1206 0.962 . S
H1220 C1206 0.960 . S
H1221 C1207 0.961 . S
H1222 C1207 0.961 . S
H1223 C1207 0.961 . S
H1224 C1208 0.931 . S
H1225 C1213 0.930 . S
H1226 C1214 0.956 . S
H1227 C1214 0.961 . S
H1228 C1214 0.961 . S
H1229 C1215 0.958 . S
H1230 C1215 0.961 . S
H1231 C1215 0.960 . S
C1232 C1233 1.391 . S
C1232 C1234 1.394 . S
C1232 H1248 0.931 . S
C1233 C1232 1.391 . S
C1233 C1237 1.376 . S
C1234 C1232 1.394 . S
C1234 C1235 1.369 . S
C1234 C1238 1.531 . S
C1235 C1234 1.369 . S
C1235 C1236 1.410 . S
C1235 C1243 1.503 . S
C1236 C1235 1.410 . S
C1236 C1237 1.392 . S
C1236 C1239 1.511 . S
C1237 C1233 1.376 . S
C1237 C1236 1.392 . S
C1237 H1249 0.929 . S
C1238 C1234 1.531 . S
C1238 H1250 0.960 . S
C1238 H1251 0.962 . S
C1238 H1252 0.960 . S
C1239 C1236 1.511 . S
C1239 H1253 0.961 . S
C1239 H1254 0.961 . S
C1239 H1255 0.961 . S
C1240 C1241 1.370 . S
C1240 C1242 1.363 . S
C1240 H1256 0.931 . S
C1241 C1240 1.370 . S
C1241 C1245 1.408 . S
C1242 C1240 1.363 . S
C1242 C1243 1.370 . S
C1242 C1246 1.524 . S
C1243 C1235 1.503 . S
C1243 C1242 1.370 . S
C1243 C1244 1.403 . S
C1244 C1243 1.403 . S
C1244 C1245 1.404 . S
C1244 C1247 1.539 . S
C1245 C1241 1.408 . S
C1245 C1244 1.404 . S
C1245 H1257 0.930 . S
C1246 C1242 1.524 . S
C1246 H1258 0.956 . S
C1246 H1259 0.961 . S
C1246 H1260 0.961 . S
C1247 C1244 1.539 . S
C1247 H1261 0.958 . S
C1247 H1262 0.961 . S
C1247 H1263 0.960 . S
H1248 C1232 0.931 . S
H1249 C1237 0.929 . S
H1250 C1238 0.960 . S
H1251 C1238 0.962 . S
H1252 C1238 0.960 . S
H1253 C1239 0.961 . S
H1254 C1239 0.961 . S
H1255 C1239 0.961 . S
H1256 C1240 0.931 . S
H1257 C1245 0.930 . S
H1258 C1246 0.956 . S
H1259 C1246 0.961 . S
H1260 C1246 0.961 . S
H1261 C1247 0.958 . S
H1262 C1247 0.961 . S
H1263 C1247 0.960 . S
C1264 C1265 1.391 . S
C1264 C1266 1.394 . S
C1264 H1280 0.931 . S
C1265 C1264 1.391 . S
C1265 C1269 1.376 . S
C1266 C1264 1.394 . S
C1266 C1267 1.369 . S
C1266 C1270 1.531 . S
C1267 C1266 1.369 . S
C1267 C1268 1.410 . S
C1267 C1275 1.503 . S
C1268 C1267 1.410 . S
C1268 C1269 1.392 . S
C1268 C1271 1.511 . S
C1269 C1265 1.376 . S
C1269 C1268 1.392 . S
C1269 H1281 0.929 . S
C1270 C1266 1.531 . S
C1270 H1282 0.960 . S
C1270 H1283 0.962 . S
C1270 H1284 0.960 . S
C1271 C1268 1.511 . S
C1271 H1285 0.961 . S
C1271 H1286 0.961 1_455 S
C1271 H1287 0.961 . S
C1272 C1273 1.370 . S
C1272 C1274 1.363 . S
C1272 H1288 0.931 . S
C1273 C1272 1.370 . S
C1273 C1277 1.408 . S
C1274 C1272 1.363 . S
C1274 C1275 1.370 1_655 S
C1274 C1278 1.524 . S
C1275 C1267 1.503 . S
C1275 C1274 1.370 1_455 S
C1275 C1276 1.403 . S
C1276 C1275 1.403 . S
C1276 C1277 1.404 1_455 S
C1276 C1279 1.539 . S
C1277 C1273 1.408 . S
C1277 C1276 1.404 1_655 S
C1277 H1289 0.930 . S
C1278 C1274 1.524 . S
C1278 H1290 0.956 1_655 S
C1278 H1291 0.961 . S
C1278 H1292 0.961 . S
C1279 C1276 1.539 . S
C1279 H1293 0.958 . S
C1279 H1294 0.961 . S
C1279 H1295 0.960 . S
H1280 C1264 0.931 . S
H1281 C1269 0.929 . S
H1282 C1270 0.960 . S
H1283 C1270 0.962 . S
H1284 C1270 0.960 . S
H1285 C1271 0.961 . S
H1286 C1271 0.961 1_655 S
H1287 C1271 0.961 . S
H1288 C1272 0.931 . S
H1289 C1277 0.930 . S
H1290 C1278 0.956 1_455 S
H1291 C1278 0.961 . S
H1292 C1278 0.961 . S
H1293 C1279 0.958 . S
H1294 C1279 0.961 . S
H1295 C1279 0.960 . S
C1296 C1297 1.391 . S
C1296 C1298 1.394 . S
C1296 H1312 0.931 . S
C1297 C1296 1.391 . S
C1297 C1301 1.376 . S
C1298 C1296 1.394 . S
C1298 C1299 1.369 . S
C1298 C1302 1.531 . S
C1299 C1298 1.369 . S
C1299 C1300 1.410 . S
C1299 C1307 1.503 . S
C1300 C1299 1.410 . S
C1300 C1301 1.392 . S
C1300 C1303 1.511 . S
C1301 C1297 1.376 . S
C1301 C1300 1.392 . S
C1301 H1313 0.929 . S
C1302 C1298 1.531 . S
C1302 H1314 0.960 . S
C1302 H1315 0.962 . S
C1302 H1316 0.960 . S
C1303 C1300 1.511 . S
C1303 H1317 0.961 . S
C1303 H1318 0.961 . S
C1303 H1319 0.961 . S
C1304 C1305 1.370 . S
C1304 C1306 1.363 . S
C1304 H1320 0.931 . S
C1305 C1304 1.370 . S
C1305 C1309 1.408 . S
C1306 C1304 1.363 . S
C1306 C1307 1.370 . S
C1306 C1310 1.524 . S
C1307 C1299 1.503 . S
C1307 C1306 1.370 . S
C1307 C1308 1.403 . S
C1308 C1307 1.403 . S
C1308 C1309 1.404 . S
C1308 C1311 1.539 . S
C1309 C1305 1.408 . S
C1309 C1308 1.404 . S
C1309 H1321 0.930 . S
C1310 C1306 1.524 . S
C1310 H1322 0.956 . S
C1310 H1323 0.961 . S
C1310 H1324 0.961 . S
C1311 C1308 1.539 . S
C1311 H1325 0.958 . S
C1311 H1326 0.961 . S
C1311 H1327 0.960 . S
H1312 C1296 0.931 . S
H1313 C1301 0.929 . S
H1314 C1302 0.960 . S
H1315 C1302 0.962 . S
H1316 C1302 0.960 . S
H1317 C1303 0.961 . S
H1318 C1303 0.961 . S
H1319 C1303 0.961 . S
H1320 C1304 0.931 . S
H1321 C1309 0.930 . S
H1322 C1310 0.956 . S
H1323 C1310 0.961 . S
H1324 C1310 0.961 . S
H1325 C1311 0.958 . S
H1326 C1311 0.961 . S
H1327 C1311 0.960 . S
C1328 C1329 1.391 . S
C1328 C1330 1.394 . S
C1328 H1344 0.931 . S
C1329 C1328 1.391 . S
C1329 C1333 1.376 . S
C1330 C1328 1.394 . S
C1330 C1331 1.369 . S
C1330 C1334 1.531 1_655 S
C1331 C1330 1.369 . S
C1331 C1332 1.410 . S
C1331 C1339 1.502 1_655 S
C1332 C1331 1.410 . S
C1332 C1333 1.392 . S
C1332 C1335 1.511 . S
C1333 C1329 1.376 . S
C1333 C1332 1.392 . S
C1333 H1345 0.929 . S
C1334 C1330 1.531 1_455 S
C1334 H1346 0.960 . S
C1334 H1347 0.962 . S
C1334 H1348 0.960 . S
C1335 C1332 1.511 . S
C1335 H1349 0.961 . S
C1335 H1350 0.961 . S
C1335 H1351 0.961 . S
C1336 C1337 1.370 . S
C1336 C1338 1.363 . S
C1336 H1352 0.931 . S
C1337 C1336 1.370 . S
C1337 C1341 1.408 . S
C1338 C1336 1.363 . S
C1338 C1339 1.371 . S
C1338 C1342 1.514 1_455 S
C1339 C1331 1.502 1_455 S
C1339 C1338 1.371 . S
C1339 C1340 1.403 . S
C1340 C1339 1.403 . S
C1340 C1341 1.404 . S
C1340 C1343 1.539 1_455 S
C1341 C1337 1.408 . S
C1341 C1340 1.404 . S
C1341 H1353 0.930 . S
C1342 C1338 1.514 1_655 S
C1342 H1354 0.953 1_655 S
C1342 H1355 0.986 . S
C1342 H1356 0.949 1_655 S
C1343 C1340 1.539 1_655 S
C1343 H1357 0.958 1_655 S
C1343 H1358 0.961 1_655 S
C1343 H1359 0.960 . S
H1344 C1328 0.931 . S
H1345 C1333 0.929 . S
H1346 C1334 0.960 . S
H1347 C1334 0.962 . S
H1348 C1334 0.960 . S
H1349 C1335 0.961 . S
H1350 C1335 0.961 . S
H1351 C1335 0.961 . S
H1352 C1336 0.931 . S
H1353 C1341 0.930 . S
H1354 C1342 0.953 1_455 S
H1355 C1342 0.986 . S
H1356 C1342 0.949 1_455 S
H1357 C1343 0.958 1_455 S
H1358 C1343 0.961 1_455 S
H1359 C1343 0.960 . S
C1360 C1361 1.391 . S
C1360 C1362 1.394 . S
C1360 H1376 0.931 . S
C1361 C1360 1.391 . S
C1361 C1365 1.376 . S
C1362 C1360 1.394 . S
C1362 C1363 1.369 . S
C1362 C1366 1.531 . S
C1363 C1362 1.369 . S
C1363 C1364 1.410 . S
C1363 C1371 1.503 . S
C1364 C1363 1.410 . S
C1364 C1365 1.392 . S
C1364 C1367 1.511 . S
C1365 C1361 1.376 . S
C1365 C1364 1.392 . S
C1365 H1377 0.929 . S
C1366 C1362 1.531 . S
C1366 H1378 0.960 . S
C1366 H1379 0.962 . S
C1366 H1380 0.960 . S
C1367 C1364 1.511 . S
C1367 H1381 0.961 . S
C1367 H1382 0.961 . S
C1367 H1383 0.961 . S
C1368 C1369 1.370 . S
C1368 C1370 1.363 . S
C1368 H1384 0.931 . S
C1369 C1368 1.370 . S
C1369 C1373 1.408 . S
C1370 C1368 1.363 . S
C1370 C1371 1.370 . S
C1370 C1374 1.524 . S
C1371 C1363 1.503 . S
C1371 C1370 1.370 . S
C1371 C1372 1.403 . S
C1372 C1371 1.403 . S
C1372 C1373 1.404 . S
C1372 C1375 1.539 . S
C1373 C1369 1.408 . S
C1373 C1372 1.404 . S
C1373 H1385 0.930 . S
C1374 C1370 1.524 . S
C1374 H1386 0.956 . S
C1374 H1387 0.961 . S
C1374 H1388 0.961 . S
C1375 C1372 1.539 . S
C1375 H1389 0.958 . S
C1375 H1390 0.961 . S
C1375 H1391 0.960 . S
H1376 C1360 0.931 . S
H1377 C1365 0.929 . S
H1378 C1366 0.960 . S
H1379 C1366 0.962 . S
H1380 C1366 0.960 . S
H1381 C1367 0.961 . S
H1382 C1367 0.961 . S
H1383 C1367 0.961 . S
H1384 C1368 0.931 . S
H1385 C1373 0.930 . S
H1386 C1374 0.956 . S
H1387 C1374 0.961 . S
H1388 C1374 0.961 . S
H1389 C1375 0.958 . S
H1390 C1375 0.961 . S
H1391 C1375 0.960 . S
C1392 C1393 1.391 . S
C1392 C1394 1.394 . S
C1392 H1408 0.931 . S
C1393 C1392 1.391 . S
C1393 C1397 1.376 . S
C1394 C1392 1.394 . S
C1394 C1395 1.369 . S
C1394 C1398 1.531 . S
C1395 C1394 1.369 . S
C1395 C1396 1.410 . S
C1395 C1403 1.503 . S
C1396 C1395 1.410 . S
C1396 C1397 1.392 . S
C1396 C1399 1.511 . S
C1397 C1393 1.376 . S
C1397 C1396 1.392 . S
C1397 H1409 0.929 . S
C1398 C1394 1.531 . S
C1398 H1410 0.960 . S
C1398 H1411 0.962 . S
C1398 H1412 0.960 . S
C1399 C1396 1.511 . S
C1399 H1413 0.961 . S
C1399 H1414 0.961 . S
C1399 H1415 0.961 . S
C1400 C1401 1.370 . S
C1400 C1402 1.363 . S
C1400 H1416 0.931 . S
C1401 C1400 1.370 . S
C1401 C1405 1.408 . S
C1402 C1400 1.363 . S
C1402 C1403 1.370 1_655 S
C1402 C1406 1.524 . S
C1403 C1395 1.503 . S
C1403 C1402 1.370 1_455 S
C1403 C1404 1.403 . S
C1404 C1403 1.403 . S
C1404 C1405 1.404 1_455 S
C1404 C1407 1.539 . S
C1405 C1401 1.408 . S
C1405 C1404 1.404 1_655 S
C1405 H1417 0.930 . S
C1406 C1402 1.524 . S
C1406 H1418 0.956 . S
C1406 H1419 0.961 . S
C1406 H1420 0.961 . S
C1407 C1404 1.539 . S
C1407 H1421 0.958 . S
C1407 H1422 0.961 . S
C1407 H1423 0.960 . S
H1408 C1392 0.931 . S
H1409 C1397 0.929 . S
H1410 C1398 0.960 . S
H1411 C1398 0.962 . S
H1412 C1398 0.960 . S
H1413 C1399 0.961 . S
H1414 C1399 0.961 . S
H1415 C1399 0.961 . S
H1416 C1400 0.931 . S
H1417 C1405 0.930 . S
H1418 C1406 0.956 . S
H1419 C1406 0.961 . S
H1420 C1406 0.961 . S
H1421 C1407 0.958 . S
H1422 C1407 0.961 . S
H1423 C1407 0.960 . S
C1424 C1425 1.391 . S
C1424 C1426 1.394 . S
C1424 H1440 0.931 . S
C1425 C1424 1.391 . S
C1425 C1429 1.376 . S
C1426 C1424 1.394 . S
C1426 C1427 1.369 . S
C1426 C1430 1.531 . S
C1427 C1426 1.369 . S
C1427 C1428 1.410 . S
C1427 C1435 1.503 . S
C1428 C1427 1.410 . S
C1428 C1429 1.392 . S
C1428 C1431 1.511 . S
C1429 C1425 1.376 . S
C1429 C1428 1.392 . S
C1429 H1441 0.929 . S
C1430 C1426 1.531 . S
C1430 H1442 0.960 . S
C1430 H1443 0.962 . S
C1430 H1444 0.960 . S
C1431 C1428 1.511 . S
C1431 H1445 0.961 . S
C1431 H1446 0.961 . S
C1431 H1447 0.961 . S
C1432 C1433 1.370 . S
C1432 C1434 1.363 . S
C1432 H1448 0.931 . S
C1433 C1432 1.370 . S
C1433 C1437 1.408 . S
C1434 C1432 1.363 . S
C1434 C1435 1.370 . S
C1434 C1438 1.524 . S
C1435 C1427 1.503 . S
C1435 C1434 1.370 . S
C1435 C1436 1.403 . S
C1436 C1435 1.403 . S
C1436 C1437 1.404 . S
C1436 C1439 1.539 . S
C1437 C1433 1.408 . S
C1437 C1436 1.404 . S
C1437 H1449 0.930 . S
C1438 C1434 1.524 . S
C1438 H1450 0.956 . S
C1438 H1451 0.961 . S
C1438 H1452 0.961 . S
C1439 C1436 1.539 . S
C1439 H1453 0.958 . S
C1439 H1454 0.961 . S
C1439 H1455 0.960 . S
H1440 C1424 0.931 . S
H1441 C1429 0.929 . S
H1442 C1430 0.960 . S
H1443 C1430 0.962 . S
H1444 C1430 0.960 . S
H1445 C1431 0.961 . S
H1446 C1431 0.961 . S
H1447 C1431 0.961 . S
H1448 C1432 0.931 . S
H1449 C1437 0.930 . S
H1450 C1438 0.956 . S
H1451 C1438 0.961 . S
H1452 C1438 0.961 . S
H1453 C1439 0.958 . S
H1454 C1439 0.961 . S
H1455 C1439 0.960 . S
C1456 C1457 1.391 . S
C1456 C1458 1.394 . S
C1456 H1472 0.931 . S
C1457 C1456 1.391 . S
C1457 C1461 1.376 . S
C1458 C1456 1.394 . S
C1458 C1459 1.369 . S
C1458 C1462 1.531 . S
C1459 C1458 1.369 . S
C1459 C1460 1.410 . S
C1459 C1467 1.503 . S
C1460 C1459 1.410 . S
C1460 C1461 1.392 . S
C1460 C1463 1.511 . S
C1461 C1457 1.376 . S
C1461 C1460 1.392 . S
C1461 H1473 0.929 . S
C1462 C1458 1.531 . S
C1462 H1474 0.960 . S
C1462 H1475 0.962 . S
C1462 H1476 0.960 . S
C1463 C1460 1.511 . S
C1463 H1477 0.961 . S
C1463 H1478 0.961 . S
C1463 H1479 0.961 . S
C1464 C1465 1.370 . S
C1464 C1466 1.363 . S
C1464 H1480 0.931 . S
C1465 C1464 1.370 . S
C1465 C1469 1.408 . S
C1466 C1464 1.363 . S
C1466 C1467 1.370 . S
C1466 C1470 1.524 . S
C1467 C1459 1.503 . S
C1467 C1466 1.370 . S
C1467 C1468 1.403 . S
C1468 C1467 1.403 . S
C1468 C1469 1.404 . S
C1468 C1471 1.539 . S
C1469 C1465 1.408 . S
C1469 C1468 1.404 . S
C1469 H1481 0.930 . S
C1470 C1466 1.524 . S
C1470 H1482 0.956 . S
C1470 H1483 0.961 . S
C1470 H1484 0.961 . S
C1471 C1468 1.539 . S
C1471 H1485 0.958 . S
C1471 H1486 0.961 . S
C1471 H1487 0.960 . S
H1472 C1456 0.931 . S
H1473 C1461 0.929 . S
H1474 C1462 0.960 . S
H1475 C1462 0.962 . S
H1476 C1462 0.960 . S
H1477 C1463 0.961 . S
H1478 C1463 0.961 . S
H1479 C1463 0.961 . S
H1480 C1464 0.931 . S
H1481 C1469 0.930 . S
H1482 C1470 0.956 . S
H1483 C1470 0.961 . S
H1484 C1470 0.961 . S
H1485 C1471 0.958 . S
H1486 C1471 0.961 . S
H1487 C1471 0.960 . S
C1488 C1489 1.391 . S
C1488 C1490 1.394 . S
C1488 H1504 0.931 . S
C1489 C1488 1.391 . S
C1489 C1493 1.376 . S
C1490 C1488 1.394 . S
C1490 C1491 1.369 . S
C1490 C1494 1.531 . S
C1491 C1490 1.369 . S
C1491 C1492 1.410 . S
C1491 C1499 1.503 . S
C1492 C1491 1.410 . S
C1492 C1493 1.392 . S
C1492 C1495 1.511 . S
C1493 C1489 1.376 . S
C1493 C1492 1.392 . S
C1493 H1505 0.929 . S
C1494 C1490 1.531 . S
C1494 H1506 0.960 . S
C1494 H1507 0.962 . S
C1494 H1508 0.960 . S
C1495 C1492 1.511 . S
C1495 H1509 0.961 . S
C1495 H1510 0.961 . S
C1495 H1511 0.961 . S
C1496 C1497 1.370 . S
C1496 C1498 1.363 . S
C1496 H1512 0.931 . S
C1497 C1496 1.370 . S
C1497 C1501 1.408 . S
C1498 C1496 1.363 . S
C1498 C1499 1.370 . S
C1498 C1502 1.524 . S
C1499 C1491 1.503 . S
C1499 C1498 1.370 . S
C1499 C1500 1.403 . S
C1500 C1499 1.403 . S
C1500 C1501 1.404 . S
C1500 C1503 1.539 . S
C1501 C1497 1.408 . S
C1501 C1500 1.404 . S
C1501 H1513 0.930 . S
C1502 C1498 1.524 . S
C1502 H1514 0.956 . S
C1502 H1515 0.961 . S
C1502 H1516 0.961 . S
C1503 C1500 1.539 . S
C1503 H1517 0.958 . S
C1503 H1518 0.961 . S
C1503 H1519 0.960 . S
H1504 C1488 0.931 . S
H1505 C1493 0.929 . S
H1506 C1494 0.960 . S
H1507 C1494 0.962 . S
H1508 C1494 0.960 . S
H1509 C1495 0.961 . S
H1510 C1495 0.961 . S
H1511 C1495 0.961 . S
H1512 C1496 0.931 . S
H1513 C1501 0.930 . S
H1514 C1502 0.956 . S
H1515 C1502 0.961 . S
H1516 C1502 0.961 . S
H1517 C1503 0.958 . S
H1518 C1503 0.961 . S
H1519 C1503 0.960 . S
C1520 C1521 1.391 . S
C1520 C1522 1.394 . S
C1520 H1536 0.931 . S
C1521 C1520 1.391 . S
C1521 C1525 1.376 . S
C1522 C1520 1.394 . S
C1522 C1523 1.369 . S
C1522 C1526 1.531 . S
C1523 C1522 1.369 . S
C1523 C1524 1.410 . S
C1523 C1531 1.503 . S
C1524 C1523 1.410 . S
C1524 C1525 1.392 . S
C1524 C1527 1.511 . S
C1525 C1521 1.376 . S
C1525 C1524 1.392 . S
C1525 H1537 0.929 . S
C1526 C1522 1.531 . S
C1526 H1538 0.960 . S
C1526 H1539 0.962 . S
C1526 H1540 0.960 . S
C1527 C1524 1.511 . S
C1527 H1541 0.961 . S
C1527 H1542 0.961 . S
C1527 H1543 0.961 . S
C1528 C1529 1.370 . S
C1528 C1530 1.363 . S
C1528 H1544 0.931 . S
C1529 C1528 1.370 . S
C1529 C1533 1.408 . S
C1530 C1528 1.363 . S
C1530 C1531 1.370 . S
C1530 C1534 1.524 . S
C1531 C1523 1.503 . S
C1531 C1530 1.370 . S
C1531 C1532 1.403 . S
C1532 C1531 1.403 . S
C1532 C1533 1.404 . S
C1532 C1535 1.539 . S
C1533 C1529 1.408 . S
C1533 C1532 1.404 . S
C1533 H1545 0.930 . S
C1534 C1530 1.524 . S
C1534 H1546 0.956 . S
C1534 H1547 0.961 . S
C1534 H1548 0.961 . S
C1535 C1532 1.539 . S
C1535 H1549 0.958 . S
C1535 H1550 0.961 . S
C1535 H1551 0.960 . S
H1536 C1520 0.931 . S
H1537 C1525 0.929 . S
H1538 C1526 0.960 . S
H1539 C1526 0.962 . S
H1540 C1526 0.960 . S
H1541 C1527 0.961 . S
H1542 C1527 0.961 . S
H1543 C1527 0.961 . S
H1544 C1528 0.931 . S
H1545 C1533 0.930 . S
H1546 C1534 0.956 . S
H1547 C1534 0.961 . S
H1548 C1534 0.961 . S
H1549 C1535 0.958 . S
H1550 C1535 0.961 . S
H1551 C1535 0.960 . S
C1552 C1553 1.391 . S
C1552 C1554 1.394 . S
C1552 H1568 0.931 . S
C1553 C1552 1.391 . S
C1553 C1557 1.376 . S
C1554 C1552 1.394 . S
C1554 C1555 1.369 . S
C1554 C1558 1.531 1_556 S
C1555 C1554 1.369 . S
C1555 C1556 1.410 . S
C1555 C1563 1.473 1_556 S
C1556 C1555 1.410 . S
C1556 C1557 1.392 . S
C1556 C1559 1.511 . S
C1557 C1553 1.376 . S
C1557 C1556 1.392 . S
C1557 H1569 0.929 . S
C1558 C1554 1.531 1_554 S
C1558 H1570 0.960 . S
C1558 H1571 0.962 . S
C1558 H1572 0.960 1_554 S
C1559 C1556 1.511 . S
C1559 H1573 0.961 . S
C1559 H1574 0.961 . S
C1559 H1575 0.961 . S
C1560 C1561 1.370 . S
C1560 C1562 1.363 . S
C1560 H1576 0.931 . S
C1561 C1560 1.370 . S
C1561 C1565 1.408 . S
C1562 C1560 1.363 . S
C1562 C1563 1.394 . S
C1562 C1566 1.524 . S
C1563 C1555 1.473 1_554 S
C1563 C1562 1.394 . S
C1563 C1564 1.410 . S
C1564 C1563 1.410 . S
C1564 C1565 1.404 . S
C1564 C1567 1.539 1_554 S
C1565 C1561 1.408 . S
C1565 C1564 1.404 . S
C1565 H1577 0.930 . S
C1566 C1562 1.524 . S
C1566 H1578 0.956 . S
C1566 H1579 0.961 1_554 S
C1566 H1580 0.961 . S
C1567 C1564 1.539 1_556 S
C1567 H1581 0.958 . S
C1567 H1582 0.961 . S
C1567 H1583 0.960 . S
H1568 C1552 0.931 . S
H1569 C1557 0.929 . S
H1570 C1558 0.960 . S
H1571 C1558 0.962 . S
H1572 C1558 0.960 1_556 S
H1573 C1559 0.961 . S
H1574 C1559 0.961 . S
H1575 C1559 0.961 . S
H1576 C1560 0.931 . S
H1577 C1565 0.930 . S
H1578 C1566 0.956 . S
H1579 C1566 0.961 1_556 S
H1580 C1566 0.961 . S
H1581 C1567 0.958 . S
H1582 C1567 0.961 . S
H1583 C1567 0.960 . S
C1584 C1585 1.391 . S
C1584 C1586 1.394 . S
C1584 H1600 0.931 . S
C1585 C1584 1.391 . S
C1585 C1589 1.376 . S
C1586 C1584 1.394 . S
C1586 C1587 1.369 . S
C1586 C1590 1.531 . S
C1587 C1586 1.369 . S
C1587 C1588 1.410 . S
C1587 C1595 1.503 . S
C1588 C1587 1.410 . S
C1588 C1589 1.392 . S
C1588 C1591 1.511 . S
C1589 C1585 1.376 . S
C1589 C1588 1.392 . S
C1589 H1601 0.929 . S
C1590 C1586 1.531 . S
C1590 H1602 0.960 . S
C1590 H1603 0.962 . S
C1590 H1604 0.960 . S
C1591 C1588 1.511 . S
C1591 H1605 0.961 . S
C1591 H1606 0.961 . S
C1591 H1607 0.961 . S
C1592 C1593 1.370 . S
C1592 C1594 1.363 . S
C1592 H1608 0.931 . S
C1593 C1592 1.370 . S
C1593 C1597 1.408 . S
C1594 C1592 1.363 . S
C1594 C1595 1.370 . S
C1594 C1598 1.524 . S
C1595 C1587 1.503 . S
C1595 C1594 1.370 . S
C1595 C1596 1.403 . S
C1596 C1595 1.403 . S
C1596 C1597 1.404 . S
C1596 C1599 1.539 . S
C1597 C1593 1.408 . S
C1597 C1596 1.404 . S
C1597 H1609 0.930 . S
C1598 C1594 1.524 . S
C1598 H1610 0.956 . S
C1598 H1611 0.961 . S
C1598 H1612 0.961 . S
C1599 C1596 1.539 . S
C1599 H1613 0.958 . S
C1599 H1614 0.961 . S
C1599 H1615 0.960 . S
H1600 C1584 0.931 . S
H1601 C1589 0.929 . S
H1602 C1590 0.960 . S
H1603 C1590 0.962 . S
H1604 C1590 0.960 . S
H1605 C1591 0.961 . S
H1606 C1591 0.961 . S
H1607 C1591 0.961 . S
H1608 C1592 0.931 . S
H1609 C1597 0.930 . S
H1610 C1598 0.956 . S
H1611 C1598 0.961 . S
H1612 C1598 0.961 . S
H1613 C1599 0.958 . S
H1614 C1599 0.961 . S
H1615 C1599 0.960 . S
C1616 C1617 1.391 . S
C1616 C1618 1.394 . S
C1616 H1632 0.931 . S
C1617 C1616 1.391 . S
C1617 C1621 1.376 . S
C1618 C1616 1.394 . S
C1618 C1619 1.369 . S
C1618 C1622 1.531 . S
C1619 C1618 1.369 . S
C1619 C1620 1.410 . S
C1619 C1627 1.503 . S
C1620 C1619 1.410 . S
C1620 C1621 1.392 . S
C1620 C1623 1.511 . S
C1621 C1617 1.376 . S
C1621 C1620 1.392 . S
C1621 H1633 0.929 . S
C1622 C1618 1.531 . S
C1622 H1634 0.960 . S
C1622 H1635 0.962 . S
C1622 H1636 0.960 . S
C1623 C1620 1.511 . S
C1623 H1637 0.961 . S
C1623 H1638 0.961 . S
C1623 H1639 0.961 . S
C1624 C1625 1.370 . S
C1624 C1626 1.363 . S
C1624 H1640 0.931 . S
C1625 C1624 1.370 . S
C1625 C1629 1.408 . S
C1626 C1624 1.363 . S
C1626 C1627 1.370 . S
C1626 C1630 1.524 . S
C1627 C1619 1.503 . S
C1627 C1626 1.370 . S
C1627 C1628 1.403 . S
C1628 C1627 1.403 . S
C1628 C1629 1.404 . S
C1628 C1631 1.539 . S
C1629 C1625 1.408 . S
C1629 C1628 1.404 . S
C1629 H1641 0.930 . S
C1630 C1626 1.524 . S
C1630 H1642 0.956 . S
C1630 H1643 0.961 . S
C1630 H1644 0.961 . S
C1631 C1628 1.539 . S
C1631 H1645 0.958 . S
C1631 H1646 0.961 . S
C1631 H1647 0.960 . S
H1632 C1616 0.931 . S
H1633 C1621 0.929 . S
H1634 C1622 0.960 . S
H1635 C1622 0.962 . S
H1636 C1622 0.960 . S
H1637 C1623 0.961 . S
H1638 C1623 0.961 . S
H1639 C1623 0.961 . S
H1640 C1624 0.931 . S
H1641 C1629 0.930 . S
H1642 C1630 0.956 . S
H1643 C1630 0.961 . S
H1644 C1630 0.961 . S
H1645 C1631 0.958 . S
H1646 C1631 0.961 . S
H1647 C1631 0.960 . S
C1648 C1649 1.391 . S
C1648 C1650 1.394 . S
C1648 H1664 0.931 . S
C1649 C1648 1.391 . S
C1649 C1653 1.376 . S
C1650 C1648 1.394 . S
C1650 C1651 1.369 . S
C1650 C1654 1.531 . S
C1651 C1650 1.369 . S
C1651 C1652 1.410 . S
C1651 C1659 1.503 . S
C1652 C1651 1.410 . S
C1652 C1653 1.392 . S
C1652 C1655 1.511 . S
C1653 C1649 1.376 . S
C1653 C1652 1.392 . S
C1653 H1665 0.929 . S
C1654 C1650 1.531 . S
C1654 H1666 0.960 . S
C1654 H1667 0.962 . S
C1654 H1668 0.960 . S
C1655 C1652 1.511 . S
C1655 H1669 0.961 . S
C1655 H1670 0.961 . S
C1655 H1671 0.961 . S
C1656 C1657 1.370 . S
C1656 C1658 1.363 . S
C1656 H1672 0.931 . S
C1657 C1656 1.370 . S
C1657 C1661 1.408 . S
C1658 C1656 1.363 . S
C1658 C1659 1.370 . S
C1658 C1662 1.524 . S
C1659 C1651 1.503 . S
C1659 C1658 1.370 . S
C1659 C1660 1.403 . S
C1660 C1659 1.403 . S
C1660 C1661 1.404 . S
C1660 C1663 1.539 . S
C1661 C1657 1.408 . S
C1661 C1660 1.404 . S
C1661 H1673 0.930 . S
C1662 C1658 1.524 . S
C1662 H1674 0.956 . S
C1662 H1675 0.961 . S
C1662 H1676 0.961 . S
C1663 C1660 1.539 . S
C1663 H1677 0.958 . S
C1663 H1678 0.961 . S
C1663 H1679 0.960 . S
H1664 C1648 0.931 . S
H1665 C1653 0.929 . S
H1666 C1654 0.960 . S
H1667 C1654 0.962 . S
H1668 C1654 0.960 . S
H1669 C1655 0.961 . S
H1670 C1655 0.961 . S
H1671 C1655 0.961 . S
H1672 C1656 0.931 . S
H1673 C1661 0.930 . S
H1674 C1662 0.956 . S
H1675 C1662 0.961 . S
H1676 C1662 0.961 . S
H1677 C1663 0.958 . S
H1678 C1663 0.961 . S
H1679 C1663 0.960 . S
C1680 C1681 1.391 . S
C1680 C1682 1.394 . S
C1680 H1696 0.931 . S
C1681 C1680 1.391 . S
C1681 C1685 1.376 . S
C1682 C1680 1.394 . S
C1682 C1683 1.369 . S
C1682 C1686 1.531 . S
C1683 C1682 1.369 . S
C1683 C1684 1.410 . S
C1683 C1691 1.503 . S
C1684 C1683 1.410 . S
C1684 C1685 1.392 . S
C1684 C1687 1.511 . S
C1685 C1681 1.376 . S
C1685 C1684 1.392 . S
C1685 H1697 0.929 . S
C1686 C1682 1.531 . S
C1686 H1698 0.960 1_554 S
C1686 H1699 0.962 1_554 S
C1686 H1700 0.960 . S
C1687 C1684 1.511 . S
C1687 H1701 0.961 . S
C1687 H1702 0.961 . S
C1687 H1703 0.961 . S
C1688 C1689 1.370 . S
C1688 C1690 1.363 . S
C1688 H1704 0.931 . S
C1689 C1688 1.370 . S
C1689 C1693 1.408 . S
C1690 C1688 1.363 . S
C1690 C1691 1.370 1_556 S
C1690 C1694 1.524 1_556 S
C1691 C1683 1.503 . S
C1691 C1690 1.370 1_554 S
C1691 C1692 1.403 1_554 S
C1692 C1691 1.403 1_556 S
C1692 C1693 1.404 . S
C1692 C1695 1.539 1_556 S
C1693 C1689 1.408 . S
C1693 C1692 1.404 . S
C1693 H1705 0.930 . S
C1694 C1690 1.524 1_554 S
C1694 H1706 0.956 . S
C1694 H1707 0.961 . S
C1694 H1708 0.961 . S
C1695 C1692 1.539 1_554 S
C1695 H1709 0.958 1_554 S
C1695 H1710 0.962 1_554 S
C1695 H1711 0.960 . S
H1696 C1680 0.931 . S
H1697 C1685 0.929 . S
H1698 C1686 0.960 1_556 S
H1699 C1686 0.962 1_556 S
H1700 C1686 0.960 . S
H1701 C1687 0.961 . S
H1702 C1687 0.961 . S
H1703 C1687 0.961 . S
H1704 C1688 0.931 . S
H1705 C1693 0.930 . S
H1706 C1694 0.956 . S
H1707 C1694 0.961 . S
H1708 C1694 0.961 . S
H1709 C1695 0.958 1_556 S
H1710 C1695 0.962 1_556 S
H1711 C1695 0.960 . S
C1712 C1713 1.391 . S
C1712 C1714 1.394 . S
C1712 H1728 0.931 . S
C1713 C1712 1.391 . S
C1713 C1717 1.376 . S
C1714 C1712 1.394 . S
C1714 C1715 1.369 . S
C1714 C1718 1.531 . S
C1715 C1714 1.369 . S
C1715 C1716 1.410 . S
C1715 C1723 1.503 . S
C1716 C1715 1.410 . S
C1716 C1717 1.392 . S
C1716 C1719 1.511 . S
C1717 C1713 1.376 . S
C1717 C1716 1.392 . S
C1717 H1729 0.929 . S
C1718 C1714 1.531 . S
C1718 H1730 0.960 . S
C1718 H1731 0.962 . S
C1718 H1732 0.960 . S
C1719 C1716 1.511 . S
C1719 H1733 0.961 . S
C1719 H1734 0.961 . S
C1719 H1735 0.961 . S
C1720 C1721 1.370 . S
C1720 C1722 1.363 . S
C1720 H1736 0.931 . S
C1721 C1720 1.370 . S
C1721 C1725 1.408 . S
C1722 C1720 1.363 . S
C1722 C1723 1.370 . S
C1722 C1726 1.524 . S
C1723 C1715 1.503 . S
C1723 C1722 1.370 . S
C1723 C1724 1.403 . S
C1724 C1723 1.403 . S
C1724 C1725 1.404 . S
C1724 C1727 1.539 . S
C1725 C1721 1.408 . S
C1725 C1724 1.404 . S
C1725 H1737 0.930 . S
C1726 C1722 1.524 . S
C1726 H1738 0.956 . S
C1726 H1739 0.961 . S
C1726 H1740 0.961 . S
C1727 C1724 1.539 . S
C1727 H1741 0.958 . S
C1727 H1742 0.961 . S
C1727 H1743 0.960 . S
H1728 C1712 0.931 . S
H1729 C1717 0.929 . S
H1730 C1718 0.960 . S
H1731 C1718 0.962 . S
H1732 C1718 0.960 . S
H1733 C1719 0.961 . S
H1734 C1719 0.961 . S
H1735 C1719 0.961 . S
H1736 C1720 0.931 . S
H1737 C1725 0.930 . S
H1738 C1726 0.956 . S
H1739 C1726 0.961 . S
H1740 C1726 0.961 . S
H1741 C1727 0.958 . S
H1742 C1727 0.961 . S
H1743 C1727 0.960 . S
C1744 C1745 1.391 . S
C1744 C1746 1.394 . S
C1744 H1760 0.931 . S
C1745 C1744 1.391 . S
C1745 C1749 1.376 . S
C1746 C1744 1.394 . S
C1746 C1747 1.369 . S
C1746 C1750 1.531 . S
C1747 C1746 1.369 . S
C1747 C1748 1.410 . S
C1747 C1755 1.503 1_565 S
C1748 C1747 1.410 . S
C1748 C1749 1.392 . S
C1748 C1751 1.511 . S
C1749 C1745 1.376 . S
C1749 C1748 1.392 . S
C1749 H1761 0.929 . S
C1750 C1746 1.531 . S
C1750 H1762 0.960 1_565 S
C1750 H1763 0.962 . S
C1750 H1764 0.960 . S
C1751 C1748 1.511 . S
C1751 H1765 0.961 . S
C1751 H1766 0.961 . S
C1751 H1767 0.961 . S
C1752 C1753 1.370 . S
C1752 C1754 1.334 1_545 S
C1752 H1768 0.931 . S
C1753 C1752 1.370 . S
C1753 C1757 1.408 . S
C1754 C1752 1.334 1_565 S
C1754 C1755 1.366 1_565 S
C1754 C1758 1.558 . S
C1755 C1747 1.503 1_545 S
C1755 C1754 1.366 1_545 S
C1755 C1756 1.403 . S
C1756 C1755 1.403 . S
C1756 C1757 1.404 . S
C1756 C1759 1.539 . S
C1757 C1753 1.408 . S
C1757 C1756 1.404 . S
C1757 H1769 0.930 . S
C1758 C1754 1.558 . S
C1758 H1770 0.956 . S
C1758 H1771 0.961 . S
C1758 H1772 0.961 . S
C1759 C1756 1.539 . S
C1759 H1773 0.958 . S
C1759 H1774 0.961 . S
C1759 H1775 0.960 . S
H1760 C1744 0.931 . S
H1761 C1749 0.929 . S
H1762 C1750 0.960 1_545 S
H1763 C1750 0.962 . S
H1764 C1750 0.960 . S
H1765 C1751 0.961 . S
H1766 C1751 0.961 . S
H1767 C1751 0.961 . S
H1768 C1752 0.931 . S
H1769 C1757 0.930 . S
H1770 C1758 0.956 . S
H1771 C1758 0.961 . S
H1772 C1758 0.961 . S
H1773 C1759 0.958 . S
H1774 C1759 0.961 . S
H1775 C1759 0.960 . S
C1776 C1777 1.391 . S
C1776 C1778 1.394 . S
C1776 H1792 0.931 . S
C1777 C1776 1.391 . S
C1777 C1781 1.376 . S
C1778 C1776 1.394 . S
C1778 C1779 1.369 . S
C1778 C1782 1.531 . S
C1779 C1778 1.369 . S
C1779 C1780 1.410 . S
C1779 C1787 1.503 . S
C1780 C1779 1.410 . S
C1780 C1781 1.392 . S
C1780 C1783 1.511 . S
C1781 C1777 1.376 . S
C1781 C1780 1.392 . S
C1781 H1793 0.929 . S
C1782 C1778 1.531 . S
C1782 H1794 0.960 . S
C1782 H1795 0.962 . S
C1782 H1796 0.960 . S
C1783 C1780 1.511 . S
C1783 H1797 0.961 . S
C1783 H1798 0.961 . S
C1783 H1799 0.961 . S
C1784 C1785 1.370 . S
C1784 C1786 1.363 . S
C1784 H1800 0.931 . S
C1785 C1784 1.370 . S
C1785 C1789 1.408 . S
C1786 C1784 1.363 . S
C1786 C1787 1.370 . S
C1786 C1790 1.524 . S
C1787 C1779 1.503 . S
C1787 C1786 1.370 . S
C1787 C1788 1.403 . S
C1788 C1787 1.403 . S
C1788 C1789 1.404 . S
C1788 C1791 1.539 . S
C1789 C1785 1.408 . S
C1789 C1788 1.404 . S
C1789 H1801 0.930 . S
C1790 C1786 1.524 . S
C1790 H1802 0.956 . S
C1790 H1803 0.961 . S
C1790 H1804 0.961 . S
C1791 C1788 1.539 . S
C1791 H1805 0.958 . S
C1791 H1806 0.961 . S
C1791 H1807 0.960 . S
H1792 C1776 0.931 . S
H1793 C1781 0.929 . S
H1794 C1782 0.960 . S
H1795 C1782 0.962 . S
H1796 C1782 0.960 . S
H1797 C1783 0.961 . S
H1798 C1783 0.961 . S
H1799 C1783 0.961 . S
H1800 C1784 0.931 . S
H1801 C1789 0.930 . S
H1802 C1790 0.956 . S
H1803 C1790 0.961 . S
H1804 C1790 0.961 . S
H1805 C1791 0.958 . S
H1806 C1791 0.961 . S
H1807 C1791 0.960 . S
C1808 C1809 1.391 . S
C1808 C1810 1.394 . S
C1808 H1824 0.931 . S
C1809 C1808 1.391 . S
C1809 C1813 1.376 . S
C1810 C1808 1.394 . S
C1810 C1811 1.369 . S
C1810 C1814 1.530 . S
C1811 C1810 1.369 . S
C1811 C1812 1.410 . S
C1811 C1819 1.503 . S
C1812 C1811 1.410 . S
C1812 C1813 1.392 . S
C1812 C1815 1.511 . S
C1813 C1809 1.376 . S
C1813 C1812 1.392 . S
C1813 H1825 0.929 . S
C1814 C1810 1.530 . S
C1814 H1826 0.960 1_545 S
C1814 H1827 0.962 1_545 S
C1814 H1828 0.960 1_545 S
C1815 C1812 1.511 . S
C1815 H1829 0.961 . S
C1815 H1830 0.961 . S
C1815 H1831 0.961 . S
C1816 C1817 1.370 . S
C1816 C1818 1.363 1_565 S
C1816 H1832 0.931 . S
C1817 C1816 1.370 . S
C1817 C1821 1.408 . S
C1818 C1816 1.363 1_545 S
C1818 C1819 1.370 . S
C1818 C1822 1.524 . S
C1819 C1811 1.503 . S
C1819 C1818 1.370 . S
C1819 C1820 1.403 1_545 S
C1820 C1819 1.403 1_565 S
C1820 C1821 1.404 . S
C1820 C1823 1.539 . S
C1821 C1817 1.408 . S
C1821 C1820 1.404 . S
C1821 H1833 0.930 . S
C1822 C1818 1.524 . S
C1822 H1834 0.956 . S
C1822 H1835 0.961 . S
C1822 H1836 0.961 . S
C1823 C1820 1.539 . S
C1823 H1837 0.958 . S
C1823 H1838 0.961 . S
C1823 H1839 0.960 1_565 S
H1824 C1808 0.931 . S
H1825 C1813 0.929 . S
H1826 C1814 0.960 1_565 S
H1827 C1814 0.962 1_565 S
H1828 C1814 0.960 1_565 S
H1829 C1815 0.961 . S
H1830 C1815 0.961 . S
H1831 C1815 0.961 . S
H1832 C1816 0.931 . S
H1833 C1821 0.930 . S
H1834 C1822 0.956 . S
H1835 C1822 0.961 . S
H1836 C1822 0.961 . S
H1837 C1823 0.958 . S
H1838 C1823 0.961 . S
H1839 C1823 0.960 1_545 S
C1840 C1841 1.391 . S
C1840 C1842 1.394 . S
C1840 H1856 0.931 . S
C1841 C1840 1.391 . S
C1841 C1845 1.376 . S
C1842 C1840 1.394 . S
C1842 C1843 1.369 . S
C1842 C1846 1.531 . S
C1843 C1842 1.369 . S
C1843 C1844 1.410 . S
C1843 C1851 1.503 . S
C1844 C1843 1.410 . S
C1844 C1845 1.392 . S
C1844 C1847 1.511 . S
C1845 C1841 1.376 . S
C1845 C1844 1.392 . S
C1845 H1857 0.929 . S
C1846 C1842 1.531 . S
C1846 H1858 0.960 . S
C1846 H1859 0.962 . S
C1846 H1860 0.960 . S
C1847 C1844 1.511 . S
C1847 H1861 0.961 . S
C1847 H1862 0.961 . S
C1847 H1863 0.961 . S
C1848 C1849 1.370 . S
C1848 C1850 1.363 . S
C1848 H1864 0.931 . S
C1849 C1848 1.370 . S
C1849 C1853 1.408 . S
C1850 C1848 1.363 . S
C1850 C1851 1.370 . S
C1850 C1854 1.524 . S
C1851 C1843 1.503 . S
C1851 C1850 1.370 . S
C1851 C1852 1.403 . S
C1852 C1851 1.403 . S
C1852 C1853 1.404 . S
C1852 C1855 1.539 . S
C1853 C1849 1.408 . S
C1853 C1852 1.404 . S
C1853 H1865 0.930 . S
C1854 C1850 1.524 . S
C1854 H1866 0.956 . S
C1854 H1867 0.961 . S
C1854 H1868 0.961 . S
C1855 C1852 1.539 . S
C1855 H1869 0.958 . S
C1855 H1870 0.961 . S
C1855 H1871 0.960 . S
H1856 C1840 0.931 . S
H1857 C1845 0.929 . S
H1858 C1846 0.960 . S
H1859 C1846 0.962 . S
H1860 C1846 0.960 . S
H1861 C1847 0.961 . S
H1862 C1847 0.961 . S
H1863 C1847 0.961 . S
H1864 C1848 0.931 . S
H1865 C1853 0.930 . S
H1866 C1854 0.956 . S
H1867 C1854 0.961 . S
H1868 C1854 0.961 . S
H1869 C1855 0.958 . S
H1870 C1855 0.961 . S
H1871 C1855 0.960 . S
C1872 C1873 1.391 . S
C1872 C1874 1.394 . S
C1872 H1888 0.931 . S
C1873 C1872 1.391 . S
C1873 C1877 1.376 . S
C1874 C1872 1.394 . S
C1874 C1875 1.369 . S
C1874 C1878 1.531 . S
C1875 C1874 1.369 . S
C1875 C1876 1.410 . S
C1875 C1883 1.503 1_565 S
C1876 C1875 1.410 . S
C1876 C1877 1.392 . S
C1876 C1879 1.511 1_565 S
C1877 C1873 1.376 . S
C1877 C1876 1.392 . S
C1877 H1889 0.929 . S
C1878 C1874 1.531 . S
C1878 H1890 0.960 . S
C1878 H1891 0.962 . S
C1878 H1892 0.960 . S
C1879 C1876 1.511 1_545 S
C1879 H1893 0.961 . S
C1879 H1894 0.961 . S
C1879 H1895 0.961 . S
C1880 C1881 1.370 . S
C1880 C1882 1.363 . S
C1880 H1896 0.931 . S
C1881 C1880 1.370 . S
C1881 C1885 1.408 . S
C1882 C1880 1.363 . S
C1882 C1883 1.370 . S
C1882 C1886 1.524 . S
C1883 C1875 1.503 1_545 S
C1883 C1882 1.370 . S
C1883 C1884 1.403 . S
C1884 C1883 1.403 . S
C1884 C1885 1.404 . S
C1884 C1887 1.539 1_545 S
C1885 C1881 1.408 . S
C1885 C1884 1.404 . S
C1885 H1897 0.930 . S
C1886 C1882 1.524 . S
C1886 H1898 0.956 1_545 S
C1886 H1899 0.961 . S
C1886 H1900 0.961 . S
C1887 C1884 1.539 1_565 S
C1887 H1901 0.958 . S
C1887 H1902 0.961 1_565 S
C1887 H1903 0.960 . S
H1888 C1872 0.931 . S
H1889 C1877 0.929 . S
H1890 C1878 0.960 . S
H1891 C1878 0.962 . S
H1892 C1878 0.960 . S
H1893 C1879 0.961 . S
H1894 C1879 0.961 . S
H1895 C1879 0.961 . S
H1896 C1880 0.931 . S
H1897 C1885 0.930 . S
H1898 C1886 0.956 1_565 S
H1899 C1886 0.961 . S
H1900 C1886 0.961 . S
H1901 C1887 0.958 . S
H1902 C1887 0.961 1_545 S
H1903 C1887 0.960 . S
C1904 C1905 1.391 . S
C1904 C1906 1.394 . S
C1904 H1920 0.931 . S
C1905 C1904 1.391 . S
C1905 C1909 1.376 . S
C1906 C1904 1.394 . S
C1906 C1907 1.369 . S
C1906 C1910 1.531 . S
C1907 C1906 1.369 . S
C1907 C1908 1.410 . S
C1907 C1915 1.503 . S
C1908 C1907 1.410 . S
C1908 C1909 1.392 . S
C1908 C1911 1.511 . S
C1909 C1905 1.376 . S
C1909 C1908 1.392 . S
C1909 H1921 0.929 . S
C1910 C1906 1.531 . S
C1910 H1922 0.960 . S
C1910 H1923 0.962 . S
C1910 H1924 0.990 . S
C1911 C1908 1.511 . S
C1911 H1925 0.961 . S
C1911 H1926 0.961 . S
C1911 H1927 0.961 . S
C1912 C1913 1.370 . S
C1912 C1914 1.363 . S
C1912 H1928 0.931 . S
C1913 C1912 1.370 . S
C1913 C1917 1.408 . S
C1914 C1912 1.363 . S
C1914 C1915 1.370 . S
C1914 C1918 1.524 . S
C1915 C1907 1.503 . S
C1915 C1914 1.370 . S
C1915 C1916 1.403 . S
C1916 C1915 1.403 . S
C1916 C1917 1.404 . S
C1916 C1919 1.539 . S
C1917 C1913 1.408 . S
C1917 C1916 1.404 . S
C1917 H1929 0.930 . S
C1918 C1914 1.524 . S
C1918 H1930 0.956 . S
C1918 H1931 0.961 . S
C1918 H1932 0.961 . S
C1919 C1916 1.539 . S
C1919 H1933 0.958 . S
C1919 H1934 0.961 . S
C1919 H1935 0.960 . S
H1920 C1904 0.931 . S
H1921 C1909 0.929 . S
H1922 C1910 0.960 . S
H1923 C1910 0.962 . S
H1924 C1910 0.990 . S
H1925 C1911 0.961 . S
H1926 C1911 0.961 . S
H1927 C1911 0.961 . S
H1928 C1912 0.931 . S
H1929 C1917 0.930 . S
H1930 C1918 0.956 . S
H1931 C1918 0.961 . S
H1932 C1918 0.961 . S
H1933 C1919 0.958 . S
H1934 C1919 0.961 . S
H1935 C1919 0.960 . S
C1936 C1937 1.391 . S
C1936 C1938 1.394 . S
C1936 H1952 0.966 . S
C1937 C1936 1.391 . S
C1937 C1941 1.376 . S
C1938 C1936 1.394 . S
C1938 C1939 1.369 . S
C1938 C1942 1.531 . S
C1939 C1938 1.369 . S
C1939 C1940 1.410 . S
C1939 C1947 1.503 . S
C1940 C1939 1.410 . S
C1940 C1941 1.392 . S
C1940 C1943 1.511 . S
C1941 C1937 1.376 . S
C1941 C1940 1.392 . S
C1941 H1953 0.929 . S
C1942 C1938 1.531 . S
C1942 H1954 0.960 . S
C1942 H1955 0.962 . S
C1942 H1956 0.960 1_556 S
C1943 C1940 1.511 . S
C1943 H1957 0.961 . S
C1943 H1958 0.961 . S
C1943 H1959 0.961 . S
C1944 C1945 1.370 . S
C1944 C1946 1.363 1_565 S
C1944 H1960 0.931 . S
C1945 C1944 1.370 . S
C1945 C1949 1.408 . S
C1946 C1944 1.363 1_545 S
C1946 C1947 1.370 . S
C1946 C1950 1.524 . S
C1947 C1939 1.503 . S
C1947 C1946 1.370 . S
C1947 C1948 1.403 1_545 S
C1948 C1947 1.403 1_565 S
C1948 C1949 1.404 . S
C1948 C1951 1.539 . S
C1949 C1945 1.408 . S
C1949 C1948 1.404 . S
C1949 H1961 0.930 . S
C1950 C1946 1.524 . S
C1950 H1962 0.956 . S
C1950 H1963 0.961 . S
C1950 H1964 0.961 . S
C1951 C1948 1.539 . S
C1951 H1965 0.958 . S
C1951 H1966 0.961 . S
C1951 H1967 0.960 . S
H1952 C1936 0.966 . S
H1953 C1941 0.929 . S
H1954 C1942 0.960 . S
H1955 C1942 0.962 . S
H1956 C1942 0.960 1_554 S
H1957 C1943 0.961 . S
H1958 C1943 0.961 . S
H1959 C1943 0.961 . S
H1960 C1944 0.931 . S
H1961 C1949 0.930 . S
H1962 C1950 0.956 . S
H1963 C1950 0.961 . S
H1964 C1950 0.961 . S
H1965 C1951 0.958 . S
H1966 C1951 0.961 . S
H1967 C1951 0.960 . S
C1968 C1969 1.391 . S
C1968 C1970 1.394 . S
C1968 H1984 0.931 . S
C1969 C1968 1.391 . S
C1969 C1973 1.376 . S
C1970 C1968 1.394 . S
C1970 C1971 1.369 . S
C1970 C1974 1.531 . S
C1971 C1970 1.369 . S
C1971 C1972 1.410 . S
C1971 C1979 1.503 . S
C1972 C1971 1.410 . S
C1972 C1973 1.392 . S
C1972 C1975 1.511 . S
C1973 C1969 1.376 . S
C1973 C1972 1.392 . S
C1973 H1985 0.929 . S
C1974 C1970 1.531 . S
C1974 H1986 0.960 . S
C1974 H1987 0.962 . S
C1974 H1988 0.960 . S
C1975 C1972 1.511 . S
C1975 H1989 0.961 . S
C1975 H1990 0.961 . S
C1975 H1991 0.961 . S
C1976 C1977 1.370 . S
C1976 C1978 1.363 . S
C1976 H1992 0.931 . S
C1977 C1976 1.370 . S
C1977 C1981 1.408 . S
C1978 C1976 1.363 . S
C1978 C1979 1.370 . S
C1978 C1982 1.524 . S
C1979 C1971 1.503 . S
C1979 C1978 1.370 . S
C1979 C1980 1.403 . S
C1980 C1979 1.403 . S
C1980 C1981 1.404 . S
C1980 C1983 1.539 . S
C1981 C1977 1.408 . S
C1981 C1980 1.404 . S
C1981 H1993 0.930 . S
C1982 C1978 1.524 . S
C1982 H1994 0.956 . S
C1982 H1995 0.961 . S
C1982 H1996 0.961 . S
C1983 C1980 1.539 . S
C1983 H1997 0.958 . S
C1983 H1998 0.961 . S
C1983 H1999 0.960 . S
H1984 C1968 0.931 . S
H1985 C1973 0.929 . S
H1986 C1974 0.960 . S
H1987 C1974 0.962 . S
H1988 C1974 0.960 . S
H1989 C1975 0.961 . S
H1990 C1975 0.961 . S
H1991 C1975 0.961 . S
H1992 C1976 0.931 . S
H1993 C1981 0.930 . S
H1994 C1982 0.956 . S
H1995 C1982 0.961 . S
H1996 C1982 0.961 . S
H1997 C1983 0.958 . S
H1998 C1983 0.961 . S
H1999 C1983 0.960 . S
C2000 C2001 1.391 . S
C2000 C2002 1.394 . S
C2000 H2016 0.931 . S
C2001 C2000 1.391 . S
C2001 C2005 1.376 . S
C2002 C2000 1.394 . S
C2002 C2003 1.369 . S
C2002 C2006 1.531 . S
C2003 C2002 1.369 . S
C2003 C2004 1.410 . S
C2003 C2011 1.503 . S
C2004 C2003 1.410 . S
C2004 C2005 1.392 . S
C2004 C2007 1.511 . S
C2005 C2001 1.376 . S
C2005 C2004 1.392 . S
C2005 H2017 0.929 . S
C2006 C2002 1.531 . S
C2006 H2018 0.960 . S
C2006 H2019 0.962 . S
C2006 H2020 0.960 . S
C2007 C2004 1.511 . S
C2007 H2021 0.961 . S
C2007 H2022 0.961 . S
C2007 H2023 0.961 . S
C2008 C2009 1.370 . S
C2008 C2010 1.363 . S
C2008 H2024 0.931 . S
C2009 C2008 1.370 . S
C2009 C2013 1.408 . S
C2010 C2008 1.363 . S
C2010 C2011 1.370 . S
C2010 C2014 1.524 . S
C2011 C2003 1.503 . S
C2011 C2010 1.370 . S
C2011 C2012 1.403 . S
C2012 C2011 1.403 . S
C2012 C2013 1.404 . S
C2012 C2015 1.539 . S
C2013 C2009 1.408 . S
C2013 C2012 1.404 . S
C2013 H2025 0.930 . S
C2014 C2010 1.524 . S
C2014 H2026 0.956 . S
C2014 H2027 0.961 . S
C2014 H2028 0.961 . S
C2015 C2012 1.539 . S
C2015 H2029 0.958 . S
C2015 H2030 0.961 . S
C2015 H2031 0.960 . S
H2016 C2000 0.931 . S
H2017 C2005 0.929 . S
H2018 C2006 0.960 . S
H2019 C2006 0.962 . S
H2020 C2006 0.960 . S
H2021 C2007 0.961 . S
H2022 C2007 0.961 . S
H2023 C2007 0.961 . S
H2024 C2008 0.931 . S
H2025 C2013 0.930 . S
H2026 C2014 0.956 . S
H2027 C2014 0.961 . S
H2028 C2014 0.961 . S
H2029 C2015 0.958 . S
H2030 C2015 0.961 . S
H2031 C2015 0.960 . S
C2032 C2033 1.391 . S
C2032 C2034 1.394 . S
C2032 H2048 0.931 . S
C2033 C2032 1.391 . S
C2033 C2037 1.376 . S
C2034 C2032 1.394 . S
C2034 C2035 1.369 . S
C2034 C2038 1.531 . S
C2035 C2034 1.369 . S
C2035 C2036 1.410 . S
C2035 C2043 1.474 1_655 S
C2036 C2035 1.410 . S
C2036 C2037 1.392 . S
C2036 C2039 1.511 1_655 S
C2037 C2033 1.376 . S
C2037 C2036 1.392 . S
C2037 H2049 0.929 . S
C2038 C2034 1.531 . S
C2038 H2050 0.960 . S
C2038 H2051 0.962 . S
C2038 H2052 0.960 . S
C2039 C2036 1.511 1_455 S
C2039 H2053 0.961 . S
C2039 H2054 0.961 . S
C2039 H2055 0.961 . S
C2040 C2041 1.370 . S
C2040 C2042 1.363 . S
C2040 H2056 0.931 . S
C2041 C2040 1.370 . S
C2041 C2045 1.408 . S
C2042 C2040 1.363 . S
C2042 C2043 1.378 . S
C2042 C2046 1.524 1_455 S
C2043 C2035 1.474 1_455 S
C2043 C2042 1.378 . S
C2043 C2044 1.426 . S
C2044 C2043 1.426 . S
C2044 C2045 1.404 . S
C2044 C2047 1.539 . S
C2045 C2041 1.408 . S
C2045 C2044 1.404 . S
C2045 H2057 0.930 . S
C2046 C2042 1.524 1_655 S
C2046 H2058 0.956 . S
C2046 H2059 0.961 . S
C2046 H2060 0.961 . S
C2047 C2044 1.539 . S
C2047 H2061 0.958 . S
C2047 H2062 0.961 . S
C2047 H2063 0.960 . S
H2048 C2032 0.931 . S
H2049 C2037 0.929 . S
H2050 C2038 0.960 . S
H2051 C2038 0.962 . S
H2052 C2038 0.960 . S
H2053 C2039 0.961 . S
H2054 C2039 0.961 . S
H2055 C2039 0.961 . S
H2056 C2040 0.931 . S
H2057 C2045 0.930 . S
H2058 C2046 0.956 . S
H2059 C2046 0.961 . S
H2060 C2046 0.961 . S
H2061 C2047 0.958 . S
H2062 C2047 0.961 . S
H2063 C2047 0.960 . S
C2064 C2065 1.391 . S
C2064 C2066 1.394 . S
C2064 H2080 0.931 . S
C2065 C2064 1.391 . S
C2065 C2069 1.376 . S
C2066 C2064 1.394 . S
C2066 C2067 1.369 . S
C2066 C2070 1.531 . S
C2067 C2066 1.369 . S
C2067 C2068 1.410 . S
C2067 C2075 1.503 . S
C2068 C2067 1.410 . S
C2068 C2069 1.392 . S
C2068 C2071 1.511 . S
C2069 C2065 1.376 . S
C2069 C2068 1.392 . S
C2069 H2081 0.929 . S
C2070 C2066 1.531 . S
C2070 H2082 0.960 . S
C2070 H2083 0.962 . S
C2070 H2084 0.960 . S
C2071 C2068 1.511 . S
C2071 H2085 0.961 . S
C2071 H2086 0.961 . S
C2071 H2087 0.961 . S
C2072 C2073 1.370 . S
C2072 C2074 1.363 . S
C2072 H2088 0.931 . S
C2073 C2072 1.370 . S
C2073 C2077 1.408 . S
C2074 C2072 1.363 . S
C2074 C2075 1.370 . S
C2074 C2078 1.524 . S
C2075 C2067 1.503 . S
C2075 C2074 1.370 . S
C2075 C2076 1.403 . S
C2076 C2075 1.403 . S
C2076 C2077 1.404 . S
C2076 C2079 1.539 . S
C2077 C2073 1.408 . S
C2077 C2076 1.404 . S
C2077 H2089 0.930 . S
C2078 C2074 1.524 . S
C2078 H2090 0.956 . S
C2078 H2091 0.961 . S
C2078 H2092 0.961 . S
C2079 C2076 1.539 . S
C2079 H2093 0.958 . S
C2079 H2094 0.961 . S
C2079 H2095 0.960 . S
H2080 C2064 0.931 . S
H2081 C2069 0.929 . S
H2082 C2070 0.960 . S
H2083 C2070 0.962 . S
H2084 C2070 0.960 . S
H2085 C2071 0.961 . S
H2086 C2071 0.961 . S
H2087 C2071 0.961 . S
H2088 C2072 0.931 . S
H2089 C2077 0.930 . S
H2090 C2078 0.956 . S
H2091 C2078 0.961 . S
H2092 C2078 0.961 . S
H2093 C2079 0.958 . S
H2094 C2079 0.961 . S
H2095 C2079 0.960 . S
C2096 C2097 1.391 . S
C2096 C2098 1.394 . S
C2096 H2112 0.931 . S
C2097 C2096 1.391 . S
C2097 C2101 1.376 . S
C2098 C2096 1.394 . S
C2098 C2099 1.369 . S
C2098 C2102 1.531 . S
C2099 C2098 1.369 . S
C2099 C2100 1.410 . S
C2099 C2107 1.503 . S
C2100 C2099 1.410 . S
C2100 C2101 1.392 . S
C2100 C2103 1.511 . S
C2101 C2097 1.376 . S
C2101 C2100 1.392 . S
C2101 H2113 0.929 . S
C2102 C2098 1.531 . S
C2102 H2114 0.960 . S
C2102 H2115 0.962 . S
C2102 H2116 0.960 . S
C2103 C2100 1.511 . S
C2103 H2117 0.961 . S
C2103 H2118 0.961 . S
C2103 H2119 0.961 . S
C2104 C2105 1.370 . S
C2104 C2106 1.363 1_655 S
C2104 H2120 0.931 . S
C2105 C2104 1.370 . S
C2105 C2109 1.408 . S
C2106 C2104 1.363 1_455 S
C2106 C2107 1.370 . S
C2106 C2110 1.524 . S
C2107 C2099 1.503 . S
C2107 C2106 1.370 . S
C2107 C2108 1.403 1_455 S
C2108 C2107 1.403 1_655 S
C2108 C2109 1.404 . S
C2108 C2111 1.539 . S
C2109 C2105 1.408 . S
C2109 C2108 1.404 . S
C2109 H2121 0.930 . S
C2110 C2106 1.524 . S
C2110 H2122 0.956 . S
C2110 H2123 0.961 . S
C2110 H2124 0.961 . S
C2111 C2108 1.539 . S
C2111 H2125 0.958 . S
C2111 H2126 0.961 . S
C2111 H2127 0.960 . S
H2112 C2096 0.931 . S
H2113 C2101 0.929 . S
H2114 C2102 0.960 . S
H2115 C2102 0.962 . S
H2116 C2102 0.960 . S
H2117 C2103 0.961 . S
H2118 C2103 0.961 . S
H2119 C2103 0.961 . S
H2120 C2104 0.931 . S
H2121 C2109 0.930 . S
H2122 C2110 0.956 . S
H2123 C2110 0.961 . S
H2124 C2110 0.961 . S
H2125 C2111 0.958 . S
H2126 C2111 0.961 . S
H2127 C2111 0.960 . S
C2128 C2129 1.391 . S
C2128 C2130 1.394 . S
C2128 H2144 0.931 . S
C2129 C2128 1.391 . S
C2129 C2133 1.376 . S
C2130 C2128 1.394 . S
C2130 C2131 1.369 . S
C2130 C2134 1.531 . S
C2131 C2130 1.369 . S
C2131 C2132 1.410 . S
C2131 C2139 1.503 . S
C2132 C2131 1.410 . S
C2132 C2133 1.392 . S
C2132 C2135 1.511 . S
C2133 C2129 1.376 . S
C2133 C2132 1.392 . S
C2133 H2145 0.929 . S
C2134 C2130 1.531 . S
C2134 H2146 0.960 . S
C2134 H2147 0.962 . S
C2134 H2148 0.960 . S
C2135 C2132 1.511 . S
C2135 H2149 0.961 . S
C2135 H2150 0.961 . S
C2135 H2151 0.961 . S
C2136 C2137 1.370 . S
C2136 C2138 1.363 . S
C2136 H2152 0.931 . S
C2137 C2136 1.370 . S
C2137 C2141 1.408 . S
C2138 C2136 1.363 . S
C2138 C2139 1.370 . S
C2138 C2142 1.524 . S
C2139 C2131 1.503 . S
C2139 C2138 1.370 . S
C2139 C2140 1.403 . S
C2140 C2139 1.403 . S
C2140 C2141 1.404 . S
C2140 C2143 1.539 . S
C2141 C2137 1.408 . S
C2141 C2140 1.404 . S
C2141 H2153 0.930 . S
C2142 C2138 1.524 . S
C2142 H2154 0.956 . S
C2142 H2155 0.961 . S
C2142 H2156 0.961 . S
C2143 C2140 1.539 . S
C2143 H2157 0.958 . S
C2143 H2158 0.961 . S
C2143 H2159 0.960 . S
H2144 C2128 0.931 . S
H2145 C2133 0.929 . S
H2146 C2134 0.960 . S
H2147 C2134 0.962 . S
H2148 C2134 0.960 . S
H2149 C2135 0.961 . S
H2150 C2135 0.961 . S
H2151 C2135 0.961 . S
H2152 C2136 0.931 . S
H2153 C2141 0.930 . S
H2154 C2142 0.956 . S
H2155 C2142 0.961 . S
H2156 C2142 0.961 . S
H2157 C2143 0.958 . S
H2158 C2143 0.961 . S
H2159 C2143 0.960 . S
C2160 C2161 1.391 . S
C2160 C2162 1.394 . S
C2160 H2176 0.931 . S
C2161 C2160 1.391 . S
C2161 C2165 1.376 . S
C2162 C2160 1.394 . S
C2162 C2163 1.369 . S
C2162 C2166 1.531 . S
C2163 C2162 1.369 . S
C2163 C2164 1.410 . S
C2163 C2171 1.503 . S
C2164 C2163 1.410 . S
C2164 C2165 1.392 . S
C2164 C2167 1.511 . S
C2165 C2161 1.376 . S
C2165 C2164 1.392 . S
C2165 H2177 0.929 . S
C2166 C2162 1.531 . S
C2166 H2178 0.960 . S
C2166 H2179 0.962 . S
C2166 H2180 0.960 . S
C2167 C2164 1.511 . S
C2167 H2181 0.961 . S
C2167 H2182 0.961 1_655 S
C2167 H2183 0.961 . S
C2168 C2169 1.370 . S
C2168 C2170 1.363 . S
C2168 H2184 0.931 . S
C2169 C2168 1.370 . S
C2169 C2173 1.408 . S
C2170 C2168 1.363 . S
C2170 C2171 1.370 1_455 S
C2170 C2174 1.524 . S
C2171 C2163 1.503 . S
C2171 C2170 1.370 1_655 S
C2171 C2172 1.402 1_655 S
C2172 C2171 1.402 1_455 S
C2172 C2173 1.409 . S
C2172 C2175 1.535 1_455 S
C2173 C2169 1.408 . S
C2173 C2172 1.409 . S
C2173 H2185 0.930 . S
C2174 C2170 1.524 . S
C2174 H2186 0.956 . S
C2174 H2187 0.961 . S
C2174 H2188 0.961 . S
C2175 C2172 1.535 1_655 S
C2175 H2189 0.958 . S
C2175 H2190 0.961 . S
C2175 H2191 0.960 . S
H2176 C2160 0.931 . S
H2177 C2165 0.929 . S
H2178 C2166 0.960 . S
H2179 C2166 0.962 . S
H2180 C2166 0.960 . S
H2181 C2167 0.961 . S
H2182 C2167 0.961 1_455 S
H2183 C2167 0.961 . S
H2184 C2168 0.931 . S
H2185 C2173 0.930 . S
H2186 C2174 0.956 . S
H2187 C2174 0.961 . S
H2188 C2174 0.961 . S
H2189 C2175 0.958 . S
H2190 C2175 0.961 . S
H2191 C2175 0.960 . S
C2192 C2193 1.391 . S
C2192 C2194 1.394 . S
C2192 H2208 0.931 . S
C2193 C2192 1.391 . S
C2193 C2197 1.376 . S
C2194 C2192 1.394 . S
C2194 C2195 1.369 . S
C2194 C2198 1.531 . S
C2195 C2194 1.369 . S
C2195 C2196 1.410 . S
C2195 C2203 1.503 . S
C2196 C2195 1.410 . S
C2196 C2197 1.392 . S
C2196 C2199 1.511 . S
C2197 C2193 1.376 . S
C2197 C2196 1.392 . S
C2197 H2209 0.929 . S
C2198 C2194 1.531 . S
C2198 H2210 0.960 . S
C2198 H2211 0.962 . S
C2198 H2212 0.960 . S
C2199 C2196 1.511 . S
C2199 H2213 0.961 . S
C2199 H2214 0.961 . S
C2199 H2215 0.961 . S
C2200 C2201 1.370 . S
C2200 C2202 1.363 . S
C2200 H2216 0.931 . S
C2201 C2200 1.370 . S
C2201 C2205 1.408 . S
C2202 C2200 1.363 . S
C2202 C2203 1.370 . S
C2202 C2206 1.524 . S
C2203 C2195 1.503 . S
C2203 C2202 1.370 . S
C2203 C2204 1.403 . S
C2204 C2203 1.403 . S
C2204 C2205 1.404 . S
C2204 C2207 1.539 . S
C2205 C2201 1.408 . S
C2205 C2204 1.404 . S
C2205 H2217 0.930 . S
C2206 C2202 1.524 . S
C2206 H2218 0.956 . S
C2206 H2219 0.961 . S
C2206 H2220 0.961 . S
C2207 C2204 1.539 . S
C2207 H2221 0.958 . S
C2207 H2222 0.961 . S
C2207 H2223 0.960 . S
H2208 C2192 0.931 . S
H2209 C2197 0.929 . S
H2210 C2198 0.960 . S
H2211 C2198 0.962 . S
H2212 C2198 0.960 . S
H2213 C2199 0.961 . S
H2214 C2199 0.961 . S
H2215 C2199 0.961 . S
H2216 C2200 0.931 . S
H2217 C2205 0.930 . S
H2218 C2206 0.956 . S
H2219 C2206 0.961 . S
H2220 C2206 0.961 . S
H2221 C2207 0.958 . S
H2222 C2207 0.961 . S
H2223 C2207 0.960 . S
C2224 C2225 1.391 . S
C2224 C2226 1.394 . S
C2224 H2240 0.931 . S
C2225 C2224 1.391 . S
C2225 C2229 1.376 . S
C2226 C2224 1.394 . S
C2226 C2227 1.369 . S
C2226 C2230 1.531 . S
C2227 C2226 1.369 . S
C2227 C2228 1.410 . S
C2227 C2235 1.503 . S
C2228 C2227 1.410 . S
C2228 C2229 1.392 . S
C2228 C2231 1.511 . S
C2229 C2225 1.376 . S
C2229 C2228 1.392 . S
C2229 H2241 0.929 . S
C2230 C2226 1.531 . S
C2230 H2242 0.960 . S
C2230 H2243 0.962 . S
C2230 H2244 0.960 . S
C2231 C2228 1.511 . S
C2231 H2245 0.961 . S
C2231 H2246 0.961 . S
C2231 H2247 0.961 . S
C2232 C2233 1.370 . S
C2232 C2234 1.363 . S
C2232 H2248 0.931 . S
C2233 C2232 1.370 . S
C2233 C2237 1.408 . S
C2234 C2232 1.363 . S
C2234 C2235 1.370 . S
C2234 C2238 1.524 . S
C2235 C2227 1.503 . S
C2235 C2234 1.370 . S
C2235 C2236 1.403 . S
C2236 C2235 1.403 . S
C2236 C2237 1.404 . S
C2236 C2239 1.539 . S
C2237 C2233 1.408 . S
C2237 C2236 1.404 . S
C2237 H2249 0.930 . S
C2238 C2234 1.524 . S
C2238 H2250 0.956 . S
C2238 H2251 0.961 . S
C2238 H2252 0.961 . S
C2239 C2236 1.539 . S
C2239 H2253 0.958 . S
C2239 H2254 0.961 . S
C2239 H2255 0.960 . S
H2240 C2224 0.931 . S
H2241 C2229 0.929 . S
H2242 C2230 0.960 . S
H2243 C2230 0.962 . S
H2244 C2230 0.960 . S
H2245 C2231 0.961 . S
H2246 C2231 0.961 . S
H2247 C2231 0.961 . S
H2248 C2232 0.931 . S
H2249 C2237 0.930 . S
H2250 C2238 0.956 . S
H2251 C2238 0.961 . S
H2252 C2238 0.961 . S
H2253 C2239 0.958 . S
H2254 C2239 0.961 . S
H2255 C2239 0.960 . S
C2256 C2257 1.391 . S
C2256 C2258 1.394 . S
C2256 H2272 0.931 . S
C2257 C2256 1.391 . S
C2257 C2261 1.376 . S
C2258 C2256 1.394 . S
C2258 C2259 1.369 . S
C2258 C2262 1.531 . S
C2259 C2258 1.369 . S
C2259 C2260 1.410 . S
C2259 C2267 1.503 . S
C2260 C2259 1.410 . S
C2260 C2261 1.392 . S
C2260 C2263 1.511 . S
C2261 C2257 1.376 . S
C2261 C2260 1.392 . S
C2261 H2273 0.929 . S
C2262 C2258 1.531 . S
C2262 H2274 0.926 1_554 S
C2262 H2275 0.962 . S
C2262 H2276 0.960 . S
C2263 C2260 1.511 . S
C2263 H2277 0.961 . S
C2263 H2278 0.961 . S
C2263 H2279 0.961 . S
C2264 C2265 1.370 . S
C2264 C2266 1.363 1_556 S
C2264 H2280 0.931 . S
C2265 C2264 1.370 . S
C2265 C2269 1.408 . S
C2266 C2264 1.363 1_554 S
C2266 C2267 1.370 . S
C2266 C2270 1.524 . S
C2267 C2259 1.503 . S
C2267 C2266 1.370 . S
C2267 C2268 1.403 1_554 S
C2268 C2267 1.403 1_556 S
C2268 C2269 1.404 . S
C2268 C2271 1.539 . S
C2269 C2265 1.408 . S
C2269 C2268 1.404 . S
C2269 H2281 0.930 . S
C2270 C2266 1.524 . S
C2270 H2282 0.956 . S
C2270 H2283 0.961 . S
C2270 H2284 0.961 . S
C2271 C2268 1.539 . S
C2271 H2285 0.958 . S
C2271 H2286 0.961 . S
C2271 H2287 0.960 . S
H2272 C2256 0.931 . S
H2273 C2261 0.929 . S
H2274 C2262 0.926 1_556 S
H2275 C2262 0.962 . S
H2276 C2262 0.960 . S
H2277 C2263 0.961 . S
H2278 C2263 0.961 . S
H2279 C2263 0.961 . S
H2280 C2264 0.931 . S
H2281 C2269 0.930 . S
H2282 C2270 0.956 . S
H2283 C2270 0.961 . S
H2284 C2270 0.961 . S
H2285 C2271 0.958 . S
H2286 C2271 0.961 . S
H2287 C2271 0.960 . S
C2288 C2289 1.391 . S
C2288 C2290 1.394 . S
C2288 H2304 0.931 . S
C2289 C2288 1.391 . S
C2289 C2293 1.376 . S
C2290 C2288 1.394 . S
C2290 C2291 1.369 . S
C2290 C2294 1.531 . S
C2291 C2290 1.369 . S
C2291 C2292 1.410 . S
C2291 C2299 1.503 . S
C2292 C2291 1.410 . S
C2292 C2293 1.392 . S
C2292 C2295 1.511 . S
C2293 C2289 1.376 . S
C2293 C2292 1.392 . S
C2293 H2305 0.929 . S
C2294 C2290 1.531 . S
C2294 H2306 0.960 . S
C2294 H2307 0.962 . S
C2294 H2308 0.960 . S
C2295 C2292 1.511 . S
C2295 H2309 0.961 . S
C2295 H2310 0.961 . S
C2295 H2311 0.961 . S
C2296 C2297 1.370 . S
C2296 C2298 1.363 . S
C2296 H2312 0.931 . S
C2297 C2296 1.370 . S
C2297 C2301 1.408 . S
C2298 C2296 1.363 . S
C2298 C2299 1.370 . S
C2298 C2302 1.524 . S
C2299 C2291 1.503 . S
C2299 C2298 1.370 . S
C2299 C2300 1.403 . S
C2300 C2299 1.403 . S
C2300 C2301 1.404 . S
C2300 C2303 1.539 . S
C2301 C2297 1.408 . S
C2301 C2300 1.404 . S
C2301 H2313 0.930 . S
C2302 C2298 1.524 . S
C2302 H2314 0.956 . S
C2302 H2315 0.961 . S
C2302 H2316 0.961 . S
C2303 C2300 1.539 . S
C2303 H2317 0.958 . S
C2303 H2318 0.961 . S
C2303 H2319 0.960 . S
H2304 C2288 0.931 . S
H2305 C2293 0.929 . S
H2306 C2294 0.960 . S
H2307 C2294 0.962 . S
H2308 C2294 0.960 . S
H2309 C2295 0.961 . S
H2310 C2295 0.961 . S
H2311 C2295 0.961 . S
H2312 C2296 0.931 . S
H2313 C2301 0.930 . S
H2314 C2302 0.956 . S
H2315 C2302 0.961 . S
H2316 C2302 0.961 . S
H2317 C2303 0.958 . S
H2318 C2303 0.961 . S
H2319 C2303 0.960 . S
C2320 C2321 1.391 . S
C2320 C2322 1.394 . S
C2320 H2336 0.931 . S
C2321 C2320 1.391 . S
C2321 C2325 1.376 . S
C2322 C2320 1.394 . S
C2322 C2323 1.369 . S
C2322 C2326 1.531 . S
C2323 C2322 1.369 . S
C2323 C2324 1.410 . S
C2323 C2331 1.503 . S
C2324 C2323 1.410 . S
C2324 C2325 1.392 . S
C2324 C2327 1.511 . S
C2325 C2321 1.376 . S
C2325 C2324 1.392 . S
C2325 H2337 0.929 . S
C2326 C2322 1.531 . S
C2326 H2338 0.960 . S
C2326 H2339 0.962 . S
C2326 H2340 0.960 . S
C2327 C2324 1.511 . S
C2327 H2341 0.961 . S
C2327 H2342 0.961 . S
C2327 H2343 0.961 . S
C2328 C2329 1.370 . S
C2328 C2330 1.363 . S
C2328 H2344 0.931 . S
C2329 C2328 1.370 . S
C2329 C2333 1.408 . S
C2330 C2328 1.363 . S
C2330 C2331 1.370 . S
C2330 C2334 1.524 . S
C2331 C2323 1.503 . S
C2331 C2330 1.370 . S
C2331 C2332 1.403 . S
C2332 C2331 1.403 . S
C2332 C2333 1.404 . S
C2332 C2335 1.539 . S
C2333 C2329 1.408 . S
C2333 C2332 1.404 . S
C2333 H2345 0.930 . S
C2334 C2330 1.524 . S
C2334 H2346 0.956 . S
C2334 H2347 0.961 . S
C2334 H2348 0.961 . S
C2335 C2332 1.539 . S
C2335 H2349 0.958 . S
C2335 H2350 0.961 . S
C2335 H2351 0.960 . S
H2336 C2320 0.931 . S
H2337 C2325 0.929 . S
H2338 C2326 0.960 . S
H2339 C2326 0.962 . S
H2340 C2326 0.960 . S
H2341 C2327 0.961 . S
H2342 C2327 0.961 . S
H2343 C2327 0.961 . S
H2344 C2328 0.931 . S
H2345 C2333 0.930 . S
H2346 C2334 0.956 . S
H2347 C2334 0.961 . S
H2348 C2334 0.961 . S
H2349 C2335 0.958 . S
H2350 C2335 0.961 . S
H2351 C2335 0.960 . S
C2352 C2353 1.391 . S
C2352 C2354 1.394 . S
C2352 H2368 0.931 . S
C2353 C2352 1.391 . S
C2353 C2357 1.376 . S
C2354 C2352 1.394 . S
C2354 C2355 1.369 . S
C2354 C2358 1.531 . S
C2355 C2354 1.369 . S
C2355 C2356 1.410 . S
C2355 C2363 1.503 . S
C2356 C2355 1.410 . S
C2356 C2357 1.392 . S
C2356 C2359 1.511 . S
C2357 C2353 1.376 . S
C2357 C2356 1.392 . S
C2357 H2369 0.929 . S
C2358 C2354 1.531 . S
C2358 H2370 0.960 . S
C2358 H2371 0.962 . S
C2358 H2372 0.960 . S
C2359 C2356 1.511 . S
C2359 H2373 0.961 . S
C2359 H2374 0.961 . S
C2359 H2375 0.961 . S
C2360 C2361 1.370 . S
C2360 C2362 1.363 . S
C2360 H2376 0.931 . S
C2361 C2360 1.370 . S
C2361 C2365 1.408 . S
C2362 C2360 1.363 . S
C2362 C2363 1.370 . S
C2362 C2366 1.524 . S
C2363 C2355 1.503 . S
C2363 C2362 1.370 . S
C2363 C2364 1.403 . S
C2364 C2363 1.403 . S
C2364 C2365 1.404 . S
C2364 C2367 1.539 . S
C2365 C2361 1.408 . S
C2365 C2364 1.404 . S
C2365 H2377 0.930 . S
C2366 C2362 1.524 . S
C2366 H2378 0.956 . S
C2366 H2379 0.961 . S
C2366 H2380 0.961 . S
C2367 C2364 1.539 . S
C2367 H2381 0.958 . S
C2367 H2382 0.961 . S
C2367 H2383 0.960 . S
H2368 C2352 0.931 . S
H2369 C2357 0.929 . S
H2370 C2358 0.960 . S
H2371 C2358 0.962 . S
H2372 C2358 0.960 . S
H2373 C2359 0.961 . S
H2374 C2359 0.961 . S
H2375 C2359 0.961 . S
H2376 C2360 0.931 . S
H2377 C2365 0.930 . S
H2378 C2366 0.956 . S
H2379 C2366 0.961 . S
H2380 C2366 0.961 . S
H2381 C2367 0.958 . S
H2382 C2367 0.961 . S
H2383 C2367 0.960 . S
C2384 C2385 1.391 . S
C2384 C2386 1.394 . S
C2384 H2400 0.931 . S
C2385 C2384 1.391 . S
C2385 C2389 1.376 . S
C2386 C2384 1.394 . S
C2386 C2387 1.369 . S
C2386 C2390 1.531 . S
C2387 C2386 1.369 . S
C2387 C2388 1.410 . S
C2387 C2395 1.503 1_556 S
C2388 C2387 1.410 . S
C2388 C2389 1.392 . S
C2388 C2391 1.511 . S
C2389 C2385 1.376 . S
C2389 C2388 1.392 . S
C2389 H2401 0.929 . S
C2390 C2386 1.531 . S
C2390 H2402 0.983 . S
C2390 H2403 0.962 . S
C2390 H2404 0.960 . S
C2391 C2388 1.511 . S
C2391 H2405 0.961 . S
C2391 H2406 0.961 . S
C2391 H2407 0.961 . S
C2392 C2393 1.370 . S
C2392 C2394 1.363 1_554 S
C2392 H2408 0.931 . S
C2393 C2392 1.370 . S
C2393 C2397 1.408 . S
C2394 C2392 1.363 1_556 S
C2394 C2395 1.370 1_556 S
C2394 C2398 1.524 . S
C2395 C2387 1.503 1_554 S
C2395 C2394 1.370 1_554 S
C2395 C2396 1.403 . S
C2396 C2395 1.403 . S
C2396 C2397 1.404 . S
C2396 C2399 1.539 . S
C2397 C2393 1.408 . S
C2397 C2396 1.404 . S
C2397 H2409 0.930 . S
C2398 C2394 1.524 . S
C2398 H2410 0.956 . S
C2398 H2411 0.961 . S
C2398 H2412 0.961 . S
C2399 C2396 1.539 . S
C2399 H2413 0.958 . S
C2399 H2414 0.961 . S
C2399 H2415 0.960 . S
H2400 C2384 0.931 . S
H2401 C2389 0.929 . S
H2402 C2390 0.983 . S
H2403 C2390 0.962 . S
H2404 C2390 0.960 . S
H2405 C2391 0.961 . S
H2406 C2391 0.961 . S
H2407 C2391 0.961 . S
H2408 C2392 0.931 . S
H2409 C2397 0.930 . S
H2410 C2398 0.956 . S
H2411 C2398 0.961 . S
H2412 C2398 0.961 . S
H2413 C2399 0.958 . S
H2414 C2399 0.961 . S
H2415 C2399 0.960 . S
C2416 C2417 1.391 . S
C2416 C2418 1.394 . S
C2416 H2432 0.931 . S
C2417 C2416 1.391 . S
C2417 C2421 1.376 . S
C2418 C2416 1.394 . S
C2418 C2419 1.369 . S
C2418 C2422 1.531 . S
C2419 C2418 1.369 . S
C2419 C2420 1.410 . S
C2419 C2427 1.503 . S
C2420 C2419 1.410 . S
C2420 C2421 1.392 . S
C2420 C2423 1.511 . S
C2421 C2417 1.376 . S
C2421 C2420 1.392 . S
C2421 H2433 0.929 . S
C2422 C2418 1.531 . S
C2422 H2434 0.960 . S
C2422 H2435 0.962 . S
C2422 H2436 0.960 . S
C2423 C2420 1.511 . S
C2423 H2437 0.961 . S
C2423 H2438 0.961 . S
C2423 H2439 0.961 . S
C2424 C2425 1.370 . S
C2424 C2426 1.363 . S
C2424 H2440 0.931 . S
C2425 C2424 1.370 . S
C2425 C2429 1.408 . S
C2426 C2424 1.363 . S
C2426 C2427 1.370 . S
C2426 C2430 1.524 . S
C2427 C2419 1.503 . S
C2427 C2426 1.370 . S
C2427 C2428 1.403 . S
C2428 C2427 1.403 . S
C2428 C2429 1.404 . S
C2428 C2431 1.539 . S
C2429 C2425 1.408 . S
C2429 C2428 1.404 . S
C2429 H2441 0.930 . S
C2430 C2426 1.524 . S
C2430 H2442 0.956 . S
C2430 H2443 0.961 . S
C2430 H2444 0.961 . S
C2431 C2428 1.539 . S
C2431 H2445 0.958 . S
C2431 H2446 0.961 . S
C2431 H2447 0.960 . S
H2432 C2416 0.931 . S
H2433 C2421 0.929 . S
H2434 C2422 0.960 . S
H2435 C2422 0.962 . S
H2436 C2422 0.960 . S
H2437 C2423 0.961 . S
H2438 C2423 0.961 . S
H2439 C2423 0.961 . S
H2440 C2424 0.931 . S
H2441 C2429 0.930 . S
H2442 C2430 0.956 . S
H2443 C2430 0.961 . S
H2444 C2430 0.961 . S
H2445 C2431 0.958 . S
H2446 C2431 0.961 . S
H2447 C2431 0.960 . S
C2448 C2449 1.391 . S
C2448 C2450 1.394 . S
C2448 H2464 0.931 . S
C2449 C2448 1.391 . S
C2449 C2453 1.376 . S
C2450 C2448 1.394 . S
C2450 C2451 1.369 . S
C2450 C2454 1.531 . S
C2451 C2450 1.369 . S
C2451 C2452 1.410 . S
C2451 C2459 1.503 . S
C2452 C2451 1.410 . S
C2452 C2453 1.392 . S
C2452 C2455 1.511 . S
C2453 C2449 1.376 . S
C2453 C2452 1.392 . S
C2453 H2465 0.929 . S
C2454 C2450 1.531 . S
C2454 H2466 0.960 . S
C2454 H2467 0.962 . S
C2454 H2468 0.960 . S
C2455 C2452 1.511 . S
C2455 H2469 0.961 . S
C2455 H2470 0.961 . S
C2455 H2471 0.961 . S
C2456 C2457 1.370 . S
C2456 C2458 1.363 . S
C2456 H2472 0.931 . S
C2457 C2456 1.370 . S
C2457 C2461 1.408 . S
C2458 C2456 1.363 . S
C2458 C2459 1.370 . S
C2458 C2462 1.524 . S
C2459 C2451 1.503 . S
C2459 C2458 1.370 . S
C2459 C2460 1.403 . S
C2460 C2459 1.403 . S
C2460 C2461 1.404 . S
C2460 C2463 1.539 . S
C2461 C2457 1.408 . S
C2461 C2460 1.404 . S
C2461 H2473 0.930 . S
C2462 C2458 1.524 . S
C2462 H2474 0.956 . S
C2462 H2475 0.961 . S
C2462 H2476 0.961 . S
C2463 C2460 1.539 . S
C2463 H2477 0.958 . S
C2463 H2478 0.961 . S
C2463 H2479 0.960 . S
H2464 C2448 0.931 . S
H2465 C2453 0.929 . S
H2466 C2454 0.960 . S
H2467 C2454 0.962 . S
H2468 C2454 0.960 . S
H2469 C2455 0.961 . S
H2470 C2455 0.961 . S
H2471 C2455 0.961 . S
H2472 C2456 0.931 . S
H2473 C2461 0.930 . S
H2474 C2462 0.956 . S
H2475 C2462 0.961 . S
H2476 C2462 0.961 . S
H2477 C2463 0.958 . S
H2478 C2463 0.961 . S
H2479 C2463 0.960 . S
C2480 C2481 1.391 . S
C2480 C2482 1.394 . S
C2480 H2496 0.931 . S
C2481 C2480 1.391 . S
C2481 C2485 1.376 . S
C2482 C2480 1.394 . S
C2482 C2483 1.369 . S
C2482 C2486 1.531 . S
C2483 C2482 1.369 . S
C2483 C2484 1.410 . S
C2483 C2491 1.503 . S
C2484 C2483 1.410 . S
C2484 C2485 1.392 . S
C2484 C2487 1.511 . S
C2485 C2481 1.376 . S
C2485 C2484 1.392 . S
C2485 H2497 0.929 . S
C2486 C2482 1.531 . S
C2486 H2498 0.960 . S
C2486 H2499 0.962 . S
C2486 H2500 0.960 . S
C2487 C2484 1.511 . S
C2487 H2501 0.961 . S
C2487 H2502 0.961 . S
C2487 H2503 0.961 . S
C2488 C2489 1.370 . S
C2488 C2490 1.363 . S
C2488 H2504 0.931 . S
C2489 C2488 1.370 . S
C2489 C2493 1.408 . S
C2490 C2488 1.363 . S
C2490 C2491 1.370 . S
C2490 C2494 1.524 . S
C2491 C2483 1.503 . S
C2491 C2490 1.370 . S
C2491 C2492 1.403 . S
C2492 C2491 1.403 . S
C2492 C2493 1.404 . S
C2492 C2495 1.539 . S
C2493 C2489 1.408 . S
C2493 C2492 1.404 . S
C2493 H2505 0.930 . S
C2494 C2490 1.524 . S
C2494 H2506 0.956 . S
C2494 H2507 0.961 . S
C2494 H2508 0.961 . S
C2495 C2492 1.539 . S
C2495 H2509 0.958 . S
C2495 H2510 0.961 . S
C2495 H2511 0.960 . S
H2496 C2480 0.931 . S
H2497 C2485 0.929 . S
H2498 C2486 0.960 . S
H2499 C2486 0.962 . S
H2500 C2486 0.960 . S
H2501 C2487 0.961 . S
H2502 C2487 0.961 . S
H2503 C2487 0.961 . S
H2504 C2488 0.931 . S
H2505 C2493 0.930 . S
H2506 C2494 0.956 . S
H2507 C2494 0.961 . S
H2508 C2494 0.961 . S
H2509 C2495 0.958 . S
H2510 C2495 0.961 . S
H2511 C2495 0.960 . S
C2512 C2513 1.391 . S
C2512 C2514 1.394 . S
C2512 H2528 0.931 . S
C2513 C2512 1.391 . S
C2513 C2517 1.376 . S
C2514 C2512 1.394 . S
C2514 C2515 1.369 . S
C2514 C2518 1.531 . S
C2515 C2514 1.369 . S
C2515 C2516 1.410 . S
C2515 C2523 1.503 . S
C2516 C2515 1.410 . S
C2516 C2517 1.392 . S
C2516 C2519 1.511 . S
C2517 C2513 1.376 . S
C2517 C2516 1.392 . S
C2517 H2529 0.929 . S
C2518 C2514 1.531 . S
C2518 H2530 0.960 . S
C2518 H2531 0.962 . S
C2518 H2532 0.960 . S
C2519 C2516 1.511 . S
C2519 H2533 0.961 . S
C2519 H2534 0.961 . S
C2519 H2535 0.961 . S
C2520 C2521 1.370 . S
C2520 C2522 1.363 . S
C2520 H2536 0.931 . S
C2521 C2520 1.370 . S
C2521 C2525 1.408 . S
C2522 C2520 1.363 . S
C2522 C2523 1.370 . S
C2522 C2526 1.524 . S
C2523 C2515 1.503 . S
C2523 C2522 1.370 . S
C2523 C2524 1.403 . S
C2524 C2523 1.403 . S
C2524 C2525 1.404 . S
C2524 C2527 1.539 . S
C2525 C2521 1.408 . S
C2525 C2524 1.404 . S
C2525 H2537 0.930 . S
C2526 C2522 1.524 . S
C2526 H2538 0.956 . S
C2526 H2539 0.961 . S
C2526 H2540 0.961 . S
C2527 C2524 1.539 . S
C2527 H2541 0.958 . S
C2527 H2542 0.961 . S
C2527 H2543 0.960 . S
H2528 C2512 0.931 . S
H2529 C2517 0.929 . S
H2530 C2518 0.960 . S
H2531 C2518 0.962 . S
H2532 C2518 0.960 . S
H2533 C2519 0.961 . S
H2534 C2519 0.961 . S
H2535 C2519 0.961 . S
H2536 C2520 0.931 . S
H2537 C2525 0.930 . S
H2538 C2526 0.956 . S
H2539 C2526 0.961 . S
H2540 C2526 0.961 . S
H2541 C2527 0.958 . S
H2542 C2527 0.961 . S
H2543 C2527 0.960 . S
C2544 C2545 1.391 . S
C2544 C2546 1.394 . S
C2544 H2560 0.931 . S
C2545 C2544 1.391 . S
C2545 C2549 1.376 . S
C2546 C2544 1.394 . S
C2546 C2547 1.369 . S
C2546 C2550 1.531 . S
C2547 C2546 1.369 . S
C2547 C2548 1.410 . S
C2547 C2555 1.503 . S
C2548 C2547 1.410 . S
C2548 C2549 1.392 . S
C2548 C2551 1.511 . S
C2549 C2545 1.376 . S
C2549 C2548 1.392 . S
C2549 H2561 0.929 . S
C2550 C2546 1.531 . S
C2550 H2562 0.960 . S
C2550 H2563 0.962 . S
C2550 H2564 0.960 . S
C2551 C2548 1.511 . S
C2551 H2565 0.961 . S
C2551 H2566 0.961 . S
C2551 H2567 0.961 . S
C2552 C2553 1.370 . S
C2552 C2554 1.363 . S
C2552 H2568 0.931 . S
C2553 C2552 1.370 . S
C2553 C2557 1.408 . S
C2554 C2552 1.363 . S
C2554 C2555 1.370 . S
C2554 C2558 1.524 . S
C2555 C2547 1.503 . S
C2555 C2554 1.370 . S
C2555 C2556 1.403 . S
C2556 C2555 1.403 . S
C2556 C2557 1.404 . S
C2556 C2559 1.539 . S
C2557 C2553 1.408 . S
C2557 C2556 1.404 . S
C2557 H2569 0.930 . S
C2558 C2554 1.524 . S
C2558 H2570 0.956 . S
C2558 H2571 0.961 . S
C2558 H2572 0.961 . S
C2559 C2556 1.539 . S
C2559 H2573 0.958 . S
C2559 H2574 0.961 . S
C2559 H2575 0.960 . S
H2560 C2544 0.931 . S
H2561 C2549 0.929 . S
H2562 C2550 0.960 . S
H2563 C2550 0.962 . S
H2564 C2550 0.960 . S
H2565 C2551 0.961 . S
H2566 C2551 0.961 . S
H2567 C2551 0.961 . S
H2568 C2552 0.931 . S
H2569 C2557 0.930 . S
H2570 C2558 0.956 . S
H2571 C2558 0.961 . S
H2572 C2558 0.961 . S
H2573 C2559 0.958 . S
H2574 C2559 0.961 . S
H2575 C2559 0.960 . S
C2576 C2577 1.391 . S
C2576 C2578 1.394 . S
C2576 H2592 0.931 . S
C2577 C2576 1.391 . S
C2577 C2581 1.376 . S
C2578 C2576 1.394 . S
C2578 C2579 1.369 . S
C2578 C2582 1.531 . S
C2579 C2578 1.369 . S
C2579 C2580 1.410 . S
C2579 C2587 1.503 . S
C2580 C2579 1.410 . S
C2580 C2581 1.392 . S
C2580 C2583 1.511 . S
C2581 C2577 1.376 . S
C2581 C2580 1.392 . S
C2581 H2593 0.929 . S
C2582 C2578 1.531 . S
C2582 H2594 0.960 . S
C2582 H2595 0.962 . S
C2582 H2596 0.960 . S
C2583 C2580 1.511 . S
C2583 H2597 0.961 . S
C2583 H2598 0.961 . S
C2583 H2599 0.961 . S
C2584 C2585 1.370 . S
C2584 C2586 1.363 . S
C2584 H2600 0.931 . S
C2585 C2584 1.370 . S
C2585 C2589 1.408 . S
C2586 C2584 1.363 . S
C2586 C2587 1.370 . S
C2586 C2590 1.524 . S
C2587 C2579 1.503 . S
C2587 C2586 1.370 . S
C2587 C2588 1.403 . S
C2588 C2587 1.403 . S
C2588 C2589 1.404 . S
C2588 C2591 1.539 . S
C2589 C2585 1.408 . S
C2589 C2588 1.404 . S
C2589 H2601 0.930 . S
C2590 C2586 1.524 . S
C2590 H2602 0.956 . S
C2590 H2603 0.961 . S
C2590 H2604 0.961 . S
C2591 C2588 1.539 . S
C2591 H2605 0.958 . S
C2591 H2606 0.961 . S
C2591 H2607 0.960 . S
H2592 C2576 0.931 . S
H2593 C2581 0.929 . S
H2594 C2582 0.960 . S
H2595 C2582 0.962 . S
H2596 C2582 0.960 . S
H2597 C2583 0.961 . S
H2598 C2583 0.961 . S
H2599 C2583 0.961 . S
H2600 C2584 0.931 . S
H2601 C2589 0.930 . S
H2602 C2590 0.956 . S
H2603 C2590 0.961 . S
H2604 C2590 0.961 . S
H2605 C2591 0.958 . S
H2606 C2591 0.961 . S
H2607 C2591 0.960 . S
C2608 C2609 1.391 . S
C2608 C2610 1.394 . S
C2608 H2624 0.931 . S
C2609 C2608 1.391 . S
C2609 C2613 1.376 . S
C2610 C2608 1.394 . S
C2610 C2611 1.369 . S
C2610 C2614 1.531 . S
C2611 C2610 1.369 . S
C2611 C2612 1.410 . S
C2611 C2619 1.503 . S
C2612 C2611 1.410 . S
C2612 C2613 1.392 . S
C2612 C2615 1.511 . S
C2613 C2609 1.376 . S
C2613 C2612 1.392 . S
C2613 H2625 0.929 . S
C2614 C2610 1.531 . S
C2614 H2626 0.960 . S
C2614 H2627 0.962 . S
C2614 H2628 0.960 . S
C2615 C2612 1.511 . S
C2615 H2629 0.961 . S
C2615 H2630 0.961 . S
C2615 H2631 0.961 . S
C2616 C2617 1.370 . S
C2616 C2618 1.363 . S
C2616 H2632 0.931 . S
C2617 C2616 1.370 . S
C2617 C2621 1.408 . S
C2618 C2616 1.363 . S
C2618 C2619 1.370 . S
C2618 C2622 1.524 . S
C2619 C2611 1.503 . S
C2619 C2618 1.370 . S
C2619 C2620 1.403 . S
C2620 C2619 1.403 . S
C2620 C2621 1.404 . S
C2620 C2623 1.539 . S
C2621 C2617 1.408 . S
C2621 C2620 1.404 . S
C2621 H2633 0.930 . S
C2622 C2618 1.524 . S
C2622 H2634 0.956 . S
C2622 H2635 0.961 . S
C2622 H2636 0.961 . S
C2623 C2620 1.539 . S
C2623 H2637 0.958 . S
C2623 H2638 0.961 . S
C2623 H2639 0.960 . S
H2624 C2608 0.931 . S
H2625 C2613 0.929 . S
H2626 C2614 0.960 . S
H2627 C2614 0.962 . S
H2628 C2614 0.960 . S
H2629 C2615 0.961 . S
H2630 C2615 0.961 . S
H2631 C2615 0.961 . S
H2632 C2616 0.931 . S
H2633 C2621 0.930 . S
H2634 C2622 0.956 . S
H2635 C2622 0.961 . S
H2636 C2622 0.961 . S
H2637 C2623 0.958 . S
H2638 C2623 0.961 . S
H2639 C2623 0.960 . S
C2640 C2641 1.391 . S
C2640 C2642 1.394 . S
C2640 H2656 0.931 . S
C2641 C2640 1.391 . S
C2641 C2645 1.376 . S
C2642 C2640 1.394 . S
C2642 C2643 1.369 . S
C2642 C2646 1.531 . S
C2643 C2642 1.369 . S
C2643 C2644 1.410 . S
C2643 C2651 1.503 . S
C2644 C2643 1.410 . S
C2644 C2645 1.392 . S
C2644 C2647 1.511 . S
C2645 C2641 1.376 . S
C2645 C2644 1.392 . S
C2645 H2657 0.929 . S
C2646 C2642 1.531 . S
C2646 H2658 0.960 . S
C2646 H2659 0.962 . S
C2646 H2660 0.960 . S
C2647 C2644 1.511 . S
C2647 H2661 0.961 . S
C2647 H2662 0.961 . S
C2647 H2663 0.961 . S
C2648 C2649 1.370 . S
C2648 C2650 1.363 . S
C2648 H2664 0.931 . S
C2649 C2648 1.370 . S
C2649 C2653 1.408 . S
C2650 C2648 1.363 . S
C2650 C2651 1.370 . S
C2650 C2654 1.524 . S
C2651 C2643 1.503 . S
C2651 C2650 1.370 . S
C2651 C2652 1.403 . S
C2652 C2651 1.403 . S
C2652 C2653 1.404 . S
C2652 C2655 1.539 . S
C2653 C2649 1.408 . S
C2653 C2652 1.404 . S
C2653 H2665 0.930 . S
C2654 C2650 1.524 . S
C2654 H2666 0.956 . S
C2654 H2667 0.961 . S
C2654 H2668 0.961 . S
C2655 C2652 1.539 . S
C2655 H2669 0.958 . S
C2655 H2670 0.961 . S
C2655 H2671 0.960 . S
H2656 C2640 0.931 . S
H2657 C2645 0.929 . S
H2658 C2646 0.960 . S
H2659 C2646 0.962 . S
H2660 C2646 0.960 . S
H2661 C2647 0.961 . S
H2662 C2647 0.961 . S
H2663 C2647 0.961 . S
H2664 C2648 0.931 . S
H2665 C2653 0.930 . S
H2666 C2654 0.956 . S
H2667 C2654 0.961 . S
H2668 C2654 0.961 . S
H2669 C2655 0.958 . S
H2670 C2655 0.961 . S
H2671 C2655 0.960 . S
C2672 C2673 1.391 . S
C2672 C2674 1.394 . S
C2672 H2688 0.931 . S
C2673 C2672 1.391 . S
C2673 C2677 1.376 . S
C2674 C2672 1.394 . S
C2674 C2675 1.369 . S
C2674 C2678 1.531 . S
C2675 C2674 1.369 . S
C2675 C2676 1.410 . S
C2675 C2683 1.503 . S
C2676 C2675 1.410 . S
C2676 C2677 1.392 . S
C2676 C2679 1.511 . S
C2677 C2673 1.376 . S
C2677 C2676 1.392 . S
C2677 H2689 0.929 . S
C2678 C2674 1.531 . S
C2678 H2690 0.960 . S
C2678 H2691 0.962 . S
C2678 H2692 0.960 . S
C2679 C2676 1.511 . S
C2679 H2693 0.961 . S
C2679 H2694 0.961 . S
C2679 H2695 0.961 . S
C2680 C2681 1.370 . S
C2680 C2682 1.363 . S
C2680 H2696 0.931 . S
C2681 C2680 1.370 . S
C2681 C2685 1.408 . S
C2682 C2680 1.363 . S
C2682 C2683 1.370 . S
C2682 C2686 1.524 . S
C2683 C2675 1.503 . S
C2683 C2682 1.370 . S
C2683 C2684 1.403 . S
C2684 C2683 1.403 . S
C2684 C2685 1.404 . S
C2684 C2687 1.539 . S
C2685 C2681 1.408 . S
C2685 C2684 1.404 . S
C2685 H2697 0.930 . S
C2686 C2682 1.524 . S
C2686 H2698 0.956 . S
C2686 H2699 0.961 . S
C2686 H2700 0.961 . S
C2687 C2684 1.539 . S
C2687 H2701 0.958 . S
C2687 H2702 0.961 . S
C2687 H2703 0.960 . S
H2688 C2672 0.931 . S
H2689 C2677 0.929 . S
H2690 C2678 0.960 . S
H2691 C2678 0.962 . S
H2692 C2678 0.960 . S
H2693 C2679 0.961 . S
H2694 C2679 0.961 . S
H2695 C2679 0.961 . S
H2696 C2680 0.931 . S
H2697 C2685 0.930 . S
H2698 C2686 0.956 . S
H2699 C2686 0.961 . S
H2700 C2686 0.961 . S
H2701 C2687 0.958 . S
H2702 C2687 0.961 . S
H2703 C2687 0.960 . S
C2704 C2705 1.391 . S
C2704 C2706 1.394 . S
C2704 H2720 0.931 . S
C2705 C2704 1.391 . S
C2705 C2709 1.376 . S
C2706 C2704 1.394 . S
C2706 C2707 1.369 . S
C2706 C2710 1.531 . S
C2707 C2706 1.369 . S
C2707 C2708 1.410 . S
C2707 C2715 1.503 . S
C2708 C2707 1.410 . S
C2708 C2709 1.392 . S
C2708 C2711 1.511 . S
C2709 C2705 1.376 . S
C2709 C2708 1.392 . S
C2709 H2721 0.929 . S
C2710 C2706 1.531 . S
C2710 H2722 0.960 . S
C2710 H2723 0.962 . S
C2710 H2724 0.960 . S
C2711 C2708 1.511 . S
C2711 H2725 0.961 . S
C2711 H2726 0.961 . S
C2711 H2727 0.961 . S
C2712 C2713 1.370 . S
C2712 C2714 1.363 . S
C2712 H2728 0.931 . S
C2713 C2712 1.370 . S
C2713 C2717 1.408 . S
C2714 C2712 1.363 . S
C2714 C2715 1.370 . S
C2714 C2718 1.524 . S
C2715 C2707 1.503 . S
C2715 C2714 1.370 . S
C2715 C2716 1.403 . S
C2716 C2715 1.403 . S
C2716 C2717 1.404 . S
C2716 C2719 1.539 . S
C2717 C2713 1.408 . S
C2717 C2716 1.404 . S
C2717 H2729 0.930 . S
C2718 C2714 1.524 . S
C2718 H2730 0.956 . S
C2718 H2731 0.961 . S
C2718 H2732 0.961 . S
C2719 C2716 1.539 . S
C2719 H2733 0.958 . S
C2719 H2734 0.961 . S
C2719 H2735 0.960 . S
H2720 C2704 0.931 . S
H2721 C2709 0.929 . S
H2722 C2710 0.960 . S
H2723 C2710 0.962 . S
H2724 C2710 0.960 . S
H2725 C2711 0.961 . S
H2726 C2711 0.961 . S
H2727 C2711 0.961 . S
H2728 C2712 0.931 . S
H2729 C2717 0.930 . S
H2730 C2718 0.956 . S
H2731 C2718 0.961 . S
H2732 C2718 0.961 . S
H2733 C2719 0.958 . S
H2734 C2719 0.961 . S
H2735 C2719 0.960 . S
C2736 C2737 1.391 . S
C2736 C2738 1.394 . S
C2736 H2752 0.931 . S
C2737 C2736 1.391 . S
C2737 C2741 1.376 . S
C2738 C2736 1.394 . S
C2738 C2739 1.369 . S
C2738 C2742 1.531 . S
C2739 C2738 1.369 . S
C2739 C2740 1.410 . S
C2739 C2747 1.503 . S
C2740 C2739 1.410 . S
C2740 C2741 1.392 . S
C2740 C2743 1.511 . S
C2741 C2737 1.376 . S
C2741 C2740 1.392 . S
C2741 H2753 0.929 . S
C2742 C2738 1.531 . S
C2742 H2754 0.960 . S
C2742 H2755 0.962 . S
C2742 H2756 0.960 . S
C2743 C2740 1.511 . S
C2743 H2757 0.961 . S
C2743 H2758 0.961 . S
C2743 H2759 0.961 . S
C2744 C2745 1.370 . S
C2744 C2746 1.363 . S
C2744 H2760 0.931 . S
C2745 C2744 1.370 . S
C2745 C2749 1.408 . S
C2746 C2744 1.363 . S
C2746 C2747 1.370 . S
C2746 C2750 1.524 . S
C2747 C2739 1.503 . S
C2747 C2746 1.370 . S
C2747 C2748 1.403 . S
C2748 C2747 1.403 . S
C2748 C2749 1.404 . S
C2748 C2751 1.539 . S
C2749 C2745 1.408 . S
C2749 C2748 1.404 . S
C2749 H2761 0.930 . S
C2750 C2746 1.524 . S
C2750 H2762 0.956 . S
C2750 H2763 0.961 . S
C2750 H2764 0.961 . S
C2751 C2748 1.539 . S
C2751 H2765 0.958 . S
C2751 H2766 0.961 . S
C2751 H2767 0.960 . S
H2752 C2736 0.931 . S
H2753 C2741 0.929 . S
H2754 C2742 0.960 . S
H2755 C2742 0.962 . S
H2756 C2742 0.960 . S
H2757 C2743 0.961 . S
H2758 C2743 0.961 . S
H2759 C2743 0.961 . S
H2760 C2744 0.931 . S
H2761 C2749 0.930 . S
H2762 C2750 0.956 . S
H2763 C2750 0.961 . S
H2764 C2750 0.961 . S
H2765 C2751 0.958 . S
H2766 C2751 0.961 . S
H2767 C2751 0.960 . S
C2768 C2769 1.391 . S
C2768 C2770 1.394 . S
C2768 H2784 0.931 . S
C2769 C2768 1.391 . S
C2769 C2773 1.376 . S
C2770 C2768 1.394 . S
C2770 C2771 1.369 . S
C2770 C2774 1.531 . S
C2771 C2770 1.369 . S
C2771 C2772 1.410 . S
C2771 C2779 1.503 . S
C2772 C2771 1.410 . S
C2772 C2773 1.392 . S
C2772 C2775 1.511 . S
C2773 C2769 1.376 . S
C2773 C2772 1.392 . S
C2773 H2785 0.929 . S
C2774 C2770 1.531 . S
C2774 H2786 0.960 . S
C2774 H2787 0.962 . S
C2774 H2788 0.960 . S
C2775 C2772 1.511 . S
C2775 H2789 0.961 . S
C2775 H2790 0.961 . S
C2775 H2791 0.961 . S
C2776 C2777 1.370 . S
C2776 C2778 1.363 . S
C2776 H2792 0.931 . S
C2777 C2776 1.370 . S
C2777 C2781 1.408 . S
C2778 C2776 1.363 . S
C2778 C2779 1.370 . S
C2778 C2782 1.524 . S
C2779 C2771 1.503 . S
C2779 C2778 1.370 . S
C2779 C2780 1.403 . S
C2780 C2779 1.403 . S
C2780 C2781 1.404 . S
C2780 C2783 1.539 . S
C2781 C2777 1.408 . S
C2781 C2780 1.404 . S
C2781 H2793 0.930 . S
C2782 C2778 1.524 . S
C2782 H2794 0.956 . S
C2782 H2795 0.961 . S
C2782 H2796 0.961 . S
C2783 C2780 1.539 . S
C2783 H2797 0.958 . S
C2783 H2798 0.961 . S
C2783 H2799 0.960 . S
H2784 C2768 0.931 . S
H2785 C2773 0.929 . S
H2786 C2774 0.960 . S
H2787 C2774 0.962 . S
H2788 C2774 0.960 . S
H2789 C2775 0.961 . S
H2790 C2775 0.961 . S
H2791 C2775 0.961 . S
H2792 C2776 0.931 . S
H2793 C2781 0.930 . S
H2794 C2782 0.956 . S
H2795 C2782 0.961 . S
H2796 C2782 0.961 . S
H2797 C2783 0.958 . S
H2798 C2783 0.961 . S
H2799 C2783 0.960 . S
C2800 C2801 1.391 . S
C2800 C2802 1.394 . S
C2800 H2816 0.931 . S
C2801 C2800 1.391 . S
C2801 C2805 1.376 . S
C2802 C2800 1.394 . S
C2802 C2803 1.369 . S
C2802 C2806 1.531 . S
C2803 C2802 1.369 . S
C2803 C2804 1.410 . S
C2803 C2811 1.503 . S
C2804 C2803 1.410 . S
C2804 C2805 1.392 . S
C2804 C2807 1.511 . S
C2805 C2801 1.376 . S
C2805 C2804 1.392 . S
C2805 H2817 0.929 . S
C2806 C2802 1.531 . S
C2806 H2818 0.960 . S
C2806 H2819 0.962 . S
C2806 H2820 0.960 . S
C2807 C2804 1.511 . S
C2807 H2821 0.961 1_565 S
C2807 H2822 0.961 . S
C2807 H2823 0.961 . S
C2808 C2809 1.370 . S
C2808 C2810 1.363 . S
C2808 H2824 0.931 . S
C2809 C2808 1.370 . S
C2809 C2813 1.408 . S
C2810 C2808 1.363 . S
C2810 C2811 1.370 . S
C2810 C2814 1.524 . S
C2811 C2803 1.503 . S
C2811 C2810 1.370 . S
C2811 C2812 1.403 . S
C2812 C2811 1.403 . S
C2812 C2813 1.404 . S
C2812 C2815 1.539 . S
C2813 C2809 1.408 . S
C2813 C2812 1.404 . S
C2813 H2825 0.930 . S
C2814 C2810 1.524 . S
C2814 H2826 0.956 . S
C2814 H2827 0.961 . S
C2814 H2828 0.961 . S
C2815 C2812 1.539 . S
C2815 H2829 0.958 . S
C2815 H2830 0.961 . S
C2815 H2831 0.960 . S
H2816 C2800 0.931 . S
H2817 C2805 0.929 . S
H2818 C2806 0.960 . S
H2819 C2806 0.962 . S
H2820 C2806 0.960 . S
H2821 C2807 0.961 1_545 S
H2822 C2807 0.961 . S
H2823 C2807 0.961 . S
H2824 C2808 0.931 . S
H2825 C2813 0.930 . S
H2826 C2814 0.956 . S
H2827 C2814 0.961 . S
H2828 C2814 0.961 . S
H2829 C2815 0.958 . S
H2830 C2815 0.961 . S
H2831 C2815 0.960 . S
C2832 C2833 1.391 . S
C2832 C2834 1.394 . S
C2832 H2848 0.931 . S
C2833 C2832 1.391 . S
C2833 C2837 1.376 . S
C2834 C2832 1.394 . S
C2834 C2835 1.369 . S
C2834 C2838 1.531 . S
C2835 C2834 1.369 . S
C2835 C2836 1.410 . S
C2835 C2843 1.503 . S
C2836 C2835 1.410 . S
C2836 C2837 1.392 . S
C2836 C2839 1.511 . S
C2837 C2833 1.376 . S
C2837 C2836 1.392 . S
C2837 H2849 0.929 . S
C2838 C2834 1.531 . S
C2838 H2850 0.960 . S
C2838 H2851 0.962 . S
C2838 H2852 0.960 . S
C2839 C2836 1.511 . S
C2839 H2853 0.961 . S
C2839 H2854 0.961 . S
C2839 H2855 0.961 . S
C2840 C2841 1.370 . S
C2840 C2842 1.363 . S
C2840 H2856 0.931 . S
C2841 C2840 1.370 . S
C2841 C2845 1.408 . S
C2842 C2840 1.363 . S
C2842 C2843 1.370 . S
C2842 C2846 1.524 . S
C2843 C2835 1.503 . S
C2843 C2842 1.370 . S
C2843 C2844 1.403 . S
C2844 C2843 1.403 . S
C2844 C2845 1.404 . S
C2844 C2847 1.539 . S
C2845 C2841 1.408 . S
C2845 C2844 1.404 . S
C2845 H2857 0.930 . S
C2846 C2842 1.524 . S
C2846 H2858 0.956 . S
C2846 H2859 0.961 . S
C2846 H2860 0.961 . S
C2847 C2844 1.539 . S
C2847 H2861 0.958 . S
C2847 H2862 0.961 . S
C2847 H2863 0.960 . S
H2848 C2832 0.931 . S
H2849 C2837 0.929 . S
H2850 C2838 0.960 . S
H2851 C2838 0.962 . S
H2852 C2838 0.960 . S
H2853 C2839 0.961 . S
H2854 C2839 0.961 . S
H2855 C2839 0.961 . S
H2856 C2840 0.931 . S
H2857 C2845 0.930 . S
H2858 C2846 0.956 . S
H2859 C2846 0.961 . S
H2860 C2846 0.961 . S
H2861 C2847 0.958 . S
H2862 C2847 0.961 . S
H2863 C2847 0.960 . S
C2864 C2865 1.391 . S
C2864 C2866 1.394 . S
C2864 H2880 0.931 . S
C2865 C2864 1.391 . S
C2865 C2869 1.376 . S
C2866 C2864 1.394 . S
C2866 C2867 1.369 . S
C2866 C2870 1.531 . S
C2867 C2866 1.369 . S
C2867 C2868 1.410 . S
C2867 C2875 1.503 . S
C2868 C2867 1.410 . S
C2868 C2869 1.392 . S
C2868 C2871 1.511 . S
C2869 C2865 1.376 . S
C2869 C2868 1.392 . S
C2869 H2881 0.929 . S
C2870 C2866 1.531 . S
C2870 H2882 0.960 . S
C2870 H2883 0.962 . S
C2870 H2884 0.960 . S
C2871 C2868 1.511 . S
C2871 H2885 0.961 . S
C2871 H2886 0.961 . S
C2871 H2887 0.961 . S
C2872 C2873 1.370 . S
C2872 C2874 1.363 . S
C2872 H2888 0.931 . S
C2873 C2872 1.370 . S
C2873 C2877 1.408 . S
C2874 C2872 1.363 . S
C2874 C2875 1.370 . S
C2874 C2878 1.524 . S
C2875 C2867 1.503 . S
C2875 C2874 1.370 . S
C2875 C2876 1.403 . S
C2876 C2875 1.403 . S
C2876 C2877 1.404 . S
C2876 C2879 1.539 . S
C2877 C2873 1.408 . S
C2877 C2876 1.404 . S
C2877 H2889 0.930 . S
C2878 C2874 1.524 . S
C2878 H2890 0.956 . S
C2878 H2891 0.961 . S
C2878 H2892 0.961 . S
C2879 C2876 1.539 . S
C2879 H2893 0.958 . S
C2879 H2894 0.961 . S
C2879 H2895 0.960 . S
H2880 C2864 0.931 . S
H2881 C2869 0.929 . S
H2882 C2870 0.960 . S
H2883 C2870 0.962 . S
H2884 C2870 0.960 . S
H2885 C2871 0.961 . S
H2886 C2871 0.961 . S
H2887 C2871 0.961 . S
H2888 C2872 0.931 . S
H2889 C2877 0.930 . S
H2890 C2878 0.956 . S
H2891 C2878 0.961 . S
H2892 C2878 0.961 . S
H2893 C2879 0.958 . S
H2894 C2879 0.961 . S
H2895 C2879 0.960 . S
C2896 C2897 1.391 . S
C2896 C2898 1.394 . S
C2896 H2912 0.931 . S
C2897 C2896 1.391 . S
C2897 C2901 1.376 . S
C2898 C2896 1.394 . S
C2898 C2899 1.369 . S
C2898 C2902 1.531 . S
C2899 C2898 1.369 . S
C2899 C2900 1.410 . S
C2899 C2907 1.503 . S
C2900 C2899 1.410 . S
C2900 C2901 1.392 . S
C2900 C2903 1.511 . S
C2901 C2897 1.376 . S
C2901 C2900 1.392 . S
C2901 H2913 0.929 . S
C2902 C2898 1.531 . S
C2902 H2914 0.960 . S
C2902 H2915 0.962 . S
C2902 H2916 0.960 . S
C2903 C2900 1.511 . S
C2903 H2917 0.961 . S
C2903 H2918 0.961 . S
C2903 H2919 0.961 . S
C2904 C2905 1.370 . S
C2904 C2906 1.363 . S
C2904 H2920 0.931 . S
C2905 C2904 1.370 . S
C2905 C2909 1.408 . S
C2906 C2904 1.363 . S
C2906 C2907 1.370 . S
C2906 C2910 1.524 . S
C2907 C2899 1.503 . S
C2907 C2906 1.370 . S
C2907 C2908 1.403 . S
C2908 C2907 1.403 . S
C2908 C2909 1.404 . S
C2908 C2911 1.539 . S
C2909 C2905 1.408 . S
C2909 C2908 1.404 . S
C2909 H2921 0.930 . S
C2910 C2906 1.524 . S
C2910 H2922 0.956 . S
C2910 H2923 0.961 . S
C2910 H2924 0.961 . S
C2911 C2908 1.539 . S
C2911 H2925 0.958 . S
C2911 H2926 0.961 . S
C2911 H2927 0.960 . S
H2912 C2896 0.931 . S
H2913 C2901 0.929 . S
H2914 C2902 0.960 . S
H2915 C2902 0.962 . S
H2916 C2902 0.960 . S
H2917 C2903 0.961 . S
H2918 C2903 0.961 . S
H2919 C2903 0.961 . S
H2920 C2904 0.931 . S
H2921 C2909 0.930 . S
H2922 C2910 0.956 . S
H2923 C2910 0.961 . S
H2924 C2910 0.961 . S
H2925 C2911 0.958 . S
H2926 C2911 0.961 . S
H2927 C2911 0.960 . S
C2928 C2929 1.391 . S
C2928 C2930 1.394 . S
C2928 H2944 0.931 . S
C2929 C2928 1.391 . S
C2929 C2933 1.376 . S
C2930 C2928 1.394 . S
C2930 C2931 1.369 . S
C2930 C2934 1.531 . S
C2931 C2930 1.369 . S
C2931 C2932 1.410 . S
C2931 C2939 1.503 . S
C2932 C2931 1.410 . S
C2932 C2933 1.392 . S
C2932 C2935 1.511 . S
C2933 C2929 1.376 . S
C2933 C2932 1.392 . S
C2933 H2945 0.929 . S
C2934 C2930 1.531 . S
C2934 H2946 0.960 . S
C2934 H2947 0.962 . S
C2934 H2948 0.960 . S
C2935 C2932 1.511 . S
C2935 H2949 0.961 . S
C2935 H2950 0.961 . S
C2935 H2951 0.961 . S
C2936 C2937 1.370 . S
C2936 C2938 1.363 . S
C2936 H2952 0.931 . S
C2937 C2936 1.370 . S
C2937 C2941 1.408 . S
C2938 C2936 1.363 . S
C2938 C2939 1.370 . S
C2938 C2942 1.524 . S
C2939 C2931 1.503 . S
C2939 C2938 1.370 . S
C2939 C2940 1.403 . S
C2940 C2939 1.403 . S
C2940 C2941 1.404 . S
C2940 C2943 1.539 . S
C2941 C2937 1.408 . S
C2941 C2940 1.404 . S
C2941 H2953 0.930 . S
C2942 C2938 1.524 . S
C2942 H2954 0.956 . S
C2942 H2955 0.961 . S
C2942 H2956 0.961 . S
C2943 C2940 1.539 . S
C2943 H2957 0.958 . S
C2943 H2958 0.961 . S
C2943 H2959 0.960 . S
H2944 C2928 0.931 . S
H2945 C2933 0.929 . S
H2946 C2934 0.960 . S
H2947 C2934 0.962 . S
H2948 C2934 0.960 . S
H2949 C2935 0.961 . S
H2950 C2935 0.961 . S
H2951 C2935 0.961 . S
H2952 C2936 0.931 . S
H2953 C2941 0.930 . S
H2954 C2942 0.956 . S
H2955 C2942 0.961 . S
H2956 C2942 0.961 . S
H2957 C2943 0.958 . S
H2958 C2943 0.961 . S
H2959 C2943 0.960 . S
C2960 C2961 1.391 . S
C2960 C2962 1.394 . S
C2960 H2976 0.931 . S
C2961 C2960 1.391 . S
C2961 C2965 1.376 . S
C2962 C2960 1.394 . S
C2962 C2963 1.369 . S
C2962 C2966 1.531 . S
C2963 C2962 1.369 . S
C2963 C2964 1.410 . S
C2963 C2971 1.503 1_655 S
C2964 C2963 1.410 . S
C2964 C2965 1.392 . S
C2964 C2967 1.511 . S
C2965 C2961 1.376 . S
C2965 C2964 1.392 . S
C2965 H2977 0.929 . S
C2966 C2962 1.531 . S
C2966 H2978 0.960 . S
C2966 H2979 0.962 . S
C2966 H2980 0.960 . S
C2967 C2964 1.511 . S
C2967 H2981 0.961 1_565 S
C2967 H2982 0.961 . S
C2967 H2983 0.961 1_655 S
C2968 C2969 1.370 . S
C2968 C2970 1.363 1_455 S
C2968 H2984 0.931 . S
C2969 C2968 1.370 . S
C2969 C2973 1.408 . S
C2970 C2968 1.363 1_655 S
C2970 C2971 1.370 1_655 S
C2970 C2974 1.524 . S
C2971 C2963 1.503 1_455 S
C2971 C2970 1.370 1_455 S
C2971 C2972 1.403 . S
C2972 C2971 1.403 . S
C2972 C2973 1.404 . S
C2972 C2975 1.539 . S
C2973 C2969 1.408 . S
C2973 C2972 1.404 . S
C2973 H2985 0.930 . S
C2974 C2970 1.524 . S
C2974 H2986 0.956 . S
C2974 H2987 0.961 . S
C2974 H2988 0.961 . S
C2975 C2972 1.539 . S
C2975 H2989 0.958 . S
C2975 H2990 0.961 . S
C2975 H2991 0.960 . S
H2976 C2960 0.931 . S
H2977 C2965 0.929 . S
H2978 C2966 0.960 . S
H2979 C2966 0.962 . S
H2980 C2966 0.960 . S
H2981 C2967 0.961 1_545 S
H2982 C2967 0.961 . S
H2983 C2967 0.961 1_455 S
H2984 C2968 0.931 . S
H2985 C2973 0.930 . S
H2986 C2974 0.956 . S
H2987 C2974 0.961 . S
H2988 C2974 0.961 . S
H2989 C2975 0.958 . S
H2990 C2975 0.961 . S
H2991 C2975 0.960 . S
C2992 C2993 1.391 . S
C2992 C2994 1.394 . S
C2992 H3008 0.931 . S
C2993 C2992 1.391 . S
C2993 C2997 1.376 . S
C2994 C2992 1.394 . S
C2994 C2995 1.369 . S
C2994 C2998 1.531 . S
C2995 C2994 1.369 . S
C2995 C2996 1.410 . S
C2995 C3003 1.503 . S
C2996 C2995 1.410 . S
C2996 C2997 1.392 . S
C2996 C2999 1.511 . S
C2997 C2993 1.376 . S
C2997 C2996 1.392 . S
C2997 H3009 0.929 . S
C2998 C2994 1.531 . S
C2998 H3010 0.960 . S
C2998 H3011 0.962 . S
C2998 H3012 0.960 . S
C2999 C2996 1.511 . S
C2999 H3013 0.961 . S
C2999 H3014 0.961 . S
C2999 H3015 0.961 . S
C3000 C3001 1.370 . S
C3000 C3002 1.363 . S
C3000 H3016 0.931 . S
C3001 C3000 1.370 . S
C3001 C3005 1.408 . S
C3002 C3000 1.363 . S
C3002 C3003 1.370 . S
C3002 C3006 1.524 . S
C3003 C2995 1.503 . S
C3003 C3002 1.370 . S
C3003 C3004 1.403 . S
C3004 C3003 1.403 . S
C3004 C3005 1.404 . S
C3004 C3007 1.539 . S
C3005 C3001 1.408 . S
C3005 C3004 1.404 . S
C3005 H3017 0.930 . S
C3006 C3002 1.524 . S
C3006 H3018 0.956 . S
C3006 H3019 0.961 . S
C3006 H3020 0.961 . S
C3007 C3004 1.539 . S
C3007 H3021 0.958 . S
C3007 H3022 0.961 . S
C3007 H3023 0.960 . S
H3008 C2992 0.931 . S
H3009 C2997 0.929 . S
H3010 C2998 0.960 . S
H3011 C2998 0.962 . S
H3012 C2998 0.960 . S
H3013 C2999 0.961 . S
H3014 C2999 0.961 . S
H3015 C2999 0.961 . S
H3016 C3000 0.931 . S
H3017 C3005 0.930 . S
H3018 C3006 0.956 . S
H3019 C3006 0.961 . S
H3020 C3006 0.961 . S
H3021 C3007 0.958 . S
H3022 C3007 0.961 . S
H3023 C3007 0.960 . S
C3024 C3025 1.391 . S
C3024 C3026 1.394 . S
C3024 H3040 0.931 . S
C3025 C3024 1.391 . S
C3025 C3029 1.376 . S
C3026 C3024 1.394 . S
C3026 C3027 1.369 . S
C3026 C3030 1.531 . S
C3027 C3026 1.369 . S
C3027 C3028 1.410 . S
C3027 C3035 1.503 . S
C3028 C3027 1.410 . S
C3028 C3029 1.392 . S
C3028 C3031 1.511 . S
C3029 C3025 1.376 . S
C3029 C3028 1.392 . S
C3029 H3041 0.929 . S
C3030 C3026 1.531 . S
C3030 H3042 0.960 . S
C3030 H3043 0.962 . S
C3030 H3044 0.960 . S
C3031 C3028 1.511 . S
C3031 H3045 0.961 . S
C3031 H3046 0.961 . S
C3031 H3047 0.961 . S
C3032 C3033 1.370 . S
C3032 C3034 1.363 . S
C3032 H3048 0.931 . S
C3033 C3032 1.370 . S
C3033 C3037 1.408 . S
C3034 C3032 1.363 . S
C3034 C3035 1.370 1_554 S
C3034 C3038 1.524 . S
C3035 C3027 1.503 . S
C3035 C3034 1.370 1_556 S
C3035 C3036 1.403 . S
C3036 C3035 1.403 . S
C3036 C3037 1.404 1_556 S
C3036 C3039 1.539 . S
C3037 C3033 1.408 . S
C3037 C3036 1.404 1_554 S
C3037 H3049 0.930 . S
C3038 C3034 1.524 . S
C3038 H3050 0.956 . S
C3038 H3051 0.961 . S
C3038 H3052 0.961 . S
C3039 C3036 1.539 . S
C3039 H3053 0.958 . S
C3039 H3054 0.961 . S
C3039 H3055 0.960 . S
H3040 C3024 0.931 . S
H3041 C3029 0.929 . S
H3042 C3030 0.960 . S
H3043 C3030 0.962 . S
H3044 C3030 0.960 . S
H3045 C3031 0.961 . S
H3046 C3031 0.961 . S
H3047 C3031 0.961 . S
H3048 C3032 0.931 . S
H3049 C3037 0.930 . S
H3050 C3038 0.956 . S
H3051 C3038 0.961 . S
H3052 C3038 0.961 . S
H3053 C3039 0.958 . S
H3054 C3039 0.961 . S
H3055 C3039 0.960 . S
C3056 C3057 1.391 . S
C3056 C3058 1.394 . S
C3056 H3072 0.931 . S
C3057 C3056 1.391 . S
C3057 C3061 1.376 . S
C3058 C3056 1.394 . S
C3058 C3059 1.369 . S
C3058 C3062 1.531 . S
C3059 C3058 1.369 . S
C3059 C3060 1.410 . S
C3059 C3067 1.503 . S
C3060 C3059 1.410 . S
C3060 C3061 1.392 . S
C3060 C3063 1.511 . S
C3061 C3057 1.376 . S
C3061 C3060 1.392 . S
C3061 H3073 0.929 . S
C3062 C3058 1.531 . S
C3062 H3074 0.960 . S
C3062 H3075 0.962 . S
C3062 H3076 0.960 . S
C3063 C3060 1.511 . S
C3063 H3077 0.961 . S
C3063 H3078 0.961 . S
C3063 H3079 0.961 . S
C3064 C3065 1.370 . S
C3064 C3066 1.363 . S
C3064 H3080 0.931 . S
C3065 C3064 1.370 . S
C3065 C3069 1.408 . S
C3066 C3064 1.363 . S
C3066 C3067 1.370 . S
C3066 C3070 1.524 . S
C3067 C3059 1.503 . S
C3067 C3066 1.370 . S
C3067 C3068 1.403 . S
C3068 C3067 1.403 . S
C3068 C3069 1.404 . S
C3068 C3071 1.539 . S
C3069 C3065 1.408 . S
C3069 C3068 1.404 . S
C3069 H3081 0.930 . S
C3070 C3066 1.524 . S
C3070 H3082 0.956 . S
C3070 H3083 0.961 . S
C3070 H3084 0.961 . S
C3071 C3068 1.539 . S
C3071 H3085 0.958 . S
C3071 H3086 0.961 . S
C3071 H3087 0.960 . S
H3072 C3056 0.931 . S
H3073 C3061 0.929 . S
H3074 C3062 0.960 . S
H3075 C3062 0.962 . S
H3076 C3062 0.960 . S
H3077 C3063 0.961 . S
H3078 C3063 0.961 . S
H3079 C3063 0.961 . S
H3080 C3064 0.931 . S
H3081 C3069 0.930 . S
H3082 C3070 0.956 . S
H3083 C3070 0.961 . S
H3084 C3070 0.961 . S
H3085 C3071 0.958 . S
H3086 C3071 0.961 . S
H3087 C3071 0.960 . S
C3088 C3089 1.391 . S
C3088 C3090 1.394 . S
C3088 H3104 0.931 . S
C3089 C3088 1.391 . S
C3089 C3093 1.376 . S
C3090 C3088 1.394 . S
C3090 C3091 1.369 . S
C3090 C3094 1.531 . S
C3091 C3090 1.369 . S
C3091 C3092 1.410 . S
C3091 C3099 1.503 . S
C3092 C3091 1.410 . S
C3092 C3093 1.392 . S
C3092 C3095 1.511 . S
C3093 C3089 1.376 . S
C3093 C3092 1.392 . S
C3093 H3105 0.929 . S
C3094 C3090 1.531 . S
C3094 H3106 0.960 . S
C3094 H3107 0.962 . S
C3094 H3108 0.960 . S
C3095 C3092 1.511 . S
C3095 H3109 0.961 . S
C3095 H3110 0.961 . S
C3095 H3111 0.961 . S
C3096 C3097 1.370 . S
C3096 C3098 1.363 . S
C3096 H3112 0.931 . S
C3097 C3096 1.370 . S
C3097 C3101 1.408 . S
C3098 C3096 1.363 . S
C3098 C3099 1.370 . S
C3098 C3102 1.524 . S
C3099 C3091 1.503 . S
C3099 C3098 1.370 . S
C3099 C3100 1.403 . S
C3100 C3099 1.403 . S
C3100 C3101 1.404 . S
C3100 C3103 1.539 . S
C3101 C3097 1.408 . S
C3101 C3100 1.404 . S
C3101 H3113 0.930 . S
C3102 C3098 1.524 . S
C3102 H3114 0.956 . S
C3102 H3115 0.961 . S
C3102 H3116 0.961 . S
C3103 C3100 1.539 . S
C3103 H3117 0.958 . S
C3103 H3118 0.961 . S
C3103 H3119 0.960 . S
H3104 C3088 0.931 . S
H3105 C3093 0.929 . S
H3106 C3094 0.960 . S
H3107 C3094 0.962 . S
H3108 C3094 0.960 . S
H3109 C3095 0.961 . S
H3110 C3095 0.961 . S
H3111 C3095 0.961 . S
H3112 C3096 0.931 . S
H3113 C3101 0.930 . S
H3114 C3102 0.956 . S
H3115 C3102 0.961 . S
H3116 C3102 0.961 . S
H3117 C3103 0.958 . S
H3118 C3103 0.961 . S
H3119 C3103 0.960 . S
C3120 C3121 1.391 . S
C3120 C3122 1.394 . S
C3120 H3136 0.931 . S
C3121 C3120 1.391 . S
C3121 C3125 1.376 . S
C3122 C3120 1.394 . S
C3122 C3123 1.369 . S
C3122 C3126 1.531 . S
C3123 C3122 1.369 . S
C3123 C3124 1.410 . S
C3123 C3131 1.503 . S
C3124 C3123 1.410 . S
C3124 C3125 1.392 . S
C3124 C3127 1.511 . S
C3125 C3121 1.376 . S
C3125 C3124 1.392 . S
C3125 H3137 0.929 . S
C3126 C3122 1.531 . S
C3126 H3138 0.960 . S
C3126 H3139 0.962 . S
C3126 H3140 0.960 . S
C3127 C3124 1.511 . S
C3127 H3141 0.961 . S
C3127 H3142 0.961 . S
C3127 H3143 0.961 . S
C3128 C3129 1.370 . S
C3128 C3130 1.363 . S
C3128 H3144 0.931 . S
C3129 C3128 1.370 . S
C3129 C3133 1.408 . S
C3130 C3128 1.363 . S
C3130 C3131 1.370 . S
C3130 C3134 1.524 . S
C3131 C3123 1.503 . S
C3131 C3130 1.370 . S
C3131 C3132 1.403 . S
C3132 C3131 1.403 . S
C3132 C3133 1.404 . S
C3132 C3135 1.539 . S
C3133 C3129 1.408 . S
C3133 C3132 1.404 . S
C3133 H3145 0.930 . S
C3134 C3130 1.524 . S
C3134 H3146 0.956 . S
C3134 H3147 0.961 . S
C3134 H3148 0.961 . S
C3135 C3132 1.539 . S
C3135 H3149 0.958 . S
C3135 H3150 0.961 . S
C3135 H3151 0.960 . S
H3136 C3120 0.931 . S
H3137 C3125 0.929 . S
H3138 C3126 0.960 . S
H3139 C3126 0.962 . S
H3140 C3126 0.960 . S
H3141 C3127 0.961 . S
H3142 C3127 0.961 . S
H3143 C3127 0.961 . S
H3144 C3128 0.931 . S
H3145 C3133 0.930 . S
H3146 C3134 0.956 . S
H3147 C3134 0.961 . S
H3148 C3134 0.961 . S
H3149 C3135 0.958 . S
H3150 C3135 0.961 . S
H3151 C3135 0.960 . S
C3152 C3153 1.391 . S
C3152 C3154 1.394 . S
C3152 H3168 0.900 1_455 S
C3153 C3152 1.391 . S
C3153 C3157 1.376 . S
C3154 C3152 1.394 . S
C3154 C3155 1.369 . S
C3154 C3158 1.531 . S
C3155 C3154 1.369 . S
C3155 C3156 1.410 . S
C3155 C3163 1.523 . S
C3156 C3155 1.410 . S
C3156 C3157 1.392 . S
C3156 C3159 1.511 . S
C3157 C3153 1.376 . S
C3157 C3156 1.392 . S
C3157 H3169 0.929 . S
C3158 C3154 1.531 . S
C3158 H3170 0.960 1_554 S
C3158 H3171 0.962 . S
C3158 H3172 0.960 1_455 S
C3159 C3156 1.511 . S
C3159 H3173 0.961 . S
C3159 H3174 0.961 . S
C3159 H3175 0.961 . S
C3160 C3161 1.370 . S
C3160 C3162 1.363 1_556 S
C3160 H3176 0.931 . S
C3161 C3160 1.370 . S
C3161 C3165 1.408 . S
C3162 C3160 1.363 1_554 S
C3162 C3163 1.374 . S
C3162 C3166 1.524 . S
C3163 C3155 1.523 . S
C3163 C3162 1.374 . S
C3163 C3164 1.379 1_554 S
C3164 C3163 1.379 1_556 S
C3164 C3165 1.404 . S
C3164 C3167 1.539 . S
C3165 C3161 1.408 . S
C3165 C3164 1.404 . S
C3165 H3177 0.930 . S
C3166 C3162 1.524 . S
C3166 H3178 0.956 . S
C3166 H3179 0.961 . S
C3166 H3180 0.961 . S
C3167 C3164 1.539 . S
C3167 H3181 0.958 . S
C3167 H3182 0.961 . S
C3167 H3183 0.960 . S
H3168 C3152 0.900 1_655 S
H3169 C3157 0.929 . S
H3170 C3158 0.960 1_556 S
H3171 C3158 0.962 . S
H3172 C3158 0.960 1_655 S
H3173 C3159 0.961 . S
H3174 C3159 0.961 . S
H3175 C3159 0.961 . S
H3176 C3160 0.931 . S
H3177 C3165 0.930 . S
H3178 C3166 0.956 . S
H3179 C3166 0.961 . S
H3180 C3166 0.961 . S
H3181 C3167 0.958 . S
H3182 C3167 0.961 . S
H3183 C3167 0.960 . S
C3184 C3185 1.391 . S
C3184 C3186 1.394 . S
C3184 H3200 0.931 . S
C3185 C3184 1.391 . S
C3185 C3189 1.376 . S
C3186 C3184 1.394 . S
C3186 C3187 1.369 . S
C3186 C3190 1.531 . S
C3187 C3186 1.369 . S
C3187 C3188 1.410 . S
C3187 C3195 1.503 . S
C3188 C3187 1.410 . S
C3188 C3189 1.392 . S
C3188 C3191 1.511 . S
C3189 C3185 1.376 . S
C3189 C3188 1.392 . S
C3189 H3201 0.929 . S
C3190 C3186 1.531 . S
C3190 H3202 0.960 . S
C3190 H3203 0.962 . S
C3190 H3204 0.960 . S
C3191 C3188 1.511 . S
C3191 H3205 0.961 . S
C3191 H3206 0.961 . S
C3191 H3207 0.961 . S
C3192 C3193 1.370 . S
C3192 C3194 1.363 . S
C3192 H3208 0.931 . S
C3193 C3192 1.370 . S
C3193 C3197 1.408 . S
C3194 C3192 1.363 . S
C3194 C3195 1.370 . S
C3194 C3198 1.524 . S
C3195 C3187 1.503 . S
C3195 C3194 1.370 . S
C3195 C3196 1.403 . S
C3196 C3195 1.403 . S
C3196 C3197 1.404 . S
C3196 C3199 1.539 . S
C3197 C3193 1.408 . S
C3197 C3196 1.404 . S
C3197 H3209 0.930 . S
C3198 C3194 1.524 . S
C3198 H3210 0.956 . S
C3198 H3211 0.961 . S
C3198 H3212 0.961 . S
C3199 C3196 1.539 . S
C3199 H3213 0.958 . S
C3199 H3214 0.961 . S
C3199 H3215 0.960 . S
H3200 C3184 0.931 . S
H3201 C3189 0.929 . S
H3202 C3190 0.960 . S
H3203 C3190 0.962 . S
H3204 C3190 0.960 . S
H3205 C3191 0.961 . S
H3206 C3191 0.961 . S
H3207 C3191 0.961 . S
H3208 C3192 0.931 . S
H3209 C3197 0.930 . S
H3210 C3198 0.956 . S
H3211 C3198 0.961 . S
H3212 C3198 0.961 . S
H3213 C3199 0.958 . S
H3214 C3199 0.961 . S
H3215 C3199 0.960 . S
C3216 C3217 1.391 . S
C3216 C3218 1.394 . S
C3216 H3232 0.931 . S
C3217 C3216 1.391 . S
C3217 C3221 1.376 . S
C3218 C3216 1.394 . S
C3218 C3219 1.369 . S
C3218 C3222 1.531 . S
C3219 C3218 1.369 . S
C3219 C3220 1.410 . S
C3219 C3227 1.503 . S
C3220 C3219 1.410 . S
C3220 C3221 1.392 . S
C3220 C3223 1.511 . S
C3221 C3217 1.376 . S
C3221 C3220 1.392 . S
C3221 H3233 0.929 . S
C3222 C3218 1.531 . S
C3222 H3234 0.960 . S
C3222 H3235 0.962 . S
C3222 H3236 0.960 . S
C3223 C3220 1.511 . S
C3223 H3237 0.961 . S
C3223 H3238 0.961 . S
C3223 H3239 0.961 . S
C3224 C3225 1.370 . S
C3224 C3226 1.363 . S
C3224 H3240 0.931 . S
C3225 C3224 1.370 . S
C3225 C3229 1.408 . S
C3226 C3224 1.363 . S
C3226 C3227 1.370 . S
C3226 C3230 1.524 . S
C3227 C3219 1.503 . S
C3227 C3226 1.370 . S
C3227 C3228 1.403 . S
C3228 C3227 1.403 . S
C3228 C3229 1.404 . S
C3228 C3231 1.539 . S
C3229 C3225 1.408 . S
C3229 C3228 1.404 . S
C3229 H3241 0.930 . S
C3230 C3226 1.524 . S
C3230 H3242 0.956 . S
C3230 H3243 0.961 . S
C3230 H3244 0.961 . S
C3231 C3228 1.539 . S
C3231 H3245 0.958 . S
C3231 H3246 0.961 . S
C3231 H3247 0.960 . S
H3232 C3216 0.931 . S
H3233 C3221 0.929 . S
H3234 C3222 0.960 . S
H3235 C3222 0.962 . S
H3236 C3222 0.960 . S
H3237 C3223 0.961 . S
H3238 C3223 0.961 . S
H3239 C3223 0.961 . S
H3240 C3224 0.931 . S
H3241 C3229 0.930 . S
H3242 C3230 0.956 . S
H3243 C3230 0.961 . S
H3244 C3230 0.961 . S
H3245 C3231 0.958 . S
H3246 C3231 0.961 . S
H3247 C3231 0.960 . S
C3248 C3249 1.391 . S
C3248 C3250 1.394 . S
C3248 H3264 0.931 . S
C3249 C3248 1.391 . S
C3249 C3253 1.376 . S
C3250 C3248 1.394 . S
C3250 C3251 1.369 . S
C3250 C3254 1.531 . S
C3251 C3250 1.369 . S
C3251 C3252 1.410 . S
C3251 C3259 1.503 . S
C3252 C3251 1.410 . S
C3252 C3253 1.392 . S
C3252 C3255 1.511 . S
C3253 C3249 1.376 . S
C3253 C3252 1.392 . S
C3253 H3265 0.929 . S
C3254 C3250 1.531 . S
C3254 H3266 0.960 . S
C3254 H3267 0.962 . S
C3254 H3268 0.960 . S
C3255 C3252 1.511 . S
C3255 H3269 0.961 . S
C3255 H3270 0.961 . S
C3255 H3271 0.961 . S
C3256 C3257 1.370 . S
C3256 C3258 1.363 . S
C3256 H3272 0.931 . S
C3257 C3256 1.370 . S
C3257 C3261 1.408 . S
C3258 C3256 1.363 . S
C3258 C3259 1.370 . S
C3258 C3262 1.524 . S
C3259 C3251 1.503 . S
C3259 C3258 1.370 . S
C3259 C3260 1.403 . S
C3260 C3259 1.403 . S
C3260 C3261 1.404 . S
C3260 C3263 1.539 . S
C3261 C3257 1.408 . S
C3261 C3260 1.404 . S
C3261 H3273 0.930 . S
C3262 C3258 1.524 . S
C3262 H3274 0.956 . S
C3262 H3275 0.961 . S
C3262 H3276 0.961 . S
C3263 C3260 1.539 . S
C3263 H3277 0.958 . S
C3263 H3278 0.961 . S
C3263 H3279 0.960 . S
H3264 C3248 0.931 . S
H3265 C3253 0.929 . S
H3266 C3254 0.960 . S
H3267 C3254 0.962 . S
H3268 C3254 0.960 . S
H3269 C3255 0.961 . S
H3270 C3255 0.961 . S
H3271 C3255 0.961 . S
H3272 C3256 0.931 . S
H3273 C3261 0.930 . S
H3274 C3262 0.956 . S
H3275 C3262 0.961 . S
H3276 C3262 0.961 . S
H3277 C3263 0.958 . S
H3278 C3263 0.961 . S
H3279 C3263 0.960 . S
C3280 C3281 1.391 . S
C3280 C3282 1.394 . S
C3280 H3296 0.931 . S
C3281 C3280 1.391 . S
C3281 C3285 1.376 . S
C3282 C3280 1.394 . S
C3282 C3283 1.369 . S
C3282 C3286 1.531 . S
C3283 C3282 1.369 . S
C3283 C3284 1.410 . S
C3283 C3291 1.503 . S
C3284 C3283 1.410 . S
C3284 C3285 1.392 . S
C3284 C3287 1.511 . S
C3285 C3281 1.376 . S
C3285 C3284 1.392 . S
C3285 H3297 0.929 . S
C3286 C3282 1.531 . S
C3286 H3298 0.960 . S
C3286 H3299 0.962 . S
C3286 H3300 0.931 1_554 S
C3287 C3284 1.511 . S
C3287 H3301 0.961 . S
C3287 H3302 0.961 . S
C3287 H3303 0.961 . S
C3288 C3289 1.370 . S
C3288 C3290 1.363 . S
C3288 H3304 0.931 . S
C3289 C3288 1.370 . S
C3289 C3293 1.408 . S
C3290 C3288 1.363 . S
C3290 C3291 1.370 . S
C3290 C3294 1.524 . S
C3291 C3283 1.503 . S
C3291 C3290 1.370 . S
C3291 C3292 1.403 . S
C3292 C3291 1.403 . S
C3292 C3293 1.404 . S
C3292 C3295 1.539 . S
C3293 C3289 1.408 . S
C3293 C3292 1.404 . S
C3293 H3305 0.930 . S
C3294 C3290 1.524 . S
C3294 H3306 0.956 . S
C3294 H3307 0.961 . S
C3294 H3308 0.961 . S
C3295 C3292 1.539 . S
C3295 H3309 0.958 . S
C3295 H3310 0.961 . S
C3295 H3311 0.960 . S
H3296 C3280 0.931 . S
H3297 C3285 0.929 . S
H3298 C3286 0.960 . S
H3299 C3286 0.962 . S
H3300 C3286 0.931 1_556 S
H3301 C3287 0.961 . S
H3302 C3287 0.961 . S
H3303 C3287 0.961 . S
H3304 C3288 0.931 . S
H3305 C3293 0.930 . S
H3306 C3294 0.956 . S
H3307 C3294 0.961 . S
H3308 C3294 0.961 . S
H3309 C3295 0.958 . S
H3310 C3295 0.961 . S
H3311 C3295 0.960 . S
C3312 C3313 1.391 . S
C3312 C3314 1.394 . S
C3312 H3328 0.931 . S
C3313 C3312 1.391 . S
C3313 C3317 1.376 . S
C3314 C3312 1.394 . S
C3314 C3315 1.369 . S
C3314 C3318 1.531 . S
C3315 C3314 1.369 . S
C3315 C3316 1.410 . S
C3315 C3323 1.503 . S
C3316 C3315 1.410 . S
C3316 C3317 1.392 . S
C3316 C3319 1.511 . S
C3317 C3313 1.376 . S
C3317 C3316 1.392 . S
C3317 H3329 0.929 . S
C3318 C3314 1.531 . S
C3318 H3330 0.960 . S
C3318 H3331 0.962 . S
C3318 H3332 0.960 . S
C3319 C3316 1.511 . S
C3319 H3333 0.961 . S
C3319 H3334 0.961 . S
C3319 H3335 0.961 . S
C3320 C3321 1.370 . S
C3320 C3322 1.363 . S
C3320 H3336 0.931 . S
C3321 C3320 1.370 . S
C3321 C3325 1.408 . S
C3322 C3320 1.363 . S
C3322 C3323 1.370 . S
C3322 C3326 1.524 . S
C3323 C3315 1.503 . S
C3323 C3322 1.370 . S
C3323 C3324 1.403 . S
C3324 C3323 1.403 . S
C3324 C3325 1.404 . S
C3324 C3327 1.539 . S
C3325 C3321 1.408 . S
C3325 C3324 1.404 . S
C3325 H3337 0.930 . S
C3326 C3322 1.524 . S
C3326 H3338 0.956 . S
C3326 H3339 0.961 . S
C3326 H3340 0.961 . S
C3327 C3324 1.539 . S
C3327 H3341 0.958 . S
C3327 H3342 0.961 . S
C3327 H3343 0.960 . S
H3328 C3312 0.931 . S
H3329 C3317 0.929 . S
H3330 C3318 0.960 . S
H3331 C3318 0.962 . S
H3332 C3318 0.960 . S
H3333 C3319 0.961 . S
H3334 C3319 0.961 . S
H3335 C3319 0.961 . S
H3336 C3320 0.931 . S
H3337 C3325 0.930 . S
H3338 C3326 0.956 . S
H3339 C3326 0.961 . S
H3340 C3326 0.961 . S
H3341 C3327 0.958 . S
H3342 C3327 0.961 . S
H3343 C3327 0.960 . S
C3344 C3345 1.391 . S
C3344 C3346 1.394 . S
C3344 H3360 0.931 . S
C3345 C3344 1.391 . S
C3345 C3349 1.376 . S
C3346 C3344 1.394 . S
C3346 C3347 1.369 . S
C3346 C3350 1.531 . S
C3347 C3346 1.369 . S
C3347 C3348 1.410 . S
C3347 C3355 1.503 . S
C3348 C3347 1.410 . S
C3348 C3349 1.392 . S
C3348 C3351 1.511 . S
C3349 C3345 1.376 . S
C3349 C3348 1.392 . S
C3349 H3361 0.929 . S
C3350 C3346 1.531 . S
C3350 H3362 0.960 . S
C3350 H3363 0.962 . S
C3350 H3364 0.960 . S
C3351 C3348 1.511 . S
C3351 H3365 0.961 . S
C3351 H3366 0.961 . S
C3351 H3367 0.961 . S
C3352 C3353 1.370 . S
C3352 C3354 1.363 . S
C3352 H3368 0.931 . S
C3353 C3352 1.370 . S
C3353 C3357 1.408 . S
C3354 C3352 1.363 . S
C3354 C3355 1.370 . S
C3354 C3358 1.524 . S
C3355 C3347 1.503 . S
C3355 C3354 1.370 . S
C3355 C3356 1.403 . S
C3356 C3355 1.403 . S
C3356 C3357 1.404 . S
C3356 C3359 1.539 . S
C3357 C3353 1.408 . S
C3357 C3356 1.404 . S
C3357 H3369 0.930 . S
C3358 C3354 1.524 . S
C3358 H3370 0.956 . S
C3358 H3371 0.961 . S
C3358 H3372 0.961 . S
C3359 C3356 1.539 . S
C3359 H3373 0.958 . S
C3359 H3374 0.961 . S
C3359 H3375 0.960 . S
H3360 C3344 0.931 . S
H3361 C3349 0.929 . S
H3362 C3350 0.960 . S
H3363 C3350 0.962 . S
H3364 C3350 0.960 . S
H3365 C3351 0.961 . S
H3366 C3351 0.961 . S
H3367 C3351 0.961 . S
H3368 C3352 0.931 . S
H3369 C3357 0.930 . S
H3370 C3358 0.956 . S
H3371 C3358 0.961 . S
H3372 C3358 0.961 . S
H3373 C3359 0.958 . S
H3374 C3359 0.961 . S
H3375 C3359 0.960 . S
C3376 C3377 1.391 . S
C3376 C3378 1.394 . S
C3376 H3392 0.931 . S
C3377 C3376 1.391 . S
C3377 C3381 1.376 . S
C3378 C3376 1.394 . S
C3378 C3379 1.369 . S
C3378 C3382 1.531 . S
C3379 C3378 1.369 . S
C3379 C3380 1.410 . S
C3379 C3387 1.503 . S
C3380 C3379 1.410 . S
C3380 C3381 1.392 . S
C3380 C3383 1.511 . S
C3381 C3377 1.376 . S
C3381 C3380 1.392 . S
C3381 H3393 0.929 . S
C3382 C3378 1.531 . S
C3382 H3394 0.960 . S
C3382 H3395 0.962 . S
C3382 H3396 0.960 . S
C3383 C3380 1.511 . S
C3383 H3397 0.961 . S
C3383 H3398 0.961 . S
C3383 H3399 0.961 . S
C3384 C3385 1.370 . S
C3384 C3386 1.363 . S
C3384 H3400 0.931 . S
C3385 C3384 1.370 . S
C3385 C3389 1.408 . S
C3386 C3384 1.363 . S
C3386 C3387 1.370 . S
C3386 C3390 1.524 . S
C3387 C3379 1.503 . S
C3387 C3386 1.370 . S
C3387 C3388 1.403 . S
C3388 C3387 1.403 . S
C3388 C3389 1.404 . S
C3388 C3391 1.539 . S
C3389 C3385 1.408 . S
C3389 C3388 1.404 . S
C3389 H3401 0.930 . S
C3390 C3386 1.524 . S
C3390 H3402 0.956 . S
C3390 H3403 0.961 . S
C3390 H3404 0.961 . S
C3391 C3388 1.539 . S
C3391 H3405 0.958 . S
C3391 H3406 0.961 . S
C3391 H3407 0.960 . S
H3392 C3376 0.931 . S
H3393 C3381 0.929 . S
H3394 C3382 0.960 . S
H3395 C3382 0.962 . S
H3396 C3382 0.960 . S
H3397 C3383 0.961 . S
H3398 C3383 0.961 . S
H3399 C3383 0.961 . S
H3400 C3384 0.931 . S
H3401 C3389 0.930 . S
H3402 C3390 0.956 . S
H3403 C3390 0.961 . S
H3404 C3390 0.961 . S
H3405 C3391 0.958 . S
H3406 C3391 0.961 . S
H3407 C3391 0.960 . S
C3408 C3409 1.391 . S
C3408 C3410 1.394 . S
C3408 H3424 0.931 . S
C3409 C3408 1.391 . S
C3409 C3413 1.376 . S
C3410 C3408 1.394 . S
C3410 C3411 1.369 . S
C3410 C3414 1.531 . S
C3411 C3410 1.369 . S
C3411 C3412 1.410 . S
C3411 C3419 1.503 . S
C3412 C3411 1.410 . S
C3412 C3413 1.392 . S
C3412 C3415 1.511 . S
C3413 C3409 1.376 . S
C3413 C3412 1.392 . S
C3413 H3425 0.929 1_556 S
C3414 C3410 1.531 . S
C3414 H3426 0.960 . S
C3414 H3427 0.962 . S
C3414 H3428 0.960 . S
C3415 C3412 1.511 . S
C3415 H3429 0.961 1_556 S
C3415 H3430 0.961 . S
C3415 H3431 0.944 1_556 S
C3416 C3417 1.370 . S
C3416 C3418 1.363 . S
C3416 H3432 0.931 . S
C3417 C3416 1.370 . S
C3417 C3421 1.408 . S
C3418 C3416 1.363 . S
C3418 C3419 1.370 . S
C3418 C3422 1.524 . S
C3419 C3411 1.503 . S
C3419 C3418 1.370 . S
C3419 C3420 1.403 . S
C3420 C3419 1.403 . S
C3420 C3421 1.404 . S
C3420 C3423 1.539 . S
C3421 C3417 1.408 . S
C3421 C3420 1.404 . S
C3421 H3433 0.930 . S
C3422 C3418 1.524 . S
C3422 H3434 0.956 . S
C3422 H3435 0.961 . S
C3422 H3436 0.961 . S
C3423 C3420 1.539 . S
C3423 H3437 0.958 . S
C3423 H3438 0.961 . S
C3423 H3439 0.960 . S
H3424 C3408 0.931 . S
H3425 C3413 0.929 1_554 S
H3426 C3414 0.960 . S
H3427 C3414 0.962 . S
H3428 C3414 0.960 . S
H3429 C3415 0.961 1_554 S
H3430 C3415 0.961 . S
H3431 C3415 0.944 1_554 S
H3432 C3416 0.931 . S
H3433 C3421 0.930 . S
H3434 C3422 0.956 . S
H3435 C3422 0.961 . S
H3436 C3422 0.961 . S
H3437 C3423 0.958 . S
H3438 C3423 0.961 . S
H3439 C3423 0.960 . S
C3440 C3441 1.391 . S
C3440 C3442 1.394 . S
C3440 H3456 0.931 . S
C3441 C3440 1.391 . S
C3441 C3445 1.376 . S
C3442 C3440 1.394 . S
C3442 C3443 1.369 . S
C3442 C3446 1.531 . S
C3443 C3442 1.369 . S
C3443 C3444 1.410 . S
C3443 C3451 1.503 . S
C3444 C3443 1.410 . S
C3444 C3445 1.392 . S
C3444 C3447 1.511 . S
C3445 C3441 1.376 . S
C3445 C3444 1.392 . S
C3445 H3457 0.929 . S
C3446 C3442 1.531 . S
C3446 H3458 0.960 . S
C3446 H3459 0.962 . S
C3446 H3460 0.960 . S
C3447 C3444 1.511 . S
C3447 H3461 0.961 . S
C3447 H3462 0.961 . S
C3447 H3463 0.961 . S
C3448 C3449 1.370 . S
C3448 C3450 1.363 . S
C3448 H3464 0.931 . S
C3449 C3448 1.370 . S
C3449 C3453 1.408 . S
C3450 C3448 1.363 . S
C3450 C3451 1.370 . S
C3450 C3454 1.524 . S
C3451 C3443 1.503 . S
C3451 C3450 1.370 . S
C3451 C3452 1.403 . S
C3452 C3451 1.403 . S
C3452 C3453 1.404 . S
C3452 C3455 1.539 . S
C3453 C3449 1.408 . S
C3453 C3452 1.404 . S
C3453 H3465 0.930 . S
C3454 C3450 1.524 . S
C3454 H3466 0.956 . S
C3454 H3467 0.961 . S
C3454 H3468 0.961 . S
C3455 C3452 1.539 . S
C3455 H3469 0.958 . S
C3455 H3470 0.961 . S
C3455 H3471 0.960 . S
H3456 C3440 0.931 . S
H3457 C3445 0.929 . S
H3458 C3446 0.960 . S
H3459 C3446 0.962 . S
H3460 C3446 0.960 . S
H3461 C3447 0.961 . S
H3462 C3447 0.961 . S
H3463 C3447 0.961 . S
H3464 C3448 0.931 . S
H3465 C3453 0.930 . S
H3466 C3454 0.956 . S
H3467 C3454 0.961 . S
H3468 C3454 0.961 . S
H3469 C3455 0.958 . S
H3470 C3455 0.961 . S
H3471 C3455 0.960 . S
C3472 C3473 1.391 . S
C3472 C3474 1.394 . S
C3472 H3488 0.931 . S
C3473 C3472 1.391 . S
C3473 C3477 1.376 . S
C3474 C3472 1.394 . S
C3474 C3475 1.369 . S
C3474 C3478 1.531 . S
C3475 C3474 1.369 . S
C3475 C3476 1.410 . S
C3475 C3483 1.503 . S
C3476 C3475 1.410 . S
C3476 C3477 1.392 . S
C3476 C3479 1.511 . S
C3477 C3473 1.376 . S
C3477 C3476 1.392 . S
C3477 H3489 0.929 . S
C3478 C3474 1.531 . S
C3478 H3490 0.960 . S
C3478 H3491 0.962 . S
C3478 H3492 0.960 . S
C3479 C3476 1.511 . S
C3479 H3493 0.961 . S
C3479 H3494 0.961 . S
C3479 H3495 0.961 . S
C3480 C3481 1.370 . S
C3480 C3482 1.363 . S
C3480 H3496 0.931 . S
C3481 C3480 1.370 . S
C3481 C3485 1.408 . S
C3482 C3480 1.363 . S
C3482 C3483 1.370 . S
C3482 C3486 1.524 . S
C3483 C3475 1.503 . S
C3483 C3482 1.370 . S
C3483 C3484 1.403 . S
C3484 C3483 1.403 . S
C3484 C3485 1.404 . S
C3484 C3487 1.539 . S
C3485 C3481 1.408 . S
C3485 C3484 1.404 . S
C3485 H3497 0.930 . S
C3486 C3482 1.524 . S
C3486 H3498 0.956 . S
C3486 H3499 0.961 . S
C3486 H3500 0.961 . S
C3487 C3484 1.539 . S
C3487 H3501 0.958 . S
C3487 H3502 0.961 . S
C3487 H3503 0.960 . S
H3488 C3472 0.931 . S
H3489 C3477 0.929 . S
H3490 C3478 0.960 . S
H3491 C3478 0.962 . S
H3492 C3478 0.960 . S
H3493 C3479 0.961 . S
H3494 C3479 0.961 . S
H3495 C3479 0.961 . S
H3496 C3480 0.931 . S
H3497 C3485 0.930 . S
H3498 C3486 0.956 . S
H3499 C3486 0.961 . S
H3500 C3486 0.961 . S
H3501 C3487 0.958 . S
H3502 C3487 0.961 . S
H3503 C3487 0.960 . S
C3504 C3505 1.391 . S
C3504 C3506 1.394 . S
C3504 H3520 0.931 . S
C3505 C3504 1.391 . S
C3505 C3509 1.376 . S
C3506 C3504 1.394 . S
C3506 C3507 1.369 . S
C3506 C3510 1.531 . S
C3507 C3506 1.369 . S
C3507 C3508 1.410 . S
C3507 C3515 1.503 . S
C3508 C3507 1.410 . S
C3508 C3509 1.392 . S
C3508 C3511 1.511 . S
C3509 C3505 1.376 . S
C3509 C3508 1.392 . S
C3509 H3521 0.929 . S
C3510 C3506 1.531 . S
C3510 H3522 0.960 . S
C3510 H3523 0.962 . S
C3510 H3524 0.960 . S
C3511 C3508 1.511 . S
C3511 H3525 0.961 . S
C3511 H3526 0.961 . S
C3511 H3527 0.961 . S
C3512 C3513 1.370 . S
C3512 C3514 1.363 . S
C3512 H3528 0.931 . S
C3513 C3512 1.370 . S
C3513 C3517 1.408 . S
C3514 C3512 1.363 . S
C3514 C3515 1.370 . S
C3514 C3518 1.524 . S
C3515 C3507 1.503 . S
C3515 C3514 1.370 . S
C3515 C3516 1.403 . S
C3516 C3515 1.403 . S
C3516 C3517 1.404 . S
C3516 C3519 1.539 . S
C3517 C3513 1.408 . S
C3517 C3516 1.404 . S
C3517 H3529 0.930 . S
C3518 C3514 1.524 . S
C3518 H3530 0.956 . S
C3518 H3531 0.961 . S
C3518 H3532 0.961 . S
C3519 C3516 1.539 . S
C3519 H3533 0.958 . S
C3519 H3534 0.961 . S
C3519 H3535 0.960 . S
H3520 C3504 0.931 . S
H3521 C3509 0.929 . S
H3522 C3510 0.960 . S
H3523 C3510 0.962 . S
H3524 C3510 0.960 . S
H3525 C3511 0.961 . S
H3526 C3511 0.961 . S
H3527 C3511 0.961 . S
H3528 C3512 0.931 . S
H3529 C3517 0.930 . S
H3530 C3518 0.956 . S
H3531 C3518 0.961 . S
H3532 C3518 0.961 . S
H3533 C3519 0.958 . S
H3534 C3519 0.961 . S
H3535 C3519 0.960 . S
C3536 C3537 1.391 . S
C3536 C3538 1.394 . S
C3536 H3552 0.931 . S
C3537 C3536 1.391 . S
C3537 C3541 1.376 . S
C3538 C3536 1.394 . S
C3538 C3539 1.369 . S
C3538 C3542 1.531 . S
C3539 C3538 1.369 . S
C3539 C3540 1.410 . S
C3539 C3547 1.503 . S
C3540 C3539 1.410 . S
C3540 C3541 1.392 . S
C3540 C3543 1.511 . S
C3541 C3537 1.376 . S
C3541 C3540 1.392 . S
C3541 H3553 0.929 . S
C3542 C3538 1.531 . S
C3542 H3554 0.960 . S
C3542 H3555 0.962 . S
C3542 H3556 0.960 . S
C3543 C3540 1.511 . S
C3543 H3557 0.961 . S
C3543 H3558 0.961 . S
C3543 H3559 0.961 . S
C3544 C3545 1.370 . S
C3544 C3546 1.363 . S
C3544 H3560 0.931 . S
C3545 C3544 1.370 . S
C3545 C3549 1.408 . S
C3546 C3544 1.363 . S
C3546 C3547 1.370 . S
C3546 C3550 1.524 . S
C3547 C3539 1.503 . S
C3547 C3546 1.370 . S
C3547 C3548 1.403 . S
C3548 C3547 1.403 . S
C3548 C3549 1.404 . S
C3548 C3551 1.539 . S
C3549 C3545 1.408 . S
C3549 C3548 1.404 . S
C3549 H3561 0.930 . S
C3550 C3546 1.524 . S
C3550 H3562 0.956 . S
C3550 H3563 0.961 . S
C3550 H3564 0.961 . S
C3551 C3548 1.539 . S
C3551 H3565 0.958 . S
C3551 H3566 0.961 . S
C3551 H3567 0.960 . S
H3552 C3536 0.931 . S
H3553 C3541 0.929 . S
H3554 C3542 0.960 . S
H3555 C3542 0.962 . S
H3556 C3542 0.960 . S
H3557 C3543 0.961 . S
H3558 C3543 0.961 . S
H3559 C3543 0.961 . S
H3560 C3544 0.931 . S
H3561 C3549 0.930 . S
H3562 C3550 0.956 . S
H3563 C3550 0.961 . S
H3564 C3550 0.961 . S
H3565 C3551 0.958 . S
H3566 C3551 0.961 . S
H3567 C3551 0.960 . S
C3568 C3569 1.391 . S
C3568 C3570 1.394 . S
C3568 H3584 0.931 . S
C3569 C3568 1.391 . S
C3569 C3573 1.376 . S
C3570 C3568 1.394 . S
C3570 C3571 1.369 . S
C3570 C3574 1.531 . S
C3571 C3570 1.369 . S
C3571 C3572 1.410 . S
C3571 C3579 1.503 . S
C3572 C3571 1.410 . S
C3572 C3573 1.392 . S
C3572 C3575 1.511 . S
C3573 C3569 1.376 . S
C3573 C3572 1.392 . S
C3573 H3585 0.929 . S
C3574 C3570 1.531 . S
C3574 H3586 0.960 . S
C3574 H3587 0.962 . S
C3574 H3588 0.960 . S
C3575 C3572 1.511 . S
C3575 H3589 0.961 . S
C3575 H3590 0.961 . S
C3575 H3591 0.961 . S
C3576 C3577 1.370 . S
C3576 C3578 1.363 . S
C3576 H3592 0.931 . S
C3577 C3576 1.370 . S
C3577 C3581 1.408 . S
C3578 C3576 1.363 . S
C3578 C3579 1.370 . S
C3578 C3582 1.524 . S
C3579 C3571 1.503 . S
C3579 C3578 1.370 . S
C3579 C3580 1.403 . S
C3580 C3579 1.403 . S
C3580 C3581 1.404 . S
C3580 C3583 1.539 . S
C3581 C3577 1.408 . S
C3581 C3580 1.404 . S
C3581 H3593 0.930 . S
C3582 C3578 1.524 . S
C3582 H3594 0.956 . S
C3582 H3595 0.961 . S
C3582 H3596 0.961 . S
C3583 C3580 1.539 . S
C3583 H3597 0.958 . S
C3583 H3598 0.961 . S
C3583 H3599 0.960 . S
H3584 C3568 0.931 . S
H3585 C3573 0.929 . S
H3586 C3574 0.960 . S
H3587 C3574 0.962 . S
H3588 C3574 0.960 . S
H3589 C3575 0.961 . S
H3590 C3575 0.961 . S
H3591 C3575 0.961 . S
H3592 C3576 0.931 . S
H3593 C3581 0.930 . S
H3594 C3582 0.956 . S
H3595 C3582 0.961 . S
H3596 C3582 0.961 . S
H3597 C3583 0.958 . S
H3598 C3583 0.961 . S
H3599 C3583 0.960 . S
C3600 C3601 1.391 . S
C3600 C3602 1.394 . S
C3600 H3616 0.931 . S
C3601 C3600 1.391 . S
C3601 C3605 1.376 . S
C3602 C3600 1.394 . S
C3602 C3603 1.369 . S
C3602 C3606 1.531 . S
C3603 C3602 1.369 . S
C3603 C3604 1.410 . S
C3603 C3611 1.503 . S
C3604 C3603 1.410 . S
C3604 C3605 1.392 . S
C3604 C3607 1.511 . S
C3605 C3601 1.376 . S
C3605 C3604 1.392 . S
C3605 H3617 0.929 . S
C3606 C3602 1.531 . S
C3606 H3618 0.960 . S
C3606 H3619 0.962 . S
C3606 H3620 0.960 . S
C3607 C3604 1.511 . S
C3607 H3621 0.961 . S
C3607 H3622 0.961 . S
C3607 H3623 0.961 . S
C3608 C3609 1.370 . S
C3608 C3610 1.363 . S
C3608 H3624 0.931 . S
C3609 C3608 1.370 . S
C3609 C3613 1.408 . S
C3610 C3608 1.363 . S
C3610 C3611 1.370 . S
C3610 C3614 1.524 . S
C3611 C3603 1.503 . S
C3611 C3610 1.370 . S
C3611 C3612 1.403 . S
C3612 C3611 1.403 . S
C3612 C3613 1.404 . S
C3612 C3615 1.539 . S
C3613 C3609 1.408 . S
C3613 C3612 1.404 . S
C3613 H3625 0.930 . S
C3614 C3610 1.524 . S
C3614 H3626 0.956 . S
C3614 H3627 0.961 . S
C3614 H3628 0.961 . S
C3615 C3612 1.539 . S
C3615 H3629 0.958 . S
C3615 H3630 0.961 . S
C3615 H3631 0.960 . S
H3616 C3600 0.931 . S
H3617 C3605 0.929 . S
H3618 C3606 0.960 . S
H3619 C3606 0.962 . S
H3620 C3606 0.960 . S
H3621 C3607 0.961 . S
H3622 C3607 0.961 . S
H3623 C3607 0.961 . S
H3624 C3608 0.931 . S
H3625 C3613 0.930 . S
H3626 C3614 0.956 . S
H3627 C3614 0.961 . S
H3628 C3614 0.961 . S
H3629 C3615 0.958 . S
H3630 C3615 0.961 . S
H3631 C3615 0.960 . S
C3632 C3633 1.391 . S
C3632 C3634 1.394 . S
C3632 H3648 0.931 . S
C3633 C3632 1.391 . S
C3633 C3637 1.376 . S
C3634 C3632 1.394 . S
C3634 C3635 1.369 . S
C3634 C3638 1.531 . S
C3635 C3634 1.369 . S
C3635 C3636 1.410 . S
C3635 C3643 1.503 . S
C3636 C3635 1.410 . S
C3636 C3637 1.392 . S
C3636 C3639 1.511 . S
C3637 C3633 1.376 . S
C3637 C3636 1.392 . S
C3637 H3649 0.929 . S
C3638 C3634 1.531 . S
C3638 H3650 0.960 . S
C3638 H3651 0.962 . S
C3638 H3652 0.960 . S
C3639 C3636 1.511 . S
C3639 H3653 0.961 . S
C3639 H3654 0.961 . S
C3639 H3655 0.961 . S
C3640 C3641 1.370 . S
C3640 C3642 1.363 . S
C3640 H3656 0.931 . S
C3641 C3640 1.370 . S
C3641 C3645 1.408 . S
C3642 C3640 1.363 . S
C3642 C3643 1.370 . S
C3642 C3646 1.524 . S
C3643 C3635 1.503 . S
C3643 C3642 1.370 . S
C3643 C3644 1.403 . S
C3644 C3643 1.403 . S
C3644 C3645 1.404 . S
C3644 C3647 1.539 . S
C3645 C3641 1.408 . S
C3645 C3644 1.404 . S
C3645 H3657 0.930 . S
C3646 C3642 1.524 . S
C3646 H3658 0.956 . S
C3646 H3659 0.961 . S
C3646 H3660 0.961 . S
C3647 C3644 1.539 . S
C3647 H3661 0.958 . S
C3647 H3662 0.961 . S
C3647 H3663 0.960 . S
H3648 C3632 0.931 . S
H3649 C3637 0.929 . S
H3650 C3638 0.960 . S
H3651 C3638 0.962 . S
H3652 C3638 0.960 . S
H3653 C3639 0.961 . S
H3654 C3639 0.961 . S
H3655 C3639 0.961 . S
H3656 C3640 0.931 . S
H3657 C3645 0.930 . S
H3658 C3646 0.956 . S
H3659 C3646 0.961 . S
H3660 C3646 0.961 . S
H3661 C3647 0.958 . S
H3662 C3647 0.961 . S
H3663 C3647 0.960 . S
C3664 C3665 1.391 . S
C3664 C3666 1.394 . S
C3664 H3680 0.931 . S
C3665 C3664 1.391 . S
C3665 C3669 1.376 . S
C3666 C3664 1.394 . S
C3666 C3667 1.369 . S
C3666 C3670 1.531 . S
C3667 C3666 1.369 . S
C3667 C3668 1.410 . S
C3667 C3675 1.503 . S
C3668 C3667 1.410 . S
C3668 C3669 1.392 . S
C3668 C3671 1.511 . S
C3669 C3665 1.376 . S
C3669 C3668 1.392 . S
C3669 H3681 0.929 . S
C3670 C3666 1.531 . S
C3670 H3682 0.960 . S
C3670 H3683 0.962 . S
C3670 H3684 0.960 . S
C3671 C3668 1.511 . S
C3671 H3685 0.961 . S
C3671 H3686 0.961 . S
C3671 H3687 0.961 . S
C3672 C3673 1.370 . S
C3672 C3674 1.363 . S
C3672 H3688 0.931 . S
C3673 C3672 1.370 . S
C3673 C3677 1.408 . S
C3674 C3672 1.363 . S
C3674 C3675 1.370 . S
C3674 C3678 1.524 . S
C3675 C3667 1.503 . S
C3675 C3674 1.370 . S
C3675 C3676 1.403 . S
C3676 C3675 1.403 . S
C3676 C3677 1.404 . S
C3676 C3679 1.539 . S
C3677 C3673 1.408 . S
C3677 C3676 1.404 . S
C3677 H3689 0.930 . S
C3678 C3674 1.524 . S
C3678 H3690 0.956 . S
C3678 H3691 0.961 . S
C3678 H3692 0.961 . S
C3679 C3676 1.539 . S
C3679 H3693 0.958 . S
C3679 H3694 0.961 . S
C3679 H3695 0.960 . S
H3680 C3664 0.931 . S
H3681 C3669 0.929 . S
H3682 C3670 0.960 . S
H3683 C3670 0.962 . S
H3684 C3670 0.960 . S
H3685 C3671 0.961 . S
H3686 C3671 0.961 . S
H3687 C3671 0.961 . S
H3688 C3672 0.931 . S
H3689 C3677 0.930 . S
H3690 C3678 0.956 . S
H3691 C3678 0.961 . S
H3692 C3678 0.961 . S
H3693 C3679 0.958 . S
H3694 C3679 0.961 . S
H3695 C3679 0.960 . S
C3696 C3697 1.391 . S
C3696 C3698 1.394 . S
C3696 H3712 0.931 . S
C3697 C3696 1.391 . S
C3697 C3701 1.376 . S
C3698 C3696 1.394 . S
C3698 C3699 1.369 . S
C3698 C3702 1.531 . S
C3699 C3698 1.369 . S
C3699 C3700 1.410 . S
C3699 C3707 1.503 . S
C3700 C3699 1.410 . S
C3700 C3701 1.392 . S
C3700 C3703 1.511 . S
C3701 C3697 1.376 . S
C3701 C3700 1.392 . S
C3701 H3713 0.929 . S
C3702 C3698 1.531 . S
C3702 H3714 0.960 . S
C3702 H3715 0.962 . S
C3702 H3716 0.960 1_565 S
C3703 C3700 1.511 . S
C3703 H3717 0.961 . S
C3703 H3718 0.961 . S
C3703 H3719 0.961 . S
C3704 C3705 1.370 . S
C3704 C3706 1.363 . S
C3704 H3720 0.931 . S
C3705 C3704 1.370 . S
C3705 C3709 1.408 . S
C3706 C3704 1.363 . S
C3706 C3707 1.370 . S
C3706 C3710 1.524 . S
C3707 C3699 1.503 . S
C3707 C3706 1.370 . S
C3707 C3708 1.403 . S
C3708 C3707 1.403 . S
C3708 C3709 1.404 . S
C3708 C3711 1.539 . S
C3709 C3705 1.408 . S
C3709 C3708 1.404 . S
C3709 H3721 0.930 . S
C3710 C3706 1.524 . S
C3710 H3722 0.956 . S
C3710 H3723 0.961 . S
C3710 H3724 0.961 . S
C3711 C3708 1.539 . S
C3711 H3725 0.958 . S
C3711 H3726 0.961 . S
C3711 H3727 0.960 . S
H3712 C3696 0.931 . S
H3713 C3701 0.929 . S
H3714 C3702 0.960 . S
H3715 C3702 0.962 . S
H3716 C3702 0.960 1_545 S
H3717 C3703 0.961 . S
H3718 C3703 0.961 . S
H3719 C3703 0.961 . S
H3720 C3704 0.931 . S
H3721 C3709 0.930 . S
H3722 C3710 0.956 . S
H3723 C3710 0.961 . S
H3724 C3710 0.961 . S
H3725 C3711 0.958 . S
H3726 C3711 0.961 . S
H3727 C3711 0.960 . S
C3728 C3729 1.391 . S
C3728 C3730 1.394 . S
C3728 H3744 0.931 . S
C3729 C3728 1.391 . S
C3729 C3733 1.376 . S
C3730 C3728 1.394 . S
C3730 C3731 1.369 . S
C3730 C3734 1.531 1_455 S
C3731 C3730 1.369 . S
C3731 C3732 1.410 . S
C3731 C3739 1.521 . S
C3732 C3731 1.410 . S
C3732 C3733 1.392 . S
C3732 C3735 1.511 . S
C3733 C3729 1.376 . S
C3733 C3732 1.392 . S
C3733 H3745 0.929 . S
C3734 C3730 1.531 1_655 S
C3734 H3746 0.960 . S
C3734 H3747 0.962 . S
C3734 H3748 0.960 . S
C3735 C3732 1.511 . S
C3735 H3749 0.961 . S
C3735 H3750 0.961 . S
C3735 H3751 0.961 . S
C3736 C3737 1.370 . S
C3736 C3738 1.363 . S
C3736 H3752 0.931 . S
C3737 C3736 1.370 . S
C3737 C3741 1.408 . S
C3738 C3736 1.363 . S
C3738 C3739 1.364 1_655 S
C3738 C3742 1.524 1_655 S
C3739 C3731 1.521 . S
C3739 C3738 1.364 1_455 S
C3739 C3740 1.391 1_455 S
C3740 C3739 1.391 1_655 S
C3740 C3741 1.404 . S
C3740 C3743 1.539 . S
C3741 C3737 1.408 . S
C3741 C3740 1.404 . S
C3741 H3753 0.930 . S
C3742 C3738 1.524 1_455 S
C3742 H3754 0.956 . S
C3742 H3755 0.961 . S
C3742 H3756 0.961 . S
C3743 C3740 1.539 . S
C3743 H3757 0.958 . S
C3743 H3758 0.961 . S
C3743 H3759 0.960 1_655 S
H3744 C3728 0.931 . S
H3745 C3733 0.929 . S
H3746 C3734 0.960 . S
H3747 C3734 0.962 . S
H3748 C3734 0.960 . S
H3749 C3735 0.961 . S
H3750 C3735 0.961 . S
H3751 C3735 0.961 . S
H3752 C3736 0.931 . S
H3753 C3741 0.930 . S
H3754 C3742 0.956 . S
H3755 C3742 0.961 . S
H3756 C3742 0.961 . S
H3757 C3743 0.958 . S
H3758 C3743 0.961 . S
H3759 C3743 0.960 1_455 S
C697 C343 1.038 . S
C689 C11 1.019 . S
C721 C14 1.176 . S
C729 C363 1.143 . S
C761 C384 1.197 . S
C753 C37 1.202 . S
C793 C411 1.135 . S
C785 C47 1.142 . S
C825 C367 1.138 . S
C817 C61 1.140 . S
C849 C79 1.183 . S
C857 C387 1.173 . S
C889 C407 1.149 . S
C881 C84 1.122 . S
C913 C109 1.035 . S
C921 C340 1.022 . S
C945 C123 1.035 . S
C953 C345 1.055 . S
C985 C362 1.119 . S
C977 C131 1.127 . S
C1017 C386 1.203 . S
C1009 C140 1.183 . S
C1049 C410 1.131 . S
C1041 C163 1.180 . S
C1081 C366 1.134 . S
C1073 C121 1.176 . S
C1113 C389 1.168 . S
C1105 C126 1.248 . S
C1137 C145 1.128 . S
C1145 C406 1.114 . S
C1177 C342 1.021 . S
C1169 C165 1.112 . S
C1201 C168 1.059 . S
C1209 C344 1.067 . S
C1233 C193 1.099 . S
C1241 C431 1.074 . S
C1273 C451 1.141 . S
C1265 C205 1.221 . S
C1305 C474 1.169 . S
C1297 C215 1.178 . S
C1329 C224 1.054 . S
C1337 C341 1.088 . S
C1361 C247 1.155 . S
C1369 C385 1.160 . S
C1401 C475 1.095 . S
C1393 C207 1.123 . S
C1433 C430 1.134 . S
C1425 C257 1.225 . S
C1465 C498 1.145 . S
C1457 C23 1.147 . S
C1497 C519 1.072 . S
C1489 C0 1.095 . S
C1521 C53 1.056 . S
C1529 C538 1.025 . S
C1553 C33 1.175 . S
C1561 C563 1.137 . S
C1585 C103 1.194 . S
C1593 C518 1.159 . S
C1617 C95 1.054 . S
C1625 C543 1.024 . S
C1657 C562 1.057 . S
C1649 C70 1.067 . S
C1681 C65 1.170 . S
C1689 C495 1.137 . S
C1713 C271 1.215 . S
C1721 C499 1.180 . S
C1753 C520 1.105 . S
C1745 C219 1.107 . S
C1785 C539 1.007 . S
C1777 C235 1.027 . S
C1817 C564 1.056 . S
C1809 C182 1.066 . S
C1849 C516 1.063 . S
C1841 C266 1.080 . S
C1881 C541 1.028 . S
C1873 C221 1.057 . S
C1913 C560 1.115 . S
C1905 C233 1.151 . S
C1937 C187 1.186 . S
C1945 C496 1.154 . S
C1977 C497 1.087 . S
C1969 C289 1.126 . S
C2001 C154 1.173 . S
C2009 C583 1.143 . S
C2041 C608 1.071 . S
C2033 C299 1.095 . S
C2065 C137 1.102 . S
C2073 C627 1.077 . S
C2105 C494 1.092 . S
C2097 C149 1.099 . S
C2137 C540 1.081 . S
C2129 C313 1.114 . S
C2169 C631 1.146 . S
C2161 C294 1.180 . S
C2193 C333 1.089 . S
C2201 C587 1.069 . S
C2225 C39 1.094 . S
C2233 C651 1.003 . S
C2257 C42 1.136 . S
C2265 C429 1.127 . S
C2297 C453 1.194 . S
C2289 C9 1.190 . S
C2321 C19 1.185 . S
C2329 C477 1.129 . S
C2353 C89 1.143 . S
C2361 C433 1.137 . S
C2385 C107 1.189 . S
C2393 C450 1.167 . S
C2425 C473 1.154 . S
C2417 C56 1.140 . S
C2457 C648 1.039 . S
C2449 C81 1.065 . S
C2489 C653 1.064 . S
C2481 C305 1.037 . S
C2521 C428 1.126 . S
C2513 C285 1.133 . S
C2553 C455 1.183 . S
C2545 C322 1.190 . S
C2577 C317 1.126 . S
C2585 C476 1.137 . S
C2617 C432 1.114 . S
C2609 C303 1.123 . S
C2641 C280 1.220 . S
C2649 C452 1.201 . S
C2681 C472 1.085 . S
C2673 C327 1.176 . S
C2705 C319 1.034 . S
C2713 C650 1.057 . S
C2745 C652 1.047 . S
C2737 C210 1.100 . S
C2769 C249 1.093 . S
C2777 C365 1.078 . S
C2809 C388 1.131 . S
C2801 C275 1.176 . S
C2833 C173 1.219 . S
C2841 C408 1.161 . S
C2873 C649 1.090 . S
C2865 C252 1.062 . S
C2905 C454 1.146 . S
C2897 C191 1.154 . S
C2937 C409 1.062 . S
C2929 C277 1.148 . S
C2969 C364 1.140 . S
C2961 C229 1.194 . S
C2993 C51 1.196 . S
C3001 C675 1.150 . S
C3025 C28 1.120 . S
C3033 C585 1.088 . S
C3057 C25 1.029 . S
C3065 C604 1.006 . S
C3097 C629 1.155 . S
C3089 C5 1.186 . S
C3129 C584 1.159 . S
C3121 C75 1.191 . S
C3153 C67 1.002 . S
C3161 C609 0.984 . S
C3193 C628 1.058 . S
C3185 C98 1.069 . S
C3217 C93 1.196 . S
C3225 C670 1.167 . S
C3257 C673 1.164 . S
C3249 C201 1.195 . S
C3281 C177 1.107 . S
C3289 C586 1.109 . S
C3313 C263 1.004 . S
C3321 C605 0.990 . S
C3353 C630 1.089 . S
C3345 C238 1.121 . S
C3385 C582 1.056 . S
C3377 C196 1.069 . S
C3409 C179 1.060 . S
C3417 C607 1.030 . S
C3449 C626 1.103 . S
C3441 C261 1.108 . S
C3481 C671 1.164 . S
C3473 C243 1.212 . S
C3513 C674 1.086 . S
C3505 C135 1.124 . S
C3545 C517 1.145 . S
C3537 C308 1.176 . S
C3569 C117 1.083 . S
C3577 C542 1.047 . S
C3601 C291 1.090 . S
C3609 C561 1.072 . S
C3641 C672 1.086 . S
C3633 C331 1.123 . S
C3673 C606 1.053 . S
C3665 C159 1.090 . S
C3705 C565 1.116 . S
C3697 C112 1.128 . S
C3737 C521 1.060 . S
C3729 C151 1.072 . S
