# Generated by pormake.
# Topology gar, (4,6)-cn, num edge types: 1
# Building blocks:
#     Node 0, Type 0, BuildingBlock: AZAVOO_clean_sbu_0, # of connection points: 4
#     Node 1, Type 0, BuildingBlock: AZAVOO_clean_sbu_0, # of connection points: 4
#     Node 2, Type 0, BuildingBlock: AZAVOO_clean_sbu_0, # of connection points: 4
#     Node 3, Type 0, BuildingBlock: AZAVOO_clean_sbu_0, # of connection points: 4
#     Node 4, Type 0, BuildingBlock: AZAVOO_clean_sbu_0, # of connection points: 4
#     Node 5, Type 0, BuildingBlock: AZAVOO_clean_sbu_0, # of connection points: 4
#     Node 6, Type 0, BuildingBlock: AZAVOO_clean_sbu_0, # of connection points: 4
#     Node 7, Type 0, BuildingBlock: AZAVOO_clean_sbu_0, # of connection points: 4
#     Node 8, Type 0, BuildingBlock: AZAVOO_clean_sbu_0, # of connection points: 4
#     Node 9, Type 0, BuildingBlock: AZAVOO_clean_sbu_0, # of connection points: 4
#     Node 10, Type 0, BuildingBlock: AZAVOO_clean_sbu_0, # of connection points: 4
#     Node 11, Type 0, BuildingBlock: AZAVOO_clean_sbu_0, # of connection points: 4
#     Node 12, Type 0, BuildingBlock: AZAVOO_clean_sbu_0, # of connection points: 4
#     Node 13, Type 0, BuildingBlock: AZAVOO_clean_sbu_0, # of connection points: 4
#     Node 14, Type 0, BuildingBlock: AZAVOO_clean_sbu_0, # of connection points: 4
#     Node 15, Type 0, BuildingBlock: AZAVOO_clean_sbu_0, # of connection points: 4
#     Node 16, Type 0, BuildingBlock: AZAVOO_clean_sbu_0, # of connection points: 4
#     Node 17, Type 0, BuildingBlock: AZAVOO_clean_sbu_0, # of connection points: 4
#     Node 18, Type 0, BuildingBlock: AZAVOO_clean_sbu_0, # of connection points: 4
#     Node 19, Type 0, BuildingBlock: AZAVOO_clean_sbu_0, # of connection points: 4
#     Node 20, Type 0, BuildingBlock: AZAVOO_clean_sbu_0, # of connection points: 4
#     Node 21, Type 0, BuildingBlock: AZAVOO_clean_sbu_0, # of connection points: 4
#     Node 22, Type 0, BuildingBlock: AZAVOO_clean_sbu_0, # of connection points: 4
#     Node 23, Type 0, BuildingBlock: AZAVOO_clean_sbu_0, # of connection points: 4
#     Node 24, Type 1, BuildingBlock: MIFKUJ_clean_sbu_0, # of connection points: 6
#     Node 25, Type 1, BuildingBlock: MIFKUJ_clean_sbu_0, # of connection points: 6
#     Node 26, Type 1, BuildingBlock: MIFKUJ_clean_sbu_0, # of connection points: 6
#     Node 27, Type 1, BuildingBlock: MIFKUJ_clean_sbu_0, # of connection points: 6
#     Node 28, Type 1, BuildingBlock: MIFKUJ_clean_sbu_0, # of connection points: 6
#     Node 29, Type 1, BuildingBlock: MIFKUJ_clean_sbu_0, # of connection points: 6
#     Node 30, Type 1, BuildingBlock: MIFKUJ_clean_sbu_0, # of connection points: 6
#     Node 31, Type 1, BuildingBlock: MIFKUJ_clean_sbu_0, # of connection points: 6
#     Node 32, Type 1, BuildingBlock: MIFKUJ_clean_sbu_0, # of connection points: 6
#     Node 33, Type 1, BuildingBlock: MIFKUJ_clean_sbu_0, # of connection points: 6
#     Node 34, Type 1, BuildingBlock: MIFKUJ_clean_sbu_0, # of connection points: 6
#     Node 35, Type 1, BuildingBlock: MIFKUJ_clean_sbu_0, # of connection points: 6
#     Node 36, Type 1, BuildingBlock: MIFKUJ_clean_sbu_0, # of connection points: 6
#     Node 37, Type 1, BuildingBlock: MIFKUJ_clean_sbu_0, # of connection points: 6
#     Node 38, Type 1, BuildingBlock: MIFKUJ_clean_sbu_0, # of connection points: 6
#     Node 39, Type 1, BuildingBlock: MIFKUJ_clean_sbu_0, # of connection points: 6
#     Edge 40, Type (0, 1), BuildingBlock: UVAHIK_clean_linker_0, # of connection points: 2
#     Edge 41, Type (0, 1), BuildingBlock: UVAHIK_clean_linker_0, # of connection points: 2
#     Edge 42, Type (0, 1), BuildingBlock: UVAHIK_clean_linker_0, # of connection points: 2
#     Edge 43, Type (0, 1), BuildingBlock: UVAHIK_clean_linker_0, # of connection points: 2
#     Edge 44, Type (0, 1), BuildingBlock: UVAHIK_clean_linker_0, # of connection points: 2
#     Edge 45, Type (0, 1), BuildingBlock: UVAHIK_clean_linker_0, # of connection points: 2
#     Edge 46, Type (0, 1), BuildingBlock: UVAHIK_clean_linker_0, # of connection points: 2
#     Edge 47, Type (0, 1), BuildingBlock: UVAHIK_clean_linker_0, # of connection points: 2
#     Edge 48, Type (0, 1), BuildingBlock: UVAHIK_clean_linker_0, # of connection points: 2
#     Edge 49, Type (0, 1), BuildingBlock: UVAHIK_clean_linker_0, # of connection points: 2
#     Edge 50, Type (0, 1), BuildingBlock: UVAHIK_clean_linker_0, # of connection points: 2
#     Edge 51, Type (0, 1), BuildingBlock: UVAHIK_clean_linker_0, # of connection points: 2
#     Edge 52, Type (0, 1), BuildingBlock: UVAHIK_clean_linker_0, # of connection points: 2
#     Edge 53, Type (0, 1), BuildingBlock: UVAHIK_clean_linker_0, # of connection points: 2
#     Edge 54, Type (0, 1), BuildingBlock: UVAHIK_clean_linker_0, # of connection points: 2
#     Edge 55, Type (0, 1), BuildingBlock: UVAHIK_clean_linker_0, # of connection points: 2
#     Edge 56, Type (0, 1), BuildingBlock: UVAHIK_clean_linker_0, # of connection points: 2
#     Edge 57, Type (0, 1), BuildingBlock: UVAHIK_clean_linker_0, # of connection points: 2
#     Edge 58, Type (0, 1), BuildingBlock: UVAHIK_clean_linker_0, # of connection points: 2
#     Edge 59, Type (0, 1), BuildingBlock: UVAHIK_clean_linker_0, # of connection points: 2
#     Edge 60, Type (0, 1), BuildingBlock: UVAHIK_clean_linker_0, # of connection points: 2
#     Edge 61, Type (0, 1), BuildingBlock: UVAHIK_clean_linker_0, # of connection points: 2
#     Edge 62, Type (0, 1), BuildingBlock: UVAHIK_clean_linker_0, # of connection points: 2
#     Edge 63, Type (0, 1), BuildingBlock: UVAHIK_clean_linker_0, # of connection points: 2
#     Edge 64, Type (0, 1), BuildingBlock: UVAHIK_clean_linker_0, # of connection points: 2
#     Edge 65, Type (0, 1), BuildingBlock: UVAHIK_clean_linker_0, # of connection points: 2
#     Edge 66, Type (0, 1), BuildingBlock: UVAHIK_clean_linker_0, # of connection points: 2
#     Edge 67, Type (0, 1), BuildingBlock: UVAHIK_clean_linker_0, # of connection points: 2
#     Edge 68, Type (0, 1), BuildingBlock: UVAHIK_clean_linker_0, # of connection points: 2
#     Edge 69, Type (0, 1), BuildingBlock: UVAHIK_clean_linker_0, # of connection points: 2
#     Edge 70, Type (0, 1), BuildingBlock: UVAHIK_clean_linker_0, # of connection points: 2
#     Edge 71, Type (0, 1), BuildingBlock: UVAHIK_clean_linker_0, # of connection points: 2
#     Edge 72, Type (0, 1), BuildingBlock: UVAHIK_clean_linker_0, # of connection points: 2
#     Edge 73, Type (0, 1), BuildingBlock: UVAHIK_clean_linker_0, # of connection points: 2
#     Edge 74, Type (0, 1), BuildingBlock: UVAHIK_clean_linker_0, # of connection points: 2
#     Edge 75, Type (0, 1), BuildingBlock: UVAHIK_clean_linker_0, # of connection points: 2
#     Edge 76, Type (0, 1), BuildingBlock: UVAHIK_clean_linker_0, # of connection points: 2
#     Edge 77, Type (0, 1), BuildingBlock: UVAHIK_clean_linker_0, # of connection points: 2
#     Edge 78, Type (0, 1), BuildingBlock: UVAHIK_clean_linker_0, # of connection points: 2
#     Edge 79, Type (0, 1), BuildingBlock: UVAHIK_clean_linker_0, # of connection points: 2
#     Edge 80, Type (0, 1), BuildingBlock: UVAHIK_clean_linker_0, # of connection points: 2
#     Edge 81, Type (0, 1), BuildingBlock: UVAHIK_clean_linker_0, # of connection points: 2
#     Edge 82, Type (0, 1), BuildingBlock: UVAHIK_clean_linker_0, # of connection points: 2
#     Edge 83, Type (0, 1), BuildingBlock: UVAHIK_clean_linker_0, # of connection points: 2
#     Edge 84, Type (0, 1), BuildingBlock: UVAHIK_clean_linker_0, # of connection points: 2
#     Edge 85, Type (0, 1), BuildingBlock: UVAHIK_clean_linker_0, # of connection points: 2
#     Edge 86, Type (0, 1), BuildingBlock: UVAHIK_clean_linker_0, # of connection points: 2
#     Edge 87, Type (0, 1), BuildingBlock: UVAHIK_clean_linker_0, # of connection points: 2
#     Edge 88, Type (0, 1), BuildingBlock: UVAHIK_clean_linker_0, # of connection points: 2
#     Edge 89, Type (0, 1), BuildingBlock: UVAHIK_clean_linker_0, # of connection points: 2
#     Edge 90, Type (0, 1), BuildingBlock: UVAHIK_clean_linker_0, # of connection points: 2
#     Edge 91, Type (0, 1), BuildingBlock: UVAHIK_clean_linker_0, # of connection points: 2
#     Edge 92, Type (0, 1), BuildingBlock: UVAHIK_clean_linker_0, # of connection points: 2
#     Edge 93, Type (0, 1), BuildingBlock: UVAHIK_clean_linker_0, # of connection points: 2
#     Edge 94, Type (0, 1), BuildingBlock: UVAHIK_clean_linker_0, # of connection points: 2
#     Edge 95, Type (0, 1), BuildingBlock: UVAHIK_clean_linker_0, # of connection points: 2
#     Edge 96, Type (0, 1), BuildingBlock: UVAHIK_clean_linker_0, # of connection points: 2
#     Edge 97, Type (0, 1), BuildingBlock: UVAHIK_clean_linker_0, # of connection points: 2
#     Edge 98, Type (0, 1), BuildingBlock: UVAHIK_clean_linker_0, # of connection points: 2
#     Edge 99, Type (0, 1), BuildingBlock: UVAHIK_clean_linker_0, # of connection points: 2
#     Edge 100, Type (0, 1), BuildingBlock: UVAHIK_clean_linker_0, # of connection points: 2
#     Edge 101, Type (0, 1), BuildingBlock: UVAHIK_clean_linker_0, # of connection points: 2
#     Edge 102, Type (0, 1), BuildingBlock: UVAHIK_clean_linker_0, # of connection points: 2
#     Edge 103, Type (0, 1), BuildingBlock: UVAHIK_clean_linker_0, # of connection points: 2
#     Edge 104, Type (0, 1), BuildingBlock: UVAHIK_clean_linker_0, # of connection points: 2
#     Edge 105, Type (0, 1), BuildingBlock: UVAHIK_clean_linker_0, # of connection points: 2
#     Edge 106, Type (0, 1), BuildingBlock: UVAHIK_clean_linker_0, # of connection points: 2
#     Edge 107, Type (0, 1), BuildingBlock: UVAHIK_clean_linker_0, # of connection points: 2
#     Edge 108, Type (0, 1), BuildingBlock: UVAHIK_clean_linker_0, # of connection points: 2
#     Edge 109, Type (0, 1), BuildingBlock: UVAHIK_clean_linker_0, # of connection points: 2
#     Edge 110, Type (0, 1), BuildingBlock: UVAHIK_clean_linker_0, # of connection points: 2
#     Edge 111, Type (0, 1), BuildingBlock: UVAHIK_clean_linker_0, # of connection points: 2
#     Edge 112, Type (0, 1), BuildingBlock: UVAHIK_clean_linker_0, # of connection points: 2
#     Edge 113, Type (0, 1), BuildingBlock: UVAHIK_clean_linker_0, # of connection points: 2
#     Edge 114, Type (0, 1), BuildingBlock: UVAHIK_clean_linker_0, # of connection points: 2
#     Edge 115, Type (0, 1), BuildingBlock: UVAHIK_clean_linker_0, # of connection points: 2
#     Edge 116, Type (0, 1), BuildingBlock: UVAHIK_clean_linker_0, # of connection points: 2
#     Edge 117, Type (0, 1), BuildingBlock: UVAHIK_clean_linker_0, # of connection points: 2
#     Edge 118, Type (0, 1), BuildingBlock: UVAHIK_clean_linker_0, # of connection points: 2
#     Edge 119, Type (0, 1), BuildingBlock: UVAHIK_clean_linker_0, # of connection points: 2
#     Edge 120, Type (0, 1), BuildingBlock: UVAHIK_clean_linker_0, # of connection points: 2
#     Edge 121, Type (0, 1), BuildingBlock: UVAHIK_clean_linker_0, # of connection points: 2
#     Edge 122, Type (0, 1), BuildingBlock: UVAHIK_clean_linker_0, # of connection points: 2
#     Edge 123, Type (0, 1), BuildingBlock: UVAHIK_clean_linker_0, # of connection points: 2
#     Edge 124, Type (0, 1), BuildingBlock: UVAHIK_clean_linker_0, # of connection points: 2
#     Edge 125, Type (0, 1), BuildingBlock: UVAHIK_clean_linker_0, # of connection points: 2
#     Edge 126, Type (0, 1), BuildingBlock: UVAHIK_clean_linker_0, # of connection points: 2
#     Edge 127, Type (0, 1), BuildingBlock: UVAHIK_clean_linker_0, # of connection points: 2
#     Edge 128, Type (0, 1), BuildingBlock: UVAHIK_clean_linker_0, # of connection points: 2
#     Edge 129, Type (0, 1), BuildingBlock: UVAHIK_clean_linker_0, # of connection points: 2
#     Edge 130, Type (0, 1), BuildingBlock: UVAHIK_clean_linker_0, # of connection points: 2
#     Edge 131, Type (0, 1), BuildingBlock: UVAHIK_clean_linker_0, # of connection points: 2
#     Edge 132, Type (0, 1), BuildingBlock: UVAHIK_clean_linker_0, # of connection points: 2
#     Edge 133, Type (0, 1), BuildingBlock: UVAHIK_clean_linker_0, # of connection points: 2
#     Edge 134, Type (0, 1), BuildingBlock: UVAHIK_clean_linker_0, # of connection points: 2
#     Edge 135, Type (0, 1), BuildingBlock: UVAHIK_clean_linker_0, # of connection points: 2
# Relax obj value: 0.123
# Max RMSD: 0.276
# Mean RMSD: 0.176
data_MOF--net-gar--node1-AZAVOO_clean_sbu_0--node2-MIFKUJ_clean_sbu_0--edge1-UVAHIK_clean_linker_0
_symmetry_space_group_name_H-M    P1
_symmetry_Int_Tables_number       1
_symmetry_cell_setting            triclinic
loop_
_symmetry_equiv_pos_as_xyz
'x, y, z'
_cell_length_a     73.149746
_cell_length_b     70.338749
_cell_length_c     69.627441
_cell_angle_alpha  96.706505
_cell_angle_beta   94.169106
_cell_angle_gamma 99.770149
loop_
_atom_site_label
_atom_site_type_symbol
_atom_site_fract_x
_atom_site_fract_y
_atom_site_fract_z
_atom_type_partial_charge
Mg0 Mg -0.00438 0.25659 0.37749 0.0
O1 O 0.0006 0.28549 0.39813 0.0
O2 O 0.9757 0.28492 0.41509 0.0
Mg3 Mg 0.95442 0.25737 0.4042 0.0
C4 C 0.9917 0.29317 0.41121 0.0
C5 C 0.02915 0.25355 0.35464 0.0
O6 O 0.01482 0.24476 0.34248 0.0
O7 O 0.00065 0.23962 0.40285 0.0
O8 O 0.9742 0.23903 0.41712 0.0
O9 O 0.98203 0.27036 0.35435 0.0
O10 O 0.96699 0.25564 0.37642 0.0
C11 C 0.99014 0.23411 0.41579 0.0
C12 C 0.96655 0.26544 0.36192 0.0
O13 O 0.02618 0.26064 0.37154 0.0
Mg14 Mg 0.98268 0.77077 0.6482 0.0
O15 O 0.97492 0.73979 0.63215 0.0
O16 O 0.94783 0.73712 0.61417 0.0
Mg17 Mg 0.9376 0.76604 0.62002 0.0
C18 C 0.96183 0.72996 0.62003 0.0
C19 C 0.01664 0.75473 0.66618 0.0
O20 O 0.00343 0.74533 0.67513 0.0
O21 O 0.98963 0.78233 0.62 0.0
O22 O 0.96165 0.78054 0.60395 0.0
O23 O 0.96776 0.7621 0.6735 0.0
O24 O 0.95471 0.77293 0.64832 0.0
C25 C 0.97942 0.78516 0.60532 0.0
C26 C 0.953 0.76623 0.66467 0.0
O27 O 0.01245 0.76613 0.65437 0.0
Mg28 Mg 0.49261 0.75443 0.88018 0.0
O29 O 0.49607 0.7828 0.90144 0.0
O30 O 0.47015 0.78094 0.9168 0.0
Mg31 Mg 0.45024 0.75258 0.90521 0.0
C32 C 0.48621 0.78991 0.91391 0.0
C33 C 0.52674 0.75292 0.85844 0.0
O34 O 0.51266 0.74395 0.84604 0.0
O35 O 0.49764 0.7374 0.90536 0.0
O36 O 0.47064 0.73509 0.91876 0.0
O37 O 0.47923 0.76818 0.85692 0.0
O38 O 0.46379 0.75233 0.87803 0.0
C39 C 0.487 0.73113 0.91788 0.0
C40 C 0.46353 0.76251 0.8638 0.0
O41 O 0.52341 0.75973 0.87529 0.0
Mg42 Mg 0.48515 0.27018 0.15122 0.0
O43 O 0.47723 0.23924 0.13502 0.0
O44 O 0.44896 0.23573 0.11919 0.0
Mg45 Mg 0.43855 0.26444 0.12589 0.0
C46 C 0.46359 0.22904 0.12386 0.0
C47 C 0.51959 0.25388 0.16689 0.0
O48 O 0.5065 0.24388 0.17553 0.0
O49 O 0.4903 0.28217 0.12272 0.0
O50 O 0.46134 0.27892 0.10838 0.0
O51 O 0.4717 0.26069 0.17712 0.0
O52 O 0.45724 0.2719 0.15305 0.0
C53 C 0.47897 0.28421 0.10858 0.0
C54 C 0.45648 0.26475 0.16923 0.0
O55 O 0.51522 0.26586 0.15581 0.0
Mg56 Mg -0.00356 0.77446 0.14955 0.0
O57 O -0.003 0.74496 0.13184 0.0
O58 O 0.96959 0.73532 0.11413 0.0
Mg59 Mg 0.95152 0.75833 0.12069 0.0
C60 C 0.98593 0.73267 0.11948 0.0
C61 C 0.03501 0.79175 0.17104 0.0
O62 O 0.02474 0.80362 0.17888 0.0
O63 O -0.00017 0.78937 0.12241 0.0
O64 O 0.97154 0.78008 0.1063 0.0
O65 O 0.98455 0.75972 0.17359 0.0
O66 O 0.96766 0.76768 0.14916 0.0
C67 C 0.98815 0.78978 0.10798 0.0
C68 C 0.9683 0.75946 0.16474 0.0
O69 O 0.02757 0.7785 0.15739 0.0
Mg70 Mg 0.48107 0.72323 0.3692 0.0
O71 O 0.47914 0.75099 0.38929 0.0
O72 O 0.45236 0.74587 0.40302 0.0
Mg73 Mg 0.43758 0.71473 0.39217 0.0
C74 C 0.46758 0.7568 0.40052 0.0
C75 C 0.51618 0.74959 0.35797 0.0
O76 O 0.50313 0.75888 0.35208 0.0
O77 O 0.48826 0.70856 0.39532 0.0
O78 O 0.46113 0.70266 0.40826 0.0
O79 O 0.46617 0.73376 0.34493 0.0
O80 O 0.45204 0.71587 0.36547 0.0
C81 C 0.47841 0.7016 0.40811 0.0
C82 C 0.45081 0.72581 0.35113 0.0
O83 O 0.51166 0.73458 0.36636 0.0
Mg84 Mg 0.49665 0.2702 0.64424 0.0
O85 O 0.49912 0.24097 0.62717 0.0
O86 O 0.47292 0.23001 0.60765 0.0
Mg87 Mg 0.45308 0.25148 0.6135 0.0
C88 C 0.48926 0.22834 0.61418 0.0
C89 C 0.53418 0.26281 0.66081 0.0
O90 O 0.52293 0.24631 0.66161 0.0
O91 O 0.50023 0.28494 0.61701 0.0
O92 O 0.47251 0.27449 0.59996 0.0
O93 O 0.4846 0.25553 0.66817 0.0
O94 O 0.4679 0.26163 0.64259 0.0
C95 C 0.4888 0.28495 0.60223 0.0
C96 C 0.46847 0.25413 0.65861 0.0
O97 O 0.52775 0.27638 0.6536 0.0
Mg98 Mg 0.98169 0.22646 0.87703 0.0
O99 O 0.98028 0.2548 0.89644 0.0
O100 O 0.95386 0.25013 0.91088 0.0
Mg101 Mg 0.93882 0.2189 0.9011 0.0
C102 C 0.96897 0.26092 0.90781 0.0
C103 C 0.02212 0.22454 0.86947 0.0
O104 O 0.01514 0.20623 0.87047 0.0
O105 O 0.98949 0.21274 0.90356 0.0
O106 O 0.96264 0.20716 0.91708 0.0
O107 O 0.96643 0.23622 0.85261 0.0
O108 O 0.95273 0.21919 0.87406 0.0
C109 C 0.97991 0.20611 0.91669 0.0
C110 C 0.95123 0.22853 0.85929 0.0
O111 O 0.01195 0.23728 0.8727 0.0
Mg112 Mg 0.39032 0.03019 0.27609 0.0
O113 O 0.37172 0.00177 0.28096 0.0
O114 O 0.36069 0.00627 0.30992 0.0
Mg115 Mg 0.37244 0.03751 0.32358 0.0
C116 C 0.36185 -0.00444 0.29409 0.0
C117 C 0.39737 0.00261 0.24129 0.0
O118 O 0.40056 0.99317 0.25602 0.0
O119 O 0.36435 0.04296 0.26979 0.0
O120 O 0.35482 0.04814 0.29943 0.0
O121 O 0.41492 0.02128 0.2902 0.0
O122 O 0.39636 0.03789 0.30608 0.0
C123 C 0.35304 0.04903 0.28116 0.0
C124 C 0.41036 0.02894 0.30656 0.0
O125 O 0.39133 0.01851 0.24441 0.0
Mg126 Mg 0.27697 0.1225 0.49091 0.0
O127 O 0.27665 0.14255 0.51933 0.0
O128 O 0.3045 0.16186 0.52569 0.0
Mg129 Mg 0.32259 0.15379 0.50149 0.0
C130 C 0.28795 0.15618 0.53001 0.0
C131 C 0.23819 0.09703 0.48073 0.0
O132 O 0.24907 0.08572 0.47308 0.0
O133 O 0.2751 0.14747 0.47327 0.0
O134 O 0.3038 0.1652 0.47885 0.0
O135 O 0.28741 0.10066 0.50736 0.0
O136 O 0.3057 0.12417 0.49586 0.0
C137 C 0.28727 0.16187 0.4703 0.0
C138 C 0.30409 0.1096 0.50566 0.0
O139 O 0.24547 0.11392 0.48913 0.0
Mg140 Mg 0.12995 -0.00255 0.78748 0.0
O141 O 0.14536 0.02886 0.79444 0.0
O142 O 0.16234 0.03241 0.82301 0.0
Mg143 Mg 0.15669 0.00321 0.83486 0.0
C144 C 0.15682 0.03923 0.80786 0.0
C145 C 0.11149 0.99022 0.74537 0.0
O146 O 0.10318 0.97478 0.75236 0.0
O147 O 0.15698 0.98752 0.7808 0.0
O148 O 0.17214 0.98998 0.81031 0.0
O149 O 0.1057 0.00478 0.80216 0.0
O150 O 0.12961 0.99507 0.81694 0.0
C151 C 0.17101 0.98547 0.79187 0.0
C152 C 0.11396 0.00106 0.81803 0.0
O153 O 0.12377 0.00247 0.75628 0.0
Mg154 Mg 0.25311 0.88265 0.01323 0.0
O155 O 0.24651 0.86239 0.9841 0.0
O156 O 0.27008 0.84589 0.9818 0.0
Mg157 Mg 0.29227 0.8569 0.0072 0.0
C158 C 0.25444 0.8495 0.97527 0.0
C159 C 0.21596 0.89095 0.02875 0.0
O160 O 0.22459 0.88725 0.04473 0.0
O161 O 0.24643 0.85659 0.02999 0.0
O162 O 0.27211 0.84352 0.02765 0.0
O163 O 0.26791 0.90644 -0.00153 0.0
O164 O 0.28147 0.88423 0.01074 0.0
C165 C 0.25635 0.84409 0.03426 0.0
C166 C 0.28273 0.89896 0.00121 0.0
O167 O 0.2235 0.88892 0.01292 0.0
Mg168 Mg 0.26373 0.38967 0.04601 0.0
O169 O 0.26507 0.37201 0.01619 0.0
O170 O 0.29127 0.35967 0.01782 0.0
Mg171 Mg 0.30606 0.36843 0.0484 0.0
C172 C 0.27638 0.3621 0.00842 0.0
C173 C 0.23018 0.40184 0.02358 0.0
O174 O 0.2437 0.40755 0.01296 0.0
O175 O 0.25492 0.36171 0.05944 0.0
O176 O 0.28163 0.35025 0.06112 0.0
O177 O 0.28047 0.41592 0.03663 0.0
O178 O 0.29278 0.39428 0.05133 0.0
C179 C 0.26446 0.34905 0.06417 0.0
C180 C 0.2952 0.40982 0.04301 0.0
O181 O 0.23365 0.39278 0.03782 0.0
Mg182 Mg 0.77192 0.11786 0.0005 0.0
O183 O 0.78266 0.1361 0.0296 0.0
O184 O 0.81153 0.15197 0.02798 0.0
Mg185 Mg 0.8197 0.14234 -0.00236 0.0
C186 C 0.79723 0.14796 0.03724 0.0
C187 C 0.73799 0.1039 0.02296 0.0
O188 O 0.75063 0.09547 0.03122 0.0
O189 O 0.76867 0.1454 0.98761 0.0
O190 O 0.79808 0.1589 0.98453 0.0
O191 O 0.78301 0.09258 0.0098 0.0
O192 O 0.799 0.11506 -0.00514 0.0
C193 C 0.78054 0.15877 0.98226 0.0
C194 C 0.79846 0.09952 0.00311 0.0
O195 O 0.74244 0.11439 0.00975 0.0
Mg196 Mg 0.12375 0.48126 0.27204 0.0
O197 O 0.14085 0.51186 0.27199 0.0
O198 O 0.15531 0.52085 0.30199 0.0
Mg199 Mg 0.14579 0.49771 0.3213 0.0
C200 C 0.15197 0.52397 0.28449 0.0
C201 C 0.10542 0.4637 0.23242 0.0
O202 O 0.09579 0.45414 0.24461 0.0
O203 O 0.15042 0.46857 0.27298 0.0
O204 O 0.16171 0.47708 0.30407 0.0
O205 O 0.09924 0.49427 0.27951 0.0
O206 O 0.12037 0.48824 0.30124 0.0
C207 C 0.16243 0.46822 0.28713 0.0
C208 C 0.10582 0.4958 0.29749 0.0
O209 O 0.11971 0.47628 0.23916 0.0
Mg210 Mg 0.76731 0.88674 0.54391 0.0
O211 O 0.76802 0.86952 0.51378 0.0
O212 O 0.79231 0.85413 0.5154 0.0
Mg213 Mg 0.80755 0.86216 0.54587 0.0
C214 C 0.77819 0.85824 0.50598 0.0
C215 C 0.73519 0.90897 0.5409 0.0
O216 O 0.74876 0.92148 0.55121 0.0
O217 O 0.75663 0.85883 0.55681 0.0
O218 O 0.7824 0.84579 0.55896 0.0
O219 O 0.7855 0.91248 0.53534 0.0
O220 O 0.79627 0.88939 0.54917 0.0
C221 C 0.76532 0.84562 0.56186 0.0
C222 C 0.79966 0.90527 0.54146 0.0
O223 O 0.73796 0.89188 0.53543 0.0
Mg224 Mg 0.88678 0.02157 0.26455 0.0
O225 O 0.86474 0.99335 0.25906 0.0
O226 O 0.84923 0.99332 0.28571 0.0
Mg227 Mg 0.86228 0.01897 0.30838 0.0
C228 C 0.85176 0.98582 0.26871 0.0
C229 C 0.90793 0.03154 0.23116 0.0
O230 O 0.91672 0.04252 0.2468 0.0
O231 O 0.86394 0.03952 0.26031 0.0
O232 O 0.85108 0.03901 0.28844 0.0
O233 O 0.9076 0.00577 0.27716 0.0
O234 O 0.88814 0.01997 0.29416 0.0
C235 C 0.8523 0.04475 0.27175 0.0
C236 C 0.90095 0.00943 0.29364 0.0
O237 O 0.8928 0.02019 0.23286 0.0
Mg238 Mg 0.27449 0.62877 0.49221 0.0
O239 O 0.28255 0.64427 0.52313 0.0
O240 O 0.31178 0.66053 0.52545 0.0
Mg241 Mg 0.32296 0.65397 0.49599 0.0
C242 C 0.2965 0.65557 0.53284 0.0
C243 C 0.23834 0.61164 0.50957 0.0
O244 O 0.25014 0.60161 0.51683 0.0
O245 O 0.2727 0.65795 0.48178 0.0
O246 O 0.30269 0.6719 0.48302 0.0
O247 O 0.2847 0.60214 0.49953 0.0
O248 O 0.30222 0.62677 0.4889 0.0
C249 C 0.28536 0.67203 0.47906 0.0
C250 C 0.30086 0.61005 0.49505 0.0
O251 O 0.24403 0.6242 0.49859 0.0
Mg252 Mg 0.386 0.52388 0.76434 0.0
O253 O 0.3637 0.4959 0.7604 0.0
O254 O 0.34893 0.49704 0.78753 0.0
Mg255 Mg 0.36266 0.52339 0.80904 0.0
C256 C 0.35098 0.48891 0.77064 0.0
C257 C 0.40811 0.52835 0.72997 0.0
O258 O 0.39068 0.52034 0.73069 0.0
O259 O 0.36323 0.54187 0.75984 0.0
O260 O 0.35106 0.54252 0.7884 0.0
O261 O 0.40694 0.50839 0.77722 0.0
O262 O 0.38807 0.5236 0.79413 0.0
C263 C 0.35188 0.54758 0.7714 0.0
C264 C 0.40074 0.5129 0.79378 0.0
O265 O 0.39127 0.52076 0.73152 0.0
Mg266 Mg 0.62322 0.98273 0.77461 0.0
O267 O 0.64083 0.01273 0.77294 0.0
O268 O 0.65619 0.02256 0.80244 0.0
Mg269 Mg 0.64669 0.0007 0.82306 0.0
C270 C 0.65251 0.02499 0.78478 0.0
C271 C 0.60272 0.96501 0.73618 0.0
O272 O 0.59276 0.95746 0.74931 0.0
O273 O 0.64955 0.96941 0.77541 0.0
O274 O 0.66166 0.97893 0.80615 0.0
O275 O 0.59931 -0.00327 0.78233 0.0
O276 O 0.62081 0.991 0.8038 0.0
C277 C 0.66182 0.96935 0.78942 0.0
C278 C 0.60634 -0.0013 0.8002 0.0
O279 O 0.61809 0.97638 0.74182 0.0
Mg280 Mg 0.77447 0.6194 0.98874 0.0
O281 O 0.77428 0.63855 0.01766 0.0
O282 O 0.80164 0.65876 0.02396 0.0
Mg283 Mg 0.8198 0.65104 -0.0004 0.0
C284 C 0.78529 0.65237 0.02837 0.0
C285 C 0.73532 0.59449 0.9778 0.0
O286 O 0.74567 0.58396 0.96809 0.0
O287 O 0.77222 0.64475 0.97169 0.0
O288 O 0.80088 0.66256 0.97717 0.0
O289 O 0.78515 0.59729 0.00442 0.0
O290 O 0.8033 0.62115 0.99319 0.0
C291 C 0.7843 0.65924 0.96875 0.0
C292 C 0.80179 0.60627 0.00259 0.0
O293 O 0.74304 0.61064 0.98754 0.0
Mg294 Mg 0.89023 0.53081 0.7746 0.0
O295 O 0.87094 0.50295 0.77966 0.0
O296 O 0.86022 0.50792 0.80872 0.0
Mg297 Mg 0.87296 0.53899 0.82227 0.0
C298 C 0.86098 0.49707 0.79286 0.0
C299 C 0.89575 0.50272 0.73928 0.0
O300 O 0.89887 0.49292 0.75376 0.0
O301 O 0.86483 0.54451 0.7686 0.0
O302 O 0.85567 0.55031 0.79833 0.0
O303 O 0.91452 0.52109 0.78847 0.0
O304 O 0.89666 0.53849 0.80451 0.0
C305 C 0.85387 0.55114 0.78004 0.0
C306 C 0.91036 0.52911 0.80488 0.0
O307 O 0.8905 0.519 0.74285 0.0
Mg308 Mg 0.75707 0.38331 0.51114 0.0
O309 O 0.7515 0.362 0.48257 0.0
O310 O 0.77729 0.34905 0.48012 0.0
Mg311 Mg 0.79903 0.36206 0.50535 0.0
C312 C 0.76082 0.35044 0.47371 0.0
C313 C 0.72316 0.40267 0.50571 0.0
O314 O 0.72506 0.38605 0.51164 0.0
O315 O 0.75313 0.35759 0.52862 0.0
O316 O 0.77999 0.34688 0.52577 0.0
O317 O 0.76932 0.40771 0.49548 0.0
O318 O 0.78548 0.3876 0.50804 0.0
C319 C 0.76419 0.34606 0.53262 0.0
C320 C 0.78505 0.40186 0.49806 0.0
O321 O 0.72577 0.38667 0.51136 0.0
Mg322 Mg 0.62831 0.49487 0.2856 0.0
O323 O 0.64377 0.52627 0.29225 0.0
O324 O 0.66159 0.52941 0.32028 0.0
Mg325 Mg 0.6559 0.50028 0.33239 0.0
C326 C 0.65568 0.53643 0.3054 0.0
C327 C 0.60635 0.48898 0.24573 0.0
O328 O 0.59663 0.47602 0.25491 0.0
O329 O 0.65519 0.48499 0.27827 0.0
O330 O 0.6705 0.48628 0.3075 0.0
O331 O 0.60438 0.50227 0.30073 0.0
O332 O 0.62852 0.4926 0.31511 0.0
C333 C 0.66911 0.48215 0.28901 0.0
C334 C 0.61291 0.49863 0.31648 0.0
O335 O 0.62114 0.49946 0.25446 0.0
Zn336 Zn 0.03232 0.00302 0.03741 0.0
Zn337 Zn -0.0041 0.01067 0.0159 0.0
C338 C 0.0259 0.96248 0.02437 0.0
O339 O 0.04131 0.96786 0.0163 0.0
C340 C 0.01096 0.04548 0.00229 0.0
O341 O 0.00709 0.03345 0.98605 0.0
O342 O 0.0577 -9e-05 0.04888 0.0
O343 O 0.03605 0.01133 0.01112 0.0
O344 O 0.00912 0.9953 -0.0031 0.0
C345 C 0.07249 0.00684 0.04167 0.0
O346 O 0.07164 0.0193 0.02912 0.0
O347 O 0.01847 0.97544 0.03356 0.0
C348 C 0.95535 0.00218 0.00979 0.0
O349 O 0.95671 0.98983 0.02237 0.0
O350 O 0.9701 0.0112 0.00407 0.0
O351 O 0.99268 0.00237 0.04231 0.0
O352 O 0.01942 0.01854 0.05683 0.0
O353 O 0.00785 0.0391 0.01831 0.0
C354 C 0.0263 0.00185 -0.00389 0.0
C355 C 0.00224 0.01176 0.05747 0.0
Zn356 Zn 0.23817 0.76368 0.28906 0.0
Zn357 Zn 0.24415 0.76239 0.24667 0.0
C358 C 0.21395 0.72602 0.28209 0.0
O359 O 0.20143 0.73611 0.28811 0.0
C360 C 0.24836 0.80483 0.24816 0.0
O361 O 0.2355 0.80108 0.23337 0.0
O362 O 0.23656 0.76671 0.31789 0.0
O363 O 0.26531 0.77046 0.28495 0.0
O364 O 0.26313 0.74867 0.25911 0.0
C365 C 0.24862 0.77808 0.32991 0.0
O366 O 0.26191 0.7899 0.32332 0.0
O367 O 0.23047 0.73473 0.28097 0.0
C368 C 0.22985 0.75901 0.20657 0.0
O369 O 0.21416 0.75863 0.21463 0.0
O370 O 0.24488 0.75972 0.21732 0.0
O371 O 0.21733 0.75495 0.25179 0.0
O372 O 0.21962 0.7778 0.27648 0.0
O373 O 0.25329 0.79085 0.25599 0.0
C374 C 0.27251 0.75828 0.27434 0.0
C375 C 0.2102 0.76769 0.26161 0.0
Zn376 Zn 0.49427 0.0036 0.52775 0.0
Zn377 Zn 0.52946 0.99034 0.5115 0.0
C378 C 0.51412 0.03794 0.55104 0.0
O379 O 0.50869 0.02768 0.56487 0.0
C380 C 0.51315 0.95714 0.48599 0.0
O381 O 0.52151 0.96848 0.47434 0.0
O382 O 0.46908 0.01006 0.53358 0.0
O383 O 0.4916 0.99448 0.49916 0.0
O384 O 0.51981 0.00802 0.4937 0.0
C385 C 0.4654 0.02388 0.52452 0.0
O386 O 0.4772 0.03084 0.51262 0.0
O387 O 0.5109 0.03007 0.53345 0.0
C388 C 0.55983 0.97272 0.51639 0.0
O389 O 0.54763 0.96474 0.52737 0.0
O390 O 0.55549 0.98581 0.50663 0.0
O391 O 0.53135 -0.00178 0.54037 0.0
O392 O 0.50288 0.98564 0.54563 0.0
O393 O 0.5138 0.96351 0.50394 0.0
C394 C 0.50251 0.00295 0.48815 0.0
C395 C 0.52025 0.98926 0.55087 0.0
Zn396 Zn 0.26637 0.25631 0.75707 0.0
Zn397 Zn 0.2282 0.26711 0.76892 0.0
C398 C 0.25806 0.22908 0.72324 0.0
O399 O 0.26485 0.21881 0.73571 0.0
C400 C 0.24159 0.29146 0.80374 0.0
O401 O 0.23454 0.30335 0.79329 0.0
O402 O 0.29294 0.25257 0.75648 0.0
O403 O 0.26737 0.28536 0.76199 0.0
O404 O 0.23837 0.28773 0.75286 0.0
C405 C 0.30173 0.26258 0.7449 0.0
O406 O 0.2933 0.27462 0.73599 0.0
O407 O 0.25592 0.24628 0.72927 0.0
C408 C 0.19534 0.25562 0.78443 0.0
O409 O 0.20654 0.24451 0.7908 0.0
O410 O 0.20144 0.2681 0.77351 0.0
O411 O 0.22779 0.2391 0.7584 0.0
O412 O 0.25417 0.2386 0.77503 0.0
O413 O 0.24147 0.27411 0.79606 0.0
C414 C 0.25564 0.29503 0.75548 0.0
C415 C 0.23782 0.23017 0.76845 0.0
Zn416 Zn 0.02425 0.9885 0.5161 0.0
Zn417 Zn 0.01175 0.02772 0.51101 0.0
C418 C 0.0522 0.00131 0.54776 0.0
O419 O 0.06233 0.99442 0.53471 0.0
C420 C 0.98531 0.01379 0.47974 0.0
O421 O 0.97596 0.02279 0.49221 0.0
O422 O 0.02794 0.96041 0.51397 0.0
O423 O -0.0036 0.98648 0.51455 0.0
O424 O -0.00512 0.0155 0.52955 0.0
C425 C 0.02825 0.95249 0.52948 0.0
O426 O 0.02636 0.96268 0.54602 0.0
O427 O 0.03505 0.0011 0.54299 0.0
C428 C 0.01788 0.06346 0.49693 0.0
O429 O 0.02853 0.05343 0.48708 0.0
O430 O 0.00834 0.0554 0.50932 0.0
O431 O 0.03938 0.02949 0.51578 0.0
O432 O 0.03955 0.0022 0.49709 0.0
O433 O 0.00235 0.01347 0.48444 0.0
C434 C 0.98777 -0.00238 0.52473 0.0
C435 C 0.04744 0.01943 0.50387 0.0
Zn436 Zn 0.24562 0.78064 0.74008 0.0
Zn437 Zn 0.24933 0.74045 0.75021 0.0
C438 C 0.2121 0.77142 0.71482 0.0
O439 O 0.22295 0.78156 0.704 0.0
C440 C 0.28122 0.75085 0.77575 0.0
O441 O 0.26927 0.74056 0.78543 0.0
O442 O 0.24733 0.80923 0.73805 0.0
O443 O 0.24986 0.78006 0.76889 0.0
O444 O 0.23364 0.75089 0.77016 0.0
C445 C 0.23509 0.81611 0.74737 0.0
O446 O 0.22312 0.80418 0.75552 0.0
O447 O 0.21885 0.76842 0.7313 0.0
C448 C 0.25988 0.70506 0.73934 0.0
O449 O 0.26764 0.71626 0.72724 0.0
O450 O 0.25003 0.71211 0.75171 0.0
O451 O 0.24236 0.74175 0.72195 0.0
O452 O 0.26204 0.76884 0.72163 0.0
O453 O 0.27595 0.75366 0.75865 0.0
C454 C 0.23968 0.76831 0.77796 0.0
C455 C 0.25405 0.75221 0.71319 0.0
Zn456 Zn 0.51083 0.02529 0.00255 0.0
Zn457 Zn 0.49992 0.00583 0.0359 0.0
C458 C 0.54253 0.05172 0.02047 0.0
O459 O 0.53293 0.06351 0.01262 0.0
C460 C 0.46891 0.98042 0.01579 0.0
O461 O 0.47811 0.96824 0.02353 0.0
O462 O 0.51577 0.03532 0.97717 0.0
O463 O 0.50596 -0.00387 -0.00433 0.0
O464 O 0.51862 0.99129 0.02376 0.0
C465 C 0.53082 0.03129 0.97114 0.0
O466 O 0.5405 0.02114 0.98129 0.0
O467 O 0.53541 0.03376 0.01909 0.0
C468 C 0.50002 0.00266 0.07718 0.0
O469 O 0.51356 0.01784 0.07918 0.0
O470 O 0.49319 0.99487 0.06025 0.0
O471 O 0.50562 0.03493 0.0431 0.0
O472 O 0.49194 0.03916 0.01526 0.0
O473 O 0.47578 -0.00152 0.01864 0.0
C474 C 0.51435 0.98571 0.00572 0.0
C475 C 0.49646 0.04488 0.03324 0.0
Zn476 Zn 0.24366 0.23219 0.25749 0.0
Zn477 Zn 0.24621 0.27472 0.27325 0.0
C478 C 0.27617 0.23541 0.23905 0.0
O479 O 0.26379 0.22375 0.22645 0.0
C480 C 0.21536 0.27434 0.29491 0.0
O481 O 0.22911 0.28378 0.30747 0.0
O482 O 0.24262 0.20304 0.25188 0.0
O483 O 0.23775 0.2367 0.28544 0.0
O484 O 0.26043 0.26182 0.29239 0.0
C485 C 0.25502 0.19809 0.26308 0.0
O486 O 0.26441 0.21123 0.27685 0.0
O487 O 0.27092 0.24253 0.25494 0.0
C488 C 0.2612 0.31502 0.26954 0.0
O489 O 0.26805 0.3074 0.25413 0.0
O490 O 0.25268 0.30384 0.28038 0.0
O491 O 0.24917 0.26985 0.24465 0.0
O492 O 0.22932 0.24245 0.23607 0.0
O493 O 0.219 0.26827 0.27792 0.0
C494 C 0.25049 0.24698 0.29754 0.0
C495 C 0.23842 0.25817 0.23166 0.0
Zn496 Zn 0.51717 0.48722 0.01342 0.0
Zn497 Zn 0.5115 0.52872 0.01412 0.0
C498 C 0.54101 0.49112 0.04729 0.0
O499 O 0.55 0.4822 0.03438 0.0
C500 C 0.4873 0.5219 0.98048 0.0
O501 O 0.47851 0.53173 0.99287 0.0
O502 O 0.51697 0.45826 0.01016 0.0
O503 O 0.49035 0.48972 0.00803 0.0
O504 O 0.49186 0.51541 0.02967 0.0
C505 C 0.50519 0.44955 0.02022 0.0
O506 O 0.49501 0.45984 0.03047 0.0
O507 O 0.52555 0.49565 0.04178 0.0
C508 C 0.5227 0.5669 0.00618 0.0
O509 O 0.53491 0.55779 -0.00211 0.0
O510 O 0.51066 0.55744 0.01546 0.0
O511 O 0.5384 0.5267 0.01986 0.0
O512 O 0.53679 0.50089 -0.00167 0.0
O513 O 0.50322 0.51849 0.98605 0.0
C514 C 0.48257 0.49971 0.02031 0.0
C515 C 0.54603 0.51675 0.0074 0.0
Zn516 Zn 0.74852 0.27909 0.24098 0.0
Zn517 Zn 0.75104 0.23911 0.2506 0.0
C518 C 0.71512 0.27004 0.21574 0.0
O519 O 0.7261 0.28032 0.20514 0.0
C520 C 0.78314 0.24957 0.27627 0.0
O521 O 0.7714 0.23934 0.28621 0.0
O522 O 0.74965 0.30749 0.23835 0.0
O523 O 0.75279 0.27845 0.26974 0.0
O524 O 0.73505 0.24995 0.27005 0.0
C525 C 0.73681 0.31424 0.24677 0.0
O526 O 0.72555 0.30271 0.25605 0.0
O527 O 0.72175 0.26676 0.23217 0.0
C528 C 0.76177 0.2037 0.24046 0.0
O529 O 0.77013 0.21498 0.22878 0.0
O530 O 0.75148 0.21072 0.25237 0.0
O531 O 0.74476 0.24043 0.22226 0.0
O532 O 0.76497 0.26724 0.22257 0.0
O533 O 0.77764 0.2522 0.25919 0.0
C534 C 0.74184 0.26701 0.2784 0.0
C535 C 0.75698 0.25068 0.21393 0.0
Zn536 Zn 0.01262 0.52748 0.50058 0.0
Zn537 Zn -0.00142 0.50709 0.5334 0.0
C538 C 0.04304 0.5557 0.51811 0.0
O539 O 0.03203 0.56665 0.51101 0.0
C540 C 0.96846 0.48337 0.50976 0.0
O541 O 0.97666 0.47022 0.51706 0.0
O542 O 0.01686 0.53716 0.47491 0.0
O543 O 0.00934 0.49827 0.49401 0.0
O544 O 0.01746 0.49185 0.52323 0.0
C545 C 0.03215 0.53371 0.46897 0.0
O546 O 0.04243 0.52437 0.47943 0.0
O547 O 0.03718 0.53747 0.51677 0.0
C548 C -0.00362 0.50233 0.57405 0.0
O549 O 0.0114 0.51591 0.57689 0.0
O550 O 0.9893 0.49604 0.55683 0.0
O551 O 0.00555 0.53598 0.54123 0.0
O552 O -0.00689 0.54073 0.51301 0.0
O553 O 0.97573 0.50122 0.5142 0.0
C554 C 0.01587 0.48727 0.50492 0.0
C555 C -0.00305 0.54618 0.53112 0.0
Zn556 Zn 0.76334 0.75324 0.25425 0.0
Zn557 Zn 0.72678 0.76676 0.26677 0.0
C558 C 0.75028 0.72569 0.2203 0.0
O559 O 0.75372 0.71349 0.23243 0.0
C560 C 0.73979 0.79148 0.30102 0.0
O561 O 0.73078 0.80213 0.29079 0.0
O562 O 0.78933 0.74781 0.25282 0.0
O563 O 0.76617 0.78245 0.25878 0.0
O564 O 0.73753 0.78561 0.2492 0.0
C565 C 0.79691 0.75415 0.2384 0.0
O566 O 0.78799 0.76438 0.22757 0.0
O567 O 0.7518 0.74364 0.22669 0.0
C568 C 0.69461 0.76081 0.28528 0.0
O569 O 0.70498 0.74946 0.29273 0.0
O570 O 0.70082 0.77062 0.27216 0.0
O571 O 0.72397 0.73805 0.25809 0.0
O572 O 0.75096 0.73659 0.27303 0.0
O573 O 0.74127 0.77456 0.29328 0.0
C574 C 0.75492 0.79234 0.25175 0.0
C575 C 0.73411 0.72888 0.26773 0.0
Zn576 Zn 0.74051 0.26181 0.786 0.0
Zn577 Zn 0.74834 0.26298 0.74461 0.0
C578 C 0.71752 0.22407 0.77655 0.0
O579 O 0.70517 0.23357 0.78404 0.0
C580 C 0.7499 0.30541 0.74771 0.0
O581 O 0.73587 0.30147 0.73413 0.0
O582 O 0.73869 0.26135 0.81477 0.0
O583 O 0.76762 0.27097 0.78328 0.0
O584 O 0.76727 0.24962 0.75755 0.0
C585 C 0.74807 0.24925 0.8209 0.0
O586 O 0.75783 0.24038 0.80879 0.0
O587 O 0.73383 0.23321 0.7752 0.0
C588 C 0.73583 0.2612 0.70436 0.0
O589 O 0.72011 0.26276 0.71186 0.0
O590 O 0.75012 0.26029 0.71557 0.0
O591 O 0.72139 0.25461 0.74838 0.0
O592 O 0.7214 0.27587 0.7741 0.0
O593 O 0.75648 0.29155 0.75414 0.0
C594 C 0.77573 0.25923 0.77322 0.0
C595 C 0.71309 0.26609 0.75847 0.0
Zn596 Zn 0.74243 0.7341 0.75585 0.0
Zn597 Zn 0.74261 0.7756 0.77508 0.0
C598 C 0.77376 0.74531 0.7365 0.0
O599 O 0.76162 0.73543 0.7225 0.0
C600 C 0.71296 0.77374 0.79882 0.0
O601 O 0.72709 0.78234 0.81133 0.0
O602 O 0.74402 0.70585 0.74803 0.0
O603 O 0.73641 0.73558 0.78379 0.0
O604 O 0.75789 0.76156 0.79217 0.0
C605 C 0.75784 0.70151 0.75767 0.0
O606 O 0.76754 0.71465 0.77124 0.0
O607 O 0.76885 0.74768 0.75364 0.0
C608 C 0.75945 0.81559 0.77367 0.0
O609 O 0.76713 0.80795 0.75886 0.0
O610 O 0.74964 0.80442 0.78359 0.0
O611 O 0.74321 0.77288 0.74594 0.0
O612 O 0.72612 0.74407 0.73595 0.0
O613 O 0.71597 0.76882 0.78133 0.0
C614 C 0.74867 0.74585 0.79639 0.0
C615 C 0.73315 0.76103 0.73255 0.0
Zn616 Zn 0.53242 0.50051 0.53596 0.0
Zn617 Zn 0.4967 0.5109 0.51489 0.0
C618 C 0.52528 0.46019 0.52238 0.0
O619 O 0.54051 0.46561 0.51401 0.0
C620 C 0.51273 0.54466 0.50017 0.0
O621 O 0.50747 0.53234 0.48428 0.0
O622 O 0.55793 0.49682 0.54624 0.0
O623 O 0.53578 0.50919 0.50978 0.0
O624 O 0.50845 0.49429 0.49559 0.0
C625 C 0.57262 0.50537 0.53998 0.0
O626 O 0.57144 0.51955 0.52949 0.0
O627 O 0.51814 0.4731 0.53201 0.0
C628 C 0.46512 0.52717 0.51374 0.0
O629 O 0.47578 0.53739 0.52869 0.0
O630 O 0.47077 0.513 0.50434 0.0
O631 O 0.49312 0.5025 0.54112 0.0
O632 O 0.52047 0.51613 0.55619 0.0
O633 O 0.51046 0.53879 0.51658 0.0
C634 C 0.52578 0.50003 0.49478 0.0
C635 C 0.50304 0.51058 0.55657 0.0
Zn636 Zn -0.00708 0.50617 0.02717 0.0
Zn637 Zn 0.02998 0.49696 0.01246 0.0
C638 C 0.00591 0.5406 0.05236 0.0
O639 O -0.00194 0.52898 0.06408 0.0
C640 C 0.01473 0.46289 0.98771 0.0
O641 O 0.0233 0.47387 0.97588 0.0
O642 O 0.96664 0.5087 0.03298 0.0
O643 O 0.99203 0.49917 -0.00174 0.0
O644 O 0.02024 0.51372 0.9938 0.0
C645 C 0.95262 0.50269 0.02055 0.0
O646 O 0.95468 0.49192 0.0044 0.0
O647 O 0.00658 0.53376 0.03474 0.0
C648 C 0.06081 0.48021 0.01873 0.0
O649 O 0.04866 0.47251 0.02992 0.0
O650 O 0.05628 0.49276 0.00835 0.0
O651 O 0.03088 0.50578 0.04106 0.0
O652 O 0.00354 0.48893 0.04458 0.0
O653 O 0.01486 0.46982 0.00544 0.0
C654 C 0.00315 0.50796 0.98764 0.0
C655 C 0.02051 0.49509 0.05088 0.0
C656 C 0.00635 0.19067 0.92848 0.0
C657 C 0.98868 0.19546 0.93093 0.0
C658 C 0.01354 0.17834 0.94017 0.0
C659 C 0.0087 0.15495 0.9848 0.0
H660 H 0.02072 0.11057 0.95305 0.0
C661 C 0.00597 0.07952 0.01053 0.0
C662 C 0.01593 0.06641 0.00111 0.0
C663 C 0.00713 0.0983 0.00536 0.0
C664 C 0.01799 0.123 0.96236 0.0
H665 H 0.96536 0.19216 0.94859 0.0
H666 H 0.978 0.17063 0.96902 0.0
H667 H 0.01467 0.13846 0.93807 0.0
H668 H 0.03626 0.06296 0.98054 0.0
H669 H 0.03943 0.09609 0.97255 0.0
H670 H 0.0119 0.13938 0.00913 0.0
C671 C 0.98623 0.17643 0.95801 0.0
C672 C 0.0144 0.13902 0.95366 0.0
C673 C 0.97894 0.18865 0.94619 0.0
C674 C 0.02836 0.07285 0.98787 0.0
C675 C 0.02995 0.09175 0.98313 0.0
C676 C 0.0126 0.13899 0.99362 0.0
C677 C 0.00332 0.17067 0.95469 0.0
C678 C 0.00935 0.15498 0.96469 0.0
C679 C 0.01857 0.10439 0.99097 0.0
C680 C 0.01691 0.12259 0.98243 0.0
H681 H 0.01432 0.19575 0.91697 0.0
H682 H 0.02684 0.17426 0.93743 0.0
H683 H 0.00494 0.16716 0.99364 0.0
H684 H -0.00386 0.07475 0.02065 0.0
H685 H -0.00195 0.10746 0.01168 0.0
C686 C 0.06225 0.8062 0.19534 0.0
C687 C 0.05405 0.79191 0.17987 0.0
C688 C 0.07926 0.80494 0.20521 0.0
C689 C 0.10683 0.76845 0.21682 0.0
H690 H 0.1482 0.81159 0.22998 0.0
C691 C 0.17999 0.75692 0.24123 0.0
C692 C 0.19132 0.77071 0.25527 0.0
C693 C 0.16276 0.7602 0.23385 0.0
C694 C 0.13665 0.7995 0.22673 0.0
H695 H 0.05771 0.76561 0.16205 0.0
H696 H 0.08731 0.76344 0.1793 0.0
H697 H 0.11943 0.81663 0.21269 0.0
H698 H 0.19322 0.79851 0.27309 0.0
H699 H 0.16276 0.80416 0.26035 0.0
H700 H 0.12382 0.75128 0.23082 0.0
C701 C 0.08047 0.77547 0.18391 0.0
C702 C 0.12024 0.80237 0.21675 0.0
C703 C 0.06358 0.77681 0.17396 0.0
C704 C 0.18478 0.78763 0.26226 0.0
C705 C 0.16744 0.79093 0.25485 0.0
C706 C 0.12312 0.76561 0.22689 0.0
C707 C 0.08828 0.78928 0.19988 0.0
C708 C 0.10534 0.78676 0.21137 0.0
C709 C 0.15633 0.77731 0.24042 0.0
C710 C 0.13837 0.78098 0.23161 0.0
H711 H 0.05528 0.81805 0.2002 0.0
H712 H 0.08499 0.81577 0.21748 0.0
H713 H 0.09539 0.75626 0.21324 0.0
H714 H 0.18455 0.74365 0.23564 0.0
H715 H 0.15472 0.74952 0.22256 0.0
C716 C 0.48943 0.78855 0.41065 0.0
C717 C 0.47176 0.777 0.41066 0.0
C718 C 0.49318 0.80777 0.41975 0.0
C719 C 0.47566 0.84261 0.4552 0.0
H720 H 0.50615 0.88084 0.42969 0.0
C721 C 0.50295 0.92225 0.49074 0.0
C722 C 0.50492 0.93677 0.47841 0.0
C723 C 0.49757 0.90264 0.48299 0.0
C724 C 0.49741 0.87043 0.43692 0.0
H725 H 0.44419 0.77662 0.42041 0.0
H726 H 0.45059 0.81023 0.43584 0.0
H727 H 0.49964 0.84703 0.41525 0.0
H728 H 0.50158 0.94234 0.4485 0.0
H729 H 0.49161 0.90834 0.43506 0.0
H730 H 0.47298 0.86624 0.47656 0.0
C731 C 0.4617 0.80434 0.42915 0.0
C732 C 0.49393 0.85092 0.42878 0.0
C733 C 0.45799 0.78507 0.42018 0.0
C734 C 0.50043 0.93143 0.45834 0.0
C735 C 0.49485 0.91191 0.45063 0.0
C736 C 0.47905 0.86219 0.46329 0.0
C737 C 0.4793 0.81598 0.42894 0.0
C738 C 0.48305 0.83674 0.43782 0.0
C739 C 0.49388 0.89721 0.46278 0.0
C740 C 0.48995 0.87636 0.45422 0.0
H741 H 0.50041 0.78277 0.4036 0.0
H742 H 0.50701 0.81617 0.41962 0.0
H743 H 0.46738 0.83205 0.46267 0.0
H744 H 0.5064 0.92596 0.50627 0.0
H745 H 0.49707 0.89171 0.49277 0.0
C746 C 0.43427 0.24104 0.65514 0.0
C747 C 0.45123 0.2462 0.66685 0.0
C748 C 0.41751 0.23723 0.66356 0.0
C749 C 0.39674 0.23258 0.71087 0.0
H750 H 0.36073 0.25955 0.6873 0.0
C751 C 0.32579 0.24129 0.74109 0.0
C752 C 0.32005 0.25914 0.73936 0.0
C753 C 0.34182 0.23711 0.73291 0.0
C754 C 0.37068 0.25206 0.69416 0.0
H755 H 0.46413 0.24991 0.69641 0.0
H756 H 0.43494 0.24413 0.71116 0.0
H757 H 0.38806 0.25496 0.67108 0.0
H758 H 0.32719 0.28714 0.72909 0.0
H759 H 0.35534 0.28017 0.71545 0.0
H760 H 0.3796 0.23078 0.73455 0.0
C761 C 0.43446 0.24258 0.69546 0.0
C762 C 0.38623 0.24906 0.68464 0.0
C763 C 0.45124 0.24602 0.687 0.0
C764 C 0.33115 0.27316 0.7304 0.0
C765 C 0.3472 0.26909 0.72245 0.0
C766 C 0.38116 0.23574 0.72051 0.0
C767 C 0.41735 0.23894 0.68389 0.0
C768 C 0.39966 0.23959 0.693 0.0
C769 C 0.35237 0.25079 0.72301 0.0
C770 C 0.36821 0.24594 0.71243 0.0
H771 H 0.43384 0.2407 0.63954 0.0
H772 H 0.40461 0.23385 0.65415 0.0
H773 H 0.40668 0.22501 0.71761 0.0
H774 H 0.31741 0.2302 0.74788 0.0
H775 H 0.34545 0.22289 0.73358 0.0
C776 C 0.00588 0.80764 0.5946 0.0
C777 C 0.98825 0.79576 0.59026 0.0
C778 C 0.01299 0.8201 0.58165 0.0
C779 C -0.00455 0.84571 0.54286 0.0
H780 H 0.04797 0.86758 0.54434 0.0
C781 C 0.0199 0.91793 0.51369 0.0
C782 C 0.02907 0.93169 0.52911 0.0
C783 C 0.01773 0.89802 0.5153 0.0
C784 C 0.03328 0.8614 0.54353 0.0
H785 H 0.965 0.78628 0.56816 0.0
H786 H 0.97771 0.80743 0.54519 0.0
H787 H 0.03849 0.8371 0.55752 0.0
H788 H 0.04446 0.93563 0.5575 0.0
H789 H 0.04113 0.90097 0.56007 0.0
H790 H 0.99031 0.87029 0.52927 0.0
C791 C 0.98576 0.80773 0.55893 0.0
C792 C 0.0278 0.84406 0.55123 0.0
C793 C 0.9785 0.79551 0.57206 0.0
C794 C 0.03726 0.92528 0.54545 0.0
C795 C 0.03547 0.90545 0.54685 0.0
C796 C 0.00095 0.86285 0.53487 0.0
C797 C 0.00277 0.82075 0.56387 0.0
C798 C 0.00878 0.83649 0.55184 0.0
C799 C 0.02512 0.89167 0.53212 0.0
C800 C 0.01986 0.87128 0.5359 0.0
H801 H 0.01375 0.8082 0.60852 0.0
H802 H 0.02599 0.83002 0.58619 0.0
H803 H 0.98069 0.84057 0.54319 0.0
H804 H 0.01339 0.92256 0.50099 0.0
H805 H 0.00965 0.88764 0.50378 0.0
C806 C 0.42921 0.76201 0.86376 0.0
C807 C 0.44596 0.76736 0.85548 0.0
C808 C 0.41241 0.76527 0.8551 0.0
C809 C 0.38962 0.76902 0.80785 0.0
H810 H 0.35147 0.78559 0.83832 0.0
C811 C 0.31448 0.7666 0.77375 0.0
C812 C 0.30052 0.75812 0.78456 0.0
C813 C 0.33295 0.77207 0.78205 0.0
C814 C 0.36196 0.78091 0.82959 0.0
H815 H 0.45823 0.78071 0.83175 0.0
H816 H 0.42873 0.78618 0.81646 0.0
H817 H 0.38278 0.7872 0.85382 0.0
H818 H 0.29486 0.74935 0.81273 0.0
H819 H 0.32681 0.75856 0.82698 0.0
H820 H 0.36861 0.76187 0.78382 0.0
C821 C 0.42869 0.7795 0.82972 0.0
C822 C 0.37989 0.78188 0.83848 0.0
C823 C 0.44557 0.77643 0.83852 0.0
C824 C 0.30527 0.75579 0.80395 0.0
C825 C 0.32361 0.76126 0.81221 0.0
C826 C 0.37163 0.76793 0.79898 0.0
C827 C 0.41192 0.77379 0.83784 0.0
C828 C 0.39376 0.77544 0.82783 0.0
C829 C 0.33774 0.76926 0.80133 0.0
C830 C 0.35745 0.77333 0.80989 0.0
H831 H 0.42895 0.75486 0.8767 0.0
H832 H 0.39967 0.76045 0.86155 0.0
H833 H 0.4 0.76383 0.79931 0.0
H834 H 0.31123 0.76863 0.75878 0.0
H835 H 0.34349 0.77834 0.77333 0.0
C836 C 0.45306 0.1994 0.09931 0.0
C837 C 0.46516 0.20911 0.11542 0.0
C838 C 0.45526 0.1811 0.09061 0.0
C839 C 0.47494 0.13795 0.09936 0.0
H840 H 0.47687 0.13025 0.04353 0.0
C841 C 0.50028 0.07153 0.06108 0.0
C842 C 0.49185 0.06325 0.04253 0.0
C843 C 0.49612 0.08893 0.06994 0.0
C844 C 0.47605 0.13199 0.05908 0.0
H845 H 0.48875 0.20693 0.13532 0.0
H846 H 0.49237 0.17483 0.12025 0.0
H847 H 0.47078 0.16106 0.0593 0.0
H848 H 0.47227 0.06662 0.01881 0.0
H849 H 0.46458 0.09674 0.03449 0.0
H850 H 0.47993 0.10887 0.09924 0.0
C851 C 0.48124 0.18146 0.11435 0.0
C852 C 0.47262 0.14968 0.06811 0.0
C853 C 0.47921 0.19988 0.12291 0.0
C854 C 0.47908 0.0727 0.03307 0.0
C855 C 0.47475 0.09003 0.04203 0.0
C856 C 0.47815 0.12018 0.09032 0.0
C857 C 0.46943 0.17199 0.09799 0.0
C858 C 0.47221 0.1529 0.08835 0.0
C859 C 0.48326 0.0984 0.06058 0.0
C860 C 0.47897 0.11702 0.07008 0.0
H861 H 0.44212 0.20611 0.09314 0.0
H862 H 0.44587 0.17404 0.0781 0.0
H863 H 0.47446 0.13997 0.11497 0.0
H864 H 0.5103 0.06469 0.06871 0.0
H865 H 0.50326 0.0951 0.08403 0.0
C866 C 0.06381 0.26431 0.3614 0.0
C867 C 0.04828 0.25511 0.34857 0.0
C868 C 0.08182 0.26574 0.35546 0.0
C869 C 0.10725 0.26423 0.31147 0.0
H870 H 0.14776 0.25566 0.34662 0.0
C871 C 0.18104 0.26134 0.28747 0.0
C872 C 0.1961 0.27106 0.30067 0.0
C873 C 0.16288 0.25863 0.2931 0.0
C874 C 0.13663 0.25827 0.33669 0.0
H875 H 0.03952 0.24013 0.31946 0.0
H876 H 0.07084 0.24251 0.30921 0.0
H877 H 0.1164 0.25274 0.35701 0.0
H878 H 0.20387 0.28549 0.33014 0.0
H879 H 0.17234 0.28096 0.33981 0.0
H880 H 0.12751 0.26988 0.29119 0.0
C881 C 0.06912 0.24883 0.32377 0.0
C882 C 0.11866 0.25661 0.34266 0.0
C883 C 0.05116 0.24737 0.32971 0.0
C884 C 0.19262 0.2779 0.3196 0.0
C885 C 0.17453 0.27518 0.32521 0.0
C886 C 0.12523 0.2659 0.3055 0.0
C887 C 0.08467 0.25805 0.33656 0.0
C888 C 0.10377 0.25965 0.33016 0.0
C889 C 0.15942 0.26555 0.31204 0.0
C890 C 0.14016 0.26304 0.31808 0.0
H891 H 0.06208 0.27046 0.37601 0.0
H892 H 0.09348 0.27313 0.3656 0.0
H893 H 0.09613 0.26691 0.30157 0.0
H894 H 0.18327 0.25585 0.27279 0.0
H895 H 0.15157 0.25097 0.28266 0.0
C896 C 0.93391 0.04325 0.21167 0.0
C897 C 0.91656 0.03137 0.21257 0.0
C898 C 0.94296 0.0422 0.19472 0.0
C899 C 0.93575 0.0264 0.14202 0.0
H900 H 0.98835 0.02356 0.14752 0.0
C901 C 0.97467 0.00492 0.07637 0.0
C902 C -0.00696 0.01456 0.07559 0.0
C903 C 0.96552 0.00775 0.09306 0.0
C904 C 0.97375 0.02463 0.14572 0.0
H905 H 0.89482 0.00948 0.19613 0.0
H906 H 0.91068 0.00767 0.16639 0.0
H907 H 0.97166 0.02726 0.17638 0.0
H908 H 0.01623 0.03471 0.09185 0.0
H909 H 0.0001 0.03989 0.12107 0.0
H910 H 0.93782 0.02385 0.11138 0.0
C911 C 0.91723 0.01783 0.17887 0.0
C912 C 0.96417 0.02671 0.16227 0.0
C913 C 0.90818 0.01882 0.1959 0.0
C914 C 0.00211 0.02701 0.09201 0.0
C915 C 0.99288 0.02992 0.10876 0.0
C916 C 0.94536 0.02443 0.12547 0.0
C917 C 0.93486 0.02931 0.17821 0.0
C918 C 0.94504 0.02751 0.16059 0.0
C919 C 0.97443 0.02037 0.10943 0.0
C920 C 0.96444 0.02335 0.12711 0.0
H921 H 0.94074 0.05317 0.2242 0.0
H922 H 0.95638 0.05145 0.19457 0.0
H923 H 0.92109 0.02726 0.14028 0.0
H924 H 0.96727 0.99509 0.06405 0.0
H925 H 0.95148 -0.00017 0.09318 0.0
C926 C 0.29319 0.70553 0.46962 0.0
C927 C 0.28001 0.68855 0.46999 0.0
C928 C 0.28888 0.72022 0.45918 0.0
C929 C 0.2501 0.73737 0.43223 0.0
H930 H 0.28874 0.7548 0.39969 0.0
C931 C 0.23617 0.76143 0.35732 0.0
C932 C 0.24971 0.77516 0.35064 0.0
C933 C 0.23894 0.75577 0.37571 0.0
C934 C 0.27791 0.75051 0.40895 0.0
H935 H 0.2516 0.67418 0.4605 0.0
H936 H 0.24425 0.69955 0.44185 0.0
H937 H 0.29543 0.73547 0.42506 0.0
H938 H 0.27599 0.79499 0.35872 0.0
H939 H 0.28075 0.78518 0.39092 0.0
H940 H 0.23234 0.75175 0.41533 0.0
C941 C 0.25784 0.70169 0.44989 0.0
C942 C 0.28175 0.73937 0.42355 0.0
C943 C 0.2621 0.68706 0.46049 0.0
C944 C 0.26536 0.78424 0.36335 0.0
C945 C 0.26815 0.77855 0.38176 0.0
C946 C 0.24623 0.74849 0.41754 0.0
C947 C 0.27135 0.71822 0.44869 0.0
C948 C 0.26778 0.73226 0.43507 0.0
C949 C 0.25531 0.76372 0.38784 0.0
C950 C 0.25998 0.75478 0.40544 0.0
H951 H 0.30704 0.7073 0.47703 0.0
H952 H 0.29948 0.73295 0.4589 0.0
H953 H 0.23911 0.7324 0.44106 0.0
H954 H 0.22387 0.75425 0.34794 0.0
H955 H 0.22882 0.74423 0.37988 0.0
C956 C 0.6048 0.97138 0.70165 0.0
C957 C 0.59489 0.96235 0.71566 0.0
C958 C 0.59641 0.97071 0.68283 0.0
C959 C 0.55034 0.96681 0.65723 0.0
H960 H 0.57636 0.96102 0.61094 0.0
C961 C 0.51629 0.97305 0.58102 0.0
C962 C 0.52782 0.98377 0.5693 0.0
C963 C 0.52385 0.96773 0.59823 0.0
C964 C 0.56894 0.96279 0.62375 0.0
H965 H 0.56873 0.94468 0.72065 0.0
H966 H 0.55416 0.94356 0.68785 0.0
H967 H 0.59121 0.95623 0.6421 0.0
H968 H 0.55631 -0.00268 0.56646 0.0
H969 H 0.56928 0.9885 0.59647 0.0
H970 H 0.52834 0.97402 0.63908 0.0
C971 C 0.56832 0.95133 0.69148 0.0
C972 C 0.57744 0.96 0.64156 0.0
C973 C 0.57673 0.95191 0.71024 0.0
C974 C 0.547 0.98904 0.57512 0.0
C975 C 0.5545 0.9838 0.59227 0.0
C976 C 0.54188 0.96972 0.63944 0.0
C977 C 0.57794 0.96105 0.67771 0.0
C978 C 0.56834 0.96227 0.65852 0.0
C979 C 0.54306 0.97306 0.60403 0.0
C980 C 0.55122 0.96809 0.62255 0.0
H981 H 0.61882 0.97951 0.70536 0.0
H982 H 0.60412 0.97845 0.67255 0.0
H983 H 0.54308 0.96889 0.67011 0.0
H984 H 0.50148 0.96868 0.57687 0.0
H985 H 0.51468 0.95932 0.60691 0.0
C986 C 0.28626 0.34578 0.9779 0.0
C987 C 0.27247 0.35352 0.98769 0.0
C988 C 0.28294 0.33822 0.95824 0.0
C989 C 0.25206 0.33961 0.91394 0.0
H990 H 0.27386 0.29574 0.89368 0.0
C991 C 0.24849 0.28426 0.83775 0.0
C992 C 0.24757 0.29784 0.82459 0.0
C993 C 0.25197 0.29048 0.85775 0.0
C994 C 0.26751 0.30788 0.89909 0.0
H995 H 0.24418 0.35899 0.98449 0.0
H996 H 0.2382 0.34535 0.95032 0.0
H997 H 0.27782 0.30684 0.92843 0.0
H998 H 0.25056 0.32859 0.82195 0.0
H999 H 0.25725 0.33945 0.85658 0.0
H1000 H 0.24121 0.34026 0.88475 0.0
C1001 C 0.25177 0.34552 0.95773 0.0
C1002 C 0.26999 0.31444 0.91903 0.0
C1003 C 0.25516 0.35326 0.97738 0.0
C1004 C 0.25098 0.31775 0.83174 0.0
C1005 C 0.25465 0.32397 0.85165 0.0
C1006 C 0.24947 0.33298 0.89405 0.0
C1007 C 0.26567 0.33803 0.94785 0.0
C1008 C 0.26242 0.33049 0.92671 0.0
C1009 C 0.25477 0.31042 0.86498 0.0
C1010 C 0.25731 0.31714 0.8863 0.0
H1011 H 0.29981 0.34584 0.98531 0.0
H1012 H 0.29411 0.33293 0.95111 0.0
H1013 H 0.24619 0.35215 0.91921 0.0
H1014 H 0.2458 0.2688 0.83268 0.0
H1015 H 0.25181 0.2796 0.86756 0.0
C1016 C 0.90019 0.00536 0.32881 0.0
C1017 C 0.90802 0.002 0.31119 0.0
C1018 C 0.908 -5e-05 0.34578 0.0
C1019 C 0.92344 0.98043 0.37851 0.0
H1020 H 0.97606 0.00206 0.38968 0.0
C1021 C 0.98644 -0.00246 0.44587 0.0
C1022 C 0.97627 0.00537 0.46024 0.0
C1023 C 0.97807 0.99132 0.42695 0.0
C1024 C 0.96149 0.99545 0.3867 0.0
H1025 H 0.92982 0.98969 0.29738 0.0
H1026 H 0.94364 0.98053 0.32717 0.0
H1027 H 0.96098 0.00129 0.35721 0.0
H1028 H 0.94914 0.01188 0.46631 0.0
H1029 H 0.93478 0.0015 0.43347 0.0
H1030 H 0.92379 0.9751 0.40815 0.0
C1031 C 0.93141 0.9873 0.32778 0.0
C1032 C 0.95284 0.99506 0.36807 0.0
C1033 C 0.92347 0.99252 0.31075 0.0
C1034 C 0.95741 0.00603 0.45556 0.0
C1035 C 0.94909 -0.00014 0.43672 0.0
C1036 C 0.93211 0.98067 0.3971 0.0
C1037 C 0.92392 0.99125 0.34551 0.0
C1038 C 0.9336 0.9882 0.36401 0.0
C1039 C 0.9594 0.99279 0.42208 0.0
C1040 C 0.95108 0.98888 0.4016 0.0
H1041 H 0.88837 0.0127 0.32971 0.0
H1042 H 0.90208 0.00343 0.35929 0.0
H1043 H 0.90864 0.97478 0.37566 0.0
H1044 H 0.00097 -0.00328 0.44908 0.0
H1045 H 0.98633 0.98574 0.41605 0.0
C1046 C 0.27792 0.65844 0.56153 0.0
C1047 C 0.29416 0.66457 0.55264 0.0
C1048 C 0.27458 0.66838 0.57911 0.0
C1049 C 0.29669 0.70394 0.62139 0.0
H1050 H 0.24598 0.71241 0.6253 0.0
C1051 C 0.27479 0.75274 0.68591 0.0
C1052 C 0.25879 0.74426 0.69395 0.0
C1053 C 0.27973 0.7441 0.66832 0.0
C1054 C 0.26019 0.71009 0.62446 0.0
H1055 H 0.32 0.68552 0.55573 0.0
H1056 H 0.31404 0.70299 0.58632 0.0
H1057 H 0.2538 0.6945 0.59588 0.0
H1058 H 0.23523 0.72034 0.68967 0.0
H1059 H 0.24375 0.70548 0.65914 0.0
H1060 H 0.30297 0.71964 0.65008 0.0
C1061 C 0.30396 0.69039 0.57975 0.0
C1062 C 0.26466 0.69974 0.60765 0.0
C1063 C 0.30736 0.68038 0.56218 0.0
C1064 C 0.24764 0.72727 0.68388 0.0
C1065 C 0.25247 0.71878 0.66631 0.0
C1066 C 0.2922 0.71439 0.63823 0.0
C1067 C 0.28734 0.68476 0.5882 0.0
C1068 C 0.2829 0.69628 0.60599 0.0
C1069 C 0.26862 0.72699 0.6584 0.0
C1070 C 0.27384 0.71734 0.64002 0.0
H1071 H 0.26753 0.64621 0.55471 0.0
H1072 H 0.26185 0.66336 0.58547 0.0
H1073 H 0.31084 0.70144 0.62063 0.0
H1074 H 0.28369 0.76579 0.69338 0.0
H1075 H 0.29219 0.75081 0.66247 0.0
C1076 C 0.58177 0.01697 0.81163 0.0
C1077 C 0.59831 0.00988 0.81571 0.0
C1078 C 0.57351 0.02647 0.82654 0.0
C1079 C 0.58238 0.05045 0.87728 0.0
H1080 H 0.53175 0.02578 0.88263 0.0
C1081 C 0.55622 0.03758 0.94974 0.0
C1082 C 0.53749 0.03737 0.95296 0.0
C1083 C 0.5625 0.04125 0.93193 0.0
C1084 C 0.54568 0.03329 0.88116 0.0
H1085 H 0.61933 0.00767 0.83855 0.0
H1086 H 0.60512 0.02437 0.86439 0.0
H1087 H 0.54537 0.01908 0.8522 0.0
H1088 H 0.51077 0.04184 0.94047 0.0
H1089 H 0.52178 0.048 0.9089 0.0
H1090 H 0.58304 0.06384 0.90659 0.0
C1091 C 0.59861 0.02274 0.84967 0.0
C1092 C 0.5535 0.02941 0.86373 0.0
C1093 C 0.60672 0.01305 0.83485 0.0
C1094 C 0.52529 0.04186 0.93831 0.0
C1095 C 0.53156 0.04534 0.92029 0.0
C1096 C 0.57454 0.05441 0.89465 0.0
C1097 C 0.5818 0.02929 0.84572 0.0
C1098 C 0.57222 0.03719 0.86202 0.0
C1099 C 0.55017 0.04469 0.91683 0.0
C1100 C 0.55645 0.04505 0.8971 0.0
H1101 H 0.57494 0.01477 0.79701 0.0
H1102 H 0.56053 0.03136 0.82314 0.0
H1103 H 0.59674 0.05691 0.87617 0.0
H1104 H 0.56599 0.03437 0.96084 0.0
H1105 H 0.57684 0.04033 0.92968 0.0
C1106 C 0.26399 0.31666 0.0758 0.0
C1107 C 0.2562 0.33355 0.07532 0.0
C1108 C 0.25861 0.30359 0.08887 0.0
C1109 C 0.22543 0.29188 0.1263 0.0
H1110 H 0.26877 0.27737 0.15215 0.0
C1111 C 0.25256 0.27671 0.20647 0.0
C1112 C 0.23825 0.26256 0.21132 0.0
C1113 C 0.25282 0.28159 0.18769 0.0
C1114 C 0.25648 0.28118 0.14503 0.0
H1115 H 0.23575 0.34932 0.08732 0.0
H1116 H 0.22679 0.32691 0.11062 0.0
H1117 H 0.27183 0.29259 0.12281 0.0
H1118 H 0.21296 0.24234 0.20006 0.0
H1119 H 0.21333 0.25112 0.16683 0.0
H1120 H 0.21044 0.28136 0.14951 0.0
C1121 C 0.23681 0.32348 0.10064 0.0
C1122 C 0.25816 0.28974 0.12801 0.0
C1123 C 0.242 0.33642 0.08731 0.0
C1124 C 0.22417 0.25328 0.19676 0.0
C1125 C 0.22434 0.25836 0.17781 0.0
C1126 C 0.22376 0.28329 0.14345 0.0
C1127 C 0.24555 0.30727 0.10208 0.0
C1128 C 0.2428 0.29568 0.11863 0.0
C1129 C 0.23878 0.27252 0.1731 0.0
C1130 C 0.23944 0.27842 0.1533 0.0
H1131 H 0.27477 0.31387 0.06652 0.0
H1132 H 0.26526 0.29098 0.08913 0.0
H1133 H 0.21324 0.29601 0.11935 0.0
H1134 H 0.26372 0.28411 0.21721 0.0
H1135 H 0.26397 0.29277 0.18466 0.0
C1136 C 0.19387 0.91036 0.01466 0.0
C1137 C 0.19933 0.90032 0.02978 0.0
C1138 C 0.17973 0.92135 0.01664 0.0
C1139 C 0.15472 0.94532 0.05454 0.0
H1140 H 0.12297 0.95221 0.00977 0.0
C1141 C 0.09037 0.98426 0.05721 0.0
C1142 C 0.08904 -0.00259 0.04364 0.0
C1143 C 0.10436 0.97292 0.05681 0.0
C1144 C 0.13184 0.95051 0.02238 0.0
H1145 H 0.19359 0.89314 0.05844 0.0
H1146 H 0.16839 0.91164 0.06159 0.0
H1147 H 0.14486 0.92984 0.006 0.0
H1148 H 0.10187 0.00955 0.01955 0.0
H1149 H 0.12607 0.98961 0.01876 0.0
H1150 H 0.14113 0.96569 0.07093 0.0
C1151 C 0.17545 0.9116 0.04845 0.0
C1152 C 0.14445 0.93773 0.02023 0.0
C1153 C 0.18978 0.90082 0.04657 0.0
C1154 C 0.10249 -0.00039 0.03025 0.0
C1155 C 0.11627 0.98808 0.02967 0.0
C1156 C 0.14187 0.95789 0.05673 0.0
C1157 C 0.17048 0.92235 0.03368 0.0
C1158 C 0.15624 0.93511 0.03623 0.0
C1159 C 0.11709 0.97433 0.04264 0.0
C1160 C 0.13049 0.96078 0.04061 0.0
H1161 H 0.20103 0.91041 0.00159 0.0
H1162 H 0.17657 0.92961 0.00505 0.0
H1163 H 0.16374 0.94398 0.06715 0.0
H1164 H 0.08021 0.98221 0.0677 0.0
H1165 H 0.10469 0.96241 0.06697 0.0
C1166 C 0.70471 0.59724 0.99078 0.0
C1167 C 0.71532 0.58689 0.97878 0.0
C1168 C 0.68624 0.58935 0.99292 0.0
C1169 C 0.64592 0.55244 0.97084 0.0
H1170 H 0.63115 0.55621 0.02333 0.0
C1171 C 0.57462 0.51307 0.99033 0.0
C1172 C 0.5655 0.52386 0.00363 0.0
C1173 C 0.59298 0.52016 0.9868 0.0
C1174 C 0.63498 0.5552 0.00855 0.0
H1175 H 0.71465 0.56041 0.95911 0.0
H1176 H 0.68238 0.54664 0.96291 0.0
H1177 H 0.66273 0.57025 0.01762 0.0
H1178 H 0.56846 0.55061 0.02353 0.0
H1179 H 0.60017 0.56297 0.01722 0.0
H1180 H 0.61805 0.53747 0.96179 0.0
C1181 C 0.68835 0.56089 0.9706 0.0
C1182 C 0.65308 0.56326 0.00529 0.0
C1183 C 0.70687 0.56875 0.9685 0.0
C1184 C 0.57509 0.54184 0.01329 0.0
C1185 C 0.59334 0.5489 0.00975 0.0
C1186 C 0.62775 0.5444 0.97411 0.0
C1187 C 0.67794 0.57097 0.98308 0.0
C1188 C 0.65872 0.56212 0.98639 0.0
C1189 C 0.60254 0.53815 -0.00348 0.0
C1190 C 0.62204 0.54584 0.993 0.0
H1191 H 0.71076 0.61129 -0.00116 0.0
H1192 H 0.67847 0.59762 0.0024 0.0
H1193 H 0.64983 0.55145 0.9561 0.0
H1194 H 0.56762 0.49916 0.98267 0.0
H1195 H 0.59975 0.51145 0.97665 0.0
C1196 C 0.69631 0.46492 0.29156 0.0
C1197 C 0.68305 0.47188 0.27993 0.0
C1198 C 0.70707 0.45212 0.28324 0.0
C1199 C 0.73043 0.42611 0.26234 0.0
H1200 H 0.69763 0.38486 0.22815 0.0
C1201 C 0.7479 0.34885 0.24111 0.0
C1202 C 0.7338 0.33432 0.2457 0.0
C1203 C 0.7448 0.36798 0.24101 0.0
C1204 C 0.70707 0.39637 0.23745 0.0
H1205 H 0.67214 0.47251 0.25021 0.0
H1206 H 0.69111 0.45039 0.23571 0.0
H1207 H 0.68788 0.41593 0.23607 0.0
H1208 H 0.70531 0.32824 0.25323 0.0
H1209 H 0.69989 0.36127 0.25282 0.0
H1210 H 0.74901 0.40576 0.26469 0.0
C1211 C 0.69283 0.45443 0.25132 0.0
C1212 C 0.70158 0.41427 0.24187 0.0
C1213 C 0.68199 0.46715 0.25964 0.0
C1214 C 0.71649 0.33911 0.24971 0.0
C1215 C 0.71331 0.35801 0.24931 0.0
C1216 C 0.73594 0.40812 0.25786 0.0
C1217 C 0.70489 0.44609 0.2631 0.0
C1218 C 0.71283 0.42909 0.25502 0.0
C1219 C 0.72743 0.37266 0.24507 0.0
C1220 C 0.72391 0.39284 0.24607 0.0
H1221 H 0.69762 0.46837 0.30722 0.0
H1222 H 0.7161 0.4459 0.2928 0.0
H1223 H 0.73952 0.43733 0.27229 0.0
H1224 H 0.7614 0.34553 0.238 0.0
H1225 H 0.75591 0.37907 0.23777 0.0
C1226 C 0.81741 0.40212 0.48861 0.0
C1227 C 0.80192 0.41136 0.49009 0.0
C1228 C 0.83401 0.41182 0.48302 0.0
C1229 C 0.86081 0.46028 0.48744 0.0
H1230 H 0.89424 0.43446 0.4573 0.0
C1231 C 0.93904 0.4914 0.49451 0.0
C1232 C 0.94995 0.47748 0.49869 0.0
C1233 C 0.92048 0.48553 0.48674 0.0
C1234 C 0.88505 0.44193 0.46568 0.0
H1235 H 0.79142 0.43781 0.48605 0.0
H1236 H 0.82074 0.45501 0.47664 0.0
H1237 H 0.86139 0.4196 0.4558 0.0
H1238 H 0.95043 0.44656 0.49661 0.0
H1239 H 0.9182 0.43637 0.48342 0.0
H1240 H 0.8846 0.48192 0.49838 0.0
C1241 C 0.8199 0.44016 0.47972 0.0
C1242 C 0.86626 0.43345 0.46477 0.0
C1243 C 0.80315 0.4303 0.48506 0.0
C1244 C 0.94235 0.45765 0.49372 0.0
C1245 C 0.92387 0.4518 0.48595 0.0
C1246 C 0.87963 0.46871 0.48844 0.0
C1247 C 0.83559 0.4311 0.47898 0.0
C1248 C 0.85414 0.44214 0.47627 0.0
C1249 C 0.91253 0.46565 0.48293 0.0
C1250 C 0.89212 0.45919 0.47823 0.0
H1251 H 0.81696 0.38754 0.49218 0.0
H1252 H 0.84592 0.40454 0.48283 0.0
H1253 H 0.85183 0.46724 0.49657 0.0
H1254 H 0.94456 0.50681 0.49805 0.0
H1255 H 0.91217 0.49654 0.48435 0.0
C1256 C 0.32464 0.06412 0.28519 0.0
C1257 C 0.33783 0.0582 0.27316 0.0
C1258 C 0.31151 0.0746 0.27834 0.0
C1259 C 0.28158 0.09311 0.25916 0.0
H1260 H 0.30572 0.13762 0.23672 0.0
C1261 C 0.2494 0.16273 0.24866 0.0
C1262 C 0.26104 0.17911 0.25931 0.0
C1263 C 0.25578 0.14498 0.24544 0.0
C1264 C 0.29866 0.12507 0.2426 0.0
H1265 H 0.34673 0.05761 0.24406 0.0
H1266 H 0.32382 0.07603 0.23217 0.0
H1267 H 0.3218 0.11041 0.23999 0.0
H1268 H 0.28853 0.18992 0.27445 0.0
H1269 H 0.29958 0.15938 0.26851 0.0
H1270 H 0.25892 0.1086 0.26286 0.0
C1271 C 0.32379 0.07266 0.24696 0.0
C1272 C 0.30781 0.10943 0.2444 0.0
C1273 C 0.3369 0.06209 0.25378 0.0
C1274 C 0.27914 0.17755 0.26633 0.0
C1275 C 0.28557 0.1601 0.26279 0.0
C1276 C 0.27235 0.10876 0.25722 0.0
C1277 C 0.31127 0.07947 0.25933 0.0
C1278 C 0.29972 0.09365 0.25347 0.0
C1279 C 0.274 0.14365 0.25236 0.0
C1280 C 0.2812 0.12522 0.24971 0.0
H1281 H 0.32482 0.06124 0.30014 0.0
H1282 H 0.30223 0.07981 0.28834 0.0
H1283 H 0.27491 0.08102 0.26598 0.0
H1284 H 0.23539 0.16357 0.24309 0.0
H1285 H 0.2466 0.13239 0.23744 0.0
C1286 C 0.31853 0.08636 0.52392 0.0
C1287 C 0.32065 0.10267 0.51382 0.0
C1288 C 0.334 0.07837 0.52965 0.0
C1289 C 0.38583 0.08818 0.53601 0.0
H1290 H 0.38048 0.03216 0.52373 0.0
C1291 C 0.44756 0.05053 0.52053 0.0
C1292 C 0.4487 0.03276 0.52749 0.0
C1293 C 0.43191 0.05914 0.52272 0.0
C1294 C 0.38214 0.04777 0.5276 0.0
H1295 H 0.34077 0.1238 0.50247 0.0
H1296 H 0.36767 0.10986 0.51232 0.0
H1297 H 0.35309 0.04754 0.5208 0.0
H1298 H 0.43432 0.01018 0.54247 0.0
H1299 H 0.4066 0.02523 0.54611 0.0
H1300 H 0.41498 0.08845 0.54212 0.0
C1301 C 0.3541 0.10332 0.51602 0.0
C1302 C 0.36644 0.0566 0.52593 0.0
C1303 C 0.33864 0.11129 0.51029 0.0
C1304 C 0.43383 0.02386 0.53693 0.0
C1305 C 0.41797 0.03244 0.53896 0.0
C1306 C 0.4015 0.07936 0.53763 0.0
C1307 C 0.35193 0.08654 0.52544 0.0
C1308 C 0.36818 0.07697 0.52964 0.0
C1309 C 0.41688 0.05018 0.53185 0.0
C1310 C 0.39991 0.05911 0.53295 0.0
H1311 H 0.30486 0.0794 0.52694 0.0
H1312 H 0.33187 0.06562 0.53712 0.0
H1313 H 0.3876 0.10385 0.53938 0.0
H1314 H 0.45879 0.05786 0.51326 0.0
H1315 H 0.4314 0.07264 0.5168 0.0
C1316 C 0.65496 0.5659 0.28858 0.0
C1317 C 0.66334 0.55677 0.30288 0.0
C1318 C 0.66266 0.58473 0.28549 0.0
C1319 C 0.69591 0.62905 0.30774 0.0
H1320 H 0.69543 0.64036 0.25452 0.0
C1321 C 0.73651 0.69994 0.28506 0.0
C1322 C 0.72643 0.70923 0.2722 0.0
C1323 C 0.72906 0.6814 0.28928 0.0
C1324 C 0.69555 0.63744 0.26946 0.0
H1325 H 0.68632 0.56037 0.32531 0.0
H1326 H 0.7 0.59306 0.3196 0.0
H1327 H 0.68192 0.60797 0.26115 0.0
H1328 H 0.70067 0.70635 0.25367 0.0
H1329 H 0.68782 0.67398 0.26091 0.0
H1330 H 0.70988 0.65857 0.31591 0.0
C1331 C 0.68726 0.58581 0.31101 0.0
C1332 C 0.68774 0.61892 0.27329 0.0
C1333 C 0.67945 0.56702 0.31423 0.0
C1334 C 0.70881 0.69959 0.26362 0.0
C1335 C 0.70147 0.68101 0.26769 0.0
C1336 C 0.70388 0.64757 0.30387 0.0
C1337 C 0.67905 0.59483 0.29648 0.0
C1338 C 0.68768 0.61452 0.29249 0.0
C1339 C 0.71151 0.67173 0.28055 0.0
C1340 C 0.70364 0.65197 0.2847 0.0
H1341 H 0.64244 0.5585 0.27969 0.0
H1342 H 0.65572 0.59137 0.27446 0.0
H1343 H 0.69591 0.62626 0.32271 0.0
H1344 H 0.75011 0.70702 0.29193 0.0
H1345 H 0.73714 0.6745 0.29915 0.0
C1346 C 0.85035 0.46475 0.77233 0.0
C1347 C 0.84936 0.47734 0.78931 0.0
C1348 C 0.8388 0.44649 0.76857 0.0
C1349 C 0.80971 0.40951 0.79234 0.0
H1350 H 0.78808 0.39067 0.73962 0.0
C1351 C 0.77486 0.32966 0.76806 0.0
C1352 C 0.7592 0.32574 0.7543 0.0
C1353 C 0.78467 0.34862 0.77318 0.0
C1354 C 0.79382 0.3958 0.75446 0.0
H1355 H 0.83549 0.48048 0.81573 0.0
H1356 H 0.81524 0.44875 0.80904 0.0
H1357 H 0.80761 0.42279 0.74677 0.0
H1358 H 0.74118 0.33878 0.73565 0.0
H1359 H 0.75821 0.37198 0.74483 0.0
H1360 H 0.79569 0.38262 0.80008 0.0
C1361 C 0.82512 0.4529 0.79875 0.0
C1362 C 0.80524 0.41411 0.75851 0.0
C1363 C 0.8367 0.47114 0.80255 0.0
C1364 C 0.75324 0.3413 0.74623 0.0
C1365 C 0.76306 0.3603 0.75139 0.0
C1366 C 0.79826 0.39121 0.78829 0.0
C1367 C 0.82595 0.4404 0.78166 0.0
C1368 C 0.81344 0.42112 0.77747 0.0
C1369 C 0.77905 0.36414 0.76473 0.0
C1370 C 0.7903 0.38407 0.76928 0.0
H1371 H 0.85999 0.46899 0.76185 0.0
H1372 H 0.84004 0.43709 0.75543 0.0
H1373 H 0.81591 0.41439 0.80707 0.0
H1374 H 0.77985 0.31802 0.77457 0.0
H1375 H 0.79704 0.35099 0.78332 0.0
C1376 C 0.98137 0.80259 0.07662 0.0
C1377 C -0.00666 0.80311 0.0935 0.0
C1378 C 0.98491 0.81677 0.06425 0.0
C1379 C 0.02062 0.85749 0.05328 0.0
H1380 H 0.97743 0.87967 0.03852 0.0
C1381 C 0.00459 0.93603 0.03697 0.0
C1382 C 0.01918 0.94166 0.02562 0.0
C1383 C 0.00024 0.91681 0.04077 0.0
C1384 C 0.98962 0.87362 0.04249 0.0
H1385 H 0.01897 0.81838 0.11004 0.0
H1386 H 0.02495 0.8433 0.0887 0.0
H1387 H 0.97336 0.85011 0.05392 0.0
H1388 H 0.03975 0.93124 0.00816 0.0
H1389 H 0.03194 0.89761 0.01457 0.0
H1390 H 0.03698 0.88167 0.04292 0.0
C1391 C 0.01294 0.83179 0.08485 0.0
C1392 C 0.98729 0.85652 0.05111 0.0
C1393 C 0.00946 0.81753 0.09717 0.0
C1394 C 0.02853 0.92741 0.01713 0.0
C1395 C 0.02415 0.90816 0.02089 0.0
C1396 C 0.02296 0.87463 0.04472 0.0
C1397 C 0.00045 0.83186 0.06852 0.0
C1398 C 0.0028 0.84851 0.05704 0.0
C1399 C 0.01033 0.90277 0.03322 0.0
C1400 C 0.00753 0.88316 0.03967 0.0
H1401 H 0.96894 0.79153 0.07321 0.0
H1402 H 0.97522 0.81618 0.05158 0.0
H1403 H 0.03283 0.85154 0.05742 0.0
H1404 H -0.00292 0.94664 0.04371 0.0
H1405 H 0.98963 0.91323 0.05048 0.0
C1406 C 0.93193 0.24231 0.83527 0.0
C1407 C 0.93291 0.23095 0.8505 0.0
C1408 C 0.91472 0.24429 0.82649 0.0
C1409 C 0.87703 0.23697 0.80319 0.0
H1410 H 0.83743 0.24586 0.83535 0.0
C1411 C 0.80251 0.24119 0.77139 0.0
C1412 C 0.79412 0.25578 0.7808 0.0
C1413 C 0.81936 0.2373 0.77943 0.0
C1414 C 0.84838 0.24347 0.82617 0.0
H1415 H 0.9166 0.21265 0.8684 0.0
H1416 H 0.88647 0.21608 0.85301 0.0
H1417 H 0.86702 0.2408 0.85044 0.0
H1418 H 0.79705 0.27803 0.80579 0.0
H1419 H 0.82642 0.27143 0.81956 0.0
H1420 H 0.85854 0.2402 0.77898 0.0
C1421 C 0.89905 0.22362 0.84802 0.0
C1422 C 0.86525 0.24035 0.8348 0.0
C1423 C 0.9163 0.22164 0.85682 0.0
C1424 C 0.80308 0.26662 0.79819 0.0
C1425 C 0.81986 0.26274 0.80619 0.0
C1426 C 0.86014 0.24009 0.79455 0.0
C1427 C 0.89809 0.23493 0.83272 0.0
C1428 C 0.87984 0.23726 0.82343 0.0
C1429 C 0.8281 0.24791 0.79704 0.0
C1430 C 0.84571 0.2436 0.80599 0.0
H1431 H 0.94447 0.24971 0.83009 0.0
H1432 H 0.91445 0.25337 0.81497 0.0
H1433 H 0.88792 0.23438 0.79401 0.0
H1434 H 0.79592 0.23255 0.75801 0.0
H1435 H 0.82533 0.2257 0.7721 0.0
C1436 C 0.4894 0.19995 0.5889 0.0
C1437 C 0.49683 0.21097 0.60676 0.0
C1438 C 0.49599 0.18308 0.58227 0.0
C1439 C 0.51476 0.14375 0.60016 0.0
H1440 H 0.52731 0.13154 0.54752 0.0
C1441 C 0.52788 0.06743 0.57436 0.0
C1442 C 0.51981 0.05922 0.5557 0.0
C1443 C 0.52988 0.08744 0.58011 0.0
C1444 C 0.5237 0.13462 0.56223 0.0
H1445 H 0.51722 0.21309 0.63152 0.0
H1446 H 0.52833 0.18324 0.62013 0.0
H1447 H 0.52094 0.16387 0.55839 0.0
H1448 H 0.50833 0.06553 0.52806 0.0
H1449 H 0.511 0.10017 0.53825 0.0
H1450 H 0.5162 0.11439 0.60386 0.0
C1451 C 0.51756 0.18785 0.61123 0.0
C1452 C 0.52017 0.15318 0.56845 0.0
C1453 C 0.51121 0.20493 0.6177 0.0
C1454 C 0.51476 0.0715 0.5425 0.0
C1455 C 0.51636 0.09145 0.54838 0.0
C1456 C 0.51794 0.12511 0.59388 0.0
C1457 C 0.50991 0.17671 0.59352 0.0
C1458 C 0.51543 0.1578 0.58739 0.0
C1459 C 0.52339 0.09961 0.56749 0.0
C1460 C 0.52218 0.12016 0.57472 0.0
H1461 H 0.47839 0.20428 0.58008 0.0
H1462 H 0.48976 0.17464 0.56865 0.0
H1463 H 0.51092 0.14689 0.61478 0.0
H1464 H 0.53203 0.05827 0.58475 0.0
H1465 H 0.5359 0.09322 0.59472 0.0
C1466 C 0.54955 0.74538 0.35944 0.0
C1467 C 0.53554 0.75524 0.35307 0.0
C1468 C 0.56739 0.74944 0.35332 0.0
C1469 C 0.59144 0.76746 0.31294 0.0
H1470 H 0.63583 0.76756 0.34697 0.0
C1471 C 0.66552 0.77543 0.28623 0.0
C1472 C 0.67653 0.76256 0.2929 0.0
C1473 C 0.64869 0.7772 0.29409 0.0
C1474 C 0.62355 0.76749 0.33726 0.0
H1475 H 0.52948 0.77761 0.33584 0.0
H1476 H 0.5607 0.78468 0.32518 0.0
H1477 H 0.60586 0.76629 0.36041 0.0
H1478 H 0.67842 0.74132 0.3129 0.0
H1479 H 0.64921 0.74425 0.32631 0.0
H1480 H 0.60908 0.76813 0.28969 0.0
C1481 C 0.55778 0.77369 0.33476 0.0
C1482 C 0.6064 0.76678 0.34497 0.0
C1483 C 0.53994 0.7697 0.34097 0.0
C1484 C 0.67035 0.75145 0.30746 0.0
C1485 C 0.65364 0.75324 0.3153 0.0
C1486 C 0.60862 0.76813 0.3052 0.0
C1487 C 0.57162 0.7634 0.34065 0.0
C1488 C 0.59009 0.76635 0.33284 0.0
C1489 C 0.64265 0.7662 0.30881 0.0
C1490 C 0.62479 0.7677 0.31722 0.0
H1491 H 0.54663 0.73418 0.36878 0.0
H1492 H 0.57769 0.74112 0.35796 0.0
H1493 H 0.57909 0.76696 0.30318 0.0
H1494 H 0.66994 0.78422 0.27506 0.0
H1495 H 0.64055 0.78736 0.28884 0.0
C1496 C 0.01102 0.21113 0.42527 0.0
C1497 C -0.00421 0.22043 0.42879 0.0
C1498 C 0.01482 0.19647 0.4361 0.0
C1499 C 0.99071 0.16016 0.46402 0.0
H1500 H 0.04059 0.15125 0.47772 0.0
C1501 C 0.0036 0.09362 0.50111 0.0
C1502 C 0.01672 0.08345 0.49293 0.0
C1503 C 0.002 0.11207 0.49623 0.0
C1504 C 0.02657 0.15352 0.47394 0.0
H1505 H 0.97336 0.22241 0.44731 0.0
H1506 H 0.98018 0.19711 0.46628 0.0
H1507 H 0.0364 0.18076 0.46393 0.0
H1508 H 0.03882 0.08492 0.47367 0.0
H1509 H 0.03592 0.11683 0.46509 0.0
H1510 H 0.98088 0.13275 0.47359 0.0
C1511 C 0.98891 0.20082 0.45486 0.0
C1512 C 0.02418 0.17041 0.46602 0.0
C1513 C 0.98507 0.21541 0.44402 0.0
C1514 C 0.02852 0.09232 0.48021 0.0
C1515 C 0.02697 0.11072 0.4754 0.0
C1516 C -0.00689 0.14329 0.47194 0.0
C1517 C 0.00354 0.19083 0.45072 0.0
C1518 C 0.00622 0.17378 0.46069 0.0
C1519 C 0.01356 0.12073 0.48316 0.0
C1520 C 0.01106 0.13961 0.47669 0.0
H1521 H 0.01956 0.21462 0.41366 0.0
H1522 H 0.02612 0.18898 0.43242 0.0
H1523 H 0.97668 0.16212 0.45981 0.0
H1524 H -0.00566 0.0872 0.511 0.0
H1525 H 0.99164 0.1195 0.50259 0.0
C1526 C 0.55302 0.26105 0.16004 0.0
C1527 C 0.53928 0.25181 0.17063 0.0
C1528 C 0.57172 0.25977 0.1641 0.0
C1529 C 0.60459 0.25253 0.2035 0.0
H1530 H 0.63691 0.24552 0.16248 0.0
C1531 C 0.68307 0.25311 0.22066 0.0
C1532 C 0.69504 0.26392 0.20937 0.0
C1533 C 0.66388 0.24868 0.21529 0.0
C1534 C 0.6281 0.24762 0.17411 0.0
H1535 H 0.53435 0.23367 0.19356 0.0
H1536 H 0.56707 0.23157 0.20072 0.0
H1537 H 0.60357 0.24341 0.15422 0.0
H1538 H 0.69629 0.27811 0.18333 0.0
H1539 H 0.66292 0.27072 0.1742 0.0
H1540 H 0.62912 0.25739 0.22338 0.0
C1541 C 0.56334 0.23985 0.18933 0.0
C1542 C 0.60901 0.24637 0.16937 0.0
C1543 C 0.5446 0.241 0.18516 0.0
C1544 C 0.68748 0.26972 0.19234 0.0
C1545 C 0.66832 0.26536 0.18702 0.0
C1546 C 0.6237 0.25391 0.20825 0.0
C1547 C 0.5771 0.24933 0.17892 0.0
C1548 C 0.5971 0.24909 0.184 0.0
C1549 C 0.65624 0.255 0.19855 0.0
C1550 C 0.63573 0.25176 0.19359 0.0
H1551 H 0.54938 0.26946 0.14872 0.0
H1552 H 0.58204 0.26741 0.15598 0.0
H1553 H 0.59579 0.25491 0.21508 0.0
H1554 H 0.68849 0.24834 0.23383 0.0
H1555 H 0.65501 0.24042 0.22435 0.0
C1556 C 0.48256 0.81729 0.93894 0.0
C1557 C 0.49322 0.80943 0.92506 0.0
C1558 C 0.48851 0.836 0.94885 0.0
C1559 C 0.51797 0.8828 0.94442 0.0
H1560 H 0.50754 0.89517 -0.00219 0.0
C1561 C 0.52379 0.95327 0.0083 0.0
C1562 C 0.51681 0.96618 -0.00306 0.0
C1563 C 0.52449 0.93426 0.00017 0.0
C1564 C 0.51085 0.89199 0.983 0.0
H1565 H 0.51883 0.81506 0.91112 0.0
H1566 H 0.52929 0.84777 0.92859 0.0
H1567 H 0.50252 0.86134 0.98311 0.0
H1568 H 0.50573 0.96944 0.96797 0.0
H1569 H 0.50668 0.93639 0.95398 0.0
H1570 H 0.52627 0.91347 0.94432 0.0
C1571 C 0.51619 0.83945 0.9316 0.0
C1572 C 0.50774 0.87258 0.97448 0.0
C1573 C 0.51023 0.82066 0.92165 0.0
C1574 C 0.51117 0.95988 0.97717 0.0
C1575 C 0.51185 0.94093 0.96907 0.0
C1576 C 0.52112 0.90222 0.95296 0.0
C1577 C 0.50531 0.84739 0.94521 0.0
C1578 C 0.51082 0.86778 0.95495 0.0
C1579 C 0.51824 0.92777 0.98053 0.0
C1580 C 0.51718 0.90709 0.97221 0.0
H1581 H 0.46939 0.80913 0.94199 0.0
H1582 H 0.47962 0.84174 0.95898 0.0
H1583 H 0.52041 0.87966 0.92932 0.0
H1584 H 0.52832 0.95769 0.02357 0.0
H1585 H 0.52971 0.92458 0.00935 0.0
C1586 C 0.93392 0.75935 0.69237 0.0
C1587 C 0.93502 0.76403 0.67335 0.0
C1588 C 0.91728 0.75896 0.70117 0.0
C1589 C 0.8725 0.77707 0.69677 0.0
H1590 H 0.85599 0.73757 0.7293 0.0
C1591 C 0.79658 0.75551 0.7133 0.0
C1592 C 0.79304 0.75205 0.73225 0.0
C1593 C 0.81483 0.75957 0.70834 0.0
C1594 C 0.86058 0.74888 0.72051 0.0
H1595 H 0.91937 0.7715 0.64852 0.0
H1596 H 0.89032 0.77011 0.6635 0.0
H1597 H 0.88594 0.73847 0.71576 0.0
H1598 H 0.80568 0.75065 0.76105 0.0
H1599 H 0.83782 0.75747 0.75223 0.0
H1600 H 0.84676 0.78694 0.70092 0.0
C1601 C 0.9024 0.76727 0.67187 0.0
C1602 C 0.87773 0.7494 0.71273 0.0
C1603 C 0.91904 0.76783 0.66317 0.0
C1604 C 0.80808 0.75338 0.74636 0.0
C1605 C 0.8264 0.75712 0.7413 0.0
C1606 C 0.8553 0.77642 0.70438 0.0
C1607 C 0.90137 0.76314 0.69109 0.0
C1608 C 0.88374 0.76329 0.70047 0.0
C1609 C 0.82991 0.75999 0.72216 0.0
C1610 C 0.84905 0.76213 0.71607 0.0
H1611 H 0.94603 0.75648 0.70066 0.0
H1612 H 0.91705 0.75588 0.71603 0.0
H1613 H 0.87689 0.78829 0.68782 0.0
H1614 H 0.78521 0.75464 0.70216 0.0
H1615 H 0.81711 0.76157 0.69345 0.0
C1616 C 0.11521 0.00106 0.85406 0.0
C1617 C 0.10533 0.00292 0.83653 0.0
C1618 C 0.10651 0.00125 0.87126 0.0
C1619 C 0.06443 0.01339 0.89349 0.0
H1620 H 0.07717 0.97864 0.92964 0.0
C1621 C 0.0235 -0.00251 0.95973 0.0
C1622 C 0.03465 0.00016 0.97747 0.0
C1623 C 0.03171 -0.00268 0.9422 0.0
C1624 C 0.07354 0.98844 0.91968 0.0
H1625 H 0.07862 0.00668 0.82331 0.0
H1626 H 0.06328 0.0064 0.85314 0.0
H1627 H 0.09245 0.97999 0.89975 0.0
H1628 H 0.06298 0.00394 0.99079 0.0
H1629 H 0.07725 0.00326 0.96019 0.0
H1630 H 0.04517 0.02142 0.91339 0.0
C1631 C 0.07788 0.00527 0.85377 0.0
C1632 C 0.08237 0.98935 0.90262 0.0
C1633 C 0.08667 0.00535 0.83662 0.0
C1634 C 0.05406 0.00202 0.97735 0.0
C1635 C 0.06222 0.00152 0.95985 0.0
C1636 C 0.05541 0.01226 0.91044 0.0
C1637 C 0.08763 0.003 0.87128 0.0
C1638 C 0.07806 0.00196 0.88937 0.0
C1639 C 0.05115 -0.00058 0.94214 0.0
C1640 C 0.06 -0.00011 0.92374 0.0
H1641 H 0.12961 -0.0008 0.85452 0.0
H1642 H 0.1146 -9e-05 0.88454 0.0
H1643 H 0.06094 0.02347 0.88379 0.0
H1644 H 0.0085 -0.00395 0.9594 0.0
H1645 H 0.02289 -0.00445 0.9287 0.0
C1646 C 0.77172 0.31968 0.55134 0.0
C1647 C 0.75922 0.33187 0.54638 0.0
C1648 C 0.76818 0.30769 0.56574 0.0
C1649 C 0.73231 0.28552 0.59483 0.0
H1650 H 0.77348 0.29228 0.63483 0.0
C1651 C 0.72264 0.26854 0.67258 0.0
C1652 C 0.73732 0.26312 0.6836 0.0
C1653 C 0.72473 0.27288 0.65373 0.0
C1654 C 0.76195 0.28978 0.62364 0.0
H1655 H 0.73265 0.34016 0.55196 0.0
H1656 H 0.7265 0.31914 0.57722 0.0
H1657 H 0.77783 0.30729 0.60545 0.0
H1658 H 0.76521 0.25662 0.68303 0.0
H1659 H 0.76869 0.26363 0.64984 0.0
H1660 H 0.71636 0.26808 0.61311 0.0
C1661 C 0.73903 0.31893 0.56987 0.0
C1662 C 0.76444 0.29849 0.60681 0.0
C1663 C 0.74261 0.33104 0.55549 0.0
C1664 C 0.75374 0.26099 0.67497 0.0
C1665 C 0.75575 0.26512 0.65599 0.0
C1666 C 0.72986 0.27659 0.61161 0.0
C1667 C 0.75203 0.30752 0.57545 0.0
C1668 C 0.74957 0.29674 0.59239 0.0
C1669 C 0.74147 0.27168 0.64535 0.0
C1670 C 0.74456 0.27895 0.62641 0.0
H1671 H 0.78457 0.31975 0.54451 0.0
H1672 H 0.77831 0.29884 0.56957 0.0
H1673 H 0.72069 0.28377 0.58382 0.0
H1674 H 0.70977 0.2703 0.67877 0.0
H1675 H 0.71351 0.27809 0.64614 0.0
C1676 C 0.4338 0.0144 0.325 0.0
C1677 C 0.42056 0.02673 0.32502 0.0
C1678 C 0.44379 0.01239 0.34225 0.0
C1679 C 0.45945 0.03625 0.39178 0.0
H1680 H 0.46317 0.98402 0.40233 0.0
C1681 C 0.47745 0.99507 0.46083 0.0
C1682 C 0.49493 0.00577 0.46866 0.0
C1683 C 0.46967 -0.00208 0.44278 0.0
C1684 C 0.46228 -0.00131 0.39955 0.0
H1685 H 0.40756 0.04681 0.34311 0.0
H1686 H 0.4251 0.04325 0.37341 0.0
H1687 H 0.44658 0.98867 0.37205 0.0
H1688 H 0.51801 0.02784 0.4637 0.0
H1689 H 0.50415 0.03302 0.43195 0.0
H1690 H 0.475 0.04619 0.41951 0.0
C1691 C 0.42774 0.03522 0.35996 0.0
C1692 C 0.45289 0.00136 0.38219 0.0
C1693 C 0.4176 0.03712 0.34267 0.0
C1694 C 0.50454 0.01935 0.45797 0.0
C1695 C 0.49659 0.0224 0.43992 0.0
C1696 C 0.46903 0.03358 0.40911 0.0
C1697 C 0.44087 0.02276 0.3599 0.0
C1698 C 0.45123 0.02014 0.3782 0.0
C1699 C 0.47908 0.01166 0.43218 0.0
C1700 C 0.47033 0.01475 0.41323 0.0
H1701 H 0.43646 0.00623 0.31163 0.0
H1702 H 0.45395 0.00282 0.34174 0.0
H1703 H 0.45851 0.0509 0.38897 0.0
H1704 H 0.4697 0.98445 0.46867 0.0
H1705 H 0.45607 0.98959 0.43725 0.0
C1706 C 0.76462 0.65007 0.05552 0.0
C1707 C 0.77909 0.66075 0.04682 0.0
C1708 C 0.75935 0.65745 0.0734 0.0
C1709 C 0.75891 0.70194 0.10591 0.0
H1710 H 0.75974 0.66951 0.14718 0.0
C1711 C 0.75571 0.73203 0.18637 0.0
C1712 C 0.7486 0.7192 0.19916 0.0
C1713 C 0.75722 0.72512 0.16698 0.0
C1714 C 0.75897 0.67867 0.1358 0.0
H1715 H 0.79895 0.68782 0.04984 0.0
H1716 H 0.78936 0.7009 0.08093 0.0
H1717 H 0.76639 0.65716 0.11484 0.0
H1718 H 0.73637 0.6894 0.20144 0.0
H1719 H 0.73789 0.6775 0.16741 0.0
H1720 H 0.75106 0.72332 0.12659 0.0
C1721 C 0.78228 0.68675 0.07391 0.0
C1722 C 0.76295 0.67158 0.11726 0.0
C1723 C 0.78781 0.67921 0.05618 0.0
C1724 C 0.74201 0.69958 0.19192 0.0
C1725 C 0.74312 0.69274 0.17243 0.0
C1726 C 0.75456 0.70893 0.12438 0.0
C1727 C 0.76816 0.67582 0.0828 0.0
C1728 C 0.76315 0.6832 0.10219 0.0
C1729 C 0.75132 0.70527 0.1598 0.0
C1730 C 0.75472 0.69747 0.13969 0.0
H1731 H 0.75764 0.63579 0.04873 0.0
H1732 H 0.74838 0.64878 0.07992 0.0
H1733 H 0.75882 0.71112 0.09446 0.0
H1734 H 0.76112 0.7472 0.19161 0.0
H1735 H 0.76383 0.73525 0.15793 0.0
C1736 C 0.11371 0.01103 0.71847 0.0
C1737 C 0.10612 0.99366 0.72536 0.0
C1738 C 0.10821 0.01448 0.69973 0.0
C1739 C 0.07033 -0.0014 0.66 0.0
H1740 H 0.10702 0.02158 0.62794 0.0
C1741 C 0.04867 0.01224 0.58262 0.0
C1742 C 0.05978 0.00604 0.56835 0.0
C1743 C 0.05491 0.01406 0.60231 0.0
C1744 C 0.09661 0.01513 0.63671 0.0
H1745 H 0.087 0.96617 0.71789 0.0
H1746 H 0.07767 0.97203 0.68514 0.0
H1747 H 0.11667 0.01715 0.66115 0.0
H1748 H 0.08656 -0.00208 0.56351 0.0
H1749 H 0.09727 0.00074 0.59776 0.0
H1750 H 0.05043 -0.00422 0.63537 0.0
C1751 C 0.08759 0.98317 0.69433 0.0
C1752 C 0.10211 0.01277 0.6558 0.0
C1753 C 0.09305 0.97975 0.71307 0.0
C1754 C 0.07764 0.0027 0.57414 0.0
C1755 C 0.08383 0.00443 0.59381 0.0
C1756 C 0.06486 0.00091 0.64091 0.0
C1757 C 0.09502 0.00062 0.68748 0.0
C1758 C 0.08907 0.00421 0.66757 0.0
C1759 C 0.07235 0.00965 0.60814 0.0
C1760 C 0.07797 0.00897 0.62895 0.0
H1761 H 0.12377 0.02208 0.72761 0.0
H1762 H 0.11406 0.02815 0.69497 0.0
H1763 H 0.05988 0.99225 0.66877 0.0
H1764 H 0.0349 0.0151 0.57862 0.0
H1765 H 0.04587 0.01849 0.61298 0.0
C1766 C 0.73614 0.34152 0.44537 0.0
C1767 C 0.75277 0.33856 0.45506 0.0
C1768 C 0.72962 0.33124 0.427 0.0
C1769 C 0.73638 0.28915 0.39194 0.0
H1770 H 0.72355 0.32099 0.35298 0.0
C1771 C 0.7441 0.29305 0.30649 0.0
C1772 C 0.73788 0.27355 0.29841 0.0
C1773 C 0.74123 0.29939 0.32556 0.0
C1774 C 0.72703 0.31187 0.36369 0.0
H1775 H 0.77509 0.32178 0.45337 0.0
H1776 H 0.76397 0.30429 0.42154 0.0
H1777 H 0.72711 0.33438 0.38717 0.0
H1778 H 0.7233 0.24549 0.30394 0.0
H1779 H 0.71824 0.25664 0.33747 0.0
H1780 H 0.73748 0.26708 0.36837 0.0
C1781 C 0.75578 0.31432 0.42809 0.0
C1782 C 0.72885 0.31946 0.38333 0.0
C1783 C 0.76228 0.32456 0.44633 0.0
C1784 C 0.72831 0.2606 0.30976 0.0
C1785 C 0.72547 0.26696 0.32897 0.0
C1786 C 0.73462 0.28158 0.37229 0.0
C1787 C 0.73956 0.31774 0.41803 0.0
C1788 C 0.73419 0.30844 0.39765 0.0
C1789 C 0.73203 0.28642 0.33712 0.0
C1790 C 0.73058 0.2931 0.35792 0.0
H1791 H 0.72841 0.35212 0.45172 0.0
H1792 H 0.71698 0.33408 0.41969 0.0
H1793 H 0.74018 0.28015 0.40264 0.0
H1794 H 0.75146 0.30346 0.29815 0.0
H1795 H 0.74678 0.31437 0.33144 0.0
C1796 C 0.40216 0.00768 0.20684 0.0
C1797 C 0.40402 -0.00324 0.22231 0.0
C1798 C 0.4111 0.00405 0.19008 0.0
C1799 C 0.42634 0.98816 0.153 0.0
H1800 H 0.47873 0.98595 0.16351 0.0
C1801 C 0.47422 0.98258 0.09151 0.0
C1802 C 0.49059 -0.00326 0.09418 0.0
C1803 C 0.46362 0.97905 0.10702 0.0
C1804 C 0.46412 0.98646 0.16036 0.0
H1805 H 0.41571 0.97264 0.23178 0.0
H1806 H 0.43131 0.9664 0.20254 0.0
H1807 H 0.45875 0.98609 0.19013 0.0
H1808 H 0.50928 0.01738 0.11547 0.0
H1809 H 0.49078 0.01111 0.1426 0.0
H1810 H 0.43183 0.98914 0.12333 0.0
C1811 C 0.42312 0.97789 0.20351 0.0
C1812 C 0.45264 0.98637 0.17554 0.0
C1813 C 0.41409 0.98142 0.2202 0.0
C1814 C 0.49672 0.00643 0.11293 0.0
C1815 C 0.48616 0.00279 0.12848 0.0
C1816 C 0.43778 0.98808 0.13779 0.0
C1817 C 0.42213 0.9895 0.18852 0.0
C1818 C 0.43371 0.98755 0.17206 0.0
C1819 C 0.46924 0.98946 0.12554 0.0
C1820 C 0.45685 0.98757 0.14138 0.0
H1821 H 0.39446 0.01956 0.208 0.0
H1822 H 0.41016 0.01329 0.17878 0.0
H1823 H 0.41179 0.98898 0.1499 0.0
H1824 H 0.46914 0.97475 0.07727 0.0
H1825 H 0.45077 0.9685 0.10441 0.0
C1826 C 0.76262 0.66634 0.94191 0.0
C1827 C 0.77945 0.67164 0.95396 0.0
C1828 C 0.75893 0.67676 0.92659 0.0
C1829 C 0.78337 0.7091 0.89464 0.0
H1830 H 0.73326 0.7153 0.87786 0.0
C1831 C 0.76703 0.74917 0.82895 0.0
C1832 C 0.75193 0.73954 0.81574 0.0
C1833 C 0.77026 0.74276 0.84699 0.0
C1834 C 0.74733 0.71361 0.88233 0.0
H1835 H 0.80518 0.69274 0.95984 0.0
H1836 H 0.79854 0.71114 0.93341 0.0
H1837 H 0.73894 0.70127 0.90768 0.0
H1838 H 0.72821 0.71581 0.8113 0.0
H1839 H 0.73382 0.70472 0.84268 0.0
H1840 H 0.7917 0.72138 0.8692 0.0
C1841 C 0.78839 0.69862 0.93551 0.0
C1842 C 0.75059 0.70553 0.89941 0.0
C1843 C 0.79214 0.68812 0.95077 0.0
C1844 C 0.73999 0.72356 0.8211 0.0
C1845 C 0.74312 0.71727 0.83916 0.0
C1846 C 0.78012 0.7173 0.87763 0.0
C1847 C 0.7719 0.69285 0.92298 0.0
C1848 C 0.76861 0.70289 0.90565 0.0
C1849 C 0.75835 0.72671 0.85228 0.0
C1850 C 0.76202 0.71938 0.87112 0.0
H1851 H 0.75253 0.65371 0.94386 0.0
H1852 H 0.74618 0.67172 0.91714 0.0
H1853 H 0.79739 0.70704 0.89878 0.0
H1854 H 0.77648 0.76154 0.82529 0.0
H1855 H 0.78203 0.75042 0.85685 0.0
C1856 C 0.8139 0.07301 0.01405 0.0
C1857 C 0.81467 0.08956 0.00441 0.0
C1858 C 0.82855 0.06259 0.01396 0.0
C1859 C 0.86775 0.05321 0.98614 0.0
H1860 H 0.88523 0.03388 0.03274 0.0
C1861 C 0.93647 0.02362 0.99398 0.0
C1862 C 0.93736 0.00846 0.00531 0.0
C1863 C 0.92042 0.03182 0.99237 0.0
C1864 C 0.88031 0.03887 0.0195 0.0
H1865 H 0.83159 0.1084 0.98744 0.0
H1866 H 0.85727 0.09032 0.98748 0.0
H1867 H 0.85994 0.05237 0.03375 0.0
H1868 H 0.92163 0.98917 0.0228 0.0
H1869 H 0.89349 0.00328 0.0197 0.0
H1870 H 0.88819 0.0398 0.97191 0.0
C1871 C 0.84521 0.08527 -0.00511 0.0
C1872 C 0.86586 0.04955 0.02011 0.0
C1873 C 0.83058 0.09573 -0.00497 0.0
C1874 C 0.92145 0.00092 0.01406 0.0
C1875 C 0.90538 0.00911 0.01242 0.0
C1876 C 0.88218 0.04249 0.98551 0.0
C1877 C 0.84427 0.06847 0.00419 0.0
C1878 C 0.8595 0.05695 0.00348 0.0
C1879 C 0.90486 0.02501 0.002 0.0
C1880 C 0.88871 0.0353 0.00222 0.0
H1881 H 0.80181 0.06784 0.02137 0.0
H1882 H 0.82733 0.04963 0.02112 0.0
H1883 H 0.86294 0.05843 0.97298 0.0
H1884 H 0.94847 0.02978 0.98703 0.0
H1885 H 0.92056 0.04412 0.98433 0.0
C1886 C 0.31638 0.436 0.02977 0.0
C1887 C 0.31408 0.42021 0.04056 0.0
C1888 C 0.33417 0.44624 0.02798 0.0
C1889 C 0.38253 0.4566 0.05102 0.0
H1890 H 0.39514 0.46966 0.00045 0.0
C1891 C 0.45426 0.50116 0.03862 0.0
C1892 C 0.46268 0.49311 0.02285 0.0
C1893 C 0.43562 0.49399 0.04114 0.0
C1894 C 0.39181 0.46614 0.01467 0.0
H1895 H 0.32866 0.40285 0.05801 0.0
H1896 H 0.35971 0.42062 0.05474 0.0
H1897 H 0.3637 0.45324 0.00421 0.0
H1898 H 0.458 0.47156 -0.00284 0.0
H1899 H 0.42574 0.45924 0.00154 0.0
H1900 H 0.41083 0.46909 0.06135 0.0
C1901 C 0.34774 0.42518 0.0478 0.0
C1902 C 0.37377 0.45687 0.01686 0.0
C1903 C 0.32995 0.41487 0.04951 0.0
C1904 C 0.45199 0.47807 0.0095 0.0
C1905 C 0.43342 0.47108 0.01192 0.0
C1906 C 0.40057 0.46598 0.04886 0.0
C1907 C 0.35005 0.44099 0.03704 0.0
C1908 C 0.36898 0.45175 0.03499 0.0
C1909 C 0.42504 0.47884 0.02782 0.0
C1910 C 0.40548 0.47058 0.03059 0.0
H1911 H 0.30443 0.44053 0.02276 0.0
H1912 H 0.33548 0.45845 0.01972 0.0
H1913 H 0.37919 0.45305 0.06523 0.0
H1914 H 0.46214 0.51274 0.04915 0.0
H1915 H 0.42947 0.50032 0.05348 0.0
C1916 C 0.32699 0.56724 0.77793 0.0
C1917 C 0.3394 0.56072 0.76523 0.0
C1918 C 0.31583 0.58038 0.77269 0.0
C1919 C 0.31452 0.61841 0.74116 0.0
H1920 H 0.26428 0.61659 0.75623 0.0
C1921 C 0.2729 0.67715 0.724 0.0
C1922 C 0.26431 0.68537 0.73952 0.0
C1923 C 0.27946 0.65978 0.72499 0.0
C1924 C 0.27832 0.61731 0.752 0.0
H1925 H 0.34931 0.56246 0.73674 0.0
H1926 H 0.32968 0.58535 0.72755 0.0
H1927 H 0.28075 0.58991 0.76154 0.0
H1928 H 0.25494 0.68133 0.76784 0.0
H1929 H 0.26668 0.65099 0.76972 0.0
H1930 H 0.31233 0.64593 0.73201 0.0
C1931 C 0.32881 0.58044 0.74169 0.0
C1932 C 0.28774 0.60205 0.75503 0.0
C1933 C 0.34001 0.56727 0.74693 0.0
C1934 C 0.26151 0.67532 0.75565 0.0
C1935 C 0.26818 0.65792 0.75669 0.0
C1936 C 0.30511 0.63361 0.73812 0.0
C1937 C 0.31677 0.58732 0.75462 0.0
C1938 C 0.30605 0.60256 0.74987 0.0
C1939 C 0.27768 0.65027 0.74158 0.0
C1940 C 0.28698 0.63335 0.74368 0.0
H1941 H 0.32609 0.56249 0.79213 0.0
H1942 H 0.30691 0.58558 0.7831 0.0
H1943 H 0.32872 0.61945 0.73735 0.0
H1944 H 0.27503 0.68442 0.71123 0.0
H1945 H 0.28635 0.65404 0.71293 0.0
C1946 C 0.21144 0.59138 0.52213 0.0
C1947 C 0.21862 0.608 0.5138 0.0
C1948 C 0.19266 0.58749 0.5255 0.0
C1949 C 0.14712 0.59967 0.50962 0.0
H1950 H 0.13067 0.5736 0.55309 0.0
C1951 C 0.06986 0.58349 0.52217 0.0
C1952 C 0.06296 0.56389 0.52379 0.0
C1953 C 0.08901 0.59054 0.52411 0.0
C1954 C 0.1351 0.58088 0.5409 0.0
H1955 H 0.21191 0.63397 0.50311 0.0
H1956 H 0.17928 0.62753 0.5095 0.0
H1957 H 0.16399 0.58316 0.55029 0.0
H1958 H 0.07072 0.53668 0.53011 0.0
H1959 H 0.10423 0.54909 0.53363 0.0
H1960 H 0.11825 0.59741 0.50026 0.0
C1961 C 0.188 0.61716 0.51294 0.0
C1962 C 0.15416 0.58628 0.53921 0.0
C1963 C 0.20674 0.62092 0.50935 0.0
C1964 C 0.07559 0.55184 0.52872 0.0
C1965 C 0.09478 0.55895 0.53079 0.0
C1966 C 0.12811 0.59447 0.51142 0.0
C1967 C 0.18065 0.60026 0.52083 0.0
C1968 C 0.16042 0.59556 0.52341 0.0
C1969 C 0.10167 0.57819 0.52786 0.0
C1970 C 0.12189 0.58486 0.52696 0.0
H1971 H 0.22023 0.5811 0.52567 0.0
H1972 H 0.18748 0.57419 0.53129 0.0
H1973 H 0.15133 0.6064 0.49704 0.0
H1974 H 0.06052 0.59322 0.51853 0.0
H1975 H 0.09394 0.60552 0.52208 0.0
C1976 C 0.68108 0.95143 0.76781 0.0
C1977 C 0.67655 0.95756 0.78652 0.0
C1978 C 0.69474 0.93987 0.7653 0.0
C1979 C 0.73226 0.92081 0.79286 0.0
H1980 H 0.72127 0.87845 0.75048 0.0
C1981 C 0.75258 0.84527 0.7931 0.0
C1982 C 0.75832 0.83647 0.77595 0.0
C1983 C 0.74767 0.86366 0.79383 0.0
C1984 C 0.72474 0.89042 0.76218 0.0
H1985 H 0.68283 0.95646 0.81726 0.0
H1986 H 0.70584 0.93569 0.81291 0.0
H1987 H 0.70219 0.90358 0.75236 0.0
H1988 H 0.76462 0.84054 0.74656 0.0
H1989 H 0.75558 0.87251 0.74776 0.0
H1990 H 0.754 0.90658 0.80334 0.0
C1991 C 0.69946 0.94029 0.80014 0.0
C1992 C 0.71383 0.90491 0.76325 0.0
C1993 C 0.68608 0.95209 0.80265 0.0
C1994 C 0.76028 0.84696 0.76 0.0
C1995 C 0.75504 0.8652 0.76062 0.0
C1996 C 0.74296 0.9061 0.79196 0.0
C1997 C 0.70392 0.9339 0.78144 0.0
C1998 C 0.71713 0.92004 0.77888 0.0
C1999 C 0.74813 0.87341 0.77733 0.0
C2000 C 0.73903 0.89059 0.77682 0.0
H2001 H 0.67411 0.9556 0.75511 0.0
H2002 H 0.698 0.93552 0.7507 0.0
H2003 H 0.73556 0.9325 0.80483 0.0
H2004 H 0.751 0.83754 0.80562 0.0
H2005 H 0.74228 0.86964 0.80685 0.0
C2006 C 0.71415 0.93356 0.54295 0.0
C2007 C 0.71728 0.91505 0.5355 0.0
C2008 C 0.6974 0.93956 0.5379 0.0
C2009 C 0.64839 0.92021 0.51961 0.0
H2010 H 0.64739 0.97439 0.51458 0.0
C2011 C 0.58216 0.95233 0.52758 0.0
C2012 C 0.57804 0.96623 0.51576 0.0
C2013 C 0.5991 0.94582 0.52734 0.0
C2014 C 0.64741 0.95916 0.51565 0.0
H2015 H 0.70531 0.88842 0.51664 0.0
H2016 H 0.67609 0.89898 0.50763 0.0
H2017 H 0.67722 0.96349 0.51845 0.0
H2018 H 0.5886 0.98422 0.49434 0.0
H2019 H 0.61842 0.97269 0.49381 0.0
H2020 H 0.61862 0.91583 0.51669 0.0
C2021 C 0.68652 0.90876 0.51762 0.0
C2022 C 0.66452 0.95295 0.51813 0.0
C2023 C 0.70329 0.90271 0.52274 0.0
C2024 C 0.59137 0.97351 0.50364 0.0
C2025 C 0.60845 0.96695 0.50338 0.0
C2026 C 0.63131 0.92641 0.51706 0.0
C2027 C 0.68335 0.92725 0.52519 0.0
C2028 C 0.66522 0.93348 0.52057 0.0
C2029 C 0.61245 0.95296 0.51521 0.0
C2030 C 0.6306 0.94604 0.51553 0.0
H2031 H 0.7246 0.94342 0.55285 0.0
H2032 H 0.69535 0.95372 0.54433 0.0
H2033 H 0.64834 0.90515 0.52153 0.0
H2034 H 0.57231 0.94646 0.53722 0.0
H2035 H 0.60185 0.93539 0.53696 0.0
C2036 C 0.31978 0.46767 0.76784 0.0
C2037 C 0.3383 0.47051 0.76315 0.0
C2038 C 0.30816 0.44961 0.76276 0.0
C2039 C 0.3051 0.40012 0.73465 0.0
H2040 H 0.27315 0.38464 0.77432 0.0
C2041 C 0.28118 0.32122 0.74911 0.0
C2042 C 0.26233 0.31523 0.75191 0.0
C2043 C 0.288 0.34048 0.74682 0.0
C2044 C 0.28175 0.38886 0.76296 0.0
H2045 H 0.35909 0.45701 0.74894 0.0
H2046 H 0.33918 0.42511 0.74091 0.0
H2047 H 0.28992 0.41789 0.7772 0.0
H2048 H 0.2358 0.32472 0.75429 0.0
H2049 H 0.24799 0.35879 0.75096 0.0
H2050 H 0.29775 0.37045 0.72127 0.0
C2051 C 0.33331 0.43692 0.74795 0.0
C2052 C 0.29136 0.40798 0.76452 0.0
C2053 C 0.34481 0.45518 0.75263 0.0
C2054 C 0.25036 0.3289 0.75207 0.0
C2055 C 0.25731 0.34834 0.7502 0.0
C2056 C 0.29574 0.38088 0.73331 0.0
C2057 C 0.31493 0.43377 0.75334 0.0
C2058 C 0.3034 0.41384 0.75055 0.0
C2059 C 0.27622 0.35429 0.74768 0.0
C2060 C 0.2842 0.37505 0.7476 0.0
H2061 H 0.31435 0.47938 0.7757 0.0
H2062 H 0.29396 0.44801 0.76663 0.0
H2063 H 0.31389 0.40412 0.72339 0.0
H2064 H 0.29077 0.31108 0.74895 0.0
H2065 H 0.30268 0.34476 0.74515 0.0
C2066 C 0.17879 0.55139 0.28681 0.0
C2067 C 0.16066 0.54279 0.27903 0.0
C2068 C 0.18637 0.5702 0.28358 0.0
C2069 C 0.17776 0.61103 0.2558 0.0
H2070 H 0.2085 0.64216 0.29994 0.0
C2071 C 0.19043 0.69541 0.27331 0.0
C2072 C 0.20912 0.70464 0.27762 0.0
C2073 C 0.18577 0.67511 0.27041 0.0
C2074 C 0.2001 0.63357 0.28743 0.0
H2075 H 0.13634 0.54673 0.26136 0.0
H2076 H 0.14906 0.58 0.25659 0.0
H2077 H 0.19806 0.60764 0.30073 0.0
H2078 H 0.23762 0.69996 0.28182 0.0
H2079 H 0.22933 0.66442 0.2774 0.0
H2080 H 0.17899 0.63765 0.24324 0.0
C2081 C 0.15781 0.5721 0.26461 0.0
C2082 C 0.19419 0.6137 0.28776 0.0
C2083 C 0.15043 0.55304 0.2674 0.0
C2084 C 0.2231 0.69323 0.27851 0.0
C2085 C 0.21839 0.67294 0.27601 0.0
C2086 C 0.18336 0.63105 0.25569 0.0
C2087 C 0.17576 0.58111 0.27302 0.0
C2088 C 0.18287 0.60211 0.27199 0.0
C2089 C 0.19968 0.66375 0.27215 0.0
C2090 C 0.19453 0.64245 0.27154 0.0
H2091 H 0.18704 0.54364 0.29564 0.0
H2092 H 0.20045 0.57629 0.28976 0.0
H2093 H 0.16936 0.60262 0.24324 0.0
H2094 H 0.1794 0.70387 0.27243 0.0
H2095 H 0.17123 0.66829 0.26757 0.0
C2096 C 0.47713 0.68422 0.43769 0.0
C2097 C 0.48694 0.69076 0.42236 0.0
C2098 C 0.48435 0.67219 0.44978 0.0
C2099 C 0.51288 0.63491 0.44697 0.0
H2100 H 0.51109 0.63773 0.50273 0.0
C2101 C 0.52943 0.5715 0.48454 0.0
C2102 C 0.51741 0.56546 0.49829 0.0
C2103 C 0.5303 0.58997 0.47879 0.0
C2104 C 0.51159 0.63664 0.48715 0.0
H2105 H 0.51253 0.69056 0.40841 0.0
H2106 H 0.52492 0.66938 0.42934 0.0
H2107 H 0.50331 0.66439 0.48593 0.0
H2108 H 0.49752 0.57404 0.51758 0.0
H2109 H 0.49823 0.60594 0.50694 0.0
H2110 H 0.51989 0.60685 0.44764 0.0
C2111 C 0.51163 0.67355 0.43194 0.0
C2112 C 0.5072 0.65197 0.47757 0.0
C2113 C 0.50452 0.68573 0.41999 0.0
C2114 C 0.50712 0.57856 0.50715 0.0
C2115 C 0.50756 0.59687 0.501 0.0
C2116 C 0.51695 0.61952 0.45644 0.0
C2117 C 0.50143 0.66631 0.44667 0.0
C2118 C 0.50764 0.65113 0.45735 0.0
C2119 C 0.51859 0.60249 0.48612 0.0
C2120 C 0.51619 0.62001 0.47664 0.0
H2121 H 0.4636 0.68791 0.44002 0.0
H2122 H 0.47613 0.66671 0.46095 0.0
H2123 H 0.51301 0.63369 0.43133 0.0
H2124 H 0.53749 0.56157 0.47754 0.0
H2125 H 0.53946 0.59398 0.46783 0.0
C2126 C 0.56386 0.28451 0.67562 0.0
C2127 C 0.55366 0.26572 0.66933 0.0
C2128 C 0.58179 0.28697 0.68514 0.0
C2129 C 0.62176 0.26267 0.69073 0.0
H2130 H 0.63243 0.29179 0.74237 0.0
C2131 C 0.68257 0.25133 0.74068 0.0
C2132 C 0.69401 0.26764 0.75153 0.0
C2133 C 0.6656 0.25298 0.73128 0.0
C2134 C 0.62978 0.28388 0.72785 0.0
H2135 H 0.55434 0.23486 0.66749 0.0
H2136 H 0.58573 0.23918 0.68364 0.0
H2137 H 0.60288 0.29187 0.72337 0.0
H2138 H 0.69646 0.2983 0.76183 0.0
H2139 H 0.6666 0.30136 0.74499 0.0
H2140 H 0.64845 0.25461 0.69496 0.0
C2141 C 0.57984 0.25197 0.68137 0.0
C2142 C 0.6129 0.28393 0.71701 0.0
C2143 C 0.56186 0.24951 0.67221 0.0
C2144 C 0.68777 0.2855 0.75363 0.0
C2145 C 0.67075 0.28723 0.74396 0.0
C2146 C 0.63863 0.26276 0.70143 0.0
C2147 C 0.58988 0.27069 0.68811 0.0
C2148 C 0.60859 0.2729 0.69857 0.0
C2149 C 0.65976 0.27107 0.73222 0.0
C2150 C 0.6426 0.27286 0.72034 0.0
H2151 H 0.5578 0.29726 0.67367 0.0
H2152 H 0.58933 0.30154 0.69016 0.0
H2153 H 0.61887 0.25431 0.67642 0.0
H2154 H 0.68698 0.23732 0.73906 0.0
H2155 H 0.6572 0.24011 0.7229 0.0
C2156 C 0.95951 0.28979 0.92652 0.0
C2157 C 0.97327 0.28131 0.91743 0.0
C2158 C 0.96333 0.30923 0.93498 0.0
C2159 C -0.00395 0.35529 0.9337 0.0
H2160 H 0.97452 0.37227 0.98059 0.0
C2161 C 0.00446 0.42833 0.99346 0.0
C2162 C 0.00669 0.44237 0.98062 0.0
C2163 C -0.00083 0.40856 0.98627 0.0
C2164 C 0.98076 0.36776 0.96757 0.0
H2165 H 0.00203 0.28648 0.91064 0.0
H2166 H 0.00883 0.32019 0.92581 0.0
H2167 H 0.96885 0.33781 0.96774 0.0
H2168 H 0.00395 0.44695 0.95038 0.0
H2169 H -0.00588 0.41269 0.9379 0.0
H2170 H 0.00853 0.38502 0.93385 0.0
C2171 C -0.00508 0.31199 0.92597 0.0
C2172 C 0.97733 0.34801 0.96007 0.0
C2173 C 0.99105 0.2926 0.91735 0.0
C2174 C 0.00259 0.43641 0.9606 0.0
C2175 C -0.0029 0.41675 0.95345 0.0
C2176 C -0.00041 0.37495 0.94126 0.0
C2177 C 0.98105 0.32062 0.93471 0.0
C2178 C 0.98491 0.34154 0.943 0.0
C2179 C -0.00417 0.40251 0.96613 0.0
C2180 C 0.99191 0.38148 0.95823 0.0
H2181 H 0.94563 0.28154 0.92678 0.0
H2182 H 0.95223 0.31544 0.94132 0.0
H2183 H 0.00192 0.35093 0.9204 0.0
H2184 H 0.00761 0.43253 0.00897 0.0
H2185 H -0.00155 0.39801 -0.00354 0.0
C2186 C 0.93364 0.75048 0.16259 0.0
C2187 C 0.95107 0.75063 0.17253 0.0
C2188 C 0.91728 0.74425 0.17088 0.0
C2189 C 0.89992 0.7429 0.21828 0.0
H2190 H 0.85417 0.71791 0.18719 0.0
C2191 C 0.82645 0.74145 0.24558 0.0
C2192 C 0.81461 0.74887 0.2327 0.0
C2193 C 0.84319 0.73658 0.23977 0.0
C2194 C 0.86686 0.72474 0.19611 0.0
H2195 H 0.965 0.74358 0.19868 0.0
H2196 H 0.93624 0.7328 0.21328 0.0
H2197 H 0.88401 0.7175 0.17374 0.0
H2198 H 0.81073 0.75655 0.20357 0.0
H2199 H 0.83969 0.74802 0.1935 0.0
H2200 H 0.88263 0.7509 0.24031 0.0
C2201 C 0.93533 0.73754 0.19905 0.0
C2202 C 0.88391 0.72453 0.18842 0.0
C2203 C 0.95176 0.74367 0.19066 0.0
C2204 C 0.81961 0.751 0.21388 0.0
C2205 C 0.8361 0.74589 0.20802 0.0
C2206 C 0.88283 0.74305 0.22601 0.0
C2207 C 0.91793 0.73811 0.18938 0.0
C2208 C 0.90054 0.73436 0.19909 0.0
C2209 C 0.8481 0.73871 0.22089 0.0
C2210 C 0.86612 0.73472 0.21464 0.0
H2211 H 0.93257 0.75587 0.1487 0.0
H2212 H 0.90412 0.74519 0.16318 0.0
H2213 H 0.91249 0.7507 0.22682 0.0
H2214 H 0.8229 0.73963 0.26017 0.0
H2215 H 0.85227 0.73112 0.24996 0.0
C2216 C 0.47619 0.29126 0.07426 0.0
C2217 C 0.48611 0.2947 0.09273 0.0
C2218 C 0.48099 0.30343 0.06025 0.0
C2219 C 0.48194 0.34004 0.04198 0.0
H2220 H 0.53006 0.37328 0.04253 0.0
C2221 C 0.48845 0.41921 0.03055 0.0
C2222 C 0.50345 0.42853 0.02163 0.0
C2223 C 0.4873 0.39991 0.03375 0.0
C2224 C 0.51659 0.3639 0.04182 0.0
H2225 H 0.50959 0.31274 0.11062 0.0
H2226 H 0.5174 0.33458 0.08669 0.0
H2227 H 0.52781 0.34344 0.05755 0.0
H2228 H 0.52874 0.4247 0.00842 0.0
H2229 H 0.52671 0.39063 0.01404 0.0
H2230 H 0.47072 0.36046 0.02632 0.0
C2231 C 0.50624 0.32221 0.08264 0.0
C2232 C 0.51524 0.34691 0.05069 0.0
C2233 C 0.5017 0.30974 0.09649 0.0
C2234 C 0.51701 0.41788 0.01533 0.0
C2235 C 0.5159 0.39843 0.01864 0.0
C2236 C 0.48333 0.35682 0.03294 0.0
C2237 C 0.4955 0.31966 0.06458 0.0
C2238 C 0.49776 0.33522 0.05165 0.0
C2239 C 0.50111 0.38932 0.02809 0.0
C2240 C 0.5005 0.36945 0.03358 0.0
H2241 H 0.46429 0.27954 0.07087 0.0
H2242 H 0.47276 0.30059 0.04632 0.0
H2243 H 0.46818 0.33161 0.04242 0.0
H2244 H 0.47772 0.42697 0.03552 0.0
H2245 H 0.4759 0.39354 0.0414 0.0
C2246 C 0.94818 0.27909 0.33674 0.0
C2247 C 0.94893 0.27044 0.35393 0.0
C2248 C 0.93114 0.28199 0.32816 0.0
C2249 C 0.88228 0.28386 0.33756 0.0
H2250 H 0.8706 0.26262 0.28325 0.0
C2251 C 0.80761 0.2551 0.30417 0.0
C2252 C 0.80246 0.2572 0.28481 0.0
C2253 C 0.826 0.26112 0.31218 0.0
C2254 C 0.87372 0.26902 0.2983 0.0
H2255 H 0.93241 0.25859 0.37585 0.0
H2256 H 0.90289 0.26381 0.36106 0.0
H2257 H 0.90229 0.26568 0.29836 0.0
H2258 H 0.8125 0.26782 0.25879 0.0
H2259 H 0.84481 0.27845 0.27287 0.0
H2260 H 0.85363 0.2867 0.33767 0.0
C2261 C 0.91545 0.26848 0.35426 0.0
C2262 C 0.89188 0.27075 0.30696 0.0
C2263 C 0.93241 0.26542 0.36272 0.0
C2264 C 0.81606 0.26596 0.27374 0.0
C2265 C 0.83456 0.27196 0.28177 0.0
C2266 C 0.86416 0.28221 0.32889 0.0
C2267 C 0.91457 0.27648 0.33672 0.0
C2268 C 0.8962 0.27762 0.32683 0.0
C2269 C 0.83975 0.26944 0.30104 0.0
C2270 C 0.85953 0.27418 0.30932 0.0
H2271 H 0.96067 0.28312 0.3296 0.0
H2272 H 0.93089 0.28829 0.31469 0.0
H2273 H 0.88528 0.28953 0.35282 0.0
H2274 H 0.79749 0.24845 0.31313 0.0
H2275 H 0.82954 0.25864 0.32694 0.0
C2276 C 0.95208 0.70054 0.59507 0.0
C2277 C 0.96339 0.70996 0.61183 0.0
C2278 C 0.95442 0.68221 0.58657 0.0
C2279 C 0.97288 0.63858 0.59629 0.0
H2280 H 0.978 0.6317 0.54098 0.0
C2281 C -0.00043 0.57237 0.55926 0.0
C2282 C 0.99205 0.56445 0.5403 0.0
C2283 C -0.00487 0.58969 0.56798 0.0
C2284 C 0.97629 0.63321 0.55637 0.0
H2285 H 0.98565 0.7072 0.63313 0.0
H2286 H 0.98952 0.67508 0.61839 0.0
H2287 H 0.97142 0.6624 0.55645 0.0
H2288 H 0.97376 0.56837 0.5157 0.0
H2289 H 0.96558 0.59834 0.53111 0.0
H2290 H 0.9775 0.60937 0.59628 0.0
C2291 C 0.9789 0.68195 0.61183 0.0
C2292 C 0.97257 0.65084 0.56523 0.0
C2293 C 0.97673 0.70038 0.6202 0.0
C2294 C 0.97988 0.57417 0.53029 0.0
C2295 C 0.97527 0.59141 0.5391 0.0
C2296 C 0.97639 0.62086 0.58741 0.0
C2297 C 0.96793 0.6728 0.59479 0.0
C2298 C 0.97101 0.65376 0.5853 0.0
C2299 C 0.98289 0.59944 0.55805 0.0
C2300 C 0.97834 0.61801 0.56736 0.0
H2301 H 0.94169 0.70751 0.58822 0.0
H2302 H 0.94566 0.6754 0.57353 0.0
H2303 H 0.97152 0.64037 0.61176 0.0
H2304 H 0.0091 0.56531 0.56732 0.0
H2305 H 0.00157 0.59559 0.58242 0.0
C2306 C 0.56134 0.76387 0.86586 0.0
C2307 C 0.546 0.75489 0.85267 0.0
C2308 C 0.57946 0.76558 0.8602 0.0
C2309 C 0.60546 0.76548 0.81665 0.0
H2310 H 0.64549 0.75508 0.85127 0.0
C2311 C 0.67853 0.76152 0.79184 0.0
C2312 C 0.69387 0.77048 0.80503 0.0
C2313 C 0.66049 0.75906 0.79772 0.0
C2314 C 0.63451 0.75823 0.8415 0.0
H2315 H 0.53768 0.74061 0.82323 0.0
H2316 H 0.56919 0.7435 0.81346 0.0
H2317 H 0.61409 0.75235 0.86159 0.0
H2318 H 0.70229 0.7837 0.8348 0.0
H2319 H 0.6709 0.77965 0.84494 0.0
H2320 H 0.62585 0.77147 0.79661 0.0
C2321 C 0.56724 0.74942 0.82809 0.0
C2322 C 0.61652 0.75668 0.84744 0.0
C2323 C 0.54917 0.74767 0.83375 0.0
C2324 C 0.6908 0.77671 0.82426 0.0
C2325 C 0.67278 0.77428 0.83012 0.0
C2326 C 0.62345 0.76707 0.81074 0.0
C2327 C 0.5826 0.75841 0.84123 0.0
C2328 C 0.60178 0.76027 0.83507 0.0
C2329 C 0.65739 0.76552 0.81691 0.0
C2330 C 0.63819 0.76347 0.82309 0.0
H2331 H 0.55937 0.7696 0.88054 0.0
H2332 H 0.591 0.77276 0.87061 0.0
H2333 H 0.59447 0.76863 0.80689 0.0
H2334 H 0.68044 0.75648 0.77693 0.0
H2335 H 0.64896 0.75202 0.78724 0.0
C2336 C 0.40742 0.51767 0.69389 0.0
C2337 C 0.41686 0.52734 0.71157 0.0
C2338 C 0.41685 0.51646 0.67712 0.0
C2339 C 0.45934 0.53853 0.65598 0.0
H2340 H 0.45032 0.48948 0.62202 0.0
C2341 C 0.50398 0.52219 0.59235 0.0
C2342 C 0.49394 0.51293 0.57482 0.0
C2343 C 0.49495 0.52428 0.60936 0.0
C2344 C 0.45289 0.50332 0.63128 0.0
H2345 H 0.4432 0.54338 0.72563 0.0
H2346 H 0.45972 0.54108 0.6965 0.0
H2347 H 0.43332 0.49282 0.65067 0.0
H2348 H 0.4665 0.49876 0.56141 0.0
H2349 H 0.45096 0.50243 0.59084 0.0
H2350 H 0.47901 0.54895 0.63656 0.0
C2351 C 0.44507 0.5347 0.69542 0.0
C2352 C 0.44309 0.50526 0.64766 0.0
C2353 C 0.43565 0.53593 0.71212 0.0
C2354 C 0.47474 0.50587 0.57466 0.0
C2355 C 0.4658 0.50787 0.59158 0.0
C2356 C 0.46919 0.53656 0.6396 0.0
C2357 C 0.43583 0.52483 0.67774 0.0
C2358 C 0.44613 0.52291 0.66017 0.0
C2359 C 0.47577 0.51703 0.60913 0.0
C2360 C 0.46599 0.51897 0.62702 0.0
H2361 H 0.39288 0.51093 0.69303 0.0
H2362 H 0.40926 0.50898 0.66366 0.0
H2363 H 0.46186 0.55239 0.6652 0.0
H2364 H 0.51877 0.52782 0.59295 0.0
H2365 H 0.50302 0.53132 0.62272 0.0
C2366 C 0.75451 0.17342 0.96801 0.0
C2367 C 0.77373 0.17384 0.97188 0.0
C2368 C 0.74808 0.18592 0.95596 0.0
C2369 C 0.76274 0.22859 0.92986 0.0
H2370 H 0.7277 0.19872 0.88828 0.0
C2371 C 0.74259 0.25616 0.85616 0.0
C2372 C 0.7471 0.24368 0.84063 0.0
C2373 C 0.74244 0.25052 0.87485 0.0
C2374 C 0.73722 0.20737 0.89996 0.0
H2375 H 0.80124 0.18882 0.96731 0.0
H2376 H 0.79003 0.21032 0.9461 0.0
H2377 H 0.73407 0.1845 0.91771 0.0
H2378 H 0.75443 0.21543 0.83227 0.0
H2379 H 0.75375 0.20556 0.8645 0.0
H2380 H 0.76664 0.251 0.9113 0.0
C2381 C 0.77991 0.20045 0.95247 0.0
C2382 C 0.74081 0.19929 0.91688 0.0
C2383 C 0.78635 0.18796 0.96451 0.0
C2384 C 0.75101 0.22542 0.84396 0.0
C2385 C 0.75048 0.21968 0.86238 0.0
C2386 C 0.75903 0.23674 0.9129 0.0
C2387 C 0.76071 0.19912 0.94754 0.0
C2388 C 0.75416 0.20949 0.93171 0.0
C2389 C 0.74628 0.23216 0.87801 0.0
C2390 C 0.74681 0.22584 0.89752 0.0
H2391 H 0.74437 0.16292 0.97364 0.0
H2392 H 0.7332 0.18474 0.95265 0.0
H2393 H 0.77294 0.23687 0.94113 0.0
H2394 H 0.73957 0.27034 0.85395 0.0
H2395 H 0.73924 0.26039 0.88676 0.0
C2396 C 0.10733 0.47339 0.19901 0.0
C2397 C 0.09811 0.46188 0.2118 0.0
C2398 C 0.09908 0.47354 0.1803 0.0
C2399 C 0.05289 0.46635 0.15403 0.0
H2400 H 0.08036 0.46982 0.10864 0.0
C2401 C 0.01819 0.47593 0.07916 0.0
C2402 C 0.02862 0.48935 0.06892 0.0
C2403 C 0.02637 0.4701 0.09578 0.0
C2404 C 0.07252 0.46899 0.12122 0.0
H2405 H 0.07351 0.44064 0.21461 0.0
H2406 H 0.05919 0.44091 0.18195 0.0
H2407 H 0.09577 0.46349 0.13891 0.0
H2408 H 0.05577 0.5073 0.06818 0.0
H2409 H 0.0698 0.49749 0.0972 0.0
H2410 H 0.02983 0.47245 0.13659 0.0
C2411 C 0.07266 0.45 0.1865 0.0
C2412 C 0.08134 0.46532 0.13852 0.0
C2413 C 0.08093 0.44979 0.20517 0.0
C2414 C 0.04732 0.4969 0.07569 0.0
C2415 C 0.05545 0.49112 0.09225 0.0
C2416 C 0.04409 0.47012 0.13676 0.0
C2417 C 0.08145 0.46221 0.17404 0.0
C2418 C 0.0717 0.46426 0.15518 0.0
C2419 C 0.04513 0.47759 0.10245 0.0
C2420 C 0.05391 0.47183 0.12026 0.0
H2421 H 0.12059 0.48284 0.20367 0.0
H2422 H 0.10614 0.4832 0.17106 0.0
H2423 H 0.04516 0.46587 0.16671 0.0
H2424 H 0.00379 0.46978 0.07424 0.0
H2425 H 0.01808 0.45954 0.10325 0.0
C2426 C 0.78225 0.83482 0.4772 0.0
C2427 C 0.77401 0.85027 0.48513 0.0
C2428 C 0.77913 0.82794 0.45736 0.0
C2429 C 0.76722 0.84348 0.41046 0.0
H2430 H 0.75413 0.78837 0.39161 0.0
C2431 C 0.74174 0.81595 0.33044 0.0
C2432 C 0.74615 0.79845 0.32173 0.0
C2433 C 0.74631 0.82209 0.35025 0.0
C2434 C 0.75811 0.80379 0.39658 0.0
H2435 H 0.75583 0.87045 0.47839 0.0
H2436 H 0.75058 0.85855 0.44369 0.0
H2437 H 0.75931 0.79914 0.42652 0.0
H2438 H 0.75929 0.77391 0.32698 0.0
H2439 H 0.7678 0.78494 0.36161 0.0
H2440 H 0.76639 0.84827 0.3807 0.0
C2441 C 0.75946 0.85179 0.45289 0.0
C2442 C 0.76096 0.80995 0.4166 0.0
C2443 C 0.76237 0.85851 0.47278 0.0
C2444 C 0.75567 0.78744 0.33326 0.0
C2445 C 0.76041 0.7937 0.35314 0.0
C2446 C 0.76459 0.83734 0.39048 0.0
C2447 C 0.7679 0.83652 0.44495 0.0
C2448 C 0.76531 0.82987 0.42374 0.0
C2449 C 0.75561 0.81104 0.36193 0.0
C2450 C 0.75974 0.81743 0.38324 0.0
H2451 H 0.79124 0.82809 0.4863 0.0
H2452 H 0.78588 0.81621 0.45163 0.0
H2453 H 0.77091 0.85892 0.41554 0.0
H2454 H 0.7343 0.82476 0.32205 0.0
H2455 H 0.74205 0.83531 0.35647 0.0
C2456 C 0.42326 0.49626 0.81128 0.0
C2457 C 0.40812 0.50619 0.81161 0.0
C2458 C 0.43148 0.49169 0.8285 0.0
C2459 C 0.42448 0.48789 0.88007 0.0
H2460 H 0.47753 0.50806 0.88947 0.0
C2461 C 0.46006 0.51696 0.9557 0.0
C2462 C 0.47838 0.51454 0.96071 0.0
C2463 C 0.45157 0.51062 0.93697 0.0
C2464 C 0.46281 0.50191 0.88698 0.0
H2465 H 0.38933 0.51846 0.83019 0.0
H2466 H 0.4035 0.51035 0.86007 0.0
H2467 H 0.46192 0.50587 0.85694 0.0
H2468 H 0.50205 0.50309 0.95017 0.0
H2469 H 0.48715 0.49203 0.91719 0.0
H2470 H 0.42522 0.48461 0.91025 0.0
C2471 C 0.40895 0.50597 0.84651 0.0
C2472 C 0.45387 0.50066 0.86834 0.0
C2473 C 0.40087 0.51071 0.82936 0.0
C2474 C 0.48794 0.50524 0.94668 0.0
C2475 C 0.47943 0.49894 0.92783 0.0
C2476 C 0.43342 0.48905 0.89867 0.0
C2477 C 0.42457 0.49678 0.84631 0.0
C2478 C 0.4345 0.49434 0.8649 0.0
C2479 C 0.4612 0.50171 0.92276 0.0
C2480 C 0.45254 0.4968 0.90248 0.0
H2481 H 0.42915 0.49255 0.79781 0.0
H2482 H 0.44346 0.48453 0.82795 0.0
H2483 H 0.40958 0.48266 0.87771 0.0
H2484 H 0.45227 0.52399 0.96619 0.0
H2485 H 0.43765 0.51331 0.93346 0.0
C2486 C 0.8103 0.17477 0.06432 0.0
C2487 C 0.79693 0.15817 0.05703 0.0
C2488 C 0.80887 0.18534 0.08231 0.0
C2489 C 0.78653 0.18173 0.12798 0.0
H2490 H 0.78932 0.23754 0.13029 0.0
C2491 C 0.75299 0.22421 0.18609 0.0
C2492 C 0.76293 0.24214 0.19549 0.0
C2493 C 0.75932 0.21487 0.1698 0.0
C2494 C 0.78879 0.22203 0.12997 0.0
H2495 H 0.77194 0.1393 0.06325 0.0
H2496 H 0.76954 0.15762 0.09448 0.0
H2497 H 0.79721 0.21894 0.10108 0.0
H2498 H 0.787 0.26468 0.19473 0.0
H2499 H 0.79808 0.24826 0.16595 0.0
H2500 H 0.77776 0.18467 0.15662 0.0
C2501 C 0.78116 0.16247 0.08637 0.0
C2502 C 0.79333 0.21138 0.11327 0.0
C2503 C 0.78248 0.15202 0.06839 0.0
C2504 C 0.77903 0.25088 0.18778 0.0
C2505 C 0.78537 0.24149 0.17134 0.0
C2506 C 0.78203 0.19234 0.14461 0.0
C2507 C 0.79418 0.17937 0.09343 0.0
C2508 C 0.79177 0.19105 0.11194 0.0
C2509 C 0.77574 0.2232 0.16244 0.0
C2510 C 0.78262 0.21251 0.1456 0.0
H2511 H 0.82158 0.17993 0.05592 0.0
H2512 H 0.81919 0.19824 0.08746 0.0
H2513 H 0.78556 0.16614 0.12752 0.0
H2514 H 0.74044 0.21713 0.19152 0.0
H2515 H 0.75133 0.20102 0.16299 0.0
C2516 C 0.10577 0.51016 0.33209 0.0
C2517 C 0.09741 0.50667 0.31292 0.0
C2518 C 0.09758 0.52005 0.34671 0.0
C2519 C 0.05273 0.52701 0.36093 0.0
H2520 H 0.08238 0.56398 0.40186 0.0
C2521 C 0.0256 0.54252 0.43554 0.0
C2522 C 0.0383 0.53929 0.45042 0.0
C2523 C 0.03144 0.54525 0.41718 0.0
C2524 C 0.07384 0.55382 0.39046 0.0
H2525 H 0.07391 0.51095 0.29401 0.0
H2526 H 0.05932 0.52779 0.31983 0.0
H2527 H 0.0957 0.55555 0.37154 0.0
H2528 H 0.06721 0.53783 0.45831 0.0
H2529 H 0.0773 0.54244 0.42657 0.0
H2530 H 0.03138 0.52411 0.38036 0.0
C2531 C 0.07236 0.52308 0.32337 0.0
C2532 C 0.08147 0.54902 0.37315 0.0
C2533 C 0.08072 0.51343 0.30865 0.0
C2534 C 0.05707 0.54008 0.44705 0.0
C2535 C 0.0629 0.54297 0.42888 0.0
C2536 C 0.04514 0.5317 0.37834 0.0
C2537 C 0.08072 0.52642 0.34254 0.0
C2538 C 0.07127 0.5349 0.35862 0.0
C2539 C 0.05009 0.54505 0.41358 0.0
C2540 C 0.05598 0.54441 0.39363 0.0
H2541 H 0.11847 0.50503 0.33595 0.0
H2542 H 0.10412 0.52208 0.36145 0.0
H2543 H 0.0446 0.51604 0.34995 0.0
H2544 H 0.01105 0.54205 0.43782 0.0
H2545 H 0.02128 0.54691 0.40566 0.0
C2546 C 0.74116 0.83412 0.58393 0.0
C2547 C 0.7563 0.83083 0.57342 0.0
C2548 C 0.73527 0.82217 0.5979 0.0
C2549 C 0.75616 0.7932 0.63076 0.0
H2550 H 0.70634 0.7808 0.64689 0.0
C2551 C 0.72122 0.75444 0.69686 0.0
C2552 C 0.73234 0.76639 0.71252 0.0
C2553 C 0.72177 0.75951 0.67792 0.0
C2554 C 0.72027 0.78395 0.64237 0.0
H2555 H 0.7758 0.81122 0.56793 0.0
H2556 H 0.76532 0.7903 0.59191 0.0
H2557 H 0.71083 0.79382 0.61595 0.0
H2558 H 0.75244 0.79324 0.72047 0.0
H2559 H 0.75353 0.80168 0.68782 0.0
H2560 H 0.7657 0.78405 0.65736 0.0
C2561 C 0.75835 0.80241 0.58981 0.0
C2562 C 0.72287 0.79153 0.62478 0.0
C2563 C 0.76431 0.81439 0.576 0.0
C2564 C 0.74369 0.7836 0.70887 0.0
C2565 C 0.74441 0.78846 0.6901 0.0
C2566 C 0.75358 0.78584 0.6483 0.0
C2567 C 0.74432 0.80664 0.60153 0.0
C2568 C 0.74091 0.79654 0.61894 0.0
C2569 C 0.73367 0.7764 0.67439 0.0
C2570 C 0.73569 0.78153 0.6545 0.0
H2571 H 0.73467 0.84666 0.5823 0.0
H2572 H 0.72446 0.8259 0.6067 0.0
H2573 H 0.77027 0.79713 0.62693 0.0
H2574 H 0.71232 0.74111 0.69918 0.0
H2575 H 0.71334 0.74998 0.66601 0.0
C2576 C 0.70512 0.42863 0.50155 0.0
C2577 C 0.70624 0.41102 0.50867 0.0
C2578 C 0.69034 0.43826 0.50537 0.0
C2579 C 0.65496 0.44273 0.53993 0.0
H2580 H 0.63359 0.46943 0.50063 0.0
C2581 C 0.58978 0.47903 0.54853 0.0
C2582 C 0.5896 0.49649 0.54055 0.0
C2583 C 0.60443 0.46881 0.54598 0.0
C2584 C 0.63958 0.46227 0.51186 0.0
H2585 H 0.69259 0.38932 0.52522 0.0
H2586 H 0.66651 0.40606 0.53173 0.0
H2587 H 0.65723 0.45008 0.49254 0.0
H2588 H 0.6053 0.51749 0.5247 0.0
H2589 H 0.63093 0.4998 0.5205 0.0
H2590 H 0.63716 0.45493 0.55922 0.0
C2591 C 0.67721 0.41256 0.52333 0.0
C2592 C 0.6531 0.45112 0.5072 0.0
C2593 C 0.69205 0.40289 0.51945 0.0
C2594 C 0.60492 0.50405 0.53095 0.0
C2595 C 0.61954 0.49381 0.52838 0.0
C2596 C 0.64137 0.45387 0.54459 0.0
C2597 C 0.67629 0.43046 0.51647 0.0
C2598 C 0.66109 0.44135 0.52121 0.0
C2599 C 0.61921 0.47581 0.53538 0.0
C2600 C 0.63365 0.46392 0.53064 0.0
H2601 H 0.71598 0.43524 0.49335 0.0
H2602 H 0.69024 0.45213 0.5001 0.0
H2603 H 0.661 0.43559 0.55114 0.0
H2604 H 0.57818 0.47276 0.55598 0.0
H2605 H 0.60372 0.45496 0.5515 0.0
C2606 C 0.20644 0.10148 0.48953 0.0
C2607 C 0.21799 0.08972 0.48066 0.0
C2608 C 0.1876 0.09414 0.49052 0.0
C2609 C 0.14882 0.05449 0.46958 0.0
H2610 H 0.12901 0.06626 0.51888 0.0
C2611 C 0.07705 0.01578 0.48873 0.0
C2612 C 0.06638 0.02748 0.49918 0.0
C2613 C 0.09529 0.02344 0.48529 0.0
C2614 C 0.13424 0.06301 0.50494 0.0
H2615 H 0.21868 0.06116 0.4654 0.0
H2616 H 0.18585 0.04831 0.46731 0.0
H2617 H 0.16115 0.07979 0.51483 0.0
H2618 H 0.06623 0.05654 0.51358 0.0
H2619 H 0.0978 0.06984 0.50741 0.0
H2620 H 0.12183 0.03757 0.45978 0.0
C2621 C 0.19132 0.06326 0.47334 0.0
C2622 C 0.15267 0.0708 0.50261 0.0
C2623 C 0.21017 0.07061 0.47235 0.0
C2624 C 0.07414 0.04706 0.50567 0.0
C2625 C 0.09228 0.05468 0.50222 0.0
C2626 C 0.13033 0.04668 0.47192 0.0
C2627 C 0.17988 0.07486 0.48268 0.0
C2628 C 0.16017 0.06669 0.4849 0.0
C2629 C 0.10317 0.04291 0.49223 0.0
C2630 C 0.12283 0.05093 0.48961 0.0
H2631 H 0.21199 0.11631 0.49596 0.0
H2632 H 0.17908 0.10355 0.49753 0.0
H2633 H 0.15415 0.05118 0.4557 0.0
H2634 H 0.07146 0.00064 0.48355 0.0
H2635 H 0.10338 0.01397 0.47766 0.0
C2636 C 0.18141 0.96359 0.76553 0.0
C2637 C 0.18546 0.97561 0.78344 0.0
C2638 C 0.19346 0.95117 0.7594 0.0
C2639 C 0.22145 0.92589 0.74785 0.0
H2640 H 0.23587 0.90011 0.79132 0.0
C2641 C 0.24495 0.8502 0.73945 0.0
C2642 C 0.23468 0.83716 0.75023 0.0
C2643 C 0.24416 0.8701 0.74253 0.0
C2644 C 0.23213 0.90727 0.77902 0.0
H2645 H 0.20634 0.98577 0.80785 0.0
H2646 H 0.22767 0.96459 0.79687 0.0
H2647 H 0.22552 0.93099 0.79743 0.0
H2648 H 0.21578 0.83477 0.77284 0.0
H2649 H 0.21446 0.86911 0.77815 0.0
H2650 H 0.22676 0.90109 0.72953 0.0
C2651 C 0.21485 0.96417 0.78789 0.0
C2652 C 0.22638 0.92514 0.7825 0.0
C2653 C 0.20266 0.97637 0.79416 0.0
C2654 C 0.22383 0.84438 0.76423 0.0
C2655 C 0.22321 0.86413 0.76743 0.0
C2656 C 0.22715 0.90788 0.74438 0.0
C2657 C 0.20995 0.95071 0.77094 0.0
C2658 C 0.22018 0.9343 0.76698 0.0
C2659 C 0.23335 0.87722 0.75667 0.0
C2660 C 0.2317 0.89802 0.75997 0.0
H2661 H 0.1683 0.96272 0.75687 0.0
H2662 H 0.18909 0.94095 0.74635 0.0
H2663 H 0.21712 0.93273 0.73556 0.0
H2664 H 0.25342 0.84502 0.72855 0.0
H2665 H 0.25206 0.87992 0.734 0.0
C2666 C 0.31595 0.89791 -0.00441 0.0
C2667 C 0.3005 0.90726 0.99404 0.0
C2668 C 0.33324 0.90665 0.99068 0.0
C2669 C 0.36074 0.95441 0.99157 0.0
H2670 H 0.39571 0.92565 0.96746 0.0
C2671 C 0.43904 0.98623 -0.00066 0.0
C2672 C 0.4502 0.97324 0.00547 0.0
C2673 C 0.42055 0.97939 0.99171 0.0
C2674 C 0.38611 0.93391 0.97419 0.0
H2675 H 0.29096 0.93288 0.98545 0.0
H2676 H 0.32143 0.94838 0.97725 0.0
H2677 H 0.36279 0.9109 0.96529 0.0
H2678 H 0.4511 0.94283 0.0073 0.0
H2679 H 0.41898 0.93102 -0.00553 0.0
H2680 H 0.38412 0.97689 0.00159 0.0
C2681 C 0.32001 0.93419 0.98215 0.0
C2682 C 0.36728 0.92549 0.97288 0.0
C2683 C 0.3026 0.92529 0.98682 0.0
C2684 C 0.44285 0.95324 0.00284 0.0
C2685 C 0.42443 0.94643 -0.00473 0.0
C2686 C 0.37961 0.96278 0.99302 0.0
C2687 C 0.33556 0.92507 0.98434 0.0
C2688 C 0.35454 0.93538 0.98216 0.0
C2689 C 0.4129 0.95945 0.99005 0.0
C2690 C 0.39261 0.95232 0.98499 0.0
H2691 H 0.31491 0.88411 0.00117 0.0
H2692 H 0.34503 0.89941 0.99281 0.0
H2693 H 0.35126 0.96231 -0.001 0.0
H2694 H 0.44436 0.00172 0.00104 0.0
H2695 H 0.4121 0.98976 0.98759 0.0
C2696 C 0.83766 0.56371 0.75239 0.0
C2697 C 0.83907 0.56086 0.77207 0.0
C2698 C 0.8249 0.57457 0.74539 0.0
C2699 C 0.78419 0.59752 0.75791 0.0
H2700 H 0.80786 0.63881 0.73083 0.0
C2701 C 0.78298 0.68198 0.7576 0.0
C2702 C 0.76413 0.6828 0.75316 0.0
C2703 C 0.78935 0.66444 0.7545 0.0
C2704 C 0.80094 0.6272 0.73811 0.0
H2705 H 0.82732 0.56623 0.79952 0.0
H2706 H 0.80536 0.58534 0.7874 0.0
H2707 H 0.82349 0.61163 0.73582 0.0
H2708 H 0.73714 0.66601 0.74165 0.0
H2709 H 0.74831 0.6348 0.73671 0.0
H2710 H 0.76217 0.61392 0.76124 0.0
C2711 C 0.81397 0.57905 0.77731 0.0
C2712 C 0.80982 0.61154 0.74086 0.0
C2713 C 0.82674 0.56824 0.78432 0.0
C2714 C 0.75176 0.66572 0.74517 0.0
C2715 C 0.75811 0.64794 0.74239 0.0
C2716 C 0.77524 0.61319 0.75507 0.0
C2717 C 0.81322 0.58276 0.75789 0.0
C2718 C 0.80192 0.59694 0.75149 0.0
C2719 C 0.77698 0.6472 0.7471 0.0
C2720 C 0.78394 0.62856 0.74587 0.0
H2721 H 0.84681 0.55808 0.74249 0.0
H2722 H 0.82451 0.577 0.73029 0.0
H2723 H 0.77763 0.58633 0.76591 0.0
H2724 H 0.79289 0.69494 0.76364 0.0
H2725 H 0.8039 0.66427 0.75854 0.0
C2726 C 0.81623 0.58265 0.02021 0.0
C2727 C 0.81833 0.59856 0.00955 0.0
C2728 C 0.83124 0.57335 0.02424 0.0
C2729 C 0.87375 0.56392 0.00348 0.0
H2730 H 0.8841 0.5429 0.05139 0.0
C2731 C 0.92123 0.50721 0.00701 0.0
C2732 C 0.93543 0.51103 0.02241 0.0
C2733 C 0.90651 0.51752 0.00718 0.0
C2734 C 0.8814 0.54874 0.03795 0.0
H2735 H 0.8381 0.61786 -0.00427 0.0
H2736 H 0.86433 0.60161 0.00281 0.0
H2737 H 0.86035 0.5635 0.04934 0.0
H2738 H 0.94463 0.52785 0.05064 0.0
H2739 H 0.91879 0.54574 0.05096 0.0
H2740 H 0.89468 0.54921 0.99204 0.0
C2741 C 0.851 0.59622 0.00785 0.0
C2742 C 0.86776 0.56045 0.03675 0.0
C2743 C 0.83601 0.60561 0.00392 0.0
C2744 C 0.93394 0.52456 0.03853 0.0
C2745 C 0.91912 0.53481 0.03874 0.0
C2746 C 0.88723 0.55212 0.00463 0.0
C2747 C 0.84864 0.57968 0.01761 0.0
C2748 C 0.86378 0.56814 0.01947 0.0
C2749 C 0.90556 0.5318 0.0228 0.0
C2750 C 0.89114 0.5443 0.02182 0.0
H2751 H 0.8028 0.57689 0.02481 0.0
H2752 H 0.82894 0.56059 0.0317 0.0
H2753 H 0.87086 0.5694 0.98988 0.0
H2754 H 0.92186 0.49682 -0.00559 0.0
H2755 H 0.89606 0.51462 -0.00515 0.0
C2756 C 0.18033 0.06996 0.81708 0.0
C2757 C 0.16459 0.05951 0.80525 0.0
C2758 C 0.18844 0.08858 0.81366 0.0
C2759 C 0.19096 0.12042 0.77483 0.0
H2760 H 0.21167 0.16111 0.81705 0.0
C2761 C 0.21298 0.20047 0.76342 0.0
C2762 C 0.23021 0.21044 0.77273 0.0
C2763 C 0.20548 0.182 0.76762 0.0
C2764 C 0.2061 0.14981 0.80513 0.0
H2765 H 0.1446 0.06078 0.78103 0.0
H2766 H 0.15841 0.09337 0.77542 0.0
H2767 H 0.19699 0.12922 0.82433 0.0
H2768 H 0.25306 0.20886 0.79382 0.0
H2769 H 0.23981 0.1765 0.80126 0.0
H2770 H 0.19978 0.14114 0.75567 0.0
C2771 C 0.16483 0.08699 0.787 0.0
C2772 C 0.19771 0.13154 0.80928 0.0
C2773 C 0.15683 0.06833 0.7903 0.0
C2774 C 0.23978 0.20153 0.78637 0.0
C2775 C 0.23216 0.18308 0.79071 0.0
C2776 C 0.1992 0.1387 0.77071 0.0
C2777 C 0.1809 0.09723 0.79843 0.0
C2778 C 0.18996 0.11666 0.79417 0.0
C2779 C 0.21496 0.17314 0.78133 0.0
C2780 C 0.20678 0.15359 0.78581 0.0
H2781 H 0.18672 0.06356 0.82866 0.0
H2782 H 0.20091 0.09596 0.82263 0.0
H2783 H 0.18553 0.10918 0.76282 0.0
H2784 H 0.20523 0.20695 0.75287 0.0
H2785 H 0.1921 0.17476 0.76033 0.0
C2786 C 0.35268 0.96282 0.27396 0.0
C2787 C 0.35069 0.97561 0.29046 0.0
C2788 C 0.34145 0.94439 0.27003 0.0
C2789 C 0.31056 0.90776 0.29281 0.0
H2790 H 0.29169 0.88821 0.23942 0.0
C2791 C 0.27329 0.8285 0.26922 0.0
C2792 C 0.25844 0.82493 0.25451 0.0
C2793 C 0.28388 0.84714 0.2742 0.0
C2794 C 0.29666 0.89354 0.25443 0.0
H2795 H 0.33541 0.9789 0.31587 0.0
H2796 H 0.31567 0.94695 0.30884 0.0
H2797 H 0.31165 0.92005 0.2469 0.0
H2798 H 0.24267 0.8383 0.23397 0.0
H2799 H 0.26095 0.87095 0.24294 0.0
H2800 H 0.2952 0.88145 0.3004 0.0
C2801 C 0.32611 0.95102 0.29909 0.0
C2802 C 0.30834 0.91168 0.25869 0.0
C2803 C 0.3374 0.96941 0.30308 0.0
C2804 C 0.25407 0.84054 0.2453 0.0
C2805 C 0.26464 0.85923 0.25034 0.0
C2806 C 0.29882 0.88965 0.28856 0.0
C2807 C 0.3279 0.93834 0.28245 0.0
C2808 C 0.31549 0.91899 0.27793 0.0
C2809 C 0.27983 0.86269 0.26468 0.0
C2810 C 0.29178 0.88228 0.26931 0.0
H2811 H 0.36285 0.96707 0.26398 0.0
H2812 H 0.34343 0.93486 0.25727 0.0
H2813 H 0.31595 0.91285 0.30776 0.0
H2814 H 0.27707 0.8168 0.2766 0.0
H2815 H 0.2956 0.8492 0.28514 0.0
C2816 C 0.48179 0.29853 0.57136 0.0
C2817 C 0.49383 0.29873 0.58811 0.0
C2818 C 0.48512 0.31315 0.55943 0.0
C2819 C 0.52044 0.35446 0.54916 0.0
H2820 H 0.47707 0.37698 0.53592 0.0
C2821 C 0.50425 0.43355 0.53505 0.0
C2822 C 0.51854 0.43932 0.52339 0.0
C2823 C 0.49996 0.41422 0.53856 0.0
C2824 C 0.48931 0.37084 0.53946 0.0
H2825 H 0.51943 0.31388 0.6048 0.0
H2826 H 0.52508 0.3395 0.58419 0.0
H2827 H 0.47327 0.34693 0.55053 0.0
H2828 H 0.53861 0.42907 0.50512 0.0
H2829 H 0.53092 0.39529 0.51105 0.0
H2830 H 0.53659 0.37897 0.53911 0.0
C2831 C 0.51314 0.32794 0.58014 0.0
C2832 C 0.48712 0.35347 0.54763 0.0
C2833 C 0.50985 0.31328 0.59204 0.0
C2834 C 0.52764 0.42513 0.51432 0.0
C2835 C 0.52332 0.40579 0.51781 0.0
C2836 C 0.52263 0.37185 0.54103 0.0
C2837 C 0.50055 0.32832 0.56398 0.0
C2838 C 0.50271 0.34532 0.553 0.0
C2839 C 0.50981 0.40024 0.53042 0.0
C2840 C 0.50713 0.38048 0.53651 0.0
H2841 H 0.46942 0.28742 0.56775 0.0
H2842 H 0.47536 0.31282 0.54688 0.0
H2843 H 0.5327 0.34843 0.5529 0.0
H2844 H 0.49695 0.44411 0.54223 0.0
H2845 H 0.48959 0.4105 0.54849 0.0
C2846 C 0.41585 0.71913 0.34808 0.0
C2847 C 0.43263 0.72885 0.34249 0.0
C2848 C 0.39874 0.72192 0.33961 0.0
C2849 C 0.37747 0.7568 0.314 0.0
H2850 H 0.33665 0.71333 0.29917 0.0
C2851 C 0.2988 0.73966 0.27091 0.0
C2852 C 0.29144 0.75505 0.28034 0.0
C2853 C 0.31637 0.73625 0.27741 0.0
C2854 C 0.34798 0.72558 0.30307 0.0
H2855 H 0.44464 0.74903 0.32354 0.0
H2856 H 0.41486 0.75386 0.30878 0.0
H2857 H 0.36668 0.70753 0.31274 0.0
H2858 H 0.2969 0.77912 0.30377 0.0
H2859 H 0.32738 0.77317 0.315 0.0
H2860 H 0.35885 0.77485 0.30431 0.0
C2861 C 0.41489 0.74422 0.31983 0.0
C2862 C 0.36509 0.72229 0.31104 0.0
C2863 C 0.43196 0.74138 0.32824 0.0
C2864 C 0.30213 0.76713 0.29615 0.0
C2865 C 0.31968 0.7638 0.30255 0.0
C2866 C 0.36037 0.76009 0.30612 0.0
C2867 C 0.39809 0.73455 0.32543 0.0
C2868 C 0.37999 0.73789 0.31667 0.0
C2869 C 0.32696 0.74827 0.29334 0.0
C2870 C 0.3454 0.74454 0.30069 0.0
H2871 H 0.4159 0.7093 0.35895 0.0
H2872 H 0.38601 0.71442 0.34435 0.0
H2873 H 0.38863 0.76914 0.31833 0.0
H2874 H 0.2909 0.73008 0.25871 0.0
H2875 H 0.32171 0.72426 0.26994 0.0
C2876 C 0.97985 0.7005 0.09829 0.0
C2877 C 0.99212 0.71469 0.11118 0.0
C2878 C 0.9854 0.68332 0.09079 0.0
C2879 C 0.0187 0.65127 0.10113 0.0
H2880 H 0.00035 0.62657 0.04897 0.0
C2881 C 0.00949 0.56896 0.07832 0.0
C2882 C 0.01119 0.56172 0.05898 0.0
C2883 C 0.01164 0.58895 0.0841 0.0
C2884 C 0.00593 0.63337 0.06345 0.0
H2885 H 0.02005 0.72203 0.12597 0.0
H2886 H 0.02978 0.69205 0.1127 0.0
H2887 H -0.00452 0.6594 0.05947 0.0
H2888 H 0.01773 0.56985 0.03082 0.0
H2889 H 0.02173 0.60486 0.04101 0.0
H2890 H 0.02908 0.62518 0.10512 0.0
C2891 C 0.01577 0.69416 0.10861 0.0
C2892 C 0.00288 0.65211 0.06957 0.0
C2893 C 0.0102 0.71138 0.11616 0.0
C2894 C 0.01621 0.57496 0.04581 0.0
C2895 C 0.01838 0.59501 0.05161 0.0
C2896 C 0.02181 0.63254 0.09499 0.0
C2897 C 0.00339 0.67989 0.09591 0.0
C2898 C 0.00876 0.66106 0.08865 0.0
C2899 C 0.0156 0.60221 0.0707 0.0
C2900 C 0.015 0.62315 0.07625 0.0
H2901 H 0.96581 0.7025 0.09415 0.0
H2902 H 0.97538 0.67251 0.08134 0.0
H2903 H 0.02337 0.65769 0.11595 0.0
H2904 H 0.00571 0.55918 0.08887 0.0
H2905 H 0.00919 0.5939 0.09885 0.0
C2906 C 0.05171 0.21558 0.85863 0.0
C2907 C 0.04051 0.22975 0.86205 0.0
C2908 C 0.06804 0.21972 0.84956 0.0
C2909 C 0.10276 0.25965 0.83647 0.0
H2910 H 0.11235 0.21875 0.79816 0.0
C2911 C 0.16591 0.26863 0.78993 0.0
C2912 C 0.17625 0.25356 0.79044 0.0
C2913 C 0.1484 0.2668 0.79716 0.0
C2914 C 0.10985 0.2303 0.80882 0.0
H2915 H 0.03805 0.25966 0.85932 0.0
H2916 H 0.06654 0.26682 0.84328 0.0
H2917 H 0.08407 0.21375 0.81473 0.0
H2918 H 0.17618 0.22456 0.79825 0.0
H2919 H 0.14575 0.22134 0.81057 0.0
H2920 H 0.12873 0.27612 0.83052 0.0
C2921 C 0.06273 0.25254 0.84773 0.0
C2922 C 0.09372 0.22741 0.8184 0.0
C2923 C 0.04639 0.24842 0.85689 0.0
C2924 C 0.16858 0.23647 0.79773 0.0
C2925 C 0.15108 0.23456 0.80467 0.0
C2926 C 0.11891 0.26258 0.82678 0.0
C2927 C 0.07353 0.2381 0.8436 0.0
C2928 C 0.09017 0.24186 0.83265 0.0
C2929 C 0.14088 0.24975 0.80467 0.0
C2930 C 0.12277 0.24776 0.81316 0.0
H2931 H 0.04767 0.20112 0.86258 0.0
H2932 H 0.0763 0.20842 0.84703 0.0
H2933 H 0.10046 0.27105 0.84741 0.0
H2934 H 0.17155 0.28198 0.78445 0.0
H2935 H 0.14075 0.27869 0.79693 0.0
C2936 C 0.51106 0.71281 0.93034 0.0
C2937 C 0.49331 0.71788 0.93104 0.0
C2938 C 0.51628 0.69894 0.94143 0.0
C2939 C 0.50344 0.67131 0.98243 0.0
H2940 H 0.52721 0.63254 0.95482 0.0
C2941 C 0.50585 0.59519 0.00596 0.0
C2942 C 0.52176 0.58703 0.00253 0.0
C2943 C 0.50409 0.61314 -0.00013 0.0
C2944 C 0.52087 0.6434 0.96291 0.0
H2945 H 0.46744 0.71285 0.94465 0.0
H2946 H 0.47644 0.6885 0.96369 0.0
H2947 H 0.52128 0.66041 0.93941 0.0
H2948 H 0.54882 0.59189 0.99129 0.0
H2949 H 0.54588 0.62321 0.98102 0.0
H2950 H 0.50267 0.65389 0.00578 0.0
C2951 C 0.48642 0.69539 0.95474 0.0
C2952 C 0.51748 0.65942 0.95405 0.0
C2953 C 0.48121 0.7093 0.94369 0.0
C2954 C 0.53628 0.59766 0.99392 0.0
C2955 C 0.53456 0.61558 0.98794 0.0
C2956 C 0.50682 0.65521 0.99131 0.0
C2957 C 0.50387 0.68976 0.95346 0.0
C2958 C 0.50859 0.6735 0.96362 0.0
C2959 C 0.51823 0.62327 0.99032 0.0
C2960 C 0.51547 0.641 0.98157 0.0
H2961 H 0.52081 0.71924 0.92089 0.0
H2962 H 0.52996 0.69518 0.94037 0.0
H2963 H 0.49675 0.68201 0.99029 0.0
H2964 H 0.49441 0.58733 0.01254 0.0
H2965 H 0.49128 0.6186 0.00184 0.0
C2966 C 0.04152 0.74236 0.68527 0.0
C2967 C 0.03627 0.75255 0.67017 0.0
C2968 C 0.06022 0.74107 0.68953 0.0
C2969 C 0.10576 0.74603 0.66914 0.0
H2970 H 0.12629 0.75903 0.72293 0.0
C2971 C 0.18431 0.77017 0.69128 0.0
C2972 C 0.19201 0.76502 0.70858 0.0
C2973 C 0.16513 0.76557 0.68608 0.0
C2974 C 0.12075 0.75499 0.70788 0.0
H2975 H 0.04647 0.76893 0.64738 0.0
H2976 H 0.07902 0.76667 0.65481 0.0
H2977 H 0.09293 0.75647 0.71475 0.0
H2978 H 0.1857 0.7503 0.73364 0.0
H2979 H 0.15221 0.742 0.72441 0.0
H2980 H 0.13358 0.74477 0.66221 0.0
C2981 C 0.06869 0.7596 0.6633 0.0
C2982 C 0.10163 0.75356 0.7032 0.0
C2983 C 0.05004 0.76102 0.65915 0.0
C2984 C 0.18018 0.75459 0.72027 0.0
C2985 C 0.16097 0.74992 0.71503 0.0
C2986 C 0.12487 0.74736 0.67382 0.0
C2987 C 0.074 0.74978 0.67866 0.0
C2988 C 0.09398 0.74943 0.68375 0.0
C2989 C 0.15319 0.75562 0.69802 0.0
C2990 C 0.13265 0.75223 0.69321 0.0
H2991 H 0.03124 0.73563 0.69401 0.0
H2992 H 0.0639 0.73328 0.70135 0.0
H2993 H 0.10021 0.74252 0.65405 0.0
H2994 H 0.19302 0.77824 0.68195 0.0
H2995 H 0.15961 0.77043 0.67302 0.0
C2996 C -0.00549 0.31814 0.44041 0.0
C2997 C -0.00037 0.31265 0.42177 0.0
C2998 C 0.00057 0.33706 0.44981 0.0
C2999 C 0.01126 0.38626 0.43937 0.0
H3000 H 0.03192 0.39885 0.49314 0.0
C3001 C 0.02321 0.4652 0.4769 0.0
C3002 C 0.01918 0.46808 0.49631 0.0
C3003 C 0.02451 0.44666 0.46803 0.0
C3004 C 0.02597 0.39562 0.47818 0.0
H3005 H 0.01545 0.32253 0.39854 0.0
H3006 H 0.02558 0.35593 0.41483 0.0
H3007 H 0.02735 0.36529 0.47735 0.0
H3008 H 0.01372 0.45394 0.52184 0.0
H3009 H 0.01508 0.42147 0.50623 0.0
H3010 H 0.00864 0.41608 0.4403 0.0
C3011 C 0.01708 0.34542 0.42218 0.0
C3012 C 0.02351 0.37641 0.46912 0.0
C3013 C 0.01135 0.32634 0.41293 0.0
C3014 C 0.017 0.45216 0.50688 0.0
C3015 C 0.01788 0.43353 0.4979 0.0
C3016 C 0.01336 0.40538 0.4485 0.0
C3017 C 0.01156 0.35098 0.44062 0.0
C3018 C 0.01596 0.37154 0.4497 0.0
C3019 C 0.02135 0.43044 0.47823 0.0
C3020 C 0.02055 0.41033 0.46813 0.0
H3021 H 0.98557 0.30787 0.44762 0.0
H3022 H -0.00399 0.34103 0.46395 0.0
H3023 H 0.00516 0.38283 0.42445 0.0
H3024 H 0.02517 0.47728 0.46846 0.0
H3025 H 0.02772 0.44506 0.45306 0.0
C3026 C 0.43733 0.25125 0.19462 0.0
C3027 C 0.43885 0.26145 0.17845 0.0
C3028 C 0.4208 0.2489 0.20372 0.0
C3029 C 0.37863 0.27012 0.21019 0.0
H3030 H 0.35624 0.21872 0.22051 0.0
C3031 C 0.30887 0.2544 0.2455 0.0
C3032 C 0.2959 0.23902 0.23496 0.0
C3033 C 0.32745 0.25762 0.2411 0.0
C3034 C 0.3624 0.23318 0.21782 0.0
H3035 H 0.4243 0.27726 0.1592 0.0
H3036 H 0.39555 0.27315 0.17505 0.0
H3037 H 0.38672 0.22358 0.20778 0.0
H3038 H 0.29226 0.21473 0.21189 0.0
H3039 H 0.3245 0.22024 0.20442 0.0
H3040 H 0.35406 0.2796 0.21977 0.0
C3041 C 0.40714 0.26706 0.18076 0.0
C3042 C 0.37987 0.23597 0.21066 0.0
C3043 C 0.42355 0.26924 0.17156 0.0
C3044 C 0.30188 0.22677 0.22022 0.0
C3045 C 0.3204 0.22981 0.21604 0.0
C3046 C 0.36123 0.26736 0.21755 0.0
C3047 C 0.4056 0.25692 0.19695 0.0
C3048 C 0.38797 0.25438 0.20636 0.0
C3049 C 0.33336 0.24529 0.22635 0.0
C3050 C 0.35277 0.24877 0.221 0.0
H3051 H 0.44891 0.24513 0.20029 0.0
H3052 H 0.42 0.24105 0.21621 0.0
H3053 H 0.38466 0.28451 0.20721 0.0
H3054 H 0.30462 0.26406 0.25694 0.0
H3055 H 0.33721 0.26965 0.24927 0.0
C3056 C 0.58598 0.50325 0.33545 0.0
C3057 C 0.60455 0.50055 0.33513 0.0
C3058 C 0.57737 0.50325 0.3527 0.0
C3059 C 0.58187 0.48698 0.40133 0.0
H3060 H 0.5452 0.51962 0.41249 0.0
C3061 C 0.55347 0.49947 0.47607 0.0
C3062 C 0.53408 0.49804 0.47614 0.0
C3063 C 0.56168 0.49887 0.4586 0.0
C3064 C 0.55529 0.5103 0.40943 0.0
H3065 H 0.62886 0.49641 0.35278 0.0
H3066 H 0.61413 0.49721 0.38301 0.0
H3067 H 0.56102 0.52174 0.38296 0.0
H3068 H 0.50803 0.49455 0.45804 0.0
H3069 H 0.52251 0.49386 0.42738 0.0
H3070 H 0.57644 0.47602 0.42819 0.0
C3071 C 0.60599 0.49873 0.36984 0.0
C3072 C 0.56434 0.51147 0.39252 0.0
C3073 C 0.61453 0.49848 0.35252 0.0
C3074 C 0.523 0.49565 0.45839 0.0
C3075 C 0.53127 0.49538 0.4409 0.0
C3076 C 0.57299 0.48601 0.41836 0.0
C3077 C 0.5872 0.50078 0.37008 0.0
C3078 C 0.57775 0.49982 0.38824 0.0
C3079 C 0.55069 0.4971 0.44089 0.0
C3080 C 0.55962 0.49765 0.42254 0.0
H3081 H 0.57785 0.50475 0.32225 0.0
H3082 H 0.56282 0.50459 0.35223 0.0
H3083 H 0.59179 0.47747 0.39834 0.0
H3084 H 0.56234 0.50119 0.48954 0.0
H3085 H 0.57669 0.50032 0.45897 0.0
C3086 C 0.2626 0.81941 0.05576 0.0
C3087 C 0.25019 0.83054 0.04824 0.0
C3088 C 0.25776 0.80801 0.07031 0.0
C3089 C 0.22634 0.80455 0.10933 0.0
H3090 H 0.24702 0.75814 0.11577 0.0
C3091 C 0.21372 0.76375 0.17514 0.0
C3092 C 0.23014 0.76152 0.1858 0.0
C3093 C 0.21417 0.76879 0.15638 0.0
C3094 C 0.24115 0.77106 0.1141 0.0
H3095 H 0.22251 0.83755 0.04946 0.0
H3096 H 0.2138 0.81711 0.07455 0.0
H3097 H 0.25034 0.7728 0.0858 0.0
H3098 H 0.25971 0.76163 0.18464 0.0
H3099 H 0.26042 0.77026 0.1516 0.0
H3100 H 0.21713 0.80272 0.13762 0.0
C3101 C 0.22752 0.81766 0.06952 0.0
C3102 C 0.24309 0.77953 0.097 0.0
C3103 C 0.23246 0.82929 0.05505 0.0
C3104 C 0.24684 0.76331 0.17683 0.0
C3105 C 0.24724 0.76817 0.15792 0.0
C3106 C 0.22417 0.79592 0.12627 0.0
C3107 C 0.24028 0.80719 0.07763 0.0
C3108 C 0.2361 0.79666 0.09459 0.0
C3109 C 0.231 0.77148 0.14776 0.0
C3110 C 0.23187 0.77934 0.12898 0.0
H3111 H 0.2764 0.82002 0.05092 0.0
H3112 H 0.26811 0.80049 0.07637 0.0
H3113 H 0.22105 0.81789 0.10821 0.0
H3114 H 0.20057 0.76236 0.18154 0.0
H3115 H 0.20142 0.77106 0.14877 0.0
C3116 C 0.91803 0.53761 0.8409 0.0
C3117 C 0.92084 0.5271 0.82326 0.0
C3118 C 0.92852 0.53607 0.85808 0.0
C3119 C 0.9552 0.50325 0.88027 0.0
H3120 H 0.97572 0.54874 0.91743 0.0
C3121 C 0.00543 0.52399 0.95722 0.0
C3122 C -0.00391 0.51007 0.96772 0.0
C3123 C -0.00221 0.5264 0.9388 0.0
C3124 C 0.97024 0.53595 0.90707 0.0
H3125 H 0.93684 0.50676 0.80978 0.0
H3126 H 0.955 0.50403 0.83971 0.0
H3127 H 0.95896 0.55263 0.88678 0.0
H3128 H 0.97179 0.48736 0.96696 0.0
H3129 H 0.95868 0.49147 0.93501 0.0
H3130 H 0.96626 0.48655 0.90057 0.0
C3131 C 0.94466 0.51338 0.8403 0.0
C3132 C 0.96048 0.53815 0.88967 0.0
C3133 C 0.93428 0.51499 0.82315 0.0
C3134 C 0.97929 0.49831 0.9593 0.0
C3135 C 0.97182 0.50055 0.94092 0.0
C3136 C 0.96481 0.50105 0.89768 0.0
C3137 C 0.94191 0.5239 0.85794 0.0
C3138 C 0.95274 0.52179 0.87617 0.0
C3139 C 0.98089 0.5147 0.93053 0.0
C3140 C 0.97225 0.51734 0.91135 0.0
H3141 H 0.90784 0.54713 0.84142 0.0
H3142 H 0.92597 0.54419 0.87152 0.0
H3143 H 0.94929 0.49036 0.87022 0.0
H3144 H 0.01838 0.53327 0.96338 0.0
H3145 H 0.00509 0.53736 0.93101 0.0
C3146 C 0.26367 0.15969 0.55335 0.0
C3147 C 0.2819 0.16525 0.54829 0.0
C3148 C 0.25827 0.16756 0.571 0.0
C3149 C 0.25491 0.17616 0.6143 0.0
H3150 H 0.27407 0.22963 0.63644 0.0
C3151 C 0.25805 0.20253 0.69606 0.0
C3152 C 0.25564 0.22161 0.70224 0.0
C3153 C 0.25823 0.19603 0.67635 0.0
C3154 C 0.26835 0.21474 0.63038 0.0
H3155 H 0.30864 0.18382 0.5578 0.0
H3156 H 0.29933 0.19726 0.5886 0.0
H3157 H 0.28015 0.21828 0.60349 0.0
H3158 H 0.25068 0.2486 0.69243 0.0
H3159 H 0.25077 0.23716 0.65789 0.0
H3160 H 0.24307 0.17262 0.64116 0.0
C3161 C 0.28909 0.18702 0.57881 0.0
C3162 C 0.27206 0.20816 0.61156 0.0
C3163 C 0.29447 0.17919 0.56116 0.0
C3164 C 0.2526 0.23382 0.68816 0.0
C3165 C 0.2528 0.22731 0.66838 0.0
C3166 C 0.25118 0.18275 0.6331 0.0
C3167 C 0.27097 0.18119 0.58405 0.0
C3168 C 0.26567 0.18868 0.60341 0.0
C3169 C 0.25598 0.20845 0.66227 0.0
C3170 C 0.25815 0.20203 0.64152 0.0
H3171 H 0.25356 0.14909 0.54376 0.0
H3172 H 0.24413 0.16293 0.57443 0.0
H3173 H 0.24987 0.16103 0.60858 0.0
H3174 H 0.26042 0.19272 0.7065 0.0
H3175 H 0.26093 0.18151 0.67225 0.0
C3176 C 0.60896 0.50688 0.21668 0.0
C3177 C 0.59987 0.4916 0.22577 0.0
C3178 C 0.60261 0.50944 0.19789 0.0
C3179 C 0.56142 0.49566 0.16145 0.0
H3180 H 0.59762 0.50819 0.12478 0.0
C3181 C 0.5389 0.50394 0.08209 0.0
C3182 C 0.54842 0.49477 0.06795 0.0
C3183 C 0.54552 0.50629 0.10173 0.0
C3184 C 0.58733 0.50464 0.13483 0.0
H3185 H 0.57706 0.46697 0.22226 0.0
H3186 H 0.56627 0.47115 0.18941 0.0
H3187 H 0.60828 0.50638 0.15834 0.0
H3188 H 0.57257 0.48126 0.06329 0.0
H3189 H 0.58387 0.48499 0.09739 0.0
H3190 H 0.54049 0.49303 0.13773 0.0
C3191 C 0.57805 0.48143 0.1969 0.0
C3192 C 0.59344 0.50383 0.15414 0.0
C3193 C 0.58434 0.47893 0.21569 0.0
C3194 C 0.5649 0.48841 0.0738 0.0
C3195 C 0.57147 0.49069 0.09338 0.0
C3196 C 0.55531 0.49639 0.14212 0.0
C3197 C 0.58708 0.49672 0.18778 0.0
C3198 C 0.58056 0.49901 0.16761 0.0
C3199 C 0.56178 0.49948 0.10761 0.0
C3200 C 0.5682 0.50057 0.12851 0.0
H3201 H 0.62092 0.51697 0.22411 0.0
H3202 H 0.60976 0.52149 0.19137 0.0
H3203 H 0.55112 0.49223 0.17153 0.0
H3204 H 0.5262 0.50909 0.07802 0.0
H3205 H 0.53786 0.51334 0.11232 0.0
C3206 C 0.24952 0.82042 0.94999 0.0
C3207 C 0.24606 0.83913 0.95616 0.0
C3208 C 0.24399 0.81159 0.93096 0.0
C3209 C 0.24091 0.82501 0.88336 0.0
H3210 H 0.21514 0.7722 0.8662 0.0
C3211 C 0.23451 0.79471 0.80285 0.0
C3212 C 0.23573 0.77509 0.79783 0.0
C3213 C 0.2321 0.80182 0.82185 0.0
C3214 C 0.22257 0.7869 0.87073 0.0
H3215 H 0.23342 0.86293 0.94756 0.0
H3216 H 0.22429 0.84769 0.91395 0.0
H3217 H 0.21701 0.78559 0.90049 0.0
H3218 H 0.23516 0.7474 0.80866 0.0
H3219 H 0.23216 0.76003 0.84227 0.0
H3220 H 0.2478 0.82618 0.85432 0.0
C3221 C 0.23103 0.83982 0.92401 0.0
C3222 C 0.22345 0.79459 0.89034 0.0
C3223 C 0.2362 0.84848 0.9432 0.0
C3224 C 0.23414 0.76258 0.81215 0.0
C3225 C 0.23229 0.76985 0.8314 0.0
C3226 C 0.24043 0.81723 0.86393 0.0
C3227 C 0.23525 0.82148 0.91765 0.0
C3228 C 0.23266 0.8137 0.89678 0.0
C3229 C 0.23155 0.78969 0.83658 0.0
C3230 C 0.23129 0.79804 0.85728 0.0
H3231 H 0.25702 0.81285 0.95973 0.0
H3232 H 0.24751 0.79752 0.92635 0.0
H3233 H 0.24844 0.83965 0.88807 0.0
H3234 H 0.23555 0.80468 0.7921 0.0
H3235 H 0.23095 0.81699 0.82498 0.0
C3236 C 0.90001 0.50808 0.70483 0.0
C3237 C 0.90156 0.49667 0.71994 0.0
C3238 C 0.90828 0.50417 0.68769 0.0
C3239 C 0.9221 0.48856 0.6498 0.0
H3240 H 0.9736 0.48229 0.65873 0.0
C3241 C 0.96897 0.48358 0.58724 0.0
C3242 C 0.98624 0.49634 0.59059 0.0
C3243 C 0.95816 0.47986 0.60256 0.0
C3244 C 0.95922 0.48395 0.65601 0.0
H3245 H 0.91187 0.47136 0.72835 0.0
H3246 H 0.92626 0.46457 0.6984 0.0
H3247 H 0.95407 0.48249 0.68569 0.0
H3248 H 0.00614 0.51436 0.6128 0.0
H3249 H 0.98725 0.50784 0.63954 0.0
H3250 H 0.92747 0.49078 0.62027 0.0
C3251 C 0.91888 0.47669 0.69996 0.0
C3252 C 0.94798 0.48387 0.67138 0.0
C3253 C 0.91054 0.48054 0.71706 0.0
C3254 C 0.99289 0.5045 0.60972 0.0
C3255 C 0.98211 0.50069 0.62506 0.0
C3256 C 0.93331 0.48853 0.6344 0.0
C3257 C 0.91829 0.4888 0.68534 0.0
C3258 C 0.92941 0.48656 0.66852 0.0
C3259 C 0.96444 0.4887 0.62156 0.0
C3260 C 0.95209 0.48661 0.63744 0.0
H3261 H 0.89313 0.52056 0.70656 0.0
H3262 H 0.90767 0.51382 0.67672 0.0
H3263 H 0.90781 0.49053 0.64714 0.0
H3264 H 0.96347 0.47695 0.57268 0.0
H3265 H 0.94472 0.47034 0.59948 0.0
C3266 C 0.29544 0.1904 0.45192 0.0
C3267 C 0.28252 0.17425 0.45545 0.0
C3268 C 0.29166 0.20093 0.4367 0.0
C3269 C 0.25354 0.20891 0.40167 0.0
H3270 H 0.29392 0.2229 0.36994 0.0
C3271 C 0.24145 0.22609 0.32328 0.0
C3272 C 0.25377 0.24134 0.31718 0.0
C3273 C 0.24477 0.22015 0.34147 0.0
C3274 C 0.28256 0.21936 0.3788 0.0
H3275 H 0.25517 0.15694 0.446 0.0
H3276 H 0.24874 0.17504 0.41937 0.0
H3277 H 0.29992 0.20862 0.39949 0.0
H3278 H 0.27915 0.26249 0.32559 0.0
H3279 H 0.285 0.25202 0.3574 0.0
H3280 H 0.23609 0.21917 0.38061 0.0
C3281 C 0.26171 0.17978 0.42851 0.0
C3282 C 0.286 0.2112 0.39579 0.0
C3283 C 0.26545 0.16931 0.44377 0.0
C3284 C 0.26939 0.25069 0.32983 0.0
C3285 C 0.27279 0.24463 0.34801 0.0
C3286 C 0.25009 0.21698 0.38463 0.0
C3287 C 0.27489 0.19554 0.42457 0.0
C3288 C 0.27148 0.20562 0.40732 0.0
C3289 C 0.26056 0.22922 0.35399 0.0
C3290 C 0.26451 0.22207 0.37287 0.0
H3291 H 0.30868 0.19474 0.46069 0.0
H3292 H 0.30199 0.21319 0.43432 0.0
H3293 H 0.2421 0.20514 0.41036 0.0
H3294 H 0.22927 0.21857 0.31392 0.0
H3295 H 0.2352 0.20808 0.34552 0.0
C3296 C 0.33499 0.60983 0.49447 0.0
C3297 C 0.31699 0.59998 0.49636 0.0
C3298 C 0.35003 0.6 0.49443 0.0
C3299 C 0.36497 0.55461 0.50692 0.0
H3300 H 0.40502 0.57127 0.47568 0.0
C3301 C 0.43149 0.51936 0.5005 0.0
C3302 C 0.44748 0.53311 0.5077 0.0
C3303 C 0.41446 0.52543 0.49661 0.0
C3304 C 0.39383 0.56637 0.48431 0.0
H3305 H 0.30062 0.57202 0.49972 0.0
H3306 H 0.32677 0.55468 0.49904 0.0
H3307 H 0.37708 0.58581 0.47402 0.0
H3308 H 0.45857 0.56385 0.51565 0.0
H3309 H 0.42908 0.57442 0.5082 0.0
H3310 H 0.38194 0.53504 0.51701 0.0
C3311 C 0.32939 0.57014 0.49806 0.0
C3312 C 0.37791 0.57484 0.48358 0.0
C3313 C 0.31437 0.58007 0.4984 0.0
C3314 C 0.4464 0.55297 0.5102 0.0
C3315 C 0.42959 0.55902 0.50586 0.0
C3316 C 0.3808 0.5459 0.50738 0.0
C3317 C 0.34742 0.57995 0.49592 0.0
C3318 C 0.3635 0.56949 0.49531 0.0
C3319 C 0.41343 0.54532 0.49934 0.0
C3320 C 0.39552 0.55208 0.49644 0.0
H3321 H 0.33753 0.62514 0.49291 0.0
H3322 H 0.36375 0.60821 0.49329 0.0
H3323 H 0.35427 0.55022 0.51629 0.0
H3324 H 0.43202 0.50397 0.49856 0.0
H3325 H 0.4021 0.51465 0.49159 0.0
C3326 C 0.83418 0.90597 0.54361 0.0
C3327 C 0.81893 0.91513 0.5398 0.0
C3328 C 0.85238 0.91571 0.5428 0.0
C3329 C 0.87954 0.95882 0.52474 0.0
H3330 H 0.91902 0.94878 0.56033 0.0
C3331 C 0.95542 0.00178 0.53187 0.0
C3332 C 0.96883 0.98978 0.52945 0.0
C3333 C 0.93704 0.99373 0.53446 0.0
C3334 C 0.9081 0.95172 0.55033 0.0
H3335 H 0.81084 0.9418 0.53229 0.0
H3336 H 0.84249 0.95902 0.53155 0.0
H3337 H 0.88702 0.93265 0.56193 0.0
H3338 H 0.97376 0.96016 0.5286 0.0
H3339 H 0.94185 0.94625 0.53365 0.0
H3340 H 0.90078 0.97821 0.51345 0.0
C3341 C 0.84048 0.9441 0.53461 0.0
C3342 C 0.88978 0.94236 0.5511 0.0
C3343 C 0.82228 0.93425 0.53513 0.0
C3344 C 0.9637 0.96975 0.53037 0.0
C3345 C 0.94547 0.9618 0.53334 0.0
C3346 C 0.89784 0.96841 0.52419 0.0
C3347 C 0.85581 0.935 0.53849 0.0
C3348 C 0.87526 0.94556 0.53813 0.0
C3349 C 0.9319 0.97364 0.53511 0.0
C3350 C 0.91232 0.96476 0.53681 0.0
H3351 H 0.83212 0.89128 0.54724 0.0
H3352 H 0.86375 0.90803 0.54547 0.0
H3353 H 0.86885 0.96147 0.51431 0.0
H3354 H 0.95898 0.01725 0.53111 0.0
H3355 H 0.92681 0.00316 0.53587 0.0
C3356 C 0.84074 0.06506 0.24771 0.0
C3357 C 0.83997 0.05815 0.26584 0.0
C3358 C 0.8297 0.07845 0.24269 0.0
C3359 C 0.78881 0.10029 0.2563 0.0
H3360 H 0.81376 0.1442 0.23358 0.0
C3361 C 0.76293 0.17386 0.25678 0.0
C3362 C 0.76597 0.18392 0.2407 0.0
C3363 C 0.76948 0.15639 0.25789 0.0
C3364 C 0.80644 0.13189 0.23961 0.0
H3365 H 0.82654 0.05956 0.29267 0.0
H3366 H 0.80763 0.08305 0.28404 0.0
H3367 H 0.82993 0.11755 0.23882 0.0
H3368 H 0.7769 0.18289 0.21251 0.0
H3369 H 0.78797 0.15239 0.21431 0.0
H3370 H 0.76545 0.11501 0.25749 0.0
C3371 C 0.81655 0.07795 0.27359 0.0
C3372 C 0.81573 0.11658 0.2426 0.0
C3373 C 0.82755 0.06457 0.27859 0.0
C3374 C 0.77462 0.17563 0.22525 0.0
C3375 C 0.78103 0.15819 0.22631 0.0
C3376 C 0.7795 0.11566 0.25332 0.0
C3377 C 0.81766 0.08524 0.25569 0.0
C3378 C 0.80711 0.1007 0.25116 0.0
C3379 C 0.77907 0.14868 0.24288 0.0
C3380 C 0.78828 0.13171 0.24508 0.0
H3381 H 0.85004 0.06033 0.23748 0.0
H3382 H 0.83069 0.08359 0.22867 0.0
H3383 H 0.7817 0.08813 0.2627 0.0
H3384 H 0.75632 0.17993 0.2689 0.0
H3385 H 0.76782 0.14946 0.2709 0.0
C3386 C 0.71259 0.08522 0.03911 0.0
C3387 C 0.71857 0.10026 0.02812 0.0
C3388 C 0.69392 0.08084 0.04281 0.0
C3389 C 0.65021 0.10005 0.04399 0.0
H3390 H 0.62629 0.04624 0.02914 0.0
C3391 C 0.57122 0.07728 0.02495 0.0
C3392 C 0.56229 0.05866 0.02784 0.0
C3393 C 0.59044 0.08298 0.02926 0.0
C3394 C 0.63274 0.06125 0.03382 0.0
H3395 H 0.70984 0.12301 0.01308 0.0
H3396 H 0.67727 0.11545 0.01972 0.0
H3397 H 0.65987 0.05526 0.0289 0.0
H3398 H 0.5663 0.03189 0.03877 0.0
H3399 H 0.59983 0.04206 0.04688 0.0
H3400 H 0.62311 0.10613 0.04882 0.0
C3401 C 0.68703 0.10705 0.02543 0.0
C3402 C 0.65201 0.06642 0.0336 0.0
C3403 C 0.70564 0.11128 0.02152 0.0
C3404 C 0.57282 0.04627 0.03621 0.0
C3405 C 0.59206 0.05206 0.04072 0.0
C3406 C 0.63095 0.09486 0.04445 0.0
C3407 C 0.68093 0.09158 0.03583 0.0
C3408 C 0.66087 0.08592 0.03825 0.0
C3409 C 0.60119 0.07028 0.03679 0.0
C3410 C 0.6219 0.07546 0.0389 0.0
H3411 H 0.72221 0.07649 0.04444 0.0
H3412 H 0.68959 0.06892 0.05098 0.0
H3413 H 0.65675 0.11517 0.04788 0.0
H3414 H 0.56353 0.08718 0.0185 0.0
H3415 H 0.59694 0.09701 0.02577 0.0
C3416 C 0.18692 0.4511 0.30018 0.0
C3417 C 0.1774 0.45674 0.28414 0.0
C3418 C 0.20034 0.43936 0.29753 0.0
C3419 C 0.21455 0.40427 0.26028 0.0
H3420 H 0.25486 0.40546 0.30008 0.0
C3421 C 0.26098 0.34629 0.25587 0.0
C3422 C 0.2596 0.3358 0.27186 0.0
C3423 C 0.25552 0.36444 0.25671 0.0
C3424 C 0.24376 0.4051 0.28879 0.0
H3425 H 0.17509 0.45522 0.25276 0.0
H3426 H 0.19902 0.43524 0.24812 0.0
H3427 H 0.23646 0.43142 0.30201 0.0
H3428 H 0.25302 0.3368 0.30179 0.0
H3429 H 0.24386 0.3687 0.30336 0.0
H3430 H 0.22187 0.37788 0.24716 0.0
C3431 C 0.19572 0.4394 0.26275 0.0
C3432 C 0.2331 0.41984 0.28994 0.0
C3433 C 0.18204 0.45092 0.2654 0.0
C3434 C 0.25416 0.34451 0.28922 0.0
C3435 C 0.24899 0.3628 0.29015 0.0
C3436 C 0.22541 0.38974 0.25897 0.0
C3437 C 0.20483 0.4332 0.27878 0.0
C3438 C 0.21796 0.41927 0.27604 0.0
C3439 C 0.24894 0.37256 0.27367 0.0
C3440 C 0.23975 0.38972 0.2735 0.0
H3441 H 0.18361 0.45524 0.31482 0.0
H3442 H 0.20669 0.43459 0.31022 0.0
H3443 H 0.20289 0.4031 0.24945 0.0
H3444 H 0.26512 0.33996 0.24228 0.0
H3445 H 0.2557 0.37176 0.24386 0.0
C3446 C 0.19824 0.40422 0.0334 0.0
C3447 C 0.212 0.40824 0.02063 0.0
C3448 C 0.18201 0.41218 0.03201 0.0
C3449 C 0.15259 0.43559 -0.00015 0.0
H3450 H 0.13695 0.4568 0.04863 0.0
C3451 C 0.09144 0.47896 0.00452 0.0
C3452 C 0.07905 0.47376 0.01833 0.0
C3453 C 0.10827 0.47192 0.0041 0.0
C3454 C 0.14104 0.45084 0.03488 0.0
H3455 H 0.21908 0.42311 -0.00416 0.0
H3456 H 0.19077 0.43703 0.99349 0.0
H3457 H 0.16443 0.44158 0.04875 0.0
H3458 H 0.07473 0.45731 0.04265 0.0
H3459 H 0.10372 0.44511 0.04183 0.0
H3460 H 0.129 0.4448 0.98603 0.0
C3461 C 0.19252 0.42768 0.00453 0.0
C3462 C 0.15677 0.44205 0.03495 0.0
C3463 C 0.20878 0.41974 0.00593 0.0
C3464 C 0.08392 0.46163 0.03179 0.0
C3465 C 0.10066 0.45472 0.03143 0.0
C3466 C 0.13678 0.44439 -0.00022 0.0
C3467 C 0.17913 0.42433 0.01782 0.0
C3468 C 0.1626 0.43408 0.01747 0.0
C3469 C 0.11305 0.45972 0.01759 0.0
C3470 C 0.13068 0.45186 0.01733 0.0
H3471 H 0.20021 0.39533 0.04482 0.0
H3472 H 0.1718 0.40899 0.04223 0.0
H3473 H 0.15668 0.42953 0.98614 0.0
H3474 H 0.08805 0.48826 0.99393 0.0
H3475 H 0.1176 0.47613 0.99333 0.0
C3476 C 0.84645 0.95224 0.25044 0.0
C3477 C 0.83939 0.96745 0.2605 0.0
C3478 C 0.8352 0.93387 0.24542 0.0
C3479 C 0.79279 0.90465 0.26073 0.0
H3480 H 0.80031 0.86699 0.2181 0.0
C3481 C 0.75079 0.82643 0.24805 0.0
C3482 C 0.76221 0.81225 0.24775 0.0
C3483 C 0.75834 0.84571 0.24617 0.0
C3484 C 0.79802 0.87743 0.23 0.0
H3485 H 0.81478 0.97605 0.27178 0.0
H3486 H 0.79486 0.9445 0.26207 0.0
H3487 H 0.81666 0.90064 0.22056 0.0
H3488 H 0.79017 0.80682 0.24422 0.0
H3489 H 0.80322 0.84037 0.24061 0.0
H3490 H 0.77412 0.88142 0.27008 0.0
C3491 C 0.80926 0.94627 0.25885 0.0
C3492 C 0.80747 0.89667 0.23151 0.0
C3493 C 0.82062 0.96443 0.26427 0.0
C3494 C 0.78106 0.81748 0.24463 0.0
C3495 C 0.78851 0.83663 0.2424 0.0
C3496 C 0.78314 0.88555 0.25901 0.0
C3497 C 0.81656 0.93052 0.25003 0.0
C3498 C 0.80524 0.91047 0.24712 0.0
C3499 C 0.77733 0.85101 0.24358 0.0
C3500 C 0.78591 0.87168 0.24385 0.0
H3501 H 0.86094 0.95423 0.24746 0.0
H3502 H 0.84143 0.92213 0.23881 0.0
H3503 H 0.79097 0.91461 0.27323 0.0
H3504 H 0.73622 0.82281 0.25047 0.0
H3505 H 0.74944 0.85655 0.24708 0.0
C3506 C 0.68019 0.05107 0.78512 0.0
C3507 C 0.66167 0.04309 0.77825 0.0
C3508 C 0.68838 0.06927 0.78076 0.0
C3509 C 0.68056 0.10923 0.75137 0.0
H3510 H 0.71318 0.141 0.79381 0.0
C3511 C 0.69423 0.19351 0.76702 0.0
C3512 C 0.71289 0.20279 0.77131 0.0
C3513 C 0.68963 0.17322 0.76407 0.0
C3514 C 0.7043 0.13221 0.78173 0.0
H3515 H 0.63725 0.04744 0.76102 0.0
H3516 H 0.65105 0.07974 0.75431 0.0
H3517 H 0.70201 0.10692 0.79606 0.0
H3518 H 0.74145 0.19826 0.77526 0.0
H3519 H 0.73329 0.16269 0.7707 0.0
H3520 H 0.68198 0.1353 0.73784 0.0
C3521 C 0.65963 0.07178 0.76246 0.0
C3522 C 0.69795 0.11258 0.78291 0.0
C3523 C 0.65162 0.05329 0.76638 0.0
C3524 C 0.72695 0.19146 0.77192 0.0
C3525 C 0.72231 0.17117 0.76937 0.0
C3526 C 0.68662 0.12903 0.75041 0.0
C3527 C 0.67801 0.08022 0.76996 0.0
C3528 C 0.68585 0.1008 0.76783 0.0
C3529 C 0.70359 0.16191 0.76572 0.0
C3530 C 0.69843 0.14068 0.76566 0.0
H3531 H 0.6883 0.04332 0.79408 0.0
H3532 H 0.70273 0.0749 0.78626 0.0
H3533 H 0.67157 0.10062 0.73929 0.0
H3534 H 0.68314 0.20193 0.76637 0.0
H3535 H 0.67509 0.16637 0.76142 0.0
loop_
_geom_bond_atom_site_label_1
_geom_bond_atom_site_label_2
_geom_bond_distance
_geom_bond_site_symmetry_2
_ccdc_geom_bond_type
Mg0 O1 2.028 . S
Mg0 O7 1.986 . S
Mg0 O9 2.119 . S
Mg0 O10 2.251 1_455 S
Mg0 O13 2.010 . S
O1 Mg0 2.028 . S
O1 C4 1.250 . S
O2 Mg3 2.028 1_455 S
O2 C4 1.248 . S
Mg3 O2 2.028 1_655 S
Mg3 O8 2.032 . S
Mg3 O10 2.079 . S
C4 O1 1.250 . S
C4 O2 1.248 . S
C5 O6 1.264 . S
C5 O13 1.249 . S
O6 C5 1.264 . S
O7 Mg0 1.986 . S
O7 C11 1.246 . S
O8 Mg3 2.032 . S
O8 C11 1.259 1_655 S
O9 Mg0 2.119 . S
O9 C12 1.244 1_455 S
O10 Mg0 2.251 1_655 S
O10 Mg3 2.079 . S
O10 C12 1.273 . S
C11 O7 1.246 . S
C11 O8 1.259 1_455 S
C12 O9 1.244 1_655 S
C12 O10 1.273 . S
O13 Mg0 2.010 . S
O13 C5 1.249 . S
Mg14 O15 2.028 . S
Mg14 O21 1.986 . S
Mg14 O23 2.114 1_455 S
Mg14 O24 2.251 1_455 S
Mg14 O27 2.010 . S
O15 Mg14 2.028 . S
O15 C18 1.250 1_455 S
O16 Mg17 2.028 . S
O16 C18 1.248 . S
Mg17 O16 2.028 . S
Mg17 O22 2.032 . S
Mg17 O24 2.079 . S
C18 O15 1.250 1_655 S
C18 O16 1.248 . S
C19 O20 1.264 . S
C19 O27 1.249 . S
O20 C19 1.264 . S
O21 Mg14 1.986 . S
O21 C25 1.246 . S
O22 Mg17 2.032 . S
O22 C25 1.259 1_655 S
O23 Mg14 2.114 1_655 S
O23 C26 1.252 . S
O24 Mg14 2.251 1_655 S
O24 Mg17 2.079 . S
O24 C26 1.273 . S
C25 O21 1.246 . S
C25 O22 1.259 1_455 S
C26 O23 1.252 . S
C26 O24 1.273 . S
O27 Mg14 2.010 . S
O27 C19 1.249 . S
Mg28 O29 2.028 . S
Mg28 O35 1.986 . S
Mg28 O37 2.114 . S
Mg28 O38 2.251 . S
Mg28 O41 2.010 . S
O29 Mg28 2.028 . S
O29 C32 1.250 . S
O30 Mg31 2.028 . S
O30 C32 1.248 . S
Mg31 O30 2.028 . S
Mg31 O36 2.032 . S
Mg31 O38 2.079 . S
C32 O29 1.250 . S
C32 O30 1.248 . S
C33 O34 1.264 . S
C33 O41 1.249 . S
O34 C33 1.264 . S
O35 Mg28 1.986 . S
O35 C39 1.246 . S
O36 Mg31 2.032 . S
O36 C39 1.259 . S
O37 Mg28 2.114 . S
O37 C40 1.252 . S
O38 Mg28 2.251 . S
O38 Mg31 2.079 . S
O38 C40 1.273 . S
C39 O35 1.246 . S
C39 O36 1.259 . S
C40 O37 1.252 . S
C40 O38 1.273 . S
O41 Mg28 2.010 . S
O41 C33 1.249 . S
Mg42 O43 2.028 . S
Mg42 O49 1.986 . S
Mg42 O51 2.114 . S
Mg42 O52 2.251 . S
Mg42 O55 2.010 . S
O43 Mg42 2.028 . S
O43 C46 1.250 . S
O44 Mg45 2.028 . S
O44 C46 1.248 . S
Mg45 O44 2.028 . S
Mg45 O50 2.032 . S
Mg45 O52 2.079 . S
C46 O43 1.250 . S
C46 O44 1.248 . S
C47 O48 1.264 . S
C47 O55 1.249 . S
O48 C47 1.264 . S
O49 Mg42 1.986 . S
O49 C53 1.246 . S
O50 Mg45 2.032 . S
O50 C53 1.259 . S
O51 Mg42 2.114 . S
O51 C54 1.252 . S
O52 Mg42 2.251 . S
O52 Mg45 2.079 . S
O52 C54 1.273 . S
C53 O49 1.246 . S
C53 O50 1.259 . S
C54 O51 1.252 . S
C54 O52 1.273 . S
O55 Mg42 2.010 . S
O55 C47 1.249 . S
Mg56 O57 2.028 . S
Mg56 O63 1.986 . S
Mg56 O65 2.114 . S
Mg56 O66 2.251 1_455 S
Mg56 O69 2.010 . S
O57 Mg56 2.028 . S
O57 C60 1.250 . S
O58 Mg59 2.028 1_455 S
O58 C60 1.248 . S
Mg59 O58 2.028 1_655 S
Mg59 O64 2.032 1_655 S
Mg59 O66 2.079 . S
C60 O57 1.250 . S
C60 O58 1.248 . S
C61 O62 1.264 . S
C61 O69 1.249 . S
O62 C61 1.264 . S
O63 Mg56 1.986 . S
O63 C67 1.246 . S
O64 Mg59 2.032 1_455 S
O64 C67 1.259 . S
O65 Mg56 2.114 . S
O65 C68 1.252 1_455 S
O66 Mg56 2.251 1_655 S
O66 Mg59 2.079 . S
O66 C68 1.273 . S
C67 O63 1.246 . S
C67 O64 1.259 . S
C68 O65 1.252 1_655 S
C68 O66 1.273 . S
O69 Mg56 2.010 . S
O69 C61 1.249 . S
Mg70 O71 2.028 . S
Mg70 O77 1.986 . S
Mg70 O79 2.114 . S
Mg70 O80 2.251 . S
Mg70 O83 2.010 . S
O71 Mg70 2.028 . S
O71 C74 1.250 . S
O72 Mg73 2.028 . S
O72 C74 1.248 . S
Mg73 O72 2.028 . S
Mg73 O78 2.032 . S
Mg73 O80 2.079 . S
C74 O71 1.250 . S
C74 O72 1.248 . S
C75 O76 1.264 . S
C75 O83 1.249 . S
O76 C75 1.264 . S
O77 Mg70 1.986 . S
O77 C81 1.246 . S
O78 Mg73 2.032 . S
O78 C81 1.259 . S
O79 Mg70 2.114 . S
O79 C82 1.252 . S
O80 Mg70 2.251 . S
O80 Mg73 2.079 . S
O80 C82 1.273 . S
C81 O77 1.246 . S
C81 O78 1.259 . S
C82 O79 1.252 . S
C82 O80 1.273 . S
O83 Mg70 2.010 . S
O83 C75 1.249 . S
Mg84 O85 2.028 . S
Mg84 O91 1.986 . S
Mg84 O93 2.114 . S
Mg84 O94 2.251 . S
Mg84 O97 2.010 . S
O85 Mg84 2.028 . S
O85 C88 1.250 . S
O86 Mg87 2.028 . S
O86 C88 1.248 . S
Mg87 O86 2.028 . S
Mg87 O92 2.032 . S
Mg87 O94 2.079 . S
C88 O85 1.250 . S
C88 O86 1.248 . S
C89 O90 1.264 . S
C89 O97 1.249 . S
O90 C89 1.264 . S
O91 Mg84 1.986 . S
O91 C95 1.246 . S
O92 Mg87 2.032 . S
O92 C95 1.259 . S
O93 Mg84 2.114 . S
O93 C96 1.252 . S
O94 Mg84 2.251 . S
O94 Mg87 2.079 . S
O94 C96 1.273 . S
C95 O91 1.246 . S
C95 O92 1.259 . S
C96 O93 1.252 . S
C96 O94 1.273 . S
O97 Mg84 2.010 . S
O97 C89 1.249 . S
Mg98 O99 2.027 1_655 S
Mg98 O105 1.983 1_655 S
Mg98 O107 2.121 . S
Mg98 O108 2.264 . S
Mg98 O111 1.999 1_655 S
O99 Mg98 2.027 1_455 S
O99 C102 1.246 1_455 S
O100 Mg101 2.028 . S
O100 C102 1.253 . S
Mg101 O100 2.028 . S
Mg101 O106 2.032 . S
Mg101 O108 2.079 . S
C102 O99 1.246 1_655 S
C102 O100 1.253 . S
C103 O104 1.264 . S
C103 O111 1.249 . S
O104 C103 1.264 . S
O105 Mg98 1.983 1_455 S
O105 C109 1.246 1_455 S
O106 Mg101 2.032 . S
O106 C109 1.259 . S
O107 Mg98 2.121 . S
O107 C110 1.252 . S
O108 Mg98 2.264 . S
O108 Mg101 2.079 . S
O108 C110 1.273 . S
C109 O105 1.246 1_655 S
C109 O106 1.259 . S
C110 O107 1.252 . S
C110 O108 1.273 . S
O111 Mg98 1.999 1_455 S
O111 C103 1.249 . S
Mg112 O113 2.028 . S
Mg112 O119 1.986 . S
Mg112 O121 2.114 . S
Mg112 O122 2.251 . S
Mg112 O125 2.010 . S
O113 Mg112 2.028 . S
O113 C116 1.250 1_545 S
O114 Mg115 2.028 . S
O114 C116 1.248 1_545 S
Mg115 O114 2.028 . S
Mg115 O120 2.032 . S
Mg115 O122 2.079 . S
C116 O113 1.250 1_565 S
C116 O114 1.248 1_565 S
C117 O118 1.264 . S
C117 O125 1.249 . S
O118 C117 1.264 . S
O119 Mg112 1.986 . S
O119 C123 1.246 . S
O120 Mg115 2.032 . S
O120 C123 1.259 . S
O121 Mg112 2.114 . S
O121 C124 1.252 . S
O122 Mg112 2.251 . S
O122 Mg115 2.079 . S
O122 C124 1.273 . S
C123 O119 1.246 . S
C123 O120 1.259 . S
C124 O121 1.252 . S
C124 O122 1.273 . S
O125 Mg112 2.010 . S
O125 C117 1.249 . S
Mg126 O127 2.028 . S
Mg126 O133 1.986 . S
Mg126 O135 2.114 . S
Mg126 O136 2.251 . S
Mg126 O139 2.010 . S
O127 Mg126 2.028 . S
O127 C130 1.250 . S
O128 Mg129 2.028 . S
O128 C130 1.248 . S
Mg129 O128 2.028 . S
Mg129 O134 2.032 . S
Mg129 O136 2.079 . S
C130 O127 1.250 . S
C130 O128 1.248 . S
C131 O132 1.264 . S
C131 O139 1.249 . S
O132 C131 1.264 . S
O133 Mg126 1.986 . S
O133 C137 1.246 . S
O134 Mg129 2.032 . S
O134 C137 1.259 . S
O135 Mg126 2.114 . S
O135 C138 1.252 . S
O136 Mg126 2.251 . S
O136 Mg129 2.079 . S
O136 C138 1.273 . S
C137 O133 1.246 . S
C137 O134 1.259 . S
C138 O135 1.252 . S
C138 O136 1.273 . S
O139 Mg126 2.010 . S
O139 C131 1.249 . S
Mg140 O141 2.028 1_565 S
Mg140 O147 1.986 . S
Mg140 O149 2.114 1_565 S
Mg140 O150 2.251 1_565 S
Mg140 O153 2.010 . S
O141 Mg140 2.028 1_545 S
O141 C144 1.250 . S
O142 Mg143 2.028 . S
O142 C144 1.248 . S
Mg143 O142 2.028 . S
Mg143 O148 2.032 1_545 S
Mg143 O150 2.079 . S
C144 O141 1.250 . S
C144 O142 1.248 . S
C145 O146 1.264 . S
C145 O153 1.249 . S
O146 C145 1.264 . S
O147 Mg140 1.986 . S
O147 C151 1.246 . S
O148 Mg143 2.032 1_565 S
O148 C151 1.259 . S
O149 Mg140 2.114 1_545 S
O149 C152 1.252 . S
O150 Mg140 2.251 1_545 S
O150 Mg143 2.079 . S
O150 C152 1.273 . S
C151 O147 1.246 . S
C151 O148 1.259 . S
C152 O149 1.252 . S
C152 O150 1.273 . S
O153 Mg140 2.010 . S
O153 C145 1.249 . S
Mg154 O155 2.028 . S
Mg154 O161 1.986 . S
Mg154 O163 2.114 . S
Mg154 O164 2.251 . S
Mg154 O167 2.010 . S
O155 Mg154 2.028 . S
O155 C158 1.250 1_554 S
O156 Mg157 2.029 1_556 S
O156 C158 1.247 . S
Mg157 O156 2.029 1_554 S
Mg157 O162 2.032 . S
Mg157 O164 2.079 . S
C158 O155 1.250 1_556 S
C158 O156 1.247 . S
C159 O160 1.264 . S
C159 O167 1.249 . S
O160 C159 1.264 . S
O161 Mg154 1.986 . S
O161 C165 1.246 . S
O162 Mg157 2.032 . S
O162 C165 1.259 . S
O163 Mg154 2.114 . S
O163 C166 1.252 . S
O164 Mg154 2.251 . S
O164 Mg157 2.079 . S
O164 C166 1.273 . S
C165 O161 1.246 . S
C165 O162 1.259 . S
C166 O163 1.252 . S
C166 O164 1.273 . S
O167 Mg154 2.010 . S
O167 C159 1.249 . S
Mg168 O169 2.028 . S
Mg168 O175 1.986 . S
Mg168 O177 2.114 . S
Mg168 O178 2.251 . S
Mg168 O181 2.010 . S
O169 Mg168 2.028 . S
O169 C172 1.250 . S
O170 Mg171 2.028 . S
O170 C172 1.248 . S
Mg171 O170 2.028 . S
Mg171 O176 2.032 . S
Mg171 O178 2.079 . S
C172 O169 1.250 . S
C172 O170 1.248 . S
C173 O174 1.264 . S
C173 O181 1.249 . S
O174 C173 1.264 . S
O175 Mg168 1.986 . S
O175 C179 1.246 . S
O176 Mg171 2.032 . S
O176 C179 1.259 . S
O177 Mg168 2.114 . S
O177 C180 1.252 . S
O178 Mg168 2.251 . S
O178 Mg171 2.079 . S
O178 C180 1.273 . S
C179 O175 1.246 . S
C179 O176 1.259 . S
C180 O177 1.252 . S
C180 O178 1.273 . S
O181 Mg168 2.010 . S
O181 C173 1.249 . S
Mg182 O183 2.028 . S
Mg182 O189 1.986 1_554 S
Mg182 O191 2.114 . S
Mg182 O192 2.251 . S
Mg182 O195 2.010 . S
O183 Mg182 2.028 . S
O183 C186 1.250 . S
O184 Mg185 2.028 . S
O184 C186 1.248 . S
Mg185 O184 2.028 . S
Mg185 O190 2.040 . S
Mg185 O192 2.079 . S
C186 O183 1.250 . S
C186 O184 1.248 . S
C187 O188 1.240 1_554 S
C187 O195 1.249 . S
O188 C187 1.240 1_556 S
O189 Mg182 1.986 1_556 S
O189 C193 1.246 . S
O190 Mg185 2.040 . S
O190 C193 1.255 1_554 S
O191 Mg182 2.114 . S
O191 C194 1.252 . S
O192 Mg182 2.251 . S
O192 Mg185 2.079 . S
O192 C194 1.273 . S
C193 O189 1.246 . S
C193 O190 1.255 1_556 S
C194 O191 1.252 . S
C194 O192 1.273 . S
O195 Mg182 2.010 . S
O195 C187 1.249 . S
Mg196 O197 2.028 . S
Mg196 O203 1.986 . S
Mg196 O205 2.114 . S
Mg196 O206 2.251 . S
Mg196 O209 2.010 . S
O197 Mg196 2.028 . S
O197 C200 1.250 . S
O198 Mg199 2.028 . S
O198 C200 1.248 . S
Mg199 O198 2.028 . S
Mg199 O204 2.032 . S
Mg199 O206 2.079 . S
C200 O197 1.250 . S
C200 O198 1.248 . S
C201 O202 1.264 . S
C201 O209 1.249 . S
O202 C201 1.264 . S
O203 Mg196 1.986 . S
O203 C207 1.246 . S
O204 Mg199 2.032 . S
O204 C207 1.259 . S
O205 Mg196 2.114 . S
O205 C208 1.252 . S
O206 Mg196 2.251 . S
O206 Mg199 2.079 . S
O206 C208 1.273 . S
C207 O203 1.246 . S
C207 O204 1.259 . S
C208 O205 1.252 . S
C208 O206 1.273 . S
O209 Mg196 2.010 . S
O209 C201 1.249 . S
Mg210 O211 2.028 . S
Mg210 O217 1.986 . S
Mg210 O219 2.114 . S
Mg210 O220 2.251 . S
Mg210 O223 2.010 . S
O211 Mg210 2.028 . S
O211 C214 1.250 . S
O212 Mg213 2.028 . S
O212 C214 1.248 . S
Mg213 O212 2.028 . S
Mg213 O218 2.032 . S
Mg213 O220 2.079 . S
C214 O211 1.250 . S
C214 O212 1.248 . S
C215 O216 1.264 . S
C215 O223 1.249 . S
O216 C215 1.264 . S
O217 Mg210 1.986 . S
O217 C221 1.246 . S
O218 Mg213 2.032 . S
O218 C221 1.259 . S
O219 Mg210 2.114 . S
O219 C222 1.252 . S
O220 Mg210 2.251 . S
O220 Mg213 2.079 . S
O220 C222 1.273 . S
C221 O217 1.246 . S
C221 O218 1.259 . S
C222 O219 1.252 . S
C222 O220 1.273 . S
O223 Mg210 2.010 . S
O223 C215 1.249 . S
Mg224 O225 2.028 1_545 S
Mg224 O231 1.986 . S
Mg224 O233 2.114 . S
Mg224 O234 2.251 . S
Mg224 O237 2.010 . S
O225 Mg224 2.028 1_565 S
O225 C228 1.250 . S
O226 Mg227 2.028 1_565 S
O226 C228 1.248 . S
Mg227 O226 2.028 1_545 S
Mg227 O232 2.032 . S
Mg227 O234 2.079 . S
C228 O225 1.250 . S
C228 O226 1.248 . S
C229 O230 1.264 . S
C229 O237 1.249 . S
O230 C229 1.264 . S
O231 Mg224 1.986 . S
O231 C235 1.246 . S
O232 Mg227 2.032 . S
O232 C235 1.259 . S
O233 Mg224 2.114 . S
O233 C236 1.252 . S
O234 Mg224 2.251 . S
O234 Mg227 2.079 . S
O234 C236 1.273 . S
C235 O231 1.246 . S
C235 O232 1.259 . S
C236 O233 1.252 . S
C236 O234 1.273 . S
O237 Mg224 2.010 . S
O237 C229 1.249 . S
Mg238 O239 2.028 . S
Mg238 O245 1.986 . S
Mg238 O247 2.114 . S
Mg238 O248 2.251 . S
Mg238 O251 2.010 . S
O239 Mg238 2.028 . S
O239 C242 1.250 . S
O240 Mg241 2.028 . S
O240 C242 1.248 . S
Mg241 O240 2.028 . S
Mg241 O246 2.032 . S
Mg241 O248 2.079 . S
C242 O239 1.250 . S
C242 O240 1.248 . S
C243 O244 1.264 . S
C243 O251 1.249 . S
O244 C243 1.264 . S
O245 Mg238 1.986 . S
O245 C249 1.246 . S
O246 Mg241 2.032 . S
O246 C249 1.259 . S
O247 Mg238 2.114 . S
O247 C250 1.252 . S
O248 Mg238 2.251 . S
O248 Mg241 2.079 . S
O248 C250 1.273 . S
C249 O245 1.246 . S
C249 O246 1.259 . S
C250 O247 1.252 . S
C250 O248 1.273 . S
O251 Mg238 2.010 . S
O251 C243 1.249 . S
Mg252 O253 2.028 . S
Mg252 O259 1.986 . S
Mg252 O261 2.114 . S
Mg252 O262 2.251 . S
Mg252 O265 2.010 . S
O253 Mg252 2.028 . S
O253 C256 1.250 . S
O254 Mg255 2.028 . S
O254 C256 1.248 . S
Mg255 O254 2.028 . S
Mg255 O260 2.032 . S
Mg255 O262 2.079 . S
C256 O253 1.250 . S
C256 O254 1.248 . S
C257 O258 1.264 . S
C257 O265 1.249 . S
O258 C257 1.264 . S
O259 Mg252 1.986 . S
O259 C263 1.246 . S
O260 Mg255 2.032 . S
O260 C263 1.259 . S
O261 Mg252 2.114 . S
O261 C264 1.252 . S
O262 Mg252 2.251 . S
O262 Mg255 2.079 . S
O262 C264 1.273 . S
C263 O259 1.246 . S
C263 O260 1.259 . S
C264 O261 1.252 . S
C264 O262 1.273 . S
O265 Mg252 2.010 . S
O265 C257 1.249 . S
Mg266 O267 2.028 1_565 S
Mg266 O273 1.986 . S
Mg266 O275 2.114 1_565 S
Mg266 O276 2.251 . S
Mg266 O279 2.010 . S
O267 Mg266 2.028 1_545 S
O267 C270 1.250 . S
O268 Mg269 2.028 . S
O268 C270 1.248 . S
Mg269 O268 2.028 . S
Mg269 O274 2.032 1_545 S
Mg269 O276 2.079 1_545 S
C270 O267 1.250 . S
C270 O268 1.248 . S
C271 O272 1.264 . S
C271 O279 1.249 . S
O272 C271 1.264 . S
O273 Mg266 1.986 . S
O273 C277 1.246 . S
O274 Mg269 2.032 1_565 S
O274 C277 1.259 . S
O275 Mg266 2.114 1_545 S
O275 C278 1.252 . S
O276 Mg266 2.251 . S
O276 Mg269 2.079 1_565 S
O276 C278 1.273 1_565 S
C277 O273 1.246 . S
C277 O274 1.259 . S
C278 O275 1.252 . S
C278 O276 1.273 1_545 S
O279 Mg266 2.010 . S
O279 C271 1.249 . S
Mg280 O281 2.028 1_556 S
Mg280 O287 1.986 . S
Mg280 O289 2.114 1_556 S
Mg280 O290 2.251 . S
Mg280 O293 2.010 . S
O281 Mg280 2.028 1_554 S
O281 C284 1.250 . S
O282 Mg283 2.028 . S
O282 C284 1.248 . S
Mg283 O282 2.028 . S
Mg283 O288 2.032 1_554 S
Mg283 O290 2.079 1_554 S
C284 O281 1.250 . S
C284 O282 1.248 . S
C285 O286 1.264 . S
C285 O293 1.249 . S
O286 C285 1.264 . S
O287 Mg280 1.986 . S
O287 C291 1.246 . S
O288 Mg283 2.032 1_556 S
O288 C291 1.259 . S
O289 Mg280 2.114 1_554 S
O289 C292 1.252 . S
O290 Mg280 2.251 . S
O290 Mg283 2.079 1_556 S
O290 C292 1.273 1_556 S
C291 O287 1.246 . S
C291 O288 1.259 . S
C292 O289 1.252 . S
C292 O290 1.273 1_554 S
O293 Mg280 2.010 . S
O293 C285 1.249 . S
Mg294 O295 2.028 . S
Mg294 O301 1.986 . S
Mg294 O303 2.114 . S
Mg294 O304 2.251 . S
Mg294 O307 2.010 . S
O295 Mg294 2.028 . S
O295 C298 1.250 . S
O296 Mg297 2.028 . S
O296 C298 1.248 . S
Mg297 O296 2.028 . S
Mg297 O302 2.032 . S
Mg297 O304 2.079 . S
C298 O295 1.250 . S
C298 O296 1.248 . S
C299 O300 1.264 . S
C299 O307 1.249 . S
O300 C299 1.264 . S
O301 Mg294 1.986 . S
O301 C305 1.246 . S
O302 Mg297 2.032 . S
O302 C305 1.259 . S
O303 Mg294 2.114 . S
O303 C306 1.252 . S
O304 Mg294 2.251 . S
O304 Mg297 2.079 . S
O304 C306 1.273 . S
C305 O301 1.246 . S
C305 O302 1.259 . S
C306 O303 1.252 . S
C306 O304 1.273 . S
O307 Mg294 2.010 . S
O307 C299 1.249 . S
Mg308 O309 2.028 . S
Mg308 O315 1.986 . S
Mg308 O317 2.114 . S
Mg308 O318 2.251 . S
Mg308 O321 2.010 . S
O309 Mg308 2.028 . S
O309 C312 1.250 . S
O310 Mg311 2.028 . S
O310 C312 1.248 . S
Mg311 O310 2.028 . S
Mg311 O316 2.032 . S
Mg311 O318 2.079 . S
C312 O309 1.250 . S
C312 O310 1.248 . S
C313 O314 1.264 . S
C313 O321 1.249 . S
O314 C313 1.264 . S
O315 Mg308 1.986 . S
O315 C319 1.246 . S
O316 Mg311 2.032 . S
O316 C319 1.259 . S
O317 Mg308 2.114 . S
O317 C320 1.252 . S
O318 Mg308 2.251 . S
O318 Mg311 2.079 . S
O318 C320 1.273 . S
C319 O315 1.246 . S
C319 O316 1.259 . S
C320 O317 1.252 . S
C320 O318 1.273 . S
O321 Mg308 2.010 . S
O321 C313 1.249 . S
Mg322 O323 2.028 . S
Mg322 O329 1.986 . S
Mg322 O331 2.114 . S
Mg322 O332 2.251 . S
Mg322 O335 2.010 . S
O323 Mg322 2.028 . S
O323 C326 1.250 . S
O324 Mg325 2.028 . S
O324 C326 1.248 . S
Mg325 O324 2.028 . S
Mg325 O330 2.032 . S
Mg325 O332 2.079 . S
C326 O323 1.250 . S
C326 O324 1.248 . S
C327 O328 1.264 . S
C327 O335 1.249 . S
O328 C327 1.264 . S
O329 Mg322 1.986 . S
O329 C333 1.246 . S
O330 Mg325 2.032 . S
O330 C333 1.259 . S
O331 Mg322 2.114 . S
O331 C334 1.252 . S
O332 Mg322 2.251 . S
O332 Mg325 2.079 . S
O332 C334 1.273 . S
C333 O329 1.246 . S
C333 O330 1.259 . S
C334 O331 1.252 . S
C334 O332 1.273 . S
O335 Mg322 2.010 . S
O335 C327 1.249 . S
Zn336 O342 1.969 . S
Zn336 O343 1.965 1_565 S
Zn336 O347 2.024 . S
Zn336 O352 1.969 1_565 S
Zn337 O344 1.969 1_654 S
Zn337 O350 1.969 1_554 S
Zn337 O351 1.965 . S
Zn337 O353 2.024 1_655 S
C338 O339 1.229 . S
C338 O347 1.058 . S
O339 C338 1.229 . S
C340 O341 1.229 1_454 S
C340 O353 1.058 . S
O341 C340 1.229 1_656 S
O342 Zn336 1.969 . S
O342 C345 1.267 . S
O343 Zn336 1.965 1_545 S
O343 C354 1.260 1_554 S
O344 Zn337 1.969 1_456 S
O344 C354 1.258 . S
C345 O342 1.267 . S
C345 O346 1.228 . S
O346 C345 1.228 . S
O347 Zn336 2.024 . S
O347 C338 1.058 . S
C348 O349 1.228 . S
C348 O350 1.267 1_554 S
O349 C348 1.228 . S
O350 Zn337 1.969 1_556 S
O350 C348 1.267 1_556 S
O351 Zn337 1.965 . S
O351 C355 1.274 . S
O352 Zn336 1.969 1_545 S
O352 C355 1.233 1_455 S
O353 Zn337 2.024 1_455 S
O353 C340 1.058 . S
C354 O343 1.260 1_556 S
C354 O344 1.258 . S
C355 O351 1.274 . S
C355 O352 1.233 1_655 S
Zn356 O362 1.969 . S
Zn356 O363 1.965 . S
Zn356 O367 2.024 . S
Zn356 O372 1.969 . S
Zn357 O364 1.969 . S
Zn357 O370 1.969 . S
Zn357 O371 1.965 . S
Zn357 O373 2.024 . S
C358 O359 1.229 . S
C358 O367 1.058 . S
O359 C358 1.229 . S
C360 O361 1.229 . S
C360 O373 1.058 . S
O361 C360 1.229 . S
O362 Zn356 1.969 . S
O362 C365 1.267 . S
O363 Zn356 1.965 . S
O363 C374 1.260 . S
O364 Zn357 1.969 . S
O364 C374 1.258 . S
C365 O362 1.267 . S
C365 O366 1.228 . S
O366 C365 1.228 . S
O367 Zn356 2.024 . S
O367 C358 1.058 . S
C368 O369 1.228 . S
C368 O370 1.267 . S
O369 C368 1.228 . S
O370 Zn357 1.969 . S
O370 C368 1.267 . S
O371 Zn357 1.965 . S
O371 C375 1.260 . S
O372 Zn356 1.969 . S
O372 C375 1.258 . S
O373 Zn357 2.024 . S
O373 C360 1.058 . S
C374 O363 1.260 . S
C374 O364 1.258 . S
C375 O371 1.260 . S
C375 O372 1.258 . S
Zn376 O382 1.969 . S
Zn376 O383 1.965 . S
Zn376 O387 2.024 . S
Zn376 O392 1.969 . S
Zn377 O384 1.969 1_565 S
Zn377 O390 1.969 . S
Zn377 O391 1.965 1_565 S
Zn377 O393 2.024 . S
C378 O379 1.229 . S
C378 O387 1.058 . S
O379 C378 1.229 . S
C380 O381 1.229 . S
C380 O393 1.058 . S
O381 C380 1.229 . S
O382 Zn376 1.969 . S
O382 C385 1.267 . S
O383 Zn376 1.965 . S
O383 C394 1.260 . S
O384 Zn377 1.969 1_545 S
O384 C394 1.258 . S
C385 O382 1.267 . S
C385 O386 1.228 . S
O386 C385 1.228 . S
O387 Zn376 2.024 . S
O387 C378 1.058 . S
C388 O389 1.228 . S
C388 O390 1.267 . S
O389 C388 1.228 . S
O390 Zn377 1.969 . S
O390 C388 1.267 . S
O391 Zn377 1.965 1_545 S
O391 C395 1.260 . S
O392 Zn376 1.969 . S
O392 C395 1.258 . S
O393 Zn377 2.024 . S
O393 C380 1.058 . S
C394 O383 1.260 . S
C394 O384 1.258 . S
C395 O391 1.260 . S
C395 O392 1.258 . S
Zn396 O402 1.969 . S
Zn396 O403 1.965 . S
Zn396 O407 2.024 . S
Zn396 O412 1.969 . S
Zn397 O404 1.969 . S
Zn397 O410 1.969 . S
Zn397 O411 1.965 . S
Zn397 O413 2.024 . S
C398 O399 1.229 . S
C398 O407 1.058 . S
O399 C398 1.229 . S
C400 O401 1.229 . S
C400 O413 1.058 . S
O401 C400 1.229 . S
O402 Zn396 1.969 . S
O402 C405 1.267 . S
O403 Zn396 1.965 . S
O403 C414 1.260 . S
O404 Zn397 1.969 . S
O404 C414 1.258 . S
C405 O402 1.267 . S
C405 O406 1.228 . S
O406 C405 1.228 . S
O407 Zn396 2.024 . S
O407 C398 1.058 . S
C408 O409 1.228 . S
C408 O410 1.267 . S
O409 C408 1.228 . S
O410 Zn397 1.969 . S
O410 C408 1.267 . S
O411 Zn397 1.965 . S
O411 C415 1.260 . S
O412 Zn396 1.969 . S
O412 C415 1.258 . S
O413 Zn397 2.024 . S
O413 C400 1.058 . S
C414 O403 1.260 . S
C414 O404 1.258 . S
C415 O411 1.260 . S
C415 O412 1.258 . S
Zn416 O422 1.969 . S
Zn416 O423 1.965 1_455 S
Zn416 O427 2.024 1_565 S
Zn416 O432 1.969 1_565 S
Zn417 O424 1.969 . S
Zn417 O430 1.969 . S
Zn417 O431 1.965 1_655 S
Zn417 O433 2.026 . S
C418 O419 1.229 1_545 S
C418 O427 1.058 . S
O419 C418 1.229 1_565 S
C420 O421 1.229 . S
C420 O433 1.065 . S
O421 C420 1.229 . S
O422 Zn416 1.969 . S
O422 C425 1.267 . S
O423 Zn416 1.965 1_655 S
O423 C434 1.260 1_565 S
O424 Zn417 1.969 . S
O424 C434 1.258 . S
C425 O422 1.267 . S
C425 O426 1.235 . S
O426 C425 1.235 . S
O427 Zn416 2.024 1_545 S
O427 C418 1.058 . S
C428 O429 1.256 . S
C428 O430 1.251 1_455 S
O429 C428 1.256 . S
O430 Zn417 1.969 . S
O430 C428 1.251 1_655 S
O431 Zn417 1.965 1_455 S
O431 C435 1.260 . S
O432 Zn416 1.969 1_545 S
O432 C435 1.258 . S
O433 Zn417 2.026 . S
O433 C420 1.065 . S
C434 O423 1.260 1_545 S
C434 O424 1.258 . S
C435 O431 1.260 . S
C435 O432 1.258 . S
Zn436 O442 1.969 . S
Zn436 O443 1.965 . S
Zn436 O447 2.024 . S
Zn436 O452 1.969 . S
Zn437 O444 1.969 . S
Zn437 O450 1.969 . S
Zn437 O451 1.965 . S
Zn437 O453 2.024 . S
C438 O439 1.229 . S
C438 O447 1.058 . S
O439 C438 1.229 . S
C440 O441 1.229 . S
C440 O453 1.058 . S
O441 C440 1.229 . S
O442 Zn436 1.969 . S
O442 C445 1.267 . S
O443 Zn436 1.965 . S
O443 C454 1.260 . S
O444 Zn437 1.969 . S
O444 C454 1.258 . S
C445 O442 1.267 . S
C445 O446 1.228 . S
O446 C445 1.228 . S
O447 Zn436 2.024 . S
O447 C438 1.058 . S
C448 O449 1.228 . S
C448 O450 1.267 . S
O449 C448 1.228 . S
O450 Zn437 1.969 . S
O450 C448 1.267 . S
O451 Zn437 1.965 . S
O451 C455 1.260 . S
O452 Zn436 1.969 . S
O452 C455 1.258 . S
O453 Zn437 2.024 . S
O453 C440 1.058 . S
C454 O443 1.260 . S
C454 O444 1.258 . S
C455 O451 1.260 . S
C455 O452 1.258 . S
Zn456 O462 1.969 1_554 S
Zn456 O463 1.965 1_545 S
Zn456 O467 2.024 . S
Zn456 O472 1.969 . S
Zn457 O464 2.001 . S
Zn457 O470 1.986 . S
Zn457 O471 1.934 1_565 S
Zn457 O473 2.012 1_565 S
C458 O459 1.229 . S
C458 O467 1.058 . S
O459 C458 1.229 . S
C460 O461 1.229 . S
C460 O473 1.058 1_565 S
O461 C460 1.229 . S
O462 Zn456 1.969 1_556 S
O462 C465 1.267 . S
O463 Zn456 1.965 1_565 S
O463 C474 1.260 . S
O464 Zn457 2.001 . S
O464 C474 1.258 . S
C465 O462 1.267 . S
C465 O466 1.228 . S
O466 C465 1.228 . S
O467 Zn456 2.024 . S
O467 C458 1.058 . S
C468 O469 1.228 . S
C468 O470 1.267 1_545 S
O469 C468 1.228 . S
O470 Zn457 1.986 . S
O470 C468 1.267 1_565 S
O471 Zn457 1.934 1_545 S
O471 C475 1.260 . S
O472 Zn456 1.969 . S
O472 C475 1.258 . S
O473 Zn457 2.012 1_545 S
O473 C460 1.058 1_545 S
C474 O463 1.260 . S
C474 O464 1.258 . S
C475 O471 1.260 . S
C475 O472 1.258 . S
Zn476 O482 1.969 . S
Zn476 O483 1.965 . S
Zn476 O487 2.024 . S
Zn476 O492 1.969 . S
Zn477 O484 1.969 . S
Zn477 O490 1.969 . S
Zn477 O491 1.965 . S
Zn477 O493 2.024 . S
C478 O479 1.229 . S
C478 O487 1.058 . S
O479 C478 1.229 . S
C480 O481 1.229 . S
C480 O493 1.058 . S
O481 C480 1.229 . S
O482 Zn476 1.969 . S
O482 C485 1.267 . S
O483 Zn476 1.965 . S
O483 C494 1.260 . S
O484 Zn477 1.969 . S
O484 C494 1.258 . S
C485 O482 1.267 . S
C485 O486 1.228 . S
O486 C485 1.228 . S
O487 Zn476 2.024 . S
O487 C478 1.058 . S
C488 O489 1.228 . S
C488 O490 1.267 . S
O489 C488 1.228 . S
O490 Zn477 1.969 . S
O490 C488 1.267 . S
O491 Zn477 1.965 . S
O491 C495 1.260 . S
O492 Zn476 1.969 . S
O492 C495 1.258 . S
O493 Zn477 2.024 . S
O493 C480 1.058 . S
C494 O483 1.260 . S
C494 O484 1.258 . S
C495 O491 1.260 . S
C495 O492 1.258 . S
Zn496 O502 1.969 . S
Zn496 O503 1.965 . S
Zn496 O507 2.024 . S
Zn496 O512 1.969 . S
Zn497 O504 1.969 1_556 S
Zn497 O510 1.969 1_556 S
Zn497 O511 1.965 1_556 S
Zn497 O513 2.024 . S
C498 O499 1.229 . S
C498 O507 1.058 . S
O499 C498 1.229 . S
C500 O501 1.229 . S
C500 O513 1.058 . S
O501 C500 1.229 . S
O502 Zn496 1.969 . S
O502 C505 1.267 . S
O503 Zn496 1.965 . S
O503 C514 1.260 . S
O504 Zn497 1.969 1_554 S
O504 C514 1.258 . S
C505 O502 1.267 . S
C505 O506 1.228 . S
O506 C505 1.228 . S
O507 Zn496 2.024 . S
O507 C498 1.058 . S
C508 O509 1.228 . S
C508 O510 1.267 1_556 S
O509 C508 1.228 . S
O510 Zn497 1.969 1_554 S
O510 C508 1.267 1_554 S
O511 Zn497 1.965 1_554 S
O511 C515 1.260 . S
O512 Zn496 1.969 . S
O512 C515 1.258 . S
O513 Zn497 2.024 . S
O513 C500 1.058 . S
C514 O503 1.260 . S
C514 O504 1.258 . S
C515 O511 1.260 . S
C515 O512 1.258 . S
Zn516 O522 1.969 . S
Zn516 O523 1.965 . S
Zn516 O527 2.024 . S
Zn516 O532 1.969 . S
Zn517 O524 1.969 . S
Zn517 O530 1.969 . S
Zn517 O531 1.965 . S
Zn517 O533 2.024 . S
C518 O519 1.229 . S
C518 O527 1.058 . S
O519 C518 1.229 . S
C520 O521 1.229 . S
C520 O533 1.058 . S
O521 C520 1.229 . S
O522 Zn516 1.969 . S
O522 C525 1.267 . S
O523 Zn516 1.965 . S
O523 C534 1.260 . S
O524 Zn517 1.969 . S
O524 C534 1.258 . S
C525 O522 1.267 . S
C525 O526 1.228 . S
O526 C525 1.228 . S
O527 Zn516 2.024 . S
O527 C518 1.058 . S
C528 O529 1.228 . S
C528 O530 1.267 . S
O529 C528 1.228 . S
O530 Zn517 1.969 . S
O530 C528 1.267 . S
O531 Zn517 1.965 . S
O531 C535 1.260 . S
O532 Zn516 1.969 . S
O532 C535 1.258 . S
O533 Zn517 2.024 . S
O533 C520 1.058 . S
C534 O523 1.260 . S
C534 O524 1.258 . S
C535 O531 1.260 . S
C535 O532 1.258 . S
Zn536 O542 1.969 . S
Zn536 O543 1.965 . S
Zn536 O547 2.024 . S
Zn536 O552 1.969 . S
Zn537 O544 1.982 . S
Zn537 O550 1.969 . S
Zn537 O551 1.965 1_655 S
Zn537 O553 2.024 . S
C538 O539 1.229 . S
C538 O547 1.058 . S
O539 C538 1.229 . S
C540 O541 1.229 . S
C540 O553 1.058 . S
O541 C540 1.229 . S
O542 Zn536 1.969 . S
O542 C545 1.267 . S
O543 Zn536 1.965 . S
O543 C554 1.260 . S
O544 Zn537 1.982 . S
O544 C554 1.242 1_655 S
C545 O542 1.267 . S
C545 O546 1.228 . S
O546 C545 1.228 . S
O547 Zn536 2.024 . S
O547 C538 1.058 . S
C548 O549 1.228 . S
C548 O550 1.267 . S
O549 C548 1.228 . S
O550 Zn537 1.969 . S
O550 C548 1.267 . S
O551 Zn537 1.965 1_455 S
O551 C555 1.260 . S
O552 Zn536 1.969 . S
O552 C555 1.258 . S
O553 Zn537 2.024 . S
O553 C540 1.058 . S
C554 O543 1.260 . S
C554 O544 1.242 1_455 S
C555 O551 1.260 . S
C555 O552 1.258 . S
Zn556 O562 1.969 . S
Zn556 O563 1.965 . S
Zn556 O567 2.024 . S
Zn556 O572 1.969 . S
Zn557 O564 1.969 . S
Zn557 O570 1.969 . S
Zn557 O571 1.965 . S
Zn557 O573 2.024 . S
C558 O559 1.229 . S
C558 O567 1.058 . S
O559 C558 1.229 . S
C560 O561 1.229 . S
C560 O573 1.058 . S
O561 C560 1.229 . S
O562 Zn556 1.969 . S
O562 C565 1.267 . S
O563 Zn556 1.965 . S
O563 C574 1.260 . S
O564 Zn557 1.969 . S
O564 C574 1.258 . S
C565 O562 1.267 . S
C565 O566 1.228 . S
O566 C565 1.228 . S
O567 Zn556 2.024 . S
O567 C558 1.058 . S
C568 O569 1.228 . S
C568 O570 1.267 . S
O569 C568 1.228 . S
O570 Zn557 1.969 . S
O570 C568 1.267 . S
O571 Zn557 1.965 . S
O571 C575 1.260 . S
O572 Zn556 1.969 . S
O572 C575 1.258 . S
O573 Zn557 2.024 . S
O573 C560 1.058 . S
C574 O563 1.260 . S
C574 O564 1.258 . S
C575 O571 1.260 . S
C575 O572 1.258 . S
Zn576 O582 1.969 . S
Zn576 O583 1.965 . S
Zn576 O587 2.024 . S
Zn576 O592 1.969 . S
Zn577 O584 1.969 . S
Zn577 O590 1.969 . S
Zn577 O591 1.965 . S
Zn577 O593 2.024 . S
C578 O579 1.229 . S
C578 O587 1.058 . S
O579 C578 1.229 . S
C580 O581 1.229 . S
C580 O593 1.058 . S
O581 C580 1.229 . S
O582 Zn576 1.969 . S
O582 C585 1.267 . S
O583 Zn576 1.965 . S
O583 C594 1.260 . S
O584 Zn577 1.969 . S
O584 C594 1.258 . S
C585 O582 1.267 . S
C585 O586 1.228 . S
O586 C585 1.228 . S
O587 Zn576 2.024 . S
O587 C578 1.058 . S
C588 O589 1.228 . S
C588 O590 1.267 . S
O589 C588 1.228 . S
O590 Zn577 1.969 . S
O590 C588 1.267 . S
O591 Zn577 1.965 . S
O591 C595 1.260 . S
O592 Zn576 1.969 . S
O592 C595 1.258 . S
O593 Zn577 2.024 . S
O593 C580 1.058 . S
C594 O583 1.260 . S
C594 O584 1.258 . S
C595 O591 1.260 . S
C595 O592 1.258 . S
Zn596 O602 1.969 . S
Zn596 O603 1.965 . S
Zn596 O607 2.024 . S
Zn596 O612 1.969 . S
Zn597 O604 1.969 . S
Zn597 O610 1.969 . S
Zn597 O611 1.965 . S
Zn597 O613 2.024 . S
C598 O599 1.229 . S
C598 O607 1.058 . S
O599 C598 1.229 . S
C600 O601 1.229 . S
C600 O613 1.058 . S
O601 C600 1.229 . S
O602 Zn596 1.969 . S
O602 C605 1.267 . S
O603 Zn596 1.965 . S
O603 C614 1.260 . S
O604 Zn597 1.969 . S
O604 C614 1.258 . S
C605 O602 1.267 . S
C605 O606 1.228 . S
O606 C605 1.228 . S
O607 Zn596 2.024 . S
O607 C598 1.058 . S
C608 O609 1.228 . S
C608 O610 1.267 . S
O609 C608 1.228 . S
O610 Zn597 1.969 . S
O610 C608 1.267 . S
O611 Zn597 1.965 . S
O611 C615 1.260 . S
O612 Zn596 1.969 . S
O612 C615 1.258 . S
O613 Zn597 2.024 . S
O613 C600 1.058 . S
C614 O603 1.260 . S
C614 O604 1.258 . S
C615 O611 1.260 . S
C615 O612 1.258 . S
Zn616 O622 1.969 . S
Zn616 O623 1.965 . S
Zn616 O627 2.024 . S
Zn616 O632 1.969 . S
Zn617 O624 1.969 . S
Zn617 O630 1.969 . S
Zn617 O631 1.965 . S
Zn617 O633 2.024 . S
C618 O619 1.229 . S
C618 O627 1.058 . S
O619 C618 1.229 . S
C620 O621 1.229 . S
C620 O633 1.058 . S
O621 C620 1.229 . S
O622 Zn616 1.969 . S
O622 C625 1.267 . S
O623 Zn616 1.965 . S
O623 C634 1.260 . S
O624 Zn617 1.969 . S
O624 C634 1.258 . S
C625 O622 1.267 . S
C625 O626 1.228 . S
O626 C625 1.228 . S
O627 Zn616 2.024 . S
O627 C618 1.058 . S
C628 O629 1.228 . S
C628 O630 1.267 . S
O629 C628 1.228 . S
O630 Zn617 1.969 . S
O630 C628 1.267 . S
O631 Zn617 1.965 . S
O631 C635 1.260 . S
O632 Zn616 1.969 . S
O632 C635 1.258 . S
O633 Zn617 2.024 . S
O633 C620 1.058 . S
C634 O623 1.260 . S
C634 O624 1.258 . S
C635 O631 1.260 . S
C635 O632 1.258 . S
Zn636 O642 1.969 . S
Zn636 O643 1.965 . S
Zn636 O647 2.024 1_655 S
Zn636 O652 1.969 1_655 S
Zn637 O644 1.969 1_554 S
Zn637 O650 1.969 . S
Zn637 O651 1.965 . S
Zn637 O653 2.024 . S
C638 O639 1.229 1_455 S
C638 O647 1.058 . S
O639 C638 1.229 1_655 S
C640 O641 1.229 . S
C640 O653 1.058 1_556 S
O641 C640 1.229 . S
O642 Zn636 1.969 . S
O642 C645 1.267 . S
O643 Zn636 1.965 . S
O643 C654 1.236 1_654 S
O644 Zn637 1.969 1_556 S
O644 C654 1.291 . S
C645 O642 1.267 . S
C645 O646 1.228 . S
O646 C645 1.228 . S
O647 Zn636 2.024 1_455 S
O647 C638 1.058 . S
C648 O649 1.228 . S
C648 O650 1.267 . S
O649 C648 1.228 . S
O650 Zn637 1.969 . S
O650 C648 1.267 . S
O651 Zn637 1.965 . S
O651 C655 1.260 . S
O652 Zn636 1.969 1_455 S
O652 C655 1.258 . S
O653 Zn637 2.024 . S
O653 C640 1.058 1_554 S
C654 O643 1.236 1_456 S
C654 O644 1.291 . S
C655 O651 1.260 . S
C655 O652 1.258 . S
C656 C657 1.363 . S
C656 C658 1.314 1_655 S
C656 H681 0.949 . S
C657 C656 1.363 . S
C657 C673 1.349 . S
C658 C656 1.314 1_455 S
C658 C677 1.427 . S
C658 H682 0.960 . S
C659 C676 1.574 . S
C659 C678 1.368 . S
C659 H683 0.953 . S
H660 C664 0.949 . S
C661 C662 1.377 . S
C661 C663 1.327 . S
C661 H684 0.950 . S
C662 C661 1.377 . S
C662 C674 1.288 1_554 S
C663 C661 1.327 . S
C663 C679 1.429 1_554 S
C663 H685 0.950 . S
C664 H660 0.949 . S
C664 C672 1.574 . S
C664 C680 1.368 . S
H665 C673 0.950 . S
H666 C671 0.950 . S
H667 C672 0.949 . S
H668 C674 0.950 . S
H669 C675 0.950 . S
H670 C676 0.949 . S
C671 H666 0.950 . S
C671 C673 1.327 . S
C671 C677 1.423 1_655 S
C672 C664 1.574 . S
C672 H667 0.949 . S
C672 C678 1.368 . S
C673 C657 1.349 . S
C673 H665 0.950 . S
C673 C671 1.327 . S
C674 C662 1.288 1_556 S
C674 H668 0.950 . S
C674 C675 1.327 . S
C675 H669 0.950 . S
C675 C674 1.327 . S
C675 C679 1.429 . S
C676 C659 1.574 . S
C676 H670 0.949 . S
C676 C680 1.368 . S
C677 C658 1.427 . S
C677 C671 1.423 1_455 S
C677 C678 1.527 . S
C678 C659 1.368 . S
C678 C672 1.368 . S
C678 C677 1.527 . S
C679 C663 1.429 1_556 S
C679 C675 1.429 . S
C679 C680 1.523 . S
C680 C664 1.368 . S
C680 C676 1.368 . S
C680 C679 1.523 . S
H681 C656 0.949 . S
H682 C658 0.960 . S
H683 C659 0.953 . S
H684 C661 0.950 . S
H685 C663 0.950 . S
C686 C687 1.349 . S
C686 C688 1.327 . S
C686 H711 0.950 . S
C687 C686 1.349 . S
C687 C703 1.349 . S
C688 C686 1.327 . S
C688 C707 1.429 . S
C688 H712 0.950 . S
C689 C706 1.574 . S
C689 C708 1.368 . S
C689 H713 0.949 . S
H690 C694 0.949 . S
C691 C692 1.349 . S
C691 C693 1.327 . S
C691 H714 0.950 . S
C692 C691 1.349 . S
C692 C704 1.349 . S
C693 C691 1.327 . S
C693 C709 1.429 . S
C693 H715 0.950 . S
C694 H690 0.949 . S
C694 C702 1.574 . S
C694 C710 1.368 . S
H695 C703 0.950 . S
H696 C701 0.950 . S
H697 C702 0.949 . S
H698 C704 0.950 . S
H699 C705 0.950 . S
H700 C706 0.949 . S
C701 H696 0.950 . S
C701 C703 1.327 . S
C701 C707 1.429 . S
C702 C694 1.574 . S
C702 H697 0.949 . S
C702 C708 1.368 . S
C703 C687 1.349 . S
C703 H695 0.950 . S
C703 C701 1.327 . S
C704 C692 1.349 . S
C704 H698 0.950 . S
C704 C705 1.327 . S
C705 H699 0.950 . S
C705 C704 1.327 . S
C705 C709 1.429 . S
C706 C689 1.574 . S
C706 H700 0.949 . S
C706 C710 1.368 . S
C707 C688 1.429 . S
C707 C701 1.429 . S
C707 C708 1.523 . S
C708 C689 1.368 . S
C708 C702 1.368 . S
C708 C707 1.523 . S
C709 C693 1.429 . S
C709 C705 1.429 . S
C709 C710 1.523 . S
C710 C694 1.368 . S
C710 C706 1.368 . S
C710 C709 1.523 . S
H711 C686 0.950 . S
H712 C688 0.950 . S
H713 C689 0.949 . S
H714 C691 0.950 . S
H715 C693 0.950 . S
C716 C717 1.349 . S
C716 C718 1.327 . S
C716 H741 0.950 . S
C717 C716 1.349 . S
C717 C733 1.349 . S
C718 C716 1.327 . S
C718 C737 1.429 . S
C718 H742 0.950 . S
C719 C736 1.574 . S
C719 C738 1.368 . S
C719 H743 0.949 . S
H720 C724 0.949 . S
C721 C722 1.349 . S
C721 C723 1.327 . S
C721 H744 0.950 . S
C722 C721 1.349 . S
C722 C734 1.349 . S
C723 C721 1.327 . S
C723 C739 1.429 . S
C723 H745 0.950 . S
C724 H720 0.949 . S
C724 C732 1.574 . S
C724 C740 1.368 . S
H725 C733 0.950 . S
H726 C731 0.950 . S
H727 C732 0.949 . S
H728 C734 0.950 . S
H729 C735 0.950 . S
H730 C736 0.949 . S
C731 H726 0.950 . S
C731 C733 1.327 . S
C731 C737 1.429 . S
C732 C724 1.574 . S
C732 H727 0.949 . S
C732 C738 1.368 . S
C733 C717 1.349 . S
C733 H725 0.950 . S
C733 C731 1.327 . S
C734 C722 1.349 . S
C734 H728 0.950 . S
C734 C735 1.327 . S
C735 H729 0.950 . S
C735 C734 1.327 . S
C735 C739 1.429 . S
C736 C719 1.574 . S
C736 H730 0.949 . S
C736 C740 1.368 . S
C737 C718 1.429 . S
C737 C731 1.429 . S
C737 C738 1.523 . S
C738 C719 1.368 . S
C738 C732 1.368 . S
C738 C737 1.523 . S
C739 C723 1.429 . S
C739 C735 1.429 . S
C739 C740 1.523 . S
C740 C724 1.368 . S
C740 C736 1.368 . S
C740 C739 1.523 . S
H741 C716 0.950 . S
H742 C718 0.950 . S
H743 C719 0.949 . S
H744 C721 0.950 . S
H745 C723 0.950 . S
C746 C747 1.349 . S
C746 C748 1.327 . S
C746 H771 0.950 . S
C747 C746 1.349 . S
C747 C763 1.349 . S
C748 C746 1.327 . S
C748 C767 1.429 . S
C748 H772 0.950 . S
C749 C766 1.574 . S
C749 C768 1.368 . S
C749 H773 0.949 . S
H750 C754 0.949 . S
C751 C752 1.349 . S
C751 C753 1.327 . S
C751 H774 0.950 . S
C752 C751 1.349 . S
C752 C764 1.349 . S
C753 C751 1.327 . S
C753 C769 1.429 . S
C753 H775 0.950 . S
C754 H750 0.949 . S
C754 C762 1.574 . S
C754 C770 1.368 . S
H755 C763 0.950 . S
H756 C761 0.950 . S
H757 C762 0.949 . S
H758 C764 0.950 . S
H759 C765 0.950 . S
H760 C766 0.949 . S
C761 H756 0.950 . S
C761 C763 1.327 . S
C761 C767 1.429 . S
C762 C754 1.574 . S
C762 H757 0.949 . S
C762 C768 1.368 . S
C763 C747 1.349 . S
C763 H755 0.950 . S
C763 C761 1.327 . S
C764 C752 1.349 . S
C764 H758 0.950 . S
C764 C765 1.327 . S
C765 H759 0.950 . S
C765 C764 1.327 . S
C765 C769 1.429 . S
C766 C749 1.574 . S
C766 H760 0.949 . S
C766 C770 1.368 . S
C767 C748 1.429 . S
C767 C761 1.429 . S
C767 C768 1.523 . S
C768 C749 1.368 . S
C768 C762 1.368 . S
C768 C767 1.523 . S
C769 C753 1.429 . S
C769 C765 1.429 . S
C769 C770 1.523 . S
C770 C754 1.368 . S
C770 C766 1.368 . S
C770 C769 1.523 . S
H771 C746 0.950 . S
H772 C748 0.950 . S
H773 C749 0.949 . S
H774 C751 0.950 . S
H775 C753 0.950 . S
C776 C777 1.349 . S
C776 C778 1.327 . S
C776 H801 0.950 . S
C777 C776 1.349 . S
C777 C793 1.349 1_455 S
C778 C776 1.327 . S
C778 C797 1.429 . S
C778 H802 0.950 . S
C779 C796 1.574 . S
C779 C798 1.368 1_655 S
C779 H803 0.949 . S
H780 C784 0.949 . S
C781 C782 1.349 1_655 S
C781 C783 1.327 . S
C781 H804 0.950 . S
C782 C781 1.349 1_455 S
C782 C794 1.349 . S
C783 C781 1.327 . S
C783 C799 1.429 1_655 S
C783 H805 0.950 . S
C784 H780 0.949 . S
C784 C792 1.574 . S
C784 C800 1.368 . S
H785 C793 0.950 . S
H786 C791 0.950 . S
H787 C792 0.949 . S
H788 C794 0.950 . S
H789 C795 0.950 . S
H790 C796 0.949 . S
C791 H786 0.950 . S
C791 C793 1.327 . S
C791 C797 1.429 1_655 S
C792 C784 1.574 . S
C792 H787 0.949 . S
C792 C798 1.368 . S
C793 C777 1.349 1_655 S
C793 H785 0.950 . S
C793 C791 1.327 . S
C794 C782 1.349 . S
C794 H788 0.950 . S
C794 C795 1.327 . S
C795 H789 0.950 . S
C795 C794 1.327 . S
C795 C799 1.429 . S
C796 C779 1.574 . S
C796 H790 0.949 . S
C796 C800 1.368 1_655 S
C797 C778 1.429 . S
C797 C791 1.429 1_455 S
C797 C798 1.523 . S
C798 C779 1.368 1_455 S
C798 C792 1.368 . S
C798 C797 1.523 . S
C799 C783 1.429 1_455 S
C799 C795 1.429 . S
C799 C800 1.523 . S
C800 C784 1.368 . S
C800 C796 1.368 1_455 S
C800 C799 1.523 . S
H801 C776 0.950 . S
H802 C778 0.950 . S
H803 C779 0.949 . S
H804 C781 0.950 . S
H805 C783 0.950 . S
C806 C807 1.349 . S
C806 C808 1.327 . S
C806 H831 0.950 . S
C807 C806 1.349 . S
C807 C823 1.349 . S
C808 C806 1.327 . S
C808 C827 1.429 . S
C808 H832 0.950 . S
C809 C826 1.574 . S
C809 C828 1.368 . S
C809 H833 0.949 . S
H810 C814 0.949 . S
C811 C812 1.349 . S
C811 C813 1.327 . S
C811 H834 0.950 . S
C812 C811 1.349 . S
C812 C824 1.349 . S
C813 C811 1.327 . S
C813 C829 1.429 . S
C813 H835 0.950 . S
C814 H810 0.949 . S
C814 C822 1.574 . S
C814 C830 1.368 . S
H815 C823 0.950 . S
H816 C821 0.950 . S
H817 C822 0.949 . S
H818 C824 0.950 . S
H819 C825 0.950 . S
H820 C826 0.949 . S
C821 H816 0.950 . S
C821 C823 1.327 . S
C821 C827 1.429 . S
C822 C814 1.574 . S
C822 H817 0.949 . S
C822 C828 1.368 . S
C823 C807 1.349 . S
C823 H815 0.950 . S
C823 C821 1.327 . S
C824 C812 1.349 . S
C824 H818 0.950 . S
C824 C825 1.327 . S
C825 H819 0.950 . S
C825 C824 1.327 . S
C825 C829 1.429 . S
C826 C809 1.574 . S
C826 H820 0.949 . S
C826 C830 1.368 . S
C827 C808 1.429 . S
C827 C821 1.429 . S
C827 C828 1.523 . S
C828 C809 1.368 . S
C828 C822 1.368 . S
C828 C827 1.523 . S
C829 C813 1.429 . S
C829 C825 1.429 . S
C829 C830 1.523 . S
C830 C814 1.368 . S
C830 C826 1.368 . S
C830 C829 1.523 . S
H831 C806 0.950 . S
H832 C808 0.950 . S
H833 C809 0.949 . S
H834 C811 0.950 . S
H835 C813 0.950 . S
C836 C837 1.349 . S
C836 C838 1.327 . S
C836 H861 0.950 . S
C837 C836 1.349 . S
C837 C853 1.349 . S
C838 C836 1.327 . S
C838 C857 1.429 . S
C838 H862 0.950 . S
C839 C856 1.574 . S
C839 C858 1.368 . S
C839 H863 0.949 . S
H840 C844 0.949 . S
C841 C842 1.349 . S
C841 C843 1.327 . S
C841 H864 0.950 . S
C842 C841 1.349 . S
C842 C854 1.349 . S
C843 C841 1.327 . S
C843 C859 1.429 . S
C843 H865 0.950 . S
C844 H840 0.949 . S
C844 C852 1.574 . S
C844 C860 1.368 . S
H845 C853 0.950 . S
H846 C851 0.950 . S
H847 C852 0.949 . S
H848 C854 0.950 . S
H849 C855 0.950 . S
H850 C856 0.949 . S
C851 H846 0.950 . S
C851 C853 1.327 . S
C851 C857 1.429 . S
C852 C844 1.574 . S
C852 H847 0.949 . S
C852 C858 1.368 . S
C853 C837 1.349 . S
C853 H845 0.950 . S
C853 C851 1.327 . S
C854 C842 1.349 . S
C854 H848 0.950 . S
C854 C855 1.327 . S
C855 H849 0.950 . S
C855 C854 1.327 . S
C855 C859 1.429 . S
C856 C839 1.574 . S
C856 H850 0.949 . S
C856 C860 1.368 . S
C857 C838 1.429 . S
C857 C851 1.429 . S
C857 C858 1.523 . S
C858 C839 1.368 . S
C858 C852 1.368 . S
C858 C857 1.523 . S
C859 C843 1.429 . S
C859 C855 1.429 . S
C859 C860 1.523 . S
C860 C844 1.368 . S
C860 C856 1.368 . S
C860 C859 1.523 . S
H861 C836 0.950 . S
H862 C838 0.950 . S
H863 C839 0.949 . S
H864 C841 0.950 . S
H865 C843 0.950 . S
C866 C867 1.349 . S
C866 C868 1.327 . S
C866 H891 0.950 . S
C867 C866 1.349 . S
C867 C883 1.349 . S
C868 C866 1.327 . S
C868 C887 1.429 . S
C868 H892 0.950 . S
C869 C886 1.574 . S
C869 C888 1.368 . S
C869 H893 0.949 . S
H870 C874 0.949 . S
C871 C872 1.349 . S
C871 C873 1.327 . S
C871 H894 0.950 . S
C872 C871 1.349 . S
C872 C884 1.349 . S
C873 C871 1.327 . S
C873 C889 1.429 . S
C873 H895 0.950 . S
C874 H870 0.949 . S
C874 C882 1.574 . S
C874 C890 1.368 . S
H875 C883 0.950 . S
H876 C881 0.950 . S
H877 C882 0.949 . S
H878 C884 0.950 . S
H879 C885 0.950 . S
H880 C886 0.949 . S
C881 H876 0.950 . S
C881 C883 1.327 . S
C881 C887 1.429 . S
C882 C874 1.574 . S
C882 H877 0.949 . S
C882 C888 1.368 . S
C883 C867 1.349 . S
C883 H875 0.950 . S
C883 C881 1.327 . S
C884 C872 1.349 . S
C884 H878 0.950 . S
C884 C885 1.327 . S
C885 H879 0.950 . S
C885 C884 1.327 . S
C885 C889 1.429 . S
C886 C869 1.574 . S
C886 H880 0.949 . S
C886 C890 1.368 . S
C887 C868 1.429 . S
C887 C881 1.429 . S
C887 C888 1.523 . S
C888 C869 1.368 . S
C888 C882 1.368 . S
C888 C887 1.523 . S
C889 C873 1.429 . S
C889 C885 1.429 . S
C889 C890 1.523 . S
C890 C874 1.368 . S
C890 C886 1.368 . S
C890 C889 1.523 . S
H891 C866 0.950 . S
H892 C868 0.950 . S
H893 C869 0.949 . S
H894 C871 0.950 . S
H895 C873 0.950 . S
C896 C897 1.349 . S
C896 C898 1.327 . S
C896 H921 0.950 . S
C897 C896 1.349 . S
C897 C913 1.349 1_545 S
C898 C896 1.327 . S
C898 C917 1.429 . S
C898 H922 0.950 . S
C899 C916 1.574 . S
C899 C918 1.368 1_565 S
C899 H923 0.949 . S
H900 C904 0.949 . S
C901 C902 1.329 1_565 S
C901 C903 1.329 . S
C901 H924 0.968 . S
C902 C901 1.329 1_545 S
C902 C914 1.349 . S
C903 C901 1.329 . S
C903 C919 1.429 1_565 S
C903 H925 0.950 . S
C904 H900 0.949 . S
C904 C912 1.574 . S
C904 C920 1.368 . S
H905 C913 0.950 . S
H906 C911 0.950 . S
H907 C912 0.949 . S
H908 C914 0.950 . S
H909 C915 0.950 . S
H910 C916 0.949 . S
C911 H906 0.950 . S
C911 C913 1.327 . S
C911 C917 1.429 1_565 S
C912 C904 1.574 . S
C912 H907 0.949 . S
C912 C918 1.368 . S
C913 C897 1.349 1_565 S
C913 H905 0.950 . S
C913 C911 1.327 . S
C914 C902 1.349 . S
C914 H908 0.950 . S
C914 C915 1.327 . S
C915 H909 0.950 . S
C915 C914 1.327 . S
C915 C919 1.429 . S
C916 C899 1.574 . S
C916 H910 0.949 . S
C916 C920 1.368 1_565 S
C917 C898 1.429 . S
C917 C911 1.429 1_545 S
C917 C918 1.523 . S
C918 C899 1.368 1_545 S
C918 C912 1.368 . S
C918 C917 1.523 . S
C919 C903 1.429 1_545 S
C919 C915 1.429 . S
C919 C920 1.523 . S
C920 C904 1.368 . S
C920 C916 1.368 1_545 S
C920 C919 1.523 . S
H921 C896 0.950 . S
H922 C898 0.950 . S
H923 C899 0.949 . S
H924 C901 0.968 . S
H925 C903 0.950 . S
C926 C927 1.349 . S
C926 C928 1.327 . S
C926 H951 0.950 . S
C927 C926 1.349 . S
C927 C943 1.349 . S
C928 C926 1.327 . S
C928 C947 1.429 . S
C928 H952 0.950 . S
C929 C946 1.574 . S
C929 C948 1.368 . S
C929 H953 0.949 . S
H930 C934 0.949 . S
C931 C932 1.349 . S
C931 C933 1.327 . S
C931 H954 0.950 . S
C932 C931 1.349 . S
C932 C944 1.349 . S
C933 C931 1.327 . S
C933 C949 1.429 . S
C933 H955 0.950 . S
C934 H930 0.949 . S
C934 C942 1.574 . S
C934 C950 1.368 . S
H935 C943 0.950 . S
H936 C941 0.950 . S
H937 C942 0.949 . S
H938 C944 0.950 . S
H939 C945 0.950 . S
H940 C946 0.949 . S
C941 H936 0.950 . S
C941 C943 1.327 . S
C941 C947 1.429 . S
C942 C934 1.574 . S
C942 H937 0.949 . S
C942 C948 1.368 . S
C943 C927 1.349 . S
C943 H935 0.950 . S
C943 C941 1.327 . S
C944 C932 1.349 . S
C944 H938 0.950 . S
C944 C945 1.327 . S
C945 H939 0.950 . S
C945 C944 1.327 . S
C945 C949 1.429 . S
C946 C929 1.574 . S
C946 H940 0.949 . S
C946 C950 1.368 . S
C947 C928 1.429 . S
C947 C941 1.429 . S
C947 C948 1.523 . S
C948 C929 1.368 . S
C948 C942 1.368 . S
C948 C947 1.523 . S
C949 C933 1.429 . S
C949 C945 1.429 . S
C949 C950 1.523 . S
C950 C934 1.368 . S
C950 C946 1.368 . S
C950 C949 1.523 . S
H951 C926 0.950 . S
H952 C928 0.950 . S
H953 C929 0.949 . S
H954 C931 0.950 . S
H955 C933 0.950 . S
C956 C957 1.349 1_545 S
C956 C958 1.327 . S
C956 H981 0.950 . S
C957 C956 1.349 1_565 S
C957 C973 1.349 . S
C958 C956 1.327 . S
C958 C977 1.422 1_545 S
C958 H982 0.950 . S
C959 C976 1.574 . S
C959 C978 1.338 1_565 S
C959 H983 0.949 . S
H960 C964 0.949 . S
C961 C962 1.349 1_565 S
C961 C963 1.327 . S
C961 H984 0.950 . S
C962 C961 1.349 1_545 S
C962 C974 1.349 . S
C963 C961 1.327 . S
C963 C979 1.429 1_565 S
C963 H985 0.950 . S
C964 H960 0.949 . S
C964 C972 1.574 . S
C964 C980 1.368 . S
H965 C973 0.950 . S
H966 C971 0.950 . S
H967 C972 0.949 . S
H968 C974 0.950 . S
H969 C975 0.950 . S
H970 C976 0.949 . S
C971 H966 0.950 . S
C971 C973 1.327 . S
C971 C977 1.438 . S
C972 C964 1.574 . S
C972 H967 0.949 . S
C972 C978 1.406 . S
C973 C957 1.349 . S
C973 H965 0.950 . S
C973 C971 1.327 . S
C974 C962 1.349 . S
C974 H968 0.950 . S
C974 C975 1.327 . S
C975 H969 0.950 . S
C975 C974 1.327 . S
C975 C979 1.429 . S
C976 C959 1.574 . S
C976 H970 0.949 . S
C976 C980 1.368 1_565 S
C977 C958 1.422 1_565 S
C977 C971 1.438 . S
C977 C978 1.512 1_565 S
C978 C959 1.338 1_545 S
C978 C972 1.406 . S
C978 C977 1.512 1_545 S
C979 C963 1.429 1_545 S
C979 C975 1.429 . S
C979 C980 1.523 . S
C980 C964 1.368 . S
C980 C976 1.368 1_545 S
C980 C979 1.523 . S
H981 C956 0.950 . S
H982 C958 0.950 . S
H983 C959 0.949 . S
H984 C961 0.950 . S
H985 C963 0.950 . S
C986 C987 1.349 . S
C986 C988 1.327 . S
C986 H1011 0.950 . S
C987 C986 1.349 . S
C987 C1003 1.349 . S
C988 C986 1.327 . S
C988 C1007 1.429 . S
C988 H1012 0.950 . S
C989 C1006 1.574 . S
C989 C1008 1.368 . S
C989 H1013 0.949 . S
H990 C994 0.949 . S
C991 C992 1.349 . S
C991 C993 1.327 . S
C991 H1014 0.950 . S
C992 C991 1.349 . S
C992 C1004 1.349 . S
C993 C991 1.327 . S
C993 C1009 1.429 . S
C993 H1015 0.950 . S
C994 H990 0.949 . S
C994 C1002 1.574 . S
C994 C1010 1.368 . S
H995 C1003 0.950 . S
H996 C1001 0.950 . S
H997 C1002 0.949 . S
H998 C1004 0.950 . S
H999 C1005 0.950 . S
H1000 C1006 0.949 . S
C1001 H996 0.950 . S
C1001 C1003 1.327 . S
C1001 C1007 1.429 . S
C1002 C994 1.574 . S
C1002 H997 0.949 . S
C1002 C1008 1.368 . S
C1003 C987 1.349 . S
C1003 H995 0.950 . S
C1003 C1001 1.327 . S
C1004 C992 1.349 . S
C1004 H998 0.950 . S
C1004 C1005 1.327 . S
C1005 H999 0.950 . S
C1005 C1004 1.327 . S
C1005 C1009 1.429 . S
C1006 C989 1.574 . S
C1006 H1000 0.949 . S
C1006 C1010 1.368 . S
C1007 C988 1.429 . S
C1007 C1001 1.429 . S
C1007 C1008 1.523 . S
C1008 C989 1.368 . S
C1008 C1002 1.368 . S
C1008 C1007 1.523 . S
C1009 C993 1.429 . S
C1009 C1005 1.429 . S
C1009 C1010 1.523 . S
C1010 C994 1.368 . S
C1010 C1006 1.368 . S
C1010 C1009 1.523 . S
H1011 C986 0.950 . S
H1012 C988 0.950 . S
H1013 C989 0.949 . S
H1014 C991 0.950 . S
H1015 C993 0.950 . S
C1016 C1017 1.349 . S
C1016 C1018 1.327 . S
C1016 H1041 0.950 . S
C1017 C1016 1.349 . S
C1017 C1033 1.349 . S
C1018 C1016 1.327 . S
C1018 C1037 1.429 . S
C1018 H1042 0.950 . S
C1019 C1036 1.574 . S
C1019 C1038 1.368 . S
C1019 H1043 0.934 1_545 S
H1020 C1024 0.949 . S
C1021 C1022 1.370 . S
C1021 C1023 1.339 . S
C1021 H1044 0.919 1_645 S
C1022 C1021 1.370 . S
C1022 C1034 1.349 . S
C1023 C1021 1.339 . S
C1023 C1039 1.429 . S
C1023 H1045 0.950 1_545 S
C1024 H1020 0.949 . S
C1024 C1032 1.574 . S
C1024 C1040 1.368 . S
H1025 C1033 0.950 . S
H1026 C1031 0.977 . S
H1027 C1032 0.949 . S
H1028 C1034 0.950 . S
H1029 C1035 0.950 . S
H1030 C1036 0.949 1_565 S
C1031 H1026 0.977 . S
C1031 C1033 1.327 . S
C1031 C1037 1.429 . S
C1032 C1024 1.574 . S
C1032 H1027 0.949 . S
C1032 C1038 1.368 . S
C1033 C1017 1.349 . S
C1033 H1025 0.950 . S
C1033 C1031 1.327 . S
C1034 C1022 1.349 . S
C1034 H1028 0.950 . S
C1034 C1035 1.327 . S
C1035 H1029 0.950 . S
C1035 C1034 1.327 . S
C1035 C1039 1.429 . S
C1036 C1019 1.574 . S
C1036 H1030 0.949 1_545 S
C1036 C1040 1.368 . S
C1037 C1018 1.429 . S
C1037 C1031 1.429 . S
C1037 C1038 1.523 . S
C1038 C1019 1.368 . S
C1038 C1032 1.368 . S
C1038 C1037 1.523 . S
C1039 C1023 1.429 . S
C1039 C1035 1.429 . S
C1039 C1040 1.523 . S
C1040 C1024 1.368 . S
C1040 C1036 1.368 . S
C1040 C1039 1.523 . S
H1041 C1016 0.950 . S
H1042 C1018 0.950 . S
H1043 C1019 0.934 1_565 S
H1044 C1021 0.919 1_465 S
H1045 C1023 0.950 1_565 S
C1046 C1047 1.349 . S
C1046 C1048 1.327 . S
C1046 H1071 0.950 . S
C1047 C1046 1.349 . S
C1047 C1063 1.349 . S
C1048 C1046 1.327 . S
C1048 C1067 1.429 . S
C1048 H1072 0.950 . S
C1049 C1066 1.574 . S
C1049 C1068 1.368 . S
C1049 H1073 0.949 . S
H1050 C1054 0.949 . S
C1051 C1052 1.349 . S
C1051 C1053 1.327 . S
C1051 H1074 0.950 . S
C1052 C1051 1.349 . S
C1052 C1064 1.349 . S
C1053 C1051 1.327 . S
C1053 C1069 1.429 . S
C1053 H1075 0.950 . S
C1054 H1050 0.949 . S
C1054 C1062 1.574 . S
C1054 C1070 1.368 . S
H1055 C1063 0.950 . S
H1056 C1061 0.950 . S
H1057 C1062 0.949 . S
H1058 C1064 0.950 . S
H1059 C1065 0.950 . S
H1060 C1066 0.949 . S
C1061 H1056 0.950 . S
C1061 C1063 1.327 . S
C1061 C1067 1.429 . S
C1062 C1054 1.574 . S
C1062 H1057 0.949 . S
C1062 C1068 1.368 . S
C1063 C1047 1.349 . S
C1063 H1055 0.950 . S
C1063 C1061 1.327 . S
C1064 C1052 1.349 . S
C1064 H1058 0.950 . S
C1064 C1065 1.327 . S
C1065 H1059 0.950 . S
C1065 C1064 1.327 . S
C1065 C1069 1.429 . S
C1066 C1049 1.574 . S
C1066 H1060 0.949 . S
C1066 C1070 1.368 . S
C1067 C1048 1.429 . S
C1067 C1061 1.429 . S
C1067 C1068 1.523 . S
C1068 C1049 1.368 . S
C1068 C1062 1.368 . S
C1068 C1067 1.523 . S
C1069 C1053 1.429 . S
C1069 C1065 1.429 . S
C1069 C1070 1.523 . S
C1070 C1054 1.368 . S
C1070 C1066 1.368 . S
C1070 C1069 1.523 . S
H1071 C1046 0.950 . S
H1072 C1048 0.950 . S
H1073 C1049 0.949 . S
H1074 C1051 0.950 . S
H1075 C1053 0.950 . S
C1076 C1077 1.349 . S
C1076 C1078 1.327 . S
C1076 H1101 0.950 . S
C1077 C1076 1.349 . S
C1077 C1093 1.349 1_545 S
C1078 C1076 1.327 . S
C1078 C1097 1.429 . S
C1078 H1102 0.950 . S
C1079 C1096 1.574 . S
C1079 C1098 1.368 1_565 S
C1079 H1103 0.949 . S
H1080 C1084 0.949 . S
C1081 C1082 1.349 . S
C1081 C1083 1.327 . S
C1081 H1104 0.950 1_545 S
C1082 C1081 1.349 . S
C1082 C1094 1.349 . S
C1083 C1081 1.327 . S
C1083 C1099 1.429 . S
C1083 H1105 0.950 1_545 S
C1084 H1080 0.949 . S
C1084 C1092 1.574 . S
C1084 C1100 1.368 . S
H1085 C1093 0.950 . S
H1086 C1091 0.950 . S
H1087 C1092 0.949 . S
H1088 C1094 0.950 . S
H1089 C1095 0.950 . S
H1090 C1096 0.949 . S
C1091 H1086 0.950 . S
C1091 C1093 1.327 . S
C1091 C1097 1.429 1_565 S
C1092 C1084 1.574 . S
C1092 H1087 0.949 . S
C1092 C1098 1.368 . S
C1093 C1077 1.349 1_565 S
C1093 H1085 0.950 . S
C1093 C1091 1.327 . S
C1094 C1082 1.349 . S
C1094 H1088 0.950 . S
C1094 C1095 1.327 . S
C1095 H1089 0.950 . S
C1095 C1094 1.327 . S
C1095 C1099 1.429 . S
C1096 C1079 1.574 . S
C1096 H1090 0.949 . S
C1096 C1100 1.368 1_565 S
C1097 C1078 1.429 . S
C1097 C1091 1.429 1_545 S
C1097 C1098 1.523 . S
C1098 C1079 1.368 1_545 S
C1098 C1092 1.368 . S
C1098 C1097 1.523 . S
C1099 C1083 1.429 . S
C1099 C1095 1.429 . S
C1099 C1100 1.523 . S
C1100 C1084 1.368 . S
C1100 C1096 1.368 1_545 S
C1100 C1099 1.523 . S
H1101 C1076 0.950 . S
H1102 C1078 0.950 . S
H1103 C1079 0.949 . S
H1104 C1081 0.950 1_565 S
H1105 C1083 0.950 1_565 S
C1106 C1107 1.349 . S
C1106 C1108 1.327 . S
C1106 H1131 0.950 . S
C1107 C1106 1.349 . S
C1107 C1123 1.349 . S
C1108 C1106 1.327 . S
C1108 C1127 1.429 . S
C1108 H1132 0.950 . S
C1109 C1126 1.574 . S
C1109 C1128 1.368 . S
C1109 H1133 0.949 . S
H1110 C1114 0.949 . S
C1111 C1112 1.349 . S
C1111 C1113 1.327 . S
C1111 H1134 0.950 . S
C1112 C1111 1.349 . S
C1112 C1124 1.349 . S
C1113 C1111 1.327 . S
C1113 C1129 1.429 . S
C1113 H1135 0.950 . S
C1114 H1110 0.949 . S
C1114 C1122 1.574 . S
C1114 C1130 1.368 . S
H1115 C1123 0.950 . S
H1116 C1121 0.950 . S
H1117 C1122 0.949 . S
H1118 C1124 0.950 . S
H1119 C1125 0.950 . S
H1120 C1126 0.949 . S
C1121 H1116 0.950 . S
C1121 C1123 1.327 . S
C1121 C1127 1.429 . S
C1122 C1114 1.574 . S
C1122 H1117 0.949 . S
C1122 C1128 1.368 . S
C1123 C1107 1.349 . S
C1123 H1115 0.950 . S
C1123 C1121 1.327 . S
C1124 C1112 1.349 . S
C1124 H1118 0.950 . S
C1124 C1125 1.327 . S
C1125 H1119 0.950 . S
C1125 C1124 1.327 . S
C1125 C1129 1.429 . S
C1126 C1109 1.574 . S
C1126 H1120 0.949 . S
C1126 C1130 1.368 . S
C1127 C1108 1.429 . S
C1127 C1121 1.429 . S
C1127 C1128 1.523 . S
C1128 C1109 1.368 . S
C1128 C1122 1.368 . S
C1128 C1127 1.523 . S
C1129 C1113 1.429 . S
C1129 C1125 1.429 . S
C1129 C1130 1.523 . S
C1130 C1114 1.368 . S
C1130 C1126 1.368 . S
C1130 C1129 1.523 . S
H1131 C1106 0.950 . S
H1132 C1108 0.950 . S
H1133 C1109 0.949 . S
H1134 C1111 0.950 . S
H1135 C1113 0.950 . S
C1136 C1137 1.349 . S
C1136 C1138 1.327 . S
C1136 H1161 0.950 1_554 S
C1137 C1136 1.349 . S
C1137 C1153 1.349 . S
C1138 C1136 1.327 . S
C1138 C1157 1.429 . S
C1138 H1162 0.950 1_554 S
C1139 C1156 1.574 . S
C1139 C1158 1.368 . S
C1139 H1163 0.949 . S
H1140 C1144 0.949 . S
C1141 C1142 1.349 . S
C1141 C1143 1.327 . S
C1141 H1164 0.947 1_565 S
C1142 C1141 1.349 . S
C1142 C1154 1.349 . S
C1143 C1141 1.327 . S
C1143 C1159 1.429 . S
C1143 H1165 0.950 . S
C1144 H1140 0.949 . S
C1144 C1152 1.574 . S
C1144 C1160 1.368 . S
H1145 C1153 0.950 . S
H1146 C1151 0.950 . S
H1147 C1152 0.949 1_556 S
H1148 C1154 0.950 . S
H1149 C1155 0.950 . S
H1150 C1156 0.949 . S
C1151 H1146 0.950 . S
C1151 C1153 1.327 . S
C1151 C1157 1.429 . S
C1152 C1144 1.574 . S
C1152 H1147 0.949 1_554 S
C1152 C1158 1.368 . S
C1153 C1137 1.349 . S
C1153 H1145 0.950 . S
C1153 C1151 1.327 . S
C1154 C1142 1.349 . S
C1154 H1148 0.950 . S
C1154 C1155 1.327 . S
C1155 H1149 0.950 . S
C1155 C1154 1.327 . S
C1155 C1159 1.429 . S
C1156 C1139 1.574 . S
C1156 H1150 0.949 . S
C1156 C1160 1.368 . S
C1157 C1138 1.429 . S
C1157 C1151 1.429 . S
C1157 C1158 1.523 . S
C1158 C1139 1.368 . S
C1158 C1152 1.368 . S
C1158 C1157 1.523 . S
C1159 C1143 1.429 . S
C1159 C1155 1.429 . S
C1159 C1160 1.523 . S
C1160 C1144 1.368 . S
C1160 C1156 1.368 . S
C1160 C1159 1.523 . S
H1161 C1136 0.950 1_556 S
H1162 C1138 0.950 1_556 S
H1163 C1139 0.949 . S
H1164 C1141 0.947 1_545 S
H1165 C1143 0.950 . S
C1166 C1167 1.352 . S
C1166 C1168 1.327 . S
C1166 H1191 0.950 . S
C1167 C1166 1.352 . S
C1167 C1183 1.347 1_554 S
C1168 C1166 1.327 . S
C1168 C1187 1.429 . S
C1168 H1192 0.950 . S
C1169 C1186 1.574 . S
C1169 C1188 1.368 1_556 S
C1169 H1193 0.949 . S
H1170 C1174 0.949 . S
C1171 C1172 1.349 1_556 S
C1171 C1173 1.327 . S
C1171 H1194 0.950 . S
C1172 C1171 1.349 1_554 S
C1172 C1184 1.349 . S
C1173 C1171 1.327 . S
C1173 C1189 1.429 1_556 S
C1173 H1195 0.950 . S
C1174 H1170 0.949 . S
C1174 C1182 1.574 . S
C1174 C1190 1.368 . S
H1175 C1183 0.950 . S
H1176 C1181 0.950 . S
H1177 C1182 0.949 . S
H1178 C1184 0.950 . S
H1179 C1185 0.950 . S
H1180 C1186 0.949 . S
C1181 H1176 0.950 . S
C1181 C1183 1.327 . S
C1181 C1187 1.429 1_556 S
C1182 C1174 1.574 . S
C1182 H1177 0.949 . S
C1182 C1188 1.368 . S
C1183 C1167 1.347 1_556 S
C1183 H1175 0.950 . S
C1183 C1181 1.327 . S
C1184 C1172 1.349 . S
C1184 H1178 0.950 . S
C1184 C1185 1.327 . S
C1185 H1179 0.950 . S
C1185 C1184 1.327 . S
C1185 C1189 1.429 . S
C1186 C1169 1.574 . S
C1186 H1180 0.949 . S
C1186 C1190 1.368 1_556 S
C1187 C1168 1.429 . S
C1187 C1181 1.429 1_554 S
C1187 C1188 1.523 . S
C1188 C1169 1.368 1_554 S
C1188 C1182 1.368 . S
C1188 C1187 1.523 . S
C1189 C1173 1.429 1_554 S
C1189 C1185 1.429 . S
C1189 C1190 1.523 . S
C1190 C1174 1.368 . S
C1190 C1186 1.368 1_554 S
C1190 C1189 1.523 . S
H1191 C1166 0.950 . S
H1192 C1168 0.950 . S
H1193 C1169 0.949 . S
H1194 C1171 0.950 . S
H1195 C1173 0.950 . S
C1196 C1197 1.349 . S
C1196 C1198 1.327 . S
C1196 H1221 0.950 . S
C1197 C1196 1.349 . S
C1197 C1213 1.349 . S
C1198 C1196 1.327 . S
C1198 C1217 1.429 . S
C1198 H1222 0.950 . S
C1199 C1216 1.574 . S
C1199 C1218 1.368 . S
C1199 H1223 0.949 . S
H1200 C1204 0.949 . S
C1201 C1202 1.349 . S
C1201 C1203 1.327 . S
C1201 H1224 0.950 . S
C1202 C1201 1.349 . S
C1202 C1214 1.349 . S
C1203 C1201 1.327 . S
C1203 C1219 1.429 . S
C1203 H1225 0.950 . S
C1204 H1200 0.949 . S
C1204 C1212 1.574 . S
C1204 C1220 1.368 . S
H1205 C1213 0.950 . S
H1206 C1211 0.950 . S
H1207 C1212 0.949 . S
H1208 C1214 0.950 . S
H1209 C1215 0.950 . S
H1210 C1216 0.949 . S
C1211 H1206 0.950 . S
C1211 C1213 1.327 . S
C1211 C1217 1.429 . S
C1212 C1204 1.574 . S
C1212 H1207 0.949 . S
C1212 C1218 1.368 . S
C1213 C1197 1.349 . S
C1213 H1205 0.950 . S
C1213 C1211 1.327 . S
C1214 C1202 1.349 . S
C1214 H1208 0.950 . S
C1214 C1215 1.327 . S
C1215 H1209 0.950 . S
C1215 C1214 1.327 . S
C1215 C1219 1.429 . S
C1216 C1199 1.574 . S
C1216 H1210 0.949 . S
C1216 C1220 1.368 . S
C1217 C1198 1.429 . S
C1217 C1211 1.429 . S
C1217 C1218 1.523 . S
C1218 C1199 1.368 . S
C1218 C1212 1.368 . S
C1218 C1217 1.523 . S
C1219 C1203 1.429 . S
C1219 C1215 1.429 . S
C1219 C1220 1.523 . S
C1220 C1204 1.368 . S
C1220 C1216 1.368 . S
C1220 C1219 1.523 . S
H1221 C1196 0.950 . S
H1222 C1198 0.950 . S
H1223 C1199 0.949 . S
H1224 C1201 0.950 . S
H1225 C1203 0.950 . S
C1226 C1227 1.349 . S
C1226 C1228 1.327 . S
C1226 H1251 0.950 . S
C1227 C1226 1.349 . S
C1227 C1243 1.349 . S
C1228 C1226 1.327 . S
C1228 C1247 1.429 . S
C1228 H1252 0.950 . S
C1229 C1246 1.574 . S
C1229 C1248 1.368 . S
C1229 H1253 0.949 . S
H1230 C1234 0.949 . S
C1231 C1232 1.349 . S
C1231 C1233 1.327 . S
C1231 H1254 0.950 . S
C1232 C1231 1.349 . S
C1232 C1244 1.349 . S
C1233 C1231 1.327 . S
C1233 C1249 1.429 . S
C1233 H1255 0.950 . S
C1234 H1230 0.949 . S
C1234 C1242 1.574 . S
C1234 C1250 1.368 . S
H1235 C1243 0.950 . S
H1236 C1241 0.950 . S
H1237 C1242 0.949 . S
H1238 C1244 0.950 . S
H1239 C1245 0.950 . S
H1240 C1246 0.949 . S
C1241 H1236 0.950 . S
C1241 C1243 1.327 . S
C1241 C1247 1.429 . S
C1242 C1234 1.574 . S
C1242 H1237 0.949 . S
C1242 C1248 1.368 . S
C1243 C1227 1.349 . S
C1243 H1235 0.950 . S
C1243 C1241 1.327 . S
C1244 C1232 1.349 . S
C1244 H1238 0.950 . S
C1244 C1245 1.327 . S
C1245 H1239 0.950 . S
C1245 C1244 1.327 . S
C1245 C1249 1.429 . S
C1246 C1229 1.574 . S
C1246 H1240 0.949 . S
C1246 C1250 1.368 . S
C1247 C1228 1.429 . S
C1247 C1241 1.429 . S
C1247 C1248 1.523 . S
C1248 C1229 1.368 . S
C1248 C1242 1.368 . S
C1248 C1247 1.523 . S
C1249 C1233 1.429 . S
C1249 C1245 1.429 . S
C1249 C1250 1.523 . S
C1250 C1234 1.368 . S
C1250 C1246 1.368 . S
C1250 C1249 1.523 . S
H1251 C1226 0.950 . S
H1252 C1228 0.950 . S
H1253 C1229 0.949 . S
H1254 C1231 0.950 . S
H1255 C1233 0.950 . S
C1256 C1257 1.349 . S
C1256 C1258 1.327 . S
C1256 H1281 0.950 . S
C1257 C1256 1.349 . S
C1257 C1273 1.349 . S
C1258 C1256 1.327 . S
C1258 C1277 1.429 . S
C1258 H1282 0.950 . S
C1259 C1276 1.574 . S
C1259 C1278 1.368 . S
C1259 H1283 0.949 . S
H1260 C1264 0.949 . S
C1261 C1262 1.349 . S
C1261 C1263 1.327 . S
C1261 H1284 0.950 . S
C1262 C1261 1.349 . S
C1262 C1274 1.349 . S
C1263 C1261 1.327 . S
C1263 C1279 1.429 . S
C1263 H1285 0.950 . S
C1264 H1260 0.949 . S
C1264 C1272 1.574 . S
C1264 C1280 1.368 . S
H1265 C1273 0.950 . S
H1266 C1271 0.950 . S
H1267 C1272 0.949 . S
H1268 C1274 0.950 . S
H1269 C1275 0.950 . S
H1270 C1276 0.949 . S
C1271 H1266 0.950 . S
C1271 C1273 1.327 . S
C1271 C1277 1.429 . S
C1272 C1264 1.574 . S
C1272 H1267 0.949 . S
C1272 C1278 1.368 . S
C1273 C1257 1.349 . S
C1273 H1265 0.950 . S
C1273 C1271 1.327 . S
C1274 C1262 1.349 . S
C1274 H1268 0.950 . S
C1274 C1275 1.327 . S
C1275 H1269 0.950 . S
C1275 C1274 1.327 . S
C1275 C1279 1.429 . S
C1276 C1259 1.574 . S
C1276 H1270 0.949 . S
C1276 C1280 1.368 . S
C1277 C1258 1.429 . S
C1277 C1271 1.429 . S
C1277 C1278 1.523 . S
C1278 C1259 1.368 . S
C1278 C1272 1.368 . S
C1278 C1277 1.523 . S
C1279 C1263 1.429 . S
C1279 C1275 1.429 . S
C1279 C1280 1.523 . S
C1280 C1264 1.368 . S
C1280 C1276 1.368 . S
C1280 C1279 1.523 . S
H1281 C1256 0.950 . S
H1282 C1258 0.950 . S
H1283 C1259 0.949 . S
H1284 C1261 0.950 . S
H1285 C1263 0.950 . S
C1286 C1287 1.349 . S
C1286 C1288 1.327 . S
C1286 H1311 0.950 . S
C1287 C1286 1.349 . S
C1287 C1303 1.349 . S
C1288 C1286 1.327 . S
C1288 C1307 1.429 . S
C1288 H1312 0.950 . S
C1289 C1306 1.574 . S
C1289 C1308 1.368 . S
C1289 H1313 0.949 . S
H1290 C1294 0.949 . S
C1291 C1292 1.349 . S
C1291 C1293 1.327 . S
C1291 H1314 0.950 . S
C1292 C1291 1.349 . S
C1292 C1304 1.349 . S
C1293 C1291 1.327 . S
C1293 C1309 1.429 . S
C1293 H1315 0.950 . S
C1294 H1290 0.949 . S
C1294 C1302 1.574 . S
C1294 C1310 1.368 . S
H1295 C1303 0.950 . S
H1296 C1301 0.950 . S
H1297 C1302 0.949 . S
H1298 C1304 0.950 . S
H1299 C1305 0.950 . S
H1300 C1306 0.949 . S
C1301 H1296 0.950 . S
C1301 C1303 1.327 . S
C1301 C1307 1.429 . S
C1302 C1294 1.574 . S
C1302 H1297 0.949 . S
C1302 C1308 1.368 . S
C1303 C1287 1.349 . S
C1303 H1295 0.950 . S
C1303 C1301 1.327 . S
C1304 C1292 1.349 . S
C1304 H1298 0.950 . S
C1304 C1305 1.327 . S
C1305 H1299 0.950 . S
C1305 C1304 1.327 . S
C1305 C1309 1.429 . S
C1306 C1289 1.574 . S
C1306 H1300 0.949 . S
C1306 C1310 1.368 . S
C1307 C1288 1.429 . S
C1307 C1301 1.429 . S
C1307 C1308 1.523 . S
C1308 C1289 1.368 . S
C1308 C1302 1.368 . S
C1308 C1307 1.523 . S
C1309 C1293 1.429 . S
C1309 C1305 1.429 . S
C1309 C1310 1.523 . S
C1310 C1294 1.368 . S
C1310 C1306 1.368 . S
C1310 C1309 1.523 . S
H1311 C1286 0.950 . S
H1312 C1288 0.950 . S
H1313 C1289 0.949 . S
H1314 C1291 0.950 . S
H1315 C1293 0.950 . S
C1316 C1317 1.349 . S
C1316 C1318 1.327 . S
C1316 H1341 0.950 . S
C1317 C1316 1.349 . S
C1317 C1333 1.349 . S
C1318 C1316 1.327 . S
C1318 C1337 1.429 . S
C1318 H1342 0.950 . S
C1319 C1336 1.574 . S
C1319 C1338 1.368 . S
C1319 H1343 0.949 . S
H1320 C1324 0.949 . S
C1321 C1322 1.349 . S
C1321 C1323 1.327 . S
C1321 H1344 0.950 . S
C1322 C1321 1.349 . S
C1322 C1334 1.349 . S
C1323 C1321 1.327 . S
C1323 C1339 1.429 . S
C1323 H1345 0.950 . S
C1324 H1320 0.949 . S
C1324 C1332 1.574 . S
C1324 C1340 1.368 . S
H1325 C1333 0.950 . S
H1326 C1331 0.950 . S
H1327 C1332 0.949 . S
H1328 C1334 0.950 . S
H1329 C1335 0.950 . S
H1330 C1336 0.949 . S
C1331 H1326 0.950 . S
C1331 C1333 1.327 . S
C1331 C1337 1.429 . S
C1332 C1324 1.574 . S
C1332 H1327 0.949 . S
C1332 C1338 1.368 . S
C1333 C1317 1.349 . S
C1333 H1325 0.950 . S
C1333 C1331 1.327 . S
C1334 C1322 1.349 . S
C1334 H1328 0.950 . S
C1334 C1335 1.327 . S
C1335 H1329 0.950 . S
C1335 C1334 1.327 . S
C1335 C1339 1.429 . S
C1336 C1319 1.574 . S
C1336 H1330 0.949 . S
C1336 C1340 1.368 . S
C1337 C1318 1.429 . S
C1337 C1331 1.429 . S
C1337 C1338 1.523 . S
C1338 C1319 1.368 . S
C1338 C1332 1.368 . S
C1338 C1337 1.523 . S
C1339 C1323 1.429 . S
C1339 C1335 1.429 . S
C1339 C1340 1.523 . S
C1340 C1324 1.368 . S
C1340 C1336 1.368 . S
C1340 C1339 1.523 . S
H1341 C1316 0.950 . S
H1342 C1318 0.950 . S
H1343 C1319 0.949 . S
H1344 C1321 0.950 . S
H1345 C1323 0.950 . S
C1346 C1347 1.349 . S
C1346 C1348 1.327 . S
C1346 H1371 0.950 . S
C1347 C1346 1.349 . S
C1347 C1363 1.349 . S
C1348 C1346 1.327 . S
C1348 C1367 1.429 . S
C1348 H1372 0.950 . S
C1349 C1366 1.574 . S
C1349 C1368 1.368 . S
C1349 H1373 0.949 . S
H1350 C1354 0.949 . S
C1351 C1352 1.349 . S
C1351 C1353 1.327 . S
C1351 H1374 0.950 . S
C1352 C1351 1.349 . S
C1352 C1364 1.349 . S
C1353 C1351 1.327 . S
C1353 C1369 1.429 . S
C1353 H1375 0.950 . S
C1354 H1350 0.949 . S
C1354 C1362 1.574 . S
C1354 C1370 1.368 . S
H1355 C1363 0.950 . S
H1356 C1361 0.950 . S
H1357 C1362 0.949 . S
H1358 C1364 0.950 . S
H1359 C1365 0.950 . S
H1360 C1366 0.949 . S
C1361 H1356 0.950 . S
C1361 C1363 1.327 . S
C1361 C1367 1.429 . S
C1362 C1354 1.574 . S
C1362 H1357 0.949 . S
C1362 C1368 1.368 . S
C1363 C1347 1.349 . S
C1363 H1355 0.950 . S
C1363 C1361 1.327 . S
C1364 C1352 1.349 . S
C1364 H1358 0.950 . S
C1364 C1365 1.327 . S
C1365 H1359 0.950 . S
C1365 C1364 1.327 . S
C1365 C1369 1.429 . S
C1366 C1349 1.574 . S
C1366 H1360 0.949 . S
C1366 C1370 1.368 . S
C1367 C1348 1.429 . S
C1367 C1361 1.429 . S
C1367 C1368 1.523 . S
C1368 C1349 1.368 . S
C1368 C1362 1.368 . S
C1368 C1367 1.523 . S
C1369 C1353 1.429 . S
C1369 C1365 1.429 . S
C1369 C1370 1.523 . S
C1370 C1354 1.368 . S
C1370 C1366 1.368 . S
C1370 C1369 1.523 . S
H1371 C1346 0.950 . S
H1372 C1348 0.950 . S
H1373 C1349 0.949 . S
H1374 C1351 0.950 . S
H1375 C1353 0.950 . S
C1376 C1377 1.349 . S
C1376 C1378 1.327 . S
C1376 H1401 0.950 . S
C1377 C1376 1.349 . S
C1377 C1393 1.349 . S
C1378 C1376 1.327 . S
C1378 C1397 1.429 . S
C1378 H1402 0.950 . S
C1379 C1396 1.574 . S
C1379 C1398 1.368 . S
C1379 H1403 0.949 . S
H1380 C1384 0.949 . S
C1381 C1382 1.349 . S
C1381 C1383 1.327 . S
C1381 H1404 0.950 . S
C1382 C1381 1.349 . S
C1382 C1394 1.349 . S
C1383 C1381 1.327 . S
C1383 C1399 1.429 . S
C1383 H1405 0.950 . S
C1384 H1380 0.949 . S
C1384 C1392 1.574 . S
C1384 C1400 1.368 . S
H1385 C1393 0.950 . S
H1386 C1391 0.950 . S
H1387 C1392 0.949 . S
H1388 C1394 0.946 1_655 S
H1389 C1395 0.950 . S
H1390 C1396 0.949 . S
C1391 H1386 0.950 . S
C1391 C1393 1.327 . S
C1391 C1397 1.429 . S
C1392 C1384 1.574 . S
C1392 H1387 0.949 . S
C1392 C1398 1.368 . S
C1393 C1377 1.349 . S
C1393 H1385 0.950 . S
C1393 C1391 1.327 . S
C1394 C1382 1.349 . S
C1394 H1388 0.946 1_455 S
C1394 C1395 1.327 . S
C1395 H1389 0.950 . S
C1395 C1394 1.327 . S
C1395 C1399 1.429 . S
C1396 C1379 1.574 . S
C1396 H1390 0.949 . S
C1396 C1400 1.368 . S
C1397 C1378 1.429 . S
C1397 C1391 1.429 . S
C1397 C1398 1.523 . S
C1398 C1379 1.368 . S
C1398 C1392 1.368 . S
C1398 C1397 1.523 . S
C1399 C1383 1.429 . S
C1399 C1395 1.429 . S
C1399 C1400 1.523 . S
C1400 C1384 1.368 . S
C1400 C1396 1.368 . S
C1400 C1399 1.523 . S
H1401 C1376 0.950 . S
H1402 C1378 0.950 . S
H1403 C1379 0.949 . S
H1404 C1381 0.950 . S
H1405 C1383 0.950 . S
C1406 C1407 1.349 . S
C1406 C1408 1.327 . S
C1406 H1431 0.950 . S
C1407 C1406 1.349 . S
C1407 C1423 1.349 . S
C1408 C1406 1.327 . S
C1408 C1427 1.429 . S
C1408 H1432 0.950 . S
C1409 C1426 1.574 . S
C1409 C1428 1.368 . S
C1409 H1433 0.949 . S
H1410 C1414 0.949 . S
C1411 C1412 1.349 . S
C1411 C1413 1.327 . S
C1411 H1434 0.950 . S
C1412 C1411 1.349 . S
C1412 C1424 1.349 . S
C1413 C1411 1.327 . S
C1413 C1429 1.429 . S
C1413 H1435 0.950 . S
C1414 H1410 0.949 . S
C1414 C1422 1.574 . S
C1414 C1430 1.368 . S
H1415 C1423 0.950 . S
H1416 C1421 0.950 . S
H1417 C1422 0.949 . S
H1418 C1424 0.950 . S
H1419 C1425 0.950 . S
H1420 C1426 0.949 . S
C1421 H1416 0.950 . S
C1421 C1423 1.327 . S
C1421 C1427 1.429 . S
C1422 C1414 1.574 . S
C1422 H1417 0.949 . S
C1422 C1428 1.368 . S
C1423 C1407 1.349 . S
C1423 H1415 0.950 . S
C1423 C1421 1.327 . S
C1424 C1412 1.349 . S
C1424 H1418 0.950 . S
C1424 C1425 1.327 . S
C1425 H1419 0.950 . S
C1425 C1424 1.327 . S
C1425 C1429 1.429 . S
C1426 C1409 1.574 . S
C1426 H1420 0.949 . S
C1426 C1430 1.368 . S
C1427 C1408 1.429 . S
C1427 C1421 1.429 . S
C1427 C1428 1.523 . S
C1428 C1409 1.368 . S
C1428 C1422 1.368 . S
C1428 C1427 1.523 . S
C1429 C1413 1.429 . S
C1429 C1425 1.429 . S
C1429 C1430 1.523 . S
C1430 C1414 1.368 . S
C1430 C1426 1.368 . S
C1430 C1429 1.523 . S
H1431 C1406 0.950 . S
H1432 C1408 0.950 . S
H1433 C1409 0.949 . S
H1434 C1411 0.950 . S
H1435 C1413 0.950 . S
C1436 C1437 1.349 . S
C1436 C1438 1.327 . S
C1436 H1461 0.950 . S
C1437 C1436 1.349 . S
C1437 C1453 1.349 . S
C1438 C1436 1.327 . S
C1438 C1457 1.429 . S
C1438 H1462 0.950 . S
C1439 C1456 1.574 . S
C1439 C1458 1.368 . S
C1439 H1463 0.949 . S
H1440 C1444 0.949 . S
C1441 C1442 1.349 . S
C1441 C1443 1.327 . S
C1441 H1464 0.950 . S
C1442 C1441 1.349 . S
C1442 C1454 1.349 . S
C1443 C1441 1.327 . S
C1443 C1459 1.429 . S
C1443 H1465 0.950 . S
C1444 H1440 0.949 . S
C1444 C1452 1.574 . S
C1444 C1460 1.368 . S
H1445 C1453 0.950 . S
H1446 C1451 0.950 . S
H1447 C1452 0.949 . S
H1448 C1454 0.950 . S
H1449 C1455 0.950 . S
H1450 C1456 0.949 . S
C1451 H1446 0.950 . S
C1451 C1453 1.327 . S
C1451 C1457 1.429 . S
C1452 C1444 1.574 . S
C1452 H1447 0.949 . S
C1452 C1458 1.368 . S
C1453 C1437 1.349 . S
C1453 H1445 0.950 . S
C1453 C1451 1.327 . S
C1454 C1442 1.349 . S
C1454 H1448 0.950 . S
C1454 C1455 1.327 . S
C1455 H1449 0.950 . S
C1455 C1454 1.327 . S
C1455 C1459 1.429 . S
C1456 C1439 1.574 . S
C1456 H1450 0.949 . S
C1456 C1460 1.368 . S
C1457 C1438 1.429 . S
C1457 C1451 1.429 . S
C1457 C1458 1.523 . S
C1458 C1439 1.368 . S
C1458 C1452 1.368 . S
C1458 C1457 1.523 . S
C1459 C1443 1.429 . S
C1459 C1455 1.429 . S
C1459 C1460 1.523 . S
C1460 C1444 1.368 . S
C1460 C1456 1.368 . S
C1460 C1459 1.523 . S
H1461 C1436 0.950 . S
H1462 C1438 0.950 . S
H1463 C1439 0.949 . S
H1464 C1441 0.950 . S
H1465 C1443 0.950 . S
C1466 C1467 1.349 . S
C1466 C1468 1.327 . S
C1466 H1491 0.950 . S
C1467 C1466 1.349 . S
C1467 C1483 1.349 . S
C1468 C1466 1.327 . S
C1468 C1487 1.429 . S
C1468 H1492 0.950 . S
C1469 C1486 1.574 . S
C1469 C1488 1.368 . S
C1469 H1493 0.949 . S
H1470 C1474 0.949 . S
C1471 C1472 1.349 . S
C1471 C1473 1.327 . S
C1471 H1494 0.950 . S
C1472 C1471 1.349 . S
C1472 C1484 1.349 . S
C1473 C1471 1.327 . S
C1473 C1489 1.429 . S
C1473 H1495 0.950 . S
C1474 H1470 0.949 . S
C1474 C1482 1.574 . S
C1474 C1490 1.368 . S
H1475 C1483 0.950 . S
H1476 C1481 0.950 . S
H1477 C1482 0.949 . S
H1478 C1484 0.950 . S
H1479 C1485 0.950 . S
H1480 C1486 0.949 . S
C1481 H1476 0.950 . S
C1481 C1483 1.327 . S
C1481 C1487 1.429 . S
C1482 C1474 1.574 . S
C1482 H1477 0.949 . S
C1482 C1488 1.368 . S
C1483 C1467 1.349 . S
C1483 H1475 0.950 . S
C1483 C1481 1.327 . S
C1484 C1472 1.349 . S
C1484 H1478 0.950 . S
C1484 C1485 1.327 . S
C1485 H1479 0.950 . S
C1485 C1484 1.327 . S
C1485 C1489 1.429 . S
C1486 C1469 1.574 . S
C1486 H1480 0.949 . S
C1486 C1490 1.368 . S
C1487 C1468 1.429 . S
C1487 C1481 1.429 . S
C1487 C1488 1.523 . S
C1488 C1469 1.368 . S
C1488 C1482 1.368 . S
C1488 C1487 1.523 . S
C1489 C1473 1.429 . S
C1489 C1485 1.429 . S
C1489 C1490 1.523 . S
C1490 C1474 1.368 . S
C1490 C1486 1.368 . S
C1490 C1489 1.523 . S
H1491 C1466 0.950 . S
H1492 C1468 0.950 . S
H1493 C1469 0.949 . S
H1494 C1471 0.950 . S
H1495 C1473 0.950 . S
C1496 C1497 1.349 . S
C1496 C1498 1.327 . S
C1496 H1521 0.950 . S
C1497 C1496 1.349 . S
C1497 C1513 1.349 . S
C1498 C1496 1.327 . S
C1498 C1517 1.429 . S
C1498 H1522 0.950 . S
C1499 C1516 1.574 . S
C1499 C1518 1.368 1_655 S
C1499 H1523 0.949 . S
H1500 C1504 0.949 . S
C1501 C1502 1.358 . S
C1501 C1503 1.327 . S
C1501 H1524 0.950 . S
C1502 C1501 1.358 . S
C1502 C1514 1.341 1_655 S
C1503 C1501 1.327 . S
C1503 C1519 1.429 1_655 S
C1503 H1525 0.950 . S
C1504 H1500 0.949 . S
C1504 C1512 1.574 . S
C1504 C1520 1.368 . S
H1505 C1513 0.950 1_655 S
H1506 C1511 0.912 1_655 S
H1507 C1512 0.949 . S
H1508 C1514 0.950 . S
H1509 C1515 0.950 . S
H1510 C1516 0.949 . S
C1511 H1506 0.912 1_455 S
C1511 C1513 1.328 . S
C1511 C1517 1.468 . S
C1512 C1504 1.574 . S
C1512 H1507 0.949 . S
C1512 C1518 1.368 . S
C1513 C1497 1.349 . S
C1513 H1505 0.950 1_455 S
C1513 C1511 1.328 . S
C1514 C1502 1.341 1_455 S
C1514 H1508 0.950 . S
C1514 C1515 1.327 . S
C1515 H1509 0.950 . S
C1515 C1514 1.327 . S
C1515 C1519 1.429 . S
C1516 C1499 1.574 . S
C1516 H1510 0.949 . S
C1516 C1520 1.368 1_655 S
C1517 C1498 1.429 . S
C1517 C1511 1.468 . S
C1517 C1518 1.523 . S
C1518 C1499 1.368 1_455 S
C1518 C1512 1.368 . S
C1518 C1517 1.523 . S
C1519 C1503 1.429 1_455 S
C1519 C1515 1.429 . S
C1519 C1520 1.523 . S
C1520 C1504 1.368 . S
C1520 C1516 1.368 1_455 S
C1520 C1519 1.523 . S
H1521 C1496 0.950 . S
H1522 C1498 0.950 . S
H1523 C1499 0.949 . S
H1524 C1501 0.950 . S
H1525 C1503 0.950 . S
C1526 C1527 1.349 . S
C1526 C1528 1.327 . S
C1526 H1551 0.950 . S
C1527 C1526 1.349 . S
C1527 C1543 1.349 . S
C1528 C1526 1.327 . S
C1528 C1547 1.429 . S
C1528 H1552 0.950 . S
C1529 C1546 1.574 . S
C1529 C1548 1.368 . S
C1529 H1553 0.949 . S
H1530 C1534 0.949 . S
C1531 C1532 1.349 . S
C1531 C1533 1.327 . S
C1531 H1554 0.950 . S
C1532 C1531 1.349 . S
C1532 C1544 1.349 . S
C1533 C1531 1.327 . S
C1533 C1549 1.429 . S
C1533 H1555 0.950 . S
C1534 H1530 0.949 . S
C1534 C1542 1.574 . S
C1534 C1550 1.368 . S
H1535 C1543 0.950 . S
H1536 C1541 0.950 . S
H1537 C1542 0.949 . S
H1538 C1544 0.950 . S
H1539 C1545 0.950 . S
H1540 C1546 0.949 . S
C1541 H1536 0.950 . S
C1541 C1543 1.327 . S
C1541 C1547 1.429 . S
C1542 C1534 1.574 . S
C1542 H1537 0.949 . S
C1542 C1548 1.368 . S
C1543 C1527 1.349 . S
C1543 H1535 0.950 . S
C1543 C1541 1.327 . S
C1544 C1532 1.349 . S
C1544 H1538 0.950 . S
C1544 C1545 1.327 . S
C1545 H1539 0.950 . S
C1545 C1544 1.327 . S
C1545 C1549 1.429 . S
C1546 C1529 1.574 . S
C1546 H1540 0.949 . S
C1546 C1550 1.368 . S
C1547 C1528 1.429 . S
C1547 C1541 1.429 . S
C1547 C1548 1.523 . S
C1548 C1529 1.368 . S
C1548 C1542 1.368 . S
C1548 C1547 1.523 . S
C1549 C1533 1.429 . S
C1549 C1545 1.429 . S
C1549 C1550 1.523 . S
C1550 C1534 1.368 . S
C1550 C1546 1.368 . S
C1550 C1549 1.523 . S
H1551 C1526 0.950 . S
H1552 C1528 0.950 . S
H1553 C1529 0.949 . S
H1554 C1531 0.950 . S
H1555 C1533 0.950 . S
C1556 C1557 1.349 . S
C1556 C1558 1.327 . S
C1556 H1581 0.950 . S
C1557 C1556 1.349 . S
C1557 C1573 1.349 . S
C1558 C1556 1.327 . S
C1558 C1577 1.429 . S
C1558 H1582 0.950 . S
C1559 C1576 1.574 . S
C1559 C1578 1.368 . S
C1559 H1583 0.949 . S
H1560 C1564 0.949 . S
C1561 C1562 1.349 . S
C1561 C1563 1.327 1_554 S
C1561 H1584 0.950 . S
C1562 C1561 1.349 . S
C1562 C1574 1.349 1_554 S
C1563 C1561 1.327 1_556 S
C1563 C1579 1.429 . S
C1563 H1585 0.950 1_556 S
C1564 H1560 0.949 . S
C1564 C1572 1.574 . S
C1564 C1580 1.368 . S
H1565 C1573 0.950 . S
H1566 C1571 0.950 . S
H1567 C1572 0.949 . S
H1568 C1574 0.950 . S
H1569 C1575 0.950 . S
H1570 C1576 0.949 . S
C1571 H1566 0.950 . S
C1571 C1573 1.327 . S
C1571 C1577 1.429 . S
C1572 C1564 1.574 . S
C1572 H1567 0.949 . S
C1572 C1578 1.368 . S
C1573 C1557 1.349 . S
C1573 H1565 0.950 . S
C1573 C1571 1.327 . S
C1574 C1562 1.349 1_556 S
C1574 H1568 0.950 . S
C1574 C1575 1.327 . S
C1575 H1569 0.950 . S
C1575 C1574 1.327 . S
C1575 C1579 1.429 . S
C1576 C1559 1.574 . S
C1576 H1570 0.949 . S
C1576 C1580 1.368 . S
C1577 C1558 1.429 . S
C1577 C1571 1.429 . S
C1577 C1578 1.523 . S
C1578 C1559 1.368 . S
C1578 C1572 1.368 . S
C1578 C1577 1.523 . S
C1579 C1563 1.429 . S
C1579 C1575 1.429 . S
C1579 C1580 1.523 . S
C1580 C1564 1.368 . S
C1580 C1576 1.368 . S
C1580 C1579 1.523 . S
H1581 C1556 0.950 . S
H1582 C1558 0.950 . S
H1583 C1559 0.949 . S
H1584 C1561 0.950 . S
H1585 C1563 0.950 1_554 S
C1586 C1587 1.349 . S
C1586 C1588 1.327 . S
C1586 H1611 0.950 . S
C1587 C1586 1.349 . S
C1587 C1603 1.349 . S
C1588 C1586 1.327 . S
C1588 C1607 1.429 . S
C1588 H1612 0.950 . S
C1589 C1606 1.574 . S
C1589 C1608 1.368 . S
C1589 H1613 0.949 . S
H1590 C1594 0.949 . S
C1591 C1592 1.349 . S
C1591 C1593 1.327 . S
C1591 H1614 0.950 . S
C1592 C1591 1.349 . S
C1592 C1604 1.349 . S
C1593 C1591 1.327 . S
C1593 C1609 1.429 . S
C1593 H1615 0.950 . S
C1594 H1590 0.949 . S
C1594 C1602 1.574 . S
C1594 C1610 1.368 . S
H1595 C1603 0.950 . S
H1596 C1601 0.950 . S
H1597 C1602 0.949 . S
H1598 C1604 0.950 . S
H1599 C1605 0.950 . S
H1600 C1606 0.949 . S
C1601 H1596 0.950 . S
C1601 C1603 1.327 . S
C1601 C1607 1.429 . S
C1602 C1594 1.574 . S
C1602 H1597 0.949 . S
C1602 C1608 1.368 . S
C1603 C1587 1.349 . S
C1603 H1595 0.950 . S
C1603 C1601 1.327 . S
C1604 C1592 1.349 . S
C1604 H1598 0.950 . S
C1604 C1605 1.327 . S
C1605 H1599 0.950 . S
C1605 C1604 1.327 . S
C1605 C1609 1.429 . S
C1606 C1589 1.574 . S
C1606 H1600 0.949 . S
C1606 C1610 1.368 . S
C1607 C1588 1.429 . S
C1607 C1601 1.429 . S
C1607 C1608 1.523 . S
C1608 C1589 1.368 . S
C1608 C1602 1.368 . S
C1608 C1607 1.523 . S
C1609 C1593 1.429 . S
C1609 C1605 1.429 . S
C1609 C1610 1.523 . S
C1610 C1594 1.368 . S
C1610 C1606 1.368 . S
C1610 C1609 1.523 . S
H1611 C1586 0.950 . S
H1612 C1588 0.950 . S
H1613 C1589 0.949 . S
H1614 C1591 0.950 . S
H1615 C1593 0.950 . S
C1616 C1617 1.349 1_565 S
C1616 C1618 1.327 . S
C1616 H1641 0.950 . S
C1617 C1616 1.349 1_545 S
C1617 C1633 1.349 . S
C1618 C1616 1.327 . S
C1618 C1637 1.429 1_565 S
C1618 H1642 0.950 . S
C1619 C1636 1.574 . S
C1619 C1638 1.368 . S
C1619 H1643 0.949 . S
H1620 C1624 0.949 . S
C1621 C1622 1.305 1_545 S
C1621 C1623 1.327 . S
C1621 H1644 0.950 . S
C1622 C1621 1.305 1_565 S
C1622 C1634 1.390 . S
C1623 C1621 1.327 . S
C1623 C1639 1.429 . S
C1623 H1645 0.950 . S
C1624 H1620 0.949 . S
C1624 C1632 1.574 . S
C1624 C1640 1.368 1_565 S
H1625 C1633 0.950 . S
H1626 C1631 0.950 . S
H1627 C1632 0.949 . S
H1628 C1634 0.950 . S
H1629 C1635 0.950 . S
H1630 C1636 0.949 . S
C1631 H1626 0.950 . S
C1631 C1633 1.327 . S
C1631 C1637 1.429 . S
C1632 C1624 1.574 . S
C1632 H1627 0.949 . S
C1632 C1638 1.368 1_565 S
C1633 C1617 1.349 . S
C1633 H1625 0.950 . S
C1633 C1631 1.327 . S
C1634 C1622 1.390 . S
C1634 H1628 0.950 . S
C1634 C1635 1.327 . S
C1635 H1629 0.950 . S
C1635 C1634 1.327 . S
C1635 C1639 1.429 1_565 S
C1636 C1619 1.574 . S
C1636 H1630 0.949 . S
C1636 C1640 1.368 . S
C1637 C1618 1.429 1_545 S
C1637 C1631 1.429 . S
C1637 C1638 1.523 . S
C1638 C1619 1.368 . S
C1638 C1632 1.368 1_545 S
C1638 C1637 1.523 . S
C1639 C1623 1.429 . S
C1639 C1635 1.429 1_545 S
C1639 C1640 1.523 . S
C1640 C1624 1.368 1_545 S
C1640 C1636 1.368 . S
C1640 C1639 1.523 . S
H1641 C1616 0.950 . S
H1642 C1618 0.950 . S
H1643 C1619 0.949 . S
H1644 C1621 0.950 . S
H1645 C1623 0.950 . S
C1646 C1647 1.349 . S
C1646 C1648 1.327 . S
C1646 H1671 0.950 . S
C1647 C1646 1.349 . S
C1647 C1663 1.349 . S
C1648 C1646 1.327 . S
C1648 C1667 1.429 . S
C1648 H1672 0.950 . S
C1649 C1666 1.574 . S
C1649 C1668 1.368 . S
C1649 H1673 0.949 . S
H1650 C1654 0.949 . S
C1651 C1652 1.349 . S
C1651 C1653 1.327 . S
C1651 H1674 0.950 . S
C1652 C1651 1.349 . S
C1652 C1664 1.349 . S
C1653 C1651 1.327 . S
C1653 C1669 1.429 . S
C1653 H1675 0.950 . S
C1654 H1650 0.949 . S
C1654 C1662 1.574 . S
C1654 C1670 1.368 . S
H1655 C1663 0.950 . S
H1656 C1661 0.950 . S
H1657 C1662 0.949 . S
H1658 C1664 0.950 . S
H1659 C1665 0.950 . S
H1660 C1666 0.949 . S
C1661 H1656 0.950 . S
C1661 C1663 1.327 . S
C1661 C1667 1.429 . S
C1662 C1654 1.574 . S
C1662 H1657 0.949 . S
C1662 C1668 1.368 . S
C1663 C1647 1.349 . S
C1663 H1655 0.950 . S
C1663 C1661 1.327 . S
C1664 C1652 1.349 . S
C1664 H1658 0.950 . S
C1664 C1665 1.327 . S
C1665 H1659 0.950 . S
C1665 C1664 1.327 . S
C1665 C1669 1.429 . S
C1666 C1649 1.574 . S
C1666 H1660 0.949 . S
C1666 C1670 1.368 . S
C1667 C1648 1.429 . S
C1667 C1661 1.429 . S
C1667 C1668 1.523 . S
C1668 C1649 1.368 . S
C1668 C1662 1.368 . S
C1668 C1667 1.523 . S
C1669 C1653 1.429 . S
C1669 C1665 1.429 . S
C1669 C1670 1.523 . S
C1670 C1654 1.368 . S
C1670 C1666 1.368 . S
C1670 C1669 1.523 . S
H1671 C1646 0.950 . S
H1672 C1648 0.950 . S
H1673 C1649 0.949 . S
H1674 C1651 0.950 . S
H1675 C1653 0.950 . S
C1676 C1677 1.349 . S
C1676 C1678 1.327 . S
C1676 H1701 0.950 . S
C1677 C1676 1.349 . S
C1677 C1693 1.349 . S
C1678 C1676 1.327 . S
C1678 C1697 1.429 . S
C1678 H1702 0.950 . S
C1679 C1696 1.574 . S
C1679 C1698 1.368 . S
C1679 H1703 0.949 . S
H1680 C1684 0.953 1_565 S
C1681 C1682 1.349 . S
C1681 C1683 1.327 . S
C1681 H1704 0.950 . S
C1682 C1681 1.349 . S
C1682 C1694 1.349 . S
C1683 C1681 1.327 . S
C1683 C1699 1.429 . S
C1683 H1705 0.950 . S
C1684 H1680 0.953 1_545 S
C1684 C1692 1.574 . S
C1684 C1700 1.368 . S
H1685 C1693 0.950 . S
H1686 C1691 0.950 . S
H1687 C1692 0.949 . S
H1688 C1694 0.950 1_565 S
H1689 C1695 0.950 1_565 S
H1690 C1696 0.949 . S
C1691 H1686 0.950 . S
C1691 C1693 1.327 . S
C1691 C1697 1.429 . S
C1692 C1684 1.574 . S
C1692 H1687 0.949 . S
C1692 C1698 1.368 . S
C1693 C1677 1.349 . S
C1693 H1685 0.950 . S
C1693 C1691 1.327 . S
C1694 C1682 1.349 . S
C1694 H1688 0.950 1_545 S
C1694 C1695 1.327 . S
C1695 H1689 0.950 1_545 S
C1695 C1694 1.327 . S
C1695 C1699 1.429 . S
C1696 C1679 1.574 . S
C1696 H1690 0.949 . S
C1696 C1700 1.368 . S
C1697 C1678 1.429 . S
C1697 C1691 1.429 . S
C1697 C1698 1.523 . S
C1698 C1679 1.368 . S
C1698 C1692 1.368 . S
C1698 C1697 1.523 . S
C1699 C1683 1.429 . S
C1699 C1695 1.429 . S
C1699 C1700 1.523 . S
C1700 C1684 1.368 . S
C1700 C1696 1.368 . S
C1700 C1699 1.523 . S
H1701 C1676 0.950 . S
H1702 C1678 0.950 . S
H1703 C1679 0.949 . S
H1704 C1681 0.950 . S
H1705 C1683 0.950 . S
C1706 C1707 1.349 . S
C1706 C1708 1.327 . S
C1706 H1731 0.950 . S
C1707 C1706 1.349 . S
C1707 C1723 1.349 . S
C1708 C1706 1.327 . S
C1708 C1727 1.429 . S
C1708 H1732 0.950 . S
C1709 C1726 1.574 . S
C1709 C1728 1.368 . S
C1709 H1733 0.949 . S
H1710 C1714 0.949 . S
C1711 C1712 1.349 . S
C1711 C1713 1.327 . S
C1711 H1734 0.950 . S
C1712 C1711 1.349 . S
C1712 C1724 1.349 . S
C1713 C1711 1.327 . S
C1713 C1729 1.429 . S
C1713 H1735 0.950 . S
C1714 H1710 0.949 . S
C1714 C1722 1.574 . S
C1714 C1730 1.368 . S
H1715 C1723 0.950 . S
H1716 C1721 0.950 . S
H1717 C1722 0.949 . S
H1718 C1724 0.950 . S
H1719 C1725 0.950 . S
H1720 C1726 0.949 . S
C1721 H1716 0.950 . S
C1721 C1723 1.327 . S
C1721 C1727 1.429 . S
C1722 C1714 1.574 . S
C1722 H1717 0.949 . S
C1722 C1728 1.368 . S
C1723 C1707 1.349 . S
C1723 H1715 0.950 . S
C1723 C1721 1.327 . S
C1724 C1712 1.349 . S
C1724 H1718 0.950 . S
C1724 C1725 1.327 . S
C1725 H1719 0.950 . S
C1725 C1724 1.327 . S
C1725 C1729 1.429 . S
C1726 C1709 1.574 . S
C1726 H1720 0.949 . S
C1726 C1730 1.368 . S
C1727 C1708 1.429 . S
C1727 C1721 1.429 . S
C1727 C1728 1.523 . S
C1728 C1709 1.368 . S
C1728 C1722 1.368 . S
C1728 C1727 1.523 . S
C1729 C1713 1.429 . S
C1729 C1725 1.429 . S
C1729 C1730 1.523 . S
C1730 C1714 1.368 . S
C1730 C1726 1.368 . S
C1730 C1729 1.523 . S
H1731 C1706 0.950 . S
H1732 C1708 0.950 . S
H1733 C1709 0.949 . S
H1734 C1711 0.950 . S
H1735 C1713 0.950 . S
C1736 C1737 1.349 . S
C1736 C1738 1.327 . S
C1736 H1761 0.950 . S
C1737 C1736 1.349 . S
C1737 C1753 1.349 1_545 S
C1738 C1736 1.327 . S
C1738 C1757 1.429 . S
C1738 H1762 0.950 . S
C1739 C1756 1.574 . S
C1739 C1758 1.368 1_565 S
C1739 H1763 0.949 . S
H1740 C1744 0.949 . S
C1741 C1742 1.349 1_565 S
C1741 C1743 1.327 . S
C1741 H1764 0.950 . S
C1742 C1741 1.349 1_545 S
C1742 C1754 1.349 . S
C1743 C1741 1.327 . S
C1743 C1759 1.429 1_565 S
C1743 H1765 0.950 . S
C1744 H1740 0.949 . S
C1744 C1752 1.574 . S
C1744 C1760 1.368 . S
H1745 C1753 0.950 . S
H1746 C1751 0.950 . S
H1747 C1752 0.949 . S
H1748 C1754 0.950 . S
H1749 C1755 0.950 . S
H1750 C1756 0.949 . S
C1751 H1746 0.950 . S
C1751 C1753 1.327 . S
C1751 C1757 1.429 1_565 S
C1752 C1744 1.574 . S
C1752 H1747 0.949 . S
C1752 C1758 1.368 . S
C1753 C1737 1.349 1_565 S
C1753 H1745 0.950 . S
C1753 C1751 1.327 . S
C1754 C1742 1.349 . S
C1754 H1748 0.950 . S
C1754 C1755 1.327 . S
C1755 H1749 0.950 . S
C1755 C1754 1.327 . S
C1755 C1759 1.429 . S
C1756 C1739 1.574 . S
C1756 H1750 0.949 . S
C1756 C1760 1.368 1_565 S
C1757 C1738 1.429 . S
C1757 C1751 1.429 1_545 S
C1757 C1758 1.523 . S
C1758 C1739 1.368 1_545 S
C1758 C1752 1.368 . S
C1758 C1757 1.523 . S
C1759 C1743 1.429 1_545 S
C1759 C1755 1.429 . S
C1759 C1760 1.523 . S
C1760 C1744 1.368 . S
C1760 C1756 1.368 1_545 S
C1760 C1759 1.523 . S
H1761 C1736 0.950 . S
H1762 C1738 0.950 . S
H1763 C1739 0.949 . S
H1764 C1741 0.950 . S
H1765 C1743 0.950 . S
C1766 C1767 1.349 . S
C1766 C1768 1.327 . S
C1766 H1791 0.950 . S
C1767 C1766 1.349 . S
C1767 C1783 1.349 . S
C1768 C1766 1.327 . S
C1768 C1787 1.429 . S
C1768 H1792 0.950 . S
C1769 C1786 1.574 . S
C1769 C1788 1.368 . S
C1769 H1793 0.949 . S
H1770 C1774 0.949 . S
C1771 C1772 1.349 . S
C1771 C1773 1.327 . S
C1771 H1794 0.950 . S
C1772 C1771 1.349 . S
C1772 C1784 1.349 . S
C1773 C1771 1.327 . S
C1773 C1789 1.429 . S
C1773 H1795 0.950 . S
C1774 H1770 0.949 . S
C1774 C1782 1.574 . S
C1774 C1790 1.368 . S
H1775 C1783 0.950 . S
H1776 C1781 0.950 . S
H1777 C1782 0.949 . S
H1778 C1784 0.950 . S
H1779 C1785 0.950 . S
H1780 C1786 0.949 . S
C1781 H1776 0.950 . S
C1781 C1783 1.327 . S
C1781 C1787 1.429 . S
C1782 C1774 1.574 . S
C1782 H1777 0.949 . S
C1782 C1788 1.368 . S
C1783 C1767 1.349 . S
C1783 H1775 0.950 . S
C1783 C1781 1.327 . S
C1784 C1772 1.349 . S
C1784 H1778 0.950 . S
C1784 C1785 1.327 . S
C1785 H1779 0.950 . S
C1785 C1784 1.327 . S
C1785 C1789 1.429 . S
C1786 C1769 1.574 . S
C1786 H1780 0.949 . S
C1786 C1790 1.368 . S
C1787 C1768 1.429 . S
C1787 C1781 1.429 . S
C1787 C1788 1.523 . S
C1788 C1769 1.368 . S
C1788 C1782 1.368 . S
C1788 C1787 1.523 . S
C1789 C1773 1.429 . S
C1789 C1785 1.429 . S
C1789 C1790 1.523 . S
C1790 C1774 1.368 . S
C1790 C1786 1.368 . S
C1790 C1789 1.523 . S
H1791 C1766 0.950 . S
H1792 C1768 0.950 . S
H1793 C1769 0.949 . S
H1794 C1771 0.950 . S
H1795 C1773 0.950 . S
C1796 C1797 1.349 . S
C1796 C1798 1.327 . S
C1796 H1821 0.950 . S
C1797 C1796 1.349 . S
C1797 C1813 1.349 . S
C1798 C1796 1.327 . S
C1798 C1817 1.429 . S
C1798 H1822 0.950 . S
C1799 C1816 1.574 . S
C1799 C1818 1.368 1_565 S
C1799 H1823 0.949 . S
H1800 C1804 0.949 . S
C1801 C1802 1.374 . S
C1801 C1803 1.327 . S
C1801 H1824 0.950 . S
C1802 C1801 1.374 . S
C1802 C1814 1.320 1_565 S
C1803 C1801 1.327 . S
C1803 C1819 1.429 1_565 S
C1803 H1825 0.950 . S
C1804 H1800 0.949 . S
C1804 C1812 1.574 . S
C1804 C1820 1.368 . S
H1805 C1813 0.950 1_565 S
H1806 C1811 0.950 1_565 S
H1807 C1812 0.949 . S
H1808 C1814 0.950 . S
H1809 C1815 0.950 . S
H1810 C1816 0.949 . S
C1811 H1806 0.950 1_545 S
C1811 C1813 1.327 . S
C1811 C1817 1.429 . S
C1812 C1804 1.574 . S
C1812 H1807 0.949 . S
C1812 C1818 1.368 . S
C1813 C1797 1.349 . S
C1813 H1805 0.950 1_545 S
C1813 C1811 1.327 . S
C1814 C1802 1.320 1_545 S
C1814 H1808 0.950 . S
C1814 C1815 1.327 . S
C1815 H1809 0.950 . S
C1815 C1814 1.327 . S
C1815 C1819 1.429 . S
C1816 C1799 1.574 . S
C1816 H1810 0.949 . S
C1816 C1820 1.368 1_565 S
C1817 C1798 1.429 . S
C1817 C1811 1.429 . S
C1817 C1818 1.523 . S
C1818 C1799 1.368 1_545 S
C1818 C1812 1.368 . S
C1818 C1817 1.523 . S
C1819 C1803 1.429 1_545 S
C1819 C1815 1.429 . S
C1819 C1820 1.523 . S
C1820 C1804 1.368 . S
C1820 C1816 1.368 1_545 S
C1820 C1819 1.523 . S
H1821 C1796 0.950 . S
H1822 C1798 0.950 . S
H1823 C1799 0.949 . S
H1824 C1801 0.950 . S
H1825 C1803 0.950 . S
C1826 C1827 1.349 . S
C1826 C1828 1.327 . S
C1826 H1851 0.950 . S
C1827 C1826 1.349 . S
C1827 C1843 1.349 . S
C1828 C1826 1.327 . S
C1828 C1847 1.429 . S
C1828 H1852 0.950 . S
C1829 C1846 1.574 . S
C1829 C1848 1.368 . S
C1829 H1853 0.949 . S
H1830 C1834 0.949 . S
C1831 C1832 1.349 . S
C1831 C1833 1.327 . S
C1831 H1854 0.950 . S
C1832 C1831 1.349 . S
C1832 C1844 1.349 . S
C1833 C1831 1.327 . S
C1833 C1849 1.429 . S
C1833 H1855 0.950 . S
C1834 H1830 0.949 . S
C1834 C1842 1.574 . S
C1834 C1850 1.368 . S
H1835 C1843 0.950 . S
H1836 C1841 0.950 . S
H1837 C1842 0.949 . S
H1838 C1844 0.950 . S
H1839 C1845 0.950 . S
H1840 C1846 0.949 . S
C1841 H1836 0.950 . S
C1841 C1843 1.327 . S
C1841 C1847 1.429 . S
C1842 C1834 1.574 . S
C1842 H1837 0.949 . S
C1842 C1848 1.368 . S
C1843 C1827 1.349 . S
C1843 H1835 0.950 . S
C1843 C1841 1.327 . S
C1844 C1832 1.349 . S
C1844 H1838 0.950 . S
C1844 C1845 1.327 . S
C1845 H1839 0.950 . S
C1845 C1844 1.327 . S
C1845 C1849 1.429 . S
C1846 C1829 1.574 . S
C1846 H1840 0.949 . S
C1846 C1850 1.368 . S
C1847 C1828 1.429 . S
C1847 C1841 1.429 . S
C1847 C1848 1.523 . S
C1848 C1829 1.368 . S
C1848 C1842 1.368 . S
C1848 C1847 1.523 . S
C1849 C1833 1.429 . S
C1849 C1845 1.429 . S
C1849 C1850 1.523 . S
C1850 C1834 1.368 . S
C1850 C1846 1.368 . S
C1850 C1849 1.523 . S
H1851 C1826 0.950 . S
H1852 C1828 0.950 . S
H1853 C1829 0.949 . S
H1854 C1831 0.950 . S
H1855 C1833 0.950 . S
C1856 C1857 1.349 . S
C1856 C1858 1.327 . S
C1856 H1881 0.950 . S
C1857 C1856 1.349 . S
C1857 C1873 1.349 . S
C1858 C1856 1.327 . S
C1858 C1877 1.429 . S
C1858 H1882 0.950 . S
C1859 C1876 1.574 . S
C1859 C1878 1.368 1_556 S
C1859 H1883 0.949 . S
H1860 C1864 0.949 . S
C1861 C1862 1.347 . S
C1861 C1863 1.327 . S
C1861 H1884 0.950 . S
C1862 C1861 1.347 . S
C1862 C1874 1.351 1_556 S
C1863 C1861 1.327 . S
C1863 C1879 1.429 1_556 S
C1863 H1885 0.950 . S
C1864 H1860 0.949 . S
C1864 C1872 1.574 . S
C1864 C1880 1.368 . S
H1865 C1873 0.950 1_556 S
H1866 C1871 0.950 1_556 S
H1867 C1872 0.949 . S
H1868 C1874 0.950 . S
H1869 C1875 0.950 . S
H1870 C1876 0.949 . S
C1871 H1866 0.950 1_554 S
C1871 C1873 1.327 . S
C1871 C1877 1.429 . S
C1872 C1864 1.574 . S
C1872 H1867 0.949 . S
C1872 C1878 1.368 . S
C1873 C1857 1.349 . S
C1873 H1865 0.950 1_554 S
C1873 C1871 1.327 . S
C1874 C1862 1.351 1_554 S
C1874 H1868 0.950 . S
C1874 C1875 1.327 . S
C1875 H1869 0.950 . S
C1875 C1874 1.327 . S
C1875 C1879 1.429 . S
C1876 C1859 1.574 . S
C1876 H1870 0.949 . S
C1876 C1880 1.368 1_556 S
C1877 C1858 1.429 . S
C1877 C1871 1.429 . S
C1877 C1878 1.523 . S
C1878 C1859 1.368 1_554 S
C1878 C1872 1.368 . S
C1878 C1877 1.523 . S
C1879 C1863 1.429 1_554 S
C1879 C1875 1.429 . S
C1879 C1880 1.523 . S
C1880 C1864 1.368 . S
C1880 C1876 1.368 1_554 S
C1880 C1879 1.523 . S
H1881 C1856 0.950 . S
H1882 C1858 0.950 . S
H1883 C1859 0.949 . S
H1884 C1861 0.950 . S
H1885 C1863 0.950 . S
C1886 C1887 1.349 . S
C1886 C1888 1.327 . S
C1886 H1911 0.950 . S
C1887 C1886 1.349 . S
C1887 C1903 1.349 . S
C1888 C1886 1.327 . S
C1888 C1907 1.429 . S
C1888 H1912 0.950 . S
C1889 C1906 1.574 . S
C1889 C1908 1.368 . S
C1889 H1913 0.949 . S
H1890 C1894 0.949 . S
C1891 C1892 1.349 . S
C1891 C1893 1.327 . S
C1891 H1914 0.950 . S
C1892 C1891 1.349 . S
C1892 C1904 1.349 . S
C1893 C1891 1.327 . S
C1893 C1909 1.429 . S
C1893 H1915 0.950 . S
C1894 H1890 0.949 . S
C1894 C1902 1.574 . S
C1894 C1910 1.368 . S
H1895 C1903 0.950 . S
H1896 C1901 0.950 . S
H1897 C1902 0.949 . S
H1898 C1904 0.950 1_556 S
H1899 C1905 0.973 . S
H1900 C1906 0.949 . S
C1901 H1896 0.950 . S
C1901 C1903 1.327 . S
C1901 C1907 1.429 . S
C1902 C1894 1.574 . S
C1902 H1897 0.949 . S
C1902 C1908 1.368 . S
C1903 C1887 1.349 . S
C1903 H1895 0.950 . S
C1903 C1901 1.327 . S
C1904 C1892 1.349 . S
C1904 H1898 0.950 1_554 S
C1904 C1905 1.327 . S
C1905 H1899 0.973 . S
C1905 C1904 1.327 . S
C1905 C1909 1.429 . S
C1906 C1889 1.574 . S
C1906 H1900 0.949 . S
C1906 C1910 1.368 . S
C1907 C1888 1.429 . S
C1907 C1901 1.429 . S
C1907 C1908 1.523 . S
C1908 C1889 1.368 . S
C1908 C1902 1.368 . S
C1908 C1907 1.523 . S
C1909 C1893 1.429 . S
C1909 C1905 1.429 . S
C1909 C1910 1.523 . S
C1910 C1894 1.368 . S
C1910 C1906 1.368 . S
C1910 C1909 1.523 . S
H1911 C1886 0.950 . S
H1912 C1888 0.950 . S
H1913 C1889 0.949 . S
H1914 C1891 0.950 . S
H1915 C1893 0.950 . S
C1916 C1917 1.349 . S
C1916 C1918 1.327 . S
C1916 H1941 0.950 . S
C1917 C1916 1.349 . S
C1917 C1933 1.349 . S
C1918 C1916 1.327 . S
C1918 C1937 1.429 . S
C1918 H1942 0.950 . S
C1919 C1936 1.574 . S
C1919 C1938 1.368 . S
C1919 H1943 0.949 . S
H1920 C1924 0.949 . S
C1921 C1922 1.349 . S
C1921 C1923 1.327 . S
C1921 H1944 0.950 . S
C1922 C1921 1.349 . S
C1922 C1934 1.349 . S
C1923 C1921 1.327 . S
C1923 C1939 1.429 . S
C1923 H1945 0.950 . S
C1924 H1920 0.949 . S
C1924 C1932 1.574 . S
C1924 C1940 1.368 . S
H1925 C1933 0.950 . S
H1926 C1931 0.950 . S
H1927 C1932 0.949 . S
H1928 C1934 0.950 . S
H1929 C1935 0.950 . S
H1930 C1936 0.949 . S
C1931 H1926 0.950 . S
C1931 C1933 1.327 . S
C1931 C1937 1.429 . S
C1932 C1924 1.574 . S
C1932 H1927 0.949 . S
C1932 C1938 1.368 . S
C1933 C1917 1.349 . S
C1933 H1925 0.950 . S
C1933 C1931 1.327 . S
C1934 C1922 1.349 . S
C1934 H1928 0.950 . S
C1934 C1935 1.327 . S
C1935 H1929 0.950 . S
C1935 C1934 1.327 . S
C1935 C1939 1.429 . S
C1936 C1919 1.574 . S
C1936 H1930 0.949 . S
C1936 C1940 1.368 . S
C1937 C1918 1.429 . S
C1937 C1931 1.429 . S
C1937 C1938 1.523 . S
C1938 C1919 1.368 . S
C1938 C1932 1.368 . S
C1938 C1937 1.523 . S
C1939 C1923 1.429 . S
C1939 C1935 1.429 . S
C1939 C1940 1.523 . S
C1940 C1924 1.368 . S
C1940 C1936 1.368 . S
C1940 C1939 1.523 . S
H1941 C1916 0.950 . S
H1942 C1918 0.950 . S
H1943 C1919 0.949 . S
H1944 C1921 0.950 . S
H1945 C1923 0.950 . S
C1946 C1947 1.349 . S
C1946 C1948 1.327 . S
C1946 H1971 0.950 . S
C1947 C1946 1.349 . S
C1947 C1963 1.349 . S
C1948 C1946 1.327 . S
C1948 C1967 1.429 . S
C1948 H1972 0.950 . S
C1949 C1966 1.574 . S
C1949 C1968 1.368 . S
C1949 H1973 0.949 . S
H1950 C1954 0.949 . S
C1951 C1952 1.349 . S
C1951 C1953 1.327 . S
C1951 H1974 0.950 . S
C1952 C1951 1.349 . S
C1952 C1964 1.349 . S
C1953 C1951 1.327 . S
C1953 C1969 1.429 . S
C1953 H1975 0.950 . S
C1954 H1950 0.949 . S
C1954 C1962 1.574 . S
C1954 C1970 1.368 . S
H1955 C1963 0.950 . S
H1956 C1961 0.950 . S
H1957 C1962 0.949 . S
H1958 C1964 0.950 . S
H1959 C1965 0.950 . S
H1960 C1966 0.949 . S
C1961 H1956 0.950 . S
C1961 C1963 1.327 . S
C1961 C1967 1.429 . S
C1962 C1954 1.574 . S
C1962 H1957 0.949 . S
C1962 C1968 1.368 . S
C1963 C1947 1.349 . S
C1963 H1955 0.950 . S
C1963 C1961 1.327 . S
C1964 C1952 1.349 . S
C1964 H1958 0.950 . S
C1964 C1965 1.327 . S
C1965 H1959 0.950 . S
C1965 C1964 1.327 . S
C1965 C1969 1.429 . S
C1966 C1949 1.574 . S
C1966 H1960 0.949 . S
C1966 C1970 1.368 . S
C1967 C1948 1.429 . S
C1967 C1961 1.429 . S
C1967 C1968 1.523 . S
C1968 C1949 1.368 . S
C1968 C1962 1.368 . S
C1968 C1967 1.523 . S
C1969 C1953 1.429 . S
C1969 C1965 1.429 . S
C1969 C1970 1.523 . S
C1970 C1954 1.368 . S
C1970 C1966 1.368 . S
C1970 C1969 1.523 . S
H1971 C1946 0.950 . S
H1972 C1948 0.950 . S
H1973 C1949 0.949 . S
H1974 C1951 0.950 . S
H1975 C1953 0.950 . S
C1976 C1977 1.349 . S
C1976 C1978 1.327 . S
C1976 H2001 0.950 . S
C1977 C1976 1.349 . S
C1977 C1993 1.349 . S
C1978 C1976 1.327 . S
C1978 C1997 1.429 . S
C1978 H2002 0.950 . S
C1979 C1996 1.574 . S
C1979 C1998 1.368 . S
C1979 H2003 0.949 . S
H1980 C1984 0.949 . S
C1981 C1982 1.349 . S
C1981 C1983 1.327 . S
C1981 H2004 0.950 . S
C1982 C1981 1.349 . S
C1982 C1994 1.349 . S
C1983 C1981 1.327 . S
C1983 C1999 1.429 . S
C1983 H2005 0.950 . S
C1984 H1980 0.949 . S
C1984 C1992 1.574 . S
C1984 C2000 1.368 . S
H1985 C1993 0.950 . S
H1986 C1991 0.950 . S
H1987 C1992 0.949 . S
H1988 C1994 0.950 . S
H1989 C1995 0.950 . S
H1990 C1996 0.949 . S
C1991 H1986 0.950 . S
C1991 C1993 1.327 . S
C1991 C1997 1.429 . S
C1992 C1984 1.574 . S
C1992 H1987 0.949 . S
C1992 C1998 1.368 . S
C1993 C1977 1.349 . S
C1993 H1985 0.950 . S
C1993 C1991 1.327 . S
C1994 C1982 1.349 . S
C1994 H1988 0.950 . S
C1994 C1995 1.327 . S
C1995 H1989 0.950 . S
C1995 C1994 1.327 . S
C1995 C1999 1.429 . S
C1996 C1979 1.574 . S
C1996 H1990 0.949 . S
C1996 C2000 1.368 . S
C1997 C1978 1.429 . S
C1997 C1991 1.429 . S
C1997 C1998 1.523 . S
C1998 C1979 1.368 . S
C1998 C1992 1.368 . S
C1998 C1997 1.523 . S
C1999 C1983 1.429 . S
C1999 C1995 1.429 . S
C1999 C2000 1.523 . S
C2000 C1984 1.368 . S
C2000 C1996 1.368 . S
C2000 C1999 1.523 . S
H2001 C1976 0.950 . S
H2002 C1978 0.950 . S
H2003 C1979 0.949 . S
H2004 C1981 0.950 . S
H2005 C1983 0.950 . S
C2006 C2007 1.349 . S
C2006 C2008 1.327 . S
C2006 H2031 0.950 . S
C2007 C2006 1.349 . S
C2007 C2023 1.349 . S
C2008 C2006 1.327 . S
C2008 C2027 1.429 . S
C2008 H2032 0.950 . S
C2009 C2026 1.574 . S
C2009 C2028 1.368 . S
C2009 H2033 0.949 . S
H2010 C2014 0.949 . S
C2011 C2012 1.349 . S
C2011 C2013 1.327 . S
C2011 H2034 0.950 . S
C2012 C2011 1.349 . S
C2012 C2024 1.349 . S
C2013 C2011 1.327 . S
C2013 C2029 1.429 . S
C2013 H2035 0.950 . S
C2014 H2010 0.949 . S
C2014 C2022 1.574 . S
C2014 C2030 1.368 . S
H2015 C2023 0.950 . S
H2016 C2021 0.950 . S
H2017 C2022 0.949 . S
H2018 C2024 0.950 . S
H2019 C2025 0.950 . S
H2020 C2026 0.949 . S
C2021 H2016 0.950 . S
C2021 C2023 1.327 . S
C2021 C2027 1.429 . S
C2022 C2014 1.574 . S
C2022 H2017 0.949 . S
C2022 C2028 1.368 . S
C2023 C2007 1.349 . S
C2023 H2015 0.950 . S
C2023 C2021 1.327 . S
C2024 C2012 1.349 . S
C2024 H2018 0.950 . S
C2024 C2025 1.327 . S
C2025 H2019 0.950 . S
C2025 C2024 1.327 . S
C2025 C2029 1.429 . S
C2026 C2009 1.574 . S
C2026 H2020 0.949 . S
C2026 C2030 1.368 . S
C2027 C2008 1.429 . S
C2027 C2021 1.429 . S
C2027 C2028 1.523 . S
C2028 C2009 1.368 . S
C2028 C2022 1.368 . S
C2028 C2027 1.523 . S
C2029 C2013 1.429 . S
C2029 C2025 1.429 . S
C2029 C2030 1.523 . S
C2030 C2014 1.368 . S
C2030 C2026 1.368 . S
C2030 C2029 1.523 . S
H2031 C2006 0.950 . S
H2032 C2008 0.950 . S
H2033 C2009 0.949 . S
H2034 C2011 0.950 . S
H2035 C2013 0.950 . S
C2036 C2037 1.349 . S
C2036 C2038 1.327 . S
C2036 H2061 0.950 . S
C2037 C2036 1.349 . S
C2037 C2053 1.349 . S
C2038 C2036 1.327 . S
C2038 C2057 1.429 . S
C2038 H2062 0.950 . S
C2039 C2056 1.574 . S
C2039 C2058 1.368 . S
C2039 H2063 0.949 . S
H2040 C2044 0.949 . S
C2041 C2042 1.349 . S
C2041 C2043 1.327 . S
C2041 H2064 0.950 . S
C2042 C2041 1.349 . S
C2042 C2054 1.349 . S
C2043 C2041 1.327 . S
C2043 C2059 1.429 . S
C2043 H2065 0.950 . S
C2044 H2040 0.949 . S
C2044 C2052 1.574 . S
C2044 C2060 1.368 . S
H2045 C2053 0.950 . S
H2046 C2051 0.950 . S
H2047 C2052 0.949 . S
H2048 C2054 0.950 . S
H2049 C2055 0.950 . S
H2050 C2056 0.949 . S
C2051 H2046 0.950 . S
C2051 C2053 1.327 . S
C2051 C2057 1.429 . S
C2052 C2044 1.574 . S
C2052 H2047 0.949 . S
C2052 C2058 1.368 . S
C2053 C2037 1.349 . S
C2053 H2045 0.950 . S
C2053 C2051 1.327 . S
C2054 C2042 1.349 . S
C2054 H2048 0.950 . S
C2054 C2055 1.327 . S
C2055 H2049 0.950 . S
C2055 C2054 1.327 . S
C2055 C2059 1.429 . S
C2056 C2039 1.574 . S
C2056 H2050 0.949 . S
C2056 C2060 1.368 . S
C2057 C2038 1.429 . S
C2057 C2051 1.429 . S
C2057 C2058 1.523 . S
C2058 C2039 1.368 . S
C2058 C2052 1.368 . S
C2058 C2057 1.523 . S
C2059 C2043 1.429 . S
C2059 C2055 1.429 . S
C2059 C2060 1.523 . S
C2060 C2044 1.368 . S
C2060 C2056 1.368 . S
C2060 C2059 1.523 . S
H2061 C2036 0.950 . S
H2062 C2038 0.950 . S
H2063 C2039 0.949 . S
H2064 C2041 0.950 . S
H2065 C2043 0.950 . S
C2066 C2067 1.349 . S
C2066 C2068 1.327 . S
C2066 H2091 0.950 . S
C2067 C2066 1.349 . S
C2067 C2083 1.349 . S
C2068 C2066 1.327 . S
C2068 C2087 1.429 . S
C2068 H2092 0.950 . S
C2069 C2086 1.574 . S
C2069 C2088 1.368 . S
C2069 H2093 0.949 . S
H2070 C2074 0.949 . S
C2071 C2072 1.349 . S
C2071 C2073 1.327 . S
C2071 H2094 0.950 . S
C2072 C2071 1.349 . S
C2072 C2084 1.349 . S
C2073 C2071 1.327 . S
C2073 C2089 1.429 . S
C2073 H2095 0.950 . S
C2074 H2070 0.949 . S
C2074 C2082 1.574 . S
C2074 C2090 1.368 . S
H2075 C2083 0.950 . S
H2076 C2081 0.950 . S
H2077 C2082 0.949 . S
H2078 C2084 0.950 . S
H2079 C2085 0.950 . S
H2080 C2086 0.949 . S
C2081 H2076 0.950 . S
C2081 C2083 1.327 . S
C2081 C2087 1.429 . S
C2082 C2074 1.574 . S
C2082 H2077 0.949 . S
C2082 C2088 1.368 . S
C2083 C2067 1.349 . S
C2083 H2075 0.950 . S
C2083 C2081 1.327 . S
C2084 C2072 1.349 . S
C2084 H2078 0.950 . S
C2084 C2085 1.327 . S
C2085 H2079 0.950 . S
C2085 C2084 1.327 . S
C2085 C2089 1.429 . S
C2086 C2069 1.574 . S
C2086 H2080 0.949 . S
C2086 C2090 1.368 . S
C2087 C2068 1.429 . S
C2087 C2081 1.429 . S
C2087 C2088 1.523 . S
C2088 C2069 1.368 . S
C2088 C2082 1.368 . S
C2088 C2087 1.523 . S
C2089 C2073 1.429 . S
C2089 C2085 1.429 . S
C2089 C2090 1.523 . S
C2090 C2074 1.368 . S
C2090 C2086 1.368 . S
C2090 C2089 1.523 . S
H2091 C2066 0.950 . S
H2092 C2068 0.950 . S
H2093 C2069 0.949 . S
H2094 C2071 0.950 . S
H2095 C2073 0.950 . S
C2096 C2097 1.349 . S
C2096 C2098 1.327 . S
C2096 H2121 0.950 . S
C2097 C2096 1.349 . S
C2097 C2113 1.349 . S
C2098 C2096 1.327 . S
C2098 C2117 1.429 . S
C2098 H2122 0.950 . S
C2099 C2116 1.574 . S
C2099 C2118 1.368 . S
C2099 H2123 0.949 . S
H2100 C2104 0.949 . S
C2101 C2102 1.349 . S
C2101 C2103 1.327 . S
C2101 H2124 0.950 . S
C2102 C2101 1.349 . S
C2102 C2114 1.349 . S
C2103 C2101 1.327 . S
C2103 C2119 1.429 . S
C2103 H2125 0.950 . S
C2104 H2100 0.949 . S
C2104 C2112 1.574 . S
C2104 C2120 1.368 . S
H2105 C2113 0.950 . S
H2106 C2111 0.950 . S
H2107 C2112 0.949 . S
H2108 C2114 0.950 . S
H2109 C2115 0.950 . S
H2110 C2116 0.949 . S
C2111 H2106 0.950 . S
C2111 C2113 1.327 . S
C2111 C2117 1.429 . S
C2112 C2104 1.574 . S
C2112 H2107 0.949 . S
C2112 C2118 1.368 . S
C2113 C2097 1.349 . S
C2113 H2105 0.950 . S
C2113 C2111 1.327 . S
C2114 C2102 1.349 . S
C2114 H2108 0.950 . S
C2114 C2115 1.327 . S
C2115 H2109 0.950 . S
C2115 C2114 1.327 . S
C2115 C2119 1.429 . S
C2116 C2099 1.574 . S
C2116 H2110 0.949 . S
C2116 C2120 1.368 . S
C2117 C2098 1.429 . S
C2117 C2111 1.429 . S
C2117 C2118 1.523 . S
C2118 C2099 1.368 . S
C2118 C2112 1.368 . S
C2118 C2117 1.523 . S
C2119 C2103 1.429 . S
C2119 C2115 1.429 . S
C2119 C2120 1.523 . S
C2120 C2104 1.368 . S
C2120 C2116 1.368 . S
C2120 C2119 1.523 . S
H2121 C2096 0.950 . S
H2122 C2098 0.950 . S
H2123 C2099 0.949 . S
H2124 C2101 0.950 . S
H2125 C2103 0.950 . S
C2126 C2127 1.349 . S
C2126 C2128 1.327 . S
C2126 H2151 0.950 . S
C2127 C2126 1.349 . S
C2127 C2143 1.349 . S
C2128 C2126 1.327 . S
C2128 C2147 1.429 . S
C2128 H2152 0.950 . S
C2129 C2146 1.574 . S
C2129 C2148 1.368 . S
C2129 H2153 0.949 . S
H2130 C2134 0.949 . S
C2131 C2132 1.349 . S
C2131 C2133 1.327 . S
C2131 H2154 0.950 . S
C2132 C2131 1.349 . S
C2132 C2144 1.349 . S
C2133 C2131 1.327 . S
C2133 C2149 1.429 . S
C2133 H2155 0.950 . S
C2134 H2130 0.949 . S
C2134 C2142 1.574 . S
C2134 C2150 1.368 . S
H2135 C2143 0.950 . S
H2136 C2141 0.950 . S
H2137 C2142 0.949 . S
H2138 C2144 0.950 . S
H2139 C2145 0.950 . S
H2140 C2146 0.949 . S
C2141 H2136 0.950 . S
C2141 C2143 1.327 . S
C2141 C2147 1.429 . S
C2142 C2134 1.574 . S
C2142 H2137 0.949 . S
C2142 C2148 1.368 . S
C2143 C2127 1.349 . S
C2143 H2135 0.950 . S
C2143 C2141 1.327 . S
C2144 C2132 1.349 . S
C2144 H2138 0.950 . S
C2144 C2145 1.327 . S
C2145 H2139 0.950 . S
C2145 C2144 1.327 . S
C2145 C2149 1.429 . S
C2146 C2129 1.574 . S
C2146 H2140 0.949 . S
C2146 C2150 1.368 . S
C2147 C2128 1.429 . S
C2147 C2141 1.429 . S
C2147 C2148 1.523 . S
C2148 C2129 1.368 . S
C2148 C2142 1.368 . S
C2148 C2147 1.523 . S
C2149 C2133 1.429 . S
C2149 C2145 1.429 . S
C2149 C2150 1.523 . S
C2150 C2134 1.368 . S
C2150 C2146 1.368 . S
C2150 C2149 1.523 . S
H2151 C2126 0.950 . S
H2152 C2128 0.950 . S
H2153 C2129 0.949 . S
H2154 C2131 0.950 . S
H2155 C2133 0.950 . S
C2156 C2157 1.349 1_655 S
C2156 C2158 1.327 . S
C2156 H2181 0.950 . S
C2157 C2156 1.349 1_455 S
C2157 C2173 1.349 . S
C2158 C2156 1.327 . S
C2158 C2177 1.429 1_655 S
C2158 H2182 0.950 . S
C2159 C2176 1.574 . S
C2159 C2178 1.368 . S
C2159 H2183 0.949 . S
H2160 C2164 0.949 . S
C2161 C2162 1.337 1_554 S
C2161 C2163 1.307 1_554 S
C2161 H2184 0.986 . S
C2162 C2161 1.337 1_556 S
C2162 C2174 1.349 1_455 S
C2163 C2161 1.307 1_556 S
C2163 C2179 1.429 . S
C2163 H2185 0.950 . S
C2164 H2160 0.949 . S
C2164 C2172 1.574 . S
C2164 C2180 1.368 1_655 S
H2165 C2173 0.950 . S
H2166 C2171 0.950 . S
H2167 C2172 0.949 . S
H2168 C2174 0.950 . S
H2169 C2175 0.950 . S
H2170 C2176 0.949 . S
C2171 H2166 0.950 . S
C2171 C2173 1.327 . S
C2171 C2177 1.429 . S
C2172 C2164 1.574 . S
C2172 H2167 0.949 . S
C2172 C2178 1.368 1_655 S
C2173 C2157 1.349 . S
C2173 H2165 0.950 . S
C2173 C2171 1.327 . S
C2174 C2162 1.349 1_655 S
C2174 H2168 0.950 . S
C2174 C2175 1.327 . S
C2175 H2169 0.950 . S
C2175 C2174 1.327 . S
C2175 C2179 1.429 1_655 S
C2176 C2159 1.574 . S
C2176 H2170 0.949 . S
C2176 C2180 1.368 . S
C2177 C2158 1.429 1_455 S
C2177 C2171 1.429 . S
C2177 C2178 1.523 . S
C2178 C2159 1.368 . S
C2178 C2172 1.368 1_455 S
C2178 C2177 1.523 . S
C2179 C2163 1.429 . S
C2179 C2175 1.429 1_455 S
C2179 C2180 1.523 . S
C2180 C2164 1.368 1_455 S
C2180 C2176 1.368 . S
C2180 C2179 1.523 . S
H2181 C2156 0.950 . S
H2182 C2158 0.950 . S
H2183 C2159 0.949 . S
H2184 C2161 0.986 . S
H2185 C2163 0.950 . S
C2186 C2187 1.349 . S
C2186 C2188 1.327 . S
C2186 H2211 0.950 . S
C2187 C2186 1.349 . S
C2187 C2203 1.349 . S
C2188 C2186 1.327 . S
C2188 C2207 1.429 . S
C2188 H2212 0.950 . S
C2189 C2206 1.574 . S
C2189 C2208 1.368 . S
C2189 H2213 0.949 . S
H2190 C2194 0.949 . S
C2191 C2192 1.349 . S
C2191 C2193 1.327 . S
C2191 H2214 0.950 . S
C2192 C2191 1.349 . S
C2192 C2204 1.349 . S
C2193 C2191 1.327 . S
C2193 C2209 1.429 . S
C2193 H2215 0.950 . S
C2194 H2190 0.949 . S
C2194 C2202 1.574 . S
C2194 C2210 1.368 . S
H2195 C2203 0.950 . S
H2196 C2201 0.950 . S
H2197 C2202 0.949 . S
H2198 C2204 0.950 . S
H2199 C2205 0.950 . S
H2200 C2206 0.949 . S
C2201 H2196 0.950 . S
C2201 C2203 1.327 . S
C2201 C2207 1.429 . S
C2202 C2194 1.574 . S
C2202 H2197 0.949 . S
C2202 C2208 1.368 . S
C2203 C2187 1.349 . S
C2203 H2195 0.950 . S
C2203 C2201 1.327 . S
C2204 C2192 1.349 . S
C2204 H2198 0.950 . S
C2204 C2205 1.327 . S
C2205 H2199 0.950 . S
C2205 C2204 1.327 . S
C2205 C2209 1.429 . S
C2206 C2189 1.574 . S
C2206 H2200 0.949 . S
C2206 C2210 1.368 . S
C2207 C2188 1.429 . S
C2207 C2201 1.429 . S
C2207 C2208 1.523 . S
C2208 C2189 1.368 . S
C2208 C2202 1.368 . S
C2208 C2207 1.523 . S
C2209 C2193 1.429 . S
C2209 C2205 1.429 . S
C2209 C2210 1.523 . S
C2210 C2194 1.368 . S
C2210 C2206 1.368 . S
C2210 C2209 1.523 . S
H2211 C2186 0.950 . S
H2212 C2188 0.950 . S
H2213 C2189 0.949 . S
H2214 C2191 0.950 . S
H2215 C2193 0.950 . S
C2216 C2217 1.349 . S
C2216 C2218 1.327 . S
C2216 H2241 0.950 . S
C2217 C2216 1.349 . S
C2217 C2233 1.349 . S
C2218 C2216 1.327 . S
C2218 C2237 1.429 . S
C2218 H2242 0.950 . S
C2219 C2236 1.574 . S
C2219 C2238 1.368 . S
C2219 H2243 0.949 . S
H2220 C2224 0.949 . S
C2221 C2222 1.349 . S
C2221 C2223 1.327 . S
C2221 H2244 0.950 . S
C2222 C2221 1.349 . S
C2222 C2234 1.349 . S
C2223 C2221 1.327 . S
C2223 C2239 1.429 . S
C2223 H2245 0.950 . S
C2224 H2220 0.949 . S
C2224 C2232 1.574 . S
C2224 C2240 1.368 . S
H2225 C2233 0.950 . S
H2226 C2231 0.950 . S
H2227 C2232 0.949 . S
H2228 C2234 0.950 . S
H2229 C2235 0.950 . S
H2230 C2236 0.949 . S
C2231 H2226 0.950 . S
C2231 C2233 1.327 . S
C2231 C2237 1.429 . S
C2232 C2224 1.574 . S
C2232 H2227 0.949 . S
C2232 C2238 1.368 . S
C2233 C2217 1.349 . S
C2233 H2225 0.950 . S
C2233 C2231 1.327 . S
C2234 C2222 1.349 . S
C2234 H2228 0.950 . S
C2234 C2235 1.327 . S
C2235 H2229 0.950 . S
C2235 C2234 1.327 . S
C2235 C2239 1.429 . S
C2236 C2219 1.574 . S
C2236 H2230 0.949 . S
C2236 C2240 1.368 . S
C2237 C2218 1.429 . S
C2237 C2231 1.429 . S
C2237 C2238 1.523 . S
C2238 C2219 1.368 . S
C2238 C2232 1.368 . S
C2238 C2237 1.523 . S
C2239 C2223 1.429 . S
C2239 C2235 1.429 . S
C2239 C2240 1.523 . S
C2240 C2224 1.368 . S
C2240 C2236 1.368 . S
C2240 C2239 1.523 . S
H2241 C2216 0.950 . S
H2242 C2218 0.950 . S
H2243 C2219 0.949 . S
H2244 C2221 0.950 . S
H2245 C2223 0.950 . S
C2246 C2247 1.349 . S
C2246 C2248 1.327 . S
C2246 H2271 0.950 . S
C2247 C2246 1.349 . S
C2247 C2263 1.349 . S
C2248 C2246 1.327 . S
C2248 C2267 1.429 . S
C2248 H2272 0.950 . S
C2249 C2266 1.574 . S
C2249 C2268 1.368 . S
C2249 H2273 0.949 . S
H2250 C2254 0.949 . S
C2251 C2252 1.349 . S
C2251 C2253 1.327 . S
C2251 H2274 0.950 . S
C2252 C2251 1.349 . S
C2252 C2264 1.349 . S
C2253 C2251 1.327 . S
C2253 C2269 1.429 . S
C2253 H2275 0.950 . S
C2254 H2250 0.949 . S
C2254 C2262 1.574 . S
C2254 C2270 1.368 . S
H2255 C2263 0.950 . S
H2256 C2261 0.950 . S
H2257 C2262 0.949 . S
H2258 C2264 0.950 . S
H2259 C2265 0.950 . S
H2260 C2266 0.949 . S
C2261 H2256 0.950 . S
C2261 C2263 1.327 . S
C2261 C2267 1.429 . S
C2262 C2254 1.574 . S
C2262 H2257 0.949 . S
C2262 C2268 1.368 . S
C2263 C2247 1.349 . S
C2263 H2255 0.950 . S
C2263 C2261 1.327 . S
C2264 C2252 1.349 . S
C2264 H2258 0.950 . S
C2264 C2265 1.327 . S
C2265 H2259 0.950 . S
C2265 C2264 1.327 . S
C2265 C2269 1.429 . S
C2266 C2249 1.574 . S
C2266 H2260 0.949 . S
C2266 C2270 1.368 . S
C2267 C2248 1.429 . S
C2267 C2261 1.429 . S
C2267 C2268 1.523 . S
C2268 C2249 1.368 . S
C2268 C2262 1.368 . S
C2268 C2267 1.523 . S
C2269 C2253 1.429 . S
C2269 C2265 1.429 . S
C2269 C2270 1.523 . S
C2270 C2254 1.368 . S
C2270 C2266 1.368 . S
C2270 C2269 1.523 . S
H2271 C2246 0.950 . S
H2272 C2248 0.950 . S
H2273 C2249 0.949 . S
H2274 C2251 0.950 . S
H2275 C2253 0.950 . S
C2276 C2277 1.349 . S
C2276 C2278 1.327 . S
C2276 H2301 0.950 . S
C2277 C2276 1.349 . S
C2277 C2293 1.349 1_455 S
C2278 C2276 1.327 . S
C2278 C2297 1.429 . S
C2278 H2302 0.950 . S
C2279 C2296 1.574 . S
C2279 C2298 1.368 1_655 S
C2279 H2303 0.949 . S
H2280 C2284 0.949 . S
C2281 C2282 1.347 1_655 S
C2281 C2283 1.318 . S
C2281 H2304 0.951 . S
C2282 C2281 1.347 1_455 S
C2282 C2294 1.349 . S
C2283 C2281 1.318 . S
C2283 C2299 1.421 1_655 S
C2283 H2305 0.970 . S
C2284 H2280 0.949 . S
C2284 C2292 1.574 . S
C2284 C2300 1.368 . S
H2285 C2293 0.950 . S
H2286 C2291 0.950 . S
H2287 C2292 0.949 . S
H2288 C2294 0.950 . S
H2289 C2295 0.950 . S
H2290 C2296 0.949 . S
C2291 H2286 0.950 . S
C2291 C2293 1.327 . S
C2291 C2297 1.429 1_655 S
C2292 C2284 1.574 . S
C2292 H2287 0.949 . S
C2292 C2298 1.368 . S
C2293 C2277 1.349 1_655 S
C2293 H2285 0.950 . S
C2293 C2291 1.327 . S
C2294 C2282 1.349 . S
C2294 H2288 0.950 . S
C2294 C2295 1.327 . S
C2295 H2289 0.950 . S
C2295 C2294 1.327 . S
C2295 C2299 1.429 . S
C2296 C2279 1.574 . S
C2296 H2290 0.949 . S
C2296 C2300 1.368 1_655 S
C2297 C2278 1.429 . S
C2297 C2291 1.429 1_455 S
C2297 C2298 1.523 . S
C2298 C2279 1.368 1_455 S
C2298 C2292 1.368 . S
C2298 C2297 1.523 . S
C2299 C2283 1.421 1_455 S
C2299 C2295 1.429 . S
C2299 C2300 1.523 . S
C2300 C2284 1.368 . S
C2300 C2296 1.368 1_455 S
C2300 C2299 1.523 . S
H2301 C2276 0.950 . S
H2302 C2278 0.950 . S
H2303 C2279 0.949 . S
H2304 C2281 0.951 . S
H2305 C2283 0.970 . S
C2306 C2307 1.349 . S
C2306 C2308 1.327 . S
C2306 H2331 0.950 . S
C2307 C2306 1.349 . S
C2307 C2323 1.349 . S
C2308 C2306 1.327 . S
C2308 C2327 1.429 . S
C2308 H2332 0.950 . S
C2309 C2326 1.574 . S
C2309 C2328 1.368 . S
C2309 H2333 0.949 . S
H2310 C2314 0.949 . S
C2311 C2312 1.349 . S
C2311 C2313 1.327 . S
C2311 H2334 0.950 . S
C2312 C2311 1.349 . S
C2312 C2324 1.349 . S
C2313 C2311 1.327 . S
C2313 C2329 1.429 . S
C2313 H2335 0.950 . S
C2314 H2310 0.949 . S
C2314 C2322 1.574 . S
C2314 C2330 1.368 . S
H2315 C2323 0.950 . S
H2316 C2321 0.950 . S
H2317 C2322 0.949 . S
H2318 C2324 0.950 . S
H2319 C2325 0.950 . S
H2320 C2326 0.949 . S
C2321 H2316 0.950 . S
C2321 C2323 1.327 . S
C2321 C2327 1.429 . S
C2322 C2314 1.574 . S
C2322 H2317 0.949 . S
C2322 C2328 1.368 . S
C2323 C2307 1.349 . S
C2323 H2315 0.950 . S
C2323 C2321 1.327 . S
C2324 C2312 1.349 . S
C2324 H2318 0.950 . S
C2324 C2325 1.327 . S
C2325 H2319 0.950 . S
C2325 C2324 1.327 . S
C2325 C2329 1.429 . S
C2326 C2309 1.574 . S
C2326 H2320 0.949 . S
C2326 C2330 1.368 . S
C2327 C2308 1.429 . S
C2327 C2321 1.429 . S
C2327 C2328 1.523 . S
C2328 C2309 1.368 . S
C2328 C2322 1.368 . S
C2328 C2327 1.523 . S
C2329 C2313 1.429 . S
C2329 C2325 1.429 . S
C2329 C2330 1.523 . S
C2330 C2314 1.368 . S
C2330 C2326 1.368 . S
C2330 C2329 1.523 . S
H2331 C2306 0.950 . S
H2332 C2308 0.950 . S
H2333 C2309 0.949 . S
H2334 C2311 0.950 . S
H2335 C2313 0.950 . S
C2336 C2337 1.349 . S
C2336 C2338 1.327 . S
C2336 H2361 0.950 . S
C2337 C2336 1.349 . S
C2337 C2353 1.349 . S
C2338 C2336 1.327 . S
C2338 C2357 1.429 . S
C2338 H2362 0.950 . S
C2339 C2356 1.574 . S
C2339 C2358 1.368 . S
C2339 H2363 0.949 . S
H2340 C2344 0.949 . S
C2341 C2342 1.349 . S
C2341 C2343 1.327 . S
C2341 H2364 0.950 . S
C2342 C2341 1.349 . S
C2342 C2354 1.349 . S
C2343 C2341 1.327 . S
C2343 C2359 1.429 . S
C2343 H2365 0.950 . S
C2344 H2340 0.949 . S
C2344 C2352 1.574 . S
C2344 C2360 1.368 . S
H2345 C2353 0.950 . S
H2346 C2351 0.950 . S
H2347 C2352 0.949 . S
H2348 C2354 0.950 . S
H2349 C2355 0.950 . S
H2350 C2356 0.949 . S
C2351 H2346 0.950 . S
C2351 C2353 1.327 . S
C2351 C2357 1.429 . S
C2352 C2344 1.574 . S
C2352 H2347 0.949 . S
C2352 C2358 1.368 . S
C2353 C2337 1.349 . S
C2353 H2345 0.950 . S
C2353 C2351 1.327 . S
C2354 C2342 1.349 . S
C2354 H2348 0.950 . S
C2354 C2355 1.327 . S
C2355 H2349 0.950 . S
C2355 C2354 1.327 . S
C2355 C2359 1.429 . S
C2356 C2339 1.574 . S
C2356 H2350 0.949 . S
C2356 C2360 1.368 . S
C2357 C2338 1.429 . S
C2357 C2351 1.429 . S
C2357 C2358 1.523 . S
C2358 C2339 1.368 . S
C2358 C2352 1.368 . S
C2358 C2357 1.523 . S
C2359 C2343 1.429 . S
C2359 C2355 1.429 . S
C2359 C2360 1.523 . S
C2360 C2344 1.368 . S
C2360 C2356 1.368 . S
C2360 C2359 1.523 . S
H2361 C2336 0.950 . S
H2362 C2338 0.950 . S
H2363 C2339 0.949 . S
H2364 C2341 0.950 . S
H2365 C2343 0.950 . S
C2366 C2367 1.349 . S
C2366 C2368 1.327 . S
C2366 H2391 0.950 . S
C2367 C2366 1.349 . S
C2367 C2383 1.349 . S
C2368 C2366 1.327 . S
C2368 C2387 1.429 . S
C2368 H2392 0.950 . S
C2369 C2386 1.574 . S
C2369 C2388 1.368 . S
C2369 H2393 0.949 . S
H2370 C2374 0.949 . S
C2371 C2372 1.349 . S
C2371 C2373 1.327 . S
C2371 H2394 0.950 . S
C2372 C2371 1.349 . S
C2372 C2384 1.349 . S
C2373 C2371 1.327 . S
C2373 C2389 1.429 . S
C2373 H2395 0.950 . S
C2374 H2370 0.949 . S
C2374 C2382 1.574 . S
C2374 C2390 1.368 . S
H2375 C2383 0.950 . S
H2376 C2381 0.950 . S
H2377 C2382 0.949 . S
H2378 C2384 0.950 . S
H2379 C2385 0.950 . S
H2380 C2386 0.949 . S
C2381 H2376 0.950 . S
C2381 C2383 1.327 . S
C2381 C2387 1.429 . S
C2382 C2374 1.574 . S
C2382 H2377 0.949 . S
C2382 C2388 1.368 . S
C2383 C2367 1.349 . S
C2383 H2375 0.950 . S
C2383 C2381 1.327 . S
C2384 C2372 1.349 . S
C2384 H2378 0.950 . S
C2384 C2385 1.327 . S
C2385 H2379 0.950 . S
C2385 C2384 1.327 . S
C2385 C2389 1.429 . S
C2386 C2369 1.574 . S
C2386 H2380 0.949 . S
C2386 C2390 1.368 . S
C2387 C2368 1.429 . S
C2387 C2381 1.429 . S
C2387 C2388 1.523 . S
C2388 C2369 1.368 . S
C2388 C2382 1.368 . S
C2388 C2387 1.523 . S
C2389 C2373 1.429 . S
C2389 C2385 1.429 . S
C2389 C2390 1.523 . S
C2390 C2374 1.368 . S
C2390 C2386 1.368 . S
C2390 C2389 1.523 . S
H2391 C2366 0.950 . S
H2392 C2368 0.950 . S
H2393 C2369 0.949 . S
H2394 C2371 0.950 . S
H2395 C2373 0.950 . S
C2396 C2397 1.349 . S
C2396 C2398 1.327 . S
C2396 H2421 0.950 . S
C2397 C2396 1.349 . S
C2397 C2413 1.349 . S
C2398 C2396 1.327 . S
C2398 C2417 1.429 . S
C2398 H2422 0.950 . S
C2399 C2416 1.574 . S
C2399 C2418 1.368 . S
C2399 H2423 0.949 . S
H2400 C2404 0.949 . S
C2401 C2402 1.349 . S
C2401 C2403 1.327 . S
C2401 H2424 0.950 . S
C2402 C2401 1.349 . S
C2402 C2414 1.349 . S
C2403 C2401 1.327 . S
C2403 C2419 1.429 . S
C2403 H2425 0.950 . S
C2404 H2400 0.949 . S
C2404 C2412 1.574 . S
C2404 C2420 1.368 . S
H2405 C2413 0.950 . S
H2406 C2411 0.950 . S
H2407 C2412 0.949 . S
H2408 C2414 0.950 . S
H2409 C2415 0.950 . S
H2410 C2416 0.949 . S
C2411 H2406 0.950 . S
C2411 C2413 1.327 . S
C2411 C2417 1.429 . S
C2412 C2404 1.574 . S
C2412 H2407 0.949 . S
C2412 C2418 1.368 . S
C2413 C2397 1.349 . S
C2413 H2405 0.950 . S
C2413 C2411 1.327 . S
C2414 C2402 1.349 . S
C2414 H2408 0.950 . S
C2414 C2415 1.327 . S
C2415 H2409 0.950 . S
C2415 C2414 1.327 . S
C2415 C2419 1.429 . S
C2416 C2399 1.574 . S
C2416 H2410 0.949 . S
C2416 C2420 1.368 . S
C2417 C2398 1.429 . S
C2417 C2411 1.429 . S
C2417 C2418 1.523 . S
C2418 C2399 1.368 . S
C2418 C2412 1.368 . S
C2418 C2417 1.523 . S
C2419 C2403 1.429 . S
C2419 C2415 1.429 . S
C2419 C2420 1.523 . S
C2420 C2404 1.368 . S
C2420 C2416 1.368 . S
C2420 C2419 1.523 . S
H2421 C2396 0.950 . S
H2422 C2398 0.950 . S
H2423 C2399 0.949 . S
H2424 C2401 0.950 . S
H2425 C2403 0.950 . S
C2426 C2427 1.349 . S
C2426 C2428 1.327 . S
C2426 H2451 0.950 . S
C2427 C2426 1.349 . S
C2427 C2443 1.349 . S
C2428 C2426 1.327 . S
C2428 C2447 1.429 . S
C2428 H2452 0.950 . S
C2429 C2446 1.574 . S
C2429 C2448 1.368 . S
C2429 H2453 0.949 . S
H2430 C2434 0.949 . S
C2431 C2432 1.349 . S
C2431 C2433 1.327 . S
C2431 H2454 0.950 . S
C2432 C2431 1.349 . S
C2432 C2444 1.349 . S
C2433 C2431 1.327 . S
C2433 C2449 1.429 . S
C2433 H2455 0.950 . S
C2434 H2430 0.949 . S
C2434 C2442 1.574 . S
C2434 C2450 1.368 . S
H2435 C2443 0.950 . S
H2436 C2441 0.950 . S
H2437 C2442 0.949 . S
H2438 C2444 0.950 . S
H2439 C2445 0.950 . S
H2440 C2446 0.949 . S
C2441 H2436 0.950 . S
C2441 C2443 1.327 . S
C2441 C2447 1.429 . S
C2442 C2434 1.574 . S
C2442 H2437 0.949 . S
C2442 C2448 1.368 . S
C2443 C2427 1.349 . S
C2443 H2435 0.950 . S
C2443 C2441 1.327 . S
C2444 C2432 1.349 . S
C2444 H2438 0.950 . S
C2444 C2445 1.327 . S
C2445 H2439 0.950 . S
C2445 C2444 1.327 . S
C2445 C2449 1.429 . S
C2446 C2429 1.574 . S
C2446 H2440 0.949 . S
C2446 C2450 1.368 . S
C2447 C2428 1.429 . S
C2447 C2441 1.429 . S
C2447 C2448 1.523 . S
C2448 C2429 1.368 . S
C2448 C2442 1.368 . S
C2448 C2447 1.523 . S
C2449 C2433 1.429 . S
C2449 C2445 1.429 . S
C2449 C2450 1.523 . S
C2450 C2434 1.368 . S
C2450 C2446 1.368 . S
C2450 C2449 1.523 . S
H2451 C2426 0.950 . S
H2452 C2428 0.950 . S
H2453 C2429 0.949 . S
H2454 C2431 0.950 . S
H2455 C2433 0.950 . S
C2456 C2457 1.349 . S
C2456 C2458 1.327 . S
C2456 H2481 0.950 . S
C2457 C2456 1.349 . S
C2457 C2473 1.349 . S
C2458 C2456 1.327 . S
C2458 C2477 1.429 . S
C2458 H2482 0.950 . S
C2459 C2476 1.574 . S
C2459 C2478 1.368 . S
C2459 H2483 0.949 . S
H2460 C2464 0.949 . S
C2461 C2462 1.349 . S
C2461 C2463 1.327 . S
C2461 H2484 0.950 . S
C2462 C2461 1.349 . S
C2462 C2474 1.349 . S
C2463 C2461 1.327 . S
C2463 C2479 1.429 . S
C2463 H2485 0.950 . S
C2464 H2460 0.949 . S
C2464 C2472 1.574 . S
C2464 C2480 1.368 . S
H2465 C2473 0.950 . S
H2466 C2471 0.950 . S
H2467 C2472 0.949 . S
H2468 C2474 0.950 . S
H2469 C2475 0.950 . S
H2470 C2476 0.949 . S
C2471 H2466 0.950 . S
C2471 C2473 1.327 . S
C2471 C2477 1.429 . S
C2472 C2464 1.574 . S
C2472 H2467 0.949 . S
C2472 C2478 1.368 . S
C2473 C2457 1.349 . S
C2473 H2465 0.950 . S
C2473 C2471 1.327 . S
C2474 C2462 1.349 . S
C2474 H2468 0.950 . S
C2474 C2475 1.327 . S
C2475 H2469 0.950 . S
C2475 C2474 1.327 . S
C2475 C2479 1.429 . S
C2476 C2459 1.574 . S
C2476 H2470 0.949 . S
C2476 C2480 1.368 . S
C2477 C2458 1.429 . S
C2477 C2471 1.429 . S
C2477 C2478 1.523 . S
C2478 C2459 1.368 . S
C2478 C2472 1.368 . S
C2478 C2477 1.523 . S
C2479 C2463 1.429 . S
C2479 C2475 1.429 . S
C2479 C2480 1.523 . S
C2480 C2464 1.368 . S
C2480 C2476 1.368 . S
C2480 C2479 1.523 . S
H2481 C2456 0.950 . S
H2482 C2458 0.950 . S
H2483 C2459 0.949 . S
H2484 C2461 0.950 . S
H2485 C2463 0.950 . S
C2486 C2487 1.349 . S
C2486 C2488 1.327 . S
C2486 H2511 0.950 . S
C2487 C2486 1.349 . S
C2487 C2503 1.349 . S
C2488 C2486 1.327 . S
C2488 C2507 1.429 . S
C2488 H2512 0.950 . S
C2489 C2506 1.574 . S
C2489 C2508 1.368 . S
C2489 H2513 0.949 . S
H2490 C2494 0.949 . S
C2491 C2492 1.349 . S
C2491 C2493 1.327 . S
C2491 H2514 0.950 . S
C2492 C2491 1.349 . S
C2492 C2504 1.349 . S
C2493 C2491 1.327 . S
C2493 C2509 1.429 . S
C2493 H2515 0.950 . S
C2494 H2490 0.949 . S
C2494 C2502 1.574 . S
C2494 C2510 1.368 . S
H2495 C2503 0.950 . S
H2496 C2501 0.950 . S
H2497 C2502 0.949 . S
H2498 C2504 0.950 . S
H2499 C2505 0.950 . S
H2500 C2506 0.949 . S
C2501 H2496 0.950 . S
C2501 C2503 1.327 . S
C2501 C2507 1.429 . S
C2502 C2494 1.574 . S
C2502 H2497 0.949 . S
C2502 C2508 1.368 . S
C2503 C2487 1.349 . S
C2503 H2495 0.950 . S
C2503 C2501 1.327 . S
C2504 C2492 1.349 . S
C2504 H2498 0.950 . S
C2504 C2505 1.327 . S
C2505 H2499 0.950 . S
C2505 C2504 1.327 . S
C2505 C2509 1.429 . S
C2506 C2489 1.574 . S
C2506 H2500 0.949 . S
C2506 C2510 1.368 . S
C2507 C2488 1.429 . S
C2507 C2501 1.429 . S
C2507 C2508 1.523 . S
C2508 C2489 1.368 . S
C2508 C2502 1.368 . S
C2508 C2507 1.523 . S
C2509 C2493 1.429 . S
C2509 C2505 1.429 . S
C2509 C2510 1.523 . S
C2510 C2494 1.368 . S
C2510 C2506 1.368 . S
C2510 C2509 1.523 . S
H2511 C2486 0.950 . S
H2512 C2488 0.950 . S
H2513 C2489 0.949 . S
H2514 C2491 0.950 . S
H2515 C2493 0.950 . S
C2516 C2517 1.349 . S
C2516 C2518 1.327 . S
C2516 H2541 0.950 . S
C2517 C2516 1.349 . S
C2517 C2533 1.349 . S
C2518 C2516 1.327 . S
C2518 C2537 1.429 . S
C2518 H2542 0.950 . S
C2519 C2536 1.574 . S
C2519 C2538 1.368 . S
C2519 H2543 0.949 . S
H2520 C2524 0.949 . S
C2521 C2522 1.349 . S
C2521 C2523 1.327 . S
C2521 H2544 0.950 . S
C2522 C2521 1.349 . S
C2522 C2534 1.349 . S
C2523 C2521 1.327 . S
C2523 C2539 1.429 . S
C2523 H2545 0.950 . S
C2524 H2520 0.949 . S
C2524 C2532 1.574 . S
C2524 C2540 1.368 . S
H2525 C2533 0.950 . S
H2526 C2531 0.950 . S
H2527 C2532 0.949 . S
H2528 C2534 0.950 . S
H2529 C2535 0.950 . S
H2530 C2536 0.949 . S
C2531 H2526 0.950 . S
C2531 C2533 1.327 . S
C2531 C2537 1.429 . S
C2532 C2524 1.574 . S
C2532 H2527 0.949 . S
C2532 C2538 1.368 . S
C2533 C2517 1.349 . S
C2533 H2525 0.950 . S
C2533 C2531 1.327 . S
C2534 C2522 1.349 . S
C2534 H2528 0.950 . S
C2534 C2535 1.327 . S
C2535 H2529 0.950 . S
C2535 C2534 1.327 . S
C2535 C2539 1.429 . S
C2536 C2519 1.574 . S
C2536 H2530 0.949 . S
C2536 C2540 1.368 . S
C2537 C2518 1.429 . S
C2537 C2531 1.429 . S
C2537 C2538 1.523 . S
C2538 C2519 1.368 . S
C2538 C2532 1.368 . S
C2538 C2537 1.523 . S
C2539 C2523 1.429 . S
C2539 C2535 1.429 . S
C2539 C2540 1.523 . S
C2540 C2524 1.368 . S
C2540 C2536 1.368 . S
C2540 C2539 1.523 . S
H2541 C2516 0.950 . S
H2542 C2518 0.950 . S
H2543 C2519 0.949 . S
H2544 C2521 0.950 . S
H2545 C2523 0.950 . S
C2546 C2547 1.349 . S
C2546 C2548 1.327 . S
C2546 H2571 0.950 . S
C2547 C2546 1.349 . S
C2547 C2563 1.349 . S
C2548 C2546 1.327 . S
C2548 C2567 1.429 . S
C2548 H2572 0.950 . S
C2549 C2566 1.574 . S
C2549 C2568 1.368 . S
C2549 H2573 0.949 . S
H2550 C2554 0.949 . S
C2551 C2552 1.349 . S
C2551 C2553 1.327 . S
C2551 H2574 0.950 . S
C2552 C2551 1.349 . S
C2552 C2564 1.349 . S
C2553 C2551 1.327 . S
C2553 C2569 1.429 . S
C2553 H2575 0.950 . S
C2554 H2550 0.949 . S
C2554 C2562 1.574 . S
C2554 C2570 1.368 . S
H2555 C2563 0.950 . S
H2556 C2561 0.950 . S
H2557 C2562 0.949 . S
H2558 C2564 0.950 . S
H2559 C2565 0.950 . S
H2560 C2566 0.949 . S
C2561 H2556 0.950 . S
C2561 C2563 1.327 . S
C2561 C2567 1.429 . S
C2562 C2554 1.574 . S
C2562 H2557 0.949 . S
C2562 C2568 1.368 . S
C2563 C2547 1.349 . S
C2563 H2555 0.950 . S
C2563 C2561 1.327 . S
C2564 C2552 1.349 . S
C2564 H2558 0.950 . S
C2564 C2565 1.327 . S
C2565 H2559 0.950 . S
C2565 C2564 1.327 . S
C2565 C2569 1.429 . S
C2566 C2549 1.574 . S
C2566 H2560 0.949 . S
C2566 C2570 1.368 . S
C2567 C2548 1.429 . S
C2567 C2561 1.429 . S
C2567 C2568 1.523 . S
C2568 C2549 1.368 . S
C2568 C2562 1.368 . S
C2568 C2567 1.523 . S
C2569 C2553 1.429 . S
C2569 C2565 1.429 . S
C2569 C2570 1.523 . S
C2570 C2554 1.368 . S
C2570 C2566 1.368 . S
C2570 C2569 1.523 . S
H2571 C2546 0.950 . S
H2572 C2548 0.950 . S
H2573 C2549 0.949 . S
H2574 C2551 0.950 . S
H2575 C2553 0.950 . S
C2576 C2577 1.349 . S
C2576 C2578 1.327 . S
C2576 H2601 0.950 . S
C2577 C2576 1.349 . S
C2577 C2593 1.349 . S
C2578 C2576 1.327 . S
C2578 C2597 1.429 . S
C2578 H2602 0.950 . S
C2579 C2596 1.574 . S
C2579 C2598 1.368 . S
C2579 H2603 0.949 . S
H2580 C2584 0.949 . S
C2581 C2582 1.349 . S
C2581 C2583 1.327 . S
C2581 H2604 0.950 . S
C2582 C2581 1.349 . S
C2582 C2594 1.349 . S
C2583 C2581 1.327 . S
C2583 C2599 1.429 . S
C2583 H2605 0.950 . S
C2584 H2580 0.949 . S
C2584 C2592 1.574 . S
C2584 C2600 1.368 . S
H2585 C2593 0.950 . S
H2586 C2591 0.950 . S
H2587 C2592 0.949 . S
H2588 C2594 0.950 . S
H2589 C2595 0.950 . S
H2590 C2596 0.949 . S
C2591 H2586 0.950 . S
C2591 C2593 1.327 . S
C2591 C2597 1.429 . S
C2592 C2584 1.574 . S
C2592 H2587 0.949 . S
C2592 C2598 1.368 . S
C2593 C2577 1.349 . S
C2593 H2585 0.950 . S
C2593 C2591 1.327 . S
C2594 C2582 1.349 . S
C2594 H2588 0.950 . S
C2594 C2595 1.327 . S
C2595 H2589 0.950 . S
C2595 C2594 1.327 . S
C2595 C2599 1.429 . S
C2596 C2579 1.574 . S
C2596 H2590 0.949 . S
C2596 C2600 1.368 . S
C2597 C2578 1.429 . S
C2597 C2591 1.429 . S
C2597 C2598 1.523 . S
C2598 C2579 1.368 . S
C2598 C2592 1.368 . S
C2598 C2597 1.523 . S
C2599 C2583 1.429 . S
C2599 C2595 1.429 . S
C2599 C2600 1.523 . S
C2600 C2584 1.368 . S
C2600 C2596 1.368 . S
C2600 C2599 1.523 . S
H2601 C2576 0.950 . S
H2602 C2578 0.950 . S
H2603 C2579 0.949 . S
H2604 C2581 0.950 . S
H2605 C2583 0.950 . S
C2606 C2607 1.349 . S
C2606 C2608 1.327 . S
C2606 H2631 0.950 . S
C2607 C2606 1.349 . S
C2607 C2623 1.349 . S
C2608 C2606 1.327 . S
C2608 C2627 1.429 . S
C2608 H2632 0.950 . S
C2609 C2626 1.574 . S
C2609 C2628 1.368 . S
C2609 H2633 0.949 . S
H2610 C2614 0.949 . S
C2611 C2612 1.349 . S
C2611 C2613 1.327 . S
C2611 H2634 0.950 . S
C2612 C2611 1.349 . S
C2612 C2624 1.349 . S
C2613 C2611 1.327 . S
C2613 C2629 1.429 . S
C2613 H2635 0.950 . S
C2614 H2610 0.949 . S
C2614 C2622 1.574 . S
C2614 C2630 1.368 . S
H2615 C2623 0.950 . S
H2616 C2621 0.950 . S
H2617 C2622 0.949 . S
H2618 C2624 0.950 . S
H2619 C2625 0.950 . S
H2620 C2626 0.949 . S
C2621 H2616 0.950 . S
C2621 C2623 1.327 . S
C2621 C2627 1.429 . S
C2622 C2614 1.574 . S
C2622 H2617 0.949 . S
C2622 C2628 1.368 . S
C2623 C2607 1.349 . S
C2623 H2615 0.950 . S
C2623 C2621 1.327 . S
C2624 C2612 1.349 . S
C2624 H2618 0.950 . S
C2624 C2625 1.327 . S
C2625 H2619 0.950 . S
C2625 C2624 1.327 . S
C2625 C2629 1.429 . S
C2626 C2609 1.574 . S
C2626 H2620 0.949 . S
C2626 C2630 1.368 . S
C2627 C2608 1.429 . S
C2627 C2621 1.429 . S
C2627 C2628 1.523 . S
C2628 C2609 1.368 . S
C2628 C2622 1.368 . S
C2628 C2627 1.523 . S
C2629 C2613 1.429 . S
C2629 C2625 1.429 . S
C2629 C2630 1.523 . S
C2630 C2614 1.368 . S
C2630 C2626 1.368 . S
C2630 C2629 1.523 . S
H2631 C2606 0.950 . S
H2632 C2608 0.950 . S
H2633 C2609 0.949 . S
H2634 C2611 0.950 . S
H2635 C2613 0.950 . S
C2636 C2637 1.349 . S
C2636 C2638 1.327 . S
C2636 H2661 0.950 . S
C2637 C2636 1.349 . S
C2637 C2653 1.349 . S
C2638 C2636 1.327 . S
C2638 C2657 1.429 . S
C2638 H2662 0.950 . S
C2639 C2656 1.574 . S
C2639 C2658 1.368 . S
C2639 H2663 0.949 . S
H2640 C2644 0.949 . S
C2641 C2642 1.349 . S
C2641 C2643 1.327 . S
C2641 H2664 0.950 . S
C2642 C2641 1.349 . S
C2642 C2654 1.349 . S
C2643 C2641 1.327 . S
C2643 C2659 1.429 . S
C2643 H2665 0.950 . S
C2644 H2640 0.949 . S
C2644 C2652 1.574 . S
C2644 C2660 1.368 . S
H2645 C2653 0.950 . S
H2646 C2651 0.950 . S
H2647 C2652 0.949 . S
H2648 C2654 0.950 . S
H2649 C2655 0.950 . S
H2650 C2656 0.949 . S
C2651 H2646 0.950 . S
C2651 C2653 1.327 . S
C2651 C2657 1.429 . S
C2652 C2644 1.574 . S
C2652 H2647 0.949 . S
C2652 C2658 1.368 . S
C2653 C2637 1.349 . S
C2653 H2645 0.950 . S
C2653 C2651 1.327 . S
C2654 C2642 1.349 . S
C2654 H2648 0.950 . S
C2654 C2655 1.327 . S
C2655 H2649 0.950 . S
C2655 C2654 1.327 . S
C2655 C2659 1.429 . S
C2656 C2639 1.574 . S
C2656 H2650 0.949 . S
C2656 C2660 1.368 . S
C2657 C2638 1.429 . S
C2657 C2651 1.429 . S
C2657 C2658 1.523 . S
C2658 C2639 1.368 . S
C2658 C2652 1.368 . S
C2658 C2657 1.523 . S
C2659 C2643 1.429 . S
C2659 C2655 1.429 . S
C2659 C2660 1.523 . S
C2660 C2644 1.368 . S
C2660 C2656 1.368 . S
C2660 C2659 1.523 . S
H2661 C2636 0.950 . S
H2662 C2638 0.950 . S
H2663 C2639 0.949 . S
H2664 C2641 0.950 . S
H2665 C2643 0.950 . S
C2666 C2667 1.349 . S
C2666 C2668 1.327 . S
C2666 H2691 0.950 . S
C2667 C2666 1.349 . S
C2667 C2683 1.349 . S
C2668 C2666 1.327 . S
C2668 C2687 1.429 . S
C2668 H2692 0.950 . S
C2669 C2686 1.574 . S
C2669 C2688 1.368 . S
C2669 H2693 0.949 1_554 S
H2670 C2674 0.949 . S
C2671 C2672 1.349 . S
C2671 C2673 1.327 . S
C2671 H2694 0.950 1_554 S
C2672 C2671 1.349 . S
C2672 C2684 1.349 . S
C2673 C2671 1.327 . S
C2673 C2689 1.429 . S
C2673 H2695 0.950 1_554 S
C2674 H2670 0.949 . S
C2674 C2682 1.574 . S
C2674 C2690 1.368 . S
H2675 C2683 0.950 1_556 S
H2676 C2681 0.950 1_556 S
H2677 C2682 0.949 . S
H2678 C2684 0.950 . S
H2679 C2685 0.950 . S
H2680 C2686 0.949 1_556 S
C2681 H2676 0.950 1_554 S
C2681 C2683 1.327 . S
C2681 C2687 1.429 . S
C2682 C2674 1.574 . S
C2682 H2677 0.949 . S
C2682 C2688 1.368 . S
C2683 C2667 1.349 . S
C2683 H2675 0.950 1_554 S
C2683 C2681 1.327 . S
C2684 C2672 1.349 . S
C2684 H2678 0.950 . S
C2684 C2685 1.327 . S
C2685 H2679 0.950 . S
C2685 C2684 1.327 . S
C2685 C2689 1.429 . S
C2686 C2669 1.574 . S
C2686 H2680 0.949 1_554 S
C2686 C2690 1.368 . S
C2687 C2668 1.429 . S
C2687 C2681 1.429 . S
C2687 C2688 1.523 . S
C2688 C2669 1.368 . S
C2688 C2682 1.368 . S
C2688 C2687 1.523 . S
C2689 C2673 1.429 . S
C2689 C2685 1.429 . S
C2689 C2690 1.523 . S
C2690 C2674 1.368 . S
C2690 C2686 1.368 . S
C2690 C2689 1.523 . S
H2691 C2666 0.950 . S
H2692 C2668 0.950 . S
H2693 C2669 0.949 1_556 S
H2694 C2671 0.950 1_556 S
H2695 C2673 0.950 1_556 S
C2696 C2697 1.349 . S
C2696 C2698 1.327 . S
C2696 H2721 0.950 . S
C2697 C2696 1.349 . S
C2697 C2713 1.349 . S
C2698 C2696 1.327 . S
C2698 C2717 1.429 . S
C2698 H2722 0.950 . S
C2699 C2716 1.574 . S
C2699 C2718 1.368 . S
C2699 H2723 0.949 . S
H2700 C2704 0.949 . S
C2701 C2702 1.349 . S
C2701 C2703 1.327 . S
C2701 H2724 0.950 . S
C2702 C2701 1.349 . S
C2702 C2714 1.349 . S
C2703 C2701 1.327 . S
C2703 C2719 1.429 . S
C2703 H2725 0.950 . S
C2704 H2700 0.949 . S
C2704 C2712 1.574 . S
C2704 C2720 1.368 . S
H2705 C2713 0.950 . S
H2706 C2711 0.950 . S
H2707 C2712 0.949 . S
H2708 C2714 0.950 . S
H2709 C2715 0.950 . S
H2710 C2716 0.949 . S
C2711 H2706 0.950 . S
C2711 C2713 1.327 . S
C2711 C2717 1.429 . S
C2712 C2704 1.574 . S
C2712 H2707 0.949 . S
C2712 C2718 1.368 . S
C2713 C2697 1.349 . S
C2713 H2705 0.950 . S
C2713 C2711 1.327 . S
C2714 C2702 1.349 . S
C2714 H2708 0.950 . S
C2714 C2715 1.327 . S
C2715 H2709 0.950 . S
C2715 C2714 1.327 . S
C2715 C2719 1.429 . S
C2716 C2699 1.574 . S
C2716 H2710 0.949 . S
C2716 C2720 1.368 . S
C2717 C2698 1.429 . S
C2717 C2711 1.429 . S
C2717 C2718 1.523 . S
C2718 C2699 1.368 . S
C2718 C2712 1.368 . S
C2718 C2717 1.523 . S
C2719 C2703 1.429 . S
C2719 C2715 1.429 . S
C2719 C2720 1.523 . S
C2720 C2704 1.368 . S
C2720 C2716 1.368 . S
C2720 C2719 1.523 . S
H2721 C2696 0.950 . S
H2722 C2698 0.950 . S
H2723 C2699 0.949 . S
H2724 C2701 0.950 . S
H2725 C2703 0.950 . S
C2726 C2727 1.349 . S
C2726 C2728 1.327 . S
C2726 H2751 0.950 . S
C2727 C2726 1.349 . S
C2727 C2743 1.349 1_554 S
C2728 C2726 1.327 . S
C2728 C2747 1.429 . S
C2728 H2752 0.950 . S
C2729 C2746 1.574 . S
C2729 C2748 1.368 1_556 S
C2729 H2753 0.949 . S
H2730 C2734 0.949 . S
C2731 C2732 1.349 . S
C2731 C2733 1.327 . S
C2731 H2754 0.950 1_554 S
C2732 C2731 1.349 . S
C2732 C2744 1.349 . S
C2733 C2731 1.327 . S
C2733 C2749 1.429 . S
C2733 H2755 0.950 1_554 S
C2734 H2730 0.949 . S
C2734 C2742 1.574 . S
C2734 C2750 1.368 . S
H2735 C2743 0.950 . S
H2736 C2741 0.950 . S
H2737 C2742 0.949 . S
H2738 C2744 0.950 . S
H2739 C2745 0.950 . S
H2740 C2746 0.949 . S
C2741 H2736 0.950 . S
C2741 C2743 1.327 . S
C2741 C2747 1.429 1_556 S
C2742 C2734 1.574 . S
C2742 H2737 0.949 . S
C2742 C2748 1.368 . S
C2743 C2727 1.349 1_556 S
C2743 H2735 0.950 . S
C2743 C2741 1.327 . S
C2744 C2732 1.349 . S
C2744 H2738 0.950 . S
C2744 C2745 1.327 . S
C2745 H2739 0.950 . S
C2745 C2744 1.327 . S
C2745 C2749 1.429 . S
C2746 C2729 1.574 . S
C2746 H2740 0.949 . S
C2746 C2750 1.368 1_556 S
C2747 C2728 1.429 . S
C2747 C2741 1.429 1_554 S
C2747 C2748 1.523 . S
C2748 C2729 1.368 1_554 S
C2748 C2742 1.368 . S
C2748 C2747 1.523 . S
C2749 C2733 1.429 . S
C2749 C2745 1.429 . S
C2749 C2750 1.523 . S
C2750 C2734 1.368 . S
C2750 C2746 1.368 1_554 S
C2750 C2749 1.523 . S
H2751 C2726 0.950 . S
H2752 C2728 0.950 . S
H2753 C2729 0.949 . S
H2754 C2731 0.950 1_556 S
H2755 C2733 0.950 1_556 S
C2756 C2757 1.349 . S
C2756 C2758 1.327 . S
C2756 H2781 0.950 . S
C2757 C2756 1.349 . S
C2757 C2773 1.349 . S
C2758 C2756 1.327 . S
C2758 C2777 1.429 . S
C2758 H2782 0.950 . S
C2759 C2776 1.574 . S
C2759 C2778 1.368 . S
C2759 H2783 0.949 . S
H2760 C2764 0.949 . S
C2761 C2762 1.349 . S
C2761 C2763 1.327 . S
C2761 H2784 0.950 . S
C2762 C2761 1.349 . S
C2762 C2774 1.349 . S
C2763 C2761 1.327 . S
C2763 C2779 1.429 . S
C2763 H2785 0.950 . S
C2764 H2760 0.949 . S
C2764 C2772 1.574 . S
C2764 C2780 1.368 . S
H2765 C2773 0.950 . S
H2766 C2771 0.950 . S
H2767 C2772 0.949 . S
H2768 C2774 0.950 . S
H2769 C2775 0.950 . S
H2770 C2776 0.949 . S
C2771 H2766 0.950 . S
C2771 C2773 1.327 . S
C2771 C2777 1.429 . S
C2772 C2764 1.574 . S
C2772 H2767 0.949 . S
C2772 C2778 1.368 . S
C2773 C2757 1.349 . S
C2773 H2765 0.950 . S
C2773 C2771 1.327 . S
C2774 C2762 1.349 . S
C2774 H2768 0.950 . S
C2774 C2775 1.327 . S
C2775 H2769 0.950 . S
C2775 C2774 1.327 . S
C2775 C2779 1.429 . S
C2776 C2759 1.574 . S
C2776 H2770 0.949 . S
C2776 C2780 1.368 . S
C2777 C2758 1.429 . S
C2777 C2771 1.429 . S
C2777 C2778 1.523 . S
C2778 C2759 1.368 . S
C2778 C2772 1.368 . S
C2778 C2777 1.523 . S
C2779 C2763 1.429 . S
C2779 C2775 1.429 . S
C2779 C2780 1.523 . S
C2780 C2764 1.368 . S
C2780 C2776 1.368 . S
C2780 C2779 1.523 . S
H2781 C2756 0.950 . S
H2782 C2758 0.950 . S
H2783 C2759 0.949 . S
H2784 C2761 0.950 . S
H2785 C2763 0.950 . S
C2786 C2787 1.349 . S
C2786 C2788 1.327 . S
C2786 H2811 0.950 . S
C2787 C2786 1.349 . S
C2787 C2803 1.349 . S
C2788 C2786 1.327 . S
C2788 C2807 1.429 . S
C2788 H2812 0.950 . S
C2789 C2806 1.574 . S
C2789 C2808 1.368 . S
C2789 H2813 0.949 . S
H2790 C2794 0.949 . S
C2791 C2792 1.349 . S
C2791 C2793 1.327 . S
C2791 H2814 0.950 . S
C2792 C2791 1.349 . S
C2792 C2804 1.349 . S
C2793 C2791 1.327 . S
C2793 C2809 1.429 . S
C2793 H2815 0.950 . S
C2794 H2790 0.949 . S
C2794 C2802 1.574 . S
C2794 C2810 1.368 . S
H2795 C2803 0.950 . S
H2796 C2801 0.950 . S
H2797 C2802 0.949 . S
H2798 C2804 0.950 . S
H2799 C2805 0.950 . S
H2800 C2806 0.949 . S
C2801 H2796 0.950 . S
C2801 C2803 1.327 . S
C2801 C2807 1.429 . S
C2802 C2794 1.574 . S
C2802 H2797 0.949 . S
C2802 C2808 1.368 . S
C2803 C2787 1.349 . S
C2803 H2795 0.950 . S
C2803 C2801 1.327 . S
C2804 C2792 1.349 . S
C2804 H2798 0.950 . S
C2804 C2805 1.327 . S
C2805 H2799 0.950 . S
C2805 C2804 1.327 . S
C2805 C2809 1.429 . S
C2806 C2789 1.574 . S
C2806 H2800 0.949 . S
C2806 C2810 1.368 . S
C2807 C2788 1.429 . S
C2807 C2801 1.429 . S
C2807 C2808 1.523 . S
C2808 C2789 1.368 . S
C2808 C2802 1.368 . S
C2808 C2807 1.523 . S
C2809 C2793 1.429 . S
C2809 C2805 1.429 . S
C2809 C2810 1.523 . S
C2810 C2794 1.368 . S
C2810 C2806 1.368 . S
C2810 C2809 1.523 . S
H2811 C2786 0.950 . S
H2812 C2788 0.950 . S
H2813 C2789 0.949 . S
H2814 C2791 0.950 . S
H2815 C2793 0.950 . S
C2816 C2817 1.349 . S
C2816 C2818 1.327 . S
C2816 H2841 0.950 . S
C2817 C2816 1.349 . S
C2817 C2833 1.349 . S
C2818 C2816 1.327 . S
C2818 C2837 1.429 . S
C2818 H2842 0.950 . S
C2819 C2836 1.574 . S
C2819 C2838 1.368 . S
C2819 H2843 0.949 . S
H2820 C2824 0.949 . S
C2821 C2822 1.349 . S
C2821 C2823 1.327 . S
C2821 H2844 0.950 . S
C2822 C2821 1.349 . S
C2822 C2834 1.349 . S
C2823 C2821 1.327 . S
C2823 C2839 1.429 . S
C2823 H2845 0.950 . S
C2824 H2820 0.949 . S
C2824 C2832 1.574 . S
C2824 C2840 1.368 . S
H2825 C2833 0.950 . S
H2826 C2831 0.950 . S
H2827 C2832 0.949 . S
H2828 C2834 0.950 . S
H2829 C2835 0.950 . S
H2830 C2836 0.949 . S
C2831 H2826 0.950 . S
C2831 C2833 1.327 . S
C2831 C2837 1.429 . S
C2832 C2824 1.574 . S
C2832 H2827 0.949 . S
C2832 C2838 1.368 . S
C2833 C2817 1.349 . S
C2833 H2825 0.950 . S
C2833 C2831 1.327 . S
C2834 C2822 1.349 . S
C2834 H2828 0.950 . S
C2834 C2835 1.327 . S
C2835 H2829 0.950 . S
C2835 C2834 1.327 . S
C2835 C2839 1.429 . S
C2836 C2819 1.574 . S
C2836 H2830 0.949 . S
C2836 C2840 1.368 . S
C2837 C2818 1.429 . S
C2837 C2831 1.429 . S
C2837 C2838 1.523 . S
C2838 C2819 1.368 . S
C2838 C2832 1.368 . S
C2838 C2837 1.523 . S
C2839 C2823 1.429 . S
C2839 C2835 1.429 . S
C2839 C2840 1.523 . S
C2840 C2824 1.368 . S
C2840 C2836 1.368 . S
C2840 C2839 1.523 . S
H2841 C2816 0.950 . S
H2842 C2818 0.950 . S
H2843 C2819 0.949 . S
H2844 C2821 0.950 . S
H2845 C2823 0.950 . S
C2846 C2847 1.349 . S
C2846 C2848 1.327 . S
C2846 H2871 0.950 . S
C2847 C2846 1.349 . S
C2847 C2863 1.349 . S
C2848 C2846 1.327 . S
C2848 C2867 1.429 . S
C2848 H2872 0.950 . S
C2849 C2866 1.574 . S
C2849 C2868 1.368 . S
C2849 H2873 0.949 . S
H2850 C2854 0.949 . S
C2851 C2852 1.349 . S
C2851 C2853 1.327 . S
C2851 H2874 0.950 . S
C2852 C2851 1.349 . S
C2852 C2864 1.349 . S
C2853 C2851 1.327 . S
C2853 C2869 1.429 . S
C2853 H2875 0.950 . S
C2854 H2850 0.949 . S
C2854 C2862 1.574 . S
C2854 C2870 1.368 . S
H2855 C2863 0.950 . S
H2856 C2861 0.950 . S
H2857 C2862 0.949 . S
H2858 C2864 0.950 . S
H2859 C2865 0.950 . S
H2860 C2866 0.949 . S
C2861 H2856 0.950 . S
C2861 C2863 1.327 . S
C2861 C2867 1.429 . S
C2862 C2854 1.574 . S
C2862 H2857 0.949 . S
C2862 C2868 1.368 . S
C2863 C2847 1.349 . S
C2863 H2855 0.950 . S
C2863 C2861 1.327 . S
C2864 C2852 1.349 . S
C2864 H2858 0.950 . S
C2864 C2865 1.327 . S
C2865 H2859 0.950 . S
C2865 C2864 1.327 . S
C2865 C2869 1.429 . S
C2866 C2849 1.574 . S
C2866 H2860 0.949 . S
C2866 C2870 1.368 . S
C2867 C2848 1.429 . S
C2867 C2861 1.429 . S
C2867 C2868 1.523 . S
C2868 C2849 1.368 . S
C2868 C2862 1.368 . S
C2868 C2867 1.523 . S
C2869 C2853 1.429 . S
C2869 C2865 1.429 . S
C2869 C2870 1.523 . S
C2870 C2854 1.368 . S
C2870 C2866 1.368 . S
C2870 C2869 1.523 . S
H2871 C2846 0.950 . S
H2872 C2848 0.950 . S
H2873 C2849 0.949 . S
H2874 C2851 0.950 . S
H2875 C2853 0.950 . S
C2876 C2877 1.349 . S
C2876 C2878 1.327 . S
C2876 H2901 0.950 . S
C2877 C2876 1.349 . S
C2877 C2893 1.349 . S
C2878 C2876 1.327 . S
C2878 C2897 1.429 . S
C2878 H2902 0.950 . S
C2879 C2896 1.574 . S
C2879 C2898 1.368 . S
C2879 H2903 0.949 1_455 S
H2880 C2884 0.949 . S
C2881 C2882 1.349 . S
C2881 C2883 1.327 . S
C2881 H2904 0.950 1_455 S
C2882 C2881 1.349 . S
C2882 C2894 1.349 . S
C2883 C2881 1.327 . S
C2883 C2899 1.429 . S
C2883 H2905 0.950 1_455 S
C2884 H2880 0.949 . S
C2884 C2892 1.574 . S
C2884 C2900 1.368 . S
H2885 C2893 0.950 1_655 S
H2886 C2891 0.950 1_655 S
H2887 C2892 0.949 . S
H2888 C2894 0.950 . S
H2889 C2895 0.950 . S
H2890 C2896 0.949 1_655 S
C2891 H2886 0.950 1_455 S
C2891 C2893 1.327 . S
C2891 C2897 1.429 . S
C2892 C2884 1.574 . S
C2892 H2887 0.949 . S
C2892 C2898 1.368 . S
C2893 C2877 1.349 . S
C2893 H2885 0.950 1_455 S
C2893 C2891 1.327 . S
C2894 C2882 1.349 . S
C2894 H2888 0.950 . S
C2894 C2895 1.327 . S
C2895 H2889 0.950 . S
C2895 C2894 1.327 . S
C2895 C2899 1.429 . S
C2896 C2879 1.574 . S
C2896 H2890 0.949 1_455 S
C2896 C2900 1.368 . S
C2897 C2878 1.429 . S
C2897 C2891 1.429 . S
C2897 C2898 1.523 . S
C2898 C2879 1.368 . S
C2898 C2892 1.368 . S
C2898 C2897 1.523 . S
C2899 C2883 1.429 . S
C2899 C2895 1.429 . S
C2899 C2900 1.523 . S
C2900 C2884 1.368 . S
C2900 C2896 1.368 . S
C2900 C2899 1.523 . S
H2901 C2876 0.950 . S
H2902 C2878 0.950 . S
H2903 C2879 0.949 1_655 S
H2904 C2881 0.950 1_655 S
H2905 C2883 0.950 1_655 S
C2906 C2907 1.349 . S
C2906 C2908 1.327 . S
C2906 H2931 0.950 . S
C2907 C2906 1.349 . S
C2907 C2923 1.349 . S
C2908 C2906 1.327 . S
C2908 C2927 1.429 . S
C2908 H2932 0.950 . S
C2909 C2926 1.574 . S
C2909 C2928 1.368 . S
C2909 H2933 0.949 . S
H2910 C2914 0.949 . S
C2911 C2912 1.349 . S
C2911 C2913 1.327 . S
C2911 H2934 0.950 . S
C2912 C2911 1.349 . S
C2912 C2924 1.349 . S
C2913 C2911 1.327 . S
C2913 C2929 1.429 . S
C2913 H2935 0.950 . S
C2914 H2910 0.949 . S
C2914 C2922 1.574 . S
C2914 C2930 1.368 . S
H2915 C2923 0.950 . S
H2916 C2921 0.950 . S
H2917 C2922 0.949 . S
H2918 C2924 0.950 . S
H2919 C2925 0.950 . S
H2920 C2926 0.949 . S
C2921 H2916 0.950 . S
C2921 C2923 1.327 . S
C2921 C2927 1.429 . S
C2922 C2914 1.574 . S
C2922 H2917 0.949 . S
C2922 C2928 1.368 . S
C2923 C2907 1.349 . S
C2923 H2915 0.950 . S
C2923 C2921 1.327 . S
C2924 C2912 1.349 . S
C2924 H2918 0.950 . S
C2924 C2925 1.327 . S
C2925 H2919 0.950 . S
C2925 C2924 1.327 . S
C2925 C2929 1.429 . S
C2926 C2909 1.574 . S
C2926 H2920 0.949 . S
C2926 C2930 1.368 . S
C2927 C2908 1.429 . S
C2927 C2921 1.429 . S
C2927 C2928 1.523 . S
C2928 C2909 1.368 . S
C2928 C2922 1.368 . S
C2928 C2927 1.523 . S
C2929 C2913 1.429 . S
C2929 C2925 1.429 . S
C2929 C2930 1.523 . S
C2930 C2914 1.368 . S
C2930 C2926 1.368 . S
C2930 C2929 1.523 . S
H2931 C2906 0.950 . S
H2932 C2908 0.950 . S
H2933 C2909 0.949 . S
H2934 C2911 0.950 . S
H2935 C2913 0.950 . S
C2936 C2937 1.349 . S
C2936 C2938 1.327 . S
C2936 H2961 0.950 . S
C2937 C2936 1.349 . S
C2937 C2953 1.349 . S
C2938 C2936 1.327 . S
C2938 C2957 1.429 . S
C2938 H2962 0.950 . S
C2939 C2956 1.574 . S
C2939 C2958 1.368 . S
C2939 H2963 0.949 . S
H2940 C2944 0.949 . S
C2941 C2942 1.349 . S
C2941 C2943 1.327 . S
C2941 H2964 0.950 1_556 S
C2942 C2941 1.349 . S
C2942 C2954 1.349 . S
C2943 C2941 1.327 . S
C2943 C2959 1.429 . S
C2943 H2965 0.950 . S
C2944 H2940 0.949 . S
C2944 C2952 1.574 . S
C2944 C2960 1.368 . S
H2945 C2953 0.950 . S
H2946 C2951 0.950 . S
H2947 C2952 0.949 . S
H2948 C2954 0.950 . S
H2949 C2955 0.950 . S
H2950 C2956 0.949 . S
C2951 H2946 0.950 . S
C2951 C2953 1.327 . S
C2951 C2957 1.429 . S
C2952 C2944 1.574 . S
C2952 H2947 0.949 . S
C2952 C2958 1.368 . S
C2953 C2937 1.349 . S
C2953 H2945 0.950 . S
C2953 C2951 1.327 . S
C2954 C2942 1.349 . S
C2954 H2948 0.950 . S
C2954 C2955 1.327 . S
C2955 H2949 0.950 . S
C2955 C2954 1.327 . S
C2955 C2959 1.429 . S
C2956 C2939 1.574 . S
C2956 H2950 0.949 . S
C2956 C2960 1.368 . S
C2957 C2938 1.429 . S
C2957 C2951 1.429 . S
C2957 C2958 1.523 . S
C2958 C2939 1.368 . S
C2958 C2952 1.368 . S
C2958 C2957 1.523 . S
C2959 C2943 1.429 . S
C2959 C2955 1.429 . S
C2959 C2960 1.523 . S
C2960 C2944 1.368 . S
C2960 C2956 1.368 . S
C2960 C2959 1.523 . S
H2961 C2936 0.950 . S
H2962 C2938 0.950 . S
H2963 C2939 0.949 . S
H2964 C2941 0.950 1_554 S
H2965 C2943 0.950 . S
C2966 C2967 1.349 . S
C2966 C2968 1.327 . S
C2966 H2991 0.950 . S
C2967 C2966 1.349 . S
C2967 C2983 1.349 . S
C2968 C2966 1.327 . S
C2968 C2987 1.429 . S
C2968 H2992 0.950 . S
C2969 C2986 1.574 . S
C2969 C2988 1.368 . S
C2969 H2993 0.949 . S
H2970 C2974 0.949 . S
C2971 C2972 1.349 . S
C2971 C2973 1.327 . S
C2971 H2994 0.950 . S
C2972 C2971 1.349 . S
C2972 C2984 1.349 . S
C2973 C2971 1.327 . S
C2973 C2989 1.429 . S
C2973 H2995 0.950 . S
C2974 H2970 0.949 . S
C2974 C2982 1.574 . S
C2974 C2990 1.368 . S
H2975 C2983 0.950 . S
H2976 C2981 0.950 . S
H2977 C2982 0.949 . S
H2978 C2984 0.950 . S
H2979 C2985 0.950 . S
H2980 C2986 0.949 . S
C2981 H2976 0.950 . S
C2981 C2983 1.327 . S
C2981 C2987 1.429 . S
C2982 C2974 1.574 . S
C2982 H2977 0.949 . S
C2982 C2988 1.368 . S
C2983 C2967 1.349 . S
C2983 H2975 0.950 . S
C2983 C2981 1.327 . S
C2984 C2972 1.349 . S
C2984 H2978 0.950 . S
C2984 C2985 1.327 . S
C2985 H2979 0.950 . S
C2985 C2984 1.327 . S
C2985 C2989 1.429 . S
C2986 C2969 1.574 . S
C2986 H2980 0.949 . S
C2986 C2990 1.368 . S
C2987 C2968 1.429 . S
C2987 C2981 1.429 . S
C2987 C2988 1.523 . S
C2988 C2969 1.368 . S
C2988 C2982 1.368 . S
C2988 C2987 1.523 . S
C2989 C2973 1.429 . S
C2989 C2985 1.429 . S
C2989 C2990 1.523 . S
C2990 C2974 1.368 . S
C2990 C2986 1.368 . S
C2990 C2989 1.523 . S
H2991 C2966 0.950 . S
H2992 C2968 0.950 . S
H2993 C2969 0.949 . S
H2994 C2971 0.950 . S
H2995 C2973 0.950 . S
C2996 C2997 1.349 . S
C2996 C2998 1.327 . S
C2996 H3021 0.950 . S
C2997 C2996 1.349 . S
C2997 C3013 1.349 . S
C2998 C2996 1.327 . S
C2998 C3017 1.429 . S
C2998 H3022 0.950 . S
C2999 C3016 1.574 . S
C2999 C3018 1.368 . S
C2999 H3023 0.949 . S
H3000 C3004 0.949 . S
C3001 C3002 1.349 . S
C3001 C3003 1.327 . S
C3001 H3024 0.950 . S
C3002 C3001 1.349 . S
C3002 C3014 1.349 . S
C3003 C3001 1.327 . S
C3003 C3019 1.429 . S
C3003 H3025 0.950 . S
C3004 H3000 0.949 . S
C3004 C3012 1.574 . S
C3004 C3020 1.368 . S
H3005 C3013 0.950 . S
H3006 C3011 0.950 . S
H3007 C3012 0.949 . S
H3008 C3014 0.950 . S
H3009 C3015 0.950 . S
H3010 C3016 0.949 . S
C3011 H3006 0.950 . S
C3011 C3013 1.327 . S
C3011 C3017 1.429 . S
C3012 C3004 1.574 . S
C3012 H3007 0.949 . S
C3012 C3018 1.368 . S
C3013 C2997 1.349 . S
C3013 H3005 0.950 . S
C3013 C3011 1.327 . S
C3014 C3002 1.349 . S
C3014 H3008 0.950 . S
C3014 C3015 1.327 . S
C3015 H3009 0.950 . S
C3015 C3014 1.327 . S
C3015 C3019 1.429 . S
C3016 C2999 1.574 . S
C3016 H3010 0.949 . S
C3016 C3020 1.368 . S
C3017 C2998 1.429 . S
C3017 C3011 1.429 . S
C3017 C3018 1.523 . S
C3018 C2999 1.368 . S
C3018 C3012 1.368 . S
C3018 C3017 1.523 . S
C3019 C3003 1.429 . S
C3019 C3015 1.429 . S
C3019 C3020 1.523 . S
C3020 C3004 1.368 . S
C3020 C3016 1.368 . S
C3020 C3019 1.523 . S
H3021 C2996 0.950 . S
H3022 C2998 0.950 . S
H3023 C2999 0.949 . S
H3024 C3001 0.950 . S
H3025 C3003 0.950 . S
C3026 C3027 1.349 . S
C3026 C3028 1.327 . S
C3026 H3051 0.950 . S
C3027 C3026 1.349 . S
C3027 C3043 1.349 . S
C3028 C3026 1.327 . S
C3028 C3047 1.429 . S
C3028 H3052 0.950 . S
C3029 C3046 1.574 . S
C3029 C3048 1.368 . S
C3029 H3053 0.949 . S
H3030 C3034 0.949 . S
C3031 C3032 1.349 . S
C3031 C3033 1.327 . S
C3031 H3054 0.950 . S
C3032 C3031 1.349 . S
C3032 C3044 1.349 . S
C3033 C3031 1.327 . S
C3033 C3049 1.429 . S
C3033 H3055 0.950 . S
C3034 H3030 0.949 . S
C3034 C3042 1.574 . S
C3034 C3050 1.368 . S
H3035 C3043 0.950 . S
H3036 C3041 0.950 . S
H3037 C3042 0.949 . S
H3038 C3044 0.950 . S
H3039 C3045 0.950 . S
H3040 C3046 0.949 . S
C3041 H3036 0.950 . S
C3041 C3043 1.327 . S
C3041 C3047 1.429 . S
C3042 C3034 1.574 . S
C3042 H3037 0.949 . S
C3042 C3048 1.368 . S
C3043 C3027 1.349 . S
C3043 H3035 0.950 . S
C3043 C3041 1.327 . S
C3044 C3032 1.349 . S
C3044 H3038 0.950 . S
C3044 C3045 1.327 . S
C3045 H3039 0.950 . S
C3045 C3044 1.327 . S
C3045 C3049 1.429 . S
C3046 C3029 1.574 . S
C3046 H3040 0.949 . S
C3046 C3050 1.368 . S
C3047 C3028 1.429 . S
C3047 C3041 1.429 . S
C3047 C3048 1.523 . S
C3048 C3029 1.368 . S
C3048 C3042 1.368 . S
C3048 C3047 1.523 . S
C3049 C3033 1.429 . S
C3049 C3045 1.429 . S
C3049 C3050 1.523 . S
C3050 C3034 1.368 . S
C3050 C3046 1.368 . S
C3050 C3049 1.523 . S
H3051 C3026 0.950 . S
H3052 C3028 0.950 . S
H3053 C3029 0.949 . S
H3054 C3031 0.950 . S
H3055 C3033 0.950 . S
C3056 C3057 1.349 . S
C3056 C3058 1.327 . S
C3056 H3081 0.950 . S
C3057 C3056 1.349 . S
C3057 C3073 1.349 . S
C3058 C3056 1.327 . S
C3058 C3077 1.429 . S
C3058 H3082 0.950 . S
C3059 C3076 1.574 . S
C3059 C3078 1.368 . S
C3059 H3083 0.949 . S
H3060 C3064 0.949 . S
C3061 C3062 1.349 . S
C3061 C3063 1.327 . S
C3061 H3084 0.950 . S
C3062 C3061 1.349 . S
C3062 C3074 1.349 . S
C3063 C3061 1.327 . S
C3063 C3079 1.429 . S
C3063 H3085 0.950 . S
C3064 H3060 0.949 . S
C3064 C3072 1.574 . S
C3064 C3080 1.368 . S
H3065 C3073 0.950 . S
H3066 C3071 0.950 . S
H3067 C3072 0.949 . S
H3068 C3074 0.950 . S
H3069 C3075 0.950 . S
H3070 C3076 0.949 . S
C3071 H3066 0.950 . S
C3071 C3073 1.327 . S
C3071 C3077 1.429 . S
C3072 C3064 1.574 . S
C3072 H3067 0.949 . S
C3072 C3078 1.368 . S
C3073 C3057 1.349 . S
C3073 H3065 0.950 . S
C3073 C3071 1.327 . S
C3074 C3062 1.349 . S
C3074 H3068 0.950 . S
C3074 C3075 1.327 . S
C3075 H3069 0.950 . S
C3075 C3074 1.327 . S
C3075 C3079 1.429 . S
C3076 C3059 1.574 . S
C3076 H3070 0.949 . S
C3076 C3080 1.368 . S
C3077 C3058 1.429 . S
C3077 C3071 1.429 . S
C3077 C3078 1.523 . S
C3078 C3059 1.368 . S
C3078 C3072 1.368 . S
C3078 C3077 1.523 . S
C3079 C3063 1.429 . S
C3079 C3075 1.429 . S
C3079 C3080 1.523 . S
C3080 C3064 1.368 . S
C3080 C3076 1.368 . S
C3080 C3079 1.523 . S
H3081 C3056 0.950 . S
H3082 C3058 0.950 . S
H3083 C3059 0.949 . S
H3084 C3061 0.950 . S
H3085 C3063 0.950 . S
C3086 C3087 1.349 . S
C3086 C3088 1.327 . S
C3086 H3111 0.950 . S
C3087 C3086 1.349 . S
C3087 C3103 1.349 . S
C3088 C3086 1.327 . S
C3088 C3107 1.429 . S
C3088 H3112 0.950 . S
C3089 C3106 1.574 . S
C3089 C3108 1.368 . S
C3089 H3113 0.949 . S
H3090 C3094 0.949 . S
C3091 C3092 1.349 . S
C3091 C3093 1.327 . S
C3091 H3114 0.950 . S
C3092 C3091 1.349 . S
C3092 C3104 1.349 . S
C3093 C3091 1.327 . S
C3093 C3109 1.429 . S
C3093 H3115 0.950 . S
C3094 H3090 0.949 . S
C3094 C3102 1.574 . S
C3094 C3110 1.368 . S
H3095 C3103 0.950 . S
H3096 C3101 0.950 . S
H3097 C3102 0.949 . S
H3098 C3104 0.950 . S
H3099 C3105 0.950 . S
H3100 C3106 0.949 . S
C3101 H3096 0.950 . S
C3101 C3103 1.327 . S
C3101 C3107 1.429 . S
C3102 C3094 1.574 . S
C3102 H3097 0.949 . S
C3102 C3108 1.368 . S
C3103 C3087 1.349 . S
C3103 H3095 0.950 . S
C3103 C3101 1.327 . S
C3104 C3092 1.349 . S
C3104 H3098 0.950 . S
C3104 C3105 1.327 . S
C3105 H3099 0.950 . S
C3105 C3104 1.327 . S
C3105 C3109 1.429 . S
C3106 C3089 1.574 . S
C3106 H3100 0.949 . S
C3106 C3110 1.368 . S
C3107 C3088 1.429 . S
C3107 C3101 1.429 . S
C3107 C3108 1.523 . S
C3108 C3089 1.368 . S
C3108 C3102 1.368 . S
C3108 C3107 1.523 . S
C3109 C3093 1.429 . S
C3109 C3105 1.429 . S
C3109 C3110 1.523 . S
C3110 C3094 1.368 . S
C3110 C3106 1.368 . S
C3110 C3109 1.523 . S
H3111 C3086 0.950 . S
H3112 C3088 0.950 . S
H3113 C3089 0.949 . S
H3114 C3091 0.950 . S
H3115 C3093 0.950 . S
C3116 C3117 1.349 . S
C3116 C3118 1.327 . S
C3116 H3141 0.950 . S
C3117 C3116 1.349 . S
C3117 C3133 1.349 . S
C3118 C3116 1.327 . S
C3118 C3137 1.429 . S
C3118 H3142 0.950 . S
C3119 C3136 1.574 . S
C3119 C3138 1.368 . S
C3119 H3143 0.949 . S
H3120 C3124 0.949 . S
C3121 C3122 1.364 . S
C3121 C3123 1.342 . S
C3121 H3144 0.920 1_655 S
C3122 C3121 1.364 . S
C3122 C3134 1.349 . S
C3123 C3121 1.342 . S
C3123 C3139 1.429 . S
C3123 H3145 0.950 . S
C3124 H3120 0.949 . S
C3124 C3132 1.574 . S
C3124 C3140 1.368 . S
H3125 C3133 0.950 . S
H3126 C3131 0.950 . S
H3127 C3132 0.949 . S
H3128 C3134 0.950 . S
H3129 C3135 0.950 . S
H3130 C3136 0.949 . S
C3131 H3126 0.950 . S
C3131 C3133 1.327 . S
C3131 C3137 1.429 . S
C3132 C3124 1.574 . S
C3132 H3127 0.949 . S
C3132 C3138 1.368 . S
C3133 C3117 1.349 . S
C3133 H3125 0.950 . S
C3133 C3131 1.327 . S
C3134 C3122 1.349 . S
C3134 H3128 0.950 . S
C3134 C3135 1.327 . S
C3135 H3129 0.950 . S
C3135 C3134 1.327 . S
C3135 C3139 1.429 . S
C3136 C3119 1.574 . S
C3136 H3130 0.949 . S
C3136 C3140 1.368 . S
C3137 C3118 1.429 . S
C3137 C3131 1.429 . S
C3137 C3138 1.523 . S
C3138 C3119 1.368 . S
C3138 C3132 1.368 . S
C3138 C3137 1.523 . S
C3139 C3123 1.429 . S
C3139 C3135 1.429 . S
C3139 C3140 1.523 . S
C3140 C3124 1.368 . S
C3140 C3136 1.368 . S
C3140 C3139 1.523 . S
H3141 C3116 0.950 . S
H3142 C3118 0.950 . S
H3143 C3119 0.949 . S
H3144 C3121 0.920 1_455 S
H3145 C3123 0.950 . S
C3146 C3147 1.349 . S
C3146 C3148 1.327 . S
C3146 H3171 0.950 . S
C3147 C3146 1.349 . S
C3147 C3163 1.349 . S
C3148 C3146 1.327 . S
C3148 C3167 1.429 . S
C3148 H3172 0.950 . S
C3149 C3166 1.574 . S
C3149 C3168 1.368 . S
C3149 H3173 0.949 . S
H3150 C3154 0.949 . S
C3151 C3152 1.349 . S
C3151 C3153 1.327 . S
C3151 H3174 0.950 . S
C3152 C3151 1.349 . S
C3152 C3164 1.349 . S
C3153 C3151 1.327 . S
C3153 C3169 1.429 . S
C3153 H3175 0.950 . S
C3154 H3150 0.949 . S
C3154 C3162 1.574 . S
C3154 C3170 1.368 . S
H3155 C3163 0.950 . S
H3156 C3161 0.950 . S
H3157 C3162 0.949 . S
H3158 C3164 0.950 . S
H3159 C3165 0.950 . S
H3160 C3166 0.949 . S
C3161 H3156 0.950 . S
C3161 C3163 1.327 . S
C3161 C3167 1.429 . S
C3162 C3154 1.574 . S
C3162 H3157 0.949 . S
C3162 C3168 1.368 . S
C3163 C3147 1.349 . S
C3163 H3155 0.950 . S
C3163 C3161 1.327 . S
C3164 C3152 1.349 . S
C3164 H3158 0.950 . S
C3164 C3165 1.327 . S
C3165 H3159 0.950 . S
C3165 C3164 1.327 . S
C3165 C3169 1.429 . S
C3166 C3149 1.574 . S
C3166 H3160 0.949 . S
C3166 C3170 1.368 . S
C3167 C3148 1.429 . S
C3167 C3161 1.429 . S
C3167 C3168 1.523 . S
C3168 C3149 1.368 . S
C3168 C3162 1.368 . S
C3168 C3167 1.523 . S
C3169 C3153 1.429 . S
C3169 C3165 1.429 . S
C3169 C3170 1.523 . S
C3170 C3154 1.368 . S
C3170 C3166 1.368 . S
C3170 C3169 1.523 . S
H3171 C3146 0.950 . S
H3172 C3148 0.950 . S
H3173 C3149 0.949 . S
H3174 C3151 0.950 . S
H3175 C3153 0.950 . S
C3176 C3177 1.349 . S
C3176 C3178 1.327 . S
C3176 H3201 0.950 . S
C3177 C3176 1.349 . S
C3177 C3193 1.349 . S
C3178 C3176 1.327 . S
C3178 C3197 1.429 . S
C3178 H3202 0.950 . S
C3179 C3196 1.574 . S
C3179 C3198 1.368 . S
C3179 H3203 0.949 . S
H3180 C3184 0.949 . S
C3181 C3182 1.349 . S
C3181 C3183 1.327 . S
C3181 H3204 0.950 . S
C3182 C3181 1.349 . S
C3182 C3194 1.349 . S
C3183 C3181 1.327 . S
C3183 C3199 1.429 . S
C3183 H3205 0.950 . S
C3184 H3180 0.949 . S
C3184 C3192 1.574 . S
C3184 C3200 1.368 . S
H3185 C3193 0.950 . S
H3186 C3191 0.950 . S
H3187 C3192 0.949 . S
H3188 C3194 0.950 . S
H3189 C3195 0.950 . S
H3190 C3196 0.949 . S
C3191 H3186 0.950 . S
C3191 C3193 1.327 . S
C3191 C3197 1.429 . S
C3192 C3184 1.574 . S
C3192 H3187 0.949 . S
C3192 C3198 1.368 . S
C3193 C3177 1.349 . S
C3193 H3185 0.950 . S
C3193 C3191 1.327 . S
C3194 C3182 1.349 . S
C3194 H3188 0.950 . S
C3194 C3195 1.327 . S
C3195 H3189 0.950 . S
C3195 C3194 1.327 . S
C3195 C3199 1.429 . S
C3196 C3179 1.574 . S
C3196 H3190 0.949 . S
C3196 C3200 1.368 . S
C3197 C3178 1.429 . S
C3197 C3191 1.429 . S
C3197 C3198 1.523 . S
C3198 C3179 1.368 . S
C3198 C3192 1.368 . S
C3198 C3197 1.523 . S
C3199 C3183 1.429 . S
C3199 C3195 1.429 . S
C3199 C3200 1.523 . S
C3200 C3184 1.368 . S
C3200 C3196 1.368 . S
C3200 C3199 1.523 . S
H3201 C3176 0.950 . S
H3202 C3178 0.950 . S
H3203 C3179 0.949 . S
H3204 C3181 0.950 . S
H3205 C3183 0.950 . S
C3206 C3207 1.349 . S
C3206 C3208 1.327 . S
C3206 H3231 0.950 . S
C3207 C3206 1.349 . S
C3207 C3223 1.349 . S
C3208 C3206 1.327 . S
C3208 C3227 1.429 . S
C3208 H3232 0.950 . S
C3209 C3226 1.574 . S
C3209 C3228 1.368 . S
C3209 H3233 0.949 . S
H3210 C3214 0.949 . S
C3211 C3212 1.349 . S
C3211 C3213 1.327 . S
C3211 H3234 0.950 . S
C3212 C3211 1.349 . S
C3212 C3224 1.349 . S
C3213 C3211 1.327 . S
C3213 C3229 1.429 . S
C3213 H3235 0.950 . S
C3214 H3210 0.949 . S
C3214 C3222 1.574 . S
C3214 C3230 1.368 . S
H3215 C3223 0.950 . S
H3216 C3221 0.950 . S
H3217 C3222 0.949 . S
H3218 C3224 0.950 . S
H3219 C3225 0.950 . S
H3220 C3226 0.949 . S
C3221 H3216 0.950 . S
C3221 C3223 1.327 . S
C3221 C3227 1.429 . S
C3222 C3214 1.574 . S
C3222 H3217 0.949 . S
C3222 C3228 1.368 . S
C3223 C3207 1.349 . S
C3223 H3215 0.950 . S
C3223 C3221 1.327 . S
C3224 C3212 1.349 . S
C3224 H3218 0.950 . S
C3224 C3225 1.327 . S
C3225 H3219 0.950 . S
C3225 C3224 1.327 . S
C3225 C3229 1.429 . S
C3226 C3209 1.574 . S
C3226 H3220 0.949 . S
C3226 C3230 1.368 . S
C3227 C3208 1.429 . S
C3227 C3221 1.429 . S
C3227 C3228 1.523 . S
C3228 C3209 1.368 . S
C3228 C3222 1.368 . S
C3228 C3227 1.523 . S
C3229 C3213 1.429 . S
C3229 C3225 1.429 . S
C3229 C3230 1.523 . S
C3230 C3214 1.368 . S
C3230 C3226 1.368 . S
C3230 C3229 1.523 . S
H3231 C3206 0.950 . S
H3232 C3208 0.950 . S
H3233 C3209 0.949 . S
H3234 C3211 0.950 . S
H3235 C3213 0.950 . S
C3236 C3237 1.349 . S
C3236 C3238 1.327 . S
C3236 H3261 0.950 . S
C3237 C3236 1.349 . S
C3237 C3253 1.349 . S
C3238 C3236 1.327 . S
C3238 C3257 1.429 . S
C3238 H3262 0.950 . S
C3239 C3256 1.574 . S
C3239 C3258 1.368 . S
C3239 H3263 0.949 . S
H3240 C3244 0.949 . S
C3241 C3242 1.349 . S
C3241 C3243 1.327 . S
C3241 H3264 0.950 . S
C3242 C3241 1.349 . S
C3242 C3254 1.349 . S
C3243 C3241 1.327 . S
C3243 C3259 1.429 . S
C3243 H3265 0.950 . S
C3244 H3240 0.949 . S
C3244 C3252 1.574 . S
C3244 C3260 1.368 . S
H3245 C3253 0.950 . S
H3246 C3251 0.950 . S
H3247 C3252 0.949 . S
H3248 C3254 0.950 . S
H3249 C3255 0.950 . S
H3250 C3256 0.949 . S
C3251 H3246 0.950 . S
C3251 C3253 1.327 . S
C3251 C3257 1.429 . S
C3252 C3244 1.574 . S
C3252 H3247 0.949 . S
C3252 C3258 1.368 . S
C3253 C3237 1.349 . S
C3253 H3245 0.950 . S
C3253 C3251 1.327 . S
C3254 C3242 1.349 . S
C3254 H3248 0.950 . S
C3254 C3255 1.327 . S
C3255 H3249 0.950 . S
C3255 C3254 1.327 . S
C3255 C3259 1.429 . S
C3256 C3239 1.574 . S
C3256 H3250 0.949 . S
C3256 C3260 1.368 . S
C3257 C3238 1.429 . S
C3257 C3251 1.429 . S
C3257 C3258 1.523 . S
C3258 C3239 1.368 . S
C3258 C3252 1.368 . S
C3258 C3257 1.523 . S
C3259 C3243 1.429 . S
C3259 C3255 1.429 . S
C3259 C3260 1.523 . S
C3260 C3244 1.368 . S
C3260 C3256 1.368 . S
C3260 C3259 1.523 . S
H3261 C3236 0.950 . S
H3262 C3238 0.950 . S
H3263 C3239 0.949 . S
H3264 C3241 0.950 . S
H3265 C3243 0.950 . S
C3266 C3267 1.349 . S
C3266 C3268 1.327 . S
C3266 H3291 0.950 . S
C3267 C3266 1.349 . S
C3267 C3283 1.349 . S
C3268 C3266 1.327 . S
C3268 C3287 1.429 . S
C3268 H3292 0.950 . S
C3269 C3286 1.574 . S
C3269 C3288 1.368 . S
C3269 H3293 0.949 . S
H3270 C3274 0.949 . S
C3271 C3272 1.349 . S
C3271 C3273 1.327 . S
C3271 H3294 0.950 . S
C3272 C3271 1.349 . S
C3272 C3284 1.349 . S
C3273 C3271 1.327 . S
C3273 C3289 1.429 . S
C3273 H3295 0.950 . S
C3274 H3270 0.949 . S
C3274 C3282 1.574 . S
C3274 C3290 1.368 . S
H3275 C3283 0.950 . S
H3276 C3281 0.950 . S
H3277 C3282 0.949 . S
H3278 C3284 0.950 . S
H3279 C3285 0.950 . S
H3280 C3286 0.949 . S
C3281 H3276 0.950 . S
C3281 C3283 1.327 . S
C3281 C3287 1.429 . S
C3282 C3274 1.574 . S
C3282 H3277 0.949 . S
C3282 C3288 1.368 . S
C3283 C3267 1.349 . S
C3283 H3275 0.950 . S
C3283 C3281 1.327 . S
C3284 C3272 1.349 . S
C3284 H3278 0.950 . S
C3284 C3285 1.327 . S
C3285 H3279 0.950 . S
C3285 C3284 1.327 . S
C3285 C3289 1.429 . S
C3286 C3269 1.574 . S
C3286 H3280 0.949 . S
C3286 C3290 1.368 . S
C3287 C3268 1.429 . S
C3287 C3281 1.429 . S
C3287 C3288 1.523 . S
C3288 C3269 1.368 . S
C3288 C3282 1.368 . S
C3288 C3287 1.523 . S
C3289 C3273 1.429 . S
C3289 C3285 1.429 . S
C3289 C3290 1.523 . S
C3290 C3274 1.368 . S
C3290 C3286 1.368 . S
C3290 C3289 1.523 . S
H3291 C3266 0.950 . S
H3292 C3268 0.950 . S
H3293 C3269 0.949 . S
H3294 C3271 0.950 . S
H3295 C3273 0.950 . S
C3296 C3297 1.349 . S
C3296 C3298 1.327 . S
C3296 H3321 0.950 . S
C3297 C3296 1.349 . S
C3297 C3313 1.349 . S
C3298 C3296 1.327 . S
C3298 C3317 1.429 . S
C3298 H3322 0.950 . S
C3299 C3316 1.574 . S
C3299 C3318 1.368 . S
C3299 H3323 0.949 . S
H3300 C3304 0.949 . S
C3301 C3302 1.349 . S
C3301 C3303 1.327 . S
C3301 H3324 0.950 . S
C3302 C3301 1.349 . S
C3302 C3314 1.349 . S
C3303 C3301 1.327 . S
C3303 C3319 1.429 . S
C3303 H3325 0.950 . S
C3304 H3300 0.949 . S
C3304 C3312 1.574 . S
C3304 C3320 1.368 . S
H3305 C3313 0.950 . S
H3306 C3311 0.950 . S
H3307 C3312 0.949 . S
H3308 C3314 0.950 . S
H3309 C3315 0.950 . S
H3310 C3316 0.949 . S
C3311 H3306 0.950 . S
C3311 C3313 1.327 . S
C3311 C3317 1.429 . S
C3312 C3304 1.574 . S
C3312 H3307 0.949 . S
C3312 C3318 1.368 . S
C3313 C3297 1.349 . S
C3313 H3305 0.950 . S
C3313 C3311 1.327 . S
C3314 C3302 1.349 . S
C3314 H3308 0.950 . S
C3314 C3315 1.327 . S
C3315 H3309 0.950 . S
C3315 C3314 1.327 . S
C3315 C3319 1.429 . S
C3316 C3299 1.574 . S
C3316 H3310 0.949 . S
C3316 C3320 1.368 . S
C3317 C3298 1.429 . S
C3317 C3311 1.429 . S
C3317 C3318 1.523 . S
C3318 C3299 1.368 . S
C3318 C3312 1.368 . S
C3318 C3317 1.523 . S
C3319 C3303 1.429 . S
C3319 C3315 1.429 . S
C3319 C3320 1.523 . S
C3320 C3304 1.368 . S
C3320 C3316 1.368 . S
C3320 C3319 1.523 . S
H3321 C3296 0.950 . S
H3322 C3298 0.950 . S
H3323 C3299 0.949 . S
H3324 C3301 0.950 . S
H3325 C3303 0.950 . S
C3326 C3327 1.349 . S
C3326 C3328 1.327 . S
C3326 H3351 0.950 . S
C3327 C3326 1.349 . S
C3327 C3343 1.349 . S
C3328 C3326 1.327 . S
C3328 C3347 1.429 . S
C3328 H3352 0.950 . S
C3329 C3346 1.574 . S
C3329 C3348 1.368 . S
C3329 H3353 0.949 . S
H3330 C3334 0.949 . S
C3331 C3332 1.349 . S
C3331 C3333 1.327 . S
C3331 H3354 0.950 1_565 S
C3332 C3331 1.349 . S
C3332 C3344 1.349 . S
C3333 C3331 1.327 . S
C3333 C3349 1.429 . S
C3333 H3355 0.950 . S
C3334 H3330 0.949 . S
C3334 C3342 1.574 . S
C3334 C3350 1.368 . S
H3335 C3343 0.950 . S
H3336 C3341 0.950 . S
H3337 C3342 0.949 . S
H3338 C3344 0.950 . S
H3339 C3345 0.950 . S
H3340 C3346 0.949 . S
C3341 H3336 0.950 . S
C3341 C3343 1.327 . S
C3341 C3347 1.429 . S
C3342 C3334 1.574 . S
C3342 H3337 0.949 . S
C3342 C3348 1.368 . S
C3343 C3327 1.349 . S
C3343 H3335 0.950 . S
C3343 C3341 1.327 . S
C3344 C3332 1.349 . S
C3344 H3338 0.950 . S
C3344 C3345 1.327 . S
C3345 H3339 0.950 . S
C3345 C3344 1.327 . S
C3345 C3349 1.429 . S
C3346 C3329 1.574 . S
C3346 H3340 0.949 . S
C3346 C3350 1.368 . S
C3347 C3328 1.429 . S
C3347 C3341 1.429 . S
C3347 C3348 1.523 . S
C3348 C3329 1.368 . S
C3348 C3342 1.368 . S
C3348 C3347 1.523 . S
C3349 C3333 1.429 . S
C3349 C3345 1.429 . S
C3349 C3350 1.523 . S
C3350 C3334 1.368 . S
C3350 C3346 1.368 . S
C3350 C3349 1.523 . S
H3351 C3326 0.950 . S
H3352 C3328 0.950 . S
H3353 C3329 0.949 . S
H3354 C3331 0.950 1_545 S
H3355 C3333 0.950 . S
C3356 C3357 1.349 . S
C3356 C3358 1.327 . S
C3356 H3381 0.950 . S
C3357 C3356 1.349 . S
C3357 C3373 1.349 . S
C3358 C3356 1.327 . S
C3358 C3377 1.429 . S
C3358 H3382 0.950 . S
C3359 C3376 1.574 . S
C3359 C3378 1.368 . S
C3359 H3383 0.949 . S
H3360 C3364 0.949 . S
C3361 C3362 1.349 . S
C3361 C3363 1.327 . S
C3361 H3384 0.950 . S
C3362 C3361 1.349 . S
C3362 C3374 1.349 . S
C3363 C3361 1.327 . S
C3363 C3379 1.429 . S
C3363 H3385 0.950 . S
C3364 H3360 0.949 . S
C3364 C3372 1.574 . S
C3364 C3380 1.368 . S
H3365 C3373 0.950 . S
H3366 C3371 0.950 . S
H3367 C3372 0.949 . S
H3368 C3374 0.950 . S
H3369 C3375 0.950 . S
H3370 C3376 0.949 . S
C3371 H3366 0.950 . S
C3371 C3373 1.327 . S
C3371 C3377 1.429 . S
C3372 C3364 1.574 . S
C3372 H3367 0.949 . S
C3372 C3378 1.368 . S
C3373 C3357 1.349 . S
C3373 H3365 0.950 . S
C3373 C3371 1.327 . S
C3374 C3362 1.349 . S
C3374 H3368 0.950 . S
C3374 C3375 1.327 . S
C3375 H3369 0.950 . S
C3375 C3374 1.327 . S
C3375 C3379 1.429 . S
C3376 C3359 1.574 . S
C3376 H3370 0.949 . S
C3376 C3380 1.368 . S
C3377 C3358 1.429 . S
C3377 C3371 1.429 . S
C3377 C3378 1.523 . S
C3378 C3359 1.368 . S
C3378 C3372 1.368 . S
C3378 C3377 1.523 . S
C3379 C3363 1.429 . S
C3379 C3375 1.429 . S
C3379 C3380 1.523 . S
C3380 C3364 1.368 . S
C3380 C3376 1.368 . S
C3380 C3379 1.523 . S
H3381 C3356 0.950 . S
H3382 C3358 0.950 . S
H3383 C3359 0.949 . S
H3384 C3361 0.950 . S
H3385 C3363 0.950 . S
C3386 C3387 1.349 . S
C3386 C3388 1.327 . S
C3386 H3411 0.950 1_554 S
C3387 C3386 1.349 . S
C3387 C3403 1.349 . S
C3388 C3386 1.327 . S
C3388 C3407 1.429 . S
C3388 H3412 0.950 1_554 S
C3389 C3406 1.574 . S
C3389 C3408 1.368 . S
C3389 H3413 0.949 . S
H3390 C3394 0.949 1_556 S
C3391 C3392 1.349 . S
C3391 C3393 1.327 . S
C3391 H3414 0.950 . S
C3392 C3391 1.349 . S
C3392 C3404 1.349 . S
C3393 C3391 1.327 . S
C3393 C3409 1.429 . S
C3393 H3415 0.950 . S
C3394 H3390 0.949 1_554 S
C3394 C3402 1.574 . S
C3394 C3410 1.368 . S
H3395 C3403 0.950 . S
H3396 C3401 0.950 . S
H3397 C3402 0.949 1_556 S
H3398 C3404 0.950 1_556 S
H3399 C3405 0.950 1_556 S
H3400 C3406 0.949 . S
C3401 H3396 0.950 . S
C3401 C3403 1.327 . S
C3401 C3407 1.429 . S
C3402 C3394 1.574 . S
C3402 H3397 0.949 1_554 S
C3402 C3408 1.368 . S
C3403 C3387 1.349 . S
C3403 H3395 0.950 . S
C3403 C3401 1.327 . S
C3404 C3392 1.349 . S
C3404 H3398 0.950 1_554 S
C3404 C3405 1.327 . S
C3405 H3399 0.950 1_554 S
C3405 C3404 1.327 . S
C3405 C3409 1.429 . S
C3406 C3389 1.574 . S
C3406 H3400 0.949 . S
C3406 C3410 1.368 . S
C3407 C3388 1.429 . S
C3407 C3401 1.429 . S
C3407 C3408 1.523 . S
C3408 C3389 1.368 . S
C3408 C3402 1.368 . S
C3408 C3407 1.523 . S
C3409 C3393 1.429 . S
C3409 C3405 1.429 . S
C3409 C3410 1.523 . S
C3410 C3394 1.368 . S
C3410 C3406 1.368 . S
C3410 C3409 1.523 . S
H3411 C3386 0.950 1_556 S
H3412 C3388 0.950 1_556 S
H3413 C3389 0.949 . S
H3414 C3391 0.950 . S
H3415 C3393 0.950 . S
C3416 C3417 1.349 . S
C3416 C3418 1.327 . S
C3416 H3441 0.950 . S
C3417 C3416 1.349 . S
C3417 C3433 1.349 . S
C3418 C3416 1.327 . S
C3418 C3437 1.429 . S
C3418 H3442 0.950 . S
C3419 C3436 1.574 . S
C3419 C3438 1.368 . S
C3419 H3443 0.949 . S
H3420 C3424 0.949 . S
C3421 C3422 1.349 . S
C3421 C3423 1.327 . S
C3421 H3444 0.950 . S
C3422 C3421 1.349 . S
C3422 C3434 1.349 . S
C3423 C3421 1.327 . S
C3423 C3439 1.429 . S
C3423 H3445 0.950 . S
C3424 H3420 0.949 . S
C3424 C3432 1.574 . S
C3424 C3440 1.368 . S
H3425 C3433 0.950 . S
H3426 C3431 0.950 . S
H3427 C3432 0.949 . S
H3428 C3434 0.950 . S
H3429 C3435 0.950 . S
H3430 C3436 0.949 . S
C3431 H3426 0.950 . S
C3431 C3433 1.327 . S
C3431 C3437 1.429 . S
C3432 C3424 1.574 . S
C3432 H3427 0.949 . S
C3432 C3438 1.368 . S
C3433 C3417 1.349 . S
C3433 H3425 0.950 . S
C3433 C3431 1.327 . S
C3434 C3422 1.349 . S
C3434 H3428 0.950 . S
C3434 C3435 1.327 . S
C3435 H3429 0.950 . S
C3435 C3434 1.327 . S
C3435 C3439 1.429 . S
C3436 C3419 1.574 . S
C3436 H3430 0.949 . S
C3436 C3440 1.368 . S
C3437 C3418 1.429 . S
C3437 C3431 1.429 . S
C3437 C3438 1.523 . S
C3438 C3419 1.368 . S
C3438 C3432 1.368 . S
C3438 C3437 1.523 . S
C3439 C3423 1.429 . S
C3439 C3435 1.429 . S
C3439 C3440 1.523 . S
C3440 C3424 1.368 . S
C3440 C3436 1.368 . S
C3440 C3439 1.523 . S
H3441 C3416 0.950 . S
H3442 C3418 0.950 . S
H3443 C3419 0.949 . S
H3444 C3421 0.950 . S
H3445 C3423 0.950 . S
C3446 C3447 1.349 . S
C3446 C3448 1.327 . S
C3446 H3471 0.950 . S
C3447 C3446 1.349 . S
C3447 C3463 1.349 . S
C3448 C3446 1.327 . S
C3448 C3467 1.429 . S
C3448 H3472 0.950 . S
C3449 C3466 1.574 . S
C3449 C3468 1.368 . S
C3449 H3473 0.949 . S
H3450 C3454 0.949 . S
C3451 C3452 1.349 . S
C3451 C3453 1.327 . S
C3451 H3474 0.950 1_554 S
C3452 C3451 1.349 . S
C3452 C3464 1.349 . S
C3453 C3451 1.327 . S
C3453 C3469 1.429 . S
C3453 H3475 0.950 . S
C3454 H3450 0.949 . S
C3454 C3462 1.574 . S
C3454 C3470 1.368 . S
H3455 C3463 0.950 . S
H3456 C3461 0.950 . S
H3457 C3462 0.949 . S
H3458 C3464 0.950 . S
H3459 C3465 0.950 . S
H3460 C3466 0.949 . S
C3461 H3456 0.950 . S
C3461 C3463 1.327 . S
C3461 C3467 1.429 . S
C3462 C3454 1.574 . S
C3462 H3457 0.949 . S
C3462 C3468 1.368 . S
C3463 C3447 1.349 . S
C3463 H3455 0.950 . S
C3463 C3461 1.327 . S
C3464 C3452 1.349 . S
C3464 H3458 0.950 . S
C3464 C3465 1.327 . S
C3465 H3459 0.950 . S
C3465 C3464 1.327 . S
C3465 C3469 1.429 . S
C3466 C3449 1.574 . S
C3466 H3460 0.949 . S
C3466 C3470 1.368 . S
C3467 C3448 1.429 . S
C3467 C3461 1.429 . S
C3467 C3468 1.523 . S
C3468 C3449 1.368 . S
C3468 C3462 1.368 . S
C3468 C3467 1.523 . S
C3469 C3453 1.429 . S
C3469 C3465 1.429 . S
C3469 C3470 1.523 . S
C3470 C3454 1.368 . S
C3470 C3466 1.368 . S
C3470 C3469 1.523 . S
H3471 C3446 0.950 . S
H3472 C3448 0.950 . S
H3473 C3449 0.949 . S
H3474 C3451 0.950 1_556 S
H3475 C3453 0.950 . S
C3476 C3477 1.349 . S
C3476 C3478 1.327 . S
C3476 H3501 0.950 . S
C3477 C3476 1.349 . S
C3477 C3493 1.349 . S
C3478 C3476 1.327 . S
C3478 C3497 1.429 . S
C3478 H3502 0.950 . S
C3479 C3496 1.574 . S
C3479 C3498 1.368 . S
C3479 H3503 0.949 . S
H3480 C3484 0.949 . S
C3481 C3482 1.349 . S
C3481 C3483 1.327 . S
C3481 H3504 0.950 . S
C3482 C3481 1.349 . S
C3482 C3494 1.349 . S
C3483 C3481 1.327 . S
C3483 C3499 1.429 . S
C3483 H3505 0.950 . S
C3484 H3480 0.949 . S
C3484 C3492 1.574 . S
C3484 C3500 1.368 . S
H3485 C3493 0.950 . S
H3486 C3491 0.950 . S
H3487 C3492 0.949 . S
H3488 C3494 0.950 . S
H3489 C3495 0.950 . S
H3490 C3496 0.949 . S
C3491 H3486 0.950 . S
C3491 C3493 1.327 . S
C3491 C3497 1.429 . S
C3492 C3484 1.574 . S
C3492 H3487 0.949 . S
C3492 C3498 1.368 . S
C3493 C3477 1.349 . S
C3493 H3485 0.950 . S
C3493 C3491 1.327 . S
C3494 C3482 1.349 . S
C3494 H3488 0.950 . S
C3494 C3495 1.327 . S
C3495 H3489 0.950 . S
C3495 C3494 1.327 . S
C3495 C3499 1.429 . S
C3496 C3479 1.574 . S
C3496 H3490 0.949 . S
C3496 C3500 1.368 . S
C3497 C3478 1.429 . S
C3497 C3491 1.429 . S
C3497 C3498 1.523 . S
C3498 C3479 1.368 . S
C3498 C3492 1.368 . S
C3498 C3497 1.523 . S
C3499 C3483 1.429 . S
C3499 C3495 1.429 . S
C3499 C3500 1.523 . S
C3500 C3484 1.368 . S
C3500 C3496 1.368 . S
C3500 C3499 1.523 . S
H3501 C3476 0.950 . S
H3502 C3478 0.950 . S
H3503 C3479 0.949 . S
H3504 C3481 0.950 . S
H3505 C3483 0.950 . S
C3506 C3507 1.349 . S
C3506 C3508 1.327 . S
C3506 H3531 0.950 . S
C3507 C3506 1.349 . S
C3507 C3523 1.349 . S
C3508 C3506 1.327 . S
C3508 C3527 1.429 . S
C3508 H3532 0.950 . S
C3509 C3526 1.574 . S
C3509 C3528 1.368 . S
C3509 H3533 0.949 . S
H3510 C3514 0.949 . S
C3511 C3512 1.349 . S
C3511 C3513 1.327 . S
C3511 H3534 0.950 . S
C3512 C3511 1.349 . S
C3512 C3524 1.349 . S
C3513 C3511 1.327 . S
C3513 C3529 1.429 . S
C3513 H3535 0.950 . S
C3514 H3510 0.949 . S
C3514 C3522 1.574 . S
C3514 C3530 1.368 . S
H3515 C3523 0.950 . S
H3516 C3521 0.950 . S
H3517 C3522 0.949 . S
H3518 C3524 0.950 . S
H3519 C3525 0.950 . S
H3520 C3526 0.949 . S
C3521 H3516 0.950 . S
C3521 C3523 1.327 . S
C3521 C3527 1.429 . S
C3522 C3514 1.574 . S
C3522 H3517 0.949 . S
C3522 C3528 1.368 . S
C3523 C3507 1.349 . S
C3523 H3515 0.950 . S
C3523 C3521 1.327 . S
C3524 C3512 1.349 . S
C3524 H3518 0.950 . S
C3524 C3525 1.327 . S
C3525 H3519 0.950 . S
C3525 C3524 1.327 . S
C3525 C3529 1.429 . S
C3526 C3509 1.574 . S
C3526 H3520 0.949 . S
C3526 C3530 1.368 . S
C3527 C3508 1.429 . S
C3527 C3521 1.429 . S
C3527 C3528 1.523 . S
C3528 C3509 1.368 . S
C3528 C3522 1.368 . S
C3528 C3527 1.523 . S
C3529 C3513 1.429 . S
C3529 C3525 1.429 . S
C3529 C3530 1.523 . S
C3530 C3514 1.368 . S
C3530 C3526 1.368 . S
C3530 C3529 1.523 . S
H3531 C3506 0.950 . S
H3532 C3508 0.950 . S
H3533 C3509 0.949 . S
H3534 C3511 0.950 . S
H3535 C3513 0.950 . S
C657 C109 1.184 . S
C662 C340 1.090 . S
C687 C61 1.211 . S
C692 C375 1.343 . S
C717 C74 0.943 . S
C722 C380 0.906 . S
C752 C405 1.394 . S
C747 C96 1.464 . S
C777 C25 1.345 . S
C782 C425 1.292 . S
C812 C440 0.866 . S
C807 C40 0.909 . S
C842 C475 1.430 . S
C837 C46 1.453 . S
C867 C5 1.011 . S
C872 C480 1.112 . S
C902 C355 1.283 . S
C897 C229 1.102 . S
C927 C249 0.840 . S
C932 C365 0.823 . S
C962 C395 1.243 . S
C957 C271 1.120 . S
C992 C400 1.103 . S
C987 C172 1.155 1_556 S
C1017 C236 1.054 . S
C1022 C420 0.983 . S
C1052 C455 1.563 . S
C1047 C242 1.590 . S
C1082 C465 0.811 . S
C1077 C278 0.826 . S
C1112 C495 1.426 . S
C1107 C179 1.459 . S
C1142 C345 1.222 . S
C1137 C159 1.073 . S
C1167 C285 1.465 1_554 S
C1172 C515 1.623 . S
C1202 C525 1.260 . S
C1197 C333 1.334 . S
C1232 C540 0.865 . S
C1227 C320 0.906 . S
C1257 C123 1.236 . S
C1262 C485 1.157 . S
C1287 C138 1.498 . S
C1292 C385 1.409 . S
C1317 C326 1.788 . S
C1322 C575 1.763 . S
C1352 C580 0.950 . S
C1347 C298 0.990 . S
C1382 C338 1.066 . S
C1377 C67 1.170 . S
C1412 C594 1.286 . S
C1407 C110 1.319 . S
C1437 C88 0.953 . S
C1442 C378 0.908 . S
C1467 C75 1.168 . S
C1472 C568 1.308 . S
C1502 C428 1.226 1_655 S
C1497 C11 1.288 . S
C1527 C47 0.835 . S
C1532 C518 0.853 . S
C1562 C474 1.338 . S
C1557 C32 1.323 . S
C1592 C598 1.128 . S
C1587 C26 1.274 . S
C1622 C354 1.356 1_565 S
C1617 C152 1.436 . S
C1652 C588 0.834 . S
C1647 C319 0.846 . S
C1677 C124 1.260 . S
C1682 C394 1.232 . S
C1707 C284 1.193 . S
C1712 C558 1.117 . S
C1737 C145 0.921 1_545 S
C1742 C418 0.945 . S
C1772 C534 1.452 . S
C1767 C312 1.439 . S
C1797 C117 0.706 . S
C1802 C468 0.665 1_565 S
C1827 C291 1.366 . S
C1832 C614 1.321 . S
C1857 C194 1.348 . S
C1862 C348 1.241 1_556 S
C1887 C180 1.613 . S
C1892 C514 1.578 . S
C1917 C263 1.210 . S
C1922 C448 1.163 . S
C1947 C243 0.786 . S
C1952 C538 0.801 . S
C1982 C608 1.162 . S
C1977 C277 1.243 . S
C2007 C215 1.259 . S
C2012 C388 1.368 . S
C2042 C414 1.666 . S
C2037 C256 1.636 . S
C2072 C358 0.996 . S
C2067 C200 1.061 . S
C2097 C81 1.185 . S
C2102 C620 1.074 . S
C2132 C595 1.343 . S
C2127 C89 1.212 . S
C2157 C102 0.941 1_455 S
C2162 C640 0.906 . S
C2187 C68 1.465 . S
C2192 C565 1.394 . S
C2217 C53 1.345 . S
C2222 C505 1.293 . S
C2252 C520 0.866 . S
C2247 C12 0.909 . S
C2282 C555 1.430 . S
C2277 C18 1.454 1_455 S
C2312 C600 1.111 . S
C2307 C33 1.011 . S
C2342 C635 1.269 . S
C2337 C257 1.102 . S
C2367 C193 0.840 . S
C2372 C585 0.823 . S
C2402 C655 1.243 . S
C2397 C201 1.124 . S
C2432 C560 1.103 . S
C2427 C214 1.155 . S
C2462 C500 0.983 . S
C2457 C264 1.054 . S
C2487 C186 1.590 . S
C2492 C535 1.563 . S
C2522 C545 0.812 . S
C2517 C208 0.827 . S
C2547 C221 1.459 . S
C2552 C615 1.426 . S
C2582 C625 1.222 . S
C2577 C313 1.072 . S
C2607 C131 1.467 . S
C2612 C435 1.623 . S
C2642 C445 1.260 . S
C2637 C151 1.334 . S
C2672 C460 0.865 . S
C2667 C166 0.906 . S
C2702 C605 1.157 . S
C2697 C305 1.236 . S
C2727 C292 1.498 . S
C2732 C645 1.410 . S
C2762 C415 1.763 . S
C2757 C144 1.788 . S
C2792 C360 0.950 . S
C2787 C116 0.990 . S
C2817 C95 1.170 . S
C2822 C618 1.065 . S
C2852 C374 1.286 . S
C2847 C82 1.319 . S
C2877 C60 0.953 . S
C2882 C638 0.908 . S
C2907 C103 1.168 . S
C2912 C408 1.309 . S
C2937 C39 1.288 . S
C2942 C508 1.235 . S
C2972 C438 0.853 . S
C2967 C19 0.835 . S
C2997 C4 1.323 . S
C3002 C554 1.338 . S
C3027 C54 1.274 . S
C3032 C478 1.128 . S
C3062 C634 1.367 . S
C3057 C334 1.436 . S
C3087 C165 0.846 . S
C3092 C368 0.834 . S
C3122 C654 1.220 1_655 S
C3117 C306 1.260 . S
C3147 C130 1.193 . S
C3152 C398 1.118 . S
C3177 C327 0.921 . S
C3182 C498 0.945 . S
C3212 C454 1.453 . S
C3207 C158 1.439 . S
C3237 C299 0.706 . S
C3242 C548 0.678 . S
C3272 C494 1.320 . S
C3267 C137 1.366 . S
C3302 C628 1.240 . S
C3297 C250 1.348 . S
C3332 C434 1.578 1_565 S
C3327 C222 1.613 . S
C3357 C235 1.210 . S
C3362 C528 1.163 . S
C3392 C458 0.801 . S
C3387 C187 0.786 . S
C3417 C207 1.236 . S
C3422 C488 1.161 . S
C3447 C173 1.259 . S
C3452 C648 1.368 . S
C3482 C574 1.666 . S
C3477 C228 1.636 . S
C3512 C578 0.995 . S
C3507 C270 1.054 . S
