# Generated by pormake.
# Topology pyr, (3,6)-cn, num edge types: 1
# Building blocks:
#     Node 0, Type 0, BuildingBlock: OLANEW_clean_sbu_2, # of connection points: 3
#     Node 1, Type 0, BuildingBlock: OLANEW_clean_sbu_2, # of connection points: 3
#     Node 2, Type 0, BuildingBlock: OLANEW_clean_sbu_2, # of connection points: 3
#     Node 3, Type 0, BuildingBlock: OLANEW_clean_sbu_2, # of connection points: 3
#     Node 4, Type 0, BuildingBlock: OLANEW_clean_sbu_2, # of connection points: 3
#     Node 5, Type 0, BuildingBlock: OLANEW_clean_sbu_2, # of connection points: 3
#     Node 6, Type 0, BuildingBlock: OLANEW_clean_sbu_2, # of connection points: 3
#     Node 7, Type 0, BuildingBlock: OLANEW_clean_sbu_2, # of connection points: 3
#     Node 8, Type 1, BuildingBlock: MIDCAF_clean_sbu_0, # of connection points: 6
#     Node 9, Type 1, BuildingBlock: MIDCAF_clean_sbu_0, # of connection points: 6
#     Node 10, Type 1, BuildingBlock: MIDCAF_clean_sbu_0, # of connection points: 6
#     Node 11, Type 1, BuildingBlock: MIDCAF_clean_sbu_0, # of connection points: 6
#     Edge 12, Type (0, 1), BuildingBlock: KIFKEQ_clean_linker_1, # of connection points: 2
#     Edge 13, Type (0, 1), BuildingBlock: KIFKEQ_clean_linker_1, # of connection points: 2
#     Edge 14, Type (0, 1), BuildingBlock: KIFKEQ_clean_linker_1, # of connection points: 2
#     Edge 15, Type (0, 1), BuildingBlock: KIFKEQ_clean_linker_1, # of connection points: 2
#     Edge 16, Type (0, 1), BuildingBlock: KIFKEQ_clean_linker_1, # of connection points: 2
#     Edge 17, Type (0, 1), BuildingBlock: KIFKEQ_clean_linker_1, # of connection points: 2
#     Edge 18, Type (0, 1), BuildingBlock: KIFKEQ_clean_linker_1, # of connection points: 2
#     Edge 19, Type (0, 1), BuildingBlock: KIFKEQ_clean_linker_1, # of connection points: 2
#     Edge 20, Type (0, 1), BuildingBlock: KIFKEQ_clean_linker_1, # of connection points: 2
#     Edge 21, Type (0, 1), BuildingBlock: KIFKEQ_clean_linker_1, # of connection points: 2
#     Edge 22, Type (0, 1), BuildingBlock: KIFKEQ_clean_linker_1, # of connection points: 2
#     Edge 23, Type (0, 1), BuildingBlock: KIFKEQ_clean_linker_1, # of connection points: 2
#     Edge 24, Type (0, 1), BuildingBlock: KIFKEQ_clean_linker_1, # of connection points: 2
#     Edge 25, Type (0, 1), BuildingBlock: KIFKEQ_clean_linker_1, # of connection points: 2
#     Edge 26, Type (0, 1), BuildingBlock: KIFKEQ_clean_linker_1, # of connection points: 2
#     Edge 27, Type (0, 1), BuildingBlock: KIFKEQ_clean_linker_1, # of connection points: 2
#     Edge 28, Type (0, 1), BuildingBlock: KIFKEQ_clean_linker_1, # of connection points: 2
#     Edge 29, Type (0, 1), BuildingBlock: KIFKEQ_clean_linker_1, # of connection points: 2
#     Edge 30, Type (0, 1), BuildingBlock: KIFKEQ_clean_linker_1, # of connection points: 2
#     Edge 31, Type (0, 1), BuildingBlock: KIFKEQ_clean_linker_1, # of connection points: 2
#     Edge 32, Type (0, 1), BuildingBlock: KIFKEQ_clean_linker_1, # of connection points: 2
#     Edge 33, Type (0, 1), BuildingBlock: KIFKEQ_clean_linker_1, # of connection points: 2
#     Edge 34, Type (0, 1), BuildingBlock: KIFKEQ_clean_linker_1, # of connection points: 2
#     Edge 35, Type (0, 1), BuildingBlock: KIFKEQ_clean_linker_1, # of connection points: 2
# Relax obj value: 0.074
# Max RMSD: 0.157
# Mean RMSD: 0.119
data_MOF--net-pyr--node1-OLANEW_clean_sbu_2--node2-MIDCAF_clean_sbu_0--edge1-KIFKEQ_clean_linker_1
_symmetry_space_group_name_H-M    P1
_symmetry_Int_Tables_number       1
_symmetry_cell_setting            triclinic
loop_
_symmetry_equiv_pos_as_xyz
'x, y, z'
_cell_length_a     38.33634
_cell_length_b     38.463403
_cell_length_c     37.715243
_cell_angle_alpha  94.30322
_cell_angle_beta   89.309082
_cell_angle_gamma 95.634681
loop_
_atom_site_label
_atom_site_type_symbol
_atom_site_fract_x
_atom_site_fract_y
_atom_site_fract_z
_atom_type_partial_charge
O0 O 0.29838 0.24061 0.24299 0.0
Cd1 Cd 0.24871 0.26961 0.26845 0.0
O2 O 0.30435 0.20746 0.28738 0.0
Cd3 Cd 0.26049 0.22313 0.32082 0.0
O4 O 0.22544 0.21354 0.36627 0.0
C5 C 0.19276 0.20447 0.36291 0.0
O6 O 0.17867 0.20292 0.33117 0.0
C7 C 0.31421 0.21762 0.25719 0.0
C8 C 0.22014 0.31161 0.22076 0.0
O9 O 0.24303 0.32496 0.24366 0.0
O10 O 0.211 0.27862 0.22033 0.0
O11 O 0.33462 0.7796 0.85607 0.0
Cd12 Cd 0.30017 0.73616 0.81624 0.0
O13 O 0.29288 0.81301 0.84913 0.0
Cd14 Cd 0.25992 0.85647 0.84801 0.0
O15 O 0.21684 0.87636 0.82008 0.0
C16 C 0.21767 0.90775 0.81144 0.0
O17 O 0.24461 0.93008 0.82117 0.0
C18 C 0.32202 0.8087 0.86323 0.0
C19 C 0.34032 0.69759 0.76837 0.0
O20 O 0.33023 0.72689 0.76059 0.0
O21 O 0.33171 0.68675 0.79889 0.0
O22 O 0.82459 0.32685 0.7769 0.0
Cd23 Cd 0.7842 0.2936 0.73375 0.0
O24 O 0.81113 0.28495 0.81213 0.0
Cd25 Cd 0.80664 0.25474 0.85943 0.0
O26 O 0.77964 0.21453 0.89116 0.0
C27 C 0.76563 0.22229 0.92107 0.0
O28 O 0.76914 0.25504 0.93427 0.0
C29 C 0.82879 0.3138 0.80637 0.0
C30 C 0.74241 0.33417 0.69678 0.0
O31 O 0.73178 0.32167 0.72602 0.0
O32 O 0.77295 0.32788 0.68532 0.0
O33 O 0.88765 0.84309 0.26487 0.0
Cd34 Cd 0.86758 0.81822 0.20609 0.0
O35 O 0.84826 0.80731 0.28939 0.0
Cd36 Cd 0.81422 0.78254 0.32934 0.0
O37 O 0.77265 0.7501 0.3552 0.0
C38 C 0.76857 0.7529 0.38873 0.0
O39 O 0.78981 0.77561 0.40787 0.0
C40 C 0.87288 0.83205 0.29282 0.0
C41 C 0.90035 0.75967 0.18019 0.0
O42 O 0.91219 0.79049 0.17229 0.0
O43 O 0.87345 0.75671 0.20066 0.0
O44 O 0.95412 0.89164 0.90952 0.0
Cd45 Cd 0.92307 0.87471 0.96392 0.0
O46 O 0.95095 0.94811 0.92175 0.0
Cd47 Cd 0.91431 0.94187 0.96602 0.0
O48 O 0.86284 0.94799 0.98989 0.0
C49 C 0.84752 0.97415 0.98175 0.0
O50 O 0.86378 0.99638 0.96083 0.0
C51 C 0.96166 0.92316 0.9018 0.0
C52 C 0.94344 0.81202 0.9864 0.0
O53 O 0.91824 0.81201 0.96436 0.0
O54 O 0.95891 0.84169 0.99797 0.0
O55 O 0.59105 0.02177 0.41571 0.0
Cd56 Cd 0.61344 0.00571 0.47214 0.0
O57 O 0.60104 0.07708 0.43417 0.0
Cd58 Cd 0.60106 0.13416 0.43662 0.0
O59 O 0.60141 0.18913 0.45666 0.0
C60 C 0.57248 0.20005 0.46695 0.0
O61 O 0.54382 0.17831 0.46409 0.0
C62 C 0.58962 0.05382 0.4102 0.0
C63 C 0.68495 0.99696 0.47279 0.0
O64 O 0.6622 0.97069 0.46579 0.0
O65 O 0.67388 0.02727 0.47867 0.0
O66 O 0.53871 0.71296 0.143 0.0
Cd67 Cd 0.57703 0.66731 0.15187 0.0
O68 O 0.49305 0.67576 0.12847 0.0
Cd69 Cd 0.43807 0.65873 0.1159 0.0
O70 O 0.38654 0.6283 0.11233 0.0
C71 C 0.37979 0.60565 0.0864 0.0
O72 O 0.40369 0.60157 0.06157 0.0
C73 C 0.50686 0.70717 0.1334 0.0
C74 C 0.57281 0.6448 0.22047 0.0
O75 O 0.59465 0.67071 0.21312 0.0
O76 O 0.55298 0.62994 0.19548 0.0
O77 O 0.11008 0.51885 0.6861 0.0
Cd78 Cd 0.13807 0.5536 0.64012 0.0
O79 O 0.12923 0.46927 0.66526 0.0
Cd80 Cd 0.13098 0.41254 0.66288 0.0
O81 O 0.12136 0.35689 0.64568 0.0
C82 C 0.09194 0.34145 0.65406 0.0
O83 O 0.07006 0.35923 0.67344 0.0
C84 C 0.11162 0.48621 0.68818 0.0
C85 C 0.20866 0.54482 0.6277 0.0
O86 O 0.19962 0.56766 0.65168 0.0
O87 O 0.18432 0.52578 0.61034 0.0
Zn88 Zn 0.95946 0.03707 0.61516 0.0
Zn89 Zn 0.05749 0.97372 0.54016 0.0
Zn90 Zn 0.00916 0.00816 0.57602 0.0
C91 C 0.06945 0.04646 0.52914 0.0
C92 C 0.99236 0.94822 0.51135 0.0
O93 O 0.01085 0.9924 0.63152 0.0
O94 O 0.96826 0.01744 0.66082 0.0
C95 C 0.00605 0.09139 0.58972 0.0
O96 O 0.04405 0.04882 0.55159 0.0
O97 O 0.07939 0.01688 0.51913 0.0
O98 O 0.02362 0.94039 0.51133 0.0
O99 O 0.98293 0.97354 0.53258 0.0
O100 O 0.97821 0.08597 0.60758 0.0
O101 O 0.02159 0.06547 0.57565 0.0
O102 O 0.95698 0.99176 0.55112 0.0
O103 O 0.91866 0.01618 0.58711 0.0
C104 C 0.92518 0.99749 0.55938 0.0
O105 O 0.03937 0.97968 0.6132 0.0
O106 O 0.08209 0.95816 0.58109 0.0
C107 C 0.99315 0.99828 0.6603 0.0
C108 C 0.06742 0.96358 0.61084 0.0
Zn109 Zn 0.49784 0.06208 0.03509 0.0
Zn110 Zn 0.55152 0.98708 0.11589 0.0
Zn111 Zn 0.52463 0.02141 0.07871 0.0
C112 C 0.59967 0.99428 0.0661 0.0
C113 C 0.4943 0.94588 0.09724 0.0
O114 O 0.49815 0.06056 0.1126 0.0
O115 O 0.47918 0.09412 0.0732 0.0
C116 C 0.56935 0.06888 0.0221 0.0
O117 O 0.58114 0.0203 0.06408 0.0
O118 O 0.58842 0.9692 0.08412 0.0
O119 O 0.51059 0.95359 0.12603 0.0
O120 O 0.49887 0.96663 0.07189 0.0
O121 O 0.5416 0.07859 0.01002 0.0
O122 O 0.56787 0.04772 0.04719 0.0
O123 O 0.48552 0.98711 0.04524 0.0
O124 O 0.46491 0.02466 0.01112 0.0
C125 C 0.46491 0.99372 0.02029 0.0
O126 O 0.51941 0.04335 0.13508 0.0
O127 O 0.56713 0.02328 0.15396 0.0
C128 C 0.48202 0.08695 0.10513 0.0
C129 C 0.54301 0.04312 0.15914 0.0
Zn130 Zn 0.58042 0.57178 0.58864 0.0
Zn131 Zn 0.50052 0.49511 0.49487 0.0
Zn132 Zn 0.54066 0.53316 0.5408 0.0
C133 C 0.53754 0.44857 0.52723 0.0
C134 C 0.54266 0.5408 0.4558 0.0
O135 O 0.50644 0.55907 0.5807 0.0
O136 O 0.54279 0.58463 0.62215 0.0
C137 C 0.60087 0.50409 0.5873 0.0
O138 O 0.55263 0.47764 0.54147 0.0
O139 O 0.51177 0.44852 0.50678 0.0
O140 O 0.52141 0.51367 0.4513 0.0
O141 O 0.55206 0.55288 0.48744 0.0
O142 O 0.61015 0.53479 0.60023 0.0
O143 O 0.57476 0.49831 0.5657 0.0
O144 O 0.57375 0.57325 0.51255 0.0
O145 O 0.60013 0.60713 0.55631 0.0
C146 C 0.59442 0.60033 0.52351 0.0
O147 O 0.48472 0.5375 0.55629 0.0
O148 O 0.45486 0.50994 0.51094 0.0
C149 C 0.51197 0.57723 0.61064 0.0
C150 C 0.45531 0.52737 0.54065 0.0
Zn151 Zn 0.09752 0.54371 0.97924 0.0
Zn152 Zn 0.00775 0.47164 0.05895 0.0
Zn153 Zn 0.05416 0.50528 0.01805 0.0
C154 C 0.07509 0.45488 0.07754 0.0
C155 C 0.99263 0.44593 0.98887 0.0
O156 O 0.04072 0.56068 0.02178 0.0
O157 O 0.07871 0.58969 0.98748 0.0
C158 C 0.13859 0.51652 0.02808 0.0
O159 O 0.08519 0.47764 0.05512 0.0
O160 O 0.04279 0.44743 0.08333 0.0
O161 O 0.98097 0.44405 0.02019 0.0
O162 O 0.02038 0.46659 0.98277 0.0
O163 O 0.14094 0.53669 0.00317 0.0
O164 O 0.10857 0.50154 0.0373 0.0
O165 O 0.0467 0.4837 0.96184 0.0
O166 O 0.08686 0.51695 0.93366 0.0
C167 C 0.06303 0.49189 0.93307 0.0
O168 O 0.023 0.54289 0.04889 0.0
O169 O 0.98719 0.51227 0.08403 0.0
C170 C 0.05229 0.58922 0.00775 0.0
C171 C 0.99939 0.54145 0.07356 0.0
H172 H 0.2155 0.19853 0.43049 0.0
H173 H 0.1233 0.17952 0.36436 0.0
H174 H 0.18432 0.16789 0.47749 0.0
H175 H 0.09226 0.14868 0.41143 0.0
H176 H 0.04033 0.1047 0.51 0.0
H177 H 0.06861 0.15113 0.47502 0.0
H178 H 0.1661 0.10383 0.47756 0.0
H179 H 0.13801 0.05787 0.51204 0.0
C180 C 0.18841 0.18837 0.42616 0.0
C181 C 0.1721 0.19101 0.39339 0.0
C182 C 0.17057 0.17078 0.45311 0.0
C183 C 0.13596 0.15559 0.44803 0.0
C184 C 0.11883 0.16031 0.41625 0.0
C185 C 0.13674 0.17778 0.38917 0.0
C186 C 0.068 0.10488 0.50377 0.0
C187 C 0.08702 0.07773 0.5136 0.0
C188 C 0.08409 0.13123 0.48357 0.0
C189 C 0.11957 0.13109 0.47349 0.0
C190 C 0.13888 0.10496 0.48518 0.0
C191 C 0.12274 0.07849 0.50476 0.0
H192 H 0.39141 0.8145 0.87913 0.0
H193 H 0.29692 0.86474 0.90172 0.0
H194 H 0.42414 0.85822 0.91883 0.0
H195 H 0.32947 0.90815 0.94246 0.0
H196 H 0.40718 0.00146 0.98122 0.0
H197 H 0.372 0.95705 0.9444 0.0
H198 H 0.43396 0.87786 0.97883 0.0
H199 H 0.47056 0.92313 0.01368 0.0
C200 C 0.37755 0.83487 0.89272 0.0
C201 C 0.34157 0.8363 0.88692 0.0
C202 C 0.39631 0.85983 0.91582 0.0
C203 C 0.37955 0.88677 0.93419 0.0
C204 C 0.34346 0.88815 0.92843 0.0
C205 C 0.32472 0.86328 0.90498 0.0
C206 C 0.41321 0.97452 0.98111 0.0
C207 C 0.44153 0.96569 1.00091 0.0
C208 C 0.39276 0.94892 0.96015 0.0
C209 C 0.39995 0.91368 0.95846 0.0
C210 C 0.42777 0.90474 0.97902 0.0
C211 C 0.4484 0.93051 0.99974 0.0
H212 H 0.67513 0.34885 0.71195 0.0
H213 H 0.7594 0.36747 0.63652 0.0
H214 H 0.63977 0.38624 0.68075 0.0
H215 H 0.72392 0.40455 0.60524 0.0
H216 H 0.57576 0.43721 0.60107 0.0
H217 H 0.60907 0.39209 0.62329 0.0
H218 H 0.70371 0.46282 0.62082 0.0
H219 H 0.67067 0.50717 0.59799 0.0
C220 C 0.68602 0.36068 0.68857 0.0
C221 C 0.72023 0.35546 0.67694 0.0
C222 C 0.66562 0.38184 0.67051 0.0
C223 C 0.67909 0.39839 0.64058 0.0
C224 C 0.71295 0.39243 0.62844 0.0
C225 C 0.73326 0.37114 0.64635 0.0
C226 C 0.60383 0.44256 0.60431 0.0
C227 C 0.62075 0.47541 0.59739 0.0
C228 C 0.6228 0.41701 0.6175 0.0
C229 C 0.65904 0.42391 0.62379 0.0
C230 C 0.67597 0.45649 0.61584 0.0
C231 C 0.65701 0.48198 0.60299 0.0
H232 H 0.95083 0.75573 0.1283 0.0
H233 H 0.88659 0.69255 0.19878 0.0
H234 H 0.9754 0.70326 0.10239 0.0
H235 H 0.91179 0.64045 0.17371 0.0
H236 H 0.03608 0.60507 0.0897 0.0
H237 H 0.01328 0.65859 0.11566 0.0
H238 H 0.90956 0.60356 0.11939 0.0
H239 H 0.93255 0.55028 0.09383 0.0
C240 C 0.94222 0.73072 0.13852 0.0
C241 C 0.91666 0.72829 0.16553 0.0
C242 C 0.95642 0.70068 0.12377 0.0
C243 C 0.94545 0.66761 0.13586 0.0
C244 C 0.92035 0.66539 0.16331 0.0
C245 C 0.90605 0.69532 0.17786 0.0
C246 C 0.00839 0.60464 0.09594 0.0
C247 C 0.98595 0.57376 0.08945 0.0
C248 C 0.99531 0.63523 0.11073 0.0
C249 C 0.95958 0.63538 0.11967 0.0
C250 C 0.9373 0.60428 0.11334 0.0
C251 C 0.95039 0.57377 0.0986 0.0
H252 H 0.3587 0.17362 0.28234 0.0
H253 H 0.33536 0.22456 0.18836 0.0
H254 H 0.40436 0.1446 0.24973 0.0
H255 H 0.37995 0.19471 0.15549 0.0
H256 H 0.47645 0.15679 0.10745 0.0
H257 H 0.44049 0.19095 0.14761 0.0
H258 H 0.41071 0.09897 0.20444 0.0
H259 H 0.44775 0.06523 0.16464 0.0
C260 C 0.36333 0.17868 0.25473 0.0
C261 C 0.34329 0.20142 0.23796 0.0
C262 C 0.38941 0.16186 0.23596 0.0
C263 C 0.39597 0.1672 0.1999 0.0
C264 C 0.37623 0.19039 0.18338 0.0
C265 C 0.35039 0.2074 0.20219 0.0
C266 C 0.46273 0.14411 0.129 0.0
C267 C 0.46494 0.10842 0.13308 0.0
C268 C 0.44184 0.16358 0.15185 0.0
C269 C 0.42208 0.14767 0.17897 0.0
C270 C 0.42574 0.11228 0.18412 0.0
C271 C 0.44707 0.09288 0.16143 0.0
H272 H 0.21298 0.97181 0.78591 0.0
H273 H 0.16121 0.86661 0.78216 0.0
H274 H 0.17293 0.98667 0.741 0.0
H275 H 0.1215 0.88141 0.7367 0.0
H276 H 0.04161 0.92793 0.66765 0.0
H277 H 0.07398 0.91698 0.72101 0.0
H278 H 0.16799 0.9696 0.67765 0.0
H279 H 0.13544 0.98134 0.62562 0.0
C280 C 0.19287 0.95192 0.77578 0.0
C281 C 0.19066 0.91788 0.78734 0.0
C282 C 0.16998 0.96041 0.7499 0.0
C283 C 0.14432 0.93508 0.73487 0.0
C284 C 0.14084 0.90157 0.74781 0.0
C285 C 0.16378 0.89305 0.77373 0.0
C286 C 0.06898 0.93771 0.67015 0.0
C287 C 0.08592 0.95605 0.64304 0.0
C288 C 0.08763 0.9311 0.70036 0.0
C289 C 0.12352 0.9428 0.7038 0.0
C290 C 0.14026 0.96091 0.67633 0.0
C291 C 0.12173 0.96731 0.64632 0.0
H292 H 0.86638 0.28529 0.85622 0.0
H293 H 0.84861 0.38379 0.81526 0.0
H294 H 0.90931 0.3156 0.89775 0.0
H295 H 0.89049 0.41447 0.8576 0.0
H296 H 0.98589 0.46026 0.91914 0.0
H297 H 0.94965 0.42656 0.87337 0.0
H298 H 0.91426 0.35226 0.94986 0.0
H299 H 0.95265 0.38438 0.99417 0.0
C300 C 0.87111 0.31352 0.85662 0.0
C301 C 0.8537 0.33219 0.83286 0.0
C302 C 0.89586 0.33099 0.88039 0.0
C303 C 0.90352 0.36766 0.88128 0.0
C304 C 0.88595 0.38623 0.85739 0.0
C305 C 0.86159 0.36868 0.83331 0.0
C306 C 0.97162 0.43592 0.92554 0.0
C307 C 0.97297 0.42456 0.95993 0.0
C308 C 0.95002 0.41698 0.89962 0.0
C309 C 0.92873 0.38655 0.90777 0.0
C310 C 0.93059 0.37507 0.94217 0.0
C311 C 0.95245 0.39373 0.96779 0.0
H312 H 0.71924 0.70407 0.35709 0.0
H313 H 0.75409 0.75172 0.45962 0.0
H314 H 0.6729 0.66797 0.38615 0.0
H315 H 0.70853 0.71533 0.4885 0.0
H316 H 0.60692 0.67082 0.53136 0.0
H317 H 0.64585 0.70849 0.4959 0.0
H318 H 0.66535 0.61896 0.42481 0.0
H319 H 0.62572 0.58131 0.46033 0.0
C320 C 0.71707 0.70683 0.3858 0.0
C321 C 0.74036 0.73087 0.40604 0.0
C322 C 0.6906 0.68603 0.40243 0.0
C323 C 0.68681 0.68891 0.43963 0.0
C324 C 0.7102 0.71291 0.45975 0.0
C325 C 0.73655 0.73364 0.44318 0.0
C326 C 0.61908 0.65934 0.50778 0.0
C327 C 0.61328 0.62325 0.49846 0.0
C328 C 0.64157 0.68084 0.48761 0.0
C329 C 0.65924 0.66667 0.45787 0.0
C330 C 0.65206 0.63075 0.44747 0.0
C331 C 0.62934 0.60919 0.46771 0.0
H332 H 0.22215 0.38329 0.2241 0.0
H333 H 0.18125 0.2897 0.16181 0.0
H334 H 0.19041 0.41876 0.18683 0.0
H335 H 0.15074 0.32504 0.12383 0.0
H336 H 0.06258 0.38917 0.09831 0.0
H337 H 0.10057 0.35595 0.13029 0.0
H338 H 0.18267 0.44138 0.12949 0.0
H339 H 0.14316 0.47562 0.09899 0.0
C340 C 0.20683 0.37035 0.20211 0.0
C341 C 0.2038 0.33362 0.19624 0.0
C342 C 0.1888 0.39072 0.18058 0.0
C343 C 0.16757 0.3748 0.15254 0.0
C344 C 0.16608 0.33819 0.14571 0.0
C345 C 0.18373 0.31787 0.16741 0.0
C346 C 0.08877 0.40097 0.10483 0.0
C347 C 0.1001 0.43495 0.09548 0.0
C348 C 0.1108 0.38166 0.12288 0.0
C349 C 0.145 0.39564 0.13211 0.0
C350 C 0.15651 0.42971 0.12276 0.0
C351 C 0.13419 0.44917 0.10466 0.0
H352 H 0.74789 0.15359 0.89801 0.0
H353 H 0.73065 0.23049 0.98434 0.0
H354 H 0.70499 0.11168 0.92419 0.0
H355 H 0.68748 0.18881 0.01014 0.0
H356 H 0.62436 0.10076 0.06072 0.0
H357 H 0.67709 0.13354 0.03843 0.0
H358 H 0.64108 0.10732 0.93071 0.0
H359 H 0.58907 0.07388 0.95321 0.0
C360 C 0.73524 0.16147 0.92275 0.0
C361 C 0.74251 0.19556 0.93889 0.0
C362 C 0.71052 0.13748 0.93766 0.0
C363 C 0.6926 0.14694 0.96913 0.0
C364 C 0.70103 0.1805 0.98608 0.0
C365 C 0.72565 0.20452 0.97113 0.0
C366 C 0.62847 0.1011 0.03228 0.0
C367 C 0.60323 0.08419 0.00861 0.0
C368 C 0.65834 0.12024 0.0195 0.0
C369 C 0.66332 0.12311 0.98276 0.0
C370 C 0.6384 0.10524 0.95911 0.0
C371 C 0.60854 0.08621 0.97193 0.0
H372 H 0.90274 0.89832 0.30725 0.0
H373 H 0.86981 0.80338 0.35778 0.0
H374 H 0.92589 0.92549 0.36347 0.0
H375 H 0.89247 0.83098 0.41462 0.0
H376 H 0.98642 0.87887 0.48895 0.0
H377 H 0.95186 0.85011 0.439 0.0
H378 H 0.90933 0.9477 0.42313 0.0
H379 H 0.94524 0.97647 0.47198 0.0
C380 C 0.9 0.88339 0.33053 0.0
C381 C 0.88419 0.84875 0.32805 0.0
C382 C 0.913 0.8991 0.36288 0.0
C383 C 0.91085 0.88051 0.39364 0.0
C384 C 0.89454 0.84599 0.39138 0.0
C385 C 0.8812 0.8303 0.35891 0.0
C386 C 0.96914 0.89391 0.47513 0.0
C387 C 0.96777 0.92974 0.48478 0.0
C388 C 0.94918 0.87742 0.44669 0.0
C389 C 0.92781 0.89659 0.42705 0.0
C390 C 0.92559 0.93219 0.43762 0.0
C391 C 0.94553 0.94858 0.46605 0.0
H392 H 0.36217 0.63302 0.77571 0.0
H393 H 0.36649 0.71556 0.70367 0.0
H394 H 0.39942 0.60033 0.73547 0.0
H395 H 0.40446 0.68321 0.6638 0.0
H396 H 0.50511 0.58044 0.6822 0.0
H397 H 0.46049 0.60705 0.71854 0.0
H398 H 0.4087 0.63102 0.62343 0.0
H399 H 0.45442 0.60525 0.58707 0.0
C400 C 0.37104 0.64419 0.75127 0.0
C401 C 0.36165 0.67706 0.74308 0.0
C402 C 0.39247 0.62548 0.72823 0.0
C403 C 0.40516 0.63925 0.69652 0.0
C404 C 0.39488 0.67165 0.68781 0.0
C405 C 0.37334 0.69034 0.71083 0.0
C406 C 0.48397 0.59111 0.6691 0.0
C407 C 0.48285 0.59039 0.63189 0.0
C408 C 0.45824 0.60612 0.68988 0.0
C409 C 0.43088 0.62105 0.67393 0.0
C410 C 0.42956 0.61998 0.63656 0.0
C411 C 0.45544 0.60491 0.61573 0.0
H412 H 0.97657 0.87682 0.84608 0.0
H413 H 0.98607 0.98719 0.8799 0.0
H414 H 0.99484 0.89088 0.78611 0.0
H415 H 0.00378 1.00112 0.82013 0.0
H416 H 0.95862 0.93972 0.68293 0.0
H417 H 0.96166 0.91765 0.7417 0.0
H418 H 0.04544 0.99818 0.77008 0.0
H419 H 0.04194 0.02029 0.71091 0.0
C420 C 0.98327 0.90401 0.84097 0.0
C421 C 0.97926 0.93091 0.86765 0.0
C422 C 0.9936 0.91205 0.80658 0.0
C423 C 1.00034 0.94712 0.79824 0.0
C424 C 0.99903 0.97383 0.82564 0.0
C425 C 0.98857 0.96582 0.85992 0.0
C426 C 0.97827 0.95199 0.70151 0.0
C427 C 1.00012 0.98147 0.69272 0.0
C428 C 0.98021 0.93931 0.73507 0.0
C429 C 0.00372 0.95625 0.76066 0.0
C430 C 0.02688 0.98477 0.75104 0.0
C431 C 0.02503 0.99733 0.71728 0.0
H432 H 0.60517 0.11326 0.37433 0.0
H433 H 0.54119 0.0142 0.36901 0.0
H434 H 0.58566 0.12362 0.31486 0.0
H435 H 0.5225 0.02397 0.3096 0.0
H436 H 0.48746 0.04334 0.20498 0.0
H437 H 0.49153 0.05686 0.26935 0.0
H438 H 0.60039 0.09557 0.25738 0.0
H439 H 0.59583 0.08277 0.19341 0.0
C440 C 0.58621 0.09418 0.36095 0.0
C441 C 0.57475 0.0629 0.37639 0.0
C442 C 0.57524 0.09997 0.32673 0.0
C443 C 0.55249 0.07465 0.30736 0.0
C444 C 0.53955 0.04434 0.3238 0.0
C445 C 0.55065 0.0385 0.35777 0.0
C446 C 0.51157 0.05659 0.216 0.0
C447 C 0.54126 0.06224 0.19433 0.0
C448 C 0.51414 0.06379 0.25292 0.0
C449 C 0.54648 0.0767 0.26864 0.0
C450 C 0.57504 0.08584 0.24634 0.0
C451 C 0.57248 0.07848 0.2096 0.0
H452 H 0.60903 0.67196 0.28033 0.0
H453 H 0.53227 0.58812 0.24202 0.0
H454 H 0.60681 0.64855 0.33913 0.0
H455 H 0.52997 0.56515 0.30035 0.0
H456 H 0.55984 0.50949 0.39258 0.0
H457 H 0.57079 0.5365 0.33666 0.0
H458 H 0.56347 0.63863 0.39065 0.0
H459 H 0.55238 0.61126 0.44704 0.0
C460 C 0.59165 0.64865 0.28446 0.0
C461 C 0.57095 0.63177 0.25645 0.0
C462 C 0.59032 0.63538 0.31811 0.0
C463 C 0.56854 0.60483 0.32417 0.0
C464 C 0.54753 0.58837 0.29629 0.0
C465 C 0.54868 0.60168 0.26289 0.0
C466 C 0.56116 0.53777 0.39261 0.0
C467 C 0.55533 0.55834 0.42403 0.0
C468 C 0.56725 0.55321 0.3606 0.0
C469 C 0.56737 0.58959 0.3592 0.0
C470 C 0.56357 0.61051 0.39099 0.0
C471 C 0.55737 0.59493 0.42322 0.0
H472 H 0.04401 0.48878 0.70899 0.0
H473 H 0.1398 0.44683 0.73528 0.0
H474 H 0.01902 0.47451 0.76645 0.0
H475 H 0.11628 0.43503 0.79396 0.0
H476 H 0.07855 0.42829 0.90306 0.0
H477 H 0.08003 0.41212 0.83891 0.0
H478 H 0.03016 0.50529 0.82032 0.0
H479 H 0.02787 0.52005 0.88362 0.0
C480 C 0.05939 0.47578 0.72694 0.0
C481 C 0.09388 0.46924 0.71811 0.0
C482 C 0.04528 0.46788 0.76003 0.0
C483 C 0.06595 0.45472 0.7856 0.0
C484 C 0.09935 0.44505 0.7752 0.0
C485 C 0.11305 0.45197 0.74157 0.0
C486 C 0.0664 0.44412 0.88506 0.0
C487 C 0.0529 0.47523 0.89796 0.0
C488 C 0.06768 0.43524 0.84831 0.0
C489 C 0.05585 0.45766 0.82405 0.0
C490 C 0.03923 0.48695 0.83769 0.0
C491 C 0.03791 0.49563 0.87416 0.0
H492 H 0.80842 0.02801 0.97031 0.0
H493 H 0.80446 0.93039 0.02068 0.0
H494 H 0.74775 0.03407 0.98809 0.0
H495 H 0.74403 0.93671 0.03877 0.0
H496 H 0.62654 0.93827 0.03232 0.0
H497 H 0.68643 0.9344 0.01072 0.0
H498 H 0.71177 0.04421 0.04239 0.0
H499 H 0.65187 0.04751 0.06466 0.0
C500 C 0.79469 0.00792 0.98533 0.0
C501 C 0.81125 0.97863 0.99398 0.0
C502 C 0.75997 0.01149 0.9956 0.0
C503 C 0.741 0.98574 0.01457 0.0
C504 C 0.75774 0.9567 0.02362 0.0
C505 C 0.79247 0.95321 0.01349 0.0
C506 C 0.64484 0.96166 0.03412 0.0
C507 C 0.63443 0.99352 0.04916 0.0
C508 C 0.67915 0.95942 0.02202 0.0
C509 C 0.70389 0.98896 0.02497 0.0
C510 C 0.69318 0.02111 0.03921 0.0
C511 C 0.65879 0.02324 0.05145 0.0
H512 H 0.73957 0.04799 0.47907 0.0
H513 H 0.71564 0.93561 0.47422 0.0
H514 H 0.80061 0.04128 0.4911 0.0
H515 H 0.77714 0.92886 0.48611 0.0
H516 H 0.87121 0.94818 0.56934 0.0
H517 H 0.81427 0.94325 0.53988 0.0
H518 H 0.85502 0.01954 0.46765 0.0
H519 H 0.91159 0.02483 0.49784 0.0
C520 C 0.74745 0.02179 0.48002 0.0
C521 C 0.72268 0.99237 0.47597 0.0
C522 C 0.78257 0.0179 0.48661 0.0
C523 C 0.79378 0.9845 0.48952 0.0
C524 C 0.76926 0.95494 0.4842 0.0
C525 C 0.73409 0.95882 0.47729 0.0
C526 C 0.86827 0.96269 0.5462 0.0
C527 C 0.89582 0.98625 0.53523 0.0
C528 C 0.8357 0.95997 0.52933 0.0
C529 C 0.83003 0.98127 0.50161 0.0
C530 C 0.85847 0.00303 0.48913 0.0
C531 C 0.89097 0.00571 0.50602 0.0
H532 H 0.35183 0.56681 0.02831 0.0
H533 H 0.32957 0.59704 0.1382 0.0
H534 H 0.29358 0.53627 0.02191 0.0
H535 H 0.27156 0.56492 0.13243 0.0
H536 H 0.19187 0.47614 0.01287 0.0
H537 H 0.25217 0.48991 0.03367 0.0
H538 H 0.21809 0.57227 0.10658 0.0
H539 H 0.15805 0.5569 0.08696 0.0
C540 C 0.33467 0.56638 0.05134 0.0
C541 C 0.34517 0.58478 0.08361 0.0
C542 C 0.30124 0.54844 0.04782 0.0
C543 C 0.27754 0.54795 0.07666 0.0
C544 C 0.28873 0.56513 0.10944 0.0
C545 C 0.32205 0.58353 0.1128 0.0
C546 C 0.19726 0.49591 0.03463 0.0
C547 C 0.17051 0.51519 0.04873 0.0
C548 C 0.23185 0.50434 0.04612 0.0
C549 C 0.24037 0.53291 0.07119 0.0
C550 C 0.21283 0.55 0.08746 0.0
C551 C 0.17825 0.54117 0.07633 0.0
H552 H 0.23494 0.50416 0.57358 0.0
H553 H 0.26691 0.57853 0.66159 0.0
H554 H 0.29591 0.50231 0.55552 0.0
H555 H 0.32836 0.57649 0.6433 0.0
H556 H 0.43538 0.52617 0.61071 0.0
H557 H 0.37625 0.53175 0.63516 0.0
H558 H 0.33962 0.5484 0.53053 0.0
H559 H 0.39837 0.5436 0.50651 0.0
C560 C 0.25498 0.51991 0.58927 0.0
C561 C 0.24602 0.54169 0.61886 0.0
C562 C 0.2899 0.51897 0.5788 0.0
C563 C 0.31676 0.53958 0.59779 0.0
C564 C 0.30811 0.56035 0.62824 0.0
C565 C 0.27298 0.56156 0.63858 0.0
C566 C 0.4148 0.53194 0.59328 0.0
C567 C 0.42141 0.53487 0.55686 0.0
C568 C 0.38103 0.53493 0.60717 0.0
C569 C 0.35335 0.54008 0.5846 0.0
C570 C 0.36036 0.54394 0.54842 0.0
C571 C 0.39398 0.54133 0.53471 0.0
H572 H 0.99377 0.80338 0.03499 0.0
H573 H 0.91987 0.74529 0.96176 0.0
H574 H 0.01694 0.74892 0.04816 0.0
H575 H 0.94358 0.69105 0.97424 0.0
H576 H 0.98184 0.59455 0.01435 0.0
H577 H 0.9521 0.64823 0.01708 0.0
H578 H 0.0526 0.70966 0.01415 0.0
H579 H 0.08201 0.65628 0.01262 0.0
C580 C 0.9823 0.77898 0.02187 0.0
C581 C 0.95527 0.77874 0.99697 0.0
C582 C 0.99565 0.74778 0.02936 0.0
C583 C 0.98238 0.71564 0.012 0.0
C584 C 0.95422 0.71525 0.98837 0.0
C585 C 0.9408 0.74643 0.98097 0.0
C586 C 0.99745 0.61964 0.01519 0.0
C587 C 0.03419 0.62135 0.01353 0.0
C588 C 0.98047 0.65034 0.0164 0.0
C589 C 0.99995 0.68328 0.01568 0.0
C590 C 0.03675 0.68485 0.01527 0.0
C591 C 0.05364 0.65425 0.01406 0.0
H592 H 0.50188 0.76434 0.17837 0.0
H593 H 0.47003 0.7185 0.07454 0.0
H594 H 0.48268 0.82015 0.16408 0.0
H595 H 0.45167 0.77515 0.05952 0.0
H596 H 0.50826 0.89459 0.04741 0.0
H597 H 0.49541 0.8319 0.05314 0.0
H598 H 0.43146 0.85364 0.14556 0.0
H599 H 0.44358 0.91647 0.13906 0.0
C600 C 0.48968 0.76603 0.15287 0.0
C601 C 0.48727 0.73729 0.12759 0.0
C602 C 0.47856 0.79792 0.14468 0.0
C603 C 0.46564 0.80199 0.11066 0.0
C604 C 0.46137 0.77263 0.08597 0.0
C605 C 0.47169 0.74029 0.09458 0.0
C606 C 0.48939 0.88595 0.06731 0.0
C607 C 0.47615 0.91034 0.09221 0.0
C608 C 0.48231 0.84999 0.07087 0.0
C609 C 0.46262 0.83792 0.09995 0.0
C610 C 0.44671 0.86225 0.1229 0.0
C611 C 0.45347 0.89816 0.11907 0.0
H612 H 0.12733 0.29883 0.60744 0.0
H613 H 0.03303 0.30074 0.67121 0.0
H614 H 0.10825 0.23879 0.5845 0.0
H615 H 0.01454 0.24104 0.64914 0.0
H616 H 0.97061 0.14815 0.58497 0.0
H617 H 0.99326 0.20932 0.59535 0.0
H618 H 0.09821 0.1786 0.603 0.0
H619 H 0.07535 0.11705 0.59132 0.0
C620 C 0.10266 0.28641 0.6167 0.0
C621 C 0.08159 0.30464 0.64103 0.0
C622 C 0.09178 0.25202 0.60359 0.0
C623 C 0.05963 0.23526 0.61455 0.0
C624 C 0.03901 0.25341 0.63935 0.0
C625 C 0.04977 0.28763 0.6523 0.0
C626 C 0.99863 0.15455 0.58804 0.0
C627 C 0.0212 0.12795 0.58779 0.0
C628 C 0.0116 0.18956 0.5943 0.0
C629 C 0.0474 0.19879 0.60111 0.0
C630 C 0.07046 0.17236 0.598 0.0
C631 C 0.05743 0.13714 0.59127 0.0
H632 H 0.62704 0.24885 0.48746 0.0
H633 H 0.51412 0.23381 0.48055 0.0
H634 H 0.6236 0.30909 0.51197 0.0
H635 H 0.51065 0.29389 0.50344 0.0
H636 H 0.59893 0.42571 0.50344 0.0
H637 H 0.61086 0.3644 0.49433 0.0
H638 H 0.51665 0.33393 0.55321 0.0
H639 H 0.50402 0.39498 0.56012 0.0
C640 C 0.6015 0.25843 0.49109 0.0
C641 C 0.57084 0.23655 0.482 0.0
C642 C 0.59952 0.29298 0.50509 0.0
C643 C 0.56684 0.30648 0.51004 0.0
C644 C 0.53628 0.28435 0.50102 0.0
C645 C 0.53825 0.24985 0.48744 0.0
C646 C 0.58154 0.40586 0.51535 0.0
C647 C 0.55059 0.41473 0.53235 0.0
C648 C 0.58826 0.37069 0.51014 0.0
C649 C 0.56419 0.34397 0.52217 0.0
C650 C 0.53514 0.3536 0.5425 0.0
C651 C 0.52812 0.38858 0.547 0.0
loop_
_geom_bond_atom_site_label_1
_geom_bond_atom_site_label_2
_geom_bond_distance
_geom_bond_site_symmetry_2
_ccdc_geom_bond_type
O0 Cd1 2.300 . S
O0 C7 1.275 . S
Cd1 O0 2.300 . S
Cd1 O9 2.381 . S
Cd1 O10 2.378 . S
O2 Cd3 2.385 . S
O2 C7 1.255 . S
Cd3 O2 2.385 . S
Cd3 O4 2.317 . S
O4 Cd3 2.317 . S
O4 C5 1.232 . S
C5 O4 1.232 . S
C5 O6 1.218 . S
O6 C5 1.218 . S
C7 O0 1.275 . S
C7 O2 1.255 . S
C8 O9 1.258 . S
C8 O10 1.256 . S
O9 Cd1 2.381 . S
O9 C8 1.258 . S
O10 Cd1 2.378 . S
O10 C8 1.256 . S
O11 Cd12 2.300 . S
O11 C18 1.275 . S
Cd12 O11 2.300 . S
Cd12 O20 2.381 . S
Cd12 O21 2.378 . S
O13 Cd14 2.385 . S
O13 C18 1.255 . S
Cd14 O13 2.385 . S
Cd14 O15 2.317 . S
O15 Cd14 2.317 . S
O15 C16 1.232 . S
C16 O15 1.232 . S
C16 O17 1.218 . S
O17 C16 1.218 . S
C18 O11 1.275 . S
C18 O13 1.255 . S
C19 O20 1.258 . S
C19 O21 1.256 . S
O20 Cd12 2.381 . S
O20 C19 1.258 . S
O21 Cd12 2.378 . S
O21 C19 1.256 . S
O22 Cd23 2.300 . S
O22 C29 1.275 . S
Cd23 O22 2.300 . S
Cd23 O31 2.381 . S
Cd23 O32 2.378 . S
O24 Cd25 2.385 . S
O24 C29 1.255 . S
Cd25 O24 2.385 . S
Cd25 O26 2.317 . S
O26 Cd25 2.317 . S
O26 C27 1.232 . S
C27 O26 1.232 . S
C27 O28 1.218 . S
O28 C27 1.218 . S
C29 O22 1.275 . S
C29 O24 1.255 . S
C30 O31 1.258 . S
C30 O32 1.256 . S
O31 Cd23 2.381 . S
O31 C30 1.258 . S
O32 Cd23 2.378 . S
O32 C30 1.256 . S
O33 Cd34 2.300 . S
O33 C40 1.275 . S
Cd34 O33 2.300 . S
Cd34 O42 2.381 . S
Cd34 O43 2.378 . S
O35 Cd36 2.385 . S
O35 C40 1.255 . S
Cd36 O35 2.385 . S
Cd36 O37 2.317 . S
O37 Cd36 2.317 . S
O37 C38 1.232 . S
C38 O37 1.232 . S
C38 O39 1.218 . S
O39 C38 1.218 . S
C40 O33 1.275 . S
C40 O35 1.255 . S
C41 O42 1.258 . S
C41 O43 1.256 . S
O42 Cd34 2.381 . S
O42 C41 1.258 . S
O43 Cd34 2.378 . S
O43 C41 1.256 . S
O44 Cd45 2.300 . S
O44 C51 1.275 . S
Cd45 O44 2.300 . S
Cd45 O53 2.381 . S
Cd45 O54 2.378 1_556 S
O46 Cd47 2.385 1_566 S
O46 C51 1.255 . S
Cd47 O46 2.385 1_544 S
Cd47 O48 2.317 1_545 S
O48 Cd47 2.317 1_565 S
O48 C49 1.232 . S
C49 O48 1.232 . S
C49 O50 1.218 1_564 S
O50 C49 1.218 1_546 S
C51 O44 1.275 . S
C51 O46 1.255 . S
C52 O53 1.287 . S
C52 O54 1.234 1_556 S
O53 Cd45 2.381 . S
O53 C52 1.287 . S
O54 Cd45 2.378 1_554 S
O54 C52 1.234 1_554 S
O55 Cd56 2.300 . S
O55 C62 1.275 . S
Cd56 O55 2.300 . S
Cd56 O64 2.381 . S
Cd56 O65 2.378 . S
O57 Cd58 2.385 . S
O57 C62 1.255 . S
Cd58 O57 2.385 . S
Cd58 O59 2.317 . S
O59 Cd58 2.317 . S
O59 C60 1.232 . S
C60 O59 1.232 . S
C60 O61 1.218 . S
O61 C60 1.218 . S
C62 O55 1.275 . S
C62 O57 1.255 . S
C63 O64 1.258 . S
C63 O65 1.256 . S
O64 Cd56 2.381 . S
O64 C63 1.258 . S
O65 Cd56 2.378 . S
O65 C63 1.256 . S
O66 Cd67 2.300 . S
O66 C73 1.275 . S
Cd67 O66 2.300 . S
Cd67 O75 2.381 . S
Cd67 O76 2.378 . S
O68 Cd69 2.385 . S
O68 C73 1.255 . S
Cd69 O68 2.385 . S
Cd69 O70 2.317 . S
O70 Cd69 2.317 . S
O70 C71 1.232 . S
C71 O70 1.232 . S
C71 O72 1.218 . S
O72 C71 1.218 . S
C73 O66 1.275 . S
C73 O68 1.255 . S
C74 O75 1.258 . S
C74 O76 1.256 . S
O75 Cd67 2.381 . S
O75 C74 1.258 . S
O76 Cd67 2.378 . S
O76 C74 1.256 . S
O77 Cd78 2.300 . S
O77 C84 1.275 . S
Cd78 O77 2.300 . S
Cd78 O86 2.381 . S
Cd78 O87 2.378 . S
O79 Cd80 2.385 . S
O79 C84 1.255 . S
Cd80 O79 2.385 . S
Cd80 O81 2.317 . S
O81 Cd80 2.317 . S
O81 C82 1.232 . S
C82 O81 1.232 . S
C82 O83 1.218 . S
O83 C82 1.218 . S
C84 O77 1.275 . S
C84 O79 1.255 . S
C85 O86 1.258 . S
C85 O87 1.256 . S
O86 Cd78 2.381 . S
O86 C85 1.258 . S
O87 Cd78 2.378 . S
O87 C85 1.256 . S
Zn88 O94 1.920 . S
Zn88 O100 1.898 . S
Zn88 O103 1.905 . S
Zn89 O97 1.905 1_565 S
Zn89 O98 1.898 . S
Zn89 O106 1.920 . S
Zn90 O93 2.080 1_455 S
Zn90 O96 2.114 . S
Zn90 O99 2.120 1_445 S
Zn90 O101 2.120 . S
Zn90 O102 2.114 1_455 S
Zn90 O105 2.080 . S
C91 O96 1.166 . S
C91 O97 1.182 . S
C92 O98 1.167 1_655 S
C92 O99 1.299 . S
O93 Zn90 2.080 1_655 S
O93 C107 1.305 . S
O94 Zn88 1.920 . S
O94 C107 1.234 . S
C95 O100 1.167 1_455 S
C95 O101 1.299 . S
O96 Zn90 2.114 . S
O96 C91 1.166 . S
O97 Zn89 1.905 1_545 S
O97 C91 1.182 . S
O98 Zn89 1.898 . S
O98 C92 1.167 1_455 S
O99 Zn90 2.120 1_665 S
O99 C92 1.299 . S
O100 Zn88 1.898 . S
O100 C95 1.167 1_655 S
O101 Zn90 2.120 . S
O101 C95 1.299 . S
O102 Zn90 2.114 1_655 S
O102 C104 1.166 . S
O103 Zn88 1.905 . S
O103 C104 1.182 . S
C104 O102 1.166 . S
C104 O103 1.182 . S
O105 Zn90 2.080 . S
O105 C108 1.305 1_545 S
O106 Zn89 1.920 . S
O106 C108 1.234 . S
C107 O93 1.305 . S
C107 O94 1.234 . S
C108 O105 1.305 1_565 S
C108 O106 1.234 . S
Zn109 O115 1.920 . S
Zn109 O121 1.898 . S
Zn109 O124 1.898 1_554 S
Zn110 O118 1.905 . S
Zn110 O119 1.898 . S
Zn110 O127 1.913 1_565 S
Zn111 O114 2.080 . S
Zn111 O117 2.115 . S
Zn111 O120 2.120 1_545 S
Zn111 O122 2.120 . S
Zn111 O123 2.114 . S
Zn111 O126 2.080 . S
C112 O117 1.163 1_565 S
C112 O118 1.191 . S
C113 O119 1.167 . S
C113 O120 1.299 . S
O114 Zn111 2.080 . S
O114 C128 1.305 . S
O115 Zn109 1.920 . S
O115 C128 1.234 . S
C116 O121 1.167 . S
C116 O122 1.299 . S
O117 Zn111 2.115 . S
O117 C112 1.163 1_545 S
O118 Zn110 1.905 . S
O118 C112 1.191 . S
O119 Zn110 1.898 . S
O119 C113 1.167 . S
O120 Zn111 2.120 1_565 S
O120 C113 1.299 . S
O121 Zn109 1.898 . S
O121 C116 1.167 . S
O122 Zn111 2.120 . S
O122 C116 1.299 . S
O123 Zn111 2.114 . S
O123 C125 1.166 . S
O124 Zn109 1.898 1_556 S
O124 C125 1.179 1_556 S
C125 O123 1.166 . S
C125 O124 1.179 1_554 S
O126 Zn111 2.080 . S
O126 C129 1.305 . S
O127 Zn110 1.913 1_545 S
O127 C129 1.245 . S
C128 O114 1.305 . S
C128 O115 1.234 . S
C129 O126 1.305 . S
C129 O127 1.245 . S
Zn130 O136 1.920 . S
Zn130 O142 1.898 . S
Zn130 O145 1.905 . S
Zn131 O139 1.905 . S
Zn131 O140 1.898 . S
Zn131 O148 1.920 . S
Zn132 O135 2.080 . S
Zn132 O138 2.114 . S
Zn132 O141 2.120 . S
Zn132 O143 2.120 . S
Zn132 O144 2.114 . S
Zn132 O147 2.080 . S
C133 O138 1.166 . S
C133 O139 1.182 . S
C134 O140 1.167 . S
C134 O141 1.299 . S
O135 Zn132 2.080 . S
O135 C149 1.305 . S
O136 Zn130 1.920 . S
O136 C149 1.234 . S
C137 O142 1.167 . S
C137 O143 1.299 . S
O138 Zn132 2.114 . S
O138 C133 1.166 . S
O139 Zn131 1.905 . S
O139 C133 1.182 . S
O140 Zn131 1.898 . S
O140 C134 1.167 . S
O141 Zn132 2.120 . S
O141 C134 1.299 . S
O142 Zn130 1.898 . S
O142 C137 1.167 . S
O143 Zn132 2.120 . S
O143 C137 1.299 . S
O144 Zn132 2.114 . S
O144 C146 1.166 . S
O145 Zn130 1.905 . S
O145 C146 1.182 . S
C146 O144 1.166 . S
C146 O145 1.182 . S
O147 Zn132 2.080 . S
O147 C150 1.305 . S
O148 Zn131 1.920 . S
O148 C150 1.234 . S
C149 O135 1.305 . S
C149 O136 1.234 . S
C150 O147 1.305 . S
C150 O148 1.234 . S
Zn151 O157 1.920 . S
Zn151 O163 1.898 . S
Zn151 O166 1.905 . S
Zn152 O160 1.905 1_655 S
Zn152 O161 1.898 . S
Zn152 O169 1.920 . S
Zn153 O156 2.080 1_554 S
Zn153 O159 2.114 . S
Zn153 O162 2.120 1_554 S
Zn153 O164 2.120 . S
Zn153 O165 2.114 1_554 S
Zn153 O168 2.080 . S
C154 O159 1.166 . S
C154 O160 1.182 . S
C155 O161 1.167 1_556 S
C155 O162 1.299 1_655 S
O156 Zn153 2.080 1_556 S
O156 C170 1.305 . S
O157 Zn151 1.920 . S
O157 C170 1.234 . S
C158 O163 1.167 1_554 S
C158 O164 1.299 . S
O159 Zn153 2.114 . S
O159 C154 1.166 . S
O160 Zn152 1.905 1_455 S
O160 C154 1.182 . S
O161 Zn152 1.898 . S
O161 C155 1.167 1_554 S
O162 Zn153 2.120 1_556 S
O162 C155 1.299 1_455 S
O163 Zn151 1.898 . S
O163 C158 1.167 1_556 S
O164 Zn153 2.120 . S
O164 C158 1.299 . S
O165 Zn153 2.114 1_556 S
O165 C167 1.166 . S
O166 Zn151 1.905 . S
O166 C167 1.182 . S
C167 O165 1.166 . S
C167 O166 1.182 . S
O168 Zn153 2.080 . S
O168 C171 1.305 . S
O169 Zn152 1.920 . S
O169 C171 1.234 1_655 S
C170 O156 1.305 . S
C170 O157 1.234 . S
C171 O168 1.305 . S
C171 O169 1.234 1_455 S
H172 C180 0.950 . S
H173 C185 0.950 . S
H174 C182 0.950 . S
H175 C184 0.950 . S
H176 C186 0.950 . S
H177 C188 0.950 . S
H178 C190 0.950 . S
H179 C191 0.950 . S
C180 H172 0.950 . S
C180 C181 1.386 . S
C180 C182 1.391 . S
C181 C180 1.386 . S
C181 C185 1.393 . S
C182 H174 0.950 . S
C182 C180 1.391 . S
C182 C183 1.400 . S
C183 C182 1.400 . S
C183 C184 1.398 . S
C183 C189 1.491 . S
C184 H175 0.950 . S
C184 C183 1.398 . S
C184 C185 1.391 . S
C185 H173 0.950 . S
C185 C181 1.393 . S
C185 C184 1.391 . S
C186 H176 0.950 . S
C186 C187 1.386 . S
C186 C188 1.391 . S
C187 C186 1.386 . S
C187 C191 1.393 . S
C188 H177 0.950 . S
C188 C186 1.391 . S
C188 C189 1.400 . S
C189 C183 1.491 . S
C189 C188 1.400 . S
C189 C190 1.398 . S
C190 H178 0.950 . S
C190 C189 1.398 . S
C190 C191 1.391 . S
C191 H179 0.950 . S
C191 C187 1.393 . S
C191 C190 1.391 . S
H192 C200 0.950 . S
H193 C205 0.950 . S
H194 C202 0.950 . S
H195 C204 0.950 . S
H196 C206 0.969 . S
H197 C208 0.950 . S
H198 C210 0.950 . S
H199 C211 0.950 1_545 S
C200 H192 0.950 . S
C200 C201 1.386 . S
C200 C202 1.391 . S
C201 C200 1.386 . S
C201 C205 1.393 . S
C202 H194 0.950 . S
C202 C200 1.391 . S
C202 C203 1.400 . S
C203 C202 1.400 . S
C203 C204 1.398 . S
C203 C209 1.491 . S
C204 H195 0.950 . S
C204 C203 1.398 . S
C204 C205 1.391 . S
C205 H193 0.950 . S
C205 C201 1.393 . S
C205 C204 1.391 . S
C206 H196 0.969 . S
C206 C207 1.386 . S
C206 C208 1.391 . S
C207 C206 1.386 . S
C207 C211 1.393 . S
C208 H197 0.950 . S
C208 C206 1.391 . S
C208 C209 1.400 . S
C209 C203 1.491 . S
C209 C208 1.400 . S
C209 C210 1.398 . S
C210 H198 0.950 . S
C210 C209 1.398 . S
C210 C211 1.391 . S
C211 H199 0.950 1_565 S
C211 C207 1.393 . S
C211 C210 1.391 . S
H212 C220 0.950 . S
H213 C225 0.950 . S
H214 C222 0.950 . S
H215 C224 0.950 . S
H216 C226 0.950 . S
H217 C228 0.950 . S
H218 C230 0.950 . S
H219 C231 0.950 . S
C220 H212 0.950 . S
C220 C221 1.386 . S
C220 C222 1.391 . S
C221 C220 1.386 . S
C221 C225 1.393 . S
C222 H214 0.950 . S
C222 C220 1.391 . S
C222 C223 1.400 . S
C223 C222 1.400 . S
C223 C224 1.398 . S
C223 C229 1.491 . S
C224 H215 0.950 . S
C224 C223 1.398 . S
C224 C225 1.391 . S
C225 H213 0.950 . S
C225 C221 1.393 . S
C225 C224 1.391 . S
C226 H216 0.950 . S
C226 C227 1.386 . S
C226 C228 1.391 . S
C227 C226 1.386 . S
C227 C231 1.393 . S
C228 H217 0.950 . S
C228 C226 1.391 . S
C228 C229 1.400 . S
C229 C223 1.491 . S
C229 C228 1.400 . S
C229 C230 1.398 . S
C230 H218 0.950 . S
C230 C229 1.398 . S
C230 C231 1.391 . S
C231 H219 0.950 . S
C231 C227 1.393 . S
C231 C230 1.391 . S
H232 C240 0.950 . S
H233 C245 0.950 . S
H234 C242 0.950 . S
H235 C244 0.950 1_455 S
H236 C246 0.950 . S
H237 C248 0.950 . S
H238 C250 0.950 . S
H239 C251 0.950 . S
C240 H232 0.950 . S
C240 C241 1.386 . S
C240 C242 1.391 . S
C241 C240 1.386 . S
C241 C245 1.393 . S
C242 H234 0.950 . S
C242 C240 1.391 . S
C242 C243 1.400 . S
C243 C242 1.400 . S
C243 C244 1.398 . S
C243 C249 1.491 . S
C244 H235 0.950 1_655 S
C244 C243 1.398 . S
C244 C245 1.391 . S
C245 H233 0.950 . S
C245 C241 1.393 . S
C245 C244 1.391 . S
C246 H236 0.950 . S
C246 C247 1.386 . S
C246 C248 1.391 . S
C247 C246 1.386 . S
C247 C251 1.393 1_455 S
C248 H237 0.950 . S
C248 C246 1.391 . S
C248 C249 1.400 1_455 S
C249 C243 1.491 . S
C249 C248 1.400 1_655 S
C249 C250 1.398 . S
C250 H238 0.950 . S
C250 C249 1.398 . S
C250 C251 1.391 . S
C251 H239 0.950 . S
C251 C247 1.393 1_655 S
C251 C250 1.391 . S
H252 C260 0.950 . S
H253 C265 0.950 . S
H254 C262 0.950 . S
H255 C264 0.950 . S
H256 C266 0.950 . S
H257 C268 0.950 . S
H258 C270 0.950 . S
H259 C271 0.950 . S
C260 H252 0.950 . S
C260 C261 1.386 . S
C260 C262 1.391 . S
C261 C260 1.386 . S
C261 C265 1.393 . S
C262 H254 0.950 . S
C262 C260 1.391 . S
C262 C263 1.400 . S
C263 C262 1.400 . S
C263 C264 1.398 . S
C263 C269 1.491 . S
C264 H255 0.950 . S
C264 C263 1.398 . S
C264 C265 1.391 . S
C265 H253 0.950 . S
C265 C261 1.393 . S
C265 C264 1.391 . S
C266 H256 0.950 . S
C266 C267 1.386 . S
C266 C268 1.391 . S
C267 C266 1.386 . S
C267 C271 1.393 . S
C268 H257 0.950 . S
C268 C266 1.391 . S
C268 C269 1.400 . S
C269 C263 1.491 . S
C269 C268 1.400 . S
C269 C270 1.398 . S
C270 H258 0.950 . S
C270 C269 1.398 . S
C270 C271 1.391 . S
C271 H259 0.950 . S
C271 C267 1.393 . S
C271 C270 1.391 . S
H272 C280 0.950 . S
H273 C285 0.950 . S
H274 C282 0.950 . S
H275 C284 0.950 . S
H276 C286 0.950 . S
H277 C288 0.950 . S
H278 C290 0.950 . S
H279 C291 0.950 1_545 S
C280 H272 0.950 . S
C280 C281 1.386 . S
C280 C282 1.391 . S
C281 C280 1.386 . S
C281 C285 1.393 . S
C282 H274 0.950 . S
C282 C280 1.391 . S
C282 C283 1.400 . S
C283 C282 1.400 . S
C283 C284 1.398 . S
C283 C289 1.491 . S
C284 H275 0.950 . S
C284 C283 1.398 . S
C284 C285 1.391 . S
C285 H273 0.950 . S
C285 C281 1.393 . S
C285 C284 1.391 . S
C286 H276 0.950 . S
C286 C287 1.386 . S
C286 C288 1.391 . S
C287 C286 1.386 . S
C287 C291 1.393 . S
C288 H277 0.950 . S
C288 C286 1.391 . S
C288 C289 1.400 . S
C289 C283 1.491 . S
C289 C288 1.400 . S
C289 C290 1.398 . S
C290 H278 0.950 . S
C290 C289 1.398 . S
C290 C291 1.391 . S
C291 H279 0.950 1_565 S
C291 C287 1.393 . S
C291 C290 1.391 . S
H292 C300 0.950 . S
H293 C305 0.950 . S
H294 C302 0.950 . S
H295 C304 0.950 . S
H296 C306 0.950 . S
H297 C308 0.950 . S
H298 C310 0.950 . S
H299 C311 0.950 . S
C300 H292 0.950 . S
C300 C301 1.386 . S
C300 C302 1.391 . S
C301 C300 1.386 . S
C301 C305 1.393 . S
C302 H294 0.950 . S
C302 C300 1.391 . S
C302 C303 1.400 . S
C303 C302 1.400 . S
C303 C304 1.398 . S
C303 C309 1.491 . S
C304 H295 0.950 . S
C304 C303 1.398 . S
C304 C305 1.391 . S
C305 H293 0.950 . S
C305 C301 1.393 . S
C305 C304 1.391 . S
C306 H296 0.950 . S
C306 C307 1.386 . S
C306 C308 1.391 . S
C307 C306 1.386 . S
C307 C311 1.393 . S
C308 H297 0.950 . S
C308 C306 1.391 . S
C308 C309 1.400 . S
C309 C303 1.491 . S
C309 C308 1.400 . S
C309 C310 1.398 . S
C310 H298 0.950 . S
C310 C309 1.398 . S
C310 C311 1.391 . S
C311 H299 0.950 . S
C311 C307 1.393 . S
C311 C310 1.391 . S
H312 C320 0.950 . S
H313 C325 0.950 . S
H314 C322 0.950 . S
H315 C324 0.950 . S
H316 C326 0.950 . S
H317 C328 0.950 . S
H318 C330 0.950 . S
H319 C331 0.950 . S
C320 H312 0.950 . S
C320 C321 1.386 . S
C320 C322 1.391 . S
C321 C320 1.386 . S
C321 C325 1.393 . S
C322 H314 0.950 . S
C322 C320 1.391 . S
C322 C323 1.400 . S
C323 C322 1.400 . S
C323 C324 1.398 . S
C323 C329 1.491 . S
C324 H315 0.950 . S
C324 C323 1.398 . S
C324 C325 1.391 . S
C325 H313 0.950 . S
C325 C321 1.393 . S
C325 C324 1.391 . S
C326 H316 0.950 . S
C326 C327 1.386 . S
C326 C328 1.391 . S
C327 C326 1.386 . S
C327 C331 1.393 . S
C328 H317 0.950 . S
C328 C326 1.391 . S
C328 C329 1.400 . S
C329 C323 1.491 . S
C329 C328 1.400 . S
C329 C330 1.398 . S
C330 H318 0.950 . S
C330 C329 1.398 . S
C330 C331 1.391 . S
C331 H319 0.950 . S
C331 C327 1.393 . S
C331 C330 1.391 . S
H332 C340 0.950 . S
H333 C345 0.950 . S
H334 C342 0.950 . S
H335 C344 0.950 . S
H336 C346 0.950 . S
H337 C348 0.950 . S
H338 C350 0.950 . S
H339 C351 0.950 . S
C340 H332 0.950 . S
C340 C341 1.386 . S
C340 C342 1.391 . S
C341 C340 1.386 . S
C341 C345 1.393 . S
C342 H334 0.950 . S
C342 C340 1.391 . S
C342 C343 1.400 . S
C343 C342 1.400 . S
C343 C344 1.398 . S
C343 C349 1.491 . S
C344 H335 0.950 . S
C344 C343 1.398 . S
C344 C345 1.391 . S
C345 H333 0.950 . S
C345 C341 1.393 . S
C345 C344 1.391 . S
C346 H336 0.950 . S
C346 C347 1.386 . S
C346 C348 1.391 . S
C347 C346 1.386 . S
C347 C351 1.393 . S
C348 H337 0.950 . S
C348 C346 1.391 . S
C348 C349 1.400 . S
C349 C343 1.491 . S
C349 C348 1.400 . S
C349 C350 1.398 . S
C350 H338 0.950 . S
C350 C349 1.398 . S
C350 C351 1.391 . S
C351 H339 0.950 . S
C351 C347 1.393 . S
C351 C350 1.391 . S
H352 C360 0.950 . S
H353 C365 0.950 . S
H354 C362 0.950 . S
H355 C364 0.950 1_554 S
H356 C366 0.950 . S
H357 C368 0.950 . S
H358 C370 0.950 . S
H359 C371 0.950 . S
C360 H352 0.950 . S
C360 C361 1.386 . S
C360 C362 1.391 . S
C361 C360 1.386 . S
C361 C365 1.393 . S
C362 H354 0.950 . S
C362 C360 1.391 . S
C362 C363 1.400 . S
C363 C362 1.400 . S
C363 C364 1.398 . S
C363 C369 1.491 . S
C364 H355 0.950 1_556 S
C364 C363 1.398 . S
C364 C365 1.391 . S
C365 H353 0.950 . S
C365 C361 1.393 . S
C365 C364 1.391 . S
C366 H356 0.950 . S
C366 C367 1.386 . S
C366 C368 1.391 . S
C367 C366 1.386 . S
C367 C371 1.393 1_554 S
C368 H357 0.950 . S
C368 C366 1.391 . S
C368 C369 1.400 1_554 S
C369 C363 1.491 . S
C369 C368 1.400 1_556 S
C369 C370 1.398 . S
C370 H358 0.950 . S
C370 C369 1.398 . S
C370 C371 1.391 . S
C371 H359 0.950 . S
C371 C367 1.393 1_556 S
C371 C370 1.391 . S
H372 C380 0.950 . S
H373 C385 0.950 . S
H374 C382 0.950 . S
H375 C384 0.950 . S
H376 C386 0.950 . S
H377 C388 0.950 . S
H378 C390 0.950 . S
H379 C391 0.950 . S
C380 H372 0.950 . S
C380 C381 1.386 . S
C380 C382 1.391 . S
C381 C380 1.386 . S
C381 C385 1.393 . S
C382 H374 0.950 . S
C382 C380 1.391 . S
C382 C383 1.400 . S
C383 C382 1.400 . S
C383 C384 1.398 . S
C383 C389 1.491 . S
C384 H375 0.950 . S
C384 C383 1.398 . S
C384 C385 1.391 . S
C385 H373 0.950 . S
C385 C381 1.393 . S
C385 C384 1.391 . S
C386 H376 0.950 . S
C386 C387 1.386 . S
C386 C388 1.391 . S
C387 C386 1.386 . S
C387 C391 1.393 . S
C388 H377 0.950 . S
C388 C386 1.391 . S
C388 C389 1.400 . S
C389 C383 1.491 . S
C389 C388 1.400 . S
C389 C390 1.398 . S
C390 H378 0.950 . S
C390 C389 1.398 . S
C390 C391 1.391 . S
C391 H379 0.950 . S
C391 C387 1.393 . S
C391 C390 1.391 . S
H392 C400 0.950 . S
H393 C405 0.950 . S
H394 C402 0.950 . S
H395 C404 0.950 . S
H396 C406 0.950 . S
H397 C408 0.950 . S
H398 C410 0.950 . S
H399 C411 0.950 . S
C400 H392 0.950 . S
C400 C401 1.386 . S
C400 C402 1.391 . S
C401 C400 1.386 . S
C401 C405 1.393 . S
C402 H394 0.950 . S
C402 C400 1.391 . S
C402 C403 1.400 . S
C403 C402 1.400 . S
C403 C404 1.398 . S
C403 C409 1.491 . S
C404 H395 0.950 . S
C404 C403 1.398 . S
C404 C405 1.391 . S
C405 H393 0.950 . S
C405 C401 1.393 . S
C405 C404 1.391 . S
C406 H396 0.950 . S
C406 C407 1.386 . S
C406 C408 1.391 . S
C407 C406 1.386 . S
C407 C411 1.393 . S
C408 H397 0.950 . S
C408 C406 1.391 . S
C408 C409 1.400 . S
C409 C403 1.491 . S
C409 C408 1.400 . S
C409 C410 1.398 . S
C410 H398 0.950 . S
C410 C409 1.398 . S
C410 C411 1.391 . S
C411 H399 0.950 . S
C411 C407 1.393 . S
C411 C410 1.391 . S
H412 C420 0.950 1_455 S
H413 C425 0.950 1_545 S
H414 C422 0.950 1_455 S
H415 C424 0.950 1_545 S
H416 C426 0.950 . S
H417 C428 0.950 . S
H418 C430 0.950 . S
H419 C431 0.950 . S
C420 H412 0.950 1_655 S
C420 C421 1.386 . S
C420 C422 1.391 . S
C421 C420 1.386 . S
C421 C425 1.393 . S
C422 H414 0.950 1_655 S
C422 C420 1.391 . S
C422 C423 1.400 . S
C423 C422 1.400 . S
C423 C424 1.398 . S
C423 C429 1.491 . S
C424 H415 0.950 1_565 S
C424 C423 1.398 . S
C424 C425 1.391 . S
C425 H413 0.950 1_565 S
C425 C421 1.393 . S
C425 C424 1.391 . S
C426 H416 0.950 . S
C426 C427 1.386 . S
C426 C428 1.391 . S
C427 C426 1.386 . S
C427 C431 1.393 1_645 S
C428 H417 0.950 . S
C428 C426 1.391 . S
C428 C429 1.400 1_545 S
C429 C423 1.491 . S
C429 C428 1.400 1_565 S
C429 C430 1.398 1_655 S
C430 H418 0.950 . S
C430 C429 1.398 1_455 S
C430 C431 1.391 . S
C431 H419 0.950 . S
C431 C427 1.393 1_465 S
C431 C430 1.391 . S
H432 C440 0.950 . S
H433 C445 0.950 . S
H434 C442 0.950 . S
H435 C444 0.950 . S
H436 C446 0.950 1_565 S
H437 C448 0.950 . S
H438 C450 0.950 . S
H439 C451 0.950 . S
C440 H432 0.950 . S
C440 C441 1.386 . S
C440 C442 1.391 . S
C441 C440 1.386 . S
C441 C445 1.393 . S
C442 H434 0.950 . S
C442 C440 1.391 . S
C442 C443 1.400 . S
C443 C442 1.400 . S
C443 C444 1.398 . S
C443 C449 1.491 . S
C444 H435 0.950 . S
C444 C443 1.398 . S
C444 C445 1.391 . S
C445 H433 0.950 . S
C445 C441 1.393 . S
C445 C444 1.391 . S
C446 H436 0.950 1_545 S
C446 C447 1.386 . S
C446 C448 1.391 . S
C447 C446 1.386 . S
C447 C451 1.393 . S
C448 H437 0.950 . S
C448 C446 1.391 . S
C448 C449 1.400 . S
C449 C443 1.491 . S
C449 C448 1.400 . S
C449 C450 1.398 . S
C450 H438 0.950 . S
C450 C449 1.398 . S
C450 C451 1.391 . S
C451 H439 0.950 . S
C451 C447 1.393 . S
C451 C450 1.391 . S
H452 C460 0.950 . S
H453 C465 0.950 . S
H454 C462 0.950 . S
H455 C464 0.950 . S
H456 C466 0.950 . S
H457 C468 0.950 . S
H458 C470 0.950 . S
H459 C471 0.950 . S
C460 H452 0.950 . S
C460 C461 1.386 . S
C460 C462 1.391 . S
C461 C460 1.386 . S
C461 C465 1.393 . S
C462 H454 0.950 . S
C462 C460 1.391 . S
C462 C463 1.400 . S
C463 C462 1.400 . S
C463 C464 1.398 . S
C463 C469 1.491 . S
C464 H455 0.950 . S
C464 C463 1.398 . S
C464 C465 1.391 . S
C465 H453 0.950 . S
C465 C461 1.393 . S
C465 C464 1.391 . S
C466 H456 0.950 . S
C466 C467 1.386 . S
C466 C468 1.391 . S
C467 C466 1.386 . S
C467 C471 1.393 . S
C468 H457 0.950 . S
C468 C466 1.391 . S
C468 C469 1.400 . S
C469 C463 1.491 . S
C469 C468 1.400 . S
C469 C470 1.398 . S
C470 H458 0.950 . S
C470 C469 1.398 . S
C470 C471 1.391 . S
C471 H459 0.950 . S
C471 C467 1.393 . S
C471 C470 1.391 . S
H472 C480 0.950 . S
H473 C485 0.950 . S
H474 C482 0.950 . S
H475 C484 0.950 . S
H476 C486 0.950 . S
H477 C488 0.950 . S
H478 C490 0.950 . S
H479 C491 0.950 . S
C480 H472 0.950 . S
C480 C481 1.386 . S
C480 C482 1.391 . S
C481 C480 1.386 . S
C481 C485 1.393 . S
C482 H474 0.950 . S
C482 C480 1.391 . S
C482 C483 1.400 . S
C483 C482 1.400 . S
C483 C484 1.398 . S
C483 C489 1.491 . S
C484 H475 0.950 . S
C484 C483 1.398 . S
C484 C485 1.391 . S
C485 H473 0.950 . S
C485 C481 1.393 . S
C485 C484 1.391 . S
C486 H476 0.950 . S
C486 C487 1.386 . S
C486 C488 1.391 . S
C487 C486 1.386 . S
C487 C491 1.393 . S
C488 H477 0.950 . S
C488 C486 1.391 . S
C488 C489 1.400 . S
C489 C483 1.491 . S
C489 C488 1.400 . S
C489 C490 1.398 . S
C490 H478 0.950 . S
C490 C489 1.398 . S
C490 C491 1.391 . S
C491 H479 0.950 . S
C491 C487 1.393 . S
C491 C490 1.391 . S
H492 C500 0.950 . S
H493 C505 0.950 . S
H494 C502 0.950 . S
H495 C504 0.950 . S
H496 C506 0.950 . S
H497 C508 0.950 . S
H498 C510 0.950 . S
H499 C511 0.950 . S
C500 H492 0.950 . S
C500 C501 1.386 1_545 S
C500 C502 1.391 . S
C501 C500 1.386 1_565 S
C501 C505 1.393 . S
C502 H494 0.950 . S
C502 C500 1.391 . S
C502 C503 1.400 1_545 S
C503 C502 1.400 1_565 S
C503 C504 1.398 . S
C503 C509 1.491 . S
C504 H495 0.950 . S
C504 C503 1.398 . S
C504 C505 1.391 . S
C505 H493 0.950 . S
C505 C501 1.393 . S
C505 C504 1.391 . S
C506 H496 0.950 . S
C506 C507 1.386 1_565 S
C506 C508 1.391 . S
C507 C506 1.386 1_545 S
C507 C511 1.393 . S
C508 H497 0.950 . S
C508 C506 1.391 . S
C508 C509 1.400 . S
C509 C503 1.491 . S
C509 C508 1.400 . S
C509 C510 1.398 1_565 S
C510 H498 0.950 . S
C510 C509 1.398 1_545 S
C510 C511 1.391 . S
C511 H499 0.950 . S
C511 C507 1.393 . S
C511 C510 1.391 . S
H512 C520 0.950 . S
H513 C525 0.950 . S
H514 C522 0.950 . S
H515 C524 0.950 . S
H516 C526 0.950 . S
H517 C528 0.950 . S
H518 C530 0.950 . S
H519 C531 0.950 . S
C520 H512 0.950 . S
C520 C521 1.386 . S
C520 C522 1.391 . S
C521 C520 1.386 . S
C521 C525 1.393 . S
C522 H514 0.950 . S
C522 C520 1.391 . S
C522 C523 1.400 . S
C523 C522 1.400 . S
C523 C524 1.398 . S
C523 C529 1.491 . S
C524 H515 0.950 . S
C524 C523 1.398 . S
C524 C525 1.391 . S
C525 H513 0.950 . S
C525 C521 1.393 . S
C525 C524 1.391 . S
C526 H516 0.950 . S
C526 C527 1.386 . S
C526 C528 1.391 . S
C527 C526 1.386 . S
C527 C531 1.393 . S
C528 H517 0.950 . S
C528 C526 1.391 . S
C528 C529 1.400 . S
C529 C523 1.491 . S
C529 C528 1.400 . S
C529 C530 1.398 . S
C530 H518 0.950 . S
C530 C529 1.398 . S
C530 C531 1.391 . S
C531 H519 0.950 . S
C531 C527 1.393 . S
C531 C530 1.391 . S
H532 C540 0.950 . S
H533 C545 0.950 . S
H534 C542 0.950 . S
H535 C544 0.950 . S
H536 C546 0.950 . S
H537 C548 0.950 . S
H538 C550 0.950 . S
H539 C551 0.950 . S
C540 H532 0.950 . S
C540 C541 1.386 . S
C540 C542 1.391 . S
C541 C540 1.386 . S
C541 C545 1.393 . S
C542 H534 0.950 . S
C542 C540 1.391 . S
C542 C543 1.400 . S
C543 C542 1.400 . S
C543 C544 1.398 . S
C543 C549 1.491 . S
C544 H535 0.950 . S
C544 C543 1.398 . S
C544 C545 1.391 . S
C545 H533 0.950 . S
C545 C541 1.393 . S
C545 C544 1.391 . S
C546 H536 0.950 . S
C546 C547 1.386 . S
C546 C548 1.391 . S
C547 C546 1.386 . S
C547 C551 1.393 . S
C548 H537 0.950 . S
C548 C546 1.391 . S
C548 C549 1.400 . S
C549 C543 1.491 . S
C549 C548 1.400 . S
C549 C550 1.398 . S
C550 H538 0.950 . S
C550 C549 1.398 . S
C550 C551 1.391 . S
C551 H539 0.950 . S
C551 C547 1.393 . S
C551 C550 1.391 . S
H552 C560 0.950 . S
H553 C565 0.950 . S
H554 C562 0.950 . S
H555 C564 0.950 . S
H556 C566 0.950 . S
H557 C568 0.950 . S
H558 C570 0.950 . S
H559 C571 0.950 . S
C560 H552 0.950 . S
C560 C561 1.386 . S
C560 C562 1.391 . S
C561 C560 1.386 . S
C561 C565 1.393 . S
C562 H554 0.950 . S
C562 C560 1.391 . S
C562 C563 1.400 . S
C563 C562 1.400 . S
C563 C564 1.398 . S
C563 C569 1.491 . S
C564 H555 0.950 . S
C564 C563 1.398 . S
C564 C565 1.391 . S
C565 H553 0.950 . S
C565 C561 1.393 . S
C565 C564 1.391 . S
C566 H556 0.950 . S
C566 C567 1.386 . S
C566 C568 1.391 . S
C567 C566 1.386 . S
C567 C571 1.393 . S
C568 H557 0.950 . S
C568 C566 1.391 . S
C568 C569 1.400 . S
C569 C563 1.491 . S
C569 C568 1.400 . S
C569 C570 1.398 . S
C570 H558 0.950 . S
C570 C569 1.398 . S
C570 C571 1.391 . S
C571 H559 0.950 . S
C571 C567 1.393 . S
C571 C570 1.391 . S
H572 C580 0.950 . S
H573 C585 0.954 . S
H574 C582 0.950 . S
H575 C584 0.950 . S
H576 C586 0.950 1_655 S
H577 C588 0.950 . S
H578 C590 0.950 . S
H579 C591 0.953 . S
C580 H572 0.950 . S
C580 C581 1.417 . S
C580 C582 1.391 . S
C581 C580 1.417 . S
C581 C585 1.369 1_454 S
C582 H574 0.950 . S
C582 C580 1.391 . S
C582 C583 1.403 . S
C583 C582 1.403 . S
C583 C584 1.395 1_454 S
C583 C589 1.492 1_554 S
C584 H575 0.950 . S
C584 C583 1.395 1_656 S
C584 C585 1.389 . S
C585 H573 0.954 . S
C585 C581 1.369 1_656 S
C585 C584 1.389 . S
C586 H576 0.950 1_455 S
C586 C587 1.386 . S
C586 C588 1.391 1_455 S
C587 C586 1.386 . S
C587 C591 1.392 1_556 S
C588 H577 0.950 . S
C588 C586 1.391 1_655 S
C588 C589 1.400 1_655 S
C589 C583 1.492 1_556 S
C589 C588 1.400 1_455 S
C589 C590 1.398 1_556 S
C590 H578 0.950 . S
C590 C589 1.398 1_554 S
C590 C591 1.389 . S
C591 H579 0.953 . S
C591 C587 1.392 1_554 S
C591 C590 1.389 . S
H592 C600 0.950 . S
H593 C605 0.950 . S
H594 C602 0.950 . S
H595 C604 0.950 . S
H596 C606 0.950 . S
H597 C608 0.950 . S
H598 C610 0.950 . S
H599 C611 0.950 . S
C600 H592 0.950 . S
C600 C601 1.386 . S
C600 C602 1.391 . S
C601 C600 1.386 . S
C601 C605 1.393 . S
C602 H594 0.950 . S
C602 C600 1.391 . S
C602 C603 1.400 . S
C603 C602 1.400 . S
C603 C604 1.398 . S
C603 C609 1.491 . S
C604 H595 0.950 . S
C604 C603 1.398 . S
C604 C605 1.391 . S
C605 H593 0.950 . S
C605 C601 1.393 . S
C605 C604 1.391 . S
C606 H596 0.950 . S
C606 C607 1.386 . S
C606 C608 1.391 . S
C607 C606 1.386 . S
C607 C611 1.393 . S
C608 H597 0.950 . S
C608 C606 1.391 . S
C608 C609 1.400 . S
C609 C603 1.491 . S
C609 C608 1.400 . S
C609 C610 1.398 . S
C610 H598 0.950 . S
C610 C609 1.398 . S
C610 C611 1.391 . S
C611 H599 0.950 . S
C611 C607 1.393 . S
C611 C610 1.391 . S
H612 C620 0.950 . S
H613 C625 0.950 . S
H614 C622 0.950 . S
H615 C624 0.950 . S
H616 C626 0.950 1_655 S
H617 C628 0.950 1_655 S
H618 C630 0.950 . S
H619 C631 0.950 . S
C620 H612 0.950 . S
C620 C621 1.386 . S
C620 C622 1.391 . S
C621 C620 1.386 . S
C621 C625 1.393 . S
C622 H614 0.950 . S
C622 C620 1.391 . S
C622 C623 1.400 . S
C623 C622 1.400 . S
C623 C624 1.398 . S
C623 C629 1.491 . S
C624 H615 0.950 . S
C624 C623 1.398 . S
C624 C625 1.391 . S
C625 H613 0.950 . S
C625 C621 1.393 . S
C625 C624 1.391 . S
C626 H616 0.950 1_455 S
C626 C627 1.386 . S
C626 C628 1.391 . S
C627 C626 1.386 . S
C627 C631 1.393 . S
C628 H617 0.950 1_455 S
C628 C626 1.391 . S
C628 C629 1.400 . S
C629 C623 1.491 . S
C629 C628 1.400 . S
C629 C630 1.398 . S
C630 H618 0.950 . S
C630 C629 1.398 . S
C630 C631 1.391 . S
C631 H619 0.950 . S
C631 C627 1.393 . S
C631 C630 1.391 . S
H632 C640 0.950 . S
H633 C645 0.950 . S
H634 C642 0.950 . S
H635 C644 0.950 . S
H636 C646 0.950 . S
H637 C648 0.950 . S
H638 C650 0.950 . S
H639 C651 0.950 . S
C640 H632 0.950 . S
C640 C641 1.386 . S
C640 C642 1.391 . S
C641 C640 1.386 . S
C641 C645 1.393 . S
C642 H634 0.950 . S
C642 C640 1.391 . S
C642 C643 1.400 . S
C643 C642 1.400 . S
C643 C644 1.398 . S
C643 C649 1.491 . S
C644 H635 0.950 . S
C644 C643 1.398 . S
C644 C645 1.391 . S
C645 H633 0.950 . S
C645 C641 1.393 . S
C645 C644 1.391 . S
C646 H636 0.950 . S
C646 C647 1.386 . S
C646 C648 1.391 . S
C647 C646 1.386 . S
C647 C651 1.393 . S
C648 H637 0.950 . S
C648 C646 1.391 . S
C648 C649 1.400 . S
C649 C643 1.491 . S
C649 C648 1.400 . S
C649 C650 1.398 . S
C650 H638 0.950 . S
C650 C649 1.398 . S
C650 C651 1.391 . S
C651 H639 0.950 . S
C651 C647 1.393 . S
C651 C650 1.391 . S
C181 C5 1.656 . S
C187 C91 1.727 . S
C201 C18 1.560 . S
C207 C125 1.503 1_566 S
C227 C137 1.238 . S
C221 C30 1.300 . S
C241 C41 1.258 . S
C247 C171 1.171 . S
C267 C128 1.689 . S
C261 C7 1.716 . S
C287 C108 1.660 . S
C281 C16 1.580 . S
C307 C155 1.386 . S
C301 C29 1.468 . S
C327 C146 1.079 . S
C321 C38 0.976 . S
C341 C8 1.683 . S
C347 C154 1.553 . S
C367 C116 1.564 . S
C361 C27 1.484 . S
C381 C40 1.486 . S
C387 C92 1.359 . S
C401 C19 1.255 . S
C407 C149 1.200 . S
C427 C107 1.575 . S
C421 C51 1.670 . S
C441 C62 1.623 . S
C447 C129 1.645 . S
C461 C74 1.466 . S
C467 C134 1.456 . S
C481 C84 1.361 . S
C487 C167 1.392 . S
C501 C49 1.917 . S
C507 C112 1.844 1_545 S
C527 C104 1.541 . S
C521 C63 1.564 . S
C547 C158 1.427 . S
C541 C71 1.217 . S
C567 C150 1.232 . S
C561 C85 1.282 . S
C581 C52 1.692 1_454 S
C587 C170 1.601 . S
C607 C113 1.802 . S
C601 C73 1.783 . S
C627 C95 1.408 . S
C621 C82 1.114 . S
C641 C60 1.349 . S
C647 C133 1.637 . S
