# Generated by pormake.
# Topology fgl, (4,4)-cn, num edge types: 1
# Building blocks:
#     Node 0, Type 0, BuildingBlock: ESEHIV_clean_sbu_0, # of connection points: 4
#     Node 1, Type 0, BuildingBlock: ESEHIV_clean_sbu_0, # of connection points: 4
#     Node 2, Type 0, BuildingBlock: ESEHIV_clean_sbu_0, # of connection points: 4
#     Node 3, Type 0, BuildingBlock: ESEHIV_clean_sbu_0, # of connection points: 4
#     Node 4, Type 0, BuildingBlock: ESEHIV_clean_sbu_0, # of connection points: 4
#     Node 5, Type 0, BuildingBlock: ESEHIV_clean_sbu_0, # of connection points: 4
#     Node 6, Type 0, BuildingBlock: ESEHIV_clean_sbu_0, # of connection points: 4
#     Node 7, Type 0, BuildingBlock: ESEHIV_clean_sbu_0, # of connection points: 4
#     Node 8, Type 0, BuildingBlock: ESEHIV_clean_sbu_0, # of connection points: 4
#     Node 9, Type 0, BuildingBlock: ESEHIV_clean_sbu_0, # of connection points: 4
#     Node 10, Type 0, BuildingBlock: ESEHIV_clean_sbu_0, # of connection points: 4
#     Node 11, Type 0, BuildingBlock: ESEHIV_clean_sbu_0, # of connection points: 4
#     Node 12, Type 0, BuildingBlock: ESEHIV_clean_sbu_0, # of connection points: 4
#     Node 13, Type 0, BuildingBlock: ESEHIV_clean_sbu_0, # of connection points: 4
#     Node 14, Type 0, BuildingBlock: ESEHIV_clean_sbu_0, # of connection points: 4
#     Node 15, Type 0, BuildingBlock: ESEHIV_clean_sbu_0, # of connection points: 4
#     Node 16, Type 0, BuildingBlock: ESEHIV_clean_sbu_0, # of connection points: 4
#     Node 17, Type 0, BuildingBlock: ESEHIV_clean_sbu_0, # of connection points: 4
#     Node 18, Type 1, BuildingBlock: QUQFOY_clean_sbu_3, # of connection points: 4
#     Node 19, Type 1, BuildingBlock: QUQFOY_clean_sbu_3, # of connection points: 4
#     Node 20, Type 1, BuildingBlock: QUQFOY_clean_sbu_3, # of connection points: 4
#     Node 21, Type 1, BuildingBlock: QUQFOY_clean_sbu_3, # of connection points: 4
#     Node 22, Type 1, BuildingBlock: QUQFOY_clean_sbu_3, # of connection points: 4
#     Node 23, Type 1, BuildingBlock: QUQFOY_clean_sbu_3, # of connection points: 4
#     Node 24, Type 1, BuildingBlock: QUQFOY_clean_sbu_3, # of connection points: 4
#     Node 25, Type 1, BuildingBlock: QUQFOY_clean_sbu_3, # of connection points: 4
#     Node 26, Type 1, BuildingBlock: QUQFOY_clean_sbu_3, # of connection points: 4
#     Node 27, Type 1, BuildingBlock: QUQFOY_clean_sbu_3, # of connection points: 4
#     Node 28, Type 1, BuildingBlock: QUQFOY_clean_sbu_3, # of connection points: 4
#     Node 29, Type 1, BuildingBlock: QUQFOY_clean_sbu_3, # of connection points: 4
#     Node 30, Type 1, BuildingBlock: QUQFOY_clean_sbu_3, # of connection points: 4
#     Node 31, Type 1, BuildingBlock: QUQFOY_clean_sbu_3, # of connection points: 4
#     Node 32, Type 1, BuildingBlock: QUQFOY_clean_sbu_3, # of connection points: 4
#     Node 33, Type 1, BuildingBlock: QUQFOY_clean_sbu_3, # of connection points: 4
#     Node 34, Type 1, BuildingBlock: QUQFOY_clean_sbu_3, # of connection points: 4
#     Node 35, Type 1, BuildingBlock: QUQFOY_clean_sbu_3, # of connection points: 4
#     Edge 36, Type (0, 1), None
#     Edge 37, Type (0, 1), None
#     Edge 38, Type (0, 1), None
#     Edge 39, Type (0, 1), None
#     Edge 40, Type (0, 1), None
#     Edge 41, Type (0, 1), None
#     Edge 42, Type (0, 1), None
#     Edge 43, Type (0, 1), None
#     Edge 44, Type (0, 1), None
#     Edge 45, Type (0, 1), None
#     Edge 46, Type (0, 1), None
#     Edge 47, Type (0, 1), None
#     Edge 48, Type (0, 1), None
#     Edge 49, Type (0, 1), None
#     Edge 50, Type (0, 1), None
#     Edge 51, Type (0, 1), None
#     Edge 52, Type (0, 1), None
#     Edge 53, Type (0, 1), None
#     Edge 54, Type (0, 1), None
#     Edge 55, Type (0, 1), None
#     Edge 56, Type (0, 1), None
#     Edge 57, Type (0, 1), None
#     Edge 58, Type (0, 1), None
#     Edge 59, Type (0, 1), None
#     Edge 60, Type (0, 1), None
#     Edge 61, Type (0, 1), None
#     Edge 62, Type (0, 1), None
#     Edge 63, Type (0, 1), None
#     Edge 64, Type (0, 1), None
#     Edge 65, Type (0, 1), None
#     Edge 66, Type (0, 1), None
#     Edge 67, Type (0, 1), None
#     Edge 68, Type (0, 1), None
#     Edge 69, Type (0, 1), None
#     Edge 70, Type (0, 1), None
#     Edge 71, Type (0, 1), None
#     Edge 72, Type (0, 1), None
#     Edge 73, Type (0, 1), None
#     Edge 74, Type (0, 1), None
#     Edge 75, Type (0, 1), None
#     Edge 76, Type (0, 1), None
#     Edge 77, Type (0, 1), None
#     Edge 78, Type (0, 1), None
#     Edge 79, Type (0, 1), None
#     Edge 80, Type (0, 1), None
#     Edge 81, Type (0, 1), None
#     Edge 82, Type (0, 1), None
#     Edge 83, Type (0, 1), None
#     Edge 84, Type (0, 1), None
#     Edge 85, Type (0, 1), None
#     Edge 86, Type (0, 1), None
#     Edge 87, Type (0, 1), None
#     Edge 88, Type (0, 1), None
#     Edge 89, Type (0, 1), None
#     Edge 90, Type (0, 1), None
#     Edge 91, Type (0, 1), None
#     Edge 92, Type (0, 1), None
#     Edge 93, Type (0, 1), None
#     Edge 94, Type (0, 1), None
#     Edge 95, Type (0, 1), None
#     Edge 96, Type (0, 1), None
#     Edge 97, Type (0, 1), None
#     Edge 98, Type (0, 1), None
#     Edge 99, Type (0, 1), None
#     Edge 100, Type (0, 1), None
#     Edge 101, Type (0, 1), None
#     Edge 102, Type (0, 1), None
#     Edge 103, Type (0, 1), None
#     Edge 104, Type (0, 1), None
#     Edge 105, Type (0, 1), None
#     Edge 106, Type (0, 1), None
#     Edge 107, Type (0, 1), None
# Relax obj value: 0.042
# Max RMSD: 0.146
# Mean RMSD: 0.081
data_MOF--net-fgl--node1-ESEHIV_clean_sbu_0--node2-QUQFOY_clean_sbu_3--edge1-none
_symmetry_space_group_name_H-M    P1
_symmetry_Int_Tables_number       1
_symmetry_cell_setting            triclinic
loop_
_symmetry_equiv_pos_as_xyz
'x, y, z'
_cell_length_a     35.73593
_cell_length_b     35.879338
_cell_length_c     24.877763
_cell_angle_alpha  88.77165
_cell_angle_beta   91.853757
_cell_angle_gamma 120.25033
loop_
_atom_site_label
_atom_site_type_symbol
_atom_site_fract_x
_atom_site_fract_y
_atom_site_fract_z
_atom_type_partial_charge
Cu0 Cu 0.02007 0.54832 1.00317 0.0
N1 N 0.99005 0.555 0.05898 0.0
N2 N 0.98646 0.58815 0.13249 0.0
C3 C 1.00643 0.59274 0.08567 0.0
C4 C 0.95578 0.5459 0.13504 0.0
C5 C 0.95831 0.52546 0.08983 0.0
O6 O 0.04656 0.60462 0.96858 0.0
C7 C 0.03982 0.48939 0.04661 0.0
O8 O 0.99886 0.46458 0.03282 0.0
H9 H 0.03457 0.62235 0.07281 0.0
H10 H 0.94036 0.49118 0.08194 0.0
N11 N 0.99019 0.50705 0.94937 0.0
N12 N 0.98987 0.46872 0.87952 0.0
C13 C 0.01331 0.4953 0.91991 0.0
C14 C 0.94996 0.48695 0.92689 0.0
C15 C 0.94976 0.46324 0.88314 0.0
C16 C 0.03005 0.61031 0.92509 0.0
O17 O 1.00706 0.57792 0.89255 0.0
H18 H 0.04756 0.50736 0.92733 0.0
H19 H 0.92331 0.49043 0.94001 0.0
O20 O 0.05796 0.53011 0.03869 0.0
H21 H 0.93439 0.53045 0.16835 0.0
H22 H 0.9226 0.44399 0.85615 0.0
Cu23 Cu 0.52661 0.54683 0.06837 0.0
N24 N 0.54281 0.55268 0.9953 0.0
N25 N 0.5664 0.56773 0.91063 0.0
C26 C 0.57564 0.56054 0.96214 0.0
C27 C 0.52711 0.56399 0.91178 0.0
C28 C 0.5135 0.55585 0.96302 0.0
O29 O 0.55441 0.60898 0.08713 0.0
C30 C 0.45834 0.47195 0.02962 0.0
O31 O 0.49272 0.47061 0.0154 0.0
H32 H 0.60618 0.56365 0.97566 0.0
H33 H 0.48435 0.55435 0.97659 0.0
N34 N 0.53716 0.51824 0.12791 0.0
N35 N 0.50028 0.48253 0.20229 0.0
C36 C 0.50217 0.48282 0.14814 0.0
C37 C 0.56041 0.53883 0.17273 0.0
C38 C 0.53817 0.5167 0.21838 0.0
C39 C 0.59575 0.62687 0.08388 0.0
O40 O 0.61188 0.60195 0.07435 0.0
H41 H 0.47487 0.46039 0.12405 0.0
H42 H 0.58764 0.57141 0.17307 0.0
O43 O 0.46379 0.5051 0.05577 0.0
H44 H 0.51027 0.56938 0.87819 0.0
H45 H 0.54615 0.52871 0.25917 0.0
Cu46 Cu 0.48657 1.00542 0.03019 0.0
N47 N 0.44449 0.98795 0.9767 0.0
N48 N 0.41571 0.99329 0.89913 0.0
C49 C 0.43759 0.01406 0.94399 0.0
C50 C 0.40686 0.95227 0.90438 0.0
C51 C 0.42596 0.94946 0.9518 0.0
O52 O 0.4631 0.97014 0.0945 0.0
C53 C 0.55008 0.03005 0.95537 0.0
O54 O 0.52661 0.044 0.93038 0.0
H55 H 0.45227 0.04846 0.9503 0.0
H56 H 0.42986 0.92257 0.96451 0.0
N57 N 0.50794 0.0616 0.05488 0.0
N58 N 0.56139 0.09285 0.11662 0.0
C59 C 0.55108 0.08242 0.06452 0.0
C60 C 0.49154 0.06707 0.10012 0.0
C61 C 0.52436 0.08585 0.13861 0.0
C62 C 0.42244 0.94458 0.09785 0.0
O63 O 0.401 0.91935 0.05728 0.0
H64 H 0.57311 0.08012 0.03817 0.0
H65 H 0.4574 0.04986 0.10873 0.0
O66 O 0.53613 1.00724 0.99815 0.0
H67 H 0.39199 0.92769 0.8737 0.0
H68 H 0.51964 0.08671 0.18127 0.0
Cu69 Cu 0.53844 0.04614 0.54237 0.0
N70 N 0.53387 0.02148 0.47654 0.0
N71 N 0.55379 0.02393 0.39236 0.0
C72 C 0.56118 0.04578 0.43819 0.0
C73 C 0.52027 0.98391 0.40189 0.0
C74 C 0.50804 0.98239 0.45455 0.0
O75 O 0.5929 0.05118 0.57354 0.0
C76 C 0.51247 0.11131 0.53614 0.0
O77 O 0.50527 0.10861 0.58779 0.0
H78 H 0.58645 0.07902 0.44425 0.0
H79 H 0.48271 0.9548 0.4752 0.0
N80 N 0.48864 0.01428 0.58241 0.0
N81 N 0.4413 0.0151 0.63812 0.0
C82 C 0.4832 0.02732 0.63043 0.0
C83 C 0.44842 0.99123 0.56045 0.0
C84 C 0.41906 0.99123 0.59503 0.0
C85 C 0.59367 0.01814 0.59302 0.0
O86 O 0.55681 0.98243 0.60114 0.0
H87 H 0.50998 0.05049 0.65536 0.0
H88 H 0.44134 0.98036 0.51927 0.0
O89 O 0.53652 0.09782 0.51766 0.0
H90 H 0.50643 0.95754 0.37351 0.0
H91 H 0.3848 0.97835 0.58673 0.0
Cu92 Cu 0.06982 0.57764 0.54186 0.0
N93 N 0.10506 0.56632 0.58913 0.0
N94 N 0.10787 0.52587 0.65721 0.0
C95 C 0.08617 0.52717 0.61294 0.0
C96 C 0.14285 0.56582 0.66169 0.0
C97 C 0.14123 0.5908 0.61913 0.0
O98 O 0.02885 0.52061 0.51576 0.0
C99 C 0.06789 0.6394 0.60689 0.0
O100 O 0.10809 0.65071 0.61958 0.0
H101 H 0.05411 0.50133 0.60189 0.0
H102 H 0.16299 0.62498 0.61328 0.0
N103 N 0.08887 0.61238 0.47977 0.0
N104 N 0.07118 0.64098 0.40902 0.0
C105 C 0.06381 0.62811 0.46076 0.0
C106 C 0.11377 0.61578 0.43819 0.0
C107 C 0.10312 0.63385 0.39443 0.0
C108 C 0.04717 0.50305 0.4923 0.0
O109 O 0.08903 0.52554 0.48457 0.0
H110 H 0.03739 0.62611 0.48309 0.0
H111 H 0.13553 0.60309 0.43804 0.0
O112 O 0.04391 0.60416 0.58186 0.0
H113 H 0.16661 0.57673 0.69444 0.0
H114 H 0.11615 0.63906 0.35451 0.0
Cu115 Cu 0.52571 0.59872 0.53602 0.0
N116 N 0.55737 0.64976 0.4978 0.0
N117 N 0.62176 0.70099 0.46896 0.0
C118 C 0.59815 0.67991 0.51216 0.0
C119 C 0.59417 0.68496 0.42615 0.0
C120 C 0.55442 0.65345 0.44413 0.0
O121 O 0.56584 0.59991 0.59158 0.0
C122 C 0.47757 0.5107 0.49159 0.0
O123 O 0.47059 0.49512 0.54074 0.0
H124 H 0.61211 0.68092 0.55178 0.0
H125 H 0.52741 0.63079 0.41917 0.0
N126 N 0.48057 0.59738 0.57252 0.0
N127 N 0.42071 0.55405 0.61748 0.0
C128 C 0.46339 0.56875 0.61258 0.0
C129 C 0.449 0.60475 0.55439 0.0
C130 C 0.412 0.57856 0.58307 0.0
C131 C 0.56837 0.57176 0.62093 0.0
O132 O 0.54229 0.53043 0.61246 0.0
H133 H 0.47943 0.55225 0.62949 0.0
H134 H 0.45047 0.62211 0.51769 0.0
O135 O 0.50093 0.55128 0.48361 0.0
H136 H 0.60324 0.69214 0.38446 0.0
H137 H 0.37976 0.57206 0.5716 0.0
Cu138 Cu 0.72376 0.91742 0.33741 0.0
N139 N 0.72628 0.96077 0.29102 0.0
N140 N 0.69426 0.99658 0.25876 0.0
C141 C 0.70791 0.98424 0.303 0.0
C142 C 0.70477 0.98138 0.21659 0.0
C143 C 0.72504 0.95982 0.2365 0.0
O144 O 0.69984 0.92154 0.40857 0.0
C145 C 0.71873 0.86566 0.25305 0.0
O146 O 0.75933 0.89697 0.25304 0.0
H147 H 0.69882 0.98707 0.34303 0.0
H148 H 0.73415 0.94151 0.21197 0.0
N149 N 0.77663 0.92088 0.35759 0.0
N150 N 0.80375 0.8845 0.40185 0.0
C151 C 0.7764 0.88336 0.36281 0.0
C152 C 0.8077 0.94777 0.39276 0.0
C153 C 0.82379 0.92506 0.42098 0.0
C154 C 0.72131 0.95802 0.43303 0.0
O155 O 0.75391 0.98986 0.4082 0.0
H156 H 0.7504 0.8534 0.34655 0.0
H157 H 0.81491 0.97993 0.40217 0.0
O158 O 0.69412 0.86528 0.29001 0.0
H159 H 0.69728 0.98458 0.1748 0.0
H160 H 0.84533 0.93627 0.456 0.0
Cu161 Cu 0.19738 0.89483 0.39048 0.0
N162 N 0.15143 0.88613 0.34327 0.0
N163 N 0.09807 0.82623 0.30429 0.0
C164 C 0.11371 0.84892 0.35027 0.0
C165 C 0.12427 0.85165 0.26547 0.0
C166 C 0.15622 0.88901 0.28932 0.0
O167 O 0.16921 0.84652 0.44171 0.0
C168 C 0.25818 0.9223 0.31168 0.0
O169 O 0.25559 0.95713 0.31792 0.0
H170 H 0.10265 0.8348 0.38955 0.0
H171 H 0.18427 0.91345 0.26889 0.0
N172 N 0.22845 0.94938 0.42474 0.0
N173 N 0.28555 0.0136 0.44813 0.0
C174 C 0.27211 0.97457 0.42637 0.0
C175 C 0.21388 0.97293 0.44845 0.0
C176 C 0.24908 0.01233 0.46367 0.0
C177 C 0.15714 0.84988 0.48818 0.0
O178 O 0.17225 0.88821 0.50921 0.0
H179 H 0.29373 0.96506 0.40999 0.0
H180 H 0.18004 0.9628 0.45274 0.0
O181 O 0.23623 0.88958 0.34173 0.0
H182 H 0.12237 0.84266 0.22376 0.0
H183 H 0.24765 0.03897 0.48113 0.0
Cu184 Cu 0.19789 0.40333 0.37209 0.0
N185 N 0.17844 0.38768 0.30121 0.0
N186 N 0.13739 0.37107 0.22661 0.0
C187 C 0.16224 0.40263 0.26216 0.0
C188 C 0.13966 0.33615 0.24232 0.0
C189 C 0.16525 0.34665 0.28786 0.0
O190 O 0.14431 0.37148 0.41513 0.0
C191 C 0.2745 0.40968 0.34286 0.0
O192 O 0.26731 0.43036 0.30341 0.0
H193 H 0.16388 0.43357 0.26363 0.0
H194 H 0.17058 0.32459 0.31278 0.0
N195 N 0.22424 0.46081 0.39652 0.0
N196 N 0.26364 0.47087 0.47261 0.0
C197 C 0.26404 0.47331 0.41847 0.0
C198 C 0.20258 0.46335 0.4385 0.0
C199 C 0.22539 0.4665 0.48555 0.0
C200 C 0.11111 0.37357 0.39765 0.0
O201 O 0.11367 0.39345 0.352 0.0
H202 H 0.2902 0.47534 0.39583 0.0
H203 H 0.16863 0.45362 0.4368 0.0
O204 O 0.24575 0.39093 0.37894 0.0
H205 H 0.12219 0.30462 0.22378 0.0
H206 H 0.21287 0.46122 0.52578 0.0
Cu207 Cu 0.18599 0.3447 0.86647 0.0
N208 N 0.18638 0.31702 0.80532 0.0
N209 N 0.21543 0.3362 0.72448 0.0
C210 C 0.22272 0.34024 0.77784 0.0
C211 C 0.17302 0.30694 0.71739 0.0
C212 C 0.15478 0.29597 0.76777 0.0
O213 O 0.23954 0.35913 0.90566 0.0
C214 C 0.158 0.40609 0.84919 0.0
O215 O 0.14728 0.4022 0.8997 0.0
H216 H 0.25253 0.36504 0.79657 0.0
H217 H 0.12049 0.27936 0.77542 0.0
N218 N 0.13874 0.31443 0.91016 0.0
N219 N 0.09685 0.31579 0.9732 0.0
C220 C 0.1376 0.33157 0.95697 0.0
C221 C 0.09736 0.28469 0.89779 0.0
C222 C 0.07126 0.28493 0.9375 0.0
C223 C 0.24088 0.33073 0.93606 0.0
O224 O 0.20507 0.29423 0.94531 0.0
H225 H 0.16571 0.35914 0.97488 0.0
H226 H 0.08639 0.26747 0.8602 0.0
O227 O 0.18284 0.39284 0.83389 0.0
H228 H 0.1556 0.29861 0.67906 0.0
H229 H 0.03616 0.26732 0.93694 0.0
Cu230 Cu 0.69252 0.87577 0.86297 0.0
N231 N 0.66185 0.82079 0.83103 0.0
N232 N 0.65296 0.75599 0.81135 0.0
C233 C 0.67459 0.79171 0.84151 0.0
C234 C 0.62536 0.76268 0.77979 0.0
C235 C 0.63068 0.80269 0.79236 0.0
O236 O 0.71548 0.86179 0.9296 0.0
C237 C 0.71936 0.91511 0.75567 0.0
O238 O 0.70036 0.87642 0.73468 0.0
H239 H 0.70066 0.79736 0.86959 0.0
H240 H 0.61416 0.81798 0.77337 0.0
N241 N 0.66405 0.9026 0.89274 0.0
N242 N 0.66931 0.96731 0.90137 0.0
C243 C 0.66123 0.93492 0.86738 0.0
C244 C 0.67151 0.91483 0.94502 0.0
C245 C 0.67523 0.9544 0.95021 0.0
C246 C 0.68428 0.83364 0.95843 0.0
O247 O 0.64424 0.8188 0.94072 0.0
H248 H 0.65884 0.93719 0.82415 0.0
H249 H 0.68003 0.89979 0.97716 0.0
O250 O 0.72708 0.91948 0.80682 0.0
H251 H 0.60288 0.74033 0.75008 0.0
H252 H 0.6833 0.97298 0.98685 0.0
Cu253 Cu 0.18409 0.90565 0.87568 0.0
N254 N 0.13909 0.8945 0.82642 0.0
N255 N 0.09812 0.85695 0.75549 0.0
C256 C 0.12282 0.8579 0.79779 0.0
C257 C 0.09815 0.89459 0.75738 0.0
C258 C 0.12388 0.91801 0.80129 0.0
O259 O 0.16764 0.84674 0.89534 0.0
C260 C 0.25123 0.98079 0.83458 0.0
O261 O 0.22595 0.99491 0.85051 0.0
H262 H 0.13256 0.83412 0.80461 0.0
H263 H 0.13325 0.95078 0.81151 0.0
N264 N 0.19102 0.93176 0.94189 0.0
N265 N 0.21692 0.94372 0.02642 0.0
C266 C 0.21471 0.92491 0.97955 0.0
C267 C 0.17785 0.95651 0.9654 0.0
C268 C 0.19423 0.96427 0.01801 0.0
C269 C 0.13625 0.82834 0.92788 0.0
O270 O 0.12861 0.852 0.96022 0.0
H271 H 0.23015 0.90617 0.9723 0.0
H272 H 0.15797 0.96796 0.94597 0.0
O273 O 0.2389 0.94081 0.84033 0.0
H274 H 0.08304 0.90556 0.72755 0.0
H275 H 0.18985 0.98342 0.0475 0.0
Cu276 Cu 0.39929 0.26834 0.70768 0.0
N277 N 0.4146 0.32005 0.66808 0.0
N278 N 0.3874 0.3585 0.62797 0.0
C279 C 0.39271 0.34133 0.67446 0.0
C280 C 0.40757 0.34922 0.59056 0.0
C281 C 0.425 0.32649 0.61538 0.0
O282 O 0.36699 0.26866 0.77199 0.0
C283 C 0.40802 0.22853 0.62098 0.0
O284 O 0.44797 0.25668 0.63588 0.0
H285 H 0.37513 0.33871 0.71026 0.0
H286 H 0.44042 0.31239 0.59397 0.0
N287 N 0.43985 0.25579 0.74166 0.0
N288 N 0.44358 0.20277 0.78669 0.0
C289 C 0.42995 0.21403 0.74161 0.0
C290 C 0.46266 0.27183 0.78804 0.0
C291 C 0.4645 0.2391 0.81613 0.0
C292 C 0.38892 0.30208 0.80192 0.0
O293 O 0.42585 0.33341 0.78414 0.0
H294 H 0.40638 0.19027 0.71411 0.0
H295 H 0.47286 0.30339 0.80383 0.0
O296 O 0.37666 0.22513 0.64884 0.0
H297 H 0.4087 0.3573 0.54822 0.0
H298 H 0.47735 0.24114 0.85667 0.0
Cu299 Cu 0.86166 0.22536 0.69101 0.0
N300 N 0.8589 0.25064 0.62628 0.0
N301 N 0.88732 0.2931 0.55481 0.0
C302 C 0.88813 0.26299 0.58723 0.0
C303 C 0.85549 0.29899 0.57289 0.0
C304 C 0.83811 0.2728 0.61727 0.0
O305 O 0.91886 0.26598 0.72301 0.0
C306 C 0.82457 0.14152 0.64158 0.0
O307 O 0.82997 0.16113 0.59493 0.0
H308 H 0.91194 0.25296 0.58536 0.0
H309 H 0.81479 0.27284 0.64391 0.0
N310 N 0.82127 0.22372 0.73741 0.0
N311 N 0.7649 0.18807 0.79082 0.0
C312 C 0.78036 0.19046 0.74137 0.0
C313 C 0.83125 0.24402 0.78501 0.0
C314 C 0.79656 0.22204 0.81814 0.0
C315 C 0.95496 0.27568 0.70281 0.0
O316 O 0.95587 0.25112 0.66511 0.0
H317 H 0.76481 0.16534 0.71148 0.0
H318 H 0.86317 0.26976 0.79689 0.0
O319 O 0.84267 0.16385 0.6838 0.0
H320 H 0.84733 0.32251 0.55735 0.0
H321 H 0.79602 0.22849 0.86037 0.0
Cu322 Cu 0.8593 0.69634 0.68938 0.0
N323 N 0.82388 0.68839 0.62871 0.0
N324 N 0.79047 0.69069 0.55285 0.0
C325 C 0.82259 0.71397 0.58917 0.0
C326 C 0.77069 0.64955 0.57029 0.0
C327 C 0.79158 0.64826 0.61676 0.0
O328 O 0.81662 0.66343 0.74447 0.0
C329 C 0.91949 0.69657 0.62272 0.0
O330 O 0.90211 0.7123 0.58878 0.0
H331 H 0.84483 0.74841 0.58669 0.0
H332 H 0.784 0.61981 0.6405 0.0
N333 N 0.89602 0.75101 0.72068 0.0
N334 N 0.94663 0.76298 0.78485 0.0
C335 C 0.93632 0.75784 0.7319 0.0
C336 C 0.8847 0.7609 0.76734 0.0
C337 C 0.91521 0.76732 0.80703 0.0
C338 C 0.78815 0.67505 0.74527 0.0
O339 O 0.79166 0.70574 0.71249 0.0
H340 H 0.95369 0.74982 0.70447 0.0
H341 H 0.85289 0.75562 0.77529 0.0
O342 O 0.90034 0.67927 0.66671 0.0
H343 H 0.74354 0.62235 0.55043 0.0
H344 H 0.91121 0.76869 0.84979 0.0
Cu345 Cu 0.84576 0.69744 0.15784 0.0
N346 N 0.8528 0.66658 0.10364 0.0
N347 N 0.89085 0.6629 0.03636 0.0
C348 C 0.89244 0.68131 0.08356 0.0
C349 C 0.84839 0.63453 0.02661 0.0
C350 C 0.82483 0.63717 0.06816 0.0
O351 O 0.8991 0.71736 0.1998 0.0
C352 C 0.81242 0.75429 0.14222 0.0
O353 O 0.81169 0.7558 0.19476 0.0
H354 H 0.92162 0.70796 0.10097 0.0
H355 H 0.78992 0.62138 0.07011 0.0
N356 N 0.80089 0.66843 0.20592 0.0
N357 N 0.76828 0.67546 0.27684 0.0
C358 C 0.80617 0.68515 0.25534 0.0
C359 C 0.75774 0.64578 0.19651 0.0
C360 C 0.73736 0.64947 0.24091 0.0
C361 C 0.90037 0.68752 0.22745 0.0
O362 O 0.86546 0.64924 0.23021 0.0
H363 H 0.83747 0.70917 0.27168 0.0
H364 H 0.7425 0.63228 0.15798 0.0
O365 O 0.83309 0.73838 0.12055 0.0
H366 H 0.8351 0.61549 0.99046 0.0
H367 H 0.70305 0.63792 0.24387 0.0
Cu368 Cu 0.37331 0.21605 0.22931 0.0
N369 N 0.35112 0.16229 0.19705 0.0
N370 N 0.34541 0.09936 0.17681 0.0
C371 C 0.37101 0.13885 0.19772 0.0
C372 C 0.30883 0.09871 0.15953 0.0
C373 C 0.31233 0.13759 0.17255 0.0
O374 O 0.41435 0.22071 0.28834 0.0
C375 C 0.38214 0.25509 0.12183 0.0
O376 O 0.37102 0.21732 0.10161 0.0
H377 H 0.40258 0.14957 0.21639 0.0
H378 H 0.28778 0.14656 0.1666 0.0
N379 N 0.33293 0.2227 0.26813 0.0
N380 N 0.34014 0.28295 0.30316 0.0
C381 C 0.33319 0.25986 0.25811 0.0
C382 C 0.3332 0.21987 0.32242 0.0
C383 C 0.3396 0.25775 0.34409 0.0
C384 C 0.40298 0.18791 0.31959 0.0
O385 O 0.36763 0.15153 0.30759 0.0
H386 H 0.33726 0.27375 0.21821 0.0
H387 H 0.33463 0.19468 0.34502 0.0
O388 O 0.39095 0.26157 0.17243 0.0
H389 H 0.28036 0.07107 0.14241 0.0
H390 H 0.34578 0.26691 0.38604 0.0
Cu391 Cu 0.83696 0.2527 0.17335 0.0
N392 N 0.79908 0.24339 0.11529 0.0
N393 N 0.75023 0.20103 0.05303 0.0
C394 C 0.7837 0.20732 0.08564 0.0
C395 C 0.74442 0.23479 0.06204 0.0
C396 C 0.77441 0.26071 0.10109 0.0
O397 O 0.80797 0.19778 0.20902 0.0
C398 C 0.91717 0.31157 0.1403 0.0
O399 O 0.89746 0.33408 0.13743 0.0
H400 H 0.79572 0.18506 0.08984 0.0
H401 H 0.77656 0.28875 0.11959 0.0
N402 N 0.8464 0.29278 0.22538 0.0
N403 N 0.88642 0.33058 0.29573 0.0
C404 C 0.87183 0.29451 0.26709 0.0
C405 C 0.84377 0.32887 0.22793 0.0
C406 C 0.86854 0.3524 0.27212 0.0
C407 C 0.77545 0.18991 0.23698 0.0
O408 O 0.77149 0.22193 0.25461 0.0
H409 H 0.88203 0.27096 0.27369 0.0
H410 H 0.82813 0.33896 0.19784 0.0
O411 O 0.89521 0.27121 0.15014 0.0
H412 H 0.71953 0.23969 0.04305 0.0
H413 H 0.87467 0.38385 0.28414 0.0
C414 C 0.04783 0.65481 0.37875 0.0
O415 O 0.01876 0.65909 0.40106 0.0
Cd416 Cd 0.98378 0.6949 0.36023 0.0
O417 O 0.05449 0.66319 0.32866 0.0
Cd418 Cd 0.01485 0.68132 0.25449 0.0
C419 C 0.06777 0.78359 0.30149 0.0
O420 O 0.94242 0.66465 0.27946 0.0
O421 O 0.9762 0.71738 0.2226 0.0
O422 O 0.02658 0.65805 0.16495 0.0
C423 C 0.94147 0.69177 0.24626 0.0
O424 O 0.04181 0.76665 0.34016 0.0
C425 C 0.99685 0.61871 0.17103 0.0
O426 O 0.06697 0.7604 0.26247 0.0
O427 O 0.97726 0.60896 0.21526 0.0
C428 C 0.46265 0.46076 0.23039 0.0
O429 O 0.42675 0.44341 0.20422 0.0
Cd430 Cd 0.35425 0.4101 0.23684 0.0
O431 O 0.46283 0.46051 0.2819 0.0
Cd432 Cd 0.40444 0.42856 0.35505 0.0
C433 C 0.35285 0.32549 0.30389 0.0
O434 O 0.34847 0.44131 0.31744 0.0
O435 O 0.3294 0.39946 0.38725 0.0
O436 O 0.44933 0.49752 0.4013 0.0
C437 C 0.31881 0.41693 0.34967 0.0
O438 O 0.34194 0.34089 0.26388 0.0
C439 C 0.45414 0.48206 0.44558 0.0
O440 O 0.37719 0.34978 0.3423 0.0
O441 O 0.43597 0.44112 0.44879 0.0
C442 C 0.59427 0.09074 0.14316 0.0
O443 O 0.62139 0.08589 0.1165 0.0
Cd444 Cd 0.6747 0.06581 0.14647 0.0
O445 O 0.59322 0.08605 0.19391 0.0
Cd446 Cd 0.63405 0.06901 0.26053 0.0
C447 C 0.73618 0.14824 0.2302 0.0
O448 O 0.64816 0.01669 0.21885 0.0
O449 O 0.67539 0.04047 0.29891 0.0
O450 O 0.61153 0.07674 0.34733 0.0
C451 C 0.67218 0.01793 0.25866 0.0
O452 O 0.73396 0.12608 0.1898 0.0
C453 C 0.57797 0.03921 0.34787 0.0
O454 O 0.70324 0.13805 0.25879 0.0
O455 O 0.56916 0.01617 0.30617 0.0
C456 C 0.13078 0.41208 0.80866 0.0
O457 O 0.13831 0.41277 0.75896 0.0
Cd458 Cd 0.08677 0.40354 0.68572 0.0
O459 O 0.09656 0.41091 0.82346 0.0
Cd460 Cd 0.04652 0.42399 0.76984 0.0
C461 C 0.99366 0.31875 0.71261 0.0
O462 O 0.06159 0.45515 0.67943 0.0
O463 O 0.10862 0.49553 0.73942 0.0
O464 O 0.04405 0.45933 0.84934 0.0
C465 C 0.0929 0.492 0.69226 0.0
O466 O 0.02659 0.33059 0.68402 0.0
C467 C 1.00591 0.45286 0.84325 0.0
O468 O 0.99255 0.34555 0.74468 0.0
O469 O 0.9845 0.43188 0.80183 0.0
C470 C 0.75035 0.65551 0.77939 0.0
O471 O 0.75505 0.66361 0.82932 0.0
Cd472 Cd 0.69397 0.65777 0.87806 0.0
O473 O 0.71394 0.64309 0.75579 0.0
Cd474 Cd 0.6384 0.62174 0.77146 0.0
C475 C 0.65812 0.72077 0.81405 0.0
O476 O 0.62935 0.58803 0.86449 0.0
O477 O 0.57701 0.59257 0.82467 0.0
O478 O 0.6003 0.56275 0.70376 0.0
C479 C 0.59111 0.58195 0.86612 0.0
O480 O 0.68034 0.71705 0.85279 0.0
C481 C 0.59438 0.58716 0.67101 0.0
O482 O 0.64002 0.69124 0.77889 0.0
O483 O 0.60913 0.62592 0.6851 0.0
C484 C 0.42989 0.16154 0.80328 0.0
O485 O 0.42836 0.15344 0.85339 0.0
Cd486 Cd 0.39509 0.08335 0.89499 0.0
O487 O 0.41653 0.1311 0.76867 0.0
Cd488 Cd 0.39335 0.05129 0.76688 0.0
C489 C 0.29722 0.01199 0.82772 0.0
O490 O 0.42798 0.0522 0.84981 0.0
O491 O 0.38519 0.98897 0.81628 0.0
O492 O 0.45075 0.05389 0.71427 0.0
C493 C 0.4101 0.01165 0.85432 0.0
O494 O 0.31887 0.03396 0.86872 0.0
C495 C 0.42578 0.02882 0.6776 0.0
O496 O 0.31531 0.01372 0.78362 0.0
O497 O 0.38583 0.01734 0.6794 0.0
C498 C 0.71814 0.95037 0.72392 0.0
O499 O 0.71344 0.97781 0.7495 0.0
Cd500 Cd 0.69375 0.02526 0.70459 0.0
O501 O 0.71515 0.94979 0.67214 0.0
Cd502 Cd 0.70641 0.99799 0.59631 0.0
C503 C 0.78656 0.09771 0.64763 0.0
O504 O 0.63813 0.99097 0.63241 0.0
O505 O 0.66669 0.03818 0.56977 0.0
O506 O 0.68288 0.94154 0.51884 0.0
C507 C 0.63484 0.01715 0.60018 0.0
O508 O 0.76161 0.09065 0.68647 0.0
C509 C 0.71293 0.96771 0.48827 0.0
O510 O 0.7754 0.06963 0.61072 0.0
O511 O 0.7378 1.00485 0.50775 0.0
C512 C 0.11972 0.81247 0.51318 0.0
O513 O 0.09152 0.78212 0.48393 0.0
Cd514 Cd 0.02217 0.7251 0.51799 0.0
O515 O 0.1132 0.81326 0.56299 0.0
Cd516 Cd 0.05813 0.76568 0.62955 0.0
C517 C 0.05697 0.67346 0.60138 0.0
O518 O 0.98825 0.74381 0.58515 0.0
O519 O 0.98724 0.70679 0.65587 0.0
O520 O 0.08757 0.79383 0.71934 0.0
C521 C 0.96631 0.71413 0.61916 0.0
O522 O 0.03255 0.67083 0.56165 0.0
C523 C 0.08256 0.82656 0.71606 0.0
O524 O 0.07678 0.70772 0.62966 0.0
O525 O 0.06468 0.8306 0.67317 0.0
C526 C 0.2893 0.46094 0.50449 0.0
O527 O 0.32566 0.46786 0.48819 0.0
Cd528 Cd 0.37458 0.44846 0.5383 0.0
O529 O 0.27511 0.44104 0.54874 0.0
Cd530 Cd 0.30963 0.41619 0.61647 0.0
C531 C 0.39257 0.51176 0.62818 0.0
O532 O 0.34609 0.37894 0.5754 0.0
O533 O 0.35961 0.39835 0.65942 0.0
O534 O 0.23703 0.35586 0.6373 0.0
C535 C 0.3637 0.3783 0.6208 0.0
O536 O 0.40595 0.48564 0.62194 0.0
C537 C 0.24402 0.36279 0.6876 0.0
O538 O 0.35193 0.49658 0.62481 0.0
O539 O 0.27915 0.39608 0.7027 0.0
C540 C 0.78049 0.75996 0.10964 0.0
O541 O 0.77713 0.75304 0.0594 0.0
Cd542 Cd 0.71814 0.75021 1.00716 0.0
O543 O 0.75345 0.76714 0.13308 0.0
Cd544 Cd 0.6908 0.77981 0.11579 0.0
C545 C 0.62589 0.67405 0.07824 0.0
O546 O 0.72197 0.81665 0.02793 0.0
O547 O 0.65836 0.8046 0.04525 0.0
O548 O 0.73383 0.83829 0.17636 0.0
C549 C 0.68993 0.8206 0.01349 0.0
O550 O 0.65235 0.68587 0.03978 0.0
C551 C 0.70527 0.8342 0.20863 0.0
O552 O 0.63129 0.70073 0.11512 0.0
O553 O 0.6668 0.80389 0.19862 0.0
C554 C 0.3981 0.95554 0.13455 0.0
O555 O 0.41724 0.9794 0.17513 0.0
Cd556 Cd 0.3865 1.0045 0.24217 0.0
O557 O 0.35879 0.9438 0.12207 0.0
Cd558 Cd 0.2995 0.95264 0.15532 0.0
C559 C 0.35127 0.06482 0.18205 0.0
O560 O 0.31265 0.94733 0.24824 0.0
O561 O 0.24832 0.90036 0.22136 0.0
O562 O 0.25912 0.9215 0.07227 0.0
C563 C 0.27468 0.91886 0.26052 0.0
O564 O 0.38244 0.06738 0.21115 0.0
C565 C 0.2401 0.94359 0.07076 0.0
O566 O 0.32268 0.02886 0.16256 0.0
O567 O 0.24579 0.96723 0.111 0.0
C568 C 0.05996 0.46929 0.07852 0.0
O569 O 0.0722 0.48207 0.12632 0.0
Cd570 Cd 0.06079 0.42525 0.18736 0.0
O571 O 0.05254 0.43213 0.06407 0.0
Cd572 Cd 0.06125 0.36968 0.09537 0.0
C573 C 0.96451 0.33506 0.14175 0.0
O574 O 0.11445 0.40649 0.16905 0.0
O575 O 0.08054 0.33657 0.16723 0.0
O576 O 0.11157 0.36909 0.03329 0.0
C577 C 0.11061 0.37151 0.18725 0.0
O578 O 0.98443 0.36948 0.16937 0.0
C579 C 0.08456 0.33332 0.01165 0.0
O580 O 0.98494 0.32357 0.11206 0.0
O581 O 0.04562 0.31557 0.02636 0.0
C582 C 0.37359 0.28544 0.08898 0.0
O583 O 0.36167 0.30857 0.11271 0.0
Cd584 Cd 0.32977 0.34713 0.06658 0.0
O585 O 0.37267 0.28446 0.0374 0.0
Cd586 Cd 0.35914 0.32857 0.96366 0.0
C587 C 0.41684 0.43116 0.02438 0.0
O588 O 0.28518 0.30966 0.98722 0.0
O589 O 0.3174 0.36241 0.931 0.0
O590 O 0.34412 0.27936 0.88194 0.0
C591 C 0.28266 0.33531 0.95334 0.0
O592 O 0.38549 0.42279 0.05439 0.0
C593 C 0.37638 0.30798 0.85636 0.0
O594 O 0.4154 0.40189 0.99443 0.0
O595 O 0.39991 0.34329 0.88092 0.0
C596 C 0.72941 0.15404 0.81252 0.0
O597 O 0.69983 0.12525 0.78288 0.0
Cd598 Cd 0.63651 0.0651 0.82401 0.0
O599 O 0.72737 0.14991 0.86323 0.0
Cd600 Cd 0.68572 0.1029 0.93644 0.0
C601 C 0.67122 1.00541 0.8901 0.0
O602 O 0.61245 0.08054 0.90717 0.0
O603 O 0.62196 0.04886 0.97796 0.0
O604 O 0.73613 0.13741 0.01382 0.0
C605 C 0.5962 0.05204 0.94444 0.0
O606 O 0.65205 1.00862 0.84779 0.0
C607 C 0.72744 0.16759 0.01839 0.0
O608 O 0.68838 0.03586 0.92481 0.0
O609 O 0.69747 0.16587 0.9878 0.0
C610 C 0.97265 0.75016 0.81069 0.0
O611 O 0.99587 0.74013 0.78365 0.0
Cd612 Cd 0.0394 0.71083 0.82211 0.0
O613 O 0.96908 0.74242 0.86098 0.0
Cd614 Cd 0.99437 0.70704 0.92815 0.0
C615 C 0.09918 0.78622 0.91418 0.0
O616 O 1.00129 0.65109 0.88254 0.0
O617 O 0.03591 0.6742 0.95908 0.0
O618 O 0.96277 0.7053 0.0154 0.0
C619 C 0.02437 0.64786 0.92047 0.0
O620 O 0.10004 0.76769 0.87164 0.0
C621 C 0.92457 0.67539 1.00269 0.0
O622 O 0.06411 0.77299 0.93953 0.0
O623 O 0.91897 0.65937 0.95609 0.0
C624 C 0.48362 0.11855 0.49858 0.0
O625 O 0.47893 0.10538 0.45038 0.0
Cd626 Cd 0.42662 0.10323 0.38392 0.0
O627 O 0.4604 0.13348 0.51605 0.0
Cd628 Cd 0.40407 0.15372 0.48369 0.0
C629 C 0.32641 0.04867 0.44652 0.0
O630 O 0.4357 0.17293 0.39572 0.0
O631 O 0.39578 0.19932 0.41055 0.0
O632 O 0.43722 0.2091 0.55016 0.0
C633 C 0.41749 0.19285 0.37646 0.0
O634 O 0.35373 0.04844 0.41482 0.0
C635 C 0.40329 0.20221 0.57381 0.0
O636 O 0.33615 0.08229 0.47377 0.0
O637 O 0.36731 0.17225 0.5552 0.0
C638 C 0.07328 0.363 0.4308 0.0
O639 O 0.07441 0.35723 0.48114 0.0
Cd640 Cd 0.01928 0.36092 0.53209 0.0
O641 O 0.04198 0.36619 0.40912 0.0
Cd642 Cd 0.97092 0.36237 0.42958 0.0
C643 C 0.0262 0.45644 0.48862 0.0
O644 O 0.94585 0.30906 0.50337 0.0
O645 O 0.91617 0.3487 0.49434 0.0
O646 O 0.92966 0.31796 0.35411 0.0
C647 C 0.91619 0.31661 0.51643 0.0
O648 O 0.03447 0.43587 0.52495 0.0
C649 C 0.91524 0.3423 0.33762 0.0
O650 O 1.00534 0.43808 0.446 0.0
O651 O 0.9287 0.37758 0.3621 0.0
C652 C 0.79826 0.84835 0.42721 0.0
O653 O 0.80162 0.84803 0.47815 0.0
Cd654 Cd 0.76815 0.78142 0.52795 0.0
O655 O 0.78221 0.81326 0.40065 0.0
Cd656 Cd 0.756 0.73552 0.41401 0.0
C657 C 0.66575 0.72281 0.46755 0.0
O658 O 0.80084 0.74429 0.49383 0.0
O659 O 0.74575 0.68061 0.48021 0.0
O660 O 0.79663 0.72439 0.34564 0.0
C661 C 0.77976 0.70505 0.50761 0.0
O662 O 0.68839 0.73806 0.51076 0.0
C663 C 0.76375 0.69464 0.32077 0.0
O664 O 0.68372 0.72341 0.42401 0.0
O665 O 0.72676 0.68484 0.33774 0.0
loop_
_geom_bond_atom_site_label_1
_geom_bond_atom_site_label_2
_geom_bond_distance
_geom_bond_site_symmetry_2
_ccdc_geom_bond_type
Cu0 N1 1.999 . S
Cu0 O6 1.974 1_554 S
Cu0 N11 1.985 1_554 S
Cu0 O20 1.959 . S
N1 Cu0 1.999 . S
N1 C3 1.263 . S
N1 C5 1.389 . S
N2 C3 1.358 . S
N2 C4 1.400 . S
C3 N1 1.263 . S
C3 N2 1.358 . S
C3 H9 0.930 . S
C4 N2 1.400 . S
C4 C5 1.351 . S
C4 H21 0.930 . S
C5 N1 1.389 . S
C5 C4 1.351 . S
C5 H10 0.930 . S
O6 Cu0 1.974 1_556 S
O6 C16 1.282 . S
C7 O8 1.261 1_455 S
C7 O20 1.251 . S
O8 C7 1.261 1_655 S
H9 C3 0.930 . S
H10 C5 0.930 . S
N11 Cu0 1.985 1_556 S
N11 C13 1.335 . S
N11 C14 1.390 . S
N12 C13 1.345 . S
N12 C15 1.336 . S
C13 N11 1.335 . S
C13 N12 1.345 . S
C13 H18 0.930 . S
C14 N11 1.390 . S
C14 C15 1.346 . S
C14 H19 0.930 . S
C15 N12 1.336 . S
C15 C14 1.346 . S
C15 H22 0.929 . S
C16 O6 1.282 . S
C16 O17 1.216 1_455 S
O17 C16 1.216 1_655 S
H18 C13 0.930 . S
H19 C14 0.930 . S
O20 Cu0 1.959 . S
O20 C7 1.251 . S
H21 C4 0.930 . S
H22 C15 0.929 . S
Cu23 N24 1.999 1_554 S
Cu23 O29 1.974 . S
Cu23 N34 1.985 . S
Cu23 O43 1.959 1_554 S
N24 Cu23 1.999 1_556 S
N24 C26 1.263 . S
N24 C28 1.389 . S
N25 C26 1.358 . S
N25 C27 1.400 . S
C26 N24 1.263 . S
C26 N25 1.358 . S
C26 H32 0.930 . S
C27 N25 1.400 . S
C27 C28 1.351 . S
C27 H44 0.930 . S
C28 N24 1.389 . S
C28 C27 1.351 . S
C28 H33 0.930 . S
O29 Cu23 1.974 . S
O29 C39 1.282 . S
C30 O31 1.261 1_556 S
C30 O43 1.251 . S
O31 C30 1.261 1_554 S
H32 C26 0.930 . S
H33 C28 0.930 . S
N34 Cu23 1.985 . S
N34 C36 1.335 . S
N34 C37 1.390 . S
N35 C36 1.345 . S
N35 C38 1.336 . S
C36 N34 1.335 . S
C36 N35 1.345 . S
C36 H41 0.930 . S
C37 N34 1.390 . S
C37 C38 1.346 . S
C37 H42 0.930 . S
C38 N35 1.336 . S
C38 C37 1.346 . S
C38 H45 0.929 . S
C39 O29 1.282 . S
C39 O40 1.216 . S
O40 C39 1.216 . S
H41 C36 0.930 . S
H42 C37 0.930 . S
O43 Cu23 1.959 1_556 S
O43 C30 1.251 . S
H44 C27 0.930 . S
H45 C38 0.929 . S
Cu46 N47 1.999 1_554 S
Cu46 O52 1.974 . S
Cu46 N57 1.985 1_565 S
Cu46 O66 1.963 1_565 S
N47 Cu46 1.999 1_556 S
N47 C49 1.263 . S
N47 C51 1.389 . S
N48 C49 1.358 . S
N48 C50 1.400 . S
C49 N47 1.263 . S
C49 N48 1.358 . S
C49 H55 0.930 1_565 S
C50 N48 1.400 . S
C50 C51 1.351 . S
C50 H67 0.930 . S
C51 N47 1.389 . S
C51 C50 1.351 . S
C51 H56 0.930 . S
O52 Cu46 1.974 . S
O52 C62 1.282 1_565 S
C53 O54 1.261 . S
C53 O66 1.250 1_556 S
O54 C53 1.261 . S
H55 C49 0.930 1_545 S
H56 C51 0.930 . S
N57 Cu46 1.985 1_545 S
N57 C59 1.335 . S
N57 C60 1.390 . S
N58 C59 1.345 . S
N58 C61 1.336 . S
C59 N57 1.335 . S
C59 N58 1.345 . S
C59 H64 0.930 1_545 S
C60 N57 1.390 . S
C60 C61 1.346 . S
C60 H65 0.930 . S
C61 N58 1.336 . S
C61 C60 1.346 . S
C61 H68 0.929 . S
C62 O52 1.282 1_545 S
C62 O63 1.216 . S
O63 C62 1.216 . S
H64 C59 0.930 1_565 S
H65 C60 0.930 . S
O66 Cu46 1.963 1_545 S
O66 C53 1.250 1_554 S
H67 C50 0.930 . S
H68 C61 0.929 . S
Cu69 N70 1.999 . S
Cu69 O75 1.974 . S
Cu69 N80 1.985 . S
Cu69 O89 1.959 . S
N70 Cu69 1.999 . S
N70 C72 1.263 . S
N70 C74 1.389 . S
N71 C72 1.358 . S
N71 C73 1.400 . S
C72 N70 1.263 . S
C72 N71 1.358 . S
C72 H78 0.930 . S
C73 N71 1.400 . S
C73 C74 1.351 . S
C73 H90 0.930 . S
C74 N70 1.389 . S
C74 C73 1.351 . S
C74 H79 0.930 . S
O75 Cu69 1.974 . S
O75 C85 1.282 1_545 S
C76 O77 1.261 . S
C76 O89 1.251 . S
O77 C76 1.261 . S
H78 C72 0.930 . S
H79 C74 0.930 . S
N80 Cu69 1.985 . S
N80 C82 1.335 . S
N80 C83 1.390 1_545 S
N81 C82 1.345 . S
N81 C84 1.336 1_545 S
C82 N80 1.335 . S
C82 N81 1.345 . S
C82 H87 0.930 . S
C83 N80 1.390 1_565 S
C83 C84 1.346 . S
C83 H88 0.930 . S
C84 N81 1.336 1_565 S
C84 C83 1.346 . S
C84 H91 0.929 . S
C85 O75 1.282 1_565 S
C85 O86 1.216 . S
O86 C85 1.216 . S
H87 C82 0.930 . S
H88 C83 0.930 . S
O89 Cu69 1.959 . S
O89 C76 1.251 . S
H90 C73 0.930 . S
H91 C84 0.929 . S
Cu92 N93 1.999 . S
Cu92 O98 1.974 . S
Cu92 N103 1.985 . S
Cu92 O112 1.959 . S
N93 Cu92 1.999 . S
N93 C95 1.263 . S
N93 C97 1.389 . S
N94 C95 1.358 . S
N94 C96 1.400 . S
C95 N93 1.263 . S
C95 N94 1.358 . S
C95 H101 0.930 . S
C96 N94 1.400 . S
C96 C97 1.351 . S
C96 H113 0.930 . S
C97 N93 1.389 . S
C97 C96 1.351 . S
C97 H102 0.930 1_455 S
O98 Cu92 1.974 . S
O98 C108 1.282 . S
C99 O100 1.261 . S
C99 O112 1.251 . S
O100 C99 1.261 . S
H101 C95 0.930 . S
H102 C97 0.930 1_655 S
N103 Cu92 1.985 . S
N103 C105 1.335 . S
N103 C106 1.390 . S
N104 C105 1.345 . S
N104 C107 1.336 . S
C105 N103 1.335 . S
C105 N104 1.345 . S
C105 H110 0.930 . S
C106 N103 1.390 . S
C106 C107 1.346 . S
C106 H111 0.930 . S
C107 N104 1.336 . S
C107 C106 1.346 . S
C107 H114 0.929 . S
C108 O98 1.282 . S
C108 O109 1.216 . S
O109 C108 1.216 . S
H110 C105 0.930 . S
H111 C106 0.930 . S
O112 Cu92 1.959 . S
O112 C99 1.251 . S
H113 C96 0.930 . S
H114 C107 0.929 . S
Cu115 N116 1.999 . S
Cu115 O121 1.974 . S
Cu115 N126 1.985 . S
Cu115 O135 1.959 . S
N116 Cu115 1.999 . S
N116 C118 1.263 . S
N116 C120 1.389 . S
N117 C118 1.358 . S
N117 C119 1.400 . S
C118 N116 1.263 . S
C118 N117 1.358 . S
C118 H124 0.930 . S
C119 N117 1.400 . S
C119 C120 1.351 . S
C119 H136 0.930 . S
C120 N116 1.389 . S
C120 C119 1.351 . S
C120 H125 0.930 . S
O121 Cu115 1.974 . S
O121 C131 1.282 . S
C122 O123 1.261 . S
C122 O135 1.251 . S
O123 C122 1.261 . S
H124 C118 0.930 . S
H125 C120 0.930 . S
N126 Cu115 1.985 . S
N126 C128 1.335 . S
N126 C129 1.390 . S
N127 C128 1.345 . S
N127 C130 1.336 . S
C128 N126 1.335 . S
C128 N127 1.345 . S
C128 H133 0.930 . S
C129 N126 1.390 . S
C129 C130 1.346 . S
C129 H134 0.930 . S
C130 N127 1.336 . S
C130 C129 1.346 . S
C130 H137 0.929 . S
C131 O121 1.282 . S
C131 O132 1.216 . S
O132 C131 1.216 . S
H133 C128 0.930 . S
H134 C129 0.930 . S
O135 Cu115 1.959 . S
O135 C122 1.251 . S
H136 C119 0.930 . S
H137 C130 0.929 . S
Cu138 N139 1.999 . S
Cu138 O144 1.974 . S
Cu138 N149 1.985 . S
Cu138 O158 1.959 . S
N139 Cu138 1.999 . S
N139 C141 1.263 . S
N139 C143 1.389 . S
N140 C141 1.358 . S
N140 C142 1.400 . S
C141 N139 1.263 . S
C141 N140 1.358 . S
C141 H147 0.930 . S
C142 N140 1.400 . S
C142 C143 1.351 . S
C142 H159 0.930 . S
C143 N139 1.389 . S
C143 C142 1.351 . S
C143 H148 0.930 . S
O144 Cu138 1.974 . S
O144 C154 1.282 . S
C145 O146 1.261 . S
C145 O158 1.251 . S
O146 C145 1.261 . S
H147 C141 0.930 . S
H148 C143 0.930 . S
N149 Cu138 1.985 . S
N149 C151 1.335 . S
N149 C152 1.390 . S
N150 C151 1.345 . S
N150 C153 1.336 . S
C151 N149 1.335 . S
C151 N150 1.345 . S
C151 H156 0.930 . S
C152 N149 1.390 . S
C152 C153 1.346 . S
C152 H157 0.930 . S
C153 N150 1.336 . S
C153 C152 1.346 . S
C153 H160 0.929 . S
C154 O144 1.282 . S
C154 O155 1.216 . S
O155 C154 1.216 . S
H156 C151 0.930 . S
H157 C152 0.930 . S
O158 Cu138 1.959 . S
O158 C145 1.251 . S
H159 C142 0.930 . S
H160 C153 0.929 . S
Cu161 N162 1.999 . S
Cu161 O167 1.974 . S
Cu161 N172 1.985 . S
Cu161 O181 1.959 . S
N162 Cu161 1.999 . S
N162 C164 1.263 . S
N162 C166 1.389 . S
N163 C164 1.358 . S
N163 C165 1.400 . S
C164 N162 1.263 . S
C164 N163 1.358 . S
C164 H170 0.930 . S
C165 N163 1.400 . S
C165 C166 1.351 . S
C165 H182 0.930 . S
C166 N162 1.389 . S
C166 C165 1.351 . S
C166 H171 0.930 . S
O167 Cu161 1.974 . S
O167 C177 1.282 . S
C168 O169 1.261 . S
C168 O181 1.251 . S
O169 C168 1.261 . S
H170 C164 0.930 . S
H171 C166 0.930 . S
N172 Cu161 1.985 . S
N172 C174 1.335 . S
N172 C175 1.390 . S
N173 C174 1.345 1_545 S
N173 C176 1.336 1_545 S
C174 N172 1.335 . S
C174 N173 1.345 1_565 S
C174 H179 0.930 . S
C175 N172 1.390 . S
C175 C176 1.346 . S
C175 H180 0.930 . S
C176 N173 1.336 1_565 S
C176 C175 1.346 . S
C176 H183 0.929 1_565 S
C177 O167 1.282 . S
C177 O178 1.216 . S
O178 C177 1.216 . S
H179 C174 0.930 . S
H180 C175 0.930 . S
O181 Cu161 1.959 . S
O181 C168 1.251 . S
H182 C165 0.930 . S
H183 C176 0.929 1_545 S
Cu184 N185 1.999 . S
Cu184 O190 1.974 . S
Cu184 N195 1.985 . S
Cu184 O204 1.959 . S
N185 Cu184 1.999 . S
N185 C187 1.263 . S
N185 C189 1.389 . S
N186 C187 1.358 . S
N186 C188 1.400 . S
C187 N185 1.263 . S
C187 N186 1.358 . S
C187 H193 0.930 . S
C188 N186 1.400 . S
C188 C189 1.351 . S
C188 H205 0.930 . S
C189 N185 1.389 . S
C189 C188 1.351 . S
C189 H194 0.930 . S
O190 Cu184 1.974 . S
O190 C200 1.282 . S
C191 O192 1.261 . S
C191 O204 1.251 . S
O192 C191 1.261 . S
H193 C187 0.930 . S
H194 C189 0.930 . S
N195 Cu184 1.985 . S
N195 C197 1.335 . S
N195 C198 1.390 . S
N196 C197 1.345 . S
N196 C199 1.336 . S
C197 N195 1.335 . S
C197 N196 1.345 . S
C197 H202 0.930 . S
C198 N195 1.390 . S
C198 C199 1.346 . S
C198 H203 0.930 . S
C199 N196 1.336 . S
C199 C198 1.346 . S
C199 H206 0.929 . S
C200 O190 1.282 . S
C200 O201 1.216 . S
O201 C200 1.216 . S
H202 C197 0.930 . S
H203 C198 0.930 . S
O204 Cu184 1.959 . S
O204 C191 1.251 . S
H205 C188 0.930 . S
H206 C199 0.929 . S
Cu207 N208 1.999 . S
Cu207 O213 1.974 . S
Cu207 N218 1.985 . S
Cu207 O227 1.959 . S
N208 Cu207 1.999 . S
N208 C210 1.263 . S
N208 C212 1.389 . S
N209 C210 1.358 . S
N209 C211 1.400 . S
C210 N208 1.263 . S
C210 N209 1.358 . S
C210 H216 0.930 . S
C211 N209 1.400 . S
C211 C212 1.351 . S
C211 H228 0.930 . S
C212 N208 1.389 . S
C212 C211 1.351 . S
C212 H217 0.930 . S
O213 Cu207 1.974 . S
O213 C223 1.282 . S
C214 O215 1.261 . S
C214 O227 1.251 . S
O215 C214 1.261 . S
H216 C210 0.930 . S
H217 C212 0.930 . S
N218 Cu207 1.985 . S
N218 C220 1.335 . S
N218 C221 1.390 . S
N219 C220 1.345 1_554 S
N219 C222 1.336 . S
C220 N218 1.335 . S
C220 N219 1.345 1_556 S
C220 H225 0.930 . S
C221 N218 1.390 . S
C221 C222 1.346 1_556 S
C221 H226 0.930 . S
C222 N219 1.336 . S
C222 C221 1.346 1_554 S
C222 H229 0.929 . S
C223 O213 1.282 . S
C223 O224 1.216 . S
O224 C223 1.216 . S
H225 C220 0.930 . S
H226 C221 0.930 . S
O227 Cu207 1.959 . S
O227 C214 1.251 . S
H228 C211 0.930 . S
H229 C222 0.929 . S
Cu230 N231 1.999 . S
Cu230 O236 1.974 . S
Cu230 N241 1.985 . S
Cu230 O250 1.959 . S
N231 Cu230 1.999 . S
N231 C233 1.263 . S
N231 C235 1.389 . S
N232 C233 1.358 . S
N232 C234 1.400 . S
C233 N231 1.263 . S
C233 N232 1.358 . S
C233 H239 0.930 . S
C234 N232 1.400 . S
C234 C235 1.351 . S
C234 H251 0.930 . S
C235 N231 1.389 . S
C235 C234 1.351 . S
C235 H240 0.930 . S
O236 Cu230 1.974 . S
O236 C246 1.282 . S
C237 O238 1.261 . S
C237 O250 1.251 . S
O238 C237 1.261 . S
H239 C233 0.930 . S
H240 C235 0.930 . S
N241 Cu230 1.985 . S
N241 C243 1.335 . S
N241 C244 1.390 . S
N242 C243 1.345 1_545 S
N242 C245 1.336 1_545 S
C243 N241 1.335 . S
C243 N242 1.345 1_565 S
C243 H248 0.930 . S
C244 N241 1.390 . S
C244 C245 1.346 . S
C244 H249 0.930 . S
C245 N242 1.336 1_565 S
C245 C244 1.346 . S
C245 H252 0.929 . S
C246 O236 1.282 . S
C246 O247 1.216 . S
O247 C246 1.216 . S
H248 C243 0.930 . S
H249 C244 0.930 . S
O250 Cu230 1.959 . S
O250 C237 1.251 . S
H251 C234 0.930 . S
H252 C245 0.929 . S
Cu253 N254 1.999 . S
Cu253 O259 1.974 . S
Cu253 N264 1.985 . S
Cu253 O273 1.959 . S
N254 Cu253 1.999 . S
N254 C256 1.263 . S
N254 C258 1.389 . S
N255 C256 1.358 . S
N255 C257 1.400 . S
C256 N254 1.263 . S
C256 N255 1.358 . S
C256 H262 0.930 . S
C257 N255 1.400 . S
C257 C258 1.351 . S
C257 H274 0.930 . S
C258 N254 1.389 . S
C258 C257 1.351 . S
C258 H263 0.930 . S
O259 Cu253 1.974 . S
O259 C269 1.282 . S
C260 O261 1.261 . S
C260 O273 1.251 . S
O261 C260 1.261 . S
H262 C256 0.930 . S
H263 C258 0.930 . S
N264 Cu253 1.985 . S
N264 C266 1.335 . S
N264 C267 1.390 . S
N265 C266 1.345 . S
N265 C268 1.336 1_556 S
C266 N264 1.335 . S
C266 N265 1.345 . S
C266 H271 0.930 . S
C267 N264 1.390 . S
C267 C268 1.346 1_556 S
C267 H272 0.930 . S
C268 N265 1.336 1_554 S
C268 C267 1.346 1_554 S
C268 H275 0.929 . S
C269 O259 1.282 . S
C269 O270 1.216 . S
O270 C269 1.216 . S
H271 C266 0.930 . S
H272 C267 0.930 . S
O273 Cu253 1.959 . S
O273 C260 1.251 . S
H274 C257 0.930 . S
H275 C268 0.929 . S
Cu276 N277 1.999 . S
Cu276 O282 1.974 . S
Cu276 N287 1.985 . S
Cu276 O296 1.959 . S
N277 Cu276 1.999 . S
N277 C279 1.263 . S
N277 C281 1.389 . S
N278 C279 1.358 . S
N278 C280 1.400 . S
C279 N277 1.263 . S
C279 N278 1.358 . S
C279 H285 0.930 . S
C280 N278 1.400 . S
C280 C281 1.351 . S
C280 H297 0.930 . S
C281 N277 1.389 . S
C281 C280 1.351 . S
C281 H286 0.930 . S
O282 Cu276 1.974 . S
O282 C292 1.282 . S
C283 O284 1.261 . S
C283 O296 1.251 . S
O284 C283 1.261 . S
H285 C279 0.930 . S
H286 C281 0.930 . S
N287 Cu276 1.985 . S
N287 C289 1.335 . S
N287 C290 1.390 . S
N288 C289 1.345 . S
N288 C291 1.336 . S
C289 N287 1.335 . S
C289 N288 1.345 . S
C289 H294 0.930 . S
C290 N287 1.390 . S
C290 C291 1.346 . S
C290 H295 0.930 . S
C291 N288 1.336 . S
C291 C290 1.346 . S
C291 H298 0.929 . S
C292 O282 1.282 . S
C292 O293 1.216 . S
O293 C292 1.216 . S
H294 C289 0.930 . S
H295 C290 0.930 . S
O296 Cu276 1.959 . S
O296 C283 1.251 . S
H297 C280 0.930 . S
H298 C291 0.929 . S
Cu299 N300 1.999 . S
Cu299 O305 1.974 . S
Cu299 N310 1.985 . S
Cu299 O319 1.959 . S
N300 Cu299 1.999 . S
N300 C302 1.263 . S
N300 C304 1.389 . S
N301 C302 1.358 . S
N301 C303 1.400 . S
C302 N300 1.263 . S
C302 N301 1.358 . S
C302 H308 0.930 . S
C303 N301 1.400 . S
C303 C304 1.351 . S
C303 H320 0.930 . S
C304 N300 1.389 . S
C304 C303 1.351 . S
C304 H309 0.930 . S
O305 Cu299 1.974 . S
O305 C315 1.282 . S
C306 O307 1.261 . S
C306 O319 1.251 . S
O307 C306 1.261 . S
H308 C302 0.930 . S
H309 C304 0.930 . S
N310 Cu299 1.985 . S
N310 C312 1.335 . S
N310 C313 1.390 . S
N311 C312 1.345 . S
N311 C314 1.336 . S
C312 N310 1.335 . S
C312 N311 1.345 . S
C312 H317 0.930 . S
C313 N310 1.390 . S
C313 C314 1.346 . S
C313 H318 0.930 . S
C314 N311 1.336 . S
C314 C313 1.346 . S
C314 H321 0.929 . S
C315 O305 1.282 . S
C315 O316 1.216 . S
O316 C315 1.216 . S
H317 C312 0.930 . S
H318 C313 0.930 . S
O319 Cu299 1.959 . S
O319 C306 1.251 . S
H320 C303 0.930 . S
H321 C314 0.929 . S
Cu322 N323 1.999 . S
Cu322 O328 1.974 . S
Cu322 N333 1.985 . S
Cu322 O342 1.959 . S
N323 Cu322 1.999 . S
N323 C325 1.263 . S
N323 C327 1.389 . S
N324 C325 1.358 . S
N324 C326 1.400 . S
C325 N323 1.263 . S
C325 N324 1.358 . S
C325 H331 0.930 . S
C326 N324 1.400 . S
C326 C327 1.351 . S
C326 H343 0.930 . S
C327 N323 1.389 . S
C327 C326 1.351 . S
C327 H332 0.930 . S
O328 Cu322 1.974 . S
O328 C338 1.282 . S
C329 O330 1.261 . S
C329 O342 1.251 . S
O330 C329 1.261 . S
H331 C325 0.930 . S
H332 C327 0.930 . S
N333 Cu322 1.985 . S
N333 C335 1.335 . S
N333 C336 1.390 . S
N334 C335 1.345 . S
N334 C337 1.336 . S
C335 N333 1.335 . S
C335 N334 1.345 . S
C335 H340 0.930 . S
C336 N333 1.390 . S
C336 C337 1.346 . S
C336 H341 0.930 . S
C337 N334 1.336 . S
C337 C336 1.346 . S
C337 H344 0.929 . S
C338 O328 1.282 . S
C338 O339 1.216 . S
O339 C338 1.216 . S
H340 C335 0.930 . S
H341 C336 0.930 . S
O342 Cu322 1.959 . S
O342 C329 1.251 . S
H343 C326 0.930 . S
H344 C337 0.929 . S
Cu345 N346 1.999 . S
Cu345 O351 1.974 . S
Cu345 N356 1.985 . S
Cu345 O365 1.959 . S
N346 Cu345 1.999 . S
N346 C348 1.263 . S
N346 C350 1.389 . S
N347 C348 1.358 . S
N347 C349 1.400 . S
C348 N346 1.263 . S
C348 N347 1.358 . S
C348 H354 0.930 . S
C349 N347 1.400 . S
C349 C350 1.351 . S
C349 H366 0.930 1_554 S
C350 N346 1.389 . S
C350 C349 1.351 . S
C350 H355 0.930 . S
O351 Cu345 1.974 . S
O351 C361 1.282 . S
C352 O353 1.261 . S
C352 O365 1.251 . S
O353 C352 1.261 . S
H354 C348 0.930 . S
H355 C350 0.930 . S
N356 Cu345 1.985 . S
N356 C358 1.335 . S
N356 C359 1.390 . S
N357 C358 1.345 . S
N357 C360 1.336 . S
C358 N356 1.335 . S
C358 N357 1.345 . S
C358 H363 0.930 . S
C359 N356 1.390 . S
C359 C360 1.346 . S
C359 H364 0.930 . S
C360 N357 1.336 . S
C360 C359 1.346 . S
C360 H367 0.929 . S
C361 O351 1.282 . S
C361 O362 1.216 . S
O362 C361 1.216 . S
H363 C358 0.930 . S
H364 C359 0.930 . S
O365 Cu345 1.959 . S
O365 C352 1.251 . S
H366 C349 0.930 1_556 S
H367 C360 0.929 . S
Cu368 N369 1.999 . S
Cu368 O374 1.974 . S
Cu368 N379 1.985 . S
Cu368 O388 1.959 . S
N369 Cu368 1.999 . S
N369 C371 1.263 . S
N369 C373 1.389 . S
N370 C371 1.358 . S
N370 C372 1.400 . S
C371 N369 1.263 . S
C371 N370 1.358 . S
C371 H377 0.930 . S
C372 N370 1.400 . S
C372 C373 1.351 . S
C372 H389 0.930 . S
C373 N369 1.389 . S
C373 C372 1.351 . S
C373 H378 0.930 . S
O374 Cu368 1.974 . S
O374 C384 1.282 . S
C375 O376 1.261 . S
C375 O388 1.251 . S
O376 C375 1.261 . S
H377 C371 0.930 . S
H378 C373 0.930 . S
N379 Cu368 1.985 . S
N379 C381 1.335 . S
N379 C382 1.390 . S
N380 C381 1.345 . S
N380 C383 1.336 . S
C381 N379 1.335 . S
C381 N380 1.345 . S
C381 H386 0.930 . S
C382 N379 1.390 . S
C382 C383 1.346 . S
C382 H387 0.930 . S
C383 N380 1.336 . S
C383 C382 1.346 . S
C383 H390 0.929 . S
C384 O374 1.282 . S
C384 O385 1.216 . S
O385 C384 1.216 . S
H386 C381 0.930 . S
H387 C382 0.930 . S
O388 Cu368 1.959 . S
O388 C375 1.251 . S
H389 C372 0.930 . S
H390 C383 0.929 . S
Cu391 N392 1.999 . S
Cu391 O397 1.974 . S
Cu391 N402 1.985 . S
Cu391 O411 1.959 . S
N392 Cu391 1.999 . S
N392 C394 1.263 . S
N392 C396 1.389 . S
N393 C394 1.358 . S
N393 C395 1.400 . S
C394 N392 1.263 . S
C394 N393 1.358 . S
C394 H400 0.930 . S
C395 N393 1.400 . S
C395 C396 1.351 . S
C395 H412 0.930 1_554 S
C396 N392 1.389 . S
C396 C395 1.351 . S
C396 H401 0.930 . S
O397 Cu391 1.974 . S
O397 C407 1.282 . S
C398 O399 1.261 . S
C398 O411 1.251 . S
O399 C398 1.261 . S
H400 C394 0.930 . S
H401 C396 0.930 . S
N402 Cu391 1.985 . S
N402 C404 1.335 . S
N402 C405 1.390 . S
N403 C404 1.345 . S
N403 C406 1.336 . S
C404 N402 1.335 . S
C404 N403 1.345 . S
C404 H409 0.930 . S
C405 N402 1.390 . S
C405 C406 1.346 . S
C405 H410 0.930 . S
C406 N403 1.336 . S
C406 C405 1.346 . S
C406 H413 0.929 . S
C407 O397 1.282 . S
C407 O408 1.216 . S
O408 C407 1.216 . S
H409 C404 0.930 . S
H410 C405 0.930 . S
O411 Cu391 1.959 . S
O411 C398 1.251 . S
H412 C395 0.930 1_556 S
H413 C406 0.929 . S
C414 O415 1.306 1_455 S
C414 O417 1.160 . S
O415 C414 1.306 1_655 S
O415 Cd416 2.228 . S
Cd416 O415 2.228 . S
Cd416 O420 2.273 . S
Cd416 O424 2.277 1_655 S
O417 C414 1.160 . S
O417 Cd418 2.203 . S
Cd418 O417 2.203 . S
Cd418 O420 2.411 1_455 S
Cd418 O421 2.333 1_455 S
Cd418 O422 2.352 1_455 S
Cd418 O426 2.277 . S
Cd418 O427 2.356 . S
C419 O424 1.209 . S
C419 O426 1.226 . S
O420 Cd416 2.273 . S
O420 Cd418 2.411 1_655 S
O420 C423 1.320 . S
O421 Cd418 2.333 1_655 S
O421 C423 1.214 . S
O422 Cd418 2.352 1_655 S
O422 C425 1.258 1_655 S
C423 O420 1.320 . S
C423 O421 1.214 . S
O424 Cd416 2.277 1_455 S
O424 C419 1.209 . S
C425 O422 1.258 1_455 S
C425 O427 1.282 . S
O426 Cd418 2.277 . S
O426 C419 1.226 . S
O427 Cd418 2.356 . S
O427 C425 1.282 . S
C428 O429 1.306 . S
C428 O431 1.160 . S
O429 C428 1.306 . S
O429 Cd430 2.228 . S
Cd430 O429 2.228 . S
Cd430 O434 2.273 . S
Cd430 O438 2.277 . S
O431 C428 1.160 . S
O431 Cd432 2.203 . S
Cd432 O431 2.203 . S
Cd432 O434 2.411 . S
Cd432 O435 2.333 . S
Cd432 O436 2.352 . S
Cd432 O440 2.277 . S
Cd432 O441 2.356 . S
C433 O438 1.209 . S
C433 O440 1.226 . S
O434 Cd430 2.273 . S
O434 Cd432 2.411 . S
O434 C437 1.320 . S
O435 Cd432 2.333 . S
O435 C437 1.214 . S
O436 Cd432 2.352 . S
O436 C439 1.258 . S
C437 O434 1.320 . S
C437 O435 1.214 . S
O438 Cd430 2.277 . S
O438 C433 1.209 . S
C439 O436 1.258 . S
C439 O441 1.282 . S
O440 Cd432 2.277 . S
O440 C433 1.226 . S
O441 Cd432 2.356 . S
O441 C439 1.282 . S
C442 O443 1.306 . S
C442 O445 1.160 . S
O443 C442 1.306 . S
O443 Cd444 2.228 . S
Cd444 O443 2.228 . S
Cd444 O448 2.273 . S
Cd444 O452 2.277 . S
O445 C442 1.160 . S
O445 Cd446 2.203 . S
Cd446 O445 2.203 . S
Cd446 O448 2.411 . S
Cd446 O449 2.333 . S
Cd446 O450 2.352 . S
Cd446 O454 2.277 . S
Cd446 O455 2.356 . S
C447 O452 1.209 . S
C447 O454 1.226 . S
O448 Cd444 2.273 . S
O448 Cd446 2.411 . S
O448 C451 1.320 . S
O449 Cd446 2.333 . S
O449 C451 1.214 . S
O450 Cd446 2.352 . S
O450 C453 1.258 . S
C451 O448 1.320 . S
C451 O449 1.214 . S
O452 Cd444 2.277 . S
O452 C447 1.209 . S
C453 O450 1.258 . S
C453 O455 1.282 . S
O454 Cd446 2.277 . S
O454 C447 1.226 . S
O455 Cd446 2.356 . S
O455 C453 1.282 . S
C456 O457 1.306 . S
C456 O459 1.160 . S
O457 C456 1.306 . S
O457 Cd458 2.228 . S
Cd458 O457 2.228 . S
Cd458 O462 2.273 . S
Cd458 O466 2.277 1_455 S
O459 C456 1.160 . S
O459 Cd460 2.203 . S
Cd460 O459 2.203 . S
Cd460 O462 2.411 . S
Cd460 O463 2.333 1_455 S
Cd460 O464 2.352 . S
Cd460 O468 2.277 1_455 S
Cd460 O469 2.356 1_455 S
C461 O466 1.209 . S
C461 O468 1.226 . S
O462 Cd458 2.273 . S
O462 Cd460 2.411 . S
O462 C465 1.320 . S
O463 Cd460 2.333 1_655 S
O463 C465 1.214 1_655 S
O464 Cd460 2.352 . S
O464 C467 1.258 . S
C465 O462 1.320 . S
C465 O463 1.214 1_455 S
O466 Cd458 2.277 1_655 S
O466 C461 1.209 . S
C467 O464 1.258 . S
C467 O469 1.282 1_455 S
O468 Cd460 2.277 1_655 S
O468 C461 1.226 . S
O469 Cd460 2.356 1_655 S
O469 C467 1.282 1_655 S
C470 O471 1.306 . S
C470 O473 1.160 . S
O471 C470 1.306 . S
O471 Cd472 2.228 . S
Cd472 O471 2.228 . S
Cd472 O476 2.273 . S
Cd472 O480 2.277 . S
O473 C470 1.160 . S
O473 Cd474 2.203 . S
Cd474 O473 2.203 . S
Cd474 O476 2.411 . S
Cd474 O477 2.333 . S
Cd474 O478 2.352 . S
Cd474 O482 2.277 . S
Cd474 O483 2.356 . S
C475 O480 1.209 . S
C475 O482 1.226 . S
O476 Cd472 2.273 . S
O476 Cd474 2.411 . S
O476 C479 1.320 . S
O477 Cd474 2.333 . S
O477 C479 1.214 . S
O478 Cd474 2.352 . S
O478 C481 1.258 . S
C479 O476 1.320 . S
C479 O477 1.214 . S
O480 Cd472 2.277 . S
O480 C475 1.209 . S
C481 O478 1.258 . S
C481 O483 1.282 . S
O482 Cd474 2.277 . S
O482 C475 1.226 . S
O483 Cd474 2.356 . S
O483 C481 1.282 . S
C484 O485 1.306 . S
C484 O487 1.160 . S
O485 C484 1.306 . S
O485 Cd486 2.228 . S
Cd486 O485 2.228 . S
Cd486 O490 2.273 . S
Cd486 O494 2.277 1_545 S
O487 C484 1.160 . S
O487 Cd488 2.203 . S
Cd488 O487 2.203 . S
Cd488 O490 2.411 . S
Cd488 O491 2.333 1_545 S
Cd488 O492 2.352 . S
Cd488 O496 2.277 1_545 S
Cd488 O497 2.356 1_545 S
C489 O494 1.209 . S
C489 O496 1.226 . S
O490 Cd486 2.273 . S
O490 Cd488 2.411 . S
O490 C493 1.320 1_545 S
O491 Cd488 2.333 1_565 S
O491 C493 1.214 . S
O492 Cd488 2.352 . S
O492 C495 1.258 . S
C493 O490 1.320 1_565 S
C493 O491 1.214 . S
O494 Cd486 2.277 1_565 S
O494 C489 1.209 . S
C495 O492 1.258 . S
C495 O497 1.282 1_545 S
O496 Cd488 2.277 1_565 S
O496 C489 1.226 . S
O497 Cd488 2.356 1_565 S
O497 C495 1.282 1_565 S
C498 O499 1.306 . S
C498 O501 1.160 . S
O499 C498 1.306 . S
O499 Cd500 2.228 1_565 S
Cd500 O499 2.228 1_545 S
Cd500 O504 2.273 1_545 S
Cd500 O508 2.277 . S
O501 C498 1.160 . S
O501 Cd502 2.203 1_565 S
Cd502 O501 2.203 1_545 S
Cd502 O504 2.411 1_545 S
Cd502 O505 2.333 . S
Cd502 O506 2.352 1_545 S
Cd502 O510 2.277 . S
Cd502 O511 2.356 1_545 S
C503 O508 1.209 . S
C503 O510 1.226 . S
O504 Cd500 2.273 1_565 S
O504 Cd502 2.411 1_565 S
O504 C507 1.320 1_565 S
O505 Cd502 2.333 . S
O505 C507 1.214 . S
O506 Cd502 2.352 1_565 S
O506 C509 1.258 . S
C507 O504 1.320 1_545 S
C507 O505 1.214 . S
O508 Cd500 2.277 . S
O508 C503 1.209 . S
C509 O506 1.258 . S
C509 O511 1.282 . S
O510 Cd502 2.277 . S
O510 C503 1.226 . S
O511 Cd502 2.356 1_565 S
O511 C509 1.282 . S
C512 O513 1.306 . S
C512 O515 1.160 . S
O513 C512 1.306 . S
O513 Cd514 2.228 1_455 S
Cd514 O513 2.228 1_655 S
Cd514 O518 2.273 . S
Cd514 O522 2.277 1_655 S
O515 C512 1.160 . S
O515 Cd516 2.203 . S
Cd516 O515 2.203 . S
Cd516 O518 2.411 1_455 S
Cd516 O519 2.333 1_455 S
Cd516 O520 2.352 . S
Cd516 O524 2.277 . S
Cd516 O525 2.356 . S
C517 O522 1.209 . S
C517 O524 1.226 . S
O518 Cd514 2.273 . S
O518 Cd516 2.411 1_655 S
O518 C521 1.320 . S
O519 Cd516 2.333 1_655 S
O519 C521 1.214 . S
O520 Cd516 2.352 . S
O520 C523 1.258 . S
C521 O518 1.320 . S
C521 O519 1.214 . S
O522 Cd514 2.277 1_455 S
O522 C517 1.209 . S
C523 O520 1.258 . S
C523 O525 1.282 . S
O524 Cd516 2.277 . S
O524 C517 1.226 . S
O525 Cd516 2.356 . S
O525 C523 1.282 . S
C526 O527 1.306 . S
C526 O529 1.160 . S
O527 C526 1.306 . S
O527 Cd528 2.228 . S
Cd528 O527 2.228 . S
Cd528 O532 2.273 . S
Cd528 O536 2.277 . S
O529 C526 1.160 . S
O529 Cd530 2.203 . S
Cd530 O529 2.203 . S
Cd530 O532 2.411 . S
Cd530 O533 2.333 . S
Cd530 O534 2.352 . S
Cd530 O538 2.277 . S
Cd530 O539 2.356 . S
C531 O536 1.209 . S
C531 O538 1.226 . S
O532 Cd528 2.273 . S
O532 Cd530 2.411 . S
O532 C535 1.320 . S
O533 Cd530 2.333 . S
O533 C535 1.214 . S
O534 Cd530 2.352 . S
O534 C537 1.258 . S
C535 O532 1.320 . S
C535 O533 1.214 . S
O536 Cd528 2.277 . S
O536 C531 1.209 . S
C537 O534 1.258 . S
C537 O539 1.282 . S
O538 Cd530 2.277 . S
O538 C531 1.226 . S
O539 Cd530 2.356 . S
O539 C537 1.282 . S
C540 O541 1.306 . S
C540 O543 1.160 . S
O541 C540 1.306 . S
O541 Cd542 2.228 1_554 S
Cd542 O541 2.228 1_556 S
Cd542 O546 2.273 1_556 S
Cd542 O550 2.277 1_556 S
O543 C540 1.160 . S
O543 Cd544 2.203 . S
Cd544 O543 2.203 . S
Cd544 O546 2.411 . S
Cd544 O547 2.333 . S
Cd544 O548 2.352 . S
Cd544 O552 2.277 . S
Cd544 O553 2.356 . S
C545 O550 1.209 . S
C545 O552 1.226 . S
O546 Cd542 2.273 1_554 S
O546 Cd544 2.411 . S
O546 C549 1.320 . S
O547 Cd544 2.333 . S
O547 C549 1.214 . S
O548 Cd544 2.352 . S
O548 C551 1.258 . S
C549 O546 1.320 . S
C549 O547 1.214 . S
O550 Cd542 2.277 1_554 S
O550 C545 1.209 . S
C551 O548 1.258 . S
C551 O553 1.282 . S
O552 Cd544 2.277 . S
O552 C545 1.226 . S
O553 Cd544 2.356 . S
O553 C551 1.282 . S
C554 O555 1.306 . S
C554 O557 1.160 1_565 S
O555 C554 1.306 . S
O555 Cd556 2.228 . S
Cd556 O555 2.228 . S
Cd556 O560 2.273 . S
Cd556 O564 2.277 1_565 S
O557 C554 1.160 1_545 S
O557 Cd558 2.203 1_545 S
Cd558 O557 2.203 1_565 S
Cd558 O560 2.411 . S
Cd558 O561 2.333 . S
Cd558 O562 2.352 . S
Cd558 O566 2.277 1_565 S
Cd558 O567 2.356 . S
C559 O564 1.209 . S
C559 O566 1.226 . S
O560 Cd556 2.273 . S
O560 Cd558 2.411 . S
O560 C563 1.320 . S
O561 Cd558 2.333 . S
O561 C563 1.214 . S
O562 Cd558 2.352 . S
O562 C565 1.258 . S
C563 O560 1.320 . S
C563 O561 1.214 . S
O564 Cd556 2.277 1_545 S
O564 C559 1.209 . S
C565 O562 1.258 . S
C565 O567 1.282 . S
O566 Cd558 2.277 1_545 S
O566 C559 1.226 . S
O567 Cd558 2.356 . S
O567 C565 1.282 . S
C568 O569 1.306 . S
C568 O571 1.160 . S
O569 C568 1.306 . S
O569 Cd570 2.228 . S
Cd570 O569 2.228 . S
Cd570 O574 2.273 . S
Cd570 O578 2.277 1_455 S
O571 C568 1.160 . S
O571 Cd572 2.203 . S
Cd572 O571 2.203 . S
Cd572 O574 2.411 . S
Cd572 O575 2.333 . S
Cd572 O576 2.352 . S
Cd572 O580 2.277 1_455 S
Cd572 O581 2.356 . S
C573 O578 1.209 . S
C573 O580 1.226 . S
O574 Cd570 2.273 . S
O574 Cd572 2.411 . S
O574 C577 1.320 . S
O575 Cd572 2.333 . S
O575 C577 1.214 . S
O576 Cd572 2.352 . S
O576 C579 1.258 . S
C577 O574 1.320 . S
C577 O575 1.214 . S
O578 Cd570 2.277 1_655 S
O578 C573 1.209 . S
C579 O576 1.258 . S
C579 O581 1.282 . S
O580 Cd572 2.277 1_655 S
O580 C573 1.226 . S
O581 Cd572 2.356 . S
O581 C579 1.282 . S
C582 O583 1.306 . S
C582 O585 1.160 . S
O583 C582 1.306 . S
O583 Cd584 2.228 . S
Cd584 O583 2.228 . S
Cd584 O588 2.273 1_554 S
Cd584 O592 2.277 . S
O585 C582 1.160 . S
O585 Cd586 2.203 1_554 S
Cd586 O585 2.203 1_556 S
Cd586 O588 2.411 . S
Cd586 O589 2.333 . S
Cd586 O590 2.352 . S
Cd586 O594 2.277 . S
Cd586 O595 2.356 . S
C587 O592 1.209 1_556 S
C587 O594 1.226 . S
O588 Cd584 2.273 1_556 S
O588 Cd586 2.411 . S
O588 C591 1.320 . S
O589 Cd586 2.333 . S
O589 C591 1.214 . S
O590 Cd586 2.352 . S
O590 C593 1.258 . S
C591 O588 1.320 . S
C591 O589 1.214 . S
O592 Cd584 2.277 . S
O592 C587 1.209 1_554 S
C593 O590 1.258 . S
C593 O595 1.282 . S
O594 Cd586 2.277 . S
O594 C587 1.226 . S
O595 Cd586 2.356 . S
O595 C593 1.282 . S
C596 O597 1.306 . S
C596 O599 1.160 . S
O597 C596 1.306 . S
O597 Cd598 2.228 . S
Cd598 O597 2.228 . S
Cd598 O602 2.273 . S
Cd598 O606 2.277 . S
O599 C596 1.160 . S
O599 Cd600 2.203 . S
Cd600 O599 2.203 . S
Cd600 O602 2.411 . S
Cd600 O603 2.333 . S
Cd600 O604 2.352 . S
Cd600 O608 2.277 . S
Cd600 O609 2.356 1_556 S
C601 O606 1.209 . S
C601 O608 1.226 . S
O602 Cd598 2.273 . S
O602 Cd600 2.411 . S
O602 C605 1.320 . S
O603 Cd600 2.333 . S
O603 C605 1.214 . S
O604 Cd600 2.352 . S
O604 C607 1.258 1_556 S
C605 O602 1.320 . S
C605 O603 1.214 . S
O606 Cd598 2.277 . S
O606 C601 1.209 . S
C607 O604 1.258 1_554 S
C607 O609 1.282 . S
O608 Cd600 2.277 . S
O608 C601 1.226 . S
O609 Cd600 2.356 1_554 S
O609 C607 1.282 . S
C610 O611 1.306 . S
C610 O613 1.160 . S
O611 C610 1.306 . S
O611 Cd612 2.228 1_655 S
Cd612 O611 2.228 1_455 S
Cd612 O616 2.273 1_455 S
Cd612 O620 2.277 . S
O613 C610 1.160 . S
O613 Cd614 2.203 . S
Cd614 O613 2.203 . S
Cd614 O616 2.411 . S
Cd614 O617 2.333 1_655 S
Cd614 O618 2.352 . S
Cd614 O622 2.277 1_655 S
Cd614 O623 2.356 1_556 S
C615 O620 1.209 . S
C615 O622 1.226 . S
O616 Cd612 2.273 1_655 S
O616 Cd614 2.411 . S
O616 C619 1.320 1_655 S
O617 Cd614 2.333 1_455 S
O617 C619 1.214 . S
O618 Cd614 2.352 . S
O618 C621 1.258 1_556 S
C619 O616 1.320 1_455 S
C619 O617 1.214 . S
O620 Cd612 2.277 . S
O620 C615 1.209 . S
C621 O618 1.258 1_554 S
C621 O623 1.282 . S
O622 Cd614 2.277 1_455 S
O622 C615 1.226 . S
O623 Cd614 2.356 1_554 S
O623 C621 1.282 . S
C624 O625 1.306 . S
C624 O627 1.160 . S
O625 C624 1.306 . S
O625 Cd626 2.228 . S
Cd626 O625 2.228 . S
Cd626 O630 2.273 . S
Cd626 O634 2.277 . S
O627 C624 1.160 . S
O627 Cd628 2.203 . S
Cd628 O627 2.203 . S
Cd628 O630 2.411 . S
Cd628 O631 2.333 . S
Cd628 O632 2.352 . S
Cd628 O636 2.277 . S
Cd628 O637 2.356 . S
C629 O634 1.209 . S
C629 O636 1.226 . S
O630 Cd626 2.273 . S
O630 Cd628 2.411 . S
O630 C633 1.320 . S
O631 Cd628 2.333 . S
O631 C633 1.214 . S
O632 Cd628 2.352 . S
O632 C635 1.258 . S
C633 O630 1.320 . S
C633 O631 1.214 . S
O634 Cd626 2.277 . S
O634 C629 1.209 . S
C635 O632 1.258 . S
C635 O637 1.282 . S
O636 Cd628 2.277 . S
O636 C629 1.226 . S
O637 Cd628 2.356 . S
O637 C635 1.282 . S
C638 O639 1.306 . S
C638 O641 1.160 . S
O639 C638 1.306 . S
O639 Cd640 2.228 . S
Cd640 O639 2.228 . S
Cd640 O644 2.273 1_455 S
Cd640 O648 2.277 . S
O641 C638 1.160 . S
O641 Cd642 2.203 1_455 S
Cd642 O641 2.203 1_655 S
Cd642 O644 2.411 . S
Cd642 O645 2.333 . S
Cd642 O646 2.352 . S
Cd642 O650 2.277 . S
Cd642 O651 2.356 . S
C643 O648 1.209 . S
C643 O650 1.226 1_455 S
O644 Cd640 2.273 1_655 S
O644 Cd642 2.411 . S
O644 C647 1.320 . S
O645 Cd642 2.333 . S
O645 C647 1.214 . S
O646 Cd642 2.352 . S
O646 C649 1.258 . S
C647 O644 1.320 . S
C647 O645 1.214 . S
O648 Cd640 2.277 . S
O648 C643 1.209 . S
C649 O646 1.258 . S
C649 O651 1.282 . S
O650 Cd642 2.277 . S
O650 C643 1.226 1_655 S
O651 Cd642 2.356 . S
O651 C649 1.282 . S
C652 O653 1.306 . S
C652 O655 1.160 . S
O653 C652 1.306 . S
O653 Cd654 2.228 . S
Cd654 O653 2.228 . S
Cd654 O658 2.273 . S
Cd654 O662 2.277 . S
O655 C652 1.160 . S
O655 Cd656 2.203 . S
Cd656 O655 2.203 . S
Cd656 O658 2.411 . S
Cd656 O659 2.333 . S
Cd656 O660 2.352 . S
Cd656 O664 2.277 . S
Cd656 O665 2.356 . S
C657 O662 1.209 . S
C657 O664 1.226 . S
O658 Cd654 2.273 . S
O658 Cd656 2.411 . S
O658 C661 1.320 . S
O659 Cd656 2.333 . S
O659 C661 1.214 . S
O660 Cd656 2.352 . S
O660 C663 1.258 . S
C661 O658 1.320 . S
C661 O659 1.214 . S
O662 Cd654 2.277 . S
O662 C657 1.209 . S
C663 O660 1.258 . S
C663 O665 1.282 . S
O664 Cd656 2.277 . S
O664 C657 1.226 . S
O665 Cd656 2.356 . S
O665 C663 1.282 . S
C7 C568 1.382 . S
C545 C39 2.122 . S
C554 C62 1.766 1_565 S
C76 C624 2.278 . S
C108 C643 1.631 . S
N117 C657 1.808 . S
C619 C16 1.443 . S
C30 C587 2.233 . S
C605 C53 1.601 . S
C85 C507 2.259 1_565 S
C517 C99 2.068 . S
N127 C531 1.621 . S
N150 C652 0.925 . S
C629 N173 1.652 . S
C638 C200 1.350 . S
C214 C456 1.918 . S
N232 C475 1.832 . S
C260 C489 1.632 . S
C451 N140 1.323 1_545 S
N163 C419 1.322 . S
C437 C191 1.838 . S
C591 C223 2.547 . S
C601 N242 1.927 . S
C615 C269 1.971 . S
N288 C484 1.577 . S
C315 C461 1.625 . S
C338 C470 1.858 . S
C352 C540 2.239 . S
C559 N370 1.960 . S
C573 C398 1.846 . S
C535 N278 0.877 . S
C306 C503 2.005 . S
C329 C521 1.808 . S
C423 C361 1.812 . S
N380 C433 1.871 . S
C447 C407 1.838 . S
C467 N12 1.485 . S
N25 C479 1.848 . S
C493 N48 1.331 . S
C495 N81 1.269 . S
C465 N94 1.652 . S
C481 C131 1.659 . S
C425 N2 1.718 . S
N35 C428 1.493 . S
N58 C442 1.665 . S
C453 N71 1.100 . S
C414 N104 1.424 . S
C439 C122 1.735 . S
C145 C551 2.626 . S
C168 C563 2.165 . S
N186 C577 1.504 . S
C579 N219 1.429 . S
C549 C246 2.112 1_554 S
C565 N265 1.394 1_554 S
C509 C154 2.523 . S
C177 C512 2.384 . S
N196 C526 1.061 . S
N209 C537 0.857 . S
C237 C498 2.165 . S
C523 N255 1.308 . S
C283 C635 2.073 . S
N301 C647 1.587 . S
N324 C661 1.503 . S
C663 N357 0.833 . S
C633 C384 2.142 . S
N403 C649 1.264 . S
C292 C593 2.265 . S
C596 N311 1.268 . S
N334 C610 1.584 . S
N347 C621 1.391 . S
C582 C375 2.289 . S
N393 C607 1.348 . S
