# Generated by pormake.
# Topology sit, (3,6)-cn, num edge types: 1
# Building blocks:
#     Node 0, Type 0, BuildingBlock: OLANEW_clean_sbu_2, # of connection points: 3
#     Node 1, Type 0, BuildingBlock: OLANEW_clean_sbu_2, # of connection points: 3
#     Node 2, Type 0, BuildingBlock: OLANEW_clean_sbu_2, # of connection points: 3
#     Node 3, Type 0, BuildingBlock: OLANEW_clean_sbu_2, # of connection points: 3
#     Node 4, Type 1, BuildingBlock: MIDCAF_clean_sbu_0, # of connection points: 6
#     Node 5, Type 1, BuildingBlock: MIDCAF_clean_sbu_0, # of connection points: 6
#     Edge 6, Type (0, 1), BuildingBlock: CIFDUS_clean_linker_0, # of connection points: 2
#     Edge 7, Type (0, 1), BuildingBlock: CIFDUS_clean_linker_0, # of connection points: 2
#     Edge 8, Type (0, 1), BuildingBlock: CIFDUS_clean_linker_0, # of connection points: 2
#     Edge 9, Type (0, 1), BuildingBlock: CIFDUS_clean_linker_0, # of connection points: 2
#     Edge 10, Type (0, 1), BuildingBlock: CIFDUS_clean_linker_0, # of connection points: 2
#     Edge 11, Type (0, 1), BuildingBlock: CIFDUS_clean_linker_0, # of connection points: 2
#     Edge 12, Type (0, 1), BuildingBlock: CIFDUS_clean_linker_0, # of connection points: 2
#     Edge 13, Type (0, 1), BuildingBlock: CIFDUS_clean_linker_0, # of connection points: 2
#     Edge 14, Type (0, 1), BuildingBlock: CIFDUS_clean_linker_0, # of connection points: 2
#     Edge 15, Type (0, 1), BuildingBlock: CIFDUS_clean_linker_0, # of connection points: 2
#     Edge 16, Type (0, 1), BuildingBlock: CIFDUS_clean_linker_0, # of connection points: 2
#     Edge 17, Type (0, 1), BuildingBlock: CIFDUS_clean_linker_0, # of connection points: 2
# Relax obj value: 0.079
# Max RMSD: 0.184
# Mean RMSD: 0.108
data_MOF--net-sit--node1-OLANEW_clean_sbu_2--node2-MIDCAF_clean_sbu_0--edge1-CIFDUS_clean_linker_0
_symmetry_space_group_name_H-M    P1
_symmetry_Int_Tables_number       1
_symmetry_cell_setting            triclinic
loop_
_symmetry_equiv_pos_as_xyz
'x, y, z'
_cell_length_a     19.673442
_cell_length_b     31.111238
_cell_length_c     34.864244
_cell_angle_alpha  89.644516
_cell_angle_beta   82.943207
_cell_angle_gamma 84.033257
loop_
_atom_site_label
_atom_site_type_symbol
_atom_site_fract_x
_atom_site_fract_y
_atom_site_fract_z
_atom_type_partial_charge
O0 O 0.27122 0.24696 0.0002 0.0
Cd1 Cd 0.19786 0.1881 -0.00284 0.0
O2 O 0.18343 0.2971 0.00427 0.0
Cd3 Cd 0.1342 0.36373 0.00699 0.0
O4 O 0.05496 0.41784 0.00397 0.0
C5 C 0.05672 0.44441 0.9761 0.0
O6 O 0.11061 0.44126 0.94959 0.0
C7 C 0.24808 0.28673 0.00139 0.0
C8 C 0.14047 0.15746 0.06791 0.0
O9 O 0.19944 0.14083 0.05195 0.0
O10 O 0.10966 0.18894 0.05073 0.0
O11 O 0.15016 0.72377 0.02915 0.0
Cd12 Cd 0.05325 0.78043 0.03164 0.0
O13 O 0.08568 0.67051 0.04212 0.0
Cd14 Cd 0.9898 0.71216 0.04373 0.0
O15 O 0.90892 0.70829 0.00732 0.0
C16 C 0.84556 0.72149 0.01528 0.0
O17 O 0.82395 0.74195 0.04807 0.0
C18 C 0.1447 0.6837 0.03438 0.0
C19 C 0.04876 0.83838 0.09267 0.0
O20 O 0.01584 0.80482 0.09618 0.0
O21 O 0.08421 0.84459 0.06011 0.0
O22 O 0.76627 0.75756 0.50164 0.0
Cd23 Cd 0.72357 0.68589 0.49962 0.0
O24 O 0.66324 0.79341 0.51126 0.0
Cd25 Cd 0.59459 0.85371 0.5151 0.0
O26 O 0.51421 0.90556 0.50687 0.0
C27 C 0.52135 0.9296 0.47736 0.0
O28 O 0.57924 0.92449 0.45391 0.0
C29 C 0.72818 0.79333 0.50434 0.0
C30 C 0.69456 0.64026 0.56791 0.0
O31 O 0.75614 0.63845 0.55053 0.0
O32 O 0.64751 0.66486 0.55379 0.0
O33 O 0.57423 0.15243 0.57084 0.0
Cd34 Cd 0.49393 0.18781 0.62297 0.0
O35 O 0.55654 0.2087 0.53369 0.0
Cd36 Cd 0.45519 0.22703 0.56486 0.0
O37 O 0.37157 0.20234 0.53875 0.0
C38 C 0.39207 0.17066 0.51584 0.0
O39 O 0.4573 0.15544 0.51227 0.0
C40 C 0.58979 0.17253 0.53971 0.0
C41 C 0.55135 0.25532 0.65536 0.0
O42 O 0.56501 0.2159 0.66516 0.0
O43 O 0.50974 0.26336 0.63008 0.0
Zn44 Zn -0.00473 0.09477 0.35242 0.0
Zn45 Zn 0.0923 0.94817 0.3651 0.0
Zn46 Zn 0.0438 0.0196 0.36072 0.0
C47 C 0.04001 0.94909 0.29718 0.0
C48 C 0.99049 0.95418 0.42383 0.0
O49 O 0.11209 0.0599 0.38604 0.0
O50 O 0.04699 0.12235 0.38963 0.0
C51 C 0.04123 0.06936 0.27883 0.0
O52 O 0.04652 0.98928 0.30285 0.0
O53 O 0.04891 0.92227 0.32377 0.0
O54 O 0.05166 0.93652 0.41867 0.0
O55 O 0.97206 0.98526 0.40144 0.0
O56 O 0.02069 0.10398 0.29718 0.0
O57 O 0.04797 0.03325 0.29718 0.0
O58 O 0.942 0.02955 0.3968 0.0
O59 O 0.89846 0.08871 0.36999 0.0
C60 C 0.89123 0.05858 0.39404 0.0
O61 O 0.14624 0.01778 0.38178 0.0
O62 O 0.19197 0.95531 0.35594 0.0
C63 C 0.10009 0.09947 0.3977 0.0
C64 C 0.19904 0.99003 0.37273 0.0
Zn65 Zn 0.50989 0.59546 0.84252 0.0
Zn66 Zn 0.63403 0.44407 0.86983 0.0
Zn67 Zn 0.57457 0.51842 0.85373 0.0
C68 C 0.61492 0.44303 0.79087 0.0
C69 C 0.50621 0.44731 0.91142 0.0
O70 O 0.63888 0.56606 0.87148 0.0
O71 O 0.57639 0.6288 0.86581 0.0
C72 C 0.54522 0.5574 0.77002 0.0
O73 O 0.58734 0.48187 0.79866 0.0
O74 O 0.64124 0.42068 0.81672 0.0
O75 O 0.56235 0.42329 0.90776 0.0
O76 O 0.5015 0.48373 0.8935 0.0
O77 O 0.51433 0.59146 0.78595 0.0
O78 O 0.56999 0.52636 0.79057 0.0
O79 O 0.47499 0.52818 0.8925 0.0
O80 O 0.42241 0.59017 0.87467 0.0
C81 C 0.42305 0.5574 0.89609 0.0
O82 O 0.67541 0.52546 0.87614 0.0
O83 O 0.71752 0.45887 0.88893 0.0
C84 C 0.62995 0.60751 0.87526 0.0
C85 C 0.72284 0.49883 0.88821 0.0
H86 H 0.19196 0.09127 0.11147 0.0
H87 H 0.01729 0.18703 0.10819 0.0
H88 H 0.96699 0.16369 0.1712 0.0
H89 H 0.97683 0.12059 0.22946 0.0
H90 H 0.15343 0.02771 0.23537 0.0
H91 H 0.19777 0.04426 0.16865 0.0
C92 C 0.14268 0.10683 0.12443 0.0
C93 C 0.10889 0.14124 0.10527 0.0
C94 C 0.11405 0.0934 0.16096 0.0
C95 C 0.04479 0.16078 0.12237 0.0
C96 C 0.01583 0.1474 0.15841 0.0
C97 C 0.02434 0.10336 0.21578 0.0
C98 C 0.06122 0.07236 0.23683 0.0
C99 C 0.05056 0.11434 0.17822 0.0
C100 C 0.12308 0.05062 0.21916 0.0
C101 C 0.14896 0.06068 0.18131 0.0
H102 H 0.97025 0.83695 0.16202 0.0
H103 H 0.12435 0.90692 0.09752 0.0
H104 H 0.12918 0.9518 0.15431 0.0
H105 H 0.09838 0.96539 0.22442 0.0
H106 H 0.94674 0.89376 0.28839 0.0
H107 H 0.93189 0.85524 0.22971 0.0
C108 C 0.00453 0.86223 0.16022 0.0
C109 C 0.0475 0.86817 0.12575 0.0
C110 C 0.00751 0.88755 0.19296 0.0
C111 C 0.09107 0.90143 0.12382 0.0
C112 C 0.09392 0.9271 0.15629 0.0
C113 C 0.06041 0.94262 0.22505 0.0
C114 C 0.0231 0.9328 0.26035 0.0
C115 C 0.05341 0.91983 0.19127 0.0
C116 C 0.97581 0.90186 0.26133 0.0
C117 C 0.96753 0.87971 0.22788 0.0
H118 H 0.56791 0.62535 0.60228 0.0
H119 H 0.78429 0.59716 0.61257 0.0
H120 H 0.75644 0.55972 0.67347 0.0
H121 H 0.67011 0.54357 0.72786 0.0
H122 H 0.45455 0.57594 0.71859 0.0
H123 H 0.48221 0.60155 0.65267 0.0
C124 C 0.60904 0.61076 0.61768 0.0
C125 C 0.67802 0.6148 0.60328 0.0
C126 C 0.59265 0.58947 0.6527 0.0
C127 C 0.73069 0.59499 0.62325 0.0
C128 C 0.71481 0.57345 0.65805 0.0
C129 C 0.62934 0.55462 0.7107 0.0
C130 C 0.56045 0.55765 0.72768 0.0
C131 C 0.64593 0.57143 0.67355 0.0
C132 C 0.50788 0.57299 0.70575 0.0
C133 C 0.52375 0.58819 0.66833 0.0
H134 H 0.5031 0.34104 0.66206 0.0
H135 H 0.66713 0.2477 0.69058 0.0
H136 H 0.70993 0.30185 0.72885 0.0
H137 H 0.69146 0.37153 0.7614 0.0
H138 H 0.52205 0.46383 0.73886 0.0
H139 H 0.49228 0.41512 0.68994 0.0
C140 C 0.54887 0.33289 0.67615 0.0
C141 C 0.58133 0.29024 0.674 0.0
C142 C 0.57223 0.36403 0.69915 0.0
C143 C 0.64061 0.28008 0.6923 0.0
C144 C 0.66526 0.31105 0.71411 0.0
C145 C 0.64877 0.38147 0.74526 0.0
C146 C 0.60839 0.42094 0.7542 0.0
C147 C 0.63008 0.35255 0.71882 0.0
C148 C 0.55404 0.43364 0.73256 0.0
C149 C 0.53646 0.40549 0.70494 0.0
H150 H 0.2358 0.36098 0.96031 0.0
H151 H 0.37152 0.28512 0.02883 0.0
H152 H 0.46089 0.33332 0.01163 0.0
H153 H 0.50479 0.39114 0.97079 0.0
H154 H 0.37256 0.46302 0.89804 0.0
H155 H 0.27599 0.42392 0.92471 0.0
C156 C 0.28386 0.35602 0.97271 0.0
C157 C 0.29683 0.3199 0.99622 0.0
C158 C 0.33552 0.38326 0.9619 0.0
C159 C 0.3605 0.31278 0.01073 0.0
C160 C 0.41155 0.34028 0.00087 0.0
C161 C 0.45436 0.39887 0.96144 0.0
C162 C 0.44529 0.43043 0.93295 0.0
C163 C 0.40034 0.37475 0.97552 0.0
C164 C 0.37999 0.43998 0.92088 0.0
C165 C 0.32522 0.41698 0.9356 0.0
H166 H 0.87462 0.67165 0.95073 0.0
H167 H 0.7059 0.74311 0.02209 0.0
H168 H 0.6243 0.71667 0.98258 0.0
H169 H 0.60061 0.66889 0.93074 0.0
H170 H 0.76911 0.59661 0.86076 0.0
H171 H 0.85172 0.6274 0.89707 0.0
C172 C 0.82007 0.68186 0.95753 0.0
C173 C 0.79636 0.70915 0.9895 0.0
C174 C 0.77359 0.66596 0.93522 0.0
C175 C 0.72549 0.72202 -0.00225 0.0
C176 C 0.67881 0.70686 0.97522 0.0
C177 C 0.65553 0.66049 0.92321 0.0
C178 C 0.67937 0.62992 0.89387 0.0
C179 C 0.70224 0.67824 0.94433 0.0
C180 C 0.75023 0.61907 0.88416 0.0
C181 C 0.79716 0.63696 0.90464 0.0
H182 H 0.02834 0.48602 0.91 0.0
H183 H 0.94067 0.46294 0.02705 0.0
H184 H 0.82665 0.49001 0.0114 0.0
H185 H 0.75004 0.50382 0.9612 0.0
H186 H 0.83625 0.52009 0.84317 0.0
H187 H 0.95247 0.51347 0.86238 0.0
C188 C 0.98464 0.48806 0.93238 0.0
C189 C 0.99272 0.47136 0.96936 0.0
C190 C 0.91869 0.50229 0.92282 0.0
C191 C 0.93565 0.47473 -0.00187 0.0
C192 C 0.87032 0.49015 0.98919 0.0
C193 C 0.79428 0.50795 0.94013 0.0
C194 C 0.78517 0.51295 0.90104 0.0
C195 C 0.86079 0.50168 0.95115 0.0
C196 C 0.84242 0.5171 0.87357 0.0
C197 C 0.90881 0.51263 0.8845 0.0
H198 H 0.14696 0.6086 0.99626 0.0
H199 H 0.27767 0.68963 0.04677 0.0
H200 H 0.37997 0.64645 0.01494 0.0
H201 H 0.42983 0.59656 0.96244 0.0
H202 H 0.29681 0.5274 0.90191 0.0
H203 H 0.19803 0.55329 0.94854 0.0
C204 C 0.19793 0.61583 0.0013 0.0
C205 C 0.20516 0.65214 0.02373 0.0
C206 C 0.25605 0.59279 0.98079 0.0
C207 C 0.2712 0.66183 0.02953 0.0
C208 C 0.32951 0.63728 0.01121 0.0
C209 C 0.37956 0.58575 0.96069 0.0
C210 C 0.37057 0.55902 0.92982 0.0
C211 C 0.32238 0.60415 0.98529 0.0
C212 C 0.30518 0.54648 0.92644 0.0
C213 C 0.24855 0.56207 0.95265 0.0
H214 H 0.84547 0.81792 0.52662 0.0
H215 H 0.6824 0.85782 0.45819 0.0
H216 H 0.74393 0.91796 0.4321 0.0
H217 H 0.85302 0.95142 0.4208 0.0
H218 H 0.01729 0.90958 0.48816 0.0
H219 H 0.94634 0.85883 0.52303 0.0
C220 C 0.82286 0.84048 0.5067 0.0
C221 C 0.75934 0.83381 0.49461 0.0
C222 C 0.8592 0.87447 0.4913 0.0
C223 C 0.73046 0.86302 0.46867 0.0
C224 C 0.76609 0.89709 0.45335 0.0
C225 C 0.8723 0.93222 0.44399 0.0
C226 C 0.94057 0.93382 0.45153 0.0
C227 C 0.83166 0.90223 0.46342 0.0
C228 C 0.96507 0.90859 0.48155 0.0
C229 C 0.9247 0.87935 0.50138 0.0
H230 H 0.25402 0.19213 0.51658 0.0
H231 H 0.42602 0.10883 0.45996 0.0
H232 H 0.35151 0.08081 0.41746 0.0
H233 H 0.23783 0.08085 0.39546 0.0
H234 H 0.06476 0.16123 0.45341 0.0
H235 H 0.13953 0.19054 0.49551 0.0
C236 C 0.27506 0.16768 0.4951 0.0
C237 C 0.3454 0.15265 0.49152 0.0
C238 C 0.23185 0.15138 0.4708 0.0
C239 C 0.37196 0.12096 0.46347 0.0
C240 C 0.32946 0.10488 0.43905 0.0
C241 C 0.21638 0.10377 0.41803 0.0
C242 C 0.14596 0.11795 0.42204 0.0
C243 C 0.25938 0.11983 0.44247 0.0
C244 C 0.11906 0.1497 0.4499 0.0
C245 C 0.16163 0.16629 0.4741 0.0
H246 H 0.50308 0.95733 0.40524 0.0
H247 H 0.40243 0.95947 0.52245 0.0
H248 H 0.29362 0.988 0.50015 0.0
H249 H 0.22358 0.99909 0.44627 0.0
H250 H 0.32272 0.98817 0.32905 0.0
H251 H 0.43577 0.97703 0.35216 0.0
C252 C 0.45776 0.96501 0.42603 0.0
C253 C 0.46045 0.95564 0.46534 0.0
C254 C 0.39486 0.97939 0.41282 0.0
C255 C 0.40133 0.96585 0.49194 0.0
C256 C 0.33908 0.98201 0.4792 0.0
C257 C 0.2703 0.99557 0.42597 0.0
C258 C 0.26564 0.99458 0.38616 0.0
C259 C 0.33459 0.98691 0.43955 0.0
C260 C 0.32579 0.98925 0.35985 0.0
C261 C 0.39016 0.98261 0.37306 0.0
H262 H 0.68766 0.10385 0.54422 0.0
H263 H 0.59947 0.19315 0.46386 0.0
H264 H 0.67566 0.15819 0.41049 0.0
H265 H 0.77256 0.10701 0.38713 0.0
H266 H 0.87311 0.02347 0.46691 0.0
H267 H 0.78447 0.04945 0.51956 0.0
C268 C 0.68534 0.11559 0.51501 0.0
C269 C 0.63875 0.15155 0.50816 0.0
C270 C 0.73047 0.09574 0.48423 0.0
C271 C 0.6358 0.16618 0.47013 0.0
C272 C 0.67884 0.14593 0.43946 0.0
C273 C 0.77459 0.09383 0.41591 0.0
C274 C 0.82947 0.06341 0.42306 0.0
C275 C 0.72698 0.11124 0.44627 0.0
C276 C 0.83088 0.04639 0.46042 0.0
C277 C 0.78095 0.06194 0.49071 0.0
loop_
_geom_bond_atom_site_label_1
_geom_bond_atom_site_label_2
_geom_bond_distance
_geom_bond_site_symmetry_2
_ccdc_geom_bond_type
O0 Cd1 2.300 . S
O0 C7 1.275 . S
Cd1 O0 2.300 . S
Cd1 O9 2.381 . S
Cd1 O10 2.378 . S
O2 Cd3 2.385 . S
O2 C7 1.255 . S
Cd3 O2 2.385 . S
Cd3 O4 2.317 . S
O4 Cd3 2.317 . S
O4 C5 1.232 1_554 S
C5 O4 1.232 1_556 S
C5 O6 1.218 . S
O6 C5 1.218 . S
C7 O0 1.275 . S
C7 O2 1.255 . S
C8 O9 1.258 . S
C8 O10 1.256 . S
O9 Cd1 2.381 . S
O9 C8 1.258 . S
O10 Cd1 2.378 . S
O10 C8 1.256 . S
O11 Cd12 2.300 . S
O11 C18 1.275 . S
Cd12 O11 2.300 . S
Cd12 O20 2.381 . S
Cd12 O21 2.378 1_455 S
O13 Cd14 2.385 1_455 S
O13 C18 1.255 1_556 S
Cd14 O13 2.385 1_655 S
Cd14 O15 2.317 . S
O15 Cd14 2.317 . S
O15 C16 1.232 . S
C16 O15 1.232 . S
C16 O17 1.218 . S
O17 C16 1.218 . S
C18 O11 1.275 . S
C18 O13 1.255 1_554 S
C19 O20 1.258 . S
C19 O21 1.256 1_455 S
O20 Cd12 2.381 . S
O20 C19 1.258 . S
O21 Cd12 2.378 1_655 S
O21 C19 1.256 1_655 S
O22 Cd23 2.300 . S
O22 C29 1.275 . S
Cd23 O22 2.300 . S
Cd23 O31 2.381 . S
Cd23 O32 2.378 . S
O24 Cd25 2.385 . S
O24 C29 1.255 . S
Cd25 O24 2.385 . S
Cd25 O26 2.317 . S
O26 Cd25 2.317 . S
O26 C27 1.232 . S
C27 O26 1.232 . S
C27 O28 1.218 . S
O28 C27 1.218 . S
C29 O22 1.275 . S
C29 O24 1.255 . S
C30 O31 1.258 . S
C30 O32 1.256 . S
O31 Cd23 2.381 . S
O31 C30 1.258 . S
O32 Cd23 2.378 . S
O32 C30 1.256 . S
O33 Cd34 2.300 . S
O33 C40 1.275 . S
Cd34 O33 2.300 . S
Cd34 O42 2.381 . S
Cd34 O43 2.378 . S
O35 Cd36 2.385 . S
O35 C40 1.255 . S
Cd36 O35 2.385 . S
Cd36 O37 2.317 . S
O37 Cd36 2.317 . S
O37 C38 1.232 . S
C38 O37 1.232 . S
C38 O39 1.218 . S
O39 C38 1.218 . S
C40 O33 1.275 . S
C40 O35 1.255 . S
C41 O42 1.258 . S
C41 O43 1.256 . S
O42 Cd34 2.381 . S
O42 C41 1.258 . S
O43 Cd34 2.378 . S
O43 C41 1.256 . S
Zn44 O50 1.920 . S
Zn44 O56 1.898 . S
Zn44 O59 1.905 1_455 S
Zn45 O53 1.905 . S
Zn45 O54 1.898 . S
Zn45 O62 1.920 . S
Zn46 O49 2.080 . S
Zn46 O52 2.114 1_545 S
Zn46 O55 2.120 1_545 S
Zn46 O57 2.120 . S
Zn46 O58 2.114 1_455 S
Zn46 O61 2.080 1_545 S
C47 O52 1.166 . S
C47 O53 1.182 . S
C48 O54 1.167 1_655 S
C48 O55 1.299 1_655 S
O49 Zn46 2.080 . S
O49 C63 1.305 . S
O50 Zn44 1.920 . S
O50 C63 1.234 . S
C51 O56 1.167 . S
C51 O57 1.299 . S
O52 Zn46 2.114 1_565 S
O52 C47 1.166 . S
O53 Zn45 1.905 . S
O53 C47 1.182 . S
O54 Zn45 1.898 . S
O54 C48 1.167 1_455 S
O55 Zn46 2.120 1_565 S
O55 C48 1.299 1_455 S
O56 Zn44 1.898 . S
O56 C51 1.167 . S
O57 Zn46 2.120 . S
O57 C51 1.299 . S
O58 Zn46 2.114 1_655 S
O58 C60 1.166 . S
O59 Zn44 1.905 1_655 S
O59 C60 1.182 . S
C60 O58 1.166 . S
C60 O59 1.182 . S
O61 Zn46 2.080 1_565 S
O61 C64 1.305 . S
O62 Zn45 1.920 . S
O62 C64 1.234 . S
C63 O49 1.305 . S
C63 O50 1.234 . S
C64 O61 1.305 . S
C64 O62 1.234 . S
Zn65 O71 1.920 . S
Zn65 O77 1.898 . S
Zn65 O80 1.905 . S
Zn66 O74 1.905 . S
Zn66 O75 1.898 . S
Zn66 O83 1.920 . S
Zn67 O70 2.080 . S
Zn67 O73 2.114 . S
Zn67 O76 2.120 . S
Zn67 O78 2.120 . S
Zn67 O79 2.114 . S
Zn67 O82 2.080 . S
C68 O73 1.166 . S
C68 O74 1.182 . S
C69 O75 1.167 . S
C69 O76 1.299 . S
O70 Zn67 2.080 . S
O70 C84 1.305 . S
O71 Zn65 1.920 . S
O71 C84 1.234 . S
C72 O77 1.167 . S
C72 O78 1.299 . S
O73 Zn67 2.114 . S
O73 C68 1.166 . S
O74 Zn66 1.905 . S
O74 C68 1.182 . S
O75 Zn66 1.898 . S
O75 C69 1.167 . S
O76 Zn67 2.120 . S
O76 C69 1.299 . S
O77 Zn65 1.898 . S
O77 C72 1.167 . S
O78 Zn67 2.120 . S
O78 C72 1.299 . S
O79 Zn67 2.114 . S
O79 C81 1.166 . S
O80 Zn65 1.905 . S
O80 C81 1.182 . S
C81 O79 1.166 . S
C81 O80 1.182 . S
O82 Zn67 2.080 . S
O82 C85 1.305 . S
O83 Zn66 1.920 . S
O83 C85 1.234 . S
C84 O70 1.305 . S
C84 O71 1.234 . S
C85 O82 1.305 . S
C85 O83 1.234 . S
H86 C92 0.930 . S
H87 C95 0.930 . S
H88 C96 0.930 . S
H89 C97 0.930 . S
H90 C100 0.930 . S
H91 C101 0.930 . S
C92 H86 0.930 . S
C92 C93 1.355 . S
C92 C94 1.415 . S
C93 C92 1.355 . S
C93 C95 1.419 . S
C94 C92 1.415 . S
C94 C99 1.425 . S
C94 C101 1.409 . S
C95 H87 0.930 . S
C95 C93 1.419 . S
C95 C96 1.362 . S
C96 H88 0.930 . S
C96 C95 1.362 . S
C96 C99 1.409 . S
C97 H89 0.930 . S
C97 C98 1.355 . S
C97 C99 1.415 . S
C98 C97 1.355 . S
C98 C100 1.419 . S
C99 C94 1.425 . S
C99 C96 1.409 . S
C99 C97 1.415 . S
C100 H90 0.930 . S
C100 C98 1.419 . S
C100 C101 1.362 . S
C101 H91 0.930 . S
C101 C94 1.409 . S
C101 C100 1.362 . S
H102 C108 0.930 . S
H103 C111 0.930 . S
H104 C112 0.930 . S
H105 C113 0.930 . S
H106 C116 0.930 . S
H107 C117 0.930 . S
C108 H102 0.930 . S
C108 C109 1.355 . S
C108 C110 1.415 . S
C109 C108 1.355 . S
C109 C111 1.419 . S
C110 C108 1.415 . S
C110 C115 1.425 . S
C110 C117 1.409 . S
C111 H103 0.930 . S
C111 C109 1.419 . S
C111 C112 1.362 . S
C112 H104 0.930 . S
C112 C111 1.362 . S
C112 C115 1.409 . S
C113 H105 0.930 . S
C113 C114 1.355 . S
C113 C115 1.415 . S
C114 C113 1.355 . S
C114 C116 1.419 . S
C115 C110 1.425 . S
C115 C112 1.409 . S
C115 C113 1.415 . S
C116 H106 0.930 . S
C116 C114 1.419 . S
C116 C117 1.362 . S
C117 H107 0.930 . S
C117 C110 1.409 . S
C117 C116 1.362 . S
H118 C124 0.930 . S
H119 C127 0.930 . S
H120 C128 0.930 . S
H121 C129 0.930 . S
H122 C132 0.930 . S
H123 C133 0.930 . S
C124 H118 0.930 . S
C124 C125 1.355 . S
C124 C126 1.415 . S
C125 C124 1.355 . S
C125 C127 1.419 . S
C126 C124 1.415 . S
C126 C131 1.425 . S
C126 C133 1.409 . S
C127 H119 0.930 . S
C127 C125 1.419 . S
C127 C128 1.362 . S
C128 H120 0.930 . S
C128 C127 1.362 . S
C128 C131 1.409 . S
C129 H121 0.930 . S
C129 C130 1.355 . S
C129 C131 1.415 . S
C130 C129 1.355 . S
C130 C132 1.419 . S
C131 C126 1.425 . S
C131 C128 1.409 . S
C131 C129 1.415 . S
C132 H122 0.930 . S
C132 C130 1.419 . S
C132 C133 1.362 . S
C133 H123 0.930 . S
C133 C126 1.409 . S
C133 C132 1.362 . S
H134 C140 0.930 . S
H135 C143 0.930 . S
H136 C144 0.930 . S
H137 C145 0.930 . S
H138 C148 0.930 . S
H139 C149 0.930 . S
C140 H134 0.930 . S
C140 C141 1.355 . S
C140 C142 1.415 . S
C141 C140 1.355 . S
C141 C143 1.419 . S
C142 C140 1.415 . S
C142 C147 1.425 . S
C142 C149 1.409 . S
C143 H135 0.930 . S
C143 C141 1.419 . S
C143 C144 1.362 . S
C144 H136 0.930 . S
C144 C143 1.362 . S
C144 C147 1.409 . S
C145 H137 0.930 . S
C145 C146 1.355 . S
C145 C147 1.415 . S
C146 C145 1.355 . S
C146 C148 1.419 . S
C147 C142 1.425 . S
C147 C144 1.409 . S
C147 C145 1.415 . S
C148 H138 0.930 . S
C148 C146 1.419 . S
C148 C149 1.362 . S
C149 H139 0.930 . S
C149 C142 1.409 . S
C149 C148 1.362 . S
H150 C156 0.930 . S
H151 C159 0.930 . S
H152 C160 0.930 . S
H153 C161 0.930 . S
H154 C164 0.930 . S
H155 C165 0.930 . S
C156 H150 0.930 . S
C156 C157 1.355 . S
C156 C158 1.415 . S
C157 C156 1.355 . S
C157 C159 1.419 . S
C158 C156 1.415 . S
C158 C163 1.425 . S
C158 C165 1.409 . S
C159 H151 0.930 . S
C159 C157 1.419 . S
C159 C160 1.362 . S
C160 H152 0.930 . S
C160 C159 1.362 . S
C160 C163 1.409 . S
C161 H153 0.930 . S
C161 C162 1.355 . S
C161 C163 1.415 . S
C162 C161 1.355 . S
C162 C164 1.419 . S
C163 C158 1.425 . S
C163 C160 1.409 . S
C163 C161 1.415 . S
C164 H154 0.930 . S
C164 C162 1.419 . S
C164 C165 1.362 . S
C165 H155 0.930 . S
C165 C158 1.409 . S
C165 C164 1.362 . S
H166 C172 0.930 . S
H167 C175 0.930 . S
H168 C176 0.930 . S
H169 C177 0.930 . S
H170 C180 0.930 . S
H171 C181 0.930 . S
C172 H166 0.930 . S
C172 C173 1.355 . S
C172 C174 1.415 . S
C173 C172 1.355 . S
C173 C175 1.419 1_556 S
C174 C172 1.415 . S
C174 C179 1.425 . S
C174 C181 1.409 . S
C175 H167 0.930 . S
C175 C173 1.419 1_554 S
C175 C176 1.362 . S
C176 H168 0.930 . S
C176 C175 1.362 . S
C176 C179 1.409 1_554 S
C177 H169 0.930 . S
C177 C178 1.355 . S
C177 C179 1.415 . S
C178 C177 1.355 . S
C178 C180 1.419 . S
C179 C174 1.425 . S
C179 C176 1.409 1_556 S
C179 C177 1.415 . S
C180 H170 0.930 . S
C180 C178 1.419 . S
C180 C181 1.362 . S
C181 H171 0.930 . S
C181 C174 1.409 . S
C181 C180 1.362 . S
H182 C188 0.930 . S
H183 C191 0.921 1_455 S
H184 C192 0.930 . S
H185 C193 0.930 . S
H186 C196 0.930 . S
H187 C197 0.930 . S
C188 H182 0.930 . S
C188 C189 1.355 . S
C188 C190 1.415 . S
C189 C188 1.355 . S
C189 C191 1.419 . S
C190 C188 1.415 . S
C190 C195 1.425 . S
C190 C197 1.409 . S
C191 H183 0.921 1_655 S
C191 C189 1.419 . S
C191 C192 1.362 . S
C192 H184 0.930 . S
C192 C191 1.362 . S
C192 C195 1.409 . S
C193 H185 0.930 . S
C193 C194 1.355 . S
C193 C195 1.415 . S
C194 C193 1.355 . S
C194 C196 1.419 . S
C195 C190 1.425 . S
C195 C192 1.409 . S
C195 C193 1.415 . S
C196 H186 0.930 . S
C196 C194 1.419 . S
C196 C197 1.362 . S
C197 H187 0.930 . S
C197 C190 1.409 . S
C197 C196 1.362 . S
H198 C204 0.930 . S
H199 C207 0.930 1_554 S
H200 C208 0.930 . S
H201 C209 0.930 . S
H202 C212 0.930 . S
H203 C213 0.930 . S
C204 H198 0.930 . S
C204 C205 1.355 . S
C204 C206 1.415 . S
C205 C204 1.355 . S
C205 C207 1.419 . S
C206 C204 1.415 . S
C206 C211 1.425 . S
C206 C213 1.409 . S
C207 H199 0.930 1_556 S
C207 C205 1.419 . S
C207 C208 1.362 . S
C208 H200 0.930 . S
C208 C207 1.362 . S
C208 C211 1.409 . S
C209 H201 0.930 . S
C209 C210 1.355 . S
C209 C211 1.415 . S
C210 C209 1.355 . S
C210 C212 1.419 . S
C211 C206 1.425 . S
C211 C208 1.409 . S
C211 C209 1.415 . S
C212 H202 0.930 . S
C212 C210 1.419 . S
C212 C213 1.362 . S
C213 H203 0.930 . S
C213 C206 1.409 . S
C213 C212 1.362 . S
H214 C220 0.930 . S
H215 C223 0.930 . S
H216 C224 0.930 . S
H217 C225 0.930 . S
H218 C228 0.930 1_455 S
H219 C229 0.930 . S
C220 H214 0.930 . S
C220 C221 1.355 . S
C220 C222 1.415 . S
C221 C220 1.355 . S
C221 C223 1.419 . S
C222 C220 1.415 . S
C222 C227 1.425 . S
C222 C229 1.409 . S
C223 H215 0.930 . S
C223 C221 1.419 . S
C223 C224 1.362 . S
C224 H216 0.930 . S
C224 C223 1.362 . S
C224 C227 1.409 . S
C225 H217 0.930 . S
C225 C226 1.355 . S
C225 C227 1.415 . S
C226 C225 1.355 . S
C226 C228 1.419 . S
C227 C222 1.425 . S
C227 C224 1.409 . S
C227 C225 1.415 . S
C228 H218 0.930 1_655 S
C228 C226 1.419 . S
C228 C229 1.362 . S
C229 H219 0.930 . S
C229 C222 1.409 . S
C229 C228 1.362 . S
H230 C236 0.930 . S
H231 C239 0.930 . S
H232 C240 0.930 . S
H233 C241 0.930 . S
H234 C244 0.930 . S
H235 C245 0.930 . S
C236 H230 0.930 . S
C236 C237 1.355 . S
C236 C238 1.415 . S
C237 C236 1.355 . S
C237 C239 1.419 . S
C238 C236 1.415 . S
C238 C243 1.425 . S
C238 C245 1.409 . S
C239 H231 0.930 . S
C239 C237 1.419 . S
C239 C240 1.362 . S
C240 H232 0.930 . S
C240 C239 1.362 . S
C240 C243 1.409 . S
C241 H233 0.930 . S
C241 C242 1.355 . S
C241 C243 1.415 . S
C242 C241 1.355 . S
C242 C244 1.419 . S
C243 C238 1.425 . S
C243 C240 1.409 . S
C243 C241 1.415 . S
C244 H234 0.930 . S
C244 C242 1.419 . S
C244 C245 1.362 . S
C245 H235 0.930 . S
C245 C238 1.409 . S
C245 C244 1.362 . S
H246 C252 0.930 . S
H247 C255 0.930 . S
H248 C256 0.930 . S
H249 C257 0.930 . S
H250 C260 0.930 . S
H251 C261 0.930 . S
C252 H246 0.930 . S
C252 C253 1.355 . S
C252 C254 1.415 . S
C253 C252 1.355 . S
C253 C255 1.419 . S
C254 C252 1.415 . S
C254 C259 1.425 . S
C254 C261 1.409 . S
C255 H247 0.930 . S
C255 C253 1.419 . S
C255 C256 1.362 . S
C256 H248 0.930 . S
C256 C255 1.362 . S
C256 C259 1.409 . S
C257 H249 0.930 . S
C257 C258 1.355 . S
C257 C259 1.415 . S
C258 C257 1.355 . S
C258 C260 1.419 . S
C259 C254 1.425 . S
C259 C256 1.409 . S
C259 C257 1.415 . S
C260 H250 0.930 . S
C260 C258 1.419 . S
C260 C261 1.362 . S
C261 H251 0.930 . S
C261 C254 1.409 . S
C261 C260 1.362 . S
H262 C268 0.930 . S
H263 C271 0.930 . S
H264 C272 0.930 . S
H265 C273 0.930 . S
H266 C276 0.930 . S
H267 C277 0.930 . S
C268 H262 0.930 . S
C268 C269 1.355 . S
C268 C270 1.415 . S
C269 C268 1.355 . S
C269 C271 1.419 . S
C270 C268 1.415 . S
C270 C275 1.425 . S
C270 C277 1.409 . S
C271 H263 0.930 . S
C271 C269 1.419 . S
C271 C272 1.362 . S
C272 H264 0.930 . S
C272 C271 1.362 . S
C272 C275 1.409 . S
C273 H265 0.930 . S
C273 C274 1.355 . S
C273 C275 1.415 . S
C274 C273 1.355 . S
C274 C276 1.419 . S
C275 C270 1.425 . S
C275 C272 1.409 . S
C275 C273 1.415 . S
C276 H266 0.930 . S
C276 C274 1.419 . S
C276 C277 1.362 . S
C277 H267 0.930 . S
C277 C270 1.409 . S
C277 C276 1.362 . S
C98 C51 1.458 . S
C93 C8 1.519 . S
C114 C47 1.350 . S
C109 C19 1.511 . S
C130 C72 1.486 . S
C125 C30 1.514 . S
C141 C41 1.508 . S
C146 C68 1.450 . S
C157 C7 1.287 1_556 S
C162 C69 1.218 . S
C178 C84 1.091 . S
C173 C16 1.244 . S
C189 C5 1.360 1_655 S
C194 C85 1.494 . S
C210 C81 1.552 . S
C205 C18 1.751 1_556 S
C226 C48 1.073 . S
C221 C29 1.227 . S
C237 C38 1.188 . S
C242 C63 1.080 . S
C258 C64 1.581 . S
C253 C27 1.436 . S
C274 C60 1.604 . S
C269 C40 1.729 . S
