# Generated by pormake.
# Topology pth, (4,4)-cn, num edge types: 1
# Building blocks:
#     Node 0, Type 0, BuildingBlock: UXUYUI_clean_sbu_0, # of connection points: 4
#     Node 1, Type 0, BuildingBlock: UXUYUI_clean_sbu_0, # of connection points: 4
#     Node 2, Type 0, BuildingBlock: UXUYUI_clean_sbu_0, # of connection points: 4
#     Node 3, Type 1, BuildingBlock: KOZSID_clean_sbu_0, # of connection points: 4
#     Node 4, Type 1, BuildingBlock: KOZSID_clean_sbu_0, # of connection points: 4
#     Node 5, Type 1, BuildingBlock: KOZSID_clean_sbu_0, # of connection points: 4
#     Edge 6, Type (0, 1), BuildingBlock: UVAHIK_clean_linker_0, # of connection points: 2
#     Edge 7, Type (0, 1), BuildingBlock: UVAHIK_clean_linker_0, # of connection points: 2
#     Edge 8, Type (0, 1), BuildingBlock: UVAHIK_clean_linker_0, # of connection points: 2
#     Edge 9, Type (0, 1), BuildingBlock: UVAHIK_clean_linker_0, # of connection points: 2
#     Edge 10, Type (0, 1), BuildingBlock: UVAHIK_clean_linker_0, # of connection points: 2
#     Edge 11, Type (0, 1), BuildingBlock: UVAHIK_clean_linker_0, # of connection points: 2
#     Edge 12, Type (0, 1), BuildingBlock: UVAHIK_clean_linker_0, # of connection points: 2
#     Edge 13, Type (0, 1), BuildingBlock: UVAHIK_clean_linker_0, # of connection points: 2
#     Edge 14, Type (0, 1), BuildingBlock: UVAHIK_clean_linker_0, # of connection points: 2
#     Edge 15, Type (0, 1), BuildingBlock: UVAHIK_clean_linker_0, # of connection points: 2
#     Edge 16, Type (0, 1), BuildingBlock: UVAHIK_clean_linker_0, # of connection points: 2
#     Edge 17, Type (0, 1), BuildingBlock: UVAHIK_clean_linker_0, # of connection points: 2
# Relax obj value: 0.074
# Max RMSD: 0.211
# Mean RMSD: 0.112
data_MOF--net-pth--node1-UXUYUI_clean_sbu_0--node2-KOZSID_clean_sbu_0--edge1-UVAHIK_clean_linker_0
_symmetry_space_group_name_H-M    P1
_symmetry_Int_Tables_number       1
_symmetry_cell_setting            triclinic
loop_
_symmetry_equiv_pos_as_xyz
'x, y, z'
_cell_length_a     39.105157
_cell_length_b     39.082264
_cell_length_c     88.977272
_cell_angle_alpha  88.201543
_cell_angle_beta   88.198058
_cell_angle_gamma 119.99821
loop_
_atom_site_label
_atom_site_type_symbol
_atom_site_fract_x
_atom_site_fract_y
_atom_site_fract_z
_atom_type_partial_charge
Li0 Li 0.08903 0.06779 0.02884 0.0
Li1 Li 0.04269 0.06797 0.04769 0.0
Li2 Li 0.05959 0.01391 0.04744 0.0
Li3 Li 0.0169 0.01707 0.02881 0.0
C4 C 0.13228 0.09945 0.05251 0.0
N5 N 0.20987 0.15846 0.05478 0.0
C6 C 0.14088 0.13683 0.05692 0.0
C7 C 0.16312 0.09191 0.04949 0.0
C8 C 0.18031 0.16631 0.05795 0.0
C9 C 0.20215 0.12218 0.05063 0.0
C10 C 0.02506 0.09453 0.01956 0.0
C11 C 0.96577 0.09624 0.01428 0.0
N12 N 0.98819 0.13268 0.00725 0.0
C13 C 0.04747 0.13176 0.01207 0.0
C14 C 0.98384 0.07642 0.0205 0.0
C15 C 0.02831 0.15066 0.00602 0.0
C16 C 0.15206 0.09011 0.00672 0.0
N17 N 0.13458 0.10304 0.0167 0.0
C18 C 0.18096 0.17036 0.00936 0.0
C19 C 0.14828 0.14219 0.01816 0.0
C20 C 0.19954 0.15809 -0.00118 0.0
C21 C 0.18483 0.11737 0.99757 0.0
H22 H 0.14027 0.05873 0.00572 0.0
H23 H 0.13337 0.15151 0.02605 0.0
C24 C 0.01988 0.08999 0.07442 0.0
N25 N 0.03329 0.10163 0.05984 0.0
C26 C 0.01609 0.11583 0.08391 0.0
C27 C 0.03977 0.16493 0.06314 0.0
C28 C 0.04313 0.13821 0.05409 0.0
C29 C 0.0266 0.15407 0.07833 0.0
H30 H 0.01303 0.06096 0.07876 0.0
H31 H 0.05488 0.14718 0.04262 0.0
C32 C 0.07063 0.98002 0.02359 0.0
N33 N 0.0837 0.91714 0.02099 0.0
C34 C 0.04024 0.94338 0.01949 0.0
C35 C 0.10783 0.98483 0.02614 0.0
C36 C 0.04739 0.91192 0.01829 0.0
C37 C 0.1138 0.95264 0.02485 0.0
C38 C 0.96926 0.99261 0.05707 0.0
C39 C 0.95152 0.95501 0.06438 0.0
C40 C 0.94831 0.0129 0.05638 0.0
C41 C 0.91277 0.93794 0.0705 0.0
C42 C 0.90965 0.99487 0.06266 0.0
N43 N 0.89279 0.95804 0.0695 0.0
C44 C 0.09554 0.98849 0.06913 0.0
C45 C 0.03905 0.93814 0.05812 0.0
C46 C 0.09863 0.96023 0.07808 0.0
N47 N 0.06601 0.97692 0.05943 0.0
C48 C 0.04113 0.90898 0.06674 0.0
C49 C 0.07109 0.91987 0.07695 0.0
H50 H 0.11639 0.0196 0.07002 0.0
H51 H 0.0156 0.92991 0.05045 0.0
C52 C 0.97719 0.99813 0.0019 0.0
N53 N 0.97461 0.98594 0.01658 0.0
C54 C 0.94824 0.97433 0.99221 0.0
C55 C 0.91442 0.92617 0.01299 0.0
C56 C 0.94409 0.95078 0.02224 0.0
C57 C 0.91651 0.93767 0.99773 0.0
H58 H 0.00217 0.02602 0.99767 0.0
H59 H 0.94346 0.9411 0.03377 0.0
O60 O 0.09387 0.07038 0.05122 0.0
O61 O 0.04348 0.07555 0.02546 0.0
O62 O 0.06401 0.01101 0.02504 0.0
O63 O 0.00732 0.00978 0.05109 0.0
H64 H 0.11743 0.14313 0.05942 0.0
H65 H 0.157 0.06308 0.04622 0.0
H66 H 0.18739 0.19545 0.06125 0.0
H67 H 0.22631 0.11683 0.04821 0.0
H68 H 0.93389 0.08254 0.01496 0.0
H69 H 0.07934 0.14603 0.01099 0.0
H70 H 0.96585 0.04711 0.02573 0.0
H71 H 0.04534 0.17959 0.0003 0.0
H72 H 0.19084 0.20141 0.01048 0.0
H73 H 0.19843 0.10675 0.9896 0.0
H74 H 0.00637 0.10646 0.0956 0.0
H75 H 0.0479 0.19398 0.05834 0.0
H76 H 0.01134 0.93916 0.01738 0.0
H77 H 0.13178 0.01304 0.02916 0.0
H78 H 0.02406 0.88334 0.01523 0.0
H79 H 0.14237 0.95588 0.0269 0.0
H80 H 0.96738 0.93904 0.06527 0.0
H81 H 0.96187 0.04252 0.05129 0.0
H82 H 0.89862 0.90874 0.07608 0.0
H83 H 0.89313 0.01027 0.06216 0.0
H84 H 0.12225 0.9698 0.08578 0.0
H85 H 0.01886 0.87829 0.06572 0.0
H86 H 0.95083 0.98428 0.98051 0.0
H87 H 0.89094 0.89775 0.01761 0.0
Li88 Li 0.0351 0.02451 0.36355 0.0
Li89 Li 0.07829 0.07243 0.38145 0.0
Li90 Li 0.00856 0.05341 0.38165 0.0
Li91 Li 0.05688 0.09576 0.36085 0.0
C92 C 0.0075 0.98133 0.3917 0.0
N93 N 0.95968 0.90411 0.40274 0.0
C94 C 0.02327 0.96258 0.40032 0.0
C95 C 0.9674 0.96098 0.38878 0.0
C96 C -0.00139 0.92347 0.40577 0.0
C97 C 0.9437 0.92191 0.39444 0.0
C98 C 0.11462 0.08866 0.34742 0.0
C99 C 0.16892 0.14705 0.3348 0.0
N100 N 0.1637 0.12689 0.32209 0.0
C101 C 0.11007 0.06841 0.33428 0.0
C102 C 0.14454 0.12819 0.34773 0.0
C103 C 0.13508 0.08829 0.32159 0.0
C104 C 0.00953 0.97665 0.33893 0.0
N105 N 0.02375 0.97937 0.35284 0.0
C106 C 0.02767 0.92087 0.34999 0.0
C107 C 0.0327 0.95228 0.35852 0.0
C108 C 0.01397 0.91788 0.33542 0.0
C109 C 0.00439 0.94597 0.32997 0.0
H110 H 0.00352 0.99915 0.33458 0.0
H111 H 0.04492 0.95575 0.36946 0.0
C112 C 0.11184 0.0755 0.40921 0.0
N113 N 0.11998 0.08297 0.39411 0.0
C114 C 0.14137 0.07993 0.4187 0.0
C115 C 0.18689 0.09937 0.39688 0.0
C116 C 0.15662 0.09502 0.38784 0.0
C117 C 0.17924 0.09135 0.41249 0.0
H118 H 0.08214 0.06515 0.41381 0.0
H119 H 0.16206 0.10019 0.37578 0.0
C120 C 0.96914 0.03998 0.35285 0.0
N121 N 0.89965 0.02118 0.33931 0.0
C122 C 0.96356 0.06993 0.34653 0.0
C123 C 0.93948 0.00044 0.35216 0.0
C124 C 0.92819 0.05982 0.33977 0.0
C125 C 0.90454 0.99156 0.3453 0.0
C126 C 0.07744 0.13298 0.39265 0.0
C127 C 0.06275 0.12763 0.40758 0.0
C128 C 0.11548 0.1641 0.38857 0.0
C129 C 0.08665 0.15315 0.41825 0.0
C130 C 0.13849 0.18896 0.39957 0.0
N131 N 0.12373 0.18299 0.41406 0.0
C132 C 0.96161 0.03401 0.40865 0.0
C133 C 0.93791 0.05458 0.38809 0.0
C134 C 0.93255 0.03325 0.41842 0.0
N135 N 0.9642 0.04534 0.39386 0.0
C136 C 0.90791 0.05339 0.39735 0.0
C137 C 0.9056 0.0438 0.41285 0.0
H138 H 0.9833 0.02736 0.41298 0.0
H139 H 0.94094 0.06424 0.37641 0.0
C140 C 0.06728 0.13247 0.33173 0.0
N141 N 0.06728 0.13751 0.34677 0.0
C142 C 0.06989 0.16167 0.32154 0.0
C143 C 0.07204 0.20035 0.34255 0.0
C144 C 0.06997 0.17071 0.3523 0.0
C145 C 0.07146 0.19587 0.32692 0.0
H146 H 0.06391 0.10523 0.32767 0.0
H147 H 0.06871 0.17339 0.36432 0.0
O148 O 0.0314 0.0195 0.38621 0.0
O149 O 0.09024 0.06975 0.35994 0.0
O150 O 0.00376 0.04935 0.3594 0.0
O151 O 0.05477 0.10783 0.3821 0.0
H152 H 0.05429 0.97806 0.4027 0.0
H153 H 0.95468 0.97527 0.38232 0.0
H154 H 0.01043 0.90851 0.41241 0.0
H155 H 0.9126 0.90577 0.39227 0.0
H156 H 0.19199 0.17772 0.33486 0.0
H157 H 0.08753 0.0377 0.33387 0.0
H158 H 0.14879 0.1442 0.35782 0.0
H159 H 0.13175 0.07301 0.31133 0.0
H160 H 0.03595 0.90012 0.35449 0.0
H161 H 0.99365 0.94458 0.3188 0.0
H162 H 0.13425 0.07296 0.43067 0.0
H163 H 0.2158 0.10837 0.39171 0.0
H164 H 0.98608 0.10069 0.34698 0.0
H165 H 0.94347 0.9768 0.35674 0.0
H166 H 0.92342 0.08272 0.33491 0.0
H167 H 0.88135 0.96109 0.3447 0.0
H168 H 0.03335 0.10389 0.41094 0.0
H169 H 0.12714 0.16897 0.37705 0.0
H170 H 0.07573 0.14918 0.42986 0.0
H171 H 0.16806 0.21302 0.39658 0.0
H172 H 0.93243 0.02619 0.43029 0.0
H173 H 0.88738 0.06088 0.39243 0.0
H174 H 0.06976 0.15703 0.3096 0.0
H175 H 0.07223 0.22561 0.34729 0.0
Li176 Li 0.0795 0.03296 0.69497 0.0
Li177 Li 0.08351 0.0786 0.71376 0.0
Li178 Li 0.0336 0.00814 0.71634 0.0
Li179 Li 0.02908 0.05221 0.6974 0.0
C180 C 0.09711 0.01368 0.72819 0.0
N181 N 0.10519 0.97403 0.75285 0.0
C182 C 0.11189 0.03332 0.74137 0.0
C183 C 0.08666 0.97395 0.72752 0.0
C184 C 0.11574 0.01274 0.75372 0.0
C185 C 0.09087 0.9544 0.74012 0.0
C186 C 0.11403 0.12432 0.68845 0.0
C187 C 0.13646 0.19411 0.68841 0.0
N188 N 0.17298 0.20226 0.6832 0.0
C189 C 0.15171 0.13336 0.68301 0.0
C190 C 0.10623 0.15488 0.69109 0.0
C191 C 0.18114 0.17297 0.68045 0.0
C192 C 0.1148 0.03619 0.66652 0.0
N193 N 0.11063 0.02283 0.68112 0.0
C194 C 0.15775 0.00202 0.67664 0.0
C195 C 0.13089 0.00541 0.68626 0.0
C196 C 0.16405 0.01711 0.66165 0.0
C197 C 0.14147 0.03354 0.65651 0.0
H198 H 0.09858 0.05037 0.66283 0.0
H199 H 0.1272 0.99534 0.69795 0.0
C200 C 0.10473 0.13544 0.73577 0.0
N201 N 0.11883 0.12249 0.72447 0.0
C202 C 0.13091 0.16527 0.74466 0.0
C203 C 0.18546 0.16849 0.72982 0.0
C204 C 0.15827 0.13811 0.72142 0.0
C205 C 0.17179 0.18197 0.74172 0.0
H206 H 0.07321 0.1218 0.73816 0.0
H207 H 0.16858 0.12613 0.71277 0.0
C208 C 0.01854 0.9768 0.68313 0.0
N209 N 0.01677 0.93502 0.65842 0.0
C210 C 0.01155 0.98779 0.66897 0.0
C211 C 0.02442 0.94445 0.68476 0.0
C212 C 0.01079 0.96629 0.65661 0.0
C213 C 0.0235 0.92375 0.67212 0.0
C214 C 0.99684 0.06113 0.72302 0.0
C215 C 0.96041 0.03015 0.72886 0.0
C216 C 0.00178 0.09882 0.72039 0.0
C217 C 0.9293 0.03733 0.73178 0.0
C218 C 0.96994 0.10478 0.72344 0.0
N219 N 0.93466 0.07417 0.72902 0.0
C220 C 0.00571 0.96954 0.74519 0.0
C221 C 0.9732 0.93117 0.72464 0.0
C222 C 0.97952 0.93915 0.75542 0.0
N223 N 0.00202 0.96498 0.73014 0.0
C224 C 0.94596 0.9003 0.73445 0.0
C225 C 0.94856 0.9042 0.7501 0.0
H226 H 0.02831 0.99719 0.74923 0.0
H227 H 0.97036 0.92881 0.71262 0.0
C228 C 0.00528 0.08914 0.67543 0.0
N229 N 0.99263 0.06067 0.68675 0.0
C230 C 0.97793 0.09254 0.66672 0.0
C231 C 0.92521 0.03789 0.68175 0.0
C232 C 0.95355 0.03512 0.68997 0.0
C233 C 0.93719 0.06645 0.66975 0.0
H234 H 0.0366 0.10833 0.67285 0.0
H235 H 0.94441 0.01201 0.69874 0.0
O236 O 0.09296 0.03326 0.71599 0.0
O237 O 0.08491 0.08575 0.69115 0.0
O238 O 0.02037 0.99804 0.6953 0.0
O239 O 0.02759 0.05465 0.71998 0.0
H240 H 0.12015 0.06403 0.74211 0.0
H241 H 0.07488 0.95821 0.71745 0.0
H242 H 0.12703 0.02753 0.764 0.0
H243 H 0.08263 0.92358 0.73979 0.0
H244 H 0.13088 0.21806 0.69047 0.0
H245 H 0.15833 0.1101 0.68097 0.0
H246 H 0.07718 0.14839 0.6952 0.0
H247 H 0.2105 0.18041 0.67633 0.0
H248 H 0.17414 0.98865 0.68101 0.0
H249 H 0.14573 0.04598 0.64509 0.0
H250 H 0.11944 0.1749 0.75383 0.0
H251 H 0.2168 0.18021 0.72744 0.0
H252 H 0.00714 0.01287 0.6675 0.0
H253 H 0.03004 0.9357 0.69565 0.0
H254 H 0.00558 0.97455 0.64556 0.0
H255 H 0.02822 0.8988 0.67319 0.0
H256 H 0.95604 0.0008 0.73098 0.0
H257 H 0.02987 0.12317 0.71601 0.0
H258 H 0.90088 0.01359 0.73622 0.0
H259 H 0.97329 0.13376 0.72139 0.0
H260 H 0.98307 0.94339 0.76735 0.0
H261 H 0.92217 0.87443 0.72977 0.0
H262 H 0.9887 0.11448 0.6574 0.0
H263 H 0.89425 0.01747 0.68469 0.0
C264 C 0.06584 0.60735 0.18138 0.0
C265 C 0.10249 0.63516 0.17479 0.0
C266 C 0.13012 0.63133 0.18246 0.0
C267 C 0.10884 0.60144 0.19318 0.0
N268 N 0.06923 0.58567 0.19278 0.0
Co269 Co 0.02726 0.54109 0.20611 0.0
N270 N 0.06806 0.53774 0.21819 0.0
C271 C 0.10781 0.56135 0.21645 0.0
C272 C 0.12827 0.5516 0.22624 0.0
C273 C 0.10001 0.51974 0.23472 0.0
C274 C 0.06366 0.51193 0.22964 0.0
N275 N 0.9853 0.49557 0.21912 0.0
C276 C 0.98879 0.47319 0.23024 0.0
C277 C 0.95211 0.44362 0.23616 0.0
C278 C 0.92442 0.44694 0.22831 0.0
C279 C 0.94566 0.47825 0.21812 0.0
N280 N 0.98648 0.54542 0.19433 0.0
C281 C 0.9467 0.5234 0.19658 0.0
C282 C 0.92646 0.53445 0.18715 0.0
C283 C 0.95498 0.56577 0.17847 0.0
C284 C 0.99109 0.57188 0.1831 0.0
N285 N 0.02753 0.50274 0.1921 0.0
C286 C 0.02711 0.44577 0.17336 0.0
C287 C 0.99216 0.44545 0.17738 0.0
C288 C 0.99303 0.47393 0.18667 0.0
C289 C 0.06241 0.47555 0.17866 0.0
C290 C 0.06196 0.50354 0.18791 0.0
N291 N 0.02689 0.57932 0.22016 0.0
C292 C 0.99108 0.59942 0.23691 0.0
C293 C 0.02593 0.63367 0.23992 0.0
C294 C 0.06134 0.64039 0.23291 0.0
C295 C 0.06119 0.6129 0.22322 0.0
C296 C 0.99218 0.573 0.22701 0.0
H297 H 0.08916 0.61949 0.21832 0.0
H298 H 0.96449 0.54785 0.22504 0.0
H299 H 0.96533 0.47179 0.18936 0.0
H300 H 0.08979 0.52525 0.19165 0.0
C301 C 0.1252 0.5898 0.20455 0.0
C302 C 0.0289 0.60397 0.17685 0.0
C303 C 0.02602 0.47837 0.23541 0.0
C304 C 0.92927 0.49245 0.20762 0.0
H305 H 0.10863 0.65657 0.16558 0.0
H306 H 0.16195 0.64898 0.18071 0.0
H307 H 0.16002 0.56511 0.22676 0.0
H308 H 0.10583 0.50352 0.24336 0.0
H309 H 0.94604 0.42176 0.24517 0.0
H310 H 0.89259 0.42861 0.22982 0.0
H311 H 0.89475 0.52153 0.18675 0.0
H312 H 0.94984 0.58252 0.16982 0.0
H313 H 0.96412 0.42341 0.17333 0.0
H314 H 0.09027 0.47687 0.17596 0.0
H315 H 0.96287 0.59332 0.24195 0.0
H316 H 0.08912 0.66651 0.23502 0.0
C317 C 0.49071 0.02937 0.56217 0.0
C318 C 0.46329 0.99158 0.56793 0.0
C319 C 0.46909 0.96587 0.55971 0.0
C320 C 0.49973 0.98934 0.54953 0.0
N321 N 0.51415 0.02854 0.55085 0.0
Co322 Co 0.55912 0.07315 0.5386 0.0
N323 N 0.56447 0.03529 0.5254 0.0
C324 C 0.54109 0.99546 0.52587 0.0
C325 C 0.5513 0.97758 0.51502 0.0
C326 C 0.5835 0.00773 0.50728 0.0
C327 C 0.59132 0.04233 0.51402 0.0
N328 N 0.60518 0.11768 0.52666 0.0
C329 C 0.62982 0.1166 0.51585 0.0
C330 C 0.66042 0.15429 0.51142 0.0
C331 C 0.655 0.18008 0.51974 0.0
C332 C 0.62178 0.15682 0.52883 0.0
N333 N 0.55257 0.11104 0.55146 0.0
C334 C 0.57399 0.15104 0.55024 0.0
C335 C 0.561 0.16906 0.56 0.0
C336 C 0.52891 0.13881 0.56776 0.0
C337 C 0.52436 0.10394 0.56231 0.0
N338 N 0.59669 0.07113 0.55259 0.0
C339 C 0.65205 0.06944 0.57172 0.0
C340 C 0.6502 0.10392 0.5692 0.0
C341 C 0.62281 0.10418 0.55963 0.0
C342 C 0.62526 0.03561 0.5646 0.0
C343 C 0.5979 0.03702 0.55525 0.0
N344 N 0.52159 0.07526 0.52464 0.0
C345 C 0.49943 0.11311 0.51013 0.0
C346 C 0.46625 0.07854 0.5061 0.0
C347 C 0.46149 0.04225 0.51127 0.0
C348 C 0.4892 0.04129 0.52052 0.0
C349 C 0.52666 0.11081 0.51923 0.0
H350 H 0.4835 0.01275 0.52435 0.0
H351 H 0.5514 0.13823 0.52183 0.0
H352 H 0.62356 0.13163 0.55808 0.0
H353 H 0.5783 0.01022 0.5502 0.0
C354 C 0.51242 0.97548 0.53755 0.0
C355 C 0.49185 0.06492 0.56728 0.0
C356 C 0.62631 0.08055 0.51002 0.0
C357 C 0.60603 0.17075 0.53975 0.0
H358 H 0.44071 0.98346 0.57686 0.0
H359 H 0.452 0.93387 0.56065 0.0
H360 H 0.53785 0.94626 0.5133 0.0
H361 H 0.60019 0.00449 0.49806 0.0
H362 H 0.68469 0.1624 0.50326 0.0
H363 H 0.67362 0.21195 0.51945 0.0
H364 H 0.57302 0.20047 0.56115 0.0
H365 H 0.51055 0.14209 0.57628 0.0
H366 H 0.66964 0.13077 0.57467 0.0
H367 H 0.62567 0.0082 0.56602 0.0
H368 H 0.50453 0.14189 0.50618 0.0
H369 H 0.43601 0.01469 0.50847 0.0
C370 C 0.62292 0.574 0.84866 0.0
C371 C 0.65234 0.56655 0.84344 0.0
C372 C 0.64732 0.53414 0.8516 0.0
C373 C 0.61544 0.52372 0.86134 0.0
N374 N 0.59962 0.54745 0.85988 0.0
Co375 Co 0.55308 0.54289 0.87186 0.0
N376 N 0.54869 0.49791 0.8849 0.0
C377 C 0.57321 0.48287 0.88451 0.0
C378 C 0.56317 0.45263 0.89507 0.0
C379 C 0.53009 0.44789 0.90263 0.0
C380 C 0.5218 0.47553 0.89614 0.0
N381 N 0.50529 0.53698 0.88338 0.0
C382 C 0.48142 0.50957 0.89428 0.0
C383 C 0.4499 0.51454 0.89871 0.0
C384 C 0.45377 0.54607 0.8902 0.0
C385 C 0.48719 0.55836 0.88108 0.0
N386 N 0.55878 0.58923 0.85933 0.0
C387 C 0.53613 0.60633 0.86054 0.0
C388 C 0.54803 0.6385 0.85075 0.0
C389 C 0.58063 0.64265 0.84298 0.0
C390 C 0.58677 0.61266 0.84854 0.0
N391 N 0.51755 0.50547 0.85735 0.0
C392 C 0.4657 0.45192 0.83727 0.0
C393 C 0.46634 0.48727 0.83966 0.0
C394 C 0.492 0.51323 0.84975 0.0
C395 C 0.49149 0.44371 0.84498 0.0
C396 C 0.51735 0.47094 0.85478 0.0
N397 N 0.58857 0.58039 0.88634 0.0
C398 C 0.60563 0.63521 0.90217 0.0
C399 C 0.64076 0.63652 0.90567 0.0
C400 C 0.64907 0.60882 0.89957 0.0
C401 C 0.62264 0.58106 0.89007 0.0
C402 C 0.58023 0.60721 0.89255 0.0
H403 H 0.63058 0.56067 0.88581 0.0
H404 H 0.55429 0.60828 0.89015 0.0
H405 H 0.49026 0.53918 0.85129 0.0
H406 H 0.53676 0.46332 0.86018 0.0
C407 C 0.60284 0.495 0.87312 0.0
C408 C 0.61979 0.60794 0.84328 0.0
C409 C 0.48689 0.47786 0.90049 0.0
C410 C 0.50297 0.59049 0.87056 0.0
H411 H 0.67585 0.58339 0.83496 0.0
H412 H 0.66577 0.52078 0.85095 0.0
H413 H 0.57743 0.43525 0.89673 0.0
H414 H 0.51336 0.4259 0.91165 0.0
H415 H 0.42642 0.49698 0.90714 0.0
H416 H 0.43446 0.55846 0.89059 0.0
H417 H 0.53454 0.6567 0.84939 0.0
H418 H 0.59799 0.66525 0.83423 0.0
H419 H 0.44643 0.4945 0.834 0.0
H420 H 0.49199 0.4166 0.84334 0.0
H421 H 0.59814 0.65635 0.90653 0.0
H422 H 0.67576 0.60843 0.90215 0.0
C423 C 0.99437 0.17165 0.09923 0.0
C424 C 0.02566 0.18315 0.0884 0.0
C425 C 0.99398 0.19921 0.10877 0.0
C426 C 0.05994 0.29645 0.12395 0.0
H427 H 0.96259 0.29741 0.13251 0.0
C428 C 0.05662 0.42505 0.15257 0.0
C429 C 0.02663 0.41504 0.16384 0.0
C430 C 0.05617 0.39607 0.14366 0.0
C431 C 0.9899 0.29723 0.13034 0.0
H432 H 0.08136 0.23245 0.07927 0.0
H433 H 0.08015 0.28058 0.09562 0.0
H434 H 0.96222 0.24776 0.11644 0.0
H435 H 0.97298 0.36658 0.17472 0.0
H436 H 0.97207 0.31607 0.15906 0.0
H437 H 0.08769 0.34616 0.13773 0.0
C438 C 0.05612 0.25022 0.09686 0.0
C439 C 0.98969 0.26877 0.12117 0.0
C440 C 0.05653 0.22274 0.08734 0.0
C441 C 0.99616 0.37539 0.16597 0.0
C442 C 0.99565 0.34644 0.15702 0.0
C443 C 0.06017 0.32495 0.13308 0.0
C444 C 0.02491 0.23879 0.1077 0.0
C445 C 0.02476 0.26821 0.1178 0.0
C446 C 0.02567 0.35647 0.14579 0.0
C447 C 0.02521 0.32576 0.13631 0.0
H448 H 0.97003 0.14143 0.10024 0.0
H449 H 0.96968 0.1894 0.1171 0.0
H450 H 0.08732 0.29637 0.1218 0.0
H451 H 0.08017 0.45541 0.15049 0.0
H452 H 0.0794 0.40476 0.13494 0.0
C453 C 0.85976 0.02181 0.43615 0.0
C454 C 0.87696 0.04728 0.42321 0.0
C455 C 0.83422 0.02646 0.44613 0.0
C456 C 0.80376 0.09961 0.45637 0.0
H457 H 0.71418 0.00765 0.47659 0.0
C458 C 0.6696 0.09916 0.48633 0.0
C459 C 0.6594 0.08167 0.50099 0.0
C460 C 0.69845 0.09693 0.47744 0.0
C461 C 0.73929 0.03356 0.47108 0.0
H462 H 0.88068 0.09793 0.41079 0.0
H463 H 0.83452 0.10429 0.42753 0.0
H464 H 0.75904 0.99886 0.45961 0.0
H465 H 0.67084 0.04833 0.51798 0.0
H466 H 0.72072 0.04347 0.50225 0.0
H467 H 0.78266 0.13399 0.46746 0.0
C468 C 0.84155 0.08138 0.43026 0.0
C469 C 0.76513 0.02861 0.46141 0.0
C470 C 0.86752 0.07717 0.42044 0.0
C471 C 0.67855 0.06217 0.5067 0.0
C472 C 0.70681 0.05928 0.49773 0.0
C473 C 0.77747 0.10444 0.46582 0.0
C474 C 0.82482 0.05637 0.44332 0.0
C475 C 0.79769 0.06158 0.45389 0.0
C476 C 0.71676 0.07638 0.483 0.0
C477 C 0.74506 0.07147 0.47324 0.0
H478 H 0.86593 0.99818 0.4386 0.0
H479 H 0.8223 0.00688 0.45615 0.0
H480 H 0.82895 0.12579 0.45108 0.0
H481 H 0.65464 0.11376 0.48167 0.0
H482 H 0.70549 0.11005 0.46605 0.0
C483 C 0.89923 0.83301 0.75746 0.0
C484 C 0.91755 0.8732 0.76068 0.0
C485 C 0.86758 0.80436 0.76667 0.0
C486 C 0.79142 0.79455 0.79523 0.0
H487 H 0.77372 0.68811 0.80139 0.0
C488 C 0.67683 0.67663 0.83889 0.0
C489 C 0.65203 0.63939 0.83335 0.0
C490 C 0.70866 0.70569 0.82989 0.0
C491 C 0.77827 0.7177 0.79966 0.0
H492 H 0.91735 0.91441 0.77647 0.0
H493 H 0.86398 0.86437 0.79293 0.0
H494 H 0.83246 0.73782 0.78669 0.0
H495 H 0.63966 0.60327 0.8141 0.0
H496 H 0.69628 0.65395 0.79837 0.0
H497 H 0.73767 0.77439 0.80867 0.0
C498 C 0.87317 0.85506 0.78301 0.0
C499 C 0.8118 0.74616 0.7912 0.0
C500 C 0.90439 0.88377 0.77368 0.0
C501 C 0.65881 0.63179 0.81858 0.0
C502 C 0.69106 0.66059 0.80966 0.0
C503 C 0.75827 0.76625 0.80389 0.0
C504 C 0.85382 0.81508 0.77947 0.0
C505 C 0.81873 0.78494 0.78882 0.0
C506 C 0.71638 0.69765 0.81529 0.0
C507 C 0.75135 0.72758 0.8061 0.0
H508 H 0.90896 0.82363 0.7477 0.0
H509 H 0.85328 0.77395 0.76349 0.0
H510 H 0.79522 0.82379 0.79338 0.0
H511 H 0.67192 0.68292 0.85028 0.0
H512 H 0.7279 0.73405 0.83446 0.0
C513 C 0.07822 0.89447 0.10218 0.0
C514 C 0.0722 0.88912 0.08675 0.0
C515 C 0.07543 0.86393 0.11168 0.0
C516 C 0.02909 0.75562 0.11435 0.0
H517 H 0.09937 0.77461 0.1468 0.0
C518 C 0.02534 0.6292 0.15117 0.0
C519 C 0.03037 0.63514 0.16656 0.0
C520 C 0.03036 0.66004 0.14128 0.0
C521 C 0.07923 0.76892 0.13789 0.0
H522 H 0.0607 0.84848 0.06902 0.0
H523 H 0.05598 0.79521 0.0856 0.0
H524 H 0.1105 0.82949 0.12959 0.0
H525 H 0.04396 0.67681 0.18394 0.0
H526 H 0.05208 0.7308 0.16673 0.0
H527 H 0.99765 0.69512 0.12269 0.0
C528 C 0.06202 0.82268 0.09041 0.0
C529 C 0.08567 0.80033 0.12802 0.0
C530 C 0.06478 0.85318 0.08092 0.0
C531 C 0.03983 0.67186 0.17206 0.0
C532 C 0.04482 0.70269 0.1622 0.0
C533 C 0.02262 0.72422 0.12422 0.0
C534 C 0.0666 0.82747 0.10593 0.0
C535 C 0.06062 0.79403 0.11617 0.0
C536 C 0.04059 0.69727 0.14667 0.0
C537 C 0.04753 0.73055 0.13613 0.0
H538 H 0.08354 0.92168 0.10703 0.0
H539 H 0.07874 0.86839 0.12362 0.0
H540 H 0.00885 0.74994 0.10548 0.0
H541 H 0.01846 0.60103 0.14678 0.0
H542 H 0.02733 0.65507 0.12936 0.0
C543 C 0.21753 0.11109 0.43582 0.0
C544 C 0.20985 0.09236 0.42211 0.0
C545 C 0.24557 0.11068 0.44508 0.0
C546 C 0.29286 0.053 0.45414 0.0
H547 H 0.37492 0.1492 0.47018 0.0
C548 C 0.42243 0.05646 0.48435 0.0
C549 C 0.43664 0.08037 0.49667 0.0
C550 C 0.39465 0.05837 0.47541 0.0
C551 C 0.35184 0.12195 0.466 0.0
H552 H 0.22505 0.05829 0.40737 0.0
H553 H 0.2738 0.05731 0.4236 0.0
H554 H 0.32622 0.15195 0.45445 0.0
H555 H 0.43253 0.12443 0.50955 0.0
H556 H 0.38325 0.12712 0.49421 0.0
H557 H 0.31766 0.0227 0.46585 0.0
C558 C 0.25829 0.07242 0.42714 0.0
C559 C 0.32409 0.12361 0.45695 0.0
C560 C 0.23071 0.0733 0.41781 0.0
C561 C 0.42239 0.10605 0.49998 0.0
C562 C 0.39427 0.10765 0.49115 0.0
C563 C 0.32028 0.05123 0.46331 0.0
C564 C 0.26588 0.09098 0.44088 0.0
C565 C 0.29458 0.0892 0.45084 0.0
C566 C 0.38011 0.0839 0.47873 0.0
C567 C 0.35034 0.08572 0.46926 0.0
H568 H 0.2019 0.12608 0.43935 0.0
H569 H 0.25081 0.12505 0.45566 0.0
H570 H 0.27001 0.02594 0.44973 0.0
H571 H 0.43331 0.03674 0.48146 0.0
H572 H 0.385 0.0402 0.46577 0.0
C573 C 0.23238 0.24692 0.74536 0.0
C574 C 0.20022 0.2115 0.75157 0.0
C575 C 0.26066 0.27363 0.75464 0.0
C576 C 0.30684 0.27758 0.78958 0.0
H577 H 0.33785 0.38866 0.78829 0.0
C578 C 0.41193 0.38409 0.83196 0.0
C579 C 0.43755 0.42361 0.827 0.0
C580 C 0.38326 0.35808 0.82263 0.0
C581 C 0.33012 0.35789 0.78862 0.0
H582 H 0.17213 0.17601 0.77221 0.0
H583 H 0.22216 0.22248 0.78845 0.0
H584 H 0.28681 0.34401 0.77215 0.0
H585 H 0.45463 0.46679 0.80832 0.0
H586 H 0.40581 0.42113 0.79173 0.0
H587 H 0.35082 0.29128 0.80562 0.0
C588 C 0.2252 0.22967 0.77644 0.0
C589 C 0.30068 0.33234 0.77945 0.0
C590 C 0.19654 0.20333 0.7672 0.0
C591 C 0.43487 0.43647 0.81242 0.0
C592 C 0.40668 0.41036 0.80299 0.0
C593 C 0.33675 0.3032 0.79858 0.0
C594 C 0.25759 0.2649 0.77022 0.0
C595 C 0.28869 0.29198 0.77992 0.0
C596 C 0.38007 0.37096 0.80805 0.0
C597 C 0.3487 0.34369 0.79827 0.0
H598 H 0.23573 0.25379 0.73332 0.0
H599 H 0.2855 0.30057 0.7496 0.0
H600 H 0.29835 0.24657 0.78998 0.0
H601 H 0.41323 0.37366 0.84324 0.0
H602 H 0.36295 0.3282 0.82703 0.0
C603 C 0.87313 0.03256 0.6568 0.0
C604 C 0.90746 0.06776 0.66007 0.0
C605 C 0.84541 0.03351 0.64757 0.0
C606 C 0.83522 0.0901 0.61683 0.0
H607 H 0.72396 0.03507 0.62968 0.0
C608 C 0.7197 0.10246 0.58201 0.0
C609 C 0.68173 0.06901 0.58166 0.0
C610 C 0.74725 0.10264 0.59165 0.0
C611 C 0.7548 0.05006 0.62579 0.0
H612 H 0.93907 0.13169 0.65622 0.0
H613 H 0.89113 0.13301 0.63962 0.0
H614 H 0.772 0.03488 0.64646 0.0
H615 H 0.64325 0.00932 0.5912 0.0
H616 H 0.69189 0.00892 0.60743 0.0
H617 H 0.81827 0.10425 0.59599 0.0
C618 C 0.88588 0.10479 0.64433 0.0
C619 C 0.78228 0.05014 0.63546 0.0
C620 C 0.91337 0.10394 0.65378 0.0
C621 C 0.6723 0.03547 0.59103 0.0
C622 C 0.70005 0.03548 0.60054 0.0
C623 C 0.80771 0.08954 0.60706 0.0
C624 C 0.85166 0.06957 0.64118 0.0
C625 C 0.8227 0.0702 0.63107 0.0
C626 C 0.7378 0.06918 0.60106 0.0
C627 C 0.76712 0.06955 0.61142 0.0
H628 H 0.86792 0.00404 0.66111 0.0
H629 H 0.81946 0.0059 0.64513 0.0
H630 H 0.86623 0.10536 0.61313 0.0
H631 H 0.72834 0.12861 0.57478 0.0
H632 H 0.7758 0.12932 0.59185 0.0
C633 C 0.84663 0.88909 0.99212 0.0
C634 C 0.88695 0.91036 0.98752 0.0
C635 C 0.81919 0.861 0.98299 0.0
C636 C 0.80526 0.82686 0.94407 0.0
H637 H 0.72504 0.72738 0.96372 0.0
C638 C 0.70952 0.68818 0.91129 0.0
C639 C 0.66885 0.66719 0.91536 0.0
C640 C 0.73578 0.71834 0.92006 0.0
C641 C 0.74703 0.75514 0.95809 0.0
H642 H 0.93014 0.91927 0.96968 0.0
H643 H 0.88236 0.87004 0.95379 0.0
H644 H 0.77115 0.78023 0.97887 0.0
H645 H 0.62388 0.66065 0.93195 0.0
H646 H 0.66979 0.71342 0.94727 0.0
H647 H 0.78137 0.80138 0.92327 0.0
C648 C 0.87177 0.87549 0.96433 0.0
C649 C 0.77337 0.78548 0.96676 0.0
C650 C 0.89917 0.90371 0.97343 0.0
C651 C 0.65504 0.67655 0.92848 0.0
C652 C 0.68133 0.70652 0.93731 0.0
C653 C 0.77902 0.79642 0.93539 0.0
C654 C 0.83153 0.85343 0.96909 0.0
C655 C 0.80284 0.82168 0.95985 0.0
C656 C 0.72193 0.7279 0.93312 0.0
C657 C 0.7497 0.76024 0.94232 0.0
H658 H 0.83632 0.89401 0.00283 0.0
H659 H 0.78831 0.84507 0.98685 0.0
H660 H 0.82724 0.85457 0.93841 0.0
H661 H 0.72093 0.68182 0.90116 0.0
H662 H 0.76698 0.73407 0.91665 0.0
C663 C 0.02786 0.89745 0.3107 0.0
C664 C 0.01209 0.88715 0.32562 0.0
C665 C 0.0279 0.86909 0.30158 0.0
C666 C 0.02108 0.77117 0.3036 0.0
H667 H 0.00452 0.77448 0.26094 0.0
C668 C 0.00316 0.64921 0.26402 0.0
C669 C 0.02506 0.66237 0.25015 0.0
C670 C 0.00125 0.67613 0.27347 0.0
C671 C 0.00948 0.77343 0.27282 0.0
H672 H 0.9832 0.83903 0.34263 0.0
H673 H 0.9824 0.78907 0.32658 0.0
H674 H -0.00019 0.82156 0.27698 0.0
H675 H 0.06209 0.71382 0.23526 0.0
H676 H 0.0586 0.76097 0.25177 0.0
H677 H 0.03014 0.72253 0.29938 0.0
C678 C 0.99557 0.81928 0.32202 0.0
C679 C 0.00686 0.80041 0.28201 0.0
C680 C 0.99586 0.84779 0.3312 0.0
C681 C 0.04523 0.70296 0.24594 0.0
C682 C 0.04295 0.72983 0.25531 0.0
C683 C 0.02331 0.74393 0.29442 0.0
C684 C 0.01187 0.82967 0.30714 0.0
C685 C 0.01296 0.79984 0.29749 0.0
C686 C 0.02083 0.71664 0.26913 0.0
C687 C 0.01784 0.74503 0.27893 0.0
H688 H 0.04118 0.92774 0.3062 0.0
H689 H 0.04139 0.87834 0.29029 0.0
H690 H 0.02657 0.77028 0.31541 0.0
H691 H 0.98756 0.61808 0.26757 0.0
H692 H 0.98384 0.66519 0.28403 0.0
C693 C 0.1911 0.01123 0.63645 0.0
C694 C 0.19617 0.01863 0.65181 0.0
C695 C 0.22246 0.01531 0.62709 0.0
C696 C 0.33124 0.06609 0.62449 0.0
H697 H 0.31629 0.99058 0.59451 0.0
C698 C 0.46202 0.06768 0.59213 0.0
C699 C 0.45822 0.06106 0.57674 0.0
C700 C 0.4297 0.0626 0.60111 0.0
C701 C 0.32082 0.01215 0.60272 0.0
H702 H 0.2381 0.03598 0.66939 0.0
H703 H 0.29233 0.04217 0.65318 0.0
H704 H 0.2599 0.98062 0.61056 0.0
H705 H 0.41859 0.04394 0.5585 0.0
H706 H 0.36187 0.03534 0.57414 0.0
H707 H 0.39209 0.09763 0.61669 0.0
C708 C 0.26429 0.03363 0.64832 0.0
C709 C 0.28855 0.00643 0.61191 0.0
C710 C 0.23302 0.02953 0.65766 0.0
C711 C 0.42189 0.04926 0.57039 0.0
C712 C 0.38954 0.04412 0.57935 0.0
C713 C 0.36346 0.07181 0.61532 0.0
C714 C 0.25953 0.02703 0.63291 0.0
C715 C 0.29348 0.03323 0.62294 0.0
C716 C 0.39308 0.05065 0.59481 0.0
C717 C 0.35865 0.04483 0.60438 0.0
H718 H 0.16297 0.00251 0.63164 0.0
H719 H 0.21796 0.01021 0.61524 0.0
H720 H 0.33583 0.08767 0.63271 0.0
H721 H 0.48986 0.07641 0.5972 0.0
H722 H 0.43319 0.06733 0.61302 0.0
C723 C 0.23375 0.18252 0.97324 0.0
C724 C 0.23274 0.18789 0.98875 0.0
C725 C 0.26261 0.21258 0.96352 0.0
C726 C 0.35917 0.30549 0.96232 0.0
H727 H 0.32231 0.33013 0.9258 0.0
C728 C 0.45486 0.44958 0.92599 0.0
C729 C 0.45554 0.44579 0.91041 0.0
C730 C 0.42752 0.41773 0.93547 0.0
C731 C 0.33314 0.32337 0.93587 0.0
H732 H 0.26234 0.22797 0.00635 0.0
H733 H 0.31239 0.28061 0.98938 0.0
H734 H 0.27637 0.27371 0.94241 0.0
H735 H 0.42892 0.40691 0.89229 0.0
H736 H 0.38083 0.35093 0.90883 0.0
H737 H 0.41589 0.35537 0.95581 0.0
C738 C 0.291 0.2532 0.98471 0.0
C739 C 0.30688 0.29098 0.94536 0.0
C740 C 0.26213 0.22321 0.99442 0.0
C741 C 0.42833 0.41025 0.90432 0.0
C742 C 0.40093 0.37843 0.91377 0.0
C743 C 0.38543 0.3379 0.95283 0.0
C744 C 0.29109 0.24852 0.96912 0.0
C745 C 0.31956 0.28178 0.95872 0.0
C746 C 0.40054 0.38167 0.92947 0.0
C747 C 0.37264 0.34728 0.93954 0.0
H748 H 0.21135 0.15572 0.96853 0.0
H749 H 0.26227 0.20792 0.95157 0.0
H750 H 0.36993 0.29884 0.97243 0.0
H751 H 0.47596 0.47688 0.93081 0.0
H752 H 0.42758 0.42125 0.9475 0.0
C753 C 0.04596 0.21302 0.304 0.0
C754 C 0.0696 0.22534 0.3165 0.0
C755 C 0.04146 0.24018 0.29495 0.0
C756 C 0.08346 0.34824 0.28645 0.0
H757 H 0.9801 0.31366 0.27101 0.0
C758 C 0.03893 0.45606 0.26018 0.0
C759 C 0.0259 0.44751 0.24554 0.0
C760 C 0.04276 0.42827 0.26911 0.0
C761 C 0.0091 0.32358 0.27524 0.0
H762 H 0.1084 0.27645 0.32886 0.0
H763 H 0.09894 0.32332 0.31361 0.0
H764 H 0.99135 0.26692 0.2858 0.0
H765 H 0.00455 0.40313 0.22893 0.0
H766 H 0.01005 0.35375 0.24478 0.0
H767 H 0.10058 0.40529 0.27622 0.0
C768 C 0.08443 0.29278 0.31058 0.0
C769 C 0.01573 0.29681 0.2836 0.0
C770 C 0.08941 0.26572 0.31949 0.0
C771 C 0.01472 0.41015 0.24021 0.0
C772 C 0.01785 0.38208 0.24924 0.0
C773 C 0.07659 0.37512 0.27831 0.0
C774 C 0.06 0.28029 0.29829 0.0
C775 C 0.05307 0.30874 0.28927 0.0
C776 C 0.03272 0.39127 0.26362 0.0
C777 C 0.03941 0.36297 0.27261 0.0
H778 H 0.02983 0.18214 0.30142 0.0
H779 H 0.02309 0.22957 0.2854 0.0
H780 H 0.11278 0.35837 0.29037 0.0
H781 H 0.04734 0.48469 0.26448 0.0
H782 H 0.05391 0.43578 0.28023 0.0
loop_
_geom_bond_atom_site_label_1
_geom_bond_atom_site_label_2
_geom_bond_distance
_geom_bond_site_symmetry_2
_ccdc_geom_bond_type
Li0 N17 1.990 . S
Li0 O60 1.956 . S
Li0 O61 1.970 . S
Li0 O62 1.961 . S
Li1 N25 1.990 . S
Li1 O60 1.970 . S
Li1 O61 1.956 . S
Li1 O63 1.961 . S
Li2 N47 1.990 1_545 S
Li2 O60 1.961 . S
Li2 O62 1.956 . S
Li2 O63 1.970 . S
Li3 N53 1.990 1_445 S
Li3 O61 1.961 . S
Li3 O62 1.970 . S
Li3 O63 1.956 . S
C4 C6 1.348 . S
C4 C7 1.356 . S
C4 O60 1.325 . S
N5 C8 1.314 . S
N5 C9 1.279 . S
C6 C4 1.348 . S
C6 C8 1.353 . S
C6 H64 0.929 . S
C7 C4 1.356 . S
C7 C9 1.358 . S
C7 H65 0.930 . S
C8 N5 1.314 . S
C8 C6 1.353 . S
C8 H66 0.930 . S
C9 N5 1.279 . S
C9 C7 1.358 . S
C9 H67 0.930 . S
C10 C13 1.348 . S
C10 C14 1.356 . S
C10 O61 1.325 . S
C11 N12 1.279 . S
C11 C14 1.358 . S
C11 H68 0.930 1_455 S
N12 C11 1.279 . S
N12 C15 1.314 . S
C13 C10 1.348 . S
C13 C15 1.353 . S
C13 H69 0.929 . S
C14 C10 1.356 . S
C14 C11 1.358 . S
C14 H70 0.930 1_455 S
C15 N12 1.314 . S
C15 C13 1.353 . S
C15 H71 0.917 1_554 S
C16 N17 1.314 . S
C16 C21 1.353 1_554 S
C16 H22 0.911 1_554 S
N17 Li0 1.990 . S
N17 C16 1.314 . S
N17 C19 1.279 . S
C18 C19 1.358 . S
C18 C20 1.356 1_554 S
C18 H72 0.930 . S
C19 N17 1.279 . S
C19 C18 1.358 . S
C19 H23 0.930 . S
C20 C18 1.356 1_556 S
C20 C21 1.348 . S
C21 C16 1.353 1_556 S
C21 C20 1.348 . S
C21 H73 0.929 . S
H22 C16 0.911 1_556 S
H23 C19 0.930 . S
C24 N25 1.314 . S
C24 C26 1.353 . S
C24 H30 0.930 . S
N25 Li1 1.990 . S
N25 C24 1.314 . S
N25 C28 1.279 . S
C26 C24 1.353 . S
C26 C29 1.348 . S
C26 H74 0.929 . S
C27 C28 1.358 . S
C27 C29 1.356 . S
C27 H75 0.930 . S
C28 N25 1.279 . S
C28 C27 1.358 . S
C28 H31 0.930 . S
C29 C26 1.348 . S
C29 C27 1.356 . S
H30 C24 0.930 . S
H31 C28 0.930 . S
C32 C34 1.348 . S
C32 C35 1.356 1_565 S
C32 O62 1.325 1_565 S
N33 C36 1.314 . S
N33 C37 1.279 . S
C34 C32 1.348 . S
C34 C36 1.353 . S
C34 H76 0.929 . S
C35 C32 1.356 1_545 S
C35 C37 1.358 1_545 S
C35 H77 0.930 . S
C36 N33 1.314 . S
C36 C34 1.353 . S
C36 H78 0.930 . S
C37 N33 1.279 . S
C37 C35 1.358 1_565 S
C37 H79 0.930 . S
C38 C39 1.348 . S
C38 C40 1.356 . S
C38 O63 1.325 1_665 S
C39 C38 1.348 . S
C39 C41 1.353 . S
C39 H80 0.930 1_655 S
C40 C38 1.356 . S
C40 C42 1.358 . S
C40 H81 0.930 1_565 S
C41 C39 1.353 . S
C41 N43 1.314 . S
C41 H82 0.930 . S
C42 C40 1.358 . S
C42 N43 1.279 . S
C42 H83 0.930 . S
N43 C41 1.314 . S
N43 C42 1.279 . S
C44 C46 1.353 . S
C44 N47 1.314 . S
C44 H50 0.930 1_565 S
C45 N47 1.279 . S
C45 C48 1.358 . S
C45 H51 0.930 . S
C46 C44 1.353 . S
C46 C49 1.348 . S
C46 H84 0.929 . S
N47 Li2 1.990 1_565 S
N47 C44 1.314 . S
N47 C45 1.279 . S
C48 C45 1.358 . S
C48 C49 1.356 . S
C48 H85 0.930 . S
C49 C46 1.348 . S
C49 C48 1.356 . S
H50 C44 0.930 1_545 S
H51 C45 0.930 . S
C52 N53 1.314 . S
C52 C54 1.353 1_554 S
C52 H58 0.929 1_664 S
N53 Li3 1.990 1_665 S
N53 C52 1.314 . S
N53 C56 1.279 . S
C54 C52 1.353 1_556 S
C54 C57 1.355 . S
C54 H86 0.929 . S
C55 C56 1.358 . S
C55 C57 1.332 1_554 S
C55 H87 0.930 . S
C56 N53 1.279 . S
C56 C55 1.358 . S
C56 H59 0.930 . S
C57 C54 1.355 . S
C57 C55 1.332 1_556 S
H58 C52 0.929 1_446 S
H59 C56 0.930 . S
O60 Li0 1.956 . S
O60 Li1 1.970 . S
O60 Li2 1.961 . S
O60 C4 1.325 . S
O61 Li0 1.970 . S
O61 Li1 1.956 . S
O61 Li3 1.961 . S
O61 C10 1.325 . S
O62 Li0 1.961 . S
O62 Li2 1.956 . S
O62 Li3 1.970 . S
O62 C32 1.325 1_545 S
O63 Li1 1.961 . S
O63 Li2 1.970 . S
O63 Li3 1.956 . S
O63 C38 1.325 1_445 S
H64 C6 0.929 . S
H65 C7 0.930 . S
H66 C8 0.930 . S
H67 C9 0.930 . S
H68 C11 0.930 1_655 S
H69 C13 0.929 . S
H70 C14 0.930 1_655 S
H71 C15 0.917 1_556 S
H72 C18 0.930 . S
H73 C21 0.929 . S
H74 C26 0.929 . S
H75 C27 0.930 . S
H76 C34 0.929 . S
H77 C35 0.930 . S
H78 C36 0.930 . S
H79 C37 0.930 . S
H80 C39 0.930 1_455 S
H81 C40 0.930 1_545 S
H82 C41 0.930 . S
H83 C42 0.930 . S
H84 C46 0.929 . S
H85 C48 0.930 . S
H86 C54 0.929 . S
H87 C55 0.930 . S
Li88 N105 1.990 1_545 S
Li88 O148 1.956 . S
Li88 O149 1.970 . S
Li88 O150 1.961 1_455 S
Li89 N113 1.990 . S
Li89 O148 1.970 . S
Li89 O149 1.956 . S
Li89 O151 1.961 . S
Li90 N135 1.990 . S
Li90 O148 1.961 1_655 S
Li90 O150 1.956 . S
Li90 O151 1.970 1_655 S
Li91 N141 1.990 . S
Li91 O149 1.961 . S
Li91 O150 1.970 1_455 S
Li91 O151 1.956 . S
C92 C94 1.348 . S
C92 C95 1.356 1_455 S
C92 O148 1.325 1_565 S
N93 C96 1.314 1_655 S
N93 C97 1.279 . S
C94 C92 1.348 . S
C94 C96 1.353 . S
C94 H152 0.929 1_565 S
C95 C92 1.356 1_655 S
C95 C97 1.358 . S
C95 H153 0.930 . S
C96 N93 1.314 1_455 S
C96 C94 1.353 . S
C96 H154 0.930 . S
C97 N93 1.279 . S
C97 C95 1.358 . S
C97 H155 0.930 . S
C98 C101 1.348 . S
C98 C102 1.356 . S
C98 O149 1.325 . S
C99 N100 1.279 . S
C99 C102 1.358 . S
C99 H156 0.930 . S
N100 C99 1.279 . S
N100 C103 1.314 . S
C101 C98 1.348 . S
C101 C103 1.353 . S
C101 H157 0.929 . S
C102 C98 1.356 . S
C102 C99 1.358 . S
C102 H158 0.930 . S
C103 N100 1.314 . S
C103 C101 1.353 . S
C103 H159 0.930 . S
C104 N105 1.314 . S
C104 C109 1.353 1_455 S
C104 H110 0.930 . S
N105 Li88 1.990 1_565 S
N105 C104 1.314 . S
N105 C107 1.279 . S
C106 C107 1.358 . S
C106 C108 1.356 1_455 S
C106 H160 0.930 . S
C107 N105 1.279 . S
C107 C106 1.358 . S
C107 H111 0.930 . S
C108 C106 1.356 1_655 S
C108 C109 1.348 . S
C109 C104 1.353 1_655 S
C109 C108 1.348 . S
C109 H161 0.929 . S
H110 C104 0.930 . S
H111 C107 0.930 . S
C112 N113 1.314 . S
C112 C114 1.353 . S
C112 H118 0.930 . S
N113 Li89 1.990 . S
N113 C112 1.314 . S
N113 C116 1.279 . S
C114 C112 1.353 . S
C114 C117 1.348 . S
C114 H162 0.929 . S
C115 C116 1.358 . S
C115 C117 1.356 . S
C115 H163 0.930 . S
C116 N113 1.279 . S
C116 C115 1.358 . S
C116 H119 0.930 . S
C117 C114 1.348 . S
C117 C115 1.356 . S
H118 C112 0.930 . S
H119 C116 0.930 . S
C120 C122 1.348 . S
C120 C123 1.356 . S
C120 O150 1.325 . S
N121 C124 1.314 . S
N121 C125 1.250 1_545 S
C122 C120 1.348 . S
C122 C124 1.353 . S
C122 H164 0.929 . S
C123 C120 1.356 . S
C123 C125 1.366 1_545 S
C123 H165 0.930 1_545 S
C124 N121 1.314 . S
C124 C122 1.353 . S
C124 H166 0.930 . S
C125 N121 1.250 1_565 S
C125 C123 1.366 1_565 S
C125 H167 0.955 . S
C126 C127 1.348 . S
C126 C128 1.356 . S
C126 O151 1.325 . S
C127 C126 1.348 . S
C127 C129 1.353 . S
C127 H168 0.929 . S
C128 C126 1.356 . S
C128 C130 1.358 . S
C128 H169 0.930 . S
C129 C127 1.353 . S
C129 N131 1.314 . S
C129 H170 0.930 . S
C130 C128 1.358 . S
C130 N131 1.279 . S
C130 H171 0.930 . S
N131 C129 1.314 . S
N131 C130 1.279 . S
C132 C134 1.353 . S
C132 N135 1.314 . S
C132 H138 0.930 . S
C133 N135 1.279 . S
C133 C136 1.358 . S
C133 H139 0.930 . S
C134 C132 1.353 . S
C134 C137 1.348 . S
C134 H172 0.929 . S
N135 Li90 1.990 . S
N135 C132 1.314 . S
N135 C133 1.279 . S
C136 C133 1.358 . S
C136 C137 1.356 . S
C136 H173 0.930 . S
C137 C134 1.348 . S
C137 C136 1.356 . S
H138 C132 0.930 . S
H139 C133 0.930 . S
C140 N141 1.314 . S
C140 C142 1.353 . S
C140 H146 0.930 . S
N141 Li91 1.990 . S
N141 C140 1.314 . S
N141 C144 1.279 . S
C142 C140 1.353 . S
C142 C145 1.348 . S
C142 H174 0.929 . S
C143 C144 1.358 . S
C143 C145 1.356 . S
C143 H175 0.930 . S
C144 N141 1.279 . S
C144 C143 1.358 . S
C144 H147 0.930 . S
C145 C142 1.348 . S
C145 C143 1.356 . S
H146 C140 0.930 . S
H147 C144 0.930 . S
O148 Li88 1.956 . S
O148 Li89 1.970 . S
O148 Li90 1.961 1_455 S
O148 C92 1.325 1_545 S
O149 Li88 1.970 . S
O149 Li89 1.956 . S
O149 Li91 1.961 . S
O149 C98 1.325 . S
O150 Li88 1.961 1_655 S
O150 Li90 1.956 . S
O150 Li91 1.970 1_655 S
O150 C120 1.325 . S
O151 Li89 1.961 . S
O151 Li90 1.970 1_455 S
O151 Li91 1.956 . S
O151 C126 1.325 . S
H152 C94 0.929 1_545 S
H153 C95 0.930 . S
H154 C96 0.930 . S
H155 C97 0.930 . S
H156 C99 0.930 . S
H157 C101 0.929 . S
H158 C102 0.930 . S
H159 C103 0.930 . S
H160 C106 0.930 . S
H161 C109 0.929 . S
H162 C114 0.929 . S
H163 C115 0.930 . S
H164 C122 0.929 . S
H165 C123 0.930 1_565 S
H166 C124 0.930 . S
H167 C125 0.955 . S
H168 C127 0.929 . S
H169 C128 0.930 . S
H170 C129 0.930 . S
H171 C130 0.930 . S
H172 C134 0.929 . S
H173 C136 0.930 . S
H174 C142 0.929 . S
H175 C143 0.930 . S
Li176 N193 1.990 . S
Li176 O236 1.956 . S
Li176 O237 1.970 . S
Li176 O238 1.961 1_545 S
Li177 N201 1.990 . S
Li177 O236 1.970 . S
Li177 O237 1.956 . S
Li177 O239 1.961 . S
Li178 N223 1.990 1_455 S
Li178 O236 1.961 1_565 S
Li178 O238 1.956 . S
Li178 O239 1.970 1_565 S
Li179 N229 1.990 1_455 S
Li179 O237 1.961 . S
Li179 O238 1.969 1_545 S
Li179 O239 1.956 . S
C180 C182 1.348 . S
C180 C183 1.356 1_545 S
C180 O236 1.325 . S
N181 C184 1.314 1_565 S
N181 C185 1.279 . S
C182 C180 1.348 . S
C182 C184 1.353 . S
C182 H240 0.929 . S
C183 C180 1.356 1_565 S
C183 C185 1.358 . S
C183 H241 0.930 . S
C184 N181 1.314 1_545 S
C184 C182 1.353 . S
C184 H242 0.930 . S
C185 N181 1.279 . S
C185 C183 1.358 . S
C185 H243 0.930 . S
C186 C189 1.348 . S
C186 C190 1.356 . S
C186 O237 1.325 . S
C187 N188 1.279 . S
C187 C190 1.358 . S
C187 H244 0.930 . S
N188 C187 1.279 . S
N188 C191 1.314 . S
C189 C186 1.348 . S
C189 C191 1.353 . S
C189 H245 0.929 . S
C190 C186 1.356 . S
C190 C187 1.358 . S
C190 H246 0.930 . S
C191 N188 1.314 . S
C191 C189 1.353 . S
C191 H247 0.930 . S
C192 N193 1.314 . S
C192 C197 1.353 . S
C192 H198 0.930 . S
N193 Li176 1.990 . S
N193 C192 1.314 . S
N193 C195 1.279 . S
C194 C195 1.358 . S
C194 C196 1.356 . S
C194 H248 0.930 . S
C195 N193 1.279 . S
C195 C194 1.358 . S
C195 H199 0.930 . S
C196 C194 1.356 . S
C196 C197 1.348 . S
C197 C192 1.353 . S
C197 C196 1.348 . S
C197 H249 0.929 1_545 S
H198 C192 0.930 . S
H199 C195 0.930 . S
C200 N201 1.314 . S
C200 C202 1.353 . S
C200 H206 0.930 . S
N201 Li177 1.990 . S
N201 C200 1.314 . S
N201 C204 1.279 . S
C202 C200 1.353 . S
C202 C205 1.348 . S
C202 H250 0.929 . S
C203 C204 1.358 . S
C203 C205 1.356 . S
C203 H251 0.930 . S
C204 N201 1.279 . S
C204 C203 1.358 . S
C204 H207 0.930 . S
C205 C202 1.348 . S
C205 C203 1.356 . S
H206 C200 0.930 . S
H207 C204 0.930 . S
C208 C210 1.348 1_455 S
C208 C211 1.356 . S
C208 O238 1.326 . S
N209 C212 1.314 . S
N209 C213 1.279 . S
C210 C208 1.348 1_655 S
C210 C212 1.353 . S
C210 H252 0.929 . S
C211 C208 1.356 . S
C211 C213 1.358 1_455 S
C211 H253 0.930 . S
C212 N209 1.314 . S
C212 C210 1.353 . S
C212 H254 0.930 . S
C213 N209 1.279 . S
C213 C211 1.358 1_655 S
C213 H255 0.930 . S
C214 C215 1.348 1_455 S
C214 C216 1.356 . S
C214 O239 1.325 . S
C215 C214 1.348 1_655 S
C215 C217 1.353 . S
C215 H256 0.947 . S
C216 C214 1.356 . S
C216 C218 1.358 1_455 S
C216 H257 0.930 . S
C217 C215 1.353 . S
C217 N219 1.314 . S
C217 H258 0.930 . S
C218 C216 1.358 1_655 S
C218 N219 1.279 . S
C218 H259 0.930 . S
N219 C217 1.314 . S
N219 C218 1.279 . S
C220 C222 1.353 . S
C220 N223 1.314 . S
C220 H226 0.930 1_655 S
C221 N223 1.279 . S
C221 C224 1.358 . S
C221 H227 0.930 . S
C222 C220 1.353 . S
C222 C225 1.348 . S
C222 H260 0.929 . S
N223 Li178 1.990 1_655 S
N223 C220 1.314 . S
N223 C221 1.279 . S
C224 C221 1.358 . S
C224 C225 1.356 . S
C224 H261 0.930 . S
C225 C222 1.348 . S
C225 C224 1.356 . S
H226 C220 0.930 1_455 S
H227 C221 0.930 . S
C228 N229 1.314 1_455 S
C228 C230 1.353 1_455 S
C228 H234 0.930 . S
N229 Li179 1.990 1_655 S
N229 C228 1.314 1_655 S
N229 C232 1.279 . S
C230 C228 1.353 1_655 S
C230 C233 1.348 . S
C230 H262 0.929 . S
C231 C232 1.358 . S
C231 C233 1.356 . S
C231 H263 0.930 . S
C232 N229 1.279 . S
C232 C231 1.358 . S
C232 H235 0.930 . S
C233 C230 1.348 . S
C233 C231 1.356 . S
H234 C228 0.930 . S
H235 C232 0.930 . S
O236 Li176 1.956 . S
O236 Li177 1.970 . S
O236 Li178 1.961 1_545 S
O236 C180 1.325 . S
O237 Li176 1.970 . S
O237 Li177 1.956 . S
O237 Li179 1.961 . S
O237 C186 1.325 . S
O238 Li176 1.961 1_565 S
O238 Li178 1.956 . S
O238 Li179 1.969 1_565 S
O238 C208 1.326 . S
O239 Li177 1.961 . S
O239 Li178 1.970 1_545 S
O239 Li179 1.956 . S
O239 C214 1.325 . S
H240 C182 0.929 . S
H241 C183 0.930 . S
H242 C184 0.930 . S
H243 C185 0.930 . S
H244 C187 0.930 . S
H245 C189 0.929 . S
H246 C190 0.930 . S
H247 C191 0.930 . S
H248 C194 0.930 . S
H249 C197 0.929 1_565 S
H250 C202 0.929 . S
H251 C203 0.930 . S
H252 C210 0.929 . S
H253 C211 0.930 . S
H254 C212 0.930 . S
H255 C213 0.930 . S
H256 C215 0.947 . S
H257 C216 0.930 . S
H258 C217 0.930 . S
H259 C218 0.930 . S
H260 C222 0.929 . S
H261 C224 0.930 . S
H262 C230 0.929 . S
H263 C231 0.930 . S
C264 C265 1.443 . S
C264 N268 1.376 . S
C264 C302 1.389 . S
C265 C264 1.443 . S
C265 C266 1.340 . S
C265 H305 0.951 . S
C266 C265 1.340 . S
C266 C267 1.439 . S
C266 H306 0.950 . S
C267 C266 1.439 . S
C267 N268 1.374 . S
C267 C301 1.395 . S
N268 C264 1.376 . S
N268 C267 1.374 . S
N268 Co269 2.008 . S
Co269 N268 2.008 . S
Co269 N270 1.995 . S
Co269 N275 2.008 1_455 S
Co269 N280 1.995 1_455 S
Co269 N285 2.282 . S
Co269 N291 2.282 . S
N270 Co269 1.995 . S
N270 C271 1.376 . S
N270 C274 1.383 . S
C271 N270 1.376 . S
C271 C272 1.446 . S
C271 C301 1.391 . S
C272 C271 1.446 . S
C272 C273 1.339 . S
C272 H307 0.949 . S
C273 C272 1.339 . S
C273 C274 1.439 . S
C273 H308 0.950 . S
C274 N270 1.383 . S
C274 C273 1.439 . S
C274 C303 1.392 . S
N275 Co269 2.008 1_655 S
N275 C276 1.376 . S
N275 C279 1.374 . S
C276 N275 1.376 . S
C276 C277 1.443 . S
C276 C303 1.389 1_655 S
C277 C276 1.443 . S
C277 C278 1.340 . S
C277 H309 0.951 . S
C278 C277 1.340 . S
C278 C279 1.439 . S
C278 H310 0.950 . S
C279 N275 1.374 . S
C279 C278 1.439 . S
C279 C304 1.395 . S
N280 Co269 1.995 1_655 S
N280 C281 1.376 . S
N280 C284 1.383 . S
C281 N280 1.376 . S
C281 C282 1.446 . S
C281 C304 1.391 . S
C282 C281 1.446 . S
C282 C283 1.339 . S
C282 H311 0.949 . S
C283 C282 1.339 . S
C283 C284 1.439 . S
C283 H312 0.950 . S
C284 N280 1.383 . S
C284 C283 1.439 . S
C284 C302 1.392 1_655 S
N285 Co269 2.282 . S
N285 C288 1.332 . S
N285 C290 1.332 . S
C286 C287 1.417 . S
C286 C289 1.388 . S
C287 C286 1.417 . S
C287 C288 1.371 . S
C287 H313 0.931 1_455 S
C288 N285 1.332 . S
C288 C287 1.371 . S
C288 H299 0.952 1_455 S
C289 C286 1.388 . S
C289 C290 1.382 . S
C289 H314 0.950 . S
C290 N285 1.332 . S
C290 C289 1.382 . S
C290 H300 0.948 . S
N291 Co269 2.282 . S
N291 C295 1.332 . S
N291 C296 1.332 1_455 S
C292 C293 1.388 1_655 S
C292 C296 1.382 . S
C292 H315 0.950 . S
C293 C292 1.388 1_455 S
C293 C294 1.386 . S
C294 C293 1.386 . S
C294 C295 1.382 . S
C294 H316 0.950 . S
C295 N291 1.332 . S
C295 C294 1.382 . S
C295 H297 0.952 . S
C296 N291 1.332 1_655 S
C296 C292 1.382 . S
C296 H298 0.948 . S
H297 C295 0.952 . S
H298 C296 0.948 . S
H299 C288 0.952 1_655 S
H300 C290 0.948 . S
C301 C267 1.395 . S
C301 C271 1.391 . S
C302 C264 1.389 . S
C302 C284 1.392 1_455 S
C303 C274 1.392 . S
C303 C276 1.389 1_455 S
C304 C279 1.395 . S
C304 C281 1.391 . S
H305 C265 0.951 . S
H306 C266 0.950 . S
H307 C272 0.949 . S
H308 C273 0.950 . S
H309 C277 0.951 . S
H310 C278 0.950 . S
H311 C282 0.949 . S
H312 C283 0.950 . S
H313 C287 0.931 1_655 S
H314 C289 0.950 . S
H315 C292 0.950 . S
H316 C294 0.950 . S
C317 C318 1.443 1_545 S
C317 N321 1.376 . S
C317 C355 1.389 . S
C318 C317 1.443 1_565 S
C318 C319 1.340 . S
C318 H358 0.951 . S
C319 C318 1.340 . S
C319 C320 1.439 . S
C319 H359 0.950 . S
C320 C319 1.439 . S
C320 N321 1.374 1_565 S
C320 C354 1.395 . S
N321 C317 1.376 . S
N321 C320 1.374 1_545 S
N321 Co322 2.008 . S
Co322 N321 2.008 . S
Co322 N323 1.995 . S
Co322 N328 2.008 . S
Co322 N333 1.995 . S
Co322 N338 2.282 . S
Co322 N344 2.282 . S
N323 Co322 1.995 . S
N323 C324 1.376 1_545 S
N323 C327 1.383 . S
C324 N323 1.376 1_565 S
C324 C325 1.446 . S
C324 C354 1.391 . S
C325 C324 1.446 . S
C325 C326 1.339 . S
C325 H360 0.949 . S
C326 C325 1.339 . S
C326 C327 1.439 1_565 S
C326 H361 0.950 . S
C327 N323 1.383 . S
C327 C326 1.439 1_545 S
C327 C356 1.392 . S
N328 Co322 2.008 . S
N328 C329 1.376 . S
N328 C332 1.374 . S
C329 N328 1.376 . S
C329 C330 1.443 . S
C329 C356 1.389 . S
C330 C329 1.443 . S
C330 C331 1.340 . S
C330 H362 0.951 . S
C331 C330 1.340 . S
C331 C332 1.439 . S
C331 H363 0.950 . S
C332 N328 1.374 . S
C332 C331 1.439 . S
C332 C357 1.395 . S
N333 Co322 1.995 . S
N333 C334 1.376 . S
N333 C337 1.383 . S
C334 N333 1.376 . S
C334 C335 1.446 . S
C334 C357 1.391 . S
C335 C334 1.446 . S
C335 C336 1.339 . S
C335 H364 0.949 . S
C336 C335 1.339 . S
C336 C337 1.439 . S
C336 H365 0.950 . S
C337 N333 1.383 . S
C337 C336 1.439 . S
C337 C355 1.392 . S
N338 Co322 2.282 . S
N338 C341 1.332 . S
N338 C343 1.332 . S
C339 C340 1.386 . S
C339 C342 1.388 . S
C340 C339 1.386 . S
C340 C341 1.382 . S
C340 H366 0.950 . S
C341 N338 1.332 . S
C341 C340 1.382 . S
C341 H352 0.952 . S
C342 C339 1.388 . S
C342 C343 1.382 . S
C342 H367 0.950 . S
C343 N338 1.332 . S
C343 C342 1.382 . S
C343 H353 0.948 . S
N344 Co322 2.282 . S
N344 C348 1.332 . S
N344 C349 1.332 . S
C345 C346 1.388 . S
C345 C349 1.382 . S
C345 H368 0.950 . S
C346 C345 1.388 . S
C346 C347 1.386 . S
C347 C346 1.386 . S
C347 C348 1.382 . S
C347 H369 0.950 . S
C348 N344 1.332 . S
C348 C347 1.382 . S
C348 H350 0.952 . S
C349 N344 1.332 . S
C349 C345 1.382 . S
C349 H351 0.948 . S
H350 C348 0.952 . S
H351 C349 0.948 . S
H352 C341 0.952 . S
H353 C343 0.948 . S
C354 C320 1.395 . S
C354 C324 1.391 . S
C355 C317 1.389 . S
C355 C337 1.392 . S
C356 C327 1.392 . S
C356 C329 1.389 . S
C357 C332 1.395 . S
C357 C334 1.391 . S
H358 C318 0.951 . S
H359 C319 0.950 . S
H360 C325 0.949 . S
H361 C326 0.950 . S
H362 C330 0.951 . S
H363 C331 0.950 . S
H364 C335 0.949 . S
H365 C336 0.950 . S
H366 C340 0.950 . S
H367 C342 0.950 . S
H368 C345 0.950 . S
H369 C347 0.950 . S
C370 C371 1.443 . S
C370 N374 1.376 . S
C370 C408 1.389 . S
C371 C370 1.443 . S
C371 C372 1.340 . S
C371 H411 0.951 . S
C372 C371 1.340 . S
C372 C373 1.439 . S
C372 H412 0.950 . S
C373 C372 1.439 . S
C373 N374 1.374 . S
C373 C407 1.395 . S
N374 C370 1.376 . S
N374 C373 1.374 . S
N374 Co375 2.008 . S
Co375 N374 2.008 . S
Co375 N376 1.995 . S
Co375 N381 2.008 . S
Co375 N386 1.995 . S
Co375 N391 2.282 . S
Co375 N397 2.282 . S
N376 Co375 1.995 . S
N376 C377 1.376 . S
N376 C380 1.383 . S
C377 N376 1.376 . S
C377 C378 1.446 . S
C377 C407 1.391 . S
C378 C377 1.446 . S
C378 C379 1.339 . S
C378 H413 0.949 . S
C379 C378 1.339 . S
C379 C380 1.439 . S
C379 H414 0.950 . S
C380 N376 1.383 . S
C380 C379 1.439 . S
C380 C409 1.392 . S
N381 Co375 2.008 . S
N381 C382 1.376 . S
N381 C385 1.374 . S
C382 N381 1.376 . S
C382 C383 1.443 . S
C382 C409 1.389 . S
C383 C382 1.443 . S
C383 C384 1.340 . S
C383 H415 0.951 . S
C384 C383 1.340 . S
C384 C385 1.439 . S
C384 H416 0.950 . S
C385 N381 1.374 . S
C385 C384 1.439 . S
C385 C410 1.395 . S
N386 Co375 1.995 . S
N386 C387 1.376 . S
N386 C390 1.383 . S
C387 N386 1.376 . S
C387 C388 1.446 . S
C387 C410 1.391 . S
C388 C387 1.446 . S
C388 C389 1.339 . S
C388 H417 0.949 . S
C389 C388 1.339 . S
C389 C390 1.439 . S
C389 H418 0.950 . S
C390 N386 1.383 . S
C390 C389 1.439 . S
C390 C408 1.392 . S
N391 Co375 2.282 . S
N391 C394 1.332 . S
N391 C396 1.332 . S
C392 C393 1.386 . S
C392 C395 1.388 . S
C393 C392 1.386 . S
C393 C394 1.382 . S
C393 H419 0.950 . S
C394 N391 1.332 . S
C394 C393 1.382 . S
C394 H405 0.952 . S
C395 C392 1.388 . S
C395 C396 1.382 . S
C395 H420 0.950 . S
C396 N391 1.332 . S
C396 C395 1.382 . S
C396 H406 0.948 . S
N397 Co375 2.282 . S
N397 C401 1.332 . S
N397 C402 1.332 . S
C398 C399 1.388 . S
C398 C402 1.382 . S
C398 H421 0.950 . S
C399 C398 1.388 . S
C399 C400 1.386 . S
C400 C399 1.386 . S
C400 C401 1.382 . S
C400 H422 0.950 . S
C401 N397 1.332 . S
C401 C400 1.382 . S
C401 H403 0.952 . S
C402 N397 1.332 . S
C402 C398 1.382 . S
C402 H404 0.948 . S
H403 C401 0.952 . S
H404 C402 0.948 . S
H405 C394 0.952 . S
H406 C396 0.948 . S
C407 C373 1.395 . S
C407 C377 1.391 . S
C408 C370 1.389 . S
C408 C390 1.392 . S
C409 C380 1.392 . S
C409 C382 1.389 . S
C410 C385 1.395 . S
C410 C387 1.391 . S
H411 C371 0.951 . S
H412 C372 0.950 . S
H413 C378 0.949 . S
H414 C379 0.950 . S
H415 C383 0.951 . S
H416 C384 0.950 . S
H417 C388 0.949 . S
H418 C389 0.950 . S
H419 C393 0.950 . S
H420 C395 0.950 . S
H421 C398 0.950 . S
H422 C400 0.950 . S
C423 C424 1.349 1_655 S
C423 C425 1.327 . S
C423 H448 0.950 . S
C424 C423 1.349 1_455 S
C424 C440 1.349 . S
C425 C423 1.327 . S
C425 C444 1.429 1_655 S
C425 H449 0.950 . S
C426 C443 1.574 . S
C426 C445 1.368 . S
C426 H450 0.949 . S
H427 C431 0.949 . S
C428 C429 1.349 . S
C428 C430 1.327 . S
C428 H451 0.950 . S
C429 C428 1.349 . S
C429 C441 1.349 1_455 S
C430 C428 1.327 . S
C430 C446 1.429 . S
C430 H452 0.950 . S
C431 H427 0.949 . S
C431 C439 1.574 . S
C431 C447 1.368 1_655 S
H432 C440 0.950 . S
H433 C438 0.950 . S
H434 C439 0.949 . S
H435 C441 0.950 . S
H436 C442 0.950 . S
H437 C443 0.949 . S
C438 H433 0.950 . S
C438 C440 1.327 . S
C438 C444 1.429 . S
C439 C431 1.574 . S
C439 H434 0.949 . S
C439 C445 1.368 1_655 S
C440 C424 1.349 . S
C440 H432 0.950 . S
C440 C438 1.327 . S
C441 C429 1.349 1_655 S
C441 H435 0.950 . S
C441 C442 1.327 . S
C442 H436 0.950 . S
C442 C441 1.327 . S
C442 C446 1.429 1_655 S
C443 C426 1.574 . S
C443 H437 0.949 . S
C443 C447 1.368 . S
C444 C425 1.429 1_455 S
C444 C438 1.429 . S
C444 C445 1.523 . S
C445 C426 1.368 . S
C445 C439 1.368 1_455 S
C445 C444 1.523 . S
C446 C430 1.429 . S
C446 C442 1.429 1_455 S
C446 C447 1.523 . S
C447 C431 1.368 1_455 S
C447 C443 1.368 . S
C447 C446 1.523 . S
H448 C423 0.950 . S
H449 C425 0.950 . S
H450 C426 0.949 . S
H451 C428 0.950 . S
H452 C430 0.950 . S
C453 C454 1.349 1_565 S
C453 C455 1.327 . S
C453 H478 0.950 . S
C454 C453 1.349 1_545 S
C454 C470 1.349 . S
C455 C453 1.327 . S
C455 C474 1.429 1_565 S
C455 H479 0.950 . S
C456 C473 1.574 . S
C456 C475 1.368 . S
C456 H480 0.949 . S
H457 C461 0.949 1_565 S
C458 C459 1.349 . S
C458 C460 1.327 . S
C458 H481 0.950 . S
C459 C458 1.349 . S
C459 C471 1.349 . S
C460 C458 1.327 . S
C460 C476 1.429 . S
C460 H482 0.950 . S
C461 H457 0.949 1_545 S
C461 C469 1.574 . S
C461 C477 1.368 . S
H462 C470 0.950 . S
H463 C468 0.950 . S
H464 C469 0.949 1_565 S
H465 C471 0.950 . S
H466 C472 0.950 1_565 S
H467 C473 0.949 . S
C468 H463 0.950 . S
C468 C470 1.327 . S
C468 C474 1.429 . S
C469 C461 1.574 . S
C469 H464 0.949 1_545 S
C469 C475 1.368 . S
C470 C454 1.349 . S
C470 H462 0.950 . S
C470 C468 1.327 . S
C471 C459 1.349 . S
C471 H465 0.950 . S
C471 C472 1.327 . S
C472 H466 0.950 1_545 S
C472 C471 1.327 . S
C472 C476 1.429 . S
C473 C456 1.574 . S
C473 H467 0.949 . S
C473 C477 1.368 . S
C474 C455 1.429 1_545 S
C474 C468 1.429 . S
C474 C475 1.523 . S
C475 C456 1.368 . S
C475 C469 1.368 . S
C475 C474 1.523 . S
C476 C460 1.429 . S
C476 C472 1.429 . S
C476 C477 1.523 . S
C477 C461 1.368 . S
C477 C473 1.368 . S
C477 C476 1.523 . S
H478 C453 0.950 . S
H479 C455 0.950 . S
H480 C456 0.949 . S
H481 C458 0.950 . S
H482 C460 0.950 . S
C483 C484 1.349 . S
C483 C485 1.327 . S
C483 H508 0.950 . S
C484 C483 1.349 . S
C484 C500 1.349 . S
C485 C483 1.327 . S
C485 C504 1.429 . S
C485 H509 0.950 . S
C486 C503 1.574 . S
C486 C505 1.368 . S
C486 H510 0.949 . S
H487 C491 0.949 . S
C488 C489 1.349 . S
C488 C490 1.327 . S
C488 H511 0.950 . S
C489 C488 1.349 . S
C489 C501 1.349 . S
C490 C488 1.327 . S
C490 C506 1.429 . S
C490 H512 0.950 . S
C491 H487 0.949 . S
C491 C499 1.574 . S
C491 C507 1.368 . S
H492 C500 0.950 . S
H493 C498 0.950 . S
H494 C499 0.949 . S
H495 C501 0.950 . S
H496 C502 0.950 . S
H497 C503 0.949 . S
C498 H493 0.950 . S
C498 C500 1.327 . S
C498 C504 1.429 . S
C499 C491 1.574 . S
C499 H494 0.949 . S
C499 C505 1.368 . S
C500 C484 1.349 . S
C500 H492 0.950 . S
C500 C498 1.327 . S
C501 C489 1.349 . S
C501 H495 0.950 . S
C501 C502 1.327 . S
C502 H496 0.950 . S
C502 C501 1.327 . S
C502 C506 1.429 . S
C503 C486 1.574 . S
C503 H497 0.949 . S
C503 C507 1.368 . S
C504 C485 1.429 . S
C504 C498 1.429 . S
C504 C505 1.523 . S
C505 C486 1.368 . S
C505 C499 1.368 . S
C505 C504 1.523 . S
C506 C490 1.429 . S
C506 C502 1.429 . S
C506 C507 1.523 . S
C507 C491 1.368 . S
C507 C503 1.368 . S
C507 C506 1.523 . S
H508 C483 0.950 . S
H509 C485 0.950 . S
H510 C486 0.949 . S
H511 C488 0.950 . S
H512 C490 0.950 . S
C513 C514 1.349 . S
C513 C515 1.327 . S
C513 H538 0.950 . S
C514 C513 1.349 . S
C514 C530 1.349 . S
C515 C513 1.327 . S
C515 C534 1.429 . S
C515 H539 0.950 . S
C516 C533 1.574 . S
C516 C535 1.368 . S
C516 H540 0.949 . S
H517 C521 0.949 . S
C518 C519 1.349 . S
C518 C520 1.327 . S
C518 H541 0.950 . S
C519 C518 1.349 . S
C519 C531 1.349 . S
C520 C518 1.327 . S
C520 C536 1.429 . S
C520 H542 0.950 . S
C521 H517 0.949 . S
C521 C529 1.574 . S
C521 C537 1.368 . S
H522 C530 0.950 . S
H523 C528 0.950 . S
H524 C529 0.949 . S
H525 C531 0.950 . S
H526 C532 0.950 . S
H527 C533 0.949 . S
C528 H523 0.950 . S
C528 C530 1.327 . S
C528 C534 1.429 . S
C529 C521 1.574 . S
C529 H524 0.949 . S
C529 C535 1.368 . S
C530 C514 1.349 . S
C530 H522 0.950 . S
C530 C528 1.327 . S
C531 C519 1.349 . S
C531 H525 0.950 . S
C531 C532 1.327 . S
C532 H526 0.950 . S
C532 C531 1.327 . S
C532 C536 1.429 . S
C533 C516 1.574 . S
C533 H527 0.949 . S
C533 C537 1.368 . S
C534 C515 1.429 . S
C534 C528 1.429 . S
C534 C535 1.523 . S
C535 C516 1.368 . S
C535 C529 1.368 . S
C535 C534 1.523 . S
C536 C520 1.429 . S
C536 C532 1.429 . S
C536 C537 1.523 . S
C537 C521 1.368 . S
C537 C533 1.368 . S
C537 C536 1.523 . S
H538 C513 0.950 . S
H539 C515 0.950 . S
H540 C516 0.949 . S
H541 C518 0.950 . S
H542 C520 0.950 . S
C543 C544 1.349 . S
C543 C545 1.327 . S
C543 H568 0.950 . S
C544 C543 1.349 . S
C544 C560 1.349 . S
C545 C543 1.327 . S
C545 C564 1.429 . S
C545 H569 0.950 . S
C546 C563 1.574 . S
C546 C565 1.368 . S
C546 H570 0.949 . S
H547 C551 0.949 . S
C548 C549 1.349 . S
C548 C550 1.327 . S
C548 H571 0.950 . S
C549 C548 1.349 . S
C549 C561 1.349 . S
C550 C548 1.327 . S
C550 C566 1.429 . S
C550 H572 0.950 . S
C551 H547 0.949 . S
C551 C559 1.574 . S
C551 C567 1.368 . S
H552 C560 0.950 . S
H553 C558 0.950 . S
H554 C559 0.949 . S
H555 C561 0.950 . S
H556 C562 0.950 . S
H557 C563 0.949 . S
C558 H553 0.950 . S
C558 C560 1.327 . S
C558 C564 1.429 . S
C559 C551 1.574 . S
C559 H554 0.949 . S
C559 C565 1.368 . S
C560 C544 1.349 . S
C560 H552 0.950 . S
C560 C558 1.327 . S
C561 C549 1.349 . S
C561 H555 0.950 . S
C561 C562 1.327 . S
C562 H556 0.950 . S
C562 C561 1.327 . S
C562 C566 1.429 . S
C563 C546 1.574 . S
C563 H557 0.949 . S
C563 C567 1.368 . S
C564 C545 1.429 . S
C564 C558 1.429 . S
C564 C565 1.523 . S
C565 C546 1.368 . S
C565 C559 1.368 . S
C565 C564 1.523 . S
C566 C550 1.429 . S
C566 C562 1.429 . S
C566 C567 1.523 . S
C567 C551 1.368 . S
C567 C563 1.368 . S
C567 C566 1.523 . S
H568 C543 0.950 . S
H569 C545 0.950 . S
H570 C546 0.949 . S
H571 C548 0.950 . S
H572 C550 0.950 . S
C573 C574 1.349 . S
C573 C575 1.327 . S
C573 H598 0.950 . S
C574 C573 1.349 . S
C574 C590 1.349 . S
C575 C573 1.327 . S
C575 C594 1.429 . S
C575 H599 0.950 . S
C576 C593 1.574 . S
C576 C595 1.368 . S
C576 H600 0.949 . S
H577 C581 0.949 . S
C578 C579 1.349 . S
C578 C580 1.327 . S
C578 H601 0.950 . S
C579 C578 1.349 . S
C579 C591 1.349 . S
C580 C578 1.327 . S
C580 C596 1.429 . S
C580 H602 0.950 . S
C581 H577 0.949 . S
C581 C589 1.574 . S
C581 C597 1.368 . S
H582 C590 0.950 . S
H583 C588 0.950 . S
H584 C589 0.949 . S
H585 C591 0.950 . S
H586 C592 0.950 . S
H587 C593 0.949 . S
C588 H583 0.950 . S
C588 C590 1.327 . S
C588 C594 1.429 . S
C589 C581 1.574 . S
C589 H584 0.949 . S
C589 C595 1.368 . S
C590 C574 1.349 . S
C590 H582 0.950 . S
C590 C588 1.327 . S
C591 C579 1.349 . S
C591 H585 0.950 . S
C591 C592 1.327 . S
C592 H586 0.950 . S
C592 C591 1.327 . S
C592 C596 1.429 . S
C593 C576 1.574 . S
C593 H587 0.949 . S
C593 C597 1.368 . S
C594 C575 1.429 . S
C594 C588 1.429 . S
C594 C595 1.523 . S
C595 C576 1.368 . S
C595 C589 1.368 . S
C595 C594 1.523 . S
C596 C580 1.429 . S
C596 C592 1.429 . S
C596 C597 1.523 . S
C597 C581 1.368 . S
C597 C593 1.368 . S
C597 C596 1.523 . S
H598 C573 0.950 . S
H599 C575 0.950 . S
H600 C576 0.949 . S
H601 C578 0.950 . S
H602 C580 0.950 . S
C603 C604 1.349 . S
C603 C605 1.327 . S
C603 H628 0.950 . S
C604 C603 1.349 . S
C604 C620 1.349 . S
C605 C603 1.327 . S
C605 C624 1.429 . S
C605 H629 0.950 . S
C606 C623 1.574 . S
C606 C625 1.368 . S
C606 H630 0.949 . S
H607 C611 0.949 . S
C608 C609 1.349 . S
C608 C610 1.327 . S
C608 H631 0.950 . S
C609 C608 1.349 . S
C609 C621 1.349 . S
C610 C608 1.327 . S
C610 C626 1.429 . S
C610 H632 0.950 . S
C611 H607 0.949 . S
C611 C619 1.574 . S
C611 C627 1.368 . S
H612 C620 0.950 . S
H613 C618 0.950 . S
H614 C619 0.949 . S
H615 C621 0.950 . S
H616 C622 0.950 . S
H617 C623 0.949 . S
C618 H613 0.950 . S
C618 C620 1.327 . S
C618 C624 1.429 . S
C619 C611 1.574 . S
C619 H614 0.949 . S
C619 C625 1.368 . S
C620 C604 1.349 . S
C620 H612 0.950 . S
C620 C618 1.327 . S
C621 C609 1.349 . S
C621 H615 0.950 . S
C621 C622 1.327 . S
C622 H616 0.950 . S
C622 C621 1.327 . S
C622 C626 1.429 . S
C623 C606 1.574 . S
C623 H617 0.949 . S
C623 C627 1.368 . S
C624 C605 1.429 . S
C624 C618 1.429 . S
C624 C625 1.523 . S
C625 C606 1.368 . S
C625 C619 1.368 . S
C625 C624 1.523 . S
C626 C610 1.429 . S
C626 C622 1.429 . S
C626 C627 1.523 . S
C627 C611 1.368 . S
C627 C623 1.368 . S
C627 C626 1.523 . S
H628 C603 0.950 . S
H629 C605 0.950 . S
H630 C606 0.949 . S
H631 C608 0.950 . S
H632 C610 0.950 . S
C633 C634 1.349 . S
C633 C635 1.327 . S
C633 H658 0.950 1_556 S
C634 C633 1.349 . S
C634 C650 1.349 . S
C635 C633 1.327 . S
C635 C654 1.429 . S
C635 H659 0.950 . S
C636 C653 1.574 . S
C636 C655 1.368 . S
C636 H660 0.949 . S
H637 C641 0.949 . S
C638 C639 1.349 . S
C638 C640 1.327 . S
C638 H661 0.950 . S
C639 C638 1.349 . S
C639 C651 1.349 . S
C640 C638 1.327 . S
C640 C656 1.429 . S
C640 H662 0.950 . S
C641 H637 0.949 . S
C641 C649 1.574 . S
C641 C657 1.368 . S
H642 C650 0.950 . S
H643 C648 0.950 . S
H644 C649 0.949 . S
H645 C651 0.950 . S
H646 C652 0.950 . S
H647 C653 0.949 . S
C648 H643 0.950 . S
C648 C650 1.327 . S
C648 C654 1.429 . S
C649 C641 1.574 . S
C649 H644 0.949 . S
C649 C655 1.368 . S
C650 C634 1.349 . S
C650 H642 0.950 . S
C650 C648 1.327 . S
C651 C639 1.349 . S
C651 H645 0.950 . S
C651 C652 1.327 . S
C652 H646 0.950 . S
C652 C651 1.327 . S
C652 C656 1.429 . S
C653 C636 1.574 . S
C653 H647 0.949 . S
C653 C657 1.368 . S
C654 C635 1.429 . S
C654 C648 1.429 . S
C654 C655 1.523 . S
C655 C636 1.368 . S
C655 C649 1.368 . S
C655 C654 1.523 . S
C656 C640 1.429 . S
C656 C652 1.429 . S
C656 C657 1.523 . S
C657 C641 1.368 . S
C657 C653 1.368 . S
C657 C656 1.523 . S
H658 C633 0.950 1_554 S
H659 C635 0.950 . S
H660 C636 0.949 . S
H661 C638 0.950 . S
H662 C640 0.950 . S
C663 C664 1.349 1_455 S
C663 C665 1.327 . S
C663 H688 0.950 . S
C664 C663 1.349 1_655 S
C664 C680 1.349 . S
C665 C663 1.327 . S
C665 C684 1.429 . S
C665 H689 0.950 . S
C666 C683 1.574 . S
C666 C685 1.368 1_655 S
C666 H690 0.949 . S
H667 C671 0.949 . S
C668 C669 1.349 . S
C668 C670 1.338 . S
C668 H691 0.950 1_455 S
C669 C668 1.349 . S
C669 C681 1.349 . S
C670 C668 1.338 . S
C670 C686 1.427 . S
C670 H692 0.941 1_455 S
C671 H667 0.949 . S
C671 C679 1.574 . S
C671 C687 1.368 . S
H672 C680 0.950 . S
H673 C678 0.950 . S
H674 C679 0.949 . S
H675 C681 0.950 . S
H676 C682 0.950 . S
H677 C683 0.949 . S
C678 H673 0.950 . S
C678 C680 1.327 . S
C678 C684 1.429 1_655 S
C679 C671 1.574 . S
C679 H674 0.949 . S
C679 C685 1.368 . S
C680 C664 1.349 . S
C680 H672 0.950 . S
C680 C678 1.327 . S
C681 C669 1.349 . S
C681 H675 0.950 . S
C681 C682 1.327 . S
C682 H676 0.950 . S
C682 C681 1.327 . S
C682 C686 1.429 . S
C683 C666 1.574 . S
C683 H677 0.949 . S
C683 C687 1.368 1_655 S
C684 C665 1.429 . S
C684 C678 1.429 1_455 S
C684 C685 1.523 . S
C685 C666 1.368 1_455 S
C685 C679 1.368 . S
C685 C684 1.523 . S
C686 C670 1.427 . S
C686 C682 1.429 . S
C686 C687 1.523 . S
C687 C671 1.368 . S
C687 C683 1.368 1_455 S
C687 C686 1.523 . S
H688 C663 0.950 . S
H689 C665 0.950 . S
H690 C666 0.949 . S
H691 C668 0.950 1_655 S
H692 C670 0.941 1_655 S
C693 C694 1.349 1_565 S
C693 C695 1.327 . S
C693 H718 0.950 . S
C694 C693 1.349 1_545 S
C694 C710 1.349 . S
C695 C693 1.327 . S
C695 C714 1.429 1_565 S
C695 H719 0.950 . S
C696 C713 1.574 . S
C696 C715 1.368 . S
C696 H720 0.949 . S
H697 C701 0.949 . S
C698 C699 1.349 . S
C698 C700 1.327 . S
C698 H721 0.950 . S
C699 C698 1.349 . S
C699 C711 1.349 . S
C700 C698 1.327 . S
C700 C716 1.429 . S
C700 H722 0.950 . S
C701 H697 0.949 . S
C701 C709 1.574 . S
C701 C717 1.368 . S
H702 C710 0.950 . S
H703 C708 0.950 . S
H704 C709 0.949 1_565 S
H705 C711 0.950 . S
H706 C712 0.950 . S
H707 C713 0.949 . S
C708 H703 0.950 . S
C708 C710 1.327 . S
C708 C714 1.429 . S
C709 C701 1.574 . S
C709 H704 0.949 1_545 S
C709 C715 1.368 . S
C710 C694 1.349 . S
C710 H702 0.950 . S
C710 C708 1.327 . S
C711 C699 1.349 . S
C711 H705 0.950 . S
C711 C712 1.327 . S
C712 H706 0.950 . S
C712 C711 1.327 . S
C712 C716 1.429 . S
C713 C696 1.574 . S
C713 H707 0.949 . S
C713 C717 1.368 . S
C714 C695 1.429 1_545 S
C714 C708 1.429 . S
C714 C715 1.523 . S
C715 C696 1.368 . S
C715 C709 1.368 . S
C715 C714 1.523 . S
C716 C700 1.429 . S
C716 C712 1.429 . S
C716 C717 1.523 . S
C717 C701 1.368 . S
C717 C713 1.368 . S
C717 C716 1.523 . S
H718 C693 0.950 . S
H719 C695 0.950 . S
H720 C696 0.949 . S
H721 C698 0.950 . S
H722 C700 0.950 . S
C723 C724 1.349 . S
C723 C725 1.327 . S
C723 H748 0.950 . S
C724 C723 1.349 . S
C724 C740 1.349 . S
C725 C723 1.327 . S
C725 C744 1.429 . S
C725 H749 0.950 . S
C726 C743 1.574 . S
C726 C745 1.368 . S
C726 H750 0.949 . S
H727 C731 0.949 . S
C728 C729 1.349 . S
C728 C730 1.327 . S
C728 H751 0.950 . S
C729 C728 1.349 . S
C729 C741 1.349 . S
C730 C728 1.327 . S
C730 C746 1.429 . S
C730 H752 0.950 . S
C731 H727 0.949 . S
C731 C739 1.574 . S
C731 C747 1.368 . S
H732 C740 0.950 . S
H733 C738 0.950 . S
H734 C739 0.949 . S
H735 C741 0.950 . S
H736 C742 0.950 . S
H737 C743 0.949 . S
C738 H733 0.950 . S
C738 C740 1.327 . S
C738 C744 1.429 . S
C739 C731 1.574 . S
C739 H734 0.949 . S
C739 C745 1.368 . S
C740 C724 1.349 . S
C740 H732 0.950 . S
C740 C738 1.327 . S
C741 C729 1.349 . S
C741 H735 0.950 . S
C741 C742 1.327 . S
C742 H736 0.950 . S
C742 C741 1.327 . S
C742 C746 1.429 . S
C743 C726 1.574 . S
C743 H737 0.949 . S
C743 C747 1.368 . S
C744 C725 1.429 . S
C744 C738 1.429 . S
C744 C745 1.523 . S
C745 C726 1.368 . S
C745 C739 1.368 . S
C745 C744 1.523 . S
C746 C730 1.429 . S
C746 C742 1.429 . S
C746 C747 1.523 . S
C747 C731 1.368 . S
C747 C743 1.368 . S
C747 C746 1.523 . S
H748 C723 0.950 . S
H749 C725 0.950 . S
H750 C726 0.949 . S
H751 C728 0.950 . S
H752 C730 0.950 . S
C753 C754 1.349 . S
C753 C755 1.327 . S
C753 H778 0.950 . S
C754 C753 1.349 . S
C754 C770 1.349 . S
C755 C753 1.327 . S
C755 C774 1.429 . S
C755 H779 0.950 . S
C756 C773 1.574 . S
C756 C775 1.368 . S
C756 H780 0.949 . S
H757 C761 0.949 1_655 S
C758 C759 1.349 . S
C758 C760 1.327 . S
C758 H781 0.950 . S
C759 C758 1.349 . S
C759 C771 1.349 . S
C760 C758 1.327 . S
C760 C776 1.429 . S
C760 H782 0.950 . S
C761 H757 0.949 1_455 S
C761 C769 1.574 . S
C761 C777 1.368 . S
H762 C770 0.950 . S
H763 C768 0.950 . S
H764 C769 0.949 . S
H765 C771 0.950 1_655 S
H766 C772 0.950 1_655 S
H767 C773 0.949 . S
C768 H763 0.950 . S
C768 C770 1.327 . S
C768 C774 1.429 . S
C769 C761 1.574 . S
C769 H764 0.949 . S
C769 C775 1.368 . S
C770 C754 1.349 . S
C770 H762 0.950 . S
C770 C768 1.327 . S
C771 C759 1.349 . S
C771 H765 0.950 1_455 S
C771 C772 1.327 . S
C772 H766 0.950 1_455 S
C772 C771 1.327 . S
C772 C776 1.429 . S
C773 C756 1.574 . S
C773 H767 0.949 . S
C773 C777 1.368 . S
C774 C755 1.429 . S
C774 C768 1.429 . S
C774 C775 1.523 . S
C775 C756 1.368 . S
C775 C769 1.368 . S
C775 C774 1.523 . S
C776 C760 1.429 . S
C776 C772 1.429 . S
C776 C777 1.523 . S
C777 C761 1.368 . S
C777 C773 1.368 . S
C777 C776 1.523 . S
H778 C753 0.950 . S
H779 C755 0.950 . S
H780 C756 0.949 . S
H781 C758 0.950 . S
H782 C760 0.950 . S
C429 C286 1.400 . S
C424 C29 1.389 . S
C454 C137 1.405 . S
C459 C356 1.420 . S
C484 C225 1.410 . S
C489 C408 1.424 . S
C514 C49 1.416 . S
C519 C302 1.429 . S
C549 C346 1.405 . S
C544 C117 1.394 . S
C574 C205 1.391 . S
C579 C392 1.402 . S
C609 C339 1.400 . S
C604 C233 1.389 . S
C634 C57 1.407 . S
C639 C399 1.401 . S
C669 C293 1.404 . S
C664 C108 1.393 . S
C699 C355 1.428 . S
C694 C196 1.415 . S
C729 C409 1.426 . S
C724 C20 1.410 . S
C754 C145 1.406 . S
C759 C303 1.420 . S
