# Generated by pormake.
# Topology ocu, (6,8)-cn, num edge types: 1
# Building blocks:
#     Node 0, Type 0, BuildingBlock: FUNLAD_clean_sbu_0, # of connection points: 6
#     Node 1, Type 0, BuildingBlock: FUNLAD_clean_sbu_0, # of connection points: 6
#     Node 2, Type 0, BuildingBlock: FUNLAD_clean_sbu_0, # of connection points: 6
#     Node 3, Type 0, BuildingBlock: FUNLAD_clean_sbu_0, # of connection points: 6
#     Node 4, Type 0, BuildingBlock: FUNLAD_clean_sbu_0, # of connection points: 6
#     Node 5, Type 0, BuildingBlock: FUNLAD_clean_sbu_0, # of connection points: 6
#     Node 6, Type 0, BuildingBlock: FUNLAD_clean_sbu_0, # of connection points: 6
#     Node 7, Type 0, BuildingBlock: FUNLAD_clean_sbu_0, # of connection points: 6
#     Node 8, Type 1, BuildingBlock: TAGTUT_clean_sbu_1, # of connection points: 8
#     Node 9, Type 1, BuildingBlock: TAGTUT_clean_sbu_1, # of connection points: 8
#     Node 10, Type 1, BuildingBlock: TAGTUT_clean_sbu_1, # of connection points: 8
#     Node 11, Type 1, BuildingBlock: TAGTUT_clean_sbu_1, # of connection points: 8
#     Node 12, Type 1, BuildingBlock: TAGTUT_clean_sbu_1, # of connection points: 8
#     Node 13, Type 1, BuildingBlock: TAGTUT_clean_sbu_1, # of connection points: 8
#     Edge 14, Type (0, 1), BuildingBlock: CIFDUS_clean_linker_0, # of connection points: 2
#     Edge 15, Type (0, 1), BuildingBlock: CIFDUS_clean_linker_0, # of connection points: 2
#     Edge 16, Type (0, 1), BuildingBlock: CIFDUS_clean_linker_0, # of connection points: 2
#     Edge 17, Type (0, 1), BuildingBlock: CIFDUS_clean_linker_0, # of connection points: 2
#     Edge 18, Type (0, 1), BuildingBlock: CIFDUS_clean_linker_0, # of connection points: 2
#     Edge 19, Type (0, 1), BuildingBlock: CIFDUS_clean_linker_0, # of connection points: 2
#     Edge 20, Type (0, 1), BuildingBlock: CIFDUS_clean_linker_0, # of connection points: 2
#     Edge 21, Type (0, 1), BuildingBlock: CIFDUS_clean_linker_0, # of connection points: 2
#     Edge 22, Type (0, 1), BuildingBlock: CIFDUS_clean_linker_0, # of connection points: 2
#     Edge 23, Type (0, 1), BuildingBlock: CIFDUS_clean_linker_0, # of connection points: 2
#     Edge 24, Type (0, 1), BuildingBlock: CIFDUS_clean_linker_0, # of connection points: 2
#     Edge 25, Type (0, 1), BuildingBlock: CIFDUS_clean_linker_0, # of connection points: 2
#     Edge 26, Type (0, 1), BuildingBlock: CIFDUS_clean_linker_0, # of connection points: 2
#     Edge 27, Type (0, 1), BuildingBlock: CIFDUS_clean_linker_0, # of connection points: 2
#     Edge 28, Type (0, 1), BuildingBlock: CIFDUS_clean_linker_0, # of connection points: 2
#     Edge 29, Type (0, 1), BuildingBlock: CIFDUS_clean_linker_0, # of connection points: 2
#     Edge 30, Type (0, 1), BuildingBlock: CIFDUS_clean_linker_0, # of connection points: 2
#     Edge 31, Type (0, 1), BuildingBlock: CIFDUS_clean_linker_0, # of connection points: 2
#     Edge 32, Type (0, 1), BuildingBlock: CIFDUS_clean_linker_0, # of connection points: 2
#     Edge 33, Type (0, 1), BuildingBlock: CIFDUS_clean_linker_0, # of connection points: 2
#     Edge 34, Type (0, 1), BuildingBlock: CIFDUS_clean_linker_0, # of connection points: 2
#     Edge 35, Type (0, 1), BuildingBlock: CIFDUS_clean_linker_0, # of connection points: 2
#     Edge 36, Type (0, 1), BuildingBlock: CIFDUS_clean_linker_0, # of connection points: 2
#     Edge 37, Type (0, 1), BuildingBlock: CIFDUS_clean_linker_0, # of connection points: 2
#     Edge 38, Type (0, 1), BuildingBlock: CIFDUS_clean_linker_0, # of connection points: 2
#     Edge 39, Type (0, 1), BuildingBlock: CIFDUS_clean_linker_0, # of connection points: 2
#     Edge 40, Type (0, 1), BuildingBlock: CIFDUS_clean_linker_0, # of connection points: 2
#     Edge 41, Type (0, 1), BuildingBlock: CIFDUS_clean_linker_0, # of connection points: 2
#     Edge 42, Type (0, 1), BuildingBlock: CIFDUS_clean_linker_0, # of connection points: 2
#     Edge 43, Type (0, 1), BuildingBlock: CIFDUS_clean_linker_0, # of connection points: 2
#     Edge 44, Type (0, 1), BuildingBlock: CIFDUS_clean_linker_0, # of connection points: 2
#     Edge 45, Type (0, 1), BuildingBlock: CIFDUS_clean_linker_0, # of connection points: 2
#     Edge 46, Type (0, 1), BuildingBlock: CIFDUS_clean_linker_0, # of connection points: 2
#     Edge 47, Type (0, 1), BuildingBlock: CIFDUS_clean_linker_0, # of connection points: 2
#     Edge 48, Type (0, 1), BuildingBlock: CIFDUS_clean_linker_0, # of connection points: 2
#     Edge 49, Type (0, 1), BuildingBlock: CIFDUS_clean_linker_0, # of connection points: 2
#     Edge 50, Type (0, 1), BuildingBlock: CIFDUS_clean_linker_0, # of connection points: 2
#     Edge 51, Type (0, 1), BuildingBlock: CIFDUS_clean_linker_0, # of connection points: 2
#     Edge 52, Type (0, 1), BuildingBlock: CIFDUS_clean_linker_0, # of connection points: 2
#     Edge 53, Type (0, 1), BuildingBlock: CIFDUS_clean_linker_0, # of connection points: 2
#     Edge 54, Type (0, 1), BuildingBlock: CIFDUS_clean_linker_0, # of connection points: 2
#     Edge 55, Type (0, 1), BuildingBlock: CIFDUS_clean_linker_0, # of connection points: 2
#     Edge 56, Type (0, 1), BuildingBlock: CIFDUS_clean_linker_0, # of connection points: 2
#     Edge 57, Type (0, 1), BuildingBlock: CIFDUS_clean_linker_0, # of connection points: 2
#     Edge 58, Type (0, 1), BuildingBlock: CIFDUS_clean_linker_0, # of connection points: 2
#     Edge 59, Type (0, 1), BuildingBlock: CIFDUS_clean_linker_0, # of connection points: 2
#     Edge 60, Type (0, 1), BuildingBlock: CIFDUS_clean_linker_0, # of connection points: 2
#     Edge 61, Type (0, 1), BuildingBlock: CIFDUS_clean_linker_0, # of connection points: 2
# Relax obj value: 0.215
# Max RMSD: 0.259
# Mean RMSD: 0.204
data_MOF--net-ocu--node1-FUNLAD_clean_sbu_0--node2-TAGTUT_clean_sbu_1--edge1-CIFDUS_clean_linker_0
_symmetry_space_group_name_H-M    P1
_symmetry_Int_Tables_number       1
_symmetry_cell_setting            triclinic
loop_
_symmetry_equiv_pos_as_xyz
'x, y, z'
_cell_length_a     34.60726
_cell_length_b     32.914296
_cell_length_c     36.459747
_cell_angle_alpha  84.090794
_cell_angle_beta   85.668584
_cell_angle_gamma 91.361145
loop_
_atom_site_label
_atom_site_type_symbol
_atom_site_fract_x
_atom_site_fract_y
_atom_site_fract_z
_atom_type_partial_charge
C0 C 0.22252 0.26011 0.3241 0.0
N1 N 0.21605 0.16664 0.25358 0.0
C2 C 0.21771 0.13622 0.28143 0.0
C3 C 0.19514 0.10079 0.28189 0.0
C4 C 0.1694 0.09738 0.25425 0.0
C5 C 0.17016 0.12783 0.22444 0.0
C6 C 0.19453 0.16223 0.22432 0.0
Zn7 Zn 0.24502 0.21996 0.25704 0.0
C8 C 0.2028 0.29004 0.22254 0.0
N9 N 0.30788 0.33085 0.25943 0.0
C10 C 0.33118 0.33431 0.2876 0.0
C11 C 0.30894 0.35939 0.2298 0.0
C12 C 0.33638 0.39112 0.22609 0.0
C13 C 0.3638 0.39281 0.25258 0.0
C14 C 0.36026 0.36491 0.28434 0.0
Zn15 Zn 0.27729 0.27847 0.25652 0.0
O16 O 0.21518 0.22749 0.30956 0.0
C17 C 0.3199 0.20842 0.28992 0.0
O18 O 0.24787 0.28567 0.30784 0.0
H19 H 0.29065 0.3558 0.20754 0.0
H20 H 0.23476 0.1403 0.30448 0.0
H21 H 0.3293 0.31157 0.31132 0.0
O22 O 0.29026 0.18817 0.28278 0.0
O23 O 0.32118 0.24681 0.2824 0.0
H24 H 0.19448 0.1864 0.20189 0.0
O25 O 0.3075 0.27063 0.20435 0.0
O26 O 0.27378 0.2133 0.20558 0.0
O27 O 0.23257 0.31023 0.2297 0.0
O28 O 0.20079 0.25174 0.23125 0.0
C29 C 0.2994 0.23853 0.18946 0.0
H30 H 0.19456 0.07844 0.30595 0.0
H31 H 0.15011 0.12647 0.20315 0.0
H32 H 0.33861 0.41153 0.20068 0.0
H33 H 0.38116 0.36514 0.30499 0.0
C34 C 0.69832 0.30522 0.21144 0.0
N35 N 0.74498 0.19496 0.18362 0.0
C36 C 0.70806 0.1811 0.18127 0.0
C37 C 0.69972 0.15639 0.15413 0.0
C38 C 0.72944 0.14661 0.12863 0.0
C39 C 0.7674 0.16082 0.1315 0.0
C40 C 0.77471 0.18481 0.1599 0.0
Zn41 Zn 0.75277 0.2345 0.22173 0.0
C42 C 0.81281 0.30129 0.19203 0.0
N43 N 0.7684 0.32068 0.29887 0.0
C44 C 0.7394 0.33301 0.32223 0.0
C45 C 0.80586 0.3333 0.30065 0.0
C46 C 0.81545 0.35921 0.32646 0.0
C47 C 0.78646 0.37165 0.35131 0.0
C48 C 0.74796 0.35849 0.34928 0.0
Zn49 Zn 0.75942 0.28068 0.26101 0.0
O50 O 0.70808 0.27165 0.19948 0.0
C51 C 0.70112 0.21208 0.29175 0.0
O52 O 0.71528 0.31758 0.23821 0.0
H53 H 0.82869 0.32243 0.28264 0.0
H54 H 0.68471 0.19027 0.1997 0.0
H55 H 0.70987 0.32236 0.32045 0.0
O56 O 0.71036 0.20017 0.26027 0.0
O57 O 0.7167 0.24536 0.29957 0.0
H58 H 0.80385 0.19625 0.1623 0.0
O59 O 0.80375 0.24391 0.28278 0.0
O60 O 0.79654 0.19774 0.24431 0.0
O61 O 0.80233 0.31439 0.2227 0.0
O62 O 0.79626 0.26879 0.18388 0.0
C63 C 0.81355 0.21041 0.27085 0.0
H64 H 0.66995 0.14648 0.152 0.0
H65 H 0.79075 0.15407 0.11178 0.0
H66 H 0.84558 0.36823 0.328 0.0
H67 H 0.72512 0.36718 0.36864 0.0
C68 C 0.82394 0.70654 0.2739 0.0
N69 N 0.81986 0.8327 0.25106 0.0
C70 C 0.8274 0.82537 0.28723 0.0
C71 C 0.8428 0.85566 0.30572 0.0
C72 C 0.85108 0.89448 0.28726 0.0
C73 C 0.84338 0.90219 0.24993 0.0
C74 C 0.82735 0.8704 0.23213 0.0
Zn75 Zn 0.79017 0.78371 0.2343 0.0
C76 C 0.81831 0.74688 0.17232 0.0
N77 N 0.72248 0.67823 0.22146 0.0
C78 C 0.70419 0.64626 0.24324 0.0
C79 C 0.7186 0.6833 0.18437 0.0
C80 C 0.69672 0.65593 0.16765 0.0
C81 C 0.6769 0.62329 0.18909 0.0
C82 C 0.68054 0.61839 0.22749 0.0
Zn83 Zn 0.75422 0.72602 0.23787 0.0
O84 O 0.82816 0.74417 0.26229 0.0
C85 C 0.72683 0.76229 0.30018 0.0
O86 O 0.79309 0.6872 0.26776 0.0
H87 H 0.73118 0.70976 0.16736 0.0
H88 H 0.82016 0.79616 0.30276 0.0
H89 H 0.70686 0.64314 0.27276 0.0
O90 O 0.75345 0.78572 0.28324 0.0
O91 O 0.71783 0.72936 0.28696 0.0
H92 H 0.82028 0.87604 0.2037 0.0
O93 O 0.71576 0.76601 0.2091 0.0
O94 O 0.75164 0.82218 0.20614 0.0
O95 O 0.79191 0.7235 0.18972 0.0
O96 O 0.82667 0.78061 0.18462 0.0
C97 C 0.72036 0.80415 0.19962 0.0
H98 H 0.84813 0.84878 0.3346 0.0
H99 H 0.8496 0.93204 0.23495 0.0
H100 H 0.69348 0.66182 0.13825 0.0
H101 H 0.66481 0.59394 0.245 0.0
C102 C 0.20053 0.80528 0.29311 0.0
N103 N 0.30197 0.74819 0.31764 0.0
C104 C 0.33969 0.76114 0.31152 0.0
C105 C 0.35903 0.77459 0.34035 0.0
C106 C 0.33928 0.77383 0.37545 0.0
C107 C 0.30202 0.75623 0.38194 0.0
C108 C 0.28357 0.74376 0.35228 0.0
Zn109 Zn 0.26793 0.74838 0.27513 0.0
C110 C 0.20102 0.6869 0.29619 0.0
N111 N 0.18716 0.75444 0.19483 0.0
C112 C 0.15087 0.7374 0.20176 0.0
C113 C 0.20679 0.75494 0.16099 0.0
C114 C 0.19342 0.73098 0.13515 0.0
C115 C 0.15926 0.70723 0.1442 0.0
C116 C 0.13617 0.7133 0.17648 0.0
Zn117 Zn 0.2214 0.75546 0.23726 0.0
O118 O 0.23236 0.79027 0.30221 0.0
C119 C 0.28922 0.81607 0.21571 0.0
O120 O 0.18688 0.79648 0.26346 0.0
H121 H 0.23577 0.76827 0.15606 0.0
H122 H 0.35367 0.76436 0.28379 0.0
H123 H 0.13559 0.73787 0.2287 0.0
O124 O 0.3024 0.79804 0.24442 0.0
O125 O 0.2557 0.8054 0.2073 0.0
H126 H 0.25332 0.73433 0.35649 0.0
O127 O 0.25641 0.71323 0.21078 0.0
O128 O 0.3028 0.70758 0.24843 0.0
O129 O 0.18697 0.70564 0.2683 0.0
O130 O 0.23445 0.69801 0.30434 0.0
C131 C 0.28844 0.69839 0.21924 0.0
H132 H 0.388 0.78811 0.3348 0.0
H133 H 0.2861 0.75571 0.40876 0.0
H134 H 0.21204 0.72742 0.11052 0.0
H135 H 0.10886 0.69659 0.1837 0.0
C136 C 0.19532 0.81167 0.71862 0.0
N137 N 0.24085 0.70473 0.68244 0.0
C138 C 0.2029 0.69486 0.67954 0.0
C139 C 0.19197 0.67387 0.65075 0.0
C140 C 0.22016 0.66344 0.62415 0.0
C141 C 0.25922 0.67368 0.62732 0.0
C142 C 0.26909 0.69439 0.65725 0.0
Zn143 Zn 0.25029 0.73937 0.72436 0.0
C144 C 0.30878 0.80878 0.70195 0.0
N145 N 0.26053 0.81552 0.81022 0.0
C146 C 0.23112 0.82314 0.83541 0.0
C147 C 0.29779 0.8272 0.81414 0.0
C148 C 0.30685 0.84674 0.84442 0.0
C149 C 0.27748 0.85355 0.87141 0.0
C150 C 0.23913 0.84193 0.86686 0.0
Zn151 Zn 0.25239 0.78106 0.76817 0.0
O152 O 0.20679 0.78009 0.7041 0.0
C153 C 0.1947 0.71221 0.79211 0.0
O154 O 0.20973 0.82087 0.74782 0.0
H155 H 0.32093 0.81989 0.79456 0.0
H156 H 0.18068 0.70428 0.69902 0.0
H157 H 0.20172 0.81336 0.83183 0.0
O158 O 0.20631 0.70241 0.76033 0.0
O159 O 0.20903 0.74456 0.80264 0.0
H160 H 0.29904 0.70298 0.65988 0.0
O161 O 0.29595 0.74107 0.78812 0.0
O162 O 0.29262 0.69925 0.74517 0.0
O163 O 0.29508 0.81737 0.73343 0.0
O164 O 0.29586 0.77661 0.6896 0.0
C165 C 0.30717 0.70907 0.77416 0.0
H166 H 0.16151 0.6668 0.64865 0.0
H167 H 0.28152 0.66619 0.60686 0.0
H168 H 0.33686 0.85482 0.84765 0.0
H169 H 0.21601 0.84652 0.88761 0.0
C170 C 0.31636 0.19362 0.78695 0.0
N171 N 0.30998 0.31968 0.75061 0.0
C172 C 0.34807 0.31894 0.75755 0.0
C173 C 0.3634 0.34755 0.77878 0.0
C174 C 0.33935 0.37721 0.79236 0.0
C175 C 0.30161 0.38016 0.78133 0.0
C176 C 0.28741 0.35095 0.76015 0.0
Zn177 Zn 0.28109 0.26594 0.74385 0.0
C178 C 0.30664 0.22246 0.68219 0.0
N179 N 0.2149 0.15567 0.7437 0.0
C180 C 0.17565 0.15769 0.74437 0.0
C181 C 0.23407 0.12528 0.7281 0.0
C182 C 0.21441 0.09932 0.70735 0.0
C183 C 0.1749 0.10471 0.70343 0.0
C184 C 0.1549 0.13235 0.72402 0.0
Zn185 Zn 0.2454 0.20821 0.74895 0.0
O186 O 0.32233 0.23143 0.77595 0.0
C187 C 0.22128 0.2523 0.81076 0.0
O188 O 0.28521 0.17601 0.77979 0.0
H189 H 0.26531 0.12437 0.72777 0.0
H190 H 0.36547 0.29375 0.7501 0.0
H191 H 0.16108 0.18228 0.75665 0.0
O192 O 0.24808 0.27465 0.79291 0.0
O193 O 0.21161 0.21881 0.7988 0.0
H194 H 0.25699 0.35059 0.75531 0.0
O195 O 0.20555 0.23999 0.71752 0.0
O196 O 0.23817 0.29837 0.71171 0.0
O197 O 0.27976 0.19927 0.69931 0.0
O198 O 0.31494 0.25621 0.69445 0.0
C199 C 0.20843 0.2774 0.70524 0.0
H200 H 0.39265 0.34438 0.78716 0.0
H201 H 0.28224 0.40241 0.79183 0.0
H202 H 0.23061 0.07848 0.6914 0.0
H203 H 0.12439 0.13735 0.72114 0.0
C204 C 0.69445 0.3025 0.78589 0.0
N205 N 0.80348 0.26361 0.80399 0.0
C206 C 0.80365 0.3044 0.80682 0.0
C207 C 0.82055 0.32041 0.83524 0.0
C208 C 0.84107 0.29522 0.85977 0.0
C209 C 0.84274 0.25322 0.85509 0.0
C210 C 0.82281 0.23775 0.82715 0.0
Zn211 Zn 0.76441 0.24893 0.76886 0.0
C212 C 0.70655 0.18751 0.80178 0.0
N213 N 0.67407 0.23754 0.70063 0.0
C214 C 0.63822 0.2289 0.71829 0.0
C215 C 0.68313 0.22803 0.66574 0.0
C216 C 0.65694 0.20486 0.64886 0.0
C217 C 0.62171 0.19163 0.66843 0.0
C218 C 0.6114 0.20523 0.70266 0.0
Zn219 Zn 0.71677 0.24964 0.73252 0.0
O220 O 0.72632 0.28862 0.79554 0.0
C221 C 0.77668 0.30993 0.69929 0.0
O222 O 0.68179 0.29253 0.75637 0.0
H223 H 0.71188 0.23503 0.65249 0.0
H224 H 0.78811 0.32479 0.78851 0.0
H225 H 0.63176 0.23668 0.74614 0.0
O226 O 0.79008 0.2966 0.72947 0.0
O227 O 0.74352 0.2964 0.69216 0.0
H228 H 0.82184 0.20528 0.82466 0.0
O229 O 0.75237 0.20639 0.70745 0.0
O230 O 0.80084 0.20916 0.74279 0.0
O231 O 0.69075 0.20251 0.77334 0.0
O232 O 0.7403 0.20052 0.8072 0.0
C233 C 0.78629 0.19605 0.71506 0.0
H234 H 0.81605 0.35233 0.83819 0.0
H235 H 0.85852 0.23248 0.87299 0.0
H236 H 0.66532 0.19454 0.6222 0.0
H237 H 0.58426 0.19531 0.71812 0.0
C238 C 0.74302 0.78395 0.81949 0.0
N239 N 0.71841 0.68909 0.75625 0.0
C240 C 0.71588 0.66164 0.78683 0.0
C241 C 0.68865 0.62972 0.79043 0.0
C242 C 0.66297 0.62667 0.76284 0.0
C243 C 0.66614 0.65488 0.73129 0.0
C244 C 0.69493 0.68585 0.72821 0.0
Zn245 Zn 0.75725 0.73598 0.75529 0.0
C246 C 0.72867 0.8132 0.71555 0.0
N247 N 0.83903 0.83322 0.75377 0.0
C248 C 0.83069 0.86776 0.76993 0.0
C249 C 0.87604 0.82508 0.74233 0.0
C250 C 0.90566 0.85406 0.74311 0.0
C251 C 0.89716 0.89217 0.75557 0.0
C252 C 0.85976 0.89728 0.77212 0.0
Zn253 Zn 0.79845 0.7884 0.75193 0.0
O254 O 0.73045 0.75223 0.80651 0.0
C255 C 0.82911 0.7131 0.7901 0.0
O256 O 0.77177 0.80405 0.80238 0.0
H257 H 0.88253 0.7965 0.73141 0.0
H258 H 0.73404 0.66526 0.80917 0.0
H259 H 0.80132 0.87312 0.78015 0.0
O260 O 0.79708 0.69658 0.78376 0.0
O261 O 0.83521 0.75071 0.78036 0.0
H262 H 0.69766 0.70798 0.70403 0.0
O263 O 0.82473 0.7714 0.70045 0.0
O264 O 0.78267 0.72001 0.70475 0.0
O265 O 0.76142 0.82765 0.72253 0.0
O266 O 0.71949 0.77599 0.72636 0.0
C267 C 0.8113 0.74005 0.68731 0.0
H268 H 0.68601 0.60904 0.81569 0.0
H269 H 0.64603 0.65368 0.71003 0.0
H270 H 0.93389 0.84793 0.73036 0.0
H271 H 0.85205 0.92565 0.78302 0.0
C272 C 0.89525 0.11882 0.53673 0.0
C273 C 0.94325 0.11274 0.42203 0.0
C274 C 0.94444 0.94927 0.46321 0.0
Mg275 Mg 0.97831 0.11538 0.49805 0.0
O276 O 0.96431 0.06013 0.50738 0.0
Mg277 Mg 0.91556 0.03776 0.49037 0.0
Mg278 Mg 0.99925 0.01573 0.49734 0.0
O279 O 0.0342 0.97069 0.48807 0.0
Mg280 Mg 0.01888 0.91668 0.50282 0.0
Mg281 Mg 0.08381 0.9925 0.50347 0.0
C282 C 0.05669 0.08141 0.53055 0.0
C283 C 0.05873 0.0454 0.42879 0.0
O284 O 0.88407 0.08836 0.52028 0.0
O285 O 0.93021 0.13332 0.53288 0.0
O286 O 0.92344 0.08057 0.43571 0.0
O287 O 0.96762 0.13028 0.44052 0.0
O288 O 0.03575 0.11197 0.52088 0.0
O289 O 0.04684 0.04466 0.52579 0.0
C290 C 0.93811 0.98549 0.56495 0.0
O291 O 0.97347 0.98531 0.55216 0.0
O292 O 0.91154 0.99985 0.54533 0.0
O293 O 0.11308 0.93952 0.47542 0.0
O294 O 0.06503 0.89392 0.46873 0.0
O295 O 0.07899 0.9513 0.55989 0.0
C296 C 0.10025 0.90733 0.46249 0.0
O297 O 0.03189 0.90356 0.55983 0.0
O298 O 0.96147 0.91955 0.48066 0.0
C299 C 0.05908 0.92007 0.57571 0.0
O300 O 0.95305 0.98672 0.46676 0.0
O301 O 0.02413 0.04707 0.44295 0.0
O302 O 0.08558 0.02845 0.44662 0.0
C303 C 0.41088 0.1133 0.04272 0.0
C304 C 0.45505 0.09757 0.93263 0.0
C305 C 0.43668 0.93599 0.97879 0.0
Mg306 Mg 0.49204 0.09469 0.00698 0.0
O307 O 0.47234 0.04083 0.02148 0.0
Mg308 Mg 0.42185 0.02582 0.00192 0.0
Mg309 Mg 0.50272 0.99359 0.00603 0.0
O310 O 0.53313 0.94649 0.99034 0.0
Mg311 Mg 0.51418 0.89259 0.00604 0.0
Mg312 Mg 0.58496 0.96218 0.0066 0.0
C313 C 0.56942 0.05086 0.03342 0.0
C314 C 0.56937 0.03122 0.94031 0.0
O315 O 0.39762 0.08075 0.03061 0.0
O316 O 0.447 0.12411 0.03838 0.0
O317 O 0.433 0.06825 0.94835 0.0
O318 O 0.48268 0.11219 0.94912 0.0
O319 O 0.55119 0.08365 0.02411 0.0
O320 O 0.55413 0.0149 0.03398 0.0
C321 C 0.43424 0.95799 0.07113 0.0
O322 O 0.47029 0.95537 0.05956 0.0
O323 O 0.41227 0.98307 0.05422 0.0
O324 O 0.60814 0.90773 0.9754 0.0
O325 O 0.55754 0.86421 0.97199 0.0
O326 O 0.57754 0.91991 0.05915 0.0
C327 C 0.59341 0.87512 0.96447 0.0
O328 O 0.52793 0.87526 0.06337 0.0
O329 O 0.45444 0.90321 0.9893 0.0
C330 C 0.55717 0.89074 0.07706 0.0
O331 O 0.45246 0.97183 0.97751 0.0
O332 O 0.53365 0.03266 0.95291 0.0
O333 O 0.59219 0.00576 0.95531 0.0
C334 C 0.91871 0.60621 0.03059 0.0
C335 C 0.95391 0.57575 0.92094 0.0
C336 C 0.96288 0.42413 0.98019 0.0
Mg337 Mg 0.99715 0.59112 0.9879 0.0
O338 O 0.98557 0.53857 0.01253 0.0
Mg339 Mg 0.93538 0.51347 -0.00022 0.0
Mg340 Mg 0.02172 0.49557 0.99786 0.0
O341 O 0.05763 0.45277 0.98259 0.0
Mg342 Mg 0.04652 0.39904 0.00456 0.0
Mg343 Mg 0.10805 0.47791 0.9941 0.0
C344 C 0.08145 0.56729 0.01182 0.0
C345 C 0.07904 0.53595 0.92489 0.0
O346 O 0.90711 0.56966 0.02569 0.0
O347 O 0.95265 0.62062 0.01878 0.0
O348 O 0.93533 0.54824 0.9428 0.0
O349 O 0.98267 0.59537 0.9312 0.0
O350 O 0.05758 0.59398 -0.00012 0.0
O351 O 0.07216 0.5291 0.019 0.0
C352 C 0.96218 0.45512 0.06933 0.0
O353 O 0.99747 0.45682 0.05455 0.0
O354 O 0.9355 0.47577 0.05469 0.0
O355 O 0.13637 0.42284 0.9667 0.0
O356 O 0.09142 0.37147 0.97237 0.0
O357 O 0.10769 0.44209 0.05124 0.0
C358 C 0.12513 0.3866 0.96066 0.0
O359 O 0.06082 0.39394 0.0613 0.0
O360 O 0.98633 0.39644 0.99111 0.0
C361 C 0.08889 0.41395 0.07242 0.0
O362 O 0.97232 0.46238 0.97632 0.0
O363 O 0.04448 0.5339 0.94111 0.0
O364 O 0.10671 0.51599 0.93865 0.0
C365 C 0.3867 0.60797 0.04296 0.0
C366 C 0.43071 0.60166 0.9278 0.0
C367 C 0.42954 0.43638 0.9705 0.0
Mg368 Mg 0.46858 0.60282 0.00311 0.0
O369 O 0.45429 0.54772 0.01149 0.0
Mg370 Mg 0.40428 0.52638 0.99659 0.0
Mg371 Mg 0.48861 0.50329 0.9993 0.0
O372 O 0.52339 0.45866 0.98741 0.0
Mg373 Mg 0.51013 0.40365 0.00013 0.0
Mg374 Mg 0.57405 0.48113 0.00041 0.0
C375 C 0.54678 0.56737 0.03413 0.0
C376 C 0.54483 0.5361 0.92852 0.0
O377 O 0.37436 0.57763 0.02705 0.0
O378 O 0.42184 0.62162 0.03833 0.0
O379 O 0.41063 0.56947 0.94128 0.0
O380 O 0.45604 0.61818 0.94605 0.0
O381 O 0.52496 0.59804 0.02777 0.0
O382 O 0.53807 0.53187 0.02533 0.0
C383 C 0.43142 0.47495 0.07039 0.0
O384 O 0.46587 0.47287 0.05553 0.0
O385 O 0.40371 0.48968 0.05235 0.0
O386 O 0.60272 0.42984 0.97019 0.0
O387 O 0.55541 0.38355 0.96322 0.0
O388 O 0.5724 0.43887 0.05594 0.0
C389 C 0.59027 0.39794 0.95661 0.0
O390 O 0.52691 0.38929 0.05618 0.0
O391 O 0.45097 0.40649 0.98104 0.0
C392 C 0.5541 0.40654 0.07158 0.0
O393 O 0.43962 0.47383 0.97277 0.0
O394 O 0.51053 0.53581 0.94394 0.0
O395 O 0.57279 0.51908 0.94462 0.0
C396 C 0.90197 0.60899 0.53227 0.0
C397 C 0.94396 0.58359 0.42181 0.0
C398 C 0.9393 0.42612 0.48009 0.0
Mg399 Mg 0.98268 0.59224 0.4943 0.0
O400 O 0.9656 0.53875 0.51431 0.0
Mg401 Mg 0.91609 0.51818 0.49669 0.0
Mg402 Mg 0.9996 0.49278 0.50317 0.0
O403 O 0.03474 0.44734 0.49168 0.0
Mg404 Mg 0.02124 0.3924 0.50872 0.0
Mg405 Mg 0.08456 0.4697 0.50771 0.0
C406 C 0.0615 0.55868 0.52709 0.0
C407 C 0.06557 0.53074 0.43621 0.0
O408 O 0.88891 0.5747 0.52299 0.0
O409 O 0.9374 0.62132 0.52461 0.0
O410 O 0.92401 0.55485 0.44081 0.0
O411 O 0.97084 0.60278 0.43582 0.0
O412 O 0.04196 0.58877 0.51344 0.0
O413 O 0.04845 0.52152 0.53054 0.0
C414 C 0.93057 0.45586 0.56775 0.0
O415 O 0.96726 0.45486 0.55775 0.0
O416 O 0.90843 0.4798 0.55007 0.0
O417 O 0.1136 0.41578 0.4806 0.0
O418 O 0.06798 0.36698 0.47597 0.0
O419 O 0.08017 0.43084 0.56289 0.0
C420 C 0.10299 0.38139 0.46992 0.0
O421 O 0.03653 0.37963 0.56619 0.0
O422 O 0.96066 0.39664 0.49211 0.0
C423 C 0.06278 0.39947 0.58054 0.0
O424 O 0.95127 0.46377 0.47592 0.0
O425 O 0.02944 0.53027 0.44805 0.0
O426 O 0.08964 0.50914 0.45381 0.0
C427 C 0.41564 0.09727 0.53075 0.0
C428 C 0.45061 0.07553 0.41734 0.0
C429 C 0.46363 0.92026 0.47251 0.0
Mg430 Mg 0.49439 0.08844 0.48515 0.0
O431 O 0.4827 0.03391 0.50743 0.0
Mg432 Mg 0.43367 0.00825 0.49319 0.0
Mg433 Mg 0.52058 0.99089 0.4941 0.0
O434 O 0.55802 0.95001 0.47929 0.0
Mg435 Mg 0.54726 0.89536 0.49787 0.0
Mg436 Mg 0.60695 0.97524 0.49385 0.0
C437 C 0.56724 0.06182 0.51801 0.0
C438 C 0.58074 0.03653 0.42476 0.0
O439 O 0.40462 0.06214 0.5216 0.0
O440 O 0.44978 0.11298 0.5211 0.0
O441 O 0.43369 0.04517 0.437 0.0
O442 O 0.47707 0.09653 0.42972 0.0
O443 O 0.55634 0.0783 0.4876 0.0
O444 O 0.56846 0.02267 0.52361 0.0
C445 C 0.45861 0.94759 0.56249 0.0
O446 O 0.49418 0.94939 0.5486 0.0
O447 O 0.43274 0.96909 0.54745 0.0
O448 O 0.63723 0.9238 0.4625 0.0
O449 O 0.59336 0.87164 0.46478 0.0
O450 O 0.60684 0.9333 0.54859 0.0
C451 C 0.62684 0.88808 0.45427 0.0
O452 O 0.56034 0.88487 0.55479 0.0
O453 O 0.48766 0.89316 0.48335 0.0
C454 C 0.58849 0.90311 0.56754 0.0
O455 O 0.47232 0.95872 0.46847 0.0
O456 O 0.54508 0.0307 0.43773 0.0
O457 O 0.60804 0.01868 0.44099 0.0
H458 H 0.09733 0.12167 0.26732 0.0
H459 H 0.16495 0.0137 0.26655 0.0
H460 H 0.12933 0.98407 0.32376 0.0
H461 H 0.09631 0.99997 0.38219 0.0
H462 H 0.03411 0.11155 0.38638 0.0
H463 H 0.05138 0.13002 0.32014 0.0
C464 C 0.10258 0.09063 0.27858 0.0
C465 C 0.13492 0.07063 0.26435 0.0
C466 C 0.08506 0.07613 0.3134 0.0
C467 C 0.14071 0.02994 0.27789 0.0
C468 C 0.12122 0.01364 0.31122 0.0
C469 C 0.08648 0.02826 0.36842 0.0
C470 C 0.06601 0.05569 0.38895 0.0
C471 C 0.09643 0.03837 0.33077 0.0
C472 C 0.05132 0.09103 0.37096 0.0
C473 C 0.0608 0.10125 0.33319 0.0
H474 H 0.8745 0.23705 0.30517 0.0
H475 H 0.81644 0.1273 0.27959 0.0
H476 H 0.85633 0.08581 0.32067 0.0
H477 H 0.90096 0.08204 0.37035 0.0
H478 H 0.95981 0.19215 0.3947 0.0
H479 H 0.92725 0.23196 0.3468 0.0
C480 C 0.87111 0.20399 0.30814 0.0
C481 C 0.8422 0.18523 0.28997 0.0
C482 C 0.89422 0.18041 0.33162 0.0
C483 C 0.83844 0.14239 0.29345 0.0
C484 C 0.86112 0.1187 0.31705 0.0
C485 C 0.90736 0.11461 0.36463 0.0
C486 C 0.93217 0.13415 0.38674 0.0
C487 C 0.88816 0.13752 0.33724 0.0
C488 C 0.94065 0.17625 0.37842 0.0
C489 C 0.92176 0.19919 0.35119 0.0
H490 H 0.92294 0.89259 0.30712 0.0
H491 H 0.81805 0.95914 0.31802 0.0
H492 H 0.83917 0.98579 0.37411 0.0
H493 H 0.88292 0.97965 0.42599 0.0
H494 H 0.98187 0.90272 0.41692 0.0
H495 H 0.96745 0.88985 0.35518 0.0
C496 C 0.90557 0.91437 0.32099 0.0
C497 C 0.86941 0.92437 0.30846 0.0
C498 C 0.91605 0.92601 0.35475 0.0
C499 C 0.84646 0.95178 0.32689 0.0
C500 C 0.85812 0.96612 0.35944 0.0
C501 C 0.90094 0.95988 0.41044 0.0
C502 C 0.93247 0.94092 0.42663 0.0
C503 C 0.8919 0.95156 0.37476 0.0
C504 C 0.95641 0.91629 0.40582 0.0
C505 C 0.94863 0.90939 0.37018 0.0
H506 H 0.22502 0.83539 0.35427 0.0
H507 H 0.12504 0.82685 0.291 0.0
H508 H 0.0852 0.85664 0.33882 0.0
H509 H 0.07807 0.88185 0.3997 0.0
H510 H 0.17803 0.89394 0.46196 0.0
H511 H 0.21878 0.86534 0.41346 0.0
C512 C 0.19459 0.84043 0.35074 0.0
C513 C 0.17793 0.82867 0.31923 0.0
C514 C 0.17184 0.85745 0.37838 0.0
C515 C 0.13858 0.83569 0.31493 0.0
C516 C 0.11572 0.85242 0.34239 0.0
C517 C 0.10873 0.87777 0.40279 0.0
C518 C 0.12504 0.88886 0.4346 0.0
C519 C 0.1319 0.86263 0.37448 0.0
C520 C 0.16494 0.88494 0.43785 0.0
C521 C 0.18814 0.86881 0.41012 0.0
H522 H 0.13034 0.78971 0.68725 0.0
H523 H 0.19941 0.89467 0.70715 0.0
H524 H 0.1604 0.93918 0.6675 0.0
H525 H 0.11177 0.94641 0.62116 0.0
H526 H 0.03946 0.84197 0.60541 0.0
H527 H 0.07404 0.79937 0.64986 0.0
C528 C 0.13635 0.82244 0.68336 0.0
C529 C 0.16792 0.8389 0.69966 0.0
C530 C 0.11329 0.84791 0.66117 0.0
C531 C 0.17522 0.88136 0.69485 0.0
C532 C 0.15303 0.90677 0.67205 0.0
C533 C 0.10272 0.91469 0.6283 0.0
C534 C 0.0732 0.89759 0.6095 0.0
C535 C 0.12262 0.8902 0.65427 0.0
C536 C 0.06204 0.85621 0.61919 0.0
C537 C 0.08206 0.83158 0.64448 0.0
H538 H 0.16837 0.14851 0.63888 0.0
H539 H 0.14184 0.02958 0.69745 0.0
H540 H 0.10692 0.00978 0.6455 0.0
H541 H 0.07973 0.02879 0.58593 0.0
H542 H 0.10278 0.14984 0.52976 0.0
H543 H 0.14477 0.16605 0.57764 0.0
C544 C 0.15539 0.11803 0.63979 0.0
C545 C 0.15722 0.09041 0.67154 0.0
C546 C 0.1354 0.10722 0.61011 0.0
C547 C 0.14055 0.05106 0.67301 0.0
C548 C 0.12082 0.03982 0.64332 0.0
C549 C 0.09488 0.05828 0.58358 0.0
C550 C 0.08843 0.08807 0.55426 0.0
C551 C 0.11756 0.06789 0.61199 0.0
C552 C 0.10748 0.12647 0.55201 0.0
C553 C 0.13122 0.13579 0.57947 0.0
H554 H 0.76408 0.16685 0.65248 0.0
H555 H 0.86337 0.18022 0.71583 0.0
H556 H 0.90575 0.15902 0.66519 0.0
H557 H 0.91514 0.14093 0.60179 0.0
H558 H 0.81631 0.12498 0.53882 0.0
H559 H 0.77305 0.14387 0.5904 0.0
C560 C 0.79492 0.16455 0.6555 0.0
C561 C 0.81054 0.1754 0.68789 0.0
C562 C 0.81922 0.1529 0.62606 0.0
C563 C 0.85054 0.17202 0.69131 0.0
C564 C 0.87486 0.16029 0.66221 0.0
C565 C 0.88416 0.14213 0.59916 0.0
C566 C 0.86891 0.13274 0.56626 0.0
C567 C 0.85961 0.15169 0.62918 0.0
C568 C 0.82865 0.13285 0.56369 0.0
C569 C 0.804 0.14335 0.59322 0.0
H570 H 0.87119 0.96544 0.72882 0.0
H571 H 0.97764 0.9025 0.74265 0.0
H572 H 1.00237 0.92991 0.68014 0.0
H573 H 0.98474 0.95332 0.61697 0.0
H574 H 0.87201 0.00443 0.60329 0.0
H575 H 0.85748 0.99726 0.66961 0.0
C576 C 0.90037 0.9585 0.71891 0.0
C577 C 0.92093 0.92842 0.73866 0.0
C578 C 0.91192 0.96975 0.68179 0.0
C579 C 0.96006 0.92347 0.72674 0.0
C580 C 0.97377 0.93813 0.69061 0.0
C581 C 0.95695 0.96265 0.62854 0.0
C582 C 0.92896 0.97785 0.60509 0.0
C583 C 0.94828 0.95774 0.66691 0.0
C584 C 0.89355 0.99108 0.62054 0.0
C585 C 0.88543 0.9878 0.65856 0.0
H586 H 0.27922 0.18261 0.14474 0.0
H587 H 0.37117 0.26845 0.16033 0.0
H588 H 0.41341 0.23919 0.11352 0.0
H589 H 0.42625 0.18385 0.0737 0.0
H590 H 0.33357 0.09761 0.06006 0.0
H591 H 0.28972 0.1325 0.1006 0.0
C592 C 0.30833 0.19538 0.13752 0.0
C593 C 0.32222 0.22729 0.15628 0.0
C594 C 0.33254 0.17794 0.1113 0.0
C595 C 0.35979 0.24387 0.14627 0.0
C596 C 0.38405 0.2269 0.11975 0.0
C597 C 0.39637 0.17291 0.07928 0.0
C598 C 0.38356 0.13765 0.06421 0.0
C599 C 0.3711 0.19304 0.10296 0.0
C600 C 0.34453 0.12431 0.07148 0.0
C601 C 0.3193 0.14427 0.0947 0.0
H602 H 0.861 0.36537 0.20467 0.0
H603 H 0.83618 0.28625 0.12147 0.0
H604 H 0.88588 0.32262 0.07845 0.0
H605 H 0.93225 0.3808 0.06222 0.0
H606 H 0.95551 0.46202 0.14365 0.0
H607 H 0.91178 0.42046 0.18979 0.0
C608 C 0.86655 0.35593 0.17719 0.0
C609 C 0.84425 0.32321 0.16637 0.0
C610 C 0.8955 0.37707 0.15237 0.0
C611 C 0.8524 0.31135 0.13067 0.0
C612 C 0.88103 0.33211 0.10598 0.0
C613 C 0.92899 0.38835 0.09055 0.0
C614 C 0.94822 0.42368 0.09986 0.0
C615 C 0.90241 0.36531 0.11632 0.0
C616 C 0.94226 0.4342 0.13617 0.0
C617 C 0.91661 0.41081 0.16233 0.0
H618 H 0.65259 0.77332 0.17824 0.0
H619 H 0.71709 0.8866 0.18215 0.0
H620 H 0.66659 0.92429 0.15155 0.0
H621 H 0.60821 0.92443 0.11832 0.0
H622 H 0.5461 0.81123 0.10888 0.0
H623 H 0.59046 0.77437 0.14884 0.0
C624 C 0.65552 0.80629 0.1726 0.0
C625 C 0.68898 0.82703 0.18203 0.0
C626 C 0.6265 0.82781 0.15454 0.0
C627 C 0.69204 0.86978 0.17478 0.0
C628 C 0.66303 0.8914 0.15747 0.0
C629 C 0.60376 0.89175 0.12559 0.0
C630 C 0.57411 0.87055 0.11017 0.0
C631 C 0.63063 0.87063 0.14658 0.0
C632 C 0.56851 0.82837 0.12039 0.0
C633 C 0.59432 0.80721 0.14273 0.0
H634 H 0.16814 0.70492 0.06964 0.0
H635 H 0.13428 0.63048 0.1721 0.0
H636 H 0.11861 0.57317 0.1381 0.0
H637 H 0.10408 0.54884 0.07957 0.0
H638 H 0.13279 0.6251 0.97747 0.0
H639 H 0.16421 0.67578 0.01079 0.0
C640 C 0.15791 0.67598 0.08453 0.0
C641 C 0.151 0.67242 0.12319 0.0
C642 C 0.14908 0.6431 0.06485 0.0
C643 C 0.13813 0.63457 0.14218 0.0
C644 C 0.12983 0.60154 0.12284 0.0
C645 C 0.11899 0.5756 0.06454 0.0
C646 C 0.11585 0.58384 0.02648 0.0
C647 C 0.13388 0.60595 0.08416 0.0
C648 C 0.13497 0.6185 0.00697 0.0
C649 C 0.15209 0.64781 0.02609 0.0
H650 H 0.29935 0.93062 0.87939 0.0
H651 H 0.28461 0.80986 0.9372 0.0
H652 H 0.33011 0.82761 0.98168 0.0
H653 H 0.38478 0.87201 0.99399 0.0
H654 H 0.4009 0.9921 0.93404 0.0
H655 H 0.34381 0.98056 0.90099 0.0
C656 C 0.30474 0.90905 0.90289 0.0
C657 C 0.2891 0.86914 0.90529 0.0
C658 C 0.33202 0.919 0.92725 0.0
C659 C 0.29629 0.84092 0.93532 0.0
C660 C 0.32276 0.85086 0.96029 0.0
C661 C 0.37526 0.89593 0.97426 0.0
C662 C 0.39765 0.93228 0.96562 0.0
C663 C 0.34262 0.88891 0.95497 0.0
C664 C 0.38449 0.96354 0.94079 0.0
C665 C 0.35186 0.95696 0.92176 0.0
H666 H 0.24396 0.31617 0.84588 0.0
H667 H 0.15296 0.22348 0.84938 0.0
H668 H 0.11659 0.2553 0.89866 0.0
H669 H 0.10845 0.3127 0.93659 0.0
H670 H 0.1991 0.40628 0.93085 0.0
H671 H 0.23796 0.37047 0.8865 0.0
C672 C 0.21627 0.30259 0.85754 0.0
C673 C 0.20098 0.26765 0.84364 0.0
C674 C 0.1954 0.32136 0.88526 0.0
C675 C 0.16534 0.25033 0.85949 0.0
C676 C 0.1445 0.26866 0.88753 0.0
C677 C 0.13687 0.32515 0.92601 0.0
C678 C 0.15058 0.3625 0.93693 0.0
C679 C 0.15889 0.30469 0.90002 0.0
C680 C 0.1876 0.37786 0.92289 0.0
C681 C 0.20986 0.35741 0.89744 0.0
H682 H 0.62834 0.16845 0.81066 0.0
H683 H 0.73763 0.13592 0.85374 0.0
H684 H 0.70445 0.08474 0.89897 0.0
H685 H 0.64551 0.05008 0.92683 0.0
H686 H 0.53454 0.08267 0.88782 0.0
H687 H 0.56733 0.13332 0.84048 0.0
C688 C 0.64485 0.14996 0.82985 0.0
C689 C 0.6856 0.15594 0.82862 0.0
C690 C 0.62534 0.12079 0.85649 0.0
C691 C 0.70643 0.13208 0.85399 0.0
C692 C 0.68744 0.10274 0.87988 0.0
C693 C 0.62816 0.0678 0.90783 0.0
C694 C 0.58746 0.06197 0.91067 0.0
C695 C 0.64705 0.09694 0.8814 0.0
C696 C 0.56582 0.08623 0.88622 0.0
C697 C 0.58464 0.11517 0.85915 0.0
H698 H 0.83043 0.63097 0.81208 0.0
H699 H 0.89742 0.74398 0.80863 0.0
H700 H 0.94665 0.70906 0.84253 0.0
H701 H 0.96664 0.64898 0.8801 0.0
H702 H 0.89955 0.53597 0.88599 0.0
H703 H 0.85555 0.56792 0.84321 0.0
C704 C 0.85593 0.64779 0.81854 0.0
C705 C 0.85966 0.69013 0.80854 0.0
C706 C 0.88444 0.62752 0.83832 0.0
C707 C 0.89331 0.71143 0.81652 0.0
C708 C 0.92173 0.6915 0.83581 0.0
C709 C 0.94312 0.63095 0.87119 0.0
C710 C 0.93596 0.59049 0.88677 0.0
C711 C 0.91709 0.64984 0.84774 0.0
C712 C 0.9054 0.56748 0.87474 0.0
C713 C 0.87997 0.5858 0.85054 0.0
H714 H 0.19825 0.37065 0.19818 0.0
H715 H 0.1381 0.25386 0.20034 0.0
H716 H 0.09258 0.2841 0.15846 0.0
H717 H 0.0758 0.34109 0.11444 0.0
H718 H 0.13746 0.45722 0.11049 0.0
H719 H 0.17565 0.4301 0.16041 0.0
C720 C 0.17484 0.35196 0.18993 0.0
C721 C 0.17209 0.30994 0.2018 0.0
C722 C 0.14901 0.36938 0.16537 0.0
C723 C 0.14125 0.28623 0.19124 0.0
C724 C 0.11514 0.30347 0.16724 0.0
C725 C 0.09686 0.36079 0.12516 0.0
C726 C 0.10426 0.40083 0.10832 0.0
C727 C 0.11957 0.34467 0.15314 0.0
C728 C 0.1316 0.42602 0.12262 0.0
C729 C 0.15361 0.41051 0.15107 0.0
H730 H 0.16872 0.63373 0.78559 0.0
H731 H 0.15655 0.73075 0.85632 0.0
H732 H 0.11416 0.68658 0.90085 0.0
H733 H 0.08535 0.61825 0.92292 0.0
H734 H 0.10179 0.51962 0.85506 0.0
H735 H 0.13652 0.56634 0.80613 0.0
C736 C 0.1564 0.64542 0.81049 0.0
C737 C 0.16616 0.68569 0.81744 0.0
C738 C 0.13238 0.61943 0.83657 0.0
C739 C 0.14992 0.69998 0.85013 0.0
C740 C 0.12551 0.67469 0.8757 0.0
C741 C 0.09538 0.60741 0.89686 0.0
C742 C 0.08999 0.56577 0.89215 0.0
C743 C 0.11704 0.63413 0.8696 0.0
C744 C 0.10461 0.55174 0.85889 0.0
C745 C 0.12494 0.57839 0.83111 0.0
H746 H 0.38158 0.22131 0.81692 0.0
H747 H 0.31533 0.11145 0.80399 0.0
H748 H 0.35744 0.0711 0.84263 0.0
H749 H 0.40787 0.06754 0.88556 0.0
H750 H 0.47309 0.1765 0.90227 0.0
H751 H 0.43775 0.21615 0.85575 0.0
C752 C 0.37666 0.1885 0.82229 0.0
C753 C 0.34479 0.16967 0.80805 0.0
C754 C 0.40096 0.16515 0.84509 0.0
C755 C 0.33911 0.12701 0.81502 0.0
C756 C 0.36332 0.10374 0.83704 0.0
C757 C 0.415 0.09984 0.87856 0.0
C758 C 0.44272 0.11907 0.89781 0.0
C759 C 0.39362 0.1226 0.85299 0.0
C760 C 0.4519 0.16083 0.88792 0.0
C761 C 0.43131 0.18365 0.86163 0.0
H762 H 0.86864 0.37352 0.85824 0.0
H763 H 0.85699 0.25916 0.92892 0.0
H764 H 0.88869 0.29139 0.97664 0.0
H765 H 0.92388 0.35116 0.99539 0.0
H766 H 0.92579 0.46621 0.92635 0.0
H767 H 0.88838 0.4351 0.88238 0.0
C768 C 0.87083 0.35553 0.88454 0.0
C769 C 0.8599 0.31374 0.88965 0.0
C770 C 0.88609 0.3747 0.91263 0.0
C771 C 0.8658 0.29111 0.92357 0.0
C772 C 0.88325 0.30969 0.95121 0.0
C773 C 0.91494 0.36964 0.97129 0.0
C774 C 0.92847 0.41047 0.96341 0.0
C775 C 0.89396 0.35139 0.94572 0.0
C776 C 0.91604 0.43459 0.93279 0.0
C777 C 0.89525 0.41666 0.9073 0.0
H778 H 0.67139 0.76079 0.85275 0.0
H779 H 0.76808 0.84469 0.85816 0.0
H780 H 0.73125 0.87865 0.90514 0.0
H781 H 0.66996 0.88823 0.94101 0.0
H782 H 0.57251 0.80549 0.93465 0.0
H783 H 0.61129 0.76753 0.89204 0.0
C784 C 0.68463 0.78606 0.86465 0.0
C785 C 0.7224 0.80023 0.85174 0.0
C786 C 0.66299 0.80607 0.89128 0.0
C787 C 0.739 0.8332 0.8674 0.0
C788 C 0.71791 0.85278 0.89424 0.0
C789 C 0.6572 0.86172 0.93059 0.0
C790 C 0.61815 0.85015 0.9409 0.0
C791 C 0.67957 0.84011 0.90576 0.0
C792 C 0.60237 0.81544 0.92714 0.0
C793 C 0.62455 0.79362 0.90268 0.0
H794 H 0.7954 0.68555 0.13466 0.0
H795 H 0.88967 0.77306 0.13766 0.0
H796 H 0.92815 0.73868 0.09129 0.0
H797 H 0.93686 0.67969 0.05499 0.0
H798 H 0.84271 0.59087 0.05555 0.0
H799 H 0.80227 0.63001 0.09587 0.0
C800 C 0.82425 0.69754 0.12502 0.0
C801 C 0.83981 0.73167 0.13997 0.0
C802 C 0.84633 0.67705 0.09937 0.0
C803 C 0.877 0.74694 0.12664 0.0
C804 C 0.89907 0.72705 0.10036 0.0
C805 C 0.90736 0.66902 0.06358 0.0
C806 C 0.89304 0.632 0.0524 0.0
C807 C 0.88435 0.69142 0.08731 0.0
C808 C 0.85469 0.61891 0.06385 0.0
C809 C 0.8315 0.64132 0.08691 0.0
H810 H 0.36878 0.8232 0.20135 0.0
H811 H 0.26218 0.88012 0.17377 0.0
H812 H 0.29819 0.92986 0.12912 0.0
H813 H 0.35835 0.95512 0.09572 0.0
H814 H 0.46609 0.89754 0.1181 0.0
H815 H 0.4313 0.85029 0.16701 0.0
C816 C 0.3536 0.84688 0.18586 0.0
C817 C 0.31268 0.84802 0.19113 0.0
C818 C 0.37463 0.87504 0.15912 0.0
C819 C 0.29346 0.87846 0.17037 0.0
C820 C 0.31408 0.90693 0.14475 0.0
C821 C 0.37471 0.93253 0.11126 0.0
C822 C 0.41513 0.93021 0.10292 0.0
C823 C 0.35449 0.90516 0.13855 0.0
C824 C 0.43514 0.90032 0.12371 0.0
C825 C 0.41514 0.8732 0.15168 0.0
H826 H 0.70661 0.06785 0.13033 0.0
H827 H 0.72494 0.17991 0.05841 0.0
H828 H 0.67954 0.15578 0.01656 0.0
H829 H 0.62331 0.11075 0.01015 0.0
H830 H 0.60357 0.99955 0.08352 0.0
H831 H 0.66129 0.01475 0.11478 0.0
C832 C 0.70204 0.0859 0.10447 0.0
C833 C 0.71847 0.12551 0.09731 0.0
C834 C 0.67482 0.07247 0.08152 0.0
C835 C 0.71253 0.14916 0.06409 0.0
C836 C 0.68612 0.13564 0.04056 0.0
C837 C 0.63226 0.08948 0.03244 0.0
C838 C 0.60875 0.05491 0.04548 0.0
C839 C 0.66518 0.09865 0.05049 0.0
C840 C 0.62102 0.02675 0.0735 0.0
C841 C 0.65392 0.03548 0.09146 0.0
H842 H 0.59147 0.6474 0.78409 0.0
H843 H 0.66134 0.544 0.76536 0.0
H844 H 0.62343 0.5022 0.81523 0.0
H845 H 0.5852 0.50274 0.8745 0.0
H846 H 0.51913 0.60801 0.89674 0.0
H847 H 0.54081 0.642 0.83543 0.0
C848 C 0.59667 0.61502 0.78956 0.0
C849 C 0.62935 0.59871 0.77201 0.0
C850 C 0.57684 0.59243 0.82015 0.0
C851 C 0.63623 0.5569 0.77886 0.0
C852 C 0.61519 0.5334 0.80795 0.0
C853 C 0.57513 0.53286 0.86551 0.0
C854 C 0.55205 0.55381 0.89011 0.0
C855 C 0.58793 0.55204 0.83063 0.0
C856 C 0.53772 0.592 0.87821 0.0
C857 C 0.55002 0.61127 0.84323 0.0
H858 H 0.36765 0.73186 0.81116 0.0
H859 H 0.30644 0.62571 0.78208 0.0
H860 H 0.34286 0.5815 0.82444 0.0
H861 H 0.38612 0.57441 0.87561 0.0
H862 H 0.44928 0.681 0.90199 0.0
H863 H 0.41887 0.72329 0.8543 0.0
C864 C 0.36287 0.69895 0.8136 0.0
C865 C 0.33414 0.68205 0.79393 0.0
C866 C 0.38415 0.67378 0.83769 0.0
C867 C 0.32846 0.63939 0.79695 0.0
C868 C 0.34912 0.61415 0.82134 0.0
C869 C 0.39386 0.60673 0.87042 0.0
C870 C 0.41944 0.62448 0.89303 0.0
C871 C 0.37619 0.63115 0.84273 0.0
C872 C 0.42954 0.66636 0.88537 0.0
C873 C 0.41192 0.69077 0.85818 0.0
H874 H 0.33251 0.34817 0.86378 0.0
H875 H 0.37158 0.45423 0.7901 0.0
H876 H 0.39603 0.48649 0.8421 0.0
H877 H 0.41383 0.47985 0.90663 0.0
H878 H 0.3793 0.3707 0.9786 0.0
H879 H 0.34422 0.34471 0.92966 0.0
C880 C 0.34601 0.37857 0.8594 0.0
C881 C 0.35085 0.39884 0.82348 0.0
C882 C 0.36046 0.3963 0.88916 0.0
C883 C 0.368 0.43819 0.81767 0.0
C884 C 0.38186 0.45651 0.84734 0.0
C885 C 0.39742 0.45106 0.91199 0.0
C886 C 0.39894 0.42722 0.94621 0.0
C887 C 0.37919 0.43534 0.88303 0.0
C888 C 0.37829 0.38961 0.95255 0.0
C889 C 0.35866 0.37456 0.92445 0.0
H890 H 0.71791 0.33664 0.84512 0.0
H891 H 0.61727 0.3175 0.78506 0.0
H892 H 0.57594 0.34406 0.83385 0.0
H893 H 0.56813 0.36916 0.89489 0.0
H894 H 0.66876 0.39076 0.95395 0.0
H895 H 0.71059 0.36589 0.90432 0.0
C896 C 0.68697 0.33871 0.84249 0.0
C897 C 0.67058 0.32493 0.81168 0.0
C898 C 0.66343 0.35357 0.87072 0.0
C899 C 0.63056 0.32811 0.80845 0.0
C900 C 0.60689 0.34288 0.83649 0.0
C901 C 0.59919 0.36792 0.89705 0.0
C902 C 0.61544 0.38076 0.92824 0.0
C903 C 0.62294 0.35484 0.86805 0.0
C904 C 0.65574 0.38041 0.93031 0.0
C905 C 0.67958 0.36646 0.90192 0.0
H906 H 0.63527 0.27941 0.17887 0.0
H907 H 0.69678 0.3884 0.20134 0.0
H908 H 0.65462 0.43051 0.1631 0.0
H909 H 0.60463 0.43554 0.11799 0.0
H910 H 0.54101 0.32641 0.09846 0.0
H911 H 0.57879 0.28556 0.14146 0.0
C912 C 0.63908 0.31243 0.17576 0.0
C913 C 0.66944 0.33073 0.1925 0.0
C914 C 0.61427 0.33651 0.15424 0.0
C915 C 0.67367 0.37357 0.1887 0.0
C916 C 0.64963 0.39766 0.16672 0.0
C917 C 0.59842 0.40296 0.12372 0.0
C918 C 0.57023 0.38418 0.10443 0.0
C919 C 0.62039 0.3794 0.14862 0.0
C920 C 0.56244 0.3419 0.11267 0.0
C921 C 0.58434 0.31832 0.1371 0.0
H922 H 0.69055 0.58436 0.12765 0.0
H923 H 0.59984 0.61172 0.20824 0.0
H924 H 0.55085 0.59531 0.16664 0.0
H925 H 0.53472 0.58367 0.10397 0.0
H926 H 0.62462 0.55545 0.02314 0.0
H927 H 0.67354 0.56251 0.0679 0.0
C928 C 0.65997 0.58536 0.13648 0.0
C929 C 0.64868 0.59943 0.17079 0.0
C930 C 0.63215 0.57728 0.11189 0.0
C931 C 0.60912 0.6006 0.18213 0.0
C932 C 0.58118 0.59197 0.15807 0.0
C933 C 0.56512 0.57915 0.09629 0.0
C934 C 0.57666 0.57064 0.0602 0.0
C935 C 0.59252 0.58224 0.12231 0.0
C936 C 0.6156 0.56316 0.05061 0.0
C937 C 0.64332 0.56688 0.07623 0.0
H938 H 0.26259 0.66996 0.15795 0.0
H939 H 0.36388 0.67605 0.21984 0.0
H940 H 0.40294 0.64873 0.17001 0.0
H941 H 0.40919 0.62783 0.10755 0.0
H942 H 0.3083 0.61953 0.04584 0.0
H943 H 0.26792 0.64376 0.09705 0.0
C944 C 0.29313 0.66487 0.16077 0.0
C945 C 0.31043 0.67539 0.19242 0.0
C946 C 0.31547 0.64963 0.13187 0.0
C947 C 0.34989 0.66821 0.1958 0.0
C948 C 0.37229 0.65293 0.1672 0.0
C949 C 0.37839 0.63172 0.10516 0.0
C950 C 0.36174 0.62314 0.07272 0.0
C951 C 0.35555 0.64456 0.13483 0.0
C952 C 0.32167 0.6267 0.07041 0.0
C953 C 0.2987 0.64032 0.09967 0.0
H954 H 0.37204 0.47423 0.23494 0.0
H955 H 0.43678 0.3645 0.24269 0.0
H956 H 0.47129 0.38533 0.1826 0.0
H957 H 0.46464 0.42177 0.12044 0.0
H958 H 0.38801 0.52329 0.11066 0.0
H959 H 0.37524 0.51828 0.17735 0.0
C960 C 0.39543 0.45627 0.22426 0.0
C961 C 0.39993 0.4168 0.24129 0.0
C962 C 0.41066 0.4656 0.18768 0.0
C963 C 0.43155 0.3944 0.2289 0.0
C964 C 0.45035 0.40563 0.1939 0.0
C965 C 0.44535 0.44275 0.13313 0.0
C966 C 0.42561 0.47127 0.11084 0.0
C967 C 0.43692 0.43879 0.17162 0.0
C968 C 0.40181 0.4995 0.12735 0.0
C969 C 0.39507 0.49726 0.16551 0.0
H970 H 0.78612 0.67754 0.65103 0.0
H971 H 0.87898 0.76808 0.64794 0.0
H972 H 0.91338 0.73771 0.59694 0.0
H973 H 0.91968 0.68203 0.55722 0.0
H974 H 0.82749 0.59039 0.56159 0.0
H975 H 0.79006 0.62509 0.60781 0.0
C976 C 0.81373 0.69095 0.63901 0.0
C977 C 0.83011 0.72486 0.65361 0.0
C978 C 0.83355 0.67305 0.61 0.0
C979 C 0.86573 0.74196 0.63739 0.0
C980 C 0.88548 0.72451 0.60827 0.0
C981 C 0.89119 0.66978 0.56787 0.0
C982 C 0.87671 0.63325 0.55606 0.0
C983 C 0.87005 0.68952 0.59493 0.0
C984 C 0.83956 0.61826 0.57013 0.0
C985 C 0.81815 0.63802 0.59674 0.0
H986 H 0.37094 0.794 0.65237 0.0
H987 H 0.31142 0.89051 0.70261 0.0
H988 H 0.35614 0.94127 0.66822 0.0
H989 H 0.4091 0.9595 0.62069 0.0
H990 H 0.47118 0.86513 0.57044 0.0
H991 H 0.42982 0.81263 0.60852 0.0
C992 C 0.36786 0.82614 0.6557 0.0
C993 C 0.33733 0.83829 0.67985 0.0
C994 C 0.39465 0.85567 0.63623 0.0
C995 C 0.33434 0.88011 0.68426 0.0
C996 C 0.36005 0.90931 0.66463 0.0
C997 C 0.41446 0.92737 0.61897 0.0
C998 C 0.44366 0.91636 0.59312 0.0
C999 C 0.39008 0.89757 0.64035 0.0
C1000 C 0.44968 0.87455 0.59076 0.0
C1001 C 0.42544 0.84451 0.61208 0.0
H1002 H 0.18556 0.35704 0.69522 0.0
H1003 H 0.15983 0.2358 0.66671 0.0
H1004 H 0.10741 0.26152 0.63087 0.0
H1005 H 0.07205 0.31922 0.60313 0.0
H1006 H 0.09746 0.44071 0.63076 0.0
H1007 H 0.14536 0.41411 0.67217 0.0
C1008 C 0.16848 0.33638 0.6811 0.0
C1009 C 0.17708 0.29469 0.68328 0.0
C1010 C 0.13767 0.3513 0.66077 0.0
C1011 C 0.15411 0.26813 0.66537 0.0
C1012 C 0.1239 0.28275 0.64492 0.0
C1013 C 0.087 0.33965 0.61926 0.0
C1014 C 0.08096 0.38185 0.61394 0.0
C1015 C 0.11559 0.32432 0.64207 0.0
C1016 C 0.10133 0.40801 0.63453 0.0
C1017 C 0.12918 0.39289 0.65785 0.0
H1018 H 0.56825 0.20112 0.61943 0.0
H1019 H 0.62724 0.11072 0.68623 0.0
H1020 H 0.60781 0.05769 0.64826 0.0
H1021 H 0.58749 0.04203 0.58795 0.0
H1022 H 0.53296 0.13559 0.51936 0.0
H1023 H 0.53597 0.18175 0.56642 0.0
C1024 C 0.57528 0.16942 0.62637 0.0
C1025 C 0.59907 0.15931 0.65487 0.0
C1026 C 0.56537 0.13979 0.60368 0.0
C1027 C 0.60868 0.11857 0.66409 0.0
C1028 C 0.59796 0.0885 0.64223 0.0
C1029 C 0.5753 0.07208 0.58384 0.0
C1030 C 0.56093 0.08548 0.54992 0.0
C1031 C 0.57838 0.09939 0.61059 0.0
C1032 C 0.54485 0.12445 0.54498 0.0
C1033 C 0.54658 0.15116 0.57188 0.0
H1034 H 0.79929 0.33997 0.41949 0.0
H1035 H 0.80433 0.45269 0.34791 0.0
H1036 H 0.84815 0.48345 0.38773 0.0
H1037 H 0.89576 0.47229 0.43399 0.0
H1038 H 0.89559 0.35646 0.50135 0.0
H1039 H 0.83891 0.33292 0.47264 0.0
C1040 C 0.80865 0.37185 0.41377 0.0
C1041 C 0.79864 0.39434 0.38129 0.0
C1042 C 0.83563 0.38825 0.43545 0.0
C1043 C 0.81145 0.43525 0.37322 0.0
C1044 C 0.83692 0.45253 0.39565 0.0
C1045 C 0.8827 0.44232 0.44309 0.0
C1046 C 0.90042 0.41574 0.46902 0.0
C1047 C 0.85096 0.42846 0.42553 0.0
C1048 C 0.88301 0.37711 0.48076 0.0
C1049 C 0.85057 0.36364 0.4644 0.0
H1050 H 0.74775 0.8253 0.33707 0.0
H1051 H 0.65927 0.73032 0.33819 0.0
H1052 H 0.62204 0.75937 0.38861 0.0
H1053 H 0.6124 0.81495 0.42817 0.0
H1054 H 0.70019 0.91124 0.42457 0.0
H1055 H 0.74015 0.87807 0.37905 0.0
C1056 C 0.72042 0.81062 0.34842 0.0
C1057 C 0.70605 0.77588 0.33356 0.0
C1058 C 0.69902 0.82787 0.37671 0.0
C1059 C 0.6709 0.75709 0.34903 0.0
C1060 C 0.64958 0.77382 0.37771 0.0
C1061 C 0.64043 0.82862 0.41777 0.0
C1062 C 0.65304 0.8659 0.42964 0.0
C1063 C 0.66299 0.80973 0.39115 0.0
C1064 C 0.68958 0.88281 0.41588 0.0
C1065 C 0.71244 0.86388 0.38978 0.0
H1066 H 0.1217 0.67272 0.30921 0.0
H1067 H 0.23207 0.62417 0.3362 0.0
H1068 H 0.19935 0.57015 0.37858 0.0
H1069 H 0.14098 0.53916 0.41074 0.0
H1070 H 0.0292 0.58739 0.38889 0.0
H1071 H 0.06078 0.63871 0.34155 0.0
C1072 C 0.13843 0.64998 0.32411 0.0
C1073 C 0.17944 0.65262 0.31948 0.0
C1074 C 0.11924 0.61911 0.34951 0.0
C1075 C 0.20066 0.62313 0.33928 0.0
C1076 C 0.18194 0.59213 0.36356 0.0
C1077 C 0.12304 0.56054 0.39566 0.0
C1078 C 0.08247 0.55937 0.40401 0.0
C1079 C 0.14141 0.59023 0.36932 0.0
C1080 C 0.06036 0.58757 0.38356 0.0
C1081 C 0.07853 0.617 0.35644 0.0
H1082 H 0.32956 0.12682 0.3053 0.0
H1083 H 0.38382 0.24486 0.31304 0.0
H1084 H 0.4347 0.2125 0.34708 0.0
H1085 H 0.45832 0.15209 0.38195 0.0
H1086 H 0.40257 0.03428 0.37696 0.0
H1087 H 0.35868 0.06501 0.33345 0.0
C1088 C 0.35272 0.1454 0.31415 0.0
C1089 C 0.35241 0.18816 0.30739 0.0
C1090 C 0.38179 0.12666 0.33404 0.0
C1091 C 0.38301 0.21184 0.3184 0.0
C1092 C 0.41223 0.1934 0.33779 0.0
C1093 C 0.43736 0.1329 0.37052 0.0
C1094 C 0.4332 0.09117 0.38319 0.0
C1095 C 0.41123 0.15097 0.34675 0.0
C1096 C 0.40599 0.06667 0.36798 0.0
C1097 C 0.38066 0.08425 0.34334 0.0
H1098 H 0.6573 0.79155 0.69552 0.0
H1099 H 0.7414 0.89199 0.68458 0.0
H1100 H 0.70227 0.93097 0.6414 0.0
H1101 H 0.64817 0.93363 0.60189 0.0
H1102 H 0.56486 0.83259 0.61112 0.0
H1103 H 0.59929 0.79727 0.66046 0.0
C1104 C 0.66688 0.82216 0.68404 0.0
C1105 C 0.70257 0.83854 0.69293 0.0
C1106 C 0.64442 0.84433 0.65886 0.0
C1107 C 0.71428 0.87842 0.67803 0.0
C1108 C 0.69192 0.90077 0.65328 0.0
C1109 C 0.63708 0.90416 0.61502 0.0
C1110 C 0.60424 0.88559 0.6023 0.0
C1111 C 0.65749 0.8836 0.64277 0.0
C1112 C 0.59017 0.84758 0.62009 0.0
C1113 C 0.61 0.8272 0.64819 0.0
H1114 H 0.65525 0.14471 0.28197 0.0
H1115 H 0.68769 0.22019 0.36545 0.0
H1116 H 0.65026 0.17475 0.41299 0.0
H1117 H 0.61267 0.11047 0.43205 0.0
H1118 H 0.57885 0.03486 0.34967 0.0
H1119 H 0.6118 0.08337 0.3007 0.0
C1120 C 0.65383 0.1515 0.31051 0.0
C1121 C 0.67477 0.186 0.31989 0.0
C1122 C 0.63182 0.12511 0.33802 0.0
C1123 C 0.67215 0.19413 0.35713 0.0
C1124 C 0.65071 0.16799 0.38449 0.0
C1125 C 0.61159 0.10521 0.40326 0.0
C1126 C 0.59268 0.06941 0.39448 0.0
C1127 C 0.63095 0.13307 0.37541 0.0
C1128 C 0.5924 0.06253 0.35712 0.0
C1129 C 0.61165 0.09013 0.32917 0.0
H1130 H 0.83464 0.62513 0.29515 0.0
H1131 H 0.88173 0.74621 0.30355 0.0
H1132 H 0.92804 0.71832 0.34534 0.0
H1133 H 0.95028 0.66059 0.38566 0.0
H1134 H 0.90413 0.53933 0.37731 0.0
H1135 H 0.86369 0.56596 0.32901 0.0
C1136 C 0.85529 0.64529 0.30585 0.0
C1137 C 0.85408 0.68773 0.29656 0.0
C1138 C 0.8824 0.62903 0.32997 0.0
C1139 C 0.88155 0.71338 0.31033 0.0
C1140 C 0.90827 0.6975 0.33433 0.0
C1141 C 0.93237 0.63985 0.37241 0.0
C1142 C 0.9299 0.59817 0.38548 0.0
C1143 C 0.9084 0.65548 0.34509 0.0
C1144 C 0.90631 0.57171 0.36804 0.0
C1145 C 0.88286 0.58693 0.34057 0.0
H1146 H 0.35084 0.85469 0.3688 0.0
H1147 H 0.36018 0.74593 0.44376 0.0
H1148 H 0.39189 0.78602 0.48682 0.0
H1149 H 0.42605 0.84921 0.49705 0.0
H1150 H 0.42035 0.95698 0.41974 0.0
H1151 H 0.37593 0.92071 0.38442 0.0
C1152 C 0.35964 0.84007 0.39479 0.0
C1153 C 0.35472 0.79763 0.40303 0.0
C1154 C 0.37784 0.86316 0.41891 0.0
C1155 C 0.36475 0.7786 0.43695 0.0
C1156 C 0.3826 0.80147 0.46143 0.0
C1157 C 0.41424 0.86501 0.47297 0.0
C1158 C 0.42719 0.90509 0.46017 0.0
C1159 C 0.39059 0.84341 0.45191 0.0
C1160 C 0.41099 0.92591 0.42978 0.0
C1161 C 0.38611 0.90501 0.40931 0.0
H1162 H 0.23833 0.32085 0.36584 0.0
H1163 H 0.15328 0.22549 0.3557 0.0
H1164 H 0.10946 0.25292 0.40237 0.0
H1165 H 0.09289 0.30841 0.44106 0.0
H1166 H 0.17852 0.40411 0.44936 0.0
H1167 H 0.22436 0.37202 0.40842 0.0
C1168 C 0.21042 0.30564 0.37416 0.0
C1169 C 0.19896 0.27141 0.35698 0.0
C1170 C 0.18521 0.32198 0.40038 0.0
C1171 C 0.16286 0.25188 0.36845 0.0
C1172 C 0.13766 0.26776 0.39494 0.0
C1173 C 0.12169 0.32206 0.43423 0.0
C1174 C 0.13186 0.35906 0.44801 0.0
C1175 C 0.1481 0.30353 0.4103 0.0
C1176 C 0.16955 0.37595 0.43904 0.0
C1177 C 0.19591 0.35761 0.41555 0.0
H1178 H 0.28957 0.15728 0.64575 0.0
H1179 H 0.37503 0.25479 0.64647 0.0
H1180 H 0.4154 0.22596 0.59807 0.0
H1181 H 0.42832 0.17036 0.55864 0.0
H1182 H 0.34229 0.07295 0.55896 0.0
H1183 H 0.30036 0.10466 0.60375 0.0
C1184 C 0.31688 0.17254 0.63517 0.0
C1185 C 0.32932 0.20808 0.64999 0.0
C1186 C 0.34002 0.15566 0.60761 0.0
C1187 C 0.36468 0.22746 0.63562 0.0
C1188 C 0.38788 0.21086 0.60803 0.0
C1189 C 0.40025 0.1562 0.56818 0.0
C1190 C 0.38879 0.119 0.55543 0.0
C1191 C 0.37614 0.17455 0.59427 0.0
C1192 C 0.35215 0.10138 0.56821 0.0
C1193 C 0.32806 0.11949 0.59395 0.0
H1194 H 0.85352 0.33256 0.70111 0.0
H1195 H 0.75523 0.35104 0.63558 0.0
H1196 H 0.79517 0.39592 0.5896 0.0
H1197 H 0.85669 0.42954 0.568 0.0
H1198 H 0.95682 0.4127 0.63104 0.0
H1199 H 0.91743 0.36651 0.6779 0.0
C1200 C 0.84074 0.34664 0.67688 0.0
C1201 C 0.80103 0.33861 0.67209 0.0
C1202 C 0.8642 0.37229 0.65012 0.0
C1203 C 0.78534 0.35671 0.64022 0.0
C1204 C 0.80826 0.38233 0.61385 0.0
C1205 C 0.87023 0.41627 0.59213 0.0
C1206 C 0.90973 0.42549 0.59627 0.0
C1207 C 0.84754 0.39029 0.61857 0.0
C1208 C 0.92659 0.40655 0.62718 0.0
C1209 C 0.90394 0.3803 0.65399 0.0
H1210 H 0.1994 0.58449 0.62373 0.0
H1211 H 0.2077 0.70022 0.55654 0.0
H1212 H 0.16146 0.67527 0.51574 0.0
H1213 H 0.10925 0.62564 0.50768 0.0
H1214 H 0.09975 0.5106 0.57675 0.0
H1215 H 0.15617 0.52971 0.60795 0.0
C1216 C 0.19237 0.60339 0.5991 0.0
C1217 C 0.20677 0.64387 0.59278 0.0
C1218 C 0.16476 0.58932 0.57677 0.0
C1219 C 0.1972 0.6687 0.56137 0.0
C1220 C 0.17032 0.65465 0.53849 0.0
C1221 C 0.11998 0.6045 0.52911 0.0
C1222 C 0.09978 0.56724 0.54051 0.0
C1223 C 0.1523 0.61585 0.54723 0.0
C1224 C 0.11452 0.53968 0.56768 0.0
C1225 C 0.14676 0.55062 0.58567 0.0
loop_
_geom_bond_atom_site_label_1
_geom_bond_atom_site_label_2
_geom_bond_distance
_geom_bond_site_symmetry_2
_ccdc_geom_bond_type
C0 O16 1.251 . S
C0 O18 1.254 . S
N1 C2 1.333 . S
N1 C6 1.307 . S
N1 Zn7 2.020 . S
C2 N1 1.333 . S
C2 C3 1.379 . S
C2 H20 0.952 . S
C3 C2 1.379 . S
C3 C4 1.390 . S
C3 H30 0.949 . S
C4 C3 1.390 . S
C4 C5 1.357 . S
C5 C4 1.357 . S
C5 C6 1.370 . S
C5 H31 0.950 . S
C6 N1 1.307 . S
C6 C5 1.370 . S
C6 H24 0.948 . S
Zn7 N1 2.020 . S
Zn7 O16 2.039 . S
Zn7 O22 2.034 . S
Zn7 O26 2.025 . S
Zn7 O28 2.024 . S
C8 O27 1.246 . S
C8 O28 1.249 . S
N9 C10 1.307 . S
N9 C11 1.333 . S
N9 Zn15 2.020 . S
C10 N9 1.307 . S
C10 C14 1.370 . S
C10 H21 0.948 . S
C11 N9 1.333 . S
C11 C12 1.379 . S
C11 H19 0.952 . S
C12 C11 1.379 . S
C12 C13 1.390 . S
C12 H32 0.949 . S
C13 C12 1.390 . S
C13 C14 1.357 . S
C14 C10 1.370 . S
C14 C13 1.357 . S
C14 H33 0.950 . S
Zn15 N9 2.020 . S
Zn15 O18 2.025 . S
Zn15 O23 2.024 . S
Zn15 O25 2.039 . S
Zn15 O27 2.034 . S
O16 C0 1.251 . S
O16 Zn7 2.039 . S
C17 O22 1.246 . S
C17 O23 1.249 . S
O18 C0 1.254 . S
O18 Zn15 2.025 . S
H19 C11 0.952 . S
H20 C2 0.952 . S
H21 C10 0.948 . S
O22 Zn7 2.034 . S
O22 C17 1.246 . S
O23 Zn15 2.024 . S
O23 C17 1.249 . S
H24 C6 0.948 . S
O25 Zn15 2.039 . S
O25 C29 1.251 . S
O26 Zn7 2.025 . S
O26 C29 1.254 . S
O27 C8 1.246 . S
O27 Zn15 2.034 . S
O28 Zn7 2.024 . S
O28 C8 1.249 . S
C29 O25 1.251 . S
C29 O26 1.254 . S
H30 C3 0.949 . S
H31 C5 0.950 . S
H32 C12 0.949 . S
H33 C14 0.950 . S
C34 O50 1.251 . S
C34 O52 1.254 . S
N35 C36 1.333 . S
N35 C40 1.307 . S
N35 Zn41 2.020 . S
C36 N35 1.333 . S
C36 C37 1.379 . S
C36 H54 0.952 . S
C37 C36 1.379 . S
C37 C38 1.390 . S
C37 H64 0.949 . S
C38 C37 1.390 . S
C38 C39 1.357 . S
C39 C38 1.357 . S
C39 C40 1.370 . S
C39 H65 0.950 . S
C40 N35 1.307 . S
C40 C39 1.370 . S
C40 H58 0.948 . S
Zn41 N35 2.020 . S
Zn41 O50 2.039 . S
Zn41 O56 2.034 . S
Zn41 O60 2.025 . S
Zn41 O62 2.024 . S
C42 O61 1.246 . S
C42 O62 1.249 . S
N43 C44 1.307 . S
N43 C45 1.333 . S
N43 Zn49 2.020 . S
C44 N43 1.307 . S
C44 C48 1.370 . S
C44 H55 0.948 . S
C45 N43 1.333 . S
C45 C46 1.379 . S
C45 H53 0.952 . S
C46 C45 1.379 . S
C46 C47 1.390 . S
C46 H66 0.949 . S
C47 C46 1.390 . S
C47 C48 1.357 . S
C48 C44 1.370 . S
C48 C47 1.357 . S
C48 H67 0.950 . S
Zn49 N43 2.020 . S
Zn49 O52 2.025 . S
Zn49 O57 2.024 . S
Zn49 O59 2.039 . S
Zn49 O61 2.034 . S
O50 C34 1.251 . S
O50 Zn41 2.039 . S
C51 O56 1.246 . S
C51 O57 1.249 . S
O52 C34 1.254 . S
O52 Zn49 2.025 . S
H53 C45 0.952 . S
H54 C36 0.952 . S
H55 C44 0.948 . S
O56 Zn41 2.034 . S
O56 C51 1.246 . S
O57 Zn49 2.024 . S
O57 C51 1.249 . S
H58 C40 0.948 . S
O59 Zn49 2.039 . S
O59 C63 1.251 . S
O60 Zn41 2.025 . S
O60 C63 1.254 . S
O61 C42 1.246 . S
O61 Zn49 2.034 . S
O62 Zn41 2.024 . S
O62 C42 1.249 . S
C63 O59 1.251 . S
C63 O60 1.254 . S
H64 C37 0.949 . S
H65 C39 0.950 . S
H66 C46 0.949 . S
H67 C48 0.950 . S
C68 O84 1.251 . S
C68 O86 1.254 . S
N69 C70 1.333 . S
N69 C74 1.307 . S
N69 Zn75 2.020 . S
C70 N69 1.333 . S
C70 C71 1.379 . S
C70 H88 0.952 . S
C71 C70 1.379 . S
C71 C72 1.390 . S
C71 H98 0.949 . S
C72 C71 1.390 . S
C72 C73 1.357 . S
C73 C72 1.357 . S
C73 C74 1.370 . S
C73 H99 0.950 . S
C74 N69 1.307 . S
C74 C73 1.370 . S
C74 H92 0.948 . S
Zn75 N69 2.020 . S
Zn75 O84 2.039 . S
Zn75 O90 2.034 . S
Zn75 O94 2.025 . S
Zn75 O96 2.024 . S
C76 O95 1.246 . S
C76 O96 1.249 . S
N77 C78 1.307 . S
N77 C79 1.333 . S
N77 Zn83 2.020 . S
C78 N77 1.307 . S
C78 C82 1.370 . S
C78 H89 0.948 . S
C79 N77 1.333 . S
C79 C80 1.379 . S
C79 H87 0.952 . S
C80 C79 1.379 . S
C80 C81 1.390 . S
C80 H100 0.949 . S
C81 C80 1.390 . S
C81 C82 1.357 . S
C82 C78 1.370 . S
C82 C81 1.357 . S
C82 H101 0.950 . S
Zn83 N77 2.020 . S
Zn83 O86 2.025 . S
Zn83 O91 2.024 . S
Zn83 O93 2.039 . S
Zn83 O95 2.034 . S
O84 C68 1.251 . S
O84 Zn75 2.039 . S
C85 O90 1.246 . S
C85 O91 1.249 . S
O86 C68 1.254 . S
O86 Zn83 2.025 . S
H87 C79 0.952 . S
H88 C70 0.952 . S
H89 C78 0.948 . S
O90 Zn75 2.034 . S
O90 C85 1.246 . S
O91 Zn83 2.024 . S
O91 C85 1.249 . S
H92 C74 0.948 . S
O93 Zn83 2.039 . S
O93 C97 1.251 . S
O94 Zn75 2.025 . S
O94 C97 1.254 . S
O95 C76 1.246 . S
O95 Zn83 2.034 . S
O96 Zn75 2.024 . S
O96 C76 1.249 . S
C97 O93 1.251 . S
C97 O94 1.254 . S
H98 C71 0.949 . S
H99 C73 0.950 . S
H100 C80 0.949 . S
H101 C82 0.950 . S
C102 O118 1.251 . S
C102 O120 1.254 . S
N103 C104 1.333 . S
N103 C108 1.307 . S
N103 Zn109 2.020 . S
C104 N103 1.333 . S
C104 C105 1.379 . S
C104 H122 0.952 . S
C105 C104 1.379 . S
C105 C106 1.390 . S
C105 H132 0.949 . S
C106 C105 1.390 . S
C106 C107 1.357 . S
C107 C106 1.357 . S
C107 C108 1.370 . S
C107 H133 0.950 . S
C108 N103 1.307 . S
C108 C107 1.370 . S
C108 H126 0.948 . S
Zn109 N103 2.020 . S
Zn109 O118 2.039 . S
Zn109 O124 2.034 . S
Zn109 O128 2.025 . S
Zn109 O130 2.024 . S
C110 O129 1.246 . S
C110 O130 1.249 . S
N111 C112 1.307 . S
N111 C113 1.333 . S
N111 Zn117 2.020 . S
C112 N111 1.307 . S
C112 C116 1.370 . S
C112 H123 0.948 . S
C113 N111 1.333 . S
C113 C114 1.379 . S
C113 H121 0.952 . S
C114 C113 1.379 . S
C114 C115 1.390 . S
C114 H134 0.949 . S
C115 C114 1.390 . S
C115 C116 1.357 . S
C116 C112 1.370 . S
C116 C115 1.357 . S
C116 H135 0.950 . S
Zn117 N111 2.020 . S
Zn117 O120 2.025 . S
Zn117 O125 2.024 . S
Zn117 O127 2.039 . S
Zn117 O129 2.034 . S
O118 C102 1.251 . S
O118 Zn109 2.039 . S
C119 O124 1.246 . S
C119 O125 1.249 . S
O120 C102 1.254 . S
O120 Zn117 2.025 . S
H121 C113 0.952 . S
H122 C104 0.952 . S
H123 C112 0.948 . S
O124 Zn109 2.034 . S
O124 C119 1.246 . S
O125 Zn117 2.024 . S
O125 C119 1.249 . S
H126 C108 0.948 . S
O127 Zn117 2.039 . S
O127 C131 1.251 . S
O128 Zn109 2.025 . S
O128 C131 1.254 . S
O129 C110 1.246 . S
O129 Zn117 2.034 . S
O130 Zn109 2.024 . S
O130 C110 1.249 . S
C131 O127 1.251 . S
C131 O128 1.254 . S
H132 C105 0.949 . S
H133 C107 0.950 . S
H134 C114 0.949 . S
H135 C116 0.950 . S
C136 O152 1.251 . S
C136 O154 1.254 . S
N137 C138 1.333 . S
N137 C142 1.307 . S
N137 Zn143 2.020 . S
C138 N137 1.333 . S
C138 C139 1.379 . S
C138 H156 0.952 . S
C139 C138 1.379 . S
C139 C140 1.390 . S
C139 H166 0.949 . S
C140 C139 1.390 . S
C140 C141 1.357 . S
C141 C140 1.357 . S
C141 C142 1.370 . S
C141 H167 0.950 . S
C142 N137 1.307 . S
C142 C141 1.370 . S
C142 H160 0.948 . S
Zn143 N137 2.020 . S
Zn143 O152 2.039 . S
Zn143 O158 2.034 . S
Zn143 O162 2.025 . S
Zn143 O164 2.024 . S
C144 O163 1.246 . S
C144 O164 1.249 . S
N145 C146 1.307 . S
N145 C147 1.333 . S
N145 Zn151 2.020 . S
C146 N145 1.307 . S
C146 C150 1.370 . S
C146 H157 0.948 . S
C147 N145 1.333 . S
C147 C148 1.379 . S
C147 H155 0.952 . S
C148 C147 1.379 . S
C148 C149 1.390 . S
C148 H168 0.949 . S
C149 C148 1.390 . S
C149 C150 1.357 . S
C150 C146 1.370 . S
C150 C149 1.357 . S
C150 H169 0.950 . S
Zn151 N145 2.020 . S
Zn151 O154 2.025 . S
Zn151 O159 2.024 . S
Zn151 O161 2.039 . S
Zn151 O163 2.034 . S
O152 C136 1.251 . S
O152 Zn143 2.039 . S
C153 O158 1.246 . S
C153 O159 1.249 . S
O154 C136 1.254 . S
O154 Zn151 2.025 . S
H155 C147 0.952 . S
H156 C138 0.952 . S
H157 C146 0.948 . S
O158 Zn143 2.034 . S
O158 C153 1.246 . S
O159 Zn151 2.024 . S
O159 C153 1.249 . S
H160 C142 0.948 . S
O161 Zn151 2.039 . S
O161 C165 1.251 . S
O162 Zn143 2.025 . S
O162 C165 1.254 . S
O163 C144 1.246 . S
O163 Zn151 2.034 . S
O164 Zn143 2.024 . S
O164 C144 1.249 . S
C165 O161 1.251 . S
C165 O162 1.254 . S
H166 C139 0.949 . S
H167 C141 0.950 . S
H168 C148 0.949 . S
H169 C150 0.950 . S
C170 O186 1.251 . S
C170 O188 1.254 . S
N171 C172 1.333 . S
N171 C176 1.307 . S
N171 Zn177 2.020 . S
C172 N171 1.333 . S
C172 C173 1.379 . S
C172 H190 0.952 . S
C173 C172 1.379 . S
C173 C174 1.390 . S
C173 H200 0.949 . S
C174 C173 1.390 . S
C174 C175 1.357 . S
C175 C174 1.357 . S
C175 C176 1.370 . S
C175 H201 0.950 . S
C176 N171 1.307 . S
C176 C175 1.370 . S
C176 H194 0.948 . S
Zn177 N171 2.020 . S
Zn177 O186 2.039 . S
Zn177 O192 2.034 . S
Zn177 O196 2.025 . S
Zn177 O198 2.024 . S
C178 O197 1.246 . S
C178 O198 1.249 . S
N179 C180 1.307 . S
N179 C181 1.333 . S
N179 Zn185 2.020 . S
C180 N179 1.307 . S
C180 C184 1.370 . S
C180 H191 0.948 . S
C181 N179 1.333 . S
C181 C182 1.379 . S
C181 H189 0.952 . S
C182 C181 1.379 . S
C182 C183 1.390 . S
C182 H202 0.949 . S
C183 C182 1.390 . S
C183 C184 1.357 . S
C184 C180 1.370 . S
C184 C183 1.357 . S
C184 H203 0.950 . S
Zn185 N179 2.020 . S
Zn185 O188 2.025 . S
Zn185 O193 2.024 . S
Zn185 O195 2.039 . S
Zn185 O197 2.034 . S
O186 C170 1.251 . S
O186 Zn177 2.039 . S
C187 O192 1.246 . S
C187 O193 1.249 . S
O188 C170 1.254 . S
O188 Zn185 2.025 . S
H189 C181 0.952 . S
H190 C172 0.952 . S
H191 C180 0.948 . S
O192 Zn177 2.034 . S
O192 C187 1.246 . S
O193 Zn185 2.024 . S
O193 C187 1.249 . S
H194 C176 0.948 . S
O195 Zn185 2.039 . S
O195 C199 1.251 . S
O196 Zn177 2.025 . S
O196 C199 1.254 . S
O197 C178 1.246 . S
O197 Zn185 2.034 . S
O198 Zn177 2.024 . S
O198 C178 1.249 . S
C199 O195 1.251 . S
C199 O196 1.254 . S
H200 C173 0.949 . S
H201 C175 0.950 . S
H202 C182 0.949 . S
H203 C184 0.950 . S
C204 O220 1.251 . S
C204 O222 1.254 . S
N205 C206 1.333 . S
N205 C210 1.307 . S
N205 Zn211 2.020 . S
C206 N205 1.333 . S
C206 C207 1.379 . S
C206 H224 0.952 . S
C207 C206 1.379 . S
C207 C208 1.390 . S
C207 H234 0.949 . S
C208 C207 1.390 . S
C208 C209 1.357 . S
C209 C208 1.357 . S
C209 C210 1.370 . S
C209 H235 0.950 . S
C210 N205 1.307 . S
C210 C209 1.370 . S
C210 H228 0.948 . S
Zn211 N205 2.020 . S
Zn211 O220 2.039 . S
Zn211 O226 2.034 . S
Zn211 O230 2.025 . S
Zn211 O232 2.024 . S
C212 O231 1.246 . S
C212 O232 1.249 . S
N213 C214 1.307 . S
N213 C215 1.333 . S
N213 Zn219 2.020 . S
C214 N213 1.307 . S
C214 C218 1.370 . S
C214 H225 0.948 . S
C215 N213 1.333 . S
C215 C216 1.379 . S
C215 H223 0.952 . S
C216 C215 1.379 . S
C216 C217 1.390 . S
C216 H236 0.949 . S
C217 C216 1.390 . S
C217 C218 1.357 . S
C218 C214 1.370 . S
C218 C217 1.357 . S
C218 H237 0.950 . S
Zn219 N213 2.020 . S
Zn219 O222 2.025 . S
Zn219 O227 2.024 . S
Zn219 O229 2.039 . S
Zn219 O231 2.034 . S
O220 C204 1.251 . S
O220 Zn211 2.039 . S
C221 O226 1.246 . S
C221 O227 1.249 . S
O222 C204 1.254 . S
O222 Zn219 2.025 . S
H223 C215 0.952 . S
H224 C206 0.952 . S
H225 C214 0.948 . S
O226 Zn211 2.034 . S
O226 C221 1.246 . S
O227 Zn219 2.024 . S
O227 C221 1.249 . S
H228 C210 0.948 . S
O229 Zn219 2.039 . S
O229 C233 1.251 . S
O230 Zn211 2.025 . S
O230 C233 1.254 . S
O231 C212 1.246 . S
O231 Zn219 2.034 . S
O232 Zn211 2.024 . S
O232 C212 1.249 . S
C233 O229 1.251 . S
C233 O230 1.254 . S
H234 C207 0.949 . S
H235 C209 0.950 . S
H236 C216 0.949 . S
H237 C218 0.950 . S
C238 O254 1.251 . S
C238 O256 1.254 . S
N239 C240 1.333 . S
N239 C244 1.307 . S
N239 Zn245 2.020 . S
C240 N239 1.333 . S
C240 C241 1.379 . S
C240 H258 0.952 . S
C241 C240 1.379 . S
C241 C242 1.390 . S
C241 H268 0.949 . S
C242 C241 1.390 . S
C242 C243 1.357 . S
C243 C242 1.357 . S
C243 C244 1.370 . S
C243 H269 0.950 . S
C244 N239 1.307 . S
C244 C243 1.370 . S
C244 H262 0.948 . S
Zn245 N239 2.020 . S
Zn245 O254 2.039 . S
Zn245 O260 2.034 . S
Zn245 O264 2.025 . S
Zn245 O266 2.024 . S
C246 O265 1.246 . S
C246 O266 1.249 . S
N247 C248 1.307 . S
N247 C249 1.333 . S
N247 Zn253 2.020 . S
C248 N247 1.307 . S
C248 C252 1.370 . S
C248 H259 0.948 . S
C249 N247 1.333 . S
C249 C250 1.379 . S
C249 H257 0.952 . S
C250 C249 1.379 . S
C250 C251 1.390 . S
C250 H270 0.949 . S
C251 C250 1.390 . S
C251 C252 1.357 . S
C252 C248 1.370 . S
C252 C251 1.357 . S
C252 H271 0.950 . S
Zn253 N247 2.020 . S
Zn253 O256 2.025 . S
Zn253 O261 2.024 . S
Zn253 O263 2.039 . S
Zn253 O265 2.034 . S
O254 C238 1.251 . S
O254 Zn245 2.039 . S
C255 O260 1.246 . S
C255 O261 1.249 . S
O256 C238 1.254 . S
O256 Zn253 2.025 . S
H257 C249 0.952 . S
H258 C240 0.952 . S
H259 C248 0.948 . S
O260 Zn245 2.034 . S
O260 C255 1.246 . S
O261 Zn253 2.024 . S
O261 C255 1.249 . S
H262 C244 0.948 . S
O263 Zn253 2.039 . S
O263 C267 1.251 . S
O264 Zn245 2.025 . S
O264 C267 1.254 . S
O265 C246 1.246 . S
O265 Zn253 2.034 . S
O266 Zn245 2.024 . S
O266 C246 1.249 . S
C267 O263 1.251 . S
C267 O264 1.254 . S
H268 C241 0.949 . S
H269 C243 0.950 . S
H270 C250 0.949 . S
H271 C252 0.950 . S
C272 O284 1.241 . S
C272 O285 1.280 . S
C273 O286 1.277 . S
C273 O287 1.245 . S
C274 O298 1.247 . S
C274 O300 1.289 . S
Mg275 O276 1.926 . S
Mg275 O285 1.984 . S
Mg275 O287 1.988 . S
Mg275 O288 2.061 1_655 S
O276 Mg275 1.926 . S
O276 Mg277 1.986 . S
O276 Mg278 1.917 1_655 S
Mg277 O276 1.986 . S
Mg277 O284 2.042 . S
Mg277 O286 2.041 . S
Mg277 O292 2.038 1_545 S
Mg277 O300 2.238 1_545 S
Mg278 O276 1.917 1_455 S
Mg278 O279 1.917 1_545 S
Mg278 O289 2.106 . S
Mg278 O291 2.079 1_445 S
Mg278 O300 2.106 1_445 S
Mg278 O301 2.079 . S
O279 Mg278 1.917 1_565 S
O279 Mg280 1.926 . S
O279 Mg281 1.986 . S
Mg280 O279 1.926 . S
Mg280 O294 1.984 . S
Mg280 O297 1.988 . S
Mg280 O298 2.061 1_455 S
Mg281 O279 1.986 . S
Mg281 O289 2.238 1_565 S
Mg281 O293 2.042 . S
Mg281 O295 2.041 . S
Mg281 O302 2.038 1_565 S
C282 O288 1.247 . S
C282 O289 1.289 . S
C283 O301 1.245 . S
C283 O302 1.274 . S
O284 C272 1.241 . S
O284 Mg277 2.042 . S
O285 C272 1.280 . S
O285 Mg275 1.984 . S
O286 C273 1.277 . S
O286 Mg277 2.041 . S
O287 C273 1.245 . S
O287 Mg275 1.988 . S
O288 Mg275 2.061 1_455 S
O288 C282 1.247 . S
O289 Mg278 2.106 . S
O289 Mg281 2.238 1_545 S
O289 C282 1.289 . S
C290 O291 1.245 . S
C290 O292 1.274 . S
O291 Mg278 2.079 1_665 S
O291 C290 1.245 . S
O292 Mg277 2.038 1_565 S
O292 C290 1.274 . S
O293 Mg281 2.042 . S
O293 C296 1.241 . S
O294 Mg280 1.984 . S
O294 C296 1.280 . S
O295 Mg281 2.041 . S
O295 C299 1.277 . S
C296 O293 1.241 . S
C296 O294 1.280 . S
O297 Mg280 1.988 . S
O297 C299 1.245 . S
O298 C274 1.247 . S
O298 Mg280 2.061 1_655 S
C299 O295 1.277 . S
C299 O297 1.245 . S
O300 C274 1.289 . S
O300 Mg277 2.238 1_565 S
O300 Mg278 2.106 1_665 S
O301 Mg278 2.079 . S
O301 C283 1.245 . S
O302 Mg281 2.038 1_545 S
O302 C283 1.274 . S
C303 O315 1.241 . S
C303 O316 1.280 . S
C304 O317 1.277 . S
C304 O318 1.245 . S
C305 O329 1.247 . S
C305 O331 1.289 . S
Mg306 O307 1.926 . S
Mg306 O316 1.984 . S
Mg306 O318 1.988 1_554 S
Mg306 O319 2.061 . S
O307 Mg306 1.926 . S
O307 Mg308 1.986 . S
O307 Mg309 1.917 . S
Mg308 O307 1.986 . S
Mg308 O315 2.042 . S
Mg308 O317 2.041 1_554 S
Mg308 O323 2.038 1_545 S
Mg308 O331 2.238 1_544 S
Mg309 O307 1.917 . S
Mg309 O310 1.917 1_544 S
Mg309 O320 2.107 . S
Mg309 O322 2.079 1_545 S
Mg309 O331 2.106 1_544 S
Mg309 O332 2.078 1_554 S
O310 Mg309 1.917 1_566 S
O310 Mg311 1.926 . S
O310 Mg312 1.986 . S
Mg311 O310 1.926 . S
Mg311 O325 1.984 . S
Mg311 O328 1.988 1_556 S
Mg311 O329 2.061 . S
Mg312 O310 1.986 . S
Mg312 O320 2.238 1_566 S
Mg312 O324 2.042 . S
Mg312 O326 2.041 1_556 S
Mg312 O333 2.038 1_565 S
C313 O319 1.247 . S
C313 O320 1.289 . S
C314 O332 1.245 . S
C314 O333 1.274 . S
O315 C303 1.241 . S
O315 Mg308 2.042 . S
O316 C303 1.280 . S
O316 Mg306 1.984 . S
O317 C304 1.277 . S
O317 Mg308 2.041 1_556 S
O318 C304 1.245 . S
O318 Mg306 1.988 1_556 S
O319 Mg306 2.061 . S
O319 C313 1.247 . S
O320 Mg309 2.107 . S
O320 Mg312 2.238 1_544 S
O320 C313 1.289 . S
C321 O322 1.245 . S
C321 O323 1.274 . S
O322 Mg309 2.079 1_565 S
O322 C321 1.245 . S
O323 Mg308 2.038 1_565 S
O323 C321 1.274 . S
O324 Mg312 2.042 . S
O324 C327 1.241 . S
O325 Mg311 1.984 . S
O325 C327 1.280 . S
O326 Mg312 2.041 1_554 S
O326 C330 1.277 . S
C327 O324 1.241 . S
C327 O325 1.280 . S
O328 Mg311 1.988 1_554 S
O328 C330 1.245 . S
O329 C305 1.247 . S
O329 Mg311 2.061 . S
C330 O326 1.277 . S
C330 O328 1.245 . S
O331 C305 1.289 . S
O331 Mg308 2.238 1_566 S
O331 Mg309 2.106 1_566 S
O332 Mg309 2.078 1_556 S
O332 C314 1.245 . S
O333 Mg312 2.038 1_545 S
O333 C314 1.274 . S
C334 O346 1.241 . S
C334 O347 1.280 . S
C335 O348 1.277 . S
C335 O349 1.245 . S
C336 O360 1.247 . S
C336 O362 1.289 . S
Mg337 O338 1.926 . S
Mg337 O347 1.984 . S
Mg337 O349 1.988 1_554 S
Mg337 O350 2.061 1_655 S
O338 Mg337 1.926 . S
O338 Mg339 1.986 . S
O338 Mg340 1.917 1_655 S
Mg339 O338 1.986 . S
Mg339 O346 2.042 . S
Mg339 O348 2.041 1_554 S
Mg339 O354 2.038 . S
Mg339 O362 2.238 1_554 S
Mg340 O338 1.917 1_455 S
Mg340 O341 1.917 1_554 S
Mg340 O351 2.107 . S
Mg340 O353 2.079 1_455 S
Mg340 O362 2.106 1_454 S
Mg340 O363 2.078 1_554 S
O341 Mg340 1.917 1_556 S
O341 Mg342 1.926 . S
O341 Mg343 1.986 . S
Mg342 O341 1.926 . S
Mg342 O356 1.984 . S
Mg342 O359 1.988 1_556 S
Mg342 O360 2.061 1_455 S
Mg343 O341 1.986 . S
Mg343 O351 2.238 1_556 S
Mg343 O355 2.042 . S
Mg343 O357 2.041 1_556 S
Mg343 O364 2.038 . S
C344 O350 1.247 . S
C344 O351 1.289 . S
C345 O363 1.245 . S
C345 O364 1.274 . S
O346 C334 1.241 . S
O346 Mg339 2.042 . S
O347 C334 1.280 . S
O347 Mg337 1.984 . S
O348 C335 1.277 . S
O348 Mg339 2.041 1_556 S
O349 C335 1.245 . S
O349 Mg337 1.988 1_556 S
O350 Mg337 2.061 1_455 S
O350 C344 1.247 . S
O351 Mg340 2.107 . S
O351 Mg343 2.238 1_554 S
O351 C344 1.289 . S
C352 O353 1.245 . S
C352 O354 1.274 . S
O353 Mg340 2.079 1_655 S
O353 C352 1.245 . S
O354 Mg339 2.038 . S
O354 C352 1.274 . S
O355 Mg343 2.042 . S
O355 C358 1.241 . S
O356 Mg342 1.984 . S
O356 C358 1.280 . S
O357 Mg343 2.041 1_554 S
O357 C361 1.277 . S
C358 O355 1.241 . S
C358 O356 1.280 . S
O359 Mg342 1.988 1_554 S
O359 C361 1.245 . S
O360 C336 1.247 . S
O360 Mg342 2.061 1_655 S
C361 O357 1.277 . S
C361 O359 1.245 . S
O362 C336 1.289 . S
O362 Mg339 2.238 1_556 S
O362 Mg340 2.106 1_656 S
O363 Mg340 2.078 1_556 S
O363 C345 1.245 . S
O364 Mg343 2.038 . S
O364 C345 1.274 . S
C365 O377 1.241 . S
C365 O378 1.280 . S
C366 O379 1.277 . S
C366 O380 1.245 . S
C367 O391 1.247 . S
C367 O393 1.289 . S
Mg368 O369 1.926 . S
Mg368 O378 1.984 . S
Mg368 O380 1.988 1_554 S
Mg368 O381 2.061 . S
O369 Mg368 1.926 . S
O369 Mg370 1.986 . S
O369 Mg371 1.917 . S
Mg370 O369 1.986 . S
Mg370 O377 2.042 . S
Mg370 O379 2.041 1_554 S
Mg370 O385 2.038 . S
Mg370 O393 2.238 1_554 S
Mg371 O369 1.917 . S
Mg371 O372 1.917 1_554 S
Mg371 O382 2.107 . S
Mg371 O384 2.079 . S
Mg371 O393 2.106 1_554 S
Mg371 O394 2.078 1_554 S
O372 Mg371 1.917 1_556 S
O372 Mg373 1.926 . S
O372 Mg374 1.986 . S
Mg373 O372 1.926 . S
Mg373 O387 1.984 . S
Mg373 O390 1.988 1_556 S
Mg373 O391 2.061 . S
Mg374 O372 1.986 . S
Mg374 O382 2.238 1_556 S
Mg374 O386 2.042 . S
Mg374 O388 2.041 1_556 S
Mg374 O395 2.038 . S
C375 O381 1.247 . S
C375 O382 1.289 . S
C376 O394 1.245 . S
C376 O395 1.274 . S
O377 C365 1.241 . S
O377 Mg370 2.042 . S
O378 C365 1.280 . S
O378 Mg368 1.984 . S
O379 C366 1.277 . S
O379 Mg370 2.041 1_556 S
O380 C366 1.245 . S
O380 Mg368 1.988 1_556 S
O381 Mg368 2.061 . S
O381 C375 1.247 . S
O382 Mg371 2.107 . S
O382 Mg374 2.238 1_554 S
O382 C375 1.289 . S
C383 O384 1.245 . S
C383 O385 1.274 . S
O384 Mg371 2.079 . S
O384 C383 1.245 . S
O385 Mg370 2.038 . S
O385 C383 1.274 . S
O386 Mg374 2.042 . S
O386 C389 1.241 . S
O387 Mg373 1.984 . S
O387 C389 1.280 . S
O388 Mg374 2.041 1_554 S
O388 C392 1.277 . S
C389 O386 1.241 . S
C389 O387 1.280 . S
O390 Mg373 1.988 1_554 S
O390 C392 1.245 . S
O391 C367 1.247 . S
O391 Mg373 2.061 . S
C392 O388 1.277 . S
C392 O390 1.245 . S
O393 C367 1.289 . S
O393 Mg370 2.238 1_556 S
O393 Mg371 2.106 1_556 S
O394 Mg371 2.078 1_556 S
O394 C376 1.245 . S
O395 Mg374 2.038 . S
O395 C376 1.274 . S
C396 O408 1.241 . S
C396 O409 1.280 . S
C397 O410 1.277 . S
C397 O411 1.245 . S
C398 O422 1.247 . S
C398 O424 1.289 . S
Mg399 O400 1.926 . S
Mg399 O409 1.984 . S
Mg399 O411 1.988 . S
Mg399 O412 2.061 1_655 S
O400 Mg399 1.926 . S
O400 Mg401 1.986 . S
O400 Mg402 1.917 1_655 S
Mg401 O400 1.986 . S
Mg401 O408 2.042 . S
Mg401 O410 2.041 . S
Mg401 O416 2.038 . S
Mg401 O424 2.238 . S
Mg402 O400 1.917 1_455 S
Mg402 O403 1.917 . S
Mg402 O413 2.106 . S
Mg402 O415 2.079 1_455 S
Mg402 O424 2.106 1_455 S
Mg402 O425 2.079 . S
O403 Mg402 1.917 . S
O403 Mg404 1.926 . S
O403 Mg405 1.986 . S
Mg404 O403 1.926 . S
Mg404 O418 1.984 . S
Mg404 O421 1.988 . S
Mg404 O422 2.061 1_455 S
Mg405 O403 1.986 . S
Mg405 O413 2.238 . S
Mg405 O417 2.042 . S
Mg405 O419 2.041 . S
Mg405 O426 2.038 . S
C406 O412 1.247 . S
C406 O413 1.289 . S
C407 O425 1.245 . S
C407 O426 1.274 . S
O408 C396 1.241 . S
O408 Mg401 2.042 . S
O409 C396 1.280 . S
O409 Mg399 1.984 . S
O410 C397 1.277 . S
O410 Mg401 2.041 . S
O411 C397 1.245 . S
O411 Mg399 1.988 . S
O412 Mg399 2.061 1_455 S
O412 C406 1.247 . S
O413 Mg402 2.106 . S
O413 Mg405 2.238 . S
O413 C406 1.289 . S
C414 O415 1.245 . S
C414 O416 1.274 . S
O415 Mg402 2.079 1_655 S
O415 C414 1.245 . S
O416 Mg401 2.038 . S
O416 C414 1.274 . S
O417 Mg405 2.042 . S
O417 C420 1.241 . S
O418 Mg404 1.984 . S
O418 C420 1.280 . S
O419 Mg405 2.041 . S
O419 C423 1.277 . S
C420 O417 1.241 . S
C420 O418 1.280 . S
O421 Mg404 1.988 . S
O421 C423 1.245 . S
O422 C398 1.247 . S
O422 Mg404 2.061 1_655 S
C423 O419 1.277 . S
C423 O421 1.245 . S
O424 C398 1.289 . S
O424 Mg401 2.238 . S
O424 Mg402 2.106 1_655 S
O425 Mg402 2.079 . S
O425 C407 1.245 . S
O426 Mg405 2.038 . S
O426 C407 1.274 . S
C427 O439 1.241 . S
C427 O440 1.280 . S
C428 O441 1.277 . S
C428 O442 1.245 . S
C429 O453 1.247 . S
C429 O455 1.289 . S
Mg430 O431 1.926 . S
Mg430 O440 1.984 . S
Mg430 O442 1.988 . S
Mg430 O443 2.061 . S
O431 Mg430 1.926 . S
O431 Mg432 1.986 . S
O431 Mg433 1.917 . S
Mg432 O431 1.986 . S
Mg432 O439 2.042 . S
Mg432 O441 2.041 . S
Mg432 O447 2.038 1_545 S
Mg432 O455 2.238 1_545 S
Mg433 O431 1.917 . S
Mg433 O434 1.917 1_545 S
Mg433 O444 2.106 . S
Mg433 O446 2.079 1_545 S
Mg433 O455 2.106 1_545 S
Mg433 O456 2.079 . S
O434 Mg433 1.917 1_565 S
O434 Mg435 1.926 . S
O434 Mg436 1.986 . S
Mg435 O434 1.926 . S
Mg435 O449 1.984 . S
Mg435 O452 1.988 . S
Mg435 O453 2.061 . S
Mg436 O434 1.986 . S
Mg436 O444 2.238 1_565 S
Mg436 O448 2.042 . S
Mg436 O450 2.041 . S
Mg436 O457 2.038 1_565 S
C437 O443 1.247 . S
C437 O444 1.289 . S
C438 O456 1.245 . S
C438 O457 1.274 . S
O439 C427 1.241 . S
O439 Mg432 2.042 . S
O440 C427 1.280 . S
O440 Mg430 1.984 . S
O441 C428 1.277 . S
O441 Mg432 2.041 . S
O442 C428 1.245 . S
O442 Mg430 1.988 . S
O443 Mg430 2.061 . S
O443 C437 1.247 . S
O444 Mg433 2.106 . S
O444 Mg436 2.238 1_545 S
O444 C437 1.289 . S
C445 O446 1.245 . S
C445 O447 1.274 . S
O446 Mg433 2.079 1_565 S
O446 C445 1.245 . S
O447 Mg432 2.038 1_565 S
O447 C445 1.274 . S
O448 Mg436 2.042 . S
O448 C451 1.241 . S
O449 Mg435 1.984 . S
O449 C451 1.280 . S
O450 Mg436 2.041 . S
O450 C454 1.277 . S
C451 O448 1.241 . S
C451 O449 1.280 . S
O452 Mg435 1.988 . S
O452 C454 1.245 . S
O453 C429 1.247 . S
O453 Mg435 2.061 . S
C454 O450 1.277 . S
C454 O452 1.245 . S
O455 C429 1.289 . S
O455 Mg432 2.238 1_565 S
O455 Mg433 2.106 1_565 S
O456 Mg433 2.079 . S
O456 C438 1.245 . S
O457 Mg436 2.038 1_545 S
O457 C438 1.274 . S
H458 C464 0.930 . S
H459 C467 0.930 . S
H460 C468 0.930 . S
H461 C469 0.930 . S
H462 C472 0.943 . S
H463 C473 0.930 . S
C464 H458 0.930 . S
C464 C465 1.355 . S
C464 C466 1.415 . S
C465 C464 1.355 . S
C465 C467 1.419 . S
C466 C464 1.415 . S
C466 C471 1.425 . S
C466 C473 1.409 . S
C467 H459 0.930 . S
C467 C465 1.419 . S
C467 C468 1.362 . S
C468 H460 0.930 . S
C468 C467 1.362 . S
C468 C471 1.409 . S
C469 H461 0.930 . S
C469 C470 1.355 . S
C469 C471 1.415 . S
C470 C469 1.355 . S
C470 C472 1.419 . S
C471 C466 1.425 . S
C471 C468 1.409 . S
C471 C469 1.415 . S
C472 H462 0.943 . S
C472 C470 1.419 . S
C472 C473 1.362 . S
C473 H463 0.930 . S
C473 C466 1.409 . S
C473 C472 1.362 . S
H474 C480 0.930 . S
H475 C483 0.930 . S
H476 C484 0.930 . S
H477 C485 0.930 . S
H478 C488 0.930 . S
H479 C489 0.930 . S
C480 H474 0.930 . S
C480 C481 1.355 . S
C480 C482 1.415 . S
C481 C480 1.355 . S
C481 C483 1.419 . S
C482 C480 1.415 . S
C482 C487 1.425 . S
C482 C489 1.409 . S
C483 H475 0.930 . S
C483 C481 1.419 . S
C483 C484 1.362 . S
C484 H476 0.930 . S
C484 C483 1.362 . S
C484 C487 1.409 . S
C485 H477 0.930 . S
C485 C486 1.355 . S
C485 C487 1.415 . S
C486 C485 1.355 . S
C486 C488 1.419 . S
C487 C482 1.425 . S
C487 C484 1.409 . S
C487 C485 1.415 . S
C488 H478 0.930 . S
C488 C486 1.419 . S
C488 C489 1.362 . S
C489 H479 0.930 . S
C489 C482 1.409 . S
C489 C488 1.362 . S
H490 C496 0.930 . S
H491 C499 0.930 . S
H492 C500 0.930 . S
H493 C501 0.930 . S
H494 C504 0.930 . S
H495 C505 0.930 . S
C496 H490 0.930 . S
C496 C497 1.355 . S
C496 C498 1.415 . S
C497 C496 1.355 . S
C497 C499 1.419 . S
C498 C496 1.415 . S
C498 C503 1.425 . S
C498 C505 1.409 . S
C499 H491 0.930 . S
C499 C497 1.419 . S
C499 C500 1.362 . S
C500 H492 0.930 . S
C500 C499 1.362 . S
C500 C503 1.409 . S
C501 H493 0.930 . S
C501 C502 1.355 . S
C501 C503 1.415 . S
C502 C501 1.355 . S
C502 C504 1.419 . S
C503 C498 1.425 . S
C503 C500 1.409 . S
C503 C501 1.415 . S
C504 H494 0.930 . S
C504 C502 1.419 . S
C504 C505 1.362 . S
C505 H495 0.930 . S
C505 C498 1.409 . S
C505 C504 1.362 . S
H506 C512 0.930 . S
H507 C515 0.930 . S
H508 C516 0.930 . S
H509 C517 0.930 . S
H510 C520 0.930 . S
H511 C521 0.930 . S
C512 H506 0.930 . S
C512 C513 1.355 . S
C512 C514 1.415 . S
C513 C512 1.355 . S
C513 C515 1.419 . S
C514 C512 1.415 . S
C514 C519 1.425 . S
C514 C521 1.409 . S
C515 H507 0.930 . S
C515 C513 1.419 . S
C515 C516 1.362 . S
C516 H508 0.930 . S
C516 C515 1.362 . S
C516 C519 1.409 . S
C517 H509 0.930 . S
C517 C518 1.355 . S
C517 C519 1.415 . S
C518 C517 1.355 . S
C518 C520 1.419 . S
C519 C514 1.425 . S
C519 C516 1.409 . S
C519 C517 1.415 . S
C520 H510 0.930 . S
C520 C518 1.419 . S
C520 C521 1.362 . S
C521 H511 0.930 . S
C521 C514 1.409 . S
C521 C520 1.362 . S
H522 C528 0.930 . S
H523 C531 0.930 . S
H524 C532 0.930 . S
H525 C533 0.930 . S
H526 C536 0.930 . S
H527 C537 0.930 . S
C528 H522 0.930 . S
C528 C529 1.355 . S
C528 C530 1.415 . S
C529 C528 1.355 . S
C529 C531 1.419 . S
C530 C528 1.415 . S
C530 C535 1.425 . S
C530 C537 1.409 . S
C531 H523 0.930 . S
C531 C529 1.419 . S
C531 C532 1.362 . S
C532 H524 0.930 . S
C532 C531 1.362 . S
C532 C535 1.409 . S
C533 H525 0.930 . S
C533 C534 1.355 . S
C533 C535 1.415 . S
C534 C533 1.355 . S
C534 C536 1.419 . S
C535 C530 1.425 . S
C535 C532 1.409 . S
C535 C533 1.415 . S
C536 H526 0.930 . S
C536 C534 1.419 . S
C536 C537 1.362 . S
C537 H527 0.930 . S
C537 C530 1.409 . S
C537 C536 1.362 . S
H538 C544 0.930 . S
H539 C547 0.930 . S
H540 C548 0.930 . S
H541 C549 0.930 . S
H542 C552 0.930 . S
H543 C553 0.930 . S
C544 H538 0.930 . S
C544 C545 1.355 . S
C544 C546 1.415 . S
C545 C544 1.355 . S
C545 C547 1.419 . S
C546 C544 1.415 . S
C546 C551 1.425 . S
C546 C553 1.409 . S
C547 H539 0.930 . S
C547 C545 1.419 . S
C547 C548 1.362 . S
C548 H540 0.930 . S
C548 C547 1.362 . S
C548 C551 1.409 . S
C549 H541 0.930 . S
C549 C550 1.355 . S
C549 C551 1.415 . S
C550 C549 1.355 . S
C550 C552 1.419 . S
C551 C546 1.425 . S
C551 C548 1.409 . S
C551 C549 1.415 . S
C552 H542 0.930 . S
C552 C550 1.419 . S
C552 C553 1.362 . S
C553 H543 0.930 . S
C553 C546 1.409 . S
C553 C552 1.362 . S
H554 C560 0.930 . S
H555 C563 0.930 . S
H556 C564 0.930 . S
H557 C565 0.930 . S
H558 C568 0.930 . S
H559 C569 0.930 . S
C560 H554 0.930 . S
C560 C561 1.355 . S
C560 C562 1.415 . S
C561 C560 1.355 . S
C561 C563 1.419 . S
C562 C560 1.415 . S
C562 C567 1.425 . S
C562 C569 1.409 . S
C563 H555 0.930 . S
C563 C561 1.419 . S
C563 C564 1.362 . S
C564 H556 0.930 . S
C564 C563 1.362 . S
C564 C567 1.409 . S
C565 H557 0.930 . S
C565 C566 1.355 . S
C565 C567 1.415 . S
C566 C565 1.355 . S
C566 C568 1.419 . S
C567 C562 1.425 . S
C567 C564 1.409 . S
C567 C565 1.415 . S
C568 H558 0.930 . S
C568 C566 1.419 . S
C568 C569 1.362 . S
C569 H559 0.930 . S
C569 C562 1.409 . S
C569 C568 1.362 . S
H570 C576 0.930 . S
H571 C579 0.930 . S
H572 C580 0.930 . S
H573 C581 0.930 . S
H574 C584 0.930 . S
H575 C585 0.930 . S
C576 H570 0.930 . S
C576 C577 1.355 . S
C576 C578 1.415 . S
C577 C576 1.355 . S
C577 C579 1.419 . S
C578 C576 1.415 . S
C578 C583 1.425 . S
C578 C585 1.409 . S
C579 H571 0.930 . S
C579 C577 1.419 . S
C579 C580 1.362 . S
C580 H572 0.930 . S
C580 C579 1.362 . S
C580 C583 1.409 . S
C581 H573 0.930 . S
C581 C582 1.355 . S
C581 C583 1.415 . S
C582 C581 1.355 . S
C582 C584 1.419 . S
C583 C578 1.425 . S
C583 C580 1.409 . S
C583 C581 1.415 . S
C584 H574 0.930 . S
C584 C582 1.419 . S
C584 C585 1.362 . S
C585 H575 0.930 . S
C585 C578 1.409 . S
C585 C584 1.362 . S
H586 C592 0.930 . S
H587 C595 0.930 . S
H588 C596 0.930 . S
H589 C597 0.930 . S
H590 C600 0.930 . S
H591 C601 0.930 . S
C592 H586 0.930 . S
C592 C593 1.355 . S
C592 C594 1.415 . S
C593 C592 1.355 . S
C593 C595 1.419 . S
C594 C592 1.415 . S
C594 C599 1.425 . S
C594 C601 1.409 . S
C595 H587 0.930 . S
C595 C593 1.419 . S
C595 C596 1.362 . S
C596 H588 0.930 . S
C596 C595 1.362 . S
C596 C599 1.409 . S
C597 H589 0.930 . S
C597 C598 1.355 . S
C597 C599 1.415 . S
C598 C597 1.355 . S
C598 C600 1.419 . S
C599 C594 1.425 . S
C599 C596 1.409 . S
C599 C597 1.415 . S
C600 H590 0.930 . S
C600 C598 1.419 . S
C600 C601 1.362 . S
C601 H591 0.930 . S
C601 C594 1.409 . S
C601 C600 1.362 . S
H602 C608 0.930 . S
H603 C611 0.930 . S
H604 C612 0.930 . S
H605 C613 0.930 . S
H606 C616 0.930 . S
H607 C617 0.930 . S
C608 H602 0.930 . S
C608 C609 1.355 . S
C608 C610 1.415 . S
C609 C608 1.355 . S
C609 C611 1.419 . S
C610 C608 1.415 . S
C610 C615 1.425 . S
C610 C617 1.409 . S
C611 H603 0.930 . S
C611 C609 1.419 . S
C611 C612 1.362 . S
C612 H604 0.930 . S
C612 C611 1.362 . S
C612 C615 1.409 . S
C613 H605 0.930 . S
C613 C614 1.355 . S
C613 C615 1.415 . S
C614 C613 1.355 . S
C614 C616 1.419 . S
C615 C610 1.425 . S
C615 C612 1.409 . S
C615 C613 1.415 . S
C616 H606 0.930 . S
C616 C614 1.419 . S
C616 C617 1.362 . S
C617 H607 0.930 . S
C617 C610 1.409 . S
C617 C616 1.362 . S
H618 C624 0.930 . S
H619 C627 0.930 . S
H620 C628 0.930 . S
H621 C629 0.930 . S
H622 C632 0.930 . S
H623 C633 0.930 . S
C624 H618 0.930 . S
C624 C625 1.355 . S
C624 C626 1.415 . S
C625 C624 1.355 . S
C625 C627 1.419 . S
C626 C624 1.415 . S
C626 C631 1.425 . S
C626 C633 1.409 . S
C627 H619 0.930 . S
C627 C625 1.419 . S
C627 C628 1.362 . S
C628 H620 0.930 . S
C628 C627 1.362 . S
C628 C631 1.409 . S
C629 H621 0.930 . S
C629 C630 1.355 . S
C629 C631 1.415 . S
C630 C629 1.355 . S
C630 C632 1.419 . S
C631 C626 1.425 . S
C631 C628 1.409 . S
C631 C629 1.415 . S
C632 H622 0.930 . S
C632 C630 1.419 . S
C632 C633 1.362 . S
C633 H623 0.930 . S
C633 C626 1.409 . S
C633 C632 1.362 . S
H634 C640 0.930 . S
H635 C643 0.930 . S
H636 C644 0.930 . S
H637 C645 0.930 . S
H638 C648 0.930 . S
H639 C649 0.930 . S
C640 H634 0.930 . S
C640 C641 1.355 . S
C640 C642 1.415 . S
C641 C640 1.355 . S
C641 C643 1.419 . S
C642 C640 1.415 . S
C642 C647 1.425 . S
C642 C649 1.409 . S
C643 H635 0.930 . S
C643 C641 1.419 . S
C643 C644 1.362 . S
C644 H636 0.930 . S
C644 C643 1.362 . S
C644 C647 1.409 . S
C645 H637 0.930 . S
C645 C646 1.355 . S
C645 C647 1.415 . S
C646 C645 1.355 . S
C646 C648 1.419 . S
C647 C642 1.425 . S
C647 C644 1.409 . S
C647 C645 1.415 . S
C648 H638 0.930 . S
C648 C646 1.419 . S
C648 C649 1.362 . S
C649 H639 0.930 . S
C649 C642 1.409 . S
C649 C648 1.362 . S
H650 C656 0.930 . S
H651 C659 0.930 . S
H652 C660 0.930 . S
H653 C661 0.930 . S
H654 C664 0.930 . S
H655 C665 0.930 . S
C656 H650 0.930 . S
C656 C657 1.355 . S
C656 C658 1.415 . S
C657 C656 1.355 . S
C657 C659 1.419 . S
C658 C656 1.415 . S
C658 C663 1.425 . S
C658 C665 1.409 . S
C659 H651 0.930 . S
C659 C657 1.419 . S
C659 C660 1.362 . S
C660 H652 0.930 . S
C660 C659 1.362 . S
C660 C663 1.409 . S
C661 H653 0.930 . S
C661 C662 1.355 . S
C661 C663 1.415 . S
C662 C661 1.355 . S
C662 C664 1.419 . S
C663 C658 1.425 . S
C663 C660 1.409 . S
C663 C661 1.415 . S
C664 H654 0.930 . S
C664 C662 1.419 . S
C664 C665 1.362 . S
C665 H655 0.930 . S
C665 C658 1.409 . S
C665 C664 1.362 . S
H666 C672 0.930 . S
H667 C675 0.930 . S
H668 C676 0.930 . S
H669 C677 0.930 . S
H670 C680 0.930 . S
H671 C681 0.930 . S
C672 H666 0.930 . S
C672 C673 1.355 . S
C672 C674 1.415 . S
C673 C672 1.355 . S
C673 C675 1.419 . S
C674 C672 1.415 . S
C674 C679 1.425 . S
C674 C681 1.409 . S
C675 H667 0.930 . S
C675 C673 1.419 . S
C675 C676 1.362 . S
C676 H668 0.930 . S
C676 C675 1.362 . S
C676 C679 1.409 . S
C677 H669 0.930 . S
C677 C678 1.355 . S
C677 C679 1.415 . S
C678 C677 1.355 . S
C678 C680 1.419 . S
C679 C674 1.425 . S
C679 C676 1.409 . S
C679 C677 1.415 . S
C680 H670 0.930 . S
C680 C678 1.419 . S
C680 C681 1.362 . S
C681 H671 0.930 . S
C681 C674 1.409 . S
C681 C680 1.362 . S
H682 C688 0.930 . S
H683 C691 0.930 . S
H684 C692 0.930 . S
H685 C693 0.930 . S
H686 C696 0.930 . S
H687 C697 0.930 . S
C688 H682 0.930 . S
C688 C689 1.355 . S
C688 C690 1.415 . S
C689 C688 1.355 . S
C689 C691 1.419 . S
C690 C688 1.415 . S
C690 C695 1.425 . S
C690 C697 1.409 . S
C691 H683 0.930 . S
C691 C689 1.419 . S
C691 C692 1.362 . S
C692 H684 0.930 . S
C692 C691 1.362 . S
C692 C695 1.409 . S
C693 H685 0.930 . S
C693 C694 1.355 . S
C693 C695 1.415 . S
C694 C693 1.355 . S
C694 C696 1.419 . S
C695 C690 1.425 . S
C695 C692 1.409 . S
C695 C693 1.415 . S
C696 H686 0.930 . S
C696 C694 1.419 . S
C696 C697 1.362 . S
C697 H687 0.930 . S
C697 C690 1.409 . S
C697 C696 1.362 . S
H698 C704 0.930 . S
H699 C707 0.930 . S
H700 C708 0.930 . S
H701 C709 0.930 . S
H702 C712 0.930 . S
H703 C713 0.930 . S
C704 H698 0.930 . S
C704 C705 1.355 . S
C704 C706 1.415 . S
C705 C704 1.355 . S
C705 C707 1.419 . S
C706 C704 1.415 . S
C706 C711 1.425 . S
C706 C713 1.409 . S
C707 H699 0.930 . S
C707 C705 1.419 . S
C707 C708 1.362 . S
C708 H700 0.930 . S
C708 C707 1.362 . S
C708 C711 1.409 . S
C709 H701 0.930 . S
C709 C710 1.355 . S
C709 C711 1.415 . S
C710 C709 1.355 . S
C710 C712 1.419 . S
C711 C706 1.425 . S
C711 C708 1.409 . S
C711 C709 1.415 . S
C712 H702 0.930 . S
C712 C710 1.419 . S
C712 C713 1.362 . S
C713 H703 0.930 . S
C713 C706 1.409 . S
C713 C712 1.362 . S
H714 C720 0.930 . S
H715 C723 0.930 . S
H716 C724 0.930 . S
H717 C725 0.930 . S
H718 C728 0.930 . S
H719 C729 0.930 . S
C720 H714 0.930 . S
C720 C721 1.355 . S
C720 C722 1.415 . S
C721 C720 1.355 . S
C721 C723 1.419 . S
C722 C720 1.415 . S
C722 C727 1.425 . S
C722 C729 1.409 . S
C723 H715 0.930 . S
C723 C721 1.419 . S
C723 C724 1.362 . S
C724 H716 0.930 . S
C724 C723 1.362 . S
C724 C727 1.409 . S
C725 H717 0.930 . S
C725 C726 1.355 . S
C725 C727 1.415 . S
C726 C725 1.355 . S
C726 C728 1.419 . S
C727 C722 1.425 . S
C727 C724 1.409 . S
C727 C725 1.415 . S
C728 H718 0.930 . S
C728 C726 1.419 . S
C728 C729 1.362 . S
C729 H719 0.930 . S
C729 C722 1.409 . S
C729 C728 1.362 . S
H730 C736 0.930 . S
H731 C739 0.930 . S
H732 C740 0.930 . S
H733 C741 0.930 . S
H734 C744 0.930 . S
H735 C745 0.930 . S
C736 H730 0.930 . S
C736 C737 1.355 . S
C736 C738 1.415 . S
C737 C736 1.355 . S
C737 C739 1.419 . S
C738 C736 1.415 . S
C738 C743 1.425 . S
C738 C745 1.409 . S
C739 H731 0.930 . S
C739 C737 1.419 . S
C739 C740 1.362 . S
C740 H732 0.930 . S
C740 C739 1.362 . S
C740 C743 1.409 . S
C741 H733 0.930 . S
C741 C742 1.355 . S
C741 C743 1.415 . S
C742 C741 1.355 . S
C742 C744 1.419 . S
C743 C738 1.425 . S
C743 C740 1.409 . S
C743 C741 1.415 . S
C744 H734 0.930 . S
C744 C742 1.419 . S
C744 C745 1.362 . S
C745 H735 0.930 . S
C745 C738 1.409 . S
C745 C744 1.362 . S
H746 C752 0.930 . S
H747 C755 0.930 . S
H748 C756 0.930 . S
H749 C757 0.930 . S
H750 C760 0.930 . S
H751 C761 0.930 . S
C752 H746 0.930 . S
C752 C753 1.355 . S
C752 C754 1.415 . S
C753 C752 1.355 . S
C753 C755 1.419 . S
C754 C752 1.415 . S
C754 C759 1.425 . S
C754 C761 1.409 . S
C755 H747 0.930 . S
C755 C753 1.419 . S
C755 C756 1.362 . S
C756 H748 0.930 . S
C756 C755 1.362 . S
C756 C759 1.409 . S
C757 H749 0.930 . S
C757 C758 1.355 . S
C757 C759 1.415 . S
C758 C757 1.355 . S
C758 C760 1.419 . S
C759 C754 1.425 . S
C759 C756 1.409 . S
C759 C757 1.415 . S
C760 H750 0.930 . S
C760 C758 1.419 . S
C760 C761 1.362 . S
C761 H751 0.930 . S
C761 C754 1.409 . S
C761 C760 1.362 . S
H762 C768 0.930 . S
H763 C771 0.930 . S
H764 C772 0.930 . S
H765 C773 0.930 . S
H766 C776 0.930 . S
H767 C777 0.930 . S
C768 H762 0.930 . S
C768 C769 1.355 . S
C768 C770 1.415 . S
C769 C768 1.355 . S
C769 C771 1.419 . S
C770 C768 1.415 . S
C770 C775 1.425 . S
C770 C777 1.409 . S
C771 H763 0.930 . S
C771 C769 1.419 . S
C771 C772 1.362 . S
C772 H764 0.930 . S
C772 C771 1.362 . S
C772 C775 1.409 . S
C773 H765 0.930 . S
C773 C774 1.355 . S
C773 C775 1.415 . S
C774 C773 1.355 . S
C774 C776 1.419 . S
C775 C770 1.425 . S
C775 C772 1.409 . S
C775 C773 1.415 . S
C776 H766 0.930 . S
C776 C774 1.419 . S
C776 C777 1.362 . S
C777 H767 0.930 . S
C777 C770 1.409 . S
C777 C776 1.362 . S
H778 C784 0.930 . S
H779 C787 0.930 . S
H780 C788 0.930 . S
H781 C789 0.930 . S
H782 C792 0.930 . S
H783 C793 0.930 . S
C784 H778 0.930 . S
C784 C785 1.355 . S
C784 C786 1.415 . S
C785 C784 1.355 . S
C785 C787 1.419 . S
C786 C784 1.415 . S
C786 C791 1.425 . S
C786 C793 1.409 . S
C787 H779 0.930 . S
C787 C785 1.419 . S
C787 C788 1.362 . S
C788 H780 0.930 . S
C788 C787 1.362 . S
C788 C791 1.409 . S
C789 H781 0.930 . S
C789 C790 1.355 . S
C789 C791 1.415 . S
C790 C789 1.355 . S
C790 C792 1.419 . S
C791 C786 1.425 . S
C791 C788 1.409 . S
C791 C789 1.415 . S
C792 H782 0.930 . S
C792 C790 1.419 . S
C792 C793 1.362 . S
C793 H783 0.930 . S
C793 C786 1.409 . S
C793 C792 1.362 . S
H794 C800 0.930 . S
H795 C803 0.930 . S
H796 C804 0.930 . S
H797 C805 0.930 . S
H798 C808 0.930 . S
H799 C809 0.930 . S
C800 H794 0.930 . S
C800 C801 1.355 . S
C800 C802 1.415 . S
C801 C800 1.355 . S
C801 C803 1.419 . S
C802 C800 1.415 . S
C802 C807 1.425 . S
C802 C809 1.409 . S
C803 H795 0.930 . S
C803 C801 1.419 . S
C803 C804 1.362 . S
C804 H796 0.930 . S
C804 C803 1.362 . S
C804 C807 1.409 . S
C805 H797 0.930 . S
C805 C806 1.355 . S
C805 C807 1.415 . S
C806 C805 1.355 . S
C806 C808 1.419 . S
C807 C802 1.425 . S
C807 C804 1.409 . S
C807 C805 1.415 . S
C808 H798 0.930 . S
C808 C806 1.419 . S
C808 C809 1.362 . S
C809 H799 0.930 . S
C809 C802 1.409 . S
C809 C808 1.362 . S
H810 C816 0.930 . S
H811 C819 0.930 . S
H812 C820 0.930 . S
H813 C821 0.930 . S
H814 C824 0.930 . S
H815 C825 0.930 . S
C816 H810 0.930 . S
C816 C817 1.355 . S
C816 C818 1.415 . S
C817 C816 1.355 . S
C817 C819 1.419 . S
C818 C816 1.415 . S
C818 C823 1.425 . S
C818 C825 1.409 . S
C819 H811 0.930 . S
C819 C817 1.419 . S
C819 C820 1.362 . S
C820 H812 0.930 . S
C820 C819 1.362 . S
C820 C823 1.409 . S
C821 H813 0.930 . S
C821 C822 1.355 . S
C821 C823 1.415 . S
C822 C821 1.355 . S
C822 C824 1.419 . S
C823 C818 1.425 . S
C823 C820 1.409 . S
C823 C821 1.415 . S
C824 H814 0.930 . S
C824 C822 1.419 . S
C824 C825 1.362 . S
C825 H815 0.930 . S
C825 C818 1.409 . S
C825 C824 1.362 . S
H826 C832 0.930 . S
H827 C835 0.930 . S
H828 C836 0.930 . S
H829 C837 0.930 . S
H830 C840 0.930 1_565 S
H831 C841 0.930 . S
C832 H826 0.930 . S
C832 C833 1.355 . S
C832 C834 1.415 . S
C833 C832 1.355 . S
C833 C835 1.419 . S
C834 C832 1.415 . S
C834 C839 1.425 . S
C834 C841 1.409 . S
C835 H827 0.930 . S
C835 C833 1.419 . S
C835 C836 1.362 . S
C836 H828 0.930 . S
C836 C835 1.362 . S
C836 C839 1.409 . S
C837 H829 0.930 . S
C837 C838 1.355 . S
C837 C839 1.415 . S
C838 C837 1.355 . S
C838 C840 1.419 . S
C839 C834 1.425 . S
C839 C836 1.409 . S
C839 C837 1.415 . S
C840 H830 0.930 1_545 S
C840 C838 1.419 . S
C840 C841 1.362 . S
C841 H831 0.930 . S
C841 C834 1.409 . S
C841 C840 1.362 . S
H842 C848 0.930 . S
H843 C851 0.930 . S
H844 C852 0.930 . S
H845 C853 0.930 . S
H846 C856 0.930 . S
H847 C857 0.930 . S
C848 H842 0.930 . S
C848 C849 1.355 . S
C848 C850 1.415 . S
C849 C848 1.355 . S
C849 C851 1.419 . S
C850 C848 1.415 . S
C850 C855 1.425 . S
C850 C857 1.409 . S
C851 H843 0.930 . S
C851 C849 1.419 . S
C851 C852 1.362 . S
C852 H844 0.930 . S
C852 C851 1.362 . S
C852 C855 1.409 . S
C853 H845 0.930 . S
C853 C854 1.355 . S
C853 C855 1.415 . S
C854 C853 1.355 . S
C854 C856 1.419 . S
C855 C850 1.425 . S
C855 C852 1.409 . S
C855 C853 1.415 . S
C856 H846 0.930 . S
C856 C854 1.419 . S
C856 C857 1.362 . S
C857 H847 0.930 . S
C857 C850 1.409 . S
C857 C856 1.362 . S
H858 C864 0.930 . S
H859 C867 0.930 . S
H860 C868 0.930 . S
H861 C869 0.930 . S
H862 C872 0.930 . S
H863 C873 0.930 . S
C864 H858 0.930 . S
C864 C865 1.355 . S
C864 C866 1.415 . S
C865 C864 1.355 . S
C865 C867 1.419 . S
C866 C864 1.415 . S
C866 C871 1.425 . S
C866 C873 1.409 . S
C867 H859 0.930 . S
C867 C865 1.419 . S
C867 C868 1.362 . S
C868 H860 0.930 . S
C868 C867 1.362 . S
C868 C871 1.409 . S
C869 H861 0.930 . S
C869 C870 1.355 . S
C869 C871 1.415 . S
C870 C869 1.355 . S
C870 C872 1.419 . S
C871 C866 1.425 . S
C871 C868 1.409 . S
C871 C869 1.415 . S
C872 H862 0.930 . S
C872 C870 1.419 . S
C872 C873 1.362 . S
C873 H863 0.930 . S
C873 C866 1.409 . S
C873 C872 1.362 . S
H874 C880 0.930 . S
H875 C883 0.930 . S
H876 C884 0.930 . S
H877 C885 0.930 . S
H878 C888 0.930 . S
H879 C889 0.930 . S
C880 H874 0.930 . S
C880 C881 1.355 . S
C880 C882 1.415 . S
C881 C880 1.355 . S
C881 C883 1.419 . S
C882 C880 1.415 . S
C882 C887 1.425 . S
C882 C889 1.409 . S
C883 H875 0.930 . S
C883 C881 1.419 . S
C883 C884 1.362 . S
C884 H876 0.930 . S
C884 C883 1.362 . S
C884 C887 1.409 . S
C885 H877 0.930 . S
C885 C886 1.355 . S
C885 C887 1.415 . S
C886 C885 1.355 . S
C886 C888 1.419 . S
C887 C882 1.425 . S
C887 C884 1.409 . S
C887 C885 1.415 . S
C888 H878 0.930 . S
C888 C886 1.419 . S
C888 C889 1.362 . S
C889 H879 0.930 . S
C889 C882 1.409 . S
C889 C888 1.362 . S
H890 C896 0.930 . S
H891 C899 0.930 . S
H892 C900 0.930 . S
H893 C901 0.930 . S
H894 C904 0.930 . S
H895 C905 0.930 . S
C896 H890 0.930 . S
C896 C897 1.355 . S
C896 C898 1.415 . S
C897 C896 1.355 . S
C897 C899 1.419 . S
C898 C896 1.415 . S
C898 C903 1.425 . S
C898 C905 1.409 . S
C899 H891 0.930 . S
C899 C897 1.419 . S
C899 C900 1.362 . S
C900 H892 0.930 . S
C900 C899 1.362 . S
C900 C903 1.409 . S
C901 H893 0.930 . S
C901 C902 1.355 . S
C901 C903 1.415 . S
C902 C901 1.355 . S
C902 C904 1.419 . S
C903 C898 1.425 . S
C903 C900 1.409 . S
C903 C901 1.415 . S
C904 H894 0.930 . S
C904 C902 1.419 . S
C904 C905 1.362 . S
C905 H895 0.930 . S
C905 C898 1.409 . S
C905 C904 1.362 . S
H906 C912 0.930 . S
H907 C915 0.930 . S
H908 C916 0.930 . S
H909 C917 0.930 . S
H910 C920 0.930 . S
H911 C921 0.930 . S
C912 H906 0.930 . S
C912 C913 1.355 . S
C912 C914 1.415 . S
C913 C912 1.355 . S
C913 C915 1.419 . S
C914 C912 1.415 . S
C914 C919 1.425 . S
C914 C921 1.409 . S
C915 H907 0.930 . S
C915 C913 1.419 . S
C915 C916 1.362 . S
C916 H908 0.930 . S
C916 C915 1.362 . S
C916 C919 1.409 . S
C917 H909 0.930 . S
C917 C918 1.355 . S
C917 C919 1.415 . S
C918 C917 1.355 . S
C918 C920 1.419 . S
C919 C914 1.425 . S
C919 C916 1.409 . S
C919 C917 1.415 . S
C920 H910 0.930 . S
C920 C918 1.419 . S
C920 C921 1.362 . S
C921 H911 0.930 . S
C921 C914 1.409 . S
C921 C920 1.362 . S
H922 C928 0.930 . S
H923 C931 0.930 . S
H924 C932 0.930 . S
H925 C933 0.930 . S
H926 C936 0.930 . S
H927 C937 0.930 . S
C928 H922 0.930 . S
C928 C929 1.355 . S
C928 C930 1.415 . S
C929 C928 1.355 . S
C929 C931 1.419 . S
C930 C928 1.415 . S
C930 C935 1.425 . S
C930 C937 1.409 . S
C931 H923 0.930 . S
C931 C929 1.419 . S
C931 C932 1.362 . S
C932 H924 0.930 . S
C932 C931 1.362 . S
C932 C935 1.409 . S
C933 H925 0.930 . S
C933 C934 1.355 . S
C933 C935 1.415 . S
C934 C933 1.355 . S
C934 C936 1.419 . S
C935 C930 1.425 . S
C935 C932 1.409 . S
C935 C933 1.415 . S
C936 H926 0.930 . S
C936 C934 1.419 . S
C936 C937 1.362 . S
C937 H927 0.930 . S
C937 C930 1.409 . S
C937 C936 1.362 . S
H938 C944 0.930 . S
H939 C947 0.930 . S
H940 C948 0.930 . S
H941 C949 0.930 . S
H942 C952 0.930 . S
H943 C953 0.930 . S
C944 H938 0.930 . S
C944 C945 1.355 . S
C944 C946 1.415 . S
C945 C944 1.355 . S
C945 C947 1.419 . S
C946 C944 1.415 . S
C946 C951 1.425 . S
C946 C953 1.409 . S
C947 H939 0.930 . S
C947 C945 1.419 . S
C947 C948 1.362 . S
C948 H940 0.930 . S
C948 C947 1.362 . S
C948 C951 1.409 . S
C949 H941 0.930 . S
C949 C950 1.355 . S
C949 C951 1.415 . S
C950 C949 1.355 . S
C950 C952 1.419 . S
C951 C946 1.425 . S
C951 C948 1.409 . S
C951 C949 1.415 . S
C952 H942 0.930 . S
C952 C950 1.419 . S
C952 C953 1.362 . S
C953 H943 0.930 . S
C953 C946 1.409 . S
C953 C952 1.362 . S
H954 C960 0.930 . S
H955 C963 0.930 . S
H956 C964 0.930 . S
H957 C965 0.930 . S
H958 C968 0.930 . S
H959 C969 0.930 . S
C960 H954 0.930 . S
C960 C961 1.355 . S
C960 C962 1.415 . S
C961 C960 1.355 . S
C961 C963 1.419 . S
C962 C960 1.415 . S
C962 C967 1.425 . S
C962 C969 1.409 . S
C963 H955 0.930 . S
C963 C961 1.419 . S
C963 C964 1.362 . S
C964 H956 0.930 . S
C964 C963 1.362 . S
C964 C967 1.409 . S
C965 H957 0.930 . S
C965 C966 1.355 . S
C965 C967 1.415 . S
C966 C965 1.355 . S
C966 C968 1.419 . S
C967 C962 1.425 . S
C967 C964 1.409 . S
C967 C965 1.415 . S
C968 H958 0.930 . S
C968 C966 1.419 . S
C968 C969 1.362 . S
C969 H959 0.930 . S
C969 C962 1.409 . S
C969 C968 1.362 . S
H970 C976 0.930 . S
H971 C979 0.930 . S
H972 C980 0.930 . S
H973 C981 0.930 . S
H974 C984 0.930 . S
H975 C985 0.930 . S
C976 H970 0.930 . S
C976 C977 1.355 . S
C976 C978 1.415 . S
C977 C976 1.355 . S
C977 C979 1.419 . S
C978 C976 1.415 . S
C978 C983 1.425 . S
C978 C985 1.409 . S
C979 H971 0.930 . S
C979 C977 1.419 . S
C979 C980 1.362 . S
C980 H972 0.930 . S
C980 C979 1.362 . S
C980 C983 1.409 . S
C981 H973 0.930 . S
C981 C982 1.355 . S
C981 C983 1.415 . S
C982 C981 1.355 . S
C982 C984 1.419 . S
C983 C978 1.425 . S
C983 C980 1.409 . S
C983 C981 1.415 . S
C984 H974 0.930 . S
C984 C982 1.419 . S
C984 C985 1.362 . S
C985 H975 0.930 . S
C985 C978 1.409 . S
C985 C984 1.362 . S
H986 C992 0.930 . S
H987 C995 0.930 . S
H988 C996 0.930 . S
H989 C997 0.930 . S
H990 C1000 0.930 . S
H991 C1001 0.930 . S
C992 H986 0.930 . S
C992 C993 1.355 . S
C992 C994 1.415 . S
C993 C992 1.355 . S
C993 C995 1.419 . S
C994 C992 1.415 . S
C994 C999 1.425 . S
C994 C1001 1.409 . S
C995 H987 0.930 . S
C995 C993 1.419 . S
C995 C996 1.362 . S
C996 H988 0.930 . S
C996 C995 1.362 . S
C996 C999 1.409 . S
C997 H989 0.930 . S
C997 C998 1.355 . S
C997 C999 1.415 . S
C998 C997 1.355 . S
C998 C1000 1.419 . S
C999 C994 1.425 . S
C999 C996 1.409 . S
C999 C997 1.415 . S
C1000 H990 0.930 . S
C1000 C998 1.419 . S
C1000 C1001 1.362 . S
C1001 H991 0.930 . S
C1001 C994 1.409 . S
C1001 C1000 1.362 . S
H1002 C1008 0.930 . S
H1003 C1011 0.930 . S
H1004 C1012 0.930 . S
H1005 C1013 0.930 . S
H1006 C1016 0.930 . S
H1007 C1017 0.930 . S
C1008 H1002 0.930 . S
C1008 C1009 1.355 . S
C1008 C1010 1.415 . S
C1009 C1008 1.355 . S
C1009 C1011 1.419 . S
C1010 C1008 1.415 . S
C1010 C1015 1.425 . S
C1010 C1017 1.409 . S
C1011 H1003 0.930 . S
C1011 C1009 1.419 . S
C1011 C1012 1.362 . S
C1012 H1004 0.930 . S
C1012 C1011 1.362 . S
C1012 C1015 1.409 . S
C1013 H1005 0.930 . S
C1013 C1014 1.355 . S
C1013 C1015 1.415 . S
C1014 C1013 1.355 . S
C1014 C1016 1.419 . S
C1015 C1010 1.425 . S
C1015 C1012 1.409 . S
C1015 C1013 1.415 . S
C1016 H1006 0.930 . S
C1016 C1014 1.419 . S
C1016 C1017 1.362 . S
C1017 H1007 0.930 . S
C1017 C1010 1.409 . S
C1017 C1016 1.362 . S
H1018 C1024 0.930 . S
H1019 C1027 0.930 . S
H1020 C1028 0.930 . S
H1021 C1029 0.930 . S
H1022 C1032 0.930 . S
H1023 C1033 0.930 . S
C1024 H1018 0.930 . S
C1024 C1025 1.355 . S
C1024 C1026 1.415 . S
C1025 C1024 1.355 . S
C1025 C1027 1.419 . S
C1026 C1024 1.415 . S
C1026 C1031 1.425 . S
C1026 C1033 1.409 . S
C1027 H1019 0.930 . S
C1027 C1025 1.419 . S
C1027 C1028 1.362 . S
C1028 H1020 0.930 . S
C1028 C1027 1.362 . S
C1028 C1031 1.409 . S
C1029 H1021 0.930 . S
C1029 C1030 1.355 . S
C1029 C1031 1.415 . S
C1030 C1029 1.355 . S
C1030 C1032 1.419 . S
C1031 C1026 1.425 . S
C1031 C1028 1.409 . S
C1031 C1029 1.415 . S
C1032 H1022 0.930 . S
C1032 C1030 1.419 . S
C1032 C1033 1.362 . S
C1033 H1023 0.930 . S
C1033 C1026 1.409 . S
C1033 C1032 1.362 . S
H1034 C1040 0.930 . S
H1035 C1043 0.930 . S
H1036 C1044 0.930 . S
H1037 C1045 0.930 . S
H1038 C1048 0.930 . S
H1039 C1049 0.930 . S
C1040 H1034 0.930 . S
C1040 C1041 1.355 . S
C1040 C1042 1.415 . S
C1041 C1040 1.355 . S
C1041 C1043 1.419 . S
C1042 C1040 1.415 . S
C1042 C1047 1.425 . S
C1042 C1049 1.409 . S
C1043 H1035 0.930 . S
C1043 C1041 1.419 . S
C1043 C1044 1.362 . S
C1044 H1036 0.930 . S
C1044 C1043 1.362 . S
C1044 C1047 1.409 . S
C1045 H1037 0.930 . S
C1045 C1046 1.355 . S
C1045 C1047 1.415 . S
C1046 C1045 1.355 . S
C1046 C1048 1.419 . S
C1047 C1042 1.425 . S
C1047 C1044 1.409 . S
C1047 C1045 1.415 . S
C1048 H1038 0.930 . S
C1048 C1046 1.419 . S
C1048 C1049 1.362 . S
C1049 H1039 0.930 . S
C1049 C1042 1.409 . S
C1049 C1048 1.362 . S
H1050 C1056 0.930 . S
H1051 C1059 0.930 . S
H1052 C1060 0.930 . S
H1053 C1061 0.930 . S
H1054 C1064 0.930 . S
H1055 C1065 0.930 . S
C1056 H1050 0.930 . S
C1056 C1057 1.355 . S
C1056 C1058 1.415 . S
C1057 C1056 1.355 . S
C1057 C1059 1.419 . S
C1058 C1056 1.415 . S
C1058 C1063 1.425 . S
C1058 C1065 1.409 . S
C1059 H1051 0.930 . S
C1059 C1057 1.419 . S
C1059 C1060 1.362 . S
C1060 H1052 0.930 . S
C1060 C1059 1.362 . S
C1060 C1063 1.409 . S
C1061 H1053 0.930 . S
C1061 C1062 1.355 . S
C1061 C1063 1.415 . S
C1062 C1061 1.355 . S
C1062 C1064 1.419 . S
C1063 C1058 1.425 . S
C1063 C1060 1.409 . S
C1063 C1061 1.415 . S
C1064 H1054 0.930 . S
C1064 C1062 1.419 . S
C1064 C1065 1.362 . S
C1065 H1055 0.930 . S
C1065 C1058 1.409 . S
C1065 C1064 1.362 . S
H1066 C1072 0.930 . S
H1067 C1075 0.930 . S
H1068 C1076 0.930 . S
H1069 C1077 0.930 . S
H1070 C1080 0.930 . S
H1071 C1081 0.930 . S
C1072 H1066 0.930 . S
C1072 C1073 1.355 . S
C1072 C1074 1.415 . S
C1073 C1072 1.355 . S
C1073 C1075 1.419 . S
C1074 C1072 1.415 . S
C1074 C1079 1.425 . S
C1074 C1081 1.409 . S
C1075 H1067 0.930 . S
C1075 C1073 1.419 . S
C1075 C1076 1.362 . S
C1076 H1068 0.930 . S
C1076 C1075 1.362 . S
C1076 C1079 1.409 . S
C1077 H1069 0.930 . S
C1077 C1078 1.355 . S
C1077 C1079 1.415 . S
C1078 C1077 1.355 . S
C1078 C1080 1.419 . S
C1079 C1074 1.425 . S
C1079 C1076 1.409 . S
C1079 C1077 1.415 . S
C1080 H1070 0.930 . S
C1080 C1078 1.419 . S
C1080 C1081 1.362 . S
C1081 H1071 0.930 . S
C1081 C1074 1.409 . S
C1081 C1080 1.362 . S
H1082 C1088 0.930 . S
H1083 C1091 0.930 . S
H1084 C1092 0.930 . S
H1085 C1093 0.930 . S
H1086 C1096 0.930 . S
H1087 C1097 0.930 . S
C1088 H1082 0.930 . S
C1088 C1089 1.355 . S
C1088 C1090 1.415 . S
C1089 C1088 1.355 . S
C1089 C1091 1.419 . S
C1090 C1088 1.415 . S
C1090 C1095 1.425 . S
C1090 C1097 1.409 . S
C1091 H1083 0.930 . S
C1091 C1089 1.419 . S
C1091 C1092 1.362 . S
C1092 H1084 0.930 . S
C1092 C1091 1.362 . S
C1092 C1095 1.409 . S
C1093 H1085 0.930 . S
C1093 C1094 1.355 . S
C1093 C1095 1.415 . S
C1094 C1093 1.355 . S
C1094 C1096 1.419 . S
C1095 C1090 1.425 . S
C1095 C1092 1.409 . S
C1095 C1093 1.415 . S
C1096 H1086 0.930 . S
C1096 C1094 1.419 . S
C1096 C1097 1.362 . S
C1097 H1087 0.930 . S
C1097 C1090 1.409 . S
C1097 C1096 1.362 . S
H1098 C1104 0.930 . S
H1099 C1107 0.930 . S
H1100 C1108 0.930 . S
H1101 C1109 0.930 . S
H1102 C1112 0.930 . S
H1103 C1113 0.930 . S
C1104 H1098 0.930 . S
C1104 C1105 1.355 . S
C1104 C1106 1.415 . S
C1105 C1104 1.355 . S
C1105 C1107 1.419 . S
C1106 C1104 1.415 . S
C1106 C1111 1.425 . S
C1106 C1113 1.409 . S
C1107 H1099 0.930 . S
C1107 C1105 1.419 . S
C1107 C1108 1.362 . S
C1108 H1100 0.930 . S
C1108 C1107 1.362 . S
C1108 C1111 1.409 . S
C1109 H1101 0.930 . S
C1109 C1110 1.355 . S
C1109 C1111 1.415 . S
C1110 C1109 1.355 . S
C1110 C1112 1.419 . S
C1111 C1106 1.425 . S
C1111 C1108 1.409 . S
C1111 C1109 1.415 . S
C1112 H1102 0.930 . S
C1112 C1110 1.419 . S
C1112 C1113 1.362 . S
C1113 H1103 0.930 . S
C1113 C1106 1.409 . S
C1113 C1112 1.362 . S
H1114 C1120 0.930 . S
H1115 C1123 0.930 . S
H1116 C1124 0.930 . S
H1117 C1125 0.930 . S
H1118 C1128 0.930 . S
H1119 C1129 0.930 . S
C1120 H1114 0.930 . S
C1120 C1121 1.355 . S
C1120 C1122 1.415 . S
C1121 C1120 1.355 . S
C1121 C1123 1.419 . S
C1122 C1120 1.415 . S
C1122 C1127 1.425 . S
C1122 C1129 1.409 . S
C1123 H1115 0.930 . S
C1123 C1121 1.419 . S
C1123 C1124 1.362 . S
C1124 H1116 0.930 . S
C1124 C1123 1.362 . S
C1124 C1127 1.409 . S
C1125 H1117 0.930 . S
C1125 C1126 1.355 . S
C1125 C1127 1.415 . S
C1126 C1125 1.355 . S
C1126 C1128 1.419 . S
C1127 C1122 1.425 . S
C1127 C1124 1.409 . S
C1127 C1125 1.415 . S
C1128 H1118 0.930 . S
C1128 C1126 1.419 . S
C1128 C1129 1.362 . S
C1129 H1119 0.930 . S
C1129 C1122 1.409 . S
C1129 C1128 1.362 . S
H1130 C1136 0.930 . S
H1131 C1139 0.930 . S
H1132 C1140 0.930 . S
H1133 C1141 0.930 . S
H1134 C1144 0.930 . S
H1135 C1145 0.930 . S
C1136 H1130 0.930 . S
C1136 C1137 1.355 . S
C1136 C1138 1.415 . S
C1137 C1136 1.355 . S
C1137 C1139 1.419 . S
C1138 C1136 1.415 . S
C1138 C1143 1.425 . S
C1138 C1145 1.409 . S
C1139 H1131 0.930 . S
C1139 C1137 1.419 . S
C1139 C1140 1.362 . S
C1140 H1132 0.930 . S
C1140 C1139 1.362 . S
C1140 C1143 1.409 . S
C1141 H1133 0.930 . S
C1141 C1142 1.355 . S
C1141 C1143 1.415 . S
C1142 C1141 1.355 . S
C1142 C1144 1.419 . S
C1143 C1138 1.425 . S
C1143 C1140 1.409 . S
C1143 C1141 1.415 . S
C1144 H1134 0.930 . S
C1144 C1142 1.419 . S
C1144 C1145 1.362 . S
C1145 H1135 0.930 . S
C1145 C1138 1.409 . S
C1145 C1144 1.362 . S
H1146 C1152 0.930 . S
H1147 C1155 0.930 . S
H1148 C1156 0.930 . S
H1149 C1157 0.930 . S
H1150 C1160 0.930 . S
H1151 C1161 0.930 . S
C1152 H1146 0.930 . S
C1152 C1153 1.355 . S
C1152 C1154 1.415 . S
C1153 C1152 1.355 . S
C1153 C1155 1.419 . S
C1154 C1152 1.415 . S
C1154 C1159 1.425 . S
C1154 C1161 1.409 . S
C1155 H1147 0.930 . S
C1155 C1153 1.419 . S
C1155 C1156 1.362 . S
C1156 H1148 0.930 . S
C1156 C1155 1.362 . S
C1156 C1159 1.409 . S
C1157 H1149 0.930 . S
C1157 C1158 1.355 . S
C1157 C1159 1.415 . S
C1158 C1157 1.355 . S
C1158 C1160 1.419 . S
C1159 C1154 1.425 . S
C1159 C1156 1.409 . S
C1159 C1157 1.415 . S
C1160 H1150 0.930 . S
C1160 C1158 1.419 . S
C1160 C1161 1.362 . S
C1161 H1151 0.930 . S
C1161 C1154 1.409 . S
C1161 C1160 1.362 . S
H1162 C1168 0.930 . S
H1163 C1171 0.930 . S
H1164 C1172 0.930 . S
H1165 C1173 0.930 . S
H1166 C1176 0.930 . S
H1167 C1177 0.930 . S
C1168 H1162 0.930 . S
C1168 C1169 1.355 . S
C1168 C1170 1.415 . S
C1169 C1168 1.355 . S
C1169 C1171 1.419 . S
C1170 C1168 1.415 . S
C1170 C1175 1.425 . S
C1170 C1177 1.409 . S
C1171 H1163 0.930 . S
C1171 C1169 1.419 . S
C1171 C1172 1.362 . S
C1172 H1164 0.930 . S
C1172 C1171 1.362 . S
C1172 C1175 1.409 . S
C1173 H1165 0.930 . S
C1173 C1174 1.355 . S
C1173 C1175 1.415 . S
C1174 C1173 1.355 . S
C1174 C1176 1.419 . S
C1175 C1170 1.425 . S
C1175 C1172 1.409 . S
C1175 C1173 1.415 . S
C1176 H1166 0.930 . S
C1176 C1174 1.419 . S
C1176 C1177 1.362 . S
C1177 H1167 0.930 . S
C1177 C1170 1.409 . S
C1177 C1176 1.362 . S
H1178 C1184 0.930 . S
H1179 C1187 0.930 . S
H1180 C1188 0.930 . S
H1181 C1189 0.930 . S
H1182 C1192 0.930 . S
H1183 C1193 0.930 . S
C1184 H1178 0.930 . S
C1184 C1185 1.355 . S
C1184 C1186 1.415 . S
C1185 C1184 1.355 . S
C1185 C1187 1.419 . S
C1186 C1184 1.415 . S
C1186 C1191 1.425 . S
C1186 C1193 1.409 . S
C1187 H1179 0.930 . S
C1187 C1185 1.419 . S
C1187 C1188 1.362 . S
C1188 H1180 0.930 . S
C1188 C1187 1.362 . S
C1188 C1191 1.409 . S
C1189 H1181 0.930 . S
C1189 C1190 1.355 . S
C1189 C1191 1.415 . S
C1190 C1189 1.355 . S
C1190 C1192 1.419 . S
C1191 C1186 1.425 . S
C1191 C1188 1.409 . S
C1191 C1189 1.415 . S
C1192 H1182 0.930 . S
C1192 C1190 1.419 . S
C1192 C1193 1.362 . S
C1193 H1183 0.930 . S
C1193 C1186 1.409 . S
C1193 C1192 1.362 . S
H1194 C1200 0.930 . S
H1195 C1203 0.930 . S
H1196 C1204 0.930 . S
H1197 C1205 0.930 . S
H1198 C1208 0.930 . S
H1199 C1209 0.930 . S
C1200 H1194 0.930 . S
C1200 C1201 1.355 . S
C1200 C1202 1.415 . S
C1201 C1200 1.355 . S
C1201 C1203 1.419 . S
C1202 C1200 1.415 . S
C1202 C1207 1.425 . S
C1202 C1209 1.409 . S
C1203 H1195 0.930 . S
C1203 C1201 1.419 . S
C1203 C1204 1.362 . S
C1204 H1196 0.930 . S
C1204 C1203 1.362 . S
C1204 C1207 1.409 . S
C1205 H1197 0.930 . S
C1205 C1206 1.355 . S
C1205 C1207 1.415 . S
C1206 C1205 1.355 . S
C1206 C1208 1.419 . S
C1207 C1202 1.425 . S
C1207 C1204 1.409 . S
C1207 C1205 1.415 . S
C1208 H1198 0.930 . S
C1208 C1206 1.419 . S
C1208 C1209 1.362 . S
C1209 H1199 0.930 . S
C1209 C1202 1.409 . S
C1209 C1208 1.362 . S
H1210 C1216 0.930 . S
H1211 C1219 0.930 . S
H1212 C1220 0.930 . S
H1213 C1221 0.930 . S
H1214 C1224 0.930 . S
H1215 C1225 0.930 . S
C1216 H1210 0.930 . S
C1216 C1217 1.355 . S
C1216 C1218 1.415 . S
C1217 C1216 1.355 . S
C1217 C1219 1.419 . S
C1218 C1216 1.415 . S
C1218 C1223 1.425 . S
C1218 C1225 1.409 . S
C1219 H1211 0.930 . S
C1219 C1217 1.419 . S
C1219 C1220 1.362 . S
C1220 H1212 0.930 . S
C1220 C1219 1.362 . S
C1220 C1223 1.409 . S
C1221 H1213 0.930 . S
C1221 C1222 1.355 . S
C1221 C1223 1.415 . S
C1222 C1221 1.355 . S
C1222 C1224 1.419 . S
C1223 C1218 1.425 . S
C1223 C1220 1.409 . S
C1223 C1221 1.415 . S
C1224 H1214 0.930 . S
C1224 C1222 1.419 . S
C1224 C1225 1.362 . S
C1225 H1215 0.930 . S
C1225 C1218 1.409 . S
C1225 C1224 1.362 . S
C470 C283 0.471 . S
C465 C4 0.251 . S
C486 C273 1.751 . S
C481 C63 1.721 . S
C502 C274 0.918 . S
C497 C72 0.946 . S
C513 C102 1.641 . S
C518 C296 1.653 . S
C529 C136 1.726 . S
C534 C299 1.747 . S
C550 C282 0.920 . S
C545 C183 0.969 . S
C561 C233 1.682 . S
C566 C272 1.658 . S
C577 C251 0.469 . S
C582 C290 0.314 . S
C598 C303 1.539 . S
C593 C29 1.590 . S
C609 C42 2.041 . S
C614 C352 1.945 . S
C630 C330 1.677 . S
C625 C97 1.713 . S
C646 C344 0.787 . S
C641 C115 0.857 . S
C657 C149 0.980 . S
C662 C305 0.956 . S
C678 C358 1.634 . S
C673 C187 1.646 . S
C689 C212 2.056 . S
C694 C314 1.956 . S
C705 C255 1.683 . S
C710 C335 1.643 . S
C721 C8 1.684 . S
C726 C361 1.632 . S
C737 C153 2.038 . S
C742 C345 1.927 . S
C758 C304 1.685 . S
C753 C170 1.722 . S
C774 C336 0.935 . S
C769 C208 0.946 . S
C785 C238 1.603 . S
C790 C327 1.542 . S
C801 C76 1.678 . S
C806 C334 1.621 . S
C822 C321 1.884 . S
C817 C119 2.029 . S
C833 C38 0.905 . S
C838 C313 0.962 . S
C849 C242 0.254 . S
C854 C376 0.475 . S
C865 C165 1.725 . S
C870 C366 1.718 . S
C886 C367 0.930 . S
C881 C174 0.988 . S
C902 C389 1.685 . S
C897 C204 1.662 . S
C913 C34 1.739 . S
C918 C392 1.719 . S
C934 C375 0.993 . S
C929 C81 0.924 . S
C945 C131 1.678 . S
C950 C365 1.648 . S
C961 C13 0.286 . S
C966 C383 0.418 . S
C977 C267 1.579 . S
C982 C396 1.575 . S
C998 C445 1.930 . S
C993 C144 2.020 . S
C1009 C199 1.702 . S
C1014 C423 1.708 . S
C1025 C217 0.857 . S
C1030 C437 0.785 . S
C1046 C398 0.932 . S
C1041 C47 0.980 . S
C1057 C85 1.677 . S
C1062 C451 1.658 . S
C1078 C407 1.883 . S
C1073 C110 2.026 . S
C1094 C428 1.665 . S
C1089 C17 1.675 . S
C1110 C454 1.662 . S
C1105 C246 1.667 . S
C1121 C51 2.038 . S
C1126 C438 1.927 . S
C1137 C68 1.691 . S
C1142 C397 1.688 . S
C1158 C429 0.877 . S
C1153 C106 0.914 . S
C1169 C0 1.582 . S
C1174 C420 1.554 . S
C1185 C178 1.663 . S
C1190 C427 1.653 . S
C1206 C414 1.922 . S
C1201 C221 2.046 . S
C1222 C406 0.979 . S
C1217 C140 0.933 . S
