# Generated by pormake.
# Topology csq, (4,8)-cn, num edge types: 1
# Building blocks:
#     Node 0, Type 0, BuildingBlock: NAWXER_clean_sbu_0, # of connection points: 4
#     Node 1, Type 0, BuildingBlock: NAWXER_clean_sbu_0, # of connection points: 4
#     Node 2, Type 0, BuildingBlock: NAWXER_clean_sbu_0, # of connection points: 4
#     Node 3, Type 0, BuildingBlock: NAWXER_clean_sbu_0, # of connection points: 4
#     Node 4, Type 0, BuildingBlock: NAWXER_clean_sbu_0, # of connection points: 4
#     Node 5, Type 0, BuildingBlock: NAWXER_clean_sbu_0, # of connection points: 4
#     Node 6, Type 1, BuildingBlock: TAGTUT_clean_sbu_3, # of connection points: 8
#     Node 7, Type 1, BuildingBlock: TAGTUT_clean_sbu_3, # of connection points: 8
#     Node 8, Type 1, BuildingBlock: TAGTUT_clean_sbu_3, # of connection points: 8
#     Edge 9, Type (0, 1), BuildingBlock: MIFKUJ_clean_linker_0, # of connection points: 2
#     Edge 10, Type (0, 1), BuildingBlock: MIFKUJ_clean_linker_0, # of connection points: 2
#     Edge 11, Type (0, 1), BuildingBlock: MIFKUJ_clean_linker_0, # of connection points: 2
#     Edge 12, Type (0, 1), BuildingBlock: MIFKUJ_clean_linker_0, # of connection points: 2
#     Edge 13, Type (0, 1), BuildingBlock: MIFKUJ_clean_linker_0, # of connection points: 2
#     Edge 14, Type (0, 1), BuildingBlock: MIFKUJ_clean_linker_0, # of connection points: 2
#     Edge 15, Type (0, 1), BuildingBlock: MIFKUJ_clean_linker_0, # of connection points: 2
#     Edge 16, Type (0, 1), BuildingBlock: MIFKUJ_clean_linker_0, # of connection points: 2
#     Edge 17, Type (0, 1), BuildingBlock: MIFKUJ_clean_linker_0, # of connection points: 2
#     Edge 18, Type (0, 1), BuildingBlock: MIFKUJ_clean_linker_0, # of connection points: 2
#     Edge 19, Type (0, 1), BuildingBlock: MIFKUJ_clean_linker_0, # of connection points: 2
#     Edge 20, Type (0, 1), BuildingBlock: MIFKUJ_clean_linker_0, # of connection points: 2
#     Edge 21, Type (0, 1), BuildingBlock: MIFKUJ_clean_linker_0, # of connection points: 2
#     Edge 22, Type (0, 1), BuildingBlock: MIFKUJ_clean_linker_0, # of connection points: 2
#     Edge 23, Type (0, 1), BuildingBlock: MIFKUJ_clean_linker_0, # of connection points: 2
#     Edge 24, Type (0, 1), BuildingBlock: MIFKUJ_clean_linker_0, # of connection points: 2
#     Edge 25, Type (0, 1), BuildingBlock: MIFKUJ_clean_linker_0, # of connection points: 2
#     Edge 26, Type (0, 1), BuildingBlock: MIFKUJ_clean_linker_0, # of connection points: 2
#     Edge 27, Type (0, 1), BuildingBlock: MIFKUJ_clean_linker_0, # of connection points: 2
#     Edge 28, Type (0, 1), BuildingBlock: MIFKUJ_clean_linker_0, # of connection points: 2
#     Edge 29, Type (0, 1), BuildingBlock: MIFKUJ_clean_linker_0, # of connection points: 2
#     Edge 30, Type (0, 1), BuildingBlock: MIFKUJ_clean_linker_0, # of connection points: 2
#     Edge 31, Type (0, 1), BuildingBlock: MIFKUJ_clean_linker_0, # of connection points: 2
#     Edge 32, Type (0, 1), BuildingBlock: MIFKUJ_clean_linker_0, # of connection points: 2
# Relax obj value: 0.043
# Max RMSD: 0.120
# Mean RMSD: 0.079
data_MOF--net-csq--node1-NAWXER_clean_sbu_0--node2-TAGTUT_clean_sbu_3--edge1-MIFKUJ_clean_linker_0
_symmetry_space_group_name_H-M    P1
_symmetry_Int_Tables_number       1
_symmetry_cell_setting            triclinic
loop_
_symmetry_equiv_pos_as_xyz
'x, y, z'
_cell_length_a     64.267655
_cell_length_b     63.524072
_cell_length_c     24.589539
_cell_angle_alpha  92.510101
_cell_angle_beta   92.337578
_cell_angle_gamma 119.85102
loop_
_atom_site_label
_atom_site_type_symbol
_atom_site_fract_x
_atom_site_fract_y
_atom_site_fract_z
_atom_type_partial_charge
C0 C 0.27758 0.4935 0.0672 0.0
C1 C 0.21828 0.49454 0.18622 0.0
O2 O 0.27555 0.51187 0.08146 0.0
Zn3 Zn 0.24786 0.49465 0.12454 0.0
O4 O 0.2624 0.47251 0.08235 0.0
Zn5 Zn 0.23184 0.45655 0.13128 0.0
O6 O 0.20589 0.4338 0.08059 0.0
O7 O 0.2198 0.47214 0.06283 0.0
O8 O 0.21576 0.47334 0.17734 0.0
O9 O 0.2347 0.51237 0.16371 0.0
O10 O 0.26385 0.48376 0.18806 0.0
O11 O 0.2434 0.44362 0.18616 0.0
C12 C 0.20527 0.44936 0.05093 0.0
C13 C 0.26073 0.46386 0.20644 0.0
C14 C 0.74547 0.21369 0.02566 0.0
C15 C 0.80083 0.26649 0.17588 0.0
O16 O 0.76393 0.21351 0.04574 0.0
Zn17 Zn 0.77415 0.24076 0.09825 0.0
O18 O 0.74061 0.2299 0.04365 0.0
Zn19 Zn 0.75458 0.25968 0.10516 0.0
O20 O 0.76399 0.28818 0.06313 0.0
O21 O 0.78498 0.27004 0.0468 0.0
O22 O 0.78401 0.2713 0.16517 0.0
O23 O 0.80237 0.25053 0.14623 0.0
O24 O 0.74489 0.22588 0.15069 0.0
O25 O 0.72698 0.2479 0.14928 0.0
C26 C 0.77998 0.28673 0.03714 0.0
C27 C 0.72818 0.22981 0.16592 0.0
C28 C 0.54212 0.77871 0.12714 0.0
C29 C 0.55598 0.74055 0.96696 0.0
O30 O 0.56222 0.78182 0.11303 0.0
Zn31 Zn 0.54974 0.75957 0.04817 0.0
O32 O 0.52279 0.76399 0.09799 0.0
Zn33 Zn 0.5119 0.73983 0.0261 0.0
O34 O 0.49203 0.70831 0.05593 0.0
O35 O 0.53048 0.72494 0.08255 0.0
O36 O 0.5337 0.73338 0.9721 0.0
O37 O 0.57177 0.75565 0.00296 0.0
O38 O 0.53682 0.77751 0.99559 0.0
O39 O 0.49775 0.75359 0.97732 0.0
C40 C 0.50877 0.70737 0.08317 0.0
C41 C 0.517 0.77344 0.97119 0.0
C42 C 0.80383 0.52279 0.01649 0.0
C43 C 0.76224 0.53924 0.16065 0.0
O44 O 0.80584 0.54386 0.0157 0.0
Zn45 Zn 0.79502 0.56561 0.06158 0.0
O46 O 0.79161 0.50858 0.05206 0.0
Zn47 Zn 0.78252 0.53021 0.08932 0.0
O48 O 0.75804 0.53325 0.03234 0.0
O49 O 0.7757 0.57116 0.00873 0.0
O50 O 0.76327 0.51989 0.15168 0.0
O51 O 0.77337 0.5571 0.13077 0.0
O52 O 0.82588 0.59265 0.08957 0.0
O53 O 0.81637 0.55802 0.12606 0.0
C54 C 0.75747 0.54984 0.00549 0.0
C55 C 0.83094 0.58073 0.12253 0.0
C56 C 0.21833 0.74456 0.18717 0.0
C57 C 0.268 0.8006 0.05439 0.0
O58 O 0.21162 0.75958 0.17304 0.0
Zn59 Zn 0.22099 0.78781 0.11864 0.0
O60 O 0.23566 0.74431 0.16443 0.0
Zn61 Zn 0.24307 0.77094 0.11807 0.0
O62 O 0.254 0.8007 0.17718 0.0
O63 O 0.22973 0.81598 0.16881 0.0
O64 O 0.27058 0.7836 0.07315 0.0
O65 O 0.25042 0.80328 0.06822 0.0
O66 O 0.19298 0.77478 0.06664 0.0
O67 O 0.21359 0.75566 0.05862 0.0
C68 C 0.24789 0.81627 0.19244 0.0
C69 C 0.19594 0.75842 0.04259 0.0
C70 C 0.45977 0.25104 0.23282 0.0
C71 C 0.47551 0.20539 0.09084 0.0
O72 O 0.4821 0.25948 0.22555 0.0
Zn73 Zn 0.50445 0.25248 0.17543 0.0
O74 O 0.44396 0.23303 0.202 0.0
Zn75 Zn 0.46619 0.22839 0.15802 0.0
O76 O 0.48336 0.21711 0.21705 0.0
O77 O 0.522 0.24444 0.2303 0.0
O78 O 0.45479 0.20171 0.10161 0.0
O79 O 0.49442 0.22337 0.1152 0.0
O80 O 0.52023 0.28131 0.13317 0.0
O81 O 0.48134 0.25926 0.11066 0.0
C82 C 0.50411 0.22421 0.24102 0.0
C83 C 0.50181 0.27789 0.10409 0.0
C84 C 0.04066 0.48828 0.53307 0.0
C85 C 0.02384 0.44429 0.71904 0.0
C86 C 0.95928 0.44884 0.70792 0.0
Mg87 Mg 0.02144 0.52357 0.48901 0.0
Mg88 Mg 0.01212 0.55817 0.57757 0.0
O89 O 0.00386 0.52641 0.55234 0.0
Mg90 Mg 0.01044 0.50696 0.6045 0.0
O91 O 0.01728 0.48596 0.65204 0.0
Mg92 Mg 0.99714 0.45351 0.60942 0.0
Mg93 Mg 0.01235 0.48649 0.72629 0.0
C94 C 0.97978 0.52753 0.67109 0.0
O95 O 0.03835 0.54042 0.66043 0.0
O96 O 0.00417 0.54306 0.44096 0.0
O97 O 0.03378 0.52562 0.74382 0.0
O98 O 0.05493 0.56061 0.51071 0.0
O99 O 0.99755 0.565 0.50549 0.0
O100 O 0.05064 0.58231 0.57821 0.0
O101 O 0.98255 0.47274 0.55511 0.0
O102 O 0.9885 0.48532 0.4707 0.0
C103 C 0.97758 0.46861 0.50346 0.0
C104 C 0.99647 0.55759 0.45559 0.0
O105 O 0.98303 0.50954 0.6583 0.0
O106 O 0.0149 0.43845 0.66928 0.0
O107 O 0.99102 0.54807 0.6495 0.0
O108 O 0.96476 0.44095 0.66506 0.0
O109 O 0.02475 0.46209 0.7478 0.0
O110 O 0.97469 0.4683 0.73552 0.0
O111 O 0.0368 0.50575 0.54633 0.0
O112 O 0.02899 0.46761 0.5537 0.0
C113 C 0.06354 0.5795 0.54379 0.0
C114 C 0.04278 0.54333 0.71265 0.0
C115 C 0.49764 0.03108 0.5173 0.0
C116 C 0.56071 0.02057 0.41682 0.0
C117 C 0.52829 0.94918 0.48599 0.0
Mg118 Mg 0.47102 0.00786 0.62714 0.0
Mg119 Mg 0.50008 0.99625 0.72319 0.0
O120 O 0.48704 0.98915 0.65033 0.0
Mg121 Mg 0.50994 0.99698 0.59236 0.0
O122 O 0.53118 0.00526 0.53061 0.0
Mg123 Mg 0.50643 0.98766 0.46779 0.0
Mg124 Mg 0.55842 0.00179 0.53264 0.0
C125 C 0.5217 0.9643 0.67643 0.0
O126 O 0.54334 0.02419 0.64767 0.0
O127 O 0.44401 0.98699 0.69284 0.0
O128 O 0.57334 0.02012 0.61304 0.0
O129 O 0.49315 0.03975 0.69026 0.0
O130 O 0.46582 0.98066 0.75769 0.0
O131 O 0.51821 0.03473 0.74579 0.0
O132 O 0.47874 0.97009 0.53238 0.0
O133 O 0.44997 0.97684 0.56181 0.0
C134 C 0.45709 0.96597 0.52902 0.0
C135 C 0.44604 0.9787 0.73848 0.0
O136 O 0.51773 0.9675 0.62638 0.0
O137 O 0.53757 0.00933 0.41162 0.0
O138 O 0.5187 0.97557 0.7174 0.0
O139 O 0.51381 0.95535 0.46449 0.0
O140 O 0.57238 0.02012 0.4599 0.0
O141 O 0.54633 0.96395 0.51808 0.0
O142 O 0.50078 0.02597 0.56577 0.0
O143 O 0.4993 0.01951 0.47527 0.0
C144 C 0.50982 0.04784 0.72855 0.0
C145 C 0.56519 0.02855 0.64978 0.0
C146 C 0.52247 0.54534 0.67416 0.0
C147 C 0.45859 0.47776 0.78706 0.0
C148 C 0.48787 0.43354 0.72095 0.0
Mg149 Mg 0.54552 0.5417 0.56069 0.0
Mg150 Mg 0.51458 0.49662 0.46832 0.0
O151 O 0.52613 0.5056 0.54134 0.0
Mg152 Mg 0.50433 0.49424 0.60296 0.0
O153 O 0.48487 0.48516 0.66876 0.0
Mg154 Mg 0.51092 0.49491 0.72833 0.0
Mg155 Mg 0.45766 0.45417 0.67235 0.0
C156 C 0.48605 0.4451 0.52031 0.0
O157 O 0.46999 0.48732 0.55383 0.0
O158 O 0.57112 0.54291 0.49347 0.0
O159 O 0.44093 0.45533 0.59408 0.0
O160 O 0.52381 0.55109 0.49693 0.0
O161 O 0.54894 0.50991 0.4354 0.0
O162 O 0.50005 0.51856 0.44056 0.0
O163 O 0.53612 0.49949 0.65894 0.0
O164 O 0.5658 0.53223 0.62503 0.0
C165 C 0.55836 0.5159 0.65962 0.0
C166 C 0.56898 0.52893 0.45142 0.0
O167 O 0.49121 0.45423 0.57028 0.0
O168 O 0.48173 0.49014 0.78889 0.0
O169 O 0.49181 0.45831 0.47928 0.0
O170 O 0.5029 0.45561 0.73723 0.0
O171 O 0.44586 0.4629 0.74639 0.0
O172 O 0.4689 0.42799 0.69092 0.0
O173 O 0.5181 0.53473 0.62619 0.0
O174 O 0.51954 0.53358 0.71679 0.0
C175 C 0.50792 0.54074 0.4568 0.0
C176 C 0.44795 0.47041 0.55637 0.0
H177 H 0.18694 0.46177 0.25222 0.0
H178 H 0.15766 0.46506 0.30618 0.0
H179 H 0.18155 0.53703 0.25386 0.0
H180 H 0.21158 0.53407 0.20026 0.0
H181 H 0.17245 0.53548 0.35975 0.0
H182 H 0.12942 0.48846 0.1966 0.0
H183 H 0.11623 0.45607 0.12255 0.0
H184 H 0.0852 0.4017 0.23806 0.0
H185 H 0.09853 0.43378 0.31298 0.0
H186 H 0.06719 0.52797 0.47396 0.0
H187 H 0.09742 0.53319 0.41008 0.0
H188 H 0.08593 0.46187 0.43985 0.0
H189 H 0.05552 0.45634 0.50239 0.0
H190 H 0.08794 0.46781 0.33457 0.0
H191 H 0.13458 0.51748 0.49905 0.0
H192 H 0.14734 0.55124 0.56953 0.0
H193 H 0.17111 0.60255 0.44623 0.0
H194 H 0.15787 0.56903 0.37485 0.0
C195 C 0.18611 0.47838 0.25216 0.0
C196 C 0.20151 0.49757 0.22139 0.0
C197 C 0.16923 0.4802 0.28298 0.0
C198 C 0.16695 0.50108 0.28323 0.0
C199 C 0.18283 0.52066 0.25405 0.0
C200 C 0.19997 0.51893 0.22338 0.0
C201 C 0.14767 0.50193 0.31341 0.0
C202 C 0.15389 0.5209 0.35364 0.0
C203 C 0.12338 0.48297 0.30549 0.0
C204 C 0.11513 0.46356 0.26049 0.0
C205 C 0.11992 0.4696 0.20628 0.0
C206 C 0.1124 0.45129 0.16414 0.0
C207 C 0.09992 0.42684 0.17561 0.0
C208 C 0.09488 0.42065 0.22924 0.0
C209 C 0.10239 0.4389 0.27156 0.0
C210 C 0.07106 0.51339 0.46683 0.0
C211 C 0.05886 0.49173 0.49352 0.0
C212 C 0.08846 0.51644 0.4304 0.0
C213 C 0.09421 0.49802 0.4204 0.0
C214 C 0.08187 0.47636 0.44668 0.0
C215 C 0.06445 0.47325 0.48267 0.0
C216 C 0.11286 0.5008 0.38255 0.0
C217 C 0.10646 0.48253 0.34046 0.0
C218 C 0.13684 0.52059 0.3884 0.0
C219 C 0.14493 0.5407 0.43152 0.0
C220 C 0.1423 0.53593 0.4869 0.0
C221 C 0.14961 0.55503 0.52702 0.0
C222 C 0.1599 0.57901 0.51234 0.0
C223 C 0.16302 0.58396 0.45753 0.0
C224 C 0.15557 0.56491 0.41722 0.0
H225 H 0.16553 0.59377 0.54344 0.0
H226 H 0.09412 0.4127 0.14292 0.0
H227 H 0.68092 0.21814 0.16869 0.0
H228 H 0.64846 0.1819 0.20571 0.0
H229 H 0.7005 0.16381 0.27078 0.0
H230 H 0.73266 0.19944 0.23321 0.0
H231 H 0.66645 0.1267 0.21004 0.0
H232 H 0.66949 0.18359 0.3502 0.0
H233 H 0.66668 0.21786 0.39264 0.0
H234 H 0.59317 0.18517 0.32888 0.0
H235 H 0.59569 0.15096 0.2849 0.0
H236 H 0.60856 0.04039 0.40219 0.0
H237 H 0.63286 0.07438 0.348 0.0
H238 H 0.56899 0.07392 0.28515 0.0
H239 H 0.54443 0.03981 0.33952 0.0
H240 H 0.60335 0.11859 0.3305 0.0
H241 H 0.59978 0.05994 0.19889 0.0
H242 H 0.60201 0.02416 0.16421 0.0
H243 H 0.6767 0.05954 0.22008 0.0
H244 H 0.67487 0.09541 0.25581 0.0
C245 C 0.68544 0.20675 0.19217 0.0
C246 C 0.70929 0.2115 0.19771 0.0
C247 C 0.66688 0.18602 0.21319 0.0
C248 C 0.672 0.16997 0.2406 0.0
C249 C 0.69604 0.17572 0.24923 0.0
C250 C 0.71444 0.19617 0.22791 0.0
C251 C 0.65254 0.14607 0.25611 0.0
C252 C 0.65283 0.12503 0.23697 0.0
C253 C 0.63405 0.14367 0.28923 0.0
C254 C 0.63297 0.16493 0.31318 0.0
C255 C 0.65288 0.18393 0.34422 0.0
C256 C 0.65129 0.2033 0.3688 0.0
C257 C 0.62981 0.20378 0.36316 0.0
C258 C 0.60986 0.18488 0.33288 0.0
C259 C 0.61138 0.16552 0.30803 0.0
C260 C 0.59957 0.04709 0.37586 0.0
C261 C 0.57455 0.03744 0.37542 0.0
C262 C 0.6135 0.0665 0.34472 0.0
C263 C 0.60273 0.07668 0.3125 0.0
C264 C 0.57764 0.06629 0.30966 0.0
C265 C 0.56362 0.04668 0.34052 0.0
C266 C 0.61809 0.09963 0.28671 0.0
C267 C 0.6169 0.12039 0.30335 0.0
C268 C 0.6359 0.10187 0.25186 0.0
C269 C 0.63713 0.08033 0.23035 0.0
C270 C 0.61664 0.06003 0.20417 0.0
C271 C 0.61784 0.03974 0.18424 0.0
C272 C 0.63947 0.03956 0.19001 0.0
C273 C 0.65996 0.0597 0.21564 0.0
C274 C 0.65886 0.08004 0.23566 0.0
H275 H 0.64036 0.02383 0.17456 0.0
H276 H 0.62859 0.21873 0.38248 0.0
H277 H 0.46707 0.67783 0.13173 0.0
H278 H 0.46127 0.64838 0.19944 0.0
H279 H 0.53294 0.66112 0.17961 0.0
H280 H 0.53912 0.69117 0.11435 0.0
H281 H 0.46025 0.60741 0.20747 0.0
H282 H 0.56067 0.66047 0.2943 0.0
H283 H 0.594 0.70294 0.30732 0.0
H284 H 0.54339 0.72843 0.30583 0.0
H285 H 0.50975 0.68611 0.29364 0.0
H286 H 0.48919 0.53099 0.35117 0.0
H287 H 0.48359 0.55792 0.29277 0.0
H288 H 0.50396 0.61088 0.42976 0.0
H289 H 0.51117 0.58447 0.48775 0.0
H290 H 0.52564 0.63383 0.35361 0.0
H291 H 0.44328 0.57649 0.36123 0.0
H292 H 0.40686 0.53593 0.35855 0.0
H293 H 0.41539 0.52237 0.19063 0.0
H294 H 0.45183 0.56279 0.19229 0.0
C295 C 0.48147 0.67413 0.14153 0.0
C296 C 0.50367 0.68706 0.11818 0.0
C297 C 0.47815 0.65728 0.18028 0.0
C298 C 0.49688 0.65289 0.19599 0.0
C299 C 0.51844 0.66467 0.16979 0.0
C300 C 0.52192 0.68178 0.13209 0.0
C301 C 0.49452 0.63683 0.24098 0.0
C302 C 0.47449 0.6132 0.23954 0.0
C303 C 0.51253 0.64458 0.28449 0.0
C304 C 0.53269 0.6701 0.29259 0.0
C305 C 0.55664 0.67513 0.29705 0.0
C306 C 0.57559 0.69918 0.30423 0.0
C307 C 0.57081 0.71837 0.30725 0.0
C308 C 0.54707 0.71355 0.30331 0.0
C309 C 0.52806 0.68953 0.29622 0.0
C310 C 0.49209 0.54818 0.36924 0.0
C311 C 0.5007 0.55556 0.42423 0.0
C312 C 0.48868 0.5636 0.33568 0.0
C313 C 0.49301 0.58651 0.35654 0.0
C314 C 0.50056 0.59342 0.41224 0.0
C315 C 0.50457 0.57823 0.44557 0.0
C316 C 0.49179 0.60397 0.3192 0.0
C317 C 0.51118 0.62797 0.32204 0.0
C318 C 0.47266 0.59685 0.27864 0.0
C319 C 0.45038 0.57268 0.27696 0.0
C320 C 0.4374 0.56485 0.32374 0.0
C321 C 0.41672 0.54189 0.32239 0.0
C322 C 0.40876 0.52661 0.27443 0.0
C323 C 0.42146 0.53427 0.22769 0.0
C324 C 0.4421 0.55724 0.22875 0.0
H325 H 0.39275 0.50887 0.27351 0.0
H326 H 0.58551 0.73697 0.31274 0.0
H327 H 0.87368 0.59588 0.07962 0.0
H328 H 0.91012 0.60089 0.1287 0.0
H329 H 0.87703 0.59312 0.281 0.0
H330 H 0.84032 0.58732 0.23196 0.0
H331 H 0.93062 0.62944 0.27957 0.0
H332 H 0.8671 0.54703 0.22496 0.0
H333 H 0.83946 0.51177 0.16241 0.0
H334 H 0.89941 0.51422 0.08608 0.0
H335 H 0.92745 0.55017 0.14696 0.0
H336 H 0.96842 0.57751 0.47464 0.0
H337 H 0.94876 0.59043 0.40909 0.0
H338 H 0.97962 0.57054 0.2777 0.0
H339 H 0.99903 0.55664 0.34387 0.0
H340 H 0.93399 0.5533 0.25459 0.0
H341 H 0.99781 0.63224 0.31741 0.0
H342 H 0.02527 0.66577 0.38451 0.0
H343 H 0.96534 0.66773 0.44988 0.0
H344 H 0.93744 0.63413 0.38361 0.0
C345 C 0.87465 0.59624 0.12377 0.0
C346 C 0.85451 0.59151 0.15241 0.0
C347 C 0.89529 0.59882 0.15154 0.0
C348 C 0.89601 0.59697 0.2081 0.0
C349 C 0.87674 0.5946 0.23728 0.0
C350 C 0.85589 0.59141 0.20942 0.0
C351 C 0.9152 0.59427 0.23609 0.0
C352 C 0.93151 0.61288 0.27412 0.0
C353 C 0.91654 0.57279 0.22771 0.0
C354 C 0.89942 0.55196 0.18927 0.0
C355 C 0.87443 0.54065 0.1937 0.0
C356 C 0.85866 0.52038 0.15879 0.0
C357 C 0.86769 0.51088 0.12005 0.0
C358 C 0.89246 0.52175 0.11581 0.0
C359 C 0.90827 0.54213 0.15032 0.0
C360 C 0.97133 0.57605 0.43189 0.0
C361 C 0.98531 0.56598 0.41449 0.0
C362 C 0.96022 0.58375 0.39438 0.0
C363 C 0.96316 0.58207 0.3385 0.0
C364 C 0.97729 0.57223 0.32075 0.0
C365 C 0.98826 0.56418 0.35848 0.0
C366 C 0.94936 0.58833 0.29901 0.0
C367 C 0.93382 0.57028 0.25892 0.0
C368 C 0.94872 0.61028 0.30561 0.0
C369 C 0.9655 0.63059 0.34551 0.0
C370 C 0.99045 0.63972 0.34625 0.0
C371 C 0.00611 0.65875 0.38414 0.0
C372 C 0.99707 0.66881 0.42146 0.0
C373 C 0.97233 0.65993 0.42092 0.0
C374 C 0.95659 0.64094 0.38309 0.0
H375 H 0.00924 0.68353 0.45075 0.0
H376 H 0.85555 0.49487 0.09388 0.0
H377 H 0.26236 0.80902 0.29033 0.0
H378 H 0.29734 0.83875 0.34874 0.0
H379 H 0.30558 0.89537 0.2459 0.0
H380 H 0.2701 0.86543 0.18746 0.0
H381 H 0.34602 0.89009 0.25645 0.0
H382 H 0.29394 0.89968 0.37444 0.0
H383 H 0.25909 0.88662 0.43009 0.0
H384 H 0.28557 0.85086 0.53275 0.0
H385 H 0.32041 0.86336 0.47723 0.0
H386 H 0.44719 0.97956 0.43343 0.0
H387 H 0.41097 0.95553 0.37173 0.0
H388 H 0.39099 0.89335 0.46608 0.0
H389 H 0.42721 0.91747 0.52772 0.0
H390 H 0.35615 0.90548 0.45785 0.0
H391 H 0.40618 0.89283 0.33761 0.0
H392 H 0.4402 0.90363 0.28038 0.0
H393 H 0.41712 0.94314 0.18086 0.0
H394 H 0.3832 0.93298 0.23817 0.0
C395 C 0.27104 0.82801 0.28164 0.0
C396 C 0.26352 0.83511 0.23503 0.0
C397 C 0.29105 0.84496 0.31486 0.0
C398 C 0.30405 0.86924 0.30159 0.0
C399 C 0.29568 0.87671 0.25685 0.0
C400 C 0.27533 0.85973 0.22395 0.0
C401 C 0.32786 0.88565 0.33042 0.0
C402 C 0.3483 0.89403 0.30037 0.0
C403 C 0.33069 0.88995 0.38782 0.0
C404 C 0.30973 0.88234 0.42137 0.0
C405 C 0.29224 0.88885 0.4086 0.0
C406 C 0.2725 0.88158 0.44018 0.0
C407 C 0.2701 0.86788 0.48487 0.0
C408 C 0.28745 0.86146 0.49811 0.0
C409 C 0.30722 0.86867 0.46663 0.0
C410 C 0.43551 0.96046 0.43939 0.0
C411 C 0.43998 0.95007 0.48434 0.0
C412 C 0.41481 0.94681 0.40444 0.0
C413 C 0.39828 0.92268 0.41446 0.0
C414 C 0.40354 0.91194 0.4577 0.0
C415 C 0.42427 0.92557 0.49246 0.0
C416 C 0.37436 0.9096 0.384 0.0
C417 C 0.35392 0.90186 0.41384 0.0
C418 C 0.37156 0.90578 0.32644 0.0
C419 C 0.39232 0.91244 0.29274 0.0
C420 C 0.40854 0.90413 0.30403 0.0
C421 C 0.42777 0.91006 0.27145 0.0
C422 C 0.43087 0.92414 0.22713 0.0
C423 C 0.41474 0.9323 0.2153 0.0
C424 C 0.39551 0.92647 0.24785 0.0
H425 H 0.44573 0.92866 0.20187 0.0
H426 H 0.25481 0.86228 0.50928 0.0
H427 H 0.41475 0.23725 0.26848 0.0
H428 H 0.40518 0.25772 0.34243 0.0
H429 H 0.4806 0.31093 0.37174 0.0
H430 H 0.4902 0.29059 0.3 0.0
H431 H 0.46098 0.30093 0.46629 0.0
H432 H 0.43993 0.31939 0.28397 0.0
H433 H 0.4159 0.30725 0.19559 0.0
H434 H 0.35077 0.2762 0.27899 0.0
H435 H 0.3745 0.28803 0.36783 0.0
H436 H 0.47729 0.42129 0.42045 0.0
H437 H 0.45819 0.37822 0.39717 0.0
H438 H 0.4452 0.36407 0.56619 0.0
H439 H 0.46545 0.40814 0.59061 0.0
H440 H 0.41552 0.34033 0.40179 0.0
H441 H 0.44478 0.31239 0.58393 0.0
H442 H 0.47204 0.32974 0.6677 0.0
H443 H 0.52553 0.38541 0.57751 0.0
H444 H 0.49854 0.36831 0.49332 0.0
C445 C 0.42924 0.25321 0.2911 0.0
C446 C 0.4532 0.26242 0.27784 0.0
C447 C 0.42377 0.26482 0.33348 0.0
C448 C 0.44218 0.28591 0.36276 0.0
C449 C 0.46607 0.29455 0.3504 0.0
C450 C 0.47151 0.28299 0.30868 0.0
C451 C 0.43716 0.30105 0.40197 0.0
C452 C 0.45053 0.30912 0.45281 0.0
C453 C 0.4231 0.31142 0.38546 0.0
C454 C 0.40891 0.30426 0.33227 0.0
C455 C 0.42048 0.30985 0.28332 0.0
C456 C 0.40693 0.30305 0.23322 0.0
C457 C 0.38182 0.29088 0.23167 0.0
C458 C 0.37022 0.28555 0.28025 0.0
C459 C 0.38369 0.29229 0.33046 0.0
C460 C 0.47035 0.40924 0.45311 0.0
C461 C 0.4732 0.41835 0.50771 0.0
C462 C 0.45911 0.3844 0.43946 0.0
C463 C 0.45014 0.36775 0.47975 0.0
C464 C 0.45213 0.37656 0.53435 0.0
C465 C 0.46374 0.40174 0.54829 0.0
C466 C 0.44119 0.34171 0.46309 0.0
C467 C 0.42486 0.33124 0.41692 0.0
C468 C 0.4529 0.3295 0.48326 0.0
C469 C 0.4697 0.33914 0.53266 0.0
C470 C 0.46244 0.32822 0.58204 0.0
C471 C 0.47779 0.33804 0.62955 0.0
C472 C 0.50049 0.35868 0.62794 0.0
C473 C 0.50795 0.36943 0.57872 0.0
C474 C 0.49266 0.35968 0.53111 0.0
H475 H 0.51228 0.36635 0.66482 0.0
H476 H 0.37136 0.28563 0.19284 0.0
H477 H 0.48359 0.76737 0.88891 0.0
H478 H 0.48544 0.79821 0.82896 0.0
H479 H 0.55252 0.8519 0.91387 0.0
H480 H 0.55101 0.82136 0.97299 0.0
H481 H 0.51851 0.86716 0.90127 0.0
H482 H 0.55319 0.82863 0.79316 0.0
H483 H 0.55387 0.79463 0.74258 0.0
H484 H 0.49342 0.78264 0.63728 0.0
H485 H 0.4921 0.81629 0.68788 0.0
H486 H 0.5556 0.96732 0.75072 0.0
H487 H 0.55666 0.93331 0.79084 0.0
H488 H 0.49849 0.88286 0.67612 0.0
H489 H 0.49842 0.91714 0.63384 0.0
H490 H 0.52527 0.86388 0.70112 0.0
H491 H 0.48851 0.8998 0.80615 0.0
H492 H 0.48571 0.93309 0.85432 0.0
H493 H 0.54591 0.94801 0.96419 0.0
H494 H 0.54929 0.91502 0.91616 0.0
C495 C 0.49869 0.78577 0.8948 0.0
C496 C 0.51714 0.79189 0.93577 0.0
C497 C 0.49981 0.80331 0.86028 0.0
C498 C 0.51923 0.82733 0.86665 0.0
C499 C 0.53743 0.83349 0.90801 0.0
C500 C 0.53652 0.81596 0.9418 0.0
C501 C 0.52041 0.84648 0.83195 0.0
C502 C 0.52022 0.86654 0.85759 0.0
C503 C 0.52179 0.84529 0.77461 0.0
C504 C 0.52231 0.82475 0.74491 0.0
C505 C 0.53982 0.81853 0.75974 0.0
C506 C 0.54038 0.79936 0.73093 0.0
C507 C 0.52363 0.78641 0.6869 0.0
C508 C 0.50631 0.79261 0.67155 0.0
C509 C 0.50565 0.81172 0.7003 0.0
C510 C 0.54366 0.949 0.73283 0.0
C511 C 0.5269 0.94481 0.68934 0.0
C512 C 0.54404 0.92953 0.7562 0.0
C513 C 0.527 0.90539 0.73803 0.0
C514 C 0.51163 0.90126 0.69141 0.0
C515 C 0.51168 0.92086 0.66703 0.0
C516 C 0.52384 0.88483 0.77068 0.0
C517 C 0.52348 0.86447 0.74476 0.0
C518 C 0.52145 0.88544 0.82778 0.0
C519 C 0.51928 0.90508 0.85725 0.0
C520 C 0.50123 0.91027 0.84041 0.0
C521 C 0.49953 0.92908 0.86769 0.0
C522 C 0.51566 0.94269 0.91221 0.0
C523 C 0.53345 0.93747 0.92966 0.0
C524 C 0.53526 0.9187 0.90245 0.0
H525 H 0.51433 0.95725 0.93326 0.0
H526 H 0.52414 0.77162 0.66456 0.0
H527 H 0.71248 0.5115 0.01456 0.0
H528 H 0.67481 0.50358 0.96753 0.0
H529 H 0.71362 0.56803 0.88029 0.0
H530 H 0.75134 0.57649 0.92854 0.0
H531 H 0.6738 0.56513 0.91589 0.0
H532 H 0.69369 0.50887 0.82246 0.0
H533 H 0.70261 0.47532 0.81755 0.0
H534 H 0.63464 0.42772 0.88061 0.0
H535 H 0.62545 0.4611 0.88653 0.0
H536 H 0.60568 0.55039 0.67643 0.0
H537 H 0.63478 0.55342 0.74692 0.0
H538 H 0.58026 0.48826 0.81244 0.0
H539 H 0.55075 0.48485 0.74089 0.0
H540 H 0.62216 0.48787 0.80316 0.0
H541 H 0.59932 0.54194 0.88184 0.0
H542 H 0.58963 0.57493 0.88492 0.0
H543 H 0.66197 0.62622 0.85049 0.0
H544 H 0.67203 0.59348 0.84629 0.0
C545 C 0.71304 0.52389 0.98499 0.0
C546 C 0.73494 0.54449 0.97472 0.0
C547 C 0.69147 0.51933 0.9582 0.0
C548 C 0.69142 0.53502 0.91986 0.0
C549 C 0.71324 0.55567 0.90975 0.0
C550 C 0.7348 0.56042 0.93706 0.0
C551 C 0.66875 0.52998 0.88976 0.0
C552 C 0.6626 0.54831 0.89092 0.0
C553 C 0.6535 0.50758 0.85923 0.0
C554 C 0.65903 0.48754 0.85556 0.0
C555 C 0.68074 0.4913 0.83568 0.0
C556 C 0.68582 0.47231 0.83264 0.0
C557 C 0.66924 0.44942 0.84893 0.0
C558 C 0.64749 0.44546 0.86813 0.0
C559 C 0.64234 0.4644 0.87132 0.0
C560 C 0.59972 0.53669 0.70576 0.0
C561 C 0.57579 0.51741 0.70305 0.0
C562 C 0.61639 0.53855 0.74638 0.0
C563 C 0.60958 0.52133 0.78551 0.0
C564 C 0.5858 0.50186 0.78284 0.0
C565 C 0.56899 0.49998 0.74201 0.0
C566 C 0.62787 0.52345 0.82737 0.0
C567 C 0.63313 0.50454 0.82879 0.0
C568 C 0.64225 0.54529 0.86041 0.0
C569 C 0.6364 0.56518 0.86349 0.0
C570 C 0.61314 0.56022 0.87458 0.0
C571 C 0.60758 0.57889 0.87656 0.0
C572 C 0.62516 0.60266 0.86785 0.0
C573 C 0.64837 0.60781 0.85725 0.0
C574 C 0.65402 0.5892 0.85515 0.0
H575 H 0.62082 0.61708 0.86937 0.0
H576 H 0.6732 0.43474 0.84654 0.0
H577 H 0.15005 0.74877 0.01278 0.0
H578 H 0.12124 0.71712 0.94431 0.0
H579 H 0.17546 0.69923 0.90249 0.0
H580 H 0.20409 0.73065 0.96953 0.0
H581 H 0.14839 0.69537 0.81296 0.0
H582 H 0.13649 0.66941 0.9984 0.0
H583 H 0.1276 0.67216 0.09427 0.0
H584 H 0.05955 0.66466 0.04146 0.0
H585 H 0.06822 0.66217 0.94521 0.0
H586 H 0.07052 0.55623 0.8081 0.0
H587 H 0.09398 0.59683 0.85476 0.0
H588 H 0.07247 0.62687 0.72452 0.0
H589 H 0.04834 0.58607 0.6785 0.0
H590 H 0.07895 0.62773 0.89299 0.0
H591 H 0.12221 0.6848 0.7115 0.0
H592 H 0.13449 0.67995 0.62003 0.0
H593 H 0.14423 0.62143 0.6708 0.0
H594 H 0.13234 0.62614 0.76264 0.0
C595 C 0.15588 0.73838 0.98816 0.0
C596 C 0.17918 0.74192 0.99713 0.0
C597 C 0.13944 0.72032 0.94916 0.0
C598 C 0.14617 0.70567 0.91871 0.0
C599 C 0.16987 0.71031 0.92537 0.0
C600 C 0.18616 0.72817 0.96419 0.0
C601 C 0.12828 0.68375 0.88438 0.0
C602 C 0.13293 0.68075 0.83007 0.0
C603 C 0.10836 0.66449 0.90699 0.0
C604 C 0.10313 0.66593 0.96473 0.0
C605 C 0.11972 0.66853 0.00728 0.0
C606 C 0.11471 0.67002 0.06166 0.0
C607 C 0.09306 0.66867 0.07395 0.0
C608 C 0.07634 0.66576 0.03187 0.0
C609 C 0.08129 0.66432 0.97742 0.0
C610 C 0.07085 0.57149 0.78928 0.0
C611 C 0.05807 0.5681 0.73889 0.0
C612 C 0.08418 0.59464 0.81605 0.0
C613 C 0.08503 0.61483 0.79294 0.0
C614 C 0.0723 0.61155 0.74263 0.0
C615 C 0.05884 0.58832 0.71594 0.0
C616 C 0.09931 0.63923 0.82199 0.0
C617 C 0.09393 0.64264 0.87523 0.0
C618 C 0.11888 0.6586 0.7988 0.0
C619 C 0.12611 0.65566 0.74371 0.0
C620 C 0.12701 0.67093 0.70312 0.0
C621 C 0.13392 0.66822 0.65124 0.0
C622 C 0.14013 0.6504 0.63965 0.0
C623 C 0.13937 0.6352 0.67982 0.0
C624 C 0.13251 0.63786 0.73175 0.0
H625 H 0.14561 0.6484 0.59963 0.0
H626 H 0.08921 0.66981 0.11607 0.0
H627 H 0.51068 0.19413 0.0986 0.0
H628 H 0.51891 0.16967 0.03369 0.0
H629 H 0.45644 0.15523 0.93104 0.0
H630 H 0.44752 0.17919 0.99784 0.0
H631 H 0.46031 0.11582 0.93171 0.0
H632 H 0.51418 0.19875 0.90206 0.0
H633 H 0.54436 0.24173 0.92709 0.0
H634 H 0.59453 0.22052 0.98619 0.0
H635 H 0.56452 0.17736 0.96223 0.0
H636 H 0.49815 0.08146 0.69735 0.0
H637 H 0.49658 0.11212 0.75723 0.0
H638 H 0.53336 0.09782 0.88811 0.0
H639 H 0.5347 0.06652 0.82868 0.0
H640 H 0.54281 0.15282 0.86791 0.0
H641 H 0.48452 0.06855 0.90552 0.0
H642 H 0.45435 0.02645 0.87272 0.0
H643 H 0.41229 0.05233 0.78971 0.0
H644 H 0.4425 0.09467 0.82132 0.0
C645 C 0.4986 0.18566 0.0623 0.0
C646 C 0.47863 0.18878 0.05275 0.0
C647 C 0.50341 0.17178 0.02508 0.0
C648 C 0.48874 0.16123 0.97666 0.0
C649 C 0.46815 0.16344 0.96792 0.0
C650 C 0.46304 0.17706 0.00597 0.0
C651 C 0.4953 0.14816 0.93544 0.0
C652 C 0.47826 0.12408 0.91741 0.0
C653 C 0.51881 0.15882 0.91676 0.0
C654 C 0.53702 0.18479 0.93071 0.0
C655 C 0.5316 0.20323 0.9207 0.0
C656 C 0.54868 0.22763 0.93467 0.0
C657 C 0.57133 0.23385 0.95832 0.0
C658 C 0.57697 0.21567 0.9679 0.0
C659 C 0.55994 0.19124 0.95407 0.0
C660 C 0.50657 0.08524 0.73839 0.0
C661 C 0.51602 0.0711 0.75873 0.0
C662 C 0.50568 0.10283 0.77243 0.0
C663 C 0.51456 0.10686 0.82702 0.0
C664 C 0.52647 0.09484 0.8459 0.0
C665 C 0.52719 0.07699 0.81191 0.0
C666 C 0.50801 0.12062 0.8657 0.0
C667 C 0.52494 0.14475 0.88266 0.0
C668 C 0.48438 0.11019 0.88285 0.0
C669 C 0.46586 0.08474 0.86527 0.0
C670 C 0.46893 0.06526 0.87992 0.0
C671 C 0.45182 0.04136 0.86159 0.0
C672 C 0.43145 0.03671 0.82899 0.0
C673 C 0.4281 0.05596 0.81489 0.0
C674 C 0.4452 0.0799 0.83302 0.0
H675 H 0.41824 0.01819 0.81478 0.0
H676 H 0.58453 0.25275 0.96912 0.0
H677 H 0.28661 0.45747 0.03499 0.0
H678 H 0.3223 0.46134 0.99557 0.0
H679 H 0.35179 0.53884 0.99279 0.0
H680 H 0.31577 0.53518 0.03296 0.0
H681 H 0.35908 0.51759 0.89759 0.0
H682 H 0.37302 0.52093 0.0869 0.0
H683 H 0.36372 0.50949 0.18096 0.0
H684 H 0.3589 0.44071 0.14051 0.0
H685 H 0.36726 0.45131 0.04542 0.0
H686 H 0.47031 0.52138 0.83993 0.0
H687 H 0.44442 0.53005 0.89658 0.0
H688 H 0.39174 0.45358 0.88684 0.0
H689 H 0.41707 0.44491 0.82879 0.0
H690 H 0.40268 0.48321 0.99762 0.0
H691 H 0.38069 0.48011 0.8018 0.0
H692 H 0.39086 0.49384 0.70934 0.0
H693 H 0.41513 0.56747 0.76954 0.0
H694 H 0.40542 0.55417 0.86259 0.0
C695 C 0.3005 0.47539 0.0257 0.0
C696 C 0.29833 0.49606 0.03757 0.0
C697 C 0.321 0.47756 0.00328 0.0
C698 C 0.33989 0.50041 0.99207 0.0
C699 C 0.33745 0.52104 0.00145 0.0
C700 C 0.31687 0.51891 0.02436 0.0
C701 C 0.36222 0.50232 0.97191 0.0
C702 C 0.36893 0.51058 0.92002 0.0
C703 C 0.37523 0.49332 0.0013 0.0
C704 C 0.37054 0.48684 0.05868 0.0
C705 C 0.36969 0.50322 0.09775 0.0
C706 C 0.36453 0.49688 0.15124 0.0
C707 C 0.36064 0.47437 0.16656 0.0
C708 C 0.36187 0.45813 0.12844 0.0
C709 C 0.36676 0.46428 0.07466 0.0
C710 C 0.45349 0.50638 0.85112 0.0
C711 C 0.44568 0.48246 0.8301 0.0
C712 C 0.4387 0.51137 0.88321 0.0
C713 C 0.41618 0.49245 0.89573 0.0
C714 C 0.4091 0.4684 0.87778 0.0
C715 C 0.42355 0.46348 0.84462 0.0
C716 C 0.39885 0.49765 0.92279 0.0
C717 C 0.3931 0.49068 0.97591 0.0
C718 C 0.38708 0.50831 0.8951 0.0
C719 C 0.39263 0.51621 0.83916 0.0
C720 C 0.38841 0.49925 0.79538 0.0
C721 C 0.39404 0.50695 0.74287 0.0
C722 C 0.40372 0.53153 0.7336 0.0
C723 C 0.40769 0.54845 0.77681 0.0
C724 C 0.40212 0.54084 0.82942 0.0
H725 H 0.40807 0.53745 0.69292 0.0
H726 H 0.35675 0.46959 0.208 0.0
H727 H 0.7929 0.33495 0.03405 0.0
H728 H 0.81884 0.36355 0.96967 0.0
H729 H 0.82128 0.30479 0.88064 0.0
H730 H 0.7966 0.27674 0.9461 0.0
H731 H 0.86363 0.33942 0.89698 0.0
H732 H 0.79002 0.3351 0.83293 0.0
H733 H 0.75331 0.338 0.83867 0.0
H734 H 0.79611 0.41386 0.8915 0.0
H735 H 0.83307 0.41134 0.88691 0.0
H736 H 0.92405 0.40235 0.67311 0.0
H737 H 0.88829 0.37568 0.72013 0.0
H738 H 0.90452 0.43474 0.83875 0.0
H739 H 0.94072 0.46121 0.79371 0.0
H740 H 0.85217 0.4011 0.8042 0.0
H741 H 0.92491 0.4032 0.87544 0.0
H742 H 0.96147 0.40037 0.86507 0.0
H743 H 0.91843 0.3272 0.79353 0.0
H744 H 0.88163 0.32978 0.80262 0.0
C745 C 0.79876 0.32819 0.00024 0.0
C746 C 0.79293 0.30371 0.99529 0.0
C747 C 0.8135 0.3445 0.96326 0.0
C748 C 0.82206 0.3364 0.91992 0.0
C749 C 0.81518 0.31164 0.91382 0.0
C750 C 0.80101 0.29557 0.95127 0.0
C751 C 0.83972 0.3537 0.88342 0.0
C752 C 0.86073 0.35254 0.87608 0.0
C753 C 0.83653 0.37143 0.85699 0.0
C754 C 0.81431 0.37293 0.86026 0.0
C755 C 0.7916 0.35234 0.84633 0.0
C756 C 0.77074 0.35393 0.84927 0.0
C757 C 0.77237 0.37608 0.86564 0.0
C758 C 0.79487 0.3967 0.87897 0.0
C759 C 0.81578 0.3952 0.8762 0.0
C760 C 0.91977 0.40985 0.70849 0.0
C761 C 0.93537 0.43394 0.72967 0.0
C762 C 0.89928 0.39459 0.7352 0.0
C763 C 0.89386 0.40327 0.78295 0.0
C764 C 0.90834 0.42775 0.8018 0.0
C765 C 0.92907 0.44284 0.77591 0.0
C766 C 0.87535 0.38615 0.81748 0.0
C767 C 0.85457 0.38762 0.82484 0.0
C768 C 0.87852 0.36852 0.84373 0.0
C769 C 0.90057 0.36679 0.83911 0.0
C770 C 0.92327 0.38659 0.85707 0.0
C771 C 0.94403 0.38502 0.85149 0.0
C772 C 0.94228 0.36364 0.8285 0.0
C773 C 0.91976 0.34376 0.81123 0.0
C774 C 0.89895 0.34526 0.81659 0.0
H775 H 0.95837 0.36246 0.8242 0.0
H776 H 0.7562 0.37728 0.86783 0.0
H777 H 0.82516 0.49563 0.03604 0.0
H778 H 0.85481 0.49239 0.98097 0.0
H779 H 0.84318 0.53246 0.85789 0.0
H780 H 0.81478 0.5369 0.91393 0.0
H781 H 0.84442 0.48543 0.8233 0.0
H782 H 0.88454 0.56311 0.933 0.0
H783 H 0.90266 0.59215 0.01379 0.0
H784 H 0.94619 0.56071 0.05643 0.0
H785 H 0.92729 0.53051 0.97784 0.0
H786 H 0.97286 0.56252 0.72206 0.0
H787 H 0.94106 0.55669 0.78096 0.0
H788 H 0.91339 0.47918 0.76762 0.0
H789 H 0.94434 0.48482 0.70591 0.0
H790 H 0.93112 0.5408 0.87565 0.0
H791 H 0.85482 0.44869 0.78951 0.0
H792 H 0.84134 0.42222 0.70402 0.0
H793 H 0.87355 0.48513 0.61091 0.0
H794 H 0.88711 0.51197 0.69592 0.0
C795 C 0.82881 0.50346 0.99696 0.0
C796 C 0.81787 0.51664 0.97937 0.0
C797 C 0.84574 0.50169 0.96572 0.0
C798 C 0.8513 0.51241 0.9157 0.0
C799 C 0.83919 0.52418 0.89652 0.0
C800 C 0.82295 0.52665 0.92847 0.0
C801 C 0.87029 0.5123 0.88371 0.0
C802 C 0.8634 0.49735 0.83502 0.0
C803 C 0.89504 0.52781 0.89909 0.0
C804 C 0.90402 0.54409 0.95001 0.0
C805 C 0.89726 0.56172 0.96064 0.0
C806 C 0.90779 0.57851 0.00602 0.0
C807 C 0.92548 0.57819 0.04038 0.0
C808 C 0.93239 0.56085 0.02999 0.0
C809 C 0.92159 0.54374 0.9854 0.0
C810 C 0.96002 0.5442 0.73158 0.0
C811 C 0.9614 0.52413 0.70981 0.0
C812 C 0.94185 0.54089 0.76547 0.0
C813 C 0.92464 0.51744 0.77859 0.0
C814 C 0.9262 0.49741 0.75763 0.0
C815 C 0.94421 0.5007 0.72312 0.0
C816 C 0.90537 0.51433 0.81467 0.0
C817 C 0.91216 0.52857 0.86431 0.0
C818 C 0.8806 0.49811 0.80037 0.0
C819 C 0.87206 0.48228 0.74897 0.0
C820 C 0.85889 0.45685 0.75075 0.0
C821 C 0.85129 0.44179 0.70241 0.0
C822 C 0.85661 0.45199 0.65206 0.0
C823 C 0.86949 0.47727 0.64994 0.0
C824 C 0.87715 0.49241 0.69817 0.0
H825 H 0.85074 0.4403 0.61468 0.0
H826 H 0.93406 0.5915 0.07476 0.0
H827 H 0.30438 0.79866 0.00259 0.0
H828 H 0.33319 0.82906 0.94529 0.0
H829 H 0.3002 0.87319 0.9711 0.0
H830 H 0.27121 0.84288 0.02624 0.0
H831 H 0.30928 0.87407 0.87138 0.0
H832 H 0.3545 0.88657 0.04097 0.0
H833 H 0.37186 0.87576 0.11885 0.0
H834 H 0.40994 0.85474 0.00978 0.0
H835 H 0.39267 0.8653 0.93119 0.0
H836 H 0.44238 0.98141 0.84755 0.0
H837 H 0.40987 0.95233 0.89917 0.0
H838 H 0.37035 0.91223 0.74829 0.0
H839 H 0.40223 0.94236 0.69675 0.0
H840 H 0.39706 0.9089 0.90981 0.0
H841 H 0.31155 0.87611 0.7636 0.0
H842 H 0.29494 0.8929 0.69719 0.0
H843 H 0.33773 0.96413 0.7789 0.0
H844 H 0.35437 0.94772 0.84615 0.0
C845 C 0.30327 0.81481 0.99575 0.0
C846 C 0.28548 0.8183 0.01893 0.0
C847 C 0.31978 0.83222 0.96321 0.0
C848 C 0.319 0.85356 0.95415 0.0
C849 C 0.30112 0.85687 0.97704 0.0
C850 C 0.28455 0.83946 0.00882 0.0
C851 C 0.33685 0.87278 0.92161 0.0
C852 C 0.32849 0.88165 0.87969 0.0
C853 C 0.36192 0.88314 0.93318 0.0
C854 C 0.37207 0.87644 0.98017 0.0
C855 C 0.36641 0.87944 0.03357 0.0
C856 C 0.37627 0.87342 0.07784 0.0
C857 C 0.39192 0.86448 0.06924 0.0
C858 C 0.39778 0.86161 0.01636 0.0
C859 C 0.38799 0.86764 0.97195 0.0
C860 C 0.42634 0.96682 0.82555 0.0
C861 C 0.4246 0.9642 0.76833 0.0
C862 C 0.40788 0.95004 0.855 0.0
C863 C 0.38757 0.92993 0.82786 0.0
C864 C 0.38551 0.92778 0.7704 0.0
C865 C 0.40372 0.94501 0.74087 0.0
C866 C 0.36955 0.91049 0.85984 0.0
C867 C 0.37787 0.90138 0.90135 0.0
C868 C 0.34446 0.9007 0.84951 0.0
C869 C 0.33438 0.91071 0.80954 0.0
C870 C 0.31735 0.89534 0.76749 0.0
C871 C 0.30794 0.90479 0.72968 0.0
C872 C 0.31533 0.92958 0.73372 0.0
C873 C 0.33209 0.94495 0.77569 0.0
C874 C 0.34154 0.93559 0.81361 0.0
H875 H 0.30804 0.93687 0.7044 0.0
H876 H 0.39955 0.85985 0.10357 0.0
H877 H 0.46478 0.27715 0.04434 0.0
H878 H 0.46661 0.30256 0.9715 0.0
H879 H 0.5441 0.34153 0.9922 0.0
H880 H 0.5424 0.31619 0.06658 0.0
H881 H 0.52807 0.37247 0.9775 0.0
H882 H 0.51407 0.29934 0.88346 0.0
H883 H 0.49466 0.25509 0.86119 0.0
H884 H 0.42784 0.25215 0.81764 0.0
H885 H 0.44674 0.29634 0.8405 0.0
H886 H 0.53063 0.43614 0.74885 0.0
H887 H 0.5371 0.40808 0.80223 0.0
H888 H 0.46034 0.36024 0.80045 0.0
H889 H 0.45387 0.3877 0.74443 0.0
H890 H 0.48153 0.3341 0.80022 0.0
H891 H 0.4959 0.40721 0.90885 0.0
H892 H 0.51663 0.45179 0.92802 0.0
H893 H 0.58484 0.45463 0.94048 0.0
H894 H 0.5645 0.41007 0.92103 0.0
C895 C 0.48229 0.29111 0.03366 0.0
C896 C 0.50347 0.29448 0.06133 0.0
C897 C 0.48329 0.30558 0.99154 0.0
C898 C 0.50549 0.32368 0.97529 0.0
C899 C 0.52673 0.32757 0.00363 0.0
C900 C 0.52574 0.31308 0.04619 0.0
C901 C 0.50617 0.3386 0.92933 0.0
C902 C 0.51825 0.36405 0.93843 0.0
C903 C 0.49326 0.32776 0.8782 0.0
C904 C 0.4818 0.30116 0.86411 0.0
C905 C 0.49519 0.28924 0.86952 0.0
C906 C 0.48428 0.26417 0.85674 0.0
C907 C 0.46002 0.25081 0.83811 0.0
C908 C 0.44663 0.26252 0.83211 0.0
C909 C 0.45744 0.28759 0.84492 0.0
C910 C 0.51515 0.41934 0.75875 0.0
C911 C 0.49172 0.41427 0.74303 0.0
C912 C 0.51886 0.40339 0.78973 0.0
C913 C 0.49921 0.38243 0.80736 0.0
C914 C 0.47584 0.37641 0.78806 0.0
C915 C 0.47213 0.39211 0.75589 0.0
C916 C 0.50278 0.36785 0.84907 0.0
C917 C 0.49153 0.34248 0.83914 0.0
C918 C 0.51661 0.37876 0.89929 0.0
C919 C 0.5287 0.40537 0.91316 0.0
C920 C 0.51531 0.41736 0.91573 0.0
C921 C 0.52699 0.44261 0.92658 0.0
C922 C 0.55204 0.45603 0.93536 0.0
C923 C 0.56545 0.44421 0.93367 0.0
C924 C 0.55385 0.41896 0.92285 0.0
H925 H 0.56106 0.47559 0.94351 0.0
H926 H 0.45161 0.2314 0.82824 0.0
H927 H 0.16097 0.40833 0.03755 0.0
H928 H 0.12892 0.39927 0.96742 0.0
H929 H 0.17718 0.46363 0.88868 0.0
H930 H 0.2088 0.47328 0.95997 0.0
H931 H 0.13922 0.46486 0.90556 0.0
H932 H 0.15401 0.40364 0.8289 0.0
H933 H 0.15974 0.36804 0.82811 0.0
H934 H 0.08804 0.32379 0.87699 0.0
H935 H 0.08197 0.35921 0.87881 0.0
H936 H 0.04905 0.42573 0.66869 0.0
H937 H 0.07792 0.41651 0.71469 0.0
H938 H 0.05402 0.42581 0.87061 0.0
H939 H 0.02559 0.43538 0.82527 0.0
H940 H 0.0812 0.38663 0.803 0.0
H941 H 0.10305 0.47231 0.93729 0.0
H942 H 0.09784 0.50819 0.93324 0.0
H943 H 0.10028 0.5049 0.75897 0.0
H944 H 0.10597 0.46932 0.76215 0.0
C945 C 0.16481 0.42025 0.00462 0.0
C946 C 0.18721 0.44166 0.00443 0.0
C947 C 0.14654 0.41498 0.96434 0.0
C948 C 0.15062 0.43074 0.9226 0.0
C949 C 0.17354 0.45128 0.92063 0.0
C950 C 0.19159 0.4568 0.96139 0.0
C951 C 0.13039 0.42777 0.88545 0.0
C952 C 0.12679 0.44776 0.8828 0.0
C953 C 0.11405 0.40551 0.85552 0.0
C954 C 0.11761 0.38415 0.85438 0.0
C955 C 0.13952 0.38637 0.83989 0.0
C956 C 0.14282 0.3662 0.83918 0.0
C957 C 0.12428 0.34368 0.8526 0.0
C958 C 0.10239 0.34125 0.86664 0.0
C959 C 0.099 0.36136 0.86743 0.0
C960 C 0.04932 0.42483 0.71259 0.0
C961 C 0.03554 0.43175 0.74366 0.0
C962 C 0.06574 0.41948 0.73874 0.0
C963 C 0.06827 0.42089 0.79596 0.0
C964 C 0.0524 0.42484 0.8264 0.0
C965 C 0.03628 0.43043 0.80049 0.0
C966 C 0.09027 0.42358 0.82421 0.0
C967 C 0.09402 0.40367 0.82539 0.0
C968 C 0.1072 0.44605 0.85206 0.0
C969 C 0.10469 0.46802 0.84995 0.0
C970 C 0.10264 0.47936 0.89818 0.0
C971 C 0.09958 0.49963 0.89602 0.0
C972 C 0.09865 0.50877 0.84586 0.0
C973 C 0.10093 0.49776 0.79778 0.0
C974 C 0.10406 0.47754 0.79974 0.0
H975 H 0.09621 0.52441 0.84426 0.0
H976 H 0.12688 0.32809 0.85203 0.0
H977 H 0.74748 0.17422 0.98222 0.0
H978 H 0.71677 0.14052 0.92106 0.0
H979 H 0.67408 0.17565 0.917 0.0
H980 H 0.70441 0.20919 0.9778 0.0
H981 H 0.64772 0.12761 0.93792 0.0
H982 H 0.70458 0.17651 0.81026 0.0
H983 H 0.74457 0.19821 0.77378 0.0
H984 H 0.74618 0.13147 0.75684 0.0
H985 H 0.7063 0.10943 0.79395 0.0
H986 H 0.56365 0.06476 0.71041 0.0
H987 H 0.59408 0.09381 0.77945 0.0
H988 H 0.63524 0.05743 0.76068 0.0
H989 H 0.60515 0.02871 0.69088 0.0
H990 H 0.66306 0.10393 0.75555 0.0
H991 H 0.60389 0.05397 0.87435 0.0
H992 H 0.56398 0.03242 0.91112 0.0
H993 H 0.56668 0.10048 0.94764 0.0
H994 H 0.6062 0.1224 0.90926 0.0
C995 C 0.73167 0.17487 0.96781 0.0
C996 C 0.72838 0.19436 0.9849 0.0
C997 C 0.71416 0.15562 0.933 0.0
C998 C 0.69318 0.15564 0.91477 0.0
C999 C 0.69009 0.17526 0.93098 0.0
C1000 C 0.70754 0.19447 0.96551 0.0
C1001 C 0.67413 0.13513 0.87936 0.0
C1002 C 0.65093 0.12248 0.89779 0.0
C1003 C 0.67865 0.12815 0.82786 0.0
C1004 C 0.70259 0.14138 0.80546 0.0
C1005 C 0.71355 0.16651 0.7992 0.0
C1006 C 0.73618 0.17886 0.77832 0.0
C1007 C 0.74794 0.16624 0.76316 0.0
C1008 C 0.73707 0.14123 0.7687 0.0
C1009 C 0.71445 0.1288 0.78962 0.0
C1010 C 0.57895 0.06271 0.72181 0.0
C1011 C 0.58208 0.04454 0.6953 0.0
C1012 C 0.59634 0.0793 0.76125 0.0
C1013 C 0.61689 0.0777 0.77542 0.0
C1014 C 0.61959 0.05905 0.75019 0.0
C1015 C 0.60239 0.04267 0.71038 0.0
C1016 C 0.63638 0.0964 0.8137 0.0
C1017 C 0.65974 0.10877 0.79584 0.0
C1018 C 0.63195 0.10306 0.8658 0.0
C1019 C 0.60797 0.08984 0.88835 0.0
C1020 C 0.59585 0.06434 0.88952 0.0
C1021 C 0.57326 0.05205 0.91063 0.0
C1022 C 0.56273 0.06506 0.93142 0.0
C1023 C 0.57477 0.0904 0.93117 0.0
C1024 C 0.59725 0.10277 0.90964 0.0
H1025 H 0.54527 0.05552 0.94785 0.0
H1026 H 0.76546 0.17584 0.74699 0.0
H1027 H 0.52636 0.71136 0.8808 0.0
H1028 H 0.53535 0.69066 0.80843 0.0
H1029 H 0.60978 0.72711 0.87029 0.0
H1030 H 0.60068 0.74769 0.94465 0.0
H1031 H 0.56288 0.69858 0.72519 0.0
H1032 H 0.62747 0.68453 0.86052 0.0
H1033 H 0.64113 0.68772 0.95746 0.0
H1034 H 0.57107 0.6703 0.00501 0.0
H1035 H 0.55699 0.66677 0.90834 0.0
H1036 H 0.55324 0.58252 0.61293 0.0
H1037 H 0.57313 0.62655 0.64021 0.0
H1038 H 0.53216 0.61061 0.78259 0.0
H1039 H 0.5127 0.56742 0.75621 0.0
H1040 H 0.58235 0.63972 0.80577 0.0
H1041 H 0.51654 0.63076 0.67546 0.0
H1042 H 0.49794 0.62277 0.58149 0.0
H1043 H 0.56349 0.68069 0.52827 0.0
H1044 H 0.58256 0.68878 0.62188 0.0
C1045 C 0.54475 0.71529 0.87891 0.0
C1046 C 0.56269 0.73072 0.91937 0.0
C1047 C 0.54995 0.70366 0.83684 0.0
C1048 C 0.57319 0.70714 0.83405 0.0
C1049 C 0.59165 0.724 0.87191 0.0
C1050 C 0.58641 0.73564 0.9145 0.0
C1051 C 0.57639 0.68989 0.79755 0.0
C1052 C 0.56778 0.68607 0.74236 0.0
C1053 C 0.58311 0.67371 0.81941 0.0
C1054 C 0.59136 0.67582 0.87749 0.0
C1055 C 0.61504 0.68143 0.89176 0.0
C1056 C 0.62283 0.68326 0.94659 0.0
C1057 C 0.60701 0.67933 0.98739 0.0
C1058 C 0.58333 0.67344 0.97341 0.0
C1059 C 0.57544 0.67152 0.91864 0.0
C1060 C 0.54829 0.58861 0.64944 0.0
C1061 C 0.53171 0.57166 0.68293 0.0
C1062 C 0.55974 0.61363 0.66512 0.0
C1063 C 0.55447 0.62167 0.71406 0.0
C1064 C 0.53687 0.60472 0.74534 0.0
C1065 C 0.52567 0.58005 0.73006 0.0
C1066 C 0.56702 0.64746 0.73526 0.0
C1067 C 0.57888 0.65303 0.78747 0.0
C1068 C 0.5627 0.66479 0.71112 0.0
C1069 C 0.55104 0.66018 0.65536 0.0
C1070 C 0.52701 0.64168 0.64361 0.0
C1071 C 0.51638 0.63714 0.59046 0.0
C1072 C 0.52955 0.65116 0.5489 0.0
C1073 C 0.55334 0.66981 0.56047 0.0
C1074 C 0.56406 0.67438 0.61354 0.0
H1075 H 0.52131 0.64761 0.50777 0.0
H1076 H 0.61309 0.68078 0.0298 0.0
H1077 H 0.4734 0.17605 0.2461 0.0
H1078 H 0.47509 0.14873 0.30954 0.0
H1079 H 0.54134 0.20748 0.38738 0.0
H1080 H 0.54009 0.23523 0.32192 0.0
H1081 H 0.54355 0.16671 0.37907 0.0
H1082 H 0.48794 0.1867 0.44971 0.0
H1083 H 0.45373 0.19409 0.44871 0.0
H1084 H 0.40536 0.11925 0.39457 0.0
H1085 H 0.43931 0.11147 0.3944 0.0
H1086 H 0.52256 0.07588 0.57321 0.0
H1087 H 0.52656 0.11415 0.54326 0.0
H1088 H 0.47358 0.07398 0.40971 0.0
H1089 H 0.47013 0.03603 0.4383 0.0
H1090 H 0.46912 0.11255 0.46806 0.0
H1091 H 0.52868 0.09588 0.38997 0.0
H1092 H 0.56411 0.09057 0.39548 0.0
H1093 H 0.60724 0.16304 0.47056 0.0
H1094 H 0.5718 0.16848 0.46757 0.0
C1095 C 0.48837 0.18334 0.27672 0.0
C1096 C 0.50646 0.20797 0.27936 0.0
C1097 C 0.48923 0.16763 0.3133 0.0
C1098 C 0.50793 0.17612 0.35445 0.0
C1099 C 0.52654 0.20056 0.3564 0.0
C1100 C 0.52584 0.21639 0.31903 0.0
C1101 C 0.50772 0.15897 0.39422 0.0
C1102 C 0.5275 0.15529 0.39968 0.0
C1103 C 0.48683 0.14405 0.42145 0.0
C1104 C 0.46623 0.14853 0.42186 0.0
C1105 C 0.47003 0.17184 0.43729 0.0
C1106 C 0.45068 0.1761 0.43695 0.0
C1107 C 0.42739 0.15716 0.42155 0.0
C1108 C 0.42341 0.13391 0.40653 0.0
C1109 C 0.4427 0.12955 0.40674 0.0
C1110 C 0.51132 0.07523 0.53837 0.0
C1111 C 0.49596 0.05303 0.50809 0.0
C1112 C 0.51379 0.09709 0.52105 0.0
C1113 C 0.50054 0.09689 0.47395 0.0
C1114 C 0.48401 0.07454 0.44607 0.0
C1115 C 0.48197 0.05287 0.46251 0.0
C1116 C 0.50453 0.11977 0.45106 0.0
C1117 C 0.4854 0.12445 0.44872 0.0
C1118 C 0.52619 0.13586 0.42773 0.0
C1119 C 0.54739 0.13237 0.42977 0.0
C1120 C 0.54557 0.11052 0.40867 0.0
C1121 C 0.56569 0.10751 0.41121 0.0
C1122 C 0.58787 0.12637 0.43376 0.0
C1123 C 0.59 0.14835 0.4536 0.0
C1124 C 0.56987 0.15137 0.45167 0.0
H1125 H 0.60344 0.12402 0.43549 0.0
H1126 H 0.41244 0.1605 0.42129 0.0
H1127 H 0.26313 0.42539 0.24562 0.0
H1128 H 0.29566 0.42703 0.3043 0.0
H1129 H 0.33239 0.50548 0.31435 0.0
H1130 H 0.29995 0.50409 0.25628 0.0
H1131 H 0.34377 0.44754 0.2858 0.0
H1132 H 0.36118 0.52578 0.44213 0.0
H1133 H 0.33918 0.54421 0.48398 0.0
H1134 H 0.27328 0.47575 0.45941 0.0
H1135 H 0.29494 0.45685 0.41812 0.0
H1136 H 0.45428 0.49264 0.46017 0.0
H1137 H 0.42309 0.49212 0.3982 0.0
H1138 H 0.36868 0.44528 0.50173 0.0
H1139 H 0.39942 0.44543 0.56321 0.0
H1140 H 0.36692 0.48808 0.4729 0.0
H1141 H 0.37373 0.42027 0.39342 0.0
H1142 H 0.39595 0.40205 0.35186 0.0
H1143 H 0.41355 0.44995 0.22206 0.0
H1144 H 0.39182 0.46874 0.26342 0.0
C1145 C 0.27796 0.44299 0.26093 0.0
C1146 C 0.27888 0.4646 0.24652 0.0
C1147 C 0.2966 0.44388 0.29403 0.0
C1148 C 0.31635 0.46636 0.31361 0.0
C1149 C 0.31717 0.48795 0.3 0.0
C1150 C 0.29858 0.48709 0.26689 0.0
C1151 C 0.33621 0.46727 0.34797 0.0
C1152 C 0.34903 0.45667 0.32641 0.0
C1153 C 0.34285 0.47894 0.40119 0.0
C1154 C 0.32965 0.48999 0.42656 0.0
C1155 C 0.34201 0.51465 0.44586 0.0
C1156 C 0.3296 0.52518 0.46944 0.0
C1157 C 0.30483 0.51118 0.47418 0.0
C1158 C 0.29244 0.4866 0.45552 0.0
C1159 C 0.30477 0.47598 0.43195 0.0
C1160 C 0.43568 0.48212 0.46948 0.0
C1161 C 0.42937 0.46908 0.51661 0.0
C1162 C 0.41793 0.48184 0.4341 0.0
C1163 C 0.3937 0.46872 0.44576 0.0
C1164 C 0.38734 0.45557 0.49234 0.0
C1165 C 0.40496 0.45558 0.52721 0.0
C1166 C 0.37472 0.46879 0.41021 0.0
C1167 C 0.36204 0.47953 0.43167 0.0
C1168 C 0.36839 0.45748 0.35673 0.0
C1169 C 0.38138 0.4461 0.33188 0.0
C1170 C 0.38255 0.42708 0.35634 0.0
C1171 C 0.39502 0.41662 0.33276 0.0
C1172 C 0.40622 0.42489 0.28445 0.0
C1173 C 0.40492 0.4436 0.25955 0.0
C1174 C 0.39253 0.45416 0.28304 0.0
H1175 H 0.41585 0.41675 0.26624 0.0
H1176 H 0.29525 0.51937 0.49242 0.0
H1177 H 0.79248 0.27625 0.27838 0.0
H1178 H 0.82227 0.30403 0.35025 0.0
H1179 H 0.87916 0.31762 0.24478 0.0
H1180 H 0.8494 0.28829 0.17473 0.0
H1181 H 0.89588 0.32114 0.34206 0.0
H1182 H 0.85101 0.3544 0.25577 0.0
H1183 H 0.81449 0.35551 0.22576 0.0
H1184 H 0.79669 0.35552 0.39221 0.0
H1185 H 0.83298 0.35411 0.42312 0.0
H1186 H 0.97538 0.44836 0.40214 0.0
H1187 H 0.94523 0.40794 0.36239 0.0
H1188 H 0.90961 0.39261 0.51247 0.0
H1189 H 0.94016 0.43297 0.55326 0.0
H1190 H 0.88084 0.38702 0.40787 0.0
H1191 H 0.93319 0.36196 0.49033 0.0
H1192 H 0.9724 0.36491 0.51174 0.0
H1193 H 0.97924 0.35419 0.34121 0.0
H1194 H 0.94023 0.35158 0.31868 0.0
C1195 C 0.81142 0.28481 0.27129 0.0
C1196 C 0.81879 0.28045 0.22122 0.0
C1197 C 0.82841 0.30078 0.31209 0.0
C1198 C 0.85294 0.31358 0.30234 0.0
C1199 C 0.86036 0.3081 0.2533 0.0
C1200 C 0.8434 0.29143 0.21322 0.0
C1201 C 0.87057 0.33409 0.34079 0.0
C1202 C 0.89257 0.33554 0.35629 0.0
C1203 C 0.86625 0.35285 0.36012 0.0
C1204 C 0.84452 0.35386 0.34167 0.0
C1205 C 0.83922 0.3545 0.28591 0.0
C1206 C 0.81858 0.35519 0.26875 0.0
C1207 C 0.80324 0.35551 0.30704 0.0
C1208 C 0.80855 0.35522 0.36259 0.0
C1209 C 0.82916 0.35448 0.37996 0.0
C1210 C 0.96124 0.43633 0.42686 0.0
C1211 C 0.95998 0.44383 0.48063 0.0
C1212 C 0.94417 0.41322 0.40424 0.0
C1213 C 0.92538 0.39738 0.43471 0.0
C1214 C 0.92414 0.40464 0.4886 0.0
C1215 C 0.94154 0.42762 0.51173 0.0
C1216 C 0.90606 0.37412 0.40812 0.0
C1217 C 0.88383 0.37228 0.39459 0.0
C1218 C 0.91049 0.35547 0.38934 0.0
C1219 C 0.93383 0.35673 0.4028 0.0
C1220 C 0.94313 0.36042 0.45735 0.0
C1221 C 0.96531 0.362 0.4697 0.0
C1222 C 0.97832 0.35978 0.42786 0.0
C1223 C 0.96914 0.35591 0.37358 0.0
C1224 C 0.94697 0.35434 0.36101 0.0
H1225 H 0.9955 0.36102 0.4375 0.0
H1226 H 0.78726 0.35604 0.29368 0.0
H1227 H 0.50187 0.77698 0.16289 0.0
H1228 H 0.49904 0.80146 0.23794 0.0
H1229 H 0.57539 0.83538 0.27781 0.0
H1230 H 0.57857 0.81087 0.20186 0.0
H1231 H 0.54201 0.82216 0.37267 0.0
H1232 H 0.56349 0.86644 0.20967 0.0
H1233 H 0.55917 0.87058 0.11121 0.0
H1234 H 0.48657 0.85488 0.12612 0.0
H1235 H 0.49033 0.85022 0.22457 0.0
H1236 H 0.56058 0.93366 0.5047 0.0
H1237 H 0.56062 0.89913 0.4576 0.0
H1238 H 0.49069 0.87642 0.37887 0.0
H1239 H 0.49076 0.91131 0.42474 0.0
H1240 H 0.52151 0.88275 0.30641 0.0
H1241 H 0.50045 0.84165 0.47078 0.0
H1242 H 0.5039 0.83665 0.56906 0.0
H1243 H 0.57409 0.84556 0.55377 0.0
H1244 H 0.57125 0.851 0.45556 0.0
C1245 C 0.5181 0.7894 0.18783 0.0
C1246 C 0.54053 0.79221 0.17588 0.0
C1247 C 0.51638 0.80327 0.23094 0.0
C1248 C 0.53699 0.82018 0.26316 0.0
C1249 C 0.55928 0.82226 0.2534 0.0
C1250 C 0.56107 0.80842 0.2098 0.0
C1251 C 0.53534 0.8375 0.30229 0.0
C1252 C 0.53786 0.83568 0.35857 0.0
C1253 C 0.52932 0.8546 0.28341 0.0
C1254 C 0.52711 0.85773 0.22435 0.0
C1255 C 0.54653 0.86366 0.19186 0.0
C1256 C 0.5442 0.86613 0.13607 0.0
C1257 C 0.52258 0.86292 0.11238 0.0
C1258 C 0.50329 0.85731 0.1445 0.0
C1259 C 0.50552 0.85477 0.2003 0.0
C1260 C 0.54491 0.921 0.47843 0.0
C1261 C 0.52585 0.9255 0.46767 0.0
C1262 C 0.54493 0.90115 0.45172 0.0
C1263 C 0.52572 0.88524 0.41449 0.0
C1264 C 0.50579 0.88858 0.40717 0.0
C1265 C 0.50585 0.90854 0.43345 0.0
C1266 C 0.5279 0.86747 0.37755 0.0
C1267 C 0.52557 0.86925 0.32117 0.0
C1268 C 0.53403 0.85039 0.39668 0.0
C1269 C 0.53573 0.84697 0.45578 0.0
C1270 C 0.51672 0.84276 0.48842 0.0
C1271 C 0.51854 0.8398 0.54413 0.0
C1272 C 0.53923 0.84086 0.56766 0.0
C1273 C 0.55809 0.84477 0.53549 0.0
C1274 C 0.55637 0.84777 0.47978 0.0
H1275 H 0.54064 0.83862 0.6108 0.0
H1276 H 0.5208 0.86484 0.06918 0.0
H1277 H 0.73251 0.50387 0.22596 0.0
H1278 H 0.70207 0.50465 0.2817 0.0
H1279 H 0.72539 0.57817 0.24164 0.0
H1280 H 0.75575 0.57767 0.18629 0.0
H1281 H 0.70213 0.535 0.37043 0.0
H1282 H 0.67392 0.57971 0.20499 0.0
H1283 H 0.67534 0.58333 0.10548 0.0
H1284 H 0.67437 0.51541 0.08364 0.0
H1285 H 0.67249 0.51118 0.1828 0.0
H1286 H 0.61659 0.56276 0.47934 0.0
H1287 H 0.65177 0.56746 0.43387 0.0
H1288 H 0.6051 0.51027 0.31227 0.0
H1289 H 0.57009 0.50578 0.3564 0.0
H1290 H 0.64065 0.54538 0.26519 0.0
H1291 H 0.63267 0.49933 0.42125 0.0
H1292 H 0.62971 0.49185 0.51898 0.0
H1293 H 0.69935 0.55503 0.55633 0.0
H1294 H 0.70257 0.56306 0.45884 0.0
C1295 C 0.73147 0.52036 0.22988 0.0
C1296 C 0.7464 0.5406 0.20114 0.0
C1297 C 0.71411 0.52079 0.26183 0.0
C1298 C 0.71131 0.54136 0.26514 0.0
C1299 C 0.72711 0.56204 0.23913 0.0
C1300 C 0.74447 0.56168 0.20749 0.0
C1301 C 0.69065 0.5406 0.2916 0.0
C1302 C 0.68873 0.53738 0.34759 0.0
C1303 C 0.67298 0.54328 0.26143 0.0
C1304 C 0.67335 0.5453 0.20145 0.0
C1305 C 0.67388 0.5655 0.17892 0.0
C1306 C 0.67477 0.56765 0.12256 0.0
C1307 C 0.67504 0.54966 0.08827 0.0
C1308 C 0.67426 0.52939 0.11024 0.0
C1309 C 0.67329 0.52711 0.16652 0.0
C1310 C 0.61382 0.55141 0.44253 0.0
C1311 C 0.59046 0.53378 0.42184 0.0
C1312 C 0.63395 0.55402 0.41676 0.0
C1313 C 0.63109 0.53898 0.37003 0.0
C1314 C 0.6078 0.52206 0.34826 0.0
C1315 C 0.58775 0.51946 0.37381 0.0
C1316 C 0.65215 0.54007 0.34447 0.0
C1317 C 0.65416 0.54329 0.28837 0.0
C1318 C 0.66957 0.53684 0.37433 0.0
C1319 C 0.66774 0.53194 0.43286 0.0
C1320 C 0.64727 0.51172 0.45037 0.0
C1321 C 0.64556 0.50737 0.5057 0.0
C1322 C 0.6643 0.523 0.54386 0.0
C1323 C 0.68483 0.54296 0.52674 0.0
C1324 C 0.68661 0.54742 0.47145 0.0
H1325 H 0.66294 0.5196 0.58668 0.0
H1326 H 0.6758 0.5514 0.04468 0.0
H1327 H 0.18672 0.74705 0.2534 0.0
H1328 H 0.1661 0.72106 0.32549 0.0
H1329 H 0.2009 0.67914 0.29304 0.0
H1330 H 0.22231 0.70575 0.22096 0.0
H1331 H 0.13439 0.67503 0.31865 0.0
H1332 H 0.20455 0.65315 0.41277 0.0
H1333 H 0.2486 0.67154 0.42635 0.0
H1334 H 0.25714 0.74296 0.42373 0.0
H1335 H 0.21314 0.72502 0.41088 0.0
H1336 H 0.10145 0.57653 0.50746 0.0
H1337 H 0.13413 0.60772 0.45992 0.0
H1338 H 0.11177 0.65922 0.50665 0.0
H1339 H 0.07901 0.6281 0.55464 0.0
H1340 H 0.17306 0.65744 0.47534 0.0
H1341 H 0.10324 0.67982 0.38162 0.0
H1342 H 0.05929 0.66165 0.3685 0.0
H1343 H 0.0503 0.59006 0.37115 0.0
H1344 H 0.09432 0.6078 0.3823 0.0
C1345 C 0.19012 0.73236 0.26146 0.0
C1346 C 0.20612 0.72842 0.23112 0.0
C1347 C 0.17827 0.71749 0.30286 0.0
C1348 C 0.18197 0.69818 0.31501 0.0
C1349 C 0.19801 0.69415 0.285 0.0
C1350 C 0.21012 0.70926 0.2436 0.0
C1351 C 0.16808 0.6819 0.35757 0.0
C1352 C 0.14297 0.67152 0.35325 0.0
C1353 C 0.17911 0.67668 0.40203 0.0
C1354 C 0.20557 0.68771 0.41016 0.0
C1355 C 0.21583 0.67278 0.41521 0.0
C1356 C 0.24079 0.68312 0.42278 0.0
C1357 C 0.25567 0.70839 0.42568 0.0
C1358 C 0.24561 0.72338 0.42122 0.0
C1359 C 0.22066 0.71313 0.41371 0.0
C1360 C 0.10413 0.5948 0.50963 0.0
C1361 C 0.0875 0.59983 0.53399 0.0
C1362 C 0.12287 0.61261 0.48256 0.0
C1363 C 0.12505 0.63556 0.47895 0.0
C1364 C 0.11018 0.64147 0.50857 0.0
C1365 C 0.09157 0.62373 0.53629 0.0
C1366 C 0.13966 0.6514 0.43693 0.0
C1367 C 0.16469 0.66127 0.4409 0.0
C1368 C 0.12862 0.65623 0.39197 0.0
C1369 C 0.10209 0.6452 0.38376 0.0
C1370 C 0.0919 0.6602 0.37917 0.0
C1371 C 0.06695 0.64996 0.37201 0.0
C1372 C 0.05195 0.62471 0.36944 0.0
C1373 C 0.06192 0.60962 0.37343 0.0
C1374 C 0.08689 0.61977 0.38009 0.0
H1375 H 0.03263 0.61685 0.36414 0.0
H1376 H 0.27498 0.71636 0.43151 0.0
loop_
_geom_bond_atom_site_label_1
_geom_bond_atom_site_label_2
_geom_bond_distance
_geom_bond_site_symmetry_2
_ccdc_geom_bond_type
C0 O2 1.247 . S
C0 O4 1.258 . S
C1 O8 1.247 . S
C1 O9 1.258 . S
O2 C0 1.247 . S
O2 Zn3 2.028 . S
Zn3 O2 2.028 . S
Zn3 O7 2.035 . S
Zn3 O9 2.035 . S
Zn3 O10 2.028 . S
O4 C0 1.258 . S
O4 Zn5 2.035 . S
Zn5 O4 2.035 . S
Zn5 O6 2.028 . S
Zn5 O8 2.028 . S
Zn5 O11 2.035 . S
O6 Zn5 2.028 . S
O6 C12 1.247 . S
O7 Zn3 2.035 . S
O7 C12 1.258 . S
O8 C1 1.247 . S
O8 Zn5 2.028 . S
O9 C1 1.258 . S
O9 Zn3 2.035 . S
O10 Zn3 2.028 . S
O10 C13 1.247 . S
O11 Zn5 2.035 . S
O11 C13 1.258 . S
C12 O6 1.247 . S
C12 O7 1.258 . S
C13 O10 1.247 . S
C13 O11 1.258 . S
C14 O16 1.247 . S
C14 O18 1.258 . S
C15 O22 1.247 . S
C15 O23 1.258 . S
O16 C14 1.247 . S
O16 Zn17 2.028 . S
Zn17 O16 2.028 . S
Zn17 O21 2.035 . S
Zn17 O23 2.035 . S
Zn17 O24 2.028 . S
O18 C14 1.258 . S
O18 Zn19 2.035 . S
Zn19 O18 2.035 . S
Zn19 O20 2.028 . S
Zn19 O22 2.028 . S
Zn19 O25 2.035 . S
O20 Zn19 2.028 . S
O20 C26 1.247 . S
O21 Zn17 2.035 . S
O21 C26 1.258 . S
O22 C15 1.247 . S
O22 Zn19 2.028 . S
O23 C15 1.258 . S
O23 Zn17 2.035 . S
O24 Zn17 2.028 . S
O24 C27 1.247 . S
O25 Zn19 2.035 . S
O25 C27 1.258 . S
C26 O20 1.247 . S
C26 O21 1.258 . S
C27 O24 1.247 . S
C27 O25 1.258 . S
C28 O30 1.247 . S
C28 O32 1.258 . S
C29 O36 1.247 . S
C29 O37 1.258 . S
O30 C28 1.247 . S
O30 Zn31 2.028 . S
Zn31 O30 2.028 . S
Zn31 O35 2.035 . S
Zn31 O37 2.035 1_554 S
Zn31 O38 2.028 1_554 S
O32 C28 1.258 . S
O32 Zn33 2.035 . S
Zn33 O32 2.035 . S
Zn33 O34 2.028 . S
Zn33 O36 2.028 1_554 S
Zn33 O39 2.035 1_554 S
O34 Zn33 2.028 . S
O34 C40 1.247 . S
O35 Zn31 2.035 . S
O35 C40 1.258 . S
O36 C29 1.247 . S
O36 Zn33 2.028 1_556 S
O37 C29 1.258 . S
O37 Zn31 2.035 1_556 S
O38 Zn31 2.028 1_556 S
O38 C41 1.247 . S
O39 Zn33 2.035 1_556 S
O39 C41 1.258 . S
C40 O34 1.247 . S
C40 O35 1.258 . S
C41 O38 1.247 . S
C41 O39 1.258 . S
C42 O44 1.247 . S
C42 O46 1.258 . S
C43 O50 1.247 . S
C43 O51 1.258 . S
O44 C42 1.247 . S
O44 Zn45 2.028 1_556 S
Zn45 O44 2.028 1_554 S
Zn45 O49 2.035 1_554 S
Zn45 O51 2.035 . S
Zn45 O52 2.028 . S
O46 C42 1.258 . S
O46 Zn47 2.035 1_556 S
Zn47 O46 2.035 1_554 S
Zn47 O48 2.028 1_554 S
Zn47 O50 2.028 . S
Zn47 O53 2.035 . S
O48 Zn47 2.028 1_556 S
O48 C54 1.247 . S
O49 Zn45 2.035 1_556 S
O49 C54 1.258 . S
O50 C43 1.247 . S
O50 Zn47 2.028 . S
O51 C43 1.258 . S
O51 Zn45 2.035 . S
O52 Zn45 2.028 . S
O52 C55 1.247 . S
O53 Zn47 2.035 . S
O53 C55 1.258 . S
C54 O48 1.247 . S
C54 O49 1.258 . S
C55 O52 1.247 . S
C55 O53 1.258 . S
C56 O58 1.247 . S
C56 O60 1.258 . S
C57 O64 1.247 . S
C57 O65 1.258 . S
O58 C56 1.247 . S
O58 Zn59 2.028 . S
Zn59 O58 2.028 . S
Zn59 O63 2.035 . S
Zn59 O65 2.035 . S
Zn59 O66 2.028 . S
O60 C56 1.258 . S
O60 Zn61 2.035 . S
Zn61 O60 2.035 . S
Zn61 O62 2.028 . S
Zn61 O64 2.028 . S
Zn61 O67 2.035 . S
O62 Zn61 2.028 . S
O62 C68 1.247 . S
O63 Zn59 2.035 . S
O63 C68 1.258 . S
O64 C57 1.247 . S
O64 Zn61 2.028 . S
O65 C57 1.258 . S
O65 Zn59 2.035 . S
O66 Zn59 2.028 . S
O66 C69 1.247 . S
O67 Zn61 2.035 . S
O67 C69 1.258 . S
C68 O62 1.247 . S
C68 O63 1.258 . S
C69 O66 1.247 . S
C69 O67 1.258 . S
C70 O72 1.247 . S
C70 O74 1.258 . S
C71 O78 1.247 . S
C71 O79 1.258 . S
O72 C70 1.247 . S
O72 Zn73 2.028 . S
Zn73 O72 2.028 . S
Zn73 O77 2.035 . S
Zn73 O79 2.035 . S
Zn73 O80 2.028 . S
O74 C70 1.258 . S
O74 Zn75 2.035 . S
Zn75 O74 2.035 . S
Zn75 O76 2.028 . S
Zn75 O78 2.028 . S
Zn75 O81 2.035 . S
O76 Zn75 2.028 . S
O76 C82 1.247 . S
O77 Zn73 2.035 . S
O77 C82 1.258 . S
O78 C71 1.247 . S
O78 Zn75 2.028 . S
O79 C71 1.258 . S
O79 Zn73 2.035 . S
O80 Zn73 2.028 . S
O80 C83 1.247 . S
O81 Zn75 2.035 . S
O81 C83 1.258 . S
C82 O76 1.247 . S
C82 O77 1.258 . S
C83 O80 1.247 . S
C83 O81 1.258 . S
C84 O111 1.312 . S
C84 O112 1.208 . S
C85 O106 1.331 . S
C85 O109 1.244 . S
C86 O108 1.264 . S
C86 O110 1.273 . S
Mg87 O89 1.936 1_455 S
Mg87 O96 2.081 1_455 S
Mg87 O98 2.023 . S
Mg87 O102 2.031 1_455 S
Mg87 O111 2.291 . S
Mg88 O89 1.963 . S
Mg88 O99 1.942 . S
Mg88 O100 1.955 1_655 S
Mg88 O107 1.986 . S
O89 Mg87 1.936 1_655 S
O89 Mg88 1.963 . S
O89 Mg90 1.915 1_655 S
Mg90 O89 1.915 1_455 S
Mg90 O91 1.915 . S
Mg90 O95 2.013 . S
Mg90 O101 2.114 1_455 S
Mg90 O105 2.013 1_455 S
Mg90 O111 2.114 . S
O91 Mg90 1.915 . S
O91 Mg92 1.936 . S
O91 Mg93 1.963 . S
Mg92 O91 1.936 . S
Mg92 O101 2.291 1_455 S
Mg92 O106 2.081 . S
Mg92 O108 2.023 1_455 S
Mg92 O112 2.031 . S
Mg93 O91 1.963 . S
Mg93 O97 1.986 . S
Mg93 O109 1.942 . S
Mg93 O110 1.955 1_455 S
C94 O105 1.191 . S
C94 O107 1.307 . S
O95 Mg90 2.013 . S
O95 C114 1.191 . S
O96 Mg87 2.081 1_655 S
O96 C104 1.331 . S
O97 Mg93 1.986 . S
O97 C114 1.307 . S
O98 Mg87 2.023 . S
O98 C113 1.264 . S
O99 Mg88 1.942 . S
O99 C104 1.244 . S
O100 Mg88 1.955 1_455 S
O100 C113 1.273 . S
O101 Mg90 2.114 1_655 S
O101 Mg92 2.291 1_655 S
O101 C103 1.312 . S
O102 Mg87 2.031 1_655 S
O102 C103 1.208 . S
C103 O101 1.312 . S
C103 O102 1.208 . S
C104 O96 1.331 . S
C104 O99 1.244 . S
O105 Mg90 2.013 1_655 S
O105 C94 1.191 . S
O106 C85 1.331 . S
O106 Mg92 2.081 . S
O107 Mg88 1.986 . S
O107 C94 1.307 . S
O108 C86 1.264 . S
O108 Mg92 2.023 1_655 S
O109 C85 1.244 . S
O109 Mg93 1.942 . S
O110 C86 1.273 . S
O110 Mg93 1.955 1_655 S
O111 C84 1.312 . S
O111 Mg87 2.291 . S
O111 Mg90 2.114 . S
O112 C84 1.208 . S
O112 Mg92 2.031 . S
C113 O98 1.264 . S
C113 O100 1.273 . S
C114 O95 1.191 . S
C114 O97 1.307 . S
C115 O142 1.312 . S
C115 O143 1.208 . S
C116 O137 1.331 . S
C116 O140 1.244 . S
C117 O139 1.264 . S
C117 O141 1.273 . S
Mg118 O120 1.936 1_545 S
Mg118 O127 2.081 1_545 S
Mg118 O129 2.023 . S
Mg118 O133 2.031 1_545 S
Mg118 O142 2.291 . S
Mg119 O120 1.963 . S
Mg119 O130 1.942 . S
Mg119 O131 1.955 1_565 S
Mg119 O138 1.986 . S
O120 Mg118 1.936 1_565 S
O120 Mg119 1.963 . S
O120 Mg121 1.915 1_565 S
Mg121 O120 1.915 1_545 S
Mg121 O122 1.915 . S
Mg121 O126 2.013 . S
Mg121 O132 2.114 1_545 S
Mg121 O136 2.013 1_545 S
Mg121 O142 2.114 . S
O122 Mg121 1.915 . S
O122 Mg123 1.936 . S
O122 Mg124 1.963 . S
Mg123 O122 1.936 . S
Mg123 O132 2.291 1_545 S
Mg123 O137 2.081 . S
Mg123 O139 2.023 1_545 S
Mg123 O143 2.031 . S
Mg124 O122 1.963 . S
Mg124 O128 1.986 . S
Mg124 O140 1.942 . S
Mg124 O141 1.955 1_545 S
C125 O136 1.191 . S
C125 O138 1.307 . S
O126 Mg121 2.013 . S
O126 C145 1.191 . S
O127 Mg118 2.081 1_565 S
O127 C135 1.331 . S
O128 Mg124 1.986 . S
O128 C145 1.307 . S
O129 Mg118 2.023 . S
O129 C144 1.264 . S
O130 Mg119 1.942 . S
O130 C135 1.244 . S
O131 Mg119 1.955 1_545 S
O131 C144 1.273 . S
O132 Mg121 2.114 1_565 S
O132 Mg123 2.291 1_565 S
O132 C134 1.312 . S
O133 Mg118 2.031 1_565 S
O133 C134 1.208 . S
C134 O132 1.312 . S
C134 O133 1.208 . S
C135 O127 1.331 . S
C135 O130 1.244 . S
O136 Mg121 2.013 1_565 S
O136 C125 1.191 . S
O137 C116 1.331 . S
O137 Mg123 2.081 . S
O138 Mg119 1.986 . S
O138 C125 1.307 . S
O139 C117 1.264 . S
O139 Mg123 2.023 1_565 S
O140 C116 1.244 . S
O140 Mg124 1.942 . S
O141 C117 1.273 . S
O141 Mg124 1.955 1_565 S
O142 C115 1.312 . S
O142 Mg118 2.291 . S
O142 Mg121 2.114 . S
O143 C115 1.208 . S
O143 Mg123 2.031 . S
C144 O129 1.264 . S
C144 O131 1.273 . S
C145 O126 1.191 . S
C145 O128 1.307 . S
C146 O173 1.312 . S
C146 O174 1.208 . S
C147 O168 1.331 . S
C147 O171 1.244 . S
C148 O170 1.264 . S
C148 O172 1.273 . S
Mg149 O151 1.936 . S
Mg149 O158 2.081 . S
Mg149 O160 2.023 . S
Mg149 O164 2.031 . S
Mg149 O173 2.291 . S
Mg150 O151 1.963 . S
Mg150 O161 1.942 . S
Mg150 O162 1.955 . S
Mg150 O169 1.986 . S
O151 Mg149 1.936 . S
O151 Mg150 1.963 . S
O151 Mg152 1.915 . S
Mg152 O151 1.915 . S
Mg152 O153 1.915 . S
Mg152 O157 2.013 . S
Mg152 O163 2.114 . S
Mg152 O167 2.013 . S
Mg152 O173 2.114 . S
O153 Mg152 1.915 . S
O153 Mg154 1.936 . S
O153 Mg155 1.963 . S
Mg154 O153 1.936 . S
Mg154 O163 2.291 . S
Mg154 O168 2.081 . S
Mg154 O170 2.023 . S
Mg154 O174 2.031 . S
Mg155 O153 1.963 . S
Mg155 O159 1.986 . S
Mg155 O171 1.942 . S
Mg155 O172 1.955 . S
C156 O167 1.191 . S
C156 O169 1.307 . S
O157 Mg152 2.013 . S
O157 C176 1.191 . S
O158 Mg149 2.081 . S
O158 C166 1.331 . S
O159 Mg155 1.986 . S
O159 C176 1.307 . S
O160 Mg149 2.023 . S
O160 C175 1.264 . S
O161 Mg150 1.942 . S
O161 C166 1.244 . S
O162 Mg150 1.955 . S
O162 C175 1.273 . S
O163 Mg152 2.114 . S
O163 Mg154 2.291 . S
O163 C165 1.312 . S
O164 Mg149 2.031 . S
O164 C165 1.208 . S
C165 O163 1.312 . S
C165 O164 1.208 . S
C166 O158 1.331 . S
C166 O161 1.244 . S
O167 Mg152 2.013 . S
O167 C156 1.191 . S
O168 C147 1.331 . S
O168 Mg154 2.081 . S
O169 Mg150 1.986 . S
O169 C156 1.307 . S
O170 C148 1.264 . S
O170 Mg154 2.023 . S
O171 C147 1.244 . S
O171 Mg155 1.942 . S
O172 C148 1.273 . S
O172 Mg155 1.955 . S
O173 C146 1.312 . S
O173 Mg149 2.291 . S
O173 Mg152 2.114 . S
O174 C146 1.208 . S
O174 Mg154 2.031 . S
C175 O160 1.264 . S
C175 O162 1.273 . S
C176 O157 1.191 . S
C176 O159 1.307 . S
H177 C195 0.951 . S
H178 C197 0.951 . S
H179 C199 0.950 . S
H180 C200 0.950 . S
H181 C202 0.950 . S
H182 C205 0.950 . S
H183 C206 0.950 . S
H184 C208 0.950 . S
H185 C209 0.950 . S
H186 C210 0.951 . S
H187 C212 0.951 . S
H188 C214 0.950 . S
H189 C215 0.950 . S
H190 C217 0.950 . S
H191 C220 0.950 . S
H192 C221 0.950 . S
H193 C223 0.950 . S
H194 C224 0.950 . S
C195 H177 0.951 . S
C195 C196 1.366 . S
C195 C197 1.388 . S
C196 C195 1.366 . S
C196 C200 1.385 . S
C197 H178 0.951 . S
C197 C195 1.388 . S
C197 C198 1.366 . S
C198 C197 1.366 . S
C198 C199 1.414 . S
C198 C201 1.499 . S
C199 H179 0.950 . S
C199 C198 1.414 . S
C199 C200 1.374 . S
C200 H180 0.950 . S
C200 C196 1.385 . S
C200 C199 1.374 . S
C201 C198 1.499 . S
C201 C202 1.373 . S
C201 C203 1.389 . S
C202 H181 0.950 . S
C202 C201 1.373 . S
C202 C218 1.377 . S
C203 C201 1.389 . S
C203 C204 1.524 . S
C203 C217 1.377 . S
C204 C203 1.524 . S
C204 C205 1.397 . S
C204 C209 1.363 . S
C205 H182 0.950 . S
C205 C204 1.397 . S
C205 C206 1.334 . S
C206 H183 0.950 . S
C206 C205 1.334 . S
C206 C207 1.287 . S
C207 C206 1.287 . S
C207 C208 1.524 . S
C207 H226 0.913 . S
C208 H184 0.950 . S
C208 C207 1.524 . S
C208 C209 1.415 . S
C209 H185 0.950 . S
C209 C204 1.363 . S
C209 C208 1.415 . S
C210 H186 0.951 . S
C210 C211 1.366 . S
C210 C212 1.388 . S
C211 C210 1.366 . S
C211 C215 1.385 . S
C212 H187 0.951 . S
C212 C210 1.388 . S
C212 C213 1.366 . S
C213 C212 1.366 . S
C213 C214 1.414 . S
C213 C216 1.499 . S
C214 H188 0.950 . S
C214 C213 1.414 . S
C214 C215 1.374 . S
C215 H189 0.950 . S
C215 C211 1.385 . S
C215 C214 1.374 . S
C216 C213 1.499 . S
C216 C217 1.373 . S
C216 C218 1.389 . S
C217 H190 0.950 . S
C217 C203 1.377 . S
C217 C216 1.373 . S
C218 C202 1.377 . S
C218 C216 1.389 . S
C218 C219 1.524 . S
C219 C218 1.524 . S
C219 C220 1.397 . S
C219 C224 1.363 . S
C220 H191 0.950 . S
C220 C219 1.397 . S
C220 C221 1.334 . S
C221 H192 0.950 . S
C221 C220 1.334 . S
C221 C222 1.287 . S
C222 C221 1.287 . S
C222 C223 1.524 . S
C222 H225 0.999 . S
C223 H193 0.950 . S
C223 C222 1.524 . S
C223 C224 1.415 . S
C224 H194 0.950 . S
C224 C219 1.363 . S
C224 C223 1.415 . S
H225 C222 0.999 . S
H226 C207 0.913 . S
H227 C245 0.951 . S
H228 C247 0.951 . S
H229 C249 0.950 . S
H230 C250 0.950 . S
H231 C252 0.950 . S
H232 C255 0.950 . S
H233 C256 0.950 . S
H234 C258 0.950 . S
H235 C259 0.950 . S
H236 C260 0.951 . S
H237 C262 0.951 . S
H238 C264 0.950 . S
H239 C265 0.950 . S
H240 C267 0.950 . S
H241 C270 0.950 . S
H242 C271 0.950 . S
H243 C273 0.950 . S
H244 C274 0.950 . S
C245 H227 0.951 . S
C245 C246 1.366 . S
C245 C247 1.388 . S
C246 C245 1.366 . S
C246 C250 1.385 . S
C247 H228 0.951 . S
C247 C245 1.388 . S
C247 C248 1.366 . S
C248 C247 1.366 . S
C248 C249 1.414 . S
C248 C251 1.499 . S
C249 H229 0.950 . S
C249 C248 1.414 . S
C249 C250 1.374 . S
C250 H230 0.950 . S
C250 C246 1.385 . S
C250 C249 1.374 . S
C251 C248 1.499 . S
C251 C252 1.373 . S
C251 C253 1.389 . S
C252 H231 0.950 . S
C252 C251 1.373 . S
C252 C268 1.377 . S
C253 C251 1.389 . S
C253 C254 1.524 . S
C253 C267 1.377 . S
C254 C253 1.524 . S
C254 C255 1.397 . S
C254 C259 1.363 . S
C255 H232 0.950 . S
C255 C254 1.397 . S
C255 C256 1.334 . S
C256 H233 0.950 . S
C256 C255 1.334 . S
C256 C257 1.287 . S
C257 C256 1.287 . S
C257 C258 1.524 . S
C257 H276 0.913 . S
C258 H234 0.950 . S
C258 C257 1.524 . S
C258 C259 1.415 . S
C259 H235 0.950 . S
C259 C254 1.363 . S
C259 C258 1.415 . S
C260 H236 0.951 . S
C260 C261 1.366 . S
C260 C262 1.388 . S
C261 C260 1.366 . S
C261 C265 1.385 . S
C262 H237 0.951 . S
C262 C260 1.388 . S
C262 C263 1.366 . S
C263 C262 1.366 . S
C263 C264 1.414 . S
C263 C266 1.499 . S
C264 H238 0.950 . S
C264 C263 1.414 . S
C264 C265 1.374 . S
C265 H239 0.950 . S
C265 C261 1.385 . S
C265 C264 1.374 . S
C266 C263 1.499 . S
C266 C267 1.373 . S
C266 C268 1.389 . S
C267 H240 0.950 . S
C267 C253 1.377 . S
C267 C266 1.373 . S
C268 C252 1.377 . S
C268 C266 1.389 . S
C268 C269 1.524 . S
C269 C268 1.524 . S
C269 C270 1.397 . S
C269 C274 1.363 . S
C270 H241 0.950 . S
C270 C269 1.397 . S
C270 C271 1.334 . S
C271 H242 0.950 . S
C271 C270 1.334 . S
C271 C272 1.287 . S
C272 C271 1.287 . S
C272 C273 1.524 . S
C272 H275 0.999 . S
C273 H243 0.950 . S
C273 C272 1.524 . S
C273 C274 1.415 . S
C274 H244 0.950 . S
C274 C269 1.363 . S
C274 C273 1.415 . S
H275 C272 0.999 . S
H276 C257 0.913 . S
H277 C295 0.951 . S
H278 C297 0.951 . S
H279 C299 0.950 . S
H280 C300 0.950 . S
H281 C302 0.950 . S
H282 C305 0.950 . S
H283 C306 0.950 . S
H284 C308 0.950 . S
H285 C309 0.950 . S
H286 C310 0.951 . S
H287 C312 0.951 . S
H288 C314 0.950 . S
H289 C315 0.950 . S
H290 C317 0.950 . S
H291 C320 0.950 . S
H292 C321 0.950 . S
H293 C323 0.950 . S
H294 C324 0.950 . S
C295 H277 0.951 . S
C295 C296 1.366 . S
C295 C297 1.388 . S
C296 C295 1.366 . S
C296 C300 1.385 . S
C297 H278 0.951 . S
C297 C295 1.388 . S
C297 C298 1.366 . S
C298 C297 1.366 . S
C298 C299 1.414 . S
C298 C301 1.499 . S
C299 H279 0.950 . S
C299 C298 1.414 . S
C299 C300 1.374 . S
C300 H280 0.950 . S
C300 C296 1.385 . S
C300 C299 1.374 . S
C301 C298 1.499 . S
C301 C302 1.373 . S
C301 C303 1.389 . S
C302 H281 0.950 . S
C302 C301 1.373 . S
C302 C318 1.377 . S
C303 C301 1.389 . S
C303 C304 1.524 . S
C303 C317 1.377 . S
C304 C303 1.524 . S
C304 C305 1.397 . S
C304 C309 1.363 . S
C305 H282 0.950 . S
C305 C304 1.397 . S
C305 C306 1.334 . S
C306 H283 0.950 . S
C306 C305 1.334 . S
C306 C307 1.287 . S
C307 C306 1.287 . S
C307 C308 1.524 . S
C307 H326 0.913 . S
C308 H284 0.950 . S
C308 C307 1.524 . S
C308 C309 1.415 . S
C309 H285 0.950 . S
C309 C304 1.363 . S
C309 C308 1.415 . S
C310 H286 0.951 . S
C310 C311 1.366 . S
C310 C312 1.388 . S
C311 C310 1.366 . S
C311 C315 1.385 . S
C312 H287 0.951 . S
C312 C310 1.388 . S
C312 C313 1.366 . S
C313 C312 1.366 . S
C313 C314 1.414 . S
C313 C316 1.499 . S
C314 H288 0.950 . S
C314 C313 1.414 . S
C314 C315 1.374 . S
C315 H289 0.950 . S
C315 C311 1.385 . S
C315 C314 1.374 . S
C316 C313 1.499 . S
C316 C317 1.373 . S
C316 C318 1.389 . S
C317 H290 0.950 . S
C317 C303 1.377 . S
C317 C316 1.373 . S
C318 C302 1.377 . S
C318 C316 1.389 . S
C318 C319 1.524 . S
C319 C318 1.524 . S
C319 C320 1.397 . S
C319 C324 1.363 . S
C320 H291 0.950 . S
C320 C319 1.397 . S
C320 C321 1.334 . S
C321 H292 0.950 . S
C321 C320 1.334 . S
C321 C322 1.287 . S
C322 C321 1.287 . S
C322 C323 1.524 . S
C322 H325 0.999 . S
C323 H293 0.950 . S
C323 C322 1.524 . S
C323 C324 1.415 . S
C324 H294 0.950 . S
C324 C319 1.363 . S
C324 C323 1.415 . S
H325 C322 0.999 . S
H326 C307 0.913 . S
H327 C345 0.951 . S
H328 C347 0.951 . S
H329 C349 0.950 . S
H330 C350 0.950 . S
H331 C352 0.950 . S
H332 C355 0.950 . S
H333 C356 0.950 . S
H334 C358 0.950 . S
H335 C359 0.950 . S
H336 C360 0.951 . S
H337 C362 0.951 . S
H338 C364 0.950 . S
H339 C365 0.950 . S
H340 C367 0.950 . S
H341 C370 0.950 . S
H342 C371 0.950 . S
H343 C373 0.950 . S
H344 C374 0.950 . S
C345 H327 0.951 . S
C345 C346 1.366 . S
C345 C347 1.388 . S
C346 C345 1.366 . S
C346 C350 1.385 . S
C347 H328 0.951 . S
C347 C345 1.388 . S
C347 C348 1.366 . S
C348 C347 1.366 . S
C348 C349 1.414 . S
C348 C351 1.499 . S
C349 H329 0.950 . S
C349 C348 1.414 . S
C349 C350 1.374 . S
C350 H330 0.950 . S
C350 C346 1.385 . S
C350 C349 1.374 . S
C351 C348 1.499 . S
C351 C352 1.373 . S
C351 C353 1.389 . S
C352 H331 0.950 . S
C352 C351 1.373 . S
C352 C368 1.377 . S
C353 C351 1.389 . S
C353 C354 1.524 . S
C353 C367 1.377 . S
C354 C353 1.524 . S
C354 C355 1.397 . S
C354 C359 1.363 . S
C355 H332 0.950 . S
C355 C354 1.397 . S
C355 C356 1.334 . S
C356 H333 0.950 . S
C356 C355 1.334 . S
C356 C357 1.287 . S
C357 C356 1.287 . S
C357 C358 1.524 . S
C357 H376 0.913 . S
C358 H334 0.950 . S
C358 C357 1.524 . S
C358 C359 1.415 . S
C359 H335 0.950 . S
C359 C354 1.363 . S
C359 C358 1.415 . S
C360 H336 0.951 . S
C360 C361 1.366 . S
C360 C362 1.388 . S
C361 C360 1.366 . S
C361 C365 1.385 . S
C362 H337 0.951 . S
C362 C360 1.388 . S
C362 C363 1.366 . S
C363 C362 1.366 . S
C363 C364 1.414 . S
C363 C366 1.499 . S
C364 H338 0.950 . S
C364 C363 1.414 . S
C364 C365 1.374 . S
C365 H339 0.950 . S
C365 C361 1.385 . S
C365 C364 1.374 . S
C366 C363 1.499 . S
C366 C367 1.373 . S
C366 C368 1.389 . S
C367 H340 0.950 . S
C367 C353 1.377 . S
C367 C366 1.373 . S
C368 C352 1.377 . S
C368 C366 1.389 . S
C368 C369 1.524 . S
C369 C368 1.524 . S
C369 C370 1.397 . S
C369 C374 1.363 . S
C370 H341 0.950 . S
C370 C369 1.397 . S
C370 C371 1.334 . S
C371 H342 0.950 . S
C371 C370 1.334 . S
C371 C372 1.287 . S
C372 C371 1.287 . S
C372 C373 1.524 . S
C372 H375 0.999 . S
C373 H343 0.950 . S
C373 C372 1.524 . S
C373 C374 1.415 . S
C374 H344 0.950 . S
C374 C369 1.363 . S
C374 C373 1.415 . S
H375 C372 0.999 . S
H376 C357 0.913 . S
H377 C395 0.951 . S
H378 C397 0.951 . S
H379 C399 0.950 . S
H380 C400 0.950 . S
H381 C402 0.950 . S
H382 C405 0.950 . S
H383 C406 0.950 . S
H384 C408 0.950 . S
H385 C409 0.950 . S
H386 C410 0.951 . S
H387 C412 0.951 . S
H388 C414 0.950 . S
H389 C415 0.950 . S
H390 C417 0.950 . S
H391 C420 0.950 . S
H392 C421 0.950 . S
H393 C423 0.950 . S
H394 C424 0.950 . S
C395 H377 0.951 . S
C395 C396 1.366 . S
C395 C397 1.388 . S
C396 C395 1.366 . S
C396 C400 1.385 . S
C397 H378 0.951 . S
C397 C395 1.388 . S
C397 C398 1.366 . S
C398 C397 1.366 . S
C398 C399 1.414 . S
C398 C401 1.499 . S
C399 H379 0.950 . S
C399 C398 1.414 . S
C399 C400 1.374 . S
C400 H380 0.950 . S
C400 C396 1.385 . S
C400 C399 1.374 . S
C401 C398 1.499 . S
C401 C402 1.373 . S
C401 C403 1.389 . S
C402 H381 0.950 . S
C402 C401 1.373 . S
C402 C418 1.377 . S
C403 C401 1.389 . S
C403 C404 1.524 . S
C403 C417 1.377 . S
C404 C403 1.524 . S
C404 C405 1.397 . S
C404 C409 1.363 . S
C405 H382 0.950 . S
C405 C404 1.397 . S
C405 C406 1.334 . S
C406 H383 0.950 . S
C406 C405 1.334 . S
C406 C407 1.287 . S
C407 C406 1.287 . S
C407 C408 1.524 . S
C407 H426 0.913 . S
C408 H384 0.950 . S
C408 C407 1.524 . S
C408 C409 1.415 . S
C409 H385 0.950 . S
C409 C404 1.363 . S
C409 C408 1.415 . S
C410 H386 0.951 . S
C410 C411 1.366 . S
C410 C412 1.388 . S
C411 C410 1.366 . S
C411 C415 1.385 . S
C412 H387 0.951 . S
C412 C410 1.388 . S
C412 C413 1.366 . S
C413 C412 1.366 . S
C413 C414 1.414 . S
C413 C416 1.499 . S
C414 H388 0.950 . S
C414 C413 1.414 . S
C414 C415 1.374 . S
C415 H389 0.950 . S
C415 C411 1.385 . S
C415 C414 1.374 . S
C416 C413 1.499 . S
C416 C417 1.373 . S
C416 C418 1.389 . S
C417 H390 0.950 . S
C417 C403 1.377 . S
C417 C416 1.373 . S
C418 C402 1.377 . S
C418 C416 1.389 . S
C418 C419 1.524 . S
C419 C418 1.524 . S
C419 C420 1.397 . S
C419 C424 1.363 . S
C420 H391 0.950 . S
C420 C419 1.397 . S
C420 C421 1.334 . S
C421 H392 0.950 . S
C421 C420 1.334 . S
C421 C422 1.287 . S
C422 C421 1.287 . S
C422 C423 1.524 . S
C422 H425 0.999 . S
C423 H393 0.950 . S
C423 C422 1.524 . S
C423 C424 1.415 . S
C424 H394 0.950 . S
C424 C419 1.363 . S
C424 C423 1.415 . S
H425 C422 0.999 . S
H426 C407 0.913 . S
H427 C445 0.951 . S
H428 C447 0.951 . S
H429 C449 0.950 . S
H430 C450 0.950 . S
H431 C452 0.950 . S
H432 C455 0.950 . S
H433 C456 0.950 . S
H434 C458 0.950 . S
H435 C459 0.950 . S
H436 C460 0.951 . S
H437 C462 0.951 . S
H438 C464 0.950 . S
H439 C465 0.950 . S
H440 C467 0.950 . S
H441 C470 0.950 . S
H442 C471 0.950 . S
H443 C473 0.950 . S
H444 C474 0.950 . S
C445 H427 0.951 . S
C445 C446 1.366 . S
C445 C447 1.388 . S
C446 C445 1.366 . S
C446 C450 1.385 . S
C447 H428 0.951 . S
C447 C445 1.388 . S
C447 C448 1.366 . S
C448 C447 1.366 . S
C448 C449 1.414 . S
C448 C451 1.499 . S
C449 H429 0.950 . S
C449 C448 1.414 . S
C449 C450 1.374 . S
C450 H430 0.950 . S
C450 C446 1.385 . S
C450 C449 1.374 . S
C451 C448 1.499 . S
C451 C452 1.373 . S
C451 C453 1.389 . S
C452 H431 0.950 . S
C452 C451 1.373 . S
C452 C468 1.377 . S
C453 C451 1.389 . S
C453 C454 1.524 . S
C453 C467 1.377 . S
C454 C453 1.524 . S
C454 C455 1.397 . S
C454 C459 1.363 . S
C455 H432 0.950 . S
C455 C454 1.397 . S
C455 C456 1.334 . S
C456 H433 0.950 . S
C456 C455 1.334 . S
C456 C457 1.287 . S
C457 C456 1.287 . S
C457 C458 1.524 . S
C457 H476 0.913 . S
C458 H434 0.950 . S
C458 C457 1.524 . S
C458 C459 1.415 . S
C459 H435 0.950 . S
C459 C454 1.363 . S
C459 C458 1.415 . S
C460 H436 0.951 . S
C460 C461 1.366 . S
C460 C462 1.388 . S
C461 C460 1.366 . S
C461 C465 1.385 . S
C462 H437 0.951 . S
C462 C460 1.388 . S
C462 C463 1.366 . S
C463 C462 1.366 . S
C463 C464 1.414 . S
C463 C466 1.499 . S
C464 H438 0.950 . S
C464 C463 1.414 . S
C464 C465 1.374 . S
C465 H439 0.950 . S
C465 C461 1.385 . S
C465 C464 1.374 . S
C466 C463 1.499 . S
C466 C467 1.373 . S
C466 C468 1.389 . S
C467 H440 0.950 . S
C467 C453 1.377 . S
C467 C466 1.373 . S
C468 C452 1.377 . S
C468 C466 1.389 . S
C468 C469 1.524 . S
C469 C468 1.524 . S
C469 C470 1.397 . S
C469 C474 1.363 . S
C470 H441 0.950 . S
C470 C469 1.397 . S
C470 C471 1.334 . S
C471 H442 0.950 . S
C471 C470 1.334 . S
C471 C472 1.287 . S
C472 C471 1.287 . S
C472 C473 1.524 . S
C472 H475 0.999 . S
C473 H443 0.950 . S
C473 C472 1.524 . S
C473 C474 1.415 . S
C474 H444 0.950 . S
C474 C469 1.363 . S
C474 C473 1.415 . S
H475 C472 0.999 . S
H476 C457 0.913 . S
H477 C495 0.951 . S
H478 C497 0.951 . S
H479 C499 0.950 . S
H480 C500 0.950 . S
H481 C502 0.950 . S
H482 C505 0.950 . S
H483 C506 0.950 . S
H484 C508 0.950 . S
H485 C509 0.950 . S
H486 C510 0.951 . S
H487 C512 0.951 . S
H488 C514 0.950 . S
H489 C515 0.950 . S
H490 C517 0.950 . S
H491 C520 0.950 . S
H492 C521 0.950 . S
H493 C523 0.950 . S
H494 C524 0.950 . S
C495 H477 0.951 . S
C495 C496 1.366 . S
C495 C497 1.388 . S
C496 C495 1.366 . S
C496 C500 1.385 . S
C497 H478 0.951 . S
C497 C495 1.388 . S
C497 C498 1.366 . S
C498 C497 1.366 . S
C498 C499 1.414 . S
C498 C501 1.499 . S
C499 H479 0.950 . S
C499 C498 1.414 . S
C499 C500 1.374 . S
C500 H480 0.950 . S
C500 C496 1.385 . S
C500 C499 1.374 . S
C501 C498 1.499 . S
C501 C502 1.373 . S
C501 C503 1.389 . S
C502 H481 0.950 . S
C502 C501 1.373 . S
C502 C518 1.377 . S
C503 C501 1.389 . S
C503 C504 1.524 . S
C503 C517 1.377 . S
C504 C503 1.524 . S
C504 C505 1.397 . S
C504 C509 1.363 . S
C505 H482 0.950 . S
C505 C504 1.397 . S
C505 C506 1.334 . S
C506 H483 0.950 . S
C506 C505 1.334 . S
C506 C507 1.287 . S
C507 C506 1.287 . S
C507 C508 1.524 . S
C507 H526 0.913 . S
C508 H484 0.950 . S
C508 C507 1.524 . S
C508 C509 1.415 . S
C509 H485 0.950 . S
C509 C504 1.363 . S
C509 C508 1.415 . S
C510 H486 0.951 . S
C510 C511 1.366 . S
C510 C512 1.388 . S
C511 C510 1.366 . S
C511 C515 1.385 . S
C512 H487 0.951 . S
C512 C510 1.388 . S
C512 C513 1.366 . S
C513 C512 1.366 . S
C513 C514 1.414 . S
C513 C516 1.499 . S
C514 H488 0.950 . S
C514 C513 1.414 . S
C514 C515 1.374 . S
C515 H489 0.950 . S
C515 C511 1.385 . S
C515 C514 1.374 . S
C516 C513 1.499 . S
C516 C517 1.373 . S
C516 C518 1.389 . S
C517 H490 0.950 . S
C517 C503 1.377 . S
C517 C516 1.373 . S
C518 C502 1.377 . S
C518 C516 1.389 . S
C518 C519 1.524 . S
C519 C518 1.524 . S
C519 C520 1.397 . S
C519 C524 1.363 . S
C520 H491 0.950 . S
C520 C519 1.397 . S
C520 C521 1.334 . S
C521 H492 0.950 . S
C521 C520 1.334 . S
C521 C522 1.287 . S
C522 C521 1.287 . S
C522 C523 1.524 . S
C522 H525 0.999 1_565 S
C523 H493 0.950 . S
C523 C522 1.524 . S
C523 C524 1.415 . S
C524 H494 0.950 . S
C524 C519 1.363 . S
C524 C523 1.415 . S
H525 C522 0.999 1_545 S
H526 C507 0.913 . S
H527 C545 0.951 . S
H528 C547 0.951 . S
H529 C549 0.950 . S
H530 C550 0.950 . S
H531 C552 0.950 . S
H532 C555 0.950 . S
H533 C556 0.950 . S
H534 C558 0.950 . S
H535 C559 0.950 . S
H536 C560 0.951 . S
H537 C562 0.951 . S
H538 C564 0.950 . S
H539 C565 0.950 . S
H540 C567 0.950 . S
H541 C570 0.950 . S
H542 C571 0.950 . S
H543 C573 0.950 . S
H544 C574 0.950 . S
C545 H527 0.951 . S
C545 C546 1.366 . S
C545 C547 1.388 . S
C546 C545 1.366 . S
C546 C550 1.385 . S
C547 H528 0.951 . S
C547 C545 1.388 . S
C547 C548 1.366 . S
C548 C547 1.366 . S
C548 C549 1.414 . S
C548 C551 1.499 . S
C549 H529 0.950 . S
C549 C548 1.414 . S
C549 C550 1.374 . S
C550 H530 0.950 . S
C550 C546 1.385 . S
C550 C549 1.374 . S
C551 C548 1.499 . S
C551 C552 1.373 . S
C551 C553 1.389 . S
C552 H531 0.950 . S
C552 C551 1.373 . S
C552 C568 1.377 . S
C553 C551 1.389 . S
C553 C554 1.524 . S
C553 C567 1.377 . S
C554 C553 1.524 . S
C554 C555 1.397 . S
C554 C559 1.363 . S
C555 H532 0.950 . S
C555 C554 1.397 . S
C555 C556 1.334 . S
C556 H533 0.950 . S
C556 C555 1.334 . S
C556 C557 1.287 . S
C557 C556 1.287 . S
C557 C558 1.524 . S
C557 H576 0.913 . S
C558 H534 0.950 . S
C558 C557 1.524 . S
C558 C559 1.415 . S
C559 H535 0.950 . S
C559 C554 1.363 . S
C559 C558 1.415 . S
C560 H536 0.951 . S
C560 C561 1.366 . S
C560 C562 1.388 . S
C561 C560 1.366 . S
C561 C565 1.385 . S
C562 H537 0.951 . S
C562 C560 1.388 . S
C562 C563 1.366 . S
C563 C562 1.366 . S
C563 C564 1.414 . S
C563 C566 1.499 . S
C564 H538 0.950 . S
C564 C563 1.414 . S
C564 C565 1.374 . S
C565 H539 0.950 . S
C565 C561 1.385 . S
C565 C564 1.374 . S
C566 C563 1.499 . S
C566 C567 1.373 . S
C566 C568 1.389 . S
C567 H540 0.950 . S
C567 C553 1.377 . S
C567 C566 1.373 . S
C568 C552 1.377 . S
C568 C566 1.389 . S
C568 C569 1.524 . S
C569 C568 1.524 . S
C569 C570 1.397 . S
C569 C574 1.363 . S
C570 H541 0.950 . S
C570 C569 1.397 . S
C570 C571 1.334 . S
C571 H542 0.950 . S
C571 C570 1.334 . S
C571 C572 1.287 . S
C572 C571 1.287 . S
C572 C573 1.524 . S
C572 H575 0.999 . S
C573 H543 0.950 . S
C573 C572 1.524 . S
C573 C574 1.415 . S
C574 H544 0.950 . S
C574 C569 1.363 . S
C574 C573 1.415 . S
H575 C572 0.999 . S
H576 C557 0.913 . S
H577 C595 0.951 . S
H578 C597 0.951 . S
H579 C599 0.950 . S
H580 C600 0.950 1_554 S
H581 C602 0.950 . S
H582 C605 0.950 . S
H583 C606 0.950 . S
H584 C608 0.950 . S
H585 C609 0.950 . S
H586 C610 0.951 . S
H587 C612 0.951 . S
H588 C614 0.950 . S
H589 C615 0.950 . S
H590 C617 0.950 . S
H591 C620 0.950 . S
H592 C621 0.950 . S
H593 C623 0.950 . S
H594 C624 0.950 . S
C595 H577 0.951 . S
C595 C596 1.366 . S
C595 C597 1.388 . S
C596 C595 1.366 . S
C596 C600 1.385 . S
C597 H578 0.951 . S
C597 C595 1.388 . S
C597 C598 1.366 . S
C598 C597 1.366 . S
C598 C599 1.414 . S
C598 C601 1.499 . S
C599 H579 0.950 . S
C599 C598 1.414 . S
C599 C600 1.374 . S
C600 H580 0.950 1_556 S
C600 C596 1.385 . S
C600 C599 1.374 . S
C601 C598 1.499 . S
C601 C602 1.373 . S
C601 C603 1.389 . S
C602 H581 0.950 . S
C602 C601 1.373 . S
C602 C618 1.377 . S
C603 C601 1.389 . S
C603 C604 1.524 . S
C603 C617 1.377 . S
C604 C603 1.524 . S
C604 C605 1.397 . S
C604 C609 1.363 . S
C605 H582 0.950 . S
C605 C604 1.397 . S
C605 C606 1.334 1_556 S
C606 H583 0.950 . S
C606 C605 1.334 1_554 S
C606 C607 1.287 . S
C607 C606 1.287 . S
C607 C608 1.524 1_554 S
C607 H626 0.913 . S
C608 H584 0.950 . S
C608 C607 1.524 1_556 S
C608 C609 1.415 . S
C609 H585 0.950 . S
C609 C604 1.363 . S
C609 C608 1.415 . S
C610 H586 0.951 . S
C610 C611 1.366 . S
C610 C612 1.388 . S
C611 C610 1.366 . S
C611 C615 1.385 . S
C612 H587 0.951 . S
C612 C610 1.388 . S
C612 C613 1.366 . S
C613 C612 1.366 . S
C613 C614 1.414 . S
C613 C616 1.499 . S
C614 H588 0.950 . S
C614 C613 1.414 . S
C614 C615 1.374 . S
C615 H589 0.950 . S
C615 C611 1.385 . S
C615 C614 1.374 . S
C616 C613 1.499 . S
C616 C617 1.373 . S
C616 C618 1.389 . S
C617 H590 0.950 . S
C617 C603 1.377 . S
C617 C616 1.373 . S
C618 C602 1.377 . S
C618 C616 1.389 . S
C618 C619 1.524 . S
C619 C618 1.524 . S
C619 C620 1.397 . S
C619 C624 1.363 . S
C620 H591 0.950 . S
C620 C619 1.397 . S
C620 C621 1.334 . S
C621 H592 0.950 . S
C621 C620 1.334 . S
C621 C622 1.287 . S
C622 C621 1.287 . S
C622 C623 1.524 . S
C622 H625 0.999 . S
C623 H593 0.950 . S
C623 C622 1.524 . S
C623 C624 1.415 . S
C624 H594 0.950 . S
C624 C619 1.363 . S
C624 C623 1.415 . S
H625 C622 0.999 . S
H626 C607 0.913 . S
H627 C645 0.951 . S
H628 C647 0.951 . S
H629 C649 0.950 . S
H630 C650 0.950 1_556 S
H631 C652 0.950 . S
H632 C655 0.950 . S
H633 C656 0.950 . S
H634 C658 0.950 . S
H635 C659 0.950 . S
H636 C660 0.951 . S
H637 C662 0.951 . S
H638 C664 0.950 . S
H639 C665 0.950 . S
H640 C667 0.950 . S
H641 C670 0.950 . S
H642 C671 0.950 . S
H643 C673 0.950 . S
H644 C674 0.950 . S
C645 H627 0.951 . S
C645 C646 1.366 . S
C645 C647 1.388 . S
C646 C645 1.366 . S
C646 C650 1.385 . S
C647 H628 0.951 . S
C647 C645 1.388 . S
C647 C648 1.366 1_554 S
C648 C647 1.366 1_556 S
C648 C649 1.414 . S
C648 C651 1.499 . S
C649 H629 0.950 . S
C649 C648 1.414 . S
C649 C650 1.374 1_556 S
C650 H630 0.950 1_554 S
C650 C646 1.385 . S
C650 C649 1.374 1_554 S
C651 C648 1.499 . S
C651 C652 1.373 . S
C651 C653 1.389 . S
C652 H631 0.950 . S
C652 C651 1.373 . S
C652 C668 1.377 . S
C653 C651 1.389 . S
C653 C654 1.524 . S
C653 C667 1.377 . S
C654 C653 1.524 . S
C654 C655 1.397 . S
C654 C659 1.363 . S
C655 H632 0.950 . S
C655 C654 1.397 . S
C655 C656 1.334 . S
C656 H633 0.950 . S
C656 C655 1.334 . S
C656 C657 1.287 . S
C657 C656 1.287 . S
C657 C658 1.524 1_556 S
C657 H676 0.913 1_556 S
C658 H634 0.950 . S
C658 C657 1.524 1_554 S
C658 C659 1.415 1_554 S
C659 H635 0.950 . S
C659 C654 1.363 . S
C659 C658 1.415 1_556 S
C660 H636 0.951 . S
C660 C661 1.366 . S
C660 C662 1.388 . S
C661 C660 1.366 . S
C661 C665 1.385 . S
C662 H637 0.951 . S
C662 C660 1.388 . S
C662 C663 1.366 . S
C663 C662 1.366 . S
C663 C664 1.414 . S
C663 C666 1.499 . S
C664 H638 0.950 . S
C664 C663 1.414 . S
C664 C665 1.374 . S
C665 H639 0.950 . S
C665 C661 1.385 . S
C665 C664 1.374 . S
C666 C663 1.499 . S
C666 C667 1.373 . S
C666 C668 1.389 . S
C667 H640 0.950 . S
C667 C653 1.377 . S
C667 C666 1.373 . S
C668 C652 1.377 . S
C668 C666 1.389 . S
C668 C669 1.524 . S
C669 C668 1.524 . S
C669 C670 1.397 . S
C669 C674 1.363 . S
C670 H641 0.950 . S
C670 C669 1.397 . S
C670 C671 1.334 . S
C671 H642 0.950 . S
C671 C670 1.334 . S
C671 C672 1.287 . S
C672 C671 1.287 . S
C672 C673 1.524 . S
C672 H675 0.999 . S
C673 H643 0.950 . S
C673 C672 1.524 . S
C673 C674 1.415 . S
C674 H644 0.950 . S
C674 C669 1.363 . S
C674 C673 1.415 . S
H675 C672 0.999 . S
H676 C657 0.913 1_554 S
H677 C695 0.951 . S
H678 C697 0.951 . S
H679 C699 0.950 1_556 S
H680 C700 0.950 . S
H681 C702 0.950 . S
H682 C705 0.950 . S
H683 C706 0.950 . S
H684 C708 0.950 . S
H685 C709 0.950 . S
H686 C710 0.951 . S
H687 C712 0.951 . S
H688 C714 0.950 . S
H689 C715 0.950 . S
H690 C717 0.950 . S
H691 C720 0.950 . S
H692 C721 0.950 . S
H693 C723 0.950 . S
H694 C724 0.950 . S
C695 H677 0.951 . S
C695 C696 1.366 . S
C695 C697 1.388 . S
C696 C695 1.366 . S
C696 C700 1.385 . S
C697 H678 0.951 . S
C697 C695 1.388 . S
C697 C698 1.366 1_554 S
C698 C697 1.366 1_556 S
C698 C699 1.414 1_556 S
C698 C701 1.499 . S
C699 H679 0.950 1_554 S
C699 C698 1.414 1_554 S
C699 C700 1.374 . S
C700 H680 0.950 . S
C700 C696 1.385 . S
C700 C699 1.374 . S
C701 C698 1.499 . S
C701 C702 1.373 . S
C701 C703 1.389 . S
C702 H681 0.950 . S
C702 C701 1.373 . S
C702 C718 1.377 . S
C703 C701 1.389 . S
C703 C704 1.524 1_556 S
C703 C717 1.377 . S
C704 C703 1.524 1_554 S
C704 C705 1.397 . S
C704 C709 1.363 . S
C705 H682 0.950 . S
C705 C704 1.397 . S
C705 C706 1.334 . S
C706 H683 0.950 . S
C706 C705 1.334 . S
C706 C707 1.287 . S
C707 C706 1.287 . S
C707 C708 1.524 . S
C707 H726 0.913 . S
C708 H684 0.950 . S
C708 C707 1.524 . S
C708 C709 1.415 . S
C709 H685 0.950 . S
C709 C704 1.363 . S
C709 C708 1.415 . S
C710 H686 0.951 . S
C710 C711 1.366 . S
C710 C712 1.388 . S
C711 C710 1.366 . S
C711 C715 1.385 . S
C712 H687 0.951 . S
C712 C710 1.388 . S
C712 C713 1.366 . S
C713 C712 1.366 . S
C713 C714 1.414 . S
C713 C716 1.499 . S
C714 H688 0.950 . S
C714 C713 1.414 . S
C714 C715 1.374 . S
C715 H689 0.950 . S
C715 C711 1.385 . S
C715 C714 1.374 . S
C716 C713 1.499 . S
C716 C717 1.373 . S
C716 C718 1.389 . S
C717 H690 0.950 . S
C717 C703 1.377 . S
C717 C716 1.373 . S
C718 C702 1.377 . S
C718 C716 1.389 . S
C718 C719 1.524 . S
C719 C718 1.524 . S
C719 C720 1.397 . S
C719 C724 1.363 . S
C720 H691 0.950 . S
C720 C719 1.397 . S
C720 C721 1.334 . S
C721 H692 0.950 . S
C721 C720 1.334 . S
C721 C722 1.287 . S
C722 C721 1.287 . S
C722 C723 1.524 . S
C722 H725 0.999 . S
C723 H693 0.950 . S
C723 C722 1.524 . S
C723 C724 1.415 . S
C724 H694 0.950 . S
C724 C719 1.363 . S
C724 C723 1.415 . S
H725 C722 0.999 . S
H726 C707 0.913 . S
H727 C745 0.951 . S
H728 C747 0.951 . S
H729 C749 0.950 . S
H730 C750 0.950 . S
H731 C752 0.950 . S
H732 C755 0.950 . S
H733 C756 0.950 . S
H734 C758 0.950 . S
H735 C759 0.950 . S
H736 C760 0.951 . S
H737 C762 0.951 . S
H738 C764 0.950 . S
H739 C765 0.950 . S
H740 C767 0.950 . S
H741 C770 0.950 . S
H742 C771 0.950 . S
H743 C773 0.950 . S
H744 C774 0.950 . S
C745 H727 0.951 . S
C745 C746 1.366 1_554 S
C745 C747 1.388 1_554 S
C746 C745 1.366 1_556 S
C746 C750 1.385 . S
C747 H728 0.951 . S
C747 C745 1.388 1_556 S
C747 C748 1.366 . S
C748 C747 1.366 . S
C748 C749 1.414 . S
C748 C751 1.499 . S
C749 H729 0.950 . S
C749 C748 1.414 . S
C749 C750 1.374 . S
C750 H730 0.950 . S
C750 C746 1.385 . S
C750 C749 1.374 . S
C751 C748 1.499 . S
C751 C752 1.373 . S
C751 C753 1.389 . S
C752 H731 0.950 . S
C752 C751 1.373 . S
C752 C768 1.377 . S
C753 C751 1.389 . S
C753 C754 1.524 . S
C753 C767 1.377 . S
C754 C753 1.524 . S
C754 C755 1.397 . S
C754 C759 1.363 . S
C755 H732 0.950 . S
C755 C754 1.397 . S
C755 C756 1.334 . S
C756 H733 0.950 . S
C756 C755 1.334 . S
C756 C757 1.287 . S
C757 C756 1.287 . S
C757 C758 1.524 . S
C757 H776 0.913 . S
C758 H734 0.950 . S
C758 C757 1.524 . S
C758 C759 1.415 . S
C759 H735 0.950 . S
C759 C754 1.363 . S
C759 C758 1.415 . S
C760 H736 0.951 . S
C760 C761 1.366 . S
C760 C762 1.388 . S
C761 C760 1.366 . S
C761 C765 1.385 . S
C762 H737 0.951 . S
C762 C760 1.388 . S
C762 C763 1.366 . S
C763 C762 1.366 . S
C763 C764 1.414 . S
C763 C766 1.499 . S
C764 H738 0.950 . S
C764 C763 1.414 . S
C764 C765 1.374 . S
C765 H739 0.950 . S
C765 C761 1.385 . S
C765 C764 1.374 . S
C766 C763 1.499 . S
C766 C767 1.373 . S
C766 C768 1.389 . S
C767 H740 0.950 . S
C767 C753 1.377 . S
C767 C766 1.373 . S
C768 C752 1.377 . S
C768 C766 1.389 . S
C768 C769 1.524 . S
C769 C768 1.524 . S
C769 C770 1.397 . S
C769 C774 1.363 . S
C770 H741 0.950 . S
C770 C769 1.397 . S
C770 C771 1.334 . S
C771 H742 0.950 . S
C771 C770 1.334 . S
C771 C772 1.287 . S
C772 C771 1.287 . S
C772 C773 1.524 . S
C772 H775 0.999 1_655 S
C773 H743 0.950 . S
C773 C772 1.524 . S
C773 C774 1.415 . S
C774 H744 0.950 . S
C774 C769 1.363 . S
C774 C773 1.415 . S
H775 C772 0.999 1_455 S
H776 C757 0.913 . S
H777 C795 0.951 . S
H778 C797 0.951 . S
H779 C799 0.950 . S
H780 C800 0.950 . S
H781 C802 0.950 . S
H782 C805 0.950 . S
H783 C806 0.950 . S
H784 C808 0.950 1_554 S
H785 C809 0.950 . S
H786 C810 0.951 . S
H787 C812 0.951 . S
H788 C814 0.950 . S
H789 C815 0.950 . S
H790 C817 0.950 . S
H791 C820 0.950 . S
H792 C821 0.950 . S
H793 C823 0.950 . S
H794 C824 0.950 . S
C795 H777 0.951 . S
C795 C796 1.366 . S
C795 C797 1.388 . S
C796 C795 1.366 . S
C796 C800 1.385 . S
C797 H778 0.951 . S
C797 C795 1.388 . S
C797 C798 1.366 . S
C798 C797 1.366 . S
C798 C799 1.414 . S
C798 C801 1.499 . S
C799 H779 0.950 . S
C799 C798 1.414 . S
C799 C800 1.374 . S
C800 H780 0.950 . S
C800 C796 1.385 . S
C800 C799 1.374 . S
C801 C798 1.499 . S
C801 C802 1.373 . S
C801 C803 1.389 . S
C802 H781 0.950 . S
C802 C801 1.373 . S
C802 C818 1.377 . S
C803 C801 1.389 . S
C803 C804 1.524 . S
C803 C817 1.377 . S
C804 C803 1.524 . S
C804 C805 1.397 . S
C804 C809 1.363 . S
C805 H782 0.950 . S
C805 C804 1.397 . S
C805 C806 1.334 1_556 S
C806 H783 0.950 . S
C806 C805 1.334 1_554 S
C806 C807 1.287 . S
C807 C806 1.287 . S
C807 C808 1.524 1_554 S
C807 H826 0.913 . S
C808 H784 0.950 1_556 S
C808 C807 1.524 1_556 S
C808 C809 1.415 . S
C809 H785 0.950 . S
C809 C804 1.363 . S
C809 C808 1.415 . S
C810 H786 0.951 . S
C810 C811 1.366 . S
C810 C812 1.388 . S
C811 C810 1.366 . S
C811 C815 1.385 . S
C812 H787 0.951 . S
C812 C810 1.388 . S
C812 C813 1.366 . S
C813 C812 1.366 . S
C813 C814 1.414 . S
C813 C816 1.499 . S
C814 H788 0.950 . S
C814 C813 1.414 . S
C814 C815 1.374 . S
C815 H789 0.950 . S
C815 C811 1.385 . S
C815 C814 1.374 . S
C816 C813 1.499 . S
C816 C817 1.373 . S
C816 C818 1.389 . S
C817 H790 0.950 . S
C817 C803 1.377 . S
C817 C816 1.373 . S
C818 C802 1.377 . S
C818 C816 1.389 . S
C818 C819 1.524 . S
C819 C818 1.524 . S
C819 C820 1.397 . S
C819 C824 1.363 . S
C820 H791 0.950 . S
C820 C819 1.397 . S
C820 C821 1.334 . S
C821 H792 0.950 . S
C821 C820 1.334 . S
C821 C822 1.287 . S
C822 C821 1.287 . S
C822 C823 1.524 . S
C822 H825 0.999 . S
C823 H793 0.950 . S
C823 C822 1.524 . S
C823 C824 1.415 . S
C824 H794 0.950 . S
C824 C819 1.363 . S
C824 C823 1.415 . S
H825 C822 0.999 . S
H826 C807 0.913 . S
H827 C845 0.951 . S
H828 C847 0.951 . S
H829 C849 0.950 . S
H830 C850 0.950 . S
H831 C852 0.950 . S
H832 C855 0.950 . S
H833 C856 0.937 1_554 S
H834 C858 0.950 . S
H835 C859 0.950 . S
H836 C860 0.951 . S
H837 C862 0.951 . S
H838 C864 0.950 . S
H839 C865 0.950 . S
H840 C867 0.950 . S
H841 C870 0.950 . S
H842 C871 0.950 . S
H843 C873 0.950 . S
H844 C874 0.950 . S
C845 H827 0.951 . S
C845 C846 1.366 1_556 S
C845 C847 1.388 . S
C846 C845 1.366 1_554 S
C846 C850 1.385 . S
C847 H828 0.951 . S
C847 C845 1.388 . S
C847 C848 1.366 . S
C848 C847 1.366 . S
C848 C849 1.414 . S
C848 C851 1.499 . S
C849 H829 0.950 . S
C849 C848 1.414 . S
C849 C850 1.374 1_556 S
C850 H830 0.950 . S
C850 C846 1.385 . S
C850 C849 1.374 1_554 S
C851 C848 1.499 . S
C851 C852 1.373 . S
C851 C853 1.389 . S
C852 H831 0.950 . S
C852 C851 1.373 . S
C852 C868 1.377 . S
C853 C851 1.389 . S
C853 C854 1.524 . S
C853 C867 1.377 . S
C854 C853 1.524 . S
C854 C855 1.397 . S
C854 C859 1.363 . S
C855 H832 0.950 . S
C855 C854 1.397 . S
C855 C856 1.340 . S
C856 H833 0.937 1_556 S
C856 C855 1.340 . S
C856 C857 1.294 . S
C857 C856 1.294 . S
C857 C858 1.524 . S
C857 H876 0.913 . S
C858 H834 0.950 . S
C858 C857 1.524 . S
C858 C859 1.415 . S
C859 H835 0.950 . S
C859 C854 1.363 . S
C859 C858 1.415 . S
C860 H836 0.951 . S
C860 C861 1.366 . S
C860 C862 1.388 . S
C861 C860 1.366 . S
C861 C865 1.385 . S
C862 H837 0.951 . S
C862 C860 1.388 . S
C862 C863 1.366 . S
C863 C862 1.366 . S
C863 C864 1.414 . S
C863 C866 1.499 . S
C864 H838 0.950 . S
C864 C863 1.414 . S
C864 C865 1.374 . S
C865 H839 0.950 . S
C865 C861 1.385 . S
C865 C864 1.374 . S
C866 C863 1.499 . S
C866 C867 1.373 . S
C866 C868 1.389 . S
C867 H840 0.950 . S
C867 C853 1.377 . S
C867 C866 1.373 . S
C868 C852 1.377 . S
C868 C866 1.389 . S
C868 C869 1.524 . S
C869 C868 1.524 . S
C869 C870 1.397 . S
C869 C874 1.363 . S
C870 H841 0.950 . S
C870 C869 1.397 . S
C870 C871 1.334 . S
C871 H842 0.950 . S
C871 C870 1.334 . S
C871 C872 1.287 . S
C872 C871 1.287 . S
C872 C873 1.524 . S
C872 H875 0.999 . S
C873 H843 0.950 . S
C873 C872 1.524 . S
C873 C874 1.415 . S
C874 H844 0.950 . S
C874 C869 1.363 . S
C874 C873 1.415 . S
H875 C872 0.999 . S
H876 C857 0.913 . S
H877 C895 0.951 . S
H878 C897 0.951 . S
H879 C899 0.950 . S
H880 C900 0.950 . S
H881 C902 0.950 . S
H882 C905 0.950 . S
H883 C906 0.950 . S
H884 C908 0.950 . S
H885 C909 0.950 . S
H886 C910 0.951 . S
H887 C912 0.951 . S
H888 C914 0.950 . S
H889 C915 0.950 . S
H890 C917 0.950 . S
H891 C920 0.950 . S
H892 C921 0.950 . S
H893 C923 0.950 . S
H894 C924 0.950 . S
C895 H877 0.951 . S
C895 C896 1.366 . S
C895 C897 1.388 . S
C896 C895 1.366 . S
C896 C900 1.385 . S
C897 H878 0.951 . S
C897 C895 1.388 . S
C897 C898 1.366 1_554 S
C898 C897 1.366 1_556 S
C898 C899 1.414 . S
C898 C901 1.499 . S
C899 H879 0.950 . S
C899 C898 1.414 . S
C899 C900 1.374 1_556 S
C900 H880 0.950 . S
C900 C896 1.385 . S
C900 C899 1.374 1_554 S
C901 C898 1.499 . S
C901 C902 1.373 . S
C901 C903 1.389 . S
C902 H881 0.950 . S
C902 C901 1.373 . S
C902 C918 1.377 . S
C903 C901 1.389 . S
C903 C904 1.524 . S
C903 C917 1.377 . S
C904 C903 1.524 . S
C904 C905 1.397 . S
C904 C909 1.363 . S
C905 H882 0.950 . S
C905 C904 1.397 . S
C905 C906 1.334 . S
C906 H883 0.950 . S
C906 C905 1.334 . S
C906 C907 1.287 . S
C907 C906 1.287 . S
C907 C908 1.524 . S
C907 H926 0.913 . S
C908 H884 0.950 . S
C908 C907 1.524 . S
C908 C909 1.415 . S
C909 H885 0.950 . S
C909 C904 1.363 . S
C909 C908 1.415 . S
C910 H886 0.951 . S
C910 C911 1.366 . S
C910 C912 1.388 . S
C911 C910 1.366 . S
C911 C915 1.385 . S
C912 H887 0.951 . S
C912 C910 1.388 . S
C912 C913 1.366 . S
C913 C912 1.366 . S
C913 C914 1.414 . S
C913 C916 1.499 . S
C914 H888 0.950 . S
C914 C913 1.414 . S
C914 C915 1.374 . S
C915 H889 0.950 . S
C915 C911 1.385 . S
C915 C914 1.374 . S
C916 C913 1.499 . S
C916 C917 1.373 . S
C916 C918 1.389 . S
C917 H890 0.950 . S
C917 C903 1.377 . S
C917 C916 1.373 . S
C918 C902 1.377 . S
C918 C916 1.389 . S
C918 C919 1.524 . S
C919 C918 1.524 . S
C919 C920 1.397 . S
C919 C924 1.363 . S
C920 H891 0.950 . S
C920 C919 1.397 . S
C920 C921 1.334 . S
C921 H892 0.950 . S
C921 C920 1.334 . S
C921 C922 1.287 . S
C922 C921 1.287 . S
C922 C923 1.524 . S
C922 H925 0.999 . S
C923 H893 0.950 . S
C923 C922 1.524 . S
C923 C924 1.415 . S
C924 H894 0.950 . S
C924 C919 1.363 . S
C924 C923 1.415 . S
H925 C922 0.999 . S
H926 C907 0.913 . S
H927 C945 0.951 . S
H928 C947 0.951 . S
H929 C949 0.950 . S
H930 C950 0.950 . S
H931 C952 0.950 . S
H932 C955 0.950 . S
H933 C956 0.950 . S
H934 C958 0.950 . S
H935 C959 0.950 . S
H936 C960 0.951 . S
H937 C962 0.951 . S
H938 C964 0.950 . S
H939 C965 0.950 . S
H940 C967 0.950 . S
H941 C970 0.950 . S
H942 C971 0.950 . S
H943 C973 0.950 . S
H944 C974 0.950 . S
C945 H927 0.951 . S
C945 C946 1.366 . S
C945 C947 1.388 . S
C946 C945 1.366 . S
C946 C950 1.385 . S
C947 H928 0.951 . S
C947 C945 1.388 . S
C947 C948 1.366 1_554 S
C948 C947 1.366 1_556 S
C948 C949 1.414 . S
C948 C951 1.499 . S
C949 H929 0.950 . S
C949 C948 1.414 . S
C949 C950 1.374 1_556 S
C950 H930 0.950 . S
C950 C946 1.385 . S
C950 C949 1.374 1_554 S
C951 C948 1.499 . S
C951 C952 1.373 . S
C951 C953 1.389 . S
C952 H931 0.950 . S
C952 C951 1.373 . S
C952 C968 1.377 . S
C953 C951 1.389 . S
C953 C954 1.524 . S
C953 C967 1.377 . S
C954 C953 1.524 . S
C954 C955 1.397 . S
C954 C959 1.363 . S
C955 H932 0.950 . S
C955 C954 1.397 . S
C955 C956 1.334 . S
C956 H933 0.950 . S
C956 C955 1.334 . S
C956 C957 1.287 . S
C957 C956 1.287 . S
C957 C958 1.524 . S
C957 H976 0.913 . S
C958 H934 0.950 . S
C958 C957 1.524 . S
C958 C959 1.415 . S
C959 H935 0.950 . S
C959 C954 1.363 . S
C959 C958 1.415 . S
C960 H936 0.951 . S
C960 C961 1.366 . S
C960 C962 1.388 . S
C961 C960 1.366 . S
C961 C965 1.385 . S
C962 H937 0.951 . S
C962 C960 1.388 . S
C962 C963 1.366 . S
C963 C962 1.366 . S
C963 C964 1.414 . S
C963 C966 1.499 . S
C964 H938 0.950 . S
C964 C963 1.414 . S
C964 C965 1.374 . S
C965 H939 0.950 . S
C965 C961 1.385 . S
C965 C964 1.374 . S
C966 C963 1.499 . S
C966 C967 1.373 . S
C966 C968 1.389 . S
C967 H940 0.950 . S
C967 C953 1.377 . S
C967 C966 1.373 . S
C968 C952 1.377 . S
C968 C966 1.389 . S
C968 C969 1.524 . S
C969 C968 1.524 . S
C969 C970 1.397 . S
C969 C974 1.363 . S
C970 H941 0.950 . S
C970 C969 1.397 . S
C970 C971 1.334 . S
C971 H942 0.950 . S
C971 C970 1.334 . S
C971 C972 1.287 . S
C972 C971 1.287 . S
C972 C973 1.524 . S
C972 H975 0.999 . S
C973 H943 0.950 . S
C973 C972 1.524 . S
C973 C974 1.415 . S
C974 H944 0.950 . S
C974 C969 1.363 . S
C974 C973 1.415 . S
H975 C972 0.999 . S
H976 C957 0.913 . S
H977 C995 0.951 . S
H978 C997 0.951 . S
H979 C999 0.950 . S
H980 C1000 0.950 1_554 S
H981 C1002 0.950 . S
H982 C1005 0.950 . S
H983 C1006 0.950 . S
H984 C1008 0.950 . S
H985 C1009 0.950 . S
H986 C1010 0.951 . S
H987 C1012 0.951 . S
H988 C1014 0.950 . S
H989 C1015 0.950 . S
H990 C1017 0.950 . S
H991 C1020 0.950 . S
H992 C1021 0.950 . S
H993 C1023 0.950 . S
H994 C1024 0.950 . S
C995 H977 0.951 . S
C995 C996 1.366 . S
C995 C997 1.388 . S
C996 C995 1.366 . S
C996 C1000 1.385 . S
C997 H978 0.951 . S
C997 C995 1.388 . S
C997 C998 1.366 . S
C998 C997 1.366 . S
C998 C999 1.414 . S
C998 C1001 1.499 . S
C999 H979 0.950 . S
C999 C998 1.414 . S
C999 C1000 1.374 . S
C1000 H980 0.950 1_556 S
C1000 C996 1.385 . S
C1000 C999 1.374 . S
C1001 C998 1.499 . S
C1001 C1002 1.373 . S
C1001 C1003 1.389 . S
C1002 H981 0.950 . S
C1002 C1001 1.373 . S
C1002 C1018 1.377 . S
C1003 C1001 1.389 . S
C1003 C1004 1.524 . S
C1003 C1017 1.377 . S
C1004 C1003 1.524 . S
C1004 C1005 1.397 . S
C1004 C1009 1.363 . S
C1005 H982 0.950 . S
C1005 C1004 1.397 . S
C1005 C1006 1.334 . S
C1006 H983 0.950 . S
C1006 C1005 1.334 . S
C1006 C1007 1.287 . S
C1007 C1006 1.287 . S
C1007 C1008 1.524 . S
C1007 H1026 0.913 . S
C1008 H984 0.950 . S
C1008 C1007 1.524 . S
C1008 C1009 1.415 . S
C1009 H985 0.950 . S
C1009 C1004 1.363 . S
C1009 C1008 1.415 . S
C1010 H986 0.951 . S
C1010 C1011 1.366 . S
C1010 C1012 1.388 . S
C1011 C1010 1.366 . S
C1011 C1015 1.385 . S
C1012 H987 0.951 . S
C1012 C1010 1.388 . S
C1012 C1013 1.366 . S
C1013 C1012 1.366 . S
C1013 C1014 1.414 . S
C1013 C1016 1.499 . S
C1014 H988 0.950 . S
C1014 C1013 1.414 . S
C1014 C1015 1.374 . S
C1015 H989 0.950 . S
C1015 C1011 1.385 . S
C1015 C1014 1.374 . S
C1016 C1013 1.499 . S
C1016 C1017 1.373 . S
C1016 C1018 1.389 . S
C1017 H990 0.950 . S
C1017 C1003 1.377 . S
C1017 C1016 1.373 . S
C1018 C1002 1.377 . S
C1018 C1016 1.389 . S
C1018 C1019 1.524 . S
C1019 C1018 1.524 . S
C1019 C1020 1.397 . S
C1019 C1024 1.363 . S
C1020 H991 0.950 . S
C1020 C1019 1.397 . S
C1020 C1021 1.334 . S
C1021 H992 0.950 . S
C1021 C1020 1.334 . S
C1021 C1022 1.287 . S
C1022 C1021 1.287 . S
C1022 C1023 1.524 . S
C1022 H1025 0.999 . S
C1023 H993 0.950 . S
C1023 C1022 1.524 . S
C1023 C1024 1.415 . S
C1024 H994 0.950 . S
C1024 C1019 1.363 . S
C1024 C1023 1.415 . S
H1025 C1022 0.999 . S
H1026 C1007 0.913 . S
H1027 C1045 0.951 . S
H1028 C1047 0.951 . S
H1029 C1049 0.950 . S
H1030 C1050 0.950 . S
H1031 C1052 0.950 . S
H1032 C1055 0.950 . S
H1033 C1056 0.950 . S
H1034 C1058 0.950 . S
H1035 C1059 0.950 . S
H1036 C1060 0.951 . S
H1037 C1062 0.951 . S
H1038 C1064 0.950 . S
H1039 C1065 0.950 . S
H1040 C1067 0.950 . S
H1041 C1070 0.950 . S
H1042 C1071 0.950 . S
H1043 C1073 0.950 . S
H1044 C1074 0.950 . S
C1045 H1027 0.951 . S
C1045 C1046 1.366 . S
C1045 C1047 1.388 . S
C1046 C1045 1.366 . S
C1046 C1050 1.385 . S
C1047 H1028 0.951 . S
C1047 C1045 1.388 . S
C1047 C1048 1.366 . S
C1048 C1047 1.366 . S
C1048 C1049 1.414 . S
C1048 C1051 1.499 . S
C1049 H1029 0.950 . S
C1049 C1048 1.414 . S
C1049 C1050 1.374 . S
C1050 H1030 0.950 . S
C1050 C1046 1.385 . S
C1050 C1049 1.374 . S
C1051 C1048 1.499 . S
C1051 C1052 1.373 . S
C1051 C1053 1.389 . S
C1052 H1031 0.950 . S
C1052 C1051 1.373 . S
C1052 C1068 1.377 . S
C1053 C1051 1.389 . S
C1053 C1054 1.524 . S
C1053 C1067 1.377 . S
C1054 C1053 1.524 . S
C1054 C1055 1.397 . S
C1054 C1059 1.363 . S
C1055 H1032 0.950 . S
C1055 C1054 1.397 . S
C1055 C1056 1.334 1_556 S
C1056 H1033 0.950 . S
C1056 C1055 1.334 1_554 S
C1056 C1057 1.287 . S
C1057 C1056 1.287 . S
C1057 C1058 1.524 . S
C1057 H1076 0.913 . S
C1058 H1034 0.950 . S
C1058 C1057 1.524 . S
C1058 C1059 1.415 1_554 S
C1059 H1035 0.950 . S
C1059 C1054 1.363 . S
C1059 C1058 1.415 1_556 S
C1060 H1036 0.951 . S
C1060 C1061 1.366 . S
C1060 C1062 1.388 . S
C1061 C1060 1.366 . S
C1061 C1065 1.385 . S
C1062 H1037 0.951 . S
C1062 C1060 1.388 . S
C1062 C1063 1.366 . S
C1063 C1062 1.366 . S
C1063 C1064 1.414 . S
C1063 C1066 1.499 . S
C1064 H1038 0.950 . S
C1064 C1063 1.414 . S
C1064 C1065 1.374 . S
C1065 H1039 0.950 . S
C1065 C1061 1.385 . S
C1065 C1064 1.374 . S
C1066 C1063 1.499 . S
C1066 C1067 1.373 . S
C1066 C1068 1.389 . S
C1067 H1040 0.950 . S
C1067 C1053 1.377 . S
C1067 C1066 1.373 . S
C1068 C1052 1.377 . S
C1068 C1066 1.389 . S
C1068 C1069 1.524 . S
C1069 C1068 1.524 . S
C1069 C1070 1.397 . S
C1069 C1074 1.363 . S
C1070 H1041 0.950 . S
C1070 C1069 1.397 . S
C1070 C1071 1.334 . S
C1071 H1042 0.950 . S
C1071 C1070 1.334 . S
C1071 C1072 1.287 . S
C1072 C1071 1.287 . S
C1072 C1073 1.524 . S
C1072 H1075 0.999 . S
C1073 H1043 0.950 . S
C1073 C1072 1.524 . S
C1073 C1074 1.415 . S
C1074 H1044 0.950 . S
C1074 C1069 1.363 . S
C1074 C1073 1.415 . S
H1075 C1072 0.999 . S
H1076 C1057 0.913 . S
H1077 C1095 0.951 . S
H1078 C1097 0.951 . S
H1079 C1099 0.950 . S
H1080 C1100 0.950 . S
H1081 C1102 0.950 . S
H1082 C1105 0.950 . S
H1083 C1106 0.950 . S
H1084 C1108 0.950 . S
H1085 C1109 0.950 . S
H1086 C1110 0.951 . S
H1087 C1112 0.951 . S
H1088 C1114 0.950 . S
H1089 C1115 0.950 . S
H1090 C1117 0.950 . S
H1091 C1120 0.950 . S
H1092 C1121 0.950 . S
H1093 C1123 0.950 . S
H1094 C1124 0.950 . S
C1095 H1077 0.951 . S
C1095 C1096 1.366 . S
C1095 C1097 1.388 . S
C1096 C1095 1.366 . S
C1096 C1100 1.385 . S
C1097 H1078 0.951 . S
C1097 C1095 1.388 . S
C1097 C1098 1.366 . S
C1098 C1097 1.366 . S
C1098 C1099 1.414 . S
C1098 C1101 1.499 . S
C1099 H1079 0.950 . S
C1099 C1098 1.414 . S
C1099 C1100 1.374 . S
C1100 H1080 0.950 . S
C1100 C1096 1.385 . S
C1100 C1099 1.374 . S
C1101 C1098 1.499 . S
C1101 C1102 1.373 . S
C1101 C1103 1.389 . S
C1102 H1081 0.950 . S
C1102 C1101 1.373 . S
C1102 C1118 1.377 . S
C1103 C1101 1.389 . S
C1103 C1104 1.524 . S
C1103 C1117 1.377 . S
C1104 C1103 1.524 . S
C1104 C1105 1.397 . S
C1104 C1109 1.363 . S
C1105 H1082 0.950 . S
C1105 C1104 1.397 . S
C1105 C1106 1.334 . S
C1106 H1083 0.950 . S
C1106 C1105 1.334 . S
C1106 C1107 1.287 . S
C1107 C1106 1.287 . S
C1107 C1108 1.524 . S
C1107 H1126 0.913 . S
C1108 H1084 0.950 . S
C1108 C1107 1.524 . S
C1108 C1109 1.415 . S
C1109 H1085 0.950 . S
C1109 C1104 1.363 . S
C1109 C1108 1.415 . S
C1110 H1086 0.951 . S
C1110 C1111 1.366 . S
C1110 C1112 1.388 . S
C1111 C1110 1.366 . S
C1111 C1115 1.385 . S
C1112 H1087 0.951 . S
C1112 C1110 1.388 . S
C1112 C1113 1.366 . S
C1113 C1112 1.366 . S
C1113 C1114 1.414 . S
C1113 C1116 1.499 . S
C1114 H1088 0.950 . S
C1114 C1113 1.414 . S
C1114 C1115 1.374 . S
C1115 H1089 0.950 . S
C1115 C1111 1.385 . S
C1115 C1114 1.374 . S
C1116 C1113 1.499 . S
C1116 C1117 1.373 . S
C1116 C1118 1.389 . S
C1117 H1090 0.950 . S
C1117 C1103 1.377 . S
C1117 C1116 1.373 . S
C1118 C1102 1.377 . S
C1118 C1116 1.389 . S
C1118 C1119 1.524 . S
C1119 C1118 1.524 . S
C1119 C1120 1.397 . S
C1119 C1124 1.363 . S
C1120 H1091 0.950 . S
C1120 C1119 1.397 . S
C1120 C1121 1.334 . S
C1121 H1092 0.950 . S
C1121 C1120 1.334 . S
C1121 C1122 1.287 . S
C1122 C1121 1.287 . S
C1122 C1123 1.524 . S
C1122 H1125 0.999 . S
C1123 H1093 0.950 . S
C1123 C1122 1.524 . S
C1123 C1124 1.415 . S
C1124 H1094 0.950 . S
C1124 C1119 1.363 . S
C1124 C1123 1.415 . S
H1125 C1122 0.999 . S
H1126 C1107 0.913 . S
H1127 C1145 0.951 . S
H1128 C1147 0.951 . S
H1129 C1149 0.950 . S
H1130 C1150 0.950 . S
H1131 C1152 0.950 . S
H1132 C1155 0.950 . S
H1133 C1156 0.950 . S
H1134 C1158 0.950 . S
H1135 C1159 0.950 . S
H1136 C1160 0.951 . S
H1137 C1162 0.951 . S
H1138 C1164 0.950 . S
H1139 C1165 0.950 . S
H1140 C1167 0.950 . S
H1141 C1170 0.950 . S
H1142 C1171 0.950 . S
H1143 C1173 0.950 . S
H1144 C1174 0.950 . S
C1145 H1127 0.951 . S
C1145 C1146 1.366 . S
C1145 C1147 1.388 . S
C1146 C1145 1.366 . S
C1146 C1150 1.385 . S
C1147 H1128 0.951 . S
C1147 C1145 1.388 . S
C1147 C1148 1.366 . S
C1148 C1147 1.366 . S
C1148 C1149 1.414 . S
C1148 C1151 1.499 . S
C1149 H1129 0.950 . S
C1149 C1148 1.414 . S
C1149 C1150 1.374 . S
C1150 H1130 0.950 . S
C1150 C1146 1.385 . S
C1150 C1149 1.374 . S
C1151 C1148 1.499 . S
C1151 C1152 1.373 . S
C1151 C1153 1.389 . S
C1152 H1131 0.950 . S
C1152 C1151 1.373 . S
C1152 C1168 1.377 . S
C1153 C1151 1.389 . S
C1153 C1154 1.524 . S
C1153 C1167 1.377 . S
C1154 C1153 1.524 . S
C1154 C1155 1.397 . S
C1154 C1159 1.363 . S
C1155 H1132 0.950 . S
C1155 C1154 1.397 . S
C1155 C1156 1.334 . S
C1156 H1133 0.950 . S
C1156 C1155 1.334 . S
C1156 C1157 1.287 . S
C1157 C1156 1.287 . S
C1157 C1158 1.524 . S
C1157 H1176 0.913 . S
C1158 H1134 0.950 . S
C1158 C1157 1.524 . S
C1158 C1159 1.415 . S
C1159 H1135 0.950 . S
C1159 C1154 1.363 . S
C1159 C1158 1.415 . S
C1160 H1136 0.951 . S
C1160 C1161 1.366 . S
C1160 C1162 1.388 . S
C1161 C1160 1.366 . S
C1161 C1165 1.385 . S
C1162 H1137 0.951 . S
C1162 C1160 1.388 . S
C1162 C1163 1.366 . S
C1163 C1162 1.366 . S
C1163 C1164 1.414 . S
C1163 C1166 1.499 . S
C1164 H1138 0.950 . S
C1164 C1163 1.414 . S
C1164 C1165 1.374 . S
C1165 H1139 0.950 . S
C1165 C1161 1.385 . S
C1165 C1164 1.374 . S
C1166 C1163 1.499 . S
C1166 C1167 1.373 . S
C1166 C1168 1.389 . S
C1167 H1140 0.950 . S
C1167 C1153 1.377 . S
C1167 C1166 1.373 . S
C1168 C1152 1.377 . S
C1168 C1166 1.389 . S
C1168 C1169 1.524 . S
C1169 C1168 1.524 . S
C1169 C1170 1.397 . S
C1169 C1174 1.363 . S
C1170 H1141 0.950 . S
C1170 C1169 1.397 . S
C1170 C1171 1.334 . S
C1171 H1142 0.950 . S
C1171 C1170 1.334 . S
C1171 C1172 1.287 . S
C1172 C1171 1.287 . S
C1172 C1173 1.524 . S
C1172 H1175 0.999 . S
C1173 H1143 0.950 . S
C1173 C1172 1.524 . S
C1173 C1174 1.415 . S
C1174 H1144 0.950 . S
C1174 C1169 1.363 . S
C1174 C1173 1.415 . S
H1175 C1172 0.999 . S
H1176 C1157 0.913 . S
H1177 C1195 0.951 . S
H1178 C1197 0.951 . S
H1179 C1199 0.950 . S
H1180 C1200 0.950 . S
H1181 C1202 0.950 . S
H1182 C1205 0.950 . S
H1183 C1206 0.950 . S
H1184 C1208 0.950 . S
H1185 C1209 0.950 . S
H1186 C1210 0.951 . S
H1187 C1212 0.951 . S
H1188 C1214 0.950 . S
H1189 C1215 0.950 . S
H1190 C1217 0.950 . S
H1191 C1220 0.950 . S
H1192 C1221 0.950 . S
H1193 C1223 0.950 . S
H1194 C1224 0.950 . S
C1195 H1177 0.951 . S
C1195 C1196 1.366 . S
C1195 C1197 1.388 . S
C1196 C1195 1.366 . S
C1196 C1200 1.385 . S
C1197 H1178 0.951 . S
C1197 C1195 1.388 . S
C1197 C1198 1.366 . S
C1198 C1197 1.366 . S
C1198 C1199 1.414 . S
C1198 C1201 1.499 . S
C1199 H1179 0.950 . S
C1199 C1198 1.414 . S
C1199 C1200 1.374 . S
C1200 H1180 0.950 . S
C1200 C1196 1.385 . S
C1200 C1199 1.374 . S
C1201 C1198 1.499 . S
C1201 C1202 1.373 . S
C1201 C1203 1.389 . S
C1202 H1181 0.950 . S
C1202 C1201 1.373 . S
C1202 C1218 1.377 . S
C1203 C1201 1.389 . S
C1203 C1204 1.524 . S
C1203 C1217 1.377 . S
C1204 C1203 1.524 . S
C1204 C1205 1.397 . S
C1204 C1209 1.363 . S
C1205 H1182 0.950 . S
C1205 C1204 1.397 . S
C1205 C1206 1.334 . S
C1206 H1183 0.950 . S
C1206 C1205 1.334 . S
C1206 C1207 1.287 . S
C1207 C1206 1.287 . S
C1207 C1208 1.524 . S
C1207 H1226 0.913 . S
C1208 H1184 0.950 . S
C1208 C1207 1.524 . S
C1208 C1209 1.415 . S
C1209 H1185 0.950 . S
C1209 C1204 1.363 . S
C1209 C1208 1.415 . S
C1210 H1186 0.951 . S
C1210 C1211 1.366 . S
C1210 C1212 1.388 . S
C1211 C1210 1.366 . S
C1211 C1215 1.385 . S
C1212 H1187 0.951 . S
C1212 C1210 1.388 . S
C1212 C1213 1.366 . S
C1213 C1212 1.366 . S
C1213 C1214 1.414 . S
C1213 C1216 1.499 . S
C1214 H1188 0.950 . S
C1214 C1213 1.414 . S
C1214 C1215 1.374 . S
C1215 H1189 0.950 . S
C1215 C1211 1.385 . S
C1215 C1214 1.374 . S
C1216 C1213 1.499 . S
C1216 C1217 1.373 . S
C1216 C1218 1.389 . S
C1217 H1190 0.950 . S
C1217 C1203 1.377 . S
C1217 C1216 1.373 . S
C1218 C1202 1.377 . S
C1218 C1216 1.389 . S
C1218 C1219 1.524 . S
C1219 C1218 1.524 . S
C1219 C1220 1.397 . S
C1219 C1224 1.363 . S
C1220 H1191 0.950 . S
C1220 C1219 1.397 . S
C1220 C1221 1.334 . S
C1221 H1192 0.950 . S
C1221 C1220 1.334 . S
C1221 C1222 1.287 . S
C1222 C1221 1.287 . S
C1222 C1223 1.524 . S
C1222 H1225 0.999 1_655 S
C1223 H1193 0.950 . S
C1223 C1222 1.524 . S
C1223 C1224 1.415 . S
C1224 H1194 0.950 . S
C1224 C1219 1.363 . S
C1224 C1223 1.415 . S
H1225 C1222 0.999 1_455 S
H1226 C1207 0.913 . S
H1227 C1245 0.951 . S
H1228 C1247 0.951 . S
H1229 C1249 0.950 . S
H1230 C1250 0.950 . S
H1231 C1252 0.950 . S
H1232 C1255 0.950 . S
H1233 C1256 0.950 . S
H1234 C1258 0.950 . S
H1235 C1259 0.950 . S
H1236 C1260 0.951 . S
H1237 C1262 0.951 . S
H1238 C1264 0.950 . S
H1239 C1265 0.950 . S
H1240 C1267 0.950 . S
H1241 C1270 0.950 . S
H1242 C1271 0.950 . S
H1243 C1273 0.950 . S
H1244 C1274 0.950 . S
C1245 H1227 0.951 . S
C1245 C1246 1.366 . S
C1245 C1247 1.388 . S
C1246 C1245 1.366 . S
C1246 C1250 1.385 . S
C1247 H1228 0.951 . S
C1247 C1245 1.388 . S
C1247 C1248 1.366 . S
C1248 C1247 1.366 . S
C1248 C1249 1.414 . S
C1248 C1251 1.499 . S
C1249 H1229 0.950 . S
C1249 C1248 1.414 . S
C1249 C1250 1.374 . S
C1250 H1230 0.950 . S
C1250 C1246 1.385 . S
C1250 C1249 1.374 . S
C1251 C1248 1.499 . S
C1251 C1252 1.373 . S
C1251 C1253 1.389 . S
C1252 H1231 0.950 . S
C1252 C1251 1.373 . S
C1252 C1268 1.377 . S
C1253 C1251 1.389 . S
C1253 C1254 1.524 . S
C1253 C1267 1.377 . S
C1254 C1253 1.524 . S
C1254 C1255 1.397 . S
C1254 C1259 1.363 . S
C1255 H1232 0.950 . S
C1255 C1254 1.397 . S
C1255 C1256 1.334 . S
C1256 H1233 0.950 . S
C1256 C1255 1.334 . S
C1256 C1257 1.287 . S
C1257 C1256 1.287 . S
C1257 C1258 1.524 . S
C1257 H1276 0.913 . S
C1258 H1234 0.950 . S
C1258 C1257 1.524 . S
C1258 C1259 1.415 . S
C1259 H1235 0.950 . S
C1259 C1254 1.363 . S
C1259 C1258 1.415 . S
C1260 H1236 0.951 . S
C1260 C1261 1.366 . S
C1260 C1262 1.388 . S
C1261 C1260 1.366 . S
C1261 C1265 1.385 . S
C1262 H1237 0.951 . S
C1262 C1260 1.388 . S
C1262 C1263 1.366 . S
C1263 C1262 1.366 . S
C1263 C1264 1.414 . S
C1263 C1266 1.499 . S
C1264 H1238 0.950 . S
C1264 C1263 1.414 . S
C1264 C1265 1.374 . S
C1265 H1239 0.950 . S
C1265 C1261 1.385 . S
C1265 C1264 1.374 . S
C1266 C1263 1.499 . S
C1266 C1267 1.373 . S
C1266 C1268 1.389 . S
C1267 H1240 0.950 . S
C1267 C1253 1.377 . S
C1267 C1266 1.373 . S
C1268 C1252 1.377 . S
C1268 C1266 1.389 . S
C1268 C1269 1.524 . S
C1269 C1268 1.524 . S
C1269 C1270 1.397 . S
C1269 C1274 1.363 . S
C1270 H1241 0.950 . S
C1270 C1269 1.397 . S
C1270 C1271 1.334 . S
C1271 H1242 0.950 . S
C1271 C1270 1.334 . S
C1271 C1272 1.287 . S
C1272 C1271 1.287 . S
C1272 C1273 1.524 . S
C1272 H1275 0.999 . S
C1273 H1243 0.950 . S
C1273 C1272 1.524 . S
C1273 C1274 1.415 . S
C1274 H1244 0.950 . S
C1274 C1269 1.363 . S
C1274 C1273 1.415 . S
H1275 C1272 0.999 . S
H1276 C1257 0.913 . S
H1277 C1295 0.951 . S
H1278 C1297 0.951 . S
H1279 C1299 0.950 . S
H1280 C1300 0.950 . S
H1281 C1302 0.950 . S
H1282 C1305 0.950 . S
H1283 C1306 0.950 . S
H1284 C1308 0.950 . S
H1285 C1309 0.950 . S
H1286 C1310 0.951 . S
H1287 C1312 0.951 . S
H1288 C1314 0.950 . S
H1289 C1315 0.950 . S
H1290 C1317 0.950 . S
H1291 C1320 0.950 . S
H1292 C1321 0.950 . S
H1293 C1323 0.950 . S
H1294 C1324 0.950 . S
C1295 H1277 0.951 . S
C1295 C1296 1.366 . S
C1295 C1297 1.388 . S
C1296 C1295 1.366 . S
C1296 C1300 1.385 . S
C1297 H1278 0.951 . S
C1297 C1295 1.388 . S
C1297 C1298 1.366 . S
C1298 C1297 1.366 . S
C1298 C1299 1.414 . S
C1298 C1301 1.499 . S
C1299 H1279 0.950 . S
C1299 C1298 1.414 . S
C1299 C1300 1.374 . S
C1300 H1280 0.950 . S
C1300 C1296 1.385 . S
C1300 C1299 1.374 . S
C1301 C1298 1.499 . S
C1301 C1302 1.373 . S
C1301 C1303 1.389 . S
C1302 H1281 0.950 . S
C1302 C1301 1.373 . S
C1302 C1318 1.377 . S
C1303 C1301 1.389 . S
C1303 C1304 1.524 . S
C1303 C1317 1.377 . S
C1304 C1303 1.524 . S
C1304 C1305 1.397 . S
C1304 C1309 1.363 . S
C1305 H1282 0.950 . S
C1305 C1304 1.397 . S
C1305 C1306 1.334 . S
C1306 H1283 0.950 . S
C1306 C1305 1.334 . S
C1306 C1307 1.287 . S
C1307 C1306 1.287 . S
C1307 C1308 1.524 . S
C1307 H1326 0.913 . S
C1308 H1284 0.950 . S
C1308 C1307 1.524 . S
C1308 C1309 1.415 . S
C1309 H1285 0.950 . S
C1309 C1304 1.363 . S
C1309 C1308 1.415 . S
C1310 H1286 0.951 . S
C1310 C1311 1.366 . S
C1310 C1312 1.388 . S
C1311 C1310 1.366 . S
C1311 C1315 1.385 . S
C1312 H1287 0.951 . S
C1312 C1310 1.388 . S
C1312 C1313 1.366 . S
C1313 C1312 1.366 . S
C1313 C1314 1.414 . S
C1313 C1316 1.499 . S
C1314 H1288 0.950 . S
C1314 C1313 1.414 . S
C1314 C1315 1.374 . S
C1315 H1289 0.950 . S
C1315 C1311 1.385 . S
C1315 C1314 1.374 . S
C1316 C1313 1.499 . S
C1316 C1317 1.373 . S
C1316 C1318 1.389 . S
C1317 H1290 0.950 . S
C1317 C1303 1.377 . S
C1317 C1316 1.373 . S
C1318 C1302 1.377 . S
C1318 C1316 1.389 . S
C1318 C1319 1.524 . S
C1319 C1318 1.524 . S
C1319 C1320 1.397 . S
C1319 C1324 1.363 . S
C1320 H1291 0.950 . S
C1320 C1319 1.397 . S
C1320 C1321 1.334 . S
C1321 H1292 0.950 . S
C1321 C1320 1.334 . S
C1321 C1322 1.287 . S
C1322 C1321 1.287 . S
C1322 C1323 1.524 . S
C1322 H1325 0.999 . S
C1323 H1293 0.950 . S
C1323 C1322 1.524 . S
C1323 C1324 1.415 . S
C1324 H1294 0.950 . S
C1324 C1319 1.363 . S
C1324 C1323 1.415 . S
H1325 C1322 0.999 . S
H1326 C1307 0.913 . S
H1327 C1345 0.951 . S
H1328 C1347 0.951 . S
H1329 C1349 0.950 . S
H1330 C1350 0.950 . S
H1331 C1352 0.950 . S
H1332 C1355 0.950 . S
H1333 C1356 0.950 . S
H1334 C1358 0.950 . S
H1335 C1359 0.950 . S
H1336 C1360 0.951 . S
H1337 C1362 0.951 . S
H1338 C1364 0.950 . S
H1339 C1365 0.950 . S
H1340 C1367 0.950 . S
H1341 C1370 0.950 . S
H1342 C1371 0.950 . S
H1343 C1373 0.950 . S
H1344 C1374 0.950 . S
C1345 H1327 0.951 . S
C1345 C1346 1.366 . S
C1345 C1347 1.388 . S
C1346 C1345 1.366 . S
C1346 C1350 1.385 . S
C1347 H1328 0.951 . S
C1347 C1345 1.388 . S
C1347 C1348 1.366 . S
C1348 C1347 1.366 . S
C1348 C1349 1.414 . S
C1348 C1351 1.499 . S
C1349 H1329 0.950 . S
C1349 C1348 1.414 . S
C1349 C1350 1.374 . S
C1350 H1330 0.950 . S
C1350 C1346 1.385 . S
C1350 C1349 1.374 . S
C1351 C1348 1.499 . S
C1351 C1352 1.373 . S
C1351 C1353 1.389 . S
C1352 H1331 0.950 . S
C1352 C1351 1.373 . S
C1352 C1368 1.377 . S
C1353 C1351 1.389 . S
C1353 C1354 1.524 . S
C1353 C1367 1.377 . S
C1354 C1353 1.524 . S
C1354 C1355 1.397 . S
C1354 C1359 1.363 . S
C1355 H1332 0.950 . S
C1355 C1354 1.397 . S
C1355 C1356 1.334 . S
C1356 H1333 0.950 . S
C1356 C1355 1.334 . S
C1356 C1357 1.287 . S
C1357 C1356 1.287 . S
C1357 C1358 1.524 . S
C1357 H1376 0.913 . S
C1358 H1334 0.950 . S
C1358 C1357 1.524 . S
C1358 C1359 1.415 . S
C1359 H1335 0.950 . S
C1359 C1354 1.363 . S
C1359 C1358 1.415 . S
C1360 H1336 0.951 . S
C1360 C1361 1.366 . S
C1360 C1362 1.388 . S
C1361 C1360 1.366 . S
C1361 C1365 1.385 . S
C1362 H1337 0.951 . S
C1362 C1360 1.388 . S
C1362 C1363 1.366 . S
C1363 C1362 1.366 . S
C1363 C1364 1.414 . S
C1363 C1366 1.499 . S
C1364 H1338 0.950 . S
C1364 C1363 1.414 . S
C1364 C1365 1.374 . S
C1365 H1339 0.950 . S
C1365 C1361 1.385 . S
C1365 C1364 1.374 . S
C1366 C1363 1.499 . S
C1366 C1367 1.373 . S
C1366 C1368 1.389 . S
C1367 H1340 0.950 . S
C1367 C1353 1.377 . S
C1367 C1366 1.373 . S
C1368 C1352 1.377 . S
C1368 C1366 1.389 . S
C1368 C1369 1.524 . S
C1369 C1368 1.524 . S
C1369 C1370 1.397 . S
C1369 C1374 1.363 . S
C1370 H1341 0.950 . S
C1370 C1369 1.397 . S
C1370 C1371 1.334 . S
C1371 H1342 0.950 . S
C1371 C1370 1.334 . S
C1371 C1372 1.287 . S
C1372 C1371 1.287 . S
C1372 C1373 1.524 . S
C1372 H1375 0.999 . S
C1373 H1343 0.950 . S
C1373 C1372 1.524 . S
C1373 C1374 1.415 . S
C1374 H1344 0.950 . S
C1374 C1369 1.363 . S
C1374 C1373 1.415 . S
H1375 C1372 0.999 . S
H1376 C1357 0.913 . S
C196 C1 1.633 . S
C211 C84 1.560 . S
C246 C27 1.505 . S
C261 C116 1.479 . S
C311 C175 1.866 . S
C296 C40 1.908 . S
C361 C104 1.393 . S
C346 C55 1.419 . S
C396 C68 1.550 . S
C411 C134 1.477 . S
C461 C156 1.068 . S
C446 C70 1.088 . S
C511 C125 1.536 . S
C496 C41 1.576 . S
C546 C54 1.148 . S
C561 C165 1.107 . S
C611 C114 1.457 . S
C596 C69 1.498 1_556 S
C646 C71 1.485 . S
C661 C144 1.454 . S
C696 C0 1.834 . S
C711 C147 1.797 . S
C761 C86 1.542 . S
C746 C26 1.570 1_556 S
C811 C94 1.499 . S
C796 C42 1.539 . S
C861 C135 1.478 . S
C846 C57 1.509 . S
C911 C148 1.893 . S
C896 C83 1.938 . S
C961 C85 1.435 . S
C946 C12 1.466 . S
C1011 C145 1.443 . S
C996 C14 1.481 1_556 S
C1046 C29 1.115 . S
C1061 C146 1.074 . S
C1111 C115 1.489 . S
C1096 C82 1.562 . S
C1161 C176 1.077 . S
C1146 C13 1.097 . S
C1211 C103 1.444 . S
C1196 C15 1.515 . S
C1261 C117 1.510 . S
C1246 C28 1.543 . S
C1296 C43 1.854 . S
C1311 C166 1.811 . S
C1346 C56 1.596 . S
C1361 C113 1.564 . S
