# Generated by pormake.
# Topology pyr, (3,6)-cn, num edge types: 1
# Building blocks:
#     Node 0, Type 0, BuildingBlock: WUSLED_clean_sbu_0, # of connection points: 3
#     Node 1, Type 0, BuildingBlock: WUSLED_clean_sbu_0, # of connection points: 3
#     Node 2, Type 0, BuildingBlock: WUSLED_clean_sbu_0, # of connection points: 3
#     Node 3, Type 0, BuildingBlock: WUSLED_clean_sbu_0, # of connection points: 3
#     Node 4, Type 0, BuildingBlock: WUSLED_clean_sbu_0, # of connection points: 3
#     Node 5, Type 0, BuildingBlock: WUSLED_clean_sbu_0, # of connection points: 3
#     Node 6, Type 0, BuildingBlock: WUSLED_clean_sbu_0, # of connection points: 3
#     Node 7, Type 0, BuildingBlock: WUSLED_clean_sbu_0, # of connection points: 3
#     Node 8, Type 1, BuildingBlock: MIDCAF_clean_sbu_0, # of connection points: 6
#     Node 9, Type 1, BuildingBlock: MIDCAF_clean_sbu_0, # of connection points: 6
#     Node 10, Type 1, BuildingBlock: MIDCAF_clean_sbu_0, # of connection points: 6
#     Node 11, Type 1, BuildingBlock: MIDCAF_clean_sbu_0, # of connection points: 6
#     Edge 12, Type (0, 1), BuildingBlock: TEMPAE_clean_linker_10, # of connection points: 2
#     Edge 13, Type (0, 1), BuildingBlock: TEMPAE_clean_linker_10, # of connection points: 2
#     Edge 14, Type (0, 1), BuildingBlock: TEMPAE_clean_linker_10, # of connection points: 2
#     Edge 15, Type (0, 1), BuildingBlock: TEMPAE_clean_linker_10, # of connection points: 2
#     Edge 16, Type (0, 1), BuildingBlock: TEMPAE_clean_linker_10, # of connection points: 2
#     Edge 17, Type (0, 1), BuildingBlock: TEMPAE_clean_linker_10, # of connection points: 2
#     Edge 18, Type (0, 1), BuildingBlock: TEMPAE_clean_linker_10, # of connection points: 2
#     Edge 19, Type (0, 1), BuildingBlock: TEMPAE_clean_linker_10, # of connection points: 2
#     Edge 20, Type (0, 1), BuildingBlock: TEMPAE_clean_linker_10, # of connection points: 2
#     Edge 21, Type (0, 1), BuildingBlock: TEMPAE_clean_linker_10, # of connection points: 2
#     Edge 22, Type (0, 1), BuildingBlock: TEMPAE_clean_linker_10, # of connection points: 2
#     Edge 23, Type (0, 1), BuildingBlock: TEMPAE_clean_linker_10, # of connection points: 2
#     Edge 24, Type (0, 1), BuildingBlock: TEMPAE_clean_linker_10, # of connection points: 2
#     Edge 25, Type (0, 1), BuildingBlock: TEMPAE_clean_linker_10, # of connection points: 2
#     Edge 26, Type (0, 1), BuildingBlock: TEMPAE_clean_linker_10, # of connection points: 2
#     Edge 27, Type (0, 1), BuildingBlock: TEMPAE_clean_linker_10, # of connection points: 2
#     Edge 28, Type (0, 1), BuildingBlock: TEMPAE_clean_linker_10, # of connection points: 2
#     Edge 29, Type (0, 1), BuildingBlock: TEMPAE_clean_linker_10, # of connection points: 2
#     Edge 30, Type (0, 1), BuildingBlock: TEMPAE_clean_linker_10, # of connection points: 2
#     Edge 31, Type (0, 1), BuildingBlock: TEMPAE_clean_linker_10, # of connection points: 2
#     Edge 32, Type (0, 1), BuildingBlock: TEMPAE_clean_linker_10, # of connection points: 2
#     Edge 33, Type (0, 1), BuildingBlock: TEMPAE_clean_linker_10, # of connection points: 2
#     Edge 34, Type (0, 1), BuildingBlock: TEMPAE_clean_linker_10, # of connection points: 2
#     Edge 35, Type (0, 1), BuildingBlock: TEMPAE_clean_linker_10, # of connection points: 2
# Relax obj value: 0.020
# Max RMSD: 0.063
# Mean RMSD: 0.028
data_MOF--net-pyr--node1-WUSLED_clean_sbu_0--node2-MIDCAF_clean_sbu_0--edge1-TEMPAE_clean_linker_10
_symmetry_space_group_name_H-M    P1
_symmetry_Int_Tables_number       1
_symmetry_cell_setting            triclinic
loop_
_symmetry_equiv_pos_as_xyz
'x, y, z'
_cell_length_a     46.724499
_cell_length_b     46.896984
_cell_length_c     46.806007
_cell_angle_alpha  89.575777
_cell_angle_beta   90.175898
_cell_angle_gamma 90.649551
loop_
_atom_site_label
_atom_site_type_symbol
_atom_site_fract_x
_atom_site_fract_y
_atom_site_fract_z
_atom_type_partial_charge
C0 C 0.21834 0.29749 0.18101 0.0
C1 C 0.18827 0.29655 0.18011 0.0
C2 C 0.18719 0.34416 0.15868 0.0
C3 C 0.1729 0.31958 0.16896 0.0
C4 C 0.21724 0.34539 0.16042 0.0
C5 C 0.23264 0.32223 0.17135 0.0
U6 U 0.23221 0.2336 0.23123 0.0
O7 O 0.24478 0.18977 0.22078 0.0
O8 O 0.27285 0.21637 0.24749 0.0
C9 C 0.26958 0.19208 0.23391 0.0
C10 C 0.23515 0.27255 0.19057 0.0
C11 C 0.29456 0.18139 0.21808 0.0
C12 C 0.33694 0.18856 0.18853 0.0
C13 C 0.31355 0.1997 0.20338 0.0
C14 C 0.32256 0.14081 0.20285 0.0
C15 C 0.34159 0.15893 0.18791 0.0
C16 C 0.29938 0.15193 0.21776 0.0
C17 C 0.17924 0.21891 0.2933 0.0
C18 C 0.18611 0.19003 0.33622 0.0
C19 C 0.1382 0.20177 0.32061 0.0
C20 C 0.14956 0.21708 0.29745 0.0
C21 C 0.15629 0.18798 0.34028 0.0
C22 C 0.19749 0.20527 0.31288 0.0
C23 C 0.19031 0.23546 0.26859 0.0
O24 O 0.24868 0.27504 0.21512 0.0
O25 O 0.22289 0.24741 0.18726 0.0
O26 O 0.1878 0.22316 0.24357 0.0
O27 O 0.21496 0.24885 0.27201 0.0
H28 H 0.17664 0.27786 0.18762 0.0
H29 H 0.14975 0.31812 0.16833 0.0
H30 H 0.22889 0.36392 0.15255 0.0
H31 H 0.2558 0.32343 0.17179 0.0
H32 H 0.351 0.20307 0.17699 0.0
H33 H 0.3102 0.22251 0.20322 0.0
H34 H 0.32566 0.11796 0.2031 0.0
H35 H 0.28508 0.13743 0.22904 0.0
H36 H 0.20062 0.17938 0.35078 0.0
H37 H 0.11518 0.20088 0.32323 0.0
H38 H 0.13509 0.22754 0.28269 0.0
H39 H 0.22049 0.20627 0.31008 0.0
C40 C 0.26314 0.83781 0.68367 0.0
C41 C 0.2467 0.85268 0.70365 0.0
C42 C 0.21863 0.87404 0.66506 0.0
C43 C 0.22454 0.87058 0.69442 0.0
C44 C 0.23531 0.85912 0.64528 0.0
C45 C 0.25727 0.84126 0.6545 0.0
U46 U 0.32474 0.81188 0.73277 0.0
O47 O 0.33613 0.76767 0.74426 0.0
O48 O 0.36644 0.79475 0.72039 0.0
C49 C 0.36052 0.76908 0.73038 0.0
C50 C 0.2861 0.81811 0.69229 0.0
C51 C 0.36679 0.74504 0.71119 0.0
C52 C 0.37259 0.72532 0.66359 0.0
C53 C 0.36392 0.74752 0.68138 0.0
C54 C 0.38593 0.69741 0.70516 0.0
C55 C 0.38414 0.70015 0.67524 0.0
C56 C 0.3774 0.71965 0.7229 0.0
C57 C 0.34611 0.85452 0.80027 0.0
C58 C 0.39261 0.85997 0.82341 0.0
C59 C 0.34972 0.87428 0.84811 0.0
C60 C 0.33314 0.86563 0.8247 0.0
C61 C 0.37973 0.87213 0.84755 0.0
C62 C 0.37597 0.85119 0.80003 0.0
C63 C 0.32827 0.84875 0.77473 0.0
O64 O 0.31238 0.82818 0.69027 0.0
O65 O 0.28176 0.8027 0.7155 0.0
O66 O 0.31169 0.82593 0.77571 0.0
O67 O 0.3407 0.85258 0.74981 0.0
H68 H 0.25092 0.85041 0.72632 0.0
H69 H 0.21224 0.88189 0.71019 0.0
H70 H 0.23108 0.86083 0.62257 0.0
H71 H 0.26957 0.82989 0.63874 0.0
H72 H 0.37064 0.72801 0.64066 0.0
H73 H 0.35559 0.76684 0.67182 0.0
H74 H 0.39503 0.67853 0.71487 0.0
H75 H 0.37985 0.7173 0.74582 0.0
H76 H 0.41563 0.85771 0.8224 0.0
H77 H 0.33909 0.88385 0.86614 0.0
H78 H 0.31017 0.8685 0.82533 0.0
H79 H 0.38651 0.84251 0.78149 0.0
C80 C 0.68379 0.32959 0.75318 0.0
C81 C 0.70248 0.34212 0.73309 0.0
C82 C 0.66189 0.3606 0.70597 0.0
C83 C 0.69161 0.35736 0.70962 0.0
C84 C 0.64334 0.34783 0.72605 0.0
C85 C 0.65418 0.33246 0.74933 0.0
U86 U 0.73619 0.31781 0.81592 0.0
O87 O 0.72662 0.3059 0.86052 0.0
O88 O 0.75286 0.27788 0.83422 0.0
C89 C 0.73958 0.28127 0.85869 0.0
C90 C 0.69436 0.31364 0.7784 0.0
C91 C 0.7236 0.25639 0.87027 0.0
C92 C 0.69477 0.21318 0.86439 0.0
C93 C 0.70988 0.2364 0.85249 0.0
C94 C 0.70684 0.22969 0.91186 0.0
C95 C 0.69289 0.2097 0.89425 0.0
C96 C 0.72205 0.25272 0.89999 0.0
C97 C 0.79835 0.37146 0.82803 0.0
C98 C 0.842 0.36532 0.85595 0.0
C99 C 0.82433 0.41277 0.84628 0.0
C100 C 0.80142 0.40109 0.83086 0.0
C101 C 0.84484 0.39506 0.85915 0.0
C102 C 0.81888 0.35361 0.84064 0.0
C103 C 0.77353 0.36004 0.81192 0.0
O104 O 0.71891 0.30046 0.77573 0.0
O105 O 0.69176 0.32662 0.80303 0.0
O106 O 0.74858 0.36239 0.82451 0.0
O107 O 0.77674 0.3354 0.79913 0.0
H108 H 0.72544 0.34035 0.73565 0.0
H109 H 0.70647 0.3672 0.6947 0.0
H110 H 0.62036 0.34967 0.72373 0.0
H111 H 0.63937 0.32292 0.76449 0.0
H112 H 0.68399 0.19834 0.85025 0.0
H113 H 0.71066 0.23884 0.82948 0.0
H114 H 0.70607 0.2275 0.9349 0.0
H115 H 0.73254 0.26781 0.91409 0.0
H116 H 0.85727 0.35111 0.86586 0.0
H117 H 0.82603 0.43574 0.84809 0.0
H118 H 0.78592 0.41526 0.82123 0.0
H119 H 0.81695 0.33065 0.83889 0.0
C120 C 0.75557 0.68705 0.32133 0.0
C121 C 0.75692 0.6869 0.35132 0.0
C122 C 0.71017 0.66346 0.35386 0.0
C123 C 0.73451 0.67509 0.3674 0.0
C124 C 0.70842 0.66453 0.32389 0.0
C125 C 0.731 0.6761 0.30777 0.0
U126 U 0.81751 0.73935 0.30571 0.0
O127 O 0.86182 0.73094 0.2932 0.0
O128 O 0.83399 0.75523 0.2643 0.0
C129 C 0.85867 0.74243 0.26769 0.0
C130 C 0.77997 0.69727 0.3039 0.0
C131 C 0.86847 0.72505 0.24351 0.0
C132 C 0.87941 0.67902 0.22286 0.0
C133 C 0.868 0.69512 0.24502 0.0
C134 C 0.89079 0.72242 0.19669 0.0
C135 C 0.89125 0.6925 0.19861 0.0
C136 C 0.87963 0.73854 0.21903 0.0
C137 C 0.83193 0.80227 0.3557 0.0
C138 C 0.8778 0.82663 0.36131 0.0
C139 C 0.83507 0.84694 0.38162 0.0
C140 C 0.81881 0.82411 0.37098 0.0
C141 C 0.86487 0.8483 0.3773 0.0
C142 C 0.86148 0.80391 0.35053 0.0
C143 C 0.81478 0.7774 0.34648 0.0
O144 O 0.77644 0.72152 0.29013 0.0
O145 O 0.80541 0.69506 0.31576 0.0
O146 O 0.8271 0.75251 0.34964 0.0
O147 O 0.8012 0.7801 0.32198 0.0
H148 H 0.7755 0.69546 0.36235 0.0
H149 H 0.73627 0.67494 0.39048 0.0
H150 H 0.68998 0.65563 0.31289 0.0
H151 H 0.72952 0.67601 0.28467 0.0
H152 H 0.8791 0.65598 0.22473 0.0
H153 H 0.85925 0.68416 0.26355 0.0
H154 H 0.89986 0.73336 0.17831 0.0
H155 H 0.88018 0.7616 0.21744 0.0
H156 H 0.9007 0.82669 0.35786 0.0
H157 H 0.8243 0.86343 0.39341 0.0
H158 H 0.796 0.82328 0.37507 0.0
H159 H 0.87205 0.78729 0.33872 0.0
C160 C 0.88537 0.82436 0.94201 0.0
C161 C 0.90802 0.81147 0.92759 0.0
C162 C 0.91016 0.77403 0.96403 0.0
C163 C 0.92029 0.78655 0.93848 0.0
C164 C 0.88763 0.78727 0.97855 0.0
C165 C 0.87533 0.81218 0.96758 0.0
U166 U 0.88167 0.88445 0.88666 0.0
O167 O 0.84453 0.90302 0.86467 0.0
O168 O 0.87174 0.92993 0.89184 0.0
C169 C 0.84817 0.92812 0.87654 0.0
C170 C 0.87191 0.85025 0.93042 0.0
C171 C 0.82243 0.94041 0.88946 0.0
C172 C 0.78374 0.93844 0.92401 0.0
C173 C 0.8086 0.92684 0.91246 0.0
C174 C 0.78643 0.97749 0.88993 0.0
C175 C 0.77223 0.96384 0.91279 0.0
C176 C 0.81128 0.96583 0.87837 0.0
C177 C 0.93735 0.8873 0.82657 0.0
C178 C 0.9371 0.92337 0.78904 0.0
C179 C 0.9727 0.88623 0.78859 0.0
C180 C 0.96106 0.87468 0.81371 0.0
C181 C 0.96082 0.91068 0.77587 0.0
C182 C 0.92547 0.91177 0.81416 0.0
C183 C 0.92503 0.8744 0.85261 0.0
O184 O 0.88734 0.87379 0.93223 0.0
O185 O 0.85933 0.8473 0.90545 0.0
O186 O 0.89963 0.86249 0.84952 0.0
O187 O 0.92729 0.88973 0.87592 0.0
H188 H 0.91615 0.82065 0.90787 0.0
H189 H 0.93791 0.7772 0.92699 0.0
H190 H 0.87916 0.7781 0.99811 0.0
H191 H 0.85782 0.82184 0.97898 0.0
H192 H 0.77363 0.9276 0.9419 0.0
H193 H 0.81698 0.90723 0.92138 0.0
H194 H 0.77805 0.9969 0.88062 0.0
H195 H 0.82166 0.97657 0.86057 0.0
H196 H 0.92714 0.94196 0.77963 0.0
H197 H 0.99111 0.87609 0.77921 0.0
H198 H 0.97053 0.85578 0.82305 0.0
H199 H 0.90706 0.92173 0.82375 0.0
C200 C 0.61379 0.16726 0.32412 0.0
C201 C 0.62617 0.14352 0.31121 0.0
C202 C 0.59014 0.14468 0.27332 0.0
C203 C 0.61446 0.13233 0.28605 0.0
C204 C 0.57765 0.16829 0.28659 0.0
C205 C 0.58942 0.17949 0.31174 0.0
U206 U 0.66943 0.16801 0.38439 0.0
O207 O 0.69324 0.20415 0.40299 0.0
O208 O 0.6645 0.17835 0.42991 0.0
C209 C 0.68093 0.20122 0.42807 0.0
C210 C 0.62632 0.17973 0.35015 0.0
C211 C 0.6689 0.22743 0.43998 0.0
C212 C 0.63513 0.26636 0.43767 0.0
C213 C 0.64602 0.24116 0.42643 0.0
C214 C 0.6697 0.26426 0.4763 0.0
C215 C 0.64694 0.27833 0.46266 0.0
C216 C 0.6806 0.23905 0.465 0.0
C217 C 0.72697 0.11077 0.38833 0.0
C218 C 0.76846 0.1144 0.4196 0.0
C219 C 0.75947 0.07089 0.39331 0.0
C220 C 0.73486 0.08293 0.38136 0.0
C221 C 0.77673 0.08654 0.41246 0.0
C222 C 0.74379 0.12636 0.40771 0.0
C223 C 0.70153 0.12343 0.37485 0.0
O224 O 0.62363 0.16432 0.37358 0.0
O225 O 0.65205 0.19097 0.34715 0.0
O226 O 0.7057 0.14837 0.36247 0.0
O227 O 0.6779 0.12216 0.39 0.0
H228 H 0.64494 0.13373 0.32053 0.0
H229 H 0.62436 0.11386 0.27667 0.0
H230 H 0.55911 0.17845 0.27726 0.0
H231 H 0.57963 0.19788 0.3214 0.0
H232 H 0.61729 0.27638 0.42688 0.0
H233 H 0.63665 0.2324 0.40714 0.0
H234 H 0.67942 0.27299 0.49541 0.0
H235 H 0.69831 0.22871 0.4757 0.0
H236 H 0.78139 0.12724 0.43392 0.0
H237 H 0.76492 0.04929 0.38763 0.0
H238 H 0.72205 0.07053 0.36653 0.0
H239 H 0.73803 0.1479 0.41336 0.0
C240 C 0.32703 0.60949 0.16326 0.0
C241 C 0.31308 0.62361 0.14078 0.0
C242 C 0.27598 0.58655 0.1399 0.0
C243 C 0.2878 0.61226 0.12921 0.0
C244 C 0.2903 0.57233 0.16223 0.0
C245 C 0.31558 0.58376 0.17383 0.0
U246 U 0.38609 0.66649 0.16618 0.0
O247 O 0.40539 0.68809 0.20319 0.0
O248 O 0.43216 0.6623 0.17525 0.0
C249 C 0.43069 0.67691 0.19905 0.0
C250 C 0.35324 0.62161 0.17609 0.0
C251 C 0.44382 0.66354 0.22437 0.0
C252 C 0.44291 0.62823 0.26261 0.0
C253 C 0.4307 0.64011 0.23798 0.0
C254 C 0.48176 0.66281 0.26008 0.0
C255 C 0.4685 0.63956 0.2741 0.0
C256 C 0.46947 0.6747 0.23546 0.0
C257 C 0.38568 0.72862 0.11152 0.0
C258 C 0.41833 0.75405 0.07941 0.0
C259 C 0.38404 0.78042 0.10705 0.0
C260 C 0.3736 0.75489 0.1189 0.0
C261 C 0.40665 0.78034 0.0873 0.0
C262 C 0.40795 0.72849 0.09134 0.0
C263 C 0.37402 0.7016 0.12386 0.0
O264 O 0.37626 0.62089 0.16004 0.0
O265 O 0.35009 0.64616 0.189 0.0
O266 O 0.36241 0.70329 0.14934 0.0
O267 O 0.38949 0.67857 0.12074 0.0
H268 H 0.32169 0.64346 0.13228 0.0
H269 H 0.27761 0.62353 0.11172 0.0
H270 H 0.28169 0.55265 0.1711 0.0
H271 H 0.32607 0.57259 0.19122 0.0
H272 H 0.43238 0.61006 0.27259 0.0
H273 H 0.41092 0.63114 0.22964 0.0
H274 H 0.5013 0.67219 0.26846 0.0
H275 H 0.47987 0.69284 0.22524 0.0
H276 H 0.43593 0.75325 0.06444 0.0
H277 H 0.37427 0.80026 0.11327 0.0
H278 H 0.356 0.75576 0.13387 0.0
H279 H 0.41749 0.70865 0.08479 0.0
C280 C 0.1354 0.31749 0.63533 0.0
C281 C 0.15765 0.29758 0.63383 0.0
C282 C 0.13003 0.26898 0.60011 0.0
C283 C 0.15492 0.27352 0.61648 0.0
C284 C 0.10838 0.28955 0.60068 0.0
C285 C 0.11099 0.31347 0.61821 0.0
U286 U 0.17049 0.38505 0.66593 0.0
O287 O 0.15117 0.42419 0.68253 0.0
O288 O 0.17789 0.39758 0.71048 0.0
C289 C 0.16138 0.42 0.70841 0.0
C290 C 0.13641 0.34148 0.65571 0.0
C291 C 0.14153 0.42415 0.73224 0.0
C292 C 0.10084 0.40959 0.7615 0.0
C293 C 0.11818 0.40569 0.7374 0.0
C294 C 0.12996 0.45048 0.77492 0.0
C295 C 0.10695 0.43176 0.78076 0.0
C296 C 0.14704 0.44667 0.75094 0.0
C297 C 0.24042 0.41422 0.63315 0.0
C298 C 0.28949 0.42678 0.64604 0.0
C299 C 0.26409 0.45549 0.61131 0.0
C300 C 0.23994 0.43784 0.61445 0.0
C301 C 0.28935 0.44975 0.62659 0.0
C302 C 0.26536 0.40919 0.64925 0.0
C303 C 0.21595 0.39377 0.63413 0.0
O304 O 0.15695 0.34095 0.67498 0.0
O305 O 0.1321 0.36705 0.6449 0.0
O306 O 0.19059 0.40387 0.62757 0.0
O307 O 0.21531 0.37584 0.65586 0.0
H308 H 0.17686 0.30013 0.64659 0.0
H309 H 0.17201 0.2581 0.61636 0.0
H310 H 0.08877 0.28646 0.58861 0.0
H311 H 0.09352 0.32844 0.61903 0.0
H312 H 0.08323 0.3949 0.76549 0.0
H313 H 0.11368 0.38813 0.72311 0.0
H314 H 0.13485 0.46809 0.78903 0.0
H315 H 0.16491 0.46116 0.74722 0.0
H316 H 0.3086 0.42192 0.65822 0.0
H317 H 0.26345 0.47276 0.59584 0.0
H318 H 0.22121 0.44216 0.60151 0.0
H319 H 0.26661 0.39114 0.66375 0.0
Zn320 Zn 0.9926 0.05124 0.55319 0.0
Zn321 Zn 0.06048 0.99141 0.49651 0.0
Zn322 Zn 0.0262 0.02259 0.52581 0.0
C323 C 0.0742 0.04851 0.48319 0.0
C324 C 1.00556 0.97688 0.47851 0.0
O325 O 0.02465 1.004 0.56999 0.0
O326 O 0.98392 0.02292 0.58359 0.0
C327 C 0.03861 0.08686 0.54457 0.0
O328 O 0.05634 0.05265 0.50372 0.0
O329 O 0.07911 0.0234 0.47504 0.0
O330 O 0.03082 0.96774 0.47735 0.0
O331 O 0.99983 0.99889 0.4938 0.0
O332 O 0.01822 0.08368 0.56197 0.0
O333 O 0.04382 0.06697 0.52646 0.0
O334 O 0.98281 0.02049 0.50466 0.0
O335 O 0.96288 0.05811 0.52417 0.0
C336 C 0.96224 0.03863 0.50579 0.0
O337 O 0.04902 0.99341 0.55643 0.0
O338 O 0.0812 0.97339 0.52858 0.0
C339 C 1.00374 1.00534 0.58788 0.0
C340 C 0.07081 0.97704 0.55311 0.0
Zn341 Zn 0.49593 0.05843 0.99599 0.0
Zn342 Zn 0.55949 0.99454 0.06254 0.0
Zn343 Zn 0.52772 0.02634 0.02929 0.0
C344 C 0.5955 0.01441 0.01936 0.0
C345 C 0.51619 0.95884 0.04214 0.0
O346 O 0.50393 0.05666 0.0572 0.0
O347 O 0.47568 0.07906 0.02669 0.0
C348 C 0.55275 0.06986 0.98062 0.0
O349 O 0.57241 0.02764 0.01227 0.0
O350 O 0.59564 0.99818 0.04099 0.0
O351 O 0.53727 0.95869 0.05906 0.0
O352 O 0.50991 0.98186 0.02827 0.0
O353 O 0.52765 0.07827 0.97552 0.0
O354 O 0.55688 0.0497 0.99909 0.0
O355 O 0.49746 0.99751 1.00578 0.0
O356 O 0.47529 0.02697 0.97626 0.0
C357 C 0.4796 1.00188 0.98514 0.0
O358 O 0.52608 0.04425 0.07339 0.0
O359 O 0.55552 0.01669 0.09796 0.0
C360 C 0.48371 0.0746 0.05211 0.0
C361 C 0.53917 0.03791 0.0969 0.0
Zn362 Zn 0.56668 0.55642 0.55145 0.0
Zn363 Zn 0.49988 0.49091 0.48758 0.0
Zn364 Zn 0.53247 0.5235 0.51959 0.0
C365 C 0.54211 0.45559 0.50913 0.0
C366 C 0.52083 0.53308 0.45128 0.0
O367 O 0.50488 0.54704 0.55016 0.0
O368 O 0.53555 0.575 0.57311 0.0
C369 C 0.58177 0.49962 0.56284 0.0
O370 O 0.5493 0.47909 0.52163 0.0
O371 O 0.52057 0.45482 0.49283 0.0
O372 O 0.50448 0.51148 0.45097 0.0
O373 O 0.53367 0.54032 0.47466 0.0
O374 O 0.58786 0.52481 0.57033 0.0
O375 O 0.56257 0.4952 0.54339 0.0
O376 O 0.55556 0.5536 0.49066 0.0
O377 O 0.58472 0.57777 0.51918 0.0
C378 C 0.57553 0.57246 0.49435 0.0
O379 O 0.4883 0.52564 0.53693 0.0
O380 O 0.46402 0.49622 0.50892 0.0
C381 C 0.5101 0.56677 0.56863 0.0
C382 C 0.46473 0.51282 0.53002 0.0
Zn383 Zn 0.06175 0.56232 0.98993 0.0
Zn384 Zn 0.99553 0.49646 0.05566 0.0
Zn385 Zn 0.02901 0.52948 0.02214 0.0
C386 C 0.0527 0.48627 0.07158 0.0
C387 C 0.98492 0.4805 0.99868 0.0
O388 O 0.01238 0.57411 0.02344 0.0
O389 O 0.04114 0.59852 0.99461 0.0
C390 C 0.09731 0.54031 0.03232 0.0
O391 O 0.05722 0.50581 0.05247 0.0
O392 O 0.02742 0.47822 0.07721 0.0
O393 O 0.97678 0.47513 0.02389 0.0
O394 O 1.00485 0.4993 0.99415 0.0
O395 O 0.09799 0.55703 0.01107 0.0
O396 O 0.07369 0.52749 0.03922 0.0
O397 O 0.0266 0.5126 0.97792 0.0
O398 O 0.056 0.54121 0.95396 0.0
C399 C 0.03928 0.51988 0.95449 0.0
O400 O 0.99921 0.55768 0.04516 0.0
O401 O 0.9745 0.52848 0.07341 0.0
C402 C 0.01955 0.59768 0.01075 0.0
C403 C 0.98019 0.55348 0.06473 0.0
C404 C 0.12059 0.15239 0.35943 0.0
C405 C 0.14395 0.17079 0.36433 0.0
C406 C 0.10923 0.13519 0.38142 0.0
C407 C 0.12138 0.13641 0.40916 0.0
C408 C 0.14441 0.15557 0.41452 0.0
C409 C 0.15553 0.17241 0.39201 0.0
C410 C 0.0848 0.11496 0.37467 0.0
C411 C 0.15756 0.15791 0.44391 0.0
C412 C 0.07623 0.09987 0.46681 0.0
C413 C 0.08826 0.0726 0.46764 0.0
C414 C 0.0879 0.1216 0.4493 0.0
C415 C 0.11161 0.11564 0.43155 0.0
C416 C 0.12447 0.08849 0.4332 0.0
C417 C 0.11275 0.06744 0.45125 0.0
C418 C 0.07394 0.15044 0.44882 0.0
C419 C 0.14979 0.08112 0.41477 0.0
H420 H 0.11167 0.15077 0.33809 0.0
H421 H 0.17328 0.18691 0.39608 0.0
H422 H 0.09193 0.09262 0.37752 0.0
H423 H 0.06682 0.11832 0.38965 0.0
H424 H 0.07675 0.11764 0.35247 0.0
H425 H 0.17453 0.17466 0.44491 0.0
H426 H 0.1408 0.16286 0.45981 0.0
H427 H 0.167 0.13721 0.4503 0.0
H428 H 0.0571 0.10398 0.47908 0.0
H429 H 0.12233 0.0465 0.45184 0.0
H430 H 0.06083 0.15254 0.42913 0.0
H431 H 0.09028 0.16779 0.44848 0.0
H432 H 0.0598 0.15344 0.46758 0.0
H433 H 0.14325 0.08129 0.39195 0.0
H434 H 0.15854 0.05979 0.42003 0.0
H435 H 0.1671 0.09729 0.41729 0.0
C436 C 0.3892 0.88179 0.89971 0.0
C437 C 0.39744 0.88475 0.87098 0.0
C438 C 0.40372 0.89664 0.92151 0.0
C439 C 0.42676 0.91522 0.91441 0.0
C440 C 0.43618 0.917 0.8857 0.0
C441 C 0.42147 0.90175 0.86439 0.0
C442 C 0.39345 0.89355 0.95193 0.0
C443 C 0.46075 0.93641 0.87717 0.0
C444 C 0.43888 0.9835 0.95584 0.0
C445 C 0.46451 0.97805 0.97046 0.0
C446 C 0.42585 0.96279 0.93855 0.0
C447 C 0.43853 0.93566 0.93592 0.0
C448 C 0.46353 0.9294 0.95193 0.0
C449 C 0.47654 0.95086 0.9686 0.0
C450 C 0.39916 0.97047 0.92201 0.0
C451 C 0.4774 0.90056 0.95052 0.0
H452 H 0.37097 0.86832 0.9051 0.0
H453 H 0.42791 0.90437 0.8423 0.0
H454 H 0.41182 0.89224 0.96692 0.0
H455 H 0.38093 0.91259 0.95776 0.0
H456 H 0.37961 0.87434 0.95487 0.0
H457 H 0.467 0.93361 0.8545 0.0
H458 H 0.45459 0.95897 0.88029 0.0
H459 H 0.47965 0.93232 0.89093 0.0
H460 H 0.42936 1.00442 0.95724 0.0
H461 H 0.49663 0.94661 0.97932 0.0
H462 H 0.3819 0.95458 0.92626 0.0
H463 H 0.4037 0.97007 0.89876 0.0
H464 H 0.39119 0.99196 0.92752 0.0
H465 H 0.46116 0.8832 0.94883 0.0
H466 H 0.491 0.89649 0.96962 0.0
H467 H 0.49119 0.89976 0.9313 0.0
C468 C 0.62856 0.39788 0.68723 0.0
C469 C 0.65019 0.3781 0.68199 0.0
C470 C 0.61778 0.4153 0.66527 0.0
C471 C 0.62867 0.41283 0.63719 0.0
C472 C 0.64995 0.39235 0.63153 0.0
C473 C 0.66068 0.37544 0.65406 0.0
C474 C 0.59525 0.43697 0.67235 0.0
C475 C 0.66198 0.38873 0.6019 0.0
C476 C 0.58217 0.44893 0.58095 0.0
C477 C 0.59572 0.47565 0.57824 0.0
C478 C 0.59382 0.42739 0.59839 0.0
C479 C 0.61895 0.43312 0.61449 0.0
C480 C 0.63325 0.45968 0.61102 0.0
C481 C 0.62158 0.4805 0.59285 0.0
C482 C 0.57845 0.399 0.60057 0.0
C483 C 0.66013 0.46672 0.62765 0.0
H484 H 0.62056 0.4003 0.70878 0.0
H485 H 0.67719 0.36002 0.64977 0.0
H486 H 0.60368 0.45879 0.66803 0.0
H487 H 0.57615 0.43377 0.65855 0.0
H488 H 0.58844 0.43567 0.69505 0.0
H489 H 0.67241 0.36772 0.59946 0.0
H490 H 0.64506 0.39084 0.58538 0.0
H491 H 0.67827 0.40565 0.59781 0.0
H492 H 0.56185 0.44517 0.57037 0.0
H493 H 0.63227 0.50105 0.59086 0.0
H494 H 0.56662 0.39779 0.62107 0.0
H495 H 0.59393 0.38123 0.6004 0.0
H496 H 0.56293 0.39591 0.58279 0.0
H497 H 0.65516 0.46736 0.65081 0.0
H498 H 0.66965 0.48761 0.62123 0.0
H499 H 0.67632 0.44993 0.62455 0.0
C500 C 0.89862 0.68004 0.14699 0.0
C501 C 0.90486 0.67528 0.17596 0.0
C502 C 0.91063 0.66297 0.12565 0.0
C503 C 0.92944 0.64073 0.13352 0.0
C504 C 0.93647 0.63648 0.1627 0.0
C505 C 0.92402 0.6537 0.18352 0.0
C506 C 0.90211 0.66809 0.09494 0.0
C507 C 0.9567 0.61327 0.17202 0.0
C508 C 0.93828 0.57358 0.0901 0.0
C509 C 0.96567 0.57764 0.07851 0.0
C510 C 0.92548 0.59474 0.10661 0.0
C511 C 0.94052 0.62055 0.11184 0.0
C512 C 0.96743 0.62549 0.09872 0.0
C513 C 0.97985 0.60381 0.08246 0.0
C514 C 0.89643 0.58892 0.11957 0.0
C515 C 0.98375 0.65306 0.10301 0.0
H516 H 0.88369 0.69661 0.14104 0.0
H517 H 0.92929 0.65027 0.20585 0.0
H518 H 0.91948 0.66255 0.07998 0.0
H519 H 0.88324 0.65447 0.08981 0.0
H520 H 0.89608 0.69067 0.09123 0.0
H521 H 0.96105 0.61367 0.19536 0.0
H522 H 0.94745 0.5921 0.16653 0.0
H523 H 0.97733 0.61555 0.1605 0.0
H524 H 0.92712 0.55345 0.0869 0.0
H525 H 1.00117 0.60695 0.07386 0.0
H526 H 0.88182 0.60682 0.11477 0.0
H527 H 0.89847 0.58728 0.14315 0.0
H528 H 0.88655 0.56885 0.11154 0.0
H529 H 0.96929 0.67157 0.10092 0.0
H530 H 1.0015 0.65565 0.08743 0.0
H531 H 0.9929 0.65338 0.12491 0.0
C532 C 0.36055 0.12283 0.15373 0.0
C533 C 0.36551 0.14672 0.171 0.0
C534 C 0.38241 0.11139 0.13694 0.0
C535 C 0.41011 0.12398 0.13744 0.0
C536 C 0.41555 0.14759 0.15546 0.0
C537 C 0.39313 0.15884 0.17184 0.0
C538 C 0.37557 0.08631 0.11793 0.0
C539 C 0.44489 0.16129 0.15702 0.0
C540 C 0.46737 0.07806 0.10332 0.0
C541 C 0.46831 0.08929 0.07548 0.0
C542 C 0.45015 0.09042 0.12446 0.0
C543 C 0.43243 0.11376 0.11722 0.0
C544 C 0.43397 0.12568 0.08939 0.0
C545 C 0.45202 0.1135 0.06904 0.0
C546 C 0.44994 0.07752 0.15408 0.0
C547 C 0.4154 0.15041 0.08057 0.0
H548 H 0.33925 0.11348 0.15272 0.0
H549 H 0.39724 0.17707 0.18541 0.0
H550 H 0.37849 0.0926 0.09521 0.0
H551 H 0.3905 0.06862 0.12249 0.0
H552 H 0.3533 0.07829 0.12081 0.0
H553 H 0.44668 0.17677 0.17481 0.0
H554 H 0.46155 0.14482 0.15982 0.0
H555 H 0.44949 0.17272 0.13668 0.0
H556 H 0.47911 0.05892 0.10836 0.0
H557 H 0.45259 0.12244 0.04761 0.0
H558 H 0.43069 0.06368 0.15656 0.0
H559 H 0.44897 0.09434 0.17059 0.0
H560 H 0.46921 0.06437 0.15807 0.0
H561 H 0.39255 0.14368 0.0811 0.0
H562 H 0.42045 0.15837 0.05873 0.0
H563 H 0.41804 0.16828 0.09578 0.0
C564 C 0.19907 0.90996 0.6304 0.0
C565 C 0.19501 0.8927 0.65469 0.0
C566 C 0.17639 0.92523 0.6182 0.0
C567 C 0.14881 0.92342 0.63063 0.0
C568 C 0.14484 0.90729 0.65606 0.0
C569 C 0.168 0.89211 0.6678 0.0
C570 C 0.1817 0.94226 0.59118 0.0
C571 C 0.11592 0.90528 0.67023 0.0
C572 C 0.09746 0.97806 0.5995 0.0
C573 C 0.08487 0.96243 0.57731 0.0
C574 C 0.11673 0.96511 0.6187 0.0
C575 C 0.12392 0.93605 0.61512 0.0
C576 C 0.10983 0.91987 0.59372 0.0
C577 C 0.09061 0.9333 0.57505 0.0
C578 C 0.13088 0.98307 0.64142 0.0
C579 C 0.11674 0.88887 0.58904 0.0
H580 H 0.22 0.9111 0.6205 0.0
H581 H 0.16463 0.87884 0.68658 0.0
H582 H 0.16939 0.9327 0.57327 0.0
H583 H 0.17419 0.96444 0.59376 0.0
H584 H 0.2047 0.94295 0.58522 0.0
H585 H 0.11656 0.89279 0.69048 0.0
H586 H 0.108 0.92696 0.67488 0.0
H587 H 0.10021 0.89509 0.65558 0.0
H588 H 0.09354 1.00076 0.60085 0.0
H589 H 0.08113 0.92132 0.55761 0.0
H590 H 0.1529 0.98889 0.63455 0.0
H591 H 0.13259 0.97104 0.66183 0.0
H592 H 0.11896 1.00304 0.64525 0.0
H593 H 0.13884 0.88717 0.58065 0.0
H594 H 0.10181 0.87859 0.57362 0.0
H595 H 0.11585 0.87685 0.60952 0.0
C596 C 0.86233 0.42906 0.89653 0.0
C597 C 0.86837 0.40765 0.87675 0.0
C598 C 0.88386 0.44072 0.91402 0.0
C599 C 0.91232 0.43092 0.91162 0.0
C600 C 0.91878 0.40984 0.89117 0.0
C601 C 0.89668 0.39827 0.87414 0.0
C602 C 0.87595 0.46302 0.93565 0.0
C603 C 0.94893 0.39919 0.88764 0.0
C604 C 0.9672 0.47925 0.9479 0.0
C605 C 0.9699 0.46604 0.97473 0.0
C606 C 0.95017 0.467 0.92628 0.0
C607 C 0.93461 0.44148 0.93202 0.0
C608 C 0.93807 0.42757 0.95874 0.0
C609 C 0.95573 0.43994 0.97966 0.0
C610 C 0.94774 0.48217 0.89786 0.0
C611 C 0.92189 0.40038 0.96585 0.0
H612 H 0.84049 0.43621 0.8989 0.0
H613 H 0.90157 0.38197 0.85865 0.0
H614 H 0.88018 0.45485 0.95755 0.0
H615 H 0.88936 0.48246 0.93256 0.0
H616 H 0.85308 0.46907 0.93414 0.0
H617 H 0.95102 0.38506 0.86883 0.0
H618 H 0.96414 0.41739 0.88528 0.0
H619 H 0.95539 0.38711 0.90704 0.0
H620 H 0.97745 0.49975 0.94412 0.0
H621 H 0.95772 0.42955 1.00033 0.0
H622 H 0.92665 0.49272 0.89638 0.0
H623 H 0.949 0.46678 0.88002 0.0
H624 H 0.9648 0.49864 0.89503 0.0
H625 H 0.89863 0.40479 0.96682 0.0
H626 H 0.92865 0.39104 0.98665 0.0
H627 H 0.92508 0.38432 0.94891 0.0
C628 C 0.65829 0.6555 0.36624 0.0
C629 C 0.68726 0.64941 0.37107 0.0
C630 C 0.63672 0.64313 0.38338 0.0
C631 C 0.64435 0.62415 0.40577 0.0
C632 C 0.6735 0.61722 0.41003 0.0
C633 C 0.69455 0.63001 0.39274 0.0
C634 C 0.60604 0.65152 0.37821 0.0
C635 C 0.68256 0.59679 0.43337 0.0
C636 C 0.60107 0.61457 0.4735 0.0
C637 C 0.58917 0.58727 0.46981 0.0
C638 C 0.61757 0.62761 0.452 0.0
C639 C 0.6225 0.6129 0.42621 0.0
C640 C 0.60902 0.5861 0.42163 0.0
C641 C 0.59275 0.57343 0.44364 0.0
C642 C 0.6309 0.65654 0.45744 0.0
C643 C 0.61293 0.57019 0.39406 0.0
H644 H 0.65254 0.67059 0.34959 0.0
H645 H 0.71685 0.62484 0.39621 0.0
H646 H 0.59086 0.63407 0.38389 0.0
H647 H 0.60103 0.67015 0.39171 0.0
H648 H 0.60248 0.65776 0.35554 0.0
H649 H 0.70588 0.59243 0.43285 0.0
H650 H 0.67726 0.60577 0.45455 0.0
H651 H 0.67069 0.57627 0.43132 0.0
H652 H 0.59814 0.62546 0.49362 0.0
H653 H 0.5839 0.55219 0.44079 0.0
H654 H 0.62629 0.67123 0.43935 0.0
H655 H 0.6545 0.65455 0.45903 0.0
H656 H 0.62296 0.66622 0.47747 0.0
H657 H 0.60997 0.58469 0.37546 0.0
H658 H 0.59767 0.55195 0.39211 0.0
H659 H 0.63506 0.56192 0.39309 0.0
C660 C 0.14867 0.362 0.12593 0.0
C661 C 0.17074 0.36796 0.14544 0.0
C662 C 0.1323 0.38391 0.11376 0.0
C663 C 0.13789 0.41263 0.12138 0.0
C664 C 0.16063 0.41892 0.14051 0.0
C665 C 0.17681 0.39652 0.15228 0.0
C666 C 0.10854 0.37621 0.09316 0.0
C667 C 0.16722 0.44911 0.14959 0.0
C668 C 0.10273 0.46705 0.07207 0.0
C669 C 0.07669 0.47147 0.08608 0.0
C670 C 0.12383 0.44944 0.08419 0.0
C671 C 0.11849 0.43551 0.11067 0.0
C672 C 0.09291 0.44125 0.12559 0.0
C673 C 0.07234 0.45904 0.1131 0.0
C674 C 0.15119 0.44463 0.068 0.0
C675 C 0.08661 0.42746 0.15417 0.0
H676 H 0.14421 0.34006 0.1201 0.0
H677 H 0.19372 0.40132 0.16746 0.0
H678 H 0.0876 0.38217 0.10235 0.0
H679 H 0.11121 0.38835 0.07288 0.0
H680 H 0.10794 0.35308 0.08825 0.0
H681 H 0.18964 0.45143 0.15728 0.0
H682 H 0.16366 0.46453 0.13191 0.0
H683 H 0.15276 0.45486 0.16735 0.0
H684 H 0.10614 0.47631 0.05106 0.0
H685 H 0.05234 0.46255 0.12416 0.0
H686 H 0.15113 0.42261 0.05946 0.0
H687 H 0.16996 0.44677 0.08244 0.0
H688 H 0.1538 0.45988 0.04989 0.0
H689 H 0.08368 0.40412 0.15142 0.0
H690 H 0.06701 0.43605 0.16417 0.0
H691 H 0.10491 0.43074 0.16899 0.0
C692 C 0.65696 0.19156 0.92986 0.0
C693 C 0.67554 0.18602 0.90713 0.0
C694 C 0.63959 0.16994 0.94173 0.0
C695 C 0.64086 0.1419 0.93078 0.0
C696 C 0.66024 0.13589 0.90844 0.0
C697 C 0.67715 0.15808 0.8967 0.0
C698 C 0.61915 0.17736 0.96541 0.0
C699 C 0.6626 0.10622 0.89646 0.0
C700 C 0.60426 0.08627 0.97836 0.0
C701 C 0.57693 0.0847 0.96598 0.0
C702 C 0.62611 0.10316 0.96596 0.0
C703 C 0.6201 0.11975 0.94125 0.0
C704 C 0.59286 0.11738 0.92812 0.0
C705 C 0.57175 0.09979 0.94051 0.0
C706 C 0.6551 0.10429 0.9802 0.0
C707 C 0.58544 0.13462 0.90179 0.0
H708 H 0.65536 0.21311 0.93787 0.0
H709 H 0.69172 0.15355 0.87937 0.0
H710 H 0.59677 0.17388 0.95809 0.0
H711 H 0.62267 0.16321 0.98416 0.0
H712 H 0.62159 0.19987 0.97233 0.0
H713 H 0.68203 0.10388 0.8831 0.0
H714 H 0.66309 0.09008 0.9139 0.0
H715 H 0.64355 0.10148 0.88304 0.0
H716 H 0.60832 0.07528 0.99835 0.0
H717 H 0.55072 0.09864 0.9307 0.0
H718 H 0.65701 0.12415 0.99282 0.0
H719 H 0.67247 0.10461 0.96409 0.0
H720 H 0.6583 0.08581 0.99482 0.0
H721 H 0.58558 0.15765 0.90709 0.0
H722 H 0.56403 0.12886 0.89303 0.0
H723 H 0.60167 0.13145 0.8849 0.0
C724 C 0.90628 0.88312 0.37601 0.0
C725 C 0.88265 0.87134 0.39055 0.0
C726 C 0.92478 0.90279 0.38932 0.0
C727 C 0.91948 0.9111 0.41783 0.0
C728 C 0.89492 0.90042 0.43213 0.0
C729 C 0.87691 0.88058 0.41841 0.0
C730 C 0.95074 0.91368 0.37329 0.0
C731 C 0.88842 0.90883 0.46248 0.0
C732 C 0.98403 0.93086 0.4632 0.0
C733 C 0.98281 0.9607 0.46353 0.0
C734 C 0.96344 0.91458 0.44859 0.0
C735 C 0.94115 0.92848 0.43365 0.0
C736 C 0.93988 0.95867 0.43379 0.0
C737 C 0.96079 0.97446 0.44878 0.0
C738 C 0.96568 0.88246 0.44903 0.0
C739 C 0.91669 0.97424 0.41782 0.0
H740 H 0.9106 0.87659 0.3543 0.0
H741 H 0.85895 0.87146 0.43003 0.0
H742 H 0.9522 0.93726 0.37447 0.0
H743 H 0.9704 0.90506 0.38334 0.0
H744 H 0.95036 0.90736 0.35047 0.0
H745 H 0.86669 0.90173 0.46925 0.0
H746 H 0.90435 0.89912 0.47713 0.0
H747 H 0.89013 0.93229 0.4649 0.0
H748 H 1.00113 0.92017 0.47458 0.0
H749 H 0.96045 0.99753 0.44823 0.0
H750 H 0.96777 0.87442 0.42692 0.0
H751 H 0.94589 0.87284 0.45816 0.0
H752 H 0.98428 0.87499 0.46177 0.0
H753 H 0.9177 0.96918 0.39474 0.0
H754 H 0.91859 0.99771 0.42033 0.0
H755 H 0.89539 0.96704 0.42559 0.0
C756 C 0.41384 0.68566 0.63331 0.0
C757 C 0.39638 0.67778 0.65646 0.0
C758 C 0.42856 0.66512 0.61755 0.0
C759 C 0.42575 0.63588 0.62498 0.0
C760 C 0.40679 0.62761 0.64717 0.0
C761 C 0.39248 0.64865 0.66277 0.0
C762 C 0.44849 0.67491 0.59402 0.0
C763 C 0.40267 0.59663 0.6553 0.0
C764 C 0.45956 0.5846 0.57226 0.0
C765 C 0.48681 0.58106 0.58435 0.0
C766 C 0.43864 0.6009 0.58607 0.0
C767 C 0.44551 0.61475 0.61208 0.0
C768 C 0.47267 0.61038 0.62478 0.0
C769 C 0.49286 0.59357 0.61085 0.0
C770 C 0.40974 0.60431 0.5721 0.0
C771 C 0.48097 0.62456 0.65253 0.0
H772 H 0.4172 0.70806 0.62838 0.0
H773 H 0.37864 0.64233 0.6803 0.0
H774 H 0.47096 0.6708 0.60045 0.0
H775 H 0.4442 0.66271 0.57423 0.0
H776 H 0.44637 0.69802 0.58916 0.0
H777 H 0.38439 0.59337 0.67013 0.0
H778 H 0.39899 0.58352 0.63597 0.0
H779 H 0.42235 0.58867 0.66584 0.0
H780 H 0.4549 0.57549 0.55154 0.0
H781 H 0.51383 0.59085 0.6204 0.0
H782 H 0.40878 0.6255 0.56148 0.0
H783 H 0.39237 0.60327 0.5882 0.0
H784 H 0.40566 0.58765 0.55577 0.0
H785 H 0.48152 0.64806 0.6495 0.0
H786 H 0.50227 0.61769 0.66041 0.0
H787 H 0.46483 0.61965 0.66924 0.0
C788 C 0.97518 0.95216 0.74459 0.0
C789 C 0.97259 0.92257 0.74864 0.0
C790 C 0.98406 0.96377 0.71828 0.0
C791 C 0.99051 0.94539 0.69535 0.0
C792 C 0.98926 0.91549 0.69968 0.0
C793 C 0.98028 0.90444 0.72624 0.0
C794 C 0.98525 0.99579 0.71465 0.0
C795 C 0.99597 0.89516 0.67583 0.0
C796 C 0.97458 0.97733 0.62251 0.0
C797 C 1.0017 0.98663 0.61341 0.0
C798 C 0.97093 0.96281 0.64853 0.0
C799 C 0.99501 0.95756 0.66614 0.0
C800 C 0.02268 0.96586 0.65656 0.0
C801 C 0.02566 0.98039 0.63025 0.0
C802 C 0.94106 0.95422 0.65771 0.0
C803 C 0.04889 0.96052 0.67462 0.0
H804 H 0.96987 0.96632 0.76193 0.0
H805 H 0.9782 0.88155 0.72907 0.0
H806 H 1.00607 1.00255 0.70535 0.0
H807 H 0.96822 1.00261 0.69958 0.0
H808 H 0.98224 1.00707 0.7352 0.0
H809 H 0.99755 0.87277 0.68356 0.0
H810 H 0.97887 0.89618 0.65937 0.0
H811 H 0.01638 0.90133 0.6653 0.0
H812 H 0.95597 0.98205 0.60947 0.0
H813 H 0.04643 0.98827 0.62366 0.0
H814 H 0.93497 0.96644 0.67693 0.0
H815 H 0.94031 0.93127 0.66359 0.0
H816 H 0.9249 0.95815 0.64072 0.0
H817 H 0.04763 0.97297 0.69463 0.0
H818 H 0.06896 0.96659 0.66334 0.0
H819 H 0.04993 0.93767 0.68079 0.0
C820 C 0.54848 0.1296 0.24227 0.0
C821 C 0.57816 0.13301 0.24618 0.0
C822 C 0.53725 0.11696 0.21738 0.0
C823 C 0.55614 0.10746 0.19595 0.0
C824 C 0.586 0.11196 0.19927 0.0
C825 C 0.5966 0.12466 0.22427 0.0
C826 C 0.50529 0.1127 0.21458 0.0
C827 C 0.60693 0.10237 0.17686 0.0
C828 C 0.541 0.04333 0.14963 0.0
C829 C 0.53721 0.05592 0.12265 0.0
C830 C 0.54502 0.05999 0.17406 0.0
C831 C 0.54542 0.09008 0.1715 0.0
C832 C 0.5393 0.10295 0.14468 0.0
C833 C 0.53542 0.08567 0.12046 0.0
C834 C 0.55097 0.04529 0.20225 0.0
C835 C 0.53885 0.13493 0.14112 0.0
H836 H 0.53404 0.13592 0.2591 0.0
H837 H 0.61948 0.12782 0.22678 0.0
H838 H 0.49787 0.11919 0.19298 0.0
H839 H 0.49988 0.08975 0.21731 0.0
H840 H 0.49334 0.12495 0.23079 0.0
H841 H 0.62925 0.1092 0.18173 0.0
H842 H 0.60629 0.07877 0.17537 0.0
H843 H 0.60086 0.11107 0.15561 0.0
H844 H 0.54208 0.0203 0.15145 0.0
H845 H 0.53257 0.09551 0.09962 0.0
H846 H 0.53771 0.05448 0.21943 0.0
H847 H 0.57375 0.04869 0.20823 0.0
H848 H 0.54666 0.02197 0.20133 0.0
H849 H 0.52747 0.145 0.15913 0.0
H850 H 0.52842 0.1414 0.12076 0.0
H851 H 0.56115 0.14333 0.14112 0.0
C852 C 0.51054 0.62286 0.30345 0.0
C853 C 0.48096 0.62733 0.30082 0.0
C854 C 0.52216 0.61001 0.32809 0.0
C855 C 0.50374 0.60126 0.35056 0.0
C856 C 0.47403 0.60669 0.34842 0.0
C857 C 0.46306 0.61965 0.32366 0.0
C858 C 0.55394 0.60469 0.32923 0.0
C859 C 0.4536 0.59788 0.37191 0.0
C860 C 0.51792 0.53763 0.3984 0.0
C861 C 0.52287 0.55061 0.42488 0.0
C862 C 0.51374 0.55394 0.37356 0.0
C863 C 0.51457 0.58405 0.37517 0.0
C864 C 0.52212 0.59725 0.40133 0.0
C865 C 0.52582 0.58036 0.42604 0.0
C866 C 0.50647 0.53894 0.346 0.0
C867 C 0.52449 0.62923 0.4037 0.0
H868 H 0.52457 0.62858 0.28587 0.0
H869 H 0.44029 0.6236 0.3221 0.0
H870 H 0.56223 0.60466 0.35144 0.0
H871 H 0.5583 0.58353 0.31985 0.0
H872 H 0.56595 0.62099 0.3166 0.0
H873 H 0.43136 0.60491 0.36761 0.0
H874 H 0.45346 0.57431 0.3743 0.0
H875 H 0.46076 0.60698 0.39258 0.0
H876 H 0.51596 0.5146 0.39731 0.0
H877 H 0.52947 0.59056 0.44645 0.0
H878 H 0.52025 0.54713 0.32845 0.0
H879 H 0.48393 0.54334 0.34003 0.0
H880 H 0.50912 0.51548 0.34772 0.0
H881 H 0.53499 0.63862 0.38453 0.0
H882 H 0.5368 0.63568 0.423 0.0
H883 H 0.50271 0.63829 0.40514 0.0
C884 C 0.0601 0.43656 0.80679 0.0
C885 C 0.09012 0.43566 0.8073 0.0
C886 C 0.04471 0.44515 0.83104 0.0
C887 C 0.05982 0.45324 0.85605 0.0
C888 C 0.08989 0.4499 0.8573 0.0
C889 C 0.10459 0.44105 0.83299 0.0
C890 C 0.01258 0.4474 0.82914 0.0
C891 C 0.10694 0.45787 0.88361 0.0
C892 C 0.04143 0.5159 0.90174 0.0
C893 C 0.03663 0.50266 0.92824 0.0
C894 C 0.04609 0.49983 0.87716 0.0
C895 C 0.0457 0.46968 0.87907 0.0
C896 C 0.03744 0.45624 0.90502 0.0
C897 C 0.03348 0.47291 0.92954 0.0
C898 C 0.05438 0.51519 0.84988 0.0
C899 C 0.03515 0.42424 0.90761 0.0
H900 H 0.04877 0.43213 0.78705 0.0
H901 H 0.12773 0.43957 0.83369 0.0
H902 H 1.00233 0.44246 0.84998 0.0
H903 H 1.00685 0.46952 0.82305 0.0
H904 H 1.00365 0.43282 0.81269 0.0
H905 H 0.12983 0.452 0.88183 0.0
H906 H 0.10577 0.48123 0.88702 0.0
H907 H 0.09784 0.44716 0.90279 0.0
H908 H 0.04337 0.53895 0.90056 0.0
H909 H 0.02972 0.46251 0.94997 0.0
H910 H 0.04217 0.5065 0.8315 0.0
H911 H 0.07746 0.51189 0.84561 0.0
H912 H 0.05055 0.53849 0.85106 0.0
H913 H 0.02736 0.41458 0.88742 0.0
H914 H 0.02046 0.41783 0.92522 0.0
H915 H 0.05659 0.41546 0.91241 0.0
C916 C 0.72251 0.95754 0.93208 0.0
C917 C 0.74538 0.97577 0.9248 0.0
C918 C 0.69768 0.96801 0.94491 0.0
C919 C 0.69551 0.99753 0.95065 0.0
C920 C 0.71797 0.01629 0.94226 0.0
C921 C 0.74267 1.00519 0.92949 0.0
C922 C 0.67416 0.94725 0.95327 0.0
C923 C 0.71645 0.0479 0.94784 0.0
C924 C 0.62032 0.01918 0.97193 0.0
C925 C 0.62176 0.01603 1.00171 0.0
C926 C 0.64479 0.01547 0.95492 0.0
C927 C 0.67105 0.00787 0.96803 0.0
C928 C 0.67294 1.00663 0.99819 0.0
C929 C 0.64833 0.01074 0.01461 0.0
C930 C 0.64201 0.01786 0.92289 0.0
C931 C 0.70053 0.99898 0.01315 0.0
H932 H 0.72411 0.9349 0.92793 0.0
H933 H 0.76025 0.01947 0.92403 0.0
H934 H 0.67205 0.94663 0.97688 0.0
H935 H 0.65337 0.95434 0.94435 0.0
H936 H 0.67832 0.92529 0.94571 0.0
H937 H 0.73289 0.06011 0.9356 0.0
H938 H 0.695 0.05618 0.94224 0.0
H939 H 0.71994 0.05186 0.97093 0.0
H940 H 0.59983 0.02309 0.96181 0.0
H941 H 0.64963 0.00857 0.03766 0.0
H942 H 0.64099 0.99616 0.91362 0.0
H943 H 0.66088 0.02903 0.91355 0.0
H944 H 0.62236 0.02944 0.91649 0.0
H945 H 0.70568 0.97639 0.00878 0.0
H946 H 0.6992 1.00178 0.03666 0.0
H947 H 0.71849 0.0123 1.00491 0.0
C948 C 0.82186 0.05822 0.40715 0.0
C949 C 0.80359 0.07423 0.42441 0.0
C950 C 0.84817 0.04818 0.41761 0.0
C951 C 0.8564 0.05408 0.44612 0.0
C952 C 0.83763 0.06945 0.46392 0.0
C953 C 0.81151 0.07924 0.45289 0.0
C954 C 0.86713 0.03147 0.39796 0.0
C955 C 0.84559 0.07648 0.49439 0.0
C956 C 0.91669 0.0175 0.48685 0.0
C957 C 0.93818 0.03851 0.48541 0.0
C958 C 0.89037 0.02134 0.47262 0.0
C959 C 0.88559 0.04681 0.45684 0.0
C960 C 0.90808 0.06711 0.45392 0.0
C961 C 0.93399 0.06278 0.46841 0.0
C962 C 0.86712 0.99901 0.47585 0.0
C963 C 0.90413 0.09437 0.43707 0.0
H964 H 0.81605 0.05429 0.38508 0.0
H965 H 0.79732 0.09108 0.46659 0.0
H966 H 0.88974 0.03876 0.39959 0.0
H967 H 0.86617 0.00866 0.4043 0.0
H968 H 0.86022 0.03321 0.37529 0.0
H969 H 0.82802 0.08726 0.50587 0.0
H970 H 0.85118 0.05676 0.50628 0.0
H971 H 0.86475 0.09067 0.49459 0.0
H972 H 0.91987 0.99891 0.50034 0.0
H973 H 0.95058 0.07913 0.46761 0.0
H974 H 0.85762 0.99386 0.45473 0.0
H975 H 0.84974 1.0074 0.4894 0.0
H976 H 0.87521 0.9791 0.48584 0.0
H977 H 0.89585 0.08958 0.41537 0.0
H978 H 0.92439 0.10683 0.43497 0.0
H979 H 0.88809 0.10785 0.44782 0.0
C980 C 0.24538 0.54566 0.12219 0.0
C981 C 0.24872 0.5749 0.12784 0.0
C982 C 0.22033 0.53491 0.10917 0.0
C983 C 0.1982 0.55389 0.10142 0.0
C984 C 0.201 0.58319 0.10817 0.0
C985 C 0.22613 0.59329 0.12129 0.0
C986 C 0.21837 0.50351 0.10251 0.0
C987 C 0.17786 0.60417 0.10051 0.0
C988 C 0.1503 0.54297 0.03708 0.0
C989 C 0.12363 0.53767 0.04985 0.0
C990 C 0.17515 0.54629 0.05361 0.0
C991 C 0.17339 0.54415 0.08372 0.0
C992 C 0.14699 0.53634 0.0966 0.0
C993 C 0.12227 0.53358 0.07952 0.0
C994 C 0.20293 0.554 0.0389 0.0
C995 C 0.14444 0.53265 0.12852 0.0
H996 H 0.26274 0.53126 0.12705 0.0
H997 H 0.22823 0.61578 0.12618 0.0
H998 H 0.19599 0.49546 0.10343 0.0
H999 H 0.22644 0.49998 0.08056 0.0
H1000 H 0.23166 0.49077 0.1175 0.0
H1001 H 0.18258 0.62591 0.10868 0.0
H1002 H 0.17551 0.60546 0.07693 0.0
H1003 H 0.15701 0.59682 0.10932 0.0
H1004 H 0.15154 0.54584 0.01411 0.0
H1005 H 0.10172 0.52973 0.08958 0.0
H1006 H 0.22029 0.53986 0.04644 0.0
H1007 H 0.2092 0.57621 0.04434 0.0
H1008 H 0.20127 0.55237 0.01528 0.0
H1009 H 0.16324 0.5213 0.13735 0.0
H1010 H 0.12469 0.52061 0.13446 0.0
H1011 H 0.14374 0.55394 0.13865 0.0
C1012 C 0.34127 0.45009 0.61453 0.0
C1013 C 0.3163 0.46545 0.61971 0.0
C1014 C 0.36593 0.46362 0.60388 0.0
C1015 C 0.36576 0.49338 0.59846 0.0
C1016 C 0.34137 0.50941 0.6057 0.0
C1017 C 0.31672 0.49519 0.61591 0.0
C1018 C 0.39146 0.44564 0.59648 0.0
C1019 C 0.34076 0.5413 0.60126 0.0
C1020 C 0.43998 0.51862 0.57713 0.0
C1021 C 0.43853 0.51517 0.54744 0.0
C1022 C 0.41545 0.51481 0.59415 0.0
C1023 C 0.38932 0.50625 0.58116 0.0
C1024 C 0.38735 0.50508 0.55101 0.0
C1025 C 0.41193 0.50976 0.53455 0.0
C1026 C 0.41822 0.51773 0.6261 0.0
C1027 C 0.35996 0.49618 0.53614 0.0
H1028 H 0.34105 0.4271 0.61718 0.0
H1029 H 0.29759 0.50723 0.6203 0.0
H1030 H 0.39457 0.44575 0.57297 0.0
H1031 H 0.41117 0.45467 0.6063 0.0
H1032 H 0.38888 0.42317 0.6038 0.0
H1033 H 0.32354 0.55127 0.61394 0.0
H1034 H 0.3616 0.55125 0.60717 0.0
H1035 H 0.33681 0.54612 0.57836 0.0
H1036 H 0.4605 0.52264 0.58726 0.0
H1037 H 0.41065 0.50744 0.51155 0.0
H1038 H 0.42343 0.49667 0.63559 0.0
H1039 H 0.39798 0.52508 0.63579 0.0
H1040 H 0.4357 0.53295 0.63176 0.0
H1041 H 0.35537 0.47334 0.54083 0.0
H1042 H 0.36124 0.49903 0.51259 0.0
H1043 H 0.34168 0.50864 0.54414 0.0
C1044 C 0.92902 0.74377 1.00452 0.0
C1045 C 0.92303 0.74721 0.97527 0.0
C1046 C 0.94255 0.71913 0.01499 0.0
C1047 C 0.95043 0.69743 0.99572 0.0
C1048 C 0.94355 0.70039 0.96635 0.0
C1049 C 0.92994 0.72515 0.95653 0.0
C1050 C 0.94945 0.71721 0.04645 0.0
C1051 C 0.95144 0.67778 0.94504 0.0
C1052 C 0.01478 0.65043 1.00775 0.0
C1053 C 1.00193 0.62368 0.01275 0.0
C1054 C 0.99827 0.67495 1.004 0.0
C1055 C 0.96807 0.67279 1.00534 0.0
C1056 C 0.95506 0.64629 0.01271 0.0
C1057 C 0.97213 0.62192 0.01592 0.0
C1058 C 0.0131 0.70287 0.99688 0.0
C1059 C 0.92303 0.64323 0.01552 0.0
H1060 H 0.92397 0.76075 0.0192 0.0
H1061 H 0.92486 0.72732 0.93401 0.0
H1062 H 0.95096 0.69484 0.05403 0.0
H1063 H 0.97037 0.72791 0.05044 0.0
H1064 H 0.93308 0.72828 0.05932 0.0
H1065 H 0.94351 0.68272 0.92318 0.0
H1066 H 0.97507 0.67576 0.94422 0.0
H1067 H 0.9425 0.6568 0.95182 0.0
H1068 H 0.03784 0.652 1.00556 0.0
H1069 H 0.96199 0.60131 0.0195 0.0
H1070 H 1.00572 0.71983 0.01143 0.0
H1071 H 0.0075 0.70948 0.97476 0.0
H1072 H 0.03676 0.70142 0.99856 0.0
H1073 H 0.91371 0.66233 0.02562 0.0
H1074 H 0.91703 0.62407 0.02836 0.0
H1075 H 0.9134 0.64105 0.99394 0.0
C1076 C 0.42628 0.81062 0.04699 0.0
C1077 C 0.4188 0.80766 0.07592 0.0
C1078 C 0.4395 0.83575 0.03665 0.0
C1079 C 0.44574 0.85826 0.05576 0.0
C1080 C 0.43725 0.85578 0.08471 0.0
C1081 C 0.42388 0.83058 0.0944 0.0
C1082 C 0.44764 0.83784 1.00552 0.0
C1083 C 0.44347 0.87926 0.10583 0.0
C1084 C 0.51077 0.90621 0.04679 0.0
C1085 C 0.49839 0.93255 0.04016 0.0
C1086 C 0.49396 0.88151 0.05021 0.0
C1087 C 0.46392 0.88303 0.04666 0.0
C1088 C 0.45148 0.9091 0.03779 0.0
C1089 C 0.46884 0.93371 0.03509 0.0
C1090 C 0.50822 0.85421 0.05952 0.0
C1091 C 0.41969 0.91158 0.0329 0.0
H1092 H 0.422 0.79318 0.03247 0.0
H1093 H 0.41841 0.82842 0.1168 0.0
H1094 H 0.44152 0.85885 0.99652 0.0
H1095 H 0.47119 0.83608 1.00341 0.0
H1096 H 0.43737 0.82074 0.99263 0.0
H1097 H 0.43395 0.87477 0.12714 0.0
H1098 H 0.46697 0.88192 0.10846 0.0
H1099 H 0.43502 0.89979 0.09771 0.0
H1100 H 0.53365 0.90511 0.05053 0.0
H1101 H 0.45905 0.95403 0.03028 0.0
H1102 H 0.50144 0.83633 0.04558 0.0
H1103 H 0.50157 0.84869 0.08164 0.0
H1104 H 0.53195 0.85598 0.05902 0.0
H1105 H 0.41053 0.89178 0.0236 0.0
H1106 H 0.41472 0.9298 0.01846 0.0
H1107 H 0.40899 0.91521 0.05366 0.0
C1108 C 0.11312 0.241 0.55752 0.0
C1109 C 0.12511 0.24156 0.58505 0.0
C1110 C 0.1038 0.2152 0.54531 0.0
C1111 C 0.10587 0.18958 0.56134 0.0
C1112 C 0.12011 0.18977 0.58809 0.0
C1113 C 0.12966 0.21575 0.59956 0.0
C1114 C 0.08984 0.21565 0.5162 0.0
C1115 C 0.12285 0.16294 0.60587 0.0
C1116 C 0.0437 0.13745 0.55909 0.0
C1117 C 0.05556 0.11374 0.54564 0.0
C1118 C 0.05964 0.16246 0.56334 0.0
C1119 C 0.08817 0.16424 0.55335 0.0
C1120 C 0.09987 0.14101 0.53827 0.0
C1121 C 0.0836 0.11573 0.53514 0.0
C1122 C 0.04621 0.18657 0.57967 0.0
C1123 C 0.12983 0.14225 0.52641 0.0
H1124 H 0.11007 0.26087 0.54598 0.0
H1125 H 0.13886 0.21602 0.62085 0.0
H1126 H 0.09689 0.19724 0.50332 0.0
H1127 H 0.06628 0.21385 0.51863 0.0
H1128 H 0.09483 0.23569 0.50433 0.0
H1129 H 0.13738 0.16598 0.62446 0.0
H1130 H 0.10143 0.15638 0.61394 0.0
H1131 H 0.13102 0.14526 0.5927 0.0
H1132 H 0.02195 0.13624 0.56707 0.0
H1133 H 0.09315 0.09735 0.52527 0.0
H1134 H 0.04694 0.2065 0.56678 0.0
H1135 H 0.05847 0.19053 0.59963 0.0
H1136 H 0.02357 0.18197 0.58544 0.0
H1137 H 0.13544 0.164 0.51862 0.0
H1138 H 0.13243 0.12698 0.50858 0.0
H1139 H 0.14524 0.1365 0.54351 0.0
C1140 C 0.63103 0.30889 0.50364 0.0
C1141 C 0.63555 0.30547 0.4742 0.0
C1142 C 0.61857 0.3338 0.51436 0.0
C1143 C 0.61027 0.3557 0.49516 0.0
C1144 C 0.61592 0.35284 0.46561 0.0
C1145 C 0.62849 0.32784 0.45553 0.0
C1146 C 0.61311 0.33601 0.54603 0.0
C1147 C 0.60764 0.37575 0.44438 0.0
C1148 C 0.5465 0.40287 0.50741 0.0
C1149 C 0.55959 0.42955 0.51168 0.0
C1150 C 0.5628 0.37824 0.50406 0.0
C1151 C 0.59302 0.38026 0.50507 0.0
C1152 C 0.60631 0.40671 0.51179 0.0
C1153 C 0.58943 0.43119 0.51467 0.0
C1154 C 0.54766 0.35043 0.49739 0.0
C1155 C 0.63841 0.40958 0.5141 0.0
H1156 H 0.63632 0.29169 0.51825 0.0
H1157 H 0.63253 0.32568 0.43286 0.0
H1158 H 0.617 0.35804 0.55367 0.0
H1159 H 0.59038 0.33051 0.55042 0.0
H1160 H 0.62676 0.32117 0.55852 0.0
H1161 H 0.61508 0.37105 0.42241 0.0
H1162 H 0.584 0.37783 0.44392 0.0
H1163 H 0.61677 0.39664 0.45096 0.0
H1164 H 0.5234 0.40144 0.50538 0.0
H1165 H 0.59969 0.45177 0.5178 0.0
H1166 H 0.55579 0.33309 0.51134 0.0
H1167 H 0.55207 0.34443 0.47495 0.0
H1168 H 0.52412 0.35181 0.50017 0.0
H1169 H 0.64755 0.39118 0.52589 0.0
H1170 H 0.64491 0.42957 0.52508 0.0
H1171 H 0.6478 0.40983 0.49236 0.0
loop_
_geom_bond_atom_site_label_1
_geom_bond_atom_site_label_2
_geom_bond_distance
_geom_bond_site_symmetry_2
_ccdc_geom_bond_type
C0 C1 1.264 . S
C0 C5 1.479 . S
C0 C10 1.465 . S
C1 C0 1.264 . S
C1 C3 1.339 . S
C1 H28 0.931 . S
C2 C3 1.395 . S
C2 C4 1.320 . S
C3 C1 1.339 . S
C3 C2 1.395 . S
C3 H29 0.929 . S
C4 C2 1.320 . S
C4 C5 1.405 . S
C4 H30 0.930 . S
C5 C0 1.479 . S
C5 C4 1.405 . S
C5 H31 0.931 . S
U6 O7 2.454 . S
U6 O8 2.458 . S
U6 C9 2.984 . S
U6 C10 2.847 . S
U6 C23 2.882 . S
U6 O24 2.441 . S
U6 O25 2.420 . S
U6 O26 2.455 . S
U6 O27 2.449 . S
O7 U6 2.454 . S
O7 C9 1.353 . S
O8 U6 2.458 . S
O8 C9 1.286 . S
C9 U6 2.984 . S
C9 O7 1.353 . S
C9 O8 1.286 . S
C9 C11 1.363 . S
C10 C0 1.465 . S
C10 U6 2.847 . S
C10 O24 1.249 . S
C10 O25 1.202 . S
C11 C9 1.363 . S
C11 C13 1.408 . S
C11 C16 1.342 . S
C12 C13 1.310 . S
C12 C15 1.461 . S
C12 H32 0.932 . S
C13 C11 1.408 . S
C13 C12 1.310 . S
C13 H33 0.930 . S
C14 C15 1.474 . S
C14 C16 1.285 . S
C14 H34 0.929 . S
C15 C12 1.461 . S
C15 C14 1.474 . S
C16 C11 1.342 . S
C16 C14 1.285 . S
C16 H35 0.930 . S
C17 C20 1.424 . S
C17 C22 1.245 . S
C17 C23 1.428 . S
C18 C21 1.260 . S
C18 C22 1.477 . S
C18 H36 0.932 . S
C19 C20 1.384 . S
C19 C21 1.479 . S
C19 H37 0.929 . S
C20 C17 1.424 . S
C20 C19 1.384 . S
C20 H38 0.928 . S
C21 C18 1.260 . S
C21 C19 1.479 . S
C22 C17 1.245 . S
C22 C18 1.477 . S
C22 H39 0.932 . S
C23 U6 2.882 . S
C23 C17 1.428 . S
C23 O26 1.301 . S
C23 O27 1.282 . S
O24 U6 2.441 . S
O24 C10 1.249 . S
O25 U6 2.420 . S
O25 C10 1.202 . S
O26 U6 2.455 . S
O26 C23 1.301 . S
O27 U6 2.449 . S
O27 C23 1.282 . S
H28 C1 0.931 . S
H29 C3 0.929 . S
H30 C4 0.930 . S
H31 C5 0.931 . S
H32 C12 0.932 . S
H33 C13 0.930 . S
H34 C14 0.929 . S
H35 C16 0.930 . S
H36 C18 0.932 . S
H37 C19 0.929 . S
H38 C20 0.928 . S
H39 C22 0.932 . S
C40 C41 1.264 . S
C40 C45 1.479 . S
C40 C50 1.465 . S
C41 C40 1.264 . S
C41 C43 1.339 . S
C41 H68 0.931 . S
C42 C43 1.395 . S
C42 C44 1.320 . S
C43 C41 1.339 . S
C43 C42 1.395 . S
C43 H69 0.929 . S
C44 C42 1.320 . S
C44 C45 1.405 . S
C44 H70 0.930 . S
C45 C40 1.479 . S
C45 C44 1.405 . S
C45 H71 0.931 . S
U46 O47 2.454 . S
U46 O48 2.458 . S
U46 C49 2.984 . S
U46 C50 2.847 . S
U46 C63 2.882 . S
U46 O64 2.441 . S
U46 O65 2.420 . S
U46 O66 2.455 . S
U46 O67 2.449 . S
O47 U46 2.454 . S
O47 C49 1.353 . S
O48 U46 2.458 . S
O48 C49 1.286 . S
C49 U46 2.984 . S
C49 O47 1.353 . S
C49 O48 1.286 . S
C49 C51 1.363 . S
C50 C40 1.465 . S
C50 U46 2.847 . S
C50 O64 1.249 . S
C50 O65 1.202 . S
C51 C49 1.363 . S
C51 C53 1.408 . S
C51 C56 1.342 . S
C52 C53 1.310 . S
C52 C55 1.461 . S
C52 H72 0.932 . S
C53 C51 1.408 . S
C53 C52 1.310 . S
C53 H73 0.930 . S
C54 C55 1.474 . S
C54 C56 1.285 . S
C54 H74 0.929 . S
C55 C52 1.461 . S
C55 C54 1.474 . S
C56 C51 1.342 . S
C56 C54 1.285 . S
C56 H75 0.930 . S
C57 C60 1.424 . S
C57 C62 1.245 . S
C57 C63 1.428 . S
C58 C61 1.260 . S
C58 C62 1.477 . S
C58 H76 0.932 . S
C59 C60 1.384 . S
C59 C61 1.479 . S
C59 H77 0.929 . S
C60 C57 1.424 . S
C60 C59 1.384 . S
C60 H78 0.928 . S
C61 C58 1.260 . S
C61 C59 1.479 . S
C62 C57 1.245 . S
C62 C58 1.477 . S
C62 H79 0.932 . S
C63 U46 2.882 . S
C63 C57 1.428 . S
C63 O66 1.301 . S
C63 O67 1.282 . S
O64 U46 2.441 . S
O64 C50 1.249 . S
O65 U46 2.420 . S
O65 C50 1.202 . S
O66 U46 2.455 . S
O66 C63 1.301 . S
O67 U46 2.449 . S
O67 C63 1.282 . S
H68 C41 0.931 . S
H69 C43 0.929 . S
H70 C44 0.930 . S
H71 C45 0.931 . S
H72 C52 0.932 . S
H73 C53 0.930 . S
H74 C54 0.929 . S
H75 C56 0.930 . S
H76 C58 0.932 . S
H77 C59 0.929 . S
H78 C60 0.928 . S
H79 C62 0.932 . S
C80 C81 1.264 . S
C80 C85 1.479 . S
C80 C90 1.465 . S
C81 C80 1.264 . S
C81 C83 1.339 . S
C81 H108 0.931 . S
C82 C83 1.395 . S
C82 C84 1.320 . S
C83 C81 1.339 . S
C83 C82 1.395 . S
C83 H109 0.929 . S
C84 C82 1.320 . S
C84 C85 1.405 . S
C84 H110 0.930 . S
C85 C80 1.479 . S
C85 C84 1.405 . S
C85 H111 0.931 . S
U86 O87 2.454 . S
U86 O88 2.458 . S
U86 C89 2.984 . S
U86 C90 2.847 . S
U86 C103 2.882 . S
U86 O104 2.441 . S
U86 O105 2.420 . S
U86 O106 2.455 . S
U86 O107 2.449 . S
O87 U86 2.454 . S
O87 C89 1.353 . S
O88 U86 2.458 . S
O88 C89 1.286 . S
C89 U86 2.984 . S
C89 O87 1.353 . S
C89 O88 1.286 . S
C89 C91 1.363 . S
C90 C80 1.465 . S
C90 U86 2.847 . S
C90 O104 1.249 . S
C90 O105 1.202 . S
C91 C89 1.363 . S
C91 C93 1.408 . S
C91 C96 1.342 . S
C92 C93 1.310 . S
C92 C95 1.461 . S
C92 H112 0.932 . S
C93 C91 1.408 . S
C93 C92 1.310 . S
C93 H113 0.930 . S
C94 C95 1.474 . S
C94 C96 1.285 . S
C94 H114 0.929 . S
C95 C92 1.461 . S
C95 C94 1.474 . S
C96 C91 1.342 . S
C96 C94 1.285 . S
C96 H115 0.930 . S
C97 C100 1.424 . S
C97 C102 1.245 . S
C97 C103 1.428 . S
C98 C101 1.260 . S
C98 C102 1.477 . S
C98 H116 0.932 . S
C99 C100 1.384 . S
C99 C101 1.479 . S
C99 H117 0.929 . S
C100 C97 1.424 . S
C100 C99 1.384 . S
C100 H118 0.928 . S
C101 C98 1.260 . S
C101 C99 1.479 . S
C102 C97 1.245 . S
C102 C98 1.477 . S
C102 H119 0.932 . S
C103 U86 2.882 . S
C103 C97 1.428 . S
C103 O106 1.301 . S
C103 O107 1.282 . S
O104 U86 2.441 . S
O104 C90 1.249 . S
O105 U86 2.420 . S
O105 C90 1.202 . S
O106 U86 2.455 . S
O106 C103 1.301 . S
O107 U86 2.449 . S
O107 C103 1.282 . S
H108 C81 0.931 . S
H109 C83 0.929 . S
H110 C84 0.930 . S
H111 C85 0.931 . S
H112 C92 0.932 . S
H113 C93 0.930 . S
H114 C94 0.929 . S
H115 C96 0.930 . S
H116 C98 0.932 . S
H117 C99 0.929 . S
H118 C100 0.928 . S
H119 C102 0.932 . S
C120 C121 1.264 . S
C120 C125 1.479 . S
C120 C130 1.465 . S
C121 C120 1.264 . S
C121 C123 1.339 . S
C121 H148 0.931 . S
C122 C123 1.395 . S
C122 C124 1.320 . S
C123 C121 1.339 . S
C123 C122 1.395 . S
C123 H149 0.929 . S
C124 C122 1.320 . S
C124 C125 1.405 . S
C124 H150 0.930 . S
C125 C120 1.479 . S
C125 C124 1.405 . S
C125 H151 0.931 . S
U126 O127 2.454 . S
U126 O128 2.458 . S
U126 C129 2.984 . S
U126 C130 2.847 . S
U126 C143 2.882 . S
U126 O144 2.441 . S
U126 O145 2.420 . S
U126 O146 2.455 . S
U126 O147 2.449 . S
O127 U126 2.454 . S
O127 C129 1.353 . S
O128 U126 2.458 . S
O128 C129 1.286 . S
C129 U126 2.984 . S
C129 O127 1.353 . S
C129 O128 1.286 . S
C129 C131 1.363 . S
C130 C120 1.465 . S
C130 U126 2.847 . S
C130 O144 1.249 . S
C130 O145 1.202 . S
C131 C129 1.363 . S
C131 C133 1.408 . S
C131 C136 1.342 . S
C132 C133 1.310 . S
C132 C135 1.461 . S
C132 H152 0.932 . S
C133 C131 1.408 . S
C133 C132 1.310 . S
C133 H153 0.930 . S
C134 C135 1.474 . S
C134 C136 1.285 . S
C134 H154 0.929 . S
C135 C132 1.461 . S
C135 C134 1.474 . S
C136 C131 1.342 . S
C136 C134 1.285 . S
C136 H155 0.930 . S
C137 C140 1.424 . S
C137 C142 1.245 . S
C137 C143 1.428 . S
C138 C141 1.260 . S
C138 C142 1.477 . S
C138 H156 0.932 . S
C139 C140 1.384 . S
C139 C141 1.479 . S
C139 H157 0.929 . S
C140 C137 1.424 . S
C140 C139 1.384 . S
C140 H158 0.928 . S
C141 C138 1.260 . S
C141 C139 1.479 . S
C142 C137 1.245 . S
C142 C138 1.477 . S
C142 H159 0.932 . S
C143 U126 2.882 . S
C143 C137 1.428 . S
C143 O146 1.301 . S
C143 O147 1.282 . S
O144 U126 2.441 . S
O144 C130 1.249 . S
O145 U126 2.420 . S
O145 C130 1.202 . S
O146 U126 2.455 . S
O146 C143 1.301 . S
O147 U126 2.449 . S
O147 C143 1.282 . S
H148 C121 0.931 . S
H149 C123 0.929 . S
H150 C124 0.930 . S
H151 C125 0.931 . S
H152 C132 0.932 . S
H153 C133 0.930 . S
H154 C134 0.929 . S
H155 C136 0.930 . S
H156 C138 0.932 . S
H157 C139 0.929 . S
H158 C140 0.928 . S
H159 C142 0.932 . S
C160 C161 1.264 . S
C160 C165 1.479 . S
C160 C170 1.465 . S
C161 C160 1.264 . S
C161 C163 1.339 1_655 S
C161 H188 0.931 . S
C162 C163 1.395 1_655 S
C162 C164 1.320 . S
C163 C161 1.339 1_455 S
C163 C162 1.395 1_455 S
C163 H189 0.929 . S
C164 C162 1.320 . S
C164 C165 1.405 . S
C164 H190 0.930 1_556 S
C165 C160 1.479 . S
C165 C164 1.405 . S
C165 H191 0.931 . S
U166 O167 2.454 . S
U166 O168 2.458 . S
U166 C169 2.984 . S
U166 C170 2.847 . S
U166 C183 2.882 . S
U166 O184 2.441 . S
U166 O185 2.420 . S
U166 O186 2.455 . S
U166 O187 2.449 . S
O167 U166 2.454 . S
O167 C169 1.353 . S
O168 U166 2.458 . S
O168 C169 1.286 . S
C169 U166 2.984 . S
C169 O167 1.353 . S
C169 O168 1.286 . S
C169 C171 1.363 . S
C170 C160 1.465 . S
C170 U166 2.847 . S
C170 O184 1.249 . S
C170 O185 1.202 . S
C171 C169 1.363 . S
C171 C173 1.408 . S
C171 C176 1.342 . S
C172 C173 1.310 1_554 S
C172 C175 1.461 1_554 S
C172 H192 0.932 . S
C173 C171 1.408 . S
C173 C172 1.310 1_556 S
C173 H193 0.930 . S
C174 C175 1.488 . S
C174 C176 1.304 . S
C174 H194 0.897 1_565 S
C175 C172 1.461 1_556 S
C175 C174 1.488 . S
C176 C171 1.342 . S
C176 C174 1.304 . S
C176 H195 0.930 . S
C177 C180 1.424 . S
C177 C182 1.245 . S
C177 C183 1.428 . S
C178 C181 1.260 . S
C178 C182 1.477 . S
C178 H196 0.932 1_565 S
C179 C180 1.384 . S
C179 C181 1.479 . S
C179 H197 0.929 1_655 S
C180 C177 1.424 . S
C180 C179 1.384 . S
C180 H198 0.928 . S
C181 C178 1.260 . S
C181 C179 1.479 . S
C182 C177 1.245 . S
C182 C178 1.477 . S
C182 H199 0.932 . S
C183 U166 2.882 . S
C183 C177 1.428 . S
C183 O186 1.301 . S
C183 O187 1.282 . S
O184 U166 2.441 . S
O184 C170 1.249 . S
O185 U166 2.420 . S
O185 C170 1.202 . S
O186 U166 2.455 . S
O186 C183 1.301 . S
O187 U166 2.449 . S
O187 C183 1.282 . S
H188 C161 0.931 . S
H189 C163 0.929 . S
H190 C164 0.930 1_554 S
H191 C165 0.931 . S
H192 C172 0.932 . S
H193 C173 0.930 . S
H194 C174 0.897 1_545 S
H195 C176 0.930 . S
H196 C178 0.932 1_545 S
H197 C179 0.929 1_455 S
H198 C180 0.928 . S
H199 C182 0.932 . S
C200 C201 1.264 . S
C200 C205 1.479 . S
C200 C210 1.465 . S
C201 C200 1.264 . S
C201 C203 1.339 . S
C201 H228 0.931 . S
C202 C203 1.395 . S
C202 C204 1.320 . S
C203 C201 1.339 . S
C203 C202 1.395 . S
C203 H229 0.929 . S
C204 C202 1.320 . S
C204 C205 1.405 . S
C204 H230 0.930 . S
C205 C200 1.479 . S
C205 C204 1.405 . S
C205 H231 0.931 . S
U206 O207 2.454 . S
U206 O208 2.458 . S
U206 C209 2.984 . S
U206 C210 2.847 . S
U206 C223 2.882 . S
U206 O224 2.441 . S
U206 O225 2.420 . S
U206 O226 2.455 . S
U206 O227 2.449 . S
O207 U206 2.454 . S
O207 C209 1.353 . S
O208 U206 2.458 . S
O208 C209 1.286 . S
C209 U206 2.984 . S
C209 O207 1.353 . S
C209 O208 1.286 . S
C209 C211 1.363 . S
C210 C200 1.465 . S
C210 U206 2.847 . S
C210 O224 1.249 . S
C210 O225 1.202 . S
C211 C209 1.363 . S
C211 C213 1.408 . S
C211 C216 1.342 . S
C212 C213 1.310 . S
C212 C215 1.461 . S
C212 H232 0.932 . S
C213 C211 1.408 . S
C213 C212 1.310 . S
C213 H233 0.930 . S
C214 C215 1.474 . S
C214 C216 1.285 . S
C214 H234 0.929 . S
C215 C212 1.461 . S
C215 C214 1.474 . S
C216 C211 1.342 . S
C216 C214 1.285 . S
C216 H235 0.930 . S
C217 C220 1.424 . S
C217 C222 1.245 . S
C217 C223 1.428 . S
C218 C221 1.260 . S
C218 C222 1.477 . S
C218 H236 0.932 . S
C219 C220 1.384 . S
C219 C221 1.479 . S
C219 H237 0.929 . S
C220 C217 1.424 . S
C220 C219 1.384 . S
C220 H238 0.928 . S
C221 C218 1.260 . S
C221 C219 1.479 . S
C222 C217 1.245 . S
C222 C218 1.477 . S
C222 H239 0.932 . S
C223 U206 2.882 . S
C223 C217 1.428 . S
C223 O226 1.301 . S
C223 O227 1.282 . S
O224 U206 2.441 . S
O224 C210 1.249 . S
O225 U206 2.420 . S
O225 C210 1.202 . S
O226 U206 2.455 . S
O226 C223 1.301 . S
O227 U206 2.449 . S
O227 C223 1.282 . S
H228 C201 0.931 . S
H229 C203 0.929 . S
H230 C204 0.930 . S
H231 C205 0.931 . S
H232 C212 0.932 . S
H233 C213 0.930 . S
H234 C214 0.929 . S
H235 C216 0.930 . S
H236 C218 0.932 . S
H237 C219 0.929 . S
H238 C220 0.928 . S
H239 C222 0.932 . S
C240 C241 1.264 . S
C240 C245 1.479 . S
C240 C250 1.465 . S
C241 C240 1.264 . S
C241 C243 1.339 . S
C241 H268 0.931 . S
C242 C243 1.395 . S
C242 C244 1.320 . S
C243 C241 1.339 . S
C243 C242 1.395 . S
C243 H269 0.929 . S
C244 C242 1.320 . S
C244 C245 1.405 . S
C244 H270 0.930 . S
C245 C240 1.479 . S
C245 C244 1.405 . S
C245 H271 0.931 . S
U246 O247 2.454 . S
U246 O248 2.458 . S
U246 C249 2.984 . S
U246 C250 2.847 . S
U246 C263 2.882 . S
U246 O264 2.441 . S
U246 O265 2.420 . S
U246 O266 2.455 . S
U246 O267 2.449 . S
O247 U246 2.454 . S
O247 C249 1.353 . S
O248 U246 2.458 . S
O248 C249 1.286 . S
C249 U246 2.984 . S
C249 O247 1.353 . S
C249 O248 1.286 . S
C249 C251 1.363 . S
C250 C240 1.465 . S
C250 U246 2.847 . S
C250 O264 1.249 . S
C250 O265 1.202 . S
C251 C249 1.363 . S
C251 C253 1.408 . S
C251 C256 1.342 . S
C252 C253 1.310 . S
C252 C255 1.461 . S
C252 H272 0.932 . S
C253 C251 1.408 . S
C253 C252 1.310 . S
C253 H273 0.930 . S
C254 C255 1.474 . S
C254 C256 1.285 . S
C254 H274 0.929 . S
C255 C252 1.461 . S
C255 C254 1.474 . S
C256 C251 1.342 . S
C256 C254 1.285 . S
C256 H275 0.930 . S
C257 C260 1.424 . S
C257 C262 1.245 . S
C257 C263 1.428 . S
C258 C261 1.260 . S
C258 C262 1.477 . S
C258 H276 0.932 . S
C259 C260 1.384 . S
C259 C261 1.479 . S
C259 H277 0.929 . S
C260 C257 1.424 . S
C260 C259 1.384 . S
C260 H278 0.928 . S
C261 C258 1.260 . S
C261 C259 1.479 . S
C262 C257 1.245 . S
C262 C258 1.477 . S
C262 H279 0.932 . S
C263 U246 2.882 . S
C263 C257 1.428 . S
C263 O266 1.301 . S
C263 O267 1.282 . S
O264 U246 2.441 . S
O264 C250 1.249 . S
O265 U246 2.420 . S
O265 C250 1.202 . S
O266 U246 2.455 . S
O266 C263 1.301 . S
O267 U246 2.449 . S
O267 C263 1.282 . S
H268 C241 0.931 . S
H269 C243 0.929 . S
H270 C244 0.930 . S
H271 C245 0.931 . S
H272 C252 0.932 . S
H273 C253 0.930 . S
H274 C254 0.929 . S
H275 C256 0.930 . S
H276 C258 0.932 . S
H277 C259 0.929 . S
H278 C260 0.928 . S
H279 C262 0.932 . S
C280 C281 1.264 . S
C280 C285 1.479 . S
C280 C290 1.465 . S
C281 C280 1.264 . S
C281 C283 1.339 . S
C281 H308 0.931 . S
C282 C283 1.395 . S
C282 C284 1.320 . S
C283 C281 1.339 . S
C283 C282 1.395 . S
C283 H309 0.929 . S
C284 C282 1.320 . S
C284 C285 1.405 . S
C284 H310 0.930 . S
C285 C280 1.479 . S
C285 C284 1.405 . S
C285 H311 0.931 . S
U286 O287 2.454 . S
U286 O288 2.458 . S
U286 C289 2.984 . S
U286 C290 2.847 . S
U286 C303 2.882 . S
U286 O304 2.441 . S
U286 O305 2.420 . S
U286 O306 2.455 . S
U286 O307 2.449 . S
O287 U286 2.454 . S
O287 C289 1.353 . S
O288 U286 2.458 . S
O288 C289 1.286 . S
C289 U286 2.984 . S
C289 O287 1.353 . S
C289 O288 1.286 . S
C289 C291 1.363 . S
C290 C280 1.465 . S
C290 U286 2.847 . S
C290 O304 1.249 . S
C290 O305 1.202 . S
C291 C289 1.363 . S
C291 C293 1.408 . S
C291 C296 1.342 . S
C292 C293 1.310 . S
C292 C295 1.461 . S
C292 H312 0.932 . S
C293 C291 1.408 . S
C293 C292 1.310 . S
C293 H313 0.930 . S
C294 C295 1.474 . S
C294 C296 1.285 . S
C294 H314 0.929 . S
C295 C292 1.461 . S
C295 C294 1.474 . S
C296 C291 1.342 . S
C296 C294 1.285 . S
C296 H315 0.930 . S
C297 C300 1.424 . S
C297 C302 1.245 . S
C297 C303 1.428 . S
C298 C301 1.260 . S
C298 C302 1.477 . S
C298 H316 0.932 . S
C299 C300 1.384 . S
C299 C301 1.479 . S
C299 H317 0.929 . S
C300 C297 1.424 . S
C300 C299 1.384 . S
C300 H318 0.928 . S
C301 C298 1.260 . S
C301 C299 1.479 . S
C302 C297 1.245 . S
C302 C298 1.477 . S
C302 H319 0.932 . S
C303 U286 2.882 . S
C303 C297 1.428 . S
C303 O306 1.301 . S
C303 O307 1.282 . S
O304 U286 2.441 . S
O304 C290 1.249 . S
O305 U286 2.420 . S
O305 C290 1.202 . S
O306 U286 2.455 . S
O306 C303 1.301 . S
O307 U286 2.449 . S
O307 C303 1.282 . S
H308 C281 0.931 . S
H309 C283 0.929 . S
H310 C284 0.930 . S
H311 C285 0.931 . S
H312 C292 0.932 . S
H313 C293 0.930 . S
H314 C294 0.929 . S
H315 C296 0.930 . S
H316 C298 0.932 . S
H317 C299 0.929 . S
H318 C300 0.928 . S
H319 C302 0.932 . S
Zn320 O326 1.920 . S
Zn320 O332 1.898 . S
Zn320 O335 1.905 . S
Zn321 O329 1.905 1_565 S
Zn321 O330 1.898 . S
Zn321 O338 1.920 . S
Zn322 O325 2.080 1_455 S
Zn322 O328 2.114 . S
Zn322 O331 2.120 1_445 S
Zn322 O333 2.120 . S
Zn322 O334 2.114 1_455 S
Zn322 O337 2.080 . S
C323 O328 1.166 . S
C323 O329 1.182 . S
C324 O330 1.167 1_655 S
C324 O331 1.299 . S
O325 Zn322 2.080 1_655 S
O325 C339 1.305 . S
O326 Zn320 1.920 . S
O326 C339 1.234 . S
C327 O332 1.167 1_455 S
C327 O333 1.299 . S
O328 Zn322 2.114 . S
O328 C323 1.166 . S
O329 Zn321 1.905 1_545 S
O329 C323 1.182 . S
O330 Zn321 1.898 . S
O330 C324 1.167 1_455 S
O331 Zn322 2.120 1_665 S
O331 C324 1.299 . S
O332 Zn320 1.898 . S
O332 C327 1.167 1_655 S
O333 Zn322 2.120 . S
O333 C327 1.299 . S
O334 Zn322 2.114 1_655 S
O334 C336 1.166 . S
O335 Zn320 1.905 . S
O335 C336 1.182 . S
C336 O334 1.166 . S
C336 O335 1.182 . S
O337 Zn322 2.080 . S
O337 C340 1.305 1_545 S
O338 Zn321 1.920 . S
O338 C340 1.234 . S
C339 O325 1.305 . S
C339 O326 1.234 . S
C340 O337 1.305 1_565 S
C340 O338 1.234 . S
Zn341 O347 1.920 1_556 S
Zn341 O353 1.898 . S
Zn341 O356 1.905 . S
Zn342 O350 1.905 . S
Zn342 O351 1.898 . S
Zn342 O359 1.920 . S
Zn343 O346 2.080 . S
Zn343 O349 2.114 1_545 S
Zn343 O352 2.120 1_545 S
Zn343 O354 2.120 . S
Zn343 O355 2.114 1_544 S
Zn343 O358 2.080 . S
C344 O349 1.166 . S
C344 O350 1.182 . S
C345 O351 1.167 . S
C345 O352 1.299 . S
O346 Zn343 2.080 . S
O346 C360 1.305 . S
O347 Zn341 1.920 1_554 S
O347 C360 1.234 . S
C348 O353 1.167 . S
C348 O354 1.299 1_556 S
O349 Zn343 2.114 1_565 S
O349 C344 1.166 . S
O350 Zn342 1.905 . S
O350 C344 1.182 . S
O351 Zn342 1.898 . S
O351 C345 1.167 . S
O352 Zn343 2.120 1_565 S
O352 C345 1.299 . S
O353 Zn341 1.898 . S
O353 C348 1.167 . S
O354 Zn343 2.120 . S
O354 C348 1.299 1_554 S
O355 Zn343 2.114 1_566 S
O355 C357 1.166 . S
O356 Zn341 1.905 . S
O356 C357 1.182 1_545 S
C357 O355 1.166 . S
C357 O356 1.182 1_565 S
O358 Zn343 2.080 . S
O358 C361 1.305 . S
O359 Zn342 1.920 . S
O359 C361 1.234 1_565 S
C360 O346 1.305 . S
C360 O347 1.234 . S
C361 O358 1.305 . S
C361 O359 1.234 1_545 S
Zn362 O368 1.920 . S
Zn362 O374 1.898 . S
Zn362 O377 1.905 . S
Zn363 O371 1.905 . S
Zn363 O372 1.898 . S
Zn363 O380 1.920 . S
Zn364 O367 2.080 . S
Zn364 O370 2.114 . S
Zn364 O373 2.120 . S
Zn364 O375 2.120 . S
Zn364 O376 2.114 . S
Zn364 O379 2.080 . S
C365 O370 1.166 . S
C365 O371 1.182 . S
C366 O372 1.167 . S
C366 O373 1.299 . S
O367 Zn364 2.080 . S
O367 C381 1.305 . S
O368 Zn362 1.920 . S
O368 C381 1.234 . S
C369 O374 1.167 . S
C369 O375 1.299 . S
O370 Zn364 2.114 . S
O370 C365 1.166 . S
O371 Zn363 1.905 . S
O371 C365 1.182 . S
O372 Zn363 1.898 . S
O372 C366 1.167 . S
O373 Zn364 2.120 . S
O373 C366 1.299 . S
O374 Zn362 1.898 . S
O374 C369 1.167 . S
O375 Zn364 2.120 . S
O375 C369 1.299 . S
O376 Zn364 2.114 . S
O376 C378 1.166 . S
O377 Zn362 1.905 . S
O377 C378 1.182 . S
C378 O376 1.166 . S
C378 O377 1.182 . S
O379 Zn364 2.080 . S
O379 C382 1.305 . S
O380 Zn363 1.920 . S
O380 C382 1.234 . S
C381 O367 1.305 . S
C381 O368 1.234 . S
C382 O379 1.305 . S
C382 O380 1.234 . S
Zn383 O389 1.920 . S
Zn383 O395 1.898 . S
Zn383 O398 1.905 . S
Zn384 O392 1.905 1_655 S
Zn384 O393 1.898 . S
Zn384 O401 1.920 . S
Zn385 O388 2.080 1_554 S
Zn385 O391 2.114 . S
Zn385 O394 2.120 1_454 S
Zn385 O396 2.120 . S
Zn385 O397 2.114 1_554 S
Zn385 O400 2.080 . S
C386 O391 1.166 . S
C386 O392 1.182 . S
C387 O393 1.167 1_556 S
C387 O394 1.299 . S
O388 Zn385 2.080 1_556 S
O388 C402 1.305 . S
O389 Zn383 1.920 . S
O389 C402 1.234 . S
C390 O395 1.167 1_554 S
C390 O396 1.299 . S
O391 Zn385 2.114 . S
O391 C386 1.166 . S
O392 Zn384 1.905 1_455 S
O392 C386 1.182 . S
O393 Zn384 1.898 . S
O393 C387 1.167 1_554 S
O394 Zn385 2.120 1_656 S
O394 C387 1.299 . S
O395 Zn383 1.898 . S
O395 C390 1.167 1_556 S
O396 Zn385 2.120 . S
O396 C390 1.299 . S
O397 Zn385 2.114 1_556 S
O397 C399 1.166 . S
O398 Zn383 1.905 . S
O398 C399 1.182 . S
C399 O397 1.166 . S
C399 O398 1.182 . S
O400 Zn385 2.080 . S
O400 C403 1.305 1_455 S
O401 Zn384 1.920 . S
O401 C403 1.234 . S
C402 O388 1.305 . S
C402 O389 1.234 . S
C403 O400 1.305 1_655 S
C403 O401 1.234 . S
C404 C405 1.391 . S
C404 C406 1.394 . S
C404 H420 0.931 . S
C405 C404 1.391 . S
C405 C409 1.376 . S
C406 C404 1.394 . S
C406 C407 1.369 . S
C406 C410 1.531 . S
C407 C406 1.369 . S
C407 C408 1.410 . S
C407 C415 1.503 . S
C408 C407 1.410 . S
C408 C409 1.392 . S
C408 C411 1.511 . S
C409 C405 1.376 . S
C409 C408 1.392 . S
C409 H421 0.929 . S
C410 C406 1.531 . S
C410 H422 0.960 . S
C410 H423 0.962 . S
C410 H424 0.960 . S
C411 C408 1.511 . S
C411 H425 0.961 . S
C411 H426 0.961 . S
C411 H427 0.961 . S
C412 C413 1.370 . S
C412 C414 1.363 . S
C412 H428 0.931 . S
C413 C412 1.370 . S
C413 C417 1.408 . S
C414 C412 1.363 . S
C414 C415 1.370 . S
C414 C418 1.524 . S
C415 C407 1.503 . S
C415 C414 1.370 . S
C415 C416 1.403 . S
C416 C415 1.403 . S
C416 C417 1.404 . S
C416 C419 1.539 . S
C417 C413 1.408 . S
C417 C416 1.404 . S
C417 H429 0.930 . S
C418 C414 1.524 . S
C418 H430 0.956 . S
C418 H431 0.961 . S
C418 H432 0.961 . S
C419 C416 1.539 . S
C419 H433 0.958 . S
C419 H434 0.961 . S
C419 H435 0.960 . S
H420 C404 0.931 . S
H421 C409 0.929 . S
H422 C410 0.960 . S
H423 C410 0.962 . S
H424 C410 0.960 . S
H425 C411 0.961 . S
H426 C411 0.961 . S
H427 C411 0.961 . S
H428 C412 0.931 . S
H429 C417 0.930 . S
H430 C418 0.956 . S
H431 C418 0.961 . S
H432 C418 0.961 . S
H433 C419 0.958 . S
H434 C419 0.961 . S
H435 C419 0.960 . S
C436 C437 1.391 . S
C436 C438 1.394 . S
C436 H452 0.931 . S
C437 C436 1.391 . S
C437 C441 1.376 . S
C438 C436 1.394 . S
C438 C439 1.369 . S
C438 C442 1.531 . S
C439 C438 1.369 . S
C439 C440 1.410 . S
C439 C447 1.503 . S
C440 C439 1.410 . S
C440 C441 1.392 . S
C440 C443 1.511 . S
C441 C437 1.376 . S
C441 C440 1.392 . S
C441 H453 0.929 . S
C442 C438 1.531 . S
C442 H454 0.960 . S
C442 H455 0.962 . S
C442 H456 0.960 . S
C443 C440 1.511 . S
C443 H457 0.961 . S
C443 H458 0.961 . S
C443 H459 0.961 . S
C444 C445 1.370 . S
C444 C446 1.363 . S
C444 H460 0.931 1_565 S
C445 C444 1.370 . S
C445 C449 1.408 . S
C446 C444 1.363 . S
C446 C447 1.370 . S
C446 C450 1.524 . S
C447 C439 1.503 . S
C447 C446 1.370 . S
C447 C448 1.403 . S
C448 C447 1.403 . S
C448 C449 1.404 . S
C448 C451 1.539 . S
C449 C445 1.408 . S
C449 C448 1.404 . S
C449 H461 0.930 . S
C450 C446 1.524 . S
C450 H462 0.956 . S
C450 H463 0.961 . S
C450 H464 0.961 1_565 S
C451 C448 1.539 . S
C451 H465 0.958 . S
C451 H466 0.961 . S
C451 H467 0.960 . S
H452 C436 0.931 . S
H453 C441 0.929 . S
H454 C442 0.960 . S
H455 C442 0.962 . S
H456 C442 0.960 . S
H457 C443 0.961 . S
H458 C443 0.961 . S
H459 C443 0.961 . S
H460 C444 0.931 1_545 S
H461 C449 0.930 . S
H462 C450 0.956 . S
H463 C450 0.961 . S
H464 C450 0.961 1_545 S
H465 C451 0.958 . S
H466 C451 0.961 . S
H467 C451 0.960 . S
C468 C469 1.391 . S
C468 C470 1.394 . S
C468 H484 0.931 . S
C469 C468 1.391 . S
C469 C473 1.376 . S
C470 C468 1.394 . S
C470 C471 1.369 . S
C470 C474 1.531 . S
C471 C470 1.369 . S
C471 C472 1.410 . S
C471 C479 1.503 . S
C472 C471 1.410 . S
C472 C473 1.392 . S
C472 C475 1.511 . S
C473 C469 1.376 . S
C473 C472 1.392 . S
C473 H485 0.929 . S
C474 C470 1.531 . S
C474 H486 0.960 . S
C474 H487 0.962 . S
C474 H488 0.960 . S
C475 C472 1.511 . S
C475 H489 0.961 . S
C475 H490 0.961 . S
C475 H491 0.961 . S
C476 C477 1.370 . S
C476 C478 1.363 . S
C476 H492 0.931 . S
C477 C476 1.370 . S
C477 C481 1.408 . S
C478 C476 1.363 . S
C478 C479 1.370 . S
C478 C482 1.524 . S
C479 C471 1.503 . S
C479 C478 1.370 . S
C479 C480 1.403 . S
C480 C479 1.403 . S
C480 C481 1.404 . S
C480 C483 1.539 . S
C481 C477 1.408 . S
C481 C480 1.404 . S
C481 H493 0.930 . S
C482 C478 1.524 . S
C482 H494 0.956 . S
C482 H495 0.961 . S
C482 H496 0.961 . S
C483 C480 1.539 . S
C483 H497 0.958 . S
C483 H498 0.961 . S
C483 H499 0.960 . S
H484 C468 0.931 . S
H485 C473 0.929 . S
H486 C474 0.960 . S
H487 C474 0.962 . S
H488 C474 0.960 . S
H489 C475 0.961 . S
H490 C475 0.961 . S
H491 C475 0.961 . S
H492 C476 0.931 . S
H493 C481 0.930 . S
H494 C482 0.956 . S
H495 C482 0.961 . S
H496 C482 0.961 . S
H497 C483 0.958 . S
H498 C483 0.961 . S
H499 C483 0.960 . S
C500 C501 1.391 . S
C500 C502 1.394 . S
C500 H516 0.931 . S
C501 C500 1.391 . S
C501 C505 1.376 . S
C502 C500 1.394 . S
C502 C503 1.369 . S
C502 C506 1.531 . S
C503 C502 1.369 . S
C503 C504 1.410 . S
C503 C511 1.503 . S
C504 C503 1.410 . S
C504 C505 1.392 . S
C504 C507 1.511 . S
C505 C501 1.376 . S
C505 C504 1.392 . S
C505 H517 0.929 . S
C506 C502 1.531 . S
C506 H518 0.960 . S
C506 H519 0.962 . S
C506 H520 0.960 . S
C507 C504 1.511 . S
C507 H521 0.961 . S
C507 H522 0.961 . S
C507 H523 0.961 . S
C508 C509 1.370 . S
C508 C510 1.363 . S
C508 H524 0.931 . S
C509 C508 1.370 . S
C509 C513 1.408 1_655 S
C510 C508 1.363 . S
C510 C511 1.370 . S
C510 C514 1.524 . S
C511 C503 1.503 . S
C511 C510 1.370 . S
C511 C512 1.403 . S
C512 C511 1.403 . S
C512 C513 1.404 1_655 S
C512 C515 1.539 1_655 S
C513 C509 1.408 1_455 S
C513 C512 1.404 1_455 S
C513 H525 0.930 . S
C514 C510 1.524 . S
C514 H526 0.956 . S
C514 H527 0.961 . S
C514 H528 0.961 . S
C515 C512 1.539 1_455 S
C515 H529 0.958 . S
C515 H530 0.961 . S
C515 H531 0.960 . S
H516 C500 0.931 . S
H517 C505 0.929 . S
H518 C506 0.960 . S
H519 C506 0.962 . S
H520 C506 0.960 . S
H521 C507 0.961 . S
H522 C507 0.961 . S
H523 C507 0.961 . S
H524 C508 0.931 . S
H525 C513 0.930 . S
H526 C514 0.956 . S
H527 C514 0.961 . S
H528 C514 0.961 . S
H529 C515 0.958 . S
H530 C515 0.961 . S
H531 C515 0.960 . S
C532 C533 1.391 . S
C532 C534 1.394 . S
C532 H548 0.931 . S
C533 C532 1.391 . S
C533 C537 1.376 . S
C534 C532 1.394 . S
C534 C535 1.369 . S
C534 C538 1.531 . S
C535 C534 1.369 . S
C535 C536 1.410 . S
C535 C543 1.503 . S
C536 C535 1.410 . S
C536 C537 1.392 . S
C536 C539 1.511 . S
C537 C533 1.376 . S
C537 C536 1.392 . S
C537 H549 0.929 . S
C538 C534 1.531 . S
C538 H550 0.960 . S
C538 H551 0.962 . S
C538 H552 0.960 . S
C539 C536 1.511 . S
C539 H553 0.961 . S
C539 H554 0.961 . S
C539 H555 0.961 . S
C540 C541 1.370 . S
C540 C542 1.363 . S
C540 H556 0.931 . S
C541 C540 1.370 . S
C541 C545 1.408 . S
C542 C540 1.363 . S
C542 C543 1.370 . S
C542 C546 1.524 . S
C543 C535 1.503 . S
C543 C542 1.370 . S
C543 C544 1.403 . S
C544 C543 1.403 . S
C544 C545 1.404 . S
C544 C547 1.539 . S
C545 C541 1.408 . S
C545 C544 1.404 . S
C545 H557 0.930 . S
C546 C542 1.524 . S
C546 H558 0.956 . S
C546 H559 0.961 . S
C546 H560 0.961 . S
C547 C544 1.539 . S
C547 H561 0.958 . S
C547 H562 0.961 . S
C547 H563 0.960 . S
H548 C532 0.931 . S
H549 C537 0.929 . S
H550 C538 0.960 . S
H551 C538 0.962 . S
H552 C538 0.960 . S
H553 C539 0.961 . S
H554 C539 0.961 . S
H555 C539 0.961 . S
H556 C540 0.931 . S
H557 C545 0.930 . S
H558 C546 0.956 . S
H559 C546 0.961 . S
H560 C546 0.961 . S
H561 C547 0.958 . S
H562 C547 0.961 . S
H563 C547 0.960 . S
C564 C565 1.391 . S
C564 C566 1.394 . S
C564 H580 0.931 . S
C565 C564 1.391 . S
C565 C569 1.376 . S
C566 C564 1.394 . S
C566 C567 1.369 . S
C566 C570 1.531 . S
C567 C566 1.369 . S
C567 C568 1.410 . S
C567 C575 1.503 . S
C568 C567 1.410 . S
C568 C569 1.392 . S
C568 C571 1.511 . S
C569 C565 1.376 . S
C569 C568 1.392 . S
C569 H581 0.929 . S
C570 C566 1.531 . S
C570 H582 0.960 . S
C570 H583 0.962 . S
C570 H584 0.960 . S
C571 C568 1.511 . S
C571 H585 0.961 . S
C571 H586 0.961 . S
C571 H587 0.961 . S
C572 C573 1.360 1_545 S
C572 C574 1.353 1_545 S
C572 H588 0.952 . S
C573 C572 1.360 1_565 S
C573 C577 1.408 . S
C574 C572 1.353 1_565 S
C574 C575 1.370 . S
C574 C578 1.524 1_565 S
C575 C567 1.503 . S
C575 C574 1.370 . S
C575 C576 1.403 . S
C576 C575 1.403 . S
C576 C577 1.404 . S
C576 C579 1.539 . S
C577 C573 1.408 . S
C577 C576 1.404 . S
C577 H589 0.930 . S
C578 C574 1.524 1_545 S
C578 H590 0.956 . S
C578 H591 0.961 1_545 S
C578 H592 0.961 . S
C579 C576 1.539 . S
C579 H593 0.958 . S
C579 H594 0.961 . S
C579 H595 0.960 . S
H580 C564 0.931 . S
H581 C569 0.929 . S
H582 C570 0.960 . S
H583 C570 0.962 . S
H584 C570 0.960 . S
H585 C571 0.961 . S
H586 C571 0.961 . S
H587 C571 0.961 . S
H588 C572 0.952 . S
H589 C577 0.930 . S
H590 C578 0.956 . S
H591 C578 0.961 1_565 S
H592 C578 0.961 . S
H593 C579 0.958 . S
H594 C579 0.961 . S
H595 C579 0.960 . S
C596 C597 1.391 . S
C596 C598 1.394 . S
C596 H612 0.931 . S
C597 C596 1.391 . S
C597 C601 1.376 . S
C598 C596 1.394 . S
C598 C599 1.369 . S
C598 C602 1.531 . S
C599 C598 1.369 . S
C599 C600 1.410 . S
C599 C607 1.503 . S
C600 C599 1.410 . S
C600 C601 1.392 . S
C600 C603 1.511 . S
C601 C597 1.376 . S
C601 C600 1.392 . S
C601 H613 0.929 . S
C602 C598 1.531 . S
C602 H614 0.960 . S
C602 H615 0.962 . S
C602 H616 0.960 . S
C603 C600 1.511 . S
C603 H617 0.961 . S
C603 H618 0.961 . S
C603 H619 0.961 . S
C604 C605 1.370 . S
C604 C606 1.363 . S
C604 H620 0.931 . S
C605 C604 1.370 . S
C605 C609 1.408 . S
C606 C604 1.363 . S
C606 C607 1.370 . S
C606 C610 1.524 . S
C607 C599 1.503 . S
C607 C606 1.370 . S
C607 C608 1.403 . S
C608 C607 1.403 . S
C608 C609 1.404 . S
C608 C611 1.539 . S
C609 C605 1.408 . S
C609 C608 1.404 . S
C609 H621 0.930 1_556 S
C610 C606 1.524 . S
C610 H622 0.956 . S
C610 H623 0.961 . S
C610 H624 0.961 . S
C611 C608 1.539 . S
C611 H625 0.958 1_556 S
C611 H626 0.961 1_556 S
C611 H627 0.960 . S
H612 C596 0.931 . S
H613 C601 0.929 . S
H614 C602 0.960 . S
H615 C602 0.962 . S
H616 C602 0.960 . S
H617 C603 0.961 . S
H618 C603 0.961 . S
H619 C603 0.961 . S
H620 C604 0.931 . S
H621 C609 0.930 1_554 S
H622 C610 0.956 . S
H623 C610 0.961 . S
H624 C610 0.961 . S
H625 C611 0.958 1_554 S
H626 C611 0.961 1_554 S
H627 C611 0.960 . S
C628 C629 1.391 . S
C628 C630 1.394 . S
C628 H644 0.931 . S
C629 C628 1.391 . S
C629 C633 1.376 . S
C630 C628 1.394 . S
C630 C631 1.369 . S
C630 C634 1.531 . S
C631 C630 1.369 . S
C631 C632 1.410 . S
C631 C639 1.503 . S
C632 C631 1.410 . S
C632 C633 1.392 . S
C632 C635 1.511 . S
C633 C629 1.376 . S
C633 C632 1.392 . S
C633 H645 0.929 . S
C634 C630 1.531 . S
C634 H646 0.960 . S
C634 H647 0.962 . S
C634 H648 0.960 . S
C635 C632 1.511 . S
C635 H649 0.961 . S
C635 H650 0.961 . S
C635 H651 0.961 . S
C636 C637 1.370 . S
C636 C638 1.363 . S
C636 H652 0.931 . S
C637 C636 1.370 . S
C637 C641 1.408 . S
C638 C636 1.363 . S
C638 C639 1.370 . S
C638 C642 1.524 . S
C639 C631 1.503 . S
C639 C638 1.370 . S
C639 C640 1.403 . S
C640 C639 1.403 . S
C640 C641 1.404 . S
C640 C643 1.539 . S
C641 C637 1.408 . S
C641 C640 1.404 . S
C641 H653 0.930 . S
C642 C638 1.524 . S
C642 H654 0.956 . S
C642 H655 0.961 . S
C642 H656 0.961 . S
C643 C640 1.539 . S
C643 H657 0.958 . S
C643 H658 0.961 . S
C643 H659 0.960 . S
H644 C628 0.931 . S
H645 C633 0.929 . S
H646 C634 0.960 . S
H647 C634 0.962 . S
H648 C634 0.960 . S
H649 C635 0.961 . S
H650 C635 0.961 . S
H651 C635 0.961 . S
H652 C636 0.931 . S
H653 C641 0.930 . S
H654 C642 0.956 . S
H655 C642 0.961 . S
H656 C642 0.961 . S
H657 C643 0.958 . S
H658 C643 0.961 . S
H659 C643 0.960 . S
C660 C661 1.391 . S
C660 C662 1.394 . S
C660 H676 0.931 . S
C661 C660 1.391 . S
C661 C665 1.376 . S
C662 C660 1.394 . S
C662 C663 1.369 . S
C662 C666 1.531 . S
C663 C662 1.369 . S
C663 C664 1.410 . S
C663 C671 1.503 . S
C664 C663 1.410 . S
C664 C665 1.392 . S
C664 C667 1.511 . S
C665 C661 1.376 . S
C665 C664 1.392 . S
C665 H677 0.929 . S
C666 C662 1.531 . S
C666 H678 0.960 . S
C666 H679 0.962 . S
C666 H680 0.960 . S
C667 C664 1.511 . S
C667 H681 0.961 . S
C667 H682 0.961 . S
C667 H683 0.961 . S
C668 C669 1.370 . S
C668 C670 1.363 . S
C668 H684 0.931 . S
C669 C668 1.370 . S
C669 C673 1.408 . S
C670 C668 1.363 . S
C670 C671 1.370 . S
C670 C674 1.524 . S
C671 C663 1.503 . S
C671 C670 1.370 . S
C671 C672 1.403 . S
C672 C671 1.403 . S
C672 C673 1.404 . S
C672 C675 1.539 . S
C673 C669 1.408 . S
C673 C672 1.404 . S
C673 H685 0.930 . S
C674 C670 1.524 . S
C674 H686 0.956 . S
C674 H687 0.961 . S
C674 H688 0.961 . S
C675 C672 1.539 . S
C675 H689 0.958 . S
C675 H690 0.961 . S
C675 H691 0.960 . S
H676 C660 0.931 . S
H677 C665 0.929 . S
H678 C666 0.960 . S
H679 C666 0.962 . S
H680 C666 0.960 . S
H681 C667 0.961 . S
H682 C667 0.961 . S
H683 C667 0.961 . S
H684 C668 0.931 . S
H685 C673 0.930 . S
H686 C674 0.956 . S
H687 C674 0.961 . S
H688 C674 0.961 . S
H689 C675 0.958 . S
H690 C675 0.961 . S
H691 C675 0.960 . S
C692 C693 1.391 . S
C692 C694 1.394 . S
C692 H708 0.931 . S
C693 C692 1.391 . S
C693 C697 1.376 . S
C694 C692 1.394 . S
C694 C695 1.369 . S
C694 C698 1.531 . S
C695 C694 1.369 . S
C695 C696 1.410 . S
C695 C703 1.503 . S
C696 C695 1.410 . S
C696 C697 1.392 . S
C696 C699 1.511 . S
C697 C693 1.376 . S
C697 C696 1.392 . S
C697 H709 0.929 . S
C698 C694 1.531 . S
C698 H710 0.960 . S
C698 H711 0.962 1_556 S
C698 H712 0.960 1_556 S
C699 C696 1.511 . S
C699 H713 0.961 . S
C699 H714 0.961 . S
C699 H715 0.961 . S
C700 C701 1.370 . S
C700 C702 1.363 . S
C700 H716 0.931 . S
C701 C700 1.370 . S
C701 C705 1.408 . S
C702 C700 1.363 . S
C702 C703 1.370 . S
C702 C706 1.524 . S
C703 C695 1.503 . S
C703 C702 1.370 . S
C703 C704 1.403 . S
C704 C703 1.403 . S
C704 C705 1.404 . S
C704 C707 1.539 . S
C705 C701 1.408 . S
C705 C704 1.404 . S
C705 H717 0.930 . S
C706 C702 1.524 . S
C706 H718 0.956 . S
C706 H719 0.961 . S
C706 H720 0.961 . S
C707 C704 1.539 . S
C707 H721 0.958 . S
C707 H722 0.961 . S
C707 H723 0.960 . S
H708 C692 0.931 . S
H709 C697 0.929 . S
H710 C698 0.960 . S
H711 C698 0.962 1_554 S
H712 C698 0.960 1_554 S
H713 C699 0.961 . S
H714 C699 0.961 . S
H715 C699 0.961 . S
H716 C700 0.931 . S
H717 C705 0.930 . S
H718 C706 0.956 . S
H719 C706 0.961 . S
H720 C706 0.961 . S
H721 C707 0.958 . S
H722 C707 0.961 . S
H723 C707 0.960 . S
C724 C725 1.391 . S
C724 C726 1.394 . S
C724 H740 0.931 . S
C725 C724 1.391 . S
C725 C729 1.376 . S
C726 C724 1.394 . S
C726 C727 1.369 . S
C726 C730 1.531 . S
C727 C726 1.369 . S
C727 C728 1.410 . S
C727 C735 1.503 . S
C728 C727 1.410 . S
C728 C729 1.392 . S
C728 C731 1.511 . S
C729 C725 1.376 . S
C729 C728 1.392 . S
C729 H741 0.929 . S
C730 C726 1.531 . S
C730 H742 0.960 . S
C730 H743 0.962 . S
C730 H744 0.960 . S
C731 C728 1.511 . S
C731 H745 0.961 . S
C731 H746 0.961 . S
C731 H747 0.961 . S
C732 C733 1.370 . S
C732 C734 1.363 . S
C732 H748 0.931 1_655 S
C733 C732 1.370 . S
C733 C737 1.408 . S
C734 C732 1.363 . S
C734 C735 1.370 . S
C734 C738 1.524 . S
C735 C727 1.503 . S
C735 C734 1.370 . S
C735 C736 1.403 . S
C736 C735 1.403 . S
C736 C737 1.404 . S
C736 C739 1.539 . S
C737 C733 1.408 . S
C737 C736 1.404 . S
C737 H749 0.930 . S
C738 C734 1.524 . S
C738 H750 0.956 . S
C738 H751 0.961 . S
C738 H752 0.961 1_655 S
C739 C736 1.539 . S
C739 H753 0.958 . S
C739 H754 0.961 . S
C739 H755 0.960 . S
H740 C724 0.931 . S
H741 C729 0.929 . S
H742 C730 0.960 . S
H743 C730 0.962 . S
H744 C730 0.960 . S
H745 C731 0.961 . S
H746 C731 0.961 . S
H747 C731 0.961 . S
H748 C732 0.931 1_455 S
H749 C737 0.930 . S
H750 C738 0.956 . S
H751 C738 0.961 . S
H752 C738 0.961 1_455 S
H753 C739 0.958 . S
H754 C739 0.961 . S
H755 C739 0.960 . S
C756 C757 1.391 . S
C756 C758 1.394 . S
C756 H772 0.931 . S
C757 C756 1.391 . S
C757 C761 1.376 . S
C758 C756 1.394 . S
C758 C759 1.369 . S
C758 C762 1.531 . S
C759 C758 1.369 . S
C759 C760 1.410 . S
C759 C767 1.503 . S
C760 C759 1.410 . S
C760 C761 1.392 . S
C760 C763 1.511 . S
C761 C757 1.376 . S
C761 C760 1.392 . S
C761 H773 0.929 . S
C762 C758 1.531 . S
C762 H774 0.960 . S
C762 H775 0.962 . S
C762 H776 0.960 . S
C763 C760 1.511 . S
C763 H777 0.961 . S
C763 H778 0.961 . S
C763 H779 0.961 . S
C764 C765 1.370 . S
C764 C766 1.363 . S
C764 H780 0.931 . S
C765 C764 1.370 . S
C765 C769 1.408 . S
C766 C764 1.363 . S
C766 C767 1.370 . S
C766 C770 1.524 . S
C767 C759 1.503 . S
C767 C766 1.370 . S
C767 C768 1.403 . S
C768 C767 1.403 . S
C768 C769 1.404 . S
C768 C771 1.539 . S
C769 C765 1.408 . S
C769 C768 1.404 . S
C769 H781 0.930 . S
C770 C766 1.524 . S
C770 H782 0.956 . S
C770 H783 0.961 . S
C770 H784 0.961 . S
C771 C768 1.539 . S
C771 H785 0.958 . S
C771 H786 0.961 . S
C771 H787 0.960 . S
H772 C756 0.931 . S
H773 C761 0.929 . S
H774 C762 0.960 . S
H775 C762 0.962 . S
H776 C762 0.960 . S
H777 C763 0.961 . S
H778 C763 0.961 . S
H779 C763 0.961 . S
H780 C764 0.931 . S
H781 C769 0.930 . S
H782 C770 0.956 . S
H783 C770 0.961 . S
H784 C770 0.961 . S
H785 C771 0.958 . S
H786 C771 0.961 . S
H787 C771 0.960 . S
C788 C789 1.391 . S
C788 C790 1.394 . S
C788 H804 0.931 . S
C789 C788 1.391 . S
C789 C793 1.376 1_645 S
C790 C788 1.394 . S
C790 C791 1.366 . S
C790 C794 1.531 . S
C791 C790 1.366 . S
C791 C792 1.412 1_645 S
C791 C799 1.503 . S
C792 C791 1.412 1_465 S
C792 C793 1.392 . S
C792 C795 1.511 . S
C793 C789 1.376 1_465 S
C793 C792 1.392 . S
C793 H805 0.929 . S
C794 C790 1.531 . S
C794 H806 0.960 . S
C794 H807 0.962 . S
C794 H808 0.960 . S
C795 C792 1.511 . S
C795 H809 0.961 . S
C795 H810 0.961 . S
C795 H811 0.961 . S
C796 C797 1.366 1_565 S
C796 C798 1.364 . S
C796 H812 0.935 . S
C797 C796 1.366 1_545 S
C797 C801 1.408 1_655 S
C798 C796 1.364 . S
C798 C799 1.370 1_565 S
C798 C802 1.524 . S
C799 C791 1.503 . S
C799 C798 1.370 1_545 S
C799 C800 1.403 1_655 S
C800 C799 1.403 1_455 S
C800 C801 1.404 . S
C800 C803 1.539 . S
C801 C797 1.408 1_455 S
C801 C800 1.404 . S
C801 H813 0.930 . S
C802 C798 1.524 . S
C802 H814 0.956 . S
C802 H815 0.961 . S
C802 H816 0.961 . S
C803 C800 1.539 . S
C803 H817 0.958 . S
C803 H818 0.961 . S
C803 H819 0.960 . S
H804 C788 0.931 . S
H805 C793 0.929 . S
H806 C794 0.960 . S
H807 C794 0.962 . S
H808 C794 0.960 . S
H809 C795 0.961 . S
H810 C795 0.961 . S
H811 C795 0.961 . S
H812 C796 0.935 . S
H813 C801 0.930 . S
H814 C802 0.956 . S
H815 C802 0.961 . S
H816 C802 0.961 . S
H817 C803 0.958 . S
H818 C803 0.961 . S
H819 C803 0.960 . S
C820 C821 1.391 . S
C820 C822 1.394 . S
C820 H836 0.931 . S
C821 C820 1.391 . S
C821 C825 1.376 . S
C822 C820 1.394 . S
C822 C823 1.369 . S
C822 C826 1.531 . S
C823 C822 1.369 . S
C823 C824 1.410 . S
C823 C831 1.503 . S
C824 C823 1.410 . S
C824 C825 1.392 . S
C824 C827 1.511 . S
C825 C821 1.376 . S
C825 C824 1.392 . S
C825 H837 0.929 . S
C826 C822 1.531 . S
C826 H838 0.960 . S
C826 H839 0.962 . S
C826 H840 0.960 . S
C827 C824 1.511 . S
C827 H841 0.961 1_545 S
C827 H842 0.961 1_545 S
C827 H843 0.961 . S
C828 C829 1.370 . S
C828 C830 1.363 . S
C828 H844 0.931 1_545 S
C829 C828 1.370 . S
C829 C833 1.408 . S
C830 C828 1.363 . S
C830 C831 1.370 . S
C830 C834 1.524 1_545 S
C831 C823 1.503 . S
C831 C830 1.370 . S
C831 C832 1.403 . S
C832 C831 1.403 . S
C832 C833 1.404 . S
C832 C835 1.539 . S
C833 C829 1.408 . S
C833 C832 1.404 . S
C833 H845 0.930 . S
C834 C830 1.524 1_565 S
C834 H846 0.956 . S
C834 H847 0.961 . S
C834 H848 0.961 . S
C835 C832 1.539 . S
C835 H849 0.958 . S
C835 H850 0.961 . S
C835 H851 0.960 . S
H836 C820 0.931 . S
H837 C825 0.929 . S
H838 C826 0.960 . S
H839 C826 0.962 . S
H840 C826 0.960 . S
H841 C827 0.961 1_565 S
H842 C827 0.961 1_565 S
H843 C827 0.961 . S
H844 C828 0.931 1_565 S
H845 C833 0.930 . S
H846 C834 0.956 . S
H847 C834 0.961 . S
H848 C834 0.961 . S
H849 C835 0.958 . S
H850 C835 0.961 . S
H851 C835 0.960 . S
C852 C853 1.391 . S
C852 C854 1.394 . S
C852 H868 0.931 . S
C853 C852 1.391 . S
C853 C857 1.376 . S
C854 C852 1.394 . S
C854 C855 1.369 . S
C854 C858 1.531 . S
C855 C854 1.369 . S
C855 C856 1.410 . S
C855 C863 1.503 . S
C856 C855 1.410 . S
C856 C857 1.392 . S
C856 C859 1.511 . S
C857 C853 1.376 . S
C857 C856 1.392 . S
C857 H869 0.929 . S
C858 C854 1.531 . S
C858 H870 0.960 . S
C858 H871 0.962 . S
C858 H872 0.960 . S
C859 C856 1.511 . S
C859 H873 0.961 . S
C859 H874 0.961 . S
C859 H875 0.961 . S
C860 C861 1.370 . S
C860 C862 1.363 . S
C860 H876 0.931 . S
C861 C860 1.370 . S
C861 C865 1.408 . S
C862 C860 1.363 . S
C862 C863 1.370 . S
C862 C866 1.524 . S
C863 C855 1.503 . S
C863 C862 1.370 . S
C863 C864 1.403 . S
C864 C863 1.403 . S
C864 C865 1.404 . S
C864 C867 1.539 . S
C865 C861 1.408 . S
C865 C864 1.404 . S
C865 H877 0.930 . S
C866 C862 1.524 . S
C866 H878 0.956 . S
C866 H879 0.961 . S
C866 H880 0.961 . S
C867 C864 1.539 . S
C867 H881 0.958 . S
C867 H882 0.961 . S
C867 H883 0.960 . S
H868 C852 0.931 . S
H869 C857 0.929 . S
H870 C858 0.960 . S
H871 C858 0.962 . S
H872 C858 0.960 . S
H873 C859 0.961 . S
H874 C859 0.961 . S
H875 C859 0.961 . S
H876 C860 0.931 . S
H877 C865 0.930 . S
H878 C866 0.956 . S
H879 C866 0.961 . S
H880 C866 0.961 . S
H881 C867 0.958 . S
H882 C867 0.961 . S
H883 C867 0.960 . S
C884 C885 1.391 . S
C884 C886 1.394 . S
C884 H900 0.931 . S
C885 C884 1.391 . S
C885 C889 1.376 . S
C886 C884 1.394 . S
C886 C887 1.369 . S
C886 C890 1.531 . S
C887 C886 1.369 . S
C887 C888 1.410 . S
C887 C895 1.503 . S
C888 C887 1.410 . S
C888 C889 1.392 . S
C888 C891 1.511 . S
C889 C885 1.376 . S
C889 C888 1.392 . S
C889 H901 0.929 . S
C890 C886 1.531 . S
C890 H902 0.960 . S
C890 H903 0.962 1_455 S
C890 H904 0.960 1_455 S
C891 C888 1.511 . S
C891 H905 0.961 . S
C891 H906 0.961 . S
C891 H907 0.961 . S
C892 C893 1.370 . S
C892 C894 1.363 . S
C892 H908 0.931 . S
C893 C892 1.370 . S
C893 C897 1.408 . S
C894 C892 1.363 . S
C894 C895 1.370 . S
C894 C898 1.524 . S
C895 C887 1.503 . S
C895 C894 1.370 . S
C895 C896 1.403 . S
C896 C895 1.403 . S
C896 C897 1.404 . S
C896 C899 1.539 . S
C897 C893 1.408 . S
C897 C896 1.404 . S
C897 H909 0.930 . S
C898 C894 1.524 . S
C898 H910 0.956 . S
C898 H911 0.961 . S
C898 H912 0.961 . S
C899 C896 1.539 . S
C899 H913 0.958 . S
C899 H914 0.961 . S
C899 H915 0.960 . S
H900 C884 0.931 . S
H901 C889 0.929 . S
H902 C890 0.960 . S
H903 C890 0.962 1_655 S
H904 C890 0.960 1_655 S
H905 C891 0.961 . S
H906 C891 0.961 . S
H907 C891 0.961 . S
H908 C892 0.931 . S
H909 C897 0.930 . S
H910 C898 0.956 . S
H911 C898 0.961 . S
H912 C898 0.961 . S
H913 C899 0.958 . S
H914 C899 0.961 . S
H915 C899 0.960 . S
C916 C917 1.391 . S
C916 C918 1.394 . S
C916 H932 0.931 . S
C917 C916 1.391 . S
C917 C921 1.376 1_564 S
C918 C916 1.394 . S
C918 C919 1.369 . S
C918 C922 1.531 . S
C919 C918 1.369 . S
C919 C920 1.410 1_564 S
C919 C927 1.503 . S
C920 C919 1.410 1_546 S
C920 C921 1.392 . S
C920 C923 1.511 . S
C921 C917 1.376 1_546 S
C921 C920 1.392 . S
C921 H933 0.929 . S
C922 C918 1.531 . S
C922 H934 0.960 . S
C922 H935 0.962 . S
C922 H936 0.960 . S
C923 C920 1.511 . S
C923 H937 0.961 . S
C923 H938 0.961 . S
C923 H939 0.961 . S
C924 C925 1.370 1_556 S
C924 C926 1.363 . S
C924 H940 0.931 . S
C925 C924 1.370 1_554 S
C925 C929 1.408 1_565 S
C926 C924 1.363 . S
C926 C927 1.370 1_556 S
C926 C930 1.524 . S
C927 C919 1.503 . S
C927 C926 1.370 1_554 S
C927 C928 1.403 1_565 S
C928 C927 1.403 1_545 S
C928 C929 1.404 . S
C928 C931 1.539 . S
C929 C925 1.408 1_545 S
C929 C928 1.404 . S
C929 H941 0.930 . S
C930 C926 1.524 . S
C930 H942 0.956 . S
C930 H943 0.961 . S
C930 H944 0.961 . S
C931 C928 1.539 . S
C931 H945 0.958 . S
C931 H946 0.961 . S
C931 H947 0.960 . S
H932 C916 0.931 . S
H933 C921 0.929 . S
H934 C922 0.960 . S
H935 C922 0.962 . S
H936 C922 0.960 . S
H937 C923 0.961 . S
H938 C923 0.961 . S
H939 C923 0.961 . S
H940 C924 0.931 . S
H941 C929 0.930 . S
H942 C930 0.956 . S
H943 C930 0.961 . S
H944 C930 0.961 . S
H945 C931 0.958 . S
H946 C931 0.961 . S
H947 C931 0.960 . S
C948 C949 1.391 . S
C948 C950 1.394 . S
C948 H964 0.931 . S
C949 C948 1.391 . S
C949 C953 1.376 . S
C950 C948 1.394 . S
C950 C951 1.369 . S
C950 C954 1.531 . S
C951 C950 1.369 . S
C951 C952 1.410 . S
C951 C959 1.503 . S
C952 C951 1.410 . S
C952 C953 1.392 . S
C952 C955 1.511 . S
C953 C949 1.376 . S
C953 C952 1.392 . S
C953 H965 0.929 . S
C954 C950 1.531 . S
C954 H966 0.960 . S
C954 H967 0.962 . S
C954 H968 0.960 . S
C955 C952 1.511 . S
C955 H969 0.961 . S
C955 H970 0.961 . S
C955 H971 0.961 . S
C956 C957 1.370 . S
C956 C958 1.363 . S
C956 H972 0.931 . S
C957 C956 1.370 . S
C957 C961 1.408 . S
C958 C956 1.363 . S
C958 C959 1.370 . S
C958 C962 1.524 1_545 S
C959 C951 1.503 . S
C959 C958 1.370 . S
C959 C960 1.403 . S
C960 C959 1.403 . S
C960 C961 1.404 . S
C960 C963 1.539 . S
C961 C957 1.408 . S
C961 C960 1.404 . S
C961 H973 0.930 . S
C962 C958 1.524 1_565 S
C962 H974 0.956 . S
C962 H975 0.961 . S
C962 H976 0.961 . S
C963 C960 1.539 . S
C963 H977 0.958 . S
C963 H978 0.961 . S
C963 H979 0.960 . S
H964 C948 0.931 . S
H965 C953 0.929 . S
H966 C954 0.960 . S
H967 C954 0.962 . S
H968 C954 0.960 . S
H969 C955 0.961 . S
H970 C955 0.961 . S
H971 C955 0.961 . S
H972 C956 0.931 . S
H973 C961 0.930 . S
H974 C962 0.956 . S
H975 C962 0.961 . S
H976 C962 0.961 . S
H977 C963 0.958 . S
H978 C963 0.961 . S
H979 C963 0.960 . S
C980 C981 1.391 . S
C980 C982 1.394 . S
C980 H996 0.931 1_554 S
C981 C980 1.391 . S
C981 C985 1.376 . S
C982 C980 1.394 . S
C982 C983 1.369 . S
C982 C986 1.531 1_554 S
C983 C982 1.369 . S
C983 C984 1.410 . S
C983 C991 1.503 . S
C984 C983 1.410 . S
C984 C985 1.392 . S
C984 C987 1.511 . S
C985 C981 1.376 . S
C985 C984 1.392 . S
C985 H997 0.929 . S
C986 C982 1.531 1_556 S
C986 H998 0.960 . S
C986 H999 0.962 . S
C986 H1000 0.960 . S
C987 C984 1.511 . S
C987 H1001 0.961 . S
C987 H1002 0.961 . S
C987 H1003 0.961 . S
C988 C989 1.370 . S
C988 C990 1.363 . S
C988 H1004 0.931 1_554 S
C989 C988 1.370 . S
C989 C993 1.408 . S
C990 C988 1.363 . S
C990 C991 1.370 . S
C990 C994 1.524 1_554 S
C991 C983 1.503 . S
C991 C990 1.370 . S
C991 C992 1.403 . S
C992 C991 1.403 . S
C992 C993 1.404 . S
C992 C995 1.539 . S
C993 C989 1.408 . S
C993 C992 1.404 . S
C993 H1005 0.930 . S
C994 C990 1.524 1_556 S
C994 H1006 0.956 . S
C994 H1007 0.961 1_556 S
C994 H1008 0.961 . S
C995 C992 1.539 . S
C995 H1009 0.958 . S
C995 H1010 0.961 . S
C995 H1011 0.960 . S
H996 C980 0.931 1_556 S
H997 C985 0.929 . S
H998 C986 0.960 . S
H999 C986 0.962 . S
H1000 C986 0.960 . S
H1001 C987 0.961 . S
H1002 C987 0.961 . S
H1003 C987 0.961 . S
H1004 C988 0.931 1_556 S
H1005 C993 0.930 . S
H1006 C994 0.956 . S
H1007 C994 0.961 1_554 S
H1008 C994 0.961 . S
H1009 C995 0.958 . S
H1010 C995 0.961 . S
H1011 C995 0.960 . S
C1012 C1013 1.391 . S
C1012 C1014 1.394 . S
C1012 H1028 0.931 . S
C1013 C1012 1.391 . S
C1013 C1017 1.376 . S
C1014 C1012 1.394 . S
C1014 C1015 1.369 . S
C1014 C1018 1.531 . S
C1015 C1014 1.369 . S
C1015 C1016 1.410 . S
C1015 C1023 1.503 . S
C1016 C1015 1.410 . S
C1016 C1017 1.392 . S
C1016 C1019 1.511 . S
C1017 C1013 1.376 . S
C1017 C1016 1.392 . S
C1017 H1029 0.929 . S
C1018 C1014 1.531 . S
C1018 H1030 0.960 . S
C1018 H1031 0.962 . S
C1018 H1032 0.960 . S
C1019 C1016 1.511 . S
C1019 H1033 0.961 . S
C1019 H1034 0.961 . S
C1019 H1035 0.961 . S
C1020 C1021 1.370 . S
C1020 C1022 1.363 . S
C1020 H1036 0.931 . S
C1021 C1020 1.370 . S
C1021 C1025 1.408 . S
C1022 C1020 1.363 . S
C1022 C1023 1.370 . S
C1022 C1026 1.524 . S
C1023 C1015 1.503 . S
C1023 C1022 1.370 . S
C1023 C1024 1.403 . S
C1024 C1023 1.403 . S
C1024 C1025 1.404 . S
C1024 C1027 1.539 . S
C1025 C1021 1.408 . S
C1025 C1024 1.404 . S
C1025 H1037 0.930 . S
C1026 C1022 1.524 . S
C1026 H1038 0.956 . S
C1026 H1039 0.961 . S
C1026 H1040 0.961 . S
C1027 C1024 1.539 . S
C1027 H1041 0.958 . S
C1027 H1042 0.961 . S
C1027 H1043 0.960 . S
H1028 C1012 0.931 . S
H1029 C1017 0.929 . S
H1030 C1018 0.960 . S
H1031 C1018 0.962 . S
H1032 C1018 0.960 . S
H1033 C1019 0.961 . S
H1034 C1019 0.961 . S
H1035 C1019 0.961 . S
H1036 C1020 0.931 . S
H1037 C1025 0.930 . S
H1038 C1026 0.956 . S
H1039 C1026 0.961 . S
H1040 C1026 0.961 . S
H1041 C1027 0.958 . S
H1042 C1027 0.961 . S
H1043 C1027 0.960 . S
C1044 C1045 1.391 1_554 S
C1044 C1046 1.394 . S
C1044 H1060 0.931 . S
C1045 C1044 1.391 1_556 S
C1045 C1049 1.376 1_455 S
C1046 C1044 1.394 . S
C1046 C1047 1.369 1_554 S
C1046 C1050 1.531 . S
C1047 C1046 1.369 1_556 S
C1047 C1048 1.410 1_455 S
C1047 C1055 1.503 . S
C1048 C1047 1.410 1_655 S
C1048 C1049 1.392 . S
C1048 C1051 1.511 . S
C1049 C1045 1.376 1_655 S
C1049 C1048 1.392 . S
C1049 H1061 0.929 . S
C1050 C1046 1.531 . S
C1050 H1062 0.960 . S
C1050 H1063 0.962 . S
C1050 H1064 0.960 . S
C1051 C1048 1.511 . S
C1051 H1065 0.961 . S
C1051 H1066 0.961 . S
C1051 H1067 0.961 . S
C1052 C1053 1.370 . S
C1052 C1054 1.363 . S
C1052 H1068 0.931 . S
C1053 C1052 1.370 . S
C1053 C1057 1.432 1_556 S
C1054 C1052 1.363 . S
C1054 C1055 1.370 . S
C1054 C1058 1.524 . S
C1055 C1047 1.503 . S
C1055 C1054 1.370 . S
C1055 C1056 1.403 1_456 S
C1056 C1055 1.403 1_654 S
C1056 C1057 1.400 1_655 S
C1056 C1059 1.539 . S
C1057 C1053 1.432 1_554 S
C1057 C1056 1.400 1_455 S
C1057 H1069 0.912 1_455 S
C1058 C1054 1.524 . S
C1058 H1070 0.956 . S
C1058 H1071 0.961 . S
C1058 H1072 0.961 . S
C1059 C1056 1.539 . S
C1059 H1073 0.958 . S
C1059 H1074 0.961 . S
C1059 H1075 0.960 . S
H1060 C1044 0.931 . S
H1061 C1049 0.929 . S
H1062 C1050 0.960 . S
H1063 C1050 0.962 . S
H1064 C1050 0.960 . S
H1065 C1051 0.961 . S
H1066 C1051 0.961 . S
H1067 C1051 0.961 . S
H1068 C1052 0.931 . S
H1069 C1057 0.912 1_655 S
H1070 C1058 0.956 . S
H1071 C1058 0.961 . S
H1072 C1058 0.961 . S
H1073 C1059 0.958 . S
H1074 C1059 0.961 . S
H1075 C1059 0.960 . S
C1076 C1077 1.391 . S
C1076 C1078 1.394 . S
C1076 H1092 0.931 . S
C1077 C1076 1.391 . S
C1077 C1081 1.376 . S
C1078 C1076 1.394 . S
C1078 C1079 1.369 . S
C1078 C1082 1.531 . S
C1079 C1078 1.369 . S
C1079 C1080 1.410 . S
C1079 C1087 1.503 . S
C1080 C1079 1.410 . S
C1080 C1081 1.392 . S
C1080 C1083 1.511 . S
C1081 C1077 1.376 . S
C1081 C1080 1.392 . S
C1081 H1093 0.929 . S
C1082 C1078 1.531 . S
C1082 H1094 0.960 . S
C1082 H1095 0.962 . S
C1082 H1096 0.960 . S
C1083 C1080 1.511 . S
C1083 H1097 0.961 . S
C1083 H1098 0.961 . S
C1083 H1099 0.961 . S
C1084 C1085 1.370 . S
C1084 C1086 1.363 . S
C1084 H1100 0.931 . S
C1085 C1084 1.370 . S
C1085 C1089 1.408 . S
C1086 C1084 1.363 . S
C1086 C1087 1.370 . S
C1086 C1090 1.524 . S
C1087 C1079 1.503 . S
C1087 C1086 1.370 . S
C1087 C1088 1.403 . S
C1088 C1087 1.403 . S
C1088 C1089 1.404 . S
C1088 C1091 1.539 1_554 S
C1089 C1085 1.408 . S
C1089 C1088 1.404 . S
C1089 H1101 0.930 1_554 S
C1090 C1086 1.524 . S
C1090 H1102 0.956 . S
C1090 H1103 0.961 . S
C1090 H1104 0.961 . S
C1091 C1088 1.539 1_556 S
C1091 H1105 0.958 . S
C1091 H1106 0.961 . S
C1091 H1107 0.960 . S
H1092 C1076 0.931 . S
H1093 C1081 0.929 . S
H1094 C1082 0.960 . S
H1095 C1082 0.962 . S
H1096 C1082 0.960 . S
H1097 C1083 0.961 . S
H1098 C1083 0.961 . S
H1099 C1083 0.961 . S
H1100 C1084 0.931 . S
H1101 C1089 0.930 1_556 S
H1102 C1090 0.956 . S
H1103 C1090 0.961 . S
H1104 C1090 0.961 . S
H1105 C1091 0.958 . S
H1106 C1091 0.961 . S
H1107 C1091 0.960 . S
C1108 C1109 1.391 . S
C1108 C1110 1.394 . S
C1108 H1124 0.931 . S
C1109 C1108 1.391 . S
C1109 C1113 1.376 . S
C1110 C1108 1.394 . S
C1110 C1111 1.369 . S
C1110 C1114 1.531 1_455 S
C1111 C1110 1.369 . S
C1111 C1112 1.410 . S
C1111 C1119 1.503 . S
C1112 C1111 1.410 . S
C1112 C1113 1.392 . S
C1112 C1115 1.511 . S
C1113 C1109 1.376 . S
C1113 C1112 1.392 . S
C1113 H1125 0.929 . S
C1114 C1110 1.531 1_655 S
C1114 H1126 0.960 . S
C1114 H1127 0.962 . S
C1114 H1128 0.960 . S
C1115 C1112 1.511 . S
C1115 H1129 0.961 . S
C1115 H1130 0.961 . S
C1115 H1131 0.961 . S
C1116 C1117 1.370 . S
C1116 C1118 1.363 . S
C1116 H1132 0.931 . S
C1117 C1116 1.370 . S
C1117 C1121 1.408 . S
C1118 C1116 1.363 . S
C1118 C1119 1.370 . S
C1118 C1122 1.524 . S
C1119 C1111 1.503 . S
C1119 C1118 1.370 . S
C1119 C1120 1.403 . S
C1120 C1119 1.403 . S
C1120 C1121 1.404 . S
C1120 C1123 1.539 . S
C1121 C1117 1.408 . S
C1121 C1120 1.404 . S
C1121 H1133 0.930 . S
C1122 C1118 1.524 . S
C1122 H1134 0.956 1_455 S
C1122 H1135 0.961 . S
C1122 H1136 0.960 1_455 S
C1123 C1120 1.539 . S
C1123 H1137 0.958 . S
C1123 H1138 0.961 . S
C1123 H1139 0.960 . S
H1124 C1108 0.931 . S
H1125 C1113 0.929 . S
H1126 C1114 0.960 . S
H1127 C1114 0.962 . S
H1128 C1114 0.960 . S
H1129 C1115 0.961 . S
H1130 C1115 0.961 . S
H1131 C1115 0.961 . S
H1132 C1116 0.931 . S
H1133 C1121 0.930 . S
H1134 C1122 0.956 1_655 S
H1135 C1122 0.961 . S
H1136 C1122 0.960 1_655 S
H1137 C1123 0.958 . S
H1138 C1123 0.961 . S
H1139 C1123 0.960 . S
C1140 C1141 1.391 . S
C1140 C1142 1.394 . S
C1140 H1156 0.931 . S
C1141 C1140 1.391 . S
C1141 C1145 1.376 . S
C1142 C1140 1.394 . S
C1142 C1143 1.369 . S
C1142 C1146 1.531 . S
C1143 C1142 1.369 . S
C1143 C1144 1.410 . S
C1143 C1151 1.503 . S
C1144 C1143 1.410 . S
C1144 C1145 1.392 . S
C1144 C1147 1.511 . S
C1145 C1141 1.376 . S
C1145 C1144 1.392 . S
C1145 H1157 0.929 . S
C1146 C1142 1.531 . S
C1146 H1158 0.960 . S
C1146 H1159 0.962 . S
C1146 H1160 0.960 . S
C1147 C1144 1.511 . S
C1147 H1161 0.961 . S
C1147 H1162 0.961 . S
C1147 H1163 0.961 . S
C1148 C1149 1.370 . S
C1148 C1150 1.363 . S
C1148 H1164 0.931 . S
C1149 C1148 1.370 . S
C1149 C1153 1.408 . S
C1150 C1148 1.363 . S
C1150 C1151 1.370 . S
C1150 C1154 1.524 . S
C1151 C1143 1.503 . S
C1151 C1150 1.370 . S
C1151 C1152 1.403 . S
C1152 C1151 1.403 . S
C1152 C1153 1.404 . S
C1152 C1155 1.539 . S
C1153 C1149 1.408 . S
C1153 C1152 1.404 . S
C1153 H1165 0.930 . S
C1154 C1150 1.524 . S
C1154 H1166 0.956 . S
C1154 H1167 0.961 . S
C1154 H1168 0.961 . S
C1155 C1152 1.539 . S
C1155 H1169 0.958 . S
C1155 H1170 0.961 . S
C1155 H1171 0.960 . S
H1156 C1140 0.931 . S
H1157 C1145 0.929 . S
H1158 C1146 0.960 . S
H1159 C1146 0.962 . S
H1160 C1146 0.960 . S
H1161 C1147 0.961 . S
H1162 C1147 0.961 . S
H1163 C1147 0.961 . S
H1164 C1148 0.931 . S
H1165 C1153 0.930 . S
H1166 C1154 0.956 . S
H1167 C1154 0.961 . S
H1168 C1154 0.961 . S
H1169 C1155 0.958 . S
H1170 C1155 0.961 . S
H1171 C1155 0.960 . S
C405 C21 1.547 . S
C413 C323 1.446 . S
C437 C61 1.516 . S
C445 C357 1.444 . S
C477 C369 1.327 . S
C469 C82 1.433 . S
C501 C135 1.520 . S
C509 C403 1.430 . S
C541 C360 1.412 . S
C533 C15 1.532 . S
C573 C340 1.425 . S
C565 C42 1.502 . S
C605 C387 1.373 . S
C597 C101 1.471 . S
C637 C378 1.395 . S
C629 C122 1.455 . S
C661 C2 1.566 . S
C669 C386 1.466 . S
C701 C348 1.339 . S
C693 C95 1.449 . S
C725 C141 1.525 . S
C733 C324 1.427 . S
C757 C55 1.503 . S
C765 C381 1.384 . S
C797 C339 1.734 . S
C789 C181 1.779 1_545 S
C821 C202 1.666 . S
C829 C361 1.696 . S
C853 C255 1.741 . S
C861 C366 1.699 . S
C885 C295 1.761 . S
C893 C399 1.714 . S
C917 C175 1.810 1_554 S
C925 C344 1.717 . S
C957 C336 1.743 . S
C949 C221 1.732 . S
C989 C390 1.700 . S
C981 C242 1.693 . S
C1021 C382 1.709 . S
C1013 C301 1.846 . S
C1045 C162 1.681 1_455 S
C1053 C402 1.690 . S
C1085 C345 1.723 . S
C1077 C261 1.734 . S
C1117 C327 1.710 . S
C1109 C282 1.827 . S
C1141 C215 1.808 . S
C1149 C365 1.747 . S
