# Generated by pormake.
# Topology nia, (6,6)-cn, num edge types: 1
# Building blocks:
#     Node 0, Type 0, BuildingBlock: NUHQIS_clean_sbu_0, # of connection points: 6
#     Node 1, Type 0, BuildingBlock: NUHQIS_clean_sbu_0, # of connection points: 6
#     Node 2, Type 1, BuildingBlock: MIDCAF_clean_sbu_0, # of connection points: 6
#     Node 3, Type 1, BuildingBlock: MIDCAF_clean_sbu_0, # of connection points: 6
#     Edge 4, Type (0, 1), BuildingBlock: UVAHIK_clean_linker_0, # of connection points: 2
#     Edge 5, Type (0, 1), BuildingBlock: UVAHIK_clean_linker_0, # of connection points: 2
#     Edge 6, Type (0, 1), BuildingBlock: UVAHIK_clean_linker_0, # of connection points: 2
#     Edge 7, Type (0, 1), BuildingBlock: UVAHIK_clean_linker_0, # of connection points: 2
#     Edge 8, Type (0, 1), BuildingBlock: UVAHIK_clean_linker_0, # of connection points: 2
#     Edge 9, Type (0, 1), BuildingBlock: UVAHIK_clean_linker_0, # of connection points: 2
#     Edge 10, Type (0, 1), BuildingBlock: UVAHIK_clean_linker_0, # of connection points: 2
#     Edge 11, Type (0, 1), BuildingBlock: UVAHIK_clean_linker_0, # of connection points: 2
#     Edge 12, Type (0, 1), BuildingBlock: UVAHIK_clean_linker_0, # of connection points: 2
#     Edge 13, Type (0, 1), BuildingBlock: UVAHIK_clean_linker_0, # of connection points: 2
#     Edge 14, Type (0, 1), BuildingBlock: UVAHIK_clean_linker_0, # of connection points: 2
#     Edge 15, Type (0, 1), BuildingBlock: UVAHIK_clean_linker_0, # of connection points: 2
# Relax obj value: 0.204
# Max RMSD: 0.272
# Mean RMSD: 0.211
data_MOF--net-nia--node1-NUHQIS_clean_sbu_0--node2-MIDCAF_clean_sbu_0--edge1-UVAHIK_clean_linker_0
_symmetry_space_group_name_H-M    P1
_symmetry_Int_Tables_number       1
_symmetry_cell_setting            triclinic
loop_
_symmetry_equiv_pos_as_xyz
'x, y, z'
_cell_length_a     35.543771
_cell_length_b     35.475696
_cell_length_c     41.634784
_cell_angle_alpha  90.242584
_cell_angle_beta   90.26238
_cell_angle_gamma 131.79239
loop_
_atom_site_label
_atom_site_type_symbol
_atom_site_fract_x
_atom_site_fract_y
_atom_site_fract_z
_atom_type_partial_charge
Tb0 Tb 0.97424 0.01051 0.98082 0.0
Eu1 Eu 0.01841 0.97748 0.03222 0.0
C2 C 0.078 0.04104 0.97001 0.0
C3 C 0.95424 0.90991 0.971 0.0
C4 C 0.92854 0.06783 0.93794 0.0
C5 C 0.92727 0.12318 0.90491 0.0
C6 C 0.94262 0.09633 0.91007 0.0
C7 C 0.90022 0.06795 0.96131 0.0
C8 C 0.88465 0.09483 0.95612 0.0
C9 C 0.89734 0.12211 0.92757 0.0
C10 C 0.94163 0.03635 0.94071 0.0
O11 O 0.93101 -0.01097 0.0246 0.0
O12 O 0.93539 0.93073 0.04097 0.0
O13 O 0.02982 0.04117 0.0558 0.0
O14 O 0.02808 0.07738 0.01079 0.0
C15 C 0.91325 0.94904 0.0415 0.0
O16 O 0.00791 0.93565 0.07489 0.0
O17 O 0.07964 -0.01674 0.05041 0.0
O18 O 0.08228 0.03963 1.00118 0.0
O19 O 0.03408 0.0195 0.95682 0.0
O20 O 0.93549 0.93173 0.97 0.0
O21 O -0.00704 0.92704 0.98934 0.0
C22 C 0.0394 0.07944 0.04126 0.0
O23 O -0.01076 0.06019 0.9448 0.0
O24 O 0.91264 -0.00427 0.95814 0.0
C25 C 0.05595 0.91159 0.07742 0.0
C26 C 0.07001 0.84338 0.08887 0.0
C27 C 0.05501 0.85773 0.11375 0.0
C28 C 0.04809 0.89148 0.10805 0.0
C29 C 0.06925 0.89618 0.05214 0.0
C30 C 0.07634 0.86241 0.05785 0.0
C31 C 0.0526 0.9504 0.07308 0.0
H32 H 0.93707 0.14299 0.88244 0.0
H33 H 0.96434 0.09661 0.89172 0.0
H34 H 0.8892 0.04647 0.98317 0.0
H35 H 0.86206 0.09365 0.97419 0.0
H36 H 0.05061 0.84454 0.13803 0.0
H37 H 0.03791 0.903 0.12786 0.0
H38 H 0.07516 0.91098 0.02818 0.0
H39 H 0.0874 0.85172 0.0381 0.0
Tb40 Tb 0.97581 0.01251 0.527 0.0
Eu41 Eu 0.01065 0.96876 0.47724 0.0
C42 C 0.94668 0.90866 0.53951 0.0
C43 C 0.07546 0.03313 0.54052 0.0
C44 C 0.91503 0.05647 0.56795 0.0
C45 C 0.84481 0.03718 0.59696 0.0
C46 C 0.87408 0.0254 0.58885 0.0
C47 C 0.92465 0.09824 0.55415 0.0
C48 C 0.8956 0.11019 0.56241 0.0
C49 C 0.85634 0.08073 0.58471 0.0
C50 C 0.95145 0.04952 0.56442 0.0
O51 O 0.0375 0.07396 0.49756 0.0
O52 O 0.01734 0.02883 0.45186 0.0
O53 O 0.92918 0.92682 0.46637 0.0
O54 O 0.92513 -0.01514 0.48575 0.0
C55 C 0.03754 0.07162 0.46614 0.0
O56 O 0.06291 -0.01543 0.44045 0.0
O57 O -0.00014 0.90693 0.45392 0.0
O58 O -0.01467 0.92328 0.52242 0.0
O59 O 0.93029 0.93266 0.53802 0.0
O60 O 0.0356 0.02307 0.5527 0.0
O61 O 0.07698 0.02327 0.51033 0.0
C62 C 0.90698 0.94504 0.46796 0.0
O63 O 0.93464 0.00398 0.56692 0.0
O64 O -0.01508 0.07469 0.54192 0.0
C65 C 0.07492 0.9267 0.43593 0.0
C66 C 0.13509 0.90196 0.42804 0.0
C67 C 0.14275 0.939 0.40884 0.0
C68 C 0.11282 0.95105 0.41267 0.0
C69 C 0.0685 0.89116 0.45613 0.0
C70 C 0.09826 0.87877 0.45212 0.0
C71 C 0.04122 0.93726 0.43726 0.0
H72 H 0.81425 0.01311 0.61373 0.0
H73 H 0.86592 -0.00684 0.60004 0.0
H74 H 0.95622 0.12327 0.53818 0.0
H75 H 0.90598 0.14429 0.55273 0.0
H76 H 0.1703 0.95701 0.38979 0.0
H77 H 0.11834 0.97846 0.39678 0.0
H78 H 0.03979 0.87205 0.47446 0.0
H79 H 0.09181 0.85033 0.4674 0.0
Zn80 Zn 0.35491 0.63683 0.17116 0.0
Zn81 Zn 0.36227 0.649 0.31215 0.0
Zn82 Zn 0.35015 0.63281 0.2541 0.0
C83 C 0.45338 0.68588 0.29187 0.0
C84 C 0.28795 0.5466 0.30979 0.0
O85 O 0.31464 0.66007 0.23098 0.0
O86 O 0.32456 0.66607 0.17741 0.0
C87 C 0.45048 0.69334 0.20401 0.0
O88 O 0.43117 0.67875 0.26508 0.0
O89 O 0.42932 0.67108 0.31777 0.0
O90 O 0.30567 0.58208 0.3296 0.0
O91 O 0.30201 0.5573 0.28011 0.0
O92 O 0.42776 0.68331 0.17752 0.0
O93 O 0.42704 0.67647 0.23125 0.0
O94 O 0.30328 0.55172 0.24739 0.0
O95 O 0.32149 0.58013 0.19915 0.0
C96 C 0.29969 0.54314 0.21732 0.0
O97 O 0.32272 0.67186 0.26562 0.0
O98 O 0.358 0.7016 0.31362 0.0
C99 C 0.30888 0.67126 0.20284 0.0
C100 C 0.33412 0.69985 0.29031 0.0
Zn101 Zn 0.63633 0.34996 0.8145 0.0
Zn102 Zn 0.63641 0.35538 0.69482 0.0
Zn103 Zn 0.63448 0.34927 0.75455 0.0
C104 C 0.6842 0.45071 0.71225 0.0
C105 C 0.5357 0.28166 0.70924 0.0
O106 O 0.6671 0.31592 0.77071 0.0
O107 O 0.64564 0.30192 0.82188 0.0
C108 C 0.70379 0.449 0.79976 0.0
O109 O 0.67943 0.42994 0.73913 0.0
O110 O 0.66398 0.42425 0.68704 0.0
O111 O 0.56472 0.29867 0.68552 0.0
O112 O 0.5542 0.2985 0.73778 0.0
O113 O 0.69449 0.42208 0.82348 0.0
O114 O 0.68211 0.42832 0.7724 0.0
O115 O 0.555 0.30414 0.77108 0.0
O116 O 0.56905 0.32656 0.82235 0.0
C117 C 0.53889 0.30401 0.79884 0.0
O118 O 0.66889 0.31887 0.73643 0.0
O119 O 0.6811 0.34254 0.68582 0.0
C120 C 0.66446 0.29754 0.79818 0.0
C121 C 0.68614 0.32248 0.70831 0.0
C122 C 0.12638 0.82459 0.0834 0.0
C123 C 0.08272 0.812 0.09618 0.0
C124 C 0.14276 0.80027 0.0941 0.0
C125 C 0.13971 0.74075 0.16626 0.0
H126 H 0.20299 0.70794 0.11209 0.0
C127 C 0.23739 0.66829 0.21331 0.0
C128 C 0.28313 0.69042 0.19818 0.0
C129 C 0.20752 0.6784 0.20223 0.0
C130 C 0.18554 0.7171 0.12754 0.0
H131 H 0.0198 0.7611 0.12822 0.0
H132 H 0.04891 0.71915 0.14721 0.0
H133 H 0.15793 0.73049 0.08746 0.0
H134 H 0.33512 0.74258 0.16118 0.0
H135 H 0.28378 0.76034 0.14225 0.0
H136 H 0.1688 0.72889 0.20635 0.0
C137 C 0.07077 0.74838 0.12929 0.0
C138 C 0.1597 0.72987 0.11342 0.0
C139 C 0.05421 0.77245 0.11844 0.0
C140 C 0.29991 0.72491 0.17326 0.0
C141 C 0.27022 0.73461 0.16214 0.0
C142 C 0.16574 0.72809 0.18041 0.0
C143 C 0.11594 0.76303 0.11789 0.0
C144 C 0.13752 0.74297 0.13263 0.0
C145 C 0.22297 0.71022 0.1757 0.0
C146 C 0.19007 0.7175 0.16117 0.0
H147 H 0.14952 0.85517 0.06647 0.0
H148 H 0.17794 0.81264 0.08503 0.0
H149 H 0.12339 0.75118 0.18168 0.0
H150 H 0.22318 0.64071 0.23204 0.0
H151 H 0.17128 0.65929 0.21322 0.0
C152 C 0.15802 0.05621 0.55203 0.0
C153 C 0.11941 0.05499 0.56178 0.0
C154 C 0.1988 0.0757 0.57252 0.0
C155 C 0.27133 0.16235 0.64045 0.0
H156 H 0.31639 0.08922 0.651 0.0
C157 C 0.44712 0.24547 0.71769 0.0
C158 C 0.48099 0.24346 0.70268 0.0
C159 C 0.39748 0.21567 0.70601 0.0
C160 C 0.30447 0.11027 0.64826 0.0
H161 H 0.09382 0.07403 0.60056 0.0
H162 H 0.16538 0.10857 0.63609 0.0
H163 H 0.24233 0.05307 0.61773 0.0
H164 H 0.48919 0.20689 0.66519 0.0
H165 H 0.40385 0.15597 0.64465 0.0
H166 H 0.3346 0.2206 0.66974 0.0
C167 C 0.16389 0.09425 0.61264 0.0
C168 C 0.26206 0.08953 0.62916 0.0
C169 C 0.12283 0.07426 0.59232 0.0
C170 C 0.46374 0.20912 0.67722 0.0
C171 C 0.41455 0.1796 0.66558 0.0
C172 C 0.31413 0.18341 0.65928 0.0
C173 C 0.2021 0.09486 0.60304 0.0
C174 C 0.2455 0.11568 0.62469 0.0
C175 C 0.38116 0.18356 0.67912 0.0
C176 C 0.33176 0.15803 0.66298 0.0
H177 H 0.15656 0.04166 0.52868 0.0
H178 H 0.22806 0.07626 0.56434 0.0
H179 H 0.25958 0.1835 0.63724 0.0
H180 H 0.4598 0.27231 0.73696 0.0
H181 H 0.37251 0.21916 0.71727 0.0
C182 C 0.07742 0.16941 0.04512 0.0
C183 C 0.06509 0.12677 0.0597 0.0
C184 C 0.10277 0.21434 0.06257 0.0
C185 C 0.18331 0.28238 0.13415 0.0
H186 H 0.13779 0.35555 0.128 0.0
C187 C 0.26122 0.4526 0.21716 0.0
C188 C 0.26947 0.4929 0.20235 0.0
C189 C 0.23539 0.40677 0.2005 0.0
C190 C 0.15131 0.33584 0.12977 0.0
H191 H 0.06943 0.09783 0.10412 0.0
H192 H 0.1131 0.17593 0.13446 0.0
H193 H 0.09579 0.27897 0.09614 0.0
H194 H 0.25893 0.51784 0.15833 0.0
H195 H 0.21643 0.43973 0.12928 0.0
H196 H 0.23934 0.33972 0.16746 0.0
C197 C 0.10381 0.17482 0.10945 0.0
C198 C 0.12726 0.29203 0.11147 0.0
C199 C 0.07844 0.12996 0.09208 0.0
C200 C 0.25242 0.4871 0.17065 0.0
C201 C 0.22762 0.4421 0.15398 0.0
C202 C 0.20762 0.32644 0.15233 0.0
C203 C 0.11633 0.21746 0.09487 0.0
C204 C 0.14288 0.26477 0.11357 0.0
C205 C 0.21842 0.40124 0.1687 0.0
C206 C 0.1918 0.35357 0.15036 0.0
H207 H 0.0678 0.16827 0.0202 0.0
H208 H 0.11235 0.24684 0.05067 0.0
H209 H 0.19656 0.26243 0.13587 0.0
H210 H 0.276 0.45695 0.241 0.0
H211 H 0.22887 0.37582 0.21243 0.0
C212 C 0.8214 0.12294 0.57777 0.0
C213 C 0.8313 0.09836 0.59758 0.0
C214 C 0.80357 0.1448 0.59087 0.0
C215 C 0.79801 0.19211 0.66894 0.0
H216 H 0.709 0.19958 0.62163 0.0
C217 C 0.69801 0.261 0.71837 0.0
C218 C 0.70875 0.30058 0.70043 0.0
C219 C 0.71421 0.23633 0.70777 0.0
C220 C 0.73387 0.19765 0.63503 0.0
H221 H 0.82861 0.07628 0.64668 0.0
H222 H 0.79522 0.11189 0.66908 0.0
H223 H 0.73097 0.15304 0.59866 0.0
H224 H 0.74561 0.34582 0.65753 0.0
H225 H 0.77186 0.30144 0.63861 0.0
H226 H 0.79958 0.23589 0.70562 0.0
C227 C 0.80257 0.11566 0.64356 0.0
C228 C 0.74676 0.17135 0.62184 0.0
C229 C 0.82088 0.09432 0.63055 0.0
C230 C 0.73671 0.31551 0.67201 0.0
C231 C 0.75172 0.29015 0.66107 0.0
C232 C 0.78434 0.21763 0.68235 0.0
C233 C 0.79477 0.1422 0.62405 0.0
C234 C 0.77935 0.16855 0.63851 0.0
C235 C 0.73997 0.24995 0.67859 0.0
C236 C 0.75257 0.22094 0.66535 0.0
H237 H 0.82837 0.12619 0.55221 0.0
H238 H 0.79832 0.16516 0.57506 0.0
H239 H 0.82408 0.19182 0.68219 0.0
H240 H 0.67492 0.24734 0.73956 0.0
H241 H 0.70453 0.20507 0.72151 0.0
C242 C 0.84402 0.94374 0.06345 0.0
C243 C 0.86807 0.92452 0.06181 0.0
C244 C 0.80181 0.9208 0.08296 0.0
C245 C 0.70038 0.80059 0.12418 0.0
H246 H 0.68568 0.88372 0.17251 0.0
C247 C 0.53062 0.71027 0.20757 0.0
C248 C 0.50565 0.72786 0.20228 0.0
C249 C 0.57941 0.73734 0.19564 0.0
C250 C 0.6892 0.85995 0.15915 0.0
H251 H 0.86637 0.86592 0.07948 0.0
H252 H 0.79327 0.82635 0.11355 0.0
H253 H 0.76011 0.92386 0.13945 0.0
H254 H 0.51209 0.78803 0.18216 0.0
H255 H 0.59697 0.83558 0.16195 0.0
H256 H 0.62903 0.73669 0.14342 0.0
C257 C 0.80661 0.8588 0.0995 0.0
C258 C 0.73175 0.88297 0.14005 0.0
C259 C 0.84878 0.88172 0.08005 0.0
C260 C 0.53119 0.77438 0.18706 0.0
C261 C 0.57978 0.80148 0.17537 0.0
C262 C 0.65784 0.77758 0.1433 0.0
C263 C 0.78261 0.87806 0.10128 0.0
C264 C 0.73774 0.85359 0.12212 0.0
C265 C 0.60378 0.78238 0.17839 0.0
C266 C 0.65151 0.80696 0.16083 0.0
H267 H 0.85774 0.97655 0.04967 0.0
H268 H 0.78386 0.93624 0.08337 0.0
H269 H 0.70331 0.77675 0.11034 0.0
H270 H 0.51111 0.67392 0.21868 0.0
H271 H 0.59716 0.72192 0.19866 0.0
C272 C 0.88033 0.84838 0.58008 0.0
C273 C 0.92069 0.86392 0.56058 0.0
C274 C 0.85603 0.80626 0.6 0.0
C275 C 0.83684 0.69062 0.61034 0.0
H276 H 0.79362 0.68952 0.69602 0.0
C277 C 0.7664 0.53125 0.69626 0.0
C278 C 0.71833 0.50578 0.7088 0.0
C279 C 0.79378 0.57888 0.68257 0.0
C280 C 0.80537 0.68933 0.67211 0.0
H281 H 0.96725 0.84736 0.54699 0.0
H282 H 0.92548 0.77464 0.58182 0.0
H283 H 0.83512 0.76411 0.66219 0.0
H284 H 0.6619 0.51053 0.71858 0.0
H285 H 0.71055 0.59502 0.6953 0.0
H286 H 0.80758 0.61624 0.62025 0.0
C287 C 0.91199 0.79443 0.58144 0.0
C288 C 0.82891 0.73189 0.65265 0.0
C289 C 0.93623 0.83644 0.56156 0.0
C290 C 0.69945 0.53012 0.70962 0.0
C291 C 0.72713 0.57819 0.69613 0.0
C292 C 0.81381 0.64848 0.62982 0.0
C293 C 0.87145 0.77862 0.60086 0.0
C294 C 0.84526 0.73317 0.62156 0.0
C295 C 0.77353 0.60194 0.68114 0.0
C296 C 0.79817 0.64745 0.661 0.0
H297 H 0.86736 0.86867 0.57997 0.0
H298 H 0.82464 0.79492 0.61433 0.0
H299 H 0.84762 0.68959 0.58629 0.0
H300 H 0.78118 0.51267 0.69486 0.0
H301 H 0.8297 0.59655 0.67157 0.0
C302 C 0.21349 0.91878 0.41305 0.0
C303 C 0.16189 0.88423 0.42051 0.0
C304 C 0.23665 0.90172 0.40107 0.0
C305 C 0.21554 0.78449 0.38612 0.0
H306 H 0.30719 0.86237 0.31549 0.0
C307 C 0.26433 0.69915 0.29676 0.0
C308 C 0.31618 0.72674 0.29421 0.0
C309 C 0.24738 0.72129 0.31094 0.0
C310 C 0.28172 0.84035 0.33522 0.0
H311 H 0.09465 0.80474 0.42258 0.0
H312 H 0.13431 0.775 0.40114 0.0
H313 H 0.27666 0.89562 0.34656 0.0
H314 H 0.39096 0.79926 0.30287 0.0
H315 H 0.36136 0.83865 0.32651 0.0
H316 H 0.21948 0.7285 0.37383 0.0
C317 C 0.15752 0.81523 0.40506 0.0
C318 C 0.26459 0.85957 0.35331 0.0
C319 C 0.13459 0.83227 0.41736 0.0
C320 C 0.35073 0.7777 0.30397 0.0
C321 C 0.33383 0.80006 0.31768 0.0
C322 C 0.23204 0.76499 0.36769 0.0
C323 C 0.20852 0.84975 0.39591 0.0
C324 C 0.23071 0.83159 0.37877 0.0
C325 C 0.28209 0.77143 0.32248 0.0
C326 C 0.26475 0.79244 0.34182 0.0
H327 H 0.23563 0.95908 0.41569 0.0
H328 H 0.27629 0.92939 0.39512 0.0
H329 H 0.19058 0.76239 0.406 0.0
H330 H 0.23712 0.65938 0.29036 0.0
H331 H 0.20724 0.69857 0.31419 0.0
C332 C 0.16958 0.08657 0.96287 0.0
C333 C 0.12296 0.06626 0.94942 0.0
C334 C 0.21208 0.11072 0.94355 0.0
C335 C 0.25257 0.1261 0.85867 0.0
H336 H 0.38084 0.24588 0.89346 0.0
C337 C 0.44745 0.22534 0.79981 0.0
C338 C 0.48563 0.27771 0.8047 0.0
C339 C 0.39981 0.19881 0.81361 0.0
C340 C 0.34529 0.2129 0.88308 0.0
H341 H 0.08451 0.05521 0.90494 0.0
H342 H 0.15884 0.09815 0.87135 0.0
H343 H 0.3055 0.20145 0.92558 0.0
H344 H 0.5035 0.34407 0.82546 0.0
H345 H 0.42029 0.29864 0.84812 0.0
H346 H 0.29268 0.13857 0.81579 0.0
C347 C 0.1624 0.0947 0.89679 0.0
C348 C 0.30206 0.18684 0.90182 0.0
C349 C 0.11981 0.07037 0.91612 0.0
C350 C 0.47452 0.30362 0.82138 0.0
C351 C 0.42704 0.27743 0.83473 0.0
C352 C 0.29598 0.15241 0.8398 0.0
C353 C 0.20919 0.11546 0.91027 0.0
C354 C 0.2551 0.143 0.88996 0.0
C355 C 0.3898 0.22442 0.83237 0.0
C356 C 0.3429 0.19629 0.85175 0.0
H357 H 0.17336 0.08381 0.98839 0.0
H358 H 0.24721 0.12542 0.95474 0.0
H359 H 0.21713 0.09217 0.84886 0.0
H360 H 0.4555 0.20456 0.78735 0.0
H361 H 0.37208 0.15802 0.81128 0.0
C362 C 0.08757 0.16464 0.46267 0.0
C363 C 0.0614 0.1178 0.44706 0.0
C364 C 0.1102 0.20842 0.44502 0.0
C365 C 0.10779 0.25595 0.36741 0.0
H366 H 0.24184 0.37699 0.39419 0.0
C367 C 0.22714 0.45142 0.30213 0.0
C368 C 0.2554 0.49422 0.32237 0.0
C369 C 0.20107 0.403 0.31479 0.0
C370 C 0.20421 0.34369 0.38653 0.0
H371 H 0.0378 0.08016 0.40054 0.0
H372 H 0.07749 0.15704 0.36963 0.0
H373 H 0.20176 0.29749 0.42087 0.0
H374 H 0.27472 0.51895 0.37229 0.0
H375 H 0.2287 0.43553 0.3941 0.0
H376 H 0.11024 0.30283 0.33329 0.0
C377 C 0.08034 0.15964 0.3956 0.0
C378 C 0.18127 0.29807 0.40183 0.0
C379 C 0.05791 0.11571 0.41331 0.0
C380 C 0.25424 0.48714 0.35572 0.0
C381 C 0.22816 0.43916 0.36831 0.0
C382 C 0.1308 0.30192 0.35208 0.0
C383 C 0.10709 0.20655 0.41129 0.0
C384 C 0.13244 0.25385 0.39293 0.0
C385 C 0.20249 0.39661 0.34802 0.0
C386 C 0.1789 0.34656 0.36197 0.0
H387 H 0.09079 0.16767 0.48862 0.0
H388 H 0.12987 0.24383 0.45787 0.0
H389 H 0.07005 0.22248 0.36006 0.0
H390 H 0.22532 0.45541 0.27662 0.0
H391 H 0.18105 0.37088 0.2985 0.0
C392 C 0.90542 0.19194 0.9032 0.0
C393 C 0.87631 0.14589 0.91978 0.0
C394 C 0.88332 0.20996 0.89096 0.0
C395 C 0.75874 0.16107 0.86393 0.0
H396 H 0.82689 0.3029 0.85731 0.0
C397 C 0.65936 0.23104 0.82317 0.0
C398 C 0.68601 0.27428 0.80398 0.0
C399 C 0.68278 0.21432 0.83503 0.0
C400 C 0.80772 0.26319 0.85856 0.0
H401 H 0.80177 0.0845 0.93839 0.0
H402 H 0.7636 0.1167 0.91792 0.0
H403 H 0.86741 0.27839 0.88649 0.0
H404 H 0.75755 0.33339 0.78137 0.0
H405 H 0.79894 0.30397 0.80209 0.0
H406 H 0.69888 0.14584 0.83632 0.0
C407 C 0.80329 0.13821 0.91361 0.0
C408 C 0.83082 0.24911 0.87541 0.0
C409 C 0.82537 0.12011 0.92577 0.0
C410 C 0.73606 0.29949 0.79574 0.0
C411 C 0.7598 0.28303 0.80793 0.0
C412 C 0.73563 0.17512 0.84722 0.0
C413 C 0.83158 0.18245 0.89512 0.0
C414 C 0.80655 0.19783 0.87836 0.0
C415 C 0.73369 0.24093 0.82834 0.0
C416 C 0.75978 0.22631 0.84436 0.0
H417 H 0.94502 0.21323 0.89868 0.0
H418 H 0.90632 0.24416 0.87688 0.0
H419 H 0.7394 0.12131 0.86505 0.0
H420 H 0.62089 0.21137 0.83016 0.0
H421 H 0.66171 0.18207 0.85087 0.0
C422 C 0.83075 0.86922 0.43958 0.0
C423 C 0.86104 0.92038 0.4483 0.0
C424 C 0.78851 0.84587 0.41981 0.0
C425 C 0.73548 0.86985 0.35699 0.0
H426 H 0.60893 0.73923 0.38119 0.0
C427 C 0.54267 0.76586 0.29221 0.0
C428 C 0.50721 0.71297 0.29386 0.0
C429 C 0.59045 0.79339 0.30638 0.0
C430 C 0.6442 0.7752 0.37367 0.0
H431 H 0.87098 -0.01265 0.44322 0.0
H432 H 0.79709 0.94642 0.40791 0.0
H433 H 0.68132 0.7836 0.41727 0.0
H434 H 0.49451 0.64684 0.30825 0.0
H435 H 0.57861 0.6944 0.33129 0.0
H436 H 0.69831 0.86107 0.31311 0.0
C437 C 0.80616 0.92454 0.41664 0.0
C438 C 0.68552 0.80079 0.39455 0.0
C439 C 0.84808 0.94776 0.43699 0.0
C440 C 0.52162 0.68771 0.30659 0.0
C441 C 0.56942 0.71502 0.32027 0.0
C442 C 0.69407 0.84395 0.33585 0.0
C443 C 0.77604 0.87336 0.40789 0.0
C444 C 0.73166 0.84813 0.38634 0.0
C445 C 0.60318 0.76812 0.32217 0.0
C446 C 0.64808 0.79601 0.34383 0.0
H447 H 0.8397 0.84712 0.44805 0.0
H448 H 0.76606 0.80644 0.41331 0.0
H449 H 0.77083 0.90624 0.35004 0.0
H450 H 0.53181 0.78593 0.28287 0.0
H451 H 0.61555 0.83422 0.30731 0.0
C452 C 0.95891 0.85209 0.94085 0.0
C453 C 0.93062 0.86443 0.95113 0.0
C454 C 0.93659 0.80931 0.92161 0.0
C455 C 0.81388 0.68581 0.90162 0.0
H456 H 0.87891 0.69279 0.82436 0.0
C457 C 0.7086 0.51963 0.81344 0.0
C458 C 0.73374 0.50299 0.80552 0.0
C459 C 0.73492 0.56691 0.82789 0.0
C460 C 0.86055 0.69032 0.84597 0.0
H461 H 0.85689 0.84164 0.9498 0.0
H462 H 0.81764 0.76636 0.91672 0.0
H463 H 0.92085 0.76867 0.85784 0.0
H464 H 0.80577 0.5225 0.80478 0.0
H465 H 0.85262 0.60647 0.82918 0.0
H466 H 0.75381 0.60765 0.89004 0.0
C467 C 0.8571 0.78992 0.92333 0.0
C468 C 0.88452 0.73358 0.86513 0.0
C469 C 0.8796 0.8331 0.94208 0.0
C470 C 0.78605 0.53529 0.81027 0.0
C471 C 0.81264 0.58304 0.82431 0.0
C472 C 0.78999 0.64271 0.88253 0.0
C473 C 0.88539 0.77768 0.91283 0.0
C474 C 0.86116 0.73175 0.89298 0.0
C475 C 0.78688 0.59837 0.83444 0.0
C476 C 0.81281 0.64462 0.85435 0.0
H477 H -0.00157 0.87584 0.94734 0.0
H478 H 0.95914 0.80056 0.91398 0.0
H479 H 0.7955 0.68311 0.9233 0.0
H480 H 0.66802 0.49467 0.8105 0.0
H481 H 0.71425 0.57802 0.83516 0.0
loop_
_geom_bond_atom_site_label_1
_geom_bond_atom_site_label_2
_geom_bond_distance
_geom_bond_site_symmetry_2
_ccdc_geom_bond_type
Tb0 C10 2.825 . S
Tb0 O11 2.347 1_546 S
Tb0 O14 2.375 1_655 S
Tb0 O19 2.418 1_655 S
Tb0 O20 2.384 1_545 S
Tb0 O23 2.479 . S
Tb0 O24 2.471 . S
Eu1 O12 2.418 1_455 S
Eu1 O13 2.384 1_565 S
Eu1 O16 2.479 . S
Eu1 O17 2.471 . S
Eu1 O18 2.347 1_564 S
Eu1 O21 2.366 1_455 S
Eu1 C31 2.825 . S
C2 O18 1.259 . S
C2 O19 1.265 . S
C3 O20 1.255 . S
C3 O21 1.265 1_556 S
C4 C6 1.380 . S
C4 C7 1.374 . S
C4 C10 1.507 . S
C5 C6 1.384 . S
C5 C9 1.387 . S
C5 H32 0.930 . S
C6 C4 1.380 . S
C6 C5 1.384 . S
C6 H33 0.931 . S
C7 C4 1.374 . S
C7 C8 1.390 . S
C7 H34 0.930 . S
C8 C7 1.390 . S
C8 C9 1.391 . S
C8 H35 0.930 . S
C9 C5 1.387 . S
C9 C8 1.391 . S
C10 Tb0 2.825 . S
C10 C4 1.507 . S
C10 O23 1.238 . S
C10 O24 1.247 . S
O11 Tb0 2.347 1_564 S
O11 C15 1.259 . S
O12 Eu1 2.418 1_655 S
O12 C15 1.265 . S
O13 Eu1 2.384 1_545 S
O13 C22 1.255 . S
O14 Tb0 2.375 1_455 S
O14 C22 1.251 1_556 S
C15 O11 1.259 . S
C15 O12 1.265 . S
O16 Eu1 2.479 . S
O16 C31 1.238 . S
O17 Eu1 2.471 . S
O17 C31 1.247 . S
O18 Eu1 2.347 1_546 S
O18 C2 1.259 . S
O19 Tb0 2.418 1_455 S
O19 C2 1.265 . S
O20 Tb0 2.384 1_565 S
O20 C3 1.255 . S
O21 Eu1 2.366 1_655 S
O21 C3 1.265 1_554 S
C22 O13 1.255 . S
C22 O14 1.251 1_554 S
O23 Tb0 2.479 . S
O23 C10 1.238 . S
O24 Tb0 2.471 . S
O24 C10 1.247 . S
C25 C28 1.380 . S
C25 C29 1.374 . S
C25 C31 1.507 . S
C26 C27 1.387 . S
C26 C30 1.391 . S
C27 C26 1.387 . S
C27 C28 1.384 . S
C27 H36 0.930 . S
C28 C25 1.380 . S
C28 C27 1.384 . S
C28 H37 0.931 . S
C29 C25 1.374 . S
C29 C30 1.390 . S
C29 H38 0.930 . S
C30 C26 1.391 . S
C30 C29 1.390 . S
C30 H39 0.930 . S
C31 Eu1 2.825 . S
C31 O16 1.238 . S
C31 O17 1.247 . S
C31 C25 1.507 . S
H32 C5 0.930 . S
H33 C6 0.931 . S
H34 C7 0.930 . S
H35 C8 0.930 . S
H36 C27 0.930 . S
H37 C28 0.931 . S
H38 C29 0.930 . S
H39 C30 0.930 . S
Tb40 C50 2.825 1_455 S
Tb40 O51 2.347 . S
Tb40 O54 2.366 1_445 S
Tb40 O59 2.418 1_445 S
Tb40 O60 2.384 . S
Tb40 O63 2.479 1_455 S
Tb40 O64 2.471 1_455 S
Eu41 O52 2.418 1_565 S
Eu41 O53 2.384 1_455 S
Eu41 O56 2.479 . S
Eu41 O57 2.471 . S
Eu41 O58 2.347 1_455 S
Eu41 O61 2.366 1_565 S
Eu41 C71 2.825 . S
C42 O58 1.259 . S
C42 O59 1.265 . S
C43 O60 1.255 . S
C43 O61 1.265 . S
C44 C46 1.380 . S
C44 C47 1.374 . S
C44 C50 1.507 . S
C45 C46 1.384 . S
C45 C49 1.387 . S
C45 H72 0.930 . S
C46 C44 1.380 . S
C46 C45 1.384 . S
C46 H73 0.931 . S
C47 C44 1.374 . S
C47 C48 1.390 . S
C47 H74 0.930 . S
C48 C47 1.390 . S
C48 C49 1.391 . S
C48 H75 0.930 . S
C49 C45 1.387 . S
C49 C48 1.391 . S
C50 Tb40 2.825 1_655 S
C50 C44 1.507 . S
C50 O63 1.238 . S
C50 O64 1.247 . S
O51 Tb40 2.347 . S
O51 C55 1.259 . S
O52 Eu41 2.418 1_545 S
O52 C55 1.265 . S
O53 Eu41 2.384 1_655 S
O53 C62 1.255 . S
O54 Tb40 2.366 1_665 S
O54 C62 1.265 . S
C55 O51 1.259 . S
C55 O52 1.265 . S
O56 Eu41 2.479 . S
O56 C71 1.238 . S
O57 Eu41 2.471 . S
O57 C71 1.247 . S
O58 Eu41 2.347 1_655 S
O58 C42 1.259 . S
O59 Tb40 2.418 1_665 S
O59 C42 1.265 . S
O60 Tb40 2.384 . S
O60 C43 1.255 . S
O61 Eu41 2.366 1_545 S
O61 C43 1.265 . S
C62 O53 1.255 . S
C62 O54 1.265 . S
O63 Tb40 2.479 1_655 S
O63 C50 1.238 . S
O64 Tb40 2.471 1_655 S
O64 C50 1.247 . S
C65 C68 1.380 . S
C65 C69 1.374 . S
C65 C71 1.507 . S
C66 C67 1.387 . S
C66 C70 1.391 . S
C67 C66 1.387 . S
C67 C68 1.384 . S
C67 H76 0.930 . S
C68 C65 1.380 . S
C68 C67 1.384 . S
C68 H77 0.931 . S
C69 C65 1.374 . S
C69 C70 1.390 . S
C69 H78 0.930 . S
C70 C66 1.391 . S
C70 C69 1.390 . S
C70 H79 0.930 . S
C71 Eu41 2.825 . S
C71 O56 1.238 . S
C71 O57 1.247 . S
C71 C65 1.507 . S
H72 C45 0.930 . S
H73 C46 0.931 . S
H74 C47 0.930 . S
H75 C48 0.930 . S
H76 C67 0.930 . S
H77 C68 0.931 . S
H78 C69 0.930 . S
H79 C70 0.930 . S
Zn80 O86 1.920 . S
Zn80 O92 1.898 . S
Zn80 O95 1.905 . S
Zn81 O89 1.905 . S
Zn81 O90 1.898 . S
Zn81 O98 1.920 . S
Zn82 O85 2.080 . S
Zn82 O88 2.114 . S
Zn82 O91 2.120 . S
Zn82 O93 2.120 . S
Zn82 O94 2.114 . S
Zn82 O97 2.080 . S
C83 O88 1.166 . S
C83 O89 1.182 . S
C84 O90 1.167 . S
C84 O91 1.299 . S
O85 Zn82 2.080 . S
O85 C99 1.305 . S
O86 Zn80 1.920 . S
O86 C99 1.234 . S
C87 O92 1.167 . S
C87 O93 1.299 . S
O88 Zn82 2.114 . S
O88 C83 1.166 . S
O89 Zn81 1.905 . S
O89 C83 1.182 . S
O90 Zn81 1.898 . S
O90 C84 1.167 . S
O91 Zn82 2.120 . S
O91 C84 1.299 . S
O92 Zn80 1.898 . S
O92 C87 1.167 . S
O93 Zn82 2.120 . S
O93 C87 1.299 . S
O94 Zn82 2.114 . S
O94 C96 1.166 . S
O95 Zn80 1.905 . S
O95 C96 1.182 . S
C96 O94 1.166 . S
C96 O95 1.182 . S
O97 Zn82 2.080 . S
O97 C100 1.305 . S
O98 Zn81 1.920 . S
O98 C100 1.234 . S
C99 O85 1.305 . S
C99 O86 1.234 . S
C100 O97 1.305 . S
C100 O98 1.234 . S
Zn101 O107 1.920 . S
Zn101 O113 1.898 . S
Zn101 O116 1.905 . S
Zn102 O110 1.905 . S
Zn102 O111 1.898 . S
Zn102 O119 1.920 . S
Zn103 O106 2.080 . S
Zn103 O109 2.114 . S
Zn103 O112 2.120 . S
Zn103 O114 2.120 . S
Zn103 O115 2.114 . S
Zn103 O118 2.080 . S
C104 O109 1.166 . S
C104 O110 1.182 . S
C105 O111 1.167 . S
C105 O112 1.299 . S
O106 Zn103 2.080 . S
O106 C120 1.305 . S
O107 Zn101 1.920 . S
O107 C120 1.234 . S
C108 O113 1.167 . S
C108 O114 1.299 . S
O109 Zn103 2.114 . S
O109 C104 1.166 . S
O110 Zn102 1.905 . S
O110 C104 1.182 . S
O111 Zn102 1.898 . S
O111 C105 1.167 . S
O112 Zn103 2.120 . S
O112 C105 1.299 . S
O113 Zn101 1.898 . S
O113 C108 1.167 . S
O114 Zn103 2.120 . S
O114 C108 1.299 . S
O115 Zn103 2.114 . S
O115 C117 1.166 . S
O116 Zn101 1.905 . S
O116 C117 1.182 . S
C117 O115 1.166 . S
C117 O116 1.182 . S
O118 Zn103 2.080 . S
O118 C121 1.305 . S
O119 Zn102 1.920 . S
O119 C121 1.234 . S
C120 O106 1.305 . S
C120 O107 1.234 . S
C121 O118 1.305 . S
C121 O119 1.234 . S
C122 C123 1.349 . S
C122 C124 1.327 . S
C122 H147 0.950 . S
C123 C122 1.349 . S
C123 C139 1.349 . S
C124 C122 1.327 . S
C124 C143 1.429 . S
C124 H148 0.950 . S
C125 C142 1.574 . S
C125 C144 1.368 . S
C125 H149 0.949 . S
H126 C130 0.949 . S
C127 C128 1.349 . S
C127 C129 1.327 . S
C127 H150 0.950 . S
C128 C127 1.349 . S
C128 C140 1.349 . S
C129 C127 1.327 . S
C129 C145 1.429 . S
C129 H151 0.950 . S
C130 H126 0.949 . S
C130 C138 1.574 . S
C130 C146 1.368 . S
H131 C139 0.950 . S
H132 C137 0.950 . S
H133 C138 0.949 . S
H134 C140 0.950 . S
H135 C141 0.950 . S
H136 C142 0.949 . S
C137 H132 0.950 . S
C137 C139 1.327 . S
C137 C143 1.429 . S
C138 C130 1.574 . S
C138 H133 0.949 . S
C138 C144 1.368 . S
C139 C123 1.349 . S
C139 H131 0.950 . S
C139 C137 1.327 . S
C140 C128 1.349 . S
C140 H134 0.950 . S
C140 C141 1.327 . S
C141 H135 0.950 . S
C141 C140 1.327 . S
C141 C145 1.429 . S
C142 C125 1.574 . S
C142 H136 0.949 . S
C142 C146 1.368 . S
C143 C124 1.429 . S
C143 C137 1.429 . S
C143 C144 1.523 . S
C144 C125 1.368 . S
C144 C138 1.368 . S
C144 C143 1.523 . S
C145 C129 1.429 . S
C145 C141 1.429 . S
C145 C146 1.523 . S
C146 C130 1.368 . S
C146 C142 1.368 . S
C146 C145 1.523 . S
H147 C122 0.950 . S
H148 C124 0.950 . S
H149 C125 0.949 . S
H150 C127 0.950 . S
H151 C129 0.950 . S
C152 C153 1.349 . S
C152 C154 1.327 . S
C152 H177 0.950 . S
C153 C152 1.349 . S
C153 C169 1.349 . S
C154 C152 1.327 . S
C154 C173 1.429 . S
C154 H178 0.950 . S
C155 C172 1.574 . S
C155 C174 1.368 . S
C155 H179 0.949 . S
H156 C160 0.949 . S
C157 C158 1.349 . S
C157 C159 1.327 . S
C157 H180 0.950 . S
C158 C157 1.349 . S
C158 C170 1.349 . S
C159 C157 1.327 . S
C159 C175 1.429 . S
C159 H181 0.950 . S
C160 H156 0.949 . S
C160 C168 1.574 . S
C160 C176 1.368 . S
H161 C169 0.950 . S
H162 C167 0.950 . S
H163 C168 0.949 . S
H164 C170 0.950 . S
H165 C171 0.950 . S
H166 C172 0.949 . S
C167 H162 0.950 . S
C167 C169 1.327 . S
C167 C173 1.429 . S
C168 C160 1.574 . S
C168 H163 0.949 . S
C168 C174 1.368 . S
C169 C153 1.349 . S
C169 H161 0.950 . S
C169 C167 1.327 . S
C170 C158 1.349 . S
C170 H164 0.950 . S
C170 C171 1.327 . S
C171 H165 0.950 . S
C171 C170 1.327 . S
C171 C175 1.429 . S
C172 C155 1.574 . S
C172 H166 0.949 . S
C172 C176 1.368 . S
C173 C154 1.429 . S
C173 C167 1.429 . S
C173 C174 1.523 . S
C174 C155 1.368 . S
C174 C168 1.368 . S
C174 C173 1.523 . S
C175 C159 1.429 . S
C175 C171 1.429 . S
C175 C176 1.523 . S
C176 C160 1.368 . S
C176 C172 1.368 . S
C176 C175 1.523 . S
H177 C152 0.950 . S
H178 C154 0.950 . S
H179 C155 0.949 . S
H180 C157 0.950 . S
H181 C159 0.950 . S
C182 C183 1.349 . S
C182 C184 1.327 . S
C182 H207 0.950 . S
C183 C182 1.349 . S
C183 C199 1.349 . S
C184 C182 1.327 . S
C184 C203 1.429 . S
C184 H208 0.950 . S
C185 C202 1.574 . S
C185 C204 1.368 . S
C185 H209 0.949 . S
H186 C190 0.949 . S
C187 C188 1.349 . S
C187 C189 1.327 . S
C187 H210 0.950 . S
C188 C187 1.349 . S
C188 C200 1.349 . S
C189 C187 1.327 . S
C189 C205 1.429 . S
C189 H211 0.950 . S
C190 H186 0.949 . S
C190 C198 1.574 . S
C190 C206 1.368 . S
H191 C199 0.950 . S
H192 C197 0.950 . S
H193 C198 0.949 . S
H194 C200 0.950 . S
H195 C201 0.950 . S
H196 C202 0.949 . S
C197 H192 0.950 . S
C197 C199 1.327 . S
C197 C203 1.429 . S
C198 C190 1.574 . S
C198 H193 0.949 . S
C198 C204 1.368 . S
C199 C183 1.349 . S
C199 H191 0.950 . S
C199 C197 1.327 . S
C200 C188 1.349 . S
C200 H194 0.950 . S
C200 C201 1.327 . S
C201 H195 0.950 . S
C201 C200 1.327 . S
C201 C205 1.429 . S
C202 C185 1.574 . S
C202 H196 0.949 . S
C202 C206 1.368 . S
C203 C184 1.429 . S
C203 C197 1.429 . S
C203 C204 1.523 . S
C204 C185 1.368 . S
C204 C198 1.368 . S
C204 C203 1.523 . S
C205 C189 1.429 . S
C205 C201 1.429 . S
C205 C206 1.523 . S
C206 C190 1.368 . S
C206 C202 1.368 . S
C206 C205 1.523 . S
H207 C182 0.950 . S
H208 C184 0.950 . S
H209 C185 0.949 . S
H210 C187 0.950 . S
H211 C189 0.950 . S
C212 C213 1.349 . S
C212 C214 1.327 . S
C212 H237 0.950 . S
C213 C212 1.349 . S
C213 C229 1.349 . S
C214 C212 1.327 . S
C214 C233 1.429 . S
C214 H238 0.950 . S
C215 C232 1.574 . S
C215 C234 1.368 . S
C215 H239 0.949 . S
H216 C220 0.949 . S
C217 C218 1.349 . S
C217 C219 1.327 . S
C217 H240 0.950 . S
C218 C217 1.349 . S
C218 C230 1.349 . S
C219 C217 1.327 . S
C219 C235 1.429 . S
C219 H241 0.950 . S
C220 H216 0.949 . S
C220 C228 1.574 . S
C220 C236 1.368 . S
H221 C229 0.950 . S
H222 C227 0.950 . S
H223 C228 0.949 . S
H224 C230 0.950 . S
H225 C231 0.950 . S
H226 C232 0.949 . S
C227 H222 0.950 . S
C227 C229 1.327 . S
C227 C233 1.429 . S
C228 C220 1.574 . S
C228 H223 0.949 . S
C228 C234 1.368 . S
C229 C213 1.349 . S
C229 H221 0.950 . S
C229 C227 1.327 . S
C230 C218 1.349 . S
C230 H224 0.950 . S
C230 C231 1.327 . S
C231 H225 0.950 . S
C231 C230 1.327 . S
C231 C235 1.429 . S
C232 C215 1.574 . S
C232 H226 0.949 . S
C232 C236 1.368 . S
C233 C214 1.429 . S
C233 C227 1.429 . S
C233 C234 1.523 . S
C234 C215 1.368 . S
C234 C228 1.368 . S
C234 C233 1.523 . S
C235 C219 1.429 . S
C235 C231 1.429 . S
C235 C236 1.523 . S
C236 C220 1.368 . S
C236 C232 1.368 . S
C236 C235 1.523 . S
H237 C212 0.950 . S
H238 C214 0.950 . S
H239 C215 0.949 . S
H240 C217 0.950 . S
H241 C219 0.950 . S
C242 C243 1.349 . S
C242 C244 1.327 . S
C242 H267 0.950 . S
C243 C242 1.349 . S
C243 C259 1.349 . S
C244 C242 1.327 . S
C244 C263 1.429 . S
C244 H268 0.950 . S
C245 C262 1.574 . S
C245 C264 1.368 . S
C245 H269 0.949 . S
H246 C250 0.949 . S
C247 C248 1.349 . S
C247 C249 1.327 . S
C247 H270 0.950 . S
C248 C247 1.349 . S
C248 C260 1.349 . S
C249 C247 1.327 . S
C249 C265 1.429 . S
C249 H271 0.950 . S
C250 H246 0.949 . S
C250 C258 1.574 . S
C250 C266 1.368 . S
H251 C259 0.950 . S
H252 C257 0.950 . S
H253 C258 0.949 . S
H254 C260 0.950 . S
H255 C261 0.950 . S
H256 C262 0.949 . S
C257 H252 0.950 . S
C257 C259 1.327 . S
C257 C263 1.429 . S
C258 C250 1.574 . S
C258 H253 0.949 . S
C258 C264 1.368 . S
C259 C243 1.349 . S
C259 H251 0.950 . S
C259 C257 1.327 . S
C260 C248 1.349 . S
C260 H254 0.950 . S
C260 C261 1.327 . S
C261 H255 0.950 . S
C261 C260 1.327 . S
C261 C265 1.429 . S
C262 C245 1.574 . S
C262 H256 0.949 . S
C262 C266 1.368 . S
C263 C244 1.429 . S
C263 C257 1.429 . S
C263 C264 1.523 . S
C264 C245 1.368 . S
C264 C258 1.368 . S
C264 C263 1.523 . S
C265 C249 1.429 . S
C265 C261 1.429 . S
C265 C266 1.523 . S
C266 C250 1.368 . S
C266 C262 1.368 . S
C266 C265 1.523 . S
H267 C242 0.950 . S
H268 C244 0.950 . S
H269 C245 0.949 . S
H270 C247 0.950 . S
H271 C249 0.950 . S
C272 C273 1.349 . S
C272 C274 1.327 . S
C272 H297 0.950 . S
C273 C272 1.349 . S
C273 C289 1.349 . S
C274 C272 1.327 . S
C274 C293 1.429 . S
C274 H298 0.950 . S
C275 C292 1.574 . S
C275 C294 1.368 . S
C275 H299 0.949 . S
H276 C280 0.949 . S
C277 C278 1.349 . S
C277 C279 1.327 . S
C277 H300 0.950 . S
C278 C277 1.349 . S
C278 C290 1.349 . S
C279 C277 1.327 . S
C279 C295 1.429 . S
C279 H301 0.950 . S
C280 H276 0.949 . S
C280 C288 1.574 . S
C280 C296 1.368 . S
H281 C289 0.950 . S
H282 C287 0.950 . S
H283 C288 0.949 . S
H284 C290 0.950 . S
H285 C291 0.950 . S
H286 C292 0.949 . S
C287 H282 0.950 . S
C287 C289 1.327 . S
C287 C293 1.429 . S
C288 C280 1.574 . S
C288 H283 0.949 . S
C288 C294 1.368 . S
C289 C273 1.349 . S
C289 H281 0.950 . S
C289 C287 1.327 . S
C290 C278 1.349 . S
C290 H284 0.950 . S
C290 C291 1.327 . S
C291 H285 0.950 . S
C291 C290 1.327 . S
C291 C295 1.429 . S
C292 C275 1.574 . S
C292 H286 0.949 . S
C292 C296 1.368 . S
C293 C274 1.429 . S
C293 C287 1.429 . S
C293 C294 1.523 . S
C294 C275 1.368 . S
C294 C288 1.368 . S
C294 C293 1.523 . S
C295 C279 1.429 . S
C295 C291 1.429 . S
C295 C296 1.523 . S
C296 C280 1.368 . S
C296 C292 1.368 . S
C296 C295 1.523 . S
H297 C272 0.950 . S
H298 C274 0.950 . S
H299 C275 0.949 . S
H300 C277 0.950 . S
H301 C279 0.950 . S
C302 C303 1.349 . S
C302 C304 1.327 . S
C302 H327 0.950 . S
C303 C302 1.349 . S
C303 C319 1.349 . S
C304 C302 1.327 . S
C304 C323 1.429 . S
C304 H328 0.950 . S
C305 C322 1.574 . S
C305 C324 1.368 . S
C305 H329 0.949 . S
H306 C310 0.949 . S
C307 C308 1.349 . S
C307 C309 1.327 . S
C307 H330 0.950 . S
C308 C307 1.349 . S
C308 C320 1.349 . S
C309 C307 1.327 . S
C309 C325 1.429 . S
C309 H331 0.950 . S
C310 H306 0.949 . S
C310 C318 1.574 . S
C310 C326 1.368 . S
H311 C319 0.950 . S
H312 C317 0.950 . S
H313 C318 0.949 . S
H314 C320 0.950 . S
H315 C321 0.950 . S
H316 C322 0.949 . S
C317 H312 0.950 . S
C317 C319 1.327 . S
C317 C323 1.429 . S
C318 C310 1.574 . S
C318 H313 0.949 . S
C318 C324 1.368 . S
C319 C303 1.349 . S
C319 H311 0.950 . S
C319 C317 1.327 . S
C320 C308 1.349 . S
C320 H314 0.950 . S
C320 C321 1.327 . S
C321 H315 0.950 . S
C321 C320 1.327 . S
C321 C325 1.429 . S
C322 C305 1.574 . S
C322 H316 0.949 . S
C322 C326 1.368 . S
C323 C304 1.429 . S
C323 C317 1.429 . S
C323 C324 1.523 . S
C324 C305 1.368 . S
C324 C318 1.368 . S
C324 C323 1.523 . S
C325 C309 1.429 . S
C325 C321 1.429 . S
C325 C326 1.523 . S
C326 C310 1.368 . S
C326 C322 1.368 . S
C326 C325 1.523 . S
H327 C302 0.950 . S
H328 C304 0.950 . S
H329 C305 0.949 . S
H330 C307 0.950 . S
H331 C309 0.950 . S
C332 C333 1.349 . S
C332 C334 1.327 . S
C332 H357 0.950 . S
C333 C332 1.349 . S
C333 C349 1.349 . S
C334 C332 1.327 . S
C334 C353 1.429 . S
C334 H358 0.950 . S
C335 C352 1.574 . S
C335 C354 1.368 . S
C335 H359 0.949 . S
H336 C340 0.949 . S
C337 C338 1.349 . S
C337 C339 1.327 . S
C337 H360 0.950 . S
C338 C337 1.349 . S
C338 C350 1.349 . S
C339 C337 1.327 . S
C339 C355 1.429 . S
C339 H361 0.950 . S
C340 H336 0.949 . S
C340 C348 1.574 . S
C340 C356 1.368 . S
H341 C349 0.950 . S
H342 C347 0.950 . S
H343 C348 0.949 . S
H344 C350 0.950 . S
H345 C351 0.950 . S
H346 C352 0.949 . S
C347 H342 0.950 . S
C347 C349 1.327 . S
C347 C353 1.429 . S
C348 C340 1.574 . S
C348 H343 0.949 . S
C348 C354 1.368 . S
C349 C333 1.349 . S
C349 H341 0.950 . S
C349 C347 1.327 . S
C350 C338 1.349 . S
C350 H344 0.950 . S
C350 C351 1.327 . S
C351 H345 0.950 . S
C351 C350 1.327 . S
C351 C355 1.429 . S
C352 C335 1.574 . S
C352 H346 0.949 . S
C352 C356 1.368 . S
C353 C334 1.429 . S
C353 C347 1.429 . S
C353 C354 1.523 . S
C354 C335 1.368 . S
C354 C348 1.368 . S
C354 C353 1.523 . S
C355 C339 1.429 . S
C355 C351 1.429 . S
C355 C356 1.523 . S
C356 C340 1.368 . S
C356 C352 1.368 . S
C356 C355 1.523 . S
H357 C332 0.950 . S
H358 C334 0.950 . S
H359 C335 0.949 . S
H360 C337 0.950 . S
H361 C339 0.950 . S
C362 C363 1.349 . S
C362 C364 1.327 . S
C362 H387 0.950 . S
C363 C362 1.349 . S
C363 C379 1.349 . S
C364 C362 1.327 . S
C364 C383 1.429 . S
C364 H388 0.950 . S
C365 C382 1.574 . S
C365 C384 1.368 . S
C365 H389 0.949 . S
H366 C370 0.949 . S
C367 C368 1.349 . S
C367 C369 1.327 . S
C367 H390 0.950 . S
C368 C367 1.349 . S
C368 C380 1.349 . S
C369 C367 1.327 . S
C369 C385 1.429 . S
C369 H391 0.950 . S
C370 H366 0.949 . S
C370 C378 1.574 . S
C370 C386 1.368 . S
H371 C379 0.950 . S
H372 C377 0.950 . S
H373 C378 0.949 . S
H374 C380 0.950 . S
H375 C381 0.950 . S
H376 C382 0.949 . S
C377 H372 0.950 . S
C377 C379 1.327 . S
C377 C383 1.429 . S
C378 C370 1.574 . S
C378 H373 0.949 . S
C378 C384 1.368 . S
C379 C363 1.349 . S
C379 H371 0.950 . S
C379 C377 1.327 . S
C380 C368 1.349 . S
C380 H374 0.950 . S
C380 C381 1.327 . S
C381 H375 0.950 . S
C381 C380 1.327 . S
C381 C385 1.429 . S
C382 C365 1.574 . S
C382 H376 0.949 . S
C382 C386 1.368 . S
C383 C364 1.429 . S
C383 C377 1.429 . S
C383 C384 1.523 . S
C384 C365 1.368 . S
C384 C378 1.368 . S
C384 C383 1.523 . S
C385 C369 1.429 . S
C385 C381 1.429 . S
C385 C386 1.523 . S
C386 C370 1.368 . S
C386 C382 1.368 . S
C386 C385 1.523 . S
H387 C362 0.950 . S
H388 C364 0.950 . S
H389 C365 0.949 . S
H390 C367 0.950 . S
H391 C369 0.950 . S
C392 C393 1.349 . S
C392 C394 1.327 . S
C392 H417 0.950 . S
C393 C392 1.349 . S
C393 C409 1.349 . S
C394 C392 1.327 . S
C394 C413 1.429 . S
C394 H418 0.950 . S
C395 C412 1.574 . S
C395 C414 1.368 . S
C395 H419 0.949 . S
H396 C400 0.949 . S
C397 C398 1.349 . S
C397 C399 1.327 . S
C397 H420 0.950 . S
C398 C397 1.349 . S
C398 C410 1.349 . S
C399 C397 1.327 . S
C399 C415 1.429 . S
C399 H421 0.950 . S
C400 H396 0.949 . S
C400 C408 1.574 . S
C400 C416 1.368 . S
H401 C409 0.950 . S
H402 C407 0.950 . S
H403 C408 0.949 . S
H404 C410 0.950 . S
H405 C411 0.950 . S
H406 C412 0.949 . S
C407 H402 0.950 . S
C407 C409 1.327 . S
C407 C413 1.429 . S
C408 C400 1.574 . S
C408 H403 0.949 . S
C408 C414 1.368 . S
C409 C393 1.349 . S
C409 H401 0.950 . S
C409 C407 1.327 . S
C410 C398 1.349 . S
C410 H404 0.950 . S
C410 C411 1.327 . S
C411 H405 0.950 . S
C411 C410 1.327 . S
C411 C415 1.429 . S
C412 C395 1.574 . S
C412 H406 0.949 . S
C412 C416 1.368 . S
C413 C394 1.429 . S
C413 C407 1.429 . S
C413 C414 1.523 . S
C414 C395 1.368 . S
C414 C408 1.368 . S
C414 C413 1.523 . S
C415 C399 1.429 . S
C415 C411 1.429 . S
C415 C416 1.523 . S
C416 C400 1.368 . S
C416 C412 1.368 . S
C416 C415 1.523 . S
H417 C392 0.950 . S
H418 C394 0.950 . S
H419 C395 0.949 . S
H420 C397 0.950 . S
H421 C399 0.950 . S
C422 C423 1.349 . S
C422 C424 1.327 . S
C422 H447 0.950 . S
C423 C422 1.349 . S
C423 C439 1.349 . S
C424 C422 1.327 . S
C424 C443 1.429 . S
C424 H448 0.950 . S
C425 C442 1.574 . S
C425 C444 1.368 . S
C425 H449 0.949 . S
H426 C430 0.949 . S
C427 C428 1.349 . S
C427 C429 1.327 . S
C427 H450 0.950 . S
C428 C427 1.349 . S
C428 C440 1.349 . S
C429 C427 1.327 . S
C429 C445 1.429 . S
C429 H451 0.950 . S
C430 H426 0.949 . S
C430 C438 1.574 . S
C430 C446 1.368 . S
H431 C439 0.950 1_545 S
H432 C437 0.950 . S
H433 C438 0.949 . S
H434 C440 0.950 . S
H435 C441 0.950 . S
H436 C442 0.949 . S
C437 H432 0.950 . S
C437 C439 1.327 . S
C437 C443 1.429 . S
C438 C430 1.574 . S
C438 H433 0.949 . S
C438 C444 1.368 . S
C439 C423 1.349 . S
C439 H431 0.950 1_565 S
C439 C437 1.327 . S
C440 C428 1.349 . S
C440 H434 0.950 . S
C440 C441 1.327 . S
C441 H435 0.950 . S
C441 C440 1.327 . S
C441 C445 1.429 . S
C442 C425 1.574 . S
C442 H436 0.949 . S
C442 C446 1.368 . S
C443 C424 1.429 . S
C443 C437 1.429 . S
C443 C444 1.523 . S
C444 C425 1.368 . S
C444 C438 1.368 . S
C444 C443 1.523 . S
C445 C429 1.429 . S
C445 C441 1.429 . S
C445 C446 1.523 . S
C446 C430 1.368 . S
C446 C442 1.368 . S
C446 C445 1.523 . S
H447 C422 0.950 . S
H448 C424 0.950 . S
H449 C425 0.949 . S
H450 C427 0.950 . S
H451 C429 0.950 . S
C452 C453 1.349 . S
C452 C454 1.327 . S
C452 H477 0.950 1_655 S
C453 C452 1.349 . S
C453 C469 1.349 . S
C454 C452 1.327 . S
C454 C473 1.429 . S
C454 H478 0.950 . S
C455 C472 1.574 . S
C455 C474 1.368 . S
C455 H479 0.949 . S
H456 C460 0.949 . S
C457 C458 1.349 . S
C457 C459 1.327 . S
C457 H480 0.950 . S
C458 C457 1.349 . S
C458 C470 1.349 . S
C459 C457 1.327 . S
C459 C475 1.429 . S
C459 H481 0.950 . S
C460 H456 0.949 . S
C460 C468 1.574 . S
C460 C476 1.368 . S
H461 C469 0.950 . S
H462 C467 0.950 . S
H463 C468 0.949 . S
H464 C470 0.950 . S
H465 C471 0.950 . S
H466 C472 0.949 . S
C467 H462 0.950 . S
C467 C469 1.327 . S
C467 C473 1.429 . S
C468 C460 1.574 . S
C468 H463 0.949 . S
C468 C474 1.368 . S
C469 C453 1.349 . S
C469 H461 0.950 . S
C469 C467 1.327 . S
C470 C458 1.349 . S
C470 H464 0.950 . S
C470 C471 1.327 . S
C471 H465 0.950 . S
C471 C470 1.327 . S
C471 C475 1.429 . S
C472 C455 1.574 . S
C472 H466 0.949 . S
C472 C476 1.368 . S
C473 C454 1.429 . S
C473 C467 1.429 . S
C473 C474 1.523 . S
C474 C455 1.368 . S
C474 C468 1.368 . S
C474 C473 1.523 . S
C475 C459 1.429 . S
C475 C471 1.429 . S
C475 C476 1.523 . S
C476 C460 1.368 . S
C476 C472 1.368 . S
C476 C475 1.523 . S
H477 C452 0.950 1_455 S
H478 C454 0.950 . S
H479 C455 0.949 . S
H480 C457 0.950 . S
H481 C459 0.950 . S
C123 C26 1.324 . S
C128 C99 1.258 . S
C153 C43 1.196 . S
C158 C105 1.091 . S
C183 C22 1.302 . S
C188 C96 1.201 . S
C213 C49 1.366 . S
C218 C121 1.292 . S
C243 C15 1.881 . S
C248 C87 1.733 . S
C278 C104 1.843 . S
C273 C42 1.966 . S
C303 C66 1.324 . S
C308 C100 1.258 . S
C338 C117 1.843 . S
C333 C2 1.966 . S
C368 C84 1.733 . S
C363 C55 1.881 . S
C398 C120 1.292 . S
C393 C9 1.366 . S
C428 C83 1.201 . S
C423 C62 1.302 . S
C458 C108 1.091 . S
C453 C3 1.196 . S
