# Generated by pormake.
# Topology gar, (4,6)-cn, num edge types: 1
# Building blocks:
#     Node 0, Type 0, BuildingBlock: KUFVIS_clean_sbu_0, # of connection points: 4
#     Node 1, Type 0, BuildingBlock: KUFVIS_clean_sbu_0, # of connection points: 4
#     Node 2, Type 0, BuildingBlock: KUFVIS_clean_sbu_0, # of connection points: 4
#     Node 3, Type 0, BuildingBlock: KUFVIS_clean_sbu_0, # of connection points: 4
#     Node 4, Type 0, BuildingBlock: KUFVIS_clean_sbu_0, # of connection points: 4
#     Node 5, Type 0, BuildingBlock: KUFVIS_clean_sbu_0, # of connection points: 4
#     Node 6, Type 0, BuildingBlock: KUFVIS_clean_sbu_0, # of connection points: 4
#     Node 7, Type 0, BuildingBlock: KUFVIS_clean_sbu_0, # of connection points: 4
#     Node 8, Type 0, BuildingBlock: KUFVIS_clean_sbu_0, # of connection points: 4
#     Node 9, Type 0, BuildingBlock: KUFVIS_clean_sbu_0, # of connection points: 4
#     Node 10, Type 0, BuildingBlock: KUFVIS_clean_sbu_0, # of connection points: 4
#     Node 11, Type 0, BuildingBlock: KUFVIS_clean_sbu_0, # of connection points: 4
#     Node 12, Type 0, BuildingBlock: KUFVIS_clean_sbu_0, # of connection points: 4
#     Node 13, Type 0, BuildingBlock: KUFVIS_clean_sbu_0, # of connection points: 4
#     Node 14, Type 0, BuildingBlock: KUFVIS_clean_sbu_0, # of connection points: 4
#     Node 15, Type 0, BuildingBlock: KUFVIS_clean_sbu_0, # of connection points: 4
#     Node 16, Type 0, BuildingBlock: KUFVIS_clean_sbu_0, # of connection points: 4
#     Node 17, Type 0, BuildingBlock: KUFVIS_clean_sbu_0, # of connection points: 4
#     Node 18, Type 0, BuildingBlock: KUFVIS_clean_sbu_0, # of connection points: 4
#     Node 19, Type 0, BuildingBlock: KUFVIS_clean_sbu_0, # of connection points: 4
#     Node 20, Type 0, BuildingBlock: KUFVIS_clean_sbu_0, # of connection points: 4
#     Node 21, Type 0, BuildingBlock: KUFVIS_clean_sbu_0, # of connection points: 4
#     Node 22, Type 0, BuildingBlock: KUFVIS_clean_sbu_0, # of connection points: 4
#     Node 23, Type 0, BuildingBlock: KUFVIS_clean_sbu_0, # of connection points: 4
#     Node 24, Type 1, BuildingBlock: CUKXOW_clean_sbu_0, # of connection points: 6
#     Node 25, Type 1, BuildingBlock: CUKXOW_clean_sbu_0, # of connection points: 6
#     Node 26, Type 1, BuildingBlock: CUKXOW_clean_sbu_0, # of connection points: 6
#     Node 27, Type 1, BuildingBlock: CUKXOW_clean_sbu_0, # of connection points: 6
#     Node 28, Type 1, BuildingBlock: CUKXOW_clean_sbu_0, # of connection points: 6
#     Node 29, Type 1, BuildingBlock: CUKXOW_clean_sbu_0, # of connection points: 6
#     Node 30, Type 1, BuildingBlock: CUKXOW_clean_sbu_0, # of connection points: 6
#     Node 31, Type 1, BuildingBlock: CUKXOW_clean_sbu_0, # of connection points: 6
#     Node 32, Type 1, BuildingBlock: CUKXOW_clean_sbu_0, # of connection points: 6
#     Node 33, Type 1, BuildingBlock: CUKXOW_clean_sbu_0, # of connection points: 6
#     Node 34, Type 1, BuildingBlock: CUKXOW_clean_sbu_0, # of connection points: 6
#     Node 35, Type 1, BuildingBlock: CUKXOW_clean_sbu_0, # of connection points: 6
#     Node 36, Type 1, BuildingBlock: CUKXOW_clean_sbu_0, # of connection points: 6
#     Node 37, Type 1, BuildingBlock: CUKXOW_clean_sbu_0, # of connection points: 6
#     Node 38, Type 1, BuildingBlock: CUKXOW_clean_sbu_0, # of connection points: 6
#     Node 39, Type 1, BuildingBlock: CUKXOW_clean_sbu_0, # of connection points: 6
#     Edge 40, Type (0, 1), BuildingBlock: ZUJKAS_clean_linker_0, # of connection points: 2
#     Edge 41, Type (0, 1), BuildingBlock: ZUJKAS_clean_linker_0, # of connection points: 2
#     Edge 42, Type (0, 1), BuildingBlock: ZUJKAS_clean_linker_0, # of connection points: 2
#     Edge 43, Type (0, 1), BuildingBlock: ZUJKAS_clean_linker_0, # of connection points: 2
#     Edge 44, Type (0, 1), BuildingBlock: ZUJKAS_clean_linker_0, # of connection points: 2
#     Edge 45, Type (0, 1), BuildingBlock: ZUJKAS_clean_linker_0, # of connection points: 2
#     Edge 46, Type (0, 1), BuildingBlock: ZUJKAS_clean_linker_0, # of connection points: 2
#     Edge 47, Type (0, 1), BuildingBlock: ZUJKAS_clean_linker_0, # of connection points: 2
#     Edge 48, Type (0, 1), BuildingBlock: ZUJKAS_clean_linker_0, # of connection points: 2
#     Edge 49, Type (0, 1), BuildingBlock: ZUJKAS_clean_linker_0, # of connection points: 2
#     Edge 50, Type (0, 1), BuildingBlock: ZUJKAS_clean_linker_0, # of connection points: 2
#     Edge 51, Type (0, 1), BuildingBlock: ZUJKAS_clean_linker_0, # of connection points: 2
#     Edge 52, Type (0, 1), BuildingBlock: ZUJKAS_clean_linker_0, # of connection points: 2
#     Edge 53, Type (0, 1), BuildingBlock: ZUJKAS_clean_linker_0, # of connection points: 2
#     Edge 54, Type (0, 1), BuildingBlock: ZUJKAS_clean_linker_0, # of connection points: 2
#     Edge 55, Type (0, 1), BuildingBlock: ZUJKAS_clean_linker_0, # of connection points: 2
#     Edge 56, Type (0, 1), BuildingBlock: ZUJKAS_clean_linker_0, # of connection points: 2
#     Edge 57, Type (0, 1), BuildingBlock: ZUJKAS_clean_linker_0, # of connection points: 2
#     Edge 58, Type (0, 1), BuildingBlock: ZUJKAS_clean_linker_0, # of connection points: 2
#     Edge 59, Type (0, 1), BuildingBlock: ZUJKAS_clean_linker_0, # of connection points: 2
#     Edge 60, Type (0, 1), BuildingBlock: ZUJKAS_clean_linker_0, # of connection points: 2
#     Edge 61, Type (0, 1), BuildingBlock: ZUJKAS_clean_linker_0, # of connection points: 2
#     Edge 62, Type (0, 1), BuildingBlock: ZUJKAS_clean_linker_0, # of connection points: 2
#     Edge 63, Type (0, 1), BuildingBlock: ZUJKAS_clean_linker_0, # of connection points: 2
#     Edge 64, Type (0, 1), BuildingBlock: ZUJKAS_clean_linker_0, # of connection points: 2
#     Edge 65, Type (0, 1), BuildingBlock: ZUJKAS_clean_linker_0, # of connection points: 2
#     Edge 66, Type (0, 1), BuildingBlock: ZUJKAS_clean_linker_0, # of connection points: 2
#     Edge 67, Type (0, 1), BuildingBlock: ZUJKAS_clean_linker_0, # of connection points: 2
#     Edge 68, Type (0, 1), BuildingBlock: ZUJKAS_clean_linker_0, # of connection points: 2
#     Edge 69, Type (0, 1), BuildingBlock: ZUJKAS_clean_linker_0, # of connection points: 2
#     Edge 70, Type (0, 1), BuildingBlock: ZUJKAS_clean_linker_0, # of connection points: 2
#     Edge 71, Type (0, 1), BuildingBlock: ZUJKAS_clean_linker_0, # of connection points: 2
#     Edge 72, Type (0, 1), BuildingBlock: ZUJKAS_clean_linker_0, # of connection points: 2
#     Edge 73, Type (0, 1), BuildingBlock: ZUJKAS_clean_linker_0, # of connection points: 2
#     Edge 74, Type (0, 1), BuildingBlock: ZUJKAS_clean_linker_0, # of connection points: 2
#     Edge 75, Type (0, 1), BuildingBlock: ZUJKAS_clean_linker_0, # of connection points: 2
#     Edge 76, Type (0, 1), BuildingBlock: ZUJKAS_clean_linker_0, # of connection points: 2
#     Edge 77, Type (0, 1), BuildingBlock: ZUJKAS_clean_linker_0, # of connection points: 2
#     Edge 78, Type (0, 1), BuildingBlock: ZUJKAS_clean_linker_0, # of connection points: 2
#     Edge 79, Type (0, 1), BuildingBlock: ZUJKAS_clean_linker_0, # of connection points: 2
#     Edge 80, Type (0, 1), BuildingBlock: ZUJKAS_clean_linker_0, # of connection points: 2
#     Edge 81, Type (0, 1), BuildingBlock: ZUJKAS_clean_linker_0, # of connection points: 2
#     Edge 82, Type (0, 1), BuildingBlock: ZUJKAS_clean_linker_0, # of connection points: 2
#     Edge 83, Type (0, 1), BuildingBlock: ZUJKAS_clean_linker_0, # of connection points: 2
#     Edge 84, Type (0, 1), BuildingBlock: ZUJKAS_clean_linker_0, # of connection points: 2
#     Edge 85, Type (0, 1), BuildingBlock: ZUJKAS_clean_linker_0, # of connection points: 2
#     Edge 86, Type (0, 1), BuildingBlock: ZUJKAS_clean_linker_0, # of connection points: 2
#     Edge 87, Type (0, 1), BuildingBlock: ZUJKAS_clean_linker_0, # of connection points: 2
#     Edge 88, Type (0, 1), BuildingBlock: ZUJKAS_clean_linker_0, # of connection points: 2
#     Edge 89, Type (0, 1), BuildingBlock: ZUJKAS_clean_linker_0, # of connection points: 2
#     Edge 90, Type (0, 1), BuildingBlock: ZUJKAS_clean_linker_0, # of connection points: 2
#     Edge 91, Type (0, 1), BuildingBlock: ZUJKAS_clean_linker_0, # of connection points: 2
#     Edge 92, Type (0, 1), BuildingBlock: ZUJKAS_clean_linker_0, # of connection points: 2
#     Edge 93, Type (0, 1), BuildingBlock: ZUJKAS_clean_linker_0, # of connection points: 2
#     Edge 94, Type (0, 1), BuildingBlock: ZUJKAS_clean_linker_0, # of connection points: 2
#     Edge 95, Type (0, 1), BuildingBlock: ZUJKAS_clean_linker_0, # of connection points: 2
#     Edge 96, Type (0, 1), BuildingBlock: ZUJKAS_clean_linker_0, # of connection points: 2
#     Edge 97, Type (0, 1), BuildingBlock: ZUJKAS_clean_linker_0, # of connection points: 2
#     Edge 98, Type (0, 1), BuildingBlock: ZUJKAS_clean_linker_0, # of connection points: 2
#     Edge 99, Type (0, 1), BuildingBlock: ZUJKAS_clean_linker_0, # of connection points: 2
#     Edge 100, Type (0, 1), BuildingBlock: ZUJKAS_clean_linker_0, # of connection points: 2
#     Edge 101, Type (0, 1), BuildingBlock: ZUJKAS_clean_linker_0, # of connection points: 2
#     Edge 102, Type (0, 1), BuildingBlock: ZUJKAS_clean_linker_0, # of connection points: 2
#     Edge 103, Type (0, 1), BuildingBlock: ZUJKAS_clean_linker_0, # of connection points: 2
#     Edge 104, Type (0, 1), BuildingBlock: ZUJKAS_clean_linker_0, # of connection points: 2
#     Edge 105, Type (0, 1), BuildingBlock: ZUJKAS_clean_linker_0, # of connection points: 2
#     Edge 106, Type (0, 1), BuildingBlock: ZUJKAS_clean_linker_0, # of connection points: 2
#     Edge 107, Type (0, 1), BuildingBlock: ZUJKAS_clean_linker_0, # of connection points: 2
#     Edge 108, Type (0, 1), BuildingBlock: ZUJKAS_clean_linker_0, # of connection points: 2
#     Edge 109, Type (0, 1), BuildingBlock: ZUJKAS_clean_linker_0, # of connection points: 2
#     Edge 110, Type (0, 1), BuildingBlock: ZUJKAS_clean_linker_0, # of connection points: 2
#     Edge 111, Type (0, 1), BuildingBlock: ZUJKAS_clean_linker_0, # of connection points: 2
#     Edge 112, Type (0, 1), BuildingBlock: ZUJKAS_clean_linker_0, # of connection points: 2
#     Edge 113, Type (0, 1), BuildingBlock: ZUJKAS_clean_linker_0, # of connection points: 2
#     Edge 114, Type (0, 1), BuildingBlock: ZUJKAS_clean_linker_0, # of connection points: 2
#     Edge 115, Type (0, 1), BuildingBlock: ZUJKAS_clean_linker_0, # of connection points: 2
#     Edge 116, Type (0, 1), BuildingBlock: ZUJKAS_clean_linker_0, # of connection points: 2
#     Edge 117, Type (0, 1), BuildingBlock: ZUJKAS_clean_linker_0, # of connection points: 2
#     Edge 118, Type (0, 1), BuildingBlock: ZUJKAS_clean_linker_0, # of connection points: 2
#     Edge 119, Type (0, 1), BuildingBlock: ZUJKAS_clean_linker_0, # of connection points: 2
#     Edge 120, Type (0, 1), BuildingBlock: ZUJKAS_clean_linker_0, # of connection points: 2
#     Edge 121, Type (0, 1), BuildingBlock: ZUJKAS_clean_linker_0, # of connection points: 2
#     Edge 122, Type (0, 1), BuildingBlock: ZUJKAS_clean_linker_0, # of connection points: 2
#     Edge 123, Type (0, 1), BuildingBlock: ZUJKAS_clean_linker_0, # of connection points: 2
#     Edge 124, Type (0, 1), BuildingBlock: ZUJKAS_clean_linker_0, # of connection points: 2
#     Edge 125, Type (0, 1), BuildingBlock: ZUJKAS_clean_linker_0, # of connection points: 2
#     Edge 126, Type (0, 1), BuildingBlock: ZUJKAS_clean_linker_0, # of connection points: 2
#     Edge 127, Type (0, 1), BuildingBlock: ZUJKAS_clean_linker_0, # of connection points: 2
#     Edge 128, Type (0, 1), BuildingBlock: ZUJKAS_clean_linker_0, # of connection points: 2
#     Edge 129, Type (0, 1), BuildingBlock: ZUJKAS_clean_linker_0, # of connection points: 2
#     Edge 130, Type (0, 1), BuildingBlock: ZUJKAS_clean_linker_0, # of connection points: 2
#     Edge 131, Type (0, 1), BuildingBlock: ZUJKAS_clean_linker_0, # of connection points: 2
#     Edge 132, Type (0, 1), BuildingBlock: ZUJKAS_clean_linker_0, # of connection points: 2
#     Edge 133, Type (0, 1), BuildingBlock: ZUJKAS_clean_linker_0, # of connection points: 2
#     Edge 134, Type (0, 1), BuildingBlock: ZUJKAS_clean_linker_0, # of connection points: 2
#     Edge 135, Type (0, 1), BuildingBlock: ZUJKAS_clean_linker_0, # of connection points: 2
# Relax obj value: 0.100
# Max RMSD: 0.215
# Mean RMSD: 0.116
data_MOF--net-gar--node1-KUFVIS_clean_sbu_0--node2-CUKXOW_clean_sbu_0--edge1-ZUJKAS_clean_linker_0
_symmetry_space_group_name_H-M    P1
_symmetry_Int_Tables_number       1
_symmetry_cell_setting            triclinic
loop_
_symmetry_equiv_pos_as_xyz
'x, y, z'
_cell_length_a     70.185585
_cell_length_b     68.892597
_cell_length_c     70.698435
_cell_angle_alpha  93.462306
_cell_angle_beta   95.408984
_cell_angle_gamma 99.348488
loop_
_atom_site_label
_atom_site_type_symbol
_atom_site_fract_x
_atom_site_fract_y
_atom_site_fract_z
_atom_type_partial_charge
Mn0 Mn 0.025 0.27881 0.41887 0.0
Mn1 Mn 0.03097 0.30755 0.38216 0.0
C2 C 0.9984 0.28541 0.40004 0.0
C3 C 0.02212 0.24843 0.432 0.0
C4 C 0.03516 0.32399 0.42319 0.0
O5 O 0.05308 0.27818 0.41444 0.0
O6 O 0.05539 0.29793 0.39019 0.0
C7 C 0.03719 0.27703 0.3531 0.0
N8 N 0.02714 0.2913 0.35879 0.0
C9 C 0.00885 0.28894 0.32796 0.0
C10 C 0.019 0.27423 0.32176 0.0
C11 C 0.03312 0.26814 0.33444 0.0
C12 C 0.01317 0.29688 0.34687 0.0
H13 H 0.04832 0.27258 0.36267 0.0
C14 C 0.06255 0.28696 0.40198 0.0
O15 O 0.02774 0.26487 0.44246 0.0
O16 O 0.01846 0.2496 0.4138 0.0
N17 N 0.00847 0.31771 0.37254 0.0
C18 C 0.99959 0.33165 0.38092 0.0
C19 C 0.98474 0.33896 0.37031 0.0
C20 C 0.97956 0.33229 0.35105 0.0
C21 C 0.98911 0.31816 0.34267 0.0
C22 C 0.0034 0.31099 0.3541 0.0
H23 H 0.00373 0.33705 0.39562 0.0
O24 O 0.99674 0.28039 0.41729 0.0
O25 O 0.01552 0.28645 0.39429 0.0
O26 O 0.03212 0.30738 0.43036 0.0
O27 O 0.03481 0.32577 0.40531 0.0
C28 C 0.9852 0.31108 0.32335 0.0
C29 C 0.99484 0.29626 0.31606 0.0
H30 H 0.01612 0.26756 0.30728 0.0
H31 H 0.04104 0.25682 0.32975 0.0
H32 H 0.97747 0.3499 0.37688 0.0
H33 H 0.96828 0.33816 0.34283 0.0
H34 H 0.97441 0.31655 0.31408 0.0
H35 H 0.99136 0.2906 0.3013 0.0
Mn36 Mn 0.99979 0.79597 0.61668 0.0
Mn37 Mn 0.01624 0.82684 0.65586 0.0
C38 C 0.03024 0.79617 0.63222 0.0
C39 C 0.9843 0.7657 0.60175 0.0
C40 C 0.01495 0.84023 0.61596 0.0
O41 O 0.97484 0.80362 0.62497 0.0
O42 O 0.98765 0.82394 0.65091 0.0
C43 C 0.99862 0.80201 0.68453 0.0
N44 N 0.01461 0.81226 0.67796 0.0
C45 C 0.03525 0.80557 0.70509 0.0
C46 C 0.019 0.79499 0.71218 0.0
C47 C 1.00062 0.79311 0.7018 0.0
C48 C 0.0324 0.81388 0.68768 0.0
H49 H 0.98445 0.80068 0.67667 0.0
C50 C 0.97326 0.81529 0.63927 0.0
O51 O 0.98621 0.78159 0.59264 0.0
O52 O 0.99041 0.76765 0.61978 0.0
N53 N 0.04374 0.83094 0.66244 0.0
C54 C 0.058 0.84118 0.65337 0.0
C55 C 0.07732 0.84403 0.66168 0.0
C56 C 0.08172 0.83669 0.67939 0.0
C57 C 0.06674 0.82652 0.68861 0.0
C58 C 0.0478 0.82392 0.67954 0.0
H59 H 0.05466 0.84708 0.63988 0.0
O60 O 0.02638 0.78981 0.6144 0.0
O61 O 0.0163 0.80237 0.64034 0.0
O62 O 0.00766 0.82344 0.60747 0.0
O63 O 0.01887 0.84309 0.634 0.0
C64 C 0.06985 0.8189 0.70647 0.0
C65 C 0.05416 0.80824 0.71461 0.0
H66 H 0.02046 0.78822 0.72556 0.0
H67 H 0.98801 0.78495 0.70717 0.0
H68 H 0.08878 0.85197 0.65451 0.0
H69 H 0.09663 0.83897 0.68579 0.0
H70 H 0.08432 0.8209 0.71394 0.0
H71 H 0.05681 0.80213 0.72818 0.0
Mn72 Mn 0.52501 0.77613 0.92139 0.0
Mn73 Mn 0.52815 0.80499 0.88447 0.0
C74 C 0.49725 0.78339 0.90533 0.0
C75 C 0.52334 0.74549 0.93367 0.0
C76 C 0.53787 0.82073 0.92583 0.0
O77 O 0.55225 0.77535 0.9142 0.0
O78 O 0.55171 0.79259 0.88798 0.0
C79 C 0.52666 0.77454 0.8527 0.0
N80 N 0.51927 0.7897 0.86089 0.0
C81 C 0.49473 0.78797 0.83438 0.0
C82 C 0.50214 0.7724 0.82562 0.0
C83 C 0.51814 0.76563 0.83485 0.0
C84 C 0.50387 0.79633 0.85214 0.0
H85 H 0.53895 0.76928 0.85974 0.0
C86 C 0.55978 0.78222 0.89976 0.0
O87 O 0.52987 0.76169 0.94426 0.0
O88 O 0.51797 0.74707 0.91582 0.0
N89 N 0.50594 0.81751 0.87945 0.0
C90 C 0.49979 0.83177 0.89037 0.0
C91 C 0.48353 0.83972 0.88345 0.0
C92 C 0.47384 0.83302 0.86537 0.0
C93 C 0.48047 0.81837 0.85437 0.0
C94 C 0.49684 0.8111 0.86195 0.0
H95 H 0.50718 0.83702 0.90426 0.0
O96 O 0.497 0.77794 0.92258 0.0
O97 O 0.51366 0.78444 0.89809 0.0
O98 O 0.53313 0.80437 0.93303 0.0
O99 O 0.53722 0.82241 0.90791 0.0
C100 C 0.47129 0.81047 0.83633 0.0
C101 C 0.47839 0.79525 0.82636 0.0
H102 H 0.49555 0.76542 0.8119 0.0
H103 H 0.52389 0.75356 0.82822 0.0
H104 H 0.47846 0.85098 0.89205 0.0
H105 H 0.46125 0.83913 0.86013 0.0
H106 H 0.45858 0.81577 0.83013 0.0
H107 H 0.47101 0.78907 0.81265 0.0
Mn108 Mn 0.49652 0.28873 0.11584 0.0
Mn109 Mn 0.46305 0.28188 0.07743 0.0
C110 C 0.48514 0.25748 0.10191 0.0
C111 C 0.52812 0.29577 0.13023 0.0
C112 C 0.45358 0.29041 0.11757 0.0
O113 O 0.49813 0.3161 0.10641 0.0
O114 O 0.47674 0.30969 0.08 0.0
C115 C 0.4895 0.28717 0.04721 0.0
N116 N 0.47508 0.27581 0.05516 0.0
C117 C 0.4732 0.24947 0.03073 0.0
C118 C 0.48794 0.26094 0.02222 0.0
C119 C 0.49614 0.27986 0.03052 0.0
C120 C 0.46709 0.25758 0.04729 0.0
H121 H 0.4959 0.30168 0.05359 0.0
C122 C 0.48937 0.32141 0.09145 0.0
O123 O 0.51361 0.29925 0.13919 0.0
O124 O 0.52437 0.2885 0.11262 0.0
N125 N 0.449 0.25548 0.07326 0.0
C126 C 0.43568 0.2459 0.08382 0.0
C127 C 0.42648 0.22658 0.07775 0.0
C128 C 0.43099 0.21735 0.06087 0.0
C129 C 0.44462 0.22756 0.05016 0.0
C130 C 0.4532 0.24685 0.05683 0.0
H131 H 0.4322 0.2529 0.09683 0.0
O132 O 0.49282 0.25994 0.11951 0.0
O133 O 0.48444 0.27336 0.09303 0.0
O134 O 0.47062 0.29066 0.12549 0.0
O135 O 0.449 0.28769 0.09959 0.0
C136 C 0.4503 0.21923 0.03333 0.0
C137 C 0.4646 0.23016 0.02364 0.0
H138 H 0.49319 0.25531 0.00941 0.0
H139 H 0.50759 0.28876 0.02409 0.0
H140 H 0.416 0.21878 0.08612 0.0
H141 H 0.424 0.20237 0.05635 0.0
H142 H 0.44395 0.20433 0.02785 0.0
H143 H 0.46904 0.22349 0.01087 0.0
Mn144 Mn 0.99321 0.76456 0.15569 0.0
Mn145 Mn 0.95891 0.7524 0.11815 0.0
C146 C 0.98614 0.73237 0.14164 0.0
C147 C 0.02539 0.77563 0.16887 0.0
C148 C 0.94933 0.7598 0.15868 0.0
O149 O 0.99054 0.79137 0.14559 0.0
O150 O 0.96878 0.78114 0.11992 0.0
C151 C 0.98323 0.76117 0.08669 0.0
N152 N 0.97074 0.74818 0.09533 0.0
C153 C 0.97029 0.72269 0.07039 0.0
C154 C 0.98311 0.73581 0.06119 0.0
C155 C 0.98965 0.75511 0.06941 0.0
C156 C 0.96443 0.72955 0.0876 0.0
H157 H 0.98825 0.77603 0.09294 0.0
C158 C 0.98027 0.79469 0.13055 0.0
O159 O 0.0108 0.77718 0.17851 0.0
O160 O 0.02129 0.76819 0.15136 0.0
N161 N 0.94844 0.72486 0.11476 0.0
C162 C 0.93704 0.71373 0.12602 0.0
C163 C 0.92947 0.69397 0.11999 0.0
C164 C 0.93358 0.68591 0.10241 0.0
C165 C 0.9455 0.6976 0.09114 0.0
C166 C 0.95253 0.71722 0.09784 0.0
H167 H 0.93367 0.71992 0.13945 0.0
O168 O 0.99383 0.73586 0.1592 0.0
O169 O 0.98241 0.7477 0.13315 0.0
O170 O 0.96682 0.76285 0.16645 0.0
O171 O 0.94491 0.75605 0.14076 0.0
C172 C 0.95079 0.69052 0.0736 0.0
C173 C 0.96329 0.70301 0.0633 0.0
H174 H 0.98812 0.73119 0.04788 0.0
H175 H 0.99959 0.7653 0.06243 0.0
H176 H 0.92037 0.685 0.1288 0.0
H177 H 0.9276 0.67068 0.09777 0.0
H178 H 0.94553 0.67542 0.06799 0.0
H179 H 0.96751 0.6973 0.05 0.0
Mn180 Mn 0.52065 0.78876 0.37795 0.0
Mn181 Mn 0.51354 0.81597 0.34043 0.0
C182 C 0.48937 0.78924 0.36418 0.0
C183 C 0.52654 0.76027 0.39219 0.0
C184 C 0.52238 0.83374 0.38115 0.0
O185 O 0.54744 0.79344 0.36825 0.0
O186 O 0.54094 0.81127 0.3435 0.0
C187 C 0.51877 0.78668 0.30973 0.0
N188 N 0.50776 0.79901 0.31748 0.0
C189 C 0.4827 0.7906 0.29125 0.0
C190 C 0.49383 0.77791 0.28293 0.0
C191 C 0.51191 0.7759 0.29225 0.0
C192 C 0.4903 0.80098 0.30868 0.0
H193 H 0.53267 0.78508 0.31684 0.0
C194 C 0.55252 0.80272 0.35393 0.0
O195 O 0.53106 0.7776 0.40117 0.0
O196 O 0.51909 0.75943 0.37454 0.0
N197 N 0.48778 0.82156 0.33534 0.0
C198 C 0.47837 0.83357 0.34575 0.0
C199 C 0.45992 0.83687 0.33858 0.0
C200 C 0.4514 0.82794 0.32074 0.0
C201 C 0.46139 0.81572 0.31024 0.0
C202 C 0.47982 0.81311 0.31804 0.0
H203 H 0.48485 0.84052 0.35945 0.0
O204 O 0.49243 0.78479 0.38166 0.0
O205 O 0.5047 0.79332 0.35514 0.0
O206 O 0.52388 0.81755 0.38845 0.0
O207 O 0.51876 0.83492 0.36326 0.0
C208 C 0.45362 0.80572 0.29253 0.0
C209 C 0.46424 0.79312 0.28307 0.0
H210 H 0.48857 0.76952 0.26947 0.0
H211 H 0.52054 0.76607 0.28596 0.0
H212 H 0.45226 0.84626 0.3468 0.0
H213 H 0.43714 0.83047 0.31528 0.0
H214 H 0.43936 0.80738 0.28621 0.0
H215 H 0.458 0.78529 0.26959 0.0
Mn216 Mn 0.49315 0.2663 0.65674 0.0
Mn217 Mn 0.45999 0.25171 0.61862 0.0
C218 C 0.48764 0.23385 0.6437 0.0
C219 C 0.52483 0.27849 0.67065 0.0
C220 C 0.44898 0.25962 0.65853 0.0
O221 O 0.48979 0.29244 0.64553 0.0
O222 O 0.46842 0.28075 0.61989 0.0
C223 C 0.48501 0.2612 0.58783 0.0
N224 N 0.47292 0.24777 0.59643 0.0
C225 C 0.47554 0.2219 0.57287 0.0
C226 C 0.48794 0.23547 0.56371 0.0
C227 C 0.49272 0.25519 0.57124 0.0
C228 C 0.46824 0.22875 0.58931 0.0
H229 H 0.48877 0.27636 0.59358 0.0
C230 C 0.47941 0.29491 0.63025 0.0
O231 O 0.50982 0.27992 0.6797 0.0
O232 O 0.52141 0.27073 0.65321 0.0
N233 N 0.45109 0.22381 0.61571 0.0
C234 C 0.43998 0.21232 0.62694 0.0
C235 C 0.43444 0.19204 0.62173 0.0
C236 C 0.44029 0.18381 0.60501 0.0
C237 C 0.45164 0.19595 0.59364 0.0
C238 C 0.45663 0.21607 0.59949 0.0
H239 H 0.43546 0.21857 0.63981 0.0
O240 O 0.49474 0.23804 0.66138 0.0
O241 O 0.48354 0.24862 0.63452 0.0
O242 O 0.46633 0.26393 0.6666 0.0
O243 O 0.44502 0.25496 0.64066 0.0
C244 C 0.45847 0.18881 0.5769 0.0
C245 C 0.47046 0.20176 0.56655 0.0
H246 H 0.494 0.23087 0.55097 0.0
H247 H 0.50235 0.26573 0.5643 0.0
H248 H 0.42572 0.18277 0.63062 0.0
H249 H 0.43612 0.16814 0.60113 0.0
H250 H 0.45479 0.17333 0.57197 0.0
H251 H 0.47587 0.19603 0.55388 0.0
Mn252 Mn 0.01961 0.28864 0.8766 0.0
Mn253 Mn 0.01471 0.31581 0.83871 0.0
C254 C 0.98897 0.28938 0.86126 0.0
C255 C 0.02456 0.26024 0.89159 0.0
C256 C 0.02085 0.33363 0.8794 0.0
O257 O 0.04706 0.29299 0.86837 0.0
O258 O 0.04213 0.31177 0.84402 0.0
C259 C 0.02307 0.28663 0.80943 0.0
N260 N 0.01111 0.29868 0.8159 0.0
C261 C 0.98862 0.29023 0.78764 0.0
C262 C 1.00074 0.27782 0.78064 0.0
C263 C 0.018 0.27594 0.79163 0.0
C264 C 0.99434 0.30037 0.80556 0.0
H265 H 0.03641 0.2852 0.81776 0.0
C266 C 0.0531 0.30289 0.85476 0.0
O267 O 0.02872 0.27765 0.90044 0.0
O268 O 0.01795 0.25924 0.87367 0.0
N269 N 0.98913 0.32086 0.8313 0.0
C270 C 0.97874 0.33298 0.84033 0.0
C271 C 0.96088 0.33611 0.83139 0.0
C272 C 0.95409 0.32713 0.8131 0.0
C273 C 0.96521 0.31502 0.80394 0.0
C274 C 0.98281 0.3123 0.81362 0.0
H275 H 0.98397 0.34009 0.8543 0.0
O276 O 0.99107 0.28497 0.87884 0.0
O277 O 0.00484 0.29316 0.85298 0.0
O278 O 0.02259 0.31753 0.88678 0.0
O279 O 0.01776 0.3348 0.86144 0.0
C280 C 0.95949 0.30548 0.78561 0.0
C281 C 0.97108 0.29293 0.77755 0.0
H282 H 0.99693 0.26962 0.76687 0.0
H283 H 0.02741 0.26634 0.78635 0.0
H284 H 0.9524 0.34551 0.83855 0.0
H285 H 0.94031 0.32958 0.80626 0.0
H286 H 0.94613 0.30756 0.77762 0.0
H287 H 0.96636 0.28544 0.76358 0.0
Mn288 Mn 0.40388 0.07106 0.25589 0.0
Mn289 Mn 0.36589 0.06663 0.28256 0.0
C290 C 0.38732 0.03998 0.2609 0.0
C291 C 0.41718 0.07349 0.22641 0.0
C292 C 0.40782 0.07464 0.30006 0.0
O293 O 0.39648 0.09887 0.25606 0.0
O294 O 0.37193 0.09378 0.2745 0.0
C295 C 0.33562 0.07221 0.25218 0.0
N296 N 0.34213 0.06133 0.26611 0.0
C297 C 0.31252 0.03768 0.26127 0.0
C298 C 0.30545 0.04868 0.24695 0.0
C299 C 0.31708 0.06598 0.24234 0.0
C300 C 0.33112 0.0446 0.27056 0.0
H301 H 0.34448 0.08555 0.24863 0.0
C302 C 0.38296 0.1048 0.26466 0.0
O303 O 0.42763 0.0792 0.24253 0.0
O304 O 0.39884 0.06741 0.22735 0.0
N305 N 0.35783 0.04125 0.29151 0.0
C306 C 0.36711 0.03193 0.30513 0.0
C307 C 0.35745 0.01439 0.31139 0.0
C308 C 0.33833 0.00671 0.30369 0.0
C309 C 0.32908 0.01654 0.2897 0.0
C310 C 0.33933 0.03412 0.28422 0.0
H311 H 0.38172 0.03789 0.31126 0.0
O312 O 0.40501 0.04229 0.25643 0.0
O313 O 0.37964 0.05592 0.26231 0.0
O314 O 0.41553 0.07555 0.28433 0.0
O315 O 0.38948 0.07156 0.30078 0.0
C316 C 0.31019 0.00949 0.28082 0.0
C317 C 0.30195 0.02 0.26654 0.0
H318 H 0.29117 0.04392 0.23932 0.0
H319 H 0.31176 0.07452 0.23126 0.0
H320 H 0.36469 0.00684 0.32217 0.0
H321 H 0.33092 0.99316 0.30854 0.0
H322 H 0.30196 0.99588 0.2847 0.0
H323 H 0.28752 0.0143 0.25964 0.0
Mn324 Mn 0.27107 0.16592 0.49389 0.0
Mn325 Mn 0.25925 0.13135 0.45696 0.0
C326 C 0.239 0.15572 0.48207 0.0
C327 C 0.27715 0.17575 0.52613 0.0
C328 C 0.27731 0.17369 0.4528 0.0
O329 O 0.29503 0.15296 0.49392 0.0
O330 O 0.28509 0.12908 0.47009 0.0
C331 C 0.2553 0.09506 0.47771 0.0
N332 N 0.24746 0.10683 0.4654 0.0
C333 C 0.21714 0.08423 0.46057 0.0
C334 C 0.22492 0.07182 0.4731 0.0
C335 C 0.24408 0.07728 0.48171 0.0
C336 C 0.22908 0.10165 0.45692 0.0
H337 H 0.26997 0.09924 0.48446 0.0
C338 C 0.2975 0.13781 0.48371 0.0
O339 O 0.2841 0.18686 0.51337 0.0
O340 O 0.26722 0.15852 0.52018 0.0
N341 N 0.2343 0.13194 0.44368 0.0
C342 C 0.22842 0.14637 0.43335 0.0
C343 C 0.20931 0.14365 0.42449 0.0
C344 C 0.19647 0.12614 0.42635 0.0
C345 C 0.20282 0.11154 0.43713 0.0
C346 C 0.22209 0.11499 0.44547 0.0
H347 H 0.23817 0.15993 0.43201 0.0
O348 O 0.24448 0.17296 0.49118 0.0
O349 O 0.25256 0.14525 0.47982 0.0
O350 O 0.27785 0.17956 0.47024 0.0
O351 O 0.27085 0.15593 0.44628 0.0
C352 C 0.19066 0.09392 0.44029 0.0
C353 C 0.19781 0.08026 0.45199 0.0
H354 H 0.21625 0.0582 0.47639 0.0
H355 H 0.25015 0.06784 0.49149 0.0
H356 H 0.20447 0.15505 0.41632 0.0
H357 H 0.1817 0.12417 0.4196 0.0
H358 H 0.17568 0.09087 0.43406 0.0
H359 H 0.18823 0.06692 0.45458 0.0
Mn360 Mn 0.14012 0.0071 0.78908 0.0
Mn361 Mn 0.1771 0.01729 0.82428 0.0
C362 C 0.15327 0.0395 0.79902 0.0
C363 C 0.12801 1.00094 0.757 0.0
C364 C 0.13529 0.00407 0.83164 0.0
O365 O 0.15079 0.98133 0.7895 0.0
O366 O 0.1753 0.9896 0.81317 0.0
C367 C 0.20994 0.01545 0.80119 0.0
N368 N 0.20087 0.02568 0.81366 0.0
C369 C 0.22602 0.05415 0.81494 0.0
C370 C 0.2357 0.04385 0.80223 0.0
C371 C 0.22761 0.02443 0.79532 0.0
C372 C 0.20857 0.04435 0.82047 0.0
H373 H 0.20373 1.00057 0.79573 0.0
C374 C 0.16521 0.97741 0.80013 0.0
O375 O 0.11761 0.99502 0.77045 0.0
O376 O 0.14567 0.00978 0.76216 0.0
N377 N 0.18062 0.04364 0.83589 0.0
C378 C 0.16871 0.05204 0.84683 0.0
C379 C 0.17425 0.07177 0.85417 0.0
C380 C 0.19199 0.08262 0.85025 0.0
C381 C 0.20406 0.07362 0.83906 0.0
C382 C 0.19785 0.05386 0.83226 0.0
H383 H 0.15499 0.04383 0.84977 0.0
O384 O 0.13563 0.035 0.79079 0.0
O385 O 0.16258 0.02482 0.80148 0.0
O386 O 0.1282 0.00233 0.81421 0.0
O387 O 0.15339 0.00936 0.83688 0.0
C388 C 0.22176 0.08364 0.83397 0.0
C389 C 0.23274 0.0739 0.82193 0.0
H390 H 0.24923 0.0508 0.79751 0.0
H391 H 0.23493 0.01644 0.78541 0.0
H392 H 0.16482 0.07863 0.86273 0.0
H393 H 0.1961 0.0979 0.85574 0.0
H394 H 0.2269 0.09894 0.83897 0.0
H395 H 0.24617 0.08186 0.81787 0.0
Mn396 Mn 0.22424 0.89128 0.02567 0.0
Mn397 Mn 0.2273 0.9302 0.99842 0.0
C398 C 0.25444 0.90864 0.02043 0.0
C399 C 0.22279 0.87728 0.05551 0.0
C400 C 0.2204 0.88783 0.9814 0.0
O401 O 0.19673 0.89845 0.02526 0.0
O402 O 0.20065 0.92325 0.0059 0.0
C403 C 0.22118 0.95993 0.02833 0.0
N404 N 0.23198 0.95399 0.01474 0.0
C405 C 0.25371 0.98509 0.01877 0.0
C406 C 0.24279 0.99159 0.03275 0.0
C407 C 0.22654 0.97889 0.03766 0.0
C408 C 0.24794 0.96588 0.0103 0.0
H409 H 0.20853 0.95034 0.03196 0.0
C410 C 0.19033 0.91197 0.0161 0.0
O411 O 0.21701 0.86683 0.03949 0.0
O412 O 0.22845 0.89599 0.05426 0.0
N413 N 0.25201 0.93937 0.98994 0.0
C414 C 0.26122 0.9307 0.97644 0.0
C415 C 0.27774 0.94144 0.9699 0.0
C416 C 0.2843 0.96114 0.9769 0.0
C417 C 0.27453 0.96979 0.99072 0.0
C418 C 0.25835 0.95825 0.99692 0.0
H419 H 0.25596 0.91573 0.97065 0.0
O420 O 0.25259 0.89063 0.02529 0.0
O421 O 0.23861 0.91625 0.01899 0.0
O422 O 0.21935 0.87976 0.99726 0.0
O423 O 0.22311 0.90651 0.98045 0.0
C424 C 0.28015 0.98945 0.9985 0.0
C425 C 0.26995 0.99699 0.01274 0.0
H426 H 0.24672 0.00631 0.03979 0.0
H427 H 0.21804 0.98378 0.04845 0.0
H428 H 0.28522 0.93466 0.95926 0.0
H429 H 0.2969 0.96946 0.97162 0.0
H430 H 0.29246 0.99884 0.9938 0.0
H431 H 0.27463 0.012 0.01885 0.0
Mn432 Mn 0.26396 0.41092 0.04633 0.0
Mn433 Mn 0.2813 0.45034 0.0228 0.0
C434 C 0.29695 0.42248 0.04914 0.0
C435 C 0.2498 0.39662 0.07167 0.0
C436 C 0.26911 0.40911 1.00383 0.0
O437 O 0.23978 0.42256 0.03874 0.0
O438 O 0.25326 0.44924 0.02498 0.0
C439 C 0.27655 0.48164 0.05163 0.0
N440 N 0.2881 0.47308 0.04041 0.0
C441 C 0.31474 0.49979 0.04886 0.0
C442 C 0.30316 0.50891 0.06055 0.0
C443 C 0.28405 0.49968 0.06209 0.0
C444 C 0.30674 0.48142 0.03942 0.0
H445 H 0.26169 0.47483 0.05243 0.0
C446 C 0.23863 0.43833 0.03051 0.0
O447 O 0.24769 0.38758 0.05481 0.0
O448 O 0.26016 0.41422 0.07394 0.0
N449 N 0.30825 0.45401 0.01902 0.0
C450 C 0.31691 0.44422 0.00581 0.0
C451 C 0.33607 0.45154 1.00247 0.0
C452 C 0.3458 0.46938 0.01198 0.0
C453 C 0.33621 0.47981 0.02464 0.0
C454 C 0.31735 0.47144 0.02792 0.0
H455 H 0.30929 0.43089 0.9979 0.0
O456 O 0.29036 0.4047 0.05328 0.0
O457 O 0.28409 0.43337 0.04412 0.0
O458 O 0.26472 0.40091 0.01884 0.0
O459 O 0.27506 0.4276 1.00354 0.0
C460 C 0.34431 0.49858 0.03349 0.0
C461 C 0.33368 0.50846 0.04579 0.0
H462 H 0.30874 0.52307 0.06827 0.0
H463 H 0.275 0.50665 0.07103 0.0
H464 H 0.34319 0.44362 0.99231 0.0
H465 H 0.36044 0.47517 0.0091 0.0
H466 H 0.3588 0.50549 0.03108 0.0
H467 H 0.34017 0.52279 0.05269 0.0
Mn468 Mn 0.79318 0.17472 0.01088 0.0
Mn469 Mn 0.78251 0.13654 0.97713 0.0
C470 C 0.76106 0.1597 1.00206 0.0
C471 C 0.79975 0.18769 0.04303 0.0
C472 C 0.79192 0.17918 0.9675 0.0
O473 O 0.81965 0.1652 0.00998 0.0
O474 O 0.81027 0.14014 0.98733 0.0
C475 C 0.78815 0.10434 1.00193 0.0
N476 N 0.77667 0.11245 0.98909 0.0
C477 C 0.75093 0.08459 0.98818 0.0
C478 C 0.7625 0.0759 1.00134 0.0
C479 C 0.78115 0.08587 0.00831 0.0
C480 C 0.75861 0.1031 0.98247 0.0
H481 H 0.80253 0.11189 0.00725 0.0
C482 C 0.82317 0.15066 0.9994 0.0
O483 O 0.80444 0.19829 0.02907 0.0
O484 O 0.79252 0.1693 0.03839 0.0
N485 N 0.75609 0.13101 0.96606 0.0
C486 C 0.74655 0.14173 0.95394 0.0
C487 C 0.72772 0.13384 0.94563 0.0
C488 C 0.719 0.11494 0.94969 0.0
C489 C 0.72903 0.10424 0.96233 0.0
C490 C 0.7478 0.11283 0.97011 0.0
H491 H 0.7533 0.15613 0.95051 0.0
O492 O 0.76514 0.17764 0.00978 0.0
O493 O 0.77588 0.15105 0.99963 0.0
O494 O 0.79496 0.18682 0.98472 0.0
O495 O 0.78769 0.16059 0.96331 0.0
C496 C 0.7212 0.08537 0.96747 0.0
C497 C 0.73206 0.07564 0.98053 0.0
H498 H 0.75719 0.06162 0.00624 0.0
H499 H 0.79016 0.07928 0.0185 0.0
H500 H 0.72002 0.1422 0.93595 0.0
H501 H 0.7046 0.10879 0.94296 0.0
H502 H 0.7068 0.07823 0.96157 0.0
H503 H 0.72578 0.06126 0.98457 0.0
Mn504 Mn 0.11226 0.50034 0.27871 0.0
Mn505 Mn 0.15027 0.50887 0.31312 0.0
C506 C 0.12944 0.53209 0.28609 0.0
C507 C 0.09899 0.49323 0.24665 0.0
C508 C 0.10829 0.5022 0.32188 0.0
O509 O 0.1195 0.47273 0.28115 0.0
O510 O 0.14514 0.48058 0.30364 0.0
C511 C 0.18161 0.50104 0.28993 0.0
N512 N 0.17425 0.51335 0.30202 0.0
C513 C 0.20281 0.53817 0.30301 0.0
C514 C 0.21074 0.52572 0.29065 0.0
C515 C 0.20007 0.5071 0.28404 0.0
C516 C 0.1844 0.5313 0.30847 0.0
H517 H 0.17346 0.48672 0.28481 0.0
C518 C 0.13366 0.46817 0.29181 0.0
O519 O 0.08846 0.49005 0.26065 0.0
O520 O 0.11737 0.49953 0.25128 0.0
N521 N 0.15705 0.53573 0.32334 0.0
C522 C 0.14672 0.54652 0.33401 0.0
C523 C 0.15513 0.56572 0.34134 0.0
C524 C 0.17407 0.57356 0.33771 0.0
C525 C 0.18434 0.56225 0.32656 0.0
C526 C 0.17531 0.54313 0.31983 0.0
H527 H 0.1322 0.54053 0.33693 0.0
O528 O 0.11167 0.52924 0.27818 0.0
O529 O 0.1366 0.51628 0.28974 0.0
O530 O 0.10056 0.5001 0.30459 0.0
O531 O 0.1266 0.50495 0.32638 0.0
C532 C 0.20306 0.56931 0.32161 0.0
C533 C 0.21227 0.5573 0.3098 0.0
H534 H 0.22493 0.53038 0.28598 0.0
H535 H 0.20606 0.49744 0.27443 0.0
H536 H 0.14706 0.57442 0.34983 0.0
H537 H 0.18053 0.58834 0.34346 0.0
H538 H 0.21038 0.58407 0.32655 0.0
H539 H 0.22653 0.56301 0.30583 0.0
Mn540 Mn 0.76055 0.91065 0.5453 0.0
Mn541 Mn 0.78159 0.94823 0.52144 0.0
C542 C 0.79394 0.91913 0.54828 0.0
C543 C 0.74547 0.89766 0.57071 0.0
C544 C 0.76618 0.90737 0.50289 0.0
O545 O 0.7381 0.9248 0.53777 0.0
O546 O 0.75381 0.94966 0.52304 0.0
C547 C 0.77904 0.98084 0.54986 0.0
N548 N 0.78979 0.97115 0.53865 0.0
C549 C 0.81845 0.99527 0.54821 0.0
C550 C 0.80769 0.00557 0.5598 0.0
C551 C 0.78792 0.99826 0.5607 0.0
C552 C 0.80886 0.97789 0.53789 0.0
H553 H 0.76382 0.97532 0.55046 0.0
C554 C 0.73845 0.94044 0.52897 0.0
O555 O 0.74243 0.8887 0.5538 0.0
O556 O 0.75713 0.91456 0.57294 0.0
N557 N 0.80851 0.9494 0.51834 0.0
C558 C 0.81691 0.93744 0.50681 0.0
C559 C 0.83655 0.94286 0.50401 0.0
C560 C 0.84727 0.9606 0.51287 0.0
C561 C 0.83835 0.97261 0.52474 0.0
C562 C 0.81868 0.96659 0.52679 0.0
H563 H 0.80864 0.92401 0.49962 0.0
O564 O 0.78573 0.90176 0.55216 0.0
O565 O 0.78242 0.93138 0.54314 0.0
O566 O 0.76043 0.90003 0.51784 0.0
O567 O 0.7741 0.92535 0.50249 0.0
C568 C 0.84824 0.99026 0.53469 0.0
C569 C 0.83833 1.0015 0.54655 0.0
H570 H 0.81446 0.01907 0.56812 0.0
H571 H 0.77953 0.0061 0.56965 0.0
H572 H 0.84337 0.93348 0.49488 0.0
H573 H 0.86234 0.96486 0.5105 0.0
H574 H 0.86351 0.9952 0.5335 0.0
H575 H 0.84614 0.01492 0.55431 0.0
Mn576 Mn 0.87515 0.05031 0.24081 0.0
Mn577 Mn 0.83656 0.03697 0.26549 0.0
C578 C 0.8637 0.017 0.24358 0.0
C579 C 0.8894 0.05885 0.21311 0.0
C580 C 0.87724 0.05126 0.28454 0.0
O581 O 0.86349 0.07568 0.24271 0.0
O582 O 0.83844 0.06472 0.259 0.0
C583 C 0.80583 0.03897 0.2343 0.0
N584 N 0.81378 0.02878 0.24803 0.0
C585 C 0.78756 1.0013 0.24146 0.0
C586 C 0.77902 0.01152 0.22729 0.0
C587 C 0.78824 0.0304 0.22365 0.0
C588 C 0.80514 0.01055 0.25153 0.0
H589 H 0.81283 0.05352 0.23154 0.0
C590 C 0.84853 0.07831 0.25087 0.0
O591 O 0.89824 0.06436 0.22998 0.0
O592 O 0.87192 0.04887 0.21225 0.0
N593 N 0.83228 0.01063 0.27316 0.0
C594 C 0.84262 0.00267 0.28708 0.0
C595 C 0.83524 0.98398 0.29272 0.0
C596 C 0.81739 0.97362 0.28395 0.0
C597 C 0.80691 0.98221 0.26981 0.0
C598 C 0.81477 1.00108 0.2651 0.0
H599 H 0.85627 0.01061 0.294 0.0
O600 O 0.8813 0.02297 0.23971 0.0
O601 O 0.85295 0.03065 0.24546 0.0
O602 O 0.88517 0.0544 0.26925 0.0
O603 O 0.85918 0.04472 0.28471 0.0
C604 C 0.78904 0.97274 0.26011 0.0
C605 C 0.77943 0.98223 0.24586 0.0
H606 H 0.76544 0.00498 0.21907 0.0
H607 H 0.78177 0.03836 0.21271 0.0
H608 H 0.84331 0.97759 0.30384 0.0
H609 H 0.81187 0.95909 0.28818 0.0
H610 H 0.78266 0.95809 0.26337 0.0
H611 H 0.76582 0.97472 0.23834 0.0
Mn612 Mn 0.29311 0.67569 0.50975 0.0
Mn613 Mn 0.28025 0.63676 0.47694 0.0
C614 C 0.26064 0.66133 0.50242 0.0
C615 C 0.30079 0.68898 0.54182 0.0
C616 C 0.28998 0.679 0.46602 0.0
O617 O 0.3191 0.66541 0.50806 0.0
O618 O 0.3084 0.64015 0.48585 0.0
C619 C 0.2869 0.60513 0.50212 0.0
N620 N 0.27486 0.6131 0.4897 0.0
C621 C 0.24884 0.58596 0.49111 0.0
C622 C 0.261 0.57741 0.50383 0.0
C623 C 0.28009 0.58707 0.5094 0.0
C624 C 0.25643 0.60397 0.48432 0.0
H625 H 0.3016 0.61247 0.50644 0.0
C626 C 0.3219 0.65056 0.49742 0.0
O627 O 0.30514 0.6994 0.52763 0.0
O628 O 0.29336 0.67062 0.53741 0.0
N629 N 0.25336 0.63136 0.46727 0.0
C630 C 0.24319 0.64205 0.45567 0.0
C631 C 0.22364 0.63471 0.44929 0.0
C632 C 0.21484 0.61635 0.45465 0.0
C633 C 0.22567 0.6055 0.46639 0.0
C634 C 0.24509 0.61358 0.47234 0.0
H635 H 0.24989 0.65613 0.45143 0.0
O636 O 0.26537 0.6794 0.50964 0.0
O637 O 0.275 0.65214 0.49953 0.0
O638 O 0.29416 0.68708 0.48307 0.0
O639 O 0.28492 0.66037 0.46241 0.0
C640 C 0.2179 0.58711 0.47262 0.0
C641 C 0.22943 0.5774 0.48506 0.0
H642 H 0.25579 0.56349 0.5095 0.0
H643 H 0.28954 0.58061 0.51927 0.0
H644 H 0.21537 0.64317 0.44023 0.0
H645 H 0.19973 0.61078 0.44977 0.0
H646 H 0.203 0.58036 0.46808 0.0
H647 H 0.2232 0.56341 0.48998 0.0
Mn648 Mn 0.37645 0.54696 0.74106 0.0
Mn649 Mn 0.33725 0.53269 0.7646 0.0
C650 C 0.3649 0.51357 0.74275 0.0
C651 C 0.39081 0.55637 0.7137 0.0
C652 C 0.37764 0.54746 0.78458 0.0
O653 O 0.36469 0.57218 0.74373 0.0
O654 O 0.33816 0.56033 0.75776 0.0
C655 C 0.3067 0.53328 0.73286 0.0
N656 N 0.31496 0.52352 0.74676 0.0
C657 C 0.29013 0.49486 0.73949 0.0
C658 C 0.28127 0.50466 0.72518 0.0
C659 C 0.28964 0.52392 0.7218 0.0
C660 C 0.30713 0.50492 0.75001 0.0
H661 H 0.3131 0.54809 0.73024 0.0
C662 C 0.34883 0.57424 0.7505 0.0
O663 O 0.39963 0.56143 0.73066 0.0
O664 O 0.37331 0.54641 0.7126 0.0
N665 N 0.33405 0.50629 0.77226 0.0
C666 C 0.34492 0.49857 0.78596 0.0
C667 C 0.33867 0.47931 0.79093 0.0
C668 C 0.3212 0.46831 0.78197 0.0
C669 C 0.31022 0.47659 0.76799 0.0
C670 C 0.31709 0.4959 0.76373 0.0
H671 H 0.35824 0.50704 0.79306 0.0
O672 O 0.38259 0.5196 0.73915 0.0
O673 O 0.35425 0.5272 0.74496 0.0
O674 O 0.38608 0.55013 0.76952 0.0
O675 O 0.35942 0.54138 0.7843 0.0
C676 C 0.29289 0.46633 0.75788 0.0
C677 C 0.28291 0.47542 0.74357 0.0
H678 H 0.26811 0.49749 0.71661 0.0
H679 H 0.28294 0.53155 0.71072 0.0
H680 H 0.34725 0.47299 0.8017 0.0
H681 H 0.3164 0.45348 0.78587 0.0
H682 H 0.28729 0.45133 0.76078 0.0
H683 H 0.26976 0.46728 0.73569 0.0
Mn684 Mn 0.61412 0.99944 0.77979 0.0
Mn685 Mn 0.65288 0.00647 0.81317 0.0
C686 C 0.63185 0.03098 0.78795 0.0
C687 C 0.60019 0.99358 0.74778 0.0
C688 C 0.6113 1.00057 0.82324 0.0
O689 O 0.62086 0.97149 0.78085 0.0
O690 O 0.64652 0.97835 0.80328 0.0
C691 C 0.68279 0.99757 0.78858 0.0
N692 N 0.67639 0.01009 0.80125 0.0
C693 C 0.70641 0.03298 0.80318 0.0
C694 C 0.71335 0.02031 0.7902 0.0
C695 C 0.70143 0.00259 0.78278 0.0
C696 C 0.68761 0.02732 0.80823 0.0
H697 H 0.67378 0.98381 0.78303 0.0
C698 C 0.63486 0.96634 0.79126 0.0
O699 O 0.58991 0.99006 0.76192 0.0
O700 O 0.61864 0.99961 0.75223 0.0
N701 N 0.66108 0.03301 0.82386 0.0
C702 C 0.65179 0.04409 0.83537 0.0
C703 C 0.66152 0.06252 0.84359 0.0
C704 C 0.68082 0.06917 0.84021 0.0
C705 C 0.69008 0.05748 0.82834 0.0
C706 C 0.67956 0.03939 0.82033 0.0
H707 H 0.63709 0.03886 0.83832 0.0
O708 O 0.61393 0.02851 0.78051 0.0
O709 O 0.63892 0.01492 0.79058 0.0
O710 O 0.60309 0.99828 0.8061 0.0
O711 O 0.6297 0.00341 0.82715 0.0
C712 C 0.70935 0.06305 0.82414 0.0
C713 C 0.71743 0.05095 0.81137 0.0
H714 H 0.72779 0.02406 0.78581 0.0
H715 H 0.70667 0.99274 0.77274 0.0
H716 H 0.65426 0.07147 0.8527 0.0
H717 H 0.68834 0.0833 0.84674 0.0
H718 H 0.71801 0.07678 0.83044 0.0
H719 H 0.73211 0.05562 0.80795 0.0
Mn720 Mn 0.77094 0.66886 0.9922 0.0
Mn721 Mn 0.76217 0.63061 0.95876 0.0
C722 C 0.73976 0.65718 0.9785 0.0
C723 C 0.77432 0.68212 0.02346 0.0
C724 C 0.77992 0.67195 0.95088 0.0
O725 O 0.79496 0.65626 0.9965 0.0
O726 O 0.78782 0.63095 0.97372 0.0
C727 C 0.75851 0.59792 0.98425 0.0
N728 N 0.75073 0.60747 0.96988 0.0
C729 C 0.72078 0.58432 0.967 0.0
C730 C 0.72853 0.57418 0.98168 0.0
C731 C 0.74747 0.58102 0.99034 0.0
C732 C 0.73253 0.60097 0.96139 0.0
H733 H 0.773 0.60318 0.99107 0.0
C734 C 0.79884 0.64087 0.98774 0.0
O735 O 0.78232 0.69179 0.01025 0.0
O736 O 0.76478 0.66447 0.0186 0.0
N737 N 0.73758 0.62852 0.94384 0.0
C738 C 0.73174 0.64078 0.93088 0.0
C739 C 0.71288 0.6364 0.92137 0.0
C740 C 0.70022 0.61949 0.92531 0.0
C741 C 0.70656 0.60709 0.93869 0.0
C742 C 0.72558 0.61209 0.94758 0.0
H743 H 0.74131 0.65393 0.92797 0.0
O744 O 0.74441 0.67526 0.98584 0.0
O745 O 0.75364 0.64678 0.97902 0.0
O746 O 0.77986 0.67947 0.96773 0.0
O747 O 0.77346 0.6538 0.94573 0.0
C748 C 0.6946 0.59019 0.94387 0.0
C749 C 0.7017 0.57883 0.95803 0.0
H750 H 0.72 0.56124 0.98654 0.0
H751 H 0.75352 0.57334 1.00175 0.0
H752 H 0.70806 0.64611 0.91115 0.0
H753 H 0.68561 0.61628 0.91812 0.0
H754 H 0.67983 0.58595 0.93724 0.0
H755 H 0.69226 0.56605 0.96209 0.0
Mn756 Mn 0.90414 0.56916 0.7549 0.0
Mn757 Mn 0.86651 0.56417 0.78203 0.0
C758 C 0.88858 0.53792 0.76057 0.0
C759 C 0.91696 0.57185 0.72527 0.0
C760 C 0.90858 0.57357 0.799 0.0
O761 O 0.89597 0.59656 0.75478 0.0
O762 O 0.87154 0.59113 0.77332 0.0
C763 C 0.83555 0.56805 0.75166 0.0
N764 N 0.84261 0.55782 0.76586 0.0
C765 C 0.81358 0.53336 0.76184 0.0
C766 C 0.80594 0.5437 0.74726 0.0
C767 C 0.81702 0.56108 0.7421 0.0
C768 C 0.83215 0.541 0.77082 0.0
H769 H 0.84399 0.58144 0.74768 0.0
C770 C 0.88225 0.6022 0.76325 0.0
O771 O 0.92751 0.57788 0.74126 0.0
O772 O 0.89876 0.56514 0.72643 0.0
N773 N 0.85938 0.53895 0.79162 0.0
C774 C 0.86918 0.5303 0.80542 0.0
C775 C 0.86012 0.51278 0.81223 0.0
C776 C 0.84106 0.50442 0.80488 0.0
C777 C 0.83127 0.51357 0.7907 0.0
C778 C 0.84092 0.53117 0.78469 0.0
H779 H 0.88374 0.53679 0.81129 0.0
O780 O 0.90615 0.54063 0.75578 0.0
O781 O 0.88039 0.55355 0.76182 0.0
O782 O 0.91608 0.57428 0.78317 0.0
O783 O 0.89028 0.57018 0.79997 0.0
C784 C 0.81239 0.50582 0.78215 0.0
C785 C 0.8036 0.51565 0.76765 0.0
H786 H 0.79165 0.53837 0.73984 0.0
H787 H 0.81126 0.5691 0.7308 0.0
H788 H 0.86778 0.50578 0.82317 0.0
H789 H 0.83412 0.49088 0.81013 0.0
H790 H 0.80462 0.49217 0.78645 0.0
H791 H 0.78919 0.5094 0.761 0.0
Mn792 Mn 0.72442 0.39142 0.52554 0.0
Mn793 Mn 0.73031 0.43087 0.49903 0.0
C794 C 0.75534 0.40753 0.52143 0.0
C795 C 0.72184 0.37715 0.55507 0.0
C796 C 0.72193 0.38874 0.48135 0.0
O797 O 0.69752 0.4 0.52462 0.0
O798 O 0.70309 0.42479 0.5054 0.0
C799 C 0.72417 0.46064 0.52889 0.0
N800 N 0.73538 0.45433 0.51586 0.0
C801 C 0.75922 0.48384 0.52263 0.0
C802 C 0.74788 0.49069 0.53603 0.0
C803 C 0.73032 0.47899 0.53925 0.0
C804 C 0.75244 0.46535 0.51288 0.0
H805 H 0.71061 0.45177 0.53137 0.0
C806 C 0.69201 0.41384 0.51529 0.0
O807 O 0.71573 0.36701 0.53894 0.0
O808 O 0.72825 0.39576 0.55407 0.0
N809 N 0.75581 0.43915 0.49177 0.0
C810 C 0.76529 0.43024 0.47866 0.0
C811 C 0.78328 0.4399 0.47407 0.0
C812 C 0.79113 0.45877 0.48266 0.0
C813 C 0.78092 0.46782 0.4958 0.0
C814 C 0.76314 0.45742 0.49994 0.0
H815 H 0.75926 0.41581 0.47188 0.0
O816 O 0.75253 0.38935 0.52578 0.0
O817 O 0.74001 0.41593 0.51962 0.0
O818 O 0.71973 0.38049 0.49698 0.0
O819 O 0.72584 0.40745 0.48069 0.0
C820 C 0.78772 0.48674 0.505 0.0
C821 C 0.77699 0.49465 0.51855 0.0
H822 H 0.75253 0.50489 0.54397 0.0
H823 H 0.7215 0.48414 0.54961 0.0
H824 H 0.79104 0.43283 0.46387 0.0
H825 H 0.80501 0.46617 0.47908 0.0
H826 H 0.80127 0.49528 0.50187 0.0
H827 H 0.78252 0.50908 0.52573 0.0
Mn828 Mn 0.64449 0.50918 0.29015 0.0
Mn829 Mn 0.68068 0.51745 0.3261 0.0
C830 C 0.65834 0.54127 0.30114 0.0
C831 C 0.63312 0.5038 0.25782 0.0
C832 C 0.63832 0.50561 0.33232 0.0
O833 O 0.65387 0.48266 0.2904 0.0
O834 O 0.67807 0.49005 0.31428 0.0
C835 C 0.71377 0.51485 0.30353 0.0
N836 N 0.70496 0.52511 0.3162 0.0
C837 C 0.7322 0.5517 0.32047 0.0
C838 C 0.74161 0.54137 0.30754 0.0
C839 C 0.73231 0.52292 0.29896 0.0
C840 C 0.71367 0.54298 0.32436 0.0
H841 H 0.70674 0.5006 0.29699 0.0
C842 C 0.66796 0.47813 0.30107 0.0
O843 O 0.62213 0.49823 0.27094 0.0
O844 O 0.65091 0.51194 0.26347 0.0
N845 N 0.68517 0.54342 0.33862 0.0
C846 C 0.67361 0.55201 0.34983 0.0
C847 C 0.6805 0.57084 0.35898 0.0
C848 C 0.6993 0.5805 0.35676 0.0
C849 C 0.71096 0.57131 0.34523 0.0
C850 C 0.70324 0.55263 0.33632 0.0
H851 H 0.65924 0.54455 0.35176 0.0
O852 O 0.64097 0.53738 0.29222 0.0
O853 O 0.66718 0.52622 0.30337 0.0
O854 O 0.63169 0.50447 0.31479 0.0
O855 O 0.6564 0.51012 0.33802 0.0
C856 C 0.7299 0.58 0.34214 0.0
C857 C 0.74043 0.57031 0.32961 0.0
H858 H 0.75594 0.54752 0.30403 0.0
H859 H 0.73946 0.51488 0.28892 0.0
H860 H 0.6714 0.57785 0.36783 0.0
H861 H 0.70459 0.59499 0.36391 0.0
H862 H 0.73642 0.59426 0.34915 0.0
H863 H 0.75482 0.57733 0.32705 0.0
Tb864 Tb 0.01473 0.05416 0.01376 0.0
C865 C 0.01664 0.01863 0.98409 0.0
Tb866 Tb 1.00124 0.01111 0.0244 0.0
O867 O 0.04524 0.04989 0.0138 0.0
O868 O 0.02648 0.03269 0.02939 0.0
O869 O 0.01505 0.03753 0.98668 0.0
C870 C 1.00027 0.97592 0.03849 0.0
O871 O 0.0133 0.00588 0.99732 0.0
C872 C 0.97315 0.03109 0.0147 0.0
C873 C 0.999 0.04671 0.05386 0.0
O874 O 0.98989 0.97927 0.02313 0.0
O875 O 0.01114 0.99223 0.04559 0.0
O876 O 0.97118 0.01619 0.02519 0.0
O877 O 0.98953 0.03234 0.00842 0.0
O878 O 1.00106 0.02793 0.05138 0.0
O879 O 1.00222 0.05942 0.04057 0.0
C880 C 0.01529 0.08949 0.99988 0.0
O881 O 0.0264 0.08597 0.01467 0.0
O882 O 0.00391 0.07329 0.99334 0.0
C883 C 0.04306 0.03436 0.02346 0.0
Tb884 Tb 0.26554 0.80645 0.2664 0.0
C885 C 0.29649 0.77833 0.27008 0.0
Tb886 Tb 0.25117 0.76208 0.26213 0.0
O887 O 0.27693 0.80516 0.2961 0.0
O888 O 0.25296 0.78481 0.28411 0.0
O889 O 0.29326 0.79617 0.26609 0.0
C890 C 0.24004 0.72371 0.26648 0.0
O891 O 0.28225 0.76307 0.27022 0.0
C892 C 0.25136 0.77971 0.22992 0.0
C893 C 0.22026 0.78982 0.25891 0.0
O894 O 0.24347 0.73769 0.28007 0.0
O895 O 0.2432 0.73127 0.25048 0.0
O896 O 0.2394 0.76393 0.23259 0.0
O897 O 0.2637 0.78377 0.24445 0.0
O898 O 0.22386 0.77257 0.26442 0.0
O899 O 0.23445 0.80478 0.2572 0.0
C900 C 0.27726 0.8444 0.26083 0.0
O901 O 0.26728 0.83807 0.27449 0.0
O902 O 0.28023 0.82939 0.25025 0.0
C903 C 0.26522 0.78916 0.2987 0.0
Tb904 Tb 0.53072 0.03258 0.51495 0.0
C905 C 0.52051 0.01667 0.55573 0.0
Tb906 Tb 0.48915 0.02807 0.52556 0.0
O907 O 0.53457 0.06485 0.51985 0.0
O908 O 0.51583 0.04636 0.53483 0.0
O909 O 0.5331 0.01932 0.54269 0.0
C910 C 0.45582 0.03891 0.53346 0.0
O911 O 0.50252 0.02047 0.55269 0.0
C912 C 0.49864 0.99668 0.50867 0.0
C913 C 0.49943 0.04448 0.48516 0.0
O914 O 0.4575 0.02173 0.52578 0.0
O915 O 0.47286 0.04966 0.5369 0.0
O916 O 0.48559 0.9958 0.52069 0.0
O917 O 0.50403 0.01441 0.50556 0.0
O918 O 0.48738 0.04299 0.49872 0.0
O919 O 0.51686 0.03918 0.48762 0.0
C920 C 0.56372 0.02126 0.5069 0.0
O921 O 0.56159 0.03945 0.51068 0.0
O922 O 0.54735 0.00969 0.50756 0.0
C923 C 0.52137 0.06405 0.53168 0.0
Tb924 Tb 0.26213 0.28367 0.79044 0.0
C925 C 0.2731 0.31462 0.76104 0.0
Tb926 Tb 0.25395 0.27006 0.74804 0.0
O927 O 0.29343 0.28891 0.7881 0.0
O928 O 0.27485 0.26686 0.7706 0.0
O929 O 0.268 0.3121 0.77846 0.0
C930 C 0.25896 0.25788 0.71273 0.0
O931 O 0.27079 0.29984 0.74756 0.0
C932 C 0.22389 0.27828 0.76436 0.0
C933 C 0.2423 0.23916 0.77758 0.0
O934 O 0.24765 0.27033 0.71702 0.0
O935 O 0.26719 0.25241 0.7282 0.0
O936 O 0.22249 0.26585 0.74948 0.0
O937 O 0.24126 0.2869 0.76784 0.0
O938 O 0.24535 0.24189 0.75963 0.0
O939 O 0.24681 0.2534 0.79161 0.0
C940 C 0.25918 0.29483 0.82658 0.0
O941 O 0.27279 0.28599 0.82076 0.0
O942 O 0.2473 0.29726 0.8121 0.0
C943 C 0.29212 0.27584 0.77379 0.0
Tb944 Tb 0.00427 0.04013 0.49813 0.0
C945 C 0.97989 0.01933 0.52842 0.0
Tb946 Tb 0.02396 0.03996 0.53952 0.0
O947 O 1.00186 0.00812 0.49404 0.0
O948 O 0.02417 0.02481 0.51264 0.0
O949 O 0.97911 0.02792 0.51207 0.0
C950 C 0.03911 0.02976 0.57283 0.0
O951 O 0.99602 0.02092 0.54026 0.0
C952 C 0.01215 0.07282 0.53075 0.0
C953 C 0.04837 0.06056 0.50944 0.0
O954 O 0.04114 0.02183 0.55619 0.0
O955 O 0.02867 0.04356 0.57073 0.0
O956 O 0.0263 0.07198 0.54377 0.0
O957 O 0.00424 0.05547 0.52489 0.0
O958 O 0.04911 0.05204 0.5258 0.0
O959 O 0.03231 0.05934 0.49753 0.0
C960 C 0.98909 0.04875 0.46421 0.0
O961 O 1.00277 0.03829 0.46699 0.0
O962 O 0.98395 0.05436 0.48056 0.0
C963 C 0.01632 0.00748 0.50676 0.0
Tb964 Tb 0.28381 0.78496 0.77331 0.0
C965 C 0.25239 0.79096 0.80167 0.0
Tb966 Tb 0.24041 0.77567 0.75774 0.0
O967 O 0.28386 0.81682 0.77772 0.0
O968 O 0.26356 0.79927 0.75796 0.0
O969 O 0.27069 0.78896 0.79987 0.0
C970 C 0.20453 0.77735 0.74306 0.0
O971 O 0.23853 0.78747 0.78706 0.0
C972 C 0.2569 0.74477 0.76376 0.0
C973 C 0.27193 0.77013 0.72948 0.0
O974 O 0.20896 0.76592 0.75617 0.0
O975 O 0.22021 0.78788 0.73846 0.0
O976 O 0.24173 0.74447 0.75165 0.0
O977 O 0.26053 0.76128 0.77328 0.0
O978 O 0.254 0.77351 0.73119 0.0
O979 O 0.28542 0.77198 0.74437 0.0
C980 C 0.31909 0.78158 0.78851 0.0
O981 O 0.31558 0.79231 0.77447 0.0
O982 O 0.30286 0.77284 0.79368 0.0
C983 C 0.26789 0.81618 0.76664 0.0
Tb984 Tb 0.4897 0.02165 0.02101 0.0
C985 C 0.52459 0.99923 0.02542 0.0
Tb986 Tb 0.53041 0.04579 0.02464 0.0
O987 O 0.49425 0.00633 0.99425 0.0
O988 O 0.50876 0.035 1.0017 0.0
O989 O 0.50636 0.99899 0.02906 0.0
C990 C 0.56671 0.06291 0.02047 0.0
O991 O 0.53587 0.01552 0.02136 0.0
C992 C 0.51259 0.04714 0.05583 0.0
C993 C 0.49541 0.06807 0.01986 0.0
O994 O 0.5617 0.05193 0.03408 0.0
O995 O 0.55133 0.0641 0.00921 0.0
O996 O 0.52598 0.061 0.05158 0.0
O997 O 0.51137 0.03248 0.04386 0.0
O998 O 0.51364 0.06824 0.01632 0.0
O999 O 0.48406 0.05188 0.02398 0.0
C1000 C 0.45302 0.00496 0.02402 0.0
O1001 O 0.45917 0.01365 0.00944 0.0
O1002 O 0.46752 0.00578 0.03705 0.0
C1003 C 0.50746 0.02025 0.98979 0.0
Tb1004 Tb 0.23883 0.27466 0.27057 0.0
C1005 C 0.27263 0.29088 0.30414 0.0
Tb1006 Tb 0.27923 0.29792 0.26193 0.0
O1007 O 0.24531 0.24825 0.25497 0.0
O1008 O 0.26752 0.26925 0.26901 0.0
O1009 O 0.25366 0.28607 0.29867 0.0
C1010 C 0.31319 0.30078 0.24798 0.0
O1011 O 0.28587 0.29451 0.29197 0.0
C1012 C 0.25396 0.32186 0.26764 0.0
C1013 C 0.24341 0.28815 0.22963 0.0
O1014 O 0.30831 0.31425 0.25942 0.0
O1015 O 0.29905 0.28597 0.24456 0.0
O1016 O 0.27151 0.32795 0.2634 0.0
O1017 O 0.25236 0.30353 0.26846 0.0
O1018 O 0.26257 0.29124 0.23398 0.0
O1019 O 0.23087 0.28327 0.24221 0.0
C1020 C 0.20676 0.26193 0.28671 0.0
O1021 O 0.22286 0.255 0.28891 0.0
O1022 O 0.20855 0.27577 0.27498 0.0
C1023 C 0.26405 0.2536 0.25825 0.0
Tb1024 Tb 0.5087 0.53527 0.99628 0.0
C1025 C 0.4857 0.51648 0.02837 0.0
Tb1026 Tb 0.53069 0.53442 0.03653 0.0
O1027 O 0.50394 0.50313 0.99212 0.0
O1028 O 0.52774 0.51822 0.00975 0.0
O1029 O 0.48436 0.52554 0.01231 0.0
C1030 C 0.54651 0.52554 0.07011 0.0
O1031 O 0.50251 0.5163 0.03867 0.0
C1032 C 0.52065 0.56821 0.02832 0.0
C1033 C 0.55377 0.55307 0.00454 0.0
O1034 O 0.5331 0.53636 0.0677 0.0
O1035 O 0.55112 0.51976 0.05358 0.0
O1036 O 0.53546 0.56667 0.04027 0.0
O1037 O 0.51146 0.55121 0.02313 0.0
O1038 O 0.55504 0.54394 0.02054 0.0
O1039 O 0.537 0.55331 0.99415 0.0
C1040 C 0.49208 0.54404 0.96301 0.0
O1041 O 0.50523 0.53287 0.96509 0.0
O1042 O 0.48831 0.55036 0.97971 0.0
C1043 C 0.51842 0.50129 0.00435 0.0
Tb1044 Tb 0.78264 0.28388 0.27353 0.0
C1045 C 0.75157 0.29074 0.3017 0.0
Tb1046 Tb 0.74 0.27959 0.25688 0.0
O1047 O 0.78391 0.31527 0.28126 0.0
O1048 O 0.7652 0.30116 0.25808 0.0
O1049 O 0.76933 0.28683 0.30009 0.0
C1050 C 0.70504 0.28608 0.24364 0.0
O1051 O 0.73828 0.2897 0.28674 0.0
C1052 C 0.75309 0.24648 0.26169 0.0
C1053 C 0.771 0.27286 0.22873 0.0
O1054 O 0.70847 0.27034 0.25165 0.0
O1055 O 0.72122 0.29806 0.24322 0.0
O1056 O 0.7391 0.2483 0.24886 0.0
O1057 O 0.75749 0.26234 0.27221 0.0
O1058 O 0.75351 0.27749 0.23035 0.0
O1059 O 0.78405 0.27314 0.24377 0.0
C1060 C 0.81764 0.27732 0.28657 0.0
O1061 O 0.8013 0.26646 0.28906 0.0
O1062 O 0.8143 0.29191 0.27665 0.0
C1063 C 0.76986 0.31708 0.26851 0.0
Tb1064 Tb 0.9863 0.52947 0.51765 0.0
C1065 C 0.01916 0.50409 0.52103 0.0
Tb1066 Tb 0.02832 0.55098 0.5218 0.0
O1067 O 0.99013 0.51487 0.49029 0.0
O1068 O 0.00602 0.54276 0.49901 0.0
O1069 O 1.00094 0.50493 0.52407 0.0
C1070 C 0.0651 0.56582 0.51695 0.0
O1071 O 0.03185 0.51997 0.51835 0.0
C1072 C 0.01079 0.55163 0.55312 0.0
C1073 C 0.99528 0.57632 0.51915 0.0
O1074 O 0.05928 0.55842 0.5323 0.0
O1075 O 0.05022 0.56474 0.50433 0.0
O1076 O 0.02476 0.56526 0.54947 0.0
O1077 O 0.00867 0.53758 0.54035 0.0
O1078 O 0.01346 0.5756 0.51582 0.0
O1079 O 0.98276 0.56034 0.5219 0.0
C1080 C 0.94932 0.51419 0.52104 0.0
O1081 O 0.95563 0.52227 0.50619 0.0
O1082 O 0.96381 0.51495 0.53406 0.0
C1083 C 0.00397 0.52848 0.48646 0.0
Tb1084 Tb 0.762 0.78519 0.28961 0.0
C1085 C 0.77353 0.81659 0.26087 0.0
Tb1086 Tb 0.75438 0.7721 0.24725 0.0
O1087 O 0.79342 0.79063 0.28786 0.0
O1088 O 0.7752 0.76879 0.26984 0.0
O1089 O 0.76837 0.81385 0.27822 0.0
C1090 C 0.75867 0.76215 0.21118 0.0
O1091 O 0.77122 0.80194 0.24726 0.0
C1092 C 0.72397 0.77952 0.26348 0.0
C1093 C 0.74305 0.74055 0.27605 0.0
O1094 O 0.74716 0.77388 0.21662 0.0
O1095 O 0.76753 0.75601 0.22597 0.0
O1096 O 0.72292 0.76695 0.24879 0.0
O1097 O 0.7412 0.78852 0.26701 0.0
O1098 O 0.74742 0.74344 0.25846 0.0
O1099 O 0.74599 0.75505 0.28986 0.0
C1100 C 0.75837 0.79532 0.32583 0.0
O1101 O 0.77106 0.78513 0.32012 0.0
O1102 O 0.74785 0.79975 0.3112 0.0
C1103 C 0.7924 0.77785 0.27335 0.0
Tb1104 Tb 0.76247 0.30565 0.76984 0.0
C1105 C 0.79592 0.2789 0.76869 0.0
Tb1106 Tb 0.75135 0.26154 0.75986 0.0
O1107 O 0.7552 0.30278 0.79931 0.0
O1108 O 0.76423 0.27987 0.78427 0.0
O1109 O 0.79109 0.29678 0.76817 0.0
C1110 C 0.73535 0.2242 0.76368 0.0
O1111 O 0.78252 0.26267 0.76749 0.0
C1112 C 0.75664 0.28296 0.73032 0.0
C1113 C 0.71794 0.28834 0.76105 0.0
O1114 O 0.74365 0.23034 0.74894 0.0
O1115 O 0.73625 0.239 0.77613 0.0
O1116 O 0.7593 0.26469 0.73062 0.0
O1117 O 0.74959 0.28733 0.74542 0.0
O1118 O 0.72273 0.27043 0.76163 0.0
O1119 O 0.73137 0.30451 0.76206 0.0
C1120 C 0.77877 0.34293 0.76639 0.0
O1121 O 0.76846 0.33707 0.77998 0.0
O1122 O 0.77964 0.32788 0.75478 0.0
C1123 C 0.75749 0.28441 0.7995 0.0
Tb1124 Tb 0.73851 0.77223 0.76629 0.0
C1125 C 0.77311 0.78644 0.79929 0.0
Tb1126 Tb 0.77695 0.79479 0.75659 0.0
O1127 O 0.7436 0.74566 0.74966 0.0
O1128 O 0.76652 0.76585 0.76314 0.0
O1129 O 0.75417 0.78049 0.79454 0.0
C1130 C 0.81184 0.80135 0.74447 0.0
O1131 O 0.78536 0.79206 0.78663 0.0
C1132 C 0.74955 0.81649 0.75954 0.0
C1133 C 0.74171 0.78391 0.72502 0.0
O1134 O 0.79895 0.78557 0.74025 0.0
O1135 O 0.80522 0.81363 0.75591 0.0
O1136 O 0.7639 0.82058 0.7493 0.0
O1137 O 0.75239 0.80214 0.7691 0.0
O1138 O 0.76071 0.78499 0.72891 0.0
O1139 O 0.72974 0.78115 0.73835 0.0
C1140 C 0.70633 0.75969 0.78221 0.0
O1141 O 0.70808 0.77312 0.77008 0.0
O1142 O 0.72257 0.75313 0.78507 0.0
C1143 C 0.76239 0.75046 0.75214 0.0
Tb1144 Tb 0.51391 0.55359 0.5125 0.0
C1145 C 0.51595 0.51888 0.48195 0.0
Tb1146 Tb 0.50008 0.5102 0.52189 0.0
O1147 O 0.5444 0.54923 0.51274 0.0
O1148 O 0.52528 0.53168 0.52776 0.0
O1149 O 0.51468 0.5378 0.48508 0.0
C1150 C 0.49924 0.47453 0.53499 0.0
O1151 O 0.51216 0.50569 0.4947 0.0
C1152 C 0.47224 0.53062 0.51259 0.0
C1153 C 0.49789 0.54505 0.55227 0.0
O1154 O 0.4882 0.47844 0.52031 0.0
O1155 O 0.51067 0.49057 0.54195 0.0
O1156 O 0.47009 0.51549 0.52279 0.0
O1157 O 0.48866 0.53193 0.50637 0.0
O1158 O 0.49965 0.52624 0.54923 0.0
O1159 O 0.50138 0.55818 0.53941 0.0
C1160 C 0.5148 0.58944 0.49975 0.0
O1161 O 0.52611 0.5853 0.5141 0.0
O1162 O 0.50302 0.57355 0.49302 0.0
C1163 C 0.54195 0.53346 0.52205 0.0
Tb1164 Tb 0.03096 0.53068 0.01353 0.0
C1165 C 0.02022 0.51578 0.05444 0.0
Tb1166 Tb 0.98957 0.52913 0.02464 0.0
O1167 O 0.03679 0.56303 0.01891 0.0
O1168 O 0.01724 0.54535 0.03376 0.0
O1169 O 0.03245 0.51687 0.04102 0.0
C1170 C 0.95931 0.54575 0.03265 0.0
O1171 O 0.00302 0.52159 0.05182 0.0
C1172 C 0.99626 0.49683 0.00684 0.0
C1173 C 1.00037 0.54385 0.98359 0.0
O1174 O 0.95953 0.52684 0.03202 0.0
O1175 O 0.97598 0.55493 0.02894 0.0
O1176 O 0.98264 0.49687 0.01819 0.0
O1177 O 0.00326 0.51438 0.00451 0.0
O1178 O 0.98797 0.54233 0.99686 0.0
O1179 O 0.01773 0.53839 0.9863 0.0
C1180 C 0.06283 0.51698 0.0055 0.0
O1181 O 0.06195 0.53546 0.00957 0.0
O1182 O 0.04582 0.50645 0.00578 0.0
C1183 C 0.02379 0.56288 0.03091 0.0
H1184 H 0.00913 0.2216 0.88027 0.0
H1185 H 0.00885 0.19308 0.89951 0.0
H1186 H 0.04358 0.23026 0.94563 0.0
H1187 H 0.04347 0.25878 0.92678 0.0
H1188 H 0.03731 0.17514 0.91625 0.0
H1189 H 0.99793 0.20627 0.97205 0.0
H1190 H 1.00045 0.21696 0.94956 0.0
H1191 H 0.02009 0.22197 0.96842 0.0
C1192 C 0.01682 0.22364 0.89446 0.0
C1193 C 0.02614 0.24248 0.90207 0.0
C1194 C 0.01662 0.20735 0.90546 0.0
C1195 C 0.02577 0.20961 0.92422 0.0
C1196 C 0.03591 0.22824 0.93144 0.0
H1197 H 0.03991 0.12462 0.01005 0.0
H1198 H 0.04313 0.1544 0.99217 0.0
C1199 C 0.03596 0.24451 0.92056 0.0
C1200 C 0.02458 0.19259 0.93631 0.0
H1201 H 0.0101 0.17688 0.97853 0.0
C1202 C 0.03132 0.17553 0.92984 0.0
C1203 C 0.01672 0.19306 0.95407 0.0
C1204 C 0.00821 0.21047 0.96137 0.0
C1205 C 0.03057 0.15903 0.94068 0.0
C1206 C 0.02282 0.15958 0.95842 0.0
C1207 C 0.01621 0.17663 0.96499 0.0
C1208 C 0.02047 0.14211 0.96977 0.0
C1209 C 0.03811 0.14109 0.93317 0.0
C1210 C 0.00637 0.12563 0.96331 0.0
C1211 C 0.0044 0.10881 0.97351 0.0
C1212 C 0.01655 0.10811 0.99035 0.0
C1213 C 0.03037 0.1248 0.99711 0.0
C1214 C 0.03224 0.14174 0.98692 0.0
H1215 H 0.04688 0.14429 0.92109 0.0
H1216 H 0.04713 0.13542 0.94464 0.0
H1217 H 0.02565 0.12925 0.92812 0.0
H1218 H 0.99699 0.12573 0.95024 0.0
H1219 H 0.99357 0.0962 0.96798 0.0
H1220 H 0.05805 0.76521 0.1558 0.0
H1221 H 0.09097 0.77087 0.17225 0.0
H1222 H 0.07184 0.8041 0.21838 0.0
H1223 H 0.03872 0.79774 0.20237 0.0
H1224 H 0.11757 0.80203 0.1838 0.0
H1225 H 0.09554 0.76467 0.24749 0.0
H1226 H 0.07913 0.76402 0.22619 0.0
H1227 H 0.08349 0.78525 0.24314 0.0
C1228 C 0.06087 0.7738 0.16941 0.0
C1229 C 0.04572 0.78084 0.17788 0.0
C1230 C 0.07973 0.77704 0.17882 0.0
C1231 C 0.08389 0.78751 0.19683 0.0
C1232 C 0.06895 0.79543 0.20483 0.0
H1233 H 0.20572 0.82253 0.24739 0.0
H1234 H 0.17269 0.82381 0.23338 0.0
C1235 C 0.05002 0.79192 0.19557 0.0
C1236 C 0.10371 0.7897 0.20731 0.0
H1237 H 0.12818 0.78064 0.24912 0.0
C1238 C 0.11989 0.79737 0.1981 0.0
C1239 C 0.10683 0.78337 0.22589 0.0
C1240 C 0.09036 0.77368 0.23619 0.0
C1241 C 0.13899 0.79873 0.20683 0.0
C1242 C 0.14206 0.79284 0.22559 0.0
C1243 C 0.12588 0.78538 0.23485 0.0
C1244 C 0.16187 0.79279 0.23535 0.0
C1245 C 0.15566 0.80569 0.19551 0.0
C1246 C 0.16662 0.77523 0.24208 0.0
C1247 C 0.18531 0.77457 0.25049 0.0
C1248 C 0.19985 0.79145 0.25233 0.0
C1249 C 0.19493 0.80923 0.24617 0.0
C1250 C 0.17609 0.80992 0.23792 0.0
H1251 H 0.15099 0.80452 0.17997 0.0
H1252 H 0.16151 0.82143 0.19992 0.0
H1253 H 0.16757 0.79704 0.19805 0.0
H1254 H 0.15596 0.76181 0.24037 0.0
H1255 H 0.18849 0.76057 0.25498 0.0
H1256 H 0.51354 0.86981 0.37248 0.0
H1257 H 0.51168 0.89791 0.39471 0.0
H1258 H 0.53097 0.86642 0.44175 0.0
H1259 H 0.53292 0.83826 0.41973 0.0
H1260 H 0.48777 0.89604 0.42549 0.0
H1261 H 0.56572 0.92166 0.45073 0.0
H1262 H 0.55777 0.90611 0.429 0.0
H1263 H 0.55725 0.8957 0.45167 0.0
C1264 C 0.51769 0.86892 0.38751 0.0
C1265 C 0.52336 0.85169 0.39427 0.0
C1266 C 0.51655 0.885 0.4002 0.0
C1267 C 0.5213 0.88431 0.41986 0.0
C1268 C 0.52748 0.86739 0.42661 0.0
H1269 H 0.48657 0.9573 0.51192 0.0
H1270 H 0.49227 0.92952 0.49092 0.0
C1271 C 0.52851 0.85126 0.41397 0.0
C1272 C 0.51863 0.90075 0.4334 0.0
H1273 H 0.54285 0.93618 0.467 0.0
C1274 C 0.4998 0.90484 0.43455 0.0
C1275 C 0.53438 0.91224 0.44514 0.0
C1276 C 0.55497 0.90889 0.44404 0.0
C1277 C 0.49626 0.92001 0.44726 0.0
C1278 C 0.51196 0.93129 0.45924 0.0
C1279 C 0.53082 0.92735 0.45795 0.0
C1280 C 0.50914 0.94784 0.47255 0.0
C1281 C 0.47582 0.92411 0.44754 0.0
C1282 C 0.51703 0.96726 0.46938 0.0
C1283 C 0.51373 0.98307 0.48126 0.0
C1284 C 0.5027 0.97975 0.49672 0.0
C1285 C 0.49512 0.96027 0.50012 0.0
C1286 C 0.49832 0.94443 0.48812 0.0
H1287 H 0.46608 0.91672 0.43497 0.0
H1288 H 0.46986 0.9186 0.46058 0.0
H1289 H 0.47566 0.94023 0.4479 0.0
H1290 H 0.5254 0.97022 0.45745 0.0
H1291 H 0.51958 0.99792 0.47812 0.0
H1292 H 0.40987 0.25292 0.64674 0.0
H1293 H 0.38306 0.25496 0.66607 0.0
H1294 H 0.42373 0.2699 0.71643 0.0
H1295 H 0.45071 0.26782 0.69728 0.0
H1296 H 0.39115 0.24086 0.72116 0.0
H1297 H 0.36892 0.30654 0.68925 0.0
H1298 H 0.37048 0.28639 0.67242 0.0
H1299 H 0.39209 0.29918 0.68638 0.0
C1300 C 0.41319 0.25665 0.66193 0.0
C1301 C 0.43257 0.26032 0.67038 0.0
C1302 C 0.3978 0.2579 0.67295 0.0
C1303 C 0.40139 0.26287 0.69266 0.0
C1304 C 0.42062 0.26614 0.70122 0.0
H1305 H 0.32445 0.30255 0.77039 0.0
H1306 H 0.35078 0.29885 0.7507 0.0
C1307 C 0.43605 0.26497 0.69022 0.0
C1308 C 0.3851 0.26461 0.70437 0.0
H1309 H 0.34859 0.29096 0.71076 0.0
C1310 C 0.38183 0.2518 0.71889 0.0
C1311 C 0.37306 0.27903 0.70152 0.0
C1312 C 0.37634 0.2937 0.68667 0.0
C1313 C 0.36676 0.2529 0.7305 0.0
C1314 C 0.3545 0.26707 0.72742 0.0
C1315 C 0.35789 0.28 0.71302 0.0
C1316 C 0.33845 0.26912 0.73934 0.0
C1317 C 0.36432 0.23914 0.74624 0.0
C1318 C 0.32267 0.2537 0.73943 0.0
C1319 C 0.30763 0.25578 0.75073 0.0
C1320 C 0.30803 0.27338 0.762 0.0
C1321 C 0.32381 0.28879 0.76189 0.0
C1322 C 0.3388 0.28673 0.75058 0.0
H1323 H 0.37745 0.23235 0.74952 0.0
H1324 H 0.3612 0.24706 0.75945 0.0
H1325 H 0.35189 0.2271 0.74177 0.0
H1326 H 0.32193 0.24007 0.73071 0.0
H1327 H 0.29581 0.24356 0.75079 0.0
H1328 H 0.00594 0.84161 0.57753 0.0
H1329 H 0.01019 0.8706 0.55912 0.0
H1330 H 0.03654 0.90675 0.60971 0.0
H1331 H 0.0322 0.87796 0.62834 0.0
H1332 H 0.00696 0.92185 0.59019 0.0
H1333 H 0.05915 0.90179 0.54124 0.0
H1334 H 0.03823 0.883 0.54152 0.0
H1335 H 0.05492 0.88952 0.5627 0.0
C1336 C 0.01284 0.85567 0.58474 0.0
C1337 C 0.01866 0.85744 0.60445 0.0
C1338 C 0.01537 0.87219 0.57415 0.0
C1339 C 0.0239 0.89073 0.58303 0.0
C1340 C 0.03001 0.89252 0.6026 0.0
H1341 H 0.04946 0.99986 0.52589 0.0
H1342 H 0.05275 0.97174 0.54509 0.0
C1343 C 0.02748 0.87603 0.61321 0.0
C1344 C 0.02514 0.90848 0.57218 0.0
H1345 H 0.04273 0.92847 0.53298 0.0
C1346 C 0.01494 0.92339 0.5778 0.0
C1347 C 0.03576 0.91054 0.55617 0.0
C1348 C 0.0478 0.89546 0.55013 0.0
C1349 C 0.01446 0.93999 0.56737 0.0
C1350 C 0.02425 0.94152 0.55083 0.0
C1351 C 0.03507 0.92704 0.54559 0.0
C1352 C 0.02274 0.95778 0.53846 0.0
C1353 C 0.0034 0.95574 0.574 0.0
C1354 C 0.00493 0.95883 0.52814 0.0
C1355 C 0.00306 0.97473 0.51724 0.0
C1356 C 0.01896 0.98986 0.51666 0.0
C1357 C 0.03697 0.98845 0.52642 0.0
C1358 C 0.03887 0.97244 0.53727 0.0
H1359 H 1.00025 0.95449 0.58903 0.0
H1360 H 0.01168 0.97068 0.57267 0.0
H1361 H 0.98937 0.95423 0.56492 0.0
H1362 H 0.9924 0.94749 0.52878 0.0
H1363 H 0.98902 0.97553 0.50981 0.0
H1364 H 0.46707 0.80215 0.9125 0.0
H1365 H 0.43659 0.80077 0.8918 0.0
H1366 H 0.45632 0.76159 0.85075 0.0
H1367 H 0.48614 0.76228 0.87176 0.0
H1368 H 0.43102 0.81229 0.85669 0.0
H1369 H 0.40348 0.73219 0.85525 0.0
H1370 H 0.42369 0.74434 0.87169 0.0
H1371 H 0.42727 0.73708 0.84753 0.0
C1372 C 0.46469 0.79317 0.89911 0.0
C1373 C 0.47898 0.78279 0.89332 0.0
C1374 C 0.4474 0.79241 0.88731 0.0
C1375 C 0.44413 0.78094 0.8698 0.0
C1376 C 0.45832 0.77021 0.86433 0.0
H1377 H 0.35503 0.79725 0.77892 0.0
H1378 H 0.38647 0.79692 0.79733 0.0
C1379 C 0.47546 0.77086 0.87617 0.0
C1380 C 0.42618 0.78064 0.85697 0.0
H1381 H 0.3879 0.74979 0.83213 0.0
C1382 C 0.42153 0.79865 0.85137 0.0
C1383 C 0.41376 0.76281 0.85018 0.0
C1384 C 0.41719 0.74305 0.85663 0.0
C1385 C 0.40475 0.79935 0.83916 0.0
C1386 C 0.39262 0.78147 0.83196 0.0
C1387 C 0.39736 0.76347 0.83748 0.0
C1388 C 0.37404 0.78107 0.82004 0.0
C1389 C 0.39989 0.81923 0.83466 0.0
C1390 C 0.3568 0.77156 0.82628 0.0
C1391 C 0.33905 0.77134 0.81563 0.0
C1392 C 0.33817 0.7808 0.79862 0.0
C1393 C 0.3554 0.78999 0.79208 0.0
C1394 C 0.37328 0.78995 0.80266 0.0
H1395 H 0.40788 0.83122 0.84505 0.0
H1396 H 0.40408 0.82258 0.82031 0.0
H1397 H 0.38409 0.81933 0.83463 0.0
H1398 H 0.35703 0.76456 0.8396 0.0
H1399 H 0.32596 0.76412 0.82098 0.0
H1400 H 0.46462 0.22283 0.11098 0.0
H1401 H 0.46256 0.19004 0.09414 0.0
H1402 H 0.49952 0.21594 0.05366 0.0
H1403 H 0.50169 0.24848 0.07047 0.0
H1404 H 0.45078 0.17774 0.05198 0.0
H1405 H 0.52668 0.1721 0.07859 0.0
H1406 H 0.51313 0.18881 0.08993 0.0
H1407 H 0.52346 0.19472 0.06828 0.0
C1408 C 0.47211 0.2214 0.09838 0.0
C1409 C 0.48285 0.23804 0.0916 0.0
C1410 C 0.47089 0.20281 0.08879 0.0
C1411 C 0.48085 0.20072 0.07268 0.0
C1412 C 0.49173 0.21734 0.06606 0.0
H1413 H 0.51083 0.1032 0.00704 0.0
H1414 H 0.50437 0.13579 0.01726 0.0
C1415 C 0.49286 0.23586 0.07556 0.0
C1416 C 0.48081 0.18106 0.06325 0.0
H1417 H 0.5105 0.14764 0.05516 0.0
C1418 C 0.46377 0.17106 0.05265 0.0
C1419 C 0.49782 0.17253 0.06426 0.0
C1420 C 0.5163 0.18246 0.07599 0.0
C1421 C 0.46346 0.15278 0.04258 0.0
C1422 C 0.48054 0.1443 0.0435 0.0
C1423 C 0.49748 0.1543 0.05429 0.0
C1424 C 0.48131 0.12474 0.03407 0.0
C1425 C 0.44503 0.14291 0.03078 0.0
C1426 C 0.46999 0.10774 0.0396 0.0
C1427 C 0.47354 0.08908 0.03364 0.0
C1428 C 0.48868 0.08718 0.02232 0.0
C1429 C 0.49914 0.10419 0.01583 0.0
C1430 C 0.49546 0.12282 0.02164 0.0
H1431 H 0.43526 0.15364 0.02721 0.0
H1432 H 0.44824 0.13549 0.01735 0.0
H1433 H 0.43715 0.13156 0.03902 0.0
H1434 H 0.45929 0.10889 0.0495 0.0
H1435 H 0.46535 0.07626 0.03905 0.0
H1436 H 0.09236 0.31077 0.38891 0.0
H1437 H 0.11952 0.30014 0.3744 0.0
H1438 H 0.10273 0.24142 0.39181 0.0
H1439 H 0.07544 0.25202 0.40653 0.0
H1440 H 0.15159 0.27796 0.38671 0.0
H1441 H 0.09416 0.239 0.3311 0.0
H1442 H 0.08944 0.25791 0.34797 0.0
H1443 H 0.0921 0.23406 0.35562 0.0
C1444 C 0.09485 0.29577 0.39024 0.0
C1445 C 0.08173 0.28217 0.39869 0.0
C1446 C 0.11036 0.28972 0.38195 0.0
C1447 C 0.11288 0.26996 0.38183 0.0
C1448 C 0.10088 0.25672 0.39172 0.0
H1449 H 0.2044 0.23727 0.31534 0.0
H1450 H 0.18107 0.23515 0.33917 0.0
C1451 C 0.08542 0.26284 0.40023 0.0
C1452 C 0.12622 0.263 0.36905 0.0
H1453 H 0.12645 0.24178 0.32418 0.0
C1454 C 0.14622 0.26963 0.37323 0.0
C1455 C 0.11898 0.25242 0.35137 0.0
C1456 C 0.0975 0.24545 0.34607 0.0
C1457 C 0.15918 0.26658 0.35983 0.0
C1458 C 0.15185 0.2566 0.34189 0.0
C1459 C 0.13194 0.2493 0.33801 0.0
C1460 C 0.16435 0.2556 0.32632 0.0
C1461 C 0.18045 0.27504 0.36447 0.0
C1462 C 0.1621 0.26716 0.31085 0.0
C1463 C 0.17534 0.26838 0.29724 0.0
C1464 C 0.19092 0.25795 0.29889 0.0
C1465 C 0.19248 0.24546 0.31377 0.0
C1466 C 0.17927 0.24431 0.32742 0.0
H1467 H 0.18336 0.28452 0.37806 0.0
H1468 H 0.18891 0.26282 0.36574 0.0
H1469 H 0.18579 0.28391 0.35284 0.0
H1470 H 0.15061 0.27594 0.30979 0.0
H1471 H 0.17387 0.27814 0.28593 0.0
H1472 H 0.92218 0.08533 0.21005 0.0
H1473 H 0.94093 0.089 0.18267 0.0
H1474 H 0.89917 0.04335 0.15022 0.0
H1475 H 0.87994 0.04024 0.17733 0.0
H1476 H 0.95911 0.06372 0.16726 0.0
H1477 H 0.9065 0.08165 0.11065 0.0
H1478 H 0.90194 0.08227 0.13536 0.0
H1479 H 0.89702 0.0593 0.12073 0.0
C1480 C 0.91678 0.07636 0.19694 0.0
C1481 C 0.89953 0.06254 0.19584 0.0
C1482 C 0.92755 0.07844 0.18128 0.0
C1483 C 0.92143 0.06664 0.16419 0.0
C1484 C 0.90399 0.05306 0.16297 0.0
H1485 H 0.99353 0.02575 0.08501 0.0
H1486 H 0.97589 0.03306 0.11178 0.0
C1487 C 0.89303 0.05119 0.17855 0.0
C1488 C 0.93417 0.06731 0.14837 0.0
H1489 H 0.93415 0.06899 0.10011 0.0
C1490 C 0.95366 0.06516 0.15263 0.0
C1491 C 0.92733 0.06956 0.12924 0.0
C1492 C 0.90711 0.07355 0.12376 0.0
C1493 C 0.96617 0.06437 0.13832 0.0
C1494 C 0.95892 0.06511 0.11904 0.0
C1495 C 0.9397 0.06815 0.11483 0.0
C1496 C 0.97061 0.06146 0.10304 0.0
C1497 C 0.98708 0.06276 0.14409 0.0
C1498 C 0.97332 0.07481 0.08885 0.0
C1499 C 0.98335 0.07055 0.07324 0.0
C1500 C 0.99074 0.05279 0.07147 0.0
C1501 C 0.98824 0.03966 0.0859 0.0
C1502 C 0.97821 0.04388 0.10137 0.0
H1503 H 0.99192 0.06945 0.15881 0.0
H1504 H 0.98854 0.04695 0.14387 0.0
H1505 H 0.9969 0.0701 0.13426 0.0
H1506 H 0.96746 0.0884 0.08972 0.0
H1507 H 0.98472 0.08086 0.06228 0.0
H1508 H 0.29256 0.71965 0.46565 0.0
H1509 H 0.28887 0.7389 0.43776 0.0
H1510 H 0.28214 0.68577 0.4006 0.0
H1511 H 0.28605 0.6666 0.42809 0.0
H1512 H 0.30573 0.71583 0.38698 0.0
H1513 H 0.23813 0.74111 0.40528 0.0
H1514 H 0.25829 0.74739 0.42344 0.0
H1515 H 0.24793 0.72192 0.41725 0.0
C1516 C 0.29048 0.71208 0.45155 0.0
C1517 C 0.28958 0.69146 0.44931 0.0
C1518 C 0.28815 0.7231 0.43556 0.0
C1519 C 0.28484 0.71381 0.41694 0.0
C1520 C 0.28455 0.69337 0.41471 0.0
H1521 H 0.23886 0.75962 0.31133 0.0
H1522 H 0.24359 0.74092 0.33955 0.0
C1523 C 0.28681 0.68239 0.43058 0.0
C1524 C 0.28167 0.7251 0.39969 0.0
H1525 H 0.25172 0.75385 0.37822 0.0
C1526 C 0.29393 0.72417 0.38513 0.0
C1527 C 0.26606 0.73573 0.39693 0.0
C1528 C 0.25171 0.73651 0.41144 0.0
C1529 C 0.29122 0.73369 0.3682 0.0
C1530 C 0.27594 0.74478 0.36568 0.0
C1531 C 0.2635 0.74549 0.38009 0.0
C1532 C 0.27292 0.75599 0.34836 0.0
C1533 C 0.30456 0.73142 0.35296 0.0
C1534 C 0.28766 0.77084 0.34389 0.0
C1535 C 0.285 0.78139 0.32777 0.0
C1536 C 0.26751 0.77747 0.31563 0.0
C1537 C 0.25263 0.76276 0.32016 0.0
C1538 C 0.25528 0.75218 0.3364 0.0
H1539 H 0.3116 0.7182 0.35454 0.0
H1540 H 0.29657 0.73022 0.3385 0.0
H1541 H 0.31619 0.74456 0.35414 0.0
H1542 H 0.30124 0.77444 0.35299 0.0
H1543 H 0.29676 0.79267 0.32478 0.0
H1544 H 0.56144 0.98693 0.73452 0.0
H1545 H 0.54689 0.98808 0.70174 0.0
H1546 H 0.60397 0.99942 0.68281 0.0
H1547 H 0.6186 0.99827 0.71546 0.0
H1548 H 0.55292 0.02065 0.67888 0.0
H1549 H 0.57508 0.95462 0.64428 0.0
H1550 H 0.57536 0.95853 0.66981 0.0
H1551 H 0.59456 0.97136 0.65786 0.0
C1552 C 0.5709 0.98938 0.72334 0.0
C1553 C 0.59121 0.99242 0.72767 0.0
C1554 C 0.56255 0.99011 0.7046 0.0
C1555 C 0.57429 0.99363 0.68969 0.0
C1556 C 0.59456 0.99633 0.69393 0.0
H1557 H 0.55756 0.01257 0.56924 0.0
H1558 H 0.56963 0.00655 0.60155 0.0
C1559 C 0.60292 0.99574 0.71267 0.0
C1560 C 0.56544 0.99556 0.66995 0.0
H1561 H 0.56201 0.97633 0.62373 0.0
C1562 C 0.55476 0.01085 0.66684 0.0
C1563 C 0.56794 0.98289 0.65418 0.0
C1564 C 0.57871 0.96581 0.65664 0.0
C1565 C 0.54699 0.01416 0.64842 0.0
C1566 C 0.54948 1.00148 0.6326 0.0
C1567 C 0.56003 0.98606 0.63576 0.0
C1568 C 0.54172 0.00429 0.61264 0.0
C1569 C 0.53682 0.03169 0.64606 0.0
C1570 C 0.52186 0.00456 0.60779 0.0
C1571 C 0.51489 0.00814 0.58927 0.0
C1572 C 0.52756 0.01129 0.57503 0.0
C1573 C 0.54731 0.01027 0.57975 0.0
C1574 C 0.55428 0.00681 0.5983 0.0
H1575 H 0.54094 0.04288 0.65837 0.0
H1576 H 0.54025 0.03886 0.63286 0.0
H1577 H 0.5209 0.02668 0.64511 0.0
H1578 H 0.51172 1.00211 0.61837 0.0
H1579 H 0.49958 0.00865 0.5862 0.0
H1580 H 0.27167 0.4205 0.96755 0.0
H1581 H 0.26876 0.39915 0.93814 0.0
H1582 H 0.26059 0.34775 0.97033 0.0
H1583 H 0.26299 0.36884 0.99968 0.0
H1584 H 0.29123 0.37228 0.92819 0.0
H1585 H 0.21504 0.33529 0.92937 0.0
H1586 H 0.22558 0.35707 0.94462 0.0
H1587 H 0.2304 0.33322 0.95067 0.0
C1588 C 0.26914 0.40465 0.96837 0.0
C1589 C 0.2674 0.39639 0.98595 0.0
C1590 C 0.26749 0.39249 0.95156 0.0
C1591 C 0.26411 0.37189 0.95206 0.0
C1592 C 0.26268 0.3636 0.96959 0.0
H1593 H 0.28385 0.29199 0.85807 0.0
H1594 H 0.28473 0.30911 0.88967 0.0
C1595 C 0.26417 0.37572 0.98637 0.0
C1596 C 0.26272 0.35908 0.9343 0.0
H1597 H 0.23301 0.32207 0.90635 0.0
C1598 C 0.2785 0.36132 0.92337 0.0
C1599 C 0.24601 0.34493 0.92803 0.0
C1600 C 0.22821 0.34257 0.93868 0.0
C1601 C 0.27804 0.34976 0.90629 0.0
C1602 C 0.26154 0.33525 0.90028 0.0
C1603 C 0.24574 0.33303 0.91118 0.0
C1604 C 0.25991 0.32313 0.88206 0.0
C1605 C 0.29499 0.3536 0.89459 0.0
C1606 C 0.24509 0.32459 0.86773 0.0
C1607 C 0.24442 0.31466 0.84985 0.0
C1608 C 0.25859 0.30316 0.84606 0.0
C1609 C 0.27287 0.30092 0.86066 0.0
C1610 C 0.27345 0.31077 0.87862 0.0
H1611 H 0.30414 0.36824 0.89879 0.0
H1612 H 0.30426 0.34216 0.89678 0.0
H1613 H 0.28992 0.35293 0.87916 0.0
H1614 H 0.23443 0.33397 0.87017 0.0
H1615 H 0.2332 0.31653 0.83882 0.0
H1616 H 0.86647 0.04289 0.31975 0.0
H1617 H 0.8872 0.0456 0.34979 0.0
H1618 H 0.93685 0.06904 0.32166 0.0
H1619 H 0.91623 0.06639 0.29134 0.0
H1620 H 0.92089 0.02599 0.35503 0.0
H1621 H 0.93842 0.10744 0.37084 0.0
H1622 H 0.91742 0.09563 0.35509 0.0
H1623 H 0.94114 0.09793 0.34713 0.0
C1624 C 0.88175 0.04884 0.31988 0.0
C1625 C 0.88965 0.05438 0.30304 0.0
C1626 C 0.89357 0.05036 0.33711 0.0
C1627 C 0.91349 0.05763 0.33794 0.0
C1628 C 0.92144 0.06361 0.32132 0.0
H1629 H 0.99884 0.03748 0.42935 0.0
H1630 H 0.98179 0.04088 0.39817 0.0
C1631 C 0.90963 0.062 0.30401 0.0
C1632 C 0.92603 0.0577 0.356 0.0
H1633 H 0.95357 0.0879 0.39199 0.0
C1634 C 0.92811 0.03951 0.3631 0.0
C1635 C 0.93525 0.07538 0.36649 0.0
C1636 C 0.93293 0.09527 0.35966 0.0
C1637 C 0.93916 0.03849 0.38049 0.0
C1638 C 0.94857 0.05616 0.39094 0.0
C1639 C 0.94646 0.07439 0.38385 0.0
C1640 C 0.96008 0.05589 0.40958 0.0
C1641 C 0.94024 0.01849 0.38776 0.0
C1642 C 0.95398 0.06391 0.42625 0.0
C1643 C 0.96378 0.0621 0.44406 0.0
C1644 C 0.97983 0.05227 0.44543 0.0
C1645 C 0.98639 0.04498 0.42869 0.0
C1646 C 0.97664 0.04684 0.4109 0.0
H1647 H 0.92866 0.00685 0.38035 0.0
H1648 H 0.95448 0.01435 0.38525 0.0
H1649 H 0.93896 0.01877 0.40331 0.0
H1650 H 0.94127 0.07101 0.42552 0.0
H1651 H 0.95849 0.06793 0.45677 0.0
H1652 H 0.29539 0.66991 0.57429 0.0
H1653 H 0.29269 0.68428 0.6062 0.0
H1654 H 0.30457 0.74264 0.58663 0.0
H1655 H 0.30781 0.72831 0.55469 0.0
H1656 H 0.3223 0.74201 0.62222 0.0
H1657 H 0.24569 0.70578 0.62049 0.0
H1658 H 0.26183 0.68844 0.61734 0.0
H1659 H 0.25875 0.70579 0.59971 0.0
C1660 C 0.29767 0.68583 0.57678 0.0
C1661 C 0.30174 0.69791 0.56179 0.0
C1662 C 0.29592 0.69405 0.59507 0.0
C1663 C 0.29786 0.7146 0.59886 0.0
C1664 C 0.30282 0.72675 0.58414 0.0
H1665 H 0.25075 0.76991 0.69471 0.0
H1666 H 0.25786 0.75747 0.66349 0.0
C1667 C 0.30473 0.71852 0.56584 0.0
C1668 C 0.29429 0.72332 0.61797 0.0
H1669 H 0.26061 0.72169 0.65017 0.0
C1670 C 0.30878 0.73758 0.62829 0.0
C1671 C 0.27653 0.71793 0.62592 0.0
C1672 C 0.25973 0.70381 0.61522 0.0
C1673 C 0.30616 0.74624 0.64629 0.0
C1674 C 0.28869 0.74025 0.65456 0.0
C1675 C 0.27411 0.72622 0.64409 0.0
C1676 C 0.28494 0.74859 0.67377 0.0
C1677 C 0.32201 0.76211 0.65602 0.0
C1678 C 0.29767 0.7478 0.69024 0.0
C1679 C 0.2937 0.75514 0.7082 0.0
C1680 C 0.27674 0.76322 0.71026 0.0
C1681 C 0.26397 0.76388 0.69378 0.0
C1682 C 0.26803 0.7567 0.67583 0.0
H1683 H 0.33143 0.7691 0.64567 0.0
H1684 H 0.31587 0.77378 0.66373 0.0
H1685 H 0.3313 0.75545 0.66649 0.0
H1686 H 0.31053 0.74115 0.68931 0.0
H1687 H 0.30375 0.75406 0.72054 0.0
H1688 H 0.62428 0.00539 0.86124 0.0
H1689 H 0.60583 0.00842 0.88834 0.0
H1690 H 0.55278 1.00045 0.85061 0.0
H1691 H 0.57134 0.99773 0.82301 0.0
H1692 H 0.55468 0.03098 0.8784 0.0
H1693 H 0.57271 0.96504 0.91228 0.0
H1694 H 0.59397 0.98167 0.9078 0.0
H1695 H 0.57723 0.96961 0.88811 0.0
C1696 C 0.60866 0.00407 0.85853 0.0
C1697 C 0.59937 1.00112 0.83974 0.0
C1698 C 0.59808 0.00574 0.87419 0.0
C1699 C 0.57782 0.00433 0.87169 0.0
C1700 C 0.56839 1.00146 0.85299 0.0
H1701 H 0.50594 0.98794 0.96545 0.0
H1702 H 0.52235 0.98479 0.93678 0.0
C1703 C 0.57903 0.99981 0.83719 0.0
C1704 C 0.56675 0.00631 0.88864 0.0
H1705 H 0.55932 0.9878 0.9317 0.0
C1706 C 0.55558 0.02144 0.88999 0.0
C1707 C 0.5677 0.9938 0.90378 0.0
C1708 C 0.57838 0.9765 0.90288 0.0
C1709 C 0.54573 0.02463 0.90612 0.0
C1710 C 0.54735 0.01262 0.92161 0.0
C1711 C 0.55822 0.99725 0.92005 0.0
C1712 C 0.53726 0.01505 0.9392 0.0
C1713 C 0.53336 0.0406 0.90621 0.0
C1714 C 0.54022 0.03308 0.95049 0.0
C1715 C 0.53064 0.03497 0.96697 0.0
C1716 C 0.51808 0.0188 0.97261 0.0
C1717 C 0.51542 1.00075 0.96148 0.0
C1718 C 0.52487 0.99889 0.94505 0.0
H1719 H 0.52926 0.04456 0.89155 0.0
H1720 H 0.51989 0.03597 0.91301 0.0
H1721 H 0.54169 0.05405 0.91439 0.0
H1722 H 0.55005 0.04567 0.94667 0.0
H1723 H 0.53299 0.04906 0.97521 0.0
H1724 H 0.21938 0.36641 0.06938 0.0
H1725 H 0.20844 0.34648 0.09495 0.0
H1726 H 0.25151 0.38316 0.13515 0.0
H1727 H 0.2619 0.40367 0.10971 0.0
H1728 H 0.22878 0.32454 0.11324 0.0
H1729 H 0.20725 0.37605 0.1667 0.0
H1730 H 0.21084 0.38259 0.14279 0.0
H1731 H 0.23118 0.38534 0.16092 0.0
C1732 C 0.2262 0.3705 0.08377 0.0
C1733 C 0.24153 0.38653 0.08759 0.0
C1734 C 0.21992 0.3591 0.09837 0.0
C1735 C 0.22899 0.36337 0.11705 0.0
C1736 C 0.24388 0.37985 0.121 0.0
H1737 H 0.26318 0.29074 0.19838 0.0
H1738 H 0.25471 0.30604 0.16942 0.0
C1739 C 0.24993 0.3915 0.10642 0.0
C1740 C 0.22466 0.34926 0.13176 0.0
H1741 H 0.21814 0.34684 0.17882 0.0
C1742 C 0.22601 0.32937 0.12746 0.0
C1743 C 0.22058 0.35532 0.15022 0.0
C1744 C 0.21715 0.37596 0.15533 0.0
C1745 C 0.22482 0.31578 0.14145 0.0
C1746 C 0.22282 0.32235 0.16037 0.0
C1747 C 0.21997 0.34184 0.16436 0.0
C1748 C 0.22622 0.3102 0.17655 0.0
C1749 C 0.22626 0.29462 0.13587 0.0
C1750 C 0.21298 0.30727 0.19025 0.0
C1751 C 0.2179 0.2986 0.20704 0.0
C1752 C 0.23623 0.29297 0.21045 0.0
C1753 C 0.24895 0.29492 0.19621 0.0
C1754 C 0.24405 0.30355 0.17952 0.0
H1755 H 0.22005 0.29034 0.12087 0.0
H1756 H 0.24178 0.29294 0.13693 0.0
H1757 H 0.2186 0.28431 0.14526 0.0
H1758 H 0.1992 0.31242 0.18828 0.0
H1759 H 0.20786 0.29745 0.21781 0.0
H1760 H 0.17689 0.92412 0.04903 0.0
H1761 H 0.14999 0.94245 0.05161 0.0
H1762 H 0.13368 0.93116 0.99107 0.0
H1763 H 0.16126 0.91388 0.98845 0.0
H1764 H 0.13526 0.96754 0.9991 0.0
H1765 H 0.09335 0.93103 0.05319 0.0
H1766 H 0.11828 0.93892 0.06232 0.0
H1767 H 0.11205 0.9203 0.04269 0.0
C1768 C 0.16705 0.92486 0.03644 0.0
C1769 C 0.17092 0.91712 0.01861 0.0
C1770 C 0.15163 0.93544 0.03788 0.0
C1771 C 0.13943 0.93817 0.02157 0.0
C1772 C 0.14273 0.9294 1.00393 0.0
H1773 H 0.03544 0.99375 0.02312 0.0
H1774 H 0.05845 0.97075 0.02309 0.0
C1775 C 0.15837 0.91925 1.00244 0.0
C1776 C 0.12462 0.9517 0.02241 0.0
H1777 H 0.08729 0.96331 0.04645 0.0
C1778 C 0.12469 0.96641 0.0094 0.0
C1779 C 0.11052 0.95036 0.03562 0.0
C1780 C 0.10839 0.93416 0.04909 0.0
C1781 C 0.11141 0.97973 0.00931 0.0
C1782 C 0.09802 0.97907 0.02317 0.0
C1783 C 0.0977 0.96419 0.03601 0.0
C1784 C 0.08397 0.99333 0.02426 0.0
C1785 C 0.11158 0.99397 0.99389 0.0
C1786 C 0.09038 0.01387 0.02535 0.0
C1787 C 0.07707 0.02707 0.02532 0.0
C1788 C 0.05703 0.02016 0.02482 0.0
C1789 C 0.05068 0.99969 0.02428 0.0
C1790 C 0.06394 0.98645 0.02402 0.0
H1791 H 0.11791 0.98846 0.98121 0.0
H1792 H 0.09671 0.9966 0.98926 0.0
H1793 H 0.12066 0.00826 0.9994 0.0
H1794 H 0.10573 0.01976 0.02611 0.0
H1795 H 0.08249 0.04275 0.02571 0.0
H1796 H 0.70824 0.66853 0.95911 0.0
H1797 H 0.67389 0.65322 0.95924 0.0
H1798 H 0.69155 0.6098 0.99552 0.0
H1799 H 0.72549 0.62501 0.99556 0.0
H1800 H 0.65606 0.60686 0.951 0.0
H1801 H 0.65235 0.64248 0.02295 0.0
H1802 H 0.66922 0.65276 0.0069 0.0
H1803 H 0.67387 0.63208 0.0198 0.0
C1804 C 0.70466 0.65557 0.96686 0.0
C1805 C 0.71937 0.64754 0.97689 0.0
C1806 C 0.68517 0.64687 0.9669 0.0
C1807 C 0.68034 0.63041 0.97736 0.0
C1808 C 0.69507 0.62246 0.98733 0.0
H1809 H 0.59123 0.55313 0.01916 0.0
H1810 H 0.62063 0.57307 0.01035 0.0
C1811 C 0.7144 0.63105 0.98723 0.0
C1812 C 0.65996 0.62189 0.979 0.0
H1813 H 0.62752 0.61533 0.01197 0.0
C1814 C 0.64957 0.60892 0.96415 0.0
C1815 C 0.65172 0.62471 0.99621 0.0
C1816 C 0.66225 0.63887 0.01238 0.0
C1817 C 0.63143 0.59778 0.96651 0.0
C1818 C 0.62359 0.59996 0.98408 0.0
C1819 C 0.63364 0.61364 0.99856 0.0
C1820 C 0.60568 0.58725 0.98836 0.0
C1821 C 0.62126 0.58304 0.95064 0.0
C1822 C 0.58756 0.58864 0.97887 0.0
C1823 C 0.57068 0.57723 0.98385 0.0
C1824 C 0.57168 0.56432 0.99849 0.0
C1825 C 0.58992 0.5629 0.00783 0.0
C1826 C 0.60674 0.57427 1.00282 0.0
H1827 H 0.63069 0.58096 0.93917 0.0
H1828 H 0.61648 0.56854 0.95627 0.0
H1829 H 0.60813 0.5883 0.9443 0.0
H1830 H 0.58643 0.59884 0.9679 0.0
H1831 H 0.55684 0.57887 0.9765 0.0
H1832 H 0.65878 0.45255 0.26882 0.0
H1833 H 0.6735 0.42359 0.26085 0.0
H1834 H 0.70643 0.43131 0.31622 0.0
H1835 H 0.69213 0.4603 0.32417 0.0
H1836 H 0.72922 0.42879 0.28708 0.0
H1837 H 0.66633 0.36729 0.27736 0.0
H1838 H 0.6637 0.38806 0.26372 0.0
H1839 H 0.66517 0.39095 0.28927 0.0
C1840 C 0.66884 0.44783 0.27946 0.0
C1841 C 0.6743 0.45884 0.29713 0.0
C1842 C 0.67722 0.43122 0.27488 0.0
C1843 C 0.69102 0.42519 0.28797 0.0
C1844 C 0.69585 0.43568 0.30587 0.0
H1845 H 0.7672 0.34063 0.29989 0.0
H1846 H 0.74757 0.36668 0.30282 0.0
C1847 C 0.68761 0.45228 0.31041 0.0
C1848 C 0.70176 0.40909 0.28267 0.0
H1849 H 0.69672 0.35957 0.27043 0.0
C1850 C 0.72207 0.41367 0.28341 0.0
C1851 C 0.69244 0.38939 0.27767 0.0
C1852 C 0.67072 0.3835 0.27707 0.0
C1853 C 0.73334 0.3991 0.27966 0.0
C1854 C 0.7241 0.37933 0.27523 0.0
C1855 C 0.70375 0.37476 0.27386 0.0
C1856 C 0.73553 0.36313 0.27325 0.0
C1857 C 0.75509 0.40496 0.28056 0.0
C1858 C 0.7351 0.3523 0.25568 0.0
C1859 C 0.74646 0.33744 0.25395 0.0
C1860 C 0.75813 0.333 0.26982 0.0
C1861 C 0.75844 0.34382 0.28737 0.0
C1862 C 0.74719 0.35866 0.28908 0.0
H1863 H 0.75944 0.42103 0.27929 0.0
H1864 H 0.76185 0.40138 0.29446 0.0
H1865 H 0.76097 0.39673 0.26908 0.0
H1866 H 0.72623 0.35557 0.24328 0.0
H1867 H 0.74632 0.32959 0.24018 0.0
H1868 H 0.7853 0.39694 0.5038 0.0
H1869 H 0.81856 0.41518 0.50532 0.0
H1870 H 0.80378 0.46017 0.54379 0.0
H1871 H 0.7704 0.44221 0.54172 0.0
H1872 H 0.82334 0.47655 0.51749 0.0
H1873 H 0.86272 0.41971 0.54621 0.0
H1874 H 0.84781 0.41077 0.52445 0.0
H1875 H 0.83668 0.41753 0.54526 0.0
C1876 C 0.78925 0.41073 0.51255 0.0
C1877 C 0.77529 0.41852 0.52222 0.0
C1878 C 0.80828 0.42104 0.51359 0.0
C1879 C 0.81383 0.43894 0.52491 0.0
C1880 C 0.79991 0.44641 0.53497 0.0
H1881 H 0.93437 0.49786 0.5518 0.0
H1882 H 0.9013 0.48033 0.55346 0.0
C1883 C 0.78083 0.43624 0.5337 0.0
C1884 C 0.83387 0.45033 0.52561 0.0
H1885 H 0.88196 0.44692 0.53365 0.0
C1886 C 0.83611 0.47007 0.52106 0.0
C1887 C 0.85065 0.44204 0.53073 0.0
C1888 C 0.84937 0.42142 0.53714 0.0
C1889 C 0.85452 0.48158 0.52094 0.0
C1890 C 0.87128 0.47301 0.52512 0.0
C1891 C 0.86911 0.45342 0.53019 0.0
C1892 C 0.89118 0.48408 0.52424 0.0
C1893 C 0.85577 0.50291 0.51661 0.0
C1894 C 0.89653 0.49196 0.50726 0.0
C1895 C 0.91534 0.50211 0.50635 0.0
C1896 C 0.92922 0.50435 0.52233 0.0
C1897 C 0.92392 0.4964 0.53929 0.0
C1898 C 0.90506 0.48634 0.54023 0.0
H1899 H 0.84234 0.50865 0.51949 0.0
H1900 H 0.86835 0.51236 0.52516 0.0
H1901 H 0.85759 0.50418 0.50129 0.0
H1902 H 0.88625 0.49 0.4946 0.0
H1903 H 0.9191 0.50791 0.49304 0.0
H1904 H 0.37331 0.1295 0.29199 0.0
H1905 H 0.35623 0.15731 0.28735 0.0
H1906 H 0.36231 0.1522 0.22724 0.0
H1907 H 0.37982 0.12431 0.23192 0.0
H1908 H 0.36526 0.19303 0.24432 0.0
H1909 H 0.29984 0.14297 0.26098 0.0
H1910 H 0.3201 0.14508 0.27893 0.0
H1911 H 0.3217 0.13418 0.25549 0.0
C1912 C 0.37158 0.13469 0.27786 0.0
C1913 C 0.37794 0.12471 0.26232 0.0
C1914 C 0.36166 0.1505 0.2752 0.0
C1915 C 0.35757 0.15659 0.2569 0.0
C1916 C 0.36521 0.14771 0.2415 0.0
H1917 H 0.25871 0.21862 0.23634 0.0
H1918 H 0.28194 0.19588 0.23318 0.0
C1919 C 0.37536 0.13188 0.2442 0.0
C1920 C 0.34382 0.17083 0.25389 0.0
H1921 H 0.29742 0.17693 0.26027 0.0
C1922 C 0.35038 0.18948 0.24764 0.0
C1923 C 0.32426 0.16611 0.25784 0.0
C1924 C 0.31595 0.14593 0.2635 0.0
C1925 C 0.3381 0.20378 0.24599 0.0
C1926 C 0.31884 0.19941 0.25102 0.0
C1927 C 0.31216 0.18046 0.25655 0.0
C1928 C 0.30546 0.21426 0.25126 0.0
C1929 C 0.34587 0.22335 0.23873 0.0
C1930 C 0.31083 0.2323 0.26237 0.0
C1931 C 0.29758 0.24534 0.2641 0.0
C1932 C 0.27856 0.24059 0.25491 0.0
C1933 C 0.27326 0.22273 0.24355 0.0
C1934 C 0.28655 0.20971 0.24175 0.0
H1935 H 0.35783 0.22206 0.22974 0.0
H1936 H 0.33429 0.22931 0.23027 0.0
H1937 H 0.35179 0.2341 0.25102 0.0
H1938 H 0.32506 0.23602 0.27031 0.0
H1939 H 0.30207 0.25889 0.27315 0.0
H1940 H 0.30587 0.103 0.46876 0.0
H1941 H 0.33227 0.08613 0.47984 0.0
H1942 H 0.35483 0.13481 0.52141 0.0
H1943 H 0.3282 0.15174 0.51072 0.0
H1944 H 0.37165 0.09698 0.48132 0.0
H1945 H 0.34941 0.08786 0.55407 0.0
H1946 H 0.33384 0.09537 0.53506 0.0
H1947 H 0.35332 0.11293 0.54769 0.0
C1948 C 0.31649 0.11026 0.48018 0.0
C1949 C 0.31479 0.12871 0.48894 0.0
C1950 C 0.33155 0.10053 0.48652 0.0
C1951 C 0.34522 0.10902 0.50172 0.0
C1952 C 0.3441 0.12778 0.50999 0.0
H1953 H 0.45136 0.07463 0.54904 0.0
H1954 H 0.42311 0.09095 0.54316 0.0
C1955 C 0.32897 0.13751 0.50373 0.0
C1956 C 0.36068 0.09818 0.50873 0.0
H1957 H 0.37927 0.07798 0.54789 0.0
C1958 C 0.37326 0.09276 0.49585 0.0
C1959 C 0.36268 0.09268 0.5277 0.0
C1960 C 0.349 0.09733 0.54191 0.0
C1961 C 0.38796 0.08214 0.50147 0.0
C1962 C 0.38998 0.07669 0.52041 0.0
C1963 C 0.37752 0.08217 0.53337 0.0
C1964 C 0.40539 0.06569 0.52692 0.0
C1965 C 0.40144 0.07701 0.48723 0.0
C1966 C 0.40433 0.04587 0.52041 0.0
C1967 C 0.42039 0.03647 0.52383 0.0
C1968 C 0.43766 0.04689 0.5337 0.0
C1969 C 0.43818 0.0663 0.54136 0.0
C1970 C 0.4221 0.07563 0.53803 0.0
H1971 H 0.39978 0.08486 0.47405 0.0
H1972 H 0.41678 0.08071 0.49359 0.0
H1973 H 0.39824 0.06089 0.48322 0.0
H1974 H 0.39144 0.03801 0.51188 0.0
H1975 H 0.41967 0.02152 0.51776 0.0
H1976 H 0.69416 0.55569 0.29133 0.0
H1977 H 0.70898 0.59037 0.29088 0.0
H1978 H 0.65914 0.60824 0.31377 0.0
H1979 H 0.64447 0.57344 0.31459 0.0
H1980 H 0.66884 0.62558 0.27986 0.0
H1981 H 0.73347 0.63367 0.33328 0.0
H1982 H 0.72993 0.61219 0.31675 0.0
H1983 H 0.71247 0.61471 0.33343 0.0
C1984 C 0.68677 0.56702 0.29701 0.0
C1985 C 0.66851 0.56192 0.30365 0.0
C1986 C 0.69516 0.58684 0.29661 0.0
C1987 C 0.68529 0.60193 0.30253 0.0
C1988 C 0.6671 0.59685 0.30931 0.0
H1989 H 0.73253 0.72804 0.31031 0.0
H1990 H 0.71762 0.69489 0.31707 0.0
C1991 C 0.65877 0.57701 0.30983 0.0
C1992 C 0.69312 0.62288 0.29997 0.0
H1993 H 0.73214 0.65944 0.31273 0.0
C1994 C 0.68261 0.63304 0.28716 0.0
C1995 C 0.71098 0.63268 0.30959 0.0
C1996 C 0.72237 0.62287 0.32417 0.0
C1997 C 0.68975 0.65252 0.28335 0.0
C1998 C 0.70801 0.66202 0.29243 0.0
C1999 C 0.71824 0.65208 0.30564 0.0
C2000 C 0.71686 0.68217 0.28822 0.0
C2001 C 0.67765 0.66282 0.26972 0.0
C2002 C 0.72164 0.68596 0.26982 0.0
C2003 C 0.73021 0.70487 0.2659 0.0
C2004 C 0.73426 0.7204 0.28034 0.0
C2005 C 0.72961 0.71648 0.29883 0.0
C2006 C 0.72107 0.69753 0.30273 0.0
H2007 H 0.66215 0.65568 0.26799 0.0
H2008 H 0.6786 0.67858 0.27467 0.0
H2009 H 0.68315 0.66214 0.25553 0.0
H2010 H 0.71888 0.67424 0.25849 0.0
H2011 H 0.73363 0.70728 0.25152 0.0
H2012 H 0.852 0.52321 0.74469 0.0
H2013 H 0.83365 0.49024 0.7465 0.0
H2014 H 0.88472 0.47256 0.77468 0.0
H2015 H 0.90214 0.50643 0.77507 0.0
H2016 H 0.83437 0.45747 0.73274 0.0
H2017 H 0.8501 0.45085 0.81001 0.0
H2018 H 0.85987 0.47272 0.79927 0.0
H2019 H 0.87176 0.45152 0.7984 0.0
C2020 C 0.85895 0.51247 0.75204 0.0
C2021 C 0.87791 0.51768 0.76101 0.0
C2022 C 0.84863 0.49344 0.75271 0.0
C2023 C 0.85742 0.47884 0.7615 0.0
C2024 C 0.8771 0.48366 0.76885 0.0
H2025 H 0.80428 0.35474 0.74115 0.0
H2026 H 0.82318 0.38757 0.73964 0.0
C2027 C 0.88716 0.50297 0.76887 0.0
C2028 C 0.84602 0.45862 0.76224 0.0
H2029 H 0.83438 0.42152 0.79137 0.0
C2030 C 0.83428 0.44982 0.7457 0.0
C2031 C 0.84583 0.44826 0.77904 0.0
C2032 C 0.85744 0.45644 0.79768 0.0
C2033 C 0.82226 0.4314 0.74553 0.0
C2034 C 0.82243 0.42099 0.76217 0.0
C2035 C 0.83423 0.42956 0.77864 0.0
C2036 C 0.81062 0.40113 0.76282 0.0
C2037 C 0.80915 0.42353 0.72762 0.0
C2038 C 0.79761 0.39763 0.77668 0.0
C2039 C 0.787 0.37874 0.77776 0.0
C2040 C 0.78921 0.36308 0.76496 0.0
C2041 C 0.80215 0.36661 0.75107 0.0
C2042 C 0.81287 0.3854 0.75011 0.0
H2043 H 0.80627 0.43558 0.71856 0.0
H2044 H 0.81632 0.41327 0.71917 0.0
H2045 H 0.79504 0.41538 0.73099 0.0
H2046 H 0.79572 0.40951 0.78671 0.0
H2047 H 0.77718 0.37638 0.78865 0.0
H2048 H 0.95711 0.80792 0.10277 0.0
H2049 H 0.96188 0.8397 0.08924 0.0
H2050 H 0.01224 0.8596 0.12967 0.0
H2051 H 0.00782 0.82738 0.14325 0.0
H2052 H 0.96297 0.87751 0.105 0.0
H2053 H 0.03335 0.86872 0.0782 0.0
H2054 H 0.01752 0.84849 0.08666 0.0
H2055 H 0.03236 0.86679 0.10334 0.0
C2056 C 0.96921 0.819 0.10894 0.0
C2057 C 0.98221 0.81495 0.12403 0.0
C2058 C 0.97187 0.83723 0.10116 0.0
C2059 C 0.98759 0.8519 0.1082 0.0
C2060 C 1.00022 0.84832 0.12377 0.0
H2061 H 0.02372 0.96798 0.06867 0.0
H2062 H 0.02086 0.93794 0.08568 0.0
C2063 C 0.99756 0.82997 0.13162 0.0
C2064 C 0.9907 0.87068 0.09879 0.0
H2065 H 0.02159 0.8982 0.07224 0.0
C2066 C 0.97582 0.88208 0.09789 0.0
C2067 C 0.00744 0.87654 0.08945 0.0
C2068 C 0.02354 0.86446 0.08926 0.0
C2069 C 0.9772 0.89917 0.0879 0.0
C2070 C 0.99378 0.90485 0.07833 0.0
C2071 C 0.00884 0.89369 0.0795 0.0
C2072 C 0.99591 0.92258 0.06731 0.0
C2073 C 0.96099 0.91112 0.08782 0.0
C2074 C 0.98309 0.9237 0.05104 0.0
C2075 C 0.98475 0.94087 0.04122 0.0
C2076 C 0.99923 0.95711 0.04757 0.0
C2077 C 0.01236 0.9557 0.06352 0.0
C2078 C 0.01076 0.93856 0.07324 0.0
H2079 H 0.95153 0.90736 0.09928 0.0
H2080 H 0.96688 0.92716 0.08962 0.0
H2081 H 0.95186 0.90806 0.07394 0.0
H2082 H 0.97172 0.91138 0.04605 0.0
H2083 H 0.97448 0.94158 0.02894 0.0
H2084 H 0.95745 0.30358 0.87234 0.0
H2085 H 0.92479 0.29912 0.85519 0.0
H2086 H 0.94332 0.26357 0.81033 0.0
H2087 H 0.97608 0.26845 0.82732 0.0
H2088 H 0.92307 0.28942 0.79571 0.0
H2089 H 0.88203 0.25222 0.85007 0.0
H2090 H 0.89597 0.27556 0.85938 0.0
H2091 H 0.9082 0.25593 0.85158 0.0
C2092 C 0.95447 0.29481 0.85882 0.0
C2093 C 0.96933 0.28681 0.85086 0.0
C2094 C 0.93577 0.2921 0.84911 0.0
C2095 C 0.93142 0.28075 0.83155 0.0
C2096 C 0.94624 0.27237 0.82383 0.0
H2097 H 0.8115 0.24622 0.77824 0.0
H2098 H 0.84474 0.24531 0.79182 0.0
C2099 C 0.96498 0.27525 0.83346 0.0
C2100 C 0.91169 0.27832 0.82086 0.0
H2101 H 0.86327 0.26471 0.82494 0.0
C2102 C 0.91005 0.28394 0.80209 0.0
C2103 C 0.89458 0.2707 0.82897 0.0
C2104 C 0.89526 0.26306 0.84853 0.0
C2105 C 0.8919 0.28288 0.79148 0.0
C2106 C 0.87476 0.27628 0.79994 0.0
C2107 C 0.87637 0.26998 0.81848 0.0
C2108 C 0.85505 0.27644 0.79012 0.0
C2109 C 0.89131 0.28874 0.77124 0.0
C2110 C 0.84978 0.29418 0.7844 0.0
C2111 C 0.83085 0.29473 0.77651 0.0
C2112 C 0.81662 0.27757 0.7743 0.0
C2113 C 0.82206 0.2597 0.77957 0.0
C2114 C 0.84105 0.25917 0.78747 0.0
H2115 H 0.90505 0.28734 0.76506 0.0
H2116 H 0.87904 0.27958 0.76201 0.0
H2117 H 0.88941 0.30441 0.77108 0.0
H2118 H 0.86015 0.30779 0.78663 0.0
H2119 H 0.82723 0.3088 0.77275 0.0
H2120 H 0.476 0.19559 0.65202 0.0
H2121 H 0.48149 0.16545 0.63416 0.0
H2122 H 0.51192 0.20125 0.59482 0.0
H2123 H 0.50684 0.23106 0.61275 0.0
H2124 H 0.46988 0.1523 0.59596 0.0
H2125 H 0.55004 0.16519 0.60984 0.0
H2126 H 0.53508 0.17864 0.62325 0.0
H2127 H 0.54106 0.18585 0.60019 0.0
C2128 C 0.48391 0.19688 0.6396 0.0
C2129 C 0.49061 0.21551 0.63342 0.0
C2130 C 0.48702 0.17975 0.62941 0.0
C2131 C 0.4973 0.18111 0.61326 0.0
C2132 C 0.50426 0.1998 0.6074 0.0
H2133 H 0.53047 0.10319 0.52586 0.0
H2134 H 0.52357 0.13134 0.54556 0.0
C2135 C 0.50114 0.21681 0.61751 0.0
C2136 C 0.50051 0.16316 0.60214 0.0
H2137 H 0.53605 0.14111 0.5845 0.0
C2138 C 0.48433 0.14977 0.59354 0.0
C2139 C 0.5194 0.15982 0.59907 0.0
C2140 C 0.53739 0.17303 0.60873 0.0
C2141 C 0.48653 0.13355 0.58136 0.0
C2142 C 0.50542 0.13045 0.57802 0.0
C2143 C 0.52158 0.14363 0.58691 0.0
C2144 C 0.50883 0.11342 0.56565 0.0
C2145 C 0.46861 0.1202 0.57173 0.0
C2146 C 0.50303 0.09408 0.57054 0.0
C2147 C 0.50703 0.07808 0.5594 0.0
C2148 C 0.51688 0.08109 0.54312 0.0
C2149 C 0.52277 0.10045 0.53826 0.0
C2150 C 0.51881 0.1165 0.54948 0.0
H2151 H 0.45553 0.12737 0.57182 0.0
H2152 H 0.47052 0.11578 0.55675 0.0
H2153 H 0.46594 0.10661 0.57943 0.0
H2154 H 0.49576 0.09136 0.58321 0.0
H2155 H 0.50269 0.06333 0.56374 0.0
H2156 H 0.57858 0.77844 0.36452 0.0
H2157 H 0.60917 0.77574 0.35131 0.0
H2158 H 0.60185 0.82388 0.31657 0.0
H2159 H 0.57116 0.82634 0.32928 0.0
H2160 H 0.60972 0.7936 0.29566 0.0
H2161 H 0.66297 0.80797 0.36001 0.0
H2162 H 0.64323 0.78835 0.36208 0.0
H2163 H 0.63855 0.81309 0.35999 0.0
C2164 C 0.58366 0.7887 0.35433 0.0
C2165 C 0.57232 0.80259 0.34797 0.0
C2166 C 0.60123 0.78719 0.34683 0.0
C2167 C 0.60801 0.79973 0.33304 0.0
C2168 C 0.597 0.81401 0.32717 0.0
H2169 H 0.72084 0.81127 0.28758 0.0
H2170 H 0.69306 0.81615 0.30493 0.0
C2171 C 0.57941 0.81542 0.3345 0.0
C2172 C 0.62567 0.79711 0.32356 0.0
H2173 H 0.67416 0.79523 0.33172 0.0
C2174 C 0.62381 0.79405 0.30359 0.0
C2175 C 0.64417 0.7979 0.3338 0.0
C2176 C 0.64745 0.8022 0.35514 0.0
C2177 C 0.63976 0.79157 0.29362 0.0
C2178 C 0.6581 0.79161 0.30388 0.0
C2179 C 0.66008 0.79497 0.32384 0.0
C2180 C 0.67534 0.78828 0.29408 0.0
C2181 C 0.63684 0.78933 0.27212 0.0
C2182 C 0.67484 0.77086 0.28248 0.0
C2183 C 0.69066 0.7681 0.27257 0.0
C2184 C 0.70746 0.78254 0.27428 0.0
C2185 C 0.70817 0.79979 0.28619 0.0
C2186 C 0.69228 0.8026 0.29606 0.0
H2187 H 0.62386 0.79533 0.26646 0.0
H2188 H 0.64971 0.79696 0.2659 0.0
H2189 H 0.63459 0.77343 0.26725 0.0
H2190 H 0.66215 0.75938 0.28105 0.0
H2191 H 0.68978 0.75458 0.26364 0.0
H2192 H 0.01139 0.21146 0.41383 0.0
H2193 H 0.00636 0.17991 0.4285 0.0
H2194 H 0.02206 0.21063 0.48415 0.0
H2195 H 0.02701 0.24213 0.4697 0.0
H2196 H 0.03344 0.16361 0.45232 0.0
H2197 H 0.96952 0.17554 0.48917 0.0
H2198 H 0.97765 0.19001 0.47008 0.0
H2199 H 0.98965 0.19551 0.49387 0.0
C2200 C 0.01373 0.21148 0.42919 0.0
C2201 C 0.01952 0.22928 0.44062 0.0
C2202 C 0.01084 0.19347 0.43753 0.0
C2203 C 0.0135 0.19301 0.45741 0.0
C2204 C 0.01952 0.21072 0.46881 0.0
H2205 H 0.03953 0.10543 0.53078 0.0
H2206 H 0.03831 0.13349 0.51143 0.0
C2207 C 0.02248 0.22869 0.46051 0.0
C2208 C 0.01067 0.17402 0.46635 0.0
H2209 H 0.98591 0.14953 0.49951 0.0
C2210 C 0.02289 0.16039 0.46246 0.0
C2211 C 0.99669 0.16975 0.47934 0.0
C2212 C 0.98249 0.18338 0.48325 0.0
C2213 C 0.02215 0.14303 0.47196 0.0
C2214 C 0.00901 0.13939 0.48583 0.0
C2215 C 0.99612 0.15251 0.48902 0.0
C2216 C 0.00925 0.12263 0.4979 0.0
C2217 C 0.0356 0.12883 0.46726 0.0
C2218 C 0.99301 0.10763 0.49725 0.0
C2219 C 0.99365 0.09161 0.50842 0.0
C2220 C 0.01051 0.09043 0.52033 0.0
C2221 C 0.02641 0.10589 0.52156 0.0
C2222 C 0.0258 0.12183 0.5104 0.0
H2223 H 0.04077 0.1309 0.45302 0.0
H2224 H 0.04849 0.13143 0.47803 0.0
H2225 H 0.02831 0.1133 0.46754 0.0
H2226 H 0.97999 0.10818 0.48789 0.0
H2227 H 0.98103 0.08012 0.50771 0.0
H2228 H 0.55887 0.27899 0.12057 0.0
H2229 H 0.58962 0.27959 0.14031 0.0
H2230 H 0.57253 0.31975 0.18219 0.0
H2231 H 0.54157 0.31867 0.16289 0.0
H2232 H 0.61974 0.30796 0.15495 0.0
H2233 H 0.5817 0.27418 0.21327 0.0
H2234 H 0.56942 0.27594 0.19002 0.0
H2235 H 0.57431 0.29696 0.20722 0.0
C2236 C 0.56181 0.28813 0.13387 0.0
C2237 C 0.54778 0.29855 0.14037 0.0
C2238 C 0.57933 0.28844 0.14514 0.0
C2239 C 0.58307 0.29928 0.16294 0.0
C2240 C 0.56964 0.3108 0.16878 0.0
H2241 H 0.6957 0.31999 0.23081 0.0
H2242 H 0.6657 0.32405 0.21196 0.0
C2243 C 0.55204 0.31028 0.15768 0.0
C2244 C 0.60063 0.2979 0.17575 0.0
H2245 H 0.61562 0.28518 0.21994 0.0
C2246 C 0.61888 0.30297 0.16916 0.0
C2247 C 0.59939 0.29102 0.19413 0.0
C2248 C 0.58015 0.28402 0.20153 0.0
C2249 C 0.63599 0.30151 0.18054 0.0
C2250 C 0.63476 0.29536 0.19921 0.0
C2251 C 0.61651 0.29015 0.20572 0.0
C2252 C 0.65222 0.29345 0.21193 0.0
C2253 C 0.65512 0.30604 0.17225 0.0
C2254 C 0.65409 0.27518 0.21907 0.0
C2255 C 0.67101 0.27296 0.23018 0.0
C2256 C 0.6863 0.28894 0.23417 0.0
C2257 C 0.68412 0.30741 0.22772 0.0
C2258 C 0.6671 0.30969 0.21683 0.0
H2259 H 0.6531 0.30508 0.15642 0.0
H2260 H 0.66225 0.3213 0.17725 0.0
H2261 H 0.665 0.29576 0.17684 0.0
H2262 H 0.64268 0.26251 0.21558 0.0
H2263 H 0.6724 0.25858 0.23502 0.0
H2264 H 0.55121 0.85825 0.91673 0.0
H2265 H 0.55555 0.88865 0.9374 0.0
H2266 H 0.53968 0.85502 0.98472 0.0
H2267 H 0.53571 0.82451 0.96433 0.0
H2268 H 0.52594 0.90058 0.95376 0.0
H2269 H 0.58515 0.89512 0.0098 0.0
H2270 H 0.58089 0.87971 0.98772 0.0
H2271 H 0.56645 0.87374 0.00695 0.0
C2272 C 0.54903 0.85725 0.93162 0.0
C2273 C 0.54299 0.83891 0.93882 0.0
C2274 C 0.55155 0.87465 0.94342 0.0
C2275 C 0.54812 0.87409 0.96263 0.0
C2276 C 0.54284 0.85579 0.97006 0.0
H2277 H 0.50473 0.96218 0.02877 0.0
H2278 H 0.51275 0.93115 0.01593 0.0
C2279 C 0.54043 0.83835 0.9583 0.0
C2280 C 0.54758 0.89261 0.97416 0.0
H2281 H 0.5649 0.91919 0.01642 0.0
C2282 C 0.53462 0.90472 0.96735 0.0
C2283 C 0.55896 0.89801 0.99189 0.0
C2284 C 0.57379 0.88606 0.99945 0.0
C2285 C 0.53237 0.92185 0.97797 0.0
C2286 C 0.54312 0.9268 0.99601 0.0
C2287 C 0.55648 0.91506 1.00269 0.0
C2288 C 0.54056 0.9444 0.00776 0.0
C2289 C 0.51845 0.93456 0.96987 0.0
C2290 C 0.55404 0.96184 0.00821 0.0
C2291 C 0.54952 0.97963 0.01551 0.0
C2292 C 0.53141 0.98018 0.02239 0.0
C2293 C 0.51873 0.96233 0.02346 0.0
C2294 C 0.52328 0.94457 0.01615 0.0
H2295 H 0.51371 0.93045 0.9545 0.0
H2296 H 0.50538 0.93284 0.97771 0.0
H2297 H 0.52526 0.95037 0.97162 0.0
H2298 H 0.56745 0.9619 1.00176 0.0
H2299 H 0.55969 0.99307 0.01457 0.0
H2300 H 0.93978 0.78826 0.63435 0.0
H2301 H 0.91037 0.79041 0.64987 0.0
H2302 H 0.9339 0.85043 0.67096 0.0
H2303 H 0.96345 0.84818 0.65592 0.0
H2304 H 0.92488 0.82735 0.6992 0.0
H2305 H 0.86285 0.8166 0.64295 0.0
H2306 H 0.87773 0.79788 0.64094 0.0
H2307 H 0.88772 0.82311 0.63782 0.0
C2308 C 0.93835 0.80211 0.64172 0.0
C2309 C 0.95388 0.81799 0.64409 0.0
C2310 C 0.92154 0.80336 0.65056 0.0
C2311 C 0.91995 0.82062 0.66153 0.0
C2312 C 0.93486 0.83699 0.66259 0.0
H2313 H 0.83658 0.83647 0.7445 0.0
H2314 H 0.86363 0.8434 0.7248 0.0
C2315 C 0.9517 0.83567 0.65399 0.0
C2316 C 0.90428 0.82064 0.67411 0.0
H2317 H 0.85517 0.81063 0.67479 0.0
C2318 C 0.90962 0.82404 0.69385 0.0
C2319 C 0.88443 0.81629 0.66708 0.0
C2320 C 0.87782 0.81346 0.64602 0.0
C2321 C 0.89563 0.82234 0.70681 0.0
C2322 C 0.87584 0.81727 0.6998 0.0
C2323 C 0.87044 0.81448 0.68006 0.0
C2324 C 0.86057 0.81329 0.71269 0.0
C2325 C 0.90212 0.82509 0.72791 0.0
C2326 C 0.85022 0.7941 0.71249 0.0
C2327 C 0.83494 0.79016 0.72364 0.0
C2328 C 0.82971 0.80538 0.73512 0.0
C2329 C 0.84048 0.8245 0.73585 0.0
C2330 C 0.85583 0.82845 0.72461 0.0
H2331 H 0.91807 0.826 0.73099 0.0
H2332 H 0.8981 0.83894 0.73391 0.0
H2333 H 0.89471 0.81272 0.73533 0.0
H2334 H 0.85377 0.78221 0.70344 0.0
H2335 H 0.82686 0.77527 0.72285 0.0
H2336 H 0.09531 0.99628 0.82732 0.0
H2337 H 0.07349 0.99517 0.85245 0.0
H2338 H 0.12276 0.00402 0.89517 0.0
H2339 H 0.14469 0.00541 0.87029 0.0
H2340 H 0.06817 0.97149 0.88404 0.0
H2341 H 0.09465 0.05051 0.90715 0.0
H2342 H 0.09985 0.03928 0.88492 0.0
H2343 H 0.11342 0.03564 0.90691 0.0
C2344 C 0.10154 0.9978 0.84205 0.0
C2345 C 0.12183 1.00115 0.84671 0.0
C2346 C 0.08902 0.99713 0.85641 0.0
C2347 C 0.09651 0.99984 0.87568 0.0
C2348 C 0.11667 0.00225 0.88039 0.0
H2349 H 0.03571 0.98743 0.97785 0.0
H2350 H 0.05376 0.98111 0.95073 0.0
C2351 C 0.12919 0.00297 0.86609 0.0
C2352 C 0.08337 1.0012 0.89086 0.0
H2353 H 0.07325 0.03265 0.92631 0.0
C2354 C 0.06923 0.98485 0.89328 0.0
C2355 C 0.0846 0.01873 0.90274 0.0
C2356 C 0.09881 0.03712 0.90025 0.0
C2357 C 0.05647 0.98551 0.90747 0.0
C2358 C 0.05806 0.00291 0.91965 0.0
C2359 C 0.07208 0.01928 0.91705 0.0
C2360 C 0.04517 0.00484 0.93498 0.0
C2361 C 0.0412 0.96774 0.90907 0.0
C2362 C 0.03421 0.02017 0.93516 0.0
C2363 C 0.02403 0.02389 0.95067 0.0
C2364 C 0.02452 0.01234 0.96639 0.0
C2365 C 0.03477 0.9964 0.96585 0.0
C2366 C 0.0451 0.99277 0.95032 0.0
H2367 H 0.03866 0.95769 0.89585 0.0
H2368 H 0.04609 0.95937 0.921 0.0
H2369 H 0.02724 0.97226 0.91208 0.0
H2370 H 0.03403 0.02968 0.92351 0.0
H2371 H 0.01628 0.03627 0.9506 0.0
H2372 H 0.73843 0.39434 0.58998 0.0
H2373 H 0.74412 0.37841 0.61953 0.0
H2374 H 0.7151 0.32261 0.59181 0.0
H2375 H 0.70939 0.33846 0.56206 0.0
H2376 H 0.70466 0.33158 0.63009 0.0
H2377 H 0.78445 0.34053 0.62756 0.0
H2378 H 0.77419 0.36265 0.62524 0.0
H2379 H 0.76783 0.34274 0.60699 0.0
C2380 C 0.73307 0.37871 0.59015 0.0
C2381 C 0.72346 0.36771 0.57354 0.0
C2382 C 0.73648 0.36957 0.60709 0.0
C2383 C 0.73032 0.34922 0.60791 0.0
C2384 C 0.7201 0.33831 0.59156 0.0
H2385 H 0.76601 0.27267 0.69466 0.0
H2386 H 0.75973 0.28866 0.66508 0.0
C2387 C 0.71681 0.34741 0.57454 0.0
C2388 C 0.73479 0.33934 0.62572 0.0
H2389 H 0.77235 0.32846 0.65555 0.0
C2390 C 0.71946 0.33089 0.63563 0.0
C2391 C 0.75409 0.33821 0.63293 0.0
C2392 C 0.77113 0.34635 0.6226 0.0
C2393 C 0.72292 0.32173 0.65267 0.0
C2394 C 0.74225 0.32102 0.66012 0.0
C2395 C 0.75755 0.32912 0.65 0.0
C2396 C 0.74683 0.31179 0.6783 0.0
C2397 C 0.70582 0.31265 0.66245 0.0
C2398 C 0.74217 0.31969 0.69575 0.0
C2399 C 0.7459 0.31067 0.71268 0.0
C2400 C 0.75434 0.29347 0.71261 0.0
C2401 C 0.75947 0.28586 0.69523 0.0
C2402 C 0.75585 0.29499 0.6783 0.0
H2403 H 0.69206 0.31042 0.65284 0.0
H2404 H 0.70809 0.29823 0.66767 0.0
H2405 H 0.70423 0.32259 0.67494 0.0
H2406 H 0.73553 0.33282 0.69626 0.0
H2407 H 0.74183 0.31699 0.7258 0.0
H2408 H 0.39712 0.07999 0.33591 0.0
H2409 H 0.41543 0.07703 0.36627 0.0
H2410 H 0.46483 0.06757 0.33722 0.0
H2411 H 0.44652 0.07073 0.30649 0.0
H2412 H 0.42942 0.04387 0.3766 0.0
H2413 H 0.49003 0.10738 0.3814 0.0
H2414 H 0.4685 0.10559 0.36481 0.0
H2415 H 0.48703 0.09139 0.3599 0.0
C2416 C 0.41199 0.07759 0.33587 0.0
C2417 C 0.42027 0.0756 0.31859 0.0
C2418 C 0.42246 0.07586 0.35334 0.0
C2419 C 0.44159 0.07215 0.35419 0.0
C2420 C 0.45022 0.07077 0.33706 0.0
H2421 H 0.51755 0.04547 0.4522 0.0
H2422 H 0.50433 0.05231 0.42041 0.0
C2423 C 0.4397 0.07256 0.31945 0.0
C2424 C 0.45168 0.06837 0.37289 0.0
H2425 H 0.49082 0.08531 0.40577 0.0
C2426 C 0.44285 0.05297 0.38295 0.0
C2427 C 0.46931 0.08009 0.3812 0.0
C2428 C 0.47926 0.09715 0.3714 0.0
C2429 C 0.45099 0.04902 0.40098 0.0
C2430 C 0.46835 0.06103 0.40953 0.0
C2431 C 0.47747 0.07617 0.39932 0.0
C2432 C 0.47697 0.05817 0.42915 0.0
C2433 C 0.44102 0.03179 0.41059 0.0
C2434 C 0.46628 0.0597 0.44485 0.0
C2435 C 0.47377 0.05578 0.46306 0.0
C2436 C 0.49226 0.05034 0.4661 0.0
C2437 C 0.50326 0.04956 0.45047 0.0
C2438 C 0.49572 0.05347 0.43223 0.0
H2439 H 0.43137 0.02094 0.40018 0.0
H2440 H 0.45176 0.02411 0.4183 0.0
H2441 H 0.43193 0.03726 0.42107 0.0
H2442 H 0.45197 0.06372 0.443 0.0
H2443 H 0.46488 0.05672 0.47469 0.0
H2444 H 0.76112 0.66489 0.05457 0.0
H2445 H 0.75973 0.68104 0.08605 0.0
H2446 H 0.78686 0.73643 0.06754 0.0
H2447 H 0.78876 0.72031 0.03617 0.0
H2448 H 0.80162 0.73011 0.10323 0.0
H2449 H 0.7212 0.71723 0.09718 0.0
H2450 H 0.73089 0.69487 0.09387 0.0
H2451 H 0.73461 0.71342 0.07711 0.0
C2452 C 0.76691 0.68047 0.05725 0.0
C2453 C 0.77492 0.69137 0.04289 0.0
C2454 C 0.76597 0.6897 0.07517 0.0
C2455 C 0.77276 0.71001 0.07892 0.0
C2456 C 0.78139 0.72077 0.06484 0.0
H2457 H 0.74217 0.7748 0.17869 0.0
H2458 H 0.74665 0.76455 0.14576 0.0
C2459 C 0.78248 0.71153 0.04695 0.0
C2460 C 0.77079 0.72003 0.09752 0.0
H2461 H 0.73758 0.72791 0.12812 0.0
C2462 C 0.78762 0.72979 0.10863 0.0
C2463 C 0.75245 0.71998 0.1043 0.0
C2464 C 0.73374 0.711 0.09241 0.0
C2465 C 0.78667 0.73885 0.12673 0.0
C2466 C 0.76845 0.73767 0.134 0.0
C2467 C 0.75155 0.7286 0.12258 0.0
C2468 C 0.76664 0.74485 0.15376 0.0
C2469 C 0.80517 0.74961 0.13785 0.0
C2470 C 0.77627 0.73705 0.16906 0.0
C2471 C 0.77381 0.74293 0.18774 0.0
C2472 C 0.76144 0.75649 0.19142 0.0
C2473 C 0.75177 0.76431 0.17615 0.0
C2474 C 0.75433 0.7585 0.15741 0.0
H2475 H 0.81628 0.75473 0.12823 0.0
H2476 H 0.80249 0.76255 0.14672 0.0
H2477 H 0.81126 0.73942 0.1474 0.0
H2478 H 0.78541 0.72611 0.16655 0.0
H2479 H 0.78138 0.73664 0.19931 0.0
H2480 H 0.09426 0.97789 0.74084 0.0
H2481 H 0.07894 0.97765 0.70822 0.0
H2482 H 0.12669 0.02114 0.69561 0.0
H2483 H 0.14241 0.02073 0.72781 0.0
H2484 H 0.06536 0.0057 0.69197 0.0
H2485 H 0.12158 0.98516 0.6489 0.0
H2486 H 0.12284 0.98284 0.67425 0.0
H2487 H 0.13153 0.00615 0.66507 0.0
C2488 C 0.10166 0.98708 0.73096 0.0
C2489 C 0.11959 0.99924 0.73685 0.0
C2490 C 0.09288 0.98697 0.71233 0.0
C2491 C 0.10176 0.99914 0.69927 0.0
C2492 C 0.11979 0.01113 0.70513 0.0
H2493 H 0.04326 0.05043 0.60737 0.0
H2494 H 0.05766 0.04133 0.63772 0.0
C2495 C 0.12872 0.01099 0.72364 0.0
C2496 C 0.09148 1.00061 0.68012 0.0
H2497 H 0.09799 0.00223 0.63293 0.0
C2498 C 0.07243 0.00464 0.67904 0.0
C2499 C 0.10045 0.99886 0.66311 0.0
C2500 C 0.12014 0.99279 0.66287 0.0
C2501 C 0.06245 0.00777 0.66163 0.0
C2502 C 0.07202 0.00763 0.64487 0.0
C2503 C 0.09074 0.00274 0.64579 0.0
C2504 C 0.06314 0.01305 0.62639 0.0
C2505 C 0.04168 0.01104 0.66144 0.0
C2506 C 0.06206 1.00058 0.60969 0.0
C2507 C 0.05428 0.00603 0.59223 0.0
C2508 C 0.04732 0.02397 0.59119 0.0
C2509 C 0.04836 0.03642 0.60784 0.0
C2510 C 0.05643 0.03114 0.62522 0.0
H2511 H 0.03457 0.00383 0.6732 0.0
H2512 H 0.04146 0.02709 0.66355 0.0
H2513 H 0.03302 0.00523 0.64772 0.0
H2514 H 0.06721 0.98661 0.61018 0.0
H2515 H 0.05358 0.99615 0.57957 0.0
H2516 H 0.71289 0.34798 0.47402 0.0
H2517 H 0.7149 0.32858 0.44418 0.0
H2518 H 0.73348 0.38222 0.41768 0.0
H2519 H 0.73058 0.40151 0.44676 0.0
H2520 H 0.70992 0.35916 0.39332 0.0
H2521 H 0.76229 0.31454 0.42428 0.0
H2522 H 0.7398 0.31132 0.43476 0.0
H2523 H 0.7555 0.33497 0.43767 0.0
C2524 C 0.71724 0.35564 0.46179 0.0
C2525 C 0.72163 0.37641 0.46303 0.0
C2526 C 0.71862 0.34449 0.44472 0.0
C2527 C 0.72483 0.3538 0.42859 0.0
C2528 C 0.72873 0.37451 0.42977 0.0
H2529 H 0.7767 0.30562 0.33324 0.0
H2530 H 0.76909 0.31982 0.36358 0.0
C2531 C 0.72707 0.3856 0.44659 0.0
C2532 C 0.72732 0.34238 0.41041 0.0
H2533 H 0.75075 0.30689 0.39175 0.0
C2534 C 0.71884 0.3477 0.39305 0.0
C2535 C 0.73918 0.32756 0.40979 0.0
C2536 C 0.74988 0.32187 0.42758 0.0
C2537 C 0.72208 0.33903 0.37531 0.0
C2538 C 0.73354 0.32386 0.3747 0.0
C2539 C 0.74182 0.31833 0.39206 0.0
C2540 C 0.73793 0.31429 0.35628 0.0
C2541 C 0.71388 0.34696 0.35741 0.0
C2542 C 0.72303 0.30594 0.34195 0.0
C2543 C 0.72739 0.29806 0.32438 0.0
C2544 C 0.74676 0.29781 0.32081 0.0
C2545 C 0.7616 0.30543 0.33544 0.0
C2546 C 0.75725 0.3136 0.35287 0.0
H2547 H 0.71076 0.36212 0.36024 0.0
H2548 H 0.72402 0.34731 0.34625 0.0
H2549 H 0.7 0.33736 0.35178 0.0
H2550 H 0.70796 0.3056 0.34429 0.0
H2551 H 0.71555 0.29219 0.31356 0.0
H2552 H 0.39877 0.06155 0.19061 0.0
H2553 H 0.41353 0.05638 0.16105 0.0
H2554 H 0.47034 0.07694 0.19089 0.0
H2555 H 0.4557 0.08199 0.22054 0.0
H2556 H 0.43697 0.08174 0.14033 0.0
H2557 H 0.47626 0.02328 0.16623 0.0
H2558 H 0.45737 0.03171 0.17854 0.0
H2559 H 0.4815 0.04584 0.18128 0.0
C2560 C 0.41441 0.06511 0.19089 0.0
C2561 C 0.42602 0.07214 0.20804 0.0
C2562 C 0.42284 0.06211 0.17393 0.0
C2563 C 0.44312 0.06588 0.17371 0.0
C2564 C 0.45471 0.07347 0.1907 0.0
H2565 H 0.51079 0.08045 0.07756 0.0
H2566 H 0.4929 0.08416 0.10519 0.0
C2567 C 0.44628 0.07654 0.20765 0.0
C2568 C 0.4521 0.06185 0.15577 0.0
H2569 H 0.48418 0.03564 0.13674 0.0
C2570 C 0.44723 0.0716 0.13955 0.0
C2571 C 0.46525 0.04834 0.15451 0.0
C2572 C 0.4703 0.03652 0.17099 0.0
C2573 C 0.45556 0.06869 0.12242 0.0
C2574 C 0.46934 0.05582 0.12143 0.0
C2575 C 0.47376 0.04562 0.13745 0.0
C2576 C 0.47987 0.05337 0.10418 0.0
C2577 C 0.44937 0.07935 0.10546 0.0
C2578 C 0.47892 0.03472 0.09445 0.0
C2579 C 0.48928 0.03253 0.07855 0.0
C2580 C 0.50097 0.04892 0.07223 0.0
C2581 C 0.50192 0.0675 0.08203 0.0
C2582 C 0.49155 0.06969 0.09779 0.0
H2583 H 0.43495 0.08375 0.10659 0.0
H2584 H 0.46009 0.09296 0.10477 0.0
H2585 H 0.4487 0.07003 0.09196 0.0
H2586 H 0.47014 0.02184 0.09915 0.0
H2587 H 0.4884 0.018 0.07144 0.0
H2588 H 0.77118 0.66723 0.91213 0.0
H2589 H 0.77925 0.69166 0.88928 0.0
H2590 H 0.8131 0.73127 0.93426 0.0
H2591 H 0.80439 0.70724 0.95732 0.0
H2592 H 0.78969 0.74995 0.9153 0.0
H2593 H 0.82559 0.71033 0.86287 0.0
H2594 H 0.8026 0.69594 0.86596 0.0
H2595 H 0.82133 0.70116 0.88575 0.0
C2596 C 0.78062 0.68099 0.9171 0.0
C2597 C 0.78699 0.68537 0.93655 0.0
C2598 C 0.78539 0.69491 0.90398 0.0
C2599 C 0.79704 0.71324 0.90998 0.0
C2600 C 0.80413 0.71724 0.92928 0.0
H2601 H 0.81085 0.7858 0.81315 0.0
H2602 H 0.82164 0.77304 0.8432 0.0
C2603 C 0.79911 0.70349 0.94244 0.0
C2604 C 0.79994 0.72894 0.89654 0.0
H2605 H 0.80931 0.73656 0.85089 0.0
C2606 C 0.79443 0.74717 0.90137 0.0
C2607 C 0.80663 0.72566 0.87855 0.0
C2608 C 0.81458 0.70728 0.8731 0.0
C2609 C 0.7939 0.7615 0.88817 0.0
C2610 C 0.79844 0.75726 0.86946 0.0
C2611 C 0.80552 0.73975 0.86514 0.0
C2612 C 0.7933 0.76914 0.85354 0.0
C2613 C 0.78794 0.78081 0.89428 0.0
C2614 C 0.77398 0.77188 0.84969 0.0
C2615 C 0.76783 0.7793 0.83269 0.0
C2616 C 0.78082 0.78385 0.819 0.0
C2617 C 0.80049 0.78249 0.82343 0.0
C2618 C 0.80667 0.7751 0.84055 0.0
H2619 H 0.79289 0.7851 0.90957 0.0
H2620 H 0.79395 0.7929 0.88571 0.0
H2621 H 0.77186 0.7791 0.89255 0.0
H2622 H 0.76326 0.76699 0.8592 0.0
H2623 H 0.75258 0.7802 0.82978 0.0
H2624 H 0.83888 0.12964 0.97293 0.0
H2625 H 0.86683 0.11297 0.97749 0.0
H2626 H 0.87933 0.13891 0.0352 0.0
H2627 H 0.85097 0.15579 0.03079 0.0
H2628 H 0.91401 0.13586 0.00915 0.0
H2629 H 0.8631 0.0665 0.01615 0.0
H2630 H 0.85687 0.08077 0.99668 0.0
H2631 H 0.85675 0.09061 0.02075 0.0
C2632 C 0.84769 0.13215 0.98656 0.0
C2633 C 0.84248 0.14402 1.00155 0.0
C2634 C 0.86372 0.12255 0.98911 0.0
C2635 C 0.8751 0.12448 0.00672 0.0
C2636 C 0.87075 0.13719 0.02147 0.0
H2637 H 0.94814 0.03831 0.0403 0.0
H2638 H 0.92586 0.06218 0.03948 0.0
C2639 C 0.85458 0.14691 0.01891 0.0
C2640 C 0.89037 0.11185 0.00983 0.0
H2641 H 0.89579 0.06367 0.01313 0.0
C2642 C 0.91008 0.12011 0.01019 0.0
C2643 C 0.88527 0.09129 0.01125 0.0
C2644 C 0.86437 0.08167 0.01133 0.0
C2645 C 0.92475 0.10826 0.01153 0.0
C2646 C 0.91958 0.08755 0.01231 0.0
C2647 C 0.89986 0.07946 0.01242 0.0
C2648 C 0.93422 0.07392 0.0132 0.0
C2649 C 0.94568 0.11805 0.01228 0.0
C2650 C 0.94644 0.07235 0.99867 0.0
C2651 C 0.95925 0.0586 0.99912 0.0
C2652 C 0.96007 0.0461 0.01407 0.0
C2653 C 0.94785 0.04769 0.02855 0.0
C2654 C 0.93512 0.06141 0.02813 0.0
H2655 H 0.94758 0.13404 0.01677 0.0
H2656 H 0.95516 0.111 0.02226 0.0
H2657 H 0.9506 0.11652 0.99789 0.0
H2658 H 0.94572 0.08137 0.98669 0.0
H2659 H 0.96802 0.05731 0.98747 0.0
H2660 H 0.31549 0.4467 0.07915 0.0
H2661 H 0.35046 0.45845 0.08587 0.0
H2662 H 0.3595 0.42812 0.03294 0.0
H2663 H 0.32527 0.41333 0.02861 0.0
H2664 H 0.38863 0.42852 0.05296 0.0
H2665 H 0.37605 0.5054 0.06939 0.0
H2666 H 0.37192 0.48913 0.08795 0.0
H2667 H 0.35606 0.48534 0.06618 0.0
C2668 C 0.32515 0.44259 0.0691 0.0
C2669 C 0.31778 0.43016 0.05273 0.0
C2670 C 0.34512 0.4495 0.07278 0.0
C2671 C 0.3578 0.44549 0.0593 0.0
C2672 C 0.3503 0.43197 0.04354 0.0
H2673 H 0.44805 0.5157 0.01371 0.0
H2674 H 0.41871 0.49765 0.02466 0.0
C2675 C 0.33063 0.42378 0.04076 0.0
C2676 C 0.37851 0.45562 0.06065 0.0
H2677 H 0.40713 0.50117 0.06328 0.0
C2678 C 0.39252 0.44444 0.05522 0.0
C2679 C 0.38427 0.4764 0.06459 0.0
C2680 C 0.3713 0.48977 0.07226 0.0
C2681 C 0.41108 0.45344 0.05155 0.0
C2682 C 0.416 0.47418 0.05385 0.0
C2683 C 0.4029 0.48527 0.06101 0.0
C2684 C 0.43399 0.48483 0.04746 0.0
C2685 C 0.42492 0.44083 0.04425 0.0
C2686 C 0.45224 0.48364 0.05676 0.0
C2687 C 0.46905 0.49398 0.05057 0.0
C2688 C 0.46786 0.5057 0.03498 0.0
C2689 C 0.44951 0.50683 0.02573 0.0
C2690 C 0.43273 0.49655 0.03198 0.0
H2691 H 0.41784 0.42525 0.04064 0.0
H2692 H 0.43093 0.44679 0.03139 0.0
H2693 H 0.43726 0.44107 0.05534 0.0
H2694 H 0.45348 0.47484 0.06887 0.0
H2695 H 0.48296 0.49275 0.058 0.0
H2696 H 0.31198 0.58115 0.75234 0.0
H2697 H 0.30081 0.61272 0.75491 0.0
H2698 H 0.35918 0.64307 0.75215 0.0
H2699 H 0.37047 0.6112 0.74899 0.0
H2700 H 0.311 0.64142 0.78291 0.0
H2701 H 0.32875 0.67083 0.71403 0.0
H2702 H 0.32921 0.64546 0.71876 0.0
H2703 H 0.34889 0.66449 0.72857 0.0
C2704 C 0.32248 0.59449 0.75208 0.0
C2705 C 0.34216 0.59362 0.75048 0.0
C2706 C 0.31605 0.61258 0.75359 0.0
C2707 C 0.32909 0.63033 0.75367 0.0
C2708 C 0.34875 0.62959 0.75179 0.0
H2709 H 0.28491 0.73804 0.79134 0.0
H2710 H 0.30572 0.71271 0.78975 0.0
C2711 C 0.3552 0.61136 0.75003 0.0
C2712 C 0.32189 0.64937 0.75647 0.0
H2713 H 0.31504 0.6912 0.73503 0.0
C2714 C 0.312 0.65238 0.7725 0.0
C2715 C 0.32314 0.66364 0.74286 0.0
C2716 C 0.33292 0.66095 0.72499 0.0
C2717 C 0.3027 0.6688 0.77494 0.0
C2718 C 0.30381 0.68302 0.76127 0.0
C2719 C 0.31429 0.68037 0.74557 0.0
C2720 C 0.29264 0.69962 0.76195 0.0
C2721 C 0.29093 0.67015 0.79164 0.0
C2722 C 0.27888 0.70123 0.74663 0.0
C2723 C 0.26744 0.716 0.74733 0.0
C2724 C 0.2695 0.72954 0.76336 0.0
C2725 C 0.28338 0.72814 0.77863 0.0
C2726 C 0.29503 0.71343 0.77786 0.0
H2727 H 0.28778 0.65581 0.79808 0.0
H2728 H 0.29922 0.68112 0.8028 0.0
H2729 H 0.27693 0.67499 0.78728 0.0
H2730 H 0.27673 0.6908 0.7342 0.0
H2731 H 0.25691 0.71676 0.73528 0.0
H2732 H 0.22757 0.67381 0.48843 0.0
H2733 H 0.19385 0.65755 0.48986 0.0
H2734 H 0.21467 0.61024 0.5183 0.0
H2735 H 0.24828 0.62667 0.51727 0.0
H2736 H 0.18267 0.60051 0.4834 0.0
H2737 H 0.1682 0.65072 0.54312 0.0
H2738 H 0.18 0.66147 0.52374 0.0
H2739 H 0.1925 0.64699 0.53932 0.0
C2740 C 0.22487 0.65987 0.49484 0.0
C2741 C 0.24043 0.65108 0.50213 0.0
C2742 C 0.20568 0.65064 0.49567 0.0
C2743 C 0.20182 0.63266 0.50409 0.0
C2744 C 0.21736 0.62402 0.5116 0.0
H2745 H 0.09686 0.5709 0.54326 0.0
H2746 H 0.13005 0.58678 0.53948 0.0
C2747 C 0.23651 0.6333 0.51086 0.0
C2748 C 0.18158 0.62302 0.50546 0.0
H2749 H 0.14249 0.62567 0.53025 0.0
C2750 C 0.17387 0.60595 0.49362 0.0
C2751 C 0.17019 0.6302 0.51886 0.0
C2752 C 0.17805 0.6483 0.53211 0.0
C2753 C 0.15503 0.59578 0.49487 0.0
C2754 C 0.14352 0.60305 0.50816 0.0
C2755 C 0.15129 0.62014 0.52003 0.0
C2756 C 0.12348 0.59302 0.51017 0.0
C2757 C 0.14776 0.57709 0.48224 0.0
C2758 C 0.10875 0.59133 0.49498 0.0
C2759 C 0.0898 0.58227 0.49712 0.0
C2760 C 0.08524 0.57481 0.51451 0.0
C2761 C 0.09999 0.57647 0.52969 0.0
C2762 C 0.11892 0.58557 0.52756 0.0
H2763 H 0.15985 0.57098 0.4763 0.0
H2764 H 0.13957 0.56567 0.49019 0.0
H2765 H 0.13781 0.58034 0.47013 0.0
H2766 H 0.11184 0.59726 0.48155 0.0
H2767 H 0.07868 0.58127 0.48522 0.0
H2768 H 0.65409 0.94653 0.81689 0.0
H2769 H 0.66937 0.91781 0.81037 0.0
H2770 H 0.64347 0.91213 0.75216 0.0
H2771 H 0.62795 0.94109 0.75859 0.0
H2772 H 0.646 0.87398 0.77182 0.0
H2773 H 0.71535 0.92677 0.77561 0.0
H2774 H 0.70152 0.92898 0.79555 0.0
H2775 H 0.69194 0.93447 0.77239 0.0
C2776 C 0.65121 0.93894 0.80278 0.0
C2777 C 0.63987 0.94625 0.78822 0.0
C2778 C 0.66003 0.92251 0.79908 0.0
C2779 C 0.65784 0.913 0.78072 0.0
C2780 C 0.64539 0.91928 0.76644 0.0
H2781 H 0.74236 0.84661 0.73844 0.0
H2782 H 0.71864 0.86847 0.7425 0.0
C2783 C 0.63644 0.93578 0.77016 0.0
C2784 C 0.67014 0.89796 0.77622 0.0
H2785 H 0.71749 0.89285 0.7737 0.0
C2786 C 0.66161 0.87806 0.77213 0.0
C2787 C 0.69051 0.90333 0.77645 0.0
C2788 C 0.70044 0.92455 0.78007 0.0
C2789 C 0.673 0.86336 0.76864 0.0
C2790 C 0.69346 0.86869 0.76945 0.0
C2791 C 0.70186 0.88867 0.77319 0.0
C2792 C 0.70658 0.85404 0.7661 0.0
C2793 C 0.66302 0.84232 0.76386 0.0
C2794 C 0.7077 0.83843 0.77791 0.0
C2795 C 0.72133 0.82583 0.77558 0.0
C2796 C 0.73418 0.82873 0.76151 0.0
C2797 C 0.73274 0.84407 0.74949 0.0
C2798 C 0.71915 0.85658 0.75179 0.0
H2799 H 0.64737 0.84145 0.75893 0.0
H2800 H 0.67001 0.83497 0.75263 0.0
H2801 H 0.6641 0.83404 0.77679 0.0
H2802 H 0.69846 0.83635 0.7893 0.0
H2803 H 0.72214 0.81417 0.78508 0.0
H2804 H 0.73258 0.97075 0.50717 0.0
H2805 H 0.70307 0.98485 0.50156 0.0
H2806 H 0.67366 0.94304 0.5366 0.0
H2807 H 0.70323 0.92871 0.54242 0.0
H2808 H 0.66462 0.96469 0.48571 0.0
H2809 H 0.66737 0.99908 0.55941 0.0
H2810 H 0.68822 0.9912 0.55013 0.0
H2811 H 0.66927 0.97332 0.55738 0.0
C2812 C 0.71989 0.96449 0.51374 0.0
C2813 C 0.72033 0.94863 0.52536 0.0
C2814 C 0.70302 0.97256 0.51044 0.0
C2815 C 0.68633 0.96507 0.5188 0.0
C2816 C 0.68654 0.94912 0.53021 0.0
H2817 H 0.56853 0.98387 0.49731 0.0
H2818 H 0.59908 0.97107 0.4982 0.0
C2819 C 0.70341 0.94093 0.53346 0.0
C2820 C 0.66877 0.97415 0.51562 0.0
H2821 H 0.63971 1.00101 0.53821 0.0
C2822 C 0.65914 0.97267 0.49714 0.0
C2823 C 0.66195 0.98476 0.53055 0.0
C2824 C 0.67227 0.98739 0.55048 0.0
C2825 C 0.64252 0.98123 0.49328 0.0
C2826 C 0.6354 0.9914 0.50833 0.0
C2827 C 0.64526 0.99319 0.52672 0.0
C2828 C 0.61723 0.99955 0.50558 0.0
C2829 C 0.63277 0.97945 0.47316 0.0
C2830 C 0.61738 0.01982 0.50935 0.0
C2831 C 0.59993 0.02718 0.50885 0.0
C2832 C 0.58216 0.01428 0.50481 0.0
C2833 C 0.58208 0.99411 0.50043 0.0
C2834 C 0.59949 0.9868 0.50084 0.0
H2835 H 0.64269 0.97582 0.46261 0.0
H2836 H 0.61999 0.96744 0.47174 0.0
H2837 H 0.62761 0.99334 0.46964 0.0
H2838 H 0.63097 0.02984 0.51314 0.0
H2839 H 0.60031 0.04277 0.51236 0.0
H2840 H 0.38171 0.4852 0.75946 0.0
H2841 H 0.36859 0.44995 0.75886 0.0
H2842 H 0.31773 0.459 0.72333 0.0
H2843 H 0.33166 0.49386 0.72283 0.0
H2844 H 0.34019 0.43339 0.77334 0.0
H2845 H 0.32444 0.40985 0.69689 0.0
H2846 H 0.33842 0.43363 0.70521 0.0
H2847 H 0.31221 0.43005 0.70222 0.0
C2848 C 0.36786 0.4795 0.75132 0.0
C2849 C 0.35724 0.49226 0.74187 0.0
C2850 C 0.36033 0.45937 0.75098 0.0
C2851 C 0.34209 0.45158 0.74104 0.0
C2852 C 0.33198 0.46431 0.73078 0.0
H2853 H 0.2683 0.35009 0.77751 0.0
H2854 H 0.28497 0.38288 0.77186 0.0
C2855 C 0.3397 0.48438 0.73087 0.0
C2856 C 0.33297 0.43069 0.74285 0.0
H2857 H 0.30664 0.38929 0.71805 0.0
C2858 C 0.333 0.42377 0.76116 0.0
C2859 C 0.32395 0.41772 0.72703 0.0
C2860 C 0.32497 0.42316 0.70675 0.0
C2861 C 0.32379 0.40472 0.76418 0.0
C2862 C 0.31356 0.39231 0.74854 0.0
C2863 C 0.31408 0.3989 0.73014 0.0
C2864 C 0.30241 0.37243 0.75099 0.0
C2865 C 0.32552 0.39807 0.78414 0.0
C2866 C 0.30577 0.35561 0.74037 0.0
C2867 C 0.2958 0.33685 0.7432 0.0
C2868 C 0.28243 0.33453 0.75684 0.0
C2869 C 0.27872 0.35139 0.76709 0.0
C2870 C 0.28837 0.37015 0.76398 0.0
H2871 H 0.33878 0.40621 0.79276 0.0
H2872 H 0.31282 0.40114 0.79134 0.0
H2873 H 0.32598 0.38203 0.78405 0.0
H2874 H 0.31642 0.35694 0.73018 0.0
H2875 H 0.29903 0.32412 0.73515 0.0
H2876 H 0.16552 0.53974 0.27479 0.0
H2877 H 0.18622 0.57165 0.27421 0.0
H2878 H 0.13951 0.60055 0.29091 0.0
H2879 H 0.11995 0.56833 0.29414 0.0
H2880 H 0.18595 0.59848 0.25438 0.0
H2881 H 0.17955 0.63305 0.32535 0.0
H2882 H 0.16898 0.60776 0.3185 0.0
H2883 H 0.15601 0.6274 0.31221 0.0
C2884 C 0.16014 0.55292 0.27937 0.0
C2885 C 0.14175 0.55159 0.28586 0.0
C2886 C 0.17179 0.57126 0.27858 0.0
C2887 C 0.16484 0.58882 0.28315 0.0
C2888 C 0.1458 0.58743 0.28834 0.0
H2889 H 0.21669 0.69859 0.23978 0.0
H2890 H 0.199 0.66585 0.24397 0.0
C2891 C 0.13448 0.56899 0.28995 0.0
C2892 C 0.17716 0.60835 0.28128 0.0
H2893 H 0.19137 0.65509 0.30234 0.0
C2894 C 0.18733 0.61069 0.26512 0.0
C2895 C 0.17934 0.62448 0.29524 0.0
C2896 C 0.17054 0.62295 0.31387 0.0
C2897 C 0.19942 0.62845 0.26248 0.0
C2898 C 0.20048 0.64494 0.27575 0.0
C2899 C 0.19048 0.64261 0.292 0.0
C2900 C 0.21161 0.66478 0.27302 0.0
C2901 C 0.21132 0.62898 0.24574 0.0
C2902 C 0.22403 0.67566 0.28816 0.0
C2903 C 0.23352 0.69477 0.28599 0.0
C2904 C 0.23116 0.70316 0.26851 0.0
C2905 C 0.21906 0.69225 0.25329 0.0
C2906 C 0.20906 0.67343 0.25564 0.0
H2907 H 0.21463 0.61414 0.24174 0.0
H2908 H 0.20288 0.63358 0.23322 0.0
H2909 H 0.22525 0.6394 0.24886 0.0
H2910 H 0.22624 0.66945 0.30175 0.0
H2911 H 0.24269 0.703 0.29798 0.0
H2912 H 0.5465 0.75833 0.42678 0.0
H2913 H 0.54696 0.72954 0.44523 0.0
H2914 H 0.51052 0.69315 0.39963 0.0
H2915 H 0.51046 0.72187 0.38083 0.0
H2916 H 0.51678 0.7079 0.45847 0.0
H2917 H 0.55091 0.65928 0.41167 0.0
H2918 H 0.55129 0.68504 0.40806 0.0
H2919 H 0.53013 0.66705 0.39961 0.0
C2920 C 0.53885 0.74413 0.42052 0.0
C2921 C 0.52848 0.74236 0.4023 0.0
C2922 C 0.53909 0.72768 0.43113 0.0
C2923 C 0.52894 0.7091 0.42379 0.0
C2924 C 0.51885 0.70721 0.40544 0.0
H2925 H 0.49259 0.59755 0.46876 0.0
H2926 H 0.49674 0.62735 0.45143 0.0
C2927 C 0.51876 0.72366 0.39472 0.0
C2928 C 0.5279 0.69208 0.43588 0.0
H2929 H 0.53496 0.6442 0.43687 0.0
C2930 C 0.52097 0.69405 0.45382 0.0
C2931 C 0.53341 0.674 0.42987 0.0
C2932 C 0.54204 0.67124 0.41134 0.0
C2933 C 0.51891 0.67831 0.46562 0.0
C2934 C 0.52392 0.66014 0.45935 0.0
C2935 C 0.53108 0.65819 0.44158 0.0
C2936 C 0.52103 0.64267 0.47065 0.0
C2937 C 0.51087 0.68094 0.48447 0.0
C2938 C 0.53322 0.64153 0.48735 0.0
C2939 C 0.53093 0.62442 0.49729 0.0
C2940 C 0.51639 0.6083 0.49065 0.0
C2941 C 0.50393 0.60975 0.47421 0.0
C2942 C 0.5063 0.62673 0.46426 0.0
H2943 H 0.50559 0.69522 0.4863 0.0
H2944 H 0.49873 0.66873 0.48578 0.0
H2945 H 0.52238 0.68039 0.49623 0.0
H2946 H 0.54475 0.65368 0.49244 0.0
H2947 H 0.54077 0.62365 0.50988 0.0
H2948 H 0.53647 0.29719 0.70612 0.0
H2949 H 0.56915 0.30309 0.72315 0.0
H2950 H 0.591 0.27667 0.67457 0.0
H2951 H 0.55853 0.27126 0.6573 0.0
H2952 H 0.59069 0.27675 0.73399 0.0
H2953 H 0.63142 0.32511 0.68663 0.0
H2954 H 0.60524 0.31984 0.68429 0.0
H2955 H 0.61887 0.30267 0.67393 0.0
C2956 C 0.54831 0.29296 0.69893 0.0
C2957 C 0.5449 0.28384 0.6803 0.0
C2958 C 0.56699 0.29629 0.70872 0.0
C2959 C 0.58267 0.29059 0.70011 0.0
C2960 C 0.57932 0.28171 0.6814 0.0
H2961 H 0.68694 0.25823 0.75365 0.0
H2962 H 0.654 0.26024 0.74062 0.0
C2963 C 0.56068 0.27852 0.67155 0.0
C2964 C 0.6022 0.29264 0.7111 0.0
H2965 H 0.65051 0.30923 0.70897 0.0
C2966 C 0.60373 0.28406 0.72861 0.0
C2967 C 0.61927 0.30245 0.70432 0.0
C2968 C 0.61862 0.31322 0.68637 0.0
C2969 C 0.62184 0.28439 0.73911 0.0
C2970 C 0.63899 0.29309 0.73172 0.0
C2971 C 0.63742 0.30233 0.71458 0.0
C2972 C 0.65873 0.29211 0.74106 0.0
C2973 C 0.62234 0.27546 0.75808 0.0
C2974 C 0.67258 0.30934 0.74553 0.0
C2975 C 0.69161 0.30824 0.75285 0.0
C2976 C 0.69723 0.28985 0.75578 0.0
C2977 C 0.68317 0.27267 0.75176 0.0
C2978 C 0.66421 0.27379 0.74436 0.0
H2979 H 0.60852 0.27565 0.76453 0.0
H2980 H 0.62426 0.25983 0.75596 0.0
H2981 H 0.6345 0.28342 0.76827 0.0
H2982 H 0.66875 0.32365 0.74305 0.0
H2983 H 0.70204 0.32177 0.75568 0.0
H2984 H 0.01124 0.36939 0.87053 0.0
H2985 H 0.00847 0.39731 0.89265 0.0
H2986 H 0.02743 0.36606 0.94 0.0
H2987 H 0.03033 0.33814 0.91812 0.0
H2988 H 0.98424 0.39577 0.92295 0.0
H2989 H 0.0619 0.42109 0.94944 0.0
H2990 H 0.05426 0.40532 0.9278 0.0
H2991 H 0.05337 0.39518 0.95058 0.0
C2992 C 0.01511 0.36853 0.88562 0.0
C2993 C 0.02103 0.35145 0.89248 0.0
C2994 C 0.01343 0.38449 0.89825 0.0
C2995 C 0.01788 0.38383 0.91796 0.0
C2996 C 0.02419 0.36702 0.92483 0.0
H2997 H 0.98196 0.45765 0.00913 0.0
H2998 H 0.98701 0.42961 0.98803 0.0
C2999 C 0.02577 0.35102 0.91226 0.0
C3000 C 0.015 0.40028 0.93142 0.0
H3001 H 0.03879 0.43548 0.96546 0.0
C3002 C 0.99616 0.40447 0.93223 0.0
C3003 C 0.03059 0.41166 0.94346 0.0
C3004 C 0.05121 0.40826 0.94274 0.0
C3005 C 0.99246 0.41965 0.94486 0.0
C3006 C 0.008 0.43082 0.95713 0.0
C3007 C 0.02687 0.42675 0.9562 0.0
C3008 C 0.00512 0.4475 0.97029 0.0
C3009 C 0.97203 0.42391 0.94471 0.0
C3010 C 0.01385 0.46676 0.9675 0.0
C3011 C 0.01095 0.48269 0.97944 0.0
C3012 C 0.99947 0.47969 0.99461 0.0
C3013 C 0.99087 0.46038 0.99755 0.0
C3014 C 0.9937 0.44439 0.98549 0.0
H3015 H 0.96255 0.41672 0.93189 0.0
H3016 H 0.96568 0.41827 0.95751 0.0
H3017 H 0.97201 0.44005 0.94518 0.0
H3018 H 0.02268 0.46952 0.95586 0.0
H3019 H 0.01755 0.49741 0.97661 0.0
H3020 H 0.91026 0.75536 0.14742 0.0
H3021 H 0.88399 0.75808 0.16721 0.0
H3022 H 0.92527 0.76944 0.21737 0.0
H3023 H 0.95178 0.76667 0.1977 0.0
H3024 H 0.89131 0.74146 0.22135 0.0
H3025 H 0.8729 0.81012 0.19256 0.0
H3026 H 0.87344 0.79044 0.17484 0.0
H3027 H 0.89544 0.80161 0.18917 0.0
C3028 C 0.91386 0.75845 0.16266 0.0
C3029 C 0.93327 0.76092 0.17089 0.0
C3030 C 0.89876 0.76009 0.17395 0.0
C3031 C 0.90267 0.76426 0.19374 0.0
C3032 C 0.92192 0.76632 0.2021 0.0
H3033 H 0.8259 0.80371 0.27219 0.0
H3034 H 0.85273 0.80001 0.25315 0.0
C3035 C 0.93708 0.76476 0.19081 0.0
C3036 C 0.88665 0.7664 0.20568 0.0
H3037 H 0.85144 0.79418 0.213 0.0
C3038 C 0.88261 0.753 0.21956 0.0
C3039 C 0.87541 0.78158 0.20345 0.0
C3040 C 0.87956 0.79689 0.18933 0.0
C3041 C 0.86745 0.75419 0.23105 0.0
C3042 C 0.85593 0.76908 0.22851 0.0
C3043 C 0.86017 0.78266 0.21483 0.0
C3044 C 0.83965 0.77109 0.24015 0.0
C3045 C 0.86408 0.73968 0.24604 0.0
C3046 C 0.8233 0.75613 0.23908 0.0
C3047 C 0.80796 0.75823 0.24997 0.0
C3048 C 0.80865 0.77537 0.26202 0.0
C3049 C 0.82501 0.79031 0.26308 0.0
C3050 C 0.84031 0.78824 0.25216 0.0
H3051 H 0.87679 0.73222 0.24916 0.0
H3052 H 0.86095 0.74716 0.25948 0.0
H3053 H 0.85135 0.7282 0.24089 0.0
H3054 H 0.82233 0.74288 0.22974 0.0
H3055 H 0.79565 0.74637 0.24909 0.0
H3056 H 0.47022 0.34008 0.06459 0.0
H3057 H 0.47941 0.37353 0.05528 0.0
H3058 H 0.52896 0.38313 0.09771 0.0
H3059 H 0.51991 0.34953 0.10729 0.0
H3060 H 0.48771 0.41184 0.08177 0.0
H3061 H 0.54881 0.39353 0.04276 0.0
H3062 H 0.52902 0.37466 0.04719 0.0
H3063 H 0.54653 0.38581 0.06648 0.0
C3064 C 0.48303 0.34927 0.07205 0.0
C3065 C 0.49439 0.34207 0.08663 0.0
C3066 C 0.4882 0.36839 0.06674 0.0
C3067 C 0.50487 0.38062 0.07577 0.0
C3068 C 0.51608 0.37377 0.09057 0.0
H3069 H 0.54866 0.49202 0.02727 0.0
H3070 H 0.54745 0.46464 0.04817 0.0
C3071 C 0.51085 0.35462 0.09602 0.0
C3072 C 0.51063 0.40031 0.06902 0.0
H3073 H 0.5395 0.42436 0.03865 0.0
C3074 C 0.49925 0.41478 0.07262 0.0
C3075 C 0.5258 0.40401 0.05726 0.0
C3076 C 0.5383 0.38875 0.05306 0.0
C3077 C 0.50211 0.43265 0.06399 0.0
C3078 C 0.51636 0.43578 0.05111 0.0
C3079 C 0.52852 0.42181 0.04845 0.0
C3080 C 0.51741 0.45239 0.03879 0.0
C3081 C 0.48956 0.44783 0.06841 0.0
C3082 C 0.50117 0.45411 0.02625 0.0
C3083 C 0.5018 0.4697 0.01457 0.0
C3084 C 0.51874 0.48379 0.01517 0.0
C3085 C 0.5353 0.48161 0.02706 0.0
C3086 C 0.53464 0.46599 0.03886 0.0
H3087 H 0.48407 0.44614 0.08256 0.0
H3088 H 0.4977 0.46303 0.06821 0.0
H3089 H 0.47679 0.44587 0.05752 0.0
H3090 H 0.48793 0.44341 0.02554 0.0
H3091 H 0.48884 0.47098 0.00544 0.0
H3092 H 0.98833 0.26031 0.36867 0.0
H3093 H 0.95744 0.25443 0.34842 0.0
H3094 H 0.93871 0.302 0.38051 0.0
H3095 H 0.96876 0.30616 0.4021 0.0
H3096 H 0.91053 0.2747 0.37443 0.0
H3097 H 0.94085 0.28137 0.30523 0.0
H3098 H 0.94628 0.25968 0.31592 0.0
H3099 H 0.95613 0.28367 0.32736 0.0
C3100 C 0.9776 0.26958 0.3712 0.0
C3101 C 0.98092 0.28397 0.38658 0.0
C3102 C 0.96 0.26632 0.35956 0.0
C3103 C 0.94581 0.27812 0.36247 0.0
C3104 C 0.94936 0.29269 0.37783 0.0
H3105 H 0.85191 0.30224 0.28699 0.0
H3106 H 0.88283 0.29989 0.30508 0.0
C3107 C 0.96656 0.29524 0.39006 0.0
C3108 C 0.92697 0.27496 0.35013 0.0
H3109 H 0.90657 0.27114 0.30389 0.0
C3110 C 0.90976 0.27404 0.35901 0.0
C3111 C 0.92572 0.27368 0.32991 0.0
C3112 C 0.94327 0.2748 0.31905 0.0
C3113 C 0.89162 0.27272 0.34839 0.0
C3114 C 0.89055 0.27173 0.32829 0.0
C3115 C 0.90752 0.27191 0.31933 0.0
C3116 C 0.87219 0.2721 0.31634 0.0
C3117 C 0.87386 0.27318 0.35881 0.0
C3118 C 0.85619 0.25694 0.31625 0.0
C3119 C 0.83851 0.25831 0.30598 0.0
C3120 C 0.8367 0.27477 0.29558 0.0
C3121 C 0.85296 0.28944 0.29495 0.0
C3122 C 0.87059 0.28811 0.30527 0.0
H3123 H 0.87773 0.27808 0.37415 0.0
H3124 H 0.86463 0.28319 0.35231 0.0
H3125 H 0.86512 0.25814 0.35778 0.0
H3126 H 0.85729 0.24425 0.32436 0.0
H3127 H 0.82618 0.24671 0.30651 0.0
H3128 H 0.97866 0.7301 0.6172 0.0
H3129 H 0.97543 0.69751 0.60032 0.0
H3130 H 0.9738 0.72387 0.54654 0.0
H3131 H 0.97675 0.75655 0.56329 0.0
H3132 H 0.94859 0.68615 0.54624 0.0
H3133 H 0.0244 0.68541 0.57663 0.0
H3134 H 0.00797 0.68904 0.594 0.0
H3135 H 0.01356 0.70743 0.57745 0.0
C3136 C 0.97716 0.72894 0.60177 0.0
C3137 C 0.97823 0.74593 0.59159 0.0
C3138 C 0.97539 0.71031 0.59215 0.0
C3139 C 0.9748 0.70837 0.57223 0.0
C3140 C 0.97434 0.7251 0.56194 0.0
H3141 H 0.01488 0.61226 0.51166 0.0
H3142 H 0.00814 0.64473 0.52194 0.0
C3143 C 0.97603 0.74376 0.57155 0.0
C3144 C 0.97667 0.6893 0.56234 0.0
H3145 H 0.0078 0.65631 0.55914 0.0
C3146 C 0.96152 0.67959 0.549 0.0
C3147 C 0.99374 0.68102 0.5657 0.0
C3148 C 0.01094 0.69131 0.57908 0.0
C3149 C 0.96284 0.66152 0.53925 0.0
C3150 C 0.97965 0.65294 0.54312 0.0
C3151 C 0.9949 0.66287 0.55621 0.0
C3152 C 0.98182 0.63348 0.5342 0.0
C3153 C 0.94636 0.65192 0.52473 0.0
C3154 C 0.96902 0.61637 0.53729 0.0
C3155 C 0.97276 0.59776 0.53131 0.0
C3156 C 0.98953 0.59592 0.52235 0.0
C3157 C 1.00186 0.61313 0.51854 0.0
C3158 C 0.99804 0.63171 0.52442 0.0
H3159 H 0.93741 0.66279 0.51948 0.0
H3160 H 0.95186 0.64471 0.51237 0.0
H3161 H 0.9368 0.64046 0.53142 0.0
H3162 H 0.95666 0.61732 0.54517 0.0
H3163 H 0.96304 0.58483 0.53465 0.0
H3164 H 0.59721 0.80114 0.90658 0.0
H3165 H 0.62457 0.79299 0.89015 0.0
H3166 H 0.58764 0.74093 0.86217 0.0
H3167 H 0.56086 0.74844 0.87948 0.0
H3168 H 0.62343 0.73424 0.86795 0.0
H3169 H 0.62366 0.80579 0.83582 0.0
H3170 H 0.62952 0.80857 0.86117 0.0
H3171 H 0.60574 0.79638 0.85108 0.0
C3172 C 0.59531 0.78761 0.89747 0.0
C3173 C 0.57718 0.77533 0.8942 0.0
C3174 C 0.61077 0.78308 0.88791 0.0
C3175 C 0.60793 0.7667 0.87446 0.0
C3176 C 0.59015 0.75369 0.87238 0.0
H3177 H 0.66949 0.76666 0.7745 0.0
H3178 H 0.64444 0.76514 0.7965 0.0
C3179 C 0.57488 0.75796 0.88225 0.0
C3180 C 0.6225 0.76414 0.86109 0.0
H3181 H 0.64721 0.78717 0.8272 0.0
C3182 C 0.62867 0.74579 0.85902 0.0
C3183 C 0.62885 0.77905 0.84906 0.0
C3184 C 0.62146 0.79846 0.84921 0.0
C3185 C 0.64102 0.74195 0.84526 0.0
C3186 C 0.64798 0.75716 0.83379 0.0
C3187 C 0.64188 0.7755 0.83597 0.0
C3188 C 0.66177 0.75472 0.81954 0.0
C3189 C 0.64591 0.72147 0.8428 0.0
C3190 C 0.67958 0.74877 0.82494 0.0
C3191 C 0.6936 0.74906 0.81218 0.0
C3192 C 0.69027 0.75591 0.79406 0.0
C3193 C 0.6723 0.76128 0.7884 0.0
C3194 C 0.65807 0.76049 0.80099 0.0
H3195 H 0.63442 0.71026 0.84749 0.0
H3196 H 0.64778 0.71739 0.82773 0.0
H3197 H 0.65963 0.72087 0.85174 0.0
H3198 H 0.68306 0.74485 0.8393 0.0
H3199 H 0.7075 0.74511 0.81693 0.0
H3200 H 0.38085 0.53887 0.67758 0.0
H3201 H 0.40017 0.54197 0.65051 0.0
H3202 H 0.44284 0.58621 0.68369 0.0
H3203 H 0.42398 0.58255 0.71104 0.0
H3204 H 0.41346 0.57057 0.62882 0.0
H3205 H 0.47611 0.54684 0.66945 0.0
H3206 H 0.45284 0.54572 0.67851 0.0
H3207 H 0.46946 0.56874 0.68006 0.0
C3208 C 0.39425 0.54939 0.67905 0.0
C3209 C 0.40101 0.56028 0.69653 0.0
C3210 C 0.40531 0.55116 0.66355 0.0
C3211 C 0.42325 0.56396 0.66517 0.0
C3212 C 0.42938 0.57577 0.68224 0.0
H3213 H 0.48637 0.58024 0.5628 0.0
H3214 H 0.46947 0.58753 0.59055 0.0
C3215 C 0.4185 0.57378 0.69783 0.0
C3216 C 0.43586 0.56418 0.6493 0.0
H3217 H 0.48049 0.5561 0.63842 0.0
C3218 C 0.42815 0.56749 0.63093 0.0
C3219 C 0.45498 0.55992 0.65198 0.0
C3220 C 0.4638 0.55491 0.67101 0.0
C3221 C 0.43887 0.56634 0.61515 0.0
C3222 C 0.45806 0.5623 0.61789 0.0
C3223 C 0.46588 0.55941 0.63633 0.0
C3224 C 0.46957 0.55894 0.60169 0.0
C3225 C 0.42919 0.56856 0.59559 0.0
C3226 C 0.47611 0.54086 0.59916 0.0
C3227 C 0.48608 0.53682 0.58361 0.0
C3228 C 0.48974 0.55074 0.57006 0.0
C3229 C 0.48383 0.56918 0.57294 0.0
C3230 C 0.47393 0.57327 0.58868 0.0
H3231 H 0.41316 0.56695 0.59539 0.0
H3232 H 0.43463 0.58346 0.59117 0.0
H3233 H 0.43257 0.55747 0.58491 0.0
H3234 H 0.47305 0.52957 0.609 0.0
H3235 H 0.4904 0.52247 0.58197 0.0
H3236 H 0.7943 0.16915 0.92986 0.0
H3237 H 0.78915 0.18849 0.90265 0.0
H3238 H 0.78185 0.23755 0.94055 0.0
H3239 H 0.78752 0.21835 0.96802 0.0
H3240 H 0.75735 0.20211 0.89066 0.0
H3241 H 0.81717 0.26596 0.90603 0.0
H3242 H 0.81632 0.24401 0.91881 0.0
H3243 H 0.80195 0.26238 0.92497 0.0
C3244 C 0.79197 0.18419 0.93252 0.0
C3245 C 0.79146 0.19216 0.95127 0.0
C3246 C 0.78893 0.19525 0.91685 0.0
C3247 C 0.78522 0.21463 0.91937 0.0
C3248 C 0.78511 0.22283 0.9381 0.0
H3249 H 0.75203 0.29651 0.83603 0.0
H3250 H 0.75796 0.2798 0.86523 0.0
C3251 C 0.78833 0.21179 0.95387 0.0
C3252 C 0.78039 0.22557 0.90228 0.0
H3253 H 0.79339 0.26804 0.88033 0.0
C3254 C 0.76532 0.2165 0.88843 0.0
C3255 C 0.79063 0.24444 0.89924 0.0
C3256 C 0.80754 0.25471 0.91294 0.0
C3257 C 0.76025 0.22567 0.87183 0.0
C3258 C 0.77057 0.24444 0.86875 0.0
C3259 C 0.78543 0.25368 0.88267 0.0
C3260 C 0.76649 0.25442 0.85092 0.0
C3261 C 0.74368 0.21524 0.85781 0.0
C3262 C 0.76933 0.24582 0.83308 0.0
C3263 C 0.766 0.25536 0.8164 0.0
C3264 C 0.75972 0.27376 0.81711 0.0
C3265 C 0.75674 0.28231 0.83495 0.0
C3266 C 0.7602 0.2728 0.85167 0.0
H3267 H 0.73414 0.20364 0.8644 0.0
H3268 H 0.73473 0.22585 0.85199 0.0
H3269 H 0.74962 0.20805 0.84574 0.0
H3270 H 0.77449 0.23184 0.83208 0.0
H3271 H 0.76869 0.24846 0.80296 0.0
H3272 H 0.06037 0.4866 0.23312 0.0
H3273 H 0.04608 0.48754 0.20024 0.0
H3274 H 0.10333 0.49781 0.18158 0.0
H3275 H 0.11772 0.49696 0.2144 0.0
H3276 H 0.05371 0.52061 0.17729 0.0
H3277 H 0.073 0.45267 0.14331 0.0
H3278 H 0.07281 0.4567 0.16878 0.0
H3279 H 0.09268 0.46884 0.15725 0.0
C3280 C 0.06993 0.48874 0.22199 0.0
C3281 C 0.09022 0.49163 0.22644 0.0
C3282 C 0.06173 0.48935 0.20319 0.0
C3283 C 0.07359 0.49257 0.18836 0.0
C3284 C 0.09383 0.495 0.19269 0.0
H3285 H 0.05667 0.50945 0.06744 0.0
H3286 H 0.0687 0.50341 0.09975 0.0
C3287 C 0.10206 0.49456 0.21151 0.0
C3288 C 0.06489 0.49458 0.16861 0.0
H3289 H 0.06021 0.47436 0.12265 0.0
C3290 C 0.05499 0.51042 0.16536 0.0
C3291 C 0.0667 0.48139 0.153 0.0
C3292 C 0.07673 0.46383 0.15568 0.0
C3293 C 0.0473 0.51372 0.14692 0.0
C3294 C 0.04899 0.50046 0.13125 0.0
C3295 C 0.0588 0.48452 0.13457 0.0
C3296 C 0.04119 0.50319 0.1113 0.0
C3297 C 0.03808 0.53185 0.14437 0.0
C3298 C 0.02154 0.50458 0.10671 0.0
C3299 C 0.01461 0.50821 0.0882 0.0
C3300 C 0.02709 0.51024 0.07371 0.0
C3301 C 0.04658 0.50801 0.07816 0.0
C3302 C 0.05352 0.50455 0.0967 0.0
H3303 H 0.04293 0.54322 0.15643 0.0
H3304 H 0.04157 0.53851 0.13094 0.0
H3305 H 0.02208 0.52767 0.14381 0.0
H3306 H 0.01154 0.503 0.11749 0.0
H3307 H 0.99949 0.50965 0.08532 0.0
H3308 H 0.75451 0.86737 0.49914 0.0
H3309 H 0.75294 0.84513 0.47069 0.0
H3310 H 0.77148 0.89467 0.43842 0.0
H3311 H 0.77358 0.9171 0.46695 0.0
H3312 H 0.73143 0.84298 0.43653 0.0
H3313 H 0.80984 0.85837 0.42739 0.0
H3314 H 0.80027 0.86624 0.44885 0.0
H3315 H 0.79915 0.88033 0.42826 0.0
C3316 C 0.75826 0.87361 0.48601 0.0
C3317 C 0.76429 0.89405 0.48536 0.0
C3318 C 0.75736 0.86083 0.46977 0.0
C3319 C 0.76245 0.86823 0.45258 0.0
C3320 C 0.76797 0.88864 0.4517 0.0
H3321 H 0.7341 0.81896 0.33817 0.0
H3322 H 0.73434 0.83393 0.37038 0.0
C3323 C 0.76901 0.90145 0.46798 0.0
C3324 C 0.76171 0.85459 0.43548 0.0
H3325 H 0.78882 0.84128 0.4009 0.0
C3326 C 0.74401 0.84244 0.42882 0.0
C3327 C 0.77826 0.85358 0.42576 0.0
C3328 C 0.798 0.86517 0.43303 0.0
C3329 C 0.74222 0.8299 0.41215 0.0
C3330 C 0.75844 0.82991 0.40171 0.0
C3331 C 0.77634 0.84143 0.40884 0.0
C3332 C 0.75697 0.81917 0.38276 0.0
C3333 C 0.72297 0.8168 0.4059 0.0
C3334 C 0.76977 0.80607 0.37899 0.0
C3335 C 0.76985 0.79772 0.3605 0.0
C3336 C 0.75716 0.80243 0.34559 0.0
C3337 C 0.74398 0.81505 0.34947 0.0
C3338 C 0.74399 0.82348 0.3679 0.0
H3339 H 0.71461 0.81343 0.41823 0.0
H3340 H 0.71418 0.82455 0.39594 0.0
H3341 H 0.72495 0.8027 0.3985 0.0
H3342 H 0.77998 0.80267 0.39027 0.0
H3343 H 0.78014 0.78801 0.35779 0.0
H3344 H 0.41703 0.55992 0.79185 0.0
H3345 H 0.43698 0.56194 0.82244 0.0
H3346 H 0.38568 0.54394 0.85033 0.0
H3347 H 0.36557 0.5417 0.8199 0.0
H3348 H 0.43565 0.58371 0.85843 0.0
H3349 H 0.42077 0.50243 0.86261 0.0
H3350 H 0.41573 0.51396 0.84085 0.0
H3351 H 0.39957 0.51384 0.85911 0.0
C3352 C 0.40992 0.55653 0.80449 0.0
C3353 C 0.38966 0.55046 0.80331 0.0
C3354 C 0.42137 0.55773 0.82197 0.0
C3355 C 0.41282 0.55282 0.83857 0.0
C3356 C 0.39258 0.54751 0.83761 0.0
H3357 H 0.464 0.56681 0.95681 0.0
H3358 H 0.44549 0.57038 0.92635 0.0
C3359 C 0.38111 0.54631 0.82018 0.0
C3360 C 0.42511 0.55245 0.85674 0.0
H3361 H 0.43837 0.52142 0.88954 0.0
C3362 C 0.43628 0.57012 0.86526 0.0
C3363 C 0.42607 0.53463 0.86545 0.0
C3364 C 0.41505 0.51509 0.8565 0.0
C3365 C 0.44818 0.57047 0.88248 0.0
C3366 C 0.44877 0.55271 0.8914 0.0
C3367 C 0.43779 0.53503 0.88272 0.0
C3368 C 0.46088 0.55194 0.90961 0.0
C3369 C 0.46026 0.58973 0.89084 0.0
C3370 C 0.4756 0.54036 0.9103 0.0
C3371 C 0.48611 0.53826 0.92763 0.0
C3372 C 0.48197 0.54759 0.94461 0.0
C3373 C 0.46749 0.55949 0.9439 0.0
C3374 C 0.457 0.56163 0.92652 0.0
H3375 H 0.46159 0.60098 0.8802 0.0
H3376 H 0.45329 0.59558 0.9029 0.0
H3377 H 0.47504 0.58756 0.89639 0.0
H3378 H 0.47877 0.5327 0.89743 0.0
H3379 H 0.49718 0.52898 0.92779 0.0
H3380 H 0.81537 0.22547 0.05767 0.0
H3381 H 0.81347 0.24064 0.08957 0.0
H3382 H 0.78236 0.18558 0.10496 0.0
H3383 H 0.78483 0.17024 0.07345 0.0
H3384 H 0.78341 0.24748 0.10646 0.0
H3385 H 0.82026 0.19878 0.15113 0.0
H3386 H 0.82095 0.19812 0.12566 0.0
H3387 H 0.8004 0.18489 0.13563 0.0
C3388 C 0.80847 0.21648 0.06798 0.0
C3389 C 0.80043 0.19655 0.06297 0.0
C3390 C 0.80729 0.22522 0.08624 0.0
C3391 C 0.79802 0.21427 0.09999 0.0
C3392 C 0.79011 0.19431 0.09499 0.0
H3393 H 0.74649 0.26384 0.1956 0.0
H3394 H 0.75362 0.25042 0.16481 0.0
C3395 C 0.79145 0.18554 0.07683 0.0
C3396 C 0.79563 0.22395 0.11906 0.0
H3397 H 0.80087 0.21885 0.16708 0.0
C3398 C 0.78741 0.24127 0.1197 0.0
C3399 C 0.80108 0.2162 0.13653 0.0
C3400 C 0.81135 0.19861 0.13724 0.0
C3401 C 0.78404 0.25065 0.13707 0.0
C3402 C 0.78845 0.24225 0.15445 0.0
C3403 C 0.79717 0.22525 0.15386 0.0
C3404 C 0.78413 0.25077 0.17335 0.0
C3405 C 0.77611 0.26972 0.13655 0.0
C3406 C 0.79866 0.25496 0.18886 0.0
C3407 C 0.79452 0.26241 0.20669 0.0
C3408 C 0.77573 0.26593 0.20952 0.0
C3409 C 0.76121 0.26169 0.19398 0.0
C3410 C 0.76531 0.25407 0.17622 0.0
H3411 H 0.77965 0.2774 0.12362 0.0
H3412 H 0.76006 0.26647 0.13612 0.0
H3413 H 0.78195 0.27988 0.14931 0.0
H3414 H 0.81327 0.25248 0.18719 0.0
H3415 H 0.80608 0.26531 0.2183 0.0
H3416 H 0.07205 0.51285 0.3214 0.0
H3417 H 0.05418 0.51863 0.34885 0.0
H3418 H 0.09842 0.49891 0.38585 0.0
H3419 H 0.11661 0.4939 0.35873 0.0
H3420 H 0.03768 0.49718 0.37397 0.0
H3421 H 0.09742 0.5505 0.41366 0.0
H3422 H 0.09827 0.54163 0.38928 0.0
H3423 H 0.10495 0.52727 0.40858 0.0
C3424 C 0.07787 0.50958 0.33536 0.0
C3425 C 0.09587 0.50305 0.33783 0.0
C3426 C 0.06768 0.51299 0.35111 0.0
C3427 C 0.07518 0.50984 0.36966 0.0
C3428 C 0.09261 0.50225 0.37191 0.0
H3429 H 0.0083 0.49485 0.46672 0.0
H3430 H 0.02559 0.49117 0.43869 0.0
C3431 C 0.10292 0.49915 0.35629 0.0
C3432 C 0.06481 0.51426 0.38661 0.0
H3433 H 0.07155 0.53751 0.43155 0.0
C3434 C 0.04509 0.50613 0.38648 0.0
C3435 C 0.0742 0.52636 0.4029 0.0
C3436 C 0.09481 0.53711 0.40355 0.0
C3437 C 0.03476 0.50917 0.40226 0.0
C3438 C 0.04452 0.52013 0.41904 0.0
C3439 C 0.06406 0.52882 0.41892 0.0
C3440 C 0.0348 0.5225 0.43685 0.0
C3441 C 0.01335 0.50086 0.40054 0.0
C3442 C 0.03508 0.54129 0.44607 0.0
C3443 C 0.02552 0.54339 0.46252 0.0
C3444 C 0.01541 0.52676 0.46998 0.0
C3445 C 0.01566 0.50799 0.4611 0.0
C3446 C 0.02543 0.50587 0.44493 0.0
H3447 H 0.00692 0.49917 0.38544 0.0
H3448 H 0.0113 0.48601 0.40606 0.0
H3449 H 0.00526 0.51042 0.40879 0.0
H3450 H 0.04238 0.55438 0.44035 0.0
H3451 H 0.0256 0.55803 0.46907 0.0
H3452 H 0.71384 0.86888 0.56905 0.0
H3453 H 0.70359 0.84846 0.59454 0.0
H3454 H 0.74915 0.88295 0.63378 0.0
H3455 H 0.75895 0.90389 0.60846 0.0
H3456 H 0.72492 0.82545 0.61062 0.0
H3457 H 0.70652 0.87529 0.66754 0.0
H3458 H 0.70884 0.88264 0.64367 0.0
H3459 H 0.73001 0.88459 0.66069 0.0
C3460 C 0.72131 0.87244 0.58326 0.0
C3461 C 0.73723 0.8879 0.58681 0.0
C3462 C 0.71545 0.86075 0.5978 0.0
C3463 C 0.72549 0.8642 0.61613 0.0
C3464 C 0.74083 0.88027 0.61991 0.0
H3465 H 0.76113 0.78744 0.69348 0.0
H3466 H 0.75254 0.80418 0.66541 0.0
C3467 C 0.74652 0.89218 0.6054 0.0
C3468 C 0.72176 0.84953 0.63044 0.0
H3469 H 0.71724 0.84531 0.67768 0.0
C3470 C 0.7228 0.82975 0.62519 0.0
C3471 C 0.71861 0.85494 0.64936 0.0
C3472 C 0.71571 0.87549 0.65556 0.0
C3473 C 0.72213 0.81558 0.63863 0.0
C3474 C 0.72089 0.82143 0.65791 0.0
C3475 C 0.71845 0.84086 0.66292 0.0
C3476 C 0.72437 0.80845 0.67337 0.0
C3477 C 0.72321 0.79457 0.63207 0.0
C3478 C 0.71131 0.80507 0.68716 0.0
C3479 C 0.71627 0.79557 0.7034 0.0
C3480 C 0.73447 0.7895 0.70616 0.0
C3481 C 0.74699 0.79189 0.69178 0.0
C3482 C 0.74203 0.80137 0.67562 0.0
H3483 H 0.71673 0.79096 0.61706 0.0
H3484 H 0.73866 0.79271 0.63271 0.0
H3485 H 0.71561 0.7839 0.64117 0.0
H3486 H 0.69765 0.81051 0.68574 0.0
H3487 H 0.70636 0.79411 0.71428 0.0
H3488 H 0.66534 0.41979 0.48675 0.0
H3489 H 0.63788 0.43722 0.4894 0.0
H3490 H 0.64908 0.44105 0.55066 0.0
H3491 H 0.67598 0.42255 0.54797 0.0
H3492 H 0.61135 0.4376 0.54126 0.0
H3493 H 0.64719 0.49539 0.49939 0.0
H3494 H 0.64184 0.47196 0.48588 0.0
H3495 H 0.65884 0.47535 0.50707 0.0
C3496 C 0.66154 0.42379 0.50079 0.0
C3497 C 0.67272 0.41962 0.51714 0.0
C3498 C 0.64602 0.4341 0.50231 0.0
C3499 C 0.64173 0.44123 0.52022 0.0
C3500 C 0.65211 0.43595 0.53664 0.0
H3501 H 0.58126 0.54276 0.52843 0.0
H3502 H 0.60511 0.52044 0.52988 0.0
C3503 C 0.66741 0.4252 0.53511 0.0
C3504 C 0.6272 0.45493 0.52171 0.0
H3505 H 0.6147 0.4973 0.5051 0.0
C3506 C 0.61215 0.45071 0.53342 0.0
C3507 C 0.62837 0.47243 0.51193 0.0
C3508 C 0.64505 0.47918 0.50055 0.0
C3509 C 0.59814 0.46312 0.53527 0.0
C3510 C 0.59869 0.48001 0.5246 0.0
C3511 C 0.61395 0.48435 0.51317 0.0
C3512 C 0.58388 0.49355 0.52513 0.0
C3513 C 0.58328 0.45821 0.5491 0.0
C3514 C 0.56383 0.48619 0.522 0.0
C3515 C 0.55017 0.49902 0.5217 0.0
C3516 C 0.55614 0.51958 0.52405 0.0
C3517 C 0.57615 0.52699 0.52683 0.0
C3518 C 0.58982 0.51417 0.52757 0.0
H3519 H 0.58873 0.4495 0.56053 0.0
H3520 H 0.57927 0.47174 0.55586 0.0
H3521 H 0.57001 0.4491 0.54139 0.0
H3522 H 0.55866 0.47051 0.51922 0.0
H3523 H 0.53502 0.49276 0.51867 0.0
H3524 H 0.22532 0.11986 0.49294 0.0
H3525 H 0.19171 0.10437 0.49321 0.0
H3526 H 0.17285 0.15691 0.47327 0.0
H3527 H 0.20681 0.17157 0.47098 0.0
H3528 H 0.16835 0.11404 0.51451 0.0
H3529 H 0.13435 0.11745 0.44119 0.0
H3530 H 0.16026 0.12293 0.44732 0.0
H3531 H 0.14543 0.14141 0.45178 0.0
C3532 C 0.21396 0.12769 0.48767 0.0
C3533 C 0.21853 0.1464 0.48093 0.0
C3534 C 0.19473 0.11899 0.48818 0.0
C3535 C 0.17959 0.12927 0.48293 0.0
C3536 C 0.18415 0.14832 0.47669 0.0
H3537 H 0.07093 0.09109 0.53071 0.0
H3538 H 0.10157 0.11001 0.52325 0.0
C3539 C 0.20352 0.15679 0.47558 0.0
C3540 C 0.1594 0.12056 0.48589 0.0
H3541 H 0.11273 0.10952 0.46484 0.0
C3542 C 0.15626 0.11291 0.50352 0.0
C3543 C 0.14357 0.11892 0.47158 0.0
C3544 C 0.14608 0.12543 0.45185 0.0
C3545 C 0.13797 0.10333 0.50714 0.0
C3546 C 0.12192 0.10256 0.49322 0.0
C3547 C 0.12495 0.11037 0.47562 0.0
C3548 C 0.10208 0.09307 0.49649 0.0
C3549 C 0.1364 0.09343 0.52557 0.0
C3550 C 0.0914 0.07832 0.48325 0.0
C3551 C 0.07345 0.06815 0.48713 0.0
C3552 C 0.06625 0.0723 0.50449 0.0
C3553 C 0.0765 0.08749 0.51739 0.0
C3554 C 0.09404 0.09814 0.5132 0.0
H3555 H 0.15055 0.08967 0.53124 0.0
H3556 H 0.13207 0.10367 0.53645 0.0
H3557 H 0.12551 0.07966 0.52367 0.0
H3558 H 0.09719 0.07424 0.47019 0.0
H3559 H 0.0656 0.05652 0.47697 0.0
H3560 H 0.16987 0.96045 0.76559 0.0
H3561 H 0.18549 0.9319 0.7591 0.0
H3562 H 0.19083 0.9228 0.81915 0.0
H3563 H 0.1767 0.95243 0.82572 0.0
H3564 H 0.22212 0.91882 0.80768 0.0
H3565 H 0.16764 0.87519 0.7537 0.0
H3566 H 0.17531 0.89905 0.74563 0.0
H3567 H 0.16278 0.8968 0.76677 0.0
C3568 C 0.17408 0.9521 0.77734 0.0
C3569 C 0.17192 0.95848 0.79613 0.0
C3570 C 0.1829 0.93564 0.77361 0.0
C3571 C 0.18903 0.92471 0.78854 0.0
C3572 C 0.18628 0.93084 0.80731 0.0
H3573 H 0.22825 0.8123 0.76608 0.0
H3574 H 0.20924 0.83826 0.77151 0.0
C3575 C 0.17808 0.94771 0.81109 0.0
C3576 C 0.19964 0.90794 0.78483 0.0
H3577 H 0.19981 0.86708 0.75491 0.0
C3578 C 0.21702 0.90738 0.79628 0.0
C3579 C 0.19302 0.89267 0.77018 0.0
C3580 C 0.17355 0.89084 0.75856 0.0
C3581 C 0.228 0.89233 0.79341 0.0
C3582 C 0.22217 0.87796 0.77784 0.0
C3583 C 0.20462 0.87828 0.76658 0.0
C3584 C 0.23372 0.86218 0.77335 0.0
C3585 C 0.24535 0.89173 0.80759 0.0
C3586 C 0.25379 0.86676 0.77195 0.0
C3587 C 0.26476 0.85174 0.7693 0.0
C3588 C 0.25578 0.83187 0.7671 0.0
C3589 C 0.23558 0.82736 0.76734 0.0
C3590 C 0.22468 0.84231 0.77059 0.0
H3591 H 0.24376 0.89901 0.82168 0.0
H3592 H 0.24747 0.87635 0.80967 0.0
H3593 H 0.25858 0.89985 0.80239 0.0
H3594 H 0.26109 0.88195 0.77323 0.0
H3595 H 0.28032 0.85565 0.76909 0.0
H3596 H 0.2694 0.94419 0.03947 0.0
H3597 H 0.30318 0.9611 0.04258 0.0
H3598 H 0.31757 0.91578 1.00424 0.0
H3599 H 0.28402 0.89832 1.00212 0.0
H3600 H 0.34427 0.92326 0.03249 0.0
H3601 H 0.33165 0.99586 0.00884 0.0
H3602 H 0.31856 0.98836 0.02853 0.0
H3603 H 0.31331 0.97415 0.00587 0.0
C3604 C 0.27975 0.93811 0.03143 0.0
C3605 C 0.27407 0.92023 0.02018 0.0
C3606 C 0.29908 0.94781 0.03315 0.0
C3607 C 0.31304 0.94003 0.02333 0.0
C3608 C 0.3072 0.92219 0.01196 0.0
H3609 H 0.42288 1.00015 0.9962 0.0
H3610 H 0.38952 0.9837 0.99762 0.0
C3611 C 0.288 0.91227 0.01062 0.0
C3612 C 0.33384 0.94993 0.02533 0.0
H3613 H 0.36349 0.99362 0.02076 0.0
C3614 C 0.34843 0.93865 0.02988 0.0
C3615 C 0.33949 0.97006 0.02204 0.0
C3616 C 0.32497 0.98286 0.01592 0.0
C3617 C 0.36827 0.94675 0.03075 0.0
C3618 C 0.37375 0.96684 0.02744 0.0
C3619 C 0.35927 0.97823 0.02338 0.0
C3620 C 0.39431 0.97616 0.02677 0.0
C3621 C 0.38317 0.93356 0.03454 0.0
C3622 C 0.40813 0.97752 0.04274 0.0
C3623 C 0.4273 0.98688 0.04191 0.0
C3624 C 0.43286 0.99517 0.02517 0.0
C3625 C 0.41899 0.99391 0.0093 0.0
C3626 C 0.39993 0.9845 0.01009 0.0
H3627 H 0.3766 0.91768 0.0324 0.0
H3628 H 0.39494 0.93644 0.02511 0.0
H3629 H 0.38978 0.9366 0.04953 0.0
H3630 H 0.40406 0.9716 0.0559 0.0
H3631 H 0.43772 0.98774 0.05438 0.0
H3632 H 0.87813 0.62046 0.72996 0.0
H3633 H 0.86009 0.64775 0.72461 0.0
H3634 H 0.85464 0.65455 0.78481 0.0
H3635 H 0.8721 0.62715 0.79005 0.0
H3636 H 0.81991 0.64945 0.76417 0.0
H3637 H 0.87031 0.70754 0.73431 0.0
H3638 H 0.86747 0.68347 0.72204 0.0
H3639 H 0.87857 0.68749 0.74622 0.0
C3640 C 0.87372 0.62832 0.7421 0.0
C3641 C 0.87664 0.62177 0.76044 0.0
C3642 C 0.86332 0.64388 0.73903 0.0
C3643 C 0.85594 0.65329 0.75431 0.0
C3644 C 0.86007 0.64754 0.77276 0.0
H3645 H 0.80078 0.75585 0.76527 0.0
H3646 H 0.82307 0.73216 0.76341 0.0
C3647 C 0.87019 0.63195 0.77578 0.0
C3648 C 0.84223 0.66757 0.75115 0.0
H3649 H 0.83766 0.71245 0.73466 0.0
C3650 C 0.82381 0.66321 0.75767 0.0
C3651 C 0.84727 0.68557 0.74273 0.0
C3652 C 0.86703 0.69146 0.73605 0.0
C3653 C 0.81048 0.67637 0.75634 0.0
C3654 C 0.81541 0.69431 0.74776 0.0
C3655 C 0.83376 0.69863 0.74103 0.0
C3656 C 0.80223 0.70931 0.74695 0.0
C3657 C 0.79154 0.67124 0.76486 0.0
C3658 C 0.78316 0.70468 0.73783 0.0
C3659 C 0.77029 0.71823 0.73895 0.0
C3660 C 0.77631 0.73676 0.74903 0.0
C3661 C 0.79566 0.74171 0.75735 0.0
C3662 C 0.80846 0.72816 0.7563 0.0
H3663 H 0.79205 0.65949 0.77491 0.0
H3664 H 0.78779 0.68439 0.77259 0.0
H3665 H 0.77975 0.66576 0.75329 0.0
H3666 H 0.7781 0.69041 0.73016 0.0
H3667 H 0.75552 0.71405 0.73229 0.0
H3668 H 0.82164 0.62036 0.96796 0.0
H3669 H 0.84795 0.60421 0.98105 0.0
H3670 H 0.83985 0.62566 0.03788 0.0
H3671 H 0.81433 0.64283 0.02471 0.0
H3672 H 0.87607 0.62761 0.03588 0.0
H3673 H 0.84129 0.55359 0.00502 0.0
H3674 H 0.84479 0.56975 0.9863 0.0
H3675 H 0.8289 0.57452 1.00405 0.0
C3676 C 0.82564 0.62177 0.98322 0.0
C3677 C 0.81596 0.63279 0.99532 0.0
C3678 C 0.84049 0.61233 0.99073 0.0
C3679 C 0.84543 0.6131 0.01053 0.0
C3680 C 0.83618 0.62466 0.02258 0.0
H3681 H 0.92339 0.53003 0.04248 0.0
H3682 H 0.89476 0.5464 0.04233 0.0
C3683 C 0.82167 0.63453 0.01504 0.0
C3684 C 0.86044 0.60209 0.01856 0.0
H3685 H 0.87589 0.55776 0.01422 0.0
C3686 C 0.87586 0.61223 0.03137 0.0
C3687 C 0.85988 0.5818 0.01339 0.0
C3688 C 0.84268 0.56926 1.00163 0.0
C3689 C 0.89132 0.60303 0.03809 0.0
C3690 C 0.89183 0.58342 0.0311 0.0
C3691 C 0.87578 0.5729 0.01934 0.0
C3692 C 0.90953 0.57426 0.03408 0.0
C3693 C 0.90691 0.61452 0.05256 0.0
C3694 C 0.92737 0.58446 0.02973 0.0
C3695 C 0.94367 0.57532 0.03025 0.0
C3696 C 0.94239 0.55555 0.03452 0.0
C3697 C 0.92471 0.5453 0.03917 0.0
C3698 C 0.90839 0.55464 0.03905 0.0
H3699 H 0.90065 0.62458 0.06218 0.0
H3700 H 0.91442 0.60466 0.06137 0.0
H3701 H 0.91776 0.62385 0.04506 0.0
H3702 H 0.92858 0.59927 0.02512 0.0
H3703 H 0.95711 0.58354 0.02645 0.0
H3704 H 0.14032 0.07271 0.81161 0.0
H3705 H 0.15569 0.10708 0.80951 0.0
H3706 H 0.20421 0.08673 0.7861 0.0
H3707 H 0.18804 0.05263 0.78661 0.0
H3708 H 0.18744 0.12981 0.82418 0.0
H3709 H 0.19091 0.12128 0.74642 0.0
H3710 H 0.17824 0.10214 0.75906 0.0
H3711 H 0.20417 0.10472 0.75846 0.0
C3712 C 0.1543 0.07569 0.80609 0.0
C3713 C 0.16335 0.0601 0.79985 0.0
C3714 C 0.16311 0.09529 0.80494 0.0
C3715 C 0.18101 0.09959 0.79735 0.0
C3716 C 0.19019 0.08391 0.79153 0.0
H3717 H 0.25125 0.21844 0.80804 0.0
H3718 H 0.23665 0.18473 0.8137 0.0
C3719 C 0.18117 0.0644 0.79225 0.0
C3720 C 0.18979 0.12039 0.79502 0.0
H3721 H 0.20915 0.15062 0.76269 0.0
C3722 C 0.19204 0.13442 0.81069 0.0
C3723 C 0.1955 0.12656 0.77733 0.0
C3724 C 0.19188 0.11292 0.75934 0.0
C3725 C 0.19987 0.15435 0.8092 0.0
C3726 C 0.20651 0.16028 0.79176 0.0
C3727 C 0.20425 0.14619 0.77613 0.0
C3728 C 0.21525 0.18103 0.78897 0.0
C3729 C 0.20026 0.16883 0.82617 0.0
C3730 C 0.20866 0.19008 0.77287 0.0
C3731 C 0.21753 0.20894 0.76924 0.0
C3732 C 0.23289 0.21941 0.78187 0.0
C3733 C 0.23927 0.21069 0.79821 0.0
C3734 C 0.23078 0.1915 0.80153 0.0
H3735 H 0.18903 0.16346 0.83559 0.0
H3736 H 0.21461 0.17061 0.83472 0.0
H3737 H 0.19783 0.18349 0.82172 0.0
H3738 H 0.1967 0.18246 0.76294 0.0
H3739 H 0.21225 0.21544 0.75661 0.0
H3740 H 0.35071 0.02669 0.24424 0.0
H3741 H 0.3314 0.99394 0.24476 0.0
H3742 H 0.3811 0.97391 0.27308 0.0
H3743 H 0.39948 0.00748 0.27471 0.0
H3744 H 0.33162 0.96129 0.23001 0.0
H3745 H 0.34486 0.95195 0.30698 0.0
H3746 H 0.35547 0.97405 0.29711 0.0
H3747 H 0.36692 0.95256 0.29605 0.0
C3748 C 0.35715 0.01547 0.25134 0.0
C3749 C 0.37602 0.01991 0.26067 0.0
C3750 C 0.34627 0.99658 0.25128 0.0
C3751 C 0.3544 0.98137 0.25971 0.0
C3752 C 0.37398 0.98547 0.26749 0.0
H3753 H 0.30195 0.85774 0.23534 0.0
H3754 H 0.31984 0.89113 0.23443 0.0
C3755 C 0.38458 0.00462 0.26822 0.0
C3756 C 0.34246 0.96127 0.25962 0.0
H3757 H 0.32947 0.92316 0.28722 0.0
C3758 C 0.33105 0.95316 0.24266 0.0
C3759 C 0.34159 0.95032 0.27601 0.0
C3760 C 0.35274 0.95779 0.29506 0.0
C3761 C 0.31881 0.93476 0.24166 0.0
C3762 C 0.31838 0.92371 0.25788 0.0
C3763 C 0.32977 0.93167 0.27479 0.0
C3764 C 0.30655 0.90371 0.25762 0.0
C3765 C 0.30619 0.92755 0.2233 0.0
C3766 C 0.29329 0.89951 0.27114 0.0
C3767 C 0.28322 0.88032 0.27186 0.0
C3768 C 0.28626 0.86502 0.25905 0.0
C3769 C 0.2992 0.8693 0.24528 0.0
C3770 C 0.30936 0.88842 0.24467 0.0
H3771 H 0.30357 0.93999 0.21466 0.0
H3772 H 0.31363 0.91767 0.2147 0.0
H3773 H 0.29195 0.91917 0.22606 0.0
H3774 H 0.29095 0.91104 0.28134 0.0
H3775 H 0.2734 0.87738 0.28267 0.0
H3776 H 0.50698 0.32801 0.64112 0.0
H3777 H 0.51111 0.35926 0.62584 0.0
H3778 H 0.45944 0.33797 0.5875 0.0
H3779 H 0.45527 0.30686 0.60243 0.0
H3780 H 0.49145 0.35258 0.56896 0.0
H3781 H 0.48086 0.40556 0.62796 0.0
H3782 H 0.49856 0.39007 0.63364 0.0
H3783 H 0.47342 0.37924 0.62827 0.0
C3784 C 0.4963 0.33013 0.62968 0.0
C3785 C 0.48083 0.31485 0.623 0.0
C3786 C 0.49867 0.34801 0.62096 0.0
C3787 C 0.48553 0.35096 0.60556 0.0
C3788 C 0.46978 0.336 0.59931 0.0
H3789 H 0.47252 0.44076 0.5259 0.0
H3790 H 0.46973 0.41033 0.5426 0.0
C3791 C 0.46743 0.3182 0.60793 0.0
C3792 C 0.48861 0.36909 0.5951 0.0
H3793 H 0.49043 0.419 0.59964 0.0
C3794 C 0.49121 0.36711 0.57566 0.0
C3795 C 0.48835 0.38802 0.60388 0.0
C3796 C 0.48499 0.39094 0.62455 0.0
C3797 C 0.49368 0.38356 0.56477 0.0
C3798 C 0.49316 0.40247 0.57347 0.0
C3799 C 0.49076 0.40448 0.59297 0.0
C3800 C 0.4952 0.42041 0.56268 0.0
C3801 C 0.49715 0.38058 0.54414 0.0
C3802 C 0.51031 0.43621 0.56849 0.0
C3803 C 0.51183 0.45356 0.55907 0.0
C3804 C 0.49823 0.45548 0.54368 0.0
C3805 C 0.48327 0.43958 0.53762 0.0
C3806 C 0.48172 0.4222 0.54712 0.0
H3807 H 0.50228 0.36639 0.54108 0.0
H3808 H 0.48334 0.38029 0.535 0.0
H3809 H 0.50802 0.3928 0.54012 0.0
H3810 H 0.52086 0.43518 0.58044 0.0
H3811 H 0.52352 0.46559 0.56404 0.0
H3812 H 0.45778 0.80149 0.37738 0.0
H3813 H 0.42456 0.79652 0.36146 0.0
H3814 H 0.44288 0.76497 0.31364 0.0
H3815 H 0.47569 0.76893 0.33015 0.0
H3816 H 0.41111 0.80979 0.33116 0.0
H3817 H 0.39479 0.72863 0.31901 0.0
H3818 H 0.416 0.74113 0.33393 0.0
H3819 H 0.4162 0.73829 0.30843 0.0
C3820 C 0.45457 0.79335 0.36354 0.0
C3821 C 0.46936 0.78622 0.35462 0.0
C3822 C 0.43562 0.79052 0.35442 0.0
C3823 C 0.43102 0.78026 0.33631 0.0
C3824 C 0.44577 0.77256 0.32773 0.0
H3825 H 0.33055 0.7994 0.26117 0.0
H3826 H 0.36336 0.79891 0.27614 0.0
C3827 C 0.46465 0.77519 0.33697 0.0
C3828 C 0.41116 0.77865 0.32603 0.0
H3829 H 0.37384 0.74647 0.30086 0.0
C3830 C 0.40299 0.79589 0.3246 0.0
C3831 C 0.40021 0.7605 0.31776 0.0
C3832 C 0.40717 0.74109 0.32004 0.0
C3833 C 0.38447 0.7956 0.31499 0.0
C3834 C 0.37397 0.77764 0.30584 0.0
C3835 C 0.38197 0.76032 0.30752 0.0
C3836 C 0.35438 0.77641 0.29512 0.0
C3837 C 0.37618 0.8145 0.3153 0.0
C3838 C 0.3385 0.763 0.2998 0.0
C3839 C 0.31981 0.76282 0.29079 0.0
C3840 C 0.31658 0.77618 0.27704 0.0
C3841 C 0.33258 0.78901 0.27178 0.0
C3842 C 0.35131 0.7889 0.28051 0.0
H3843 H 0.3831 0.82494 0.32755 0.0
H3844 H 0.379 0.82186 0.30207 0.0
H3845 H 0.36027 0.81163 0.31617 0.0
H3846 H 0.34043 0.75314 0.31093 0.0
H3847 H 0.30777 0.75291 0.29533 0.0
H3848 H 1.00237 0.72947 0.10876 0.0
H3849 H 0.00713 0.69973 0.09058 0.0
H3850 H 0.98158 0.66408 0.1328 0.0
H3851 H 0.97589 0.6941 0.1506 0.0
H3852 H 0.02918 0.67372 0.10095 0.0
H3853 H 0.95315 0.63527 0.08462 0.0
H3854 H 0.9592 0.65955 0.09674 0.0
H3855 H 0.96102 0.63823 0.1097 0.0
C3856 C 0.99723 0.71524 0.11386 0.0
C3857 C 0.98805 0.71398 0.13064 0.0
C3858 C 1.00018 0.69825 0.10359 0.0
C3859 C 0.99444 0.67956 0.11009 0.0
C3860 C 0.98567 0.67826 0.12719 0.0
H3861 H 0.00573 0.56266 0.06321 0.0
H3862 H 0.9994 0.59086 0.08274 0.0
C3863 C 0.98253 0.69538 0.13742 0.0
C3864 C 0.99869 0.66176 0.09929 0.0
H3865 H 0.97779 0.61765 0.07555 0.0
C3866 C 0.01791 0.66148 0.09536 0.0
C3867 C 0.98409 0.64558 0.09223 0.0
C3868 C 0.96317 0.64469 0.0959 0.0
C3869 C 0.02293 0.64562 0.08458 0.0
C3870 C 0.00822 0.62979 0.07697 0.0
C3871 C 0.98906 0.62987 0.08118 0.0
C3872 C 0.01237 0.61277 0.06496 0.0
C3873 C 0.04404 0.64583 0.08188 0.0
C3874 C 0.02162 0.61559 0.04827 0.0
C3875 C 0.02551 0.59941 0.03718 0.0
C3876 C 0.01984 0.58015 0.04237 0.0
C3877 C 0.01027 0.57735 0.05884 0.0
C3878 C 0.00661 0.59347 0.07002 0.0
H3879 H 0.05378 0.65547 0.09321 0.0
H3880 H 0.04773 0.63076 0.08193 0.0
H3881 H 0.04702 0.65172 0.068 0.0
H3882 H 0.02571 0.63028 0.04374 0.0
H3883 H 0.03274 0.60195 0.02445 0.0
H3884 H 0.0782 0.27749 0.86502 0.0
H3885 H 0.10896 0.27456 0.85222 0.0
H3886 H 0.1042 0.32498 0.8199 0.0
H3887 H 0.07341 0.32777 0.83226 0.0
H3888 H 0.11066 0.29446 0.7977 0.0
H3889 H 0.16381 0.30514 0.86217 0.0
H3890 H 0.14327 0.28619 0.86355 0.0
H3891 H 0.13982 0.31141 0.86232 0.0
C3892 C 0.08391 0.28823 0.85553 0.0
C3893 C 0.07323 0.30284 0.84967 0.0
C3894 C 0.10157 0.28656 0.84824 0.0
C3895 C 0.10905 0.29963 0.83515 0.0
C3896 C 0.09878 0.31469 0.82994 0.0
H3897 H 0.22133 0.31009 0.78867 0.0
H3898 H 0.19387 0.31516 0.80646 0.0
C3899 C 0.08114 0.31628 0.83708 0.0
C3900 C 0.12656 0.29673 0.82555 0.0
H3901 H 0.17475 0.29337 0.83338 0.0
C3902 C 0.12468 0.2943 0.80554 0.0
C3903 C 0.14495 0.2967 0.8357 0.0
C3904 C 0.1482 0.30019 0.85711 0.0
C3905 C 0.1405 0.29166 0.79544 0.0
C3906 C 0.15873 0.29097 0.80559 0.0
C3907 C 0.16074 0.29368 0.82559 0.0
C3908 C 0.1758 0.28749 0.79559 0.0
C3909 C 0.13758 0.29 0.77394 0.0
C3910 C 0.17497 0.27012 0.78382 0.0
C3911 C 0.19063 0.26722 0.77371 0.0
C3912 C 0.20756 0.28149 0.77535 0.0
C3913 C 0.20857 0.29871 0.78737 0.0
C3914 C 0.19286 0.30164 0.79748 0.0
H3915 H 0.1247 0.29626 0.76848 0.0
H3916 H 0.15053 0.2977 0.7679 0.0
H3917 H 0.13521 0.2742 0.76868 0.0
H3918 H 0.16216 0.2588 0.7824 0.0
H3919 H 0.18951 0.25372 0.76467 0.0
H3920 H 0.51094 0.709 0.91502 0.0
H3921 H 0.50757 0.67702 0.92894 0.0
H3922 H 0.52887 0.70634 0.98431 0.0
H3923 H 0.53219 0.73826 0.97063 0.0
H3924 H 0.53684 0.66004 0.94967 0.0
H3925 H 0.47704 0.67151 0.99284 0.0
H3926 H 0.48335 0.68628 0.97338 0.0
H3927 H 0.49736 0.69137 0.9963 0.0
C3928 C 0.51488 0.70861 0.93016 0.0
C3929 C 0.52174 0.72613 0.94176 0.0
C3930 C 0.51294 0.69037 0.93806 0.0
C3931 C 0.51767 0.68942 0.95767 0.0
C3932 C 0.52479 0.70684 0.9692 0.0
H3933 H 0.54895 0.59946 0.02568 0.0
H3934 H 0.54684 0.6278 0.00685 0.0
C3935 C 0.52678 0.72504 0.96133 0.0
C3936 C 0.51563 0.67024 0.96617 0.0
H3937 H 0.49401 0.64518 1.00079 0.0
C3938 C 0.52732 0.65664 0.96069 0.0
C3939 C 0.50295 0.66578 0.98029 0.0
C3940 C 0.48931 0.67941 0.98595 0.0
C3941 C 0.52736 0.63905 0.96968 0.0
C3942 C 0.51558 0.63521 0.98464 0.0
C3943 C 0.50318 0.64833 0.98945 0.0
C3944 C 0.51665 0.61814 0.9961 0.0
C3945 C 0.54011 0.62482 0.96322 0.0
C3946 C 0.50016 0.60375 0.99682 0.0
C3947 C 0.50129 0.58766 0.00775 0.0
C3948 C 0.5189 0.58584 0.01808 0.0
C3949 C 0.53521 0.60056 0.01781 0.0
C3950 C 0.53408 0.61659 0.00689 0.0
H3951 H 0.54376 0.62704 0.94846 0.0
H3952 H 0.55391 0.62728 0.97277 0.0
H3953 H 0.53298 0.60929 0.96383 0.0
H3954 H 0.48651 0.60487 0.98878 0.0
H3955 H 0.48846 0.57665 0.00812 0.0
H3956 H 0.06819 0.80599 0.62636 0.0
H3957 H 0.09627 0.798 0.64577 0.0
H3958 H 0.05776 0.76531 0.6813 0.0
H3959 H 0.0299 0.77456 0.6627 0.0
H3960 H 0.08466 0.78538 0.70274 0.0
H3961 H 0.12005 0.75031 0.64704 0.0
H3962 H 0.11731 0.7745 0.64061 0.0
H3963 H 0.09605 0.7563 0.64241 0.0
C3964 C 0.06588 0.79708 0.63832 0.0
C3965 C 0.04714 0.7912 0.64341 0.0
C3966 C 0.08183 0.79225 0.64923 0.0
C3967 C 0.07915 0.78058 0.66475 0.0
C3968 C 0.06024 0.77423 0.66939 0.0
H3969 H 0.17074 0.75341 0.74838 0.0
H3970 H 0.13889 0.7518 0.73007 0.0
C3971 C 0.04437 0.77956 0.65884 0.0
C3972 C 0.09612 0.7764 0.67701 0.0
H3973 H 0.1411 0.76393 0.67568 0.0
C3974 C 0.09696 0.78075 0.69677 0.0
C3975 C 0.11187 0.76931 0.66942 0.0
C3976 C 0.11114 0.76212 0.64873 0.0
C3977 C 0.11376 0.78005 0.70889 0.0
C3978 C 0.12993 0.77433 0.70105 0.0
C3979 C 0.12871 0.76867 0.68153 0.0
C3980 C 0.14871 0.77541 0.7126 0.0
C3981 C 0.11444 0.78634 0.7298 0.0
C3982 C 0.16458 0.78921 0.70876 0.0
C3983 C 0.18263 0.79014 0.71911 0.0
C3984 C 0.18508 0.77722 0.7334 0.0
C3985 C 0.16912 0.76359 0.73748 0.0
C3986 C 0.151 0.76266 0.72707 0.0
H3987 H 0.10172 0.79321 0.73302 0.0
H3988 H 0.11457 0.77325 0.73819 0.0
H3989 H 0.12791 0.79701 0.7346 0.0
H3990 H 0.16301 0.79918 0.69765 0.0
H3991 H 0.19473 0.80078 0.71571 0.0
H3992 H 0.04837 0.32861 0.46122 0.0
H3993 H 0.05187 0.35854 0.48267 0.0
H3994 H 0.03139 0.38994 0.43595 0.0
H3995 H 0.02917 0.36065 0.41435 0.0
H3996 H 0.05909 0.41279 0.45649 0.0
H3997 H 0.00862 0.37807 0.50551 0.0
H3998 H 0.02978 0.3668 0.50402 0.0
H3999 H 0.01235 0.36555 0.48341 0.0
C4000 C 0.04473 0.34196 0.45555 0.0
C4001 C 0.03825 0.34218 0.43613 0.0
C4002 C 0.04658 0.35901 0.46785 0.0
C4003 C 0.04138 0.3764 0.46109 0.0
C4004 C 0.03542 0.37672 0.44159 0.0
H4005 H 0.99482 0.46919 0.51184 0.0
H4006 H 0.00327 0.43812 0.50022 0.0
C4007 C 0.03407 0.35989 0.42923 0.0
C4008 C 0.0417 0.39428 0.47407 0.0
H4009 H 0.02219 0.41142 0.51295 0.0
C4010 C 0.0511 0.41248 0.4689 0.0
C4011 C 0.0312 0.39389 0.49026 0.0
C4012 C 0.01977 0.37508 0.49606 0.0
C4013 C 0.04943 0.43035 0.47872 0.0
C4014 C 0.03889 0.42996 0.49487 0.0
C4015 C 0.03038 0.41169 0.50067 0.0
C4016 C 0.03436 0.44825 0.50438 0.0
C4017 C 0.05789 0.44941 0.47087 0.0
C4018 C 0.04902 0.46417 0.51133 0.0
C4019 C 0.04418 0.48222 0.51765 0.0
C4020 C 0.02461 0.48443 0.51765 0.0
C4021 C 0.01005 0.468 0.51211 0.0
C4022 C 0.01487 0.45017 0.50542 0.0
H4023 H 0.06133 0.44704 0.45596 0.0
H4024 H 0.04771 0.46016 0.47115 0.0
H4025 H 0.0716 0.45601 0.47968 0.0
H4026 H 0.06417 0.46286 0.51128 0.0
H4027 H 0.05572 0.49458 0.52201 0.0
H4028 H 0.41949 0.30413 0.10865 0.0
H4029 H 0.39605 0.31133 0.13067 0.0
H4030 H 0.43036 0.29047 0.17661 0.0
H4031 H 0.45393 0.28388 0.15503 0.0
H4032 H 0.37387 0.28788 0.15093 0.0
H4033 H 0.42311 0.34234 0.20093 0.0
H4034 H 0.42969 0.33437 0.17801 0.0
H4035 H 0.43298 0.32006 0.19824 0.0
C4036 C 0.42199 0.30113 0.12346 0.0
C4037 C 0.43863 0.29366 0.13017 0.0
C4038 C 0.40869 0.30534 0.13602 0.0
C4039 C 0.41182 0.30202 0.1554 0.0
C4040 C 0.42806 0.2939 0.1619 0.0
H4041 H 0.32921 0.2712 0.23295 0.0
H4042 H 0.35391 0.27381 0.21068 0.0
C4043 C 0.44142 0.28995 0.14948 0.0
C4044 C 0.39762 0.3058 0.16878 0.0
H4045 H 0.3945 0.32542 0.21366 0.0
C4046 C 0.3783 0.29638 0.1645 0.0
C4047 C 0.40329 0.31728 0.1863 0.0
C4048 C 0.42336 0.32926 0.19102 0.0
C4049 C 0.3648 0.29709 0.17778 0.0
C4050 C 0.37099 0.30693 0.19602 0.0
C4051 C 0.38994 0.31745 0.19984 0.0
C4052 C 0.35814 0.30571 0.21145 0.0
C4053 C 0.34407 0.28711 0.17216 0.0
C4054 C 0.35352 0.32286 0.22038 0.0
C4055 C 0.33977 0.3214 0.23355 0.0
C4056 C 0.33048 0.30278 0.23771 0.0
C4057 C 0.33608 0.28572 0.22974 0.0
C4058 C 0.35 0.28719 0.2169 0.0
H4059 H 0.34033 0.28629 0.15647 0.0
H4060 H 0.34223 0.27178 0.17656 0.0
H4061 H 0.33368 0.29499 0.17911 0.0
H4062 H 0.35988 0.3373 0.21654 0.0
H4063 H 0.33557 0.33473 0.23953 0.0
H4064 H 0.59837 0.49897 0.32691 0.0
H4065 H 0.57579 0.49789 0.35134 0.0
H4066 H 0.62385 0.50475 0.39527 0.0
H4067 H 0.64655 0.50612 0.37108 0.0
H4068 H 0.56873 0.47357 0.3819 0.0
H4069 H 0.59663 0.55164 0.40772 0.0
H4070 H 0.60235 0.54086 0.3855 0.0
H4071 H 0.61496 0.53625 0.40768 0.0
C4072 C 0.60417 0.50008 0.34176 0.0
C4073 C 0.62436 0.50284 0.34696 0.0
C4074 C 0.59121 0.49942 0.35571 0.0
C4075 C 0.59814 0.50157 0.37514 0.0
C4076 C 0.61818 0.50343 0.38037 0.0
H4077 H 0.53393 0.48706 0.47481 0.0
H4078 H 0.55241 0.48121 0.44791 0.0
C4079 C 0.63115 0.50413 0.36647 0.0
C4080 C 0.58456 0.50282 0.38993 0.0
H4081 H 0.57421 0.5336 0.42582 0.0
C4082 C 0.56987 0.48669 0.3915 0.0
C4083 C 0.58589 0.52006 0.40226 0.0
C4084 C 0.60067 0.53827 0.40065 0.0
C4085 C 0.55669 0.48724 0.40529 0.0
C4086 C 0.55839 0.5043 0.41796 0.0
C4087 C 0.57295 0.52048 0.41619 0.0
C4088 C 0.54516 0.50603 0.43303 0.0
C4089 C 0.54086 0.46972 0.40595 0.0
C4090 C 0.53479 0.52181 0.43361 0.0
C4091 C 0.52437 0.52527 0.44901 0.0
C4092 C 0.52402 0.513 0.46422 0.0
C4093 C 0.53365 0.49663 0.46321 0.0
C4094 C 0.54423 0.49325 0.44781 0.0
H4095 H 0.53835 0.46024 0.39237 0.0
H4096 H 0.54517 0.46064 0.41754 0.0
H4097 H 0.52701 0.47452 0.40892 0.0
H4098 H 0.53528 0.53188 0.4224 0.0
H4099 H 0.5171 0.538 0.44929 0.0
H4100 H 0.23259 0.89583 0.09147 0.0
H4101 H 0.2378 0.88074 0.12168 0.0
H4102 H 0.22239 0.82292 0.09217 0.0
H4103 H 0.21711 0.83788 0.06192 0.0
H4104 H 0.21226 0.8534 0.1407 0.0
H4105 H 0.27634 0.82194 0.12122 0.0
H4106 H 0.26707 0.84087 0.10834 0.0
H4107 H 0.25514 0.81563 0.10427 0.0
C4108 C 0.23017 0.87989 0.09139 0.0
C4109 C 0.22444 0.86811 0.07416 0.0
C4110 C 0.23318 0.87127 0.10872 0.0
C4111 C 0.23081 0.85065 0.10927 0.0
C4112 C 0.22466 0.83885 0.09216 0.0
H4113 H 0.21921 0.77764 0.20488 0.0
H4114 H 0.21478 0.79587 0.17666 0.0
C4115 C 0.2215 0.84745 0.07484 0.0
C4116 C 0.23482 0.84152 0.12768 0.0
H4117 H 0.26372 0.81223 0.14984 0.0
C4118 C 0.22356 0.84446 0.1427 0.0
C4119 C 0.24974 0.83005 0.13052 0.0
C4120 C 0.26292 0.82702 0.11533 0.0
C4121 C 0.22643 0.83584 0.16014 0.0
C4122 C 0.24092 0.8238 0.16274 0.0
C4123 C 0.25254 0.82133 0.14792 0.0
C4124 C 0.24372 0.81308 0.18041 0.0
C4125 C 0.21396 0.83981 0.17572 0.0
C4126 C 0.26162 0.8163 0.19196 0.0
C4127 C 0.26421 0.80578 0.20825 0.0
C4128 C 0.24902 0.79166 0.21319 0.0
C4129 C 0.23122 0.78842 0.20154 0.0
C4130 C 0.2286 0.79898 0.18542 0.0
H4131 H 0.20762 0.8534 0.17372 0.0
H4132 H 0.2018 0.82726 0.17547 0.0
H4133 H 0.22243 0.84134 0.18996 0.0
H4134 H 0.2736 0.82696 0.18837 0.0
H4135 H 0.27818 0.8084 0.21672 0.0
H4136 H 0.89844 0.57969 0.83496 0.0
H4137 H 0.91714 0.57694 0.86518 0.0
H4138 H 0.96599 0.56689 0.83555 0.0
H4139 H 0.94731 0.56981 0.80497 0.0
H4140 H 0.93102 0.54337 0.87505 0.0
H4141 H 0.99178 0.60676 0.87967 0.0
H4142 H 0.97004 0.6052 0.8634 0.0
H4143 H 0.98836 0.5909 0.85805 0.0
C4144 C 0.91328 0.57723 0.83477 0.0
C4145 C 0.9213 0.57496 0.81739 0.0
C4146 C 0.92397 0.57563 0.85215 0.0
C4147 C 0.94303 0.57177 0.85277 0.0
C4148 C 0.95142 0.57019 0.83554 0.0
H4149 H 0.01868 0.54416 0.95073 0.0
H4150 H 0.00579 0.55106 0.91881 0.0
C4151 C 0.9407 0.57186 0.81803 0.0
C4152 C 0.95325 0.5679 0.87134 0.0
H4153 H 0.99255 0.58472 0.90405 0.0
C4154 C 0.94448 0.55244 0.88136 0.0
C4155 C 0.97093 0.57957 0.87957 0.0
C4156 C 0.98082 0.59665 0.86974 0.0
C4157 C 0.95271 0.54843 0.89931 0.0
C4158 C 0.97009 0.56042 0.90781 0.0
C4159 C 0.97918 0.57559 0.89762 0.0
C4160 C 0.97862 0.55762 0.92744 0.0
C4161 C 0.94277 0.5312 0.90895 0.0
C4162 C 0.96793 0.55955 0.94307 0.0
C4163 C 0.97523 0.5556 0.96131 0.0
C4164 C 0.99351 0.54974 0.96446 0.0
C4165 C 0.00455 0.54858 0.9489 0.0
C4166 C 0.99719 0.55253 0.9306 0.0
H4167 H 0.93303 0.52038 0.89858 0.0
H4168 H 0.95354 0.52347 0.91657 0.0
H4169 H 0.93378 0.53667 0.91952 0.0
H4170 H 0.95375 0.56386 0.94112 0.0
H4171 H 0.96634 0.55686 0.9729 0.0
H4172 H 0.29304 0.21271 0.54139 0.0
H4173 H 0.29188 0.22659 0.57373 0.0
H4174 H 0.26398 0.16995 0.58882 0.0
H4175 H 0.26462 0.15602 0.55625 0.0
H4176 H 0.24464 0.19932 0.59858 0.0
H4177 H 0.32282 0.22146 0.6237 0.0
H4178 H 0.31609 0.23131 0.6016 0.0
H4179 H 0.31429 0.20505 0.60266 0.0
C4180 C 0.28697 0.2031 0.55167 0.0
C4181 C 0.27889 0.18327 0.54629 0.0
C4182 C 0.28641 0.21105 0.57018 0.0
C4183 C 0.27805 0.19925 0.58372 0.0
C4184 C 0.27055 0.17928 0.57857 0.0
H4185 H 0.28126 0.23091 0.70378 0.0
H4186 H 0.28558 0.21723 0.67214 0.0
C4187 C 0.27098 0.17133 0.55999 0.0
C4188 C 0.27572 0.20813 0.60275 0.0
H4189 H 0.30059 0.2347 0.64228 0.0
C4190 C 0.25687 0.20695 0.60821 0.0
C4191 C 0.29172 0.218 0.61527 0.0
C4192 C 0.31238 0.21888 0.61061 0.0
C4193 C 0.25356 0.21547 0.62584 0.0
C4194 C 0.2695 0.22587 0.63811 0.0
C4195 C 0.28837 0.22694 0.63271 0.0
C4196 C 0.26706 0.23476 0.65709 0.0
C4197 C 0.23308 0.21285 0.63134 0.0
C4198 C 0.25542 0.24939 0.65909 0.0
C4199 C 0.25277 0.25712 0.67723 0.0
C4200 C 0.26191 0.25045 0.69351 0.0
C4201 C 0.27395 0.23622 0.69143 0.0
C4202 C 0.27648 0.22843 0.67338 0.0
H4203 H 0.22345 0.20045 0.62264 0.0
H4204 H 0.23279 0.21004 0.64662 0.0
H4205 H 0.22703 0.22652 0.62897 0.0
H4206 H 0.24838 0.25478 0.64666 0.0
H4207 H 0.24356 0.26821 0.67852 0.0
H4208 H 0.65251 0.51503 0.22741 0.0
H4209 H 0.63869 0.516 0.19445 0.0
H4210 H 0.58222 0.49085 0.20932 0.0
H4211 H 0.59595 0.48956 0.24226 0.0
H4212 H 0.5909 0.47519 0.17381 0.0
H4213 H 0.60458 0.55718 0.18009 0.0
H4214 H 0.62568 0.54606 0.18555 0.0
H4215 H 0.60626 0.54283 0.20052 0.0
C4216 C 0.63719 0.50949 0.22363 0.0
C4217 C 0.62529 0.50238 0.23749 0.0
C4218 C 0.62931 0.51015 0.2048 0.0
C4219 C 0.60937 0.50384 0.19953 0.0
C4220 C 0.59763 0.49588 0.21312 0.0
H4221 H 0.538 0.53763 0.10515 0.0
H4222 H 0.55316 0.53104 0.13618 0.0
C4223 C 0.6055 0.49518 0.23194 0.0
C4224 C 0.60055 0.5064 0.18012 0.0
H4225 H 0.59194 0.54153 0.14985 0.0
C4226 C 0.59115 0.48967 0.16852 0.0
C4227 C 0.60066 0.52534 0.17339 0.0
C4228 C 0.60967 0.54392 0.18556 0.0
C4229 C 0.58196 0.4914 0.15029 0.0
C4230 C 0.5824 0.51033 0.14344 0.0
C4231 C 0.59175 0.52703 0.15508 0.0
C4232 C 0.5727 0.51333 0.12452 0.0
C4233 C 0.57144 0.47301 0.13871 0.0
C4234 C 0.57866 0.50556 0.10765 0.0
C4235 C 0.56998 0.5093 0.08988 0.0
C4236 C 0.55531 0.52097 0.08875 0.0
C4237 C 0.54928 0.5286 0.10563 0.0
C4238 C 0.55794 0.52486 0.12335 0.0
H4239 H 0.56855 0.46036 0.14766 0.0
H4240 H 0.55743 0.47559 0.13148 0.0
H4241 H 0.58052 0.46889 0.12759 0.0
H4242 H 0.59026 0.49693 0.10822 0.0
H4243 H 0.5749 0.50328 0.07706 0.0
H4244 H 0.21434 0.84693 0.97469 0.0
H4245 H 0.21685 0.82773 0.94486 0.0
H4246 H 0.22997 0.88166 0.91717 0.0
H4247 H 0.22653 0.90066 0.94624 0.0
H4248 H 0.2076 0.85688 0.89352 0.0
H4249 H 0.26492 0.81756 0.92374 0.0
H4250 H 0.24287 0.81262 0.93483 0.0
H4251 H 0.25681 0.83717 0.93716 0.0
C4252 C 0.21757 0.85468 0.9622 0.0
C4253 C 0.22029 0.87546 0.96312 0.0
C4254 C 0.21926 0.84366 0.94512 0.0
C4255 C 0.22411 0.85314 0.92865 0.0
C4256 C 0.2263 0.87381 0.92951 0.0
H4257 H 0.27736 0.80853 0.83244 0.0
H4258 H 0.26944 0.82254 0.8627 0.0
C4259 C 0.22433 0.88474 0.94634 0.0
C4260 C 0.22699 0.84194 0.91043 0.0
H4261 H 0.25286 0.80876 0.8915 0.0
C4262 C 0.21749 0.84633 0.89315 0.0
C4263 C 0.24011 0.82832 0.90966 0.0
C4264 C 0.25192 0.82376 0.92729 0.0
C4265 C 0.22092 0.8379 0.87536 0.0
C4266 C 0.23365 0.8239 0.87462 0.0
C4267 C 0.24296 0.8193 0.8919 0.0
C4268 C 0.23827 0.81464 0.85612 0.0
C4269 C 0.21148 0.84489 0.85752 0.0
C4270 C 0.22352 0.80508 0.84217 0.0
C4271 C 0.22804 0.79728 0.82461 0.0
C4272 C 0.24747 0.79836 0.82067 0.0
C4273 C 0.26222 0.80731 0.83489 0.0
C4274 C 0.25769 0.81537 0.8523 0.0
H4275 H 0.20723 0.85957 0.86028 0.0
H4276 H 0.22133 0.84594 0.84609 0.0
H4277 H 0.1981 0.8343 0.8523 0.0
H4278 H 0.20843 0.80365 0.84481 0.0
H4279 H 0.21626 0.79037 0.81413 0.0
H4280 H 0.89824 0.56009 0.68956 0.0
H4281 H 0.91274 0.5561 0.65965 0.0
H4282 H 0.96959 0.57755 0.68904 0.0
H4283 H 0.95523 0.5815 0.71901 0.0
H4284 H 0.93584 0.58322 0.63945 0.0
H4285 H 0.97585 0.5243 0.66295 0.0
H4286 H 0.95674 0.53187 0.67554 0.0
H4287 H 0.98068 0.54639 0.67869 0.0
C4288 C 0.91383 0.56409 0.68966 0.0
C4289 C 0.92555 0.57106 0.70677 0.0
C4290 C 0.92211 0.56177 0.67252 0.0
C4291 C 0.94232 0.56617 0.67208 0.0
C4292 C 0.95401 0.57367 0.68903 0.0
H4293 H 0.00975 0.5843 0.57617 0.0
H4294 H 0.99204 0.58714 0.60409 0.0
C4295 C 0.94574 0.57607 0.70616 0.0
C4296 C 0.95117 0.56287 0.65396 0.0
H4297 H 0.98326 0.53761 0.63374 0.0
C4298 C 0.94615 0.57319 0.6382 0.0
C4299 C 0.9644 0.54953 0.65212 0.0
C4300 C 0.96964 0.53722 0.66814 0.0
C4301 C 0.9544 0.57099 0.62093 0.0
C4302 C 0.96822 0.55825 0.61935 0.0
C4303 C 0.9728 0.54748 0.63493 0.0
C4304 C 0.97857 0.55641 0.60194 0.0
C4305 C 0.94814 0.58225 0.60445 0.0
C4306 C 0.97725 0.5381 0.59149 0.0
C4307 C 0.98747 0.53643 0.57544 0.0
C4308 C 0.99935 0.55301 0.56968 0.0
C4309 C 1.00069 0.57125 0.58021 0.0
C4310 C 0.99044 0.57293 0.59613 0.0
H4311 H 0.93385 0.58679 0.60598 0.0
H4312 H 0.959 0.59581 0.60396 0.0
H4313 H 0.94718 0.5733 0.59069 0.0
H4314 H 0.96832 0.52509 0.59576 0.0
H4315 H 0.98635 0.52214 0.56778 0.0
H4316 H 0.2694 0.1712 0.414 0.0
H4317 H 0.27735 0.19723 0.3927 0.0
H4318 H 0.30809 0.23569 0.44011 0.0
H4319 H 0.29971 0.20995 0.46162 0.0
H4320 H 0.28381 0.25397 0.42035 0.0
H4321 H 0.32585 0.21898 0.37013 0.0
H4322 H 0.30319 0.20323 0.37177 0.0
H4323 H 0.32075 0.20898 0.39249 0.0
C4324 C 0.27812 0.18507 0.41985 0.0
C4325 C 0.28383 0.18853 0.43951 0.0
C4326 C 0.28279 0.19991 0.40763 0.0
C4327 C 0.2936 0.21831 0.41477 0.0
C4328 C 0.29982 0.22158 0.4343 0.0
H4329 H 0.30998 0.2933 0.32075 0.0
H4330 H 0.31972 0.28151 0.35151 0.0
C4331 C 0.29498 0.20685 0.44656 0.0
C4332 C 0.29669 0.23463 0.40211 0.0
H4333 H 0.30896 0.24454 0.35782 0.0
C4334 C 0.28973 0.25211 0.40685 0.0
C4335 C 0.30493 0.23253 0.38477 0.0
C4336 C 0.3143 0.21499 0.37962 0.0
C4337 C 0.28926 0.26677 0.39398 0.0
C4338 C 0.29542 0.26358 0.37575 0.0
C4339 C 0.30396 0.24692 0.3717 0.0
C4340 C 0.29055 0.27546 0.35977 0.0
C4341 C 0.2816 0.2852 0.39985 0.0
C4342 C 0.27103 0.27678 0.35457 0.0
C4343 C 0.26544 0.28365 0.33712 0.0
C4344 C 0.27921 0.28899 0.32433 0.0
C4345 C 0.29897 0.28922 0.33021 0.0
C4346 C 0.30458 0.28244 0.34779 0.0
H4347 H 0.28533 0.28925 0.41537 0.0
H4348 H 0.28747 0.29787 0.39191 0.0
H4349 H 0.26552 0.28242 0.39706 0.0
H4350 H 0.25985 0.27109 0.36331 0.0
H4351 H 0.2501 0.28337 0.33313 0.0
H4352 H 0.3355 0.627 0.47133 0.0
H4353 H 0.36328 0.61004 0.47551 0.0
H4354 H 0.37955 0.63985 0.53142 0.0
H4355 H 0.3514 0.65706 0.52738 0.0
H4356 H 0.41231 0.63493 0.50628 0.0
H4357 H 0.36195 0.56565 0.51439 0.0
H4358 H 0.35563 0.57862 0.49403 0.0
H4359 H 0.3551 0.5897 0.51759 0.0
C4360 C 0.34507 0.63027 0.48448 0.0
C4361 C 0.34099 0.64337 0.49909 0.0
C4362 C 0.361 0.62047 0.48683 0.0
C4363 C 0.3734 0.62339 0.50387 0.0
C4364 C 0.37016 0.63729 0.51814 0.0
H4365 H 0.44691 0.53764 0.53796 0.0
H4366 H 0.42444 0.56135 0.53694 0.0
C4367 C 0.35409 0.6472 0.51579 0.0
C4368 C 0.38877 0.61081 0.50695 0.0
H4369 H 0.39455 0.56275 0.51059 0.0
C4370 C 0.40847 0.61917 0.50738 0.0
C4371 C 0.38383 0.59024 0.50851 0.0
C4372 C 0.363 0.58046 0.50877 0.0
C4373 C 0.42325 0.60745 0.50884 0.0
C4374 C 0.41822 0.58674 0.50971 0.0
C4375 C 0.39853 0.57854 0.50978 0.0
C4376 C 0.43299 0.57321 0.51076 0.0
C4377 C 0.44414 0.61739 0.50966 0.0
C4378 C 0.44541 0.57176 0.49638 0.0
C4379 C 0.45833 0.55811 0.49696 0.0
C4380 C 0.45908 0.54558 0.51188 0.0
C4381 C 0.44668 0.54705 0.52623 0.0
C4382 C 0.43384 0.56067 0.52569 0.0
H4383 H 0.44591 0.63337 0.51414 0.0
H4384 H 0.45365 0.61043 0.51968 0.0
H4385 H 0.44911 0.61592 0.49528 0.0
H4386 H 0.44475 0.58079 0.4844 0.0
H4387 H 0.46726 0.55693 0.48542 0.0
H4388 H 0.82111 0.89777 0.53813 0.0
H4389 H 0.85639 0.90829 0.54165 0.0
H4390 H 0.84919 0.9638 0.56961 0.0
H4391 H 0.81426 0.95244 0.56748 0.0
H4392 H 0.87401 0.93364 0.52458 0.0
H4393 H 0.89711 0.95921 0.59922 0.0
H4394 H 0.87338 0.94486 0.59209 0.0
H4395 H 0.87736 0.97146 0.59199 0.0
C4396 C 0.82724 0.91203 0.54539 0.0
C4397 C 0.81513 0.9248 0.55171 0.0
C4398 C 0.84737 0.91805 0.54743 0.0
C4399 C 0.85567 0.93694 0.55585 0.0
C4400 C 0.84346 0.94901 0.56345 0.0
H4401 H 0.94238 0.01698 0.51259 0.0
H4402 H 0.91365 0.99496 0.52033 0.0
C4403 C 0.82339 0.94278 0.56175 0.0
C4404 C 0.87631 0.94522 0.55395 0.0
H4405 H 0.91517 0.97785 0.57577 0.0
C4406 C 0.88305 0.94302 0.53596 0.0
C4407 C 0.88866 0.95697 0.56882 0.0
C4408 C 0.88376 0.958 0.58913 0.0
C4409 C 0.90071 0.95373 0.53191 0.0
C4410 C 0.91192 0.96718 0.54616 0.0
C4411 C 0.90618 0.96805 0.56464 0.0
C4412 C 0.92927 0.98086 0.54195 0.0
C4413 C 0.90695 0.95084 0.51222 0.0
C4414 C 0.94743 0.98068 0.55198 0.0
C4415 C 0.96382 0.99341 0.54775 0.0
C4416 C 0.96232 0.00659 0.53342 0.0
C4417 C 0.94404 0.00694 0.5236 0.0
C4418 C 0.92764 0.99428 0.52794 0.0
H4419 H 0.90039 0.93605 0.50528 0.0
H4420 H 0.90197 0.96207 0.50322 0.0
H4421 H 0.92299 0.95248 0.51268 0.0
H4422 H 0.94898 0.97047 0.56288 0.0
H4423 H 0.97771 0.99263 0.5555 0.0
H4424 H 0.82103 0.09008 0.2715 0.0
H4425 H 0.80857 0.12091 0.2714 0.0
H4426 H 0.84828 0.14215 0.23139 0.0
H4427 H 0.86118 0.11094 0.23141 0.0
H4428 H 0.84381 0.17081 0.26368 0.0
H4429 H 0.77392 0.13415 0.22431 0.0
H4430 H 0.7813 0.12184 0.24475 0.0
H4431 H 0.79568 0.12326 0.22497 0.0
C4432 C 0.82726 0.1012 0.26263 0.0
C4433 C 0.84201 0.09782 0.25124 0.0
C4434 C 0.82007 0.11889 0.26264 0.0
C4435 C 0.82728 0.13368 0.2512 0.0
C4436 C 0.84246 0.13082 0.24026 0.0
H4437 H 0.75797 0.2255 0.22939 0.0
H4438 H 0.77824 0.20014 0.22582 0.0
C4439 C 0.84978 0.11299 0.24027 0.0
C4440 C 0.81815 0.15163 0.25036 0.0
H4441 H 0.77422 0.16579 0.24002 0.0
C4442 C 0.82868 0.16986 0.25827 0.0
C4443 C 0.79848 0.15037 0.24313 0.0
C4444 C 0.7867 0.1314 0.23364 0.0
C4445 C 0.81976 0.18672 0.25981 0.0
C4446 C 0.79974 0.18513 0.25356 0.0
C4447 C 0.7895 0.16704 0.24499 0.0
C4448 C 0.78888 0.20185 0.25574 0.0
C4449 C 0.83189 0.20602 0.26804 0.0
C4450 C 0.78804 0.21134 0.27377 0.0
C4451 C 0.77652 0.22601 0.27579 0.0
C4452 C 0.76547 0.23122 0.25989 0.0
C4453 C 0.76627 0.22169 0.24192 0.0
C4454 C 0.77793 0.20726 0.23985 0.0
H4455 H 0.84753 0.20629 0.26647 0.0
H4456 H 0.82714 0.21871 0.26107 0.0
H4457 H 0.83035 0.20795 0.28348 0.0
H4458 H 0.79587 0.20706 0.28634 0.0
H4459 H 0.77586 0.23292 0.28984 0.0
H4460 H 0.74909 0.12437 0.0159 0.0
H4461 H 0.7156 0.10783 0.01731 0.0
H4462 H 0.69424 0.15513 0.98932 0.0
H4463 H 0.72782 0.17149 0.98753 0.0
H4464 H 0.68666 0.12803 0.03602 0.0
H4465 H 0.66217 0.10416 0.95962 0.0
H4466 H 0.6862 0.10212 0.96973 0.0
H4467 H 0.68011 0.126 0.96607 0.0
C4468 C 0.73723 0.13089 0.00951 0.0
C4469 C 0.74098 0.14883 1.00101 0.0
C4470 C 0.71813 0.12155 0.01049 0.0
C4471 C 0.70242 0.13009 1.00316 0.0
C4472 C 0.70614 0.14807 0.99471 0.0
H4473 H 0.57733 0.09136 0.99667 0.0
H4474 H 0.61007 0.10864 0.99349 0.0
C4475 C 0.72527 0.15742 0.99373 0.0
C4476 C 0.68224 0.12094 0.00571 0.0
H4477 H 0.64009 0.09582 0.98174 0.0
C4478 C 0.67643 0.12102 0.02417 0.0
C4479 C 0.66884 0.11207 0.99021 0.0
C4480 C 0.67448 0.11104 0.97021 0.0
C4481 C 0.65756 0.1125 0.02754 0.0
C4482 C 0.64433 0.10301 0.01208 0.0
C4483 C 0.65015 0.10311 0.9936 0.0
C4484 C 0.6244 0.09285 0.01461 0.0
C4485 C 0.65191 0.11425 0.04757 0.0
C4486 C 0.62145 0.07804 0.0274 0.0
C4487 C 0.60268 0.06837 0.02944 0.0
C4488 C 0.58656 0.07301 0.0184 0.0
C4489 C 0.58952 0.08751 0.00536 0.0
C4490 C 0.60823 0.09739 1.00354 0.0
H4491 H 0.66099 0.1271 0.05612 0.0
H4492 H 0.63642 0.11582 0.04761 0.0
H4493 H 0.6542 0.10079 0.05471 0.0
H4494 H 0.63367 0.07377 0.03566 0.0
H4495 H 0.60081 0.05711 0.03947 0.0
H4496 H 0.13268 0.44486 0.25873 0.0
H4497 H 0.14931 0.41644 0.25449 0.0
H4498 H 0.16378 0.41839 0.31533 0.0
H4499 H 0.14788 0.44712 0.31948 0.0
H4500 H 0.19505 0.41893 0.29833 0.0
H4501 H 0.13981 0.35853 0.26169 0.0
H4502 H 0.1416 0.38066 0.24936 0.0
H4503 H 0.13343 0.38057 0.27275 0.0
C4504 C 0.13882 0.43876 0.27122 0.0
C4505 C 0.1389 0.44819 0.28945 0.0
C4506 C 0.14836 0.42248 0.2688 0.0
C4507 C 0.15781 0.41508 0.28459 0.0
C4508 C 0.15671 0.42376 0.30288 0.0
H4509 H 0.21927 0.3132 0.28302 0.0
H4510 H 0.19513 0.33495 0.28697 0.0
C4511 C 0.1475 0.44015 0.30526 0.0
C4512 C 0.17075 0.40004 0.28213 0.0
H4513 H 0.17305 0.35429 0.26156 0.0
C4514 C 0.1901 0.40474 0.29041 0.0
C4515 C 0.16443 0.38139 0.27195 0.0
C4516 C 0.14363 0.37488 0.26359 0.0
C4517 C 0.20329 0.3916 0.28859 0.0
C4518 C 0.19725 0.37333 0.27769 0.0
C4519 C 0.1778 0.36837 0.26973 0.0
C4520 C 0.21111 0.3595 0.27423 0.0
C4521 C 0.22357 0.39737 0.29864 0.0
C4522 C 0.2279 0.36581 0.26539 0.0
C4523 C 0.24164 0.35345 0.26322 0.0
C4524 C 0.23879 0.33435 0.26953 0.0
C4525 C 0.22172 0.32774 0.27784 0.0
C4526 C 0.20797 0.3402 0.28014 0.0
H4527 H 0.22411 0.40857 0.31075 0.0
H4528 H 0.22915 0.38437 0.30413 0.0
H4529 H 0.23342 0.40391 0.28846 0.0
H4530 H 0.23049 0.38043 0.26031 0.0
H4531 H 0.25456 0.35891 0.2566 0.0
H4532 H 0.20405 0.42301 0.04361 0.0
H4533 H 0.17264 0.43398 0.03732 0.0
H4534 H 0.19861 0.4785 1.00287 0.0
H4535 H 0.22983 0.46781 0.00894 0.0
H4536 H 0.16531 0.47362 0.04576 0.0
H4537 H 0.14962 0.44913 0.96881 0.0
H4538 H 0.1668 0.43928 0.98461 0.0
H4539 H 0.17358 0.46293 0.9755 0.0
C4540 C 0.20304 0.43506 0.03461 0.0
C4541 C 0.21947 0.44451 0.02679 0.0
C4542 C 0.18512 0.44128 0.03103 0.0
C4543 C 0.18334 0.45682 0.01941 0.0
C4544 C 0.19966 0.46624 0.01159 0.0
H4545 H 0.10027 0.53616 0.01212 0.0
H4546 H 0.12962 0.52095 0.01452 0.0
C4547 C 0.21753 0.46016 0.01523 0.0
C4548 C 0.16474 0.46407 0.01613 0.0
H4549 H 0.13063 0.47186 0.98099 0.0
C4550 C 0.1576 0.47308 0.03165 0.0
C4551 C 0.15474 0.46321 0.9977 0.0
C4552 C 0.16144 0.45296 0.9807 0.0
C4553 C 0.14097 0.48186 0.02912 0.0
C4554 C 0.13145 0.48176 0.01057 0.0
C4555 C 0.1382 0.47216 0.99513 0.0
C4556 C 0.11418 0.49123 0.00707 0.0
C4557 C 0.13367 0.49115 0.0463 0.0
C4558 C 0.09603 0.47959 1.00131 0.0
C4559 C 0.07935 0.48822 0.99989 0.0
C4560 C 0.08064 0.50861 1.0041 0.0
C4561 C 0.09894 0.52041 0.00883 0.0
C4562 C 0.11563 0.51175 0.01032 0.0
H4563 H 0.14003 0.48626 0.05983 0.0
H4564 H 0.13774 0.50744 0.04666 0.0
H4565 H 0.1176 0.4875 0.04554 0.0
H4566 H 0.0947 0.46375 0.99863 0.0
H4567 H 0.06538 0.47883 0.99615 0.0
H4568 H 0.82897 0.99696 0.22686 0.0
H4569 H 0.81557 0.9622 0.22858 0.0
H4570 H 0.87057 0.95301 0.2563 0.0
H4571 H 0.88278 0.98842 0.25703 0.0
H4572 H 0.81939 0.93016 0.21626 0.0
H4573 H 0.84133 0.92762 0.29333 0.0
H4574 H 0.84723 0.94987 0.28173 0.0
H4575 H 0.86206 0.931 0.28019 0.0
C4576 C 0.83781 0.98761 0.2341 0.0
C4577 C 0.85622 0.99562 0.24326 0.0
C4578 C 0.83037 0.96756 0.23469 0.0
C4579 C 0.8416 0.95481 0.24357 0.0
C4580 C 0.86097 0.96253 0.25061 0.0
H4581 H 0.79578 0.82683 0.232 0.0
H4582 H 0.81279 0.85967 0.2267 0.0
C4583 C 0.86807 0.98277 0.2508 0.0
C4584 C 0.83286 0.93367 0.24528 0.0
H4585 H 0.827 0.8974 0.27633 0.0
C4586 C 0.82098 0.92319 0.22953 0.0
C4587 C 0.83497 0.92407 0.26245 0.0
C4588 C 0.84695 0.9338 0.28039 0.0
C4589 C 0.81073 0.90403 0.23063 0.0
C4590 C 0.81291 0.89461 0.24773 0.0
C4591 C 0.82522 0.90469 0.26325 0.0
C4592 C 0.80208 0.87463 0.25029 0.0
C4593 C 0.79712 0.8944 0.21363 0.0
C4594 C 0.79072 0.87194 0.26556 0.0
C4595 C 0.78127 0.85315 0.26883 0.0
C4596 C 0.78285 0.8366 0.25681 0.0
C4597 C 0.79404 0.83931 0.24138 0.0
C4598 C 0.80371 0.85811 0.23826 0.0
H4599 H 0.79298 0.90544 0.20388 0.0
H4600 H 0.80445 0.88405 0.20548 0.0
H4601 H 0.78368 0.88593 0.21814 0.0
H4602 H 0.78925 0.88441 0.27508 0.0
H4603 H 0.77275 0.85161 0.28082 0.0
H4604 H 0.66752 0.03958 0.77548 0.0
H4605 H 0.68624 0.07228 0.77233 0.0
H4606 H 0.6415 0.09941 0.79567 0.0
H4607 H 0.62296 0.06661 0.79927 0.0
H4608 H 0.653 0.11339 0.76004 0.0
H4609 H 0.71648 0.11443 0.81368 0.0
H4610 H 0.70978 0.09266 0.79754 0.0
H4611 H 0.6935 0.0985 0.81442 0.0
C4612 C 0.66207 0.05253 0.78063 0.0
C4613 C 0.64417 0.0506 0.7883 0.0
C4614 C 0.67267 0.0712 0.77864 0.0
C4615 C 0.66538 0.08831 0.78396 0.0
C4616 C 0.64746 0.08641 0.7916 0.0
H4617 H 0.72071 0.21034 0.79533 0.0
H4618 H 0.70348 0.17724 0.79922 0.0
C4619 C 0.63693 0.06772 0.79372 0.0
C4620 C 0.67591 0.10813 0.78057 0.0
H4621 H 0.71793 0.14068 0.79376 0.0
C4622 C 0.66719 0.11937 0.7674 0.0
C4623 C 0.69439 0.11596 0.79021 0.0
C4624 C 0.70413 0.10488 0.80488 0.0
C4625 C 0.67655 0.13817 0.76359 0.0
C4626 C 0.69512 0.14585 0.77314 0.0
C4627 C 0.70376 0.13467 0.78634 0.0
C4628 C 0.70546 0.16586 0.7704 0.0
C4629 C 0.6664 0.14988 0.74969 0.0
C4630 C 0.71253 0.17036 0.75296 0.0
C4631 C 0.72254 0.18929 0.75074 0.0
C4632 C 0.72553 0.20395 0.76592 0.0
C4633 C 0.71857 0.19933 0.78337 0.0
C4634 C 0.70872 0.18045 0.78562 0.0
H4635 H 0.65083 0.14339 0.74608 0.0
H4636 H 0.66747 0.16537 0.75562 0.0
H4637 H 0.67356 0.15016 0.73635 0.0
H4638 H 0.71042 0.15921 0.74114 0.0
H4639 H 0.72778 0.19249 0.73715 0.0
loop_
_geom_bond_atom_site_label_1
_geom_bond_atom_site_label_2
_geom_bond_distance
_geom_bond_site_symmetry_2
_ccdc_geom_bond_type
Mn0 O5 2.095 . S
Mn0 O15 2.162 . S
Mn0 O16 2.297 . S
Mn0 O24 2.385 1_455 S
Mn0 O25 2.204 1_455 S
Mn0 O26 2.094 . S
Mn1 O6 2.121 . S
Mn1 N8 2.257 . S
Mn1 N17 2.282 1_455 S
Mn1 O25 2.211 1_455 S
Mn1 O27 2.117 . S
C2 O24 1.234 . S
C2 O25 1.293 . S
C3 O15 1.281 . S
C3 O16 1.236 . S
C4 O26 1.240 . S
C4 O27 1.264 . S
O5 Mn0 2.095 . S
O5 C14 1.250 . S
O6 Mn1 2.121 . S
O6 C14 1.258 . S
C7 N8 1.326 . S
C7 C11 1.460 . S
C7 H13 0.929 . S
N8 Mn1 2.257 . S
N8 C7 1.326 . S
N8 C12 1.362 1_455 S
C9 C10 1.258 . S
C9 C12 1.431 . S
C9 C29 1.449 . S
C10 C9 1.258 . S
C10 C11 1.477 1_655 S
C10 H30 0.931 . S
C11 C7 1.460 . S
C11 C10 1.477 1_455 S
C11 H31 0.930 . S
C12 N8 1.362 1_655 S
C12 C9 1.431 . S
C12 C22 1.476 . S
H13 C7 0.929 . S
C14 O5 1.250 . S
C14 O6 1.258 . S
O15 Mn0 2.162 . S
O15 C3 1.281 . S
O16 Mn0 2.297 . S
O16 C3 1.236 . S
N17 Mn1 2.282 1_655 S
N17 C18 1.328 . S
N17 C22 1.318 . S
C18 N17 1.328 . S
C18 C19 1.457 . S
C18 H23 0.929 . S
C19 C18 1.457 . S
C19 C20 1.291 . S
C19 H32 0.931 . S
C20 C19 1.291 . S
C20 C21 1.373 . S
C20 H33 0.929 . S
C21 C20 1.373 . S
C21 C22 1.396 . S
C21 C28 1.403 . S
C22 C12 1.476 . S
C22 N17 1.318 . S
C22 C21 1.396 . S
H23 C18 0.929 . S
O24 Mn0 2.385 1_655 S
O24 C2 1.234 . S
O25 Mn0 2.204 1_655 S
O25 Mn1 2.211 1_655 S
O25 C2 1.293 . S
O26 Mn0 2.094 . S
O26 C4 1.240 . S
O27 Mn1 2.117 . S
O27 C4 1.264 . S
C28 C21 1.403 . S
C28 C29 1.399 . S
C28 H34 0.929 . S
C29 C9 1.449 . S
C29 C28 1.399 . S
C29 H35 0.930 . S
H30 C10 0.931 . S
H31 C11 0.930 . S
H32 C19 0.931 . S
H33 C20 0.929 . S
H34 C28 0.929 . S
H35 C29 0.930 . S
Mn36 O41 2.074 1_455 S
Mn36 O51 2.162 1_455 S
Mn36 O52 2.299 1_455 S
Mn36 O60 2.407 . S
Mn36 O61 2.218 . S
Mn36 O62 2.093 . S
Mn37 O42 2.121 1_455 S
Mn37 N44 2.257 . S
Mn37 N53 2.282 . S
Mn37 O61 2.215 . S
Mn37 O63 2.117 . S
C38 O60 1.234 . S
C38 O61 1.283 . S
C39 O51 1.281 . S
C39 O52 1.236 . S
C40 O62 1.240 . S
C40 O63 1.264 . S
O41 Mn36 2.074 1_655 S
O41 C50 1.250 . S
O42 Mn37 2.121 1_655 S
O42 C50 1.258 . S
C43 N44 1.326 . S
C43 C47 1.460 . S
C43 H49 0.929 1_455 S
N44 Mn37 2.257 . S
N44 C43 1.326 . S
N44 C48 1.362 . S
C45 C46 1.258 . S
C45 C48 1.431 . S
C45 C65 1.449 . S
C46 C45 1.258 . S
C46 C47 1.477 . S
C46 H66 0.931 . S
C47 C43 1.460 . S
C47 C46 1.477 . S
C47 H67 0.930 . S
C48 N44 1.362 . S
C48 C45 1.431 . S
C48 C58 1.476 . S
H49 C43 0.929 1_655 S
C50 O41 1.250 . S
C50 O42 1.258 . S
O51 Mn36 2.162 1_655 S
O51 C39 1.281 . S
O52 Mn36 2.299 1_655 S
O52 C39 1.236 . S
N53 Mn37 2.282 . S
N53 C54 1.328 . S
N53 C58 1.318 . S
C54 N53 1.328 . S
C54 C55 1.457 . S
C54 H59 0.929 . S
C55 C54 1.457 . S
C55 C56 1.291 . S
C55 H68 0.931 . S
C56 C55 1.291 . S
C56 C57 1.373 . S
C56 H69 0.929 . S
C57 C56 1.373 . S
C57 C58 1.396 . S
C57 C64 1.403 . S
C58 C48 1.476 . S
C58 N53 1.318 . S
C58 C57 1.396 . S
H59 C54 0.929 . S
O60 Mn36 2.407 . S
O60 C38 1.234 . S
O61 Mn36 2.218 . S
O61 Mn37 2.215 . S
O61 C38 1.283 . S
O62 Mn36 2.093 . S
O62 C40 1.240 . S
O63 Mn37 2.117 . S
O63 C40 1.264 . S
C64 C57 1.403 . S
C64 C65 1.399 . S
C64 H70 0.929 . S
C65 C45 1.449 . S
C65 C64 1.399 . S
C65 H71 0.930 . S
H66 C46 0.931 . S
H67 C47 0.930 . S
H68 C55 0.931 . S
H69 C56 0.929 . S
H70 C64 0.929 . S
H71 C65 0.930 . S
Mn72 O77 2.095 . S
Mn72 O87 2.162 . S
Mn72 O88 2.297 . S
Mn72 O96 2.385 . S
Mn72 O97 2.209 . S
Mn72 O98 2.094 . S
Mn73 O78 2.121 . S
Mn73 N80 2.257 . S
Mn73 N89 2.282 . S
Mn73 O97 2.215 . S
Mn73 O99 2.117 . S
C74 O96 1.234 . S
C74 O97 1.283 . S
C75 O87 1.281 . S
C75 O88 1.236 . S
C76 O98 1.240 . S
C76 O99 1.264 . S
O77 Mn72 2.095 . S
O77 C86 1.250 . S
O78 Mn73 2.121 . S
O78 C86 1.258 . S
C79 N80 1.326 . S
C79 C83 1.460 . S
C79 H85 0.929 . S
N80 Mn73 2.257 . S
N80 C79 1.326 . S
N80 C84 1.362 . S
C81 C82 1.258 . S
C81 C84 1.431 . S
C81 C101 1.449 . S
C82 C81 1.258 . S
C82 C83 1.477 . S
C82 H102 0.931 . S
C83 C79 1.460 . S
C83 C82 1.477 . S
C83 H103 0.930 . S
C84 N80 1.362 . S
C84 C81 1.431 . S
C84 C94 1.476 . S
H85 C79 0.929 . S
C86 O77 1.250 . S
C86 O78 1.258 . S
O87 Mn72 2.162 . S
O87 C75 1.281 . S
O88 Mn72 2.297 . S
O88 C75 1.236 . S
N89 Mn73 2.282 . S
N89 C90 1.328 . S
N89 C94 1.318 . S
C90 N89 1.328 . S
C90 C91 1.457 . S
C90 H95 0.929 . S
C91 C90 1.457 . S
C91 C92 1.291 . S
C91 H104 0.931 . S
C92 C91 1.291 . S
C92 C93 1.373 . S
C92 H105 0.929 . S
C93 C92 1.373 . S
C93 C94 1.396 . S
C93 C100 1.403 . S
C94 C84 1.476 . S
C94 N89 1.318 . S
C94 C93 1.396 . S
H95 C90 0.929 . S
O96 Mn72 2.385 . S
O96 C74 1.234 . S
O97 Mn72 2.209 . S
O97 Mn73 2.215 . S
O97 C74 1.283 . S
O98 Mn72 2.094 . S
O98 C76 1.240 . S
O99 Mn73 2.117 . S
O99 C76 1.264 . S
C100 C93 1.403 . S
C100 C101 1.399 . S
C100 H106 0.929 . S
C101 C81 1.449 . S
C101 C100 1.399 . S
C101 H107 0.930 . S
H102 C82 0.931 . S
H103 C83 0.930 . S
H104 C91 0.931 . S
H105 C92 0.929 . S
H106 C100 0.929 . S
H107 C101 0.930 . S
Mn108 O113 2.095 . S
Mn108 O123 2.162 . S
Mn108 O124 2.297 . S
Mn108 O132 2.385 . S
Mn108 O133 2.209 . S
Mn108 O134 2.094 . S
Mn109 O114 2.121 . S
Mn109 N116 2.257 . S
Mn109 N125 2.282 . S
Mn109 O133 2.215 . S
Mn109 O135 2.117 . S
C110 O132 1.234 . S
C110 O133 1.283 . S
C111 O123 1.281 . S
C111 O124 1.236 . S
C112 O134 1.240 . S
C112 O135 1.264 . S
O113 Mn108 2.095 . S
O113 C122 1.250 . S
O114 Mn109 2.121 . S
O114 C122 1.258 . S
C115 N116 1.326 . S
C115 C119 1.460 . S
C115 H121 0.929 . S
N116 Mn109 2.257 . S
N116 C115 1.326 . S
N116 C120 1.362 . S
C117 C118 1.258 . S
C117 C120 1.431 . S
C117 C137 1.449 . S
C118 C117 1.258 . S
C118 C119 1.477 . S
C118 H138 0.931 . S
C119 C115 1.460 . S
C119 C118 1.477 . S
C119 H139 0.930 . S
C120 N116 1.362 . S
C120 C117 1.431 . S
C120 C130 1.476 . S
H121 C115 0.929 . S
C122 O113 1.250 . S
C122 O114 1.258 . S
O123 Mn108 2.162 . S
O123 C111 1.281 . S
O124 Mn108 2.297 . S
O124 C111 1.236 . S
N125 Mn109 2.282 . S
N125 C126 1.328 . S
N125 C130 1.318 . S
C126 N125 1.328 . S
C126 C127 1.457 . S
C126 H131 0.929 . S
C127 C126 1.457 . S
C127 C128 1.291 . S
C127 H140 0.931 . S
C128 C127 1.291 . S
C128 C129 1.373 . S
C128 H141 0.929 . S
C129 C128 1.373 . S
C129 C130 1.396 . S
C129 C136 1.403 . S
C130 C120 1.476 . S
C130 N125 1.318 . S
C130 C129 1.396 . S
H131 C126 0.929 . S
O132 Mn108 2.385 . S
O132 C110 1.234 . S
O133 Mn108 2.209 . S
O133 Mn109 2.215 . S
O133 C110 1.283 . S
O134 Mn108 2.094 . S
O134 C112 1.240 . S
O135 Mn109 2.117 . S
O135 C112 1.264 . S
C136 C129 1.403 . S
C136 C137 1.399 . S
C136 H142 0.929 . S
C137 C117 1.449 . S
C137 C136 1.399 . S
C137 H143 0.930 . S
H138 C118 0.931 . S
H139 C119 0.930 . S
H140 C127 0.931 . S
H141 C128 0.929 . S
H142 C136 0.929 . S
H143 C137 0.930 . S
Mn144 O149 2.095 . S
Mn144 O159 2.162 . S
Mn144 O160 2.297 . S
Mn144 O168 2.385 . S
Mn144 O169 2.209 . S
Mn144 O170 2.094 1_455 S
Mn145 O150 2.121 . S
Mn145 N152 2.257 . S
Mn145 N161 2.282 . S
Mn145 O169 2.215 1_655 S
Mn145 O171 2.117 . S
C146 O168 1.234 . S
C146 O169 1.283 . S
C147 O159 1.281 . S
C147 O160 1.236 . S
C148 O170 1.240 . S
C148 O171 1.264 . S
O149 Mn144 2.095 . S
O149 C158 1.250 . S
O150 Mn145 2.121 . S
O150 C158 1.258 1_655 S
C151 N152 1.326 . S
C151 C155 1.460 . S
C151 H157 0.929 . S
N152 Mn145 2.257 . S
N152 C151 1.326 . S
N152 C156 1.362 . S
C153 C154 1.258 . S
C153 C156 1.431 . S
C153 C173 1.449 . S
C154 C153 1.258 . S
C154 C155 1.477 . S
C154 H174 0.931 . S
C155 C151 1.460 . S
C155 C154 1.477 . S
C155 H175 0.930 . S
C156 N152 1.362 . S
C156 C153 1.431 . S
C156 C166 1.476 . S
H157 C151 0.929 . S
C158 O149 1.250 . S
C158 O150 1.258 1_455 S
O159 Mn144 2.162 . S
O159 C147 1.281 . S
O160 Mn144 2.297 . S
O160 C147 1.236 . S
N161 Mn145 2.282 . S
N161 C162 1.328 . S
N161 C166 1.318 . S
C162 N161 1.328 . S
C162 C163 1.457 . S
C162 H167 0.929 . S
C163 C162 1.457 . S
C163 C164 1.291 . S
C163 H176 0.931 . S
C164 C163 1.291 . S
C164 C165 1.373 . S
C164 H177 0.929 . S
C165 C164 1.373 . S
C165 C166 1.396 . S
C165 C172 1.403 . S
C166 C156 1.476 . S
C166 N161 1.318 . S
C166 C165 1.396 . S
H167 C162 0.929 . S
O168 Mn144 2.385 . S
O168 C146 1.234 . S
O169 Mn144 2.209 . S
O169 Mn145 2.215 1_455 S
O169 C146 1.283 . S
O170 Mn144 2.094 1_655 S
O170 C148 1.240 . S
O171 Mn145 2.117 . S
O171 C148 1.264 . S
C172 C165 1.403 . S
C172 C173 1.399 . S
C172 H178 0.929 . S
C173 C153 1.449 . S
C173 C172 1.399 . S
C173 H179 0.930 . S
H174 C154 0.931 . S
H175 C155 0.930 . S
H176 C163 0.931 . S
H177 C164 0.929 . S
H178 C172 0.929 . S
H179 C173 0.930 . S
Mn180 O185 2.095 . S
Mn180 O195 2.162 . S
Mn180 O196 2.297 . S
Mn180 O204 2.385 . S
Mn180 O205 2.209 . S
Mn180 O206 2.094 . S
Mn181 O186 2.121 . S
Mn181 N188 2.257 . S
Mn181 N197 2.282 . S
Mn181 O205 2.215 . S
Mn181 O207 2.117 . S
C182 O204 1.234 . S
C182 O205 1.283 . S
C183 O195 1.281 . S
C183 O196 1.236 . S
C184 O206 1.240 . S
C184 O207 1.264 . S
O185 Mn180 2.095 . S
O185 C194 1.250 . S
O186 Mn181 2.121 . S
O186 C194 1.258 . S
C187 N188 1.326 . S
C187 C191 1.460 . S
C187 H193 0.929 . S
N188 Mn181 2.257 . S
N188 C187 1.326 . S
N188 C192 1.362 . S
C189 C190 1.258 . S
C189 C192 1.431 . S
C189 C209 1.449 . S
C190 C189 1.258 . S
C190 C191 1.477 . S
C190 H210 0.931 . S
C191 C187 1.460 . S
C191 C190 1.477 . S
C191 H211 0.930 . S
C192 N188 1.362 . S
C192 C189 1.431 . S
C192 C202 1.476 . S
H193 C187 0.929 . S
C194 O185 1.250 . S
C194 O186 1.258 . S
O195 Mn180 2.162 . S
O195 C183 1.281 . S
O196 Mn180 2.297 . S
O196 C183 1.236 . S
N197 Mn181 2.282 . S
N197 C198 1.328 . S
N197 C202 1.318 . S
C198 N197 1.328 . S
C198 C199 1.457 . S
C198 H203 0.929 . S
C199 C198 1.457 . S
C199 C200 1.291 . S
C199 H212 0.931 . S
C200 C199 1.291 . S
C200 C201 1.373 . S
C200 H213 0.929 . S
C201 C200 1.373 . S
C201 C202 1.396 . S
C201 C208 1.403 . S
C202 C192 1.476 . S
C202 N197 1.318 . S
C202 C201 1.396 . S
H203 C198 0.929 . S
O204 Mn180 2.385 . S
O204 C182 1.234 . S
O205 Mn180 2.209 . S
O205 Mn181 2.215 . S
O205 C182 1.283 . S
O206 Mn180 2.094 . S
O206 C184 1.240 . S
O207 Mn181 2.117 . S
O207 C184 1.264 . S
C208 C201 1.403 . S
C208 C209 1.399 . S
C208 H214 0.929 . S
C209 C189 1.449 . S
C209 C208 1.399 . S
C209 H215 0.930 . S
H210 C190 0.931 . S
H211 C191 0.930 . S
H212 C199 0.931 . S
H213 C200 0.929 . S
H214 C208 0.929 . S
H215 C209 0.930 . S
Mn216 O221 2.095 . S
Mn216 O231 2.162 . S
Mn216 O232 2.297 . S
Mn216 O240 2.385 . S
Mn216 O241 2.209 . S
Mn216 O242 2.094 . S
Mn217 O222 2.121 . S
Mn217 N224 2.257 . S
Mn217 N233 2.282 . S
Mn217 O241 2.215 . S
Mn217 O243 2.117 . S
C218 O240 1.234 . S
C218 O241 1.283 . S
C219 O231 1.281 . S
C219 O232 1.236 . S
C220 O242 1.240 . S
C220 O243 1.264 . S
O221 Mn216 2.095 . S
O221 C230 1.250 . S
O222 Mn217 2.121 . S
O222 C230 1.258 . S
C223 N224 1.326 . S
C223 C227 1.460 . S
C223 H229 0.929 . S
N224 Mn217 2.257 . S
N224 C223 1.326 . S
N224 C228 1.362 . S
C225 C226 1.258 . S
C225 C228 1.431 . S
C225 C245 1.449 . S
C226 C225 1.258 . S
C226 C227 1.477 . S
C226 H246 0.931 . S
C227 C223 1.460 . S
C227 C226 1.477 . S
C227 H247 0.930 . S
C228 N224 1.362 . S
C228 C225 1.431 . S
C228 C238 1.476 . S
H229 C223 0.929 . S
C230 O221 1.250 . S
C230 O222 1.258 . S
O231 Mn216 2.162 . S
O231 C219 1.281 . S
O232 Mn216 2.297 . S
O232 C219 1.236 . S
N233 Mn217 2.282 . S
N233 C234 1.328 . S
N233 C238 1.318 . S
C234 N233 1.328 . S
C234 C235 1.457 . S
C234 H239 0.929 . S
C235 C234 1.457 . S
C235 C236 1.291 . S
C235 H248 0.931 . S
C236 C235 1.291 . S
C236 C237 1.373 . S
C236 H249 0.929 . S
C237 C236 1.373 . S
C237 C238 1.396 . S
C237 C244 1.403 . S
C238 C228 1.476 . S
C238 N233 1.318 . S
C238 C237 1.396 . S
H239 C234 0.929 . S
O240 Mn216 2.385 . S
O240 C218 1.234 . S
O241 Mn216 2.209 . S
O241 Mn217 2.215 . S
O241 C218 1.283 . S
O242 Mn216 2.094 . S
O242 C220 1.240 . S
O243 Mn217 2.117 . S
O243 C220 1.264 . S
C244 C237 1.403 . S
C244 C245 1.399 . S
C244 H250 0.929 . S
C245 C225 1.449 . S
C245 C244 1.399 . S
C245 H251 0.930 . S
H246 C226 0.931 . S
H247 C227 0.930 . S
H248 C235 0.931 . S
H249 C236 0.929 . S
H250 C244 0.929 . S
H251 C245 0.930 . S
Mn252 O257 2.095 . S
Mn252 O267 2.162 . S
Mn252 O268 2.297 . S
Mn252 O276 2.385 1_455 S
Mn252 O277 2.209 1_455 S
Mn252 O278 2.094 . S
Mn253 O258 2.121 . S
Mn253 N260 2.257 1_455 S
Mn253 N269 2.282 1_455 S
Mn253 O277 2.215 1_455 S
Mn253 O279 2.117 . S
C254 O276 1.234 . S
C254 O277 1.283 . S
C255 O267 1.281 . S
C255 O268 1.236 . S
C256 O278 1.240 . S
C256 O279 1.264 . S
O257 Mn252 2.095 . S
O257 C266 1.250 . S
O258 Mn253 2.121 . S
O258 C266 1.258 . S
C259 N260 1.326 1_455 S
C259 C263 1.456 1_455 S
C259 H265 0.929 . S
N260 Mn253 2.257 1_655 S
N260 C259 1.326 1_655 S
N260 C264 1.362 . S
C261 C262 1.258 . S
C261 C264 1.431 . S
C261 C281 1.449 . S
C262 C261 1.258 . S
C262 C263 1.489 . S
C262 H282 0.931 . S
C263 C259 1.456 1_655 S
C263 C262 1.489 . S
C263 H283 0.922 1_655 S
C264 N260 1.362 . S
C264 C261 1.431 . S
C264 C274 1.476 . S
H265 C259 0.929 . S
C266 O257 1.250 . S
C266 O258 1.258 . S
O267 Mn252 2.162 . S
O267 C255 1.281 . S
O268 Mn252 2.297 . S
O268 C255 1.236 . S
N269 Mn253 2.282 1_655 S
N269 C270 1.328 . S
N269 C274 1.318 . S
C270 N269 1.328 . S
C270 C271 1.457 . S
C270 H275 0.929 . S
C271 C270 1.457 . S
C271 C272 1.291 . S
C271 H284 0.931 . S
C272 C271 1.291 . S
C272 C273 1.373 . S
C272 H285 0.929 . S
C273 C272 1.373 . S
C273 C274 1.396 . S
C273 C280 1.403 . S
C274 C264 1.476 . S
C274 N269 1.318 . S
C274 C273 1.396 . S
H275 C270 0.929 . S
O276 Mn252 2.385 1_655 S
O276 C254 1.234 . S
O277 Mn252 2.209 1_655 S
O277 Mn253 2.215 1_655 S
O277 C254 1.283 . S
O278 Mn252 2.094 . S
O278 C256 1.240 . S
O279 Mn253 2.117 . S
O279 C256 1.264 . S
C280 C273 1.403 . S
C280 C281 1.399 . S
C280 H286 0.929 . S
C281 C261 1.449 . S
C281 C280 1.399 . S
C281 H287 0.930 . S
H282 C262 0.931 . S
H283 C263 0.922 1_455 S
H284 C271 0.931 . S
H285 C272 0.929 . S
H286 C280 0.929 . S
H287 C281 0.930 . S
Mn288 O293 2.095 . S
Mn288 O303 2.162 . S
Mn288 O304 2.297 . S
Mn288 O312 2.385 . S
Mn288 O313 2.209 . S
Mn288 O314 2.094 . S
Mn289 O294 2.121 . S
Mn289 N296 2.257 . S
Mn289 N305 2.282 . S
Mn289 O313 2.215 . S
Mn289 O315 2.117 . S
C290 O312 1.234 . S
C290 O313 1.283 . S
C291 O303 1.281 . S
C291 O304 1.236 . S
C292 O314 1.240 . S
C292 O315 1.264 . S
O293 Mn288 2.095 . S
O293 C302 1.250 . S
O294 Mn289 2.121 . S
O294 C302 1.258 . S
C295 N296 1.326 . S
C295 C299 1.460 . S
C295 H301 0.929 . S
N296 Mn289 2.257 . S
N296 C295 1.326 . S
N296 C300 1.362 . S
C297 C298 1.258 . S
C297 C300 1.431 . S
C297 C317 1.449 1_545 S
C298 C297 1.258 . S
C298 C299 1.477 . S
C298 H318 0.931 . S
C299 C295 1.460 . S
C299 C298 1.477 . S
C299 H319 0.930 . S
C300 N296 1.362 . S
C300 C297 1.431 . S
C300 C310 1.476 . S
H301 C295 0.929 . S
C302 O293 1.250 . S
C302 O294 1.258 . S
O303 Mn288 2.162 . S
O303 C291 1.281 . S
O304 Mn288 2.297 . S
O304 C291 1.236 . S
N305 Mn289 2.282 . S
N305 C306 1.328 . S
N305 C310 1.318 . S
C306 N305 1.328 . S
C306 C307 1.457 1_545 S
C306 H311 0.929 . S
C307 C306 1.457 1_565 S
C307 C308 1.291 . S
C307 H320 0.931 . S
C308 C307 1.291 . S
C308 C309 1.373 . S
C308 H321 0.929 . S
C309 C308 1.373 . S
C309 C310 1.396 1_565 S
C309 C316 1.403 . S
C310 C300 1.476 . S
C310 N305 1.318 . S
C310 C309 1.396 1_545 S
H311 C306 0.929 . S
O312 Mn288 2.385 . S
O312 C290 1.234 . S
O313 Mn288 2.209 . S
O313 Mn289 2.215 . S
O313 C290 1.283 . S
O314 Mn288 2.094 . S
O314 C292 1.240 . S
O315 Mn289 2.117 . S
O315 C292 1.264 . S
C316 C309 1.403 . S
C316 C317 1.399 . S
C316 H322 0.929 . S
C317 C297 1.449 1_565 S
C317 C316 1.399 . S
C317 H323 0.930 . S
H318 C298 0.931 . S
H319 C299 0.930 . S
H320 C307 0.931 . S
H321 C308 0.929 . S
H322 C316 0.929 . S
H323 C317 0.930 . S
Mn324 O329 2.095 . S
Mn324 O339 2.162 . S
Mn324 O340 2.297 . S
Mn324 O348 2.385 . S
Mn324 O349 2.209 . S
Mn324 O350 2.094 . S
Mn325 O330 2.121 . S
Mn325 N332 2.257 . S
Mn325 N341 2.282 . S
Mn325 O349 2.215 . S
Mn325 O351 2.117 . S
C326 O348 1.234 . S
C326 O349 1.283 . S
C327 O339 1.281 . S
C327 O340 1.236 . S
C328 O350 1.240 . S
C328 O351 1.264 . S
O329 Mn324 2.095 . S
O329 C338 1.250 . S
O330 Mn325 2.121 . S
O330 C338 1.258 . S
C331 N332 1.326 . S
C331 C335 1.460 . S
C331 H337 0.929 . S
N332 Mn325 2.257 . S
N332 C331 1.326 . S
N332 C336 1.362 . S
C333 C334 1.258 . S
C333 C336 1.431 . S
C333 C353 1.449 . S
C334 C333 1.258 . S
C334 C335 1.477 . S
C334 H354 0.931 . S
C335 C331 1.460 . S
C335 C334 1.477 . S
C335 H355 0.930 . S
C336 N332 1.362 . S
C336 C333 1.431 . S
C336 C346 1.476 . S
H337 C331 0.929 . S
C338 O329 1.250 . S
C338 O330 1.258 . S
O339 Mn324 2.162 . S
O339 C327 1.281 . S
O340 Mn324 2.297 . S
O340 C327 1.236 . S
N341 Mn325 2.282 . S
N341 C342 1.328 . S
N341 C346 1.318 . S
C342 N341 1.328 . S
C342 C343 1.457 . S
C342 H347 0.929 . S
C343 C342 1.457 . S
C343 C344 1.291 . S
C343 H356 0.931 . S
C344 C343 1.291 . S
C344 C345 1.373 . S
C344 H357 0.929 . S
C345 C344 1.373 . S
C345 C346 1.396 . S
C345 C352 1.403 . S
C346 C336 1.476 . S
C346 N341 1.318 . S
C346 C345 1.396 . S
H347 C342 0.929 . S
O348 Mn324 2.385 . S
O348 C326 1.234 . S
O349 Mn324 2.209 . S
O349 Mn325 2.215 . S
O349 C326 1.283 . S
O350 Mn324 2.094 . S
O350 C328 1.240 . S
O351 Mn325 2.117 . S
O351 C328 1.264 . S
C352 C345 1.403 . S
C352 C353 1.399 . S
C352 H358 0.929 . S
C353 C333 1.449 . S
C353 C352 1.399 . S
C353 H359 0.930 . S
H354 C334 0.931 . S
H355 C335 0.930 . S
H356 C343 0.931 . S
H357 C344 0.929 . S
H358 C352 0.929 . S
H359 C353 0.930 . S
Mn360 O365 2.091 1_545 S
Mn360 O375 2.162 1_545 S
Mn360 O376 2.297 . S
Mn360 O384 2.390 . S
Mn360 O385 2.210 . S
Mn360 O386 2.094 1_545 S
Mn361 O366 2.121 1_545 S
Mn361 N368 2.257 . S
Mn361 N377 2.282 . S
Mn361 O385 2.215 . S
Mn361 O387 2.117 . S
C362 O384 1.234 . S
C362 O385 1.283 . S
C363 O375 1.281 . S
C363 O376 1.236 1_565 S
C364 O386 1.240 1_545 S
C364 O387 1.264 . S
O365 Mn360 2.091 1_565 S
O365 C374 1.250 . S
O366 Mn361 2.121 1_565 S
O366 C374 1.258 . S
C367 N368 1.326 . S
C367 C371 1.460 . S
C367 H373 0.929 1_545 S
N368 Mn361 2.257 . S
N368 C367 1.326 . S
N368 C372 1.362 . S
C369 C370 1.258 . S
C369 C372 1.431 . S
C369 C389 1.449 . S
C370 C369 1.258 . S
C370 C371 1.477 . S
C370 H390 0.931 . S
C371 C367 1.460 . S
C371 C370 1.477 . S
C371 H391 0.930 . S
C372 N368 1.362 . S
C372 C369 1.431 . S
C372 C382 1.476 . S
H373 C367 0.929 1_565 S
C374 O365 1.250 . S
C374 O366 1.258 . S
O375 Mn360 2.162 1_565 S
O375 C363 1.281 . S
O376 Mn360 2.297 . S
O376 C363 1.236 1_545 S
N377 Mn361 2.282 . S
N377 C378 1.328 . S
N377 C382 1.318 . S
C378 N377 1.328 . S
C378 C379 1.457 . S
C378 H383 0.929 . S
C379 C378 1.457 . S
C379 C380 1.291 . S
C379 H392 0.931 . S
C380 C379 1.291 . S
C380 C381 1.373 . S
C380 H393 0.929 . S
C381 C380 1.373 . S
C381 C382 1.396 . S
C381 C388 1.403 . S
C382 C372 1.476 . S
C382 N377 1.318 . S
C382 C381 1.396 . S
H383 C378 0.929 . S
O384 Mn360 2.390 . S
O384 C362 1.234 . S
O385 Mn360 2.210 . S
O385 Mn361 2.215 . S
O385 C362 1.283 . S
O386 Mn360 2.094 1_565 S
O386 C364 1.240 1_565 S
O387 Mn361 2.117 . S
O387 C364 1.264 . S
C388 C381 1.403 . S
C388 C389 1.399 . S
C388 H394 0.929 . S
C389 C369 1.449 . S
C389 C388 1.399 . S
C389 H395 0.930 . S
H390 C370 0.931 . S
H391 C371 0.930 . S
H392 C379 0.931 . S
H393 C380 0.929 . S
H394 C388 0.929 . S
H395 C389 0.930 . S
Mn396 O401 2.095 . S
Mn396 O411 2.162 . S
Mn396 O412 2.297 . S
Mn396 O420 2.385 . S
Mn396 O421 2.209 . S
Mn396 O422 2.094 . S
Mn397 O402 2.121 1_556 S
Mn397 N404 2.257 1_556 S
Mn397 N413 2.282 . S
Mn397 O421 2.215 1_556 S
Mn397 O423 2.117 . S
C398 O420 1.234 . S
C398 O421 1.283 . S
C399 O411 1.281 . S
C399 O412 1.236 . S
C400 O422 1.240 1_556 S
C400 O423 1.264 . S
O401 Mn396 2.095 . S
O401 C410 1.250 . S
O402 Mn397 2.121 1_554 S
O402 C410 1.258 . S
C403 N404 1.326 . S
C403 C407 1.460 . S
C403 H409 0.929 . S
N404 Mn397 2.257 1_554 S
N404 C403 1.326 . S
N404 C408 1.362 1_554 S
C405 C406 1.250 1_566 S
C405 C408 1.431 . S
C405 C425 1.458 . S
C406 C405 1.250 1_544 S
C406 C407 1.477 1_545 S
C406 H426 0.931 . S
C407 C403 1.460 . S
C407 C406 1.477 1_565 S
C407 H427 0.930 1_565 S
C408 N404 1.362 1_556 S
C408 C405 1.431 . S
C408 C418 1.476 . S
H409 C403 0.929 . S
C410 O401 1.250 . S
C410 O402 1.258 . S
O411 Mn396 2.162 . S
O411 C399 1.281 . S
O412 Mn396 2.297 . S
O412 C399 1.236 . S
N413 Mn397 2.282 . S
N413 C414 1.328 . S
N413 C418 1.318 . S
C414 N413 1.328 . S
C414 C415 1.457 . S
C414 H419 0.929 . S
C415 C414 1.457 . S
C415 C416 1.291 . S
C415 H428 0.931 . S
C416 C415 1.291 . S
C416 C417 1.373 . S
C416 H429 0.929 . S
C417 C416 1.373 . S
C417 C418 1.396 . S
C417 C424 1.403 . S
C418 C408 1.476 . S
C418 N413 1.318 . S
C418 C417 1.396 . S
H419 C414 0.929 . S
O420 Mn396 2.385 . S
O420 C398 1.234 . S
O421 Mn396 2.209 . S
O421 Mn397 2.215 1_554 S
O421 C398 1.283 . S
O422 Mn396 2.094 . S
O422 C400 1.240 1_554 S
O423 Mn397 2.117 . S
O423 C400 1.264 . S
C424 C417 1.403 . S
C424 C425 1.399 . S
C424 H430 0.929 . S
C425 C405 1.458 . S
C425 C424 1.399 . S
C425 H431 0.930 1_565 S
H426 C406 0.931 . S
H427 C407 0.930 1_545 S
H428 C415 0.931 . S
H429 C416 0.929 . S
H430 C424 0.929 . S
H431 C425 0.930 1_545 S
Mn432 O437 2.095 . S
Mn432 O447 2.162 . S
Mn432 O448 2.297 . S
Mn432 O456 2.385 . S
Mn432 O457 2.209 . S
Mn432 O458 2.094 1_554 S
Mn433 O438 2.121 1_556 S
Mn433 N440 2.259 . S
Mn433 N449 2.282 . S
Mn433 O457 2.215 1_556 S
Mn433 O459 2.117 . S
C434 O456 1.234 . S
C434 O457 1.283 . S
C435 O447 1.281 . S
C435 O448 1.236 . S
C436 O458 1.240 . S
C436 O459 1.264 . S
O437 Mn432 2.095 . S
O437 C446 1.250 . S
O438 Mn433 2.121 1_554 S
O438 C446 1.258 . S
C439 N440 1.318 1_554 S
C439 C443 1.460 . S
C439 H445 0.929 . S
N440 Mn433 2.259 . S
N440 C439 1.318 1_556 S
N440 C444 1.372 . S
C441 C442 1.258 1_556 S
C441 C444 1.431 . S
C441 C461 1.449 . S
C442 C441 1.258 1_554 S
C442 C443 1.477 . S
C442 H462 0.931 . S
C443 C439 1.460 . S
C443 C442 1.477 . S
C443 H463 0.930 . S
C444 N440 1.372 . S
C444 C441 1.431 . S
C444 C454 1.476 . S
H445 C439 0.929 . S
C446 O437 1.250 . S
C446 O438 1.258 . S
O447 Mn432 2.162 . S
O447 C435 1.281 . S
O448 Mn432 2.297 . S
O448 C435 1.236 . S
N449 Mn433 2.282 . S
N449 C450 1.328 . S
N449 C454 1.318 . S
C450 N449 1.328 . S
C450 C451 1.457 . S
C450 H455 0.929 . S
C451 C450 1.457 . S
C451 C452 1.291 . S
C451 H464 0.931 . S
C452 C451 1.291 . S
C452 C453 1.373 . S
C452 H465 0.929 . S
C453 C452 1.373 . S
C453 C454 1.396 . S
C453 C460 1.403 . S
C454 C444 1.476 . S
C454 N449 1.318 . S
C454 C453 1.396 . S
H455 C450 0.929 . S
O456 Mn432 2.385 . S
O456 C434 1.234 . S
O457 Mn432 2.209 . S
O457 Mn433 2.215 1_554 S
O457 C434 1.283 . S
O458 Mn432 2.094 1_556 S
O458 C436 1.240 . S
O459 Mn433 2.117 . S
O459 C436 1.264 . S
C460 C453 1.403 . S
C460 C461 1.399 . S
C460 H466 0.929 . S
C461 C441 1.449 . S
C461 C460 1.399 . S
C461 H467 0.930 . S
H462 C442 0.931 . S
H463 C443 0.930 . S
H464 C451 0.931 . S
H465 C452 0.929 . S
H466 C460 0.929 . S
H467 C461 0.930 . S
Mn468 O473 2.095 1_554 S
Mn468 O483 2.162 . S
Mn468 O484 2.297 . S
Mn468 O492 2.385 . S
Mn468 O493 2.209 1_554 S
Mn468 O494 2.094 1_554 S
Mn469 O474 2.121 . S
Mn469 N476 2.257 . S
Mn469 N485 2.282 . S
Mn469 O493 2.215 . S
Mn469 O495 2.117 . S
C470 O492 1.234 1_556 S
C470 O493 1.283 . S
C471 O483 1.281 . S
C471 O484 1.236 . S
C472 O494 1.240 . S
C472 O495 1.264 . S
O473 Mn468 2.095 1_556 S
O473 C482 1.250 . S
O474 Mn469 2.121 . S
O474 C482 1.258 . S
C475 N476 1.326 . S
C475 C479 1.460 . S
C475 H481 0.929 . S
N476 Mn469 2.257 . S
N476 C475 1.326 . S
N476 C480 1.362 . S
C477 C478 1.258 . S
C477 C480 1.431 . S
C477 C497 1.449 . S
C478 C477 1.258 . S
C478 C479 1.477 . S
C478 H498 0.931 . S
C479 C475 1.460 . S
C479 C478 1.477 . S
C479 H499 0.930 . S
C480 N476 1.362 . S
C480 C477 1.431 . S
C480 C490 1.476 . S
H481 C475 0.929 . S
C482 O473 1.250 . S
C482 O474 1.258 . S
O483 Mn468 2.162 . S
O483 C471 1.281 . S
O484 Mn468 2.297 . S
O484 C471 1.236 . S
N485 Mn469 2.282 . S
N485 C486 1.328 . S
N485 C490 1.318 . S
C486 N485 1.328 . S
C486 C487 1.457 . S
C486 H491 0.929 . S
C487 C486 1.457 . S
C487 C488 1.291 . S
C487 H500 0.931 . S
C488 C487 1.291 . S
C488 C489 1.373 . S
C488 H501 0.929 . S
C489 C488 1.373 . S
C489 C490 1.396 . S
C489 C496 1.403 . S
C490 C480 1.476 . S
C490 N485 1.318 . S
C490 C489 1.396 . S
H491 C486 0.929 . S
O492 Mn468 2.385 . S
O492 C470 1.234 1_554 S
O493 Mn468 2.209 1_556 S
O493 Mn469 2.215 . S
O493 C470 1.283 . S
O494 Mn468 2.094 1_556 S
O494 C472 1.240 . S
O495 Mn469 2.117 . S
O495 C472 1.264 . S
C496 C489 1.403 . S
C496 C497 1.399 . S
C496 H502 0.929 . S
C497 C477 1.449 . S
C497 C496 1.399 . S
C497 H503 0.930 . S
H498 C478 0.931 . S
H499 C479 0.930 . S
H500 C487 0.931 . S
H501 C488 0.929 . S
H502 C496 0.929 . S
H503 C497 0.930 . S
Mn504 O509 2.095 . S
Mn504 O519 2.162 . S
Mn504 O520 2.297 . S
Mn504 O528 2.385 . S
Mn504 O529 2.209 . S
Mn504 O530 2.094 . S
Mn505 O510 2.121 . S
Mn505 N512 2.257 . S
Mn505 N521 2.282 . S
Mn505 O529 2.215 . S
Mn505 O531 2.117 . S
C506 O528 1.234 . S
C506 O529 1.283 . S
C507 O519 1.281 . S
C507 O520 1.236 . S
C508 O530 1.240 . S
C508 O531 1.264 . S
O509 Mn504 2.095 . S
O509 C518 1.250 . S
O510 Mn505 2.121 . S
O510 C518 1.258 . S
C511 N512 1.326 . S
C511 C515 1.460 . S
C511 H517 0.929 . S
N512 Mn505 2.257 . S
N512 C511 1.326 . S
N512 C516 1.362 . S
C513 C514 1.258 . S
C513 C516 1.431 . S
C513 C533 1.449 . S
C514 C513 1.258 . S
C514 C515 1.477 . S
C514 H534 0.931 . S
C515 C511 1.460 . S
C515 C514 1.477 . S
C515 H535 0.930 . S
C516 N512 1.362 . S
C516 C513 1.431 . S
C516 C526 1.476 . S
H517 C511 0.929 . S
C518 O509 1.250 . S
C518 O510 1.258 . S
O519 Mn504 2.162 . S
O519 C507 1.281 . S
O520 Mn504 2.297 . S
O520 C507 1.236 . S
N521 Mn505 2.282 . S
N521 C522 1.328 . S
N521 C526 1.318 . S
C522 N521 1.328 . S
C522 C523 1.457 . S
C522 H527 0.929 . S
C523 C522 1.457 . S
C523 C524 1.291 . S
C523 H536 0.931 . S
C524 C523 1.291 . S
C524 C525 1.373 . S
C524 H537 0.929 . S
C525 C524 1.373 . S
C525 C526 1.396 . S
C525 C532 1.403 . S
C526 C516 1.476 . S
C526 N521 1.318 . S
C526 C525 1.396 . S
H527 C522 0.929 . S
O528 Mn504 2.385 . S
O528 C506 1.234 . S
O529 Mn504 2.209 . S
O529 Mn505 2.215 . S
O529 C506 1.283 . S
O530 Mn504 2.094 . S
O530 C508 1.240 . S
O531 Mn505 2.117 . S
O531 C508 1.264 . S
C532 C525 1.403 . S
C532 C533 1.399 . S
C532 H538 0.929 . S
C533 C513 1.449 . S
C533 C532 1.399 . S
C533 H539 0.930 . S
H534 C514 0.931 . S
H535 C515 0.930 . S
H536 C523 0.931 . S
H537 C524 0.929 . S
H538 C532 0.929 . S
H539 C533 0.930 . S
Mn540 O545 2.095 . S
Mn540 O555 2.162 . S
Mn540 O556 2.297 . S
Mn540 O564 2.385 . S
Mn540 O565 2.209 . S
Mn540 O566 2.094 . S
Mn541 O546 2.121 . S
Mn541 N548 2.257 . S
Mn541 N557 2.282 . S
Mn541 O565 2.215 . S
Mn541 O567 2.117 . S
C542 O564 1.234 . S
C542 O565 1.283 . S
C543 O555 1.281 . S
C543 O556 1.236 . S
C544 O566 1.240 . S
C544 O567 1.264 . S
O545 Mn540 2.095 . S
O545 C554 1.250 . S
O546 Mn541 2.121 . S
O546 C554 1.258 . S
C547 N548 1.326 . S
C547 C551 1.460 . S
C547 H553 0.929 . S
N548 Mn541 2.257 . S
N548 C547 1.326 . S
N548 C552 1.362 . S
C549 C550 1.258 . S
C549 C552 1.431 . S
C549 C569 1.449 . S
C550 C549 1.258 . S
C550 C551 1.477 . S
C550 H570 0.931 1_565 S
C551 C547 1.460 . S
C551 C550 1.477 . S
C551 H571 0.930 . S
C552 N548 1.362 . S
C552 C549 1.431 . S
C552 C562 1.476 . S
H553 C547 0.929 . S
C554 O545 1.250 . S
C554 O546 1.258 . S
O555 Mn540 2.162 . S
O555 C543 1.281 . S
O556 Mn540 2.297 . S
O556 C543 1.236 . S
N557 Mn541 2.282 . S
N557 C558 1.328 . S
N557 C562 1.318 . S
C558 N557 1.328 . S
C558 C559 1.457 . S
C558 H563 0.929 . S
C559 C558 1.457 . S
C559 C560 1.291 . S
C559 H572 0.931 . S
C560 C559 1.291 . S
C560 C561 1.373 . S
C560 H573 0.929 . S
C561 C560 1.373 . S
C561 C562 1.396 . S
C561 C568 1.403 . S
C562 C552 1.476 . S
C562 N557 1.318 . S
C562 C561 1.396 . S
H563 C558 0.929 . S
O564 Mn540 2.385 . S
O564 C542 1.234 . S
O565 Mn540 2.209 . S
O565 Mn541 2.215 . S
O565 C542 1.283 . S
O566 Mn540 2.094 . S
O566 C544 1.240 . S
O567 Mn541 2.117 . S
O567 C544 1.264 . S
C568 C561 1.403 . S
C568 C569 1.399 . S
C568 H574 0.929 . S
C569 C549 1.449 . S
C569 C568 1.399 . S
C569 H575 0.930 . S
H570 C550 0.931 1_545 S
H571 C551 0.930 . S
H572 C559 0.931 . S
H573 C560 0.929 . S
H574 C568 0.929 . S
H575 C569 0.930 . S
Mn576 O581 2.095 . S
Mn576 O591 2.162 . S
Mn576 O592 2.297 . S
Mn576 O600 2.385 . S
Mn576 O601 2.209 . S
Mn576 O602 2.094 . S
Mn577 O582 2.121 . S
Mn577 N584 2.257 . S
Mn577 N593 2.282 . S
Mn577 O601 2.215 . S
Mn577 O603 2.117 . S
C578 O600 1.234 . S
C578 O601 1.283 . S
C579 O591 1.281 . S
C579 O592 1.236 . S
C580 O602 1.240 . S
C580 O603 1.264 . S
O581 Mn576 2.095 . S
O581 C590 1.250 . S
O582 Mn577 2.121 . S
O582 C590 1.258 . S
C583 N584 1.326 . S
C583 C587 1.460 . S
C583 H589 0.929 . S
N584 Mn577 2.257 . S
N584 C583 1.326 . S
N584 C588 1.362 . S
C585 C586 1.258 . S
C585 C588 1.431 . S
C585 C605 1.449 1_545 S
C586 C585 1.258 . S
C586 C587 1.477 . S
C586 H606 0.931 . S
C587 C583 1.460 . S
C587 C586 1.477 . S
C587 H607 0.930 . S
C588 N584 1.362 . S
C588 C585 1.431 . S
C588 C598 1.476 . S
H589 C583 0.929 . S
C590 O581 1.250 . S
C590 O582 1.258 . S
O591 Mn576 2.162 . S
O591 C579 1.281 . S
O592 Mn576 2.297 . S
O592 C579 1.236 . S
N593 Mn577 2.282 . S
N593 C594 1.328 . S
N593 C598 1.318 . S
C594 N593 1.328 . S
C594 C595 1.457 1_545 S
C594 H599 0.929 . S
C595 C594 1.457 1_565 S
C595 C596 1.291 . S
C595 H608 0.931 . S
C596 C595 1.291 . S
C596 C597 1.373 . S
C596 H609 0.929 . S
C597 C596 1.373 . S
C597 C598 1.396 1_565 S
C597 C604 1.403 . S
C598 C588 1.476 . S
C598 N593 1.318 . S
C598 C597 1.396 1_545 S
H599 C594 0.929 . S
O600 Mn576 2.385 . S
O600 C578 1.234 . S
O601 Mn576 2.209 . S
O601 Mn577 2.215 . S
O601 C578 1.283 . S
O602 Mn576 2.094 . S
O602 C580 1.240 . S
O603 Mn577 2.117 . S
O603 C580 1.264 . S
C604 C597 1.403 . S
C604 C605 1.399 . S
C604 H610 0.929 . S
C605 C585 1.449 1_565 S
C605 C604 1.399 . S
C605 H611 0.930 . S
H606 C586 0.931 . S
H607 C587 0.930 . S
H608 C595 0.931 . S
H609 C596 0.929 . S
H610 C604 0.929 . S
H611 C605 0.930 . S
Mn612 O617 2.095 . S
Mn612 O627 2.162 . S
Mn612 O628 2.297 . S
Mn612 O636 2.385 . S
Mn612 O637 2.209 . S
Mn612 O638 2.094 . S
Mn613 O618 2.121 . S
Mn613 N620 2.257 . S
Mn613 N629 2.282 . S
Mn613 O637 2.215 . S
Mn613 O639 2.117 . S
C614 O636 1.234 . S
C614 O637 1.283 . S
C615 O627 1.281 . S
C615 O628 1.236 . S
C616 O638 1.240 . S
C616 O639 1.264 . S
O617 Mn612 2.095 . S
O617 C626 1.250 . S
O618 Mn613 2.121 . S
O618 C626 1.258 . S
C619 N620 1.326 . S
C619 C623 1.460 . S
C619 H625 0.929 . S
N620 Mn613 2.257 . S
N620 C619 1.326 . S
N620 C624 1.362 . S
C621 C622 1.258 . S
C621 C624 1.431 . S
C621 C641 1.449 . S
C622 C621 1.258 . S
C622 C623 1.477 . S
C622 H642 0.931 . S
C623 C619 1.460 . S
C623 C622 1.477 . S
C623 H643 0.930 . S
C624 N620 1.362 . S
C624 C621 1.431 . S
C624 C634 1.476 . S
H625 C619 0.929 . S
C626 O617 1.250 . S
C626 O618 1.258 . S
O627 Mn612 2.162 . S
O627 C615 1.281 . S
O628 Mn612 2.297 . S
O628 C615 1.236 . S
N629 Mn613 2.282 . S
N629 C630 1.328 . S
N629 C634 1.318 . S
C630 N629 1.328 . S
C630 C631 1.457 . S
C630 H635 0.929 . S
C631 C630 1.457 . S
C631 C632 1.291 . S
C631 H644 0.931 . S
C632 C631 1.291 . S
C632 C633 1.373 . S
C632 H645 0.929 . S
C633 C632 1.373 . S
C633 C634 1.396 . S
C633 C640 1.403 . S
C634 C624 1.476 . S
C634 N629 1.318 . S
C634 C633 1.396 . S
H635 C630 0.929 . S
O636 Mn612 2.385 . S
O636 C614 1.234 . S
O637 Mn612 2.209 . S
O637 Mn613 2.215 . S
O637 C614 1.283 . S
O638 Mn612 2.094 . S
O638 C616 1.240 . S
O639 Mn613 2.117 . S
O639 C616 1.264 . S
C640 C633 1.403 . S
C640 C641 1.399 . S
C640 H646 0.929 . S
C641 C621 1.449 . S
C641 C640 1.399 . S
C641 H647 0.930 . S
H642 C622 0.931 . S
H643 C623 0.930 . S
H644 C631 0.931 . S
H645 C632 0.929 . S
H646 C640 0.929 . S
H647 C641 0.930 . S
Mn648 O653 2.095 . S
Mn648 O663 2.162 . S
Mn648 O664 2.297 . S
Mn648 O672 2.385 . S
Mn648 O673 2.209 . S
Mn648 O674 2.094 . S
Mn649 O654 2.121 . S
Mn649 N656 2.257 . S
Mn649 N665 2.282 . S
Mn649 O673 2.215 . S
Mn649 O675 2.117 . S
C650 O672 1.234 . S
C650 O673 1.283 . S
C651 O663 1.281 . S
C651 O664 1.236 . S
C652 O674 1.240 . S
C652 O675 1.264 . S
O653 Mn648 2.095 . S
O653 C662 1.250 . S
O654 Mn649 2.121 . S
O654 C662 1.258 . S
C655 N656 1.326 . S
C655 C659 1.460 . S
C655 H661 0.929 . S
N656 Mn649 2.257 . S
N656 C655 1.326 . S
N656 C660 1.362 . S
C657 C658 1.258 . S
C657 C660 1.431 . S
C657 C677 1.449 . S
C658 C657 1.258 . S
C658 C659 1.477 . S
C658 H678 0.931 . S
C659 C655 1.460 . S
C659 C658 1.477 . S
C659 H679 0.930 . S
C660 N656 1.362 . S
C660 C657 1.431 . S
C660 C670 1.476 . S
H661 C655 0.929 . S
C662 O653 1.250 . S
C662 O654 1.258 . S
O663 Mn648 2.162 . S
O663 C651 1.281 . S
O664 Mn648 2.297 . S
O664 C651 1.236 . S
N665 Mn649 2.282 . S
N665 C666 1.328 . S
N665 C670 1.318 . S
C666 N665 1.328 . S
C666 C667 1.457 . S
C666 H671 0.929 . S
C667 C666 1.457 . S
C667 C668 1.291 . S
C667 H680 0.931 . S
C668 C667 1.291 . S
C668 C669 1.373 . S
C668 H681 0.929 . S
C669 C668 1.373 . S
C669 C670 1.396 . S
C669 C676 1.403 . S
C670 C660 1.476 . S
C670 N665 1.318 . S
C670 C669 1.396 . S
H671 C666 0.929 . S
O672 Mn648 2.385 . S
O672 C650 1.234 . S
O673 Mn648 2.209 . S
O673 Mn649 2.215 . S
O673 C650 1.283 . S
O674 Mn648 2.094 . S
O674 C652 1.240 . S
O675 Mn649 2.117 . S
O675 C652 1.264 . S
C676 C669 1.403 . S
C676 C677 1.399 . S
C676 H682 0.929 . S
C677 C657 1.449 . S
C677 C676 1.399 . S
C677 H683 0.930 . S
H678 C658 0.931 . S
H679 C659 0.930 . S
H680 C667 0.931 . S
H681 C668 0.929 . S
H682 C676 0.929 . S
H683 C677 0.930 . S
Mn684 O689 2.095 1_545 S
Mn684 O699 2.162 . S
Mn684 O700 2.297 . S
Mn684 O708 2.385 . S
Mn684 O709 2.209 . S
Mn684 O710 2.094 . S
Mn685 O690 2.112 1_545 S
Mn685 N692 2.257 . S
Mn685 N701 2.282 . S
Mn685 O709 2.215 . S
Mn685 O711 2.117 . S
C686 O708 1.234 . S
C686 O709 1.283 . S
C687 O699 1.281 . S
C687 O700 1.236 . S
C688 O710 1.240 . S
C688 O711 1.264 . S
O689 Mn684 2.095 1_565 S
O689 C698 1.250 . S
O690 Mn685 2.112 1_565 S
O690 C698 1.263 . S
C691 N692 1.326 . S
C691 C695 1.460 . S
C691 H697 0.929 . S
N692 Mn685 2.257 . S
N692 C691 1.326 . S
N692 C696 1.362 . S
C693 C694 1.258 . S
C693 C696 1.431 . S
C693 C713 1.449 . S
C694 C693 1.258 . S
C694 C695 1.477 . S
C694 H714 0.931 . S
C695 C691 1.460 . S
C695 C694 1.477 . S
C695 H715 0.930 . S
C696 N692 1.362 . S
C696 C693 1.431 . S
C696 C706 1.476 . S
H697 C691 0.929 . S
C698 O689 1.250 . S
C698 O690 1.263 . S
O699 Mn684 2.162 . S
O699 C687 1.281 . S
O700 Mn684 2.297 . S
O700 C687 1.236 . S
N701 Mn685 2.282 . S
N701 C702 1.328 . S
N701 C706 1.318 . S
C702 N701 1.328 . S
C702 C703 1.457 . S
C702 H707 0.929 . S
C703 C702 1.457 . S
C703 C704 1.291 . S
C703 H716 0.931 . S
C704 C703 1.291 . S
C704 C705 1.373 . S
C704 H717 0.929 . S
C705 C704 1.373 . S
C705 C706 1.396 . S
C705 C712 1.403 . S
C706 C696 1.476 . S
C706 N701 1.318 . S
C706 C705 1.396 . S
H707 C702 0.929 . S
O708 Mn684 2.385 . S
O708 C686 1.234 . S
O709 Mn684 2.209 . S
O709 Mn685 2.215 . S
O709 C686 1.283 . S
O710 Mn684 2.094 . S
O710 C688 1.240 . S
O711 Mn685 2.117 . S
O711 C688 1.264 . S
C712 C705 1.403 . S
C712 C713 1.399 . S
C712 H718 0.929 . S
C713 C693 1.449 . S
C713 C712 1.399 . S
C713 H719 0.930 . S
H714 C694 0.931 . S
H715 C695 0.930 . S
H716 C703 0.931 . S
H717 C704 0.929 . S
H718 C712 0.929 . S
H719 C713 0.930 . S
Mn720 O725 2.095 . S
Mn720 O735 2.162 . S
Mn720 O736 2.297 . S
Mn720 O744 2.385 . S
Mn720 O745 2.208 . S
Mn720 O746 2.094 1_554 S
Mn721 O726 2.121 . S
Mn721 N728 2.257 . S
Mn721 N737 2.282 . S
Mn721 O745 2.218 1_556 S
Mn721 O747 2.117 . S
C722 O744 1.234 . S
C722 O745 1.282 . S
C723 O735 1.281 . S
C723 O736 1.236 . S
C724 O746 1.240 . S
C724 O747 1.264 . S
O725 Mn720 2.095 . S
O725 C734 1.254 . S
O726 Mn721 2.121 . S
O726 C734 1.243 1_556 S
C727 N728 1.326 . S
C727 C731 1.460 . S
C727 H733 0.929 . S
N728 Mn721 2.257 . S
N728 C727 1.326 . S
N728 C732 1.362 . S
C729 C730 1.258 . S
C729 C732 1.431 . S
C729 C749 1.449 . S
C730 C729 1.258 . S
C730 C731 1.477 . S
C730 H750 0.931 . S
C731 C727 1.460 . S
C731 C730 1.477 . S
C731 H751 0.930 . S
C732 N728 1.362 . S
C732 C729 1.431 . S
C732 C742 1.476 . S
H733 C727 0.929 . S
C734 O725 1.254 . S
C734 O726 1.243 1_554 S
O735 Mn720 2.162 . S
O735 C723 1.281 . S
O736 Mn720 2.297 . S
O736 C723 1.236 . S
N737 Mn721 2.282 . S
N737 C738 1.328 . S
N737 C742 1.318 . S
C738 N737 1.328 . S
C738 C739 1.457 . S
C738 H743 0.929 . S
C739 C738 1.457 . S
C739 C740 1.291 . S
C739 H752 0.931 . S
C740 C739 1.291 . S
C740 C741 1.373 . S
C740 H753 0.929 . S
C741 C740 1.373 . S
C741 C742 1.396 . S
C741 C748 1.403 . S
C742 C732 1.476 . S
C742 N737 1.318 . S
C742 C741 1.396 . S
H743 C738 0.929 . S
O744 Mn720 2.385 . S
O744 C722 1.234 . S
O745 Mn720 2.208 . S
O745 Mn721 2.218 1_554 S
O745 C722 1.282 . S
O746 Mn720 2.094 1_556 S
O746 C724 1.240 . S
O747 Mn721 2.117 . S
O747 C724 1.264 . S
C748 C741 1.403 . S
C748 C749 1.399 . S
C748 H754 0.929 . S
C749 C729 1.449 . S
C749 C748 1.399 . S
C749 H755 0.930 . S
H750 C730 0.931 . S
H751 C731 0.930 . S
H752 C739 0.931 . S
H753 C740 0.929 . S
H754 C748 0.929 . S
H755 C749 0.930 . S
Mn756 O761 2.095 . S
Mn756 O771 2.162 . S
Mn756 O772 2.297 . S
Mn756 O780 2.385 . S
Mn756 O781 2.209 . S
Mn756 O782 2.094 . S
Mn757 O762 2.121 . S
Mn757 N764 2.257 . S
Mn757 N773 2.282 . S
Mn757 O781 2.215 . S
Mn757 O783 2.117 . S
C758 O780 1.234 . S
C758 O781 1.283 . S
C759 O771 1.281 . S
C759 O772 1.236 . S
C760 O782 1.240 . S
C760 O783 1.264 . S
O761 Mn756 2.095 . S
O761 C770 1.250 . S
O762 Mn757 2.121 . S
O762 C770 1.258 . S
C763 N764 1.326 . S
C763 C767 1.460 . S
C763 H769 0.929 . S
N764 Mn757 2.257 . S
N764 C763 1.326 . S
N764 C768 1.362 . S
C765 C766 1.258 . S
C765 C768 1.431 . S
C765 C785 1.449 . S
C766 C765 1.258 . S
C766 C767 1.477 . S
C766 H786 0.931 . S
C767 C763 1.460 . S
C767 C766 1.477 . S
C767 H787 0.930 . S
C768 N764 1.362 . S
C768 C765 1.431 . S
C768 C778 1.476 . S
H769 C763 0.929 . S
C770 O761 1.250 . S
C770 O762 1.258 . S
O771 Mn756 2.162 . S
O771 C759 1.281 . S
O772 Mn756 2.297 . S
O772 C759 1.236 . S
N773 Mn757 2.282 . S
N773 C774 1.328 . S
N773 C778 1.318 . S
C774 N773 1.328 . S
C774 C775 1.457 . S
C774 H779 0.929 . S
C775 C774 1.457 . S
C775 C776 1.291 . S
C775 H788 0.931 . S
C776 C775 1.291 . S
C776 C777 1.373 . S
C776 H789 0.929 . S
C777 C776 1.373 . S
C777 C778 1.396 . S
C777 C784 1.403 . S
C778 C768 1.476 . S
C778 N773 1.318 . S
C778 C777 1.396 . S
H779 C774 0.929 . S
O780 Mn756 2.385 . S
O780 C758 1.234 . S
O781 Mn756 2.209 . S
O781 Mn757 2.215 . S
O781 C758 1.283 . S
O782 Mn756 2.094 . S
O782 C760 1.240 . S
O783 Mn757 2.117 . S
O783 C760 1.264 . S
C784 C777 1.403 . S
C784 C785 1.399 . S
C784 H790 0.929 . S
C785 C765 1.449 . S
C785 C784 1.399 . S
C785 H791 0.930 . S
H786 C766 0.931 . S
H787 C767 0.930 . S
H788 C775 0.931 . S
H789 C776 0.929 . S
H790 C784 0.929 . S
H791 C785 0.930 . S
Mn792 O797 2.095 . S
Mn792 O807 2.162 . S
Mn792 O808 2.297 . S
Mn792 O816 2.385 . S
Mn792 O817 2.209 . S
Mn792 O818 2.094 . S
Mn793 O798 2.121 . S
Mn793 N800 2.257 . S
Mn793 N809 2.282 . S
Mn793 O817 2.215 . S
Mn793 O819 2.117 . S
C794 O816 1.234 . S
C794 O817 1.283 . S
C795 O807 1.281 . S
C795 O808 1.236 . S
C796 O818 1.240 . S
C796 O819 1.264 . S
O797 Mn792 2.095 . S
O797 C806 1.250 . S
O798 Mn793 2.121 . S
O798 C806 1.258 . S
C799 N800 1.326 . S
C799 C803 1.460 . S
C799 H805 0.929 . S
N800 Mn793 2.257 . S
N800 C799 1.326 . S
N800 C804 1.362 . S
C801 C802 1.258 . S
C801 C804 1.431 . S
C801 C821 1.449 . S
C802 C801 1.258 . S
C802 C803 1.477 . S
C802 H822 0.931 . S
C803 C799 1.460 . S
C803 C802 1.477 . S
C803 H823 0.930 . S
C804 N800 1.362 . S
C804 C801 1.431 . S
C804 C814 1.476 . S
H805 C799 0.929 . S
C806 O797 1.250 . S
C806 O798 1.258 . S
O807 Mn792 2.162 . S
O807 C795 1.281 . S
O808 Mn792 2.297 . S
O808 C795 1.236 . S
N809 Mn793 2.282 . S
N809 C810 1.328 . S
N809 C814 1.318 . S
C810 N809 1.328 . S
C810 C811 1.457 . S
C810 H815 0.929 . S
C811 C810 1.457 . S
C811 C812 1.291 . S
C811 H824 0.931 . S
C812 C811 1.291 . S
C812 C813 1.373 . S
C812 H825 0.929 . S
C813 C812 1.373 . S
C813 C814 1.396 . S
C813 C820 1.403 . S
C814 C804 1.476 . S
C814 N809 1.318 . S
C814 C813 1.396 . S
H815 C810 0.929 . S
O816 Mn792 2.385 . S
O816 C794 1.234 . S
O817 Mn792 2.209 . S
O817 Mn793 2.215 . S
O817 C794 1.283 . S
O818 Mn792 2.094 . S
O818 C796 1.240 . S
O819 Mn793 2.117 . S
O819 C796 1.264 . S
C820 C813 1.403 . S
C820 C821 1.399 . S
C820 H826 0.929 . S
C821 C801 1.449 . S
C821 C820 1.399 . S
C821 H827 0.930 . S
H822 C802 0.931 . S
H823 C803 0.930 . S
H824 C811 0.931 . S
H825 C812 0.929 . S
H826 C820 0.929 . S
H827 C821 0.930 . S
Mn828 O833 2.095 . S
Mn828 O843 2.162 . S
Mn828 O844 2.297 . S
Mn828 O852 2.385 . S
Mn828 O853 2.209 . S
Mn828 O854 2.094 . S
Mn829 O834 2.121 . S
Mn829 N836 2.257 . S
Mn829 N845 2.282 . S
Mn829 O853 2.215 . S
Mn829 O855 2.117 . S
C830 O852 1.234 . S
C830 O853 1.283 . S
C831 O843 1.281 . S
C831 O844 1.236 . S
C832 O854 1.240 . S
C832 O855 1.264 . S
O833 Mn828 2.095 . S
O833 C842 1.250 . S
O834 Mn829 2.121 . S
O834 C842 1.258 . S
C835 N836 1.326 . S
C835 C839 1.460 . S
C835 H841 0.929 . S
N836 Mn829 2.257 . S
N836 C835 1.326 . S
N836 C840 1.362 . S
C837 C838 1.258 . S
C837 C840 1.431 . S
C837 C857 1.449 . S
C838 C837 1.258 . S
C838 C839 1.477 . S
C838 H858 0.931 . S
C839 C835 1.460 . S
C839 C838 1.477 . S
C839 H859 0.930 . S
C840 N836 1.362 . S
C840 C837 1.431 . S
C840 C850 1.476 . S
H841 C835 0.929 . S
C842 O833 1.250 . S
C842 O834 1.258 . S
O843 Mn828 2.162 . S
O843 C831 1.281 . S
O844 Mn828 2.297 . S
O844 C831 1.236 . S
N845 Mn829 2.282 . S
N845 C846 1.328 . S
N845 C850 1.318 . S
C846 N845 1.328 . S
C846 C847 1.457 . S
C846 H851 0.929 . S
C847 C846 1.457 . S
C847 C848 1.291 . S
C847 H860 0.931 . S
C848 C847 1.291 . S
C848 C849 1.373 . S
C848 H861 0.929 . S
C849 C848 1.373 . S
C849 C850 1.396 . S
C849 C856 1.403 . S
C850 C840 1.476 . S
C850 N845 1.318 . S
C850 C849 1.396 . S
H851 C846 0.929 . S
O852 Mn828 2.385 . S
O852 C830 1.234 . S
O853 Mn828 2.209 . S
O853 Mn829 2.215 . S
O853 C830 1.283 . S
O854 Mn828 2.094 . S
O854 C832 1.240 . S
O855 Mn829 2.117 . S
O855 C832 1.264 . S
C856 C849 1.403 . S
C856 C857 1.399 . S
C856 H862 0.929 . S
C857 C837 1.449 . S
C857 C856 1.399 . S
C857 H863 0.930 . S
H858 C838 0.931 . S
H859 C839 0.930 . S
H860 C847 0.931 . S
H861 C848 0.929 . S
H862 C856 0.929 . S
H863 C857 0.930 . S
Tb864 O867 2.453 . S
Tb864 O868 2.596 . S
Tb864 O869 2.374 1_554 S
Tb864 O877 2.343 1_455 S
Tb864 O879 2.353 . S
Tb864 O881 2.427 . S
Tb864 O882 2.513 1_554 S
C865 O869 1.251 . S
C865 O871 1.263 1_455 S
Tb866 O868 2.336 1_665 S
Tb866 O871 2.350 1_564 S
Tb866 O874 2.453 . S
Tb866 O875 2.532 . S
Tb866 O876 2.435 1_564 S
Tb866 O877 2.567 1_565 S
Tb866 O878 2.360 1_565 S
O867 Tb864 2.453 . S
O867 C883 1.245 . S
O868 Tb864 2.596 . S
O868 Tb866 2.336 1_445 S
O868 C883 1.259 . S
O869 Tb864 2.374 1_556 S
O869 C865 1.251 . S
C870 O874 1.275 1_455 S
C870 O875 1.246 1_455 S
O871 C865 1.263 1_655 S
O871 Tb866 2.350 1_546 S
C872 O876 1.242 1_554 S
C872 O877 1.263 . S
C873 O878 1.250 . S
C873 O879 1.263 1_655 S
O874 Tb866 2.453 . S
O874 C870 1.275 1_655 S
O875 Tb866 2.532 . S
O875 C870 1.246 1_655 S
O876 Tb866 2.435 1_546 S
O876 C872 1.242 1_556 S
O877 Tb864 2.343 1_655 S
O877 Tb866 2.567 1_545 S
O877 C872 1.263 . S
O878 Tb866 2.360 1_545 S
O878 C873 1.250 . S
O879 Tb864 2.353 . S
O879 C873 1.263 1_455 S
C880 O881 1.275 1_556 S
C880 O882 1.246 . S
O881 Tb864 2.427 . S
O881 C880 1.275 1_554 S
O882 Tb864 2.513 1_556 S
O882 C880 1.246 . S
C883 O867 1.245 . S
C883 O868 1.259 . S
Tb884 O887 2.453 . S
Tb884 O888 2.596 . S
Tb884 O889 2.374 . S
Tb884 O897 2.343 . S
Tb884 O899 2.353 . S
Tb884 O901 2.427 . S
Tb884 O902 2.513 . S
C885 O889 1.251 . S
C885 O891 1.263 . S
Tb886 O888 2.343 . S
Tb886 O891 2.353 . S
Tb886 O894 2.427 . S
Tb886 O895 2.513 . S
Tb886 O896 2.453 . S
Tb886 O897 2.596 . S
Tb886 O898 2.374 . S
O887 Tb884 2.453 . S
O887 C903 1.245 . S
O888 Tb884 2.596 . S
O888 Tb886 2.343 . S
O888 C903 1.259 . S
O889 Tb884 2.374 . S
O889 C885 1.251 . S
C890 O894 1.275 . S
C890 O895 1.246 . S
O891 C885 1.263 . S
O891 Tb886 2.353 . S
C892 O896 1.245 . S
C892 O897 1.259 . S
C893 O898 1.250 . S
C893 O899 1.263 . S
O894 Tb886 2.427 . S
O894 C890 1.275 . S
O895 Tb886 2.513 . S
O895 C890 1.246 . S
O896 Tb886 2.453 . S
O896 C892 1.245 . S
O897 Tb884 2.343 . S
O897 Tb886 2.596 . S
O897 C892 1.259 . S
O898 Tb886 2.374 . S
O898 C893 1.250 . S
O899 Tb884 2.353 . S
O899 C893 1.263 . S
C900 O901 1.275 . S
C900 O902 1.246 . S
O901 Tb884 2.427 . S
O901 C900 1.275 . S
O902 Tb884 2.513 . S
O902 C900 1.246 . S
C903 O887 1.245 . S
C903 O888 1.259 . S
Tb904 O907 2.453 . S
Tb904 O908 2.596 . S
Tb904 O909 2.374 . S
Tb904 O917 2.343 . S
Tb904 O919 2.353 . S
Tb904 O921 2.427 . S
Tb904 O922 2.513 . S
C905 O909 1.251 . S
C905 O911 1.263 . S
Tb906 O908 2.343 . S
Tb906 O911 2.353 . S
Tb906 O914 2.427 . S
Tb906 O915 2.513 . S
Tb906 O916 2.453 1_545 S
Tb906 O917 2.596 . S
Tb906 O918 2.374 . S
O907 Tb904 2.453 . S
O907 C923 1.245 . S
O908 Tb904 2.596 . S
O908 Tb906 2.343 . S
O908 C923 1.259 . S
O909 Tb904 2.374 . S
O909 C905 1.251 . S
C910 O914 1.275 . S
C910 O915 1.246 . S
O911 C905 1.263 . S
O911 Tb906 2.353 . S
C912 O916 1.242 1_545 S
C912 O917 1.285 . S
C913 O918 1.250 . S
C913 O919 1.263 . S
O914 Tb906 2.427 . S
O914 C910 1.275 . S
O915 Tb906 2.513 . S
O915 C910 1.246 . S
O916 Tb906 2.453 1_565 S
O916 C912 1.242 1_565 S
O917 Tb904 2.343 . S
O917 Tb906 2.596 . S
O917 C912 1.285 . S
O918 Tb906 2.374 . S
O918 C913 1.250 . S
O919 Tb904 2.353 . S
O919 C913 1.263 . S
C920 O921 1.275 . S
C920 O922 1.246 . S
O921 Tb904 2.427 . S
O921 C920 1.275 . S
O922 Tb904 2.513 . S
O922 C920 1.246 . S
C923 O907 1.245 . S
C923 O908 1.259 . S
Tb924 O927 2.453 . S
Tb924 O928 2.596 . S
Tb924 O929 2.374 . S
Tb924 O937 2.343 . S
Tb924 O939 2.353 . S
Tb924 O941 2.427 . S
Tb924 O942 2.513 . S
C925 O929 1.251 . S
C925 O931 1.263 . S
Tb926 O928 2.343 . S
Tb926 O931 2.353 . S
Tb926 O934 2.427 . S
Tb926 O935 2.513 . S
Tb926 O936 2.453 . S
Tb926 O937 2.596 . S
Tb926 O938 2.374 . S
O927 Tb924 2.453 . S
O927 C943 1.245 . S
O928 Tb924 2.596 . S
O928 Tb926 2.343 . S
O928 C943 1.259 . S
O929 Tb924 2.374 . S
O929 C925 1.251 . S
C930 O934 1.275 . S
C930 O935 1.246 . S
O931 C925 1.263 . S
O931 Tb926 2.353 . S
C932 O936 1.245 . S
C932 O937 1.259 . S
C933 O938 1.250 . S
C933 O939 1.263 . S
O934 Tb926 2.427 . S
O934 C930 1.275 . S
O935 Tb926 2.513 . S
O935 C930 1.246 . S
O936 Tb926 2.453 . S
O936 C932 1.245 . S
O937 Tb924 2.343 . S
O937 Tb926 2.596 . S
O937 C932 1.259 . S
O938 Tb926 2.374 . S
O938 C933 1.250 . S
O939 Tb924 2.353 . S
O939 C933 1.263 . S
C940 O941 1.275 . S
C940 O942 1.246 . S
O941 Tb924 2.427 . S
O941 C940 1.275 . S
O942 Tb924 2.513 . S
O942 C940 1.246 . S
C943 O927 1.245 . S
C943 O928 1.259 . S
Tb944 O947 2.453 1_545 S
Tb944 O948 2.596 . S
Tb944 O949 2.374 1_455 S
Tb944 O957 2.343 . S
Tb944 O959 2.353 . S
Tb944 O961 2.427 . S
Tb944 O962 2.513 1_455 S
C945 O949 1.251 . S
C945 O951 1.263 . S
Tb946 O948 2.343 . S
Tb946 O951 2.353 1_455 S
Tb946 O954 2.427 . S
Tb946 O955 2.513 . S
Tb946 O956 2.473 . S
Tb946 O957 2.596 . S
Tb946 O958 2.374 . S
O947 Tb944 2.453 1_565 S
O947 C963 1.245 . S
O948 Tb944 2.596 . S
O948 Tb946 2.343 . S
O948 C963 1.259 1_545 S
O949 Tb944 2.374 1_655 S
O949 C945 1.251 . S
C950 O954 1.275 . S
C950 O955 1.246 . S
O951 C945 1.263 . S
O951 Tb946 2.353 1_655 S
C952 O956 1.261 . S
C952 O957 1.259 . S
C953 O958 1.250 . S
C953 O959 1.263 . S
O954 Tb946 2.427 . S
O954 C950 1.275 . S
O955 Tb946 2.513 . S
O955 C950 1.246 . S
O956 Tb946 2.473 . S
O956 C952 1.261 . S
O957 Tb944 2.343 . S
O957 Tb946 2.596 . S
O957 C952 1.259 . S
O958 Tb946 2.374 . S
O958 C953 1.250 . S
O959 Tb944 2.353 . S
O959 C953 1.263 . S
C960 O961 1.275 1_655 S
C960 O962 1.246 . S
O961 Tb944 2.427 . S
O961 C960 1.275 1_455 S
O962 Tb944 2.513 1_655 S
O962 C960 1.246 . S
C963 O947 1.245 . S
C963 O948 1.259 1_565 S
Tb964 O967 2.453 . S
Tb964 O968 2.596 . S
Tb964 O969 2.374 . S
Tb964 O977 2.343 . S
Tb964 O979 2.353 . S
Tb964 O981 2.427 . S
Tb964 O982 2.513 . S
C965 O969 1.251 . S
C965 O971 1.263 . S
Tb966 O968 2.343 . S
Tb966 O971 2.353 . S
Tb966 O974 2.427 . S
Tb966 O975 2.513 . S
Tb966 O976 2.453 . S
Tb966 O977 2.596 . S
Tb966 O978 2.374 . S
O967 Tb964 2.453 . S
O967 C983 1.245 . S
O968 Tb964 2.596 . S
O968 Tb966 2.343 . S
O968 C983 1.259 . S
O969 Tb964 2.374 . S
O969 C965 1.251 . S
C970 O974 1.275 . S
C970 O975 1.246 . S
O971 C965 1.263 . S
O971 Tb966 2.353 . S
C972 O976 1.245 . S
C972 O977 1.259 . S
C973 O978 1.250 . S
C973 O979 1.263 . S
O974 Tb966 2.427 . S
O974 C970 1.275 . S
O975 Tb966 2.513 . S
O975 C970 1.246 . S
O976 Tb966 2.453 . S
O976 C972 1.245 . S
O977 Tb964 2.343 . S
O977 Tb966 2.596 . S
O977 C972 1.259 . S
O978 Tb966 2.374 . S
O978 C973 1.250 . S
O979 Tb964 2.353 . S
O979 C973 1.263 . S
C980 O981 1.275 . S
C980 O982 1.246 . S
O981 Tb964 2.427 . S
O981 C980 1.275 . S
O982 Tb964 2.513 . S
O982 C980 1.246 . S
C983 O967 1.245 . S
C983 O968 1.259 . S
Tb984 O987 2.453 . S
Tb984 O988 2.596 . S
Tb984 O989 2.374 . S
Tb984 O997 2.343 1_556 S
Tb984 O999 2.353 1_556 S
Tb984 O1001 2.427 1_556 S
Tb984 O1002 2.513 1_556 S
C985 O989 1.251 1_564 S
C985 O991 1.263 1_565 S
Tb986 O988 2.343 1_554 S
Tb986 O991 2.353 . S
Tb986 O994 2.427 . S
Tb986 O995 2.513 . S
Tb986 O996 2.453 . S
Tb986 O997 2.596 . S
Tb986 O998 2.374 . S
O987 Tb984 2.453 . S
O987 C1003 1.245 . S
O988 Tb984 2.596 . S
O988 Tb986 2.343 1_556 S
O988 C1003 1.259 . S
O989 Tb984 2.374 . S
O989 C985 1.251 1_546 S
C990 O994 1.275 . S
C990 O995 1.246 . S
O991 C985 1.263 1_545 S
O991 Tb986 2.353 . S
C992 O996 1.245 . S
C992 O997 1.259 . S
C993 O998 1.250 . S
C993 O999 1.263 . S
O994 Tb986 2.427 . S
O994 C990 1.275 . S
O995 Tb986 2.513 . S
O995 C990 1.246 . S
O996 Tb986 2.453 . S
O996 C992 1.245 . S
O997 Tb984 2.343 1_554 S
O997 Tb986 2.596 . S
O997 C992 1.259 . S
O998 Tb986 2.374 . S
O998 C993 1.250 . S
O999 Tb984 2.353 1_554 S
O999 C993 1.263 . S
C1000 O1001 1.275 . S
C1000 O1002 1.246 . S
O1001 Tb984 2.427 1_554 S
O1001 C1000 1.275 . S
O1002 Tb984 2.513 1_554 S
O1002 C1000 1.246 . S
C1003 O987 1.245 . S
C1003 O988 1.259 . S
Tb1004 O1007 2.453 . S
Tb1004 O1008 2.596 . S
Tb1004 O1009 2.374 . S
Tb1004 O1017 2.343 . S
Tb1004 O1019 2.353 . S
Tb1004 O1021 2.427 . S
Tb1004 O1022 2.513 . S
C1005 O1009 1.251 . S
C1005 O1011 1.263 . S
Tb1006 O1008 2.343 . S
Tb1006 O1011 2.353 . S
Tb1006 O1014 2.427 . S
Tb1006 O1015 2.513 . S
Tb1006 O1016 2.453 . S
Tb1006 O1017 2.596 . S
Tb1006 O1018 2.374 . S
O1007 Tb1004 2.453 . S
O1007 C1023 1.245 . S
O1008 Tb1004 2.596 . S
O1008 Tb1006 2.343 . S
O1008 C1023 1.259 . S
O1009 Tb1004 2.374 . S
O1009 C1005 1.251 . S
C1010 O1014 1.275 . S
C1010 O1015 1.246 . S
O1011 C1005 1.263 . S
O1011 Tb1006 2.353 . S
C1012 O1016 1.245 . S
C1012 O1017 1.259 . S
C1013 O1018 1.250 . S
C1013 O1019 1.263 . S
O1014 Tb1006 2.427 . S
O1014 C1010 1.275 . S
O1015 Tb1006 2.513 . S
O1015 C1010 1.246 . S
O1016 Tb1006 2.453 . S
O1016 C1012 1.245 . S
O1017 Tb1004 2.343 . S
O1017 Tb1006 2.596 . S
O1017 C1012 1.259 . S
O1018 Tb1006 2.374 . S
O1018 C1013 1.250 . S
O1019 Tb1004 2.353 . S
O1019 C1013 1.263 . S
C1020 O1021 1.275 . S
C1020 O1022 1.246 . S
O1021 Tb1004 2.427 . S
O1021 C1020 1.275 . S
O1022 Tb1004 2.513 . S
O1022 C1020 1.246 . S
C1023 O1007 1.245 . S
C1023 O1008 1.259 . S
Tb1024 O1027 2.453 1_556 S
Tb1024 O1028 2.596 1_556 S
Tb1024 O1029 2.374 1_556 S
Tb1024 O1037 2.343 1_556 S
Tb1024 O1039 2.353 . S
Tb1024 O1041 2.427 . S
Tb1024 O1042 2.513 . S
C1025 O1029 1.251 . S
C1025 O1031 1.263 . S
Tb1026 O1028 2.343 . S
Tb1026 O1031 2.353 . S
Tb1026 O1034 2.427 . S
Tb1026 O1035 2.513 . S
Tb1026 O1036 2.453 . S
Tb1026 O1037 2.596 . S
Tb1026 O1038 2.374 . S
O1027 Tb1024 2.453 1_554 S
O1027 C1043 1.245 . S
O1028 Tb1024 2.596 1_554 S
O1028 Tb1026 2.343 . S
O1028 C1043 1.259 . S
O1029 Tb1024 2.374 1_554 S
O1029 C1025 1.251 . S
C1030 O1034 1.275 . S
C1030 O1035 1.246 . S
O1031 C1025 1.263 . S
O1031 Tb1026 2.353 . S
C1032 O1036 1.245 . S
C1032 O1037 1.259 . S
C1033 O1038 1.250 . S
C1033 O1039 1.263 1_554 S
O1034 Tb1026 2.427 . S
O1034 C1030 1.275 . S
O1035 Tb1026 2.513 . S
O1035 C1030 1.246 . S
O1036 Tb1026 2.453 . S
O1036 C1032 1.245 . S
O1037 Tb1024 2.343 1_554 S
O1037 Tb1026 2.596 . S
O1037 C1032 1.259 . S
O1038 Tb1026 2.374 . S
O1038 C1033 1.250 . S
O1039 Tb1024 2.353 . S
O1039 C1033 1.263 1_556 S
C1040 O1041 1.275 . S
C1040 O1042 1.246 . S
O1041 Tb1024 2.427 . S
O1041 C1040 1.275 . S
O1042 Tb1024 2.513 . S
O1042 C1040 1.246 . S
C1043 O1027 1.245 . S
C1043 O1028 1.259 . S
Tb1044 O1047 2.453 . S
Tb1044 O1048 2.596 . S
Tb1044 O1049 2.374 . S
Tb1044 O1057 2.343 . S
Tb1044 O1059 2.353 . S
Tb1044 O1061 2.427 . S
Tb1044 O1062 2.513 . S
C1045 O1049 1.251 . S
C1045 O1051 1.263 . S
Tb1046 O1048 2.343 . S
Tb1046 O1051 2.353 . S
Tb1046 O1054 2.427 . S
Tb1046 O1055 2.513 . S
Tb1046 O1056 2.453 . S
Tb1046 O1057 2.596 . S
Tb1046 O1058 2.374 . S
O1047 Tb1044 2.453 . S
O1047 C1063 1.245 . S
O1048 Tb1044 2.596 . S
O1048 Tb1046 2.343 . S
O1048 C1063 1.259 . S
O1049 Tb1044 2.374 . S
O1049 C1045 1.251 . S
C1050 O1054 1.275 . S
C1050 O1055 1.246 . S
O1051 C1045 1.263 . S
O1051 Tb1046 2.353 . S
C1052 O1056 1.245 . S
C1052 O1057 1.259 . S
C1053 O1058 1.250 . S
C1053 O1059 1.263 . S
O1054 Tb1046 2.427 . S
O1054 C1050 1.275 . S
O1055 Tb1046 2.513 . S
O1055 C1050 1.246 . S
O1056 Tb1046 2.453 . S
O1056 C1052 1.245 . S
O1057 Tb1044 2.343 . S
O1057 Tb1046 2.596 . S
O1057 C1052 1.259 . S
O1058 Tb1046 2.374 . S
O1058 C1053 1.250 . S
O1059 Tb1044 2.353 . S
O1059 C1053 1.263 . S
C1060 O1061 1.275 . S
C1060 O1062 1.246 . S
O1061 Tb1044 2.427 . S
O1061 C1060 1.275 . S
O1062 Tb1044 2.513 . S
O1062 C1060 1.246 . S
C1063 O1047 1.245 . S
C1063 O1048 1.259 . S
Tb1064 O1067 2.453 1_655 S
Tb1064 O1068 2.596 1_655 S
Tb1064 O1069 2.374 . S
Tb1064 O1077 2.343 . S
Tb1064 O1079 2.353 . S
Tb1064 O1081 2.427 . S
Tb1064 O1082 2.513 . S
C1065 O1069 1.251 1_455 S
C1065 O1071 1.263 . S
Tb1066 O1068 2.343 . S
Tb1066 O1071 2.353 . S
Tb1066 O1074 2.427 . S
Tb1066 O1075 2.513 . S
Tb1066 O1076 2.453 . S
Tb1066 O1077 2.596 1_455 S
Tb1066 O1078 2.374 . S
O1067 Tb1064 2.453 1_455 S
O1067 C1083 1.245 . S
O1068 Tb1064 2.596 1_455 S
O1068 Tb1066 2.343 . S
O1068 C1083 1.259 . S
O1069 Tb1064 2.374 . S
O1069 C1065 1.251 1_655 S
C1070 O1074 1.275 . S
C1070 O1075 1.246 . S
O1071 C1065 1.263 . S
O1071 Tb1066 2.353 . S
C1072 O1076 1.250 1_655 S
C1072 O1077 1.259 . S
C1073 O1078 1.250 . S
C1073 O1079 1.263 1_455 S
O1074 Tb1066 2.427 . S
O1074 C1070 1.275 . S
O1075 Tb1066 2.513 . S
O1075 C1070 1.246 . S
O1076 Tb1066 2.453 . S
O1076 C1072 1.250 1_455 S
O1077 Tb1064 2.343 . S
O1077 Tb1066 2.596 1_655 S
O1077 C1072 1.259 . S
O1078 Tb1066 2.374 . S
O1078 C1073 1.250 . S
O1079 Tb1064 2.353 . S
O1079 C1073 1.263 1_655 S
C1080 O1081 1.275 . S
C1080 O1082 1.246 . S
O1081 Tb1064 2.427 . S
O1081 C1080 1.275 . S
O1082 Tb1064 2.513 . S
O1082 C1080 1.246 . S
C1083 O1067 1.245 . S
C1083 O1068 1.259 . S
Tb1084 O1087 2.453 . S
Tb1084 O1088 2.596 . S
Tb1084 O1089 2.374 . S
Tb1084 O1097 2.343 . S
Tb1084 O1099 2.353 . S
Tb1084 O1101 2.427 . S
Tb1084 O1102 2.513 . S
C1085 O1089 1.251 . S
C1085 O1091 1.263 . S
Tb1086 O1088 2.343 . S
Tb1086 O1091 2.353 . S
Tb1086 O1094 2.427 . S
Tb1086 O1095 2.513 . S
Tb1086 O1096 2.453 . S
Tb1086 O1097 2.596 . S
Tb1086 O1098 2.374 . S
O1087 Tb1084 2.453 . S
O1087 C1103 1.245 . S
O1088 Tb1084 2.596 . S
O1088 Tb1086 2.343 . S
O1088 C1103 1.259 . S
O1089 Tb1084 2.374 . S
O1089 C1085 1.251 . S
C1090 O1094 1.275 . S
C1090 O1095 1.246 . S
O1091 C1085 1.263 . S
O1091 Tb1086 2.353 . S
C1092 O1096 1.245 . S
C1092 O1097 1.259 . S
C1093 O1098 1.250 . S
C1093 O1099 1.263 . S
O1094 Tb1086 2.427 . S
O1094 C1090 1.275 . S
O1095 Tb1086 2.513 . S
O1095 C1090 1.246 . S
O1096 Tb1086 2.453 . S
O1096 C1092 1.245 . S
O1097 Tb1084 2.343 . S
O1097 Tb1086 2.596 . S
O1097 C1092 1.259 . S
O1098 Tb1086 2.374 . S
O1098 C1093 1.250 . S
O1099 Tb1084 2.353 . S
O1099 C1093 1.263 . S
C1100 O1101 1.275 . S
C1100 O1102 1.246 . S
O1101 Tb1084 2.427 . S
O1101 C1100 1.275 . S
O1102 Tb1084 2.513 . S
O1102 C1100 1.246 . S
C1103 O1087 1.245 . S
C1103 O1088 1.259 . S
Tb1104 O1107 2.453 . S
Tb1104 O1108 2.596 . S
Tb1104 O1109 2.374 . S
Tb1104 O1117 2.343 . S
Tb1104 O1119 2.353 . S
Tb1104 O1121 2.427 . S
Tb1104 O1122 2.513 . S
C1105 O1109 1.251 . S
C1105 O1111 1.263 . S
Tb1106 O1108 2.343 . S
Tb1106 O1111 2.353 . S
Tb1106 O1114 2.427 . S
Tb1106 O1115 2.513 . S
Tb1106 O1116 2.453 . S
Tb1106 O1117 2.596 . S
Tb1106 O1118 2.374 . S
O1107 Tb1104 2.453 . S
O1107 C1123 1.245 . S
O1108 Tb1104 2.596 . S
O1108 Tb1106 2.343 . S
O1108 C1123 1.259 . S
O1109 Tb1104 2.374 . S
O1109 C1105 1.251 . S
C1110 O1114 1.275 . S
C1110 O1115 1.246 . S
O1111 C1105 1.263 . S
O1111 Tb1106 2.353 . S
C1112 O1116 1.245 . S
C1112 O1117 1.259 . S
C1113 O1118 1.250 . S
C1113 O1119 1.263 . S
O1114 Tb1106 2.427 . S
O1114 C1110 1.275 . S
O1115 Tb1106 2.513 . S
O1115 C1110 1.246 . S
O1116 Tb1106 2.453 . S
O1116 C1112 1.245 . S
O1117 Tb1104 2.343 . S
O1117 Tb1106 2.596 . S
O1117 C1112 1.259 . S
O1118 Tb1106 2.374 . S
O1118 C1113 1.250 . S
O1119 Tb1104 2.353 . S
O1119 C1113 1.263 . S
C1120 O1121 1.275 . S
C1120 O1122 1.246 . S
O1121 Tb1104 2.427 . S
O1121 C1120 1.275 . S
O1122 Tb1104 2.513 . S
O1122 C1120 1.246 . S
C1123 O1107 1.245 . S
C1123 O1108 1.259 . S
Tb1124 O1127 2.453 . S
Tb1124 O1128 2.596 . S
Tb1124 O1129 2.374 . S
Tb1124 O1137 2.343 . S
Tb1124 O1139 2.353 . S
Tb1124 O1141 2.427 . S
Tb1124 O1142 2.513 . S
C1125 O1129 1.251 . S
C1125 O1131 1.263 . S
Tb1126 O1128 2.343 . S
Tb1126 O1131 2.353 . S
Tb1126 O1134 2.427 . S
Tb1126 O1135 2.513 . S
Tb1126 O1136 2.453 . S
Tb1126 O1137 2.596 . S
Tb1126 O1138 2.374 . S
O1127 Tb1124 2.453 . S
O1127 C1143 1.245 . S
O1128 Tb1124 2.596 . S
O1128 Tb1126 2.343 . S
O1128 C1143 1.259 . S
O1129 Tb1124 2.374 . S
O1129 C1125 1.251 . S
C1130 O1134 1.275 . S
C1130 O1135 1.246 . S
O1131 C1125 1.263 . S
O1131 Tb1126 2.353 . S
C1132 O1136 1.245 . S
C1132 O1137 1.259 . S
C1133 O1138 1.250 . S
C1133 O1139 1.263 . S
O1134 Tb1126 2.427 . S
O1134 C1130 1.275 . S
O1135 Tb1126 2.513 . S
O1135 C1130 1.246 . S
O1136 Tb1126 2.453 . S
O1136 C1132 1.245 . S
O1137 Tb1124 2.343 . S
O1137 Tb1126 2.596 . S
O1137 C1132 1.259 . S
O1138 Tb1126 2.374 . S
O1138 C1133 1.250 . S
O1139 Tb1124 2.353 . S
O1139 C1133 1.263 . S
C1140 O1141 1.275 . S
C1140 O1142 1.246 . S
O1141 Tb1124 2.427 . S
O1141 C1140 1.275 . S
O1142 Tb1124 2.513 . S
O1142 C1140 1.246 . S
C1143 O1127 1.245 . S
C1143 O1128 1.259 . S
Tb1144 O1147 2.453 . S
Tb1144 O1148 2.596 . S
Tb1144 O1149 2.374 . S
Tb1144 O1157 2.343 . S
Tb1144 O1159 2.353 . S
Tb1144 O1161 2.427 . S
Tb1144 O1162 2.513 . S
C1145 O1149 1.251 . S
C1145 O1151 1.263 . S
Tb1146 O1148 2.343 . S
Tb1146 O1151 2.353 . S
Tb1146 O1154 2.427 . S
Tb1146 O1155 2.513 . S
Tb1146 O1156 2.453 . S
Tb1146 O1157 2.596 . S
Tb1146 O1158 2.374 . S
O1147 Tb1144 2.453 . S
O1147 C1163 1.245 . S
O1148 Tb1144 2.596 . S
O1148 Tb1146 2.343 . S
O1148 C1163 1.259 . S
O1149 Tb1144 2.374 . S
O1149 C1145 1.251 . S
C1150 O1154 1.275 . S
C1150 O1155 1.246 . S
O1151 C1145 1.263 . S
O1151 Tb1146 2.353 . S
C1152 O1156 1.245 . S
C1152 O1157 1.259 . S
C1153 O1158 1.250 . S
C1153 O1159 1.263 . S
O1154 Tb1146 2.427 . S
O1154 C1150 1.275 . S
O1155 Tb1146 2.513 . S
O1155 C1150 1.246 . S
O1156 Tb1146 2.453 . S
O1156 C1152 1.245 . S
O1157 Tb1144 2.343 . S
O1157 Tb1146 2.596 . S
O1157 C1152 1.259 . S
O1158 Tb1146 2.374 . S
O1158 C1153 1.250 . S
O1159 Tb1144 2.353 . S
O1159 C1153 1.263 . S
C1160 O1161 1.275 . S
C1160 O1162 1.246 . S
O1161 Tb1144 2.427 . S
O1161 C1160 1.275 . S
O1162 Tb1144 2.513 . S
O1162 C1160 1.246 . S
C1163 O1147 1.245 . S
C1163 O1148 1.259 . S
Tb1164 O1167 2.453 . S
Tb1164 O1168 2.596 . S
Tb1164 O1169 2.374 . S
Tb1164 O1177 2.343 . S
Tb1164 O1179 2.353 1_554 S
Tb1164 O1181 2.427 1_554 S
Tb1164 O1182 2.513 . S
C1165 O1169 1.251 . S
C1165 O1171 1.262 . S
Tb1166 O1168 2.343 1_655 S
Tb1166 O1171 2.354 1_655 S
Tb1166 O1174 2.427 . S
Tb1166 O1175 2.513 . S
Tb1166 O1176 2.453 . S
Tb1166 O1177 2.596 1_655 S
Tb1166 O1178 2.374 1_554 S
O1167 Tb1164 2.453 . S
O1167 C1183 1.245 . S
O1168 Tb1164 2.596 . S
O1168 Tb1166 2.343 1_455 S
O1168 C1183 1.259 . S
O1169 Tb1164 2.374 . S
O1169 C1165 1.251 . S
C1170 O1174 1.275 . S
C1170 O1175 1.246 . S
O1171 C1165 1.262 . S
O1171 Tb1166 2.354 1_455 S
C1172 O1176 1.261 1_455 S
C1172 O1177 1.266 . S
C1173 O1178 1.250 1_455 S
C1173 O1179 1.263 . S
O1174 Tb1166 2.427 . S
O1174 C1170 1.275 . S
O1175 Tb1166 2.513 . S
O1175 C1170 1.246 . S
O1176 Tb1166 2.453 . S
O1176 C1172 1.261 1_655 S
O1177 Tb1164 2.343 . S
O1177 Tb1166 2.596 1_455 S
O1177 C1172 1.266 . S
O1178 Tb1166 2.374 1_556 S
O1178 C1173 1.250 1_655 S
O1179 Tb1164 2.353 1_556 S
O1179 C1173 1.263 . S
C1180 O1181 1.248 1_554 S
C1180 O1182 1.285 . S
O1181 Tb1164 2.427 1_556 S
O1181 C1180 1.248 1_556 S
O1182 Tb1164 2.513 . S
O1182 C1180 1.285 . S
C1183 O1167 1.245 . S
C1183 O1168 1.259 . S
H1184 C1192 0.929 . S
H1185 C1194 0.930 . S
H1186 C1196 0.930 . S
H1187 C1199 0.929 . S
H1188 C1202 0.930 . S
H1189 C1204 0.964 . S
H1190 C1204 0.991 . S
H1191 C1204 0.937 1_455 S
C1192 H1184 0.929 . S
C1192 C1193 1.377 1_655 S
C1192 C1194 1.384 . S
C1193 C1192 1.377 1_455 S
C1193 C1199 1.390 . S
C1194 H1185 0.930 . S
C1194 C1192 1.384 . S
C1194 C1195 1.372 1_655 S
C1195 C1194 1.372 1_455 S
C1195 C1196 1.400 . S
C1195 C1200 1.490 . S
C1196 H1186 0.930 . S
C1196 C1195 1.400 . S
C1196 C1199 1.386 . S
H1197 C1213 0.930 1_554 S
H1198 C1214 0.931 . S
C1199 H1187 0.929 . S
C1199 C1193 1.390 . S
C1199 C1196 1.386 . S
C1200 C1195 1.490 . S
C1200 C1202 1.395 . S
C1200 C1203 1.403 . S
H1201 C1207 0.930 . S
C1202 H1188 0.930 . S
C1202 C1200 1.395 . S
C1202 C1205 1.403 . S
C1203 C1200 1.403 . S
C1203 C1204 1.513 1_455 S
C1203 C1207 1.400 . S
C1204 H1189 0.964 . S
C1204 H1190 0.991 . S
C1204 H1191 0.937 1_655 S
C1204 C1203 1.513 1_655 S
C1205 C1202 1.403 . S
C1205 C1206 1.392 . S
C1205 C1209 1.495 . S
C1206 C1205 1.392 . S
C1206 C1207 1.385 . S
C1206 C1208 1.478 . S
C1207 H1201 0.930 . S
C1207 C1203 1.400 . S
C1207 C1206 1.385 . S
C1208 C1206 1.478 . S
C1208 C1210 1.381 1_455 S
C1208 C1214 1.383 . S
C1209 C1205 1.495 . S
C1209 H1215 0.959 . S
C1209 H1216 0.961 . S
C1209 H1217 0.960 1_455 S
C1210 C1208 1.381 1_655 S
C1210 C1211 1.394 . S
C1210 H1218 0.930 . S
C1211 C1210 1.394 . S
C1211 C1212 1.383 1_655 S
C1211 H1219 0.929 . S
C1212 C1211 1.383 1_455 S
C1212 C1213 1.377 . S
C1213 H1197 0.930 1_556 S
C1213 C1212 1.377 . S
C1213 C1214 1.379 . S
C1214 H1198 0.931 . S
C1214 C1208 1.383 . S
C1214 C1213 1.379 . S
H1215 C1209 0.959 . S
H1216 C1209 0.961 . S
H1217 C1209 0.960 1_655 S
H1218 C1210 0.930 . S
H1219 C1211 0.929 . S
H1220 C1228 0.929 . S
H1221 C1230 0.930 . S
H1222 C1232 0.930 . S
H1223 C1235 0.929 . S
H1224 C1238 0.930 . S
H1225 C1240 0.960 . S
H1226 C1240 0.960 . S
H1227 C1240 0.960 . S
C1228 H1220 0.929 . S
C1228 C1229 1.377 . S
C1228 C1230 1.384 . S
C1229 C1228 1.377 . S
C1229 C1235 1.390 . S
C1230 H1221 0.930 . S
C1230 C1228 1.384 . S
C1230 C1231 1.372 . S
C1231 C1230 1.372 . S
C1231 C1232 1.400 . S
C1231 C1236 1.490 . S
C1232 H1222 0.930 . S
C1232 C1231 1.400 . S
C1232 C1235 1.386 . S
H1233 C1249 0.930 . S
H1234 C1250 0.931 . S
C1235 H1223 0.929 . S
C1235 C1229 1.390 . S
C1235 C1232 1.386 . S
C1236 C1231 1.490 . S
C1236 C1238 1.395 . S
C1236 C1239 1.403 . S
H1237 C1243 0.930 . S
C1238 H1224 0.930 . S
C1238 C1236 1.395 . S
C1238 C1241 1.403 . S
C1239 C1236 1.403 . S
C1239 C1240 1.524 . S
C1239 C1243 1.400 . S
C1240 H1225 0.960 . S
C1240 H1226 0.960 . S
C1240 H1227 0.960 . S
C1240 C1239 1.524 . S
C1241 C1238 1.403 . S
C1241 C1242 1.392 . S
C1241 C1245 1.495 . S
C1242 C1241 1.392 . S
C1242 C1243 1.385 . S
C1242 C1244 1.478 . S
C1243 H1237 0.930 . S
C1243 C1239 1.400 . S
C1243 C1242 1.385 . S
C1244 C1242 1.478 . S
C1244 C1246 1.381 . S
C1244 C1250 1.383 . S
C1245 C1241 1.495 . S
C1245 H1251 0.959 . S
C1245 H1252 0.961 . S
C1245 H1253 0.960 . S
C1246 C1244 1.381 . S
C1246 C1247 1.394 . S
C1246 H1254 0.930 . S
C1247 C1246 1.394 . S
C1247 C1248 1.383 . S
C1247 H1255 0.929 . S
C1248 C1247 1.383 . S
C1248 C1249 1.377 . S
C1249 H1233 0.930 . S
C1249 C1248 1.377 . S
C1249 C1250 1.379 . S
C1250 H1234 0.931 . S
C1250 C1244 1.383 . S
C1250 C1249 1.379 . S
H1251 C1245 0.959 . S
H1252 C1245 0.961 . S
H1253 C1245 0.960 . S
H1254 C1246 0.930 . S
H1255 C1247 0.929 . S
H1256 C1264 0.929 . S
H1257 C1266 0.930 . S
H1258 C1268 0.930 . S
H1259 C1271 0.929 . S
H1260 C1274 0.930 . S
H1261 C1276 0.960 . S
H1262 C1276 0.960 . S
H1263 C1276 0.960 . S
C1264 H1256 0.929 . S
C1264 C1265 1.377 . S
C1264 C1266 1.384 . S
C1265 C1264 1.377 . S
C1265 C1271 1.390 . S
C1266 H1257 0.930 . S
C1266 C1264 1.384 . S
C1266 C1267 1.372 . S
C1267 C1266 1.372 . S
C1267 C1268 1.400 . S
C1267 C1272 1.490 . S
C1268 H1258 0.930 . S
C1268 C1267 1.400 . S
C1268 C1271 1.386 . S
H1269 C1285 0.930 . S
H1270 C1286 0.931 . S
C1271 H1259 0.929 . S
C1271 C1265 1.390 . S
C1271 C1268 1.386 . S
C1272 C1267 1.490 . S
C1272 C1274 1.395 . S
C1272 C1275 1.403 . S
H1273 C1279 0.930 . S
C1274 H1260 0.930 . S
C1274 C1272 1.395 . S
C1274 C1277 1.403 . S
C1275 C1272 1.403 . S
C1275 C1276 1.524 . S
C1275 C1279 1.400 . S
C1276 H1261 0.960 . S
C1276 H1262 0.960 . S
C1276 H1263 0.960 . S
C1276 C1275 1.524 . S
C1277 C1274 1.403 . S
C1277 C1278 1.392 . S
C1277 C1281 1.495 . S
C1278 C1277 1.392 . S
C1278 C1279 1.385 . S
C1278 C1280 1.478 . S
C1279 H1273 0.930 . S
C1279 C1275 1.400 . S
C1279 C1278 1.385 . S
C1280 C1278 1.478 . S
C1280 C1282 1.381 . S
C1280 C1286 1.383 . S
C1281 C1277 1.495 . S
C1281 H1287 0.959 . S
C1281 H1288 0.961 . S
C1281 H1289 0.960 . S
C1282 C1280 1.381 . S
C1282 C1283 1.394 . S
C1282 H1290 0.930 . S
C1283 C1282 1.394 . S
C1283 C1284 1.383 . S
C1283 H1291 0.929 . S
C1284 C1283 1.383 . S
C1284 C1285 1.377 . S
C1285 H1269 0.930 . S
C1285 C1284 1.377 . S
C1285 C1286 1.379 . S
C1286 H1270 0.931 . S
C1286 C1280 1.383 . S
C1286 C1285 1.379 . S
H1287 C1281 0.959 . S
H1288 C1281 0.961 . S
H1289 C1281 0.960 . S
H1290 C1282 0.930 . S
H1291 C1283 0.929 . S
H1292 C1300 0.929 . S
H1293 C1302 0.930 . S
H1294 C1304 0.930 . S
H1295 C1307 0.929 . S
H1296 C1310 0.930 . S
H1297 C1312 0.960 . S
H1298 C1312 0.960 . S
H1299 C1312 0.960 . S
C1300 H1292 0.929 . S
C1300 C1301 1.377 . S
C1300 C1302 1.384 . S
C1301 C1300 1.377 . S
C1301 C1307 1.390 . S
C1302 H1293 0.930 . S
C1302 C1300 1.384 . S
C1302 C1303 1.372 . S
C1303 C1302 1.372 . S
C1303 C1304 1.400 . S
C1303 C1308 1.490 . S
C1304 H1294 0.930 . S
C1304 C1303 1.400 . S
C1304 C1307 1.386 . S
H1305 C1321 0.930 . S
H1306 C1322 0.931 . S
C1307 H1295 0.929 . S
C1307 C1301 1.390 . S
C1307 C1304 1.386 . S
C1308 C1303 1.490 . S
C1308 C1310 1.395 . S
C1308 C1311 1.403 . S
H1309 C1315 0.930 . S
C1310 H1296 0.930 . S
C1310 C1308 1.395 . S
C1310 C1313 1.403 . S
C1311 C1308 1.403 . S
C1311 C1312 1.524 . S
C1311 C1315 1.400 . S
C1312 H1297 0.960 . S
C1312 H1298 0.960 . S
C1312 H1299 0.960 . S
C1312 C1311 1.524 . S
C1313 C1310 1.403 . S
C1313 C1314 1.392 . S
C1313 C1317 1.495 . S
C1314 C1313 1.392 . S
C1314 C1315 1.385 . S
C1314 C1316 1.478 . S
C1315 H1309 0.930 . S
C1315 C1311 1.400 . S
C1315 C1314 1.385 . S
C1316 C1314 1.478 . S
C1316 C1318 1.381 . S
C1316 C1322 1.383 . S
C1317 C1313 1.495 . S
C1317 H1323 0.959 . S
C1317 H1324 0.961 . S
C1317 H1325 0.960 . S
C1318 C1316 1.381 . S
C1318 C1319 1.394 . S
C1318 H1326 0.930 . S
C1319 C1318 1.394 . S
C1319 C1320 1.383 . S
C1319 H1327 0.929 . S
C1320 C1319 1.383 . S
C1320 C1321 1.377 . S
C1321 H1305 0.930 . S
C1321 C1320 1.377 . S
C1321 C1322 1.379 . S
C1322 H1306 0.931 . S
C1322 C1316 1.383 . S
C1322 C1321 1.379 . S
H1323 C1317 0.959 . S
H1324 C1317 0.961 . S
H1325 C1317 0.960 . S
H1326 C1318 0.930 . S
H1327 C1319 0.929 . S
H1328 C1336 0.929 . S
H1329 C1338 0.930 . S
H1330 C1340 0.930 . S
H1331 C1343 0.929 . S
H1332 C1346 0.930 . S
H1333 C1348 0.960 . S
H1334 C1348 0.960 . S
H1335 C1348 0.960 . S
C1336 H1328 0.929 . S
C1336 C1337 1.377 1_655 S
C1336 C1338 1.384 . S
C1337 C1336 1.377 1_455 S
C1337 C1343 1.390 . S
C1338 H1329 0.930 . S
C1338 C1336 1.384 . S
C1338 C1339 1.372 1_655 S
C1339 C1338 1.372 1_455 S
C1339 C1340 1.400 . S
C1339 C1344 1.490 . S
C1340 H1330 0.930 . S
C1340 C1339 1.400 . S
C1340 C1343 1.386 . S
H1341 C1357 0.930 . S
H1342 C1358 0.931 . S
C1343 H1331 0.929 . S
C1343 C1337 1.390 . S
C1343 C1340 1.386 . S
C1344 C1339 1.490 . S
C1344 C1346 1.395 1_455 S
C1344 C1347 1.403 . S
H1345 C1351 0.930 . S
C1346 H1332 0.930 . S
C1346 C1344 1.395 1_655 S
C1346 C1349 1.403 . S
C1347 C1344 1.403 . S
C1347 C1348 1.524 . S
C1347 C1351 1.400 . S
C1348 H1333 0.960 . S
C1348 H1334 0.960 . S
C1348 H1335 0.960 . S
C1348 C1347 1.524 . S
C1349 C1346 1.403 . S
C1349 C1350 1.392 1_655 S
C1349 C1353 1.495 . S
C1350 C1349 1.392 1_455 S
C1350 C1351 1.385 . S
C1350 C1352 1.478 . S
C1351 H1345 0.930 . S
C1351 C1347 1.400 . S
C1351 C1350 1.385 . S
C1352 C1350 1.478 . S
C1352 C1354 1.381 1_455 S
C1352 C1358 1.383 . S
C1353 C1349 1.495 . S
C1353 H1359 0.959 . S
C1353 H1360 0.961 . S
C1353 H1361 0.960 . S
C1354 C1352 1.381 1_655 S
C1354 C1355 1.394 . S
C1354 H1362 0.930 . S
C1355 C1354 1.394 . S
C1355 C1356 1.383 1_655 S
C1355 H1363 0.929 . S
C1356 C1355 1.383 1_455 S
C1356 C1357 1.377 . S
C1357 H1341 0.930 . S
C1357 C1356 1.377 . S
C1357 C1358 1.379 . S
C1358 H1342 0.931 . S
C1358 C1352 1.383 . S
C1358 C1357 1.379 . S
H1359 C1353 0.959 . S
H1360 C1353 0.961 . S
H1361 C1353 0.960 . S
H1362 C1354 0.930 . S
H1363 C1355 0.929 . S
H1364 C1372 0.929 . S
H1365 C1374 0.930 . S
H1366 C1376 0.930 . S
H1367 C1379 0.929 . S
H1368 C1382 0.930 . S
H1369 C1384 0.960 . S
H1370 C1384 0.960 . S
H1371 C1384 0.960 . S
C1372 H1364 0.929 . S
C1372 C1373 1.377 . S
C1372 C1374 1.384 . S
C1373 C1372 1.377 . S
C1373 C1379 1.390 . S
C1374 H1365 0.930 . S
C1374 C1372 1.384 . S
C1374 C1375 1.372 . S
C1375 C1374 1.372 . S
C1375 C1376 1.400 . S
C1375 C1380 1.490 . S
C1376 H1366 0.930 . S
C1376 C1375 1.400 . S
C1376 C1379 1.386 . S
H1377 C1393 0.930 . S
H1378 C1394 0.931 . S
C1379 H1367 0.929 . S
C1379 C1373 1.390 . S
C1379 C1376 1.386 . S
C1380 C1375 1.490 . S
C1380 C1382 1.395 . S
C1380 C1383 1.403 . S
H1381 C1387 0.930 . S
C1382 H1368 0.930 . S
C1382 C1380 1.395 . S
C1382 C1385 1.403 . S
C1383 C1380 1.403 . S
C1383 C1384 1.524 . S
C1383 C1387 1.400 . S
C1384 H1369 0.960 . S
C1384 H1370 0.960 . S
C1384 H1371 0.960 . S
C1384 C1383 1.524 . S
C1385 C1382 1.403 . S
C1385 C1386 1.392 . S
C1385 C1389 1.495 . S
C1386 C1385 1.392 . S
C1386 C1387 1.385 . S
C1386 C1388 1.478 . S
C1387 H1381 0.930 . S
C1387 C1383 1.400 . S
C1387 C1386 1.385 . S
C1388 C1386 1.478 . S
C1388 C1390 1.381 . S
C1388 C1394 1.383 . S
C1389 C1385 1.495 . S
C1389 H1395 0.959 . S
C1389 H1396 0.961 . S
C1389 H1397 0.960 . S
C1390 C1388 1.381 . S
C1390 C1391 1.394 . S
C1390 H1398 0.930 . S
C1391 C1390 1.394 . S
C1391 C1392 1.383 . S
C1391 H1399 0.929 . S
C1392 C1391 1.383 . S
C1392 C1393 1.377 . S
C1393 H1377 0.930 . S
C1393 C1392 1.377 . S
C1393 C1394 1.379 . S
C1394 H1378 0.931 . S
C1394 C1388 1.383 . S
C1394 C1393 1.379 . S
H1395 C1389 0.959 . S
H1396 C1389 0.961 . S
H1397 C1389 0.960 . S
H1398 C1390 0.930 . S
H1399 C1391 0.929 . S
H1400 C1408 0.929 . S
H1401 C1410 0.930 . S
H1402 C1412 0.930 . S
H1403 C1415 0.929 . S
H1404 C1418 0.930 . S
H1405 C1420 0.960 . S
H1406 C1420 0.960 . S
H1407 C1420 0.960 . S
C1408 H1400 0.929 . S
C1408 C1409 1.377 . S
C1408 C1410 1.384 . S
C1409 C1408 1.377 . S
C1409 C1415 1.390 . S
C1410 H1401 0.930 . S
C1410 C1408 1.384 . S
C1410 C1411 1.372 . S
C1411 C1410 1.372 . S
C1411 C1412 1.400 . S
C1411 C1416 1.490 . S
C1412 H1402 0.930 . S
C1412 C1411 1.400 . S
C1412 C1415 1.386 . S
H1413 C1429 0.930 . S
H1414 C1430 0.931 . S
C1415 H1403 0.929 . S
C1415 C1409 1.390 . S
C1415 C1412 1.386 . S
C1416 C1411 1.490 . S
C1416 C1418 1.395 . S
C1416 C1419 1.403 . S
H1417 C1423 0.930 . S
C1418 H1404 0.930 . S
C1418 C1416 1.395 . S
C1418 C1421 1.403 . S
C1419 C1416 1.403 . S
C1419 C1420 1.524 . S
C1419 C1423 1.400 . S
C1420 H1405 0.960 . S
C1420 H1406 0.960 . S
C1420 H1407 0.960 . S
C1420 C1419 1.524 . S
C1421 C1418 1.403 . S
C1421 C1422 1.392 . S
C1421 C1425 1.495 . S
C1422 C1421 1.392 . S
C1422 C1423 1.385 . S
C1422 C1424 1.478 . S
C1423 H1417 0.930 . S
C1423 C1419 1.400 . S
C1423 C1422 1.385 . S
C1424 C1422 1.478 . S
C1424 C1426 1.381 . S
C1424 C1430 1.383 . S
C1425 C1421 1.495 . S
C1425 H1431 0.959 . S
C1425 H1432 0.961 . S
C1425 H1433 0.960 . S
C1426 C1424 1.381 . S
C1426 C1427 1.394 . S
C1426 H1434 0.930 . S
C1427 C1426 1.394 . S
C1427 C1428 1.383 . S
C1427 H1435 0.929 . S
C1428 C1427 1.383 . S
C1428 C1429 1.377 . S
C1429 H1413 0.930 . S
C1429 C1428 1.377 . S
C1429 C1430 1.379 . S
C1430 H1414 0.931 . S
C1430 C1424 1.383 . S
C1430 C1429 1.379 . S
H1431 C1425 0.959 . S
H1432 C1425 0.961 . S
H1433 C1425 0.960 . S
H1434 C1426 0.930 . S
H1435 C1427 0.929 . S
H1436 C1444 0.929 . S
H1437 C1446 0.930 . S
H1438 C1448 0.930 . S
H1439 C1451 0.929 . S
H1440 C1454 0.930 . S
H1441 C1456 0.960 . S
H1442 C1456 0.960 . S
H1443 C1456 0.960 . S
C1444 H1436 0.929 . S
C1444 C1445 1.377 . S
C1444 C1446 1.384 . S
C1445 C1444 1.377 . S
C1445 C1451 1.390 . S
C1446 H1437 0.930 . S
C1446 C1444 1.384 . S
C1446 C1447 1.372 . S
C1447 C1446 1.372 . S
C1447 C1448 1.400 . S
C1447 C1452 1.490 . S
C1448 H1438 0.930 . S
C1448 C1447 1.400 . S
C1448 C1451 1.386 . S
H1449 C1465 0.930 . S
H1450 C1466 0.931 . S
C1451 H1439 0.929 . S
C1451 C1445 1.390 . S
C1451 C1448 1.386 . S
C1452 C1447 1.490 . S
C1452 C1454 1.395 . S
C1452 C1455 1.403 . S
H1453 C1459 0.930 . S
C1454 H1440 0.930 . S
C1454 C1452 1.395 . S
C1454 C1457 1.403 . S
C1455 C1452 1.403 . S
C1455 C1456 1.524 . S
C1455 C1459 1.400 . S
C1456 H1441 0.960 . S
C1456 H1442 0.960 . S
C1456 H1443 0.960 . S
C1456 C1455 1.524 . S
C1457 C1454 1.403 . S
C1457 C1458 1.392 . S
C1457 C1461 1.495 . S
C1458 C1457 1.392 . S
C1458 C1459 1.385 . S
C1458 C1460 1.478 . S
C1459 H1453 0.930 . S
C1459 C1455 1.400 . S
C1459 C1458 1.385 . S
C1460 C1458 1.478 . S
C1460 C1462 1.381 . S
C1460 C1466 1.383 . S
C1461 C1457 1.495 . S
C1461 H1467 0.959 . S
C1461 H1468 0.961 . S
C1461 H1469 0.960 . S
C1462 C1460 1.381 . S
C1462 C1463 1.394 . S
C1462 H1470 0.930 . S
C1463 C1462 1.394 . S
C1463 C1464 1.383 . S
C1463 H1471 0.929 . S
C1464 C1463 1.383 . S
C1464 C1465 1.377 . S
C1465 H1449 0.930 . S
C1465 C1464 1.377 . S
C1465 C1466 1.379 . S
C1466 H1450 0.931 . S
C1466 C1460 1.383 . S
C1466 C1465 1.379 . S
H1467 C1461 0.959 . S
H1468 C1461 0.961 . S
H1469 C1461 0.960 . S
H1470 C1462 0.930 . S
H1471 C1463 0.929 . S
H1472 C1480 0.929 . S
H1473 C1482 0.930 . S
H1474 C1484 0.930 . S
H1475 C1487 0.929 . S
H1476 C1490 0.930 . S
H1477 C1492 0.960 . S
H1478 C1492 0.960 . S
H1479 C1492 0.960 . S
C1480 H1472 0.929 . S
C1480 C1481 1.377 . S
C1480 C1482 1.384 . S
C1481 C1480 1.377 . S
C1481 C1487 1.390 . S
C1482 H1473 0.930 . S
C1482 C1480 1.384 . S
C1482 C1483 1.372 . S
C1483 C1482 1.372 . S
C1483 C1484 1.400 . S
C1483 C1488 1.490 . S
C1484 H1474 0.930 . S
C1484 C1483 1.400 . S
C1484 C1487 1.386 . S
H1485 C1501 0.930 . S
H1486 C1502 0.931 . S
C1487 H1475 0.929 . S
C1487 C1481 1.390 . S
C1487 C1484 1.386 . S
C1488 C1483 1.490 . S
C1488 C1490 1.395 . S
C1488 C1491 1.403 . S
H1489 C1495 0.930 . S
C1490 H1476 0.930 . S
C1490 C1488 1.395 . S
C1490 C1493 1.403 . S
C1491 C1488 1.403 . S
C1491 C1492 1.524 . S
C1491 C1495 1.400 . S
C1492 H1477 0.960 . S
C1492 H1478 0.960 . S
C1492 H1479 0.960 . S
C1492 C1491 1.524 . S
C1493 C1490 1.403 . S
C1493 C1494 1.392 . S
C1493 C1497 1.495 . S
C1494 C1493 1.392 . S
C1494 C1495 1.385 . S
C1494 C1496 1.478 . S
C1495 H1489 0.930 . S
C1495 C1491 1.400 . S
C1495 C1494 1.385 . S
C1496 C1494 1.478 . S
C1496 C1498 1.381 . S
C1496 C1502 1.383 . S
C1497 C1493 1.495 . S
C1497 H1503 0.959 . S
C1497 H1504 0.961 . S
C1497 H1505 0.960 . S
C1498 C1496 1.381 . S
C1498 C1499 1.380 1_655 S
C1498 H1506 0.910 1_655 S
C1499 C1498 1.380 1_455 S
C1499 C1500 1.369 1_455 S
C1499 H1507 0.958 . S
C1500 C1499 1.369 1_655 S
C1500 C1501 1.377 . S
C1501 H1485 0.930 . S
C1501 C1500 1.377 . S
C1501 C1502 1.379 . S
C1502 H1486 0.931 . S
C1502 C1496 1.383 . S
C1502 C1501 1.379 . S
H1503 C1497 0.959 . S
H1504 C1497 0.961 . S
H1505 C1497 0.960 . S
H1506 C1498 0.910 1_455 S
H1507 C1499 0.958 . S
H1508 C1516 0.929 . S
H1509 C1518 0.930 . S
H1510 C1520 0.930 . S
H1511 C1523 0.929 . S
H1512 C1526 0.930 . S
H1513 C1528 0.960 . S
H1514 C1528 0.960 . S
H1515 C1528 0.960 . S
C1516 H1508 0.929 . S
C1516 C1517 1.377 . S
C1516 C1518 1.384 . S
C1517 C1516 1.377 . S
C1517 C1523 1.390 . S
C1518 H1509 0.930 . S
C1518 C1516 1.384 . S
C1518 C1519 1.372 . S
C1519 C1518 1.372 . S
C1519 C1520 1.400 . S
C1519 C1524 1.490 . S
C1520 H1510 0.930 . S
C1520 C1519 1.400 . S
C1520 C1523 1.386 . S
H1521 C1537 0.930 . S
H1522 C1538 0.931 . S
C1523 H1511 0.929 . S
C1523 C1517 1.390 . S
C1523 C1520 1.386 . S
C1524 C1519 1.490 . S
C1524 C1526 1.395 . S
C1524 C1527 1.403 . S
H1525 C1531 0.930 . S
C1526 H1512 0.930 . S
C1526 C1524 1.395 . S
C1526 C1529 1.403 . S
C1527 C1524 1.403 . S
C1527 C1528 1.524 . S
C1527 C1531 1.400 . S
C1528 H1513 0.960 . S
C1528 H1514 0.960 . S
C1528 H1515 0.960 . S
C1528 C1527 1.524 . S
C1529 C1526 1.403 . S
C1529 C1530 1.392 . S
C1529 C1533 1.495 . S
C1530 C1529 1.392 . S
C1530 C1531 1.385 . S
C1530 C1532 1.478 . S
C1531 H1525 0.930 . S
C1531 C1527 1.400 . S
C1531 C1530 1.385 . S
C1532 C1530 1.478 . S
C1532 C1534 1.381 . S
C1532 C1538 1.383 . S
C1533 C1529 1.495 . S
C1533 H1539 0.959 . S
C1533 H1540 0.961 . S
C1533 H1541 0.960 . S
C1534 C1532 1.381 . S
C1534 C1535 1.394 . S
C1534 H1542 0.930 . S
C1535 C1534 1.394 . S
C1535 C1536 1.383 . S
C1535 H1543 0.929 . S
C1536 C1535 1.383 . S
C1536 C1537 1.377 . S
C1537 H1521 0.930 . S
C1537 C1536 1.377 . S
C1537 C1538 1.379 . S
C1538 H1522 0.931 . S
C1538 C1532 1.383 . S
C1538 C1537 1.379 . S
H1539 C1533 0.959 . S
H1540 C1533 0.961 . S
H1541 C1533 0.960 . S
H1542 C1534 0.930 . S
H1543 C1535 0.929 . S
H1544 C1552 0.929 . S
H1545 C1554 0.930 . S
H1546 C1556 0.930 . S
H1547 C1559 0.929 . S
H1548 C1562 0.930 . S
H1549 C1564 0.963 . S
H1550 C1564 0.968 . S
H1551 C1564 0.957 1_545 S
C1552 H1544 0.929 . S
C1552 C1553 1.377 . S
C1552 C1554 1.384 . S
C1553 C1552 1.377 . S
C1553 C1559 1.390 . S
C1554 H1545 0.930 . S
C1554 C1552 1.384 . S
C1554 C1555 1.372 . S
C1555 C1554 1.372 . S
C1555 C1556 1.400 . S
C1555 C1560 1.490 . S
C1556 H1546 0.930 . S
C1556 C1555 1.400 . S
C1556 C1559 1.386 . S
H1557 C1573 0.930 . S
H1558 C1574 0.931 . S
C1559 H1547 0.929 . S
C1559 C1553 1.390 . S
C1559 C1556 1.386 . S
C1560 C1555 1.490 . S
C1560 C1562 1.395 . S
C1560 C1563 1.403 . S
H1561 C1567 0.930 . S
C1562 H1548 0.930 . S
C1562 C1560 1.395 . S
C1562 C1565 1.403 . S
C1563 C1560 1.403 . S
C1563 C1564 1.515 1_545 S
C1563 C1567 1.400 . S
C1564 H1549 0.963 . S
C1564 H1550 0.968 . S
C1564 H1551 0.957 1_565 S
C1564 C1563 1.515 1_565 S
C1565 C1562 1.403 . S
C1565 C1566 1.392 . S
C1565 C1569 1.495 . S
C1566 C1565 1.392 . S
C1566 C1567 1.385 . S
C1566 C1568 1.478 . S
C1567 H1561 0.930 . S
C1567 C1563 1.400 . S
C1567 C1566 1.385 . S
C1568 C1566 1.478 . S
C1568 C1570 1.381 . S
C1568 C1574 1.383 . S
C1569 C1565 1.495 . S
C1569 H1575 0.959 . S
C1569 H1576 0.961 . S
C1569 H1577 0.960 . S
C1570 C1568 1.381 . S
C1570 C1571 1.394 . S
C1570 H1578 0.930 . S
C1571 C1570 1.394 . S
C1571 C1572 1.383 . S
C1571 H1579 0.929 . S
C1572 C1571 1.383 . S
C1572 C1573 1.377 . S
C1573 H1557 0.930 . S
C1573 C1572 1.377 . S
C1573 C1574 1.379 . S
C1574 H1558 0.931 . S
C1574 C1568 1.383 . S
C1574 C1573 1.379 . S
H1575 C1569 0.959 . S
H1576 C1569 0.961 . S
H1577 C1569 0.960 . S
H1578 C1570 0.930 . S
H1579 C1571 0.929 . S
H1580 C1588 0.929 . S
H1581 C1590 0.930 . S
H1582 C1592 0.930 . S
H1583 C1595 0.929 . S
H1584 C1598 0.930 . S
H1585 C1600 0.960 . S
H1586 C1600 0.960 . S
H1587 C1600 0.960 . S
C1588 H1580 0.929 . S
C1588 C1589 1.377 . S
C1588 C1590 1.384 . S
C1589 C1588 1.377 . S
C1589 C1595 1.390 . S
C1590 H1581 0.930 . S
C1590 C1588 1.384 . S
C1590 C1591 1.372 . S
C1591 C1590 1.372 . S
C1591 C1592 1.400 . S
C1591 C1596 1.490 . S
C1592 H1582 0.930 . S
C1592 C1591 1.400 . S
C1592 C1595 1.386 . S
H1593 C1609 0.930 . S
H1594 C1610 0.931 . S
C1595 H1583 0.929 . S
C1595 C1589 1.390 . S
C1595 C1592 1.386 . S
C1596 C1591 1.490 . S
C1596 C1598 1.395 . S
C1596 C1599 1.403 . S
H1597 C1603 0.930 . S
C1598 H1584 0.930 . S
C1598 C1596 1.395 . S
C1598 C1601 1.403 . S
C1599 C1596 1.403 . S
C1599 C1600 1.524 . S
C1599 C1603 1.400 . S
C1600 H1585 0.960 . S
C1600 H1586 0.960 . S
C1600 H1587 0.960 . S
C1600 C1599 1.524 . S
C1601 C1598 1.403 . S
C1601 C1602 1.392 . S
C1601 C1605 1.495 . S
C1602 C1601 1.392 . S
C1602 C1603 1.385 . S
C1602 C1604 1.478 . S
C1603 H1597 0.930 . S
C1603 C1599 1.400 . S
C1603 C1602 1.385 . S
C1604 C1602 1.478 . S
C1604 C1606 1.381 . S
C1604 C1610 1.383 . S
C1605 C1601 1.495 . S
C1605 H1611 0.959 . S
C1605 H1612 0.961 . S
C1605 H1613 0.960 . S
C1606 C1604 1.381 . S
C1606 C1607 1.394 . S
C1606 H1614 0.930 . S
C1607 C1606 1.394 . S
C1607 C1608 1.383 . S
C1607 H1615 0.929 . S
C1608 C1607 1.383 . S
C1608 C1609 1.377 . S
C1609 H1593 0.930 . S
C1609 C1608 1.377 . S
C1609 C1610 1.379 . S
C1610 H1594 0.931 . S
C1610 C1604 1.383 . S
C1610 C1609 1.379 . S
H1611 C1605 0.959 . S
H1612 C1605 0.961 . S
H1613 C1605 0.960 . S
H1614 C1606 0.930 . S
H1615 C1607 0.929 . S
H1616 C1624 0.929 . S
H1617 C1626 0.930 . S
H1618 C1628 0.930 . S
H1619 C1631 0.929 . S
H1620 C1634 0.930 . S
H1621 C1636 0.960 . S
H1622 C1636 0.960 . S
H1623 C1636 0.960 . S
C1624 H1616 0.929 . S
C1624 C1625 1.377 . S
C1624 C1626 1.384 . S
C1625 C1624 1.377 . S
C1625 C1631 1.390 . S
C1626 H1617 0.930 . S
C1626 C1624 1.384 . S
C1626 C1627 1.372 . S
C1627 C1626 1.372 . S
C1627 C1628 1.400 . S
C1627 C1632 1.490 . S
C1628 H1618 0.930 . S
C1628 C1627 1.400 . S
C1628 C1631 1.386 . S
H1629 C1645 0.923 1_455 S
H1630 C1646 0.931 . S
C1631 H1619 0.929 . S
C1631 C1625 1.390 . S
C1631 C1628 1.386 . S
C1632 C1627 1.490 . S
C1632 C1634 1.395 . S
C1632 C1635 1.403 . S
H1633 C1639 0.930 . S
C1634 H1620 0.930 . S
C1634 C1632 1.395 . S
C1634 C1637 1.403 . S
C1635 C1632 1.403 . S
C1635 C1636 1.524 . S
C1635 C1639 1.400 . S
C1636 H1621 0.960 . S
C1636 H1622 0.960 . S
C1636 H1623 0.960 . S
C1636 C1635 1.524 . S
C1637 C1634 1.403 . S
C1637 C1638 1.392 . S
C1637 C1641 1.495 . S
C1638 C1637 1.392 . S
C1638 C1639 1.385 . S
C1638 C1640 1.478 . S
C1639 H1633 0.930 . S
C1639 C1635 1.400 . S
C1639 C1638 1.385 . S
C1640 C1638 1.478 . S
C1640 C1642 1.381 . S
C1640 C1646 1.383 . S
C1641 C1637 1.495 . S
C1641 H1647 0.959 . S
C1641 H1648 0.961 . S
C1641 H1649 0.960 . S
C1642 C1640 1.381 . S
C1642 C1643 1.394 . S
C1642 H1650 0.930 . S
C1643 C1642 1.394 . S
C1643 C1644 1.383 . S
C1643 H1651 0.929 . S
C1644 C1643 1.383 . S
C1644 C1645 1.380 . S
C1645 H1629 0.923 1_655 S
C1645 C1644 1.380 . S
C1645 C1646 1.382 . S
C1646 H1630 0.931 . S
C1646 C1640 1.383 . S
C1646 C1645 1.382 . S
H1647 C1641 0.959 . S
H1648 C1641 0.961 . S
H1649 C1641 0.960 . S
H1650 C1642 0.930 . S
H1651 C1643 0.929 . S
H1652 C1660 0.929 . S
H1653 C1662 0.930 . S
H1654 C1664 0.930 . S
H1655 C1667 0.929 . S
H1656 C1670 0.930 . S
H1657 C1672 0.960 . S
H1658 C1672 0.960 . S
H1659 C1672 0.960 . S
C1660 H1652 0.929 . S
C1660 C1661 1.377 . S
C1660 C1662 1.384 . S
C1661 C1660 1.377 . S
C1661 C1667 1.390 . S
C1662 H1653 0.930 . S
C1662 C1660 1.384 . S
C1662 C1663 1.372 . S
C1663 C1662 1.372 . S
C1663 C1664 1.400 . S
C1663 C1668 1.490 . S
C1664 H1654 0.930 . S
C1664 C1663 1.400 . S
C1664 C1667 1.386 . S
H1665 C1681 0.930 . S
H1666 C1682 0.931 . S
C1667 H1655 0.929 . S
C1667 C1661 1.390 . S
C1667 C1664 1.386 . S
C1668 C1663 1.490 . S
C1668 C1670 1.395 . S
C1668 C1671 1.403 . S
H1669 C1675 0.930 . S
C1670 H1656 0.930 . S
C1670 C1668 1.395 . S
C1670 C1673 1.403 . S
C1671 C1668 1.403 . S
C1671 C1672 1.524 . S
C1671 C1675 1.400 . S
C1672 H1657 0.960 . S
C1672 H1658 0.960 . S
C1672 H1659 0.960 . S
C1672 C1671 1.524 . S
C1673 C1670 1.403 . S
C1673 C1674 1.392 . S
C1673 C1677 1.495 . S
C1674 C1673 1.392 . S
C1674 C1675 1.385 . S
C1674 C1676 1.478 . S
C1675 H1669 0.930 . S
C1675 C1671 1.400 . S
C1675 C1674 1.385 . S
C1676 C1674 1.478 . S
C1676 C1678 1.381 . S
C1676 C1682 1.383 . S
C1677 C1673 1.495 . S
C1677 H1683 0.959 . S
C1677 H1684 0.961 . S
C1677 H1685 0.960 . S
C1678 C1676 1.381 . S
C1678 C1679 1.394 . S
C1678 H1686 0.930 . S
C1679 C1678 1.394 . S
C1679 C1680 1.383 . S
C1679 H1687 0.929 . S
C1680 C1679 1.383 . S
C1680 C1681 1.377 . S
C1681 H1665 0.930 . S
C1681 C1680 1.377 . S
C1681 C1682 1.379 . S
C1682 H1666 0.931 . S
C1682 C1676 1.383 . S
C1682 C1681 1.379 . S
H1683 C1677 0.959 . S
H1684 C1677 0.961 . S
H1685 C1677 0.960 . S
H1686 C1678 0.930 . S
H1687 C1679 0.929 . S
H1688 C1696 0.929 . S
H1689 C1698 0.930 . S
H1690 C1700 0.930 . S
H1691 C1703 0.929 . S
H1692 C1706 0.930 . S
H1693 C1708 0.960 . S
H1694 C1708 0.960 . S
H1695 C1708 0.960 1_545 S
C1696 H1688 0.929 . S
C1696 C1697 1.377 . S
C1696 C1698 1.384 . S
C1697 C1696 1.377 . S
C1697 C1703 1.390 . S
C1698 H1689 0.930 . S
C1698 C1696 1.384 . S
C1698 C1699 1.372 . S
C1699 C1698 1.372 . S
C1699 C1700 1.400 . S
C1699 C1704 1.490 . S
C1700 H1690 0.930 . S
C1700 C1699 1.400 . S
C1700 C1703 1.386 . S
H1701 C1717 0.930 . S
H1702 C1718 0.931 . S
C1703 H1691 0.929 . S
C1703 C1697 1.390 . S
C1703 C1700 1.386 . S
C1704 C1699 1.490 . S
C1704 C1706 1.395 . S
C1704 C1707 1.403 . S
H1705 C1711 0.930 . S
C1706 H1692 0.930 . S
C1706 C1704 1.395 . S
C1706 C1709 1.403 . S
C1707 C1704 1.403 . S
C1707 C1708 1.524 1_545 S
C1707 C1711 1.400 . S
C1708 H1693 0.960 . S
C1708 H1694 0.960 . S
C1708 H1695 0.960 1_565 S
C1708 C1707 1.524 1_565 S
C1709 C1706 1.403 . S
C1709 C1710 1.392 . S
C1709 C1713 1.495 . S
C1710 C1709 1.392 . S
C1710 C1711 1.385 . S
C1710 C1712 1.478 . S
C1711 H1705 0.930 . S
C1711 C1707 1.400 . S
C1711 C1710 1.385 . S
C1712 C1710 1.478 . S
C1712 C1714 1.381 . S
C1712 C1718 1.383 . S
C1713 C1709 1.495 . S
C1713 H1719 0.959 . S
C1713 H1720 0.961 . S
C1713 H1721 0.960 . S
C1714 C1712 1.381 . S
C1714 C1715 1.394 . S
C1714 H1722 0.930 . S
C1715 C1714 1.394 . S
C1715 C1716 1.383 . S
C1715 H1723 0.929 . S
C1716 C1715 1.383 . S
C1716 C1717 1.377 . S
C1717 H1701 0.930 . S
C1717 C1716 1.377 . S
C1717 C1718 1.379 . S
C1718 H1702 0.931 . S
C1718 C1712 1.383 . S
C1718 C1717 1.379 . S
H1719 C1713 0.959 . S
H1720 C1713 0.961 . S
H1721 C1713 0.960 . S
H1722 C1714 0.930 . S
H1723 C1715 0.929 . S
H1724 C1732 0.929 . S
H1725 C1734 0.930 . S
H1726 C1736 0.930 . S
H1727 C1739 0.929 . S
H1728 C1742 0.930 . S
H1729 C1744 0.960 . S
H1730 C1744 0.960 . S
H1731 C1744 0.960 . S
C1732 H1724 0.929 . S
C1732 C1733 1.377 . S
C1732 C1734 1.384 . S
C1733 C1732 1.377 . S
C1733 C1739 1.390 . S
C1734 H1725 0.930 . S
C1734 C1732 1.384 . S
C1734 C1735 1.372 . S
C1735 C1734 1.372 . S
C1735 C1736 1.400 . S
C1735 C1740 1.490 . S
C1736 H1726 0.930 . S
C1736 C1735 1.400 . S
C1736 C1739 1.386 . S
H1737 C1753 0.930 . S
H1738 C1754 0.931 . S
C1739 H1727 0.929 . S
C1739 C1733 1.390 . S
C1739 C1736 1.386 . S
C1740 C1735 1.490 . S
C1740 C1742 1.395 . S
C1740 C1743 1.403 . S
H1741 C1747 0.930 . S
C1742 H1728 0.930 . S
C1742 C1740 1.395 . S
C1742 C1745 1.403 . S
C1743 C1740 1.403 . S
C1743 C1744 1.524 . S
C1743 C1747 1.400 . S
C1744 H1729 0.960 . S
C1744 H1730 0.960 . S
C1744 H1731 0.960 . S
C1744 C1743 1.524 . S
C1745 C1742 1.403 . S
C1745 C1746 1.392 . S
C1745 C1749 1.495 . S
C1746 C1745 1.392 . S
C1746 C1747 1.385 . S
C1746 C1748 1.478 . S
C1747 H1741 0.930 . S
C1747 C1743 1.400 . S
C1747 C1746 1.385 . S
C1748 C1746 1.478 . S
C1748 C1750 1.381 . S
C1748 C1754 1.383 . S
C1749 C1745 1.495 . S
C1749 H1755 0.959 . S
C1749 H1756 0.961 . S
C1749 H1757 0.960 . S
C1750 C1748 1.381 . S
C1750 C1751 1.394 . S
C1750 H1758 0.930 . S
C1751 C1750 1.394 . S
C1751 C1752 1.383 . S
C1751 H1759 0.929 . S
C1752 C1751 1.383 . S
C1752 C1753 1.377 . S
C1753 H1737 0.930 . S
C1753 C1752 1.377 . S
C1753 C1754 1.379 . S
C1754 H1738 0.931 . S
C1754 C1748 1.383 . S
C1754 C1753 1.379 . S
H1755 C1749 0.959 . S
H1756 C1749 0.961 . S
H1757 C1749 0.960 . S
H1758 C1750 0.930 . S
H1759 C1751 0.929 . S
H1760 C1768 0.929 . S
H1761 C1770 0.930 . S
H1762 C1772 0.930 . S
H1763 C1775 0.929 . S
H1764 C1778 0.930 . S
H1765 C1780 0.960 . S
H1766 C1780 0.960 . S
H1767 C1780 0.960 . S
C1768 H1760 0.929 . S
C1768 C1769 1.377 . S
C1768 C1770 1.384 . S
C1769 C1768 1.377 . S
C1769 C1775 1.390 . S
C1770 H1761 0.930 . S
C1770 C1768 1.384 . S
C1770 C1771 1.372 . S
C1771 C1770 1.372 . S
C1771 C1772 1.400 . S
C1771 C1776 1.490 . S
C1772 H1762 0.930 . S
C1772 C1771 1.400 . S
C1772 C1775 1.386 . S
H1773 C1789 0.958 . S
H1774 C1790 0.961 . S
C1775 H1763 0.929 . S
C1775 C1769 1.390 . S
C1775 C1772 1.386 . S
C1776 C1771 1.490 . S
C1776 C1778 1.395 . S
C1776 C1779 1.403 . S
H1777 C1783 0.930 . S
C1778 H1764 0.930 . S
C1778 C1776 1.395 . S
C1778 C1781 1.403 . S
C1779 C1776 1.403 . S
C1779 C1780 1.524 . S
C1779 C1783 1.400 . S
C1780 H1765 0.960 . S
C1780 H1766 0.960 . S
C1780 H1767 0.960 . S
C1780 C1779 1.524 . S
C1781 C1778 1.403 . S
C1781 C1782 1.392 . S
C1781 C1785 1.495 1_565 S
C1782 C1781 1.392 . S
C1782 C1783 1.385 . S
C1782 C1784 1.478 . S
C1783 H1777 0.930 . S
C1783 C1779 1.400 . S
C1783 C1782 1.385 . S
C1784 C1782 1.478 . S
C1784 C1786 1.381 1_565 S
C1784 C1790 1.383 . S
C1785 C1781 1.495 1_545 S
C1785 H1791 0.976 . S
C1785 H1792 0.961 1_554 S
C1785 H1793 0.960 . S
C1786 C1784 1.381 1_545 S
C1786 C1787 1.394 . S
C1786 H1794 0.930 . S
C1787 C1786 1.394 . S
C1787 C1788 1.383 . S
C1787 H1795 0.929 . S
C1788 C1787 1.383 . S
C1788 C1789 1.377 1_545 S
C1789 H1773 0.958 . S
C1789 C1788 1.377 1_565 S
C1789 C1790 1.379 . S
C1790 H1774 0.961 . S
C1790 C1784 1.383 . S
C1790 C1789 1.379 . S
H1791 C1785 0.976 . S
H1792 C1785 0.961 1_556 S
H1793 C1785 0.960 . S
H1794 C1786 0.930 . S
H1795 C1787 0.929 . S
H1796 C1804 0.929 . S
H1797 C1806 0.930 . S
H1798 C1808 0.930 . S
H1799 C1811 0.929 . S
H1800 C1814 0.930 . S
H1801 C1816 0.960 . S
H1802 C1816 0.960 . S
H1803 C1816 0.960 . S
C1804 H1796 0.929 . S
C1804 C1805 1.377 1_556 S
C1804 C1806 1.384 . S
C1805 C1804 1.377 1_554 S
C1805 C1811 1.390 . S
C1806 H1797 0.930 . S
C1806 C1804 1.384 . S
C1806 C1807 1.372 1_556 S
C1807 C1806 1.372 1_554 S
C1807 C1808 1.400 . S
C1807 C1812 1.490 . S
C1808 H1798 0.930 . S
C1808 C1807 1.400 . S
C1808 C1811 1.386 . S
H1809 C1825 0.930 . S
H1810 C1826 0.931 . S
C1811 H1799 0.929 . S
C1811 C1805 1.390 . S
C1811 C1808 1.386 . S
C1812 C1807 1.490 . S
C1812 C1814 1.395 1_554 S
C1812 C1815 1.403 . S
H1813 C1819 0.930 . S
C1814 H1800 0.930 . S
C1814 C1812 1.395 1_556 S
C1814 C1817 1.403 . S
C1815 C1812 1.403 . S
C1815 C1816 1.524 . S
C1815 C1819 1.400 . S
C1816 H1801 0.960 . S
C1816 H1802 0.960 . S
C1816 H1803 0.960 . S
C1816 C1815 1.524 . S
C1817 C1814 1.403 . S
C1817 C1818 1.379 1_556 S
C1817 C1821 1.495 . S
C1818 C1817 1.379 1_554 S
C1818 C1819 1.397 . S
C1818 C1820 1.475 . S
C1819 H1813 0.930 . S
C1819 C1815 1.400 . S
C1819 C1818 1.397 . S
C1820 C1818 1.475 . S
C1820 C1822 1.372 1_554 S
C1820 C1826 1.400 . S
C1821 C1817 1.495 . S
C1821 H1827 0.959 . S
C1821 H1828 0.961 . S
C1821 H1829 0.960 . S
C1822 C1820 1.372 1_556 S
C1822 C1823 1.394 . S
C1822 H1830 0.930 . S
C1823 C1822 1.394 . S
C1823 C1824 1.383 1_556 S
C1823 H1831 0.929 . S
C1824 C1823 1.383 1_554 S
C1824 C1825 1.377 . S
C1825 H1809 0.930 . S
C1825 C1824 1.377 . S
C1825 C1826 1.379 . S
C1826 H1810 0.931 . S
C1826 C1820 1.400 . S
C1826 C1825 1.379 . S
H1827 C1821 0.959 . S
H1828 C1821 0.961 . S
H1829 C1821 0.960 . S
H1830 C1822 0.930 . S
H1831 C1823 0.929 . S
H1832 C1840 0.929 . S
H1833 C1842 0.930 . S
H1834 C1844 0.930 . S
H1835 C1847 0.929 . S
H1836 C1850 0.930 . S
H1837 C1852 0.960 . S
H1838 C1852 0.960 . S
H1839 C1852 0.960 . S
C1840 H1832 0.929 . S
C1840 C1841 1.377 . S
C1840 C1842 1.384 . S
C1841 C1840 1.377 . S
C1841 C1847 1.390 . S
C1842 H1833 0.930 . S
C1842 C1840 1.384 . S
C1842 C1843 1.372 . S
C1843 C1842 1.372 . S
C1843 C1844 1.400 . S
C1843 C1848 1.490 . S
C1844 H1834 0.930 . S
C1844 C1843 1.400 . S
C1844 C1847 1.386 . S
H1845 C1861 0.930 . S
H1846 C1862 0.931 . S
C1847 H1835 0.929 . S
C1847 C1841 1.390 . S
C1847 C1844 1.386 . S
C1848 C1843 1.490 . S
C1848 C1850 1.395 . S
C1848 C1851 1.403 . S
H1849 C1855 0.930 . S
C1850 H1836 0.930 . S
C1850 C1848 1.395 . S
C1850 C1853 1.403 . S
C1851 C1848 1.403 . S
C1851 C1852 1.524 . S
C1851 C1855 1.400 . S
C1852 H1837 0.960 . S
C1852 H1838 0.960 . S
C1852 H1839 0.960 . S
C1852 C1851 1.524 . S
C1853 C1850 1.403 . S
C1853 C1854 1.392 . S
C1853 C1857 1.495 . S
C1854 C1853 1.392 . S
C1854 C1855 1.385 . S
C1854 C1856 1.478 . S
C1855 H1849 0.930 . S
C1855 C1851 1.400 . S
C1855 C1854 1.385 . S
C1856 C1854 1.478 . S
C1856 C1858 1.381 . S
C1856 C1862 1.383 . S
C1857 C1853 1.495 . S
C1857 H1863 0.959 . S
C1857 H1864 0.961 . S
C1857 H1865 0.960 . S
C1858 C1856 1.381 . S
C1858 C1859 1.394 . S
C1858 H1866 0.930 . S
C1859 C1858 1.394 . S
C1859 C1860 1.383 . S
C1859 H1867 0.929 . S
C1860 C1859 1.383 . S
C1860 C1861 1.377 . S
C1861 H1845 0.930 . S
C1861 C1860 1.377 . S
C1861 C1862 1.379 . S
C1862 H1846 0.931 . S
C1862 C1856 1.383 . S
C1862 C1861 1.379 . S
H1863 C1857 0.959 . S
H1864 C1857 0.961 . S
H1865 C1857 0.960 . S
H1866 C1858 0.930 . S
H1867 C1859 0.929 . S
H1868 C1876 0.929 . S
H1869 C1878 0.930 . S
H1870 C1880 0.930 . S
H1871 C1883 0.929 . S
H1872 C1886 0.930 . S
H1873 C1888 0.960 . S
H1874 C1888 0.960 . S
H1875 C1888 0.960 . S
C1876 H1868 0.929 . S
C1876 C1877 1.377 . S
C1876 C1878 1.384 . S
C1877 C1876 1.377 . S
C1877 C1883 1.390 . S
C1878 H1869 0.930 . S
C1878 C1876 1.384 . S
C1878 C1879 1.372 . S
C1879 C1878 1.372 . S
C1879 C1880 1.400 . S
C1879 C1884 1.490 . S
C1880 H1870 0.930 . S
C1880 C1879 1.400 . S
C1880 C1883 1.386 . S
H1881 C1897 0.930 . S
H1882 C1898 0.931 . S
C1883 H1871 0.929 . S
C1883 C1877 1.390 . S
C1883 C1880 1.386 . S
C1884 C1879 1.490 . S
C1884 C1886 1.395 . S
C1884 C1887 1.403 . S
H1885 C1891 0.930 . S
C1886 H1872 0.930 . S
C1886 C1884 1.395 . S
C1886 C1889 1.403 . S
C1887 C1884 1.403 . S
C1887 C1888 1.524 . S
C1887 C1891 1.400 . S
C1888 H1873 0.960 . S
C1888 H1874 0.960 . S
C1888 H1875 0.960 . S
C1888 C1887 1.524 . S
C1889 C1886 1.403 . S
C1889 C1890 1.392 . S
C1889 C1893 1.495 . S
C1890 C1889 1.392 . S
C1890 C1891 1.385 . S
C1890 C1892 1.478 . S
C1891 H1885 0.930 . S
C1891 C1887 1.400 . S
C1891 C1890 1.385 . S
C1892 C1890 1.478 . S
C1892 C1894 1.381 . S
C1892 C1898 1.383 . S
C1893 C1889 1.495 . S
C1893 H1899 0.959 . S
C1893 H1900 0.961 . S
C1893 H1901 0.960 . S
C1894 C1892 1.381 . S
C1894 C1895 1.394 . S
C1894 H1902 0.930 . S
C1895 C1894 1.394 . S
C1895 C1896 1.383 . S
C1895 H1903 0.929 . S
C1896 C1895 1.383 . S
C1896 C1897 1.377 . S
C1897 H1881 0.930 . S
C1897 C1896 1.377 . S
C1897 C1898 1.379 . S
C1898 H1882 0.931 . S
C1898 C1892 1.383 . S
C1898 C1897 1.379 . S
H1899 C1893 0.959 . S
H1900 C1893 0.961 . S
H1901 C1893 0.960 . S
H1902 C1894 0.930 . S
H1903 C1895 0.929 . S
H1904 C1912 0.929 . S
H1905 C1914 0.930 . S
H1906 C1916 0.930 . S
H1907 C1919 0.929 . S
H1908 C1922 0.930 . S
H1909 C1924 0.960 . S
H1910 C1924 0.960 . S
H1911 C1924 0.960 . S
C1912 H1904 0.929 . S
C1912 C1913 1.377 . S
C1912 C1914 1.384 . S
C1913 C1912 1.377 . S
C1913 C1919 1.390 . S
C1914 H1905 0.930 . S
C1914 C1912 1.384 . S
C1914 C1915 1.372 . S
C1915 C1914 1.372 . S
C1915 C1916 1.400 . S
C1915 C1920 1.490 . S
C1916 H1906 0.930 . S
C1916 C1915 1.400 . S
C1916 C1919 1.386 . S
H1917 C1933 0.930 . S
H1918 C1934 0.931 . S
C1919 H1907 0.929 . S
C1919 C1913 1.390 . S
C1919 C1916 1.386 . S
C1920 C1915 1.490 . S
C1920 C1922 1.395 . S
C1920 C1923 1.403 . S
H1921 C1927 0.930 . S
C1922 H1908 0.930 . S
C1922 C1920 1.395 . S
C1922 C1925 1.403 . S
C1923 C1920 1.403 . S
C1923 C1924 1.524 . S
C1923 C1927 1.400 . S
C1924 H1909 0.960 . S
C1924 H1910 0.960 . S
C1924 H1911 0.960 . S
C1924 C1923 1.524 . S
C1925 C1922 1.403 . S
C1925 C1926 1.392 . S
C1925 C1929 1.495 . S
C1926 C1925 1.392 . S
C1926 C1927 1.385 . S
C1926 C1928 1.478 . S
C1927 H1921 0.930 . S
C1927 C1923 1.400 . S
C1927 C1926 1.385 . S
C1928 C1926 1.478 . S
C1928 C1930 1.381 . S
C1928 C1934 1.383 . S
C1929 C1925 1.495 . S
C1929 H1935 0.959 . S
C1929 H1936 0.961 . S
C1929 H1937 0.960 . S
C1930 C1928 1.381 . S
C1930 C1931 1.394 . S
C1930 H1938 0.930 . S
C1931 C1930 1.394 . S
C1931 C1932 1.383 . S
C1931 H1939 0.929 . S
C1932 C1931 1.383 . S
C1932 C1933 1.377 . S
C1933 H1917 0.930 . S
C1933 C1932 1.377 . S
C1933 C1934 1.379 . S
C1934 H1918 0.931 . S
C1934 C1928 1.383 . S
C1934 C1933 1.379 . S
H1935 C1929 0.959 . S
H1936 C1929 0.961 . S
H1937 C1929 0.960 . S
H1938 C1930 0.930 . S
H1939 C1931 0.929 . S
H1940 C1948 0.929 . S
H1941 C1950 0.930 . S
H1942 C1952 0.930 . S
H1943 C1955 0.929 . S
H1944 C1958 0.930 . S
H1945 C1960 0.960 . S
H1946 C1960 0.960 . S
H1947 C1960 0.960 . S
C1948 H1940 0.929 . S
C1948 C1949 1.377 . S
C1948 C1950 1.384 . S
C1949 C1948 1.377 . S
C1949 C1955 1.390 . S
C1950 H1941 0.930 . S
C1950 C1948 1.384 . S
C1950 C1951 1.372 . S
C1951 C1950 1.372 . S
C1951 C1952 1.400 . S
C1951 C1956 1.490 . S
C1952 H1942 0.930 . S
C1952 C1951 1.400 . S
C1952 C1955 1.386 . S
H1953 C1969 0.930 . S
H1954 C1970 0.931 . S
C1955 H1943 0.929 . S
C1955 C1949 1.390 . S
C1955 C1952 1.386 . S
C1956 C1951 1.490 . S
C1956 C1958 1.395 . S
C1956 C1959 1.403 . S
H1957 C1963 0.930 . S
C1958 H1944 0.930 . S
C1958 C1956 1.395 . S
C1958 C1961 1.403 . S
C1959 C1956 1.403 . S
C1959 C1960 1.524 . S
C1959 C1963 1.400 . S
C1960 H1945 0.960 . S
C1960 H1946 0.960 . S
C1960 H1947 0.960 . S
C1960 C1959 1.524 . S
C1961 C1958 1.403 . S
C1961 C1962 1.392 . S
C1961 C1965 1.495 . S
C1962 C1961 1.392 . S
C1962 C1963 1.385 . S
C1962 C1964 1.478 . S
C1963 H1957 0.930 . S
C1963 C1959 1.400 . S
C1963 C1962 1.385 . S
C1964 C1962 1.478 . S
C1964 C1966 1.381 . S
C1964 C1970 1.383 . S
C1965 C1961 1.495 . S
C1965 H1971 0.959 . S
C1965 H1972 0.961 . S
C1965 H1973 0.960 . S
C1966 C1964 1.381 . S
C1966 C1967 1.394 . S
C1966 H1974 0.930 . S
C1967 C1966 1.394 . S
C1967 C1968 1.383 . S
C1967 H1975 0.929 . S
C1968 C1967 1.383 . S
C1968 C1969 1.377 . S
C1969 H1953 0.930 . S
C1969 C1968 1.377 . S
C1969 C1970 1.379 . S
C1970 H1954 0.931 . S
C1970 C1964 1.383 . S
C1970 C1969 1.379 . S
H1971 C1965 0.959 . S
H1972 C1965 0.961 . S
H1973 C1965 0.960 . S
H1974 C1966 0.930 . S
H1975 C1967 0.929 . S
H1976 C1984 0.929 . S
H1977 C1986 0.930 . S
H1978 C1988 0.930 . S
H1979 C1991 0.929 . S
H1980 C1994 0.930 . S
H1981 C1996 0.960 . S
H1982 C1996 0.960 . S
H1983 C1996 0.960 . S
C1984 H1976 0.929 . S
C1984 C1985 1.377 . S
C1984 C1986 1.384 . S
C1985 C1984 1.377 . S
C1985 C1991 1.390 . S
C1986 H1977 0.930 . S
C1986 C1984 1.384 . S
C1986 C1987 1.372 . S
C1987 C1986 1.372 . S
C1987 C1988 1.400 . S
C1987 C1992 1.490 . S
C1988 H1978 0.930 . S
C1988 C1987 1.400 . S
C1988 C1991 1.386 . S
H1989 C2005 0.930 . S
H1990 C2006 0.931 . S
C1991 H1979 0.929 . S
C1991 C1985 1.390 . S
C1991 C1988 1.386 . S
C1992 C1987 1.490 . S
C1992 C1994 1.395 . S
C1992 C1995 1.403 . S
H1993 C1999 0.930 . S
C1994 H1980 0.930 . S
C1994 C1992 1.395 . S
C1994 C1997 1.403 . S
C1995 C1992 1.403 . S
C1995 C1996 1.524 . S
C1995 C1999 1.400 . S
C1996 H1981 0.960 . S
C1996 H1982 0.960 . S
C1996 H1983 0.960 . S
C1996 C1995 1.524 . S
C1997 C1994 1.403 . S
C1997 C1998 1.392 . S
C1997 C2001 1.495 . S
C1998 C1997 1.392 . S
C1998 C1999 1.385 . S
C1998 C2000 1.478 . S
C1999 H1993 0.930 . S
C1999 C1995 1.400 . S
C1999 C1998 1.385 . S
C2000 C1998 1.478 . S
C2000 C2002 1.381 . S
C2000 C2006 1.383 . S
C2001 C1997 1.495 . S
C2001 H2007 0.959 . S
C2001 H2008 0.961 . S
C2001 H2009 0.960 . S
C2002 C2000 1.381 . S
C2002 C2003 1.394 . S
C2002 H2010 0.930 . S
C2003 C2002 1.394 . S
C2003 C2004 1.383 . S
C2003 H2011 0.929 . S
C2004 C2003 1.383 . S
C2004 C2005 1.377 . S
C2005 H1989 0.930 . S
C2005 C2004 1.377 . S
C2005 C2006 1.379 . S
C2006 H1990 0.931 . S
C2006 C2000 1.383 . S
C2006 C2005 1.379 . S
H2007 C2001 0.959 . S
H2008 C2001 0.961 . S
H2009 C2001 0.960 . S
H2010 C2002 0.930 . S
H2011 C2003 0.929 . S
H2012 C2020 0.929 . S
H2013 C2022 0.930 . S
H2014 C2024 0.930 . S
H2015 C2027 0.929 . S
H2016 C2030 0.930 . S
H2017 C2032 0.960 . S
H2018 C2032 0.960 . S
H2019 C2032 0.960 . S
C2020 H2012 0.929 . S
C2020 C2021 1.377 . S
C2020 C2022 1.384 . S
C2021 C2020 1.377 . S
C2021 C2027 1.390 . S
C2022 H2013 0.930 . S
C2022 C2020 1.384 . S
C2022 C2023 1.372 . S
C2023 C2022 1.372 . S
C2023 C2024 1.400 . S
C2023 C2028 1.490 . S
C2024 H2014 0.930 . S
C2024 C2023 1.400 . S
C2024 C2027 1.386 . S
H2025 C2041 0.930 . S
H2026 C2042 0.931 . S
C2027 H2015 0.929 . S
C2027 C2021 1.390 . S
C2027 C2024 1.386 . S
C2028 C2023 1.490 . S
C2028 C2030 1.395 . S
C2028 C2031 1.403 . S
H2029 C2035 0.930 . S
C2030 H2016 0.930 . S
C2030 C2028 1.395 . S
C2030 C2033 1.403 . S
C2031 C2028 1.403 . S
C2031 C2032 1.524 . S
C2031 C2035 1.400 . S
C2032 H2017 0.960 . S
C2032 H2018 0.960 . S
C2032 H2019 0.960 . S
C2032 C2031 1.524 . S
C2033 C2030 1.403 . S
C2033 C2034 1.392 . S
C2033 C2037 1.495 . S
C2034 C2033 1.392 . S
C2034 C2035 1.385 . S
C2034 C2036 1.478 . S
C2035 H2029 0.930 . S
C2035 C2031 1.400 . S
C2035 C2034 1.385 . S
C2036 C2034 1.478 . S
C2036 C2038 1.381 . S
C2036 C2042 1.383 . S
C2037 C2033 1.495 . S
C2037 H2043 0.959 . S
C2037 H2044 0.961 . S
C2037 H2045 0.960 . S
C2038 C2036 1.381 . S
C2038 C2039 1.394 . S
C2038 H2046 0.930 . S
C2039 C2038 1.394 . S
C2039 C2040 1.383 . S
C2039 H2047 0.929 . S
C2040 C2039 1.383 . S
C2040 C2041 1.377 . S
C2041 H2025 0.930 . S
C2041 C2040 1.377 . S
C2041 C2042 1.379 . S
C2042 H2026 0.931 . S
C2042 C2036 1.383 . S
C2042 C2041 1.379 . S
H2043 C2037 0.959 . S
H2044 C2037 0.961 . S
H2045 C2037 0.960 . S
H2046 C2038 0.930 . S
H2047 C2039 0.929 . S
H2048 C2056 0.929 . S
H2049 C2058 0.930 . S
H2050 C2060 0.930 . S
H2051 C2063 0.929 . S
H2052 C2066 0.930 . S
H2053 C2068 0.960 . S
H2054 C2068 0.960 . S
H2055 C2068 0.960 . S
C2056 H2048 0.929 . S
C2056 C2057 1.377 1_655 S
C2056 C2058 1.384 . S
C2057 C2056 1.377 1_455 S
C2057 C2063 1.390 . S
C2058 H2049 0.930 . S
C2058 C2056 1.384 . S
C2058 C2059 1.372 1_655 S
C2059 C2058 1.372 1_455 S
C2059 C2060 1.400 . S
C2059 C2064 1.490 . S
C2060 H2050 0.930 . S
C2060 C2059 1.400 . S
C2060 C2063 1.386 . S
H2061 C2077 0.930 . S
H2062 C2078 0.931 . S
C2063 H2051 0.929 . S
C2063 C2057 1.390 . S
C2063 C2060 1.386 . S
C2064 C2059 1.490 . S
C2064 C2066 1.395 1_455 S
C2064 C2067 1.403 . S
H2065 C2071 0.930 . S
C2066 H2052 0.930 . S
C2066 C2064 1.395 1_655 S
C2066 C2069 1.403 . S
C2067 C2064 1.403 . S
C2067 C2068 1.524 . S
C2067 C2071 1.400 . S
C2068 H2053 0.960 . S
C2068 H2054 0.960 . S
C2068 H2055 0.960 . S
C2068 C2067 1.524 . S
C2069 C2066 1.403 . S
C2069 C2070 1.392 1_655 S
C2069 C2073 1.495 . S
C2070 C2069 1.392 1_455 S
C2070 C2071 1.385 . S
C2070 C2072 1.478 . S
C2071 H2065 0.930 . S
C2071 C2067 1.400 . S
C2071 C2070 1.385 . S
C2072 C2070 1.478 . S
C2072 C2074 1.381 1_455 S
C2072 C2078 1.383 . S
C2073 C2069 1.495 . S
C2073 H2079 0.959 . S
C2073 H2080 0.961 . S
C2073 H2081 0.960 . S
C2074 C2072 1.381 1_655 S
C2074 C2075 1.394 . S
C2074 H2082 0.930 . S
C2075 C2074 1.394 . S
C2075 C2076 1.383 1_655 S
C2075 H2083 0.929 . S
C2076 C2075 1.383 1_455 S
C2076 C2077 1.377 . S
C2077 H2061 0.930 . S
C2077 C2076 1.377 . S
C2077 C2078 1.379 . S
C2078 H2062 0.931 . S
C2078 C2072 1.383 . S
C2078 C2077 1.379 . S
H2079 C2073 0.959 . S
H2080 C2073 0.961 . S
H2081 C2073 0.960 . S
H2082 C2074 0.930 . S
H2083 C2075 0.929 . S
H2084 C2092 0.929 . S
H2085 C2094 0.930 . S
H2086 C2096 0.930 . S
H2087 C2099 0.929 . S
H2088 C2102 0.930 . S
H2089 C2104 0.960 . S
H2090 C2104 0.960 . S
H2091 C2104 0.960 . S
C2092 H2084 0.929 . S
C2092 C2093 1.377 . S
C2092 C2094 1.384 . S
C2093 C2092 1.377 . S
C2093 C2099 1.390 . S
C2094 H2085 0.930 . S
C2094 C2092 1.384 . S
C2094 C2095 1.372 . S
C2095 C2094 1.372 . S
C2095 C2096 1.400 . S
C2095 C2100 1.490 . S
C2096 H2086 0.930 . S
C2096 C2095 1.400 . S
C2096 C2099 1.386 . S
H2097 C2113 0.930 . S
H2098 C2114 0.931 . S
C2099 H2087 0.929 . S
C2099 C2093 1.390 . S
C2099 C2096 1.386 . S
C2100 C2095 1.490 . S
C2100 C2102 1.395 . S
C2100 C2103 1.403 . S
H2101 C2107 0.930 . S
C2102 H2088 0.930 . S
C2102 C2100 1.395 . S
C2102 C2105 1.403 . S
C2103 C2100 1.403 . S
C2103 C2104 1.524 . S
C2103 C2107 1.400 . S
C2104 H2089 0.960 . S
C2104 H2090 0.960 . S
C2104 H2091 0.960 . S
C2104 C2103 1.524 . S
C2105 C2102 1.403 . S
C2105 C2106 1.392 . S
C2105 C2109 1.495 . S
C2106 C2105 1.392 . S
C2106 C2107 1.385 . S
C2106 C2108 1.478 . S
C2107 H2101 0.930 . S
C2107 C2103 1.400 . S
C2107 C2106 1.385 . S
C2108 C2106 1.478 . S
C2108 C2110 1.381 . S
C2108 C2114 1.383 . S
C2109 C2105 1.495 . S
C2109 H2115 0.959 . S
C2109 H2116 0.961 . S
C2109 H2117 0.960 . S
C2110 C2108 1.381 . S
C2110 C2111 1.394 . S
C2110 H2118 0.930 . S
C2111 C2110 1.394 . S
C2111 C2112 1.383 . S
C2111 H2119 0.929 . S
C2112 C2111 1.383 . S
C2112 C2113 1.377 . S
C2113 H2097 0.930 . S
C2113 C2112 1.377 . S
C2113 C2114 1.379 . S
C2114 H2098 0.931 . S
C2114 C2108 1.383 . S
C2114 C2113 1.379 . S
H2115 C2109 0.959 . S
H2116 C2109 0.961 . S
H2117 C2109 0.960 . S
H2118 C2110 0.930 . S
H2119 C2111 0.929 . S
H2120 C2128 0.929 . S
H2121 C2130 0.930 . S
H2122 C2132 0.930 . S
H2123 C2135 0.929 . S
H2124 C2138 0.930 . S
H2125 C2140 0.960 . S
H2126 C2140 0.960 . S
H2127 C2140 0.960 . S
C2128 H2120 0.929 . S
C2128 C2129 1.377 . S
C2128 C2130 1.384 . S
C2129 C2128 1.377 . S
C2129 C2135 1.390 . S
C2130 H2121 0.930 . S
C2130 C2128 1.384 . S
C2130 C2131 1.372 . S
C2131 C2130 1.372 . S
C2131 C2132 1.400 . S
C2131 C2136 1.490 . S
C2132 H2122 0.930 . S
C2132 C2131 1.400 . S
C2132 C2135 1.386 . S
H2133 C2149 0.930 . S
H2134 C2150 0.931 . S
C2135 H2123 0.929 . S
C2135 C2129 1.390 . S
C2135 C2132 1.386 . S
C2136 C2131 1.490 . S
C2136 C2138 1.395 . S
C2136 C2139 1.403 . S
H2137 C2143 0.930 . S
C2138 H2124 0.930 . S
C2138 C2136 1.395 . S
C2138 C2141 1.403 . S
C2139 C2136 1.403 . S
C2139 C2140 1.524 . S
C2139 C2143 1.400 . S
C2140 H2125 0.960 . S
C2140 H2126 0.960 . S
C2140 H2127 0.960 . S
C2140 C2139 1.524 . S
C2141 C2138 1.403 . S
C2141 C2142 1.392 . S
C2141 C2145 1.495 . S
C2142 C2141 1.392 . S
C2142 C2143 1.385 . S
C2142 C2144 1.478 . S
C2143 H2137 0.930 . S
C2143 C2139 1.400 . S
C2143 C2142 1.385 . S
C2144 C2142 1.478 . S
C2144 C2146 1.381 . S
C2144 C2150 1.383 . S
C2145 C2141 1.495 . S
C2145 H2151 0.959 . S
C2145 H2152 0.961 . S
C2145 H2153 0.960 . S
C2146 C2144 1.381 . S
C2146 C2147 1.394 . S
C2146 H2154 0.930 . S
C2147 C2146 1.394 . S
C2147 C2148 1.383 . S
C2147 H2155 0.929 . S
C2148 C2147 1.383 . S
C2148 C2149 1.377 . S
C2149 H2133 0.930 . S
C2149 C2148 1.377 . S
C2149 C2150 1.379 . S
C2150 H2134 0.931 . S
C2150 C2144 1.383 . S
C2150 C2149 1.379 . S
H2151 C2145 0.959 . S
H2152 C2145 0.961 . S
H2153 C2145 0.960 . S
H2154 C2146 0.930 . S
H2155 C2147 0.929 . S
H2156 C2164 0.929 . S
H2157 C2166 0.930 . S
H2158 C2168 0.930 . S
H2159 C2171 0.929 . S
H2160 C2174 0.930 . S
H2161 C2176 0.960 . S
H2162 C2176 0.960 . S
H2163 C2176 0.960 . S
C2164 H2156 0.929 . S
C2164 C2165 1.377 . S
C2164 C2166 1.384 . S
C2165 C2164 1.377 . S
C2165 C2171 1.390 . S
C2166 H2157 0.930 . S
C2166 C2164 1.384 . S
C2166 C2167 1.372 . S
C2167 C2166 1.372 . S
C2167 C2168 1.400 . S
C2167 C2172 1.490 . S
C2168 H2158 0.930 . S
C2168 C2167 1.400 . S
C2168 C2171 1.386 . S
H2169 C2185 0.930 . S
H2170 C2186 0.931 . S
C2171 H2159 0.929 . S
C2171 C2165 1.390 . S
C2171 C2168 1.386 . S
C2172 C2167 1.490 . S
C2172 C2174 1.395 . S
C2172 C2175 1.403 . S
H2173 C2179 0.930 . S
C2174 H2160 0.930 . S
C2174 C2172 1.395 . S
C2174 C2177 1.403 . S
C2175 C2172 1.403 . S
C2175 C2176 1.524 . S
C2175 C2179 1.400 . S
C2176 H2161 0.960 . S
C2176 H2162 0.960 . S
C2176 H2163 0.960 . S
C2176 C2175 1.524 . S
C2177 C2174 1.403 . S
C2177 C2178 1.392 . S
C2177 C2181 1.495 . S
C2178 C2177 1.392 . S
C2178 C2179 1.385 . S
C2178 C2180 1.478 . S
C2179 H2173 0.930 . S
C2179 C2175 1.400 . S
C2179 C2178 1.385 . S
C2180 C2178 1.478 . S
C2180 C2182 1.381 . S
C2180 C2186 1.383 . S
C2181 C2177 1.495 . S
C2181 H2187 0.959 . S
C2181 H2188 0.961 . S
C2181 H2189 0.960 . S
C2182 C2180 1.381 . S
C2182 C2183 1.394 . S
C2182 H2190 0.930 . S
C2183 C2182 1.394 . S
C2183 C2184 1.383 . S
C2183 H2191 0.929 . S
C2184 C2183 1.383 . S
C2184 C2185 1.377 . S
C2185 H2169 0.930 . S
C2185 C2184 1.377 . S
C2185 C2186 1.379 . S
C2186 H2170 0.931 . S
C2186 C2180 1.383 . S
C2186 C2185 1.379 . S
H2187 C2181 0.959 . S
H2188 C2181 0.961 . S
H2189 C2181 0.960 . S
H2190 C2182 0.930 . S
H2191 C2183 0.929 . S
H2192 C2200 0.929 . S
H2193 C2202 0.930 . S
H2194 C2204 0.930 . S
H2195 C2207 0.929 . S
H2196 C2210 0.930 . S
H2197 C2212 0.960 . S
H2198 C2212 0.960 . S
H2199 C2212 0.960 . S
C2200 H2192 0.929 . S
C2200 C2201 1.377 . S
C2200 C2202 1.384 . S
C2201 C2200 1.377 . S
C2201 C2207 1.390 1_455 S
C2202 H2193 0.930 . S
C2202 C2200 1.384 . S
C2202 C2203 1.372 . S
C2203 C2202 1.372 . S
C2203 C2204 1.400 1_455 S
C2203 C2208 1.490 . S
C2204 H2194 0.930 . S
C2204 C2203 1.400 1_655 S
C2204 C2207 1.386 . S
H2205 C2221 0.930 . S
H2206 C2222 0.931 . S
C2207 H2195 0.929 . S
C2207 C2201 1.390 1_655 S
C2207 C2204 1.386 . S
C2208 C2203 1.490 . S
C2208 C2210 1.395 . S
C2208 C2211 1.403 1_455 S
H2209 C2215 0.930 . S
C2210 H2196 0.930 . S
C2210 C2208 1.395 . S
C2210 C2213 1.403 . S
C2211 C2208 1.403 1_655 S
C2211 C2212 1.524 . S
C2211 C2215 1.400 . S
C2212 H2197 0.960 . S
C2212 H2198 0.960 . S
C2212 H2199 0.960 . S
C2212 C2211 1.524 . S
C2213 C2210 1.403 . S
C2213 C2214 1.392 . S
C2213 C2217 1.495 . S
C2214 C2213 1.392 . S
C2214 C2215 1.385 1_455 S
C2214 C2216 1.478 . S
C2215 H2209 0.930 . S
C2215 C2211 1.400 . S
C2215 C2214 1.385 1_655 S
C2216 C2214 1.478 . S
C2216 C2218 1.381 . S
C2216 C2222 1.383 1_455 S
C2217 C2213 1.495 . S
C2217 H2223 0.959 . S
C2217 H2224 0.961 . S
C2217 H2225 0.960 . S
C2218 C2216 1.381 . S
C2218 C2219 1.394 . S
C2218 H2226 0.930 . S
C2219 C2218 1.394 . S
C2219 C2220 1.383 . S
C2219 H2227 0.929 . S
C2220 C2219 1.383 . S
C2220 C2221 1.377 1_455 S
C2221 H2205 0.930 . S
C2221 C2220 1.377 1_655 S
C2221 C2222 1.379 . S
C2222 H2206 0.931 . S
C2222 C2216 1.383 1_655 S
C2222 C2221 1.379 . S
H2223 C2217 0.959 . S
H2224 C2217 0.961 . S
H2225 C2217 0.960 . S
H2226 C2218 0.930 . S
H2227 C2219 0.929 . S
H2228 C2236 0.929 . S
H2229 C2238 0.930 . S
H2230 C2240 0.930 . S
H2231 C2243 0.929 . S
H2232 C2246 0.930 . S
H2233 C2248 0.960 . S
H2234 C2248 0.960 . S
H2235 C2248 0.960 . S
C2236 H2228 0.929 . S
C2236 C2237 1.377 . S
C2236 C2238 1.384 . S
C2237 C2236 1.377 . S
C2237 C2243 1.390 . S
C2238 H2229 0.930 . S
C2238 C2236 1.384 . S
C2238 C2239 1.372 . S
C2239 C2238 1.372 . S
C2239 C2240 1.400 . S
C2239 C2244 1.490 . S
C2240 H2230 0.930 . S
C2240 C2239 1.400 . S
C2240 C2243 1.386 . S
H2241 C2257 0.930 . S
H2242 C2258 0.931 . S
C2243 H2231 0.929 . S
C2243 C2237 1.390 . S
C2243 C2240 1.386 . S
C2244 C2239 1.490 . S
C2244 C2246 1.395 . S
C2244 C2247 1.403 . S
H2245 C2251 0.930 . S
C2246 H2232 0.930 . S
C2246 C2244 1.395 . S
C2246 C2249 1.403 . S
C2247 C2244 1.403 . S
C2247 C2248 1.524 . S
C2247 C2251 1.400 . S
C2248 H2233 0.960 . S
C2248 H2234 0.960 . S
C2248 H2235 0.960 . S
C2248 C2247 1.524 . S
C2249 C2246 1.403 . S
C2249 C2250 1.392 . S
C2249 C2253 1.495 . S
C2250 C2249 1.392 . S
C2250 C2251 1.385 . S
C2250 C2252 1.478 . S
C2251 H2245 0.930 . S
C2251 C2247 1.400 . S
C2251 C2250 1.385 . S
C2252 C2250 1.478 . S
C2252 C2254 1.381 . S
C2252 C2258 1.383 . S
C2253 C2249 1.495 . S
C2253 H2259 0.959 . S
C2253 H2260 0.961 . S
C2253 H2261 0.960 . S
C2254 C2252 1.381 . S
C2254 C2255 1.394 . S
C2254 H2262 0.930 . S
C2255 C2254 1.394 . S
C2255 C2256 1.383 . S
C2255 H2263 0.929 . S
C2256 C2255 1.383 . S
C2256 C2257 1.377 . S
C2257 H2241 0.930 . S
C2257 C2256 1.377 . S
C2257 C2258 1.379 . S
C2258 H2242 0.931 . S
C2258 C2252 1.383 . S
C2258 C2257 1.379 . S
H2259 C2253 0.959 . S
H2260 C2253 0.961 . S
H2261 C2253 0.960 . S
H2262 C2254 0.930 . S
H2263 C2255 0.929 . S
H2264 C2272 0.929 . S
H2265 C2274 0.930 . S
H2266 C2276 0.930 . S
H2267 C2279 0.929 . S
H2268 C2282 0.930 . S
H2269 C2284 0.960 . S
H2270 C2284 0.960 . S
H2271 C2284 0.960 . S
C2272 H2264 0.929 . S
C2272 C2273 1.377 . S
C2272 C2274 1.384 . S
C2273 C2272 1.377 . S
C2273 C2279 1.390 . S
C2274 H2265 0.930 . S
C2274 C2272 1.384 . S
C2274 C2275 1.372 . S
C2275 C2274 1.372 . S
C2275 C2276 1.400 . S
C2275 C2280 1.490 . S
C2276 H2266 0.930 . S
C2276 C2275 1.400 . S
C2276 C2279 1.386 . S
H2277 C2293 0.930 . S
H2278 C2294 0.931 . S
C2279 H2267 0.929 . S
C2279 C2273 1.390 . S
C2279 C2276 1.386 . S
C2280 C2275 1.490 . S
C2280 C2282 1.395 . S
C2280 C2283 1.403 . S
H2281 C2287 0.930 . S
C2282 H2268 0.930 . S
C2282 C2280 1.395 . S
C2282 C2285 1.403 . S
C2283 C2280 1.403 . S
C2283 C2284 1.524 . S
C2283 C2287 1.400 . S
C2284 H2269 0.960 . S
C2284 H2270 0.960 . S
C2284 H2271 0.960 . S
C2284 C2283 1.524 . S
C2285 C2282 1.403 . S
C2285 C2286 1.392 . S
C2285 C2289 1.495 . S
C2286 C2285 1.392 . S
C2286 C2287 1.385 . S
C2286 C2288 1.478 . S
C2287 H2281 0.930 . S
C2287 C2283 1.400 . S
C2287 C2286 1.385 . S
C2288 C2286 1.478 . S
C2288 C2290 1.381 . S
C2288 C2294 1.383 . S
C2289 C2285 1.495 . S
C2289 H2295 0.959 . S
C2289 H2296 0.961 . S
C2289 H2297 0.960 . S
C2290 C2288 1.381 . S
C2290 C2291 1.394 . S
C2290 H2298 0.930 . S
C2291 C2290 1.394 . S
C2291 C2292 1.383 . S
C2291 H2299 0.929 . S
C2292 C2291 1.383 . S
C2292 C2293 1.377 . S
C2293 H2277 0.930 . S
C2293 C2292 1.377 . S
C2293 C2294 1.379 . S
C2294 H2278 0.931 . S
C2294 C2288 1.383 . S
C2294 C2293 1.379 . S
H2295 C2289 0.959 . S
H2296 C2289 0.961 . S
H2297 C2289 0.960 . S
H2298 C2290 0.930 . S
H2299 C2291 0.929 . S
H2300 C2308 0.929 . S
H2301 C2310 0.930 . S
H2302 C2312 0.930 . S
H2303 C2315 0.929 . S
H2304 C2318 0.930 . S
H2305 C2320 0.960 . S
H2306 C2320 0.960 . S
H2307 C2320 0.960 . S
C2308 H2300 0.929 . S
C2308 C2309 1.377 . S
C2308 C2310 1.384 . S
C2309 C2308 1.377 . S
C2309 C2315 1.390 . S
C2310 H2301 0.930 . S
C2310 C2308 1.384 . S
C2310 C2311 1.372 . S
C2311 C2310 1.372 . S
C2311 C2312 1.400 . S
C2311 C2316 1.490 . S
C2312 H2302 0.930 . S
C2312 C2311 1.400 . S
C2312 C2315 1.386 . S
H2313 C2329 0.930 . S
H2314 C2330 0.931 . S
C2315 H2303 0.929 . S
C2315 C2309 1.390 . S
C2315 C2312 1.386 . S
C2316 C2311 1.490 . S
C2316 C2318 1.395 . S
C2316 C2319 1.403 . S
H2317 C2323 0.930 . S
C2318 H2304 0.930 . S
C2318 C2316 1.395 . S
C2318 C2321 1.403 . S
C2319 C2316 1.403 . S
C2319 C2320 1.524 . S
C2319 C2323 1.400 . S
C2320 H2305 0.960 . S
C2320 H2306 0.960 . S
C2320 H2307 0.960 . S
C2320 C2319 1.524 . S
C2321 C2318 1.403 . S
C2321 C2322 1.392 . S
C2321 C2325 1.495 . S
C2322 C2321 1.392 . S
C2322 C2323 1.385 . S
C2322 C2324 1.478 . S
C2323 H2317 0.930 . S
C2323 C2319 1.400 . S
C2323 C2322 1.385 . S
C2324 C2322 1.478 . S
C2324 C2326 1.381 . S
C2324 C2330 1.383 . S
C2325 C2321 1.495 . S
C2325 H2331 0.959 . S
C2325 H2332 0.961 . S
C2325 H2333 0.960 . S
C2326 C2324 1.381 . S
C2326 C2327 1.394 . S
C2326 H2334 0.930 . S
C2327 C2326 1.394 . S
C2327 C2328 1.383 . S
C2327 H2335 0.929 . S
C2328 C2327 1.383 . S
C2328 C2329 1.377 . S
C2329 H2313 0.930 . S
C2329 C2328 1.377 . S
C2329 C2330 1.379 . S
C2330 H2314 0.931 . S
C2330 C2324 1.383 . S
C2330 C2329 1.379 . S
H2331 C2325 0.959 . S
H2332 C2325 0.961 . S
H2333 C2325 0.960 . S
H2334 C2326 0.930 . S
H2335 C2327 0.929 . S
H2336 C2344 0.929 . S
H2337 C2346 0.930 . S
H2338 C2348 0.930 . S
H2339 C2351 0.929 . S
H2340 C2354 0.930 . S
H2341 C2356 0.960 . S
H2342 C2356 0.960 . S
H2343 C2356 0.960 1_565 S
C2344 H2336 0.929 . S
C2344 C2345 1.348 1_545 S
C2344 C2346 1.384 . S
C2345 C2344 1.348 1_565 S
C2345 C2351 1.416 . S
C2346 H2337 0.930 . S
C2346 C2344 1.384 . S
C2346 C2347 1.372 . S
C2347 C2346 1.372 . S
C2347 C2348 1.400 1_545 S
C2347 C2352 1.490 . S
C2348 H2338 0.930 . S
C2348 C2347 1.400 1_565 S
C2348 C2351 1.386 . S
H2349 C2365 0.930 . S
H2350 C2366 0.931 . S
C2351 H2339 0.929 . S
C2351 C2345 1.416 . S
C2351 C2348 1.386 . S
C2352 C2347 1.490 . S
C2352 C2354 1.395 . S
C2352 C2355 1.403 . S
H2353 C2359 0.930 . S
C2354 H2340 0.930 . S
C2354 C2352 1.395 . S
C2354 C2357 1.403 . S
C2355 C2352 1.403 . S
C2355 C2356 1.524 . S
C2355 C2359 1.400 . S
C2356 H2341 0.960 . S
C2356 H2342 0.960 . S
C2356 H2343 0.960 1_545 S
C2356 C2355 1.524 . S
C2357 C2354 1.403 . S
C2357 C2358 1.392 . S
C2357 C2361 1.495 . S
C2358 C2357 1.392 . S
C2358 C2359 1.385 . S
C2358 C2360 1.478 . S
C2359 H2353 0.930 . S
C2359 C2355 1.400 . S
C2359 C2358 1.385 . S
C2360 C2358 1.478 . S
C2360 C2362 1.381 . S
C2360 C2366 1.383 1_545 S
C2361 C2357 1.495 . S
C2361 H2367 0.959 . S
C2361 H2368 0.961 1_545 S
C2361 H2369 0.960 . S
C2362 C2360 1.381 . S
C2362 C2363 1.394 . S
C2362 H2370 0.930 . S
C2363 C2362 1.394 . S
C2363 C2364 1.383 . S
C2363 H2371 0.929 . S
C2364 C2363 1.383 . S
C2364 C2365 1.377 1_545 S
C2365 H2349 0.930 . S
C2365 C2364 1.377 1_565 S
C2365 C2366 1.379 . S
C2366 H2350 0.931 . S
C2366 C2360 1.383 1_565 S
C2366 C2365 1.379 . S
H2367 C2361 0.959 . S
H2368 C2361 0.961 1_565 S
H2369 C2361 0.960 . S
H2370 C2362 0.930 . S
H2371 C2363 0.929 . S
H2372 C2380 0.929 . S
H2373 C2382 0.930 . S
H2374 C2384 0.930 . S
H2375 C2387 0.929 . S
H2376 C2390 0.930 . S
H2377 C2392 0.960 . S
H2378 C2392 0.960 . S
H2379 C2392 0.960 . S
C2380 H2372 0.929 . S
C2380 C2381 1.377 . S
C2380 C2382 1.384 . S
C2381 C2380 1.377 . S
C2381 C2387 1.390 . S
C2382 H2373 0.930 . S
C2382 C2380 1.384 . S
C2382 C2383 1.372 . S
C2383 C2382 1.372 . S
C2383 C2384 1.400 . S
C2383 C2388 1.490 . S
C2384 H2374 0.930 . S
C2384 C2383 1.400 . S
C2384 C2387 1.386 . S
H2385 C2401 0.930 . S
H2386 C2402 0.931 . S
C2387 H2375 0.929 . S
C2387 C2381 1.390 . S
C2387 C2384 1.386 . S
C2388 C2383 1.490 . S
C2388 C2390 1.395 . S
C2388 C2391 1.403 . S
H2389 C2395 0.930 . S
C2390 H2376 0.930 . S
C2390 C2388 1.395 . S
C2390 C2393 1.403 . S
C2391 C2388 1.403 . S
C2391 C2392 1.524 . S
C2391 C2395 1.400 . S
C2392 H2377 0.960 . S
C2392 H2378 0.960 . S
C2392 H2379 0.960 . S
C2392 C2391 1.524 . S
C2393 C2390 1.403 . S
C2393 C2394 1.392 . S
C2393 C2397 1.495 . S
C2394 C2393 1.392 . S
C2394 C2395 1.385 . S
C2394 C2396 1.478 . S
C2395 H2389 0.930 . S
C2395 C2391 1.400 . S
C2395 C2394 1.385 . S
C2396 C2394 1.478 . S
C2396 C2398 1.381 . S
C2396 C2402 1.383 . S
C2397 C2393 1.495 . S
C2397 H2403 0.959 . S
C2397 H2404 0.961 . S
C2397 H2405 0.960 . S
C2398 C2396 1.381 . S
C2398 C2399 1.394 . S
C2398 H2406 0.930 . S
C2399 C2398 1.394 . S
C2399 C2400 1.383 . S
C2399 H2407 0.929 . S
C2400 C2399 1.383 . S
C2400 C2401 1.377 . S
C2401 H2385 0.930 . S
C2401 C2400 1.377 . S
C2401 C2402 1.379 . S
C2402 H2386 0.931 . S
C2402 C2396 1.383 . S
C2402 C2401 1.379 . S
H2403 C2397 0.959 . S
H2404 C2397 0.961 . S
H2405 C2397 0.960 . S
H2406 C2398 0.930 . S
H2407 C2399 0.929 . S
H2408 C2416 0.929 . S
H2409 C2418 0.930 . S
H2410 C2420 0.930 . S
H2411 C2423 0.929 . S
H2412 C2426 0.930 . S
H2413 C2428 0.960 . S
H2414 C2428 0.960 . S
H2415 C2428 0.960 . S
C2416 H2408 0.929 . S
C2416 C2417 1.377 . S
C2416 C2418 1.384 . S
C2417 C2416 1.377 . S
C2417 C2423 1.390 . S
C2418 H2409 0.930 . S
C2418 C2416 1.384 . S
C2418 C2419 1.372 . S
C2419 C2418 1.372 . S
C2419 C2420 1.400 . S
C2419 C2424 1.490 . S
C2420 H2410 0.930 . S
C2420 C2419 1.400 . S
C2420 C2423 1.386 . S
H2421 C2437 0.930 . S
H2422 C2438 0.931 . S
C2423 H2411 0.929 . S
C2423 C2417 1.390 . S
C2423 C2420 1.386 . S
C2424 C2419 1.490 . S
C2424 C2426 1.395 . S
C2424 C2427 1.403 . S
H2425 C2431 0.930 . S
C2426 H2412 0.930 . S
C2426 C2424 1.395 . S
C2426 C2429 1.403 . S
C2427 C2424 1.403 . S
C2427 C2428 1.524 . S
C2427 C2431 1.400 . S
C2428 H2413 0.960 . S
C2428 H2414 0.960 . S
C2428 H2415 0.960 . S
C2428 C2427 1.524 . S
C2429 C2426 1.403 . S
C2429 C2430 1.392 . S
C2429 C2433 1.495 . S
C2430 C2429 1.392 . S
C2430 C2431 1.385 . S
C2430 C2432 1.478 . S
C2431 H2425 0.930 . S
C2431 C2427 1.400 . S
C2431 C2430 1.385 . S
C2432 C2430 1.478 . S
C2432 C2434 1.381 . S
C2432 C2438 1.383 . S
C2433 C2429 1.495 . S
C2433 H2439 0.959 . S
C2433 H2440 0.961 . S
C2433 H2441 0.960 . S
C2434 C2432 1.381 . S
C2434 C2435 1.394 . S
C2434 H2442 0.930 . S
C2435 C2434 1.394 . S
C2435 C2436 1.383 . S
C2435 H2443 0.929 . S
C2436 C2435 1.383 . S
C2436 C2437 1.377 . S
C2437 H2421 0.930 . S
C2437 C2436 1.377 . S
C2437 C2438 1.379 . S
C2438 H2422 0.931 . S
C2438 C2432 1.383 . S
C2438 C2437 1.379 . S
H2439 C2433 0.959 . S
H2440 C2433 0.961 . S
H2441 C2433 0.960 . S
H2442 C2434 0.930 . S
H2443 C2435 0.929 . S
H2444 C2452 0.929 . S
H2445 C2454 0.930 . S
H2446 C2456 0.930 . S
H2447 C2459 0.929 . S
H2448 C2462 0.930 . S
H2449 C2464 0.960 . S
H2450 C2464 0.960 . S
H2451 C2464 0.960 . S
C2452 H2444 0.929 . S
C2452 C2453 1.377 . S
C2452 C2454 1.384 . S
C2453 C2452 1.377 . S
C2453 C2459 1.390 . S
C2454 H2445 0.930 . S
C2454 C2452 1.384 . S
C2454 C2455 1.372 . S
C2455 C2454 1.372 . S
C2455 C2456 1.400 . S
C2455 C2460 1.490 . S
C2456 H2446 0.930 . S
C2456 C2455 1.400 . S
C2456 C2459 1.386 . S
H2457 C2473 0.930 . S
H2458 C2474 0.931 . S
C2459 H2447 0.929 . S
C2459 C2453 1.390 . S
C2459 C2456 1.386 . S
C2460 C2455 1.490 . S
C2460 C2462 1.395 . S
C2460 C2463 1.403 . S
H2461 C2467 0.930 . S
C2462 H2448 0.930 . S
C2462 C2460 1.395 . S
C2462 C2465 1.403 . S
C2463 C2460 1.403 . S
C2463 C2464 1.524 . S
C2463 C2467 1.400 . S
C2464 H2449 0.960 . S
C2464 H2450 0.960 . S
C2464 H2451 0.960 . S
C2464 C2463 1.524 . S
C2465 C2462 1.403 . S
C2465 C2466 1.392 . S
C2465 C2469 1.495 . S
C2466 C2465 1.392 . S
C2466 C2467 1.385 . S
C2466 C2468 1.478 . S
C2467 H2461 0.930 . S
C2467 C2463 1.400 . S
C2467 C2466 1.385 . S
C2468 C2466 1.478 . S
C2468 C2470 1.381 . S
C2468 C2474 1.383 . S
C2469 C2465 1.495 . S
C2469 H2475 0.959 . S
C2469 H2476 0.961 . S
C2469 H2477 0.960 . S
C2470 C2468 1.381 . S
C2470 C2471 1.394 . S
C2470 H2478 0.930 . S
C2471 C2470 1.394 . S
C2471 C2472 1.383 . S
C2471 H2479 0.929 . S
C2472 C2471 1.383 . S
C2472 C2473 1.377 . S
C2473 H2457 0.930 . S
C2473 C2472 1.377 . S
C2473 C2474 1.379 . S
C2474 H2458 0.931 . S
C2474 C2468 1.383 . S
C2474 C2473 1.379 . S
H2475 C2469 0.959 . S
H2476 C2469 0.961 . S
H2477 C2469 0.960 . S
H2478 C2470 0.930 . S
H2479 C2471 0.929 . S
H2480 C2488 0.929 . S
H2481 C2490 0.930 . S
H2482 C2492 0.930 . S
H2483 C2495 0.929 . S
H2484 C2498 0.930 . S
H2485 C2500 0.960 . S
H2486 C2500 0.960 . S
H2487 C2500 0.960 . S
C2488 H2480 0.929 . S
C2488 C2489 1.377 . S
C2488 C2490 1.384 . S
C2489 C2488 1.377 . S
C2489 C2495 1.390 1_565 S
C2490 H2481 0.930 . S
C2490 C2488 1.384 . S
C2490 C2491 1.372 1_565 S
C2491 C2490 1.372 1_545 S
C2491 C2492 1.400 . S
C2491 C2496 1.490 . S
C2492 H2482 0.930 . S
C2492 C2491 1.400 . S
C2492 C2495 1.386 . S
H2493 C2509 0.930 . S
H2494 C2510 0.931 . S
C2495 H2483 0.929 . S
C2495 C2489 1.390 1_545 S
C2495 C2492 1.386 . S
C2496 C2491 1.490 . S
C2496 C2498 1.395 . S
C2496 C2499 1.403 1_545 S
H2497 C2503 0.930 1_565 S
C2498 H2484 0.930 . S
C2498 C2496 1.395 . S
C2498 C2501 1.403 . S
C2499 C2496 1.403 1_565 S
C2499 C2500 1.524 . S
C2499 C2503 1.400 1_565 S
C2500 H2485 0.960 . S
C2500 H2486 0.960 . S
C2500 H2487 0.960 . S
C2500 C2499 1.524 . S
C2501 C2498 1.403 . S
C2501 C2502 1.392 . S
C2501 C2505 1.495 . S
C2502 C2501 1.392 . S
C2502 C2503 1.385 . S
C2502 C2504 1.478 . S
C2503 H2497 0.930 1_545 S
C2503 C2499 1.400 1_545 S
C2503 C2502 1.385 . S
C2504 C2502 1.478 . S
C2504 C2506 1.381 . S
C2504 C2510 1.383 . S
C2505 C2501 1.495 . S
C2505 H2511 0.959 . S
C2505 H2512 0.961 . S
C2505 H2513 0.960 . S
C2506 C2504 1.381 . S
C2506 C2507 1.394 . S
C2506 H2514 0.930 . S
C2507 C2506 1.394 . S
C2507 C2508 1.383 . S
C2507 H2515 0.929 1_455 S
C2508 C2507 1.383 . S
C2508 C2509 1.377 . S
C2509 H2493 0.930 . S
C2509 C2508 1.377 . S
C2509 C2510 1.379 . S
C2510 H2494 0.931 . S
C2510 C2504 1.383 . S
C2510 C2509 1.379 . S
H2511 C2505 0.959 . S
H2512 C2505 0.961 . S
H2513 C2505 0.960 . S
H2514 C2506 0.930 . S
H2515 C2507 0.929 1_655 S
H2516 C2524 0.929 . S
H2517 C2526 0.930 . S
H2518 C2528 0.930 . S
H2519 C2531 0.929 . S
H2520 C2534 0.930 . S
H2521 C2536 0.960 . S
H2522 C2536 0.960 . S
H2523 C2536 0.960 . S
C2524 H2516 0.929 . S
C2524 C2525 1.377 . S
C2524 C2526 1.384 . S
C2525 C2524 1.377 . S
C2525 C2531 1.390 . S
C2526 H2517 0.930 . S
C2526 C2524 1.384 . S
C2526 C2527 1.372 . S
C2527 C2526 1.372 . S
C2527 C2528 1.400 . S
C2527 C2532 1.490 . S
C2528 H2518 0.930 . S
C2528 C2527 1.400 . S
C2528 C2531 1.386 . S
H2529 C2545 0.930 . S
H2530 C2546 0.931 . S
C2531 H2519 0.929 . S
C2531 C2525 1.390 . S
C2531 C2528 1.386 . S
C2532 C2527 1.490 . S
C2532 C2534 1.395 . S
C2532 C2535 1.403 . S
H2533 C2539 0.930 . S
C2534 H2520 0.930 . S
C2534 C2532 1.395 . S
C2534 C2537 1.403 . S
C2535 C2532 1.403 . S
C2535 C2536 1.524 . S
C2535 C2539 1.400 . S
C2536 H2521 0.960 . S
C2536 H2522 0.960 . S
C2536 H2523 0.960 . S
C2536 C2535 1.524 . S
C2537 C2534 1.403 . S
C2537 C2538 1.392 . S
C2537 C2541 1.495 . S
C2538 C2537 1.392 . S
C2538 C2539 1.385 . S
C2538 C2540 1.478 . S
C2539 H2533 0.930 . S
C2539 C2535 1.400 . S
C2539 C2538 1.385 . S
C2540 C2538 1.478 . S
C2540 C2542 1.381 . S
C2540 C2546 1.383 . S
C2541 C2537 1.495 . S
C2541 H2547 0.959 . S
C2541 H2548 0.961 . S
C2541 H2549 0.960 . S
C2542 C2540 1.381 . S
C2542 C2543 1.394 . S
C2542 H2550 0.930 . S
C2543 C2542 1.394 . S
C2543 C2544 1.383 . S
C2543 H2551 0.929 . S
C2544 C2543 1.383 . S
C2544 C2545 1.377 . S
C2545 H2529 0.930 . S
C2545 C2544 1.377 . S
C2545 C2546 1.379 . S
C2546 H2530 0.931 . S
C2546 C2540 1.383 . S
C2546 C2545 1.379 . S
H2547 C2541 0.959 . S
H2548 C2541 0.961 . S
H2549 C2541 0.960 . S
H2550 C2542 0.930 . S
H2551 C2543 0.929 . S
H2552 C2560 0.929 . S
H2553 C2562 0.930 . S
H2554 C2564 0.930 . S
H2555 C2567 0.929 . S
H2556 C2570 0.930 . S
H2557 C2572 0.960 1_565 S
H2558 C2572 0.960 . S
H2559 C2572 0.960 . S
C2560 H2552 0.929 . S
C2560 C2561 1.377 . S
C2560 C2562 1.384 . S
C2561 C2560 1.377 . S
C2561 C2567 1.390 . S
C2562 H2553 0.930 . S
C2562 C2560 1.384 . S
C2562 C2563 1.372 . S
C2563 C2562 1.372 . S
C2563 C2564 1.400 . S
C2563 C2568 1.490 . S
C2564 H2554 0.930 . S
C2564 C2563 1.400 . S
C2564 C2567 1.386 . S
H2565 C2581 0.930 . S
H2566 C2582 0.931 . S
C2567 H2555 0.929 . S
C2567 C2561 1.390 . S
C2567 C2564 1.386 . S
C2568 C2563 1.490 . S
C2568 C2570 1.395 . S
C2568 C2571 1.403 . S
H2569 C2575 0.930 . S
C2570 H2556 0.930 . S
C2570 C2568 1.395 . S
C2570 C2573 1.403 . S
C2571 C2568 1.403 . S
C2571 C2572 1.524 . S
C2571 C2575 1.400 . S
C2572 H2557 0.960 1_545 S
C2572 H2558 0.960 . S
C2572 H2559 0.960 . S
C2572 C2571 1.524 . S
C2573 C2570 1.403 . S
C2573 C2574 1.392 . S
C2573 C2577 1.495 . S
C2574 C2573 1.392 . S
C2574 C2575 1.385 . S
C2574 C2576 1.478 . S
C2575 H2569 0.930 . S
C2575 C2571 1.400 . S
C2575 C2574 1.385 . S
C2576 C2574 1.478 . S
C2576 C2578 1.381 . S
C2576 C2582 1.383 . S
C2577 C2573 1.495 . S
C2577 H2583 0.959 . S
C2577 H2584 0.961 . S
C2577 H2585 0.960 . S
C2578 C2576 1.381 . S
C2578 C2579 1.394 . S
C2578 H2586 0.930 . S
C2579 C2578 1.394 . S
C2579 C2580 1.383 . S
C2579 H2587 0.929 . S
C2580 C2579 1.383 . S
C2580 C2581 1.377 . S
C2581 H2565 0.930 . S
C2581 C2580 1.377 . S
C2581 C2582 1.379 . S
C2582 H2566 0.931 . S
C2582 C2576 1.383 . S
C2582 C2581 1.379 . S
H2583 C2577 0.959 . S
H2584 C2577 0.961 . S
H2585 C2577 0.960 . S
H2586 C2578 0.930 . S
H2587 C2579 0.929 . S
H2588 C2596 0.929 . S
H2589 C2598 0.930 . S
H2590 C2600 0.930 . S
H2591 C2603 0.929 . S
H2592 C2606 0.930 . S
H2593 C2608 0.960 . S
H2594 C2608 0.960 . S
H2595 C2608 0.960 . S
C2596 H2588 0.929 . S
C2596 C2597 1.377 . S
C2596 C2598 1.384 . S
C2597 C2596 1.377 . S
C2597 C2603 1.390 . S
C2598 H2589 0.930 . S
C2598 C2596 1.384 . S
C2598 C2599 1.372 . S
C2599 C2598 1.372 . S
C2599 C2600 1.400 . S
C2599 C2604 1.490 . S
C2600 H2590 0.930 . S
C2600 C2599 1.400 . S
C2600 C2603 1.386 . S
H2601 C2617 0.930 . S
H2602 C2618 0.931 . S
C2603 H2591 0.929 . S
C2603 C2597 1.390 . S
C2603 C2600 1.386 . S
C2604 C2599 1.490 . S
C2604 C2606 1.395 . S
C2604 C2607 1.403 . S
H2605 C2611 0.930 . S
C2606 H2592 0.930 . S
C2606 C2604 1.395 . S
C2606 C2609 1.403 . S
C2607 C2604 1.403 . S
C2607 C2608 1.524 . S
C2607 C2611 1.400 . S
C2608 H2593 0.960 . S
C2608 H2594 0.960 . S
C2608 H2595 0.960 . S
C2608 C2607 1.524 . S
C2609 C2606 1.403 . S
C2609 C2610 1.392 . S
C2609 C2613 1.495 . S
C2610 C2609 1.392 . S
C2610 C2611 1.385 . S
C2610 C2612 1.478 . S
C2611 H2605 0.930 . S
C2611 C2607 1.400 . S
C2611 C2610 1.385 . S
C2612 C2610 1.478 . S
C2612 C2614 1.381 . S
C2612 C2618 1.383 . S
C2613 C2609 1.495 . S
C2613 H2619 0.959 . S
C2613 H2620 0.961 . S
C2613 H2621 0.960 . S
C2614 C2612 1.381 . S
C2614 C2615 1.394 . S
C2614 H2622 0.930 . S
C2615 C2614 1.394 . S
C2615 C2616 1.383 . S
C2615 H2623 0.929 . S
C2616 C2615 1.383 . S
C2616 C2617 1.377 . S
C2617 H2601 0.930 . S
C2617 C2616 1.377 . S
C2617 C2618 1.379 . S
C2618 H2602 0.931 . S
C2618 C2612 1.383 . S
C2618 C2617 1.379 . S
H2619 C2613 0.959 . S
H2620 C2613 0.961 . S
H2621 C2613 0.960 . S
H2622 C2614 0.930 . S
H2623 C2615 0.929 . S
H2624 C2632 0.929 . S
H2625 C2634 0.930 . S
H2626 C2636 0.930 . S
H2627 C2639 0.929 . S
H2628 C2642 0.930 . S
H2629 C2644 0.960 . S
H2630 C2644 0.960 1_556 S
H2631 C2644 0.960 . S
C2632 H2624 0.929 . S
C2632 C2633 1.370 1_556 S
C2632 C2634 1.384 . S
C2633 C2632 1.370 1_554 S
C2633 C2639 1.397 . S
C2634 H2625 0.930 . S
C2634 C2632 1.384 . S
C2634 C2635 1.398 . S
C2635 C2634 1.398 . S
C2635 C2636 1.372 1_556 S
C2635 C2640 1.490 . S
C2636 H2626 0.930 . S
C2636 C2635 1.372 1_554 S
C2636 C2639 1.386 . S
H2637 C2653 0.930 . S
H2638 C2654 0.931 . S
C2639 H2627 0.929 . S
C2639 C2633 1.397 . S
C2639 C2636 1.386 . S
C2640 C2635 1.490 . S
C2640 C2642 1.404 . S
C2640 C2643 1.397 1_556 S
H2641 C2647 0.930 . S
C2642 H2628 0.930 . S
C2642 C2640 1.404 . S
C2642 C2645 1.403 . S
C2643 C2640 1.397 1_554 S
C2643 C2644 1.524 . S
C2643 C2647 1.400 . S
C2644 H2629 0.960 . S
C2644 H2630 0.960 1_554 S
C2644 H2631 0.960 . S
C2644 C2643 1.524 . S
C2645 C2642 1.403 . S
C2645 C2646 1.398 . S
C2645 C2649 1.495 . S
C2646 C2645 1.398 . S
C2646 C2647 1.379 1_556 S
C2646 C2648 1.479 . S
C2647 H2641 0.930 . S
C2647 C2643 1.400 . S
C2647 C2646 1.379 1_554 S
C2648 C2646 1.479 . S
C2648 C2650 1.377 . S
C2648 C2654 1.386 1_556 S
C2649 C2645 1.495 . S
C2649 H2655 0.959 . S
C2649 H2656 0.961 1_556 S
C2649 H2657 0.960 . S
C2650 C2648 1.377 . S
C2650 C2651 1.394 . S
C2650 H2658 0.930 . S
C2651 C2650 1.394 . S
C2651 C2652 1.365 1_556 S
C2651 H2659 0.929 . S
C2652 C2651 1.365 1_554 S
C2652 C2653 1.395 . S
C2653 H2637 0.930 . S
C2653 C2652 1.395 . S
C2653 C2654 1.379 . S
C2654 H2638 0.931 . S
C2654 C2648 1.386 1_554 S
C2654 C2653 1.379 . S
H2655 C2649 0.959 . S
H2656 C2649 0.961 1_554 S
H2657 C2649 0.960 . S
H2658 C2650 0.930 . S
H2659 C2651 0.929 . S
H2660 C2668 0.929 . S
H2661 C2670 0.930 . S
H2662 C2672 0.930 1_556 S
H2663 C2675 0.929 1_556 S
H2664 C2678 0.930 . S
H2665 C2680 0.960 . S
H2666 C2680 0.960 . S
H2667 C2680 0.960 . S
C2668 H2660 0.929 . S
C2668 C2669 1.377 . S
C2668 C2670 1.384 . S
C2669 C2668 1.377 . S
C2669 C2675 1.390 . S
C2670 H2661 0.930 . S
C2670 C2668 1.384 . S
C2670 C2671 1.372 . S
C2671 C2670 1.372 . S
C2671 C2672 1.400 . S
C2671 C2676 1.490 . S
C2672 H2662 0.930 1_554 S
C2672 C2671 1.400 . S
C2672 C2675 1.386 . S
H2673 C2689 0.930 1_556 S
H2674 C2690 0.931 1_556 S
C2675 H2663 0.929 1_554 S
C2675 C2669 1.390 . S
C2675 C2672 1.386 . S
C2676 C2671 1.490 . S
C2676 C2678 1.395 . S
C2676 C2679 1.403 . S
H2677 C2683 0.930 . S
C2678 H2664 0.930 . S
C2678 C2676 1.395 . S
C2678 C2681 1.403 . S
C2679 C2676 1.403 . S
C2679 C2680 1.524 . S
C2679 C2683 1.400 . S
C2680 H2665 0.960 . S
C2680 H2666 0.960 . S
C2680 H2667 0.960 . S
C2680 C2679 1.524 . S
C2681 C2678 1.403 . S
C2681 C2682 1.392 . S
C2681 C2685 1.495 . S
C2682 C2681 1.392 . S
C2682 C2683 1.385 . S
C2682 C2684 1.478 . S
C2683 H2677 0.930 . S
C2683 C2679 1.400 . S
C2683 C2682 1.385 . S
C2684 C2682 1.478 . S
C2684 C2686 1.381 . S
C2684 C2690 1.383 . S
C2685 C2681 1.495 . S
C2685 H2691 0.959 . S
C2685 H2692 0.961 . S
C2685 H2693 0.960 . S
C2686 C2684 1.381 . S
C2686 C2687 1.394 . S
C2686 H2694 0.930 . S
C2687 C2686 1.394 . S
C2687 C2688 1.383 . S
C2687 H2695 0.929 . S
C2688 C2687 1.383 . S
C2688 C2689 1.377 . S
C2689 H2673 0.930 1_554 S
C2689 C2688 1.377 . S
C2689 C2690 1.379 . S
C2690 H2674 0.931 1_554 S
C2690 C2684 1.383 . S
C2690 C2689 1.379 . S
H2691 C2685 0.959 . S
H2692 C2685 0.961 . S
H2693 C2685 0.960 . S
H2694 C2686 0.930 . S
H2695 C2687 0.929 . S
H2696 C2704 0.929 . S
H2697 C2706 0.930 . S
H2698 C2708 0.930 . S
H2699 C2711 0.929 . S
H2700 C2714 0.930 . S
H2701 C2716 0.960 . S
H2702 C2716 0.960 . S
H2703 C2716 0.960 . S
C2704 H2696 0.929 . S
C2704 C2705 1.377 . S
C2704 C2706 1.384 . S
C2705 C2704 1.377 . S
C2705 C2711 1.390 . S
C2706 H2697 0.930 . S
C2706 C2704 1.384 . S
C2706 C2707 1.372 . S
C2707 C2706 1.372 . S
C2707 C2708 1.400 . S
C2707 C2712 1.490 . S
C2708 H2698 0.930 . S
C2708 C2707 1.400 . S
C2708 C2711 1.386 . S
H2709 C2725 0.930 . S
H2710 C2726 0.931 . S
C2711 H2699 0.929 . S
C2711 C2705 1.390 . S
C2711 C2708 1.386 . S
C2712 C2707 1.490 . S
C2712 C2714 1.395 . S
C2712 C2715 1.403 . S
H2713 C2719 0.930 . S
C2714 H2700 0.930 . S
C2714 C2712 1.395 . S
C2714 C2717 1.403 . S
C2715 C2712 1.403 . S
C2715 C2716 1.524 . S
C2715 C2719 1.400 . S
C2716 H2701 0.960 . S
C2716 H2702 0.960 . S
C2716 H2703 0.960 . S
C2716 C2715 1.524 . S
C2717 C2714 1.403 . S
C2717 C2718 1.392 . S
C2717 C2721 1.495 . S
C2718 C2717 1.392 . S
C2718 C2719 1.385 . S
C2718 C2720 1.478 . S
C2719 H2713 0.930 . S
C2719 C2715 1.400 . S
C2719 C2718 1.385 . S
C2720 C2718 1.478 . S
C2720 C2722 1.381 . S
C2720 C2726 1.383 . S
C2721 C2717 1.495 . S
C2721 H2727 0.959 . S
C2721 H2728 0.961 . S
C2721 H2729 0.960 . S
C2722 C2720 1.381 . S
C2722 C2723 1.394 . S
C2722 H2730 0.930 . S
C2723 C2722 1.394 . S
C2723 C2724 1.383 . S
C2723 H2731 0.929 . S
C2724 C2723 1.383 . S
C2724 C2725 1.377 . S
C2725 H2709 0.930 . S
C2725 C2724 1.377 . S
C2725 C2726 1.379 . S
C2726 H2710 0.931 . S
C2726 C2720 1.383 . S
C2726 C2725 1.379 . S
H2727 C2721 0.959 . S
H2728 C2721 0.961 . S
H2729 C2721 0.960 . S
H2730 C2722 0.930 . S
H2731 C2723 0.929 . S
H2732 C2740 0.929 . S
H2733 C2742 0.930 . S
H2734 C2744 0.930 . S
H2735 C2747 0.929 . S
H2736 C2750 0.930 . S
H2737 C2752 0.960 . S
H2738 C2752 0.960 . S
H2739 C2752 0.960 . S
C2740 H2732 0.929 . S
C2740 C2741 1.377 . S
C2740 C2742 1.384 . S
C2741 C2740 1.377 . S
C2741 C2747 1.390 . S
C2742 H2733 0.930 . S
C2742 C2740 1.384 . S
C2742 C2743 1.372 . S
C2743 C2742 1.372 . S
C2743 C2744 1.400 . S
C2743 C2748 1.490 . S
C2744 H2734 0.930 . S
C2744 C2743 1.400 . S
C2744 C2747 1.386 . S
H2745 C2761 0.930 . S
H2746 C2762 0.931 . S
C2747 H2735 0.929 . S
C2747 C2741 1.390 . S
C2747 C2744 1.386 . S
C2748 C2743 1.490 . S
C2748 C2750 1.395 . S
C2748 C2751 1.403 . S
H2749 C2755 0.930 . S
C2750 H2736 0.930 . S
C2750 C2748 1.395 . S
C2750 C2753 1.403 . S
C2751 C2748 1.403 . S
C2751 C2752 1.524 . S
C2751 C2755 1.400 . S
C2752 H2737 0.960 . S
C2752 H2738 0.960 . S
C2752 H2739 0.960 . S
C2752 C2751 1.524 . S
C2753 C2750 1.403 . S
C2753 C2754 1.392 . S
C2753 C2757 1.495 . S
C2754 C2753 1.392 . S
C2754 C2755 1.385 . S
C2754 C2756 1.478 . S
C2755 H2749 0.930 . S
C2755 C2751 1.400 . S
C2755 C2754 1.385 . S
C2756 C2754 1.478 . S
C2756 C2758 1.381 . S
C2756 C2762 1.383 . S
C2757 C2753 1.495 . S
C2757 H2763 0.959 . S
C2757 H2764 0.961 . S
C2757 H2765 0.960 . S
C2758 C2756 1.381 . S
C2758 C2759 1.394 . S
C2758 H2766 0.930 . S
C2759 C2758 1.394 . S
C2759 C2760 1.383 . S
C2759 H2767 0.929 . S
C2760 C2759 1.383 . S
C2760 C2761 1.377 . S
C2761 H2745 0.930 . S
C2761 C2760 1.377 . S
C2761 C2762 1.379 . S
C2762 H2746 0.931 . S
C2762 C2756 1.383 . S
C2762 C2761 1.379 . S
H2763 C2757 0.959 . S
H2764 C2757 0.961 . S
H2765 C2757 0.960 . S
H2766 C2758 0.930 . S
H2767 C2759 0.929 . S
H2768 C2776 0.929 . S
H2769 C2778 0.930 . S
H2770 C2780 0.930 . S
H2771 C2783 0.929 . S
H2772 C2786 0.930 . S
H2773 C2788 0.960 . S
H2774 C2788 0.960 . S
H2775 C2788 0.960 . S
C2776 H2768 0.929 . S
C2776 C2777 1.377 . S
C2776 C2778 1.384 . S
C2777 C2776 1.377 . S
C2777 C2783 1.390 . S
C2778 H2769 0.930 . S
C2778 C2776 1.384 . S
C2778 C2779 1.372 . S
C2779 C2778 1.372 . S
C2779 C2780 1.400 . S
C2779 C2784 1.490 . S
C2780 H2770 0.930 . S
C2780 C2779 1.400 . S
C2780 C2783 1.386 . S
H2781 C2797 0.930 . S
H2782 C2798 0.931 . S
C2783 H2771 0.929 . S
C2783 C2777 1.390 . S
C2783 C2780 1.386 . S
C2784 C2779 1.490 . S
C2784 C2786 1.395 . S
C2784 C2787 1.403 . S
H2785 C2791 0.930 . S
C2786 H2772 0.930 . S
C2786 C2784 1.395 . S
C2786 C2789 1.403 . S
C2787 C2784 1.403 . S
C2787 C2788 1.524 . S
C2787 C2791 1.400 . S
C2788 H2773 0.960 . S
C2788 H2774 0.960 . S
C2788 H2775 0.960 . S
C2788 C2787 1.524 . S
C2789 C2786 1.403 . S
C2789 C2790 1.392 . S
C2789 C2793 1.495 . S
C2790 C2789 1.392 . S
C2790 C2791 1.385 . S
C2790 C2792 1.478 . S
C2791 H2785 0.930 . S
C2791 C2787 1.400 . S
C2791 C2790 1.385 . S
C2792 C2790 1.478 . S
C2792 C2794 1.381 . S
C2792 C2798 1.383 . S
C2793 C2789 1.495 . S
C2793 H2799 0.959 . S
C2793 H2800 0.961 . S
C2793 H2801 0.960 . S
C2794 C2792 1.381 . S
C2794 C2795 1.394 . S
C2794 H2802 0.930 . S
C2795 C2794 1.394 . S
C2795 C2796 1.383 . S
C2795 H2803 0.929 . S
C2796 C2795 1.383 . S
C2796 C2797 1.377 . S
C2797 H2781 0.930 . S
C2797 C2796 1.377 . S
C2797 C2798 1.379 . S
C2798 H2782 0.931 . S
C2798 C2792 1.383 . S
C2798 C2797 1.379 . S
H2799 C2793 0.959 . S
H2800 C2793 0.961 . S
H2801 C2793 0.960 . S
H2802 C2794 0.930 . S
H2803 C2795 0.929 . S
H2804 C2812 0.929 . S
H2805 C2814 0.930 . S
H2806 C2816 0.930 . S
H2807 C2819 0.929 . S
H2808 C2822 0.930 . S
H2809 C2824 0.960 . S
H2810 C2824 0.960 . S
H2811 C2824 0.960 . S
C2812 H2804 0.929 . S
C2812 C2813 1.377 . S
C2812 C2814 1.384 . S
C2813 C2812 1.377 . S
C2813 C2819 1.390 . S
C2814 H2805 0.930 . S
C2814 C2812 1.384 . S
C2814 C2815 1.372 . S
C2815 C2814 1.372 . S
C2815 C2816 1.400 . S
C2815 C2820 1.490 . S
C2816 H2806 0.930 . S
C2816 C2815 1.400 . S
C2816 C2819 1.386 . S
H2817 C2833 0.930 1_545 S
H2818 C2834 0.931 . S
C2819 H2807 0.929 . S
C2819 C2813 1.390 . S
C2819 C2816 1.386 . S
C2820 C2815 1.490 . S
C2820 C2822 1.395 . S
C2820 C2823 1.403 . S
H2821 C2827 0.930 . S
C2822 H2808 0.930 . S
C2822 C2820 1.395 . S
C2822 C2825 1.403 . S
C2823 C2820 1.403 . S
C2823 C2824 1.524 . S
C2823 C2827 1.400 . S
C2824 H2809 0.960 . S
C2824 H2810 0.960 . S
C2824 H2811 0.960 . S
C2824 C2823 1.524 . S
C2825 C2822 1.403 . S
C2825 C2826 1.392 . S
C2825 C2829 1.495 . S
C2826 C2825 1.392 . S
C2826 C2827 1.385 . S
C2826 C2828 1.478 . S
C2827 H2821 0.930 . S
C2827 C2823 1.400 . S
C2827 C2826 1.385 . S
C2828 C2826 1.478 . S
C2828 C2830 1.381 . S
C2828 C2834 1.383 . S
C2829 C2825 1.495 . S
C2829 H2835 0.959 . S
C2829 H2836 0.961 . S
C2829 H2837 0.960 . S
C2830 C2828 1.381 . S
C2830 C2831 1.394 . S
C2830 H2838 0.930 . S
C2831 C2830 1.394 . S
C2831 C2832 1.383 1_565 S
C2831 H2839 0.929 . S
C2832 C2831 1.383 1_545 S
C2832 C2833 1.377 1_545 S
C2833 H2817 0.930 1_565 S
C2833 C2832 1.377 1_565 S
C2833 C2834 1.379 . S
C2834 H2818 0.931 . S
C2834 C2828 1.383 . S
C2834 C2833 1.379 . S
H2835 C2829 0.959 . S
H2836 C2829 0.961 . S
H2837 C2829 0.960 . S
H2838 C2830 0.930 . S
H2839 C2831 0.929 . S
H2840 C2848 0.929 . S
H2841 C2850 0.930 . S
H2842 C2852 0.930 . S
H2843 C2855 0.929 . S
H2844 C2858 0.930 . S
H2845 C2860 0.960 . S
H2846 C2860 0.960 . S
H2847 C2860 0.960 . S
C2848 H2840 0.929 . S
C2848 C2849 1.377 . S
C2848 C2850 1.384 . S
C2849 C2848 1.377 . S
C2849 C2855 1.390 . S
C2850 H2841 0.930 . S
C2850 C2848 1.384 . S
C2850 C2851 1.372 . S
C2851 C2850 1.372 . S
C2851 C2852 1.400 . S
C2851 C2856 1.490 . S
C2852 H2842 0.930 . S
C2852 C2851 1.400 . S
C2852 C2855 1.386 . S
H2853 C2869 0.930 . S
H2854 C2870 0.931 . S
C2855 H2843 0.929 . S
C2855 C2849 1.390 . S
C2855 C2852 1.386 . S
C2856 C2851 1.490 . S
C2856 C2858 1.395 . S
C2856 C2859 1.403 . S
H2857 C2863 0.930 . S
C2858 H2844 0.930 . S
C2858 C2856 1.395 . S
C2858 C2861 1.403 . S
C2859 C2856 1.403 . S
C2859 C2860 1.524 . S
C2859 C2863 1.400 . S
C2860 H2845 0.960 . S
C2860 H2846 0.960 . S
C2860 H2847 0.960 . S
C2860 C2859 1.524 . S
C2861 C2858 1.403 . S
C2861 C2862 1.392 . S
C2861 C2865 1.495 . S
C2862 C2861 1.392 . S
C2862 C2863 1.385 . S
C2862 C2864 1.478 . S
C2863 H2857 0.930 . S
C2863 C2859 1.400 . S
C2863 C2862 1.385 . S
C2864 C2862 1.478 . S
C2864 C2866 1.381 . S
C2864 C2870 1.383 . S
C2865 C2861 1.495 . S
C2865 H2871 0.959 . S
C2865 H2872 0.961 . S
C2865 H2873 0.960 . S
C2866 C2864 1.381 . S
C2866 C2867 1.394 . S
C2866 H2874 0.930 . S
C2867 C2866 1.394 . S
C2867 C2868 1.383 . S
C2867 H2875 0.929 . S
C2868 C2867 1.383 . S
C2868 C2869 1.377 . S
C2869 H2853 0.930 . S
C2869 C2868 1.377 . S
C2869 C2870 1.379 . S
C2870 H2854 0.931 . S
C2870 C2864 1.383 . S
C2870 C2869 1.379 . S
H2871 C2865 0.959 . S
H2872 C2865 0.961 . S
H2873 C2865 0.960 . S
H2874 C2866 0.930 . S
H2875 C2867 0.929 . S
H2876 C2884 0.929 . S
H2877 C2886 0.930 . S
H2878 C2888 0.930 . S
H2879 C2891 0.929 . S
H2880 C2894 0.930 . S
H2881 C2896 0.960 . S
H2882 C2896 0.960 . S
H2883 C2896 0.960 . S
C2884 H2876 0.929 . S
C2884 C2885 1.377 . S
C2884 C2886 1.384 . S
C2885 C2884 1.377 . S
C2885 C2891 1.390 . S
C2886 H2877 0.930 . S
C2886 C2884 1.384 . S
C2886 C2887 1.372 . S
C2887 C2886 1.372 . S
C2887 C2888 1.400 . S
C2887 C2892 1.490 . S
C2888 H2878 0.930 . S
C2888 C2887 1.400 . S
C2888 C2891 1.386 . S
H2889 C2905 0.930 . S
H2890 C2906 0.931 . S
C2891 H2879 0.929 . S
C2891 C2885 1.390 . S
C2891 C2888 1.386 . S
C2892 C2887 1.490 . S
C2892 C2894 1.395 . S
C2892 C2895 1.403 . S
H2893 C2899 0.930 . S
C2894 H2880 0.930 . S
C2894 C2892 1.395 . S
C2894 C2897 1.403 . S
C2895 C2892 1.403 . S
C2895 C2896 1.524 . S
C2895 C2899 1.400 . S
C2896 H2881 0.960 . S
C2896 H2882 0.960 . S
C2896 H2883 0.960 . S
C2896 C2895 1.524 . S
C2897 C2894 1.403 . S
C2897 C2898 1.392 . S
C2897 C2901 1.495 . S
C2898 C2897 1.392 . S
C2898 C2899 1.385 . S
C2898 C2900 1.478 . S
C2899 H2893 0.930 . S
C2899 C2895 1.400 . S
C2899 C2898 1.385 . S
C2900 C2898 1.478 . S
C2900 C2902 1.381 . S
C2900 C2906 1.383 . S
C2901 C2897 1.495 . S
C2901 H2907 0.959 . S
C2901 H2908 0.961 . S
C2901 H2909 0.960 . S
C2902 C2900 1.381 . S
C2902 C2903 1.394 . S
C2902 H2910 0.930 . S
C2903 C2902 1.394 . S
C2903 C2904 1.383 . S
C2903 H2911 0.929 . S
C2904 C2903 1.383 . S
C2904 C2905 1.377 . S
C2905 H2889 0.930 . S
C2905 C2904 1.377 . S
C2905 C2906 1.379 . S
C2906 H2890 0.931 . S
C2906 C2900 1.383 . S
C2906 C2905 1.379 . S
H2907 C2901 0.959 . S
H2908 C2901 0.961 . S
H2909 C2901 0.960 . S
H2910 C2902 0.930 . S
H2911 C2903 0.929 . S
H2912 C2920 0.929 . S
H2913 C2922 0.930 . S
H2914 C2924 0.930 . S
H2915 C2927 0.929 . S
H2916 C2930 0.930 . S
H2917 C2932 0.960 . S
H2918 C2932 0.960 . S
H2919 C2932 0.960 . S
C2920 H2912 0.929 . S
C2920 C2921 1.377 . S
C2920 C2922 1.384 . S
C2921 C2920 1.377 . S
C2921 C2927 1.390 . S
C2922 H2913 0.930 . S
C2922 C2920 1.384 . S
C2922 C2923 1.372 . S
C2923 C2922 1.372 . S
C2923 C2924 1.400 . S
C2923 C2928 1.490 . S
C2924 H2914 0.930 . S
C2924 C2923 1.400 . S
C2924 C2927 1.386 . S
H2925 C2941 0.930 . S
H2926 C2942 0.931 . S
C2927 H2915 0.929 . S
C2927 C2921 1.390 . S
C2927 C2924 1.386 . S
C2928 C2923 1.490 . S
C2928 C2930 1.395 . S
C2928 C2931 1.403 . S
H2929 C2935 0.930 . S
C2930 H2916 0.930 . S
C2930 C2928 1.395 . S
C2930 C2933 1.403 . S
C2931 C2928 1.403 . S
C2931 C2932 1.524 . S
C2931 C2935 1.400 . S
C2932 H2917 0.960 . S
C2932 H2918 0.960 . S
C2932 H2919 0.960 . S
C2932 C2931 1.524 . S
C2933 C2930 1.403 . S
C2933 C2934 1.392 . S
C2933 C2937 1.495 . S
C2934 C2933 1.392 . S
C2934 C2935 1.385 . S
C2934 C2936 1.478 . S
C2935 H2929 0.930 . S
C2935 C2931 1.400 . S
C2935 C2934 1.385 . S
C2936 C2934 1.478 . S
C2936 C2938 1.381 . S
C2936 C2942 1.383 . S
C2937 C2933 1.495 . S
C2937 H2943 0.959 . S
C2937 H2944 0.961 . S
C2937 H2945 0.960 . S
C2938 C2936 1.381 . S
C2938 C2939 1.394 . S
C2938 H2946 0.930 . S
C2939 C2938 1.394 . S
C2939 C2940 1.383 . S
C2939 H2947 0.929 . S
C2940 C2939 1.383 . S
C2940 C2941 1.377 . S
C2941 H2925 0.930 . S
C2941 C2940 1.377 . S
C2941 C2942 1.379 . S
C2942 H2926 0.931 . S
C2942 C2936 1.383 . S
C2942 C2941 1.379 . S
H2943 C2937 0.959 . S
H2944 C2937 0.961 . S
H2945 C2937 0.960 . S
H2946 C2938 0.930 . S
H2947 C2939 0.929 . S
H2948 C2956 0.929 . S
H2949 C2958 0.930 . S
H2950 C2960 0.930 . S
H2951 C2963 0.929 . S
H2952 C2966 0.930 . S
H2953 C2968 0.960 . S
H2954 C2968 0.960 . S
H2955 C2968 0.960 . S
C2956 H2948 0.929 . S
C2956 C2957 1.377 . S
C2956 C2958 1.384 . S
C2957 C2956 1.377 . S
C2957 C2963 1.390 . S
C2958 H2949 0.930 . S
C2958 C2956 1.384 . S
C2958 C2959 1.372 . S
C2959 C2958 1.372 . S
C2959 C2960 1.400 . S
C2959 C2964 1.490 . S
C2960 H2950 0.930 . S
C2960 C2959 1.400 . S
C2960 C2963 1.386 . S
H2961 C2977 0.930 . S
H2962 C2978 0.931 . S
C2963 H2951 0.929 . S
C2963 C2957 1.390 . S
C2963 C2960 1.386 . S
C2964 C2959 1.490 . S
C2964 C2966 1.395 . S
C2964 C2967 1.403 . S
H2965 C2971 0.930 . S
C2966 H2952 0.930 . S
C2966 C2964 1.395 . S
C2966 C2969 1.403 . S
C2967 C2964 1.403 . S
C2967 C2968 1.524 . S
C2967 C2971 1.400 . S
C2968 H2953 0.960 . S
C2968 H2954 0.960 . S
C2968 H2955 0.960 . S
C2968 C2967 1.524 . S
C2969 C2966 1.403 . S
C2969 C2970 1.392 . S
C2969 C2973 1.495 . S
C2970 C2969 1.392 . S
C2970 C2971 1.385 . S
C2970 C2972 1.478 . S
C2971 H2965 0.930 . S
C2971 C2967 1.400 . S
C2971 C2970 1.385 . S
C2972 C2970 1.478 . S
C2972 C2974 1.381 . S
C2972 C2978 1.383 . S
C2973 C2969 1.495 . S
C2973 H2979 0.959 . S
C2973 H2980 0.961 . S
C2973 H2981 0.960 . S
C2974 C2972 1.381 . S
C2974 C2975 1.394 . S
C2974 H2982 0.930 . S
C2975 C2974 1.394 . S
C2975 C2976 1.383 . S
C2975 H2983 0.929 . S
C2976 C2975 1.383 . S
C2976 C2977 1.377 . S
C2977 H2961 0.930 . S
C2977 C2976 1.377 . S
C2977 C2978 1.379 . S
C2978 H2962 0.931 . S
C2978 C2972 1.383 . S
C2978 C2977 1.379 . S
H2979 C2973 0.959 . S
H2980 C2973 0.961 . S
H2981 C2973 0.960 . S
H2982 C2974 0.930 . S
H2983 C2975 0.929 . S
H2984 C2992 0.929 . S
H2985 C2994 0.930 . S
H2986 C2996 0.930 . S
H2987 C2999 0.929 . S
H2988 C3002 0.930 . S
H2989 C3004 0.960 . S
H2990 C3004 0.960 . S
H2991 C3004 0.960 . S
C2992 H2984 0.929 . S
C2992 C2993 1.377 . S
C2992 C2994 1.384 . S
C2993 C2992 1.377 . S
C2993 C2999 1.390 . S
C2994 H2985 0.930 . S
C2994 C2992 1.384 . S
C2994 C2995 1.372 . S
C2995 C2994 1.372 . S
C2995 C2996 1.400 . S
C2995 C3000 1.490 . S
C2996 H2986 0.930 . S
C2996 C2995 1.400 . S
C2996 C2999 1.386 . S
H2997 C3013 0.930 1_654 S
H2998 C3014 0.931 1_655 S
C2999 H2987 0.929 . S
C2999 C2993 1.390 . S
C2999 C2996 1.386 . S
C3000 C2995 1.490 . S
C3000 C3002 1.395 1_455 S
C3000 C3003 1.403 . S
H3001 C3007 0.930 . S
C3002 H2988 0.930 . S
C3002 C3000 1.395 1_655 S
C3002 C3005 1.403 . S
C3003 C3000 1.403 . S
C3003 C3004 1.524 . S
C3003 C3007 1.400 . S
C3004 H2989 0.960 . S
C3004 H2990 0.960 . S
C3004 H2991 0.960 . S
C3004 C3003 1.524 . S
C3005 C3002 1.403 . S
C3005 C3006 1.392 1_655 S
C3005 C3009 1.495 . S
C3006 C3005 1.392 1_455 S
C3006 C3007 1.385 . S
C3006 C3008 1.478 . S
C3007 H3001 0.930 . S
C3007 C3003 1.400 . S
C3007 C3006 1.385 . S
C3008 C3006 1.478 . S
C3008 C3010 1.381 . S
C3008 C3014 1.383 . S
C3009 C3005 1.495 . S
C3009 H3015 0.959 . S
C3009 H3016 0.961 . S
C3009 H3017 0.960 . S
C3010 C3008 1.381 . S
C3010 C3011 1.394 . S
C3010 H3018 0.930 . S
C3011 C3010 1.394 . S
C3011 C3012 1.383 . S
C3011 H3019 0.929 . S
C3012 C3011 1.383 . S
C3012 C3013 1.377 . S
C3013 H2997 0.930 1_456 S
C3013 C3012 1.377 . S
C3013 C3014 1.379 . S
C3014 H2998 0.931 1_455 S
C3014 C3008 1.383 . S
C3014 C3013 1.379 . S
H3015 C3009 0.959 . S
H3016 C3009 0.961 . S
H3017 C3009 0.960 . S
H3018 C3010 0.930 . S
H3019 C3011 0.929 . S
H3020 C3028 0.929 . S
H3021 C3030 0.930 . S
H3022 C3032 0.930 . S
H3023 C3035 0.929 . S
H3024 C3038 0.930 . S
H3025 C3040 0.960 . S
H3026 C3040 0.960 . S
H3027 C3040 0.960 . S
C3028 H3020 0.929 . S
C3028 C3029 1.377 . S
C3028 C3030 1.384 . S
C3029 C3028 1.377 . S
C3029 C3035 1.390 . S
C3030 H3021 0.930 . S
C3030 C3028 1.384 . S
C3030 C3031 1.372 . S
C3031 C3030 1.372 . S
C3031 C3032 1.400 . S
C3031 C3036 1.490 . S
C3032 H3022 0.930 . S
C3032 C3031 1.400 . S
C3032 C3035 1.386 . S
H3033 C3049 0.930 . S
H3034 C3050 0.931 . S
C3035 H3023 0.929 . S
C3035 C3029 1.390 . S
C3035 C3032 1.386 . S
C3036 C3031 1.490 . S
C3036 C3038 1.395 . S
C3036 C3039 1.403 . S
H3037 C3043 0.930 . S
C3038 H3024 0.930 . S
C3038 C3036 1.395 . S
C3038 C3041 1.403 . S
C3039 C3036 1.403 . S
C3039 C3040 1.524 . S
C3039 C3043 1.400 . S
C3040 H3025 0.960 . S
C3040 H3026 0.960 . S
C3040 H3027 0.960 . S
C3040 C3039 1.524 . S
C3041 C3038 1.403 . S
C3041 C3042 1.392 . S
C3041 C3045 1.495 . S
C3042 C3041 1.392 . S
C3042 C3043 1.385 . S
C3042 C3044 1.478 . S
C3043 H3037 0.930 . S
C3043 C3039 1.400 . S
C3043 C3042 1.385 . S
C3044 C3042 1.478 . S
C3044 C3046 1.381 . S
C3044 C3050 1.383 . S
C3045 C3041 1.495 . S
C3045 H3051 0.959 . S
C3045 H3052 0.961 . S
C3045 H3053 0.960 . S
C3046 C3044 1.381 . S
C3046 C3047 1.394 . S
C3046 H3054 0.930 . S
C3047 C3046 1.394 . S
C3047 C3048 1.383 . S
C3047 H3055 0.929 . S
C3048 C3047 1.383 . S
C3048 C3049 1.377 . S
C3049 H3033 0.930 . S
C3049 C3048 1.377 . S
C3049 C3050 1.379 . S
C3050 H3034 0.931 . S
C3050 C3044 1.383 . S
C3050 C3049 1.379 . S
H3051 C3045 0.959 . S
H3052 C3045 0.961 . S
H3053 C3045 0.960 . S
H3054 C3046 0.930 . S
H3055 C3047 0.929 . S
H3056 C3064 0.929 . S
H3057 C3066 0.930 . S
H3058 C3068 0.930 . S
H3059 C3071 0.929 . S
H3060 C3074 0.930 . S
H3061 C3076 0.960 . S
H3062 C3076 0.960 . S
H3063 C3076 0.960 . S
C3064 H3056 0.929 . S
C3064 C3065 1.377 . S
C3064 C3066 1.384 . S
C3065 C3064 1.377 . S
C3065 C3071 1.390 . S
C3066 H3057 0.930 . S
C3066 C3064 1.384 . S
C3066 C3067 1.372 . S
C3067 C3066 1.372 . S
C3067 C3068 1.400 . S
C3067 C3072 1.490 . S
C3068 H3058 0.930 . S
C3068 C3067 1.400 . S
C3068 C3071 1.386 . S
H3069 C3085 0.930 . S
H3070 C3086 0.931 . S
C3071 H3059 0.929 . S
C3071 C3065 1.390 . S
C3071 C3068 1.386 . S
C3072 C3067 1.490 . S
C3072 C3074 1.395 . S
C3072 C3075 1.403 . S
H3073 C3079 0.930 . S
C3074 H3060 0.930 . S
C3074 C3072 1.395 . S
C3074 C3077 1.403 . S
C3075 C3072 1.403 . S
C3075 C3076 1.524 . S
C3075 C3079 1.400 . S
C3076 H3061 0.960 . S
C3076 H3062 0.960 . S
C3076 H3063 0.960 . S
C3076 C3075 1.524 . S
C3077 C3074 1.403 . S
C3077 C3078 1.392 . S
C3077 C3081 1.495 . S
C3078 C3077 1.392 . S
C3078 C3079 1.385 . S
C3078 C3080 1.478 . S
C3079 H3073 0.930 . S
C3079 C3075 1.400 . S
C3079 C3078 1.385 . S
C3080 C3078 1.478 . S
C3080 C3082 1.381 . S
C3080 C3086 1.383 . S
C3081 C3077 1.495 . S
C3081 H3087 0.959 . S
C3081 H3088 0.961 . S
C3081 H3089 0.960 . S
C3082 C3080 1.381 . S
C3082 C3083 1.394 . S
C3082 H3090 0.930 . S
C3083 C3082 1.394 . S
C3083 C3084 1.383 . S
C3083 H3091 0.929 . S
C3084 C3083 1.383 . S
C3084 C3085 1.377 . S
C3085 H3069 0.930 . S
C3085 C3084 1.377 . S
C3085 C3086 1.379 . S
C3086 H3070 0.931 . S
C3086 C3080 1.383 . S
C3086 C3085 1.379 . S
H3087 C3081 0.959 . S
H3088 C3081 0.961 . S
H3089 C3081 0.960 . S
H3090 C3082 0.930 . S
H3091 C3083 0.929 . S
H3092 C3100 0.929 . S
H3093 C3102 0.930 . S
H3094 C3104 0.930 . S
H3095 C3107 0.929 . S
H3096 C3110 0.930 . S
H3097 C3112 0.960 . S
H3098 C3112 0.960 . S
H3099 C3112 0.960 . S
C3100 H3092 0.929 . S
C3100 C3101 1.377 . S
C3100 C3102 1.384 . S
C3101 C3100 1.377 . S
C3101 C3107 1.390 . S
C3102 H3093 0.930 . S
C3102 C3100 1.384 . S
C3102 C3103 1.372 . S
C3103 C3102 1.372 . S
C3103 C3104 1.400 . S
C3103 C3108 1.490 . S
C3104 H3094 0.930 . S
C3104 C3103 1.400 . S
C3104 C3107 1.386 . S
H3105 C3121 0.930 . S
H3106 C3122 0.931 . S
C3107 H3095 0.929 . S
C3107 C3101 1.390 . S
C3107 C3104 1.386 . S
C3108 C3103 1.490 . S
C3108 C3110 1.395 . S
C3108 C3111 1.403 . S
H3109 C3115 0.930 . S
C3110 H3096 0.930 . S
C3110 C3108 1.395 . S
C3110 C3113 1.403 . S
C3111 C3108 1.403 . S
C3111 C3112 1.524 . S
C3111 C3115 1.400 . S
C3112 H3097 0.960 . S
C3112 H3098 0.960 . S
C3112 H3099 0.960 . S
C3112 C3111 1.524 . S
C3113 C3110 1.403 . S
C3113 C3114 1.392 . S
C3113 C3117 1.495 . S
C3114 C3113 1.392 . S
C3114 C3115 1.385 . S
C3114 C3116 1.478 . S
C3115 H3109 0.930 . S
C3115 C3111 1.400 . S
C3115 C3114 1.385 . S
C3116 C3114 1.478 . S
C3116 C3118 1.381 . S
C3116 C3122 1.383 . S
C3117 C3113 1.495 . S
C3117 H3123 0.959 . S
C3117 H3124 0.961 . S
C3117 H3125 0.960 . S
C3118 C3116 1.381 . S
C3118 C3119 1.394 . S
C3118 H3126 0.930 . S
C3119 C3118 1.394 . S
C3119 C3120 1.383 . S
C3119 H3127 0.929 . S
C3120 C3119 1.383 . S
C3120 C3121 1.377 . S
C3121 H3105 0.930 . S
C3121 C3120 1.377 . S
C3121 C3122 1.379 . S
C3122 H3106 0.931 . S
C3122 C3116 1.383 . S
C3122 C3121 1.379 . S
H3123 C3117 0.959 . S
H3124 C3117 0.961 . S
H3125 C3117 0.960 . S
H3126 C3118 0.930 . S
H3127 C3119 0.929 . S
H3128 C3136 0.929 . S
H3129 C3138 0.930 . S
H3130 C3140 0.930 . S
H3131 C3143 0.933 . S
H3132 C3146 0.930 . S
H3133 C3148 0.960 . S
H3134 C3148 0.960 . S
H3135 C3148 0.960 . S
C3136 H3128 0.929 . S
C3136 C3137 1.377 . S
C3136 C3138 1.384 . S
C3137 C3136 1.377 . S
C3137 C3143 1.378 1_655 S
C3138 H3129 0.930 . S
C3138 C3136 1.384 . S
C3138 C3139 1.372 . S
C3139 C3138 1.372 . S
C3139 C3140 1.400 1_655 S
C3139 C3144 1.490 . S
C3140 H3130 0.930 . S
C3140 C3139 1.400 1_455 S
C3140 C3143 1.395 . S
H3141 C3157 0.930 . S
H3142 C3158 0.933 1_455 S
C3143 H3131 0.933 . S
C3143 C3137 1.378 1_455 S
C3143 C3140 1.395 . S
C3144 C3139 1.490 . S
C3144 C3146 1.395 . S
C3144 C3147 1.403 1_655 S
H3145 C3151 0.930 . S
C3146 H3132 0.930 . S
C3146 C3144 1.395 . S
C3146 C3149 1.403 . S
C3147 C3144 1.403 1_455 S
C3147 C3148 1.524 . S
C3147 C3151 1.400 . S
C3148 H3133 0.960 . S
C3148 H3134 0.960 . S
C3148 H3135 0.960 . S
C3148 C3147 1.524 . S
C3149 C3146 1.403 . S
C3149 C3150 1.392 . S
C3149 C3153 1.495 . S
C3150 C3149 1.392 . S
C3150 C3151 1.385 1_655 S
C3150 C3152 1.478 . S
C3151 H3145 0.930 . S
C3151 C3147 1.400 . S
C3151 C3150 1.385 1_455 S
C3152 C3150 1.478 . S
C3152 C3154 1.381 . S
C3152 C3158 1.381 . S
C3153 C3149 1.495 . S
C3153 H3159 0.959 . S
C3153 H3160 0.961 . S
C3153 H3161 0.960 . S
C3154 C3152 1.381 . S
C3154 C3155 1.394 . S
C3154 H3162 0.930 . S
C3155 C3154 1.394 . S
C3155 C3156 1.370 1_655 S
C3155 H3163 0.929 . S
C3156 C3155 1.370 1_455 S
C3156 C3157 1.375 . S
C3157 H3141 0.930 . S
C3157 C3156 1.375 . S
C3157 C3158 1.381 1_455 S
C3158 H3142 0.933 1_655 S
C3158 C3152 1.381 . S
C3158 C3157 1.381 1_655 S
H3159 C3153 0.959 . S
H3160 C3153 0.961 . S
H3161 C3153 0.960 . S
H3162 C3154 0.930 . S
H3163 C3155 0.929 . S
H3164 C3172 0.929 . S
H3165 C3174 0.930 . S
H3166 C3176 0.930 . S
H3167 C3179 0.929 . S
H3168 C3182 0.930 . S
H3169 C3184 0.960 . S
H3170 C3184 0.960 . S
H3171 C3184 0.960 . S
C3172 H3164 0.929 . S
C3172 C3173 1.377 . S
C3172 C3174 1.384 . S
C3173 C3172 1.377 . S
C3173 C3179 1.390 . S
C3174 H3165 0.930 . S
C3174 C3172 1.384 . S
C3174 C3175 1.372 . S
C3175 C3174 1.372 . S
C3175 C3176 1.400 . S
C3175 C3180 1.490 . S
C3176 H3166 0.930 . S
C3176 C3175 1.400 . S
C3176 C3179 1.386 . S
H3177 C3193 0.930 . S
H3178 C3194 0.931 . S
C3179 H3167 0.929 . S
C3179 C3173 1.390 . S
C3179 C3176 1.386 . S
C3180 C3175 1.490 . S
C3180 C3182 1.395 . S
C3180 C3183 1.403 . S
H3181 C3187 0.930 . S
C3182 H3168 0.930 . S
C3182 C3180 1.395 . S
C3182 C3185 1.403 . S
C3183 C3180 1.403 . S
C3183 C3184 1.524 . S
C3183 C3187 1.400 . S
C3184 H3169 0.960 . S
C3184 H3170 0.960 . S
C3184 H3171 0.960 . S
C3184 C3183 1.524 . S
C3185 C3182 1.403 . S
C3185 C3186 1.392 . S
C3185 C3189 1.495 . S
C3186 C3185 1.392 . S
C3186 C3187 1.385 . S
C3186 C3188 1.478 . S
C3187 H3181 0.930 . S
C3187 C3183 1.400 . S
C3187 C3186 1.385 . S
C3188 C3186 1.478 . S
C3188 C3190 1.381 . S
C3188 C3194 1.383 . S
C3189 C3185 1.495 . S
C3189 H3195 0.959 . S
C3189 H3196 0.961 . S
C3189 H3197 0.960 . S
C3190 C3188 1.381 . S
C3190 C3191 1.394 . S
C3190 H3198 0.930 . S
C3191 C3190 1.394 . S
C3191 C3192 1.383 . S
C3191 H3199 0.929 . S
C3192 C3191 1.383 . S
C3192 C3193 1.377 . S
C3193 H3177 0.930 . S
C3193 C3192 1.377 . S
C3193 C3194 1.379 . S
C3194 H3178 0.931 . S
C3194 C3188 1.383 . S
C3194 C3193 1.379 . S
H3195 C3189 0.959 . S
H3196 C3189 0.961 . S
H3197 C3189 0.960 . S
H3198 C3190 0.930 . S
H3199 C3191 0.929 . S
H3200 C3208 0.929 . S
H3201 C3210 0.930 . S
H3202 C3212 0.930 . S
H3203 C3215 0.929 . S
H3204 C3218 0.930 . S
H3205 C3220 0.960 . S
H3206 C3220 0.960 . S
H3207 C3220 0.960 . S
C3208 H3200 0.929 . S
C3208 C3209 1.377 . S
C3208 C3210 1.384 . S
C3209 C3208 1.377 . S
C3209 C3215 1.390 . S
C3210 H3201 0.930 . S
C3210 C3208 1.384 . S
C3210 C3211 1.372 . S
C3211 C3210 1.372 . S
C3211 C3212 1.400 . S
C3211 C3216 1.490 . S
C3212 H3202 0.930 . S
C3212 C3211 1.400 . S
C3212 C3215 1.386 . S
H3213 C3229 0.930 . S
H3214 C3230 0.931 . S
C3215 H3203 0.929 . S
C3215 C3209 1.390 . S
C3215 C3212 1.386 . S
C3216 C3211 1.490 . S
C3216 C3218 1.395 . S
C3216 C3219 1.403 . S
H3217 C3223 0.930 . S
C3218 H3204 0.930 . S
C3218 C3216 1.395 . S
C3218 C3221 1.403 . S
C3219 C3216 1.403 . S
C3219 C3220 1.524 . S
C3219 C3223 1.400 . S
C3220 H3205 0.960 . S
C3220 H3206 0.960 . S
C3220 H3207 0.960 . S
C3220 C3219 1.524 . S
C3221 C3218 1.403 . S
C3221 C3222 1.392 . S
C3221 C3225 1.495 . S
C3222 C3221 1.392 . S
C3222 C3223 1.385 . S
C3222 C3224 1.478 . S
C3223 H3217 0.930 . S
C3223 C3219 1.400 . S
C3223 C3222 1.385 . S
C3224 C3222 1.478 . S
C3224 C3226 1.381 . S
C3224 C3230 1.383 . S
C3225 C3221 1.495 . S
C3225 H3231 0.959 . S
C3225 H3232 0.961 . S
C3225 H3233 0.960 . S
C3226 C3224 1.381 . S
C3226 C3227 1.394 . S
C3226 H3234 0.930 . S
C3227 C3226 1.394 . S
C3227 C3228 1.383 . S
C3227 H3235 0.929 . S
C3228 C3227 1.383 . S
C3228 C3229 1.377 . S
C3229 H3213 0.930 . S
C3229 C3228 1.377 . S
C3229 C3230 1.379 . S
C3230 H3214 0.931 . S
C3230 C3224 1.383 . S
C3230 C3229 1.379 . S
H3231 C3225 0.959 . S
H3232 C3225 0.961 . S
H3233 C3225 0.960 . S
H3234 C3226 0.930 . S
H3235 C3227 0.929 . S
H3236 C3244 0.929 . S
H3237 C3246 0.930 . S
H3238 C3248 0.930 . S
H3239 C3251 0.929 . S
H3240 C3254 0.930 . S
H3241 C3256 0.960 . S
H3242 C3256 0.960 . S
H3243 C3256 0.960 . S
C3244 H3236 0.929 . S
C3244 C3245 1.377 . S
C3244 C3246 1.384 . S
C3245 C3244 1.377 . S
C3245 C3251 1.390 . S
C3246 H3237 0.930 . S
C3246 C3244 1.384 . S
C3246 C3247 1.372 . S
C3247 C3246 1.372 . S
C3247 C3248 1.400 . S
C3247 C3252 1.490 . S
C3248 H3238 0.930 . S
C3248 C3247 1.400 . S
C3248 C3251 1.386 . S
H3249 C3265 0.930 . S
H3250 C3266 0.931 . S
C3251 H3239 0.929 . S
C3251 C3245 1.390 . S
C3251 C3248 1.386 . S
C3252 C3247 1.490 . S
C3252 C3254 1.395 . S
C3252 C3255 1.403 . S
H3253 C3259 0.930 . S
C3254 H3240 0.930 . S
C3254 C3252 1.395 . S
C3254 C3257 1.403 . S
C3255 C3252 1.403 . S
C3255 C3256 1.524 . S
C3255 C3259 1.400 . S
C3256 H3241 0.960 . S
C3256 H3242 0.960 . S
C3256 H3243 0.960 . S
C3256 C3255 1.524 . S
C3257 C3254 1.403 . S
C3257 C3258 1.392 . S
C3257 C3261 1.495 . S
C3258 C3257 1.392 . S
C3258 C3259 1.385 . S
C3258 C3260 1.478 . S
C3259 H3253 0.930 . S
C3259 C3255 1.400 . S
C3259 C3258 1.385 . S
C3260 C3258 1.478 . S
C3260 C3262 1.381 . S
C3260 C3266 1.383 . S
C3261 C3257 1.495 . S
C3261 H3267 0.959 . S
C3261 H3268 0.961 . S
C3261 H3269 0.960 . S
C3262 C3260 1.381 . S
C3262 C3263 1.394 . S
C3262 H3270 0.930 . S
C3263 C3262 1.394 . S
C3263 C3264 1.383 . S
C3263 H3271 0.929 . S
C3264 C3263 1.383 . S
C3264 C3265 1.377 . S
C3265 H3249 0.930 . S
C3265 C3264 1.377 . S
C3265 C3266 1.379 . S
C3266 H3250 0.931 . S
C3266 C3260 1.383 . S
C3266 C3265 1.379 . S
H3267 C3261 0.959 . S
H3268 C3261 0.961 . S
H3269 C3261 0.960 . S
H3270 C3262 0.930 . S
H3271 C3263 0.929 . S
H3272 C3280 0.929 . S
H3273 C3282 0.930 . S
H3274 C3284 0.930 . S
H3275 C3287 0.929 . S
H3276 C3290 0.930 . S
H3277 C3292 0.960 . S
H3278 C3292 0.960 . S
H3279 C3292 0.960 . S
C3280 H3272 0.929 . S
C3280 C3281 1.377 . S
C3280 C3282 1.384 . S
C3281 C3280 1.377 . S
C3281 C3287 1.390 . S
C3282 H3273 0.930 . S
C3282 C3280 1.384 . S
C3282 C3283 1.372 . S
C3283 C3282 1.372 . S
C3283 C3284 1.400 . S
C3283 C3288 1.490 . S
C3284 H3274 0.930 . S
C3284 C3283 1.400 . S
C3284 C3287 1.386 . S
H3285 C3301 0.930 . S
H3286 C3302 0.931 . S
C3287 H3275 0.929 . S
C3287 C3281 1.390 . S
C3287 C3284 1.386 . S
C3288 C3283 1.490 . S
C3288 C3290 1.395 . S
C3288 C3291 1.403 . S
H3289 C3295 0.930 . S
C3290 H3276 0.930 . S
C3290 C3288 1.395 . S
C3290 C3293 1.403 . S
C3291 C3288 1.403 . S
C3291 C3292 1.524 . S
C3291 C3295 1.400 . S
C3292 H3277 0.960 . S
C3292 H3278 0.960 . S
C3292 H3279 0.960 . S
C3292 C3291 1.524 . S
C3293 C3290 1.403 . S
C3293 C3294 1.392 . S
C3293 C3297 1.495 . S
C3294 C3293 1.392 . S
C3294 C3295 1.385 . S
C3294 C3296 1.478 . S
C3295 H3289 0.930 . S
C3295 C3291 1.400 . S
C3295 C3294 1.385 . S
C3296 C3294 1.478 . S
C3296 C3298 1.381 . S
C3296 C3302 1.383 . S
C3297 C3293 1.495 . S
C3297 H3303 0.959 . S
C3297 H3304 0.961 . S
C3297 H3305 0.960 . S
C3298 C3296 1.381 . S
C3298 C3299 1.394 . S
C3298 H3306 0.930 . S
C3299 C3298 1.394 . S
C3299 C3300 1.383 . S
C3299 H3307 0.929 1_455 S
C3300 C3299 1.383 . S
C3300 C3301 1.377 . S
C3301 H3285 0.930 . S
C3301 C3300 1.377 . S
C3301 C3302 1.379 . S
C3302 H3286 0.931 . S
C3302 C3296 1.383 . S
C3302 C3301 1.379 . S
H3303 C3297 0.959 . S
H3304 C3297 0.961 . S
H3305 C3297 0.960 . S
H3306 C3298 0.930 . S
H3307 C3299 0.929 1_655 S
H3308 C3316 0.929 . S
H3309 C3318 0.930 . S
H3310 C3320 0.930 . S
H3311 C3323 0.929 . S
H3312 C3326 0.930 . S
H3313 C3328 0.960 . S
H3314 C3328 0.960 . S
H3315 C3328 0.960 . S
C3316 H3308 0.929 . S
C3316 C3317 1.377 . S
C3316 C3318 1.384 . S
C3317 C3316 1.377 . S
C3317 C3323 1.390 . S
C3318 H3309 0.930 . S
C3318 C3316 1.384 . S
C3318 C3319 1.372 . S
C3319 C3318 1.372 . S
C3319 C3320 1.400 . S
C3319 C3324 1.490 . S
C3320 H3310 0.930 . S
C3320 C3319 1.400 . S
C3320 C3323 1.386 . S
H3321 C3337 0.930 . S
H3322 C3338 0.931 . S
C3323 H3311 0.929 . S
C3323 C3317 1.390 . S
C3323 C3320 1.386 . S
C3324 C3319 1.490 . S
C3324 C3326 1.395 . S
C3324 C3327 1.403 . S
H3325 C3331 0.930 . S
C3326 H3312 0.930 . S
C3326 C3324 1.395 . S
C3326 C3329 1.403 . S
C3327 C3324 1.403 . S
C3327 C3328 1.524 . S
C3327 C3331 1.400 . S
C3328 H3313 0.960 . S
C3328 H3314 0.960 . S
C3328 H3315 0.960 . S
C3328 C3327 1.524 . S
C3329 C3326 1.403 . S
C3329 C3330 1.392 . S
C3329 C3333 1.495 . S
C3330 C3329 1.392 . S
C3330 C3331 1.385 . S
C3330 C3332 1.478 . S
C3331 H3325 0.930 . S
C3331 C3327 1.400 . S
C3331 C3330 1.385 . S
C3332 C3330 1.478 . S
C3332 C3334 1.381 . S
C3332 C3338 1.383 . S
C3333 C3329 1.495 . S
C3333 H3339 0.959 . S
C3333 H3340 0.961 . S
C3333 H3341 0.960 . S
C3334 C3332 1.381 . S
C3334 C3335 1.394 . S
C3334 H3342 0.930 . S
C3335 C3334 1.394 . S
C3335 C3336 1.383 . S
C3335 H3343 0.929 . S
C3336 C3335 1.383 . S
C3336 C3337 1.377 . S
C3337 H3321 0.930 . S
C3337 C3336 1.377 . S
C3337 C3338 1.379 . S
C3338 H3322 0.931 . S
C3338 C3332 1.383 . S
C3338 C3337 1.379 . S
H3339 C3333 0.959 . S
H3340 C3333 0.961 . S
H3341 C3333 0.960 . S
H3342 C3334 0.930 . S
H3343 C3335 0.929 . S
H3344 C3352 0.929 . S
H3345 C3354 0.930 . S
H3346 C3356 0.930 . S
H3347 C3359 0.929 . S
H3348 C3362 0.930 . S
H3349 C3364 0.960 . S
H3350 C3364 0.960 . S
H3351 C3364 0.960 . S
C3352 H3344 0.929 . S
C3352 C3353 1.377 . S
C3352 C3354 1.384 . S
C3353 C3352 1.377 . S
C3353 C3359 1.390 . S
C3354 H3345 0.930 . S
C3354 C3352 1.384 . S
C3354 C3355 1.372 . S
C3355 C3354 1.372 . S
C3355 C3356 1.400 . S
C3355 C3360 1.490 . S
C3356 H3346 0.930 . S
C3356 C3355 1.400 . S
C3356 C3359 1.386 . S
H3357 C3373 0.930 . S
H3358 C3374 0.931 . S
C3359 H3347 0.929 . S
C3359 C3353 1.390 . S
C3359 C3356 1.386 . S
C3360 C3355 1.490 . S
C3360 C3362 1.395 . S
C3360 C3363 1.403 . S
H3361 C3367 0.930 . S
C3362 H3348 0.930 . S
C3362 C3360 1.395 . S
C3362 C3365 1.403 . S
C3363 C3360 1.403 . S
C3363 C3364 1.524 . S
C3363 C3367 1.400 . S
C3364 H3349 0.960 . S
C3364 H3350 0.960 . S
C3364 H3351 0.960 . S
C3364 C3363 1.524 . S
C3365 C3362 1.403 . S
C3365 C3366 1.392 . S
C3365 C3369 1.495 . S
C3366 C3365 1.392 . S
C3366 C3367 1.385 . S
C3366 C3368 1.478 . S
C3367 H3361 0.930 . S
C3367 C3363 1.400 . S
C3367 C3366 1.385 . S
C3368 C3366 1.478 . S
C3368 C3370 1.381 . S
C3368 C3374 1.383 . S
C3369 C3365 1.495 . S
C3369 H3375 0.959 . S
C3369 H3376 0.961 . S
C3369 H3377 0.960 . S
C3370 C3368 1.381 . S
C3370 C3371 1.394 . S
C3370 H3378 0.930 . S
C3371 C3370 1.394 . S
C3371 C3372 1.383 . S
C3371 H3379 0.929 . S
C3372 C3371 1.383 . S
C3372 C3373 1.377 . S
C3373 H3357 0.930 . S
C3373 C3372 1.377 . S
C3373 C3374 1.379 . S
C3374 H3358 0.931 . S
C3374 C3368 1.383 . S
C3374 C3373 1.379 . S
H3375 C3369 0.959 . S
H3376 C3369 0.961 . S
H3377 C3369 0.960 . S
H3378 C3370 0.930 . S
H3379 C3371 0.929 . S
H3380 C3388 0.929 . S
H3381 C3390 0.930 . S
H3382 C3392 0.930 . S
H3383 C3395 0.929 . S
H3384 C3398 0.930 . S
H3385 C3400 0.960 . S
H3386 C3400 0.960 . S
H3387 C3400 0.960 . S
C3388 H3380 0.929 . S
C3388 C3389 1.377 . S
C3388 C3390 1.384 . S
C3389 C3388 1.377 . S
C3389 C3395 1.390 . S
C3390 H3381 0.930 . S
C3390 C3388 1.384 . S
C3390 C3391 1.372 . S
C3391 C3390 1.372 . S
C3391 C3392 1.400 . S
C3391 C3396 1.490 . S
C3392 H3382 0.930 . S
C3392 C3391 1.400 . S
C3392 C3395 1.386 . S
H3393 C3409 0.930 . S
H3394 C3410 0.931 . S
C3395 H3383 0.929 . S
C3395 C3389 1.390 . S
C3395 C3392 1.386 . S
C3396 C3391 1.490 . S
C3396 C3398 1.395 . S
C3396 C3399 1.403 . S
H3397 C3403 0.930 . S
C3398 H3384 0.930 . S
C3398 C3396 1.395 . S
C3398 C3401 1.403 . S
C3399 C3396 1.403 . S
C3399 C3400 1.524 . S
C3399 C3403 1.400 . S
C3400 H3385 0.960 . S
C3400 H3386 0.960 . S
C3400 H3387 0.960 . S
C3400 C3399 1.524 . S
C3401 C3398 1.403 . S
C3401 C3402 1.392 . S
C3401 C3405 1.495 . S
C3402 C3401 1.392 . S
C3402 C3403 1.385 . S
C3402 C3404 1.478 . S
C3403 H3397 0.930 . S
C3403 C3399 1.400 . S
C3403 C3402 1.385 . S
C3404 C3402 1.478 . S
C3404 C3406 1.381 . S
C3404 C3410 1.383 . S
C3405 C3401 1.495 . S
C3405 H3411 0.959 . S
C3405 H3412 0.961 . S
C3405 H3413 0.960 . S
C3406 C3404 1.381 . S
C3406 C3407 1.394 . S
C3406 H3414 0.930 . S
C3407 C3406 1.394 . S
C3407 C3408 1.383 . S
C3407 H3415 0.929 . S
C3408 C3407 1.383 . S
C3408 C3409 1.377 . S
C3409 H3393 0.930 . S
C3409 C3408 1.377 . S
C3409 C3410 1.379 . S
C3410 H3394 0.931 . S
C3410 C3404 1.383 . S
C3410 C3409 1.379 . S
H3411 C3405 0.959 . S
H3412 C3405 0.961 . S
H3413 C3405 0.960 . S
H3414 C3406 0.930 . S
H3415 C3407 0.929 . S
H3416 C3424 0.929 . S
H3417 C3426 0.930 . S
H3418 C3428 0.930 . S
H3419 C3431 0.929 . S
H3420 C3434 0.930 . S
H3421 C3436 0.960 . S
H3422 C3436 0.960 . S
H3423 C3436 0.960 . S
C3424 H3416 0.929 . S
C3424 C3425 1.377 . S
C3424 C3426 1.384 . S
C3425 C3424 1.377 . S
C3425 C3431 1.390 . S
C3426 H3417 0.930 . S
C3426 C3424 1.384 . S
C3426 C3427 1.372 . S
C3427 C3426 1.372 . S
C3427 C3428 1.400 . S
C3427 C3432 1.490 . S
C3428 H3418 0.930 . S
C3428 C3427 1.400 . S
C3428 C3431 1.386 . S
H3429 C3445 0.930 . S
H3430 C3446 0.931 . S
C3431 H3419 0.929 . S
C3431 C3425 1.390 . S
C3431 C3428 1.386 . S
C3432 C3427 1.490 . S
C3432 C3434 1.395 . S
C3432 C3435 1.403 . S
H3433 C3439 0.930 . S
C3434 H3420 0.930 . S
C3434 C3432 1.395 . S
C3434 C3437 1.403 . S
C3435 C3432 1.403 . S
C3435 C3436 1.524 . S
C3435 C3439 1.400 . S
C3436 H3421 0.960 . S
C3436 H3422 0.960 . S
C3436 H3423 0.960 . S
C3436 C3435 1.524 . S
C3437 C3434 1.403 . S
C3437 C3438 1.392 . S
C3437 C3441 1.495 . S
C3438 C3437 1.392 . S
C3438 C3439 1.385 . S
C3438 C3440 1.478 . S
C3439 H3433 0.930 . S
C3439 C3435 1.400 . S
C3439 C3438 1.385 . S
C3440 C3438 1.478 . S
C3440 C3442 1.381 . S
C3440 C3446 1.383 . S
C3441 C3437 1.495 . S
C3441 H3447 0.959 . S
C3441 H3448 0.961 . S
C3441 H3449 0.960 . S
C3442 C3440 1.381 . S
C3442 C3443 1.394 . S
C3442 H3450 0.930 . S
C3443 C3442 1.394 . S
C3443 C3444 1.383 . S
C3443 H3451 0.929 . S
C3444 C3443 1.383 . S
C3444 C3445 1.377 . S
C3445 H3429 0.930 . S
C3445 C3444 1.377 . S
C3445 C3446 1.379 . S
C3446 H3430 0.931 . S
C3446 C3440 1.383 . S
C3446 C3445 1.379 . S
H3447 C3441 0.959 . S
H3448 C3441 0.961 . S
H3449 C3441 0.960 . S
H3450 C3442 0.930 . S
H3451 C3443 0.929 . S
H3452 C3460 0.929 . S
H3453 C3462 0.930 . S
H3454 C3464 0.930 . S
H3455 C3467 0.929 . S
H3456 C3470 0.930 . S
H3457 C3472 0.960 . S
H3458 C3472 0.960 . S
H3459 C3472 0.960 . S
C3460 H3452 0.929 . S
C3460 C3461 1.377 . S
C3460 C3462 1.384 . S
C3461 C3460 1.377 . S
C3461 C3467 1.390 . S
C3462 H3453 0.930 . S
C3462 C3460 1.384 . S
C3462 C3463 1.372 . S
C3463 C3462 1.372 . S
C3463 C3464 1.400 . S
C3463 C3468 1.490 . S
C3464 H3454 0.930 . S
C3464 C3463 1.400 . S
C3464 C3467 1.386 . S
H3465 C3481 0.930 . S
H3466 C3482 0.931 . S
C3467 H3455 0.929 . S
C3467 C3461 1.390 . S
C3467 C3464 1.386 . S
C3468 C3463 1.490 . S
C3468 C3470 1.395 . S
C3468 C3471 1.403 . S
H3469 C3475 0.930 . S
C3470 H3456 0.930 . S
C3470 C3468 1.395 . S
C3470 C3473 1.403 . S
C3471 C3468 1.403 . S
C3471 C3472 1.524 . S
C3471 C3475 1.400 . S
C3472 H3457 0.960 . S
C3472 H3458 0.960 . S
C3472 H3459 0.960 . S
C3472 C3471 1.524 . S
C3473 C3470 1.403 . S
C3473 C3474 1.392 . S
C3473 C3477 1.495 . S
C3474 C3473 1.392 . S
C3474 C3475 1.385 . S
C3474 C3476 1.478 . S
C3475 H3469 0.930 . S
C3475 C3471 1.400 . S
C3475 C3474 1.385 . S
C3476 C3474 1.478 . S
C3476 C3478 1.381 . S
C3476 C3482 1.383 . S
C3477 C3473 1.495 . S
C3477 H3483 0.959 . S
C3477 H3484 0.961 . S
C3477 H3485 0.960 . S
C3478 C3476 1.381 . S
C3478 C3479 1.394 . S
C3478 H3486 0.930 . S
C3479 C3478 1.394 . S
C3479 C3480 1.383 . S
C3479 H3487 0.929 . S
C3480 C3479 1.383 . S
C3480 C3481 1.377 . S
C3481 H3465 0.930 . S
C3481 C3480 1.377 . S
C3481 C3482 1.379 . S
C3482 H3466 0.931 . S
C3482 C3476 1.383 . S
C3482 C3481 1.379 . S
H3483 C3477 0.959 . S
H3484 C3477 0.961 . S
H3485 C3477 0.960 . S
H3486 C3478 0.930 . S
H3487 C3479 0.929 . S
H3488 C3496 0.929 . S
H3489 C3498 0.930 . S
H3490 C3500 0.930 . S
H3491 C3503 0.929 . S
H3492 C3506 0.930 . S
H3493 C3508 0.960 . S
H3494 C3508 0.960 . S
H3495 C3508 0.960 . S
C3496 H3488 0.929 . S
C3496 C3497 1.377 . S
C3496 C3498 1.384 . S
C3497 C3496 1.377 . S
C3497 C3503 1.390 . S
C3498 H3489 0.930 . S
C3498 C3496 1.384 . S
C3498 C3499 1.372 . S
C3499 C3498 1.372 . S
C3499 C3500 1.400 . S
C3499 C3504 1.490 . S
C3500 H3490 0.930 . S
C3500 C3499 1.400 . S
C3500 C3503 1.386 . S
H3501 C3517 0.930 . S
H3502 C3518 0.931 . S
C3503 H3491 0.929 . S
C3503 C3497 1.390 . S
C3503 C3500 1.386 . S
C3504 C3499 1.490 . S
C3504 C3506 1.395 . S
C3504 C3507 1.403 . S
H3505 C3511 0.930 . S
C3506 H3492 0.930 . S
C3506 C3504 1.395 . S
C3506 C3509 1.403 . S
C3507 C3504 1.403 . S
C3507 C3508 1.524 . S
C3507 C3511 1.400 . S
C3508 H3493 0.960 . S
C3508 H3494 0.960 . S
C3508 H3495 0.960 . S
C3508 C3507 1.524 . S
C3509 C3506 1.403 . S
C3509 C3510 1.392 . S
C3509 C3513 1.495 . S
C3510 C3509 1.392 . S
C3510 C3511 1.385 . S
C3510 C3512 1.478 . S
C3511 H3505 0.930 . S
C3511 C3507 1.400 . S
C3511 C3510 1.385 . S
C3512 C3510 1.478 . S
C3512 C3514 1.381 . S
C3512 C3518 1.383 . S
C3513 C3509 1.495 . S
C3513 H3519 0.959 . S
C3513 H3520 0.961 . S
C3513 H3521 0.960 . S
C3514 C3512 1.381 . S
C3514 C3515 1.394 . S
C3514 H3522 0.930 . S
C3515 C3514 1.394 . S
C3515 C3516 1.383 . S
C3515 H3523 0.929 . S
C3516 C3515 1.383 . S
C3516 C3517 1.377 . S
C3517 H3501 0.930 . S
C3517 C3516 1.377 . S
C3517 C3518 1.379 . S
C3518 H3502 0.931 . S
C3518 C3512 1.383 . S
C3518 C3517 1.379 . S
H3519 C3513 0.959 . S
H3520 C3513 0.961 . S
H3521 C3513 0.960 . S
H3522 C3514 0.930 . S
H3523 C3515 0.929 . S
H3524 C3532 0.929 . S
H3525 C3534 0.930 . S
H3526 C3536 0.930 . S
H3527 C3539 0.929 . S
H3528 C3542 0.930 . S
H3529 C3544 0.960 . S
H3530 C3544 0.960 . S
H3531 C3544 0.960 . S
C3532 H3524 0.929 . S
C3532 C3533 1.377 . S
C3532 C3534 1.384 . S
C3533 C3532 1.377 . S
C3533 C3539 1.390 . S
C3534 H3525 0.930 . S
C3534 C3532 1.384 . S
C3534 C3535 1.372 . S
C3535 C3534 1.372 . S
C3535 C3536 1.400 . S
C3535 C3540 1.490 . S
C3536 H3526 0.930 . S
C3536 C3535 1.400 . S
C3536 C3539 1.386 . S
H3537 C3553 0.930 . S
H3538 C3554 0.931 . S
C3539 H3527 0.929 . S
C3539 C3533 1.390 . S
C3539 C3536 1.386 . S
C3540 C3535 1.490 . S
C3540 C3542 1.395 . S
C3540 C3543 1.403 . S
H3541 C3547 0.930 . S
C3542 H3528 0.930 . S
C3542 C3540 1.395 . S
C3542 C3545 1.403 . S
C3543 C3540 1.403 . S
C3543 C3544 1.524 . S
C3543 C3547 1.400 . S
C3544 H3529 0.960 . S
C3544 H3530 0.960 . S
C3544 H3531 0.960 . S
C3544 C3543 1.524 . S
C3545 C3542 1.403 . S
C3545 C3546 1.392 . S
C3545 C3549 1.495 . S
C3546 C3545 1.392 . S
C3546 C3547 1.385 . S
C3546 C3548 1.478 . S
C3547 H3541 0.930 . S
C3547 C3543 1.400 . S
C3547 C3546 1.385 . S
C3548 C3546 1.478 . S
C3548 C3550 1.381 . S
C3548 C3554 1.383 . S
C3549 C3545 1.495 . S
C3549 H3555 0.959 . S
C3549 H3556 0.961 . S
C3549 H3557 0.960 . S
C3550 C3548 1.381 . S
C3550 C3551 1.394 . S
C3550 H3558 0.930 . S
C3551 C3550 1.394 . S
C3551 C3552 1.383 . S
C3551 H3559 0.929 . S
C3552 C3551 1.383 . S
C3552 C3553 1.377 . S
C3553 H3537 0.930 . S
C3553 C3552 1.377 . S
C3553 C3554 1.379 . S
C3554 H3538 0.931 . S
C3554 C3548 1.383 . S
C3554 C3553 1.379 . S
H3555 C3549 0.959 . S
H3556 C3549 0.961 . S
H3557 C3549 0.960 . S
H3558 C3550 0.930 . S
H3559 C3551 0.929 . S
H3560 C3568 0.929 . S
H3561 C3570 0.930 . S
H3562 C3572 0.930 . S
H3563 C3575 0.929 . S
H3564 C3578 0.930 . S
H3565 C3580 0.960 . S
H3566 C3580 0.960 . S
H3567 C3580 0.960 . S
C3568 H3560 0.929 . S
C3568 C3569 1.377 . S
C3568 C3570 1.384 . S
C3569 C3568 1.377 . S
C3569 C3575 1.390 . S
C3570 H3561 0.930 . S
C3570 C3568 1.384 . S
C3570 C3571 1.372 . S
C3571 C3570 1.372 . S
C3571 C3572 1.400 . S
C3571 C3576 1.490 . S
C3572 H3562 0.930 . S
C3572 C3571 1.400 . S
C3572 C3575 1.386 . S
H3573 C3589 0.930 . S
H3574 C3590 0.931 . S
C3575 H3563 0.929 . S
C3575 C3569 1.390 . S
C3575 C3572 1.386 . S
C3576 C3571 1.490 . S
C3576 C3578 1.395 . S
C3576 C3579 1.403 . S
H3577 C3583 0.930 . S
C3578 H3564 0.930 . S
C3578 C3576 1.395 . S
C3578 C3581 1.403 . S
C3579 C3576 1.403 . S
C3579 C3580 1.524 . S
C3579 C3583 1.400 . S
C3580 H3565 0.960 . S
C3580 H3566 0.960 . S
C3580 H3567 0.960 . S
C3580 C3579 1.524 . S
C3581 C3578 1.403 . S
C3581 C3582 1.392 . S
C3581 C3585 1.495 . S
C3582 C3581 1.392 . S
C3582 C3583 1.385 . S
C3582 C3584 1.478 . S
C3583 H3577 0.930 . S
C3583 C3579 1.400 . S
C3583 C3582 1.385 . S
C3584 C3582 1.478 . S
C3584 C3586 1.381 . S
C3584 C3590 1.383 . S
C3585 C3581 1.495 . S
C3585 H3591 0.959 . S
C3585 H3592 0.961 . S
C3585 H3593 0.960 . S
C3586 C3584 1.381 . S
C3586 C3587 1.394 . S
C3586 H3594 0.930 . S
C3587 C3586 1.394 . S
C3587 C3588 1.383 . S
C3587 H3595 0.929 . S
C3588 C3587 1.383 . S
C3588 C3589 1.377 . S
C3589 H3573 0.930 . S
C3589 C3588 1.377 . S
C3589 C3590 1.379 . S
C3590 H3574 0.931 . S
C3590 C3584 1.383 . S
C3590 C3589 1.379 . S
H3591 C3585 0.959 . S
H3592 C3585 0.961 . S
H3593 C3585 0.960 . S
H3594 C3586 0.930 . S
H3595 C3587 0.929 . S
H3596 C3604 0.929 . S
H3597 C3606 0.930 . S
H3598 C3608 0.930 . S
H3599 C3611 0.929 . S
H3600 C3614 0.930 . S
H3601 C3616 0.960 1_545 S
H3602 C3616 0.960 . S
H3603 C3616 0.960 . S
C3604 H3596 0.929 . S
C3604 C3605 1.377 . S
C3604 C3606 1.384 . S
C3605 C3604 1.377 . S
C3605 C3611 1.390 . S
C3606 H3597 0.930 . S
C3606 C3604 1.384 . S
C3606 C3607 1.372 . S
C3607 C3606 1.372 . S
C3607 C3608 1.400 . S
C3607 C3612 1.490 . S
C3608 H3598 0.930 . S
C3608 C3607 1.400 . S
C3608 C3611 1.386 . S
H3609 C3625 0.930 1_556 S
H3610 C3626 0.931 1_556 S
C3611 H3599 0.929 . S
C3611 C3605 1.390 . S
C3611 C3608 1.386 . S
C3612 C3607 1.490 . S
C3612 C3614 1.395 . S
C3612 C3615 1.403 . S
H3613 C3619 0.930 1_545 S
C3614 H3600 0.930 . S
C3614 C3612 1.395 . S
C3614 C3617 1.403 . S
C3615 C3612 1.403 . S
C3615 C3616 1.524 . S
C3615 C3619 1.400 . S
C3616 H3601 0.960 1_565 S
C3616 H3602 0.960 . S
C3616 H3603 0.960 . S
C3616 C3615 1.524 . S
C3617 C3614 1.403 . S
C3617 C3618 1.392 . S
C3617 C3621 1.495 . S
C3618 C3617 1.392 . S
C3618 C3619 1.385 . S
C3618 C3620 1.478 . S
C3619 H3613 0.930 1_565 S
C3619 C3615 1.400 . S
C3619 C3618 1.385 . S
C3620 C3618 1.478 . S
C3620 C3622 1.381 . S
C3620 C3626 1.383 . S
C3621 C3617 1.495 . S
C3621 H3627 0.959 . S
C3621 H3628 0.961 . S
C3621 H3629 0.960 . S
C3622 C3620 1.381 . S
C3622 C3623 1.394 1_565 S
C3622 H3630 0.930 . S
C3623 C3622 1.394 1_545 S
C3623 C3624 1.383 . S
C3623 H3631 0.929 . S
C3624 C3623 1.383 . S
C3624 C3625 1.377 . S
C3625 H3609 0.930 1_554 S
C3625 C3624 1.377 . S
C3625 C3626 1.379 1_545 S
C3626 H3610 0.931 1_554 S
C3626 C3620 1.383 . S
C3626 C3625 1.379 1_565 S
H3627 C3621 0.959 . S
H3628 C3621 0.961 . S
H3629 C3621 0.960 . S
H3630 C3622 0.930 . S
H3631 C3623 0.929 . S
H3632 C3640 0.929 . S
H3633 C3642 0.930 . S
H3634 C3644 0.930 . S
H3635 C3647 0.929 . S
H3636 C3650 0.930 . S
H3637 C3652 0.960 . S
H3638 C3652 0.960 . S
H3639 C3652 0.960 . S
C3640 H3632 0.929 . S
C3640 C3641 1.377 . S
C3640 C3642 1.384 . S
C3641 C3640 1.377 . S
C3641 C3647 1.390 . S
C3642 H3633 0.930 . S
C3642 C3640 1.384 . S
C3642 C3643 1.372 . S
C3643 C3642 1.372 . S
C3643 C3644 1.400 . S
C3643 C3648 1.490 . S
C3644 H3634 0.930 . S
C3644 C3643 1.400 . S
C3644 C3647 1.386 . S
H3645 C3661 0.930 . S
H3646 C3662 0.931 . S
C3647 H3635 0.929 . S
C3647 C3641 1.390 . S
C3647 C3644 1.386 . S
C3648 C3643 1.490 . S
C3648 C3650 1.395 . S
C3648 C3651 1.403 . S
H3649 C3655 0.930 . S
C3650 H3636 0.930 . S
C3650 C3648 1.395 . S
C3650 C3653 1.403 . S
C3651 C3648 1.403 . S
C3651 C3652 1.524 . S
C3651 C3655 1.400 . S
C3652 H3637 0.960 . S
C3652 H3638 0.960 . S
C3652 H3639 0.960 . S
C3652 C3651 1.524 . S
C3653 C3650 1.403 . S
C3653 C3654 1.392 . S
C3653 C3657 1.495 . S
C3654 C3653 1.392 . S
C3654 C3655 1.385 . S
C3654 C3656 1.478 . S
C3655 H3649 0.930 . S
C3655 C3651 1.400 . S
C3655 C3654 1.385 . S
C3656 C3654 1.478 . S
C3656 C3658 1.381 . S
C3656 C3662 1.383 . S
C3657 C3653 1.495 . S
C3657 H3663 0.959 . S
C3657 H3664 0.961 . S
C3657 H3665 0.960 . S
C3658 C3656 1.381 . S
C3658 C3659 1.394 . S
C3658 H3666 0.930 . S
C3659 C3658 1.394 . S
C3659 C3660 1.383 . S
C3659 H3667 0.929 . S
C3660 C3659 1.383 . S
C3660 C3661 1.377 . S
C3661 H3645 0.930 . S
C3661 C3660 1.377 . S
C3661 C3662 1.379 . S
C3662 H3646 0.931 . S
C3662 C3656 1.383 . S
C3662 C3661 1.379 . S
H3663 C3657 0.959 . S
H3664 C3657 0.961 . S
H3665 C3657 0.960 . S
H3666 C3658 0.930 . S
H3667 C3659 0.929 . S
H3668 C3676 0.929 . S
H3669 C3678 0.930 . S
H3670 C3680 0.930 . S
H3671 C3683 0.929 . S
H3672 C3686 0.930 . S
H3673 C3688 0.960 . S
H3674 C3688 1.010 . S
H3675 C3688 0.960 . S
C3676 H3668 0.929 . S
C3676 C3677 1.377 1_556 S
C3676 C3678 1.384 . S
C3677 C3676 1.377 1_554 S
C3677 C3683 1.390 . S
C3678 H3669 0.930 . S
C3678 C3676 1.384 . S
C3678 C3679 1.372 1_556 S
C3679 C3678 1.372 1_554 S
C3679 C3680 1.400 . S
C3679 C3684 1.490 . S
C3680 H3670 0.930 . S
C3680 C3679 1.400 . S
C3680 C3683 1.386 . S
H3681 C3697 0.930 . S
H3682 C3698 0.931 . S
C3683 H3671 0.929 . S
C3683 C3677 1.390 . S
C3683 C3680 1.386 . S
C3684 C3679 1.490 . S
C3684 C3686 1.395 . S
C3684 C3687 1.403 . S
H3685 C3691 0.930 . S
C3686 H3672 0.930 . S
C3686 C3684 1.395 . S
C3686 C3689 1.403 . S
C3687 C3684 1.403 . S
C3687 C3688 1.524 . S
C3687 C3691 1.400 . S
C3688 H3673 0.960 . S
C3688 H3674 1.010 . S
C3688 H3675 0.960 . S
C3688 C3687 1.524 . S
C3689 C3686 1.403 . S
C3689 C3690 1.392 . S
C3689 C3693 1.495 . S
C3690 C3689 1.392 . S
C3690 C3691 1.385 . S
C3690 C3692 1.478 . S
C3691 H3685 0.930 . S
C3691 C3687 1.400 . S
C3691 C3690 1.385 . S
C3692 C3690 1.478 . S
C3692 C3694 1.381 . S
C3692 C3698 1.383 . S
C3693 C3689 1.495 . S
C3693 H3699 0.959 . S
C3693 H3700 0.961 . S
C3693 H3701 0.960 . S
C3694 C3692 1.381 . S
C3694 C3695 1.394 . S
C3694 H3702 0.930 1_554 S
C3695 C3694 1.394 . S
C3695 C3696 1.383 . S
C3695 H3703 0.939 . S
C3696 C3695 1.383 . S
C3696 C3697 1.377 . S
C3697 H3681 0.930 . S
C3697 C3696 1.377 . S
C3697 C3698 1.379 . S
C3698 H3682 0.931 . S
C3698 C3692 1.383 . S
C3698 C3697 1.379 . S
H3699 C3693 0.959 . S
H3700 C3693 0.961 . S
H3701 C3693 0.960 . S
H3702 C3694 0.930 1_556 S
H3703 C3695 0.939 . S
H3704 C3712 0.929 . S
H3705 C3714 0.930 . S
H3706 C3716 0.930 . S
H3707 C3719 0.929 . S
H3708 C3722 0.930 . S
H3709 C3724 0.960 . S
H3710 C3724 0.960 . S
H3711 C3724 0.960 . S
C3712 H3704 0.929 . S
C3712 C3713 1.377 . S
C3712 C3714 1.384 . S
C3713 C3712 1.377 . S
C3713 C3719 1.390 . S
C3714 H3705 0.930 . S
C3714 C3712 1.384 . S
C3714 C3715 1.372 . S
C3715 C3714 1.372 . S
C3715 C3716 1.400 . S
C3715 C3720 1.490 . S
C3716 H3706 0.930 . S
C3716 C3715 1.400 . S
C3716 C3719 1.386 . S
H3717 C3733 0.930 . S
H3718 C3734 0.931 . S
C3719 H3707 0.929 . S
C3719 C3713 1.390 . S
C3719 C3716 1.386 . S
C3720 C3715 1.490 . S
C3720 C3722 1.395 . S
C3720 C3723 1.403 . S
H3721 C3727 0.930 . S
C3722 H3708 0.930 . S
C3722 C3720 1.395 . S
C3722 C3725 1.403 . S
C3723 C3720 1.403 . S
C3723 C3724 1.524 . S
C3723 C3727 1.400 . S
C3724 H3709 0.960 . S
C3724 H3710 0.960 . S
C3724 H3711 0.960 . S
C3724 C3723 1.524 . S
C3725 C3722 1.403 . S
C3725 C3726 1.392 . S
C3725 C3729 1.495 . S
C3726 C3725 1.392 . S
C3726 C3727 1.385 . S
C3726 C3728 1.478 . S
C3727 H3721 0.930 . S
C3727 C3723 1.400 . S
C3727 C3726 1.385 . S
C3728 C3726 1.478 . S
C3728 C3730 1.381 . S
C3728 C3734 1.383 . S
C3729 C3725 1.495 . S
C3729 H3735 0.959 . S
C3729 H3736 0.961 . S
C3729 H3737 0.960 . S
C3730 C3728 1.381 . S
C3730 C3731 1.394 . S
C3730 H3738 0.930 . S
C3731 C3730 1.394 . S
C3731 C3732 1.383 . S
C3731 H3739 0.929 . S
C3732 C3731 1.383 . S
C3732 C3733 1.377 . S
C3733 H3717 0.930 . S
C3733 C3732 1.377 . S
C3733 C3734 1.379 . S
C3734 H3718 0.931 . S
C3734 C3728 1.383 . S
C3734 C3733 1.379 . S
H3735 C3729 0.959 . S
H3736 C3729 0.961 . S
H3737 C3729 0.960 . S
H3738 C3730 0.930 . S
H3739 C3731 0.929 . S
H3740 C3748 0.929 1_545 S
H3741 C3750 0.930 . S
H3742 C3752 0.930 . S
H3743 C3755 0.929 . S
H3744 C3758 0.930 . S
H3745 C3760 0.960 . S
H3746 C3760 0.960 . S
H3747 C3760 0.960 . S
C3748 H3740 0.929 1_565 S
C3748 C3749 1.377 1_565 S
C3748 C3750 1.384 . S
C3749 C3748 1.377 1_545 S
C3749 C3755 1.390 1_545 S
C3750 H3741 0.930 . S
C3750 C3748 1.384 . S
C3750 C3751 1.372 . S
C3751 C3750 1.372 . S
C3751 C3752 1.400 . S
C3751 C3756 1.490 . S
C3752 H3742 0.930 . S
C3752 C3751 1.400 . S
C3752 C3755 1.386 . S
H3753 C3769 0.930 . S
H3754 C3770 0.931 . S
C3755 H3743 0.929 . S
C3755 C3749 1.390 1_565 S
C3755 C3752 1.386 . S
C3756 C3751 1.490 . S
C3756 C3758 1.395 . S
C3756 C3759 1.403 . S
H3757 C3763 0.930 . S
C3758 H3744 0.930 . S
C3758 C3756 1.395 . S
C3758 C3761 1.403 . S
C3759 C3756 1.403 . S
C3759 C3760 1.524 . S
C3759 C3763 1.400 . S
C3760 H3745 0.960 . S
C3760 H3746 0.960 . S
C3760 H3747 0.960 . S
C3760 C3759 1.524 . S
C3761 C3758 1.403 . S
C3761 C3762 1.392 . S
C3761 C3765 1.495 . S
C3762 C3761 1.392 . S
C3762 C3763 1.385 . S
C3762 C3764 1.478 . S
C3763 H3757 0.930 . S
C3763 C3759 1.400 . S
C3763 C3762 1.385 . S
C3764 C3762 1.478 . S
C3764 C3766 1.381 . S
C3764 C3770 1.383 . S
C3765 C3761 1.495 . S
C3765 H3771 0.959 . S
C3765 H3772 0.961 . S
C3765 H3773 0.960 . S
C3766 C3764 1.381 . S
C3766 C3767 1.394 . S
C3766 H3774 0.930 . S
C3767 C3766 1.394 . S
C3767 C3768 1.383 . S
C3767 H3775 0.929 . S
C3768 C3767 1.383 . S
C3768 C3769 1.377 . S
C3769 H3753 0.930 . S
C3769 C3768 1.377 . S
C3769 C3770 1.379 . S
C3770 H3754 0.931 . S
C3770 C3764 1.383 . S
C3770 C3769 1.379 . S
H3771 C3765 0.959 . S
H3772 C3765 0.961 . S
H3773 C3765 0.960 . S
H3774 C3766 0.930 . S
H3775 C3767 0.929 . S
H3776 C3784 0.929 . S
H3777 C3786 0.930 . S
H3778 C3788 0.930 . S
H3779 C3791 0.929 . S
H3780 C3794 0.930 . S
H3781 C3796 0.960 . S
H3782 C3796 0.960 . S
H3783 C3796 0.960 . S
C3784 H3776 0.929 . S
C3784 C3785 1.377 . S
C3784 C3786 1.384 . S
C3785 C3784 1.377 . S
C3785 C3791 1.390 . S
C3786 H3777 0.930 . S
C3786 C3784 1.384 . S
C3786 C3787 1.372 . S
C3787 C3786 1.372 . S
C3787 C3788 1.400 . S
C3787 C3792 1.490 . S
C3788 H3778 0.930 . S
C3788 C3787 1.400 . S
C3788 C3791 1.386 . S
H3789 C3805 0.930 . S
H3790 C3806 0.931 . S
C3791 H3779 0.929 . S
C3791 C3785 1.390 . S
C3791 C3788 1.386 . S
C3792 C3787 1.490 . S
C3792 C3794 1.395 . S
C3792 C3795 1.403 . S
H3793 C3799 0.930 . S
C3794 H3780 0.930 . S
C3794 C3792 1.395 . S
C3794 C3797 1.403 . S
C3795 C3792 1.403 . S
C3795 C3796 1.524 . S
C3795 C3799 1.400 . S
C3796 H3781 0.960 . S
C3796 H3782 0.960 . S
C3796 H3783 0.960 . S
C3796 C3795 1.524 . S
C3797 C3794 1.403 . S
C3797 C3798 1.392 . S
C3797 C3801 1.495 . S
C3798 C3797 1.392 . S
C3798 C3799 1.385 . S
C3798 C3800 1.478 . S
C3799 H3793 0.930 . S
C3799 C3795 1.400 . S
C3799 C3798 1.385 . S
C3800 C3798 1.478 . S
C3800 C3802 1.381 . S
C3800 C3806 1.383 . S
C3801 C3797 1.495 . S
C3801 H3807 0.959 . S
C3801 H3808 0.961 . S
C3801 H3809 0.960 . S
C3802 C3800 1.381 . S
C3802 C3803 1.394 . S
C3802 H3810 0.930 . S
C3803 C3802 1.394 . S
C3803 C3804 1.383 . S
C3803 H3811 0.929 . S
C3804 C3803 1.383 . S
C3804 C3805 1.377 . S
C3805 H3789 0.930 . S
C3805 C3804 1.377 . S
C3805 C3806 1.379 . S
C3806 H3790 0.931 . S
C3806 C3800 1.383 . S
C3806 C3805 1.379 . S
H3807 C3801 0.959 . S
H3808 C3801 0.961 . S
H3809 C3801 0.960 . S
H3810 C3802 0.930 . S
H3811 C3803 0.929 . S
H3812 C3820 0.929 . S
H3813 C3822 0.930 . S
H3814 C3824 0.930 . S
H3815 C3827 0.929 . S
H3816 C3830 0.930 . S
H3817 C3832 0.960 . S
H3818 C3832 0.960 . S
H3819 C3832 0.960 . S
C3820 H3812 0.929 . S
C3820 C3821 1.377 . S
C3820 C3822 1.384 . S
C3821 C3820 1.377 . S
C3821 C3827 1.390 . S
C3822 H3813 0.930 . S
C3822 C3820 1.384 . S
C3822 C3823 1.372 . S
C3823 C3822 1.372 . S
C3823 C3824 1.400 . S
C3823 C3828 1.490 . S
C3824 H3814 0.930 . S
C3824 C3823 1.400 . S
C3824 C3827 1.386 . S
H3825 C3841 0.930 . S
H3826 C3842 0.931 . S
C3827 H3815 0.929 . S
C3827 C3821 1.390 . S
C3827 C3824 1.386 . S
C3828 C3823 1.490 . S
C3828 C3830 1.395 . S
C3828 C3831 1.403 . S
H3829 C3835 0.930 . S
C3830 H3816 0.930 . S
C3830 C3828 1.395 . S
C3830 C3833 1.403 . S
C3831 C3828 1.403 . S
C3831 C3832 1.524 . S
C3831 C3835 1.400 . S
C3832 H3817 0.960 . S
C3832 H3818 0.960 . S
C3832 H3819 0.960 . S
C3832 C3831 1.524 . S
C3833 C3830 1.403 . S
C3833 C3834 1.392 . S
C3833 C3837 1.495 . S
C3834 C3833 1.392 . S
C3834 C3835 1.385 . S
C3834 C3836 1.478 . S
C3835 H3829 0.930 . S
C3835 C3831 1.400 . S
C3835 C3834 1.385 . S
C3836 C3834 1.478 . S
C3836 C3838 1.381 . S
C3836 C3842 1.383 . S
C3837 C3833 1.495 . S
C3837 H3843 0.959 . S
C3837 H3844 0.961 . S
C3837 H3845 0.960 . S
C3838 C3836 1.381 . S
C3838 C3839 1.394 . S
C3838 H3846 0.930 . S
C3839 C3838 1.394 . S
C3839 C3840 1.383 . S
C3839 H3847 0.929 . S
C3840 C3839 1.383 . S
C3840 C3841 1.377 . S
C3841 H3825 0.930 . S
C3841 C3840 1.377 . S
C3841 C3842 1.379 . S
C3842 H3826 0.931 . S
C3842 C3836 1.383 . S
C3842 C3841 1.379 . S
H3843 C3837 0.959 . S
H3844 C3837 0.961 . S
H3845 C3837 0.960 . S
H3846 C3838 0.930 . S
H3847 C3839 0.929 . S
H3848 C3856 0.929 . S
H3849 C3858 0.930 . S
H3850 C3860 0.930 . S
H3851 C3863 0.929 . S
H3852 C3866 0.930 . S
H3853 C3868 0.960 . S
H3854 C3868 0.960 . S
H3855 C3868 0.960 . S
C3856 H3848 0.929 . S
C3856 C3857 1.377 . S
C3856 C3858 1.384 . S
C3857 C3856 1.377 . S
C3857 C3863 1.390 1_455 S
C3858 H3849 0.930 . S
C3858 C3856 1.384 . S
C3858 C3859 1.372 . S
C3859 C3858 1.372 . S
C3859 C3860 1.400 1_455 S
C3859 C3864 1.490 . S
C3860 H3850 0.930 . S
C3860 C3859 1.400 1_655 S
C3860 C3863 1.386 . S
H3861 C3877 0.936 . S
H3862 C3878 0.957 . S
C3863 H3851 0.929 . S
C3863 C3857 1.390 1_655 S
C3863 C3860 1.386 . S
C3864 C3859 1.490 . S
C3864 C3866 1.395 . S
C3864 C3867 1.403 1_455 S
H3865 C3871 0.930 . S
C3866 H3852 0.930 . S
C3866 C3864 1.395 . S
C3866 C3869 1.403 . S
C3867 C3864 1.403 1_655 S
C3867 C3868 1.524 . S
C3867 C3871 1.400 . S
C3868 H3853 0.960 . S
C3868 H3854 0.960 . S
C3868 H3855 0.960 . S
C3868 C3867 1.524 . S
C3869 C3866 1.403 . S
C3869 C3870 1.392 . S
C3869 C3873 1.495 . S
C3870 C3869 1.392 . S
C3870 C3871 1.385 1_455 S
C3870 C3872 1.478 . S
C3871 H3865 0.930 . S
C3871 C3867 1.400 . S
C3871 C3870 1.385 1_655 S
C3872 C3870 1.478 . S
C3872 C3874 1.381 . S
C3872 C3878 1.383 . S
C3873 C3869 1.495 . S
C3873 H3879 0.959 . S
C3873 H3880 0.961 . S
C3873 H3881 0.960 . S
C3874 C3872 1.381 . S
C3874 C3875 1.394 . S
C3874 H3882 0.930 . S
C3875 C3874 1.394 . S
C3875 C3876 1.383 . S
C3875 H3883 0.929 . S
C3876 C3875 1.383 . S
C3876 C3877 1.377 . S
C3877 H3861 0.936 . S
C3877 C3876 1.377 . S
C3877 C3878 1.379 . S
C3878 H3862 0.957 . S
C3878 C3872 1.383 . S
C3878 C3877 1.379 . S
H3879 C3873 0.959 . S
H3880 C3873 0.961 . S
H3881 C3873 0.960 . S
H3882 C3874 0.930 . S
H3883 C3875 0.929 . S
H3884 C3892 0.929 . S
H3885 C3894 0.930 . S
H3886 C3896 0.930 . S
H3887 C3899 0.929 . S
H3888 C3902 0.930 . S
H3889 C3904 0.960 . S
H3890 C3904 0.960 . S
H3891 C3904 0.960 . S
C3892 H3884 0.929 . S
C3892 C3893 1.377 . S
C3892 C3894 1.384 . S
C3893 C3892 1.377 . S
C3893 C3899 1.390 . S
C3894 H3885 0.930 . S
C3894 C3892 1.384 . S
C3894 C3895 1.372 . S
C3895 C3894 1.372 . S
C3895 C3896 1.400 . S
C3895 C3900 1.490 . S
C3896 H3886 0.930 . S
C3896 C3895 1.400 . S
C3896 C3899 1.386 . S
H3897 C3913 0.930 . S
H3898 C3914 0.931 . S
C3899 H3887 0.929 . S
C3899 C3893 1.390 . S
C3899 C3896 1.386 . S
C3900 C3895 1.490 . S
C3900 C3902 1.395 . S
C3900 C3903 1.403 . S
H3901 C3907 0.930 . S
C3902 H3888 0.930 . S
C3902 C3900 1.395 . S
C3902 C3905 1.403 . S
C3903 C3900 1.403 . S
C3903 C3904 1.524 . S
C3903 C3907 1.400 . S
C3904 H3889 0.960 . S
C3904 H3890 0.960 . S
C3904 H3891 0.960 . S
C3904 C3903 1.524 . S
C3905 C3902 1.403 . S
C3905 C3906 1.392 . S
C3905 C3909 1.495 . S
C3906 C3905 1.392 . S
C3906 C3907 1.385 . S
C3906 C3908 1.478 . S
C3907 H3901 0.930 . S
C3907 C3903 1.400 . S
C3907 C3906 1.385 . S
C3908 C3906 1.478 . S
C3908 C3910 1.381 . S
C3908 C3914 1.383 . S
C3909 C3905 1.495 . S
C3909 H3915 0.959 . S
C3909 H3916 0.961 . S
C3909 H3917 0.960 . S
C3910 C3908 1.381 . S
C3910 C3911 1.394 . S
C3910 H3918 0.930 . S
C3911 C3910 1.394 . S
C3911 C3912 1.383 . S
C3911 H3919 0.929 . S
C3912 C3911 1.383 . S
C3912 C3913 1.377 . S
C3913 H3897 0.930 . S
C3913 C3912 1.377 . S
C3913 C3914 1.379 . S
C3914 H3898 0.931 . S
C3914 C3908 1.383 . S
C3914 C3913 1.379 . S
H3915 C3909 0.959 . S
H3916 C3909 0.961 . S
H3917 C3909 0.960 . S
H3918 C3910 0.930 . S
H3919 C3911 0.929 . S
H3920 C3928 0.929 . S
H3921 C3930 0.930 . S
H3922 C3932 0.930 . S
H3923 C3935 0.929 . S
H3924 C3938 0.930 . S
H3925 C3940 0.960 . S
H3926 C3940 0.960 . S
H3927 C3940 0.960 . S
C3928 H3920 0.929 . S
C3928 C3929 1.377 . S
C3928 C3930 1.384 . S
C3929 C3928 1.377 . S
C3929 C3935 1.390 . S
C3930 H3921 0.930 . S
C3930 C3928 1.384 . S
C3930 C3931 1.372 . S
C3931 C3930 1.372 . S
C3931 C3932 1.400 . S
C3931 C3936 1.490 . S
C3932 H3922 0.930 . S
C3932 C3931 1.400 . S
C3932 C3935 1.386 . S
H3933 C3949 0.930 . S
H3934 C3950 0.931 . S
C3935 H3923 0.929 . S
C3935 C3929 1.390 . S
C3935 C3932 1.386 . S
C3936 C3931 1.490 . S
C3936 C3938 1.395 . S
C3936 C3939 1.403 . S
H3937 C3943 0.930 . S
C3938 H3924 0.930 . S
C3938 C3936 1.395 . S
C3938 C3941 1.403 . S
C3939 C3936 1.403 . S
C3939 C3940 1.524 . S
C3939 C3943 1.400 . S
C3940 H3925 0.960 . S
C3940 H3926 0.960 . S
C3940 H3927 0.960 . S
C3940 C3939 1.524 . S
C3941 C3938 1.403 . S
C3941 C3942 1.392 . S
C3941 C3945 1.495 . S
C3942 C3941 1.392 . S
C3942 C3943 1.385 . S
C3942 C3944 1.478 . S
C3943 H3937 0.930 . S
C3943 C3939 1.400 . S
C3943 C3942 1.385 . S
C3944 C3942 1.478 . S
C3944 C3946 1.381 . S
C3944 C3950 1.383 . S
C3945 C3941 1.495 . S
C3945 H3951 0.959 . S
C3945 H3952 0.961 . S
C3945 H3953 0.960 . S
C3946 C3944 1.381 . S
C3946 C3947 1.394 . S
C3946 H3954 0.930 . S
C3947 C3946 1.394 . S
C3947 C3948 1.383 . S
C3947 H3955 0.929 . S
C3948 C3947 1.383 . S
C3948 C3949 1.377 . S
C3949 H3933 0.930 . S
C3949 C3948 1.377 . S
C3949 C3950 1.379 . S
C3950 H3934 0.931 . S
C3950 C3944 1.383 . S
C3950 C3949 1.379 . S
H3951 C3945 0.959 . S
H3952 C3945 0.961 . S
H3953 C3945 0.960 . S
H3954 C3946 0.930 . S
H3955 C3947 0.929 . S
H3956 C3964 0.929 . S
H3957 C3966 0.930 . S
H3958 C3968 0.930 . S
H3959 C3971 0.929 . S
H3960 C3974 0.930 . S
H3961 C3976 0.960 . S
H3962 C3976 0.960 . S
H3963 C3976 0.960 . S
C3964 H3956 0.929 . S
C3964 C3965 1.377 . S
C3964 C3966 1.384 . S
C3965 C3964 1.377 . S
C3965 C3971 1.390 . S
C3966 H3957 0.930 . S
C3966 C3964 1.384 . S
C3966 C3967 1.372 . S
C3967 C3966 1.372 . S
C3967 C3968 1.400 . S
C3967 C3972 1.490 . S
C3968 H3958 0.930 . S
C3968 C3967 1.400 . S
C3968 C3971 1.386 . S
H3969 C3985 0.930 . S
H3970 C3986 0.931 . S
C3971 H3959 0.929 . S
C3971 C3965 1.390 . S
C3971 C3968 1.386 . S
C3972 C3967 1.490 . S
C3972 C3974 1.395 . S
C3972 C3975 1.403 . S
H3973 C3979 0.930 . S
C3974 H3960 0.930 . S
C3974 C3972 1.395 . S
C3974 C3977 1.403 . S
C3975 C3972 1.403 . S
C3975 C3976 1.524 . S
C3975 C3979 1.400 . S
C3976 H3961 0.960 . S
C3976 H3962 0.960 . S
C3976 H3963 0.960 . S
C3976 C3975 1.524 . S
C3977 C3974 1.403 . S
C3977 C3978 1.392 . S
C3977 C3981 1.495 . S
C3978 C3977 1.392 . S
C3978 C3979 1.385 . S
C3978 C3980 1.478 . S
C3979 H3973 0.930 . S
C3979 C3975 1.400 . S
C3979 C3978 1.385 . S
C3980 C3978 1.478 . S
C3980 C3982 1.381 . S
C3980 C3986 1.383 . S
C3981 C3977 1.495 . S
C3981 H3987 0.959 . S
C3981 H3988 0.961 . S
C3981 H3989 0.960 . S
C3982 C3980 1.381 . S
C3982 C3983 1.394 . S
C3982 H3990 0.930 . S
C3983 C3982 1.394 . S
C3983 C3984 1.383 . S
C3983 H3991 0.929 . S
C3984 C3983 1.383 . S
C3984 C3985 1.377 . S
C3985 H3969 0.930 . S
C3985 C3984 1.377 . S
C3985 C3986 1.379 . S
C3986 H3970 0.931 . S
C3986 C3980 1.383 . S
C3986 C3985 1.379 . S
H3987 C3981 0.959 . S
H3988 C3981 0.961 . S
H3989 C3981 0.960 . S
H3990 C3982 0.930 . S
H3991 C3983 0.929 . S
H3992 C4000 0.929 . S
H3993 C4002 0.930 . S
H3994 C4004 0.930 1_655 S
H3995 C4007 0.929 1_655 S
H3996 C4010 0.930 . S
H3997 C4012 0.960 . S
H3998 C4012 0.960 . S
H3999 C4012 0.960 . S
C4000 H3992 0.929 . S
C4000 C4001 1.377 . S
C4000 C4002 1.384 . S
C4001 C4000 1.377 . S
C4001 C4007 1.390 . S
C4002 H3993 0.930 . S
C4002 C4000 1.384 . S
C4002 C4003 1.372 . S
C4003 C4002 1.372 . S
C4003 C4004 1.400 . S
C4003 C4008 1.490 . S
C4004 H3994 0.930 1_455 S
C4004 C4003 1.400 . S
C4004 C4007 1.386 . S
H4005 C4021 0.930 1_655 S
H4006 C4022 0.931 1_655 S
C4007 H3995 0.929 1_455 S
C4007 C4001 1.390 . S
C4007 C4004 1.386 . S
C4008 C4003 1.490 . S
C4008 C4010 1.395 . S
C4008 C4011 1.403 . S
H4009 C4015 0.930 1_655 S
C4010 H3996 0.930 . S
C4010 C4008 1.395 . S
C4010 C4013 1.403 . S
C4011 C4008 1.403 . S
C4011 C4012 1.524 1_455 S
C4011 C4015 1.400 . S
C4012 H3997 0.960 . S
C4012 H3998 0.960 . S
C4012 H3999 0.960 . S
C4012 C4011 1.524 1_655 S
C4013 C4010 1.403 . S
C4013 C4014 1.392 . S
C4013 C4017 1.495 . S
C4014 C4013 1.392 . S
C4014 C4015 1.385 . S
C4014 C4016 1.478 . S
C4015 H4009 0.930 1_455 S
C4015 C4011 1.400 . S
C4015 C4014 1.385 . S
C4016 C4014 1.478 . S
C4016 C4018 1.381 . S
C4016 C4022 1.383 . S
C4017 C4013 1.495 . S
C4017 H4023 0.959 . S
C4017 H4024 0.961 . S
C4017 H4025 0.960 . S
C4018 C4016 1.381 . S
C4018 C4019 1.394 . S
C4018 H4026 0.930 . S
C4019 C4018 1.394 . S
C4019 C4020 1.383 . S
C4019 H4027 0.929 . S
C4020 C4019 1.383 . S
C4020 C4021 1.377 . S
C4021 H4005 0.930 1_455 S
C4021 C4020 1.377 . S
C4021 C4022 1.379 . S
C4022 H4006 0.931 1_455 S
C4022 C4016 1.383 . S
C4022 C4021 1.379 . S
H4023 C4017 0.959 . S
H4024 C4017 0.961 . S
H4025 C4017 0.960 . S
H4026 C4018 0.930 . S
H4027 C4019 0.929 . S
H4028 C4036 0.929 . S
H4029 C4038 0.930 . S
H4030 C4040 0.930 . S
H4031 C4043 0.929 . S
H4032 C4046 0.930 . S
H4033 C4048 0.960 . S
H4034 C4048 0.960 . S
H4035 C4048 0.960 . S
C4036 H4028 0.929 . S
C4036 C4037 1.377 . S
C4036 C4038 1.384 . S
C4037 C4036 1.377 . S
C4037 C4043 1.390 . S
C4038 H4029 0.930 . S
C4038 C4036 1.384 . S
C4038 C4039 1.372 . S
C4039 C4038 1.372 . S
C4039 C4040 1.400 . S
C4039 C4044 1.490 . S
C4040 H4030 0.930 . S
C4040 C4039 1.400 . S
C4040 C4043 1.386 . S
H4041 C4057 0.930 . S
H4042 C4058 0.931 . S
C4043 H4031 0.929 . S
C4043 C4037 1.390 . S
C4043 C4040 1.386 . S
C4044 C4039 1.490 . S
C4044 C4046 1.395 . S
C4044 C4047 1.403 . S
H4045 C4051 0.930 . S
C4046 H4032 0.930 . S
C4046 C4044 1.395 . S
C4046 C4049 1.403 . S
C4047 C4044 1.403 . S
C4047 C4048 1.524 . S
C4047 C4051 1.400 . S
C4048 H4033 0.960 . S
C4048 H4034 0.960 . S
C4048 H4035 0.960 . S
C4048 C4047 1.524 . S
C4049 C4046 1.403 . S
C4049 C4050 1.392 . S
C4049 C4053 1.495 . S
C4050 C4049 1.392 . S
C4050 C4051 1.385 . S
C4050 C4052 1.478 . S
C4051 H4045 0.930 . S
C4051 C4047 1.400 . S
C4051 C4050 1.385 . S
C4052 C4050 1.478 . S
C4052 C4054 1.381 . S
C4052 C4058 1.383 . S
C4053 C4049 1.495 . S
C4053 H4059 0.959 . S
C4053 H4060 0.961 . S
C4053 H4061 0.960 . S
C4054 C4052 1.381 . S
C4054 C4055 1.394 . S
C4054 H4062 0.930 . S
C4055 C4054 1.394 . S
C4055 C4056 1.383 . S
C4055 H4063 0.929 . S
C4056 C4055 1.383 . S
C4056 C4057 1.377 . S
C4057 H4041 0.930 . S
C4057 C4056 1.377 . S
C4057 C4058 1.379 . S
C4058 H4042 0.931 . S
C4058 C4052 1.383 . S
C4058 C4057 1.379 . S
H4059 C4053 0.959 . S
H4060 C4053 0.961 . S
H4061 C4053 0.960 . S
H4062 C4054 0.930 . S
H4063 C4055 0.929 . S
H4064 C4072 0.929 . S
H4065 C4074 0.930 . S
H4066 C4076 0.930 . S
H4067 C4079 0.929 . S
H4068 C4082 0.930 . S
H4069 C4084 0.960 . S
H4070 C4084 0.960 . S
H4071 C4084 0.960 . S
C4072 H4064 0.929 . S
C4072 C4073 1.377 . S
C4072 C4074 1.384 . S
C4073 C4072 1.377 . S
C4073 C4079 1.390 . S
C4074 H4065 0.930 . S
C4074 C4072 1.384 . S
C4074 C4075 1.372 . S
C4075 C4074 1.372 . S
C4075 C4076 1.400 . S
C4075 C4080 1.490 . S
C4076 H4066 0.930 . S
C4076 C4075 1.400 . S
C4076 C4079 1.386 . S
H4077 C4093 0.930 . S
H4078 C4094 0.931 . S
C4079 H4067 0.929 . S
C4079 C4073 1.390 . S
C4079 C4076 1.386 . S
C4080 C4075 1.490 . S
C4080 C4082 1.395 . S
C4080 C4083 1.403 . S
H4081 C4087 0.930 . S
C4082 H4068 0.930 . S
C4082 C4080 1.395 . S
C4082 C4085 1.403 . S
C4083 C4080 1.403 . S
C4083 C4084 1.524 . S
C4083 C4087 1.400 . S
C4084 H4069 0.960 . S
C4084 H4070 0.960 . S
C4084 H4071 0.960 . S
C4084 C4083 1.524 . S
C4085 C4082 1.403 . S
C4085 C4086 1.392 . S
C4085 C4089 1.495 . S
C4086 C4085 1.392 . S
C4086 C4087 1.385 . S
C4086 C4088 1.478 . S
C4087 H4081 0.930 . S
C4087 C4083 1.400 . S
C4087 C4086 1.385 . S
C4088 C4086 1.478 . S
C4088 C4090 1.381 . S
C4088 C4094 1.383 . S
C4089 C4085 1.495 . S
C4089 H4095 0.959 . S
C4089 H4096 0.961 . S
C4089 H4097 0.960 . S
C4090 C4088 1.381 . S
C4090 C4091 1.394 . S
C4090 H4098 0.930 . S
C4091 C4090 1.394 . S
C4091 C4092 1.383 . S
C4091 H4099 0.929 . S
C4092 C4091 1.383 . S
C4092 C4093 1.377 . S
C4093 H4077 0.930 . S
C4093 C4092 1.377 . S
C4093 C4094 1.379 . S
C4094 H4078 0.931 . S
C4094 C4088 1.383 . S
C4094 C4093 1.379 . S
H4095 C4089 0.959 . S
H4096 C4089 0.961 . S
H4097 C4089 0.960 . S
H4098 C4090 0.930 . S
H4099 C4091 0.929 . S
H4100 C4108 0.929 . S
H4101 C4110 0.930 . S
H4102 C4112 0.930 . S
H4103 C4115 0.929 . S
H4104 C4118 0.930 . S
H4105 C4120 0.960 . S
H4106 C4120 0.960 . S
H4107 C4120 0.960 . S
C4108 H4100 0.929 . S
C4108 C4109 1.377 . S
C4108 C4110 1.384 . S
C4109 C4108 1.377 . S
C4109 C4115 1.390 . S
C4110 H4101 0.930 . S
C4110 C4108 1.384 . S
C4110 C4111 1.372 . S
C4111 C4110 1.372 . S
C4111 C4112 1.400 . S
C4111 C4116 1.490 . S
C4112 H4102 0.930 . S
C4112 C4111 1.400 . S
C4112 C4115 1.386 . S
H4113 C4129 0.930 . S
H4114 C4130 0.931 . S
C4115 H4103 0.929 . S
C4115 C4109 1.390 . S
C4115 C4112 1.386 . S
C4116 C4111 1.490 . S
C4116 C4118 1.395 . S
C4116 C4119 1.403 . S
H4117 C4123 0.930 . S
C4118 H4104 0.930 . S
C4118 C4116 1.395 . S
C4118 C4121 1.403 . S
C4119 C4116 1.403 . S
C4119 C4120 1.524 . S
C4119 C4123 1.400 . S
C4120 H4105 0.960 . S
C4120 H4106 0.960 . S
C4120 H4107 0.960 . S
C4120 C4119 1.524 . S
C4121 C4118 1.403 . S
C4121 C4122 1.392 . S
C4121 C4125 1.495 . S
C4122 C4121 1.392 . S
C4122 C4123 1.385 . S
C4122 C4124 1.478 . S
C4123 H4117 0.930 . S
C4123 C4119 1.400 . S
C4123 C4122 1.385 . S
C4124 C4122 1.478 . S
C4124 C4126 1.381 . S
C4124 C4130 1.383 . S
C4125 C4121 1.495 . S
C4125 H4131 0.959 . S
C4125 H4132 0.961 . S
C4125 H4133 0.960 . S
C4126 C4124 1.381 . S
C4126 C4127 1.394 . S
C4126 H4134 0.930 . S
C4127 C4126 1.394 . S
C4127 C4128 1.383 . S
C4127 H4135 0.929 . S
C4128 C4127 1.383 . S
C4128 C4129 1.377 . S
C4129 H4113 0.930 . S
C4129 C4128 1.377 . S
C4129 C4130 1.379 . S
C4130 H4114 0.931 . S
C4130 C4124 1.383 . S
C4130 C4129 1.379 . S
H4131 C4125 0.959 . S
H4132 C4125 0.961 . S
H4133 C4125 0.960 . S
H4134 C4126 0.930 . S
H4135 C4127 0.929 . S
H4136 C4144 0.929 . S
H4137 C4146 0.930 . S
H4138 C4148 0.930 . S
H4139 C4151 0.929 . S
H4140 C4154 0.930 . S
H4141 C4156 0.960 . S
H4142 C4156 0.960 . S
H4143 C4156 0.960 . S
C4144 H4136 0.929 . S
C4144 C4145 1.377 . S
C4144 C4146 1.384 . S
C4145 C4144 1.377 . S
C4145 C4151 1.390 . S
C4146 H4137 0.930 . S
C4146 C4144 1.384 . S
C4146 C4147 1.372 . S
C4147 C4146 1.372 . S
C4147 C4148 1.400 . S
C4147 C4152 1.490 . S
C4148 H4138 0.930 . S
C4148 C4147 1.400 . S
C4148 C4151 1.386 . S
H4149 C4165 0.930 1_455 S
H4150 C4166 0.931 . S
C4151 H4139 0.929 . S
C4151 C4145 1.390 . S
C4151 C4148 1.386 . S
C4152 C4147 1.490 . S
C4152 C4154 1.395 . S
C4152 C4155 1.403 . S
H4153 C4159 0.930 . S
C4154 H4140 0.930 . S
C4154 C4152 1.395 . S
C4154 C4157 1.403 . S
C4155 C4152 1.403 . S
C4155 C4156 1.524 . S
C4155 C4159 1.400 . S
C4156 H4141 0.960 . S
C4156 H4142 0.960 . S
C4156 H4143 0.960 . S
C4156 C4155 1.524 . S
C4157 C4154 1.403 . S
C4157 C4158 1.392 . S
C4157 C4161 1.495 . S
C4158 C4157 1.392 . S
C4158 C4159 1.385 . S
C4158 C4160 1.478 . S
C4159 H4153 0.930 . S
C4159 C4155 1.400 . S
C4159 C4158 1.385 . S
C4160 C4158 1.478 . S
C4160 C4162 1.381 . S
C4160 C4166 1.383 . S
C4161 C4157 1.495 . S
C4161 H4167 0.959 . S
C4161 H4168 0.961 . S
C4161 H4169 0.960 . S
C4162 C4160 1.381 . S
C4162 C4163 1.394 . S
C4162 H4170 0.930 . S
C4163 C4162 1.394 . S
C4163 C4164 1.383 . S
C4163 H4171 0.929 . S
C4164 C4163 1.383 . S
C4164 C4165 1.377 . S
C4165 H4149 0.930 1_655 S
C4165 C4164 1.377 . S
C4165 C4166 1.379 . S
C4166 H4150 0.931 . S
C4166 C4160 1.383 . S
C4166 C4165 1.379 . S
H4167 C4161 0.959 . S
H4168 C4161 0.961 . S
H4169 C4161 0.960 . S
H4170 C4162 0.930 . S
H4171 C4163 0.929 . S
H4172 C4180 0.929 . S
H4173 C4182 0.930 . S
H4174 C4184 0.930 . S
H4175 C4187 0.929 . S
H4176 C4190 0.930 . S
H4177 C4192 0.960 . S
H4178 C4192 0.960 . S
H4179 C4192 0.960 . S
C4180 H4172 0.929 . S
C4180 C4181 1.377 . S
C4180 C4182 1.384 . S
C4181 C4180 1.377 . S
C4181 C4187 1.390 . S
C4182 H4173 0.930 . S
C4182 C4180 1.384 . S
C4182 C4183 1.372 . S
C4183 C4182 1.372 . S
C4183 C4184 1.400 . S
C4183 C4188 1.490 . S
C4184 H4174 0.930 . S
C4184 C4183 1.400 . S
C4184 C4187 1.386 . S
H4185 C4201 0.930 . S
H4186 C4202 0.931 . S
C4187 H4175 0.929 . S
C4187 C4181 1.390 . S
C4187 C4184 1.386 . S
C4188 C4183 1.490 . S
C4188 C4190 1.395 . S
C4188 C4191 1.403 . S
H4189 C4195 0.930 . S
C4190 H4176 0.930 . S
C4190 C4188 1.395 . S
C4190 C4193 1.403 . S
C4191 C4188 1.403 . S
C4191 C4192 1.524 . S
C4191 C4195 1.400 . S
C4192 H4177 0.960 . S
C4192 H4178 0.960 . S
C4192 H4179 0.960 . S
C4192 C4191 1.524 . S
C4193 C4190 1.403 . S
C4193 C4194 1.392 . S
C4193 C4197 1.495 . S
C4194 C4193 1.392 . S
C4194 C4195 1.385 . S
C4194 C4196 1.478 . S
C4195 H4189 0.930 . S
C4195 C4191 1.400 . S
C4195 C4194 1.385 . S
C4196 C4194 1.478 . S
C4196 C4198 1.381 . S
C4196 C4202 1.383 . S
C4197 C4193 1.495 . S
C4197 H4203 0.959 . S
C4197 H4204 0.961 . S
C4197 H4205 0.960 . S
C4198 C4196 1.381 . S
C4198 C4199 1.394 . S
C4198 H4206 0.930 . S
C4199 C4198 1.394 . S
C4199 C4200 1.383 . S
C4199 H4207 0.929 . S
C4200 C4199 1.383 . S
C4200 C4201 1.377 . S
C4201 H4185 0.930 . S
C4201 C4200 1.377 . S
C4201 C4202 1.379 . S
C4202 H4186 0.931 . S
C4202 C4196 1.383 . S
C4202 C4201 1.379 . S
H4203 C4197 0.959 . S
H4204 C4197 0.961 . S
H4205 C4197 0.960 . S
H4206 C4198 0.930 . S
H4207 C4199 0.929 . S
H4208 C4216 0.929 . S
H4209 C4218 0.930 . S
H4210 C4220 0.930 . S
H4211 C4223 0.929 . S
H4212 C4226 0.930 . S
H4213 C4228 0.960 . S
H4214 C4228 0.960 . S
H4215 C4228 0.960 . S
C4216 H4208 0.929 . S
C4216 C4217 1.377 . S
C4216 C4218 1.384 . S
C4217 C4216 1.377 . S
C4217 C4223 1.390 . S
C4218 H4209 0.930 . S
C4218 C4216 1.384 . S
C4218 C4219 1.372 . S
C4219 C4218 1.372 . S
C4219 C4220 1.400 . S
C4219 C4224 1.490 . S
C4220 H4210 0.930 . S
C4220 C4219 1.400 . S
C4220 C4223 1.386 . S
H4221 C4237 0.930 . S
H4222 C4238 0.931 . S
C4223 H4211 0.929 . S
C4223 C4217 1.390 . S
C4223 C4220 1.386 . S
C4224 C4219 1.490 . S
C4224 C4226 1.395 . S
C4224 C4227 1.403 . S
H4225 C4231 0.930 . S
C4226 H4212 0.930 . S
C4226 C4224 1.395 . S
C4226 C4229 1.403 . S
C4227 C4224 1.403 . S
C4227 C4228 1.524 . S
C4227 C4231 1.400 . S
C4228 H4213 0.960 . S
C4228 H4214 0.960 . S
C4228 H4215 0.960 . S
C4228 C4227 1.524 . S
C4229 C4226 1.403 . S
C4229 C4230 1.392 . S
C4229 C4233 1.495 . S
C4230 C4229 1.392 . S
C4230 C4231 1.385 . S
C4230 C4232 1.478 . S
C4231 H4225 0.930 . S
C4231 C4227 1.400 . S
C4231 C4230 1.385 . S
C4232 C4230 1.478 . S
C4232 C4234 1.381 . S
C4232 C4238 1.383 . S
C4233 C4229 1.495 . S
C4233 H4239 0.959 . S
C4233 H4240 0.961 . S
C4233 H4241 0.960 . S
C4234 C4232 1.381 . S
C4234 C4235 1.394 . S
C4234 H4242 0.930 . S
C4235 C4234 1.394 . S
C4235 C4236 1.383 . S
C4235 H4243 0.929 . S
C4236 C4235 1.383 . S
C4236 C4237 1.377 . S
C4237 H4221 0.930 . S
C4237 C4236 1.377 . S
C4237 C4238 1.379 . S
C4238 H4222 0.931 . S
C4238 C4232 1.383 . S
C4238 C4237 1.379 . S
H4239 C4233 0.959 . S
H4240 C4233 0.961 . S
H4241 C4233 0.960 . S
H4242 C4234 0.930 . S
H4243 C4235 0.929 . S
H4244 C4252 0.929 . S
H4245 C4254 0.930 . S
H4246 C4256 0.930 . S
H4247 C4259 0.929 . S
H4248 C4262 0.930 . S
H4249 C4264 0.960 . S
H4250 C4264 0.960 . S
H4251 C4264 0.960 . S
C4252 H4244 0.929 . S
C4252 C4253 1.377 . S
C4252 C4254 1.384 . S
C4253 C4252 1.377 . S
C4253 C4259 1.390 . S
C4254 H4245 0.930 . S
C4254 C4252 1.384 . S
C4254 C4255 1.372 . S
C4255 C4254 1.372 . S
C4255 C4256 1.400 . S
C4255 C4260 1.490 . S
C4256 H4246 0.930 . S
C4256 C4255 1.400 . S
C4256 C4259 1.386 . S
H4257 C4273 0.930 . S
H4258 C4274 0.931 . S
C4259 H4247 0.929 . S
C4259 C4253 1.390 . S
C4259 C4256 1.386 . S
C4260 C4255 1.490 . S
C4260 C4262 1.395 . S
C4260 C4263 1.403 . S
H4261 C4267 0.930 . S
C4262 H4248 0.930 . S
C4262 C4260 1.395 . S
C4262 C4265 1.403 . S
C4263 C4260 1.403 . S
C4263 C4264 1.524 . S
C4263 C4267 1.400 . S
C4264 H4249 0.960 . S
C4264 H4250 0.960 . S
C4264 H4251 0.960 . S
C4264 C4263 1.524 . S
C4265 C4262 1.403 . S
C4265 C4266 1.392 . S
C4265 C4269 1.495 . S
C4266 C4265 1.392 . S
C4266 C4267 1.385 . S
C4266 C4268 1.478 . S
C4267 H4261 0.930 . S
C4267 C4263 1.400 . S
C4267 C4266 1.385 . S
C4268 C4266 1.478 . S
C4268 C4270 1.381 . S
C4268 C4274 1.383 . S
C4269 C4265 1.495 . S
C4269 H4275 0.959 . S
C4269 H4276 0.961 . S
C4269 H4277 0.960 . S
C4270 C4268 1.381 . S
C4270 C4271 1.394 . S
C4270 H4278 0.930 . S
C4271 C4270 1.394 . S
C4271 C4272 1.383 . S
C4271 H4279 0.929 . S
C4272 C4271 1.383 . S
C4272 C4273 1.377 . S
C4273 H4257 0.930 . S
C4273 C4272 1.377 . S
C4273 C4274 1.379 . S
C4274 H4258 0.931 . S
C4274 C4268 1.383 . S
C4274 C4273 1.379 . S
H4275 C4269 0.959 . S
H4276 C4269 0.961 . S
H4277 C4269 0.960 . S
H4278 C4270 0.930 . S
H4279 C4271 0.929 . S
H4280 C4288 0.929 . S
H4281 C4290 0.930 . S
H4282 C4292 0.930 . S
H4283 C4295 0.929 . S
H4284 C4298 0.930 . S
H4285 C4300 0.960 . S
H4286 C4300 0.960 . S
H4287 C4300 0.960 . S
C4288 H4280 0.929 . S
C4288 C4289 1.377 . S
C4288 C4290 1.384 . S
C4289 C4288 1.377 . S
C4289 C4295 1.390 . S
C4290 H4281 0.930 . S
C4290 C4288 1.384 . S
C4290 C4291 1.372 . S
C4291 C4290 1.372 . S
C4291 C4292 1.400 . S
C4291 C4296 1.490 . S
C4292 H4282 0.930 . S
C4292 C4291 1.400 . S
C4292 C4295 1.386 . S
H4293 C4309 0.930 1_455 S
H4294 C4310 0.931 . S
C4295 H4283 0.929 . S
C4295 C4289 1.390 . S
C4295 C4292 1.386 . S
C4296 C4291 1.490 . S
C4296 C4298 1.395 . S
C4296 C4299 1.403 . S
H4297 C4303 0.930 . S
C4298 H4284 0.930 . S
C4298 C4296 1.395 . S
C4298 C4301 1.403 . S
C4299 C4296 1.403 . S
C4299 C4300 1.524 . S
C4299 C4303 1.400 . S
C4300 H4285 0.960 . S
C4300 H4286 0.960 . S
C4300 H4287 0.960 . S
C4300 C4299 1.524 . S
C4301 C4298 1.403 . S
C4301 C4302 1.392 . S
C4301 C4305 1.495 . S
C4302 C4301 1.392 . S
C4302 C4303 1.385 . S
C4302 C4304 1.478 . S
C4303 H4297 0.930 . S
C4303 C4299 1.400 . S
C4303 C4302 1.385 . S
C4304 C4302 1.478 . S
C4304 C4306 1.381 . S
C4304 C4310 1.383 . S
C4305 C4301 1.495 . S
C4305 H4311 0.959 . S
C4305 H4312 0.961 . S
C4305 H4313 0.960 . S
C4306 C4304 1.381 . S
C4306 C4307 1.394 . S
C4306 H4314 0.930 . S
C4307 C4306 1.394 . S
C4307 C4308 1.383 . S
C4307 H4315 0.929 . S
C4308 C4307 1.383 . S
C4308 C4309 1.377 . S
C4309 H4293 0.930 1_655 S
C4309 C4308 1.377 . S
C4309 C4310 1.379 . S
C4310 H4294 0.931 . S
C4310 C4304 1.383 . S
C4310 C4309 1.379 . S
H4311 C4305 0.959 . S
H4312 C4305 0.961 . S
H4313 C4305 0.960 . S
H4314 C4306 0.930 . S
H4315 C4307 0.929 . S
H4316 C4324 0.929 . S
H4317 C4326 0.930 . S
H4318 C4328 0.930 . S
H4319 C4331 0.929 . S
H4320 C4334 0.930 . S
H4321 C4336 0.960 . S
H4322 C4336 0.960 . S
H4323 C4336 0.960 . S
C4324 H4316 0.929 . S
C4324 C4325 1.377 . S
C4324 C4326 1.384 . S
C4325 C4324 1.377 . S
C4325 C4331 1.390 . S
C4326 H4317 0.930 . S
C4326 C4324 1.384 . S
C4326 C4327 1.372 . S
C4327 C4326 1.372 . S
C4327 C4328 1.400 . S
C4327 C4332 1.490 . S
C4328 H4318 0.930 . S
C4328 C4327 1.400 . S
C4328 C4331 1.386 . S
H4329 C4345 0.930 . S
H4330 C4346 0.931 . S
C4331 H4319 0.929 . S
C4331 C4325 1.390 . S
C4331 C4328 1.386 . S
C4332 C4327 1.490 . S
C4332 C4334 1.395 . S
C4332 C4335 1.403 . S
H4333 C4339 0.930 . S
C4334 H4320 0.930 . S
C4334 C4332 1.395 . S
C4334 C4337 1.403 . S
C4335 C4332 1.403 . S
C4335 C4336 1.524 . S
C4335 C4339 1.400 . S
C4336 H4321 0.960 . S
C4336 H4322 0.960 . S
C4336 H4323 0.960 . S
C4336 C4335 1.524 . S
C4337 C4334 1.403 . S
C4337 C4338 1.392 . S
C4337 C4341 1.495 . S
C4338 C4337 1.392 . S
C4338 C4339 1.385 . S
C4338 C4340 1.478 . S
C4339 H4333 0.930 . S
C4339 C4335 1.400 . S
C4339 C4338 1.385 . S
C4340 C4338 1.478 . S
C4340 C4342 1.381 . S
C4340 C4346 1.383 . S
C4341 C4337 1.495 . S
C4341 H4347 0.959 . S
C4341 H4348 0.961 . S
C4341 H4349 0.960 . S
C4342 C4340 1.381 . S
C4342 C4343 1.394 . S
C4342 H4350 0.930 . S
C4343 C4342 1.394 . S
C4343 C4344 1.383 . S
C4343 H4351 0.929 . S
C4344 C4343 1.383 . S
C4344 C4345 1.377 . S
C4345 H4329 0.930 . S
C4345 C4344 1.377 . S
C4345 C4346 1.379 . S
C4346 H4330 0.931 . S
C4346 C4340 1.383 . S
C4346 C4345 1.379 . S
H4347 C4341 0.959 . S
H4348 C4341 0.961 . S
H4349 C4341 0.960 . S
H4350 C4342 0.930 . S
H4351 C4343 0.929 . S
H4352 C4360 0.929 . S
H4353 C4362 0.930 . S
H4354 C4364 0.930 . S
H4355 C4367 0.929 . S
H4356 C4370 0.930 . S
H4357 C4372 0.960 . S
H4358 C4372 0.960 . S
H4359 C4372 0.960 . S
C4360 H4352 0.929 . S
C4360 C4361 1.377 . S
C4360 C4362 1.384 . S
C4361 C4360 1.377 . S
C4361 C4367 1.390 . S
C4362 H4353 0.930 . S
C4362 C4360 1.384 . S
C4362 C4363 1.372 . S
C4363 C4362 1.372 . S
C4363 C4364 1.400 . S
C4363 C4368 1.490 . S
C4364 H4354 0.930 . S
C4364 C4363 1.400 . S
C4364 C4367 1.386 . S
H4365 C4381 0.930 . S
H4366 C4382 0.931 . S
C4367 H4355 0.929 . S
C4367 C4361 1.390 . S
C4367 C4364 1.386 . S
C4368 C4363 1.490 . S
C4368 C4370 1.395 . S
C4368 C4371 1.403 . S
H4369 C4375 0.930 . S
C4370 H4356 0.930 . S
C4370 C4368 1.395 . S
C4370 C4373 1.403 . S
C4371 C4368 1.403 . S
C4371 C4372 1.524 . S
C4371 C4375 1.400 . S
C4372 H4357 0.960 . S
C4372 H4358 0.960 . S
C4372 H4359 0.960 . S
C4372 C4371 1.524 . S
C4373 C4370 1.403 . S
C4373 C4374 1.392 . S
C4373 C4377 1.495 . S
C4374 C4373 1.392 . S
C4374 C4375 1.385 . S
C4374 C4376 1.478 . S
C4375 H4369 0.930 . S
C4375 C4371 1.400 . S
C4375 C4374 1.385 . S
C4376 C4374 1.478 . S
C4376 C4378 1.381 . S
C4376 C4382 1.383 . S
C4377 C4373 1.495 . S
C4377 H4383 0.959 . S
C4377 H4384 0.961 . S
C4377 H4385 0.960 . S
C4378 C4376 1.381 . S
C4378 C4379 1.394 . S
C4378 H4386 0.930 . S
C4379 C4378 1.394 . S
C4379 C4380 1.383 . S
C4379 H4387 0.929 . S
C4380 C4379 1.383 . S
C4380 C4381 1.377 . S
C4381 H4365 0.930 . S
C4381 C4380 1.377 . S
C4381 C4382 1.379 . S
C4382 H4366 0.931 . S
C4382 C4376 1.383 . S
C4382 C4381 1.379 . S
H4383 C4377 0.959 . S
H4384 C4377 0.961 . S
H4385 C4377 0.960 . S
H4386 C4378 0.930 . S
H4387 C4379 0.929 . S
H4388 C4396 0.929 . S
H4389 C4398 0.930 . S
H4390 C4400 0.930 . S
H4391 C4403 0.929 . S
H4392 C4406 0.930 . S
H4393 C4408 0.960 . S
H4394 C4408 0.960 . S
H4395 C4408 0.960 . S
C4396 H4388 0.929 . S
C4396 C4397 1.377 . S
C4396 C4398 1.384 . S
C4397 C4396 1.377 . S
C4397 C4403 1.390 . S
C4398 H4389 0.930 . S
C4398 C4396 1.384 . S
C4398 C4399 1.372 . S
C4399 C4398 1.372 . S
C4399 C4400 1.400 . S
C4399 C4404 1.490 . S
C4400 H4390 0.930 . S
C4400 C4399 1.400 . S
C4400 C4403 1.386 . S
H4401 C4417 0.930 . S
H4402 C4418 0.931 . S
C4403 H4391 0.929 . S
C4403 C4397 1.390 . S
C4403 C4400 1.386 . S
C4404 C4399 1.490 . S
C4404 C4406 1.395 . S
C4404 C4407 1.403 . S
H4405 C4411 0.930 . S
C4406 H4392 0.930 . S
C4406 C4404 1.395 . S
C4406 C4409 1.403 . S
C4407 C4404 1.403 . S
C4407 C4408 1.524 . S
C4407 C4411 1.400 . S
C4408 H4393 0.960 . S
C4408 H4394 0.960 . S
C4408 H4395 0.960 . S
C4408 C4407 1.524 . S
C4409 C4406 1.403 . S
C4409 C4410 1.392 . S
C4409 C4413 1.495 . S
C4410 C4409 1.392 . S
C4410 C4411 1.385 . S
C4410 C4412 1.478 . S
C4411 H4405 0.930 . S
C4411 C4407 1.400 . S
C4411 C4410 1.385 . S
C4412 C4410 1.478 . S
C4412 C4414 1.381 . S
C4412 C4418 1.383 . S
C4413 C4409 1.495 . S
C4413 H4419 0.959 . S
C4413 H4420 0.961 . S
C4413 H4421 0.960 . S
C4414 C4412 1.381 . S
C4414 C4415 1.394 . S
C4414 H4422 0.930 . S
C4415 C4414 1.394 . S
C4415 C4416 1.383 1_565 S
C4415 H4423 0.929 . S
C4416 C4415 1.383 1_545 S
C4416 C4417 1.377 . S
C4417 H4401 0.930 . S
C4417 C4416 1.377 . S
C4417 C4418 1.379 1_545 S
C4418 H4402 0.931 . S
C4418 C4412 1.383 . S
C4418 C4417 1.379 1_565 S
H4419 C4413 0.959 . S
H4420 C4413 0.961 . S
H4421 C4413 0.960 . S
H4422 C4414 0.930 . S
H4423 C4415 0.929 . S
H4424 C4432 0.929 . S
H4425 C4434 0.930 . S
H4426 C4436 0.930 . S
H4427 C4439 0.929 . S
H4428 C4442 0.930 . S
H4429 C4444 0.960 . S
H4430 C4444 0.960 . S
H4431 C4444 0.960 . S
C4432 H4424 0.929 . S
C4432 C4433 1.377 . S
C4432 C4434 1.384 . S
C4433 C4432 1.377 . S
C4433 C4439 1.390 . S
C4434 H4425 0.930 . S
C4434 C4432 1.384 . S
C4434 C4435 1.372 . S
C4435 C4434 1.372 . S
C4435 C4436 1.400 . S
C4435 C4440 1.490 . S
C4436 H4426 0.930 . S
C4436 C4435 1.400 . S
C4436 C4439 1.386 . S
H4437 C4453 0.930 . S
H4438 C4454 0.931 . S
C4439 H4427 0.929 . S
C4439 C4433 1.390 . S
C4439 C4436 1.386 . S
C4440 C4435 1.490 . S
C4440 C4442 1.395 . S
C4440 C4443 1.403 . S
H4441 C4447 0.930 . S
C4442 H4428 0.930 . S
C4442 C4440 1.395 . S
C4442 C4445 1.403 . S
C4443 C4440 1.403 . S
C4443 C4444 1.524 . S
C4443 C4447 1.400 . S
C4444 H4429 0.960 . S
C4444 H4430 0.960 . S
C4444 H4431 0.960 . S
C4444 C4443 1.524 . S
C4445 C4442 1.403 . S
C4445 C4446 1.392 . S
C4445 C4449 1.495 . S
C4446 C4445 1.392 . S
C4446 C4447 1.385 . S
C4446 C4448 1.478 . S
C4447 H4441 0.930 . S
C4447 C4443 1.400 . S
C4447 C4446 1.385 . S
C4448 C4446 1.478 . S
C4448 C4450 1.381 . S
C4448 C4454 1.383 . S
C4449 C4445 1.495 . S
C4449 H4455 0.959 . S
C4449 H4456 0.961 . S
C4449 H4457 0.960 . S
C4450 C4448 1.381 . S
C4450 C4451 1.394 . S
C4450 H4458 0.930 . S
C4451 C4450 1.394 . S
C4451 C4452 1.383 . S
C4451 H4459 0.929 . S
C4452 C4451 1.383 . S
C4452 C4453 1.377 . S
C4453 H4437 0.930 . S
C4453 C4452 1.377 . S
C4453 C4454 1.379 . S
C4454 H4438 0.931 . S
C4454 C4448 1.383 . S
C4454 C4453 1.379 . S
H4455 C4449 0.959 . S
H4456 C4449 0.961 . S
H4457 C4449 0.960 . S
H4458 C4450 0.930 . S
H4459 C4451 0.929 . S
H4460 C4468 0.929 . S
H4461 C4470 0.930 . S
H4462 C4472 0.930 . S
H4463 C4475 0.929 . S
H4464 C4478 0.930 . S
H4465 C4480 0.960 . S
H4466 C4480 0.960 . S
H4467 C4480 0.960 . S
C4468 H4460 0.929 . S
C4468 C4469 1.377 . S
C4468 C4470 1.384 . S
C4469 C4468 1.377 . S
C4469 C4475 1.390 1_556 S
C4470 H4461 0.930 . S
C4470 C4468 1.384 . S
C4470 C4471 1.398 . S
C4471 C4470 1.398 . S
C4471 C4472 1.383 1_556 S
C4471 C4476 1.475 1_556 S
C4472 H4462 0.930 . S
C4472 C4471 1.383 1_554 S
C4472 C4475 1.386 . S
H4473 C4489 0.930 . S
H4474 C4490 0.931 . S
C4475 H4463 0.929 . S
C4475 C4469 1.390 1_554 S
C4475 C4472 1.386 . S
C4476 C4471 1.475 1_554 S
C4476 C4478 1.416 . S
C4476 C4479 1.392 1_554 S
H4477 C4483 0.930 . S
C4478 H4464 0.930 . S
C4478 C4476 1.416 . S
C4478 C4481 1.403 . S
C4479 C4476 1.392 1_556 S
C4479 C4480 1.524 . S
C4479 C4483 1.400 . S
C4480 H4465 0.960 . S
C4480 H4466 0.960 . S
C4480 H4467 0.960 . S
C4480 C4479 1.524 . S
C4481 C4478 1.403 . S
C4481 C4482 1.392 . S
C4481 C4485 1.495 . S
C4482 C4481 1.392 . S
C4482 C4483 1.385 1_554 S
C4482 C4484 1.478 . S
C4483 H4477 0.930 . S
C4483 C4479 1.400 . S
C4483 C4482 1.385 1_556 S
C4484 C4482 1.478 . S
C4484 C4486 1.381 1_554 S
C4484 C4490 1.383 . S
C4485 C4481 1.495 . S
C4485 H4491 0.959 . S
C4485 H4492 0.961 . S
C4485 H4493 0.960 . S
C4486 C4484 1.381 1_556 S
C4486 C4487 1.394 . S
C4486 H4494 0.930 . S
C4487 C4486 1.394 . S
C4487 C4488 1.383 1_556 S
C4487 H4495 0.929 . S
C4488 C4487 1.383 1_554 S
C4488 C4489 1.377 . S
C4489 H4473 0.930 . S
C4489 C4488 1.377 . S
C4489 C4490 1.379 . S
C4490 H4474 0.931 . S
C4490 C4484 1.383 . S
C4490 C4489 1.379 . S
H4491 C4485 0.959 . S
H4492 C4485 0.961 . S
H4493 C4485 0.960 . S
H4494 C4486 0.930 . S
H4495 C4487 0.929 . S
H4496 C4504 0.929 . S
H4497 C4506 0.930 . S
H4498 C4508 0.930 . S
H4499 C4511 0.929 . S
H4500 C4514 0.930 . S
H4501 C4516 0.960 . S
H4502 C4516 0.960 . S
H4503 C4516 0.960 . S
C4504 H4496 0.929 . S
C4504 C4505 1.377 . S
C4504 C4506 1.384 . S
C4505 C4504 1.377 . S
C4505 C4511 1.390 . S
C4506 H4497 0.930 . S
C4506 C4504 1.384 . S
C4506 C4507 1.372 . S
C4507 C4506 1.372 . S
C4507 C4508 1.400 . S
C4507 C4512 1.490 . S
C4508 H4498 0.930 . S
C4508 C4507 1.400 . S
C4508 C4511 1.386 . S
H4509 C4525 0.930 . S
H4510 C4526 0.931 . S
C4511 H4499 0.929 . S
C4511 C4505 1.390 . S
C4511 C4508 1.386 . S
C4512 C4507 1.490 . S
C4512 C4514 1.395 . S
C4512 C4515 1.403 . S
H4513 C4519 0.930 . S
C4514 H4500 0.930 . S
C4514 C4512 1.395 . S
C4514 C4517 1.403 . S
C4515 C4512 1.403 . S
C4515 C4516 1.524 . S
C4515 C4519 1.400 . S
C4516 H4501 0.960 . S
C4516 H4502 0.960 . S
C4516 H4503 0.960 . S
C4516 C4515 1.524 . S
C4517 C4514 1.403 . S
C4517 C4518 1.392 . S
C4517 C4521 1.495 . S
C4518 C4517 1.392 . S
C4518 C4519 1.385 . S
C4518 C4520 1.478 . S
C4519 H4513 0.930 . S
C4519 C4515 1.400 . S
C4519 C4518 1.385 . S
C4520 C4518 1.478 . S
C4520 C4522 1.381 . S
C4520 C4526 1.383 . S
C4521 C4517 1.495 . S
C4521 H4527 0.959 . S
C4521 H4528 0.961 . S
C4521 H4529 0.960 . S
C4522 C4520 1.381 . S
C4522 C4523 1.394 . S
C4522 H4530 0.930 . S
C4523 C4522 1.394 . S
C4523 C4524 1.383 . S
C4523 H4531 0.929 . S
C4524 C4523 1.383 . S
C4524 C4525 1.377 . S
C4525 H4509 0.930 . S
C4525 C4524 1.377 . S
C4525 C4526 1.379 . S
C4526 H4510 0.931 . S
C4526 C4520 1.383 . S
C4526 C4525 1.379 . S
H4527 C4521 0.959 . S
H4528 C4521 0.961 . S
H4529 C4521 0.960 . S
H4530 C4522 0.930 . S
H4531 C4523 0.929 . S
H4532 C4540 0.929 . S
H4533 C4542 0.930 . S
H4534 C4544 0.930 1_556 S
H4535 C4547 0.948 . S
H4536 C4550 0.930 . S
H4537 C4552 0.960 . S
H4538 C4552 0.960 . S
H4539 C4552 0.960 . S
C4540 H4532 0.929 . S
C4540 C4541 1.377 . S
C4540 C4542 1.384 . S
C4541 C4540 1.377 . S
C4541 C4547 1.390 . S
C4542 H4533 0.930 . S
C4542 C4540 1.384 . S
C4542 C4543 1.372 . S
C4543 C4542 1.372 . S
C4543 C4544 1.400 . S
C4543 C4548 1.490 . S
C4544 H4534 0.930 1_554 S
C4544 C4543 1.400 . S
C4544 C4547 1.386 . S
H4545 C4561 0.930 . S
H4546 C4562 0.931 . S
C4547 H4535 0.948 . S
C4547 C4541 1.390 . S
C4547 C4544 1.386 . S
C4548 C4543 1.490 . S
C4548 C4550 1.395 . S
C4548 C4551 1.403 1_554 S
H4549 C4555 0.930 . S
C4550 H4536 0.930 . S
C4550 C4548 1.395 . S
C4550 C4553 1.403 . S
C4551 C4548 1.403 1_556 S
C4551 C4552 1.524 . S
C4551 C4555 1.400 . S
C4552 H4537 0.960 . S
C4552 H4538 0.960 . S
C4552 H4539 0.960 . S
C4552 C4551 1.524 . S
C4553 C4550 1.403 . S
C4553 C4554 1.392 . S
C4553 C4557 1.495 . S
C4554 C4553 1.392 . S
C4554 C4555 1.385 1_554 S
C4554 C4556 1.478 . S
C4555 H4549 0.930 . S
C4555 C4551 1.400 . S
C4555 C4554 1.385 1_556 S
C4556 C4554 1.478 . S
C4556 C4558 1.381 . S
C4556 C4562 1.383 1_554 S
C4557 C4553 1.495 . S
C4557 H4563 0.959 . S
C4557 H4564 0.961 . S
C4557 H4565 0.960 . S
C4558 C4556 1.381 . S
C4558 C4559 1.394 . S
C4558 H4566 0.930 . S
C4559 C4558 1.394 . S
C4559 C4560 1.365 1_554 S
C4559 H4567 0.929 . S
C4560 C4559 1.365 1_556 S
C4560 C4561 1.391 . S
C4561 H4545 0.930 . S
C4561 C4560 1.391 . S
C4561 C4562 1.379 . S
C4562 H4546 0.931 . S
C4562 C4556 1.383 1_556 S
C4562 C4561 1.379 . S
H4563 C4557 0.959 . S
H4564 C4557 0.961 . S
H4565 C4557 0.960 . S
H4566 C4558 0.930 . S
H4567 C4559 0.929 . S
H4568 C4576 0.929 1_545 S
H4569 C4578 0.930 . S
H4570 C4580 0.930 . S
H4571 C4583 0.929 . S
H4572 C4586 0.930 . S
H4573 C4588 0.960 . S
H4574 C4588 0.960 . S
H4575 C4588 0.960 . S
C4576 H4568 0.929 1_565 S
C4576 C4577 1.377 . S
C4576 C4578 1.384 . S
C4577 C4576 1.377 . S
C4577 C4583 1.392 . S
C4578 H4569 0.930 . S
C4578 C4576 1.384 . S
C4578 C4579 1.372 . S
C4579 C4578 1.372 . S
C4579 C4580 1.400 . S
C4579 C4584 1.490 . S
C4580 H4570 0.930 . S
C4580 C4579 1.400 . S
C4580 C4583 1.386 . S
H4581 C4597 0.930 . S
H4582 C4598 0.931 . S
C4583 H4571 0.929 . S
C4583 C4577 1.392 . S
C4583 C4580 1.386 . S
C4584 C4579 1.490 . S
C4584 C4586 1.395 . S
C4584 C4587 1.403 . S
H4585 C4591 0.930 . S
C4586 H4572 0.930 . S
C4586 C4584 1.395 . S
C4586 C4589 1.403 . S
C4587 C4584 1.403 . S
C4587 C4588 1.524 . S
C4587 C4591 1.400 . S
C4588 H4573 0.960 . S
C4588 H4574 0.960 . S
C4588 H4575 0.960 . S
C4588 C4587 1.524 . S
C4589 C4586 1.403 . S
C4589 C4590 1.392 . S
C4589 C4593 1.495 . S
C4590 C4589 1.392 . S
C4590 C4591 1.385 . S
C4590 C4592 1.478 . S
C4591 H4585 0.930 . S
C4591 C4587 1.400 . S
C4591 C4590 1.385 . S
C4592 C4590 1.478 . S
C4592 C4594 1.381 . S
C4592 C4598 1.383 . S
C4593 C4589 1.495 . S
C4593 H4599 0.959 . S
C4593 H4600 0.961 . S
C4593 H4601 0.960 . S
C4594 C4592 1.381 . S
C4594 C4595 1.394 . S
C4594 H4602 0.930 . S
C4595 C4594 1.394 . S
C4595 C4596 1.383 . S
C4595 H4603 0.929 . S
C4596 C4595 1.383 . S
C4596 C4597 1.377 . S
C4597 H4581 0.930 . S
C4597 C4596 1.377 . S
C4597 C4598 1.379 . S
C4598 H4582 0.931 . S
C4598 C4592 1.383 . S
C4598 C4597 1.379 . S
H4599 C4593 0.959 . S
H4600 C4593 0.961 . S
H4601 C4593 0.960 . S
H4602 C4594 0.930 . S
H4603 C4595 0.929 . S
H4604 C4612 0.929 . S
H4605 C4614 0.930 . S
H4606 C4616 0.930 . S
H4607 C4619 0.929 . S
H4608 C4622 0.930 . S
H4609 C4624 0.960 . S
H4610 C4624 0.960 . S
H4611 C4624 0.960 . S
C4612 H4604 0.929 . S
C4612 C4613 1.377 . S
C4612 C4614 1.384 . S
C4613 C4612 1.377 . S
C4613 C4619 1.390 . S
C4614 H4605 0.930 . S
C4614 C4612 1.384 . S
C4614 C4615 1.372 . S
C4615 C4614 1.372 . S
C4615 C4616 1.400 . S
C4615 C4620 1.490 . S
C4616 H4606 0.930 . S
C4616 C4615 1.400 . S
C4616 C4619 1.386 . S
H4617 C4633 0.930 . S
H4618 C4634 0.931 . S
C4619 H4607 0.929 . S
C4619 C4613 1.390 . S
C4619 C4616 1.386 . S
C4620 C4615 1.490 . S
C4620 C4622 1.395 . S
C4620 C4623 1.403 . S
H4621 C4627 0.930 . S
C4622 H4608 0.930 . S
C4622 C4620 1.395 . S
C4622 C4625 1.403 . S
C4623 C4620 1.403 . S
C4623 C4624 1.524 . S
C4623 C4627 1.400 . S
C4624 H4609 0.960 . S
C4624 H4610 0.960 . S
C4624 H4611 0.960 . S
C4624 C4623 1.524 . S
C4625 C4622 1.403 . S
C4625 C4626 1.392 . S
C4625 C4629 1.495 . S
C4626 C4625 1.392 . S
C4626 C4627 1.385 . S
C4626 C4628 1.478 . S
C4627 H4621 0.930 . S
C4627 C4623 1.400 . S
C4627 C4626 1.385 . S
C4628 C4626 1.478 . S
C4628 C4630 1.381 . S
C4628 C4634 1.383 . S
C4629 C4625 1.495 . S
C4629 H4635 0.959 . S
C4629 H4636 0.961 . S
C4629 H4637 0.960 . S
C4630 C4628 1.381 . S
C4630 C4631 1.394 . S
C4630 H4638 0.930 . S
C4631 C4630 1.394 . S
C4631 C4632 1.383 . S
C4631 H4639 0.929 . S
C4632 C4631 1.383 . S
C4632 C4633 1.377 . S
C4633 H4617 0.930 . S
C4633 C4632 1.377 . S
C4633 C4634 1.379 . S
C4634 H4618 0.931 . S
C4634 C4628 1.383 . S
C4634 C4633 1.379 . S
H4635 C4629 0.959 . S
H4636 C4629 0.961 . S
H4637 C4629 0.960 . S
H4638 C4630 0.930 . S
H4639 C4631 0.929 . S
C1193 C255 1.146 . S
C1212 C880 1.092 . S
C1229 C147 1.171 . S
C1248 C893 1.175 . S
C1265 C184 1.205 . S
C1284 C912 1.164 1_565 S
C1320 C943 1.938 . S
C1301 C220 1.996 . S
C1337 C40 1.739 . S
C1356 C963 1.710 . S
C1392 C980 0.729 . S
C1373 C74 0.753 . S
C1428 C993 1.503 . S
C1409 C110 1.495 . S
C1445 C14 0.813 . S
C1464 C1020 0.788 . S
C1500 C873 1.128 . S
C1481 C579 1.166 . S
C1517 C616 1.416 . S
C1536 C903 1.397 . S
C1572 C905 1.733 . S
C1553 C687 1.762 . S
C1608 C940 0.760 . S
C1589 C436 0.794 . S
C1625 C580 1.046 . S
C1644 C960 1.033 . S
C1680 C973 1.810 . S
C1661 C615 1.813 . S
C1716 C1003 1.210 . S
C1697 C688 1.215 . S
C1752 C1013 1.126 . S
C1733 C435 1.168 . S
C1788 C883 1.556 . S
C1769 C410 1.571 . S
C1805 C722 1.903 . S
C1824 C1033 1.906 . S
C1860 C1063 1.640 . S
C1841 C842 1.650 . S
C1896 C1080 1.105 . S
C1877 C794 1.120 . S
C1913 C302 1.960 . S
C1932 C1023 2.015 . S
C1949 C338 1.171 . S
C1968 C910 1.147 . S
C1985 C830 1.991 . S
C2004 C1093 1.987 . S
C2040 C1120 0.876 . S
C2021 C758 0.854 . S
C2076 C870 1.032 . S
C2057 C158 1.052 . S
C2112 C1105 1.131 . S
C2093 C254 1.160 . S
C2129 C218 1.179 . S
C2148 C923 1.188 . S
C2165 C194 1.922 . S
C2184 C1092 1.904 . S
C2220 C952 1.671 . S
C2201 C3 1.711 . S
C2237 C111 0.605 . S
C2256 C1050 0.581 . S
C2292 C985 1.434 1_556 S
C2273 C76 1.440 . S
C2328 C1130 0.859 . S
C2309 C50 0.880 . S
C2364 C865 1.077 . S
C2345 C364 1.093 1_565 S
C2400 C1112 1.324 . S
C2381 C795 1.369 . S
C2417 C292 1.686 . S
C2436 C913 1.634 . S
C2453 C723 0.717 . S
C2472 C1090 0.747 . S
C2489 C363 1.020 . S
C2508 C950 0.997 . S
C2544 C1045 1.787 . S
C2525 C796 1.775 . S
C2561 C291 1.195 . S
C2580 C992 1.152 . S
C2597 C724 1.153 . S
C2616 C1125 1.112 . S
C2633 C482 1.493 1_554 S
C2652 C872 1.542 . S
C2669 C434 1.893 . S
C2688 C1025 1.891 . S
C2705 C662 1.543 . S
C2724 C972 1.595 . S
C2741 C614 1.105 . S
C2760 C1070 1.120 . S
C2796 C1132 2.007 . S
C2777 C698 1.978 . S
C2813 C554 1.139 . S
C2832 C920 1.194 . S
C2868 C925 1.923 . S
C2849 C650 1.923 . S
C2904 C890 0.784 . S
C2885 C506 0.820 . S
C2921 C183 1.144 . S
C2940 C1160 1.111 . S
C2976 C1113 1.139 . S
C2957 C219 1.172 . S
C2993 C256 1.199 . S
C3012 C1172 1.146 1_556 S
C3029 C148 1.992 . S
C3048 C1103 1.931 . S
C3065 C122 1.741 . S
C3084 C1043 1.768 . S
C3120 C1060 0.676 . S
C3101 C2 0.690 . S
C3156 C1073 1.408 . S
C3137 C39 1.377 . S
C3192 C1140 0.857 . S
C3173 C86 0.894 . S
C3228 C1153 1.185 . S
C3209 C651 1.183 . S
C3245 C472 1.414 . S
C3264 C1123 1.408 . S
C3300 C1165 1.718 . S
C3281 C507 1.748 . S
C3336 C1100 0.830 . S
C3317 C544 0.796 . S
C3372 C1040 1.057 . S
C3353 C652 1.045 . S
C3389 C471 1.791 . S
C3408 C1053 1.769 . S
C3444 C1083 1.150 . S
C3425 C508 1.203 . S
C3461 C543 1.193 . S
C3480 C1133 1.155 . S
C3516 C1163 1.613 . S
C3497 C806 1.583 . S
C3533 C326 1.888 . S
C3552 C953 1.870 . S
C3588 C983 1.605 . S
C3569 C374 1.627 . S
C3624 C1000 1.122 . S
C3605 C398 1.151 . S
C3660 C1143 1.989 . S
C3641 C770 1.975 . S
C3677 C734 1.166 . S
C3696 C1170 1.171 . S
C3732 C933 1.986 . S
C3713 C362 1.973 . S
C3768 C900 0.889 . S
C3749 C290 0.868 . S
C3785 C230 1.063 . S
C3804 C1150 1.086 . S
C3840 C885 1.158 . S
C3821 C182 1.171 . S
C3857 C146 1.185 . S
C3876 C1183 1.148 . S
C3893 C266 1.920 . S
C3912 C932 1.901 . S
C3929 C75 1.781 . S
C3948 C1032 1.766 1_556 S
C3984 C970 0.757 . S
C3965 C38 0.723 . S
C4001 C4 1.369 . S
C4020 C1065 1.374 . S
C4037 C112 0.832 . S
C4056 C1010 0.799 . S
C4092 C1145 1.109 . S
C4073 C832 1.101 . S
C4109 C399 1.380 . S
C4128 C892 1.369 . S
C4164 C1173 1.637 1_655 S
C4145 C760 1.678 . S
C4181 C327 0.716 . S
C4200 C930 0.691 . S
C4217 C831 1.042 . S
C4236 C1030 1.054 . S
C4272 C965 1.787 . S
C4253 C400 1.776 . S
C4289 C759 1.196 . S
C4308 C1072 1.187 . S
C4344 C1005 1.123 . S
C4325 C328 1.165 . S
C4380 C1152 1.556 . S
C4361 C626 1.508 . S
C4416 C945 1.882 . S
C4397 C542 1.891 . S
C4433 C590 1.506 . S
C4452 C1052 1.584 . S
C4488 C990 1.100 . S
C4469 C470 1.117 . S
C4505 C518 1.973 . S
C4524 C1012 1.964 . S
C4541 C446 1.139 . S
C4560 C1180 1.127 1_556 S
C4596 C1085 1.934 . S
C4577 C578 1.932 1_565 S
C4632 C1110 0.756 . S
C4613 C686 0.791 . S
