# Generated by pormake.
# Topology eea, (3,6)-cn, num edge types: 1
# Building blocks:
#     Node 0, Type 0, BuildingBlock: WUSLED_clean_sbu_0, # of connection points: 3
#     Node 1, Type 0, BuildingBlock: WUSLED_clean_sbu_0, # of connection points: 3
#     Node 2, Type 0, BuildingBlock: WUSLED_clean_sbu_0, # of connection points: 3
#     Node 3, Type 0, BuildingBlock: WUSLED_clean_sbu_0, # of connection points: 3
#     Node 4, Type 0, BuildingBlock: WUSLED_clean_sbu_0, # of connection points: 3
#     Node 5, Type 0, BuildingBlock: WUSLED_clean_sbu_0, # of connection points: 3
#     Node 6, Type 0, BuildingBlock: WUSLED_clean_sbu_0, # of connection points: 3
#     Node 7, Type 0, BuildingBlock: WUSLED_clean_sbu_0, # of connection points: 3
#     Node 8, Type 0, BuildingBlock: WUSLED_clean_sbu_0, # of connection points: 3
#     Node 9, Type 0, BuildingBlock: WUSLED_clean_sbu_0, # of connection points: 3
#     Node 10, Type 0, BuildingBlock: WUSLED_clean_sbu_0, # of connection points: 3
#     Node 11, Type 0, BuildingBlock: WUSLED_clean_sbu_0, # of connection points: 3
#     Node 12, Type 0, BuildingBlock: WUSLED_clean_sbu_0, # of connection points: 3
#     Node 13, Type 0, BuildingBlock: WUSLED_clean_sbu_0, # of connection points: 3
#     Node 14, Type 0, BuildingBlock: WUSLED_clean_sbu_0, # of connection points: 3
#     Node 15, Type 0, BuildingBlock: WUSLED_clean_sbu_0, # of connection points: 3
#     Node 16, Type 0, BuildingBlock: WUSLED_clean_sbu_0, # of connection points: 3
#     Node 17, Type 0, BuildingBlock: WUSLED_clean_sbu_0, # of connection points: 3
#     Node 18, Type 1, BuildingBlock: CIFDUS_clean_sbu_1, # of connection points: 6
#     Node 19, Type 1, BuildingBlock: CIFDUS_clean_sbu_1, # of connection points: 6
#     Node 20, Type 1, BuildingBlock: CIFDUS_clean_sbu_1, # of connection points: 6
#     Node 21, Type 1, BuildingBlock: CIFDUS_clean_sbu_1, # of connection points: 6
#     Node 22, Type 1, BuildingBlock: CIFDUS_clean_sbu_1, # of connection points: 6
#     Node 23, Type 1, BuildingBlock: CIFDUS_clean_sbu_1, # of connection points: 6
#     Node 24, Type 1, BuildingBlock: CIFDUS_clean_sbu_1, # of connection points: 6
#     Node 25, Type 1, BuildingBlock: CIFDUS_clean_sbu_1, # of connection points: 6
#     Node 26, Type 1, BuildingBlock: CIFDUS_clean_sbu_1, # of connection points: 6
#     Edge 27, Type (0, 1), BuildingBlock: MIFKUJ_clean_linker_0, # of connection points: 2
#     Edge 28, Type (0, 1), BuildingBlock: MIFKUJ_clean_linker_0, # of connection points: 2
#     Edge 29, Type (0, 1), BuildingBlock: MIFKUJ_clean_linker_0, # of connection points: 2
#     Edge 30, Type (0, 1), BuildingBlock: MIFKUJ_clean_linker_0, # of connection points: 2
#     Edge 31, Type (0, 1), BuildingBlock: MIFKUJ_clean_linker_0, # of connection points: 2
#     Edge 32, Type (0, 1), BuildingBlock: MIFKUJ_clean_linker_0, # of connection points: 2
#     Edge 33, Type (0, 1), BuildingBlock: MIFKUJ_clean_linker_0, # of connection points: 2
#     Edge 34, Type (0, 1), BuildingBlock: MIFKUJ_clean_linker_0, # of connection points: 2
#     Edge 35, Type (0, 1), BuildingBlock: MIFKUJ_clean_linker_0, # of connection points: 2
#     Edge 36, Type (0, 1), BuildingBlock: MIFKUJ_clean_linker_0, # of connection points: 2
#     Edge 37, Type (0, 1), BuildingBlock: MIFKUJ_clean_linker_0, # of connection points: 2
#     Edge 38, Type (0, 1), BuildingBlock: MIFKUJ_clean_linker_0, # of connection points: 2
#     Edge 39, Type (0, 1), BuildingBlock: MIFKUJ_clean_linker_0, # of connection points: 2
#     Edge 40, Type (0, 1), BuildingBlock: MIFKUJ_clean_linker_0, # of connection points: 2
#     Edge 41, Type (0, 1), BuildingBlock: MIFKUJ_clean_linker_0, # of connection points: 2
#     Edge 42, Type (0, 1), BuildingBlock: MIFKUJ_clean_linker_0, # of connection points: 2
#     Edge 43, Type (0, 1), BuildingBlock: MIFKUJ_clean_linker_0, # of connection points: 2
#     Edge 44, Type (0, 1), BuildingBlock: MIFKUJ_clean_linker_0, # of connection points: 2
#     Edge 45, Type (0, 1), BuildingBlock: MIFKUJ_clean_linker_0, # of connection points: 2
#     Edge 46, Type (0, 1), BuildingBlock: MIFKUJ_clean_linker_0, # of connection points: 2
#     Edge 47, Type (0, 1), BuildingBlock: MIFKUJ_clean_linker_0, # of connection points: 2
#     Edge 48, Type (0, 1), BuildingBlock: MIFKUJ_clean_linker_0, # of connection points: 2
#     Edge 49, Type (0, 1), BuildingBlock: MIFKUJ_clean_linker_0, # of connection points: 2
#     Edge 50, Type (0, 1), BuildingBlock: MIFKUJ_clean_linker_0, # of connection points: 2
#     Edge 51, Type (0, 1), BuildingBlock: MIFKUJ_clean_linker_0, # of connection points: 2
#     Edge 52, Type (0, 1), BuildingBlock: MIFKUJ_clean_linker_0, # of connection points: 2
#     Edge 53, Type (0, 1), BuildingBlock: MIFKUJ_clean_linker_0, # of connection points: 2
#     Edge 54, Type (0, 1), BuildingBlock: MIFKUJ_clean_linker_0, # of connection points: 2
#     Edge 55, Type (0, 1), BuildingBlock: MIFKUJ_clean_linker_0, # of connection points: 2
#     Edge 56, Type (0, 1), BuildingBlock: MIFKUJ_clean_linker_0, # of connection points: 2
#     Edge 57, Type (0, 1), BuildingBlock: MIFKUJ_clean_linker_0, # of connection points: 2
#     Edge 58, Type (0, 1), BuildingBlock: MIFKUJ_clean_linker_0, # of connection points: 2
#     Edge 59, Type (0, 1), BuildingBlock: MIFKUJ_clean_linker_0, # of connection points: 2
#     Edge 60, Type (0, 1), BuildingBlock: MIFKUJ_clean_linker_0, # of connection points: 2
#     Edge 61, Type (0, 1), BuildingBlock: MIFKUJ_clean_linker_0, # of connection points: 2
#     Edge 62, Type (0, 1), BuildingBlock: MIFKUJ_clean_linker_0, # of connection points: 2
#     Edge 63, Type (0, 1), BuildingBlock: MIFKUJ_clean_linker_0, # of connection points: 2
#     Edge 64, Type (0, 1), BuildingBlock: MIFKUJ_clean_linker_0, # of connection points: 2
#     Edge 65, Type (0, 1), BuildingBlock: MIFKUJ_clean_linker_0, # of connection points: 2
#     Edge 66, Type (0, 1), BuildingBlock: MIFKUJ_clean_linker_0, # of connection points: 2
#     Edge 67, Type (0, 1), BuildingBlock: MIFKUJ_clean_linker_0, # of connection points: 2
#     Edge 68, Type (0, 1), BuildingBlock: MIFKUJ_clean_linker_0, # of connection points: 2
#     Edge 69, Type (0, 1), BuildingBlock: MIFKUJ_clean_linker_0, # of connection points: 2
#     Edge 70, Type (0, 1), BuildingBlock: MIFKUJ_clean_linker_0, # of connection points: 2
#     Edge 71, Type (0, 1), BuildingBlock: MIFKUJ_clean_linker_0, # of connection points: 2
#     Edge 72, Type (0, 1), BuildingBlock: MIFKUJ_clean_linker_0, # of connection points: 2
#     Edge 73, Type (0, 1), BuildingBlock: MIFKUJ_clean_linker_0, # of connection points: 2
#     Edge 74, Type (0, 1), BuildingBlock: MIFKUJ_clean_linker_0, # of connection points: 2
#     Edge 75, Type (0, 1), BuildingBlock: MIFKUJ_clean_linker_0, # of connection points: 2
#     Edge 76, Type (0, 1), BuildingBlock: MIFKUJ_clean_linker_0, # of connection points: 2
#     Edge 77, Type (0, 1), BuildingBlock: MIFKUJ_clean_linker_0, # of connection points: 2
#     Edge 78, Type (0, 1), BuildingBlock: MIFKUJ_clean_linker_0, # of connection points: 2
#     Edge 79, Type (0, 1), BuildingBlock: MIFKUJ_clean_linker_0, # of connection points: 2
#     Edge 80, Type (0, 1), BuildingBlock: MIFKUJ_clean_linker_0, # of connection points: 2
# Relax obj value: 0.097
# Max RMSD: 0.179
# Mean RMSD: 0.090
data_MOF--net-eea--node1-WUSLED_clean_sbu_0--node2-CIFDUS_clean_sbu_1--edge1-MIFKUJ_clean_linker_0
_symmetry_space_group_name_H-M    P1
_symmetry_Int_Tables_number       1
_symmetry_cell_setting            triclinic
loop_
_symmetry_equiv_pos_as_xyz
'x, y, z'
_cell_length_a     87.470091
_cell_length_b     86.939087
_cell_length_c     86.31327
_cell_angle_alpha  89.497656
_cell_angle_beta   90.12292
_cell_angle_gamma 119.98882
loop_
_atom_site_label
_atom_site_type_symbol
_atom_site_fract_x
_atom_site_fract_y
_atom_site_fract_z
_atom_type_partial_charge
C0 C 0.24936 0.16058 0.38506 0.0
C1 C 0.25543 0.17475 0.39547 0.0
C2 C 0.24371 0.18935 0.37891 0.0
C3 C 0.25267 0.18903 0.3924 0.0
C4 C 0.23788 0.17515 0.36847 0.0
C5 C 0.2407 0.16095 0.37153 0.0
U6 U 0.26287 0.13368 0.4114 0.0
O7 O 0.24988 0.10487 0.41541 0.0
O8 O 0.27661 0.11902 0.40551 0.0
C9 C 0.26298 0.10359 0.40937 0.0
C10 C 0.2516 0.14515 0.38821 0.0
C11 C 0.25812 0.08878 0.39854 0.0
C12 C 0.23833 0.0676 0.37952 0.0
C13 C 0.24399 0.08316 0.38811 0.0
C14 C 0.26146 0.06373 0.39103 0.0
C15 C 0.24677 0.05749 0.38115 0.0
C16 C 0.26702 0.07917 0.39964 0.0
C17 C 0.28099 0.15233 0.45221 0.0
C18 C 0.28473 0.13663 0.47405 0.0
C19 C 0.29595 0.1683 0.47552 0.0
C20 C 0.28978 0.16818 0.46055 0.0
C21 C 0.29339 0.15252 0.48253 0.0
C22 C 0.27862 0.13654 0.45898 0.0
C23 C 0.27393 0.1527 0.43677 0.0
O24 O 0.26797 0.14854 0.38944 0.0
O25 O 0.24108 0.134 0.39887 0.0
O26 O 0.25733 0.14076 0.43427 0.0
O27 O 0.28427 0.15504 0.42489 0.0
H28 H 0.26218 0.17469 0.40599 0.0
H29 H 0.25752 0.1998 0.40062 0.0
H30 H 0.23066 0.17472 0.35813 0.0
H31 H 0.23587 0.15009 0.36339 0.0
H32 H 0.22708 0.06324 0.3719 0.0
H33 H 0.23698 0.09045 0.387 0.0
H34 H 0.26813 0.05618 0.39275 0.0
H35 H 0.27791 0.08324 0.40764 0.0
H36 H 0.28269 0.12427 0.47907 0.0
H37 H 0.30232 0.1807 0.48178 0.0
H38 H 0.29165 0.18048 0.45555 0.0
H39 H 0.2719 0.12416 0.45271 0.0
C40 C 0.91792 0.16371 0.38022 0.0
C41 C 0.92766 0.17582 0.39192 0.0
C42 C 0.95308 0.19087 0.37459 0.0
C43 C 0.9451 0.18927 0.38913 0.0
C44 C 0.94299 0.17908 0.36277 0.0
C45 C 0.9256 0.16563 0.36558 0.0
U46 U 0.87704 0.13716 0.40599 0.0
O47 O 0.84903 0.12058 0.3996 0.0
O48 O 0.86278 0.10859 0.41157 0.0
C49 C 0.84806 0.10598 0.40515 0.0
C50 C 0.90029 0.14831 0.38333 0.0
C51 C 0.83798 0.08948 0.39625 0.0
C52 C 0.82956 0.07212 0.3725 0.0
C53 C 0.84004 0.0883 0.38021 0.0
C54 C 0.81521 0.0584 0.39678 0.0
C55 C 0.81683 0.05704 0.38072 0.0
C56 C 0.82561 0.07438 0.4044 0.0
C57 C 0.87604 0.15665 0.44607 0.0
C58 C 0.85901 0.14073 0.46894 0.0
C59 C 0.87659 0.17281 0.4691 0.0
C60 C 0.88187 0.17269 0.45385 0.0
C61 C 0.86541 0.15682 0.47703 0.0
C62 C 0.86427 0.14064 0.4536 0.0
C63 C 0.88359 0.15706 0.43067 0.0
O64 O 0.89964 0.13763 0.39449 0.0
O65 O 0.88705 0.15143 0.38374 0.0
O66 O 0.87505 0.15814 0.41853 0.0
O67 O 0.88956 0.14602 0.42874 0.0
H68 H 0.92192 0.17459 0.40329 0.0
H69 H 0.95242 0.19828 0.39842 0.0
H70 H 0.94874 0.1798 0.3515 0.0
H71 H 0.91831 0.15638 0.35643 0.0
H72 H 0.83119 0.07147 0.36013 0.0
H73 H 0.8496 0.09982 0.37371 0.0
H74 H 0.80592 0.047 0.40358 0.0
H75 H 0.82391 0.07495 0.41678 0.0
H76 H 0.85046 0.12814 0.47463 0.0
H77 H 0.88146 0.1855 0.47473 0.0
H78 H 0.8909 0.18519 0.44823 0.0
H79 H 0.85958 0.12808 0.44778 0.0
C80 C 0.84781 0.7554 0.38169 0.0
C81 C 0.83538 0.75245 0.39329 0.0
C82 C 0.82069 0.76351 0.37609 0.0
C83 C 0.82194 0.75648 0.39052 0.0
C84 C 0.83291 0.76589 0.36441 0.0
C85 C 0.84632 0.7619 0.3672 0.0
U86 U 0.87423 0.7412 0.40783 0.0
O87 O 0.8903 0.72892 0.40208 0.0
O88 O 0.90261 0.75522 0.41286 0.0
C89 C 0.905 0.74273 0.40688 0.0
C90 C 0.86307 0.75295 0.38476 0.0
C91 C 0.9208 0.74883 0.39706 0.0
C92 C 0.94133 0.76841 0.37731 0.0
C93 C 0.92512 0.76148 0.38515 0.0
C94 C 0.94858 0.74953 0.39275 0.0
C95 C 0.95326 0.76259 0.38117 0.0
C96 C 0.93255 0.74279 0.40065 0.0
C97 C 0.85497 0.72234 0.44857 0.0
C98 C 0.86529 0.70883 0.46769 0.0
C99 C 0.84401 0.71758 0.47497 0.0
C100 C 0.84428 0.72362 0.45991 0.0
C101 C 0.85436 0.70994 0.47908 0.0
C102 C 0.8656 0.71499 0.45251 0.0
C103 C 0.85466 0.72901 0.4329 0.0
O104 O 0.87395 0.76326 0.39549 0.0
O105 O 0.85979 0.73647 0.38578 0.0
O106 O 0.85338 0.71887 0.42118 0.0
O107 O 0.8658 0.74594 0.43041 0.0
H108 H 0.83629 0.74741 0.40457 0.0
H109 H 0.81263 0.75424 0.39972 0.0
H110 H 0.83253 0.77148 0.35324 0.0
H111 H 0.85584 0.76434 0.35813 0.0
H112 H 0.94462 0.77841 0.36837 0.0
H113 H 0.9162 0.7663 0.38221 0.0
H114 H 0.95762 0.74498 0.39608 0.0
H115 H 0.92954 0.73318 0.4099 0.0
H116 H 0.87341 0.70301 0.47044 0.0
H117 H 0.83581 0.71915 0.48346 0.0
H118 H 0.83613 0.7294 0.45713 0.0
H119 H 0.87404 0.71399 0.4439 0.0
C120 C 0.09723 0.25873 0.64135 0.0
C121 C 0.08759 0.26109 0.62944 0.0
C122 C 0.06197 0.25025 0.64645 0.0
C123 C 0.07003 0.25676 0.63195 0.0
C124 C 0.07186 0.24857 0.6585 0.0
C125 C 0.08931 0.25268 0.65594 0.0
U126 U 0.13801 0.27256 0.61564 0.0
O127 O 0.16622 0.28453 0.62177 0.0
O128 O 0.15223 0.25819 0.61109 0.0
C129 C 0.16707 0.27062 0.6171 0.0
C130 C 0.11493 0.26109 0.63849 0.0
C131 C 0.17693 0.26451 0.62688 0.0
C132 C 0.17833 0.24472 0.64631 0.0
C133 C 0.16883 0.25163 0.63863 0.0
C134 C 0.20416 0.26394 0.63093 0.0
C135 C 0.19608 0.25066 0.64239 0.0
C136 C 0.19469 0.27074 0.62328 0.0
C137 C 0.13804 0.29143 0.57461 0.0
C138 C 0.16104 0.30123 0.55493 0.0
C139 C 0.13269 0.29812 0.54843 0.0
C140 C 0.12694 0.29277 0.56364 0.0
C141 C 0.1498 0.30237 0.54378 0.0
C142 C 0.1552 0.29577 0.57021 0.0
C143 C 0.13095 0.28485 0.59028 0.0
O144 O 0.11557 0.25069 0.62788 0.0
O145 O 0.12811 0.27753 0.63747 0.0
O146 O 0.13976 0.29497 0.60201 0.0
O147 O 0.12515 0.26791 0.59288 0.0
H148 H 0.09347 0.26575 0.6181 0.0
H149 H 0.06263 0.25815 0.6225 0.0
H150 H 0.06584 0.2434 0.66971 0.0
H151 H 0.09647 0.25065 0.66524 0.0
H152 H 0.17176 0.23462 0.65518 0.0
H153 H 0.1551 0.24661 0.64159 0.0
H154 H 0.21767 0.26864 0.62741 0.0
H155 H 0.20115 0.28054 0.61415 0.0
H156 H 0.17435 0.30457 0.55186 0.0
H157 H 0.12348 0.29844 0.54022 0.0
H158 H 0.11363 0.28938 0.56679 0.0
H159 H 0.16398 0.29479 0.57853 0.0
C160 C 0.75325 0.84523 0.6441 0.0
C161 C 0.74632 0.82964 0.63529 0.0
C162 C 0.76259 0.81915 0.65101 0.0
C163 C 0.75086 0.8166 0.63881 0.0
C164 C 0.7691 0.83456 0.65997 0.0
C165 C 0.7644 0.8474 0.6566 0.0
U166 U 0.73829 0.87099 0.61692 0.0
O167 O 0.72587 0.88695 0.62295 0.0
O168 O 0.75207 0.89965 0.61201 0.0
C169 C 0.73958 0.90187 0.61815 0.0
C170 C 0.7501 0.85998 0.64011 0.0
C171 C 0.7454 0.91787 0.62776 0.0
C172 C 0.76683 0.94104 0.64465 0.0
C173 C 0.75989 0.92418 0.63789 0.0
C174 C 0.74434 0.94497 0.63189 0.0
C175 C 0.75949 0.95189 0.64126 0.0
C176 C 0.73741 0.92819 0.62525 0.0
C177 C 0.71962 0.85119 0.57612 0.0
C178 C 0.71257 0.86493 0.55459 0.0
C179 C 0.71032 0.83624 0.55132 0.0
C180 C 0.71553 0.8366 0.56669 0.0
C181 C 0.70903 0.8505 0.54495 0.0
C182 C 0.71791 0.86532 0.57005 0.0
C183 C 0.7264 0.85141 0.59186 0.0
O184 O 0.76029 0.87084 0.62916 0.0
O185 O 0.73359 0.85621 0.63896 0.0
O186 O 0.71624 0.85 0.60362 0.0
O187 O 0.74315 0.86294 0.5942 0.0
H188 H 0.73777 0.82775 0.62553 0.0
H189 H 0.7458 0.80489 0.63166 0.0
H190 H 0.7781 0.8368 0.66945 0.0
H191 H 0.76987 0.85931 0.66354 0.0
H192 H 0.7785 0.94596 0.65182 0.0
H193 H 0.76629 0.91644 0.64003 0.0
H194 H 0.73815 0.9528 0.62927 0.0
H195 H 0.72621 0.9236 0.61752 0.0
H196 H 0.71176 0.87615 0.55004 0.0
H197 H 0.70741 0.82479 0.54436 0.0
H198 H 0.7167 0.82554 0.57115 0.0
H199 H 0.72102 0.87673 0.57715 0.0
C200 C 0.09759 0.84792 0.63656 0.0
C201 C 0.08743 0.83584 0.62496 0.0
C202 C 0.06283 0.82074 0.64296 0.0
C203 C 0.07012 0.82232 0.62815 0.0
C204 C 0.07314 0.83254 0.65461 0.0
C205 C 0.09041 0.84602 0.65143 0.0
U206 U 0.1378 0.87399 0.61001 0.0
O207 O 0.15346 0.90275 0.60555 0.0
O208 O 0.16616 0.8887 0.61567 0.0
C209 C 0.16801 0.90404 0.61123 0.0
C210 C 0.11532 0.86306 0.63325 0.0
C211 C 0.17879 0.91948 0.62115 0.0
C212 C 0.18285 0.93838 0.64326 0.0
C213 C 0.17235 0.92275 0.63489 0.0
C214 C 0.20625 0.94731 0.62435 0.0
C215 C 0.19991 0.95101 0.63799 0.0
C216 C 0.19585 0.93176 0.61611 0.0
C217 C 0.13737 0.85522 0.56945 0.0
C218 C 0.15554 0.87144 0.54722 0.0
C219 C 0.13762 0.83937 0.54646 0.0
C220 C 0.13158 0.83928 0.56147 0.0
C221 C 0.14947 0.85546 0.53908 0.0
C222 C 0.14962 0.87132 0.56233 0.0
C223 C 0.12978 0.85466 0.58484 0.0
O224 O 0.12812 0.85937 0.63212 0.0
O225 O 0.11602 0.87419 0.62249 0.0
O226 O 0.12489 0.86648 0.58727 0.0
O227 O 0.13783 0.85242 0.59678 0.0
H228 H 0.09276 0.83711 0.6134 0.0
H229 H 0.06229 0.81337 0.619 0.0
H230 H 0.06769 0.83156 0.66607 0.0
H231 H 0.09804 0.85522 0.66051 0.0
H232 H 0.17754 0.94064 0.65377 0.0
H233 H 0.15918 0.9134 0.63898 0.0
H234 H 0.21905 0.95675 0.61962 0.0
H235 H 0.20101 0.92953 0.60549 0.0
H236 H 0.16479 0.88402 0.54185 0.0
H237 H 0.13257 0.82689 0.54042 0.0
H238 H 0.12208 0.82673 0.56675 0.0
H239 H 0.15434 0.88377 0.56833 0.0
C240 C 0.91609 0.49362 0.71739 0.0
C241 C 0.91779 0.50572 0.72886 0.0
C242 C 0.90912 0.52132 0.71032 0.0
C243 C 0.91434 0.51946 0.72535 0.0
C244 C 0.90788 0.50937 0.69882 0.0
C245 C 0.91132 0.49566 0.70234 0.0
U246 U 0.93041 0.46792 0.74449 0.0
O247 O 0.91783 0.43928 0.74914 0.0
O248 O 0.9444 0.45342 0.73892 0.0
C249 C 0.93096 0.43802 0.74315 0.0
C250 C 0.91878 0.47854 0.72095 0.0
C251 C 0.92598 0.42297 0.73264 0.0
C252 C 0.90641 0.40214 0.71333 0.0
C253 C 0.91271 0.41812 0.72141 0.0
C254 C 0.92731 0.39635 0.72693 0.0
C255 C 0.91343 0.39099 0.71633 0.0
C256 C 0.93353 0.41222 0.73501 0.0
C257 C 0.94804 0.48723 0.78519 0.0
C258 C 0.955 0.47282 0.80616 0.0
C259 C 0.95914 0.50227 0.8097 0.0
C260 C 0.95329 0.50208 0.7946 0.0
C261 C 0.95988 0.48759 0.81575 0.0
C262 C 0.94905 0.47261 0.79098 0.0
C263 C 0.94113 0.48735 0.76963 0.0
O264 O 0.93528 0.48236 0.72229 0.0
O265 O 0.90841 0.46749 0.73173 0.0
O266 O 0.92459 0.47526 0.76713 0.0
O267 O 0.95159 0.48958 0.75788 0.0
H268 H 0.92148 0.50434 0.74056 0.0
H269 H 0.91525 0.52829 0.73453 0.0
H270 H 0.90415 0.51056 0.68709 0.0
H271 H 0.91004 0.4865 0.69332 0.0
H272 H 0.89559 0.39812 0.70527 0.0
H273 H 0.90672 0.42626 0.71939 0.0
H274 H 0.93273 0.38781 0.7295 0.0
H275 H 0.94373 0.4157 0.74365 0.0
H276 H 0.95535 0.46128 0.81051 0.0
H277 H 0.96306 0.51395 0.81667 0.0
H278 H 0.95267 0.51351 0.79031 0.0
H279 H 0.94502 0.46101 0.78387 0.0
C280 C 0.58404 0.49663 0.71375 0.0
C281 C 0.5937 0.50891 0.72536 0.0
C282 C 0.61929 0.5237 0.70815 0.0
C283 C 0.61117 0.52233 0.72259 0.0
C284 C 0.60929 0.51169 0.69643 0.0
C285 C 0.59187 0.49829 0.69922 0.0
U286 U 0.54328 0.46979 0.73969 0.0
O287 O 0.51509 0.45368 0.73352 0.0
O288 O 0.52881 0.44108 0.74446 0.0
C289 C 0.51409 0.43878 0.73826 0.0
C290 C 0.56634 0.48131 0.71684 0.0
C291 C 0.50434 0.42302 0.72836 0.0
C292 C 0.5031 0.40216 0.709 0.0
C293 C 0.51261 0.41839 0.71683 0.0
C294 C 0.47694 0.3955 0.72372 0.0
C295 C 0.48518 0.39043 0.71251 0.0
C296 C 0.48641 0.41156 0.73154 0.0
C297 C 0.54337 0.48896 0.78034 0.0
C298 C 0.52081 0.47547 0.80043 0.0
C299 C 0.54875 0.50177 0.80608 0.0
C300 C 0.55432 0.50208 0.79086 0.0
C301 C 0.53204 0.48842 0.81103 0.0
C302 C 0.52648 0.47568 0.78515 0.0
C303 C 0.5504 0.48926 0.76474 0.0
O304 O 0.56568 0.47032 0.72772 0.0
O305 O 0.55325 0.48461 0.71767 0.0
O306 O 0.54168 0.49058 0.75286 0.0
O307 O 0.556 0.47798 0.76248 0.0
H308 H 0.58786 0.50788 0.73666 0.0
H309 H 0.61839 0.5315 0.7318 0.0
H310 H 0.61513 0.5122 0.68524 0.0
H311 H 0.58466 0.48889 0.69014 0.0
H312 H 0.50979 0.39866 0.70037 0.0
H313 H 0.52646 0.42706 0.71418 0.0
H314 H 0.46328 0.3867 0.72692 0.0
H315 H 0.47982 0.41479 0.74049 0.0
H316 H 0.50788 0.46501 0.80407 0.0
H317 H 0.55758 0.51189 0.81406 0.0
H318 H 0.56737 0.51244 0.78737 0.0
H319 H 0.51785 0.46539 0.77721 0.0
C320 C 0.51466 0.08737 0.71545 0.0
C321 C 0.5011 0.08338 0.7262 0.0
C322 C 0.48894 0.09724 0.70922 0.0
C323 C 0.48826 0.0882 0.72307 0.0
C324 C 0.50214 0.10047 0.69829 0.0
C325 C 0.51484 0.09559 0.70138 0.0
U326 U 0.54057 0.07272 0.74215 0.0
O327 O 0.55631 0.06007 0.7363 0.0
O328 O 0.56901 0.08644 0.74698 0.0
C329 C 0.57111 0.07369 0.74119 0.0
C330 C 0.52953 0.08442 0.71896 0.0
C331 C 0.58719 0.07938 0.73184 0.0
C332 C 0.60711 0.09603 0.71058 0.0
C333 C 0.59061 0.08917 0.71798 0.0
C334 C 0.61655 0.08297 0.73063 0.0
C335 C 0.6204 0.09337 0.71711 0.0
C336 C 0.60013 0.07603 0.73787 0.0
C337 C 0.52198 0.0544 0.78306 0.0
C338 C 0.53787 0.05033 0.80445 0.0
C339 C 0.50718 0.0421 0.80758 0.0
C340 C 0.50685 0.04745 0.79235 0.0
C341 C 0.5227 0.04357 0.81389 0.0
C342 C 0.5375 0.05567 0.78911 0.0
C343 C 0.52131 0.06105 0.76747 0.0
O344 O 0.54049 0.09478 0.72962 0.0
O345 O 0.52587 0.06784 0.72023 0.0
O346 O 0.5196 0.05073 0.75577 0.0
O347 O 0.53265 0.0779 0.76477 0.0
H348 H 0.50076 0.07704 0.73716 0.0
H349 H 0.47827 0.08553 0.73173 0.0
H350 H 0.50285 0.10709 0.6874 0.0
H351 H 0.52514 0.09872 0.69291 0.0
H352 H 0.60973 0.10402 0.70017 0.0
H353 H 0.58078 0.09194 0.71316 0.0
H354 H 0.62641 0.08049 0.73582 0.0
H355 H 0.59775 0.0685 0.74854 0.0
H356 H 0.54999 0.05152 0.80892 0.0
H357 H 0.49537 0.0373 0.81457 0.0
H358 H 0.49481 0.0465 0.78792 0.0
H359 H 0.54934 0.06102 0.78207 0.0
C360 C 0.76504 0.59179 0.97476 0.0
C361 C 0.75624 0.59745 0.96456 0.0
C362 C 0.72935 0.58192 0.98019 0.0
C363 C 0.73855 0.59265 0.96732 0.0
C364 C 0.73847 0.57682 0.99057 0.0
C365 C 0.75609 0.58173 0.98788 0.0
U366 U 0.8062 0.6071 0.94879 0.0
O367 O 0.8343 0.61892 0.95529 0.0
O368 O 0.82064 0.59303 0.94381 0.0
C369 C 0.83538 0.60533 0.95004 0.0
C370 C 0.78296 0.59492 0.97152 0.0
C371 C 0.84547 0.59897 0.95916 0.0
C372 C 0.84998 0.58447 0.98164 0.0
C373 C 0.8406 0.59169 0.97418 0.0
C374 C 0.8691 0.59192 0.95924 0.0
C375 C 0.86409 0.5842 0.97405 0.0
C376 C 0.85995 0.59927 0.95194 0.0
C377 C 0.8057 0.62576 0.90764 0.0
C378 C 0.82906 0.63872 0.88818 0.0
C379 C 0.79894 0.62949 0.88103 0.0
C380 C 0.79353 0.62407 0.89628 0.0
C381 C 0.81678 0.63696 0.87668 0.0
C382 C 0.82356 0.63312 0.90353 0.0
C383 C 0.799 0.6193 0.92346 0.0
O384 O 0.78388 0.58481 0.96078 0.0
O385 O 0.79581 0.61152 0.97058 0.0
O386 O 0.80791 0.62949 0.93514 0.0
O387 O 0.79322 0.60238 0.92609 0.0
H388 H 0.76289 0.60518 0.95431 0.0
H389 H 0.73188 0.59675 0.95909 0.0
H390 H 0.73189 0.56882 1.00071 0.0
H391 H 0.76263 0.57724 0.9959 0.0
H392 H 0.84585 0.57856 0.99306 0.0
H393 H 0.8294 0.59126 0.97994 0.0
H394 H 0.88 0.59204 0.9532 0.0
H395 H 0.86395 0.60483 0.94039 0.0
H396 H 0.84293 0.64453 0.88539 0.0
H397 H 0.78893 0.62742 0.87258 0.0
H398 H 0.77968 0.61831 0.89919 0.0
H399 H 0.83319 0.63449 0.91213 0.0
C400 C 0.4198 0.17682 0.97593 0.0
C401 C 0.41951 0.16601 0.96381 0.0
C402 C 0.42825 0.14976 0.98164 0.0
C403 C 0.42372 0.15264 0.96662 0.0
C404 C 0.42766 0.16013 0.99384 0.0
C405 C 0.42356 0.17354 0.99099 0.0
U406 U 0.40626 0.20417 0.95003 0.0
O407 O 0.39511 0.22119 0.95613 0.0
O408 O 0.42095 0.23276 0.94457 0.0
C409 C 0.40887 0.23564 0.95064 0.0
C410 C 0.41766 0.1924 0.97292 0.0
C411 C 0.41526 0.25234 0.95928 0.0
C412 C 0.42538 0.27054 0.98252 0.0
C413 C 0.41934 0.25407 0.97517 0.0
C414 C 0.42334 0.2834 0.95816 0.0
C415 C 0.42729 0.28538 0.97407 0.0
C416 C 0.41739 0.26714 0.95092 0.0
C417 C 0.38698 0.1849 0.90937 0.0
C418 C 0.37361 0.19525 0.89014 0.0
C419 C 0.3826 0.17409 0.88294 0.0
C420 C 0.3884 0.17425 0.89805 0.0
C421 C 0.375 0.18448 0.8787 0.0
C422 C 0.37959 0.19548 0.90533 0.0
C423 C 0.39352 0.18456 0.92511 0.0
O424 O 0.42796 0.20331 0.96204 0.0
O425 O 0.4014 0.18945 0.97217 0.0
O426 O 0.38364 0.18372 0.93691 0.0
O427 O 0.41044 0.19533 0.92741 0.0
H428 H 0.41663 0.16831 0.95208 0.0
H429 H 0.42414 0.1451 0.95689 0.0
H430 H 0.43066 0.1581 1.0056 0.0
H431 H 0.42378 0.18168 1.00051 0.0
H432 H 0.42835 0.27161 0.99478 0.0
H433 H 0.41785 0.24278 0.98183 0.0
H434 H 0.42509 0.29456 0.95115 0.0
H435 H 0.41448 0.26614 0.93863 0.0
H436 H 0.36775 0.20335 0.88742 0.0
H437 H 0.38443 0.16599 0.87452 0.0
H438 H 0.39417 0.16607 0.90089 0.0
H439 H 0.37841 0.20388 0.91389 0.0
C440 C 0.76477 0.18172 0.97058 0.0
C441 C 0.75398 0.16943 0.95938 0.0
C442 C 0.73005 0.15504 0.97825 0.0
C443 C 0.73675 0.15615 0.9632 0.0
C444 C 0.74117 0.16707 0.98949 0.0
C445 C 0.75833 0.18026 0.98568 0.0
U446 U 0.80478 0.20753 0.94342 0.0
O447 O 0.82062 0.23628 0.93924 0.0
O448 O 0.83315 0.22197 0.94922 0.0
C449 C 0.83498 0.23744 0.94523 0.0
C450 C 0.78243 0.19663 0.96676 0.0
C451 C 0.84539 0.25249 0.95572 0.0
C452 C 0.84845 0.27667 0.97197 0.0
C453 C 0.83772 0.2606 0.9643 0.0
C454 C 0.87445 0.27603 0.96338 0.0
C455 C 0.86697 0.28489 0.97109 0.0
C456 C 0.86378 0.26005 0.95577 0.0
C457 C 0.80456 0.18912 0.90277 0.0
C458 C 0.82462 0.2052 0.88148 0.0
C459 C 0.80409 0.17366 0.87929 0.0
C460 C 0.79768 0.17348 0.89415 0.0
C461 C 0.81753 0.18953 0.8727 0.0
C462 C 0.81823 0.20499 0.89642 0.0
C463 C 0.79682 0.18849 0.91808 0.0
O464 O 0.7951 0.19276 0.96544 0.0
O465 O 0.78299 0.20765 0.95596 0.0
O466 O 0.7921 0.20043 0.92054 0.0
O467 O 0.80468 0.186 0.93004 0.0
H468 H 0.75876 0.17035 0.94764 0.0
H469 H 0.7285 0.14714 0.95426 0.0
H470 H 0.73654 0.1664 1.00124 0.0
H471 H 0.76651 0.18956 0.9945 0.0
H472 H 0.84227 0.28315 0.9778 0.0
H473 H 0.82353 0.25496 0.96452 0.0
H474 H 0.88865 0.28181 0.96274 0.0
H475 H 0.86997 0.25399 0.9493 0.0
H476 H 0.83508 0.21762 0.87678 0.0
H477 H 0.79812 0.16142 0.87279 0.0
H478 H 0.78709 0.16112 0.89883 0.0
H479 H 0.82378 0.21721 0.90294 0.0
C480 C 0.58151 0.82618 0.05128 0.0
C481 C 0.58994 0.84168 0.06018 0.0
C482 C 0.57629 0.85515 0.04458 0.0
C483 C 0.58742 0.85606 0.05682 0.0
C484 C 0.56796 0.83953 0.03572 0.0
C485 C 0.5706 0.82526 0.03902 0.0
U486 U 0.59543 0.79984 0.0779 0.0
O487 O 0.58262 0.77108 0.08224 0.0
O488 O 0.60927 0.78524 0.07219 0.0
C489 C 0.59578 0.76982 0.0763 0.0
C490 C 0.58375 0.81079 0.05465 0.0
C491 C 0.59103 0.75483 0.06575 0.0
C492 C 0.57251 0.73431 0.04577 0.0
C493 C 0.57791 0.74983 0.05437 0.0
C494 C 0.5938 0.72917 0.05938 0.0
C495 C 0.58019 0.72361 0.04838 0.0
C496 C 0.59913 0.74458 0.06794 0.0
C497 C 0.61446 0.81949 0.11829 0.0
C498 C 0.61735 0.80442 0.14105 0.0
C499 C 0.63164 0.8365 0.14043 0.0
C500 C 0.62501 0.83582 0.12554 0.0
C501 C 0.62771 0.82082 0.14855 0.0
C502 C 0.61084 0.80377 0.12605 0.0
C503 C 0.60695 0.8194 0.10293 0.0
O504 O 0.60013 0.81413 0.05569 0.0
O505 O 0.57341 0.79989 0.06552 0.0
O506 O 0.59032 0.80733 0.10076 0.0
O507 O 0.61703 0.8216 0.0909 0.0
H508 H 0.59843 0.84263 0.06972 0.0
H509 H 0.59423 0.86788 0.0638 0.0
H510 H 0.559 0.83809 0.02644 0.0
H511 H 0.56392 0.81338 0.03208 0.0
H512 H 0.56212 0.73052 0.03728 0.0
H513 H 0.57153 0.75762 0.05244 0.0
H514 H 0.59983 0.72117 0.06193 0.0
H515 H 0.60923 0.74818 0.07669 0.0
H516 H 0.61383 0.79201 0.1469 0.0
H517 H 0.63987 0.84941 0.14553 0.0
H518 H 0.628 0.84811 0.11972 0.0
H519 H 0.60274 0.791 0.12064 0.0
C520 C 0.25071 0.82938 0.04699 0.0
C521 C 0.25938 0.84423 0.05667 0.0
C522 C 0.2862 0.85556 0.04104 0.0
C523 C 0.27698 0.8573 0.05365 0.0
C524 C 0.27721 0.84093 0.03118 0.0
C525 C 0.25968 0.82802 0.03412 0.0
U526 U 0.20983 0.8034 0.07338 0.0
O527 O 0.18164 0.78732 0.0672 0.0
O528 O 0.19524 0.77471 0.07834 0.0
C529 C 0.18051 0.77245 0.07219 0.0
C530 C 0.23286 0.81449 0.05051 0.0
C531 C 0.17042 0.75643 0.06267 0.0
C532 C 0.16778 0.73649 0.04181 0.0
C533 C 0.17755 0.75274 0.04958 0.0
C534 C 0.14369 0.72781 0.05993 0.0
C535 C 0.15074 0.72376 0.04699 0.0
C536 C 0.1534 0.74391 0.06763 0.0
C537 C 0.2103 0.82292 0.11402 0.0
C538 C 0.188 0.80992 0.13438 0.0
C539 C 0.21627 0.83594 0.13969 0.0
C540 C 0.22154 0.836 0.12441 0.0
C541 C 0.19955 0.82278 0.14496 0.0
C542 C 0.19338 0.80992 0.11902 0.0
C543 C 0.21711 0.823 0.09837 0.0
O544 O 0.23209 0.80356 0.06148 0.0
O545 O 0.22001 0.81817 0.05136 0.0
O546 O 0.20834 0.82428 0.08651 0.0
O547 O 0.22263 0.81165 0.09613 0.0
H548 H 0.2527 0.84548 0.06672 0.0
H549 H 0.28357 0.8684 0.06148 0.0
H550 H 0.28384 0.83935 0.02125 0.0
H551 H 0.25322 0.8167 0.02651 0.0
H552 H 0.17358 0.73383 0.03185 0.0
H553 H 0.19072 0.76223 0.04558 0.0
H554 H 0.13083 0.71824 0.0645 0.0
H555 H 0.14772 0.7464 0.07779 0.0
H556 H 0.17505 0.79958 0.1381 0.0
H557 H 0.22536 0.8462 0.14742 0.0
H558 H 0.23461 0.84619 0.12077 0.0
H559 H 0.1845 0.79968 0.11117 0.0
C560 C 0.18119 0.42182 0.04913 0.0
C561 C 0.16873 0.41894 0.06068 0.0
C562 C 0.154 0.42971 0.04326 0.0
C563 C 0.15525 0.42286 0.05777 0.0
C564 C 0.1662 0.43196 0.03161 0.0
C565 C 0.17965 0.42808 0.03453 0.0
U566 U 0.20775 0.40783 0.07534 0.0
O567 O 0.22431 0.39618 0.06941 0.0
O568 O 0.23612 0.42221 0.08066 0.0
C569 C 0.23879 0.40994 0.07462 0.0
C570 C 0.19657 0.41963 0.05234 0.0
C571 C 0.25506 0.4163 0.06541 0.0
C572 C 0.27259 0.42792 0.04181 0.0
C573 C 0.25653 0.42174 0.04983 0.0
C574 C 0.2856 0.42327 0.06489 0.0
C575 C 0.28731 0.42865 0.04926 0.0
C576 C 0.2697 0.41714 0.0728 0.0
C577 C 0.18892 0.38795 0.11571 0.0
C578 C 0.20556 0.38603 0.13756 0.0
C579 C 0.17392 0.37358 0.13969 0.0
C580 C 0.1734 0.37891 0.12448 0.0
C581 C 0.19002 0.37731 0.14648 0.0
C582 C 0.20501 0.39123 0.12223 0.0
C583 C 0.18804 0.39482 0.10028 0.0
O584 O 0.20715 0.42986 0.06327 0.0
O585 O 0.19356 0.40323 0.05317 0.0
O586 O 0.18694 0.38501 0.08835 0.0
O587 O 0.19888 0.41186 0.09794 0.0
H588 H 0.16968 0.41406 0.07203 0.0
H589 H 0.14594 0.42072 0.06694 0.0
H590 H 0.1658 0.4374 0.02038 0.0
H591 H 0.18918 0.43045 0.0255 0.0
H592 H 0.27343 0.43195 0.02979 0.0
H593 H 0.24535 0.42124 0.04393 0.0
H594 H 0.29669 0.42404 0.07117 0.0
H595 H 0.26888 0.41316 0.08484 0.0
H596 H 0.21812 0.38896 0.14249 0.0
H597 H 0.16178 0.36711 0.14635 0.0
H598 H 0.1609 0.37638 0.11969 0.0
H599 H 0.21714 0.39816 0.1156 0.0
C600 C 0.43223 0.92604 0.30807 0.0
C601 C 0.4215 0.92648 0.29613 0.0
C602 C 0.39684 0.91687 0.31424 0.0
C603 C 0.40397 0.92195 0.29919 0.0
C604 C 0.408 0.91731 0.32624 0.0
C605 C 0.42545 0.9218 0.32316 0.0
U606 U 0.47281 0.94022 0.28193 0.0
O607 O 0.50106 0.95201 0.28782 0.0
O608 O 0.4869 0.92583 0.27688 0.0
C609 C 0.5018 0.93811 0.28294 0.0
C610 C 0.44991 0.92848 0.30489 0.0
C611 C 0.51153 0.93177 0.29262 0.0
C612 C 0.51267 0.91177 0.31198 0.0
C613 C 0.50328 0.91878 0.30427 0.0
C614 C 0.5387 0.93111 0.29686 0.0
C615 C 0.53045 0.91775 0.30822 0.0
C616 C 0.52933 0.93799 0.28915 0.0
C617 C 0.47223 0.9596 0.24127 0.0
C618 C 0.49477 0.96968 0.22114 0.0
C619 C 0.46582 0.96539 0.21517 0.0
C620 C 0.46061 0.96039 0.23052 0.0
C621 C 0.48285 0.96988 0.21027 0.0
C622 C 0.48944 0.96442 0.23656 0.0
C623 C 0.46551 0.95291 0.25698 0.0
O624 O 0.45045 0.91821 0.29408 0.0
O625 O 0.4631 0.94491 0.304 0.0
O626 O 0.4746 0.96288 0.2687 0.0
O627 O 0.45967 0.93593 0.25936 0.0
H628 H 0.42649 0.92975 0.28437 0.0
H629 H 0.39582 0.92171 0.28963 0.0
H630 H 0.40316 0.9139 0.33802 0.0
H631 H 0.43353 0.92146 0.33255 0.0
H632 H 0.50599 0.90158 0.32076 0.0
H633 H 0.48953 0.91378 0.30714 0.0
H634 H 0.55227 0.93582 0.29351 0.0
H635 H 0.5359 0.94787 0.2801 0.0
H636 H 0.50796 0.97302 0.21759 0.0
H637 H 0.45646 0.9656 0.20705 0.0
H638 H 0.44731 0.95678 0.23395 0.0
H639 H 0.49858 0.96382 0.24469 0.0
C640 C 0.0875 0.51168 0.30953 0.0
C641 C 0.08095 0.49667 0.30001 0.0
C642 C 0.09651 0.48514 0.31549 0.0
C643 C 0.08534 0.48343 0.30303 0.0
C644 C 0.10248 0.4999 0.32525 0.0
C645 C 0.09799 0.51299 0.32231 0.0
U646 U 0.07302 0.538 0.28286 0.0
O647 O 0.06111 0.55437 0.28896 0.0
O648 O 0.08715 0.56663 0.2778 0.0
C649 C 0.07491 0.56916 0.28407 0.0
C650 C 0.08475 0.52674 0.3059 0.0
C651 C 0.0812 0.58504 0.29388 0.0
C652 C 0.10152 0.60602 0.3128 0.0
C653 C 0.09434 0.58961 0.3052 0.0
C654 C 0.0819 0.61295 0.29842 0.0
C655 C 0.09551 0.61796 0.30931 0.0
C656 C 0.0749 0.59673 0.29076 0.0
C657 C 0.05372 0.51901 0.24232 0.0
C658 C 0.05152 0.53526 0.2201 0.0
C659 C 0.03999 0.50354 0.21845 0.0
C660 C 0.04523 0.50331 0.23373 0.0
C661 C 0.04334 0.51955 0.21139 0.0
C662 C 0.05657 0.53497 0.23551 0.0
C663 C 0.06053 0.51844 0.25786 0.0
O664 O 0.09494 0.53752 0.29491 0.0
O665 O 0.06833 0.52331 0.30495 0.0
O666 O 0.0506 0.51713 0.26978 0.0
O667 O 0.07739 0.5296 0.26015 0.0
H668 H 0.07288 0.49544 0.29005 0.0
H669 H 0.08061 0.47226 0.29526 0.0
H670 H 0.1109 0.50149 0.33503 0.0
H671 H 0.10314 0.52444 0.3298 0.0
H672 H 0.11195 0.60951 0.3212 0.0
H673 H 0.0994 0.58076 0.3078 0.0
H674 H 0.07717 0.62195 0.29532 0.0
H675 H 0.06491 0.59356 0.28198 0.0
H676 H 0.05414 0.54774 0.21493 0.0
H677 H 0.03386 0.4913 0.21194 0.0
H678 H 0.04302 0.49088 0.23873 0.0
H679 H 0.06307 0.54724 0.24196 0.0
C680 C 0.43165 0.51431 0.30296 0.0
C681 C 0.42151 0.50206 0.29146 0.0
C682 C 0.39675 0.48746 0.30937 0.0
C683 C 0.40413 0.48869 0.29466 0.0
C684 C 0.40703 0.49947 0.32091 0.0
C685 C 0.42436 0.51277 0.31773 0.0
U686 U 0.47196 0.54007 0.27642 0.0
O687 O 0.48768 0.5687 0.27174 0.0
O688 O 0.50032 0.55484 0.28234 0.0
C689 C 0.50203 0.57017 0.27805 0.0
C690 C 0.44946 0.52928 0.29964 0.0
C691 C 0.51169 0.58526 0.28865 0.0
C692 C 0.51234 0.60713 0.30649 0.0
C693 C 0.50284 0.59116 0.29841 0.0
C694 C 0.53967 0.61082 0.29606 0.0
C695 C 0.53082 0.6173 0.30512 0.0
C696 C 0.53017 0.595 0.28785 0.0
C697 C 0.47018 0.52079 0.23559 0.0
C698 C 0.49234 0.53406 0.2152 0.0
C699 C 0.46448 0.50738 0.21013 0.0
C700 C 0.45916 0.50735 0.22537 0.0
C701 C 0.48104 0.52079 0.20484 0.0
C702 C 0.48689 0.53414 0.23048 0.0
C703 C 0.46346 0.5207 0.25124 0.0
O704 O 0.4621 0.52535 0.29846 0.0
O705 O 0.45031 0.5405 0.28891 0.0
O706 O 0.4588 0.53267 0.25376 0.0
O707 O 0.47196 0.51865 0.26293 0.0
H708 H 0.42691 0.50307 0.27996 0.0
H709 H 0.39632 0.47959 0.28559 0.0
H710 H 0.4015 0.49877 0.33229 0.0
H711 H 0.43197 0.52212 0.32673 0.0
H712 H 0.50524 0.6118 0.31348 0.0
H713 H 0.48858 0.5838 0.29929 0.0
H714 H 0.55388 0.61848 0.29466 0.0
H715 H 0.53724 0.59074 0.28034 0.0
H716 H 0.50513 0.54459 0.21133 0.0
H717 H 0.4556 0.49694 0.20242 0.0
H718 H 0.44625 0.49692 0.22912 0.0
H719 H 0.49555 0.54468 0.23822 0.0
O720 O 0.4812 0.98786 0.01199 0.0
Mn721 Mn 0.50797 0.00715 0.01206 0.0
O722 O 0.4721 0.99488 0.03335 0.0
Mn723 Mn 0.49035 0.01821 0.03404 0.0
O724 O 0.53505 0.02609 0.01149 0.0
O725 O 0.51348 0.98648 0.00834 0.0
Mn726 Mn 0.52282 0.99478 0.98972 0.0
O727 O 0.50578 0.01323 0.98845 0.0
O728 O 0.5435 0.01631 0.99117 0.0
O729 O 0.51045 1.00257 0.03626 0.0
O730 O 0.5067 0.02268 0.04888 0.0
O731 O 0.52541 0.97606 0.9909 0.0
O732 O 0.50664 0.99235 0.97526 0.0
C733 C 0.49151 0.03312 0.01488 0.0
C734 C 0.46932 0.98452 0.02215 0.0
C735 C 0.54691 0.02756 1.00184 0.0
C736 C 0.51781 0.97452 1.00417 0.0
C737 C 0.50315 0.00464 0.97583 0.0
C738 C 0.51199 0.01155 0.04866 0.0
O739 O 0.50284 0.02751 0.01668 0.0
O740 O 0.48218 0.03203 0.02693 0.0
O741 O 0.02693 0.49915 0.01206 0.0
Mn742 Mn 0.00589 0.50416 0.01263 0.0
O743 O 0.02177 0.48291 0.03346 0.0
Mn744 Mn 0.99769 0.47438 0.03409 0.0
O745 O 0.98501 0.50972 0.01266 0.0
O746 O 0.0239 0.53054 0.00829 0.0
Mn747 Mn 0.01541 0.53523 0.99136 0.0
O748 O 1.0012 0.49731 0.98877 0.0
O749 O 0.99369 0.53279 0.99608 0.0
O750 O 0.00964 0.51022 0.03704 0.0
O751 O 0.99148 0.48461 0.04916 0.0
O752 O 0.03501 0.55602 0.99516 0.0
O753 O 0.01593 0.52233 0.97501 0.0
C754 C 0.98329 0.46172 0.01402 0.0
C755 C 0.03177 0.49182 0.02236 0.0
C756 C 0.98247 0.52128 1.00541 0.0
C757 C 0.0361 0.5473 0.00696 0.0
C758 C 0.00709 0.50561 0.97579 0.0
C759 C 1.00116 0.50138 0.04936 0.0
O760 O 0.98777 0.47806 0.01739 0.0
O761 O 0.98595 0.45303 0.02495 0.0
O762 O 0.53331 0.51394 0.0069 0.0
Mn763 Mn 0.50649 0.50603 0.00783 0.0
O764 O 0.54135 0.53067 0.98553 0.0
Mn765 Mn 0.52261 0.53502 0.98526 0.0
O766 O 0.47939 0.49784 0.00925 0.0
O767 O 0.50104 0.47989 0.01158 0.0
Mn768 Mn 0.49137 0.47742 0.03017 0.0
O769 O 0.50963 0.51387 0.03157 0.0
O770 O 0.47068 0.4782 0.02882 0.0
O771 O 0.50331 0.49907 0.98365 0.0
O772 O 0.50566 0.52257 0.97105 0.0
O773 O 0.48952 0.45638 0.02803 0.0
O774 O 0.50732 0.49106 0.04476 0.0
C775 C 0.52289 0.54859 1.00447 0.0
C776 C 0.5448 0.52313 0.99654 0.0
C777 C 0.46746 0.48699 0.01876 0.0
C778 C 0.49716 0.46346 0.01494 0.0
C779 C 0.51164 0.50714 0.04419 0.0
C780 C 0.50127 0.50633 0.97122 0.0
O781 O 0.51144 0.53155 1.00328 0.0
O782 O 0.53054 0.55711 0.99179 0.0
O783 O 0.14908 0.31999 0.34505 0.0
Mn784 Mn 0.17512 0.34095 0.34497 0.0
O785 O 0.13696 0.32823 0.36389 0.0
Mn786 Mn 0.15525 0.35165 0.36546 0.0
O787 O 0.20138 0.36238 0.34539 0.0
O788 O 0.18347 0.32242 0.34181 0.0
Mn789 Mn 0.1964 0.33235 0.32484 0.0
O790 O 0.17287 0.34536 0.32101 0.0
O791 O 0.21561 0.3541 0.32888 0.0
O792 O 0.17681 0.33656 0.36944 0.0
O793 O 0.17213 0.35678 0.37996 0.0
O794 O 0.19967 0.31409 0.32746 0.0
O795 O 0.18317 0.33065 0.30799 0.0
C796 C 0.16005 0.36986 0.3481 0.0
C797 C 0.13617 0.31699 0.35405 0.0
C798 C 0.21545 0.36514 0.33827 0.0
C799 C 0.18924 0.31123 0.33914 0.0
C800 C 0.17501 0.33912 0.3083 0.0
C801 C 0.1767 0.34526 0.38143 0.0
O802 O 0.16576 0.3585 0.34729 0.0
O803 O 0.15134 0.36938 0.3604 0.0
O804 O 0.69401 0.8331 0.34443 0.0
Mn805 Mn 0.67331 0.8384 0.34569 0.0
O806 O 0.68917 0.82101 0.36763 0.0
Mn807 Mn 0.66515 0.81365 0.3667 0.0
O808 O 0.65226 0.84391 0.34659 0.0
O809 O 0.69199 0.86512 0.34267 0.0
Mn810 Mn 0.68284 0.87026 0.32651 0.0
O811 O 0.66844 0.83259 0.32152 0.0
O812 O 0.66165 0.86835 0.33176 0.0
O813 O 0.67826 0.84527 0.36989 0.0
O814 O 0.6568 0.82247 0.38136 0.0
O815 O 0.70217 0.89103 0.32985 0.0
O816 O 0.6831 0.85857 0.30928 0.0
C817 C 0.6502 0.79427 0.35192 0.0
C818 C 0.699 0.82735 0.35586 0.0
C819 C 0.65013 0.85629 0.34044 0.0
C820 C 0.70401 0.88203 0.34104 0.0
C821 C 0.67386 0.84188 0.30894 0.0
C822 C 0.66846 0.83848 0.38197 0.0
O823 O 0.65446 0.8108 0.34811 0.0
O824 O 0.6544 0.79066 0.36533 0.0
O825 O 0.19996 0.84515 0.33904 0.0
Mn826 Mn 0.1735 0.83852 0.34187 0.0
O827 O 0.20823 0.86444 0.31896 0.0
Mn828 Mn 0.18879 0.86772 0.31847 0.0
O829 O 0.14679 0.83189 0.34417 0.0
O830 O 0.16634 0.8128 0.347 0.0
Mn831 Mn 0.15319 0.80603 0.3638 0.0
O832 O 0.17806 0.8461 0.36556 0.0
O833 O 0.13284 0.80531 0.35666 0.0
O834 O 0.16912 0.83068 0.31814 0.0
O835 O 0.17082 0.85361 0.30538 0.0
O836 O 0.15987 0.78945 0.36041 0.0
O837 O 0.16425 0.82106 0.37977 0.0
C838 C 0.18558 0.88157 0.33651 0.0
C839 C 0.21136 0.8552 0.32873 0.0
C840 C 0.13267 0.81806 0.34929 0.0
C841 C 0.16712 0.79826 0.34782 0.0
C842 C 0.17384 0.83773 0.37866 0.0
C843 C 0.16666 0.8375 0.30574 0.0
O844 O 0.18099 0.86476 0.33769 0.0
O845 O 0.1917 0.88916 0.3232 0.0
O846 O 0.81497 0.65267 0.67769 0.0
Mn847 Mn 0.84125 0.67285 0.67766 0.0
O848 O 0.80568 0.66078 0.69864 0.0
Mn849 Mn 0.82444 0.68416 0.69904 0.0
O850 O 0.86785 0.69322 0.67782 0.0
O851 O 0.84889 0.65411 0.67482 0.0
Mn852 Mn 0.86125 0.66134 0.65754 0.0
O853 O 0.84024 0.67778 0.65347 0.0
O854 O 0.88084 0.68325 0.6613 0.0
O855 O 0.84271 0.66754 0.70179 0.0
O856 O 0.8422 0.6896 0.71283 0.0
O857 O 0.86245 0.64192 0.66229 0.0
O858 O 0.84697 0.65952 0.64149 0.0
C859 C 0.82665 0.70232 0.68285 0.0
C860 C 0.80323 0.64966 0.68802 0.0
C861 C 0.88146 0.69493 0.6705 0.0
C862 C 0.85321 0.6417 0.6741 0.0
C863 C 0.84167 0.67057 0.641 0.0
C864 C 0.84514 0.67696 0.71388 0.0
O865 O 0.83256 0.69131 0.6799 0.0
O866 O 0.8195 0.7014 0.69622 0.0
O867 O 0.35954 0.16415 0.68036 0.0
Mn868 Mn 0.33936 0.17107 0.67922 0.0
O869 O 0.34677 0.13861 0.69384 0.0
Mn870 Mn 0.32625 0.13848 0.69796 0.0
O871 O 0.31967 0.17871 0.67792 0.0
O872 O 0.35797 0.19757 0.677 0.0
Mn873 Mn 0.35231 0.20505 0.65994 0.0
O874 O 0.33677 0.16566 0.65507 0.0
O875 O 0.33306 0.20625 0.66707 0.0
O876 O 0.34245 0.1762 0.70375 0.0
O877 O 0.32627 0.15002 0.71531 0.0
O878 O 0.3759 0.21968 0.66269 0.0
O879 O 0.34817 0.19165 0.64271 0.0
C880 C 0.30663 0.12778 0.68217 0.0
C881 C 0.35994 0.15078 0.6866 0.0
C882 C 0.31977 0.19312 0.67362 0.0
C883 C 0.37413 0.21051 0.6751 0.0
C884 C 0.3411 0.175 0.64255 0.0
C885 C 0.33632 0.16656 0.71613 0.0
O886 O 0.3193 0.14455 0.681 0.0
O887 O 0.30635 0.11857 0.69419 0.0
O888 O 0.86409 0.17199 0.67704 0.0
Mn889 Mn 0.83952 0.17057 0.6754 0.0
O890 O 0.87433 0.18562 0.65477 0.0
Mn891 Mn 0.85945 0.19507 0.65557 0.0
O892 O 0.81425 0.16899 0.67454 0.0
O893 O 0.8271 0.14333 0.67813 0.0
Mn894 Mn 0.81066 0.13867 0.69238 0.0
O895 O 0.84141 0.17563 0.69931 0.0
O896 O 0.79405 0.14099 0.68146 0.0
O897 O 0.83724 0.16412 0.65104 0.0
O898 O 0.84301 0.18901 0.64052 0.0
O899 O 0.81444 0.12014 0.69351 0.0
O900 O 0.81845 0.15197 0.71008 0.0
C901 C 0.86344 0.21545 0.66884 0.0
C902 C 0.87584 0.17768 0.66643 0.0
C903 C 0.79804 0.15618 0.67603 0.0
C904 C 0.82695 0.12919 0.68361 0.0
C905 C 0.83203 0.16714 0.7111 0.0
C906 C 0.83679 0.17273 0.63904 0.0
O907 O 0.85195 0.19905 0.67374 0.0
O908 O 0.87275 0.21787 0.65647 0.0
H909 H 0.31222 0.84788 0.035 0.0
H910 H 0.34349 0.86851 0.02996 0.0
H911 H 0.33493 0.9128 0.03616 0.0
H912 H 0.30345 0.89211 0.04123 0.0
H913 H 0.35526 0.91632 0.00976 0.0
H914 H 0.3549 0.90357 0.06392 0.0
H915 H 0.34814 0.88465 0.08723 0.0
H916 H 0.37753 0.86155 0.06868 0.0
H917 H 0.38428 0.88019 0.04515 0.0
H918 H 0.44016 0.98712 0.02369 0.0
H919 H 0.40953 0.96333 0.0243 0.0
H920 H 0.42615 0.92473 0.01767 0.0
H921 H 0.45729 0.94893 0.01699 0.0
H922 H 0.40212 0.91629 0.04229 0.0
H923 H 0.4045 0.93113 0.9888 0.0
H924 H 0.41275 0.95182 0.9666 0.0
H925 H 0.38043 0.97197 0.98443 0.0
H926 H 0.37213 0.95152 0.00684 0.0
C927 C 0.31696 0.86202 0.03524 0.0
C928 C 0.30532 0.86836 0.03844 0.0
C929 C 0.33487 0.87379 0.03245 0.0
C930 C 0.34158 0.8922 0.03271 0.0
C931 C 0.33003 0.89863 0.03588 0.0
C932 C 0.31209 0.88682 0.03887 0.0
C933 C 0.36066 0.90464 0.02962 0.0
C934 C 0.36548 0.91639 0.01695 0.0
C935 C 0.37407 0.90443 0.03868 0.0
C936 C 0.36989 0.89309 0.05271 0.0
C937 C 0.35976 0.89431 0.06474 0.0
C938 C 0.35597 0.88368 0.07801 0.0
C939 C 0.36235 0.87186 0.07941 0.0
C940 C 0.37257 0.87069 0.06756 0.0
C941 C 0.37639 0.88129 0.05426 0.0
C942 C 0.43729 0.97358 0.02211 0.0
C943 C 0.45103 0.96982 0.02025 0.0
C944 C 0.41976 0.95999 0.02242 0.0
C945 C 0.41549 0.94224 0.02092 0.0
C946 C 0.42917 0.93837 0.01877 0.0
C947 C 0.44689 0.95213 0.01825 0.0
C948 C 0.39671 0.92801 0.0225 0.0
C949 C 0.3919 0.91597 0.03492 0.0
C950 C 0.38332 0.92796 0.01322 0.0
C951 C 0.38774 0.93984 0.99951 0.0
C952 C 0.39918 0.94 0.988 0.0
C953 C 0.40387 0.95169 0.97538 0.0
C954 C 0.39713 0.96322 0.97411 0.0
C955 C 0.38562 0.96302 0.98542 0.0
C956 C 0.38088 0.95135 0.99806 0.0
H957 H 0.40082 0.9723 0.96435 0.0
H958 H 0.35942 0.86365 0.0897 0.0
H959 H 0.13426 0.42529 0.01711 0.0
H960 H 0.11436 0.43688 0.01199 0.0
H961 H 0.12406 0.45905 0.05788 0.0
H962 H 0.14387 0.44743 0.06309 0.0
H963 H 0.09047 0.44475 0.05139 0.0
H964 H 0.14435 0.48452 0.02431 0.0
H965 H 0.16863 0.49297 1.00563 0.0
H966 H 0.13129 0.472 0.96836 0.0
H967 H 0.10677 0.46319 0.98686 0.0
H968 H 0.05676 0.50166 0.04436 0.0
H969 H 0.07903 0.49259 0.0462 0.0
H970 H 0.06528 0.47038 1.00036 0.0
H971 H 0.0433 0.48006 0.99833 0.0
H972 H 0.10002 0.48369 1.00575 0.0
H973 H 0.04626 0.44458 0.03243 0.0
H974 H 0.0218 0.43649 0.0508 0.0
H975 H 0.05853 0.45593 0.0886 0.0
H976 H 0.08325 0.4644 0.0704 0.0
C977 C 0.13217 0.43265 0.02611 0.0
C978 C 0.14077 0.4355 0.04049 0.0
C979 C 0.12081 0.43932 0.02315 0.0
C980 C 0.11793 0.44917 0.03443 0.0
C981 C 0.12608 0.45155 0.04895 0.0
C982 C 0.13736 0.44481 0.05195 0.0
C983 C 0.10652 0.45706 0.03118 0.0
C984 C 0.09273 0.45344 0.04151 0.0
C985 C 0.10904 0.46799 0.01804 0.0
C986 C 0.12374 0.47303 0.00697 0.0
C987 C 0.14132 0.48156 0.01215 0.0
C988 C 0.15512 0.48644 1.00159 0.0
C989 C 0.1515 0.48298 0.98582 0.0
C990 C 0.13407 0.47464 0.98057 0.0
C991 C 0.12023 0.4697 0.99109 0.0
C992 C 0.05903 0.49551 0.03443 0.0
C993 C 0.04849 0.4917 0.02115 0.0
C994 C 0.07157 0.4901 0.03557 0.0
C995 C 0.07346 0.48033 0.02361 0.0
C996 C 0.06396 0.4778 0.00978 0.0
C997 C 0.05155 0.48348 0.00855 0.0
C998 C 0.08423 0.47162 0.0261 0.0
C999 C 0.09779 0.47499 0.01562 0.0
C1000 C 0.08147 0.46039 0.03907 0.0
C1001 C 0.06662 0.45525 0.05004 0.0
C1002 C 0.04913 0.44724 0.04464 0.0
C1003 C 0.03522 0.44258 0.05503 0.0
C1004 C 0.03861 0.44571 0.07086 0.0
C1005 C 0.05593 0.45352 0.07633 0.0
C1006 C 0.06989 0.45824 0.06599 0.0
H1007 H 0.02782 0.44204 0.07888 0.0
H1008 H 0.16221 0.48681 0.97766 0.0
H1009 H 0.54562 0.69873 0.04293 0.0
H1010 H 0.5339 0.66788 0.03522 0.0
H1011 H 0.58685 0.67715 0.02985 0.0
H1012 H 0.59871 0.70822 0.03707 0.0
H1013 H 0.56465 0.65345 0.00847 0.0
H1014 H 0.56604 0.66128 0.06319 0.0
H1015 H 0.56006 0.67172 0.08767 0.0
H1016 H 0.50428 0.63948 0.07997 0.0
H1017 H 0.50996 0.62911 0.05527 0.0
H1018 H 0.55135 0.56818 0.02174 0.0
H1019 H 0.55949 0.59816 0.0298 0.0
H1020 H 0.50595 0.58633 0.02258 0.0
H1021 H 0.49788 0.55635 0.01402 0.0
H1022 H 0.52735 0.61095 0.04961 0.0
H1023 H 0.52766 0.60208 0.99443 0.0
H1024 H 0.53556 0.59214 0.97065 0.0
H1025 H 0.59059 0.62673 0.98009 0.0
H1026 H 0.58302 0.63658 1.00415 0.0
C1027 C 0.5548 0.6944 0.03967 0.0
C1028 C 0.57313 0.70592 0.0409 0.0
C1029 C 0.54807 0.67668 0.03538 0.0
C1030 C 0.55949 0.67008 0.03231 0.0
C1031 C 0.57777 0.68188 0.0323 0.0
C1032 C 0.58453 0.69962 0.03657 0.0
C1033 C 0.55246 0.65064 0.03074 0.0
C1034 C 0.55658 0.64419 0.01749 0.0
C1035 C 0.54187 0.63848 0.04248 0.0
C1036 C 0.53841 0.64457 0.05734 0.0
C1037 C 0.5525 0.65653 0.06666 0.0
C1038 C 0.54917 0.66243 0.08058 0.0
C1039 C 0.5318 0.6563 0.08536 0.0
C1040 C 0.51772 0.64424 0.07624 0.0
C1041 C 0.52099 0.63835 0.06228 0.0
C1042 C 0.54104 0.57156 0.02285 0.0
C1043 C 0.52393 0.55987 0.01743 0.0
C1044 C 0.54581 0.58884 0.02713 0.0
C1045 C 0.53341 0.59455 0.02642 0.0
C1046 C 0.51572 0.58216 0.02312 0.0
C1047 C 0.51101 0.56489 0.01855 0.0
C1048 C 0.53942 0.61378 0.02733 0.0
C1049 C 0.53524 0.6202 0.04051 0.0
C1050 C 0.55017 0.62591 0.01561 0.0
C1051 C 0.55476 0.61985 1.00124 0.0
C1052 C 0.54145 0.60737 0.99157 0.0
C1053 C 0.54587 0.60179 0.97801 0.0
C1054 C 0.56357 0.60875 0.97389 0.0
C1055 C 0.57689 0.62131 0.98332 0.0
C1056 C 0.57253 0.62688 0.99693 0.0
H1057 H 0.56696 0.60445 0.96336 0.0
H1058 H 0.52924 0.66086 0.09615 0.0
H1059 H 0.86497 0.30019 0.99841 0.0
H1060 H 0.88354 0.33132 1.00623 0.0
H1061 H 0.91308 0.34246 0.96362 0.0
H1062 H 0.89491 0.31167 0.95592 0.0
H1063 H 0.93472 0.35806 0.98726 0.0
H1064 H 0.87777 0.35129 0.97025 0.0
H1065 H 0.8456 0.33869 0.97291 0.0
H1066 H 0.85262 0.3585 0.01933 0.0
H1067 H 0.88479 0.37096 0.01701 0.0
H1068 H 0.98424 0.44954 0.98525 0.0
H1069 H 0.96196 0.41996 0.97652 0.0
H1070 H 0.92781 0.41664 0.01406 0.0
H1071 H 0.94912 0.44678 0.02144 0.0
H1072 H 0.90801 0.39594 0.99565 0.0
H1073 H 0.96231 0.40277 0.01516 0.0
H1074 H 0.99443 0.41433 0.01631 0.0
H1075 H 0.99301 0.39305 0.97128 0.0
H1076 H 0.96095 0.38164 0.96975 0.0
C1077 C 0.87547 0.30931 0.99076 0.0
C1078 C 0.8785 0.30341 0.97657 0.0
C1079 C 0.88606 0.32709 0.99523 0.0
C1080 C 0.89963 0.33933 0.98543 0.0
C1081 C 0.90278 0.33332 0.97142 0.0
C1082 C 0.89238 0.31564 0.96705 0.0
C1083 C 0.91046 0.35854 0.98924 0.0
C1084 C 0.92891 0.3664 0.989 0.0
C1085 C 0.90294 0.36933 0.99223 0.0
C1086 C 0.88363 0.36191 0.99349 0.0
C1087 C 0.87242 0.35285 0.98104 0.0
C1088 C 0.8542 0.34574 0.9825 0.0
C1089 C 0.84706 0.34776 0.99629 0.0
C1090 C 0.85815 0.35692 0.00866 0.0
C1091 C 0.87637 0.364 0.00728 0.0
C1092 C 0.97144 0.44294 0.99088 0.0
C1093 C 0.96834 0.45047 1.00394 0.0
C1094 C 0.9589 0.42574 0.98625 0.0
C1095 C 0.94355 0.41548 0.99519 0.0
C1096 C 0.93957 0.42395 0.00702 0.0
C1097 C 0.95171 0.4414 0.01114 0.0
C1098 C 0.93248 0.39577 0.99324 0.0
C1099 C 0.91399 0.38774 0.99398 0.0
C1100 C 0.93999 0.38469 0.99132 0.0
C1101 C 0.95927 0.39152 0.99227 0.0
C1102 C 0.96887 0.40065 1.00547 0.0
C1103 C 0.98707 0.40718 1.00619 0.0
C1104 C 0.99576 0.40447 0.99386 0.0
C1105 C 0.98627 0.39518 0.9808 0.0
C1106 C 0.9681 0.38869 0.98 0.0
H1107 H 0.00984 0.40953 0.99444 0.0
H1108 H 0.83295 0.34226 0.99739 0.0
H1109 H 0.7037 0.54812 0.98734 0.0
H1110 H 0.6723 0.53689 0.99188 0.0
H1111 H 0.67984 0.5891 0.98288 0.0
H1112 H 0.71148 0.60049 0.97833 0.0
H1113 H 0.65919 0.57296 0.00929 0.0
H1114 H 0.66051 0.55835 0.95604 0.0
H1115 H 0.6679 0.54556 0.93386 0.0
H1116 H 0.63947 0.49373 0.95486 0.0
H1117 H 0.63208 0.50627 0.97726 0.0
H1118 H 0.57352 0.55513 0.99206 0.0
H1119 H 0.60441 0.56297 0.99202 0.0
H1120 H 0.58937 0.50889 1.00374 0.0
H1121 H 0.55798 0.50092 1.00402 0.0
H1122 H 0.61341 0.52375 0.97804 0.0
H1123 H 0.60998 0.53817 0.03044 0.0
H1124 H 0.60126 0.55101 0.05166 0.0
H1125 H 0.63281 0.60312 0.03187 0.0
H1126 H 0.64158 0.59055 0.01042 0.0
C1127 C 0.69872 0.55726 0.98638 0.0
C1128 C 0.71013 0.57523 0.98254 0.0
C1129 C 0.68072 0.55078 0.9889 0.0
C1130 C 0.67366 0.56212 0.98769 0.0
C1131 C 0.685 0.58011 0.98389 0.0
C1132 C 0.70304 0.58658 0.9812 0.0
C1133 C 0.65446 0.55509 0.99041 0.0
C1134 C 0.6492 0.56231 1.00236 0.0
C1135 C 0.64135 0.54081 0.98172 0.0
C1136 C 0.64594 0.53328 0.96839 0.0
C1137 C 0.656 0.54425 0.95599 0.0
C1138 C 0.66014 0.53704 0.94337 0.0
C1139 C 0.65421 0.51885 0.94298 0.0
C1140 C 0.64409 0.50783 0.9552 0.0
C1141 C 0.63991 0.51497 0.96785 0.0
C1142 C 0.57676 0.54489 0.99476 0.0
C1143 C 0.56336 0.52739 0.99798 0.0
C1144 C 0.59444 0.54943 0.9948 0.0
C1145 C 0.59924 0.53657 0.99793 0.0
C1146 C 0.58593 0.51903 1.00134 0.0
C1147 C 0.56807 0.51451 1.00158 0.0
C1148 C 0.61817 0.54167 0.99684 0.0
C1149 C 0.6234 0.53418 0.98514 0.0
C1150 C 0.63125 0.55569 1.00576 0.0
C1151 C 0.62637 0.56341 0.01879 0.0
C1152 C 0.615 0.55236 0.03058 0.0
C1153 C 0.61006 0.55959 0.04265 0.0
C1154 C 0.61646 0.57787 0.0431 0.0
C1155 C 0.62788 0.58896 0.03151 0.0
C1156 C 0.63287 0.5818 0.01941 0.0
H1157 H 0.61258 0.58344 0.05244 0.0
H1158 H 0.65742 0.51329 0.93318 0.0
H1159 H 0.41703 0.11729 0.96785 0.0
H1160 H 0.42954 0.09782 0.97072 0.0
H1161 H 0.46596 0.13302 1.00494 0.0
H1162 H 0.4543 0.15303 1.00147 0.0
H1163 H 0.48318 0.12486 0.98631 0.0
H1164 H 0.42904 0.09079 0.01378 0.0
H1165 H 0.3969 0.07478 0.01834 0.0
H1166 H 0.38957 0.03934 0.98109 0.0
H1167 H 0.42166 0.0553 0.97614 0.0
H1168 H 0.51131 0.06809 0.01885 0.0
H1169 H 0.50149 0.08846 0.01084 0.0
H1170 H 0.46548 0.04986 0.97826 0.0
H1171 H 0.47421 0.02868 0.98765 0.0
H1172 H 0.44808 0.05971 0.99446 0.0
H1173 H 0.50483 0.09512 0.96878 0.0
H1174 H 0.53737 0.11021 0.96832 0.0
H1175 H 0.53989 0.14294 1.00634 0.0
H1176 H 0.50739 0.12795 0.0071 0.0
C1177 C 0.42776 0.12096 0.97595 0.0
C1178 C 0.43464 0.13686 0.98437 0.0
C1179 C 0.43477 0.10965 0.97773 0.0
C1180 C 0.44868 0.11382 0.98813 0.0
C1181 C 0.45527 0.12946 0.99681 0.0
C1182 C 0.44839 0.14083 0.99494 0.0
C1183 C 0.45701 0.10246 0.98946 0.0
C1184 C 0.47546 0.11061 0.98819 0.0
C1185 C 0.44707 0.08381 0.99169 0.0
C1186 C 0.42773 0.07439 0.99446 0.0
C1187 C 0.42056 0.07971 1.00644 0.0
C1188 C 0.40235 0.07061 0.00912 0.0
C1189 C 0.39119 0.05609 0.99997 0.0
C1190 C 0.39822 0.05062 0.98814 0.0
C1191 C 0.41642 0.05968 0.98539 0.0
C1192 C 0.50212 0.06435 0.00927 0.0
C1193 C 0.49379 0.04691 1.00368 0.0
C1194 C 0.49632 0.07603 1.00474 0.0
C1195 C 0.48274 0.07094 0.99377 0.0
C1196 C 0.47591 0.05419 0.98679 0.0
C1197 C 0.48125 0.04221 0.99182 0.0
C1198 C 0.47427 0.08207 0.99112 0.0
C1199 C 0.45578 0.07389 0.99225 0.0
C1200 C 0.48419 0.10075 0.98906 0.0
C1201 C 0.50371 0.11042 0.98798 0.0
C1202 C 0.51234 0.10558 0.97699 0.0
C1203 C 0.53077 0.11409 0.97671 0.0
C1204 C 0.54069 0.12752 0.9873 0.0
C1205 C 0.5322 0.13256 0.99812 0.0
C1206 C 0.51379 0.12411 0.99845 0.0
H1207 H 0.55495 0.13402 0.98711 0.0
H1208 H 0.37711 0.04905 1.00209 0.0
H1209 H 0.70697 0.16102 0.99473 0.0
H1210 H 0.67608 0.14022 1.00073 0.0
H1211 H 0.6796 0.09886 0.97657 0.0
H1212 H 0.71061 0.1198 0.97034 0.0
H1213 H 0.6506 0.09834 0.96863 0.0
H1214 H 0.67709 0.09922 0.01731 0.0
H1215 H 0.69577 0.11255 0.0403 0.0
H1216 H 0.66543 0.13719 0.05235 0.0
H1217 H 0.64664 0.12409 0.02936 0.0
H1218 H 0.57522 0.02421 0.99596 0.0
H1219 H 0.60597 0.04735 0.99406 0.0
H1220 H 0.59227 0.08629 0.00851 0.0
H1221 H 0.56091 0.06278 0.0105 0.0
H1222 H 0.62557 0.08934 0.02169 0.0
H1223 H 0.598 0.086 0.97243 0.0
H1224 H 0.5791 0.07019 0.95014 0.0
H1225 H 0.61194 0.04784 0.93983 0.0
H1226 H 0.63092 0.06336 0.96218 0.0
C1227 C 0.70126 0.14744 0.99086 0.0
C1228 C 0.7113 0.14205 0.98212 0.0
C1229 C 0.68356 0.13552 0.99433 0.0
C1230 C 0.67551 0.11786 0.98932 0.0
C1231 C 0.6855 0.11241 0.98058 0.0
C1232 C 0.70321 0.12439 0.977 0.0
C1233 C 0.65649 0.10534 0.99266 0.0
C1234 C 0.64523 0.09629 0.98027 0.0
C1235 C 0.64926 0.10285 0.00779 0.0
C1236 C 0.66057 0.11082 0.02156 0.0
C1237 C 0.67449 0.10759 0.02481 0.0
C1238 C 0.68507 0.11507 0.03785 0.0
C1239 C 0.68182 0.12575 0.04776 0.0
C1240 C 0.66794 0.12893 0.04466 0.0
C1241 C 0.6573 0.12145 0.03164 0.0
C1242 C 0.57868 0.03766 0.99889 0.0
C1243 C 0.5656 0.04173 1.00317 0.0
C1244 C 0.5963 0.05087 0.99781 0.0
C1245 C 0.60135 0.06855 1.00088 0.0
C1246 C 0.58857 0.07268 1.00604 0.0
C1247 C 0.57072 0.05929 0.0072 0.0
C1248 C 0.61987 0.08249 0.99767 0.0
C1249 C 0.631 0.09167 0.01006 0.0
C1250 C 0.62706 0.08495 0.98257 0.0
C1251 C 0.61583 0.07578 0.96901 0.0
C1252 C 0.60113 0.07764 0.96545 0.0
C1253 C 0.59042 0.06875 0.9528 0.0
C1254 C 0.59431 0.05801 0.94358 0.0
C1255 C 0.60895 0.05617 0.94698 0.0
C1256 C 0.61971 0.06504 0.95961 0.0
H1257 H 0.58599 0.05113 0.93379 0.0
H1258 H 0.69002 0.13153 0.05785 0.0
H1259 H 0.86686 0.55722 0.96158 0.0
H1260 H 0.88433 0.54416 0.97089 0.0
H1261 H 0.90005 0.57814 0.01083 0.0
H1262 H 0.88228 0.59118 1.00152 0.0
H1263 H 0.92855 0.5785 0.99501 0.0
H1264 H 0.87241 0.53464 0.01628 0.0
H1265 H 0.84046 0.51321 0.01533 0.0
H1266 H 0.84916 0.48389 0.98003 0.0
H1267 H 0.88115 0.50524 0.98069 0.0
H1268 H 0.97632 0.5404 0.02654 0.0
H1269 H 0.95344 0.54882 0.0249 0.0
H1270 H 0.93018 0.51384 0.98602 0.0
H1271 H 0.953 0.50535 0.9878 0.0
H1272 H 0.90479 0.51396 1.00368 0.0
H1273 H 0.95871 0.55678 0.98 0.0
H1274 H 0.99071 0.57772 0.97838 0.0
H1275 H 0.98657 0.60899 0.01463 0.0
H1276 H 0.95454 0.58802 0.01664 0.0
C1277 C 0.87384 0.56172 0.97246 0.0
C1278 C 0.87319 0.57516 0.98085 0.0
C1279 C 0.88379 0.55423 0.97779 0.0
C1280 C 0.89346 0.56009 0.9916 0.0
C1281 C 0.89265 0.57337 1.00016 0.0
C1282 C 0.88244 0.58072 0.99491 0.0
C1283 C 0.90502 0.55286 0.99653 0.0
C1284 C 0.92332 0.56445 0.99729 0.0
C1285 C 0.89831 0.53444 0.99887 0.0
C1286 C 0.87913 0.52157 0.99848 0.0
C1287 C 0.86748 0.52367 0.00825 0.0
C1288 C 0.84938 0.51153 0.00779 0.0
C1289 C 0.84278 0.49721 0.99761 0.0
C1290 C 0.85428 0.49498 0.98791 0.0
C1291 C 0.8724 0.50707 0.98835 0.0
C1292 C 0.96585 0.53396 0.0181 0.0
C1293 C 0.9661 0.5219 0.00755 0.0
C1294 C 0.95294 0.53896 0.01701 0.0
C1295 C 0.9402 0.53216 1.00519 0.0
C1296 C 0.9398 0.51923 0.99527 0.0
C1297 C 0.95274 0.51426 0.99636 0.0
C1298 C 0.92832 0.53961 1.00231 0.0
C1299 C 0.91001 0.52806 1.00174 0.0
C1300 C 0.93505 0.55804 0.99981 0.0
C1301 C 0.95428 0.57071 0.99861 0.0
C1302 C 0.96465 0.56803 0.98773 0.0
C1303 C 0.98279 0.57991 0.98672 0.0
C1304 C 0.99069 0.59464 0.99643 0.0
C1305 C 0.98044 0.59754 0.00714 0.0
C1306 C 0.96229 0.58566 0.00822 0.0
H1307 H 1.00473 0.60384 0.99563 0.0
H1308 H 0.82876 0.48782 0.99726 0.0
H1309 H 0.45411 0.30277 0.99538 0.0
H1310 H 0.46767 0.33405 1.00314 0.0
H1311 H 0.42903 0.33955 0.97635 0.0
H1312 H 0.41504 0.30838 0.9691 0.0
H1313 H 0.46605 0.36323 0.96795 0.0
H1314 H 0.426 0.34306 0.01055 0.0
H1315 H 0.41101 0.32667 0.03436 0.0
H1316 H 0.46035 0.35169 0.05871 0.0
H1317 H 0.47574 0.36796 0.03493 0.0
H1318 H 0.47871 0.44938 0.98848 0.0
H1319 H 0.46902 0.41873 0.98089 0.0
H1320 H 0.50732 0.41781 0.01182 0.0
H1321 H 0.51717 0.44844 0.01915 0.0
H1322 H 0.4719 0.39182 0.01875 0.0
H1323 H 0.51152 0.41274 0.9754 0.0
H1324 H 0.52491 0.43093 0.95194 0.0
H1325 H 0.47449 0.40528 0.92931 0.0
H1326 H 0.46074 0.38712 0.95275 0.0
C1327 C 0.44819 0.31049 0.99152 0.0
C1328 C 0.43372 0.30314 0.9813 0.0
C1329 C 0.456 0.32839 0.99592 0.0
C1330 C 0.44949 0.33916 0.99013 0.0
C1331 C 0.43438 0.33152 0.98081 0.0
C1332 C 0.42647 0.3137 0.9766 0.0
C1333 C 0.45939 0.35874 0.9922 0.0
C1334 C 0.46724 0.36947 0.97906 0.0
C1335 C 0.46116 0.36687 1.00673 0.0
C1336 C 0.4521 0.35644 0.02084 0.0
C1337 C 0.43374 0.34479 0.02088 0.0
C1338 C 0.42514 0.3356 0.03441 0.0
C1339 C 0.43473 0.33806 0.04802 0.0
C1340 C 0.45295 0.34972 0.04813 0.0
C1341 C 0.46162 0.35891 0.03463 0.0
C1342 C 0.48589 0.44307 0.9928 0.0
C1343 C 0.49888 0.45139 1.00422 0.0
C1344 C 0.48008 0.4254 0.98873 0.0
C1345 C 0.48722 0.41587 0.99605 0.0
C1346 C 0.50152 0.42483 1.00614 0.0
C1347 C 0.50742 0.44249 0.01004 0.0
C1348 C 0.4786 0.39624 0.99449 0.0
C1349 C 0.47093 0.38553 0.0077 0.0
C1350 C 0.47683 0.38807 0.98004 0.0
C1351 C 0.48509 0.39869 0.96585 0.0
C1352 C 0.50327 0.41107 0.96545 0.0
C1353 C 0.51092 0.42136 0.95216 0.0
C1354 C 0.50055 0.4193 0.93915 0.0
C1355 C 0.48251 0.40688 0.9394 0.0
C1356 C 0.47478 0.39657 0.95268 0.0
H1357 H 0.50649 0.4273 0.92887 0.0
H1358 H 0.42804 0.33099 0.0585 0.0
H1359 H 0.11533 0.70501 0.04066 0.0
H1360 H 0.09772 0.67366 0.03394 0.0
H1361 H 0.14509 0.67031 0.03023 0.0
H1362 H 0.16289 0.70175 0.0371 0.0
H1363 H 0.11797 0.64907 0.00787 0.0
H1364 H 0.12365 0.65984 0.06387 0.0
H1365 H 0.1206 0.67416 0.0873 0.0
H1366 H 0.06526 0.6521 0.07823 0.0
H1367 H 0.06806 0.63789 0.05463 0.0
H1368 H 0.07066 0.55643 0.00853 0.0
H1369 H 0.09337 0.58598 0.01691 0.0
H1370 H 0.05286 0.59399 0.03732 0.0
H1371 H 0.0307 0.56404 0.03026 0.0
H1372 H 0.07901 0.61344 0.05139 0.0
H1373 H 0.07008 0.60494 0.99658 0.0
H1374 H 0.0695 0.59201 0.97111 0.0
H1375 H 0.12507 0.61079 0.9744 0.0
H1376 H 0.12592 0.6236 1.00001 0.0
C1377 C 0.12207 0.69769 0.03824 0.0
C1378 C 0.14052 0.70584 0.03979 0.0
C1379 C 0.11196 0.67977 0.03433 0.0
C1380 C 0.12005 0.66952 0.03193 0.0
C1381 C 0.13856 0.67793 0.03215 0.0
C1382 C 0.14872 0.69593 0.03605 0.0
C1383 C 0.10912 0.64982 0.03092 0.0
C1384 C 0.10959 0.64119 0.01743 0.0
C1385 C 0.09774 0.63959 0.04316 0.0
C1386 C 0.09608 0.64787 0.0575 0.0
C1387 C 0.11086 0.65811 0.06686 0.0
C1388 C 0.10917 0.66621 0.08016 0.0
C1389 C 0.09275 0.66405 0.08425 0.0
C1390 C 0.07797 0.65376 0.07506 0.0
C1391 C 0.07959 0.64567 0.06174 0.0
C1392 C 0.06686 0.56406 0.01582 0.0
C1393 C 0.04894 0.55788 0.0189 0.0
C1394 C 0.07977 0.58124 0.02014 0.0
C1395 C 0.07485 0.59276 0.02704 0.0
C1396 C 0.0572 0.58566 0.03184 0.0
C1397 C 0.04445 0.5683 0.02804 0.0
C1398 C 0.08741 0.61236 0.02816 0.0
C1399 C 0.08736 0.62109 0.04175 0.0
C1400 C 0.09851 0.62272 0.01568 0.0
C1401 C 0.09802 0.61502 1.00029 0.0
C1402 C 0.08215 0.6062 0.99191 0.0
C1403 C 0.08177 0.5989 0.97745 0.0
C1404 C 0.09723 0.60053 0.97116 0.0
C1405 C 0.1131 0.6095 0.97931 0.0
C1406 C 0.11354 0.61677 0.9938 0.0
H1407 H 0.09692 0.59489 0.95996 0.0
H1408 H 0.09147 0.67032 0.09456 0.0
H1409 H 0.30441 0.45702 0.02893 0.0
H1410 H 0.33488 0.47014 0.01925 0.0
H1411 H 0.33994 0.42871 0.04223 0.0
H1412 H 0.30958 0.41524 0.0514 0.0
H1413 H 0.36527 0.4649 0.05097 0.0
H1414 H 0.3398 0.42736 1.00656 0.0
H1415 H 0.3211 0.41578 0.98336 0.0
H1416 H 0.34774 0.46775 0.96248 0.0
H1417 H 0.36645 0.4797 0.98569 0.0
H1418 H 0.43891 0.46016 0.03305 0.0
H1419 H 0.4091 0.45486 0.03444 0.0
H1420 H 0.42338 0.50067 1.00538 0.0
H1421 H 0.45396 0.50621 1.00378 0.0
H1422 H 0.38949 0.46946 0.99813 0.0
H1423 H 0.41836 0.50528 0.04244 0.0
H1424 H 0.43755 0.51441 0.06548 0.0
H1425 H 0.4043 0.46346 0.08671 0.0
H1426 H 0.38504 0.45395 0.06373 0.0
C1427 C 0.31186 0.45045 0.03157 0.0
C1428 C 0.30463 0.43526 0.04123 0.0
C1429 C 0.32929 0.45801 0.02607 0.0
C1430 C 0.33972 0.45051 0.03019 0.0
C1431 C 0.33218 0.43482 0.03904 0.0
C1432 C 0.31483 0.4272 0.04437 0.0
C1433 C 0.35896 0.4597 0.02679 0.0
C1434 C 0.37057 0.46596 0.0394 0.0
C1435 C 0.3659 0.46151 0.01167 0.0
C1436 C 0.35429 0.45449 0.99796 0.0
C1437 C 0.34147 0.43638 0.99713 0.0
C1438 C 0.33093 0.42973 0.98395 0.0
C1439 C 0.33317 0.44104 0.97148 0.0
C1440 C 0.34597 0.45902 0.97217 0.0
C1441 C 0.35655 0.46574 0.98534 0.0
C1442 C 0.43593 0.46925 0.02689 0.0
C1443 C 0.44905 0.48381 0.01844 0.0
C1444 C 0.41875 0.46614 0.02773 0.0
C1445 C 0.41403 0.47752 0.02028 0.0
C1446 C 0.42679 0.49178 0.01132 0.0
C1447 C 0.44424 0.49494 0.01043 0.0
C1448 C 0.39573 0.4742 0.02238 0.0
C1449 C 0.38427 0.46897 0.00962 0.0
C1450 C 0.3888 0.47315 0.03742 0.0
C1451 C 0.40028 0.4789 0.05134 0.0
C1452 C 0.41519 0.496 0.05199 0.0
C1453 C 0.42608 0.50124 0.06505 0.0
C1454 C 0.42215 0.48952 0.07755 0.0
C1455 C 0.40732 0.47254 0.07703 0.0
C1456 C 0.39639 0.46723 0.06401 0.0
H1457 H 0.43061 0.4936 0.08764 0.0
H1458 H 0.32503 0.43585 0.96126 0.0
H1459 H 0.57085 0.86686 0.01644 0.0
H1460 H 0.56087 0.88809 0.01179 0.0
H1461 H 0.56462 0.89931 0.06069 0.0
H1462 H 0.57329 0.87711 0.06559 0.0
H1463 H 0.53459 0.89334 0.0511 0.0
H1464 H 0.59378 0.93018 0.03074 0.0
H1465 H 0.61939 0.93773 0.01391 0.0
H1466 H 0.5873 0.92863 0.97353 0.0
H1467 H 0.56147 0.92087 0.99011 0.0
H1468 H 0.53033 0.97625 0.03367 0.0
H1469 H 0.53971 0.95557 0.04357 0.0
H1470 H 0.51378 0.92077 1.00517 0.0
H1471 H 0.50366 0.94067 0.99584 0.0
H1472 H 0.55583 0.94018 0.01045 0.0
H1473 H 0.49707 0.90217 0.02941 0.0
H1474 H 0.47059 0.89413 0.04502 0.0
H1475 H 0.50049 0.90255 0.08673 0.0
H1476 H 0.52746 0.91183 0.07134 0.0
C1477 C 0.56951 0.87378 0.02625 0.0
C1478 C 0.57265 0.86997 0.04144 0.0
C1479 C 0.56409 0.88622 0.02352 0.0
C1480 C 0.56207 0.89549 0.03587 0.0
C1481 C 0.56604 0.89235 0.05094 0.0
C1482 C 0.57119 0.87972 0.05372 0.0
C1483 C 0.55423 0.9071 0.03336 0.0
C1484 C 0.53955 0.90386 0.04243 0.0
C1485 C 0.56016 0.92039 0.02163 0.0
C1486 C 0.57566 0.92482 0.01168 0.0
C1487 C 0.59215 0.92965 0.01828 0.0
C1488 C 0.60672 0.93401 0.00877 0.0
C1489 C 0.60497 0.93363 0.99266 0.0
C1490 C 0.58864 0.92891 0.98601 0.0
C1491 C 0.57405 0.92456 0.99545 0.0
C1492 C 0.52564 0.96361 0.028 0.0
C1493 C 0.51608 0.95991 0.01412 0.0
C1494 C 0.5313 0.95199 0.03346 0.0
C1495 C 0.52756 0.93677 0.02497 0.0
C1496 C 0.51675 0.9324 0.0119 0.0
C1497 C 0.51076 0.94366 1.00672 0.0
C1498 C 0.53655 0.92653 0.02838 0.0
C1499 C 0.55125 0.92992 0.01935 0.0
C1500 C 0.53051 0.91321 0.03995 0.0
C1501 C 0.51444 0.90827 0.0492 0.0
C1502 C 0.49817 0.90293 0.0419 0.0
C1503 C 0.48304 0.89809 0.05072 0.0
C1504 C 0.4839 0.89809 0.06688 0.0
C1505 C 0.49989 0.90284 0.07422 0.0
C1506 C 0.51513 0.90802 0.06545 0.0
H1507 H 0.47215 0.89422 0.07371 0.0
H1508 H 0.61626 0.93702 0.98533 0.0
H1509 H 0.98073 0.19923 0.39417 0.0
H1510 H 0.01211 0.21923 0.38935 0.0
H1511 H 1.00012 0.23221 0.34425 0.0
H1512 H 0.96862 0.21195 0.34895 0.0
H1513 H 0.02706 0.22705 0.34184 0.0
H1514 H 0.01307 0.26174 0.37582 0.0
H1515 H 1.00169 0.26862 0.39932 0.0
H1516 H 0.03743 0.26013 0.42742 0.0
H1517 H 0.04887 0.25301 0.40411 0.0
H1518 H 0.11221 0.30545 0.33061 0.0
H1519 H 0.08123 0.28178 0.3325 0.0
H1520 H 0.0913 0.26752 0.37788 0.0
H1521 H 0.12197 0.29161 0.37618 0.0
H1522 H 0.06519 0.27326 0.37941 0.0
H1523 H 0.07977 0.23922 0.34511 0.0
H1524 H 0.09192 0.23374 0.32139 0.0
H1525 H 0.0558 0.24202 0.29366 0.0
H1526 H 0.04357 0.24776 0.31721 0.0
C1527 C 0.98472 0.20654 0.38332 0.0
C1528 C 0.97212 0.20403 0.37198 0.0
C1529 C 1.00272 0.21798 0.38055 0.0
C1530 C 0.00856 0.22744 0.36649 0.0
C1531 C 0.99599 0.22506 0.35518 0.0
C1532 C 0.97798 0.21348 0.35789 0.0
C1533 C 0.02777 0.23952 0.36351 0.0
C1534 C 0.03536 0.2373 0.34997 0.0
C1535 C 0.03877 0.2527 0.37421 0.0
C1536 C 0.03168 0.25666 0.38825 0.0
C1537 C 0.01837 0.26118 0.38703 0.0
C1538 C 0.01194 0.26516 0.40031 0.0
C1539 C 0.01879 0.26476 0.41486 0.0
C1540 C 0.03211 0.2604 0.41615 0.0
C1541 C 0.03858 0.25641 0.40292 0.0
C1542 C 0.10787 0.2968 0.34071 0.0
C1543 C 0.11939 0.30012 0.3532 0.0
C1544 C 0.09017 0.28329 0.34182 0.0
C1545 C 0.08385 0.27279 0.35535 0.0
C1546 C 0.09578 0.27545 0.36735 0.0
C1547 C 0.11333 0.28909 0.36635 0.0
C1548 C 0.06458 0.26063 0.35788 0.0
C1549 C 0.05694 0.26293 0.37131 0.0
C1550 C 0.05361 0.24761 0.34706 0.0
C1551 C 0.06087 0.24407 0.33291 0.0
C1552 C 0.07451 0.23999 0.33395 0.0
C1553 C 0.08138 0.23681 0.32053 0.0
C1554 C 0.07466 0.23757 0.30602 0.0
C1555 C 0.061 0.24145 0.3049 0.0
C1556 C 0.05408 0.24464 0.31828 0.0
H1557 H 0.08001 0.23512 0.29565 0.0
H1558 H 0.01381 0.26787 0.42512 0.0
H1559 H 0.80107 0.75944 0.34991 0.0
H1560 H 0.78101 0.77088 0.34502 0.0
H1561 H 0.79024 0.79219 0.39121 0.0
H1562 H 0.81022 0.78074 0.3962 0.0
H1563 H 0.75659 0.77781 0.38451 0.0
H1564 H 0.81072 0.81836 0.35803 0.0
H1565 H 0.83516 0.827 0.33949 0.0
H1566 H 0.79814 0.80644 0.30195 0.0
H1567 H 0.77347 0.79745 0.32031 0.0
H1568 H 0.72271 0.83468 0.37881 0.0
H1569 H 0.74475 0.82531 0.3805 0.0
H1570 H 0.73231 0.80531 0.33387 0.0
H1571 H 0.71072 0.81549 0.33193 0.0
H1572 H 0.76655 0.81779 0.33957 0.0
H1573 H 0.71255 0.77804 0.36556 0.0
H1574 H 0.68795 0.77012 0.38374 0.0
H1575 H 0.72428 0.78882 0.42185 0.0
H1576 H 0.74914 0.79713 0.40385 0.0
C1577 C 0.79886 0.76659 0.35903 0.0
C1578 C 0.80739 0.76925 0.37343 0.0
C1579 C 0.78739 0.77316 0.3562 0.0
C1580 C 0.78432 0.78273 0.36763 0.0
C1581 C 0.79239 0.78491 0.38217 0.0
C1582 C 0.80378 0.77827 0.38504 0.0
C1583 C 0.77285 0.7906 0.36451 0.0
C1584 C 0.75893 0.78671 0.37477 0.0
C1585 C 0.77546 0.80181 0.35155 0.0
C1586 C 0.79026 0.80708 0.34055 0.0
C1587 C 0.8078 0.81555 0.34583 0.0
C1588 C 0.82169 0.82053 0.33536 0.0
C1589 C 0.8182 0.81723 0.31955 0.0
C1590 C 0.80082 0.80896 0.3142 0.0
C1591 C 0.78688 0.80392 0.32463 0.0
C1592 C 0.72509 0.82879 0.36875 0.0
C1593 C 0.71504 0.82579 0.35525 0.0
C1594 C 0.73755 0.82326 0.36977 0.0
C1595 C 0.7398 0.81406 0.3575 0.0
C1596 C 0.73071 0.81224 0.34354 0.0
C1597 C 0.71846 0.81814 0.3424 0.0
C1598 C 0.75056 0.80525 0.35973 0.0
C1599 C 0.76422 0.80886 0.34928 0.0
C1600 C 0.74767 0.79369 0.37247 0.0
C1601 C 0.7327 0.7883 0.38336 0.0
C1602 C 0.71529 0.78052 0.37781 0.0
C1603 C 0.70131 0.77598 0.38808 0.0
C1604 C 0.70455 0.77899 0.40394 0.0
C1605 C 0.72179 0.78651 0.40956 0.0
C1606 C 0.73583 0.79112 0.39934 0.0
H1607 H 0.69371 0.77548 0.41187 0.0
H1608 H 0.82898 0.82113 0.31146 0.0
H1609 H 0.26463 0.04296 0.36686 0.0
H1610 H 0.25285 0.01185 0.35963 0.0
H1611 H 0.20052 1.00036 0.37234 0.0
H1612 H 0.21218 0.03134 0.37967 0.0
H1613 H 0.21088 0.97887 0.38751 0.0
H1614 H 0.2096 0.99811 0.33551 0.0
H1615 H 0.22113 0.0156 0.31142 0.0
H1616 H 0.25838 0.99743 0.30685 0.0
H1617 H 0.24727 0.98003 0.33106 0.0
H1618 H 0.16312 0.89207 0.34725 0.0
H1619 H 0.1734 0.92205 0.35716 0.0
H1620 H 0.22591 0.93005 0.36185 0.0
H1621 H 0.2155 0.89988 0.35264 0.0
H1622 H 0.21569 0.95304 0.33802 0.0
H1623 H 0.21933 0.93617 0.39042 0.0
H1624 H 0.20811 0.91807 0.41423 0.0
H1625 H 0.16769 0.93217 0.4179 0.0
H1626 H 0.17847 0.95006 0.39388 0.0
C1627 C 0.25056 0.03386 0.36788 0.0
C1628 C 0.23937 0.03961 0.374 0.0
C1629 C 0.24384 0.0161 0.36365 0.0
C1630 C 0.22581 0.00373 0.36554 0.0
C1631 C 0.21448 0.00965 0.37084 0.0
C1632 C 0.22116 0.02742 0.37492 0.0
C1633 C 0.21908 0.9844 0.36361 0.0
C1634 C 0.21174 0.97323 0.3766 0.0
C1635 C 0.22069 0.97707 0.34954 0.0
C1636 C 0.22775 0.98795 0.33523 0.0
C1637 C 0.22042 0.99803 0.3295 0.0
C1638 C 0.22683 0.00788 0.31578 0.0
C1639 C 0.24052 0.00768 0.30764 0.0
C1640 C 0.24781 0.99761 0.31319 0.0
C1641 C 0.24145 0.98775 0.32691 0.0
C1642 C 0.17652 0.89974 0.35148 0.0
C1643 C 0.18839 0.89345 0.34955 0.0
C1644 C 0.18249 0.91701 0.35684 0.0
C1645 C 0.20045 0.9283 0.36008 0.0
C1646 C 0.21198 0.92152 0.35949 0.0
C1647 C 0.20593 0.90413 0.3545 0.0
C1648 C 0.20751 0.94767 0.36189 0.0
C1649 C 0.21488 0.95879 0.34888 0.0
C1650 C 0.20615 0.95503 0.37595 0.0
C1651 C 0.19947 0.94414 0.39021 0.0
C1652 C 0.20786 0.93515 0.39616 0.0
C1653 C 0.20164 0.925 0.40973 0.0
C1654 C 0.18714 0.92389 0.41754 0.0
C1655 C 0.17887 0.93298 0.4118 0.0
C1656 C 0.18502 0.94311 0.39821 0.0
H1657 H 0.18235 0.91604 0.42806 0.0
H1658 H 0.24543 0.01528 0.297 0.0
H1659 H 0.52405 0.64435 0.30102 0.0
H1660 H 0.54268 0.67548 0.30848 0.0
H1661 H 0.57869 0.66243 0.33126 0.0
H1662 H 0.5603 0.63128 0.32345 0.0
H1663 H 0.5707 0.68735 0.34795 0.0
H1664 H 0.59111 0.6783 0.29953 0.0
H1665 H 0.5887 0.66844 0.27251 0.0
H1666 H 0.57011 0.70381 0.25871 0.0
H1667 H 0.57207 0.71362 0.28575 0.0
H1668 H 0.65214 0.76466 0.34954 0.0
H1669 H 0.62932 0.73571 0.34073 0.0
H1670 H 0.5984 0.75866 0.32452 0.0
H1671 H 0.62137 0.78811 0.33384 0.0
H1672 H 0.60127 0.72977 0.30461 0.0
H1673 H 0.58444 0.74075 0.35462 0.0
H1674 H 0.59012 0.75091 0.38169 0.0
H1675 H 0.60503 0.71192 0.39262 0.0
H1676 H 0.59973 0.70173 0.36553 0.0
C1677 C 0.53576 0.64806 0.30788 0.0
C1678 C 0.54076 0.63544 0.31166 0.0
C1679 C 0.54641 0.66584 0.31207 0.0
C1680 C 0.56208 0.67125 0.32035 0.0
C1681 C 0.56662 0.6585 0.32489 0.0
C1682 C 0.55617 0.64076 0.3204 0.0
C1683 C 0.57433 0.69039 0.32323 0.0
C1684 C 0.57737 0.69661 0.33848 0.0
C1685 C 0.58293 0.70252 0.31088 0.0
C1686 C 0.58143 0.69646 0.29469 0.0
C1687 C 0.58624 0.68377 0.29077 0.0
C1688 C 0.58502 0.67824 0.27545 0.0
C1689 C 0.57918 0.68544 0.26391 0.0
C1690 C 0.57456 0.6982 0.26767 0.0
C1691 C 0.57571 0.70374 0.283 0.0
C1692 C 0.64066 0.7637 0.34381 0.0
C1693 C 0.63842 0.77861 0.34254 0.0
C1694 C 0.62761 0.74711 0.33882 0.0
C1695 C 0.61207 0.74501 0.33227 0.0
C1696 C 0.61032 0.76008 0.32969 0.0
C1697 C 0.62346 0.77687 0.33487 0.0
C1698 C 0.59746 0.72676 0.32928 0.0
C1699 C 0.59418 0.7206 0.31403 0.0
C1700 C 0.58883 0.71466 0.34166 0.0
C1701 C 0.59181 0.72057 0.35801 0.0
C1702 C 0.58907 0.73444 0.36276 0.0
C1703 C 0.5922 0.74019 0.37811 0.0
C1704 C 0.59796 0.73209 0.38886 0.0
C1705 C 0.60057 0.71819 0.38428 0.0
C1706 C 0.59749 0.71241 0.36893 0.0
H1707 H 0.60037 0.73656 0.40074 0.0
H1708 H 0.57829 0.68118 0.25203 0.0
H1709 H 0.37543 0.9288 0.30193 0.0
H1710 H 0.3438 0.91665 0.30627 0.0
H1711 H 0.34326 0.87787 0.33813 0.0
H1712 H 0.37457 0.88935 0.33329 0.0
H1713 H 0.31615 0.86211 0.32049 0.0
H1714 H 0.34098 0.91581 0.34978 0.0
H1715 H 0.35839 0.94787 0.35516 0.0
H1716 H 0.32861 0.95817 0.32117 0.0
H1717 H 0.31124 0.92622 0.31539 0.0
H1718 H 0.22829 0.84476 0.35019 0.0
H1719 H 0.25957 0.85249 0.34963 0.0
H1720 H 0.26622 0.8786 0.30546 0.0
H1721 H 0.23546 0.8707 0.30563 0.0
H1722 H 0.28982 0.89955 0.33264 0.0
H1723 H 0.26721 0.84627 0.30181 0.0
H1724 H 0.24921 0.81417 0.29691 0.0
H1725 H 0.27467 0.80332 0.33458 0.0
H1726 H 0.29257 0.83538 0.33992 0.0
C1727 C 0.36858 0.91764 0.30982 0.0
C1728 C 0.37768 0.91016 0.31731 0.0
C1729 C 0.35049 0.91082 0.31244 0.0
C1730 C 0.34108 0.89645 0.32273 0.0
C1731 C 0.35015 0.889 0.33021 0.0
C1732 C 0.36818 0.89574 0.32754 0.0
C1733 C 0.3217 0.88873 0.32528 0.0
C1734 C 0.31049 0.87032 0.32342 0.0
C1735 C 0.3141 0.89934 0.32892 0.0
C1736 C 0.32494 0.91862 0.33204 0.0
C1737 C 0.33829 0.92493 0.34332 0.0
C1738 C 0.34812 0.94309 0.34646 0.0
C1739 C 0.34464 0.95505 0.33849 0.0
C1740 C 0.33133 0.94889 0.32732 0.0
C1741 C 0.32149 0.93077 0.32411 0.0
C1742 C 0.23634 0.85183 0.34024 0.0
C1743 C 0.22934 0.85731 0.32808 0.0
C1744 C 0.25419 0.85625 0.33995 0.0
C1745 C 0.26519 0.86623 0.32753 0.0
C1746 C 0.258 0.87099 0.31518 0.0
C1747 C 0.24033 0.86646 0.31535 0.0
C1748 C 0.28451 0.87317 0.32766 0.0
C1749 C 0.29565 0.89141 0.32997 0.0
C1750 C 0.29202 0.86245 0.32444 0.0
C1751 C 0.28096 0.84319 0.32147 0.0
C1752 C 0.26874 0.83703 0.30923 0.0
C1753 C 0.25861 0.81884 0.30633 0.0
C1754 C 0.26072 0.8067 0.31548 0.0
C1755 C 0.27299 0.81273 0.32755 0.0
C1756 C 0.28311 0.8309 0.33053 0.0
H1757 H 0.25291 0.79263 0.31319 0.0
H1758 H 0.35223 0.9691 0.34098 0.0
H1759 H 0.07752 0.44857 0.31532 0.0
H1760 H 0.08896 0.42798 0.31828 0.0
H1761 H 0.14167 0.47243 0.32338 0.0
H1762 H 0.13036 0.49293 0.32052 0.0
H1763 H 0.14039 0.44842 0.30231 0.0
H1764 H 0.12135 0.4488 0.35373 0.0
H1765 H 0.10157 0.44558 0.37534 0.0
H1766 H 0.06827 0.39038 0.36478 0.0
H1767 H 0.08767 0.39334 0.34289 0.0
H1768 H 0.18208 0.40483 0.34252 0.0
H1769 H 0.1711 0.42411 0.3329 0.0
H1770 H 0.12328 0.37814 0.31764 0.0
H1771 H 0.13455 0.35893 0.32671 0.0
H1772 H 0.12115 0.40165 0.34293 0.0
H1773 H 0.14153 0.40245 0.29101 0.0
H1774 H 0.16425 0.40607 0.27215 0.0
H1775 H 0.19741 0.46005 0.28654 0.0
H1776 H 0.17493 0.45663 0.30564 0.0
C1777 C 0.09153 0.45391 0.3171 0.0
C1778 C 0.10303 0.47238 0.31771 0.0
C1779 C 0.09804 0.44215 0.31887 0.0
C1780 C 0.11619 0.44867 0.32105 0.0
C1781 C 0.12763 0.46708 0.32169 0.0
C1782 C 0.12113 0.47879 0.32015 0.0
C1783 C 0.12345 0.43642 0.32215 0.0
C1784 C 0.13619 0.43825 0.31125 0.0
C1785 C 0.11793 0.42303 0.33373 0.0
C1786 C 0.10581 0.42138 0.34647 0.0
C1787 C 0.10964 0.43604 0.35582 0.0
C1788 C 0.09854 0.43425 0.36818 0.0
C1789 C 0.08363 0.41781 0.37139 0.0
C1790 C 0.07979 0.40313 0.36224 0.0
C1791 C 0.09082 0.40486 0.34985 0.0
C1792 C 0.16984 0.39897 0.33606 0.0
C1793 C 0.15933 0.38042 0.33509 0.0
C1794 C 0.16337 0.40995 0.3309 0.0
C1795 C 0.14623 0.40249 0.32486 0.0
C1796 C 0.1365 0.38413 0.32235 0.0
C1797 C 0.14315 0.37321 0.3272 0.0
C1798 C 0.13778 0.41355 0.32299 0.0
C1799 C 0.125 0.41162 0.33385 0.0
C1800 C 0.14337 0.42696 0.31155 0.0
C1801 C 0.15663 0.42926 0.29977 0.0
C1802 C 0.1537 0.41506 0.29018 0.0
C1803 C 0.16653 0.41708 0.27945 0.0
C1804 C 0.18228 0.43328 0.27816 0.0
C1805 C 0.1852 0.44751 0.28755 0.0
C1806 C 0.17241 0.44556 0.29831 0.0
H1807 H 0.19222 0.43481 0.26986 0.0
H1808 H 0.07509 0.41642 0.381 0.0
H1809 H 0.36936 0.4934 0.30695 0.0
H1810 H 0.33836 0.47309 0.31365 0.0
H1811 H 0.35106 0.43256 0.32601 0.0
H1812 H 0.38214 0.45293 0.31899 0.0
H1813 H 0.32044 0.41843 0.31042 0.0
H1814 H 0.34436 0.45567 0.35431 0.0
H1815 H 0.36059 0.48371 0.36866 0.0
H1816 H 0.32441 0.49998 0.35226 0.0
H1817 H 0.30807 0.4721 0.33767 0.0
H1818 H 0.24246 0.36461 0.35224 0.0
H1819 H 0.27368 0.38656 0.34873 0.0
H1820 H 0.25933 0.42198 0.3262 0.0
H1821 H 0.22785 0.39971 0.32948 0.0
H1822 H 0.29073 0.43825 0.34765 0.0
H1823 H 0.26687 0.39954 0.30358 0.0
H1824 H 0.25097 0.37066 0.29045 0.0
H1825 H 0.28771 0.35611 0.30879 0.0
H1826 H 0.30367 0.38481 0.32226 0.0
C1827 C 0.36543 0.4801 0.31098 0.0
C1828 C 0.37797 0.47463 0.31248 0.0
C1829 C 0.34779 0.46855 0.3149 0.0
C1830 C 0.3424 0.45138 0.32059 0.0
C1831 C 0.3549 0.44575 0.3217 0.0
C1832 C 0.3726 0.45733 0.31772 0.0
C1833 C 0.32374 0.4395 0.32547 0.0
C1834 C 0.31404 0.42269 0.31871 0.0
C1835 C 0.31525 0.44506 0.33617 0.0
C1836 C 0.3251 0.46189 0.3448 0.0
C1837 C 0.33996 0.4653 0.35366 0.0
C1838 C 0.34916 0.48114 0.36187 0.0
C1839 C 0.34356 0.49364 0.36135 0.0
C1840 C 0.32874 0.4903 0.35264 0.0
C1841 C 0.31949 0.47447 0.34442 0.0
C1842 C 0.24598 0.37741 0.34717 0.0
C1843 C 0.23282 0.38066 0.34141 0.0
C1844 C 0.26379 0.38982 0.34499 0.0
C1845 C 0.26877 0.40575 0.33702 0.0
C1846 C 0.2557 0.40973 0.33239 0.0
C1847 C 0.23776 0.39715 0.33445 0.0
C1848 C 0.28748 0.41739 0.33245 0.0
C1849 C 0.29718 0.43407 0.33933 0.0
C1850 C 0.29602 0.41159 0.32203 0.0
C1851 C 0.28633 0.39424 0.31409 0.0
C1852 C 0.27143 0.39009 0.30498 0.0
C1853 C 0.26244 0.37378 0.29743 0.0
C1854 C 0.26829 0.36153 0.29882 0.0
C1855 C 0.28317 0.36559 0.30775 0.0
C1856 C 0.29219 0.38189 0.31534 0.0
H1857 H 0.26133 0.34892 0.29294 0.0
H1858 H 0.35069 0.50589 0.36772 0.0
H1859 H 0.56406 0.93467 0.31975 0.0
H1860 H 0.58156 0.92139 0.3283 0.0
H1861 H 0.53698 0.86909 0.32082 0.0
H1862 H 0.51923 0.88239 0.3127 0.0
H1863 H 0.55451 0.86776 0.345 0.0
H1864 H 0.57084 0.89103 0.2936 0.0
H1865 H 0.58058 0.9136 0.27278 0.0
H1866 H 0.62929 0.94596 0.29677 0.0
H1867 H 0.61969 0.92376 0.3179 0.0
H1868 H 0.61508 0.83198 0.335 0.0
H1869 H 0.59133 0.83936 0.33228 0.0
H1870 H 0.62683 0.8924 0.34826 0.0
H1871 H 0.65019 0.88507 0.35117 0.0
H1872 H 0.61215 0.89051 0.31841 0.0
H1873 H 0.59482 0.8671 0.37022 0.0
H1874 H 0.58521 0.84371 0.39027 0.0
H1875 H 0.53842 0.81043 0.36414 0.0
H1876 H 0.54795 0.83352 0.34376 0.0
C1877 C 0.55793 0.92034 0.32008 0.0
C1878 C 0.54031 0.9096 0.31536 0.0
C1879 C 0.56797 0.91273 0.32492 0.0
C1880 C 0.5608 0.8942 0.32479 0.0
C1881 C 0.5429 0.88341 0.32092 0.0
C1882 C 0.53275 0.89103 0.31629 0.0
C1883 C 0.57224 0.88625 0.32788 0.0
C1884 C 0.567 0.8726 0.33902 0.0
C1885 C 0.58862 0.89248 0.32015 0.0
C1886 C 0.59447 0.9058 0.3074 0.0
C1887 C 0.58358 0.90302 0.29449 0.0
C1888 C 0.58907 0.91575 0.28263 0.0
C1889 C 0.60553 0.93122 0.28347 0.0
C1890 C 0.61654 0.93399 0.29615 0.0
C1891 C 0.61107 0.92134 0.30807 0.0
C1892 C 0.61747 0.84491 0.3386 0.0
C1893 C 0.63438 0.8579 0.34349 0.0
C1894 C 0.60401 0.84919 0.33687 0.0
C1895 C 0.6074 0.86651 0.33992 0.0
C1896 C 0.62393 0.87901 0.34577 0.0
C1897 C 0.63721 0.87474 0.34758 0.0
C1898 C 0.59461 0.87243 0.33575 0.0
C1899 C 0.5996 0.88564 0.32431 0.0
C1900 C 0.57802 0.86569 0.34308 0.0
C1901 C 0.5722 0.85193 0.35538 0.0
C1902 C 0.58257 0.85472 0.36867 0.0
C1903 C 0.57713 0.84153 0.3801 0.0
C1904 C 0.56124 0.82557 0.37845 0.0
C1905 C 0.55074 0.82279 0.36538 0.0
C1906 C 0.55616 0.83592 0.35388 0.0
H1907 H 0.55704 0.81537 0.38732 0.0
H1908 H 0.60976 0.94105 0.27427 0.0
H1909 H 0.13067 0.64266 0.30981 0.0
H1910 H 0.14409 0.67421 0.31598 0.0
H1911 H 0.09314 0.66591 0.32996 0.0
H1912 H 0.07965 0.63452 0.32319 0.0
H1913 H 0.10664 0.69183 0.31118 0.0
H1914 H 0.12965 0.67789 0.35609 0.0
H1915 H 0.14539 0.66556 0.37072 0.0
H1916 H 0.19304 0.69972 0.34561 0.0
H1917 H 0.17753 0.71212 0.33071 0.0
H1918 H 0.13614 0.77989 0.33457 0.0
H1919 H 0.12401 0.74888 0.33014 0.0
H1920 H 0.17659 0.75646 0.32587 0.0
H1921 H 0.18851 0.78713 0.33451 0.0
H1922 H 0.1617 0.7299 0.34004 0.0
H1923 H 0.13606 0.74276 0.29389 0.0
H1924 H 0.11897 0.75522 0.28174 0.0
H1925 H 0.07456 0.72218 0.31094 0.0
H1926 H 0.09143 0.70967 0.32332 0.0
C1927 C 0.12243 0.64751 0.31456 0.0
C1928 C 0.10409 0.63615 0.31593 0.0
C1929 C 0.13012 0.66558 0.31813 0.0
C1930 C 0.11969 0.67261 0.32347 0.0
C1931 C 0.10151 0.66096 0.32574 0.0
C1932 C 0.09379 0.64299 0.32192 0.0
C1933 C 0.12725 0.69223 0.32511 0.0
C1934 C 0.11865 0.70014 0.3176 0.0
C1935 C 0.14305 0.70326 0.33323 0.0
C1936 C 0.15238 0.69582 0.34219 0.0
C1937 C 0.14345 0.68268 0.35361 0.0
C1938 C 0.15234 0.6757 0.36197 0.0
C1939 C 0.17019 0.68182 0.35907 0.0
C1940 C 0.1792 0.69498 0.34783 0.0
C1941 C 0.17038 0.702 0.33945 0.0
C1942 C 0.14524 0.77525 0.33182 0.0
C1943 C 0.16336 0.7862 0.3347 0.0
C1944 C 0.13816 0.75712 0.3292 0.0
C1945 C 0.1491 0.74973 0.327 0.0
C1946 C 0.16756 0.76141 0.32761 0.0
C1947 C 0.17456 0.77927 0.33193 0.0
C1948 C 0.14144 0.72987 0.32562 0.0
C1949 C 0.14992 0.72179 0.33332 0.0
C1950 C 0.12539 0.71859 0.31771 0.0
C1951 C 0.11501 0.72533 0.30951 0.0
C1952 C 0.12262 0.73809 0.29762 0.0
C1953 C 0.11299 0.7452 0.29075 0.0
C1954 C 0.0957 0.7395 0.29557 0.0
C1955 C 0.08794 0.72657 0.3072 0.0
C1956 C 0.0975 0.71943 0.31411 0.0
H1957 H 0.08831 0.7451 0.2903 0.0
H1958 H 0.17705 0.6764 0.36555 0.0
H1959 H 0.82569 0.03963 0.359 0.0
H1960 H 0.80744 0.00856 0.35081 0.0
H1961 H 0.76379 0.00411 0.37746 0.0
H1962 H 0.78158 0.03504 0.38524 0.0
H1963 H 0.7781 0.98061 0.38595 0.0
H1964 H 0.75646 1.00019 0.34387 0.0
H1965 H 0.75749 0.01643 0.32 0.0
H1966 H 0.78024 0.99004 0.2953 0.0
H1967 H 0.77971 0.97391 0.31913 0.0
H1968 H 0.70298 0.89526 0.36902 0.0
H1969 H 0.72556 0.92535 0.3762 0.0
H1970 H 0.76071 0.92421 0.34188 0.0
H1971 H 0.73821 0.89409 0.33489 0.0
H1972 H 0.75254 0.9507 0.33618 0.0
H1973 H 0.7748 0.93181 0.37855 0.0
H1974 H 0.77534 0.91715 0.40294 0.0
H1975 H 0.75074 0.94227 0.42683 0.0
H1976 H 0.75017 0.95718 0.40256 0.0
C1977 C 0.81204 0.03219 0.3627 0.0
C1978 C 0.80521 0.03969 0.37306 0.0
C1979 C 0.80164 0.01444 0.35802 0.0
C1980 C 0.78432 0.00402 0.36366 0.0
C1981 C 0.77714 0.01189 0.37305 0.0
C1982 C 0.78739 0.02955 0.37757 0.0
C1983 C 0.77454 0.98443 0.36185 0.0
C1984 C 0.77238 0.97406 0.37507 0.0
C1985 C 0.76746 0.97595 0.34759 0.0
C1986 C 0.76839 0.98611 0.33339 0.0
C1987 C 0.76202 0.9981 0.33344 0.0
C1988 C 0.76242 0.00722 0.31989 0.0
C1989 C 0.76902 0.00435 0.30616 0.0
C1990 C 0.77521 0.99232 0.30596 0.0
C1991 C 0.77488 0.9832 0.31949 0.0
C1992 C 0.71599 0.90089 0.36386 0.0
C1993 C 0.71889 0.89224 0.35151 0.0
C1994 C 0.72881 0.91829 0.36773 0.0
C1995 C 0.74472 0.92719 0.35935 0.0
C1996 C 0.74848 0.91769 0.34842 0.0
C1997 C 0.73575 0.90027 0.34469 0.0
C1998 C 0.75609 0.94685 0.36035 0.0
C1999 C 0.75846 0.95725 0.347 0.0
C2000 C 0.7633 0.95545 0.3745 0.0
C2001 C 0.76234 0.94548 0.38876 0.0
C2002 C 0.7693 0.93401 0.38897 0.0
C2003 C 0.76974 0.92578 0.40279 0.0
C2004 C 0.76317 0.92886 0.41645 0.0
C2005 C 0.75592 0.93998 0.41627 0.0
C2006 C 0.75558 0.94836 0.4025 0.0
H2007 H 0.76361 0.92254 0.42717 0.0
H2008 H 0.76926 0.01137 0.29567 0.0
H2009 H 0.97843 0.79769 0.37947 0.0
H2010 H 0.00927 0.81033 0.37135 0.0
H2011 H 0.99883 0.75812 0.35834 0.0
H2012 H 0.96827 0.74546 0.3671 0.0
H2013 H 0.02651 0.77253 0.37513 0.0
H2014 H 0.00787 0.79392 0.33102 0.0
H2015 H 0.9945 0.80992 0.31838 0.0
H2016 H 0.03216 0.8582 0.34061 0.0
H2017 H 0.04566 0.84243 0.35347 0.0
H2018 H 0.10316 0.78974 0.3385 0.0
H2019 H 0.0729 0.78391 0.34073 0.0
H2020 H 0.09208 0.83645 0.35895 0.0
H2021 H 0.12267 0.84254 0.35622 0.0
H2022 H 0.06124 0.82466 0.34072 0.0
H2023 H 0.08035 0.80384 0.38401 0.0
H2024 H 0.09416 0.78827 0.39665 0.0
H2025 H 0.05532 0.73911 0.37643 0.0
H2026 H 0.04142 0.75445 0.3635 0.0
C2027 C 0.98269 0.78902 0.37457 0.0
C2028 C 0.97101 0.77061 0.37391 0.0
C2029 C 1.00032 0.79625 0.36989 0.0
C2030 C 0.00648 0.78523 0.36412 0.0
C2031 C 0.99451 0.76693 0.36281 0.0
C2032 C 0.97703 0.75968 0.36776 0.0
C2033 C 0.02558 0.79234 0.3606 0.0
C2034 C 0.03394 0.78376 0.36739 0.0
C2035 C 0.03568 0.8075 0.35108 0.0
C2036 C 0.02767 0.81698 0.34328 0.0
C2037 C 0.01323 0.80793 0.33326 0.0
C2038 C 0.00565 0.81696 0.32605 0.0
C2039 C 0.01246 0.83506 0.32871 0.0
C2040 C 0.0269 0.84418 0.33856 0.0
C2041 C 0.03454 0.83522 0.34579 0.0
C2042 C 0.10095 0.80024 0.34253 0.0
C2043 C 0.1152 0.81656 0.34723 0.0
C2044 C 0.08366 0.79688 0.34387 0.0
C2045 C 0.08019 0.80959 0.35033 0.0
C2046 C 0.09445 0.82643 0.35397 0.0
C2047 C 0.1119 0.82993 0.35238 0.0
C2048 C 0.06177 0.80437 0.35478 0.0
C2049 C 0.05367 0.8134 0.34838 0.0
C2050 C 0.05183 0.78964 0.36473 0.0
C2051 C 0.05993 0.7803 0.37273 0.0
C2052 C 0.07481 0.78972 0.38221 0.0
C2053 C 0.08265 0.78094 0.38943 0.0
C2054 C 0.07563 0.76271 0.38733 0.0
C2055 C 0.06074 0.75322 0.37804 0.0
C2056 C 0.05286 0.76195 0.37079 0.0
H2057 H 0.08173 0.75594 0.39291 0.0
H2058 H 0.00656 0.84202 0.32313 0.0
H2059 H 0.24364 0.2052 0.35116 0.0
H2060 H 0.2332 0.22611 0.34628 0.0
H2061 H 0.22461 0.22787 0.39527 0.0
H2062 H 0.23413 0.20629 0.40017 0.0
H2063 H 0.1964 0.22199 0.38002 0.0
H2064 H 0.259 0.26381 0.37374 0.0
H2065 H 0.28877 0.27587 0.36247 0.0
H2066 H 0.26836 0.27617 0.31725 0.0
H2067 H 0.23845 0.26393 0.32821 0.0
H2068 H 0.19828 0.3099 0.3692 0.0
H2069 H 0.20584 0.28764 0.37837 0.0
H2070 H 0.18191 0.25653 0.33758 0.0
H2071 H 0.17349 0.27799 0.32897 0.0
H2072 H 0.22627 0.2777 0.34904 0.0
H2073 H 0.16413 0.2308 0.35354 0.0
H2074 H 0.13394 0.21963 0.36339 0.0
H2075 H 0.15328 0.22829 0.41013 0.0
H2076 H 0.18372 0.24006 0.40045 0.0
C2077 C 0.23954 0.21003 0.36092 0.0
C2078 C 0.23957 0.20385 0.37606 0.0
C2079 C 0.23378 0.22221 0.35812 0.0
C2080 C 0.22815 0.22866 0.37041 0.0
C2081 C 0.22886 0.22308 0.38558 0.0
C2082 C 0.23448 0.21082 0.38838 0.0
C2083 C 0.22012 0.24001 0.36747 0.0
C2084 C 0.20313 0.23429 0.37341 0.0
C2085 C 0.22853 0.2558 0.35841 0.0
C2086 C 0.24646 0.26279 0.35179 0.0
C2087 C 0.26083 0.26628 0.36137 0.0
C2088 C 0.27774 0.2732 0.35504 0.0
C2089 C 0.28044 0.27675 0.33915 0.0
C2090 C 0.26625 0.27339 0.32955 0.0
C2091 C 0.24932 0.26649 0.33582 0.0
C2092 C 0.19346 0.29764 0.36286 0.0
C2093 C 0.185 0.29547 0.34854 0.0
C2094 C 0.19812 0.28514 0.3679 0.0
C2095 C 0.19444 0.27048 0.35861 0.0
C2096 C 0.18458 0.26754 0.34506 0.0
C2097 C 0.17956 0.27971 0.34027 0.0
C2098 C 0.20288 0.25968 0.36178 0.0
C2099 C 0.21979 0.26547 0.35577 0.0
C2100 C 0.19435 0.24378 0.37045 0.0
C2101 C 0.17618 0.23668 0.37628 0.0
C2102 C 0.16198 0.23064 0.36589 0.0
C2103 C 0.14482 0.22414 0.37144 0.0
C2104 C 0.1417 0.22335 0.38738 0.0
C2105 C 0.15574 0.22901 0.39779 0.0
C2106 C 0.17294 0.23564 0.39228 0.0
H2107 H 0.1284 0.21827 0.39167 0.0
H2108 H 0.29355 0.28213 0.33428 0.0
H2109 H 0.64683 0.53299 0.72814 0.0
H2110 H 0.67819 0.55319 0.72345 0.0
H2111 H 0.66649 0.56441 0.67755 0.0
H2112 H 0.63501 0.54403 0.68214 0.0
H2113 H 0.69383 0.55959 0.67622 0.0
H2114 H 0.67858 0.59491 0.70809 0.0
H2115 H 0.66672 0.60253 0.73083 0.0
H2116 H 0.70255 0.59592 0.76049 0.0
H2117 H 0.71447 0.58806 0.73795 0.0
H2118 H 0.77966 0.63672 0.66421 0.0
H2119 H 0.74851 0.61355 0.66612 0.0
H2120 H 0.75697 0.60249 0.71327 0.0
H2121 H 0.7877 0.62632 0.71159 0.0
H2122 H 0.73089 0.60739 0.71297 0.0
H2123 H 0.74648 0.57222 0.68082 0.0
H2124 H 0.75912 0.56605 0.65779 0.0
H2125 H 0.72345 0.57328 0.62845 0.0
H2126 H 0.71073 0.57968 0.6513 0.0
C2127 C 0.65086 0.53995 0.71713 0.0
C2128 C 0.63833 0.53691 0.70555 0.0
C2129 C 0.66886 0.55151 0.71444 0.0
C2130 C 0.67478 0.56053 0.70019 0.0
C2131 C 0.6623 0.5576 0.68862 0.0
C2132 C 0.64429 0.54594 0.69127 0.0
C2133 C 0.694 0.57275 0.69731 0.0
C2134 C 0.70191 0.57018 0.68417 0.0
C2135 C 0.70469 0.58638 0.70778 0.0
C2136 C 0.69726 0.59071 0.72137 0.0
C2137 C 0.68379 0.5949 0.71949 0.0
C2138 C 0.67709 0.59931 0.73233 0.0
C2139 C 0.68384 0.59965 0.7471 0.0
C2140 C 0.69731 0.59561 0.74905 0.0
C2141 C 0.70405 0.59119 0.73625 0.0
C2142 C 0.7749 0.62895 0.6748 0.0
C2143 C 0.78598 0.63319 0.68774 0.0
C2144 C 0.7571 0.61567 0.6759 0.0
C2145 C 0.75027 0.60615 0.68985 0.0
C2146 C 0.76179 0.60968 0.70241 0.0
C2147 C 0.77938 0.62321 0.70143 0.0
C2148 C 0.73091 0.59402 0.69208 0.0
C2149 C 0.7229 0.59671 0.70506 0.0
C2150 C 0.72021 0.58054 0.68147 0.0
C2151 C 0.72776 0.57657 0.66775 0.0
C2152 C 0.74141 0.5726 0.66945 0.0
C2153 C 0.74858 0.56904 0.65643 0.0
C2154 C 0.74213 0.56931 0.64166 0.0
C2155 C 0.72845 0.57309 0.63989 0.0
C2156 C 0.72124 0.57665 0.65287 0.0
H2157 H 0.7477 0.56657 0.6316 0.0
H2158 H 0.67866 0.6031 0.75703 0.0
H2159 H 0.45292 0.08054 0.71374 0.0
H2160 H 0.43328 0.09255 0.7083 0.0
H2161 H 0.47796 0.14191 0.69293 0.0
H2162 H 0.49755 0.13016 0.69856 0.0
H2163 H 0.4568 0.14819 0.71071 0.0
H2164 H 0.44886 0.11008 0.66698 0.0
H2165 H 0.44061 0.08231 0.6531 0.0
H2166 H 0.38857 0.05805 0.67283 0.0
H2167 H 0.39658 0.08556 0.68699 0.0
H2168 H 0.39389 0.17329 0.6744 0.0
H2169 H 0.41965 0.16868 0.67641 0.0
H2170 H 0.38756 0.11964 0.7013 0.0
H2171 H 0.36254 0.12368 0.69931 0.0
H2172 H 0.40574 0.11704 0.67544 0.0
H2173 H 0.41227 0.15433 0.71877 0.0
H2174 H 0.41859 0.18222 0.731 0.0
H2175 H 0.47216 0.20718 0.71489 0.0
H2176 H 0.46571 0.17986 0.70117 0.0
C2177 C 0.45853 0.09398 0.70929 0.0
C2178 C 0.47677 0.10432 0.70641 0.0
C2179 C 0.44729 0.10079 0.70607 0.0
C2180 C 0.45411 0.11809 0.69998 0.0
C2181 C 0.47236 0.12852 0.69752 0.0
C2182 C 0.48353 0.12172 0.70063 0.0
C2183 C 0.44237 0.12542 0.69611 0.0
C2184 C 0.44576 0.14152 0.70282 0.0
C2185 C 0.42784 0.11664 0.68598 0.0
C2186 C 0.42341 0.09981 0.67817 0.0
C2187 C 0.43575 0.09873 0.66853 0.0
C2188 C 0.43109 0.08306 0.66057 0.0
C2189 C 0.41409 0.06841 0.66211 0.0
C2190 C 0.40174 0.06938 0.67167 0.0
C2191 C 0.40634 0.085 0.67967 0.0
C2192 C 0.39241 0.16154 0.68021 0.0
C2193 C 0.37599 0.14889 0.6866 0.0
C2194 C 0.40712 0.15898 0.68144 0.0
C2195 C 0.40545 0.14379 0.68904 0.0
C2196 C 0.38916 0.13138 0.69533 0.0
C2197 C 0.37475 0.13383 0.69412 0.0
C2198 C 0.41989 0.13958 0.69025 0.0
C2199 C 0.41701 0.12395 0.68308 0.0
C2200 C 0.43456 0.14862 0.70024 0.0
C2201 C 0.43832 0.16509 0.70848 0.0
C2202 C 0.42526 0.16586 0.71737 0.0
C2203 C 0.4289 0.18159 0.72468 0.0
C2204 C 0.44579 0.19646 0.72384 0.0
C2205 C 0.45904 0.19568 0.71549 0.0
C2206 C 0.45533 0.18012 0.70777 0.0
H2207 H 0.44861 0.20857 0.72967 0.0
H2208 H 0.41049 0.05633 0.65587 0.0
H2209 H 0.88623 0.3621 0.72937 0.0
H2210 H 0.87389 0.33102 0.72177 0.0
H2211 H 0.90918 0.34762 0.68249 0.0
H2212 H 0.9217 0.37888 0.69025 0.0
H2213 H 0.87375 0.31956 0.67602 0.0
H2214 H 0.92092 0.33345 0.71147 0.0
H2215 H 0.93785 0.34526 0.73557 0.0
H2216 H 0.89298 0.30793 0.76233 0.0
H2217 H 0.87571 0.29605 0.73836 0.0
H2218 H 0.88329 0.2487 0.65743 0.0
H2219 H 0.8867 0.27605 0.66661 0.0
H2220 H 0.85186 0.24875 0.70503 0.0
H2221 H 0.84829 0.2202 0.69577 0.0
H2222 H 0.88252 0.28066 0.71313 0.0
H2223 H 0.8367 0.26442 0.67529 0.0
H2224 H 0.8224 0.25289 0.65005 0.0
H2225 H 0.86725 0.29496 0.62656 0.0
H2226 H 0.88184 0.3067 0.65165 0.0
C2227 C 0.89111 0.35907 0.71898 0.0
C2228 C 0.90478 0.37272 0.71032 0.0
C2229 C 0.88413 0.34137 0.71468 0.0
C2230 C 0.89068 0.33702 0.70164 0.0
C2231 C 0.9039 0.35072 0.69258 0.0
C2232 C 0.91104 0.3685 0.69698 0.0
C2233 C 0.88441 0.3181 0.69811 0.0
C2234 C 0.87567 0.31105 0.68411 0.0
C2235 C 0.88666 0.30693 0.70877 0.0
C2236 C 0.89698 0.31401 0.72317 0.0
C2237 C 0.91462 0.32787 0.72251 0.0
C2238 C 0.92429 0.33455 0.73614 0.0
C2239 C 0.91648 0.32738 0.75048 0.0
C2240 C 0.899 0.31348 0.75122 0.0
C2241 C 0.88927 0.30676 0.73762 0.0
C2242 C 0.87618 0.24811 0.66788 0.0
C2243 C 0.86531 0.23194 0.67578 0.0
C2244 C 0.8781 0.264 0.67303 0.0
C2245 C 0.86914 0.26447 0.68621 0.0
C2246 C 0.85864 0.24859 0.6946 0.0
C2247 C 0.85661 0.23232 0.68934 0.0
C2248 C 0.87175 0.28199 0.69106 0.0
C2249 C 0.88005 0.28896 0.70524 0.0
C2250 C 0.86928 0.29314 0.68045 0.0
C2251 C 0.86034 0.28643 0.66535 0.0
C2252 C 0.8435 0.2712 0.66473 0.0
C2253 C 0.83535 0.26463 0.65046 0.0
C2254 C 0.84391 0.27319 0.63671 0.0
C2255 C 0.86061 0.28838 0.63722 0.0
C2256 C 0.8688 0.29504 0.65147 0.0
H2257 H 0.8376 0.26805 0.62567 0.0
H2258 H 0.92399 0.33256 0.76102 0.0
H2259 H 0.18846 0.97164 0.6524 0.0
H2260 H 0.20633 1.00231 0.66082 0.0
H2261 H 0.25372 1.0015 0.64866 0.0
H2262 H 0.23603 0.9704 0.64141 0.0
H2263 H 0.26117 0.02293 0.67143 0.0
H2264 H 0.23175 0.01604 0.62301 0.0
H2265 H 0.2064 0.00494 0.60521 0.0
H2266 H 0.18408 0.03004 0.63241 0.0
H2267 H 0.20915 0.041 0.65053 0.0
H2268 H 0.31555 0.11529 0.65749 0.0
H2269 H 0.29675 0.08421 0.65011 0.0
H2270 H 0.25247 0.0833 0.67279 0.0
H2271 H 0.27137 0.11417 0.68054 0.0
H2272 H 0.24387 0.06297 0.64524 0.0
H2273 H 0.27645 0.07186 0.69265 0.0
H2274 H 0.30267 0.08253 0.70931 0.0
H2275 H 0.32101 0.05383 0.68209 0.0
H2276 H 0.29509 0.04331 0.66504 0.0
C2277 C 0.20268 0.97773 0.65195 0.0
C2278 C 0.21071 0.96857 0.64574 0.0
C2279 C 0.21293 0.99543 0.6566 0.0
C2280 C 0.23139 0.00454 0.65478 0.0
C2281 C 0.2395 0.99497 0.64991 0.0
C2282 C 0.2293 0.97718 0.64555 0.0
C2283 C 0.24206 0.02425 0.65656 0.0
C2284 C 0.25748 0.03167 0.66556 0.0
C2285 C 0.23729 0.0358 0.64901 0.0
C2286 C 0.22221 0.02918 0.63818 0.0
C2287 C 0.22136 0.01907 0.62525 0.0
C2288 C 0.20705 0.01281 0.61511 0.0
C2289 C 0.19362 0.01675 0.6177 0.0
C2290 C 0.19447 0.02696 0.63043 0.0
C2291 C 0.20872 0.03319 0.64065 0.0
C2292 C 0.30154 0.10884 0.66 0.0
C2293 C 0.29493 0.1172 0.66957 0.0
C2294 C 0.29092 0.09089 0.65617 0.0
C2295 C 0.27338 0.08128 0.66139 0.0
C2296 C 0.26605 0.09039 0.66884 0.0
C2297 C 0.27676 0.10823 0.6729 0.0
C2298 C 0.26296 0.06162 0.66001 0.0
C2299 C 0.24757 0.05421 0.65109 0.0
C2300 C 0.26802 0.05019 0.66739 0.0
C2301 C 0.28393 0.05703 0.67738 0.0
C2302 C 0.2862 0.06806 0.69004 0.0
C2303 C 0.30099 0.07403 0.6996 0.0
C2304 C 0.31354 0.06892 0.69672 0.0
C2305 C 0.31132 0.05784 0.68427 0.0
C2306 C 0.29659 0.05189 0.67464 0.0
H2307 H 0.32494 0.0735 0.70417 0.0
H2308 H 0.18256 0.01193 0.60981 0.0
H2309 H 0.04646 0.26373 0.66533 0.0
H2310 H 0.01475 0.25174 0.66981 0.0
H2311 H 1.00304 0.20932 0.63785 0.0
H2312 H 0.03461 0.22195 0.63275 0.0
H2313 H 0.98054 0.21944 0.63354 0.0
H2314 H 1.00317 0.20622 0.68073 0.0
H2315 H 0.02198 0.21418 0.704 0.0
H2316 H 1.00085 0.24647 0.71991 0.0
H2317 H 0.98208 0.23885 0.69665 0.0
H2318 H 0.89152 0.16218 0.65072 0.0
H2319 H 0.92338 0.17363 0.64897 0.0
H2320 H 0.93216 0.21237 0.68398 0.0
H2321 H 0.90031 0.19989 0.68656 0.0
H2322 H 0.9564 0.20582 0.68697 0.0
H2323 H 0.93378 0.21995 0.64186 0.0
H2324 H 0.91494 0.21413 0.61884 0.0
H2325 H 0.93619 0.1837 0.59884 0.0
H2326 H 0.95495 0.18912 0.62184 0.0
C2327 C 0.03702 0.25194 0.6592 0.0
C2328 C 0.04288 0.24374 0.64869 0.0
C2329 C 0.01891 0.24498 0.66185 0.0
C2330 C 0.00635 0.22932 0.65445 0.0
C2331 C 0.01233 0.22137 0.64375 0.0
C2332 C 0.03038 0.22856 0.64083 0.0
C2333 C 0.98701 0.221 0.65777 0.0
C2334 C 0.97527 0.21626 0.64524 0.0
C2335 C 0.98 0.21747 0.67302 0.0
C2336 C 0.99135 0.22207 0.68692 0.0
C2337 C 1.00263 0.21509 0.68915 0.0
C2338 C 0.01327 0.21954 0.70234 0.0
C2339 C 0.01263 0.23085 0.71341 0.0
C2340 C 1.00135 0.23773 0.71133 0.0
C2341 C 0.99071 0.23334 0.69815 0.0
C2342 C 0.90027 0.17254 0.65856 0.0
C2343 C 0.89348 0.17989 0.66902 0.0
C2344 C 0.91853 0.17942 0.6573 0.0
C2345 C 0.93039 0.1944 0.6659 0.0
C2346 C 0.92346 0.20092 0.67711 0.0
C2347 C 0.90519 0.19364 0.67873 0.0
C2348 C 0.94985 0.20384 0.66272 0.0
C2349 C 0.96161 0.20893 0.67526 0.0
C2350 C 0.95691 0.20806 0.64748 0.0
C2351 C 0.94564 0.2048 0.63363 0.0
C2352 C 0.93434 0.21193 0.63259 0.0
C2353 C 0.92369 0.2087 0.61954 0.0
C2354 C 0.92434 0.19852 0.6074 0.0
C2355 C 0.93567 0.19156 0.60826 0.0
C2356 C 0.94632 0.19471 0.6213 0.0
H2357 H 0.91608 0.19604 0.59731 0.0
H2358 H 0.02086 0.23425 0.72363 0.0
H2359 H 0.74375 0.78356 0.6583 0.0
H2360 H 0.75552 0.76334 0.66268 0.0
H2361 H 0.80819 0.80652 0.65373 0.0
H2362 H 0.79658 0.82673 0.64979 0.0
H2363 H 0.79676 0.7744 0.6358 0.0
H2364 H 0.79876 0.79357 0.68861 0.0
H2365 H 0.78621 0.79747 0.71281 0.0
H2366 H 0.75167 0.74107 0.71646 0.0
H2367 H 0.76379 0.73685 0.69212 0.0
H2368 H 0.84852 0.73679 0.67423 0.0
H2369 H 0.83775 0.7567 0.66554 0.0
H2370 H 0.78572 0.71156 0.65954 0.0
H2371 H 0.79665 0.69172 0.66731 0.0
H2372 H 0.79643 0.74423 0.6849 0.0
H2373 H 0.7875 0.72361 0.63332 0.0
H2374 H 0.79165 0.7166 0.60669 0.0
H2375 H 0.83155 0.77098 0.59896 0.0
H2376 H 0.82802 0.7782 0.62585 0.0
C2377 C 0.75783 0.78868 0.65736 0.0
C2378 C 0.76929 0.80667 0.6537 0.0
C2379 C 0.76454 0.77719 0.65996 0.0
C2380 C 0.78275 0.78348 0.65864 0.0
C2381 C 0.79413 0.80143 0.65492 0.0
C2382 C 0.7875 0.81294 0.65265 0.0
C2383 C 0.78995 0.77123 0.65997 0.0
C2384 C 0.79698 0.76805 0.64661 0.0
C2385 C 0.78948 0.76232 0.67392 0.0
C2386 C 0.78203 0.76492 0.68843 0.0
C2387 C 0.78833 0.78202 0.69446 0.0
C2388 C 0.78133 0.78428 0.70823 0.0
C2389 C 0.76811 0.76953 0.71614 0.0
C2390 C 0.76188 0.75248 0.7103 0.0
C2391 C 0.76881 0.75015 0.69652 0.0
C2392 C 0.83515 0.73109 0.66993 0.0
C2393 C 0.82358 0.71267 0.67094 0.0
C2394 C 0.8289 0.74247 0.66525 0.0
C2395 C 0.81093 0.7356 0.66183 0.0
C2396 C 0.79968 0.71715 0.66181 0.0
C2397 C 0.80602 0.70579 0.66605 0.0
C2398 C 0.80343 0.7476 0.66071 0.0
C2399 C 0.79641 0.75077 0.67414 0.0
C2400 C 0.80332 0.75605 0.64672 0.0
C2401 C 0.80782 0.75133 0.63171 0.0
C2402 C 0.79768 0.73392 0.62619 0.0
C2403 C 0.79977 0.72995 0.61099 0.0
C2404 C 0.81179 0.74333 0.60115 0.0
C2405 C 0.82224 0.76062 0.60663 0.0
C2406 C 0.82029 0.76464 0.62188 0.0
H2407 H 0.81267 0.74028 0.58921 0.0
H2408 H 0.76274 0.77131 0.72682 0.0
H2409 H 0.03507 0.8261 0.64022 0.0
H2410 H 1.00408 0.80536 0.64666 0.0
H2411 H 0.0176 0.76556 0.65958 0.0
H2412 H 0.04868 0.78637 0.65288 0.0
H2413 H 0.98736 0.75115 0.64311 0.0
H2414 H 0.00974 0.78813 0.68755 0.0
H2415 H 0.02529 0.81636 0.70173 0.0
H2416 H 0.98838 0.83129 0.68454 0.0
H2417 H 0.97272 0.8032 0.67012 0.0
H2418 H 0.90934 0.6938 0.682 0.0
H2419 H 0.94037 0.71658 0.67918 0.0
H2420 H 0.92492 0.75294 0.66044 0.0
H2421 H 0.89359 0.72996 0.66336 0.0
H2422 H 0.95599 0.76909 0.6803 0.0
H2423 H 0.93371 0.73126 0.63573 0.0
H2424 H 0.91819 0.70239 0.6225 0.0
H2425 H 0.95535 0.68847 0.64098 0.0
H2426 H 0.97094 0.71718 0.6545 0.0
C2427 C 0.03133 0.81287 0.64434 0.0
C2428 C 0.04409 0.80773 0.64607 0.0
C2429 C 0.01369 0.80108 0.64811 0.0
C2430 C 0.00852 0.78397 0.65383 0.0
C2431 C 0.02127 0.77869 0.65523 0.0
C2432 C 0.03897 0.79053 0.65143 0.0
C2433 C 0.98982 0.77172 0.65838 0.0
C2434 C 0.9806 0.75501 0.65139 0.0
C2435 C 0.98083 0.7768 0.669 0.0
C2436 C 0.99016 0.79366 0.67767 0.0
C2437 C 0.00502 0.7975 0.68672 0.0
C2438 C 0.01383 0.81345 0.69481 0.0
C2439 C 0.00785 0.82563 0.69401 0.0
C2440 C 0.99301 0.82185 0.68514 0.0
C2441 C 0.98414 0.8059 0.67703 0.0
C2442 C 0.91258 0.70689 0.67783 0.0
C2443 C 0.89916 0.71026 0.67306 0.0
C2444 C 0.93028 0.71982 0.67609 0.0
C2445 C 0.93494 0.73633 0.66938 0.0
C2446 C 0.92157 0.74026 0.66566 0.0
C2447 C 0.90372 0.72723 0.66744 0.0
C2448 C 0.95361 0.74865 0.66497 0.0
C2449 C 0.96279 0.76531 0.672 0.0
C2450 C 0.96261 0.74347 0.65447 0.0
C2451 C 0.9534 0.72629 0.64622 0.0
C2452 C 0.93849 0.72199 0.63705 0.0
C2453 C 0.9297 0.70567 0.62949 0.0
C2454 C 0.93576 0.69359 0.63092 0.0
C2455 C 0.95066 0.69784 0.63989 0.0
C2456 C 0.95949 0.71413 0.64749 0.0
H2457 H 0.92894 0.68096 0.62506 0.0
H2458 H 0.01469 0.83798 0.70029 0.0
H2459 H 0.18465 0.21535 0.64802 0.0
H2460 H 0.20247 0.20208 0.65592 0.0
H2461 H 0.24797 0.2544 0.6605 0.0
H2462 H 0.2303 0.26765 0.65247 0.0
H2463 H 0.25627 0.23515 0.64364 0.0
H2464 H 0.22627 0.22566 0.69268 0.0
H2465 H 0.20049 0.2145 0.71009 0.0
H2466 H 0.18261 0.16118 0.69515 0.0
H2467 H 0.20823 0.17206 0.67757 0.0
H2468 H 0.31893 0.22273 0.6813 0.0
H2469 H 0.29451 0.22845 0.67814 0.0
H2470 H 0.26014 0.17386 0.66544 0.0
H2471 H 0.28482 0.16797 0.66869 0.0
H2472 H 0.24377 0.19018 0.68482 0.0
H2473 H 0.27523 0.20007 0.63693 0.0
H2474 H 0.30171 0.21169 0.62035 0.0
H2475 H 0.317 0.26496 0.63363 0.0
H2476 H 0.2907 0.25362 0.65043 0.0
C2477 C 0.19836 0.22403 0.65104 0.0
C2478 C 0.20608 0.24258 0.64945 0.0
C2479 C 0.20857 0.21641 0.65556 0.0
C2480 C 0.22666 0.22719 0.65879 0.0
C2481 C 0.23411 0.24574 0.65794 0.0
C2482 C 0.22398 0.25332 0.65333 0.0
C2483 C 0.23825 0.21941 0.66184 0.0
C2484 C 0.25354 0.22545 0.65277 0.0
C2485 C 0.23451 0.2062 0.67332 0.0
C2486 C 0.21904 0.19968 0.68372 0.0
C2487 C 0.21675 0.21157 0.69302 0.0
C2488 C 0.2022 0.2053 0.70294 0.0
C2489 C 0.1899 0.18715 0.7037 0.0
C2490 C 0.19214 0.17523 0.69455 0.0
C2491 C 0.20668 0.18144 0.68462 0.0
C2492 C 0.30607 0.21179 0.67821 0.0
C2493 C 0.30381 0.1949 0.67524 0.0
C2494 C 0.29213 0.2151 0.67636 0.0
C2495 C 0.27555 0.20167 0.67134 0.0
C2496 C 0.27283 0.18442 0.66934 0.0
C2497 C 0.28689 0.18105 0.67128 0.0
C2498 C 0.26192 0.20641 0.66694 0.0
C2499 C 0.24631 0.19976 0.67563 0.0
C2500 C 0.26531 0.21912 0.65512 0.0
C2501 C 0.28109 0.22599 0.64501 0.0
C2502 C 0.28431 0.21425 0.63639 0.0
C2503 C 0.29927 0.22079 0.62694 0.0
C2504 C 0.31104 0.23905 0.62596 0.0
C2505 C 0.30787 0.25082 0.6344 0.0
C2506 C 0.29293 0.24435 0.64387 0.0
H2507 H 0.32262 0.24409 0.61863 0.0
H2508 H 0.17865 0.18231 0.7114 0.0
H2509 H 0.76565 0.98049 0.62355 0.0
H2510 H 0.78064 0.01171 0.63064 0.0
H2511 H 0.78909 0.9981 0.67679 0.0
H2512 H 0.77373 0.96646 0.66975 0.0
H2513 H 0.77862 0.02404 0.67647 0.0
H2514 H 0.82339 0.01582 0.65273 0.0
H2515 H 0.83614 0.00551 0.63266 0.0
H2516 H 0.82907 0.03769 0.59856 0.0
H2517 H 0.81614 0.04807 0.61843 0.0
H2518 H 0.84262 0.11188 0.69521 0.0
H2519 H 0.83363 0.08161 0.68738 0.0
H2520 H 0.8121 0.0895 0.64509 0.0
H2521 H 0.8205 0.1197 0.65322 0.0
H2522 H 0.83021 0.06636 0.64474 0.0
H2523 H 0.78458 0.07388 0.66846 0.0
H2524 H 0.77152 0.08392 0.68844 0.0
H2525 H 0.77958 0.05263 0.72275 0.0
H2526 H 0.79309 0.04272 0.70302 0.0
C2527 C 0.77047 0.98403 0.63529 0.0
C2528 C 0.7684 0.9709 0.64609 0.0
C2529 C 0.7792 1.00196 0.63929 0.0
C2530 C 0.78618 0.00734 0.6542 0.0
C2531 C 0.78386 0.99429 0.66519 0.0
C2532 C 0.77519 0.97624 0.66113 0.0
C2533 C 0.79621 0.02666 0.65793 0.0
C2534 C 0.79008 0.03324 0.66972 0.0
C2535 C 0.81097 0.03879 0.64896 0.0
C2536 C 0.81873 0.03262 0.63702 0.0
C2537 C 0.82447 0.0206 0.64093 0.0
C2538 C 0.83175 0.01477 0.6296 0.0
C2539 C 0.83339 0.02092 0.61434 0.0
C2540 C 0.82779 0.03294 0.61039 0.0
C2541 C 0.82053 0.03883 0.62168 0.0
C2542 C 0.83699 0.10759 0.68378 0.0
C2543 C 0.83229 0.11819 0.67483 0.0
C2544 C 0.83149 0.09011 0.67949 0.0
C2545 C 0.82178 0.08318 0.66588 0.0
C2546 C 0.81945 0.09459 0.65574 0.0
C2547 C 0.82464 0.11202 0.66021 0.0
C2548 C 0.81255 0.06372 0.66315 0.0
C2549 C 0.81883 0.05713 0.65157 0.0
C2550 C 0.79795 0.05162 0.67235 0.0
C2551 C 0.79017 0.05783 0.68431 0.0
C2552 C 0.78386 0.06939 0.68032 0.0
C2553 C 0.7763 0.07499 0.69158 0.0
C2554 C 0.77479 0.06898 0.70687 0.0
C2555 C 0.78082 0.05733 0.71092 0.0
C2556 C 0.78845 0.05173 0.6997 0.0
H2557 H 0.76888 0.07329 0.71557 0.0
H2558 H 0.83903 0.01639 0.60558 0.0
H2559 H 0.49597 0.366 0.70871 0.0
H2560 H 0.47755 0.33457 0.70224 0.0
H2561 H 0.4333 0.34259 0.69426 0.0
H2562 H 0.4516 0.37389 0.70094 0.0
H2563 H 0.42406 0.31674 0.71355 0.0
H2564 H 0.45342 0.33116 0.66467 0.0
H2565 H 0.47856 0.3435 0.64646 0.0
H2566 H 0.49587 0.30902 0.66557 0.0
H2567 H 0.47096 0.29663 0.68403 0.0
H2568 H 0.36286 0.22899 0.69084 0.0
H2569 H 0.38208 0.25995 0.69571 0.0
H2570 H 0.42728 0.2524 0.69371 0.0
H2571 H 0.40778 0.22182 0.68535 0.0
H2572 H 0.43644 0.27891 0.67922 0.0
H2573 H 0.40553 0.26542 0.72954 0.0
H2574 H 0.37826 0.25275 0.74524 0.0
H2575 H 0.36261 0.28633 0.72158 0.0
H2576 H 0.38963 0.29902 0.70565 0.0
C2577 C 0.48245 0.36116 0.70517 0.0
C2578 C 0.47519 0.3724 0.70555 0.0
C2579 C 0.47189 0.34314 0.70145 0.0
C2580 C 0.45393 0.33606 0.69784 0.0
C2581 C 0.44704 0.34761 0.69717 0.0
C2582 C 0.45752 0.36553 0.70099 0.0
C2583 C 0.44184 0.31646 0.69653 0.0
C2584 C 0.42673 0.30847 0.70594 0.0
C2585 C 0.44535 0.30554 0.68684 0.0
C2586 C 0.46043 0.31311 0.67585 0.0
C2587 C 0.46269 0.32633 0.66509 0.0
C2588 C 0.47687 0.33331 0.6547 0.0
C2589 C 0.48883 0.32709 0.65489 0.0
C2590 C 0.48661 0.31385 0.66545 0.0
C2591 C 0.47246 0.30684 0.67587 0.0
C2592 C 0.37681 0.23362 0.6923 0.0
C2593 C 0.38371 0.22278 0.68784 0.0
C2594 C 0.38803 0.25167 0.69513 0.0
C2595 C 0.40648 0.25904 0.69555 0.0
C2596 C 0.4132 0.24743 0.69333 0.0
C2597 C 0.40199 0.22964 0.68911 0.0
C2598 C 0.41873 0.27885 0.69667 0.0
C2599 C 0.43387 0.28699 0.6871 0.0
C2600 C 0.4152 0.29002 0.70617 0.0
C2601 C 0.39956 0.2831 0.71642 0.0
C2602 C 0.3963 0.27013 0.72777 0.0
C2603 C 0.38086 0.26292 0.73666 0.0
C2604 C 0.36871 0.26872 0.7344 0.0
C2605 C 0.37202 0.28185 0.72333 0.0
C2606 C 0.38741 0.28909 0.7144 0.0
H2607 H 0.35673 0.26305 0.74124 0.0
H2608 H 0.4998 0.3325 0.64683 0.0
H2609 H 0.63114 0.09405 0.68697 0.0
H2610 H 0.66168 0.10784 0.67722 0.0
H2611 H 0.68118 0.12648 0.72321 0.0
H2612 H 0.65095 0.11287 0.73287 0.0
H2613 H 0.69904 0.15196 0.70277 0.0
H2614 H 0.68096 0.09095 0.70855 0.0
H2615 H 0.66334 0.05859 0.70491 0.0
H2616 H 0.67575 0.06536 0.65634 0.0
H2617 H 0.6931 0.09784 0.65962 0.0
H2618 H 0.78759 0.16933 0.69894 0.0
H2619 H 0.75715 0.16144 0.70376 0.0
H2620 H 0.74314 0.14053 0.65748 0.0
H2621 H 0.77357 0.14721 0.65321 0.0
H2622 H 0.72179 0.11712 0.67623 0.0
H2623 H 0.74252 0.18051 0.67314 0.0
H2624 H 0.76229 0.21177 0.68035 0.0
H2625 H 0.74671 0.19889 0.728 0.0
H2626 H 0.72704 0.16755 0.72111 0.0
C2627 C 0.64199 0.10121 0.69492 0.0
C2628 C 0.63867 0.10229 0.7107 0.0
C2629 C 0.65941 0.10898 0.68938 0.0
C2630 C 0.67378 0.11812 0.6995 0.0
C2631 C 0.67039 0.11952 0.71516 0.0
C2632 C 0.65308 0.11164 0.7207 0.0
C2633 C 0.69242 0.12628 0.69399 0.0
C2634 C 0.70401 0.14433 0.69695 0.0
C2635 C 0.69898 0.11638 0.68638 0.0
C2636 C 0.68806 0.09689 0.68428 0.0
C2637 C 0.67968 0.08559 0.69704 0.0
C2638 C 0.66979 0.06721 0.69505 0.0
C2639 C 0.66835 0.05993 0.68039 0.0
C2640 C 0.6768 0.07102 0.66768 0.0
C2641 C 0.68664 0.08943 0.66959 0.0
C2642 C 0.77822 0.16397 0.68949 0.0
C2643 C 0.78308 0.15944 0.6755 0.0
C2644 C 0.76067 0.15931 0.69229 0.0
C2645 C 0.74764 0.15054 0.68093 0.0
C2646 C 0.75284 0.14731 0.66645 0.0
C2647 C 0.77034 0.1515 0.66384 0.0
C2648 C 0.72847 0.14297 0.68474 0.0
C2649 C 0.71676 0.12492 0.68163 0.0
C2650 C 0.7219 0.15275 0.69258 0.0
C2651 C 0.73335 0.1717 0.6966 0.0
C2652 C 0.74334 0.18436 0.68515 0.0
C2653 C 0.75454 0.20208 0.68919 0.0
C2654 C 0.75576 0.20731 0.70462 0.0
C2655 C 0.74574 0.19484 0.71605 0.0
C2656 C 0.73454 0.1771 0.71208 0.0
H2657 H 0.76446 0.22103 0.70772 0.0
H2658 H 0.66075 0.04569 0.67889 0.0
H2659 H 0.88142 0.51772 0.69283 0.0
H2660 H 0.87194 0.5394 0.68847 0.0
H2661 H 0.91571 0.57773 0.71564 0.0
H2662 H 0.92532 0.55598 0.72009 0.0
H2663 H 0.88674 0.57697 0.72451 0.0
H2664 H 0.91411 0.58253 0.67577 0.0
H2665 H 0.92127 0.57338 0.65114 0.0
H2666 H 0.86727 0.55031 0.63671 0.0
H2667 H 0.85972 0.55913 0.66134 0.0
H2668 H 0.87314 0.64854 0.6996 0.0
H2669 H 0.8826 0.62779 0.70813 0.0
H2670 H 0.83915 0.58565 0.68337 0.0
H2671 H 0.83008 0.60664 0.67448 0.0
H2672 H 0.87017 0.59035 0.67326 0.0
H2673 H 0.84336 0.58432 0.72359 0.0
H2674 H 0.83813 0.59732 0.74686 0.0
H2675 H 0.89356 0.62438 0.75713 0.0
H2676 H 0.89914 0.61168 0.73379 0.0
C2677 C 0.88926 0.53086 0.69765 0.0
C2678 C 0.90413 0.53507 0.70684 0.0
C2679 C 0.88381 0.54328 0.69513 0.0
C2680 C 0.89316 0.56029 0.70162 0.0
C2681 C 0.90823 0.56468 0.71056 0.0
C2682 C 0.91367 0.55221 0.71313 0.0
C2683 C 0.88649 0.57296 0.69986 0.0
C2684 C 0.88335 0.58006 0.71326 0.0
C2685 C 0.88189 0.57695 0.68522 0.0
C2686 C 0.88631 0.57134 0.67049 0.0
C2687 C 0.90372 0.57535 0.66742 0.0
C2688 C 0.90786 0.57026 0.65344 0.0
C2689 C 0.89473 0.56122 0.64239 0.0
C2690 C 0.87743 0.55728 0.64529 0.0
C2691 C 0.87321 0.56234 0.65926 0.0
C2692 C 0.86487 0.63458 0.69692 0.0
C2693 C 0.85078 0.62914 0.6865 0.0
C2694 C 0.8705 0.62275 0.70155 0.0
C2695 C 0.86175 0.60518 0.69618 0.0
C2696 C 0.84622 0.59919 0.68752 0.0
C2697 C 0.84073 0.61107 0.6828 0.0
C2698 C 0.86989 0.59376 0.69793 0.0
C2699 C 0.87347 0.58711 0.68449 0.0
C2700 C 0.87509 0.59036 0.71246 0.0
C2701 C 0.87166 0.5971 0.72696 0.0
C2702 C 0.85442 0.59302 0.73084 0.0
C2703 C 0.8514 0.60036 0.74401 0.0
C2704 C 0.86551 0.61168 0.75346 0.0
C2705 C 0.88265 0.61559 0.74981 0.0
C2706 C 0.88574 0.60829 0.73663 0.0
H2707 H 0.86315 0.61743 0.76361 0.0
H2708 H 0.89796 0.55732 0.63157 0.0
H2709 H 0.5104 0.99984 0.19735 0.0
H2710 H 0.51677 0.00675 0.16957 0.0
H2711 H 0.4723 0.95569 0.15818 0.0
H2712 H 0.46576 0.94893 0.1858 0.0
H2713 H 0.5026 0.96375 0.14133 0.0
H2714 H 0.46797 0.9901 0.15469 0.0
H2715 H 0.45978 0.00921 0.16919 0.0
H2716 H 0.50789 0.05541 0.15475 0.0
H2717 H 0.51658 0.03653 0.14043 0.0
H2718 H 0.49463 0.97812 0.06074 0.0
H2719 H 0.49057 0.97063 0.08839 0.0
H2720 H 0.52938 0.0247 0.09936 0.0
H2721 H 0.53278 0.03231 0.07175 0.0
H2722 H 0.50166 0.015 0.11663 0.0
H2723 H 0.53691 0.9884 0.10436 0.0
H2724 H 0.54424 0.96932 0.08877 0.0
H2725 H 0.49427 0.92384 0.10063 0.0
H2726 H 0.48659 0.94271 0.11612 0.0
C2727 C 0.5021 0.9901 0.18887 0.0
C2728 C 0.48759 0.97387 0.19365 0.0
C2729 C 0.50567 0.99407 0.17305 0.0
C2730 C 0.49494 0.98175 0.16181 0.0
C2731 C 0.48072 0.96538 0.16663 0.0
C2732 C 0.47699 0.96155 0.18239 0.0
C2733 C 0.49843 0.98584 0.14499 0.0
C2734 C 0.50228 0.97489 0.13592 0.0
C2735 C 0.49818 1.00047 0.13794 0.0
C2736 C 0.49306 0.01186 0.14667 0.0
C2737 C 0.47693 0.00431 0.15477 0.0
C2738 C 0.47218 0.01511 0.16293 0.0
C2739 C 0.48334 0.03351 0.16294 0.0
C2740 C 0.49928 0.04115 0.15477 0.0
C2741 C 0.50414 0.0304 0.14665 0.0
C2742 C 0.50286 0.98817 0.06903 0.0
C2743 C 0.51438 0.00568 0.0641 0.0
C2744 C 0.50039 0.98396 0.08488 0.0
C2745 C 0.50971 0.99708 0.09607 0.0
C2746 C 0.52197 0.01434 0.09104 0.0
C2747 C 0.52419 0.01861 0.07524 0.0
C2748 C 0.50621 0.9931 0.11298 0.0
C2749 C 0.5022 0.00398 0.12207 0.0
C2750 C 0.50632 0.97843 0.12009 0.0
C2751 C 0.51117 0.96694 0.11134 0.0
C2752 C 0.5275 0.97432 0.10363 0.0
C2753 C 0.53171 0.96356 0.09479 0.0
C2754 C 0.51975 0.94539 0.09371 0.0
C2755 C 0.50355 0.93791 0.10148 0.0
C2756 C 0.49927 0.94863 0.11032 0.0
H2757 H 0.52311 0.93715 0.08688 0.0
H2758 H 0.47962 0.04185 0.16923 0.0
H2759 H 0.06599 0.539 0.18819 0.0
H2760 H 0.05986 0.53767 0.16041 0.0
H2761 H 0.00501 0.49968 0.16932 0.0
H2762 H 0.01146 0.50027 0.19704 0.0
H2763 H 0.01446 0.48929 0.14572 0.0
H2764 H 0.02238 0.54679 0.15893 0.0
H2765 H 0.03823 0.57706 0.16961 0.0
H2766 H 0.08161 0.59071 0.13862 0.0
H2767 H 0.06606 0.56046 0.12786 0.0
H2768 H 0.97911 0.49307 0.07381 0.0
H2769 H 0.98732 0.49767 0.10111 0.0
H2770 H 0.04209 0.53002 0.08821 0.0
H2771 H 0.03383 0.52546 0.06067 0.0
H2772 H 0.03422 0.54331 0.11319 0.0
H2773 H 0.02537 0.48656 0.0987 0.0
H2774 H 0.00998 0.45623 0.08818 0.0
H2775 H 0.9685 0.44079 0.12169 0.0
H2776 H 0.98349 0.47112 0.13224 0.0
C2777 C 0.0526 0.53053 0.18418 0.0
C2778 C 0.03917 0.51986 0.19474 0.0
C2779 C 0.04906 0.52981 0.16829 0.0
C2780 C 0.03186 0.51883 0.16264 0.0
C2781 C 0.01839 0.50828 0.17328 0.0
C2782 C 0.02204 0.50869 0.18914 0.0
C2783 C 0.02797 0.51789 0.14566 0.0
C2784 C 0.01853 0.50113 0.1387 0.0
C2785 C 0.0338 0.53326 0.13621 0.0
C2786 C 0.04313 0.55137 0.14269 0.0
C2787 C 0.03534 0.55623 0.15447 0.0
C2788 C 0.04426 0.57338 0.16052 0.0
C2789 C 0.06093 0.58579 0.15482 0.0
C2790 C 0.06871 0.58108 0.14303 0.0
C2791 C 0.05984 0.56396 0.13694 0.0
C2792 C 0.99286 0.50166 0.07678 0.0
C2793 C 0.0058 0.50907 0.06508 0.0
C2794 C 0.99757 0.50403 0.09241 0.0
C2795 C 0.01537 0.51379 0.09675 0.0
C2796 C 0.02827 0.52231 0.08514 0.0
C2797 C 0.02353 0.51994 0.0694 0.0
C2798 C 0.02037 0.51477 0.1134 0.0
C2799 C 0.03009 0.53149 0.12025 0.0
C2800 C 0.01475 0.49934 0.12274 0.0
C2801 C 0.00547 0.4812 0.11615 0.0
C2802 C 0.01287 0.47677 0.10371 0.0
C2803 C 1.00424 0.45955 0.09777 0.0
C2804 C 0.98826 0.4466 0.10425 0.0
C2805 C 0.98087 0.45084 0.11667 0.0
C2806 C 0.98942 0.46804 0.12263 0.0
H2807 H 0.98163 0.43327 0.09966 0.0
H2808 H 0.06781 0.59906 0.15951 0.0
H2809 H 0.46267 0.52104 0.17961 0.0
H2810 H 0.46969 0.52045 0.15234 0.0
H2811 H 0.51699 0.51976 0.16554 0.0
H2812 H 0.51032 0.52126 0.19296 0.0
H2813 H 0.52434 0.53991 0.1418 0.0
H2814 H 0.47817 0.48154 0.15246 0.0
H2815 H 0.44934 0.45822 0.16242 0.0
H2816 H 0.42281 0.47479 0.13019 0.0
H2817 H 0.4515 0.49839 0.12017 0.0
H2818 H 0.53302 0.50892 0.06752 0.0
H2819 H 0.52884 0.51246 0.09498 0.0
H2820 H 0.48841 0.52511 0.08322 0.0
H2821 H 0.49266 0.5216 0.05558 0.0
H2822 H 0.47799 0.49772 0.10615 0.0
H2823 H 0.52683 0.55742 0.09678 0.0
H2824 H 0.55648 0.57772 0.08619 0.0
H2825 H 0.57869 0.5543 0.11616 0.0
H2826 H 0.54911 0.53372 0.1268 0.0
C2827 C 0.47459 0.52082 0.17666 0.0
C2828 C 0.48592 0.52112 0.18835 0.0
C2829 C 0.47854 0.52033 0.16107 0.0
C2830 C 0.49366 0.5196 0.15679 0.0
C2831 C 0.5052 0.52023 0.16849 0.0
C2832 C 0.50141 0.5211 0.18414 0.0
C2833 C 0.49744 0.51847 0.1401 0.0
C2834 C 0.51421 0.5305 0.13412 0.0
C2835 C 0.48432 0.50623 0.12989 0.0
C2836 C 0.467 0.49185 0.13566 0.0
C2837 C 0.46619 0.48028 0.14755 0.0
C2838 C 0.44987 0.46701 0.1532 0.0
C2839 C 0.43425 0.46506 0.14697 0.0
C2840 C 0.43492 0.47633 0.13502 0.0
C2841 C 0.45121 0.48965 0.12933 0.0
C2842 C 0.52382 0.51326 0.07076 0.0
C2843 C 0.51354 0.51551 0.0594 0.0
C2844 C 0.52125 0.51503 0.08646 0.0
C2845 C 0.50827 0.51901 0.09118 0.0
C2846 C 0.4985 0.52204 0.07983 0.0
C2847 C 0.5012 0.52044 0.06404 0.0
C2848 C 0.50465 0.51944 0.10797 0.0
C2849 C 0.48798 0.50714 0.11393 0.0
C2850 C 0.51796 0.53107 0.11824 0.0
C2851 C 0.53582 0.54407 0.11255 0.0
C2852 C 0.53807 0.55664 0.10112 0.0
C2853 C 0.55484 0.56816 0.09509 0.0
C2854 C 0.56946 0.56729 0.10049 0.0
C2855 C 0.56735 0.55497 0.112 0.0
C2856 C 0.5506 0.54341 0.11807 0.0
H2857 H 0.58243 0.57617 0.09575 0.0
H2858 H 0.42163 0.45479 0.15138 0.0
H2859 H 0.98262 0.47722 0.82758 0.0
H2860 H 0.99199 0.47863 0.8546 0.0
H2861 H 0.95825 0.49931 0.86797 0.0
H2862 H 0.94921 0.49826 0.84109 0.0
H2863 H 0.98811 0.51733 0.88171 0.0
H2864 H 0.94826 0.45481 0.87432 0.0
H2865 H 0.93708 0.4254 0.86248 0.0
H2866 H 0.9853 0.42635 0.87414 0.0
H2867 H 0.99689 0.45592 0.88581 0.0
H2868 H 0.97766 0.50104 0.96212 0.0
H2869 H 0.9713 0.49717 0.93434 0.0
H2870 H 0.01537 0.48875 0.92745 0.0
H2871 H 0.0221 0.49321 0.95532 0.0
H2872 H 0.98396 0.46549 0.91003 0.0
H2873 H 0.02203 0.52714 0.92007 0.0
H2874 H 0.03245 0.55634 0.93203 0.0
H2875 H 0.98637 0.55691 0.91561 0.0
H2876 H 0.97545 0.52751 0.90385 0.0
C2877 C 0.97713 0.48194 0.83632 0.0
C2878 C 0.96521 0.48768 0.83218 0.0
C2879 C 0.98248 0.48274 0.85178 0.0
C2880 C 0.97575 0.48897 0.86343 0.0
C2881 C 0.96376 0.49456 0.85925 0.0
C2882 C 0.95858 0.49395 0.84385 0.0
C2883 C 0.98117 0.48991 0.87997 0.0
C2884 C 0.98698 0.50591 0.88793 0.0
C2885 C 0.98033 0.47523 0.88804 0.0
C2886 C 0.97352 0.45766 0.88074 0.0
C2887 C 0.95655 0.44883 0.87419 0.0
C2888 C 0.95013 0.43212 0.86754 0.0
C2889 C 0.9605 0.42404 0.86751 0.0
C2890 C 0.97731 0.43265 0.87413 0.0
C2891 C 0.98381 0.44938 0.88075 0.0
C2892 C 0.98551 0.49759 0.95476 0.0
C2893 C 1.00002 0.49684 0.96089 0.0
C2894 C 0.98207 0.49572 0.93887 0.0
C2895 C 0.99299 0.49291 0.92881 0.0
C2896 C 0.0068 0.49094 0.93503 0.0
C2897 C 0.01047 0.49319 0.95095 0.0
C2898 C 0.99029 0.49268 0.91179 0.0
C2899 C 0.98512 0.4769 0.90376 0.0
C2900 C 0.99153 0.50752 0.90369 0.0
C2901 C 0.99779 0.52495 0.91125 0.0
C2902 C 0.01396 0.53333 0.91922 0.0
C2903 C 0.02 0.54997 0.92592 0.0
C2904 C 0.01006 0.55845 0.92463 0.0
C2905 C 0.99404 0.5503 0.91665 0.0
C2906 C 0.98791 0.53364 0.90998 0.0
H2907 H 0.01479 0.57136 0.92976 0.0
H2908 H 0.95548 0.41107 0.8624 0.0
H2909 H 0.54438 0.47865 0.83581 0.0
H2910 H 0.53784 0.47961 0.86331 0.0
H2911 H 0.50231 0.49855 0.85078 0.0
H2912 H 0.50877 0.4974 0.82319 0.0
H2913 H 0.52545 0.51817 0.87438 0.0
H2914 H 0.48588 0.45632 0.86319 0.0
H2915 H 0.4777 0.42636 0.85411 0.0
H2916 H 0.51319 0.42372 0.88708 0.0
H2917 H 0.52174 0.45377 0.89621 0.0
H2918 H 0.48505 0.51059 0.94617 0.0
H2919 H 0.49 0.5063 0.91913 0.0
H2920 H 0.5202 0.48189 0.9337 0.0
H2921 H 0.51506 0.486 0.96093 0.0
H2922 H 0.50132 0.46548 0.90925 0.0
H2923 H 0.54069 0.52583 0.92136 0.0
H2924 H 0.551 0.55625 0.93049 0.0
H2925 H 0.51896 0.56286 0.89631 0.0
H2926 H 0.50827 0.53239 0.88709 0.0
C2927 C 0.53501 0.48279 0.83898 0.0
C2928 C 0.52691 0.48777 0.82747 0.0
C2929 C 0.53128 0.48334 0.85466 0.0
C2930 C 0.51949 0.48904 0.85914 0.0
C2931 C 0.51141 0.49406 0.8476 0.0
C2932 C 0.51499 0.4933 0.83188 0.0
C2933 C 0.51592 0.49011 0.87586 0.0
C2934 C 0.51989 0.5066 0.88196 0.0
C2935 C 0.50943 0.47521 0.88594 0.0
C2936 C 0.50457 0.45733 0.88025 0.0
C2937 C 0.49207 0.44942 0.86838 0.0
C2938 C 0.48734 0.43241 0.86326 0.0
C2939 C 0.49496 0.42316 0.86998 0.0
C2940 C 0.50732 0.43091 0.88185 0.0
C2941 C 0.51211 0.44791 0.88701 0.0
C2942 C 0.49225 0.50376 0.94362 0.0
C2943 C 0.4995 0.49846 0.9557 0.0
C2944 C 0.49536 0.50162 0.92814 0.0
C2945 C 0.50593 0.49426 0.92432 0.0
C2946 C 0.51214 0.48776 0.93634 0.0
C2947 C 0.50896 0.48986 0.95191 0.0
C2948 C 0.51049 0.49349 0.90779 0.0
C2949 C 0.50683 0.47709 0.90172 0.0
C2950 C 0.51756 0.50858 0.89781 0.0
C2951 C 0.52351 0.52672 0.90366 0.0
C2952 C 0.53567 0.53368 0.91591 0.0
C2953 C 0.54163 0.55096 0.92107 0.0
C2954 C 0.5356 0.56146 0.91402 0.0
C2955 C 0.52359 0.5547 0.90179 0.0
C2956 C 0.51758 0.53743 0.89659 0.0
H2957 H 0.54027 0.57485 0.91801 0.0
H2958 H 0.49124 0.40997 0.86602 0.0
H2959 H 0.54866 0.06145 0.83553 0.0
H2960 H 0.54695 0.05572 0.86349 0.0
H2961 H 0.49561 0.00931 0.85774 0.0
H2962 H 0.49726 0.01489 0.82988 0.0
H2963 H 0.49428 0.02999 0.87912 0.0
H2964 H 0.53202 0.00652 0.86785 0.0
H2965 H 0.55816 0.00638 0.85743 0.0
H2966 H 0.59178 0.04952 0.88721 0.0
H2967 H 0.56585 0.05013 0.89764 0.0
H2968 H 0.48057 0.98782 0.95242 0.0
H2969 H 0.48597 0.99623 0.92501 0.0
H2970 H 0.5319 0.04588 0.93717 0.0
H2971 H 0.52633 0.03752 0.96475 0.0
H2972 H 0.53774 0.02578 0.9133 0.0
H2973 H 0.49889 0.04842 0.92446 0.0
H2974 H 0.47196 0.04559 0.9363 0.0
H2975 H 0.43992 1.0013 0.90695 0.0
H2976 H 0.4667 0.00371 0.89512 0.0
C2977 C 0.53718 0.0498 0.84018 0.0
C2978 C 0.52299 0.03877 0.83047 0.0
C2979 C 0.53621 0.04655 0.85619 0.0
C2980 C 0.52109 0.03214 0.86277 0.0
C2981 C 0.50733 0.02062 0.85298 0.0
C2982 C 0.50828 0.02386 0.83704 0.0
C2983 C 0.51884 0.0298 0.87988 0.0
C2984 C 0.50377 0.02893 0.88651 0.0
C2985 C 0.53136 0.02882 0.88967 0.0
C2986 C 0.547 0.02854 0.88337 0.0
C2987 C 0.545 0.01612 0.87205 0.0
C2988 C 0.55978 0.01592 0.86617 0.0
C2989 C 0.57663 0.02798 0.87161 0.0
C2990 C 0.57872 0.04022 0.88298 0.0
C2991 C 0.56399 0.0405 0.88888 0.0
C2992 C 0.49132 1.00087 0.94927 0.0
C2993 C 0.50267 0.01227 0.96069 0.0
C2994 C 0.4946 0.00553 0.93362 0.0
C2995 C 0.50942 0.02162 0.92906 0.0
C2996 C 0.52043 0.03339 0.94046 0.0
C2997 C 0.51699 0.0288 0.9562 0.0
C2998 C 0.51321 0.0259 0.91231 0.0
C2999 C 0.52847 0.02708 0.90581 0.0
C3000 C 0.50085 0.02704 0.90255 0.0
C3001 C 0.48476 0.02623 0.90894 0.0
C3002 C 0.48609 0.03809 0.92054 0.0
C3003 C 0.47086 0.03654 0.92727 0.0
C3004 C 0.45423 0.02327 0.92239 0.0
C3005 C 0.4528 0.01159 0.91071 0.0
C3006 C 0.468 0.01306 0.90396 0.0
H3007 H 0.44245 0.02204 0.92766 0.0
H3008 H 0.58805 0.0278 0.86704 0.0
H3009 H 0.14188 0.32232 0.52395 0.0
H3010 H 0.14833 0.32767 0.4963 0.0
H3011 H 0.17739 0.29971 0.49833 0.0
H3012 H 0.17052 0.29373 0.52598 0.0
H3013 H 0.19404 0.3322 0.48008 0.0
H3014 H 0.13686 0.27827 0.48506 0.0
H3015 H 0.10611 0.26076 0.49431 0.0
H3016 H 0.09349 0.2973 0.47191 0.0
H3017 H 0.12423 0.31516 0.4627 0.0
H3018 H 0.19261 0.32716 0.39487 0.0
H3019 H 0.19048 0.318 0.42247 0.0
H3020 H 0.15659 0.33967 0.43169 0.0
H3021 H 0.15862 0.34872 0.40507 0.0
H3022 H 0.14324 0.3068 0.44394 0.0
H3023 H 0.19658 0.36248 0.44244 0.0
H3024 H 0.22665 0.38444 0.43386 0.0
H3025 H 0.24585 0.35043 0.45025 0.0
H3026 H 0.21577 0.32811 0.45871 0.0
C3027 C 0.14957 0.31718 0.51856 0.0
C3028 C 0.15543 0.30733 0.52726 0.0
C3029 C 0.15333 0.32036 0.50273 0.0
C3030 C 0.16314 0.31388 0.49519 0.0
C3031 C 0.16976 0.3048 0.50391 0.0
C3032 C 0.16588 0.30147 0.51976 0.0
C3033 C 0.16581 0.31599 0.4781 0.0
C3034 C 0.18298 0.3263 0.47213 0.0
C3035 C 0.15134 0.30885 0.46776 0.0
C3036 C 0.13286 0.29809 0.47328 0.0
C3037 C 0.12755 0.28263 0.4822 0.0
C3038 C 0.11012 0.27264 0.48742 0.0
C3039 C 0.09786 0.27793 0.48372 0.0
C3040 C 0.103 0.29322 0.47477 0.0
C3041 C 0.12042 0.30327 0.46954 0.0
C3042 C 0.18477 0.32993 0.40284 0.0
C3043 C 0.17606 0.33893 0.39768 0.0
C3044 C 0.18357 0.32474 0.41858 0.0
C3045 C 0.17334 0.32816 0.42915 0.0
C3046 C 0.1645 0.33681 0.42383 0.0
C3047 C 0.16587 0.34213 0.40847 0.0
C3048 C 0.17147 0.32302 0.44584 0.0
C3049 C 0.15439 0.31226 0.45181 0.0
C3050 C 0.18592 0.33032 0.45619 0.0
C3051 C 0.20391 0.3435 0.45092 0.0
C3052 C 0.20718 0.35958 0.44401 0.0
C3053 C 0.22422 0.37211 0.43922 0.0
C3054 C 0.23814 0.36879 0.44143 0.0
C3055 C 0.23504 0.35294 0.44848 0.0
C3056 C 0.218 0.34034 0.45327 0.0
H3057 H 0.25134 0.37852 0.43774 0.0
H3058 H 0.08437 0.27016 0.48776 0.0
H3059 H 0.6864 0.86003 0.53123 0.0
H3060 H 0.6794 0.85924 0.50355 0.0
H3061 H 0.71495 0.83983 0.49316 0.0
H3062 H 0.72216 0.84088 0.52058 0.0
H3063 H 0.72003 0.86481 0.47336 0.0
H3064 H 0.67063 0.81276 0.49297 0.0
H3065 H 0.64476 0.79396 0.50935 0.0
H3066 H 0.61869 0.8214 0.49222 0.0
H3067 H 0.64459 0.84065 0.47596 0.0
H3068 H 0.69451 0.83603 0.39616 0.0
H3069 H 0.70049 0.83791 0.42387 0.0
H3070 H 0.66319 0.85587 0.4314 0.0
H3071 H 0.65608 0.85243 0.40358 0.0
H3072 H 0.65898 0.83264 0.45284 0.0
H3073 H 0.71084 0.88277 0.43029 0.0
H3074 H 0.73482 0.89419 0.41106 0.0
H3075 H 0.75693 0.86548 0.43349 0.0
H3076 H 0.73225 0.85271 0.45214 0.0
C3077 C 0.69278 0.85569 0.52301 0.0
C3078 C 0.70477 0.85042 0.52816 0.0
C3079 C 0.68866 0.8551 0.5072 0.0
C3080 C 0.69652 0.84933 0.49621 0.0
C3081 C 0.70865 0.8443 0.50135 0.0
C3082 C 0.71268 0.84478 0.51709 0.0
C3083 C 0.69253 0.84884 0.47931 0.0
C3084 C 0.70666 0.85771 0.46889 0.0
C3085 C 0.67511 0.8396 0.47338 0.0
C3086 C 0.65969 0.82837 0.48345 0.0
C3087 C 0.6595 0.81498 0.49287 0.0
C3088 C 0.6448 0.8042 0.5021 0.0
C3089 C 0.63012 0.80653 0.50188 0.0
C3090 C 0.6301 0.81965 0.49242 0.0
C3091 C 0.6448 0.83052 0.48321 0.0
C3092 C 0.68801 0.84094 0.40366 0.0
C3093 C 0.67538 0.84483 0.39764 0.0
C3094 C 0.69134 0.84189 0.41957 0.0
C3095 C 0.68269 0.84752 0.42985 0.0
C3096 C 0.67022 0.85169 0.42377 0.0
C3097 C 0.66642 0.85011 0.40785 0.0
C3098 C 0.68647 0.84879 0.44688 0.0
C3099 C 0.67231 0.84002 0.45733 0.0
C3100 C 0.70392 0.8577 0.45283 0.0
C3101 C 0.71959 0.86668 0.44255 0.0
C3102 C 0.7208 0.87887 0.43112 0.0
C3103 C 0.73446 0.88548 0.42025 0.0
C3104 C 0.7475 0.88069 0.42112 0.0
C3105 C 0.74683 0.86919 0.43284 0.0
C3106 C 0.73291 0.86213 0.44348 0.0
H3107 H 0.75808 0.88583 0.41269 0.0
H3108 H 0.61872 0.79813 0.509 0.0
H3109 H 0.14891 0.87594 0.51524 0.0
H3110 H 0.1555 0.8747 0.48785 0.0
H3111 H 0.16835 0.83393 0.49846 0.0
H3112 H 0.1615 0.83492 0.5259 0.0
H3113 H 0.19287 0.86111 0.47797 0.0
H3114 H 0.13216 0.82037 0.48292 0.0
H3115 H 0.10142 0.80929 0.49111 0.0
H3116 H 0.09883 0.84833 0.46215 0.0
H3117 H 0.12975 0.85991 0.45401 0.0
H3118 H 0.18914 0.82999 0.40188 0.0
H3119 H 0.18651 0.8346 0.42918 0.0
H3120 H 0.166 0.86922 0.41755 0.0
H3121 H 0.16763 0.86359 0.38983 0.0
H3122 H 0.14558 0.84492 0.43894 0.0
H3123 H 0.20905 0.88464 0.43426 0.0
H3124 H 0.23842 0.89083 0.42545 0.0
H3125 H 0.23404 0.84799 0.45385 0.0
H3126 H 0.20457 0.84144 0.46271 0.0
C3127 C 0.15332 0.86685 0.51176 0.0
C3128 C 0.15471 0.85554 0.5227 0.0
C3129 C 0.15698 0.86608 0.49611 0.0
C3130 C 0.16234 0.85417 0.49112 0.0
C3131 C 0.16424 0.84321 0.50207 0.0
C3132 C 0.16027 0.84375 0.51771 0.0
C3133 C 0.16552 0.85297 0.47438 0.0
C3134 C 0.18252 0.8575 0.46944 0.0
C3135 C 0.15199 0.84812 0.46327 0.0
C3136 C 0.13336 0.84119 0.46802 0.0
C3137 C 0.12512 0.82674 0.47843 0.0
C3138 C 0.10764 0.82034 0.48304 0.0
C3139 C 0.0982 0.82815 0.4772 0.0
C3140 C 0.10619 0.84233 0.46669 0.0
C3141 C 0.12369 0.84883 0.46207 0.0
C3142 C 0.18482 0.83924 0.4051 0.0
C3143 C 0.17902 0.84679 0.39371 0.0
C3144 C 0.18318 0.84178 0.42078 0.0
C3145 C 0.17627 0.85246 0.42556 0.0
C3146 C 0.17146 0.86098 0.41417 0.0
C3147 C 0.17279 0.85814 0.39833 0.0
C3148 C 0.17315 0.85372 0.44239 0.0
C3149 C 0.15604 0.84892 0.44741 0.0
C3150 C 0.18649 0.85788 0.45363 0.0
C3151 C 0.20466 0.86258 0.44914 0.0
C3152 C 0.21441 0.87661 0.43867 0.0
C3153 C 0.23104 0.88014 0.43364 0.0
C3154 C 0.23809 0.86981 0.43909 0.0
C3155 C 0.22858 0.856 0.44967 0.0
C3156 C 0.21194 0.85241 0.45474 0.0
H3157 H 0.25093 0.87251 0.43512 0.0
H3158 H 0.08466 0.82317 0.48078 0.0
H3159 H 0.63186 0.84464 0.17128 0.0
H3160 H 0.64155 0.84573 0.19792 0.0
H3161 H 0.64644 0.79948 0.1902 0.0
H3162 H 0.63763 0.79875 0.16317 0.0
H3163 H 0.62618 0.79771 0.21728 0.0
H3164 H 0.68307 0.83687 0.19409 0.0
H3165 H 0.70519 0.8625 0.17886 0.0
H3166 H 0.69759 0.89802 0.20787 0.0
H3167 H 0.6753 0.8726 0.22316 0.0
H3168 H 0.66942 0.81137 0.29416 0.0
H3169 H 0.66168 0.80412 0.26647 0.0
H3170 H 0.65442 0.84947 0.26167 0.0
H3171 H 0.66152 0.85636 0.28876 0.0
H3172 H 0.67857 0.84919 0.24029 0.0
H3173 H 0.62033 0.8134 0.26048 0.0
H3174 H 0.59712 0.78996 0.27674 0.0
H3175 H 0.60497 0.75061 0.25415 0.0
H3176 H 0.62849 0.77394 0.2379 0.0
C3177 C 0.63537 0.8349 0.17502 0.0
C3178 C 0.63394 0.82161 0.16487 0.0
C3179 C 0.64082 0.8355 0.19035 0.0
C3180 C 0.64478 0.82273 0.19603 0.0
C3181 C 0.64341 0.80945 0.18605 0.0
C3182 C 0.63822 0.80899 0.1706 0.0
C3183 C 0.64953 0.82286 0.21259 0.0
C3184 C 0.63788 0.80876 0.22226 0.0
C3185 C 0.66445 0.83756 0.21918 0.0
C3186 C 0.6774 0.85281 0.20967 0.0
C3187 C 0.68597 0.85013 0.1971 0.0
C3188 C 0.69858 0.86463 0.18849 0.0
C3189 C 0.70277 0.88187 0.19237 0.0
C3190 C 0.69433 0.88466 0.20486 0.0
C3191 C 0.68172 0.87021 0.21351 0.0
C3192 C 0.66576 0.81945 0.28721 0.0
C3193 C 0.66636 0.83458 0.29354 0.0
C3194 C 0.66146 0.81541 0.27143 0.0
C3195 C 0.65782 0.8265 0.26198 0.0
C3196 C 0.65746 0.84091 0.26864 0.0
C3197 C 0.66152 0.84479 0.28417 0.0
C3198 C 0.65519 0.8241 0.24498 0.0
C3199 C 0.66715 0.83789 0.23524 0.0
C3200 C 0.64032 0.80941 0.23841 0.0
C3201 C 0.62637 0.79542 0.24821 0.0
C3202 C 0.61728 0.79978 0.25913 0.0
C3203 C 0.60403 0.78652 0.26831 0.0
C3204 C 0.59964 0.76881 0.26654 0.0
C3205 C 0.60845 0.76434 0.25555 0.0
C3206 C 0.62174 0.77758 0.24636 0.0
H3207 H 0.58936 0.75855 0.27365 0.0
H3208 H 0.71257 0.89308 0.18572 0.0
H3209 H 0.21972 0.82663 0.17037 0.0
H3210 H 0.21257 0.82729 0.19762 0.0
H3211 H 0.16128 0.81869 0.18462 0.0
H3212 H 0.16844 0.81813 0.15717 0.0
H3213 H 0.17938 0.8464 0.20662 0.0
H3214 H 0.16418 0.78472 0.20022 0.0
H3215 H 0.17065 0.76126 0.19262 0.0
H3216 H 0.21478 0.78231 0.22375 0.0
H3217 H 0.20862 0.80596 0.23143 0.0
H3218 H 0.14469 0.83403 0.28199 0.0
H3219 H 0.14887 0.82977 0.25466 0.0
H3220 H 0.1928 0.82263 0.26704 0.0
H3221 H 0.18777 0.82569 0.29441 0.0
H3222 H 0.17863 0.80304 0.24479 0.0
H3223 H 0.19685 0.86395 0.2516 0.0
H3224 H 0.19539 0.89058 0.2588 0.0
H3225 H 0.1523 0.87587 0.22728 0.0
H3226 H 0.1534 0.84906 0.22 0.0
C3227 C 0.20691 0.82491 0.17329 0.0
C3228 C 0.19466 0.82237 0.16157 0.0
C3229 C 0.20281 0.82519 0.18889 0.0
C3230 C 0.18635 0.82295 0.19321 0.0
C3231 C 0.17406 0.82043 0.18157 0.0
C3232 C 0.1781 0.81998 0.1659 0.0
C3233 C 0.18211 0.82336 0.20987 0.0
C3234 C 0.17888 0.83675 0.21496 0.0
C3235 C 0.18237 0.81135 0.22088 0.0
C3236 C 0.18599 0.79711 0.21633 0.0
C3237 C 0.17531 0.78437 0.20537 0.0
C3238 C 0.1789 0.77104 0.20107 0.0
C3239 C 0.19313 0.77031 0.20768 0.0
C3240 C 0.20376 0.78288 0.21864 0.0
C3241 C 0.2002 0.79623 0.223 0.0
C3242 C 0.15472 0.83076 0.27888 0.0
C3243 C 0.16554 0.82964 0.29037 0.0
C3244 C 0.15743 0.82878 0.2632 0.0
C3245 C 0.17151 0.82638 0.25857 0.0
C3246 C 0.18182 0.82445 0.27015 0.0
C3247 C 0.1788 0.82595 0.28587 0.0
C3248 C 0.1756 0.82602 0.24175 0.0
C3249 C 0.17896 0.81271 0.23657 0.0
C3250 C 0.17609 0.83854 0.23075 0.0
C3251 C 0.17506 0.85438 0.23541 0.0
C3252 C 0.18694 0.8663 0.24633 0.0
C3253 C 0.18621 0.88145 0.25039 0.0
C3254 C 0.17372 0.88488 0.24354 0.0
C3255 C 0.16194 0.87318 0.2326 0.0
C3256 C 0.16262 0.85801 0.2285 0.0
H3257 H 0.17319 0.89664 0.24668 0.0
H3258 H 0.19589 0.75997 0.20433 0.0
H3259 H 0.21179 0.39916 0.16904 0.0
H3260 H 0.20949 0.39348 0.19698 0.0
H3261 H 0.16704 0.33996 0.18934 0.0
H3262 H 0.16891 0.34589 0.16146 0.0
H3263 H 0.15736 0.35324 0.21041 0.0
H3264 H 0.2103 0.35122 0.20235 0.0
H3265 H 0.24072 0.36151 0.19351 0.0
H3266 H 0.26001 0.40706 0.22288 0.0
H3267 H 0.22966 0.39719 0.23173 0.0
H3268 H 0.1561 0.31742 0.28508 0.0
H3269 H 0.15893 0.3255 0.25762 0.0
H3270 H 0.19114 0.3808 0.26934 0.0
H3271 H 0.18813 0.37266 0.297 0.0
H3272 H 0.20656 0.3681 0.24696 0.0
H3273 H 0.15212 0.36822 0.25507 0.0
H3274 H 0.12179 0.35485 0.26529 0.0
H3275 H 0.10563 0.30947 0.23619 0.0
H3276 H 0.13596 0.3225 0.22595 0.0
C3277 C 0.20222 0.38609 0.17333 0.0
C3278 C 0.19047 0.37299 0.1631 0.0
C3279 C 0.20092 0.38282 0.18932 0.0
C3280 C 0.18811 0.36625 0.19537 0.0
C3281 C 0.17694 0.3529 0.18504 0.0
C3282 C 0.17804 0.35627 0.1691 0.0
C3283 C 0.18537 0.36321 0.21242 0.0
C3284 C 0.16817 0.35633 0.21831 0.0
C3285 C 0.19942 0.36755 0.22293 0.0
C3286 C 0.21767 0.37357 0.21755 0.0
C3287 C 0.22101 0.36352 0.20681 0.0
C3288 C 0.23824 0.36926 0.20182 0.0
C3289 C 0.25228 0.38496 0.20759 0.0
C3290 C 0.24912 0.39493 0.21839 0.0
C3291 C 0.2319 0.38926 0.2234 0.0
C3292 C 0.16309 0.33135 0.28182 0.0
C3293 C 0.17152 0.34446 0.29312 0.0
C3294 C 0.16491 0.33595 0.26614 0.0
C3295 C 0.17534 0.35374 0.26144 0.0
C3296 C 0.18307 0.36699 0.27274 0.0
C3297 C 0.18105 0.36239 0.28852 0.0
C3298 C 0.17868 0.35818 0.2447 0.0
C3299 C 0.19591 0.36523 0.23894 0.0
C3300 C 0.16468 0.35373 0.23425 0.0
C3301 C 0.14628 0.3463 0.23978 0.0
C3302 C 0.14209 0.35539 0.25086 0.0
C3303 C 0.12491 0.34786 0.25667 0.0
C3304 C 0.11179 0.33131 0.2514 0.0
C3305 C 0.11581 0.3223 0.24025 0.0
C3306 C 0.13297 0.32976 0.23441 0.0
H3307 H 0.09851 0.32547 0.25596 0.0
H3308 H 0.26562 0.38938 0.20371 0.0
H3309 H 0.84273 0.63526 0.85977 0.0
H3310 H 0.8496 0.64186 0.83218 0.0
H3311 H 0.80947 0.65657 0.82816 0.0
H3312 H 0.80321 0.6511 0.85579 0.0
H3313 H 0.80677 0.63031 0.80628 0.0
H3314 H 0.84672 0.68747 0.8253 0.0
H3315 H 0.87074 0.71025 0.84108 0.0
H3316 H 0.90742 0.6971 0.82065 0.0
H3317 H 0.8835 0.67394 0.80496 0.0
H3318 H 0.8187 0.6702 0.73328 0.0
H3319 H 0.81577 0.66226 0.76052 0.0
H3320 H 0.86273 0.65791 0.75797 0.0
H3321 H 0.86612 0.66671 0.73027 0.0
H3322 H 0.86309 0.67696 0.78321 0.0
H3323 H 0.8201 0.62058 0.7616 0.0
H3324 H 0.79474 0.6013 0.74505 0.0
H3325 H 0.76203 0.6164 0.77013 0.0
H3326 H 0.78724 0.636 0.78667 0.0
C3327 C 0.83562 0.6403 0.85316 0.0
C3328 C 0.82219 0.64236 0.86013 0.0
C3329 C 0.8395 0.64395 0.83732 0.0
C3330 C 0.82992 0.64953 0.82808 0.0
C3331 C 0.81688 0.65207 0.83503 0.0
C3332 C 0.81323 0.64877 0.85087 0.0
C3333 C 0.83283 0.65191 0.81104 0.0
C3334 C 0.81908 0.64052 0.80122 0.0
C3335 C 0.84892 0.66516 0.80446 0.0
C3336 C 0.86325 0.67872 0.81417 0.0
C3337 C 0.85984 0.6892 0.82436 0.0
C3338 C 0.87345 0.70224 0.83325 0.0
C3339 C 0.89058 0.70506 0.83193 0.0
C3340 C 0.89413 0.69485 0.82171 0.0
C3341 C 0.88054 0.68174 0.81283 0.0
C3342 C 0.82835 0.66736 0.73842 0.0
C3343 C 0.84268 0.66912 0.72964 0.0
C3344 C 0.82657 0.66269 0.75404 0.0
C3345 C 0.83886 0.65922 0.76137 0.0
C3346 C 0.85302 0.66046 0.75256 0.0
C3347 C 0.85488 0.6653 0.73673 0.0
C3348 C 0.83707 0.65521 0.77836 0.0
C3349 C 0.85096 0.66641 0.78822 0.0
C3350 C 0.82091 0.64202 0.78502 0.0
C3351 C 0.8056 0.62981 0.77535 0.0
C3352 C 0.80752 0.61983 0.76356 0.0
C3353 C 0.79316 0.60886 0.75417 0.0
C3354 C 0.77679 0.60764 0.75652 0.0
C3355 C 0.77471 0.61735 0.76832 0.0
C3356 C 0.78902 0.62837 0.77773 0.0
H3357 H 0.76571 0.59917 0.74921 0.0
H3358 H 0.90112 0.7152 0.83878 0.0
H3359 H 0.37597 0.21193 0.86137 0.0
H3360 H 0.36873 0.21172 0.83389 0.0
H3361 H 0.35414 0.15662 0.83112 0.0
H3362 H 0.36025 0.15628 0.85863 0.0
H3363 H 0.38133 0.18109 0.80955 0.0
H3364 H 0.32348 0.16211 0.82734 0.0
H3365 H 0.30003 0.16283 0.8425 0.0
H3366 H 0.31178 0.212 0.8204 0.0
H3367 H 0.33561 0.21176 0.80532 0.0
H3368 H 0.34318 0.14859 0.73783 0.0
H3369 H 0.35062 0.1555 0.76475 0.0
H3370 H 0.35338 0.20606 0.75809 0.0
H3371 H 0.34522 0.19881 0.73049 0.0
H3372 H 0.33405 0.18802 0.78441 0.0
H3373 H 0.3927 0.20395 0.76545 0.0
H3374 H 0.41547 0.20012 0.75208 0.0
H3375 H 0.39897 0.15132 0.77703 0.0
H3376 H 0.37621 0.15494 0.7906 0.0
C3377 C 0.37077 0.1996 0.85508 0.0
C3378 C 0.36902 0.18419 0.86233 0.0
C3379 C 0.36671 0.19956 0.83932 0.0
C3380 C 0.36099 0.18418 0.83045 0.0
C3381 C 0.35864 0.16867 0.83773 0.0
C3382 C 0.36236 0.16859 0.85348 0.0
C3383 C 0.35901 0.18457 0.81334 0.0
C3384 C 0.37097 0.18259 0.80405 0.0
C3385 C 0.34561 0.1867 0.80619 0.0
C3386 C 0.33157 0.18711 0.81543 0.0
C3387 C 0.32129 0.17324 0.8259 0.0
C3388 C 0.30787 0.17352 0.83443 0.0
C3389 C 0.30448 0.1875 0.83248 0.0
C3390 C 0.31448 0.20122 0.82196 0.0
C3391 C 0.32796 0.20103 0.81342 0.0
C3392 C 0.34542 0.16129 0.74193 0.0
C3393 C 0.34333 0.17306 0.73195 0.0
C3394 C 0.3499 0.16531 0.75742 0.0
C3395 C 0.35283 0.1814 0.76355 0.0
C3396 C 0.35126 0.19355 0.75361 0.0
C3397 C 0.34671 0.18949 0.73784 0.0
C3398 C 0.35649 0.1846 0.78051 0.0
C3399 C 0.34473 0.18706 0.78986 0.0
C3400 C 0.36982 0.1824 0.78783 0.0
C3401 C 0.38276 0.17971 0.77898 0.0
C3402 C 0.39383 0.19232 0.76795 0.0
C3403 C 0.40678 0.19022 0.7604 0.0
C3404 C 0.40867 0.17548 0.76373 0.0
C3405 C 0.39753 0.16274 0.7745 0.0
C3406 C 0.38466 0.16485 0.78216 0.0
H3407 H 0.41882 0.17394 0.75803 0.0
H3408 H 0.29405 0.18767 0.83907 0.0
H3409 H 0.82398 0.16517 0.85856 0.0
H3410 H 0.83038 0.16392 0.83115 0.0
H3411 H 0.83061 0.21298 0.82262 0.0
H3412 H 0.82392 0.21417 0.84994 0.0
H3413 H 0.80908 0.18637 0.80254 0.0
H3414 H 0.86892 0.21131 0.8223 0.0
H3415 H 0.89251 0.21196 0.83848 0.0
H3416 H 0.882 0.16201 0.81974 0.0
H3417 H 0.85819 0.16095 0.80361 0.0
H3418 H 0.83439 0.19715 0.72354 0.0
H3419 H 0.83531 0.20348 0.75141 0.0
H3420 H 0.84037 0.15761 0.76197 0.0
H3421 H 0.83954 0.15143 0.73436 0.0
H3422 H 0.85993 0.1831 0.78113 0.0
H3423 H 0.80108 0.15516 0.7633 0.0
H3424 H 0.77564 0.15012 0.7473 0.0
H3425 H 0.7807 0.19915 0.76309 0.0
H3426 H 0.80644 0.20468 0.77894 0.0
C3427 C 0.8255 0.17576 0.85087 0.0
C3428 C 0.82336 0.18974 0.85645 0.0
C3429 C 0.8293 0.17509 0.83522 0.0
C3430 C 0.83104 0.1884 0.82483 0.0
C3431 C 0.82936 0.2026 0.83044 0.0
C3432 C 0.82566 0.20332 0.84609 0.0
C3433 C 0.83339 0.18695 0.80795 0.0
C3434 C 0.82039 0.18603 0.79782 0.0
C3435 C 0.84765 0.18552 0.80187 0.0
C3436 C 0.86166 0.18598 0.81187 0.0
C3437 C 0.8715 0.20037 0.82177 0.0
C3438 C 0.88495 0.20084 0.83089 0.0
C3439 C 0.88872 0.18702 0.83017 0.0
C3440 C 0.87905 0.1727 0.82032 0.0
C3441 C 0.86559 0.17216 0.81118 0.0
C3442 C 0.83635 0.18888 0.73185 0.0
C3443 C 0.83718 0.17399 0.7269 0.0
C3444 C 0.83661 0.19231 0.74774 0.0
C3445 C 0.83769 0.18088 0.7588 0.0
C3446 C 0.83957 0.16664 0.75371 0.0
C3447 C 0.83919 0.16317 0.73794 0.0
C3448 C 0.83586 0.18299 0.77567 0.0
C3449 C 0.84877 0.18375 0.78581 0.0
C3450 C 0.82118 0.18361 0.78183 0.0
C3451 C 0.8059 0.1805 0.7721 0.0
C3452 C 0.79693 0.165 0.7632 0.0
C3453 C 0.78242 0.16202 0.75418 0.0
C3454 C 0.77661 0.17435 0.75412 0.0
C3455 C 0.78527 0.18965 0.7631 0.0
C3456 C 0.79984 0.19273 0.77208 0.0
H3457 H 0.76535 0.17201 0.74715 0.0
H3458 H 0.89917 0.18743 0.83721 0.0
H3459 H 0.27525 0.12883 0.50589 0.0
H3460 H 0.28397 0.1302 0.53303 0.0
H3461 H 0.33318 0.17803 0.52327 0.0
H3462 H 0.3246 0.17668 0.49605 0.0
H3463 H 0.33775 0.15499 0.54235 0.0
H3464 H 0.30288 0.18234 0.54017 0.0
H3465 H 0.27727 0.18555 0.53322 0.0
H3466 H 0.2436 0.13999 0.5613 0.0
H3467 H 0.269 0.13632 0.56821 0.0
H3468 H 0.36211 0.18873 0.61769 0.0
H3469 H 0.35387 0.18247 0.59074 0.0
H3470 H 0.3037 0.13772 0.60422 0.0
H3471 H 0.31166 0.14478 0.63174 0.0
H3472 H 0.29938 0.15802 0.58308 0.0
H3473 H 0.33866 0.13356 0.58585 0.0
H3474 H 0.36683 0.13545 0.59314 0.0
H3475 H 0.39509 0.1815 0.56396 0.0
H3476 H 0.3671 0.17998 0.55661 0.0
C3477 C 0.28804 0.13951 0.50946 0.0
C3478 C 0.29921 0.15267 0.4988 0.0
C3479 C 0.29295 0.14034 0.52501 0.0
C3480 C 0.30917 0.15429 0.53022 0.0
C3481 C 0.3206 0.16716 0.51952 0.0
C3482 C 0.31562 0.16642 0.50399 0.0
C3483 C 0.31393 0.15569 0.54692 0.0
C3484 C 0.32938 0.15569 0.55125 0.0
C3485 C 0.3031 0.15672 0.55854 0.0
C3486 C 0.28779 0.15891 0.55454 0.0
C3487 C 0.28998 0.1729 0.54474 0.0
C3488 C 0.27551 0.17482 0.54083 0.0
C3489 C 0.2588 0.16294 0.54677 0.0
C3490 C 0.25655 0.14915 0.55668 0.0
C3491 C 0.27098 0.14714 0.5606 0.0
C3492 C 0.34948 0.17722 0.61498 0.0
C3493 C 0.33758 0.16716 0.62688 0.0
C3494 C 0.34478 0.17362 0.59947 0.0
C3495 C 0.32825 0.15943 0.5953 0.0
C3496 C 0.31659 0.14869 0.60713 0.0
C3497 C 0.32123 0.15251 0.62285 0.0
C3498 C 0.32297 0.15678 0.57863 0.0
C3499 C 0.30752 0.15684 0.57424 0.0
C3500 C 0.33409 0.1563 0.56691 0.0
C3501 C 0.35079 0.15664 0.57069 0.0
C3502 C 0.35088 0.14406 0.58096 0.0
C3503 C 0.36682 0.14509 0.58513 0.0
C3504 C 0.38274 0.15859 0.57902 0.0
C3505 C 0.38275 0.17103 0.56865 0.0
C3506 C 0.36685 0.17006 0.56445 0.0
H3507 H 0.39506 0.1594 0.58231 0.0
H3508 H 0.24761 0.16445 0.54374 0.0
H3509 H 0.88712 0.17895 0.49971 0.0
H3510 H 0.8805 0.17963 0.52694 0.0
H3511 H 0.82805 0.13524 0.52028 0.0
H3512 H 0.83421 0.1352 0.49262 0.0
H3513 H 0.82666 0.15859 0.53875 0.0
H3514 H 0.86363 0.13141 0.53764 0.0
H3515 H 0.89037 0.12999 0.53122 0.0
H3516 H 0.92233 0.17848 0.55583 0.0
H3517 H 0.89581 0.18026 0.56226 0.0
H3518 H 0.81187 0.14482 0.62144 0.0
H3519 H 0.81476 0.13963 0.59373 0.0
H3520 H 0.86793 0.1842 0.59348 0.0
H3521 H 0.86522 0.18908 0.62073 0.0
H3522 H 0.86719 0.15791 0.57866 0.0
H3523 H 0.83443 0.18835 0.57787 0.0
H3524 H 0.80999 0.1936 0.5844 0.0
H3525 H 0.77293 0.14397 0.56371 0.0
H3526 H 0.79718 0.13836 0.55718 0.0
C3527 C 0.87405 0.16947 0.50389 0.0
C3528 C 0.86121 0.15703 0.49382 0.0
C3529 C 0.87036 0.1697 0.51961 0.0
C3530 C 0.85389 0.15722 0.52584 0.0
C3531 C 0.84092 0.14491 0.51582 0.0
C3532 C 0.84454 0.1448 0.5 0.0
C3533 C 0.85023 0.15711 0.54275 0.0
C3534 C 0.83534 0.15807 0.54747 0.0
C3535 C 0.86183 0.15709 0.55424 0.0
C3536 C 0.87776 0.15601 0.55032 0.0
C3537 C 0.87638 0.14181 0.54159 0.0
C3538 C 0.89149 0.14094 0.53797 0.0
C3539 C 0.90804 0.15415 0.54309 0.0
C3540 C 0.90951 0.16826 0.55186 0.0
C3541 C 0.89445 0.16919 0.55551 0.0
C3542 C 0.82421 0.1532 0.61545 0.0
C3543 C 0.83832 0.16725 0.62321 0.0
C3544 C 0.82582 0.15041 0.59962 0.0
C3545 C 0.84155 0.16162 0.59146 0.0
C3546 C 0.8557 0.17532 0.59944 0.0
C3547 C 0.85411 0.17807 0.61506 0.0
C3548 C 0.84367 0.15939 0.57464 0.0
C3549 C 0.85833 0.1581 0.56994 0.0
C3550 C 0.83216 0.15961 0.56321 0.0
C3551 C 0.81755 0.16282 0.56724 0.0
C3552 C 0.82104 0.17848 0.57485 0.0
C3553 C 0.80724 0.18155 0.57851 0.0
C3554 C 0.78991 0.16909 0.57453 0.0
C3555 C 0.78636 0.15358 0.56682 0.0
C3556 C 0.80012 0.15046 0.56313 0.0
H3557 H 0.77923 0.17149 0.57736 0.0
H3558 H 0.91973 0.15344 0.54027 0.0
H3559 H 0.88168 0.71264 0.49715 0.0
H3560 H 0.88058 0.70538 0.52487 0.0
H3561 H 0.82467 0.68628 0.52548 0.0
H3562 H 0.8254 0.69263 0.49785 0.0
H3563 H 0.85191 0.71788 0.54708 0.0
H3564 H 0.83106 0.65686 0.52905 0.0
H3565 H 0.8354 0.63496 0.51465 0.0
H3566 H 0.88221 0.64887 0.54096 0.0
H3567 H 0.8783 0.67108 0.55533 0.0
H3568 H 0.81747 0.67521 0.62346 0.0
H3569 H 0.82085 0.68345 0.5956 0.0
H3570 H 0.87367 0.69152 0.59623 0.0
H3571 H 0.87072 0.68428 0.62371 0.0
H3572 H 0.85042 0.66647 0.57378 0.0
H3573 H 0.87151 0.72294 0.59411 0.0
H3574 H 0.87457 0.74922 0.60722 0.0
H3575 H 0.83843 0.75171 0.57505 0.0
H3576 H 0.83308 0.72392 0.56312 0.0
C3577 C 0.86908 0.70646 0.50308 0.0
C3578 C 0.85368 0.70354 0.49529 0.0
C3579 C 0.8685 0.7024 0.51892 0.0
C3580 C 0.85255 0.69542 0.52716 0.0
C3581 C 0.8371 0.69175 0.51929 0.0
C3582 C 0.8376 0.69554 0.50352 0.0
C3583 C 0.85203 0.69349 0.54422 0.0
C3584 C 0.85117 0.70649 0.55304 0.0
C3585 C 0.85225 0.67916 0.55177 0.0
C3586 C 0.85451 0.66579 0.54312 0.0
C3587 C 0.84239 0.65541 0.53163 0.0
C3588 C 0.84474 0.6429 0.52351 0.0
C3589 C 0.8591 0.64056 0.52685 0.0
C3590 C 0.87111 0.65071 0.53836 0.0
C3591 C 0.86883 0.66325 0.54649 0.0
C3592 C 0.82994 0.67937 0.6177 0.0
C3593 C 0.84381 0.67909 0.62567 0.0
C3594 C 0.83183 0.68389 0.60182 0.0
C3595 C 0.84747 0.68787 0.59387 0.0
C3596 C 0.86148 0.68835 0.60209 0.0
C3597 C 0.85977 0.6843 0.61781 0.0
C3598 C 0.84915 0.69042 0.57682 0.0
C3599 C 0.85062 0.6777 0.56798 0.0
C3600 C 0.85014 0.70543 0.56931 0.0
C3601 C 0.85145 0.7208 0.57795 0.0
C3602 C 0.86336 0.72836 0.59035 0.0
C3603 C 0.86547 0.74358 0.59764 0.0
C3604 C 0.85637 0.75191 0.59222 0.0
C3605 C 0.84499 0.7449 0.57961 0.0
C3606 C 0.84218 0.72922 0.57275 0.0
H3607 H 0.85835 0.76395 0.59763 0.0
H3608 H 0.86089 0.63086 0.52055 0.0
loop_
_geom_bond_atom_site_label_1
_geom_bond_atom_site_label_2
_geom_bond_distance
_geom_bond_site_symmetry_2
_ccdc_geom_bond_type
C0 C1 1.264 . S
C0 C5 1.479 . S
C0 C10 1.465 . S
C1 C0 1.264 . S
C1 C3 1.339 . S
C1 H28 0.931 . S
C2 C3 1.395 . S
C2 C4 1.320 . S
C3 C1 1.339 . S
C3 C2 1.395 . S
C3 H29 0.929 . S
C4 C2 1.320 . S
C4 C5 1.405 . S
C4 H30 0.930 . S
C5 C0 1.479 . S
C5 C4 1.405 . S
C5 H31 0.931 . S
U6 O7 2.454 . S
U6 O8 2.458 . S
U6 C9 2.984 . S
U6 C10 2.847 . S
U6 C23 2.882 . S
U6 O24 2.441 . S
U6 O25 2.420 . S
U6 O26 2.455 . S
U6 O27 2.449 . S
O7 U6 2.454 . S
O7 C9 1.353 . S
O8 U6 2.458 . S
O8 C9 1.286 . S
C9 U6 2.984 . S
C9 O7 1.353 . S
C9 O8 1.286 . S
C9 C11 1.363 . S
C10 C0 1.465 . S
C10 U6 2.847 . S
C10 O24 1.249 . S
C10 O25 1.202 . S
C11 C9 1.363 . S
C11 C13 1.408 . S
C11 C16 1.342 . S
C12 C13 1.310 . S
C12 C15 1.461 . S
C12 H32 0.932 . S
C13 C11 1.408 . S
C13 C12 1.310 . S
C13 H33 0.930 . S
C14 C15 1.474 . S
C14 C16 1.285 . S
C14 H34 0.929 . S
C15 C12 1.461 . S
C15 C14 1.474 . S
C16 C11 1.342 . S
C16 C14 1.285 . S
C16 H35 0.930 . S
C17 C20 1.424 . S
C17 C22 1.245 . S
C17 C23 1.428 . S
C18 C21 1.260 . S
C18 C22 1.477 . S
C18 H36 0.932 . S
C19 C20 1.384 . S
C19 C21 1.479 . S
C19 H37 0.929 . S
C20 C17 1.424 . S
C20 C19 1.384 . S
C20 H38 0.928 . S
C21 C18 1.260 . S
C21 C19 1.479 . S
C22 C17 1.245 . S
C22 C18 1.477 . S
C22 H39 0.932 . S
C23 U6 2.882 . S
C23 C17 1.428 . S
C23 O26 1.301 . S
C23 O27 1.282 . S
O24 U6 2.441 . S
O24 C10 1.249 . S
O25 U6 2.420 . S
O25 C10 1.202 . S
O26 U6 2.455 . S
O26 C23 1.301 . S
O27 U6 2.449 . S
O27 C23 1.282 . S
H28 C1 0.931 . S
H29 C3 0.929 . S
H30 C4 0.930 . S
H31 C5 0.931 . S
H32 C12 0.932 . S
H33 C13 0.930 . S
H34 C14 0.929 . S
H35 C16 0.930 . S
H36 C18 0.932 . S
H37 C19 0.929 . S
H38 C20 0.928 . S
H39 C22 0.932 . S
C40 C41 1.264 . S
C40 C45 1.479 . S
C40 C50 1.465 . S
C41 C40 1.264 . S
C41 C43 1.339 . S
C41 H68 0.931 . S
C42 C43 1.395 . S
C42 C44 1.320 . S
C43 C41 1.339 . S
C43 C42 1.395 . S
C43 H69 0.929 . S
C44 C42 1.320 . S
C44 C45 1.405 . S
C44 H70 0.930 . S
C45 C40 1.479 . S
C45 C44 1.405 . S
C45 H71 0.931 . S
U46 O47 2.454 . S
U46 O48 2.458 . S
U46 C49 2.984 . S
U46 C50 2.847 . S
U46 C63 2.882 . S
U46 O64 2.441 . S
U46 O65 2.420 . S
U46 O66 2.455 . S
U46 O67 2.449 . S
O47 U46 2.454 . S
O47 C49 1.353 . S
O48 U46 2.458 . S
O48 C49 1.286 . S
C49 U46 2.984 . S
C49 O47 1.353 . S
C49 O48 1.286 . S
C49 C51 1.363 . S
C50 C40 1.465 . S
C50 U46 2.847 . S
C50 O64 1.249 . S
C50 O65 1.202 . S
C51 C49 1.363 . S
C51 C53 1.408 . S
C51 C56 1.342 . S
C52 C53 1.310 . S
C52 C55 1.461 . S
C52 H72 0.932 . S
C53 C51 1.408 . S
C53 C52 1.310 . S
C53 H73 0.930 . S
C54 C55 1.474 . S
C54 C56 1.285 . S
C54 H74 0.929 . S
C55 C52 1.461 . S
C55 C54 1.474 . S
C56 C51 1.342 . S
C56 C54 1.285 . S
C56 H75 0.930 . S
C57 C60 1.424 . S
C57 C62 1.245 . S
C57 C63 1.428 . S
C58 C61 1.260 . S
C58 C62 1.477 . S
C58 H76 0.932 . S
C59 C60 1.384 . S
C59 C61 1.479 . S
C59 H77 0.929 . S
C60 C57 1.424 . S
C60 C59 1.384 . S
C60 H78 0.928 . S
C61 C58 1.260 . S
C61 C59 1.479 . S
C62 C57 1.245 . S
C62 C58 1.477 . S
C62 H79 0.932 . S
C63 U46 2.882 . S
C63 C57 1.428 . S
C63 O66 1.301 . S
C63 O67 1.282 . S
O64 U46 2.441 . S
O64 C50 1.249 . S
O65 U46 2.420 . S
O65 C50 1.202 . S
O66 U46 2.455 . S
O66 C63 1.301 . S
O67 U46 2.449 . S
O67 C63 1.282 . S
H68 C41 0.931 . S
H69 C43 0.929 . S
H70 C44 0.930 . S
H71 C45 0.931 . S
H72 C52 0.932 . S
H73 C53 0.930 . S
H74 C54 0.929 . S
H75 C56 0.930 . S
H76 C58 0.932 . S
H77 C59 0.929 . S
H78 C60 0.928 . S
H79 C62 0.932 . S
C80 C81 1.264 . S
C80 C85 1.479 . S
C80 C90 1.465 . S
C81 C80 1.264 . S
C81 C83 1.339 . S
C81 H108 0.931 . S
C82 C83 1.395 . S
C82 C84 1.320 . S
C83 C81 1.339 . S
C83 C82 1.395 . S
C83 H109 0.929 . S
C84 C82 1.320 . S
C84 C85 1.405 . S
C84 H110 0.930 . S
C85 C80 1.479 . S
C85 C84 1.405 . S
C85 H111 0.931 . S
U86 O87 2.454 . S
U86 O88 2.458 . S
U86 C89 2.984 . S
U86 C90 2.847 . S
U86 C103 2.882 . S
U86 O104 2.441 . S
U86 O105 2.420 . S
U86 O106 2.455 . S
U86 O107 2.449 . S
O87 U86 2.454 . S
O87 C89 1.353 . S
O88 U86 2.458 . S
O88 C89 1.286 . S
C89 U86 2.984 . S
C89 O87 1.353 . S
C89 O88 1.286 . S
C89 C91 1.363 . S
C90 C80 1.465 . S
C90 U86 2.847 . S
C90 O104 1.249 . S
C90 O105 1.202 . S
C91 C89 1.363 . S
C91 C93 1.408 . S
C91 C96 1.342 . S
C92 C93 1.310 . S
C92 C95 1.461 . S
C92 H112 0.932 . S
C93 C91 1.408 . S
C93 C92 1.310 . S
C93 H113 0.930 . S
C94 C95 1.474 . S
C94 C96 1.285 . S
C94 H114 0.929 . S
C95 C92 1.461 . S
C95 C94 1.474 . S
C96 C91 1.342 . S
C96 C94 1.285 . S
C96 H115 0.930 . S
C97 C100 1.424 . S
C97 C102 1.245 . S
C97 C103 1.428 . S
C98 C101 1.260 . S
C98 C102 1.477 . S
C98 H116 0.932 . S
C99 C100 1.384 . S
C99 C101 1.479 . S
C99 H117 0.929 . S
C100 C97 1.424 . S
C100 C99 1.384 . S
C100 H118 0.928 . S
C101 C98 1.260 . S
C101 C99 1.479 . S
C102 C97 1.245 . S
C102 C98 1.477 . S
C102 H119 0.932 . S
C103 U86 2.882 . S
C103 C97 1.428 . S
C103 O106 1.301 . S
C103 O107 1.282 . S
O104 U86 2.441 . S
O104 C90 1.249 . S
O105 U86 2.420 . S
O105 C90 1.202 . S
O106 U86 2.455 . S
O106 C103 1.301 . S
O107 U86 2.449 . S
O107 C103 1.282 . S
H108 C81 0.931 . S
H109 C83 0.929 . S
H110 C84 0.930 . S
H111 C85 0.931 . S
H112 C92 0.932 . S
H113 C93 0.930 . S
H114 C94 0.929 . S
H115 C96 0.930 . S
H116 C98 0.932 . S
H117 C99 0.929 . S
H118 C100 0.928 . S
H119 C102 0.932 . S
C120 C121 1.264 . S
C120 C125 1.479 . S
C120 C130 1.465 . S
C121 C120 1.264 . S
C121 C123 1.339 . S
C121 H148 0.931 . S
C122 C123 1.395 . S
C122 C124 1.320 . S
C123 C121 1.339 . S
C123 C122 1.395 . S
C123 H149 0.929 . S
C124 C122 1.320 . S
C124 C125 1.405 . S
C124 H150 0.930 . S
C125 C120 1.479 . S
C125 C124 1.405 . S
C125 H151 0.931 . S
U126 O127 2.454 . S
U126 O128 2.458 . S
U126 C129 2.984 . S
U126 C130 2.847 . S
U126 C143 2.882 . S
U126 O144 2.441 . S
U126 O145 2.420 . S
U126 O146 2.455 . S
U126 O147 2.449 . S
O127 U126 2.454 . S
O127 C129 1.353 . S
O128 U126 2.458 . S
O128 C129 1.286 . S
C129 U126 2.984 . S
C129 O127 1.353 . S
C129 O128 1.286 . S
C129 C131 1.363 . S
C130 C120 1.465 . S
C130 U126 2.847 . S
C130 O144 1.249 . S
C130 O145 1.202 . S
C131 C129 1.363 . S
C131 C133 1.408 . S
C131 C136 1.342 . S
C132 C133 1.310 . S
C132 C135 1.461 . S
C132 H152 0.932 . S
C133 C131 1.408 . S
C133 C132 1.310 . S
C133 H153 0.930 . S
C134 C135 1.474 . S
C134 C136 1.285 . S
C134 H154 0.929 . S
C135 C132 1.461 . S
C135 C134 1.474 . S
C136 C131 1.342 . S
C136 C134 1.285 . S
C136 H155 0.930 . S
C137 C140 1.424 . S
C137 C142 1.245 . S
C137 C143 1.428 . S
C138 C141 1.260 . S
C138 C142 1.477 . S
C138 H156 0.932 . S
C139 C140 1.384 . S
C139 C141 1.479 . S
C139 H157 0.929 . S
C140 C137 1.424 . S
C140 C139 1.384 . S
C140 H158 0.928 . S
C141 C138 1.260 . S
C141 C139 1.479 . S
C142 C137 1.245 . S
C142 C138 1.477 . S
C142 H159 0.932 . S
C143 U126 2.882 . S
C143 C137 1.428 . S
C143 O146 1.301 . S
C143 O147 1.282 . S
O144 U126 2.441 . S
O144 C130 1.249 . S
O145 U126 2.420 . S
O145 C130 1.202 . S
O146 U126 2.455 . S
O146 C143 1.301 . S
O147 U126 2.449 . S
O147 C143 1.282 . S
H148 C121 0.931 . S
H149 C123 0.929 . S
H150 C124 0.930 . S
H151 C125 0.931 . S
H152 C132 0.932 . S
H153 C133 0.930 . S
H154 C134 0.929 . S
H155 C136 0.930 . S
H156 C138 0.932 . S
H157 C139 0.929 . S
H158 C140 0.928 . S
H159 C142 0.932 . S
C160 C161 1.264 . S
C160 C165 1.479 . S
C160 C170 1.465 . S
C161 C160 1.264 . S
C161 C163 1.339 . S
C161 H188 0.931 . S
C162 C163 1.395 . S
C162 C164 1.320 . S
C163 C161 1.339 . S
C163 C162 1.395 . S
C163 H189 0.929 . S
C164 C162 1.320 . S
C164 C165 1.405 . S
C164 H190 0.930 . S
C165 C160 1.479 . S
C165 C164 1.405 . S
C165 H191 0.931 . S
U166 O167 2.454 . S
U166 O168 2.458 . S
U166 C169 2.984 . S
U166 C170 2.847 . S
U166 C183 2.882 . S
U166 O184 2.441 . S
U166 O185 2.420 . S
U166 O186 2.455 . S
U166 O187 2.449 . S
O167 U166 2.454 . S
O167 C169 1.353 . S
O168 U166 2.458 . S
O168 C169 1.286 . S
C169 U166 2.984 . S
C169 O167 1.353 . S
C169 O168 1.286 . S
C169 C171 1.363 . S
C170 C160 1.465 . S
C170 U166 2.847 . S
C170 O184 1.249 . S
C170 O185 1.202 . S
C171 C169 1.363 . S
C171 C173 1.408 . S
C171 C176 1.342 . S
C172 C173 1.310 . S
C172 C175 1.461 . S
C172 H192 0.932 . S
C173 C171 1.408 . S
C173 C172 1.310 . S
C173 H193 0.930 . S
C174 C175 1.474 . S
C174 C176 1.285 . S
C174 H194 0.929 . S
C175 C172 1.461 . S
C175 C174 1.474 . S
C176 C171 1.342 . S
C176 C174 1.285 . S
C176 H195 0.930 . S
C177 C180 1.424 . S
C177 C182 1.245 . S
C177 C183 1.428 . S
C178 C181 1.260 . S
C178 C182 1.477 . S
C178 H196 0.932 . S
C179 C180 1.384 . S
C179 C181 1.479 . S
C179 H197 0.929 . S
C180 C177 1.424 . S
C180 C179 1.384 . S
C180 H198 0.928 . S
C181 C178 1.260 . S
C181 C179 1.479 . S
C182 C177 1.245 . S
C182 C178 1.477 . S
C182 H199 0.932 . S
C183 U166 2.882 . S
C183 C177 1.428 . S
C183 O186 1.301 . S
C183 O187 1.282 . S
O184 U166 2.441 . S
O184 C170 1.249 . S
O185 U166 2.420 . S
O185 C170 1.202 . S
O186 U166 2.455 . S
O186 C183 1.301 . S
O187 U166 2.449 . S
O187 C183 1.282 . S
H188 C161 0.931 . S
H189 C163 0.929 . S
H190 C164 0.930 . S
H191 C165 0.931 . S
H192 C172 0.932 . S
H193 C173 0.930 . S
H194 C174 0.929 . S
H195 C176 0.930 . S
H196 C178 0.932 . S
H197 C179 0.929 . S
H198 C180 0.928 . S
H199 C182 0.932 . S
C200 C201 1.264 . S
C200 C205 1.479 . S
C200 C210 1.465 . S
C201 C200 1.264 . S
C201 C203 1.339 . S
C201 H228 0.931 . S
C202 C203 1.395 . S
C202 C204 1.320 . S
C203 C201 1.339 . S
C203 C202 1.395 . S
C203 H229 0.929 . S
C204 C202 1.320 . S
C204 C205 1.405 . S
C204 H230 0.930 . S
C205 C200 1.479 . S
C205 C204 1.405 . S
C205 H231 0.931 . S
U206 O207 2.454 . S
U206 O208 2.458 . S
U206 C209 2.984 . S
U206 C210 2.847 . S
U206 C223 2.882 . S
U206 O224 2.441 . S
U206 O225 2.420 . S
U206 O226 2.455 . S
U206 O227 2.449 . S
O207 U206 2.454 . S
O207 C209 1.353 . S
O208 U206 2.458 . S
O208 C209 1.286 . S
C209 U206 2.984 . S
C209 O207 1.353 . S
C209 O208 1.286 . S
C209 C211 1.363 . S
C210 C200 1.465 . S
C210 U206 2.847 . S
C210 O224 1.249 . S
C210 O225 1.202 . S
C211 C209 1.363 . S
C211 C213 1.408 . S
C211 C216 1.342 . S
C212 C213 1.310 . S
C212 C215 1.461 . S
C212 H232 0.932 . S
C213 C211 1.408 . S
C213 C212 1.310 . S
C213 H233 0.930 . S
C214 C215 1.474 . S
C214 C216 1.285 . S
C214 H234 0.929 . S
C215 C212 1.461 . S
C215 C214 1.474 . S
C216 C211 1.342 . S
C216 C214 1.285 . S
C216 H235 0.930 . S
C217 C220 1.424 . S
C217 C222 1.245 . S
C217 C223 1.428 . S
C218 C221 1.260 . S
C218 C222 1.477 . S
C218 H236 0.932 . S
C219 C220 1.384 . S
C219 C221 1.479 . S
C219 H237 0.929 . S
C220 C217 1.424 . S
C220 C219 1.384 . S
C220 H238 0.928 . S
C221 C218 1.260 . S
C221 C219 1.479 . S
C222 C217 1.245 . S
C222 C218 1.477 . S
C222 H239 0.932 . S
C223 U206 2.882 . S
C223 C217 1.428 . S
C223 O226 1.301 . S
C223 O227 1.282 . S
O224 U206 2.441 . S
O224 C210 1.249 . S
O225 U206 2.420 . S
O225 C210 1.202 . S
O226 U206 2.455 . S
O226 C223 1.301 . S
O227 U206 2.449 . S
O227 C223 1.282 . S
H228 C201 0.931 . S
H229 C203 0.929 . S
H230 C204 0.930 . S
H231 C205 0.931 . S
H232 C212 0.932 . S
H233 C213 0.930 . S
H234 C214 0.929 . S
H235 C216 0.930 . S
H236 C218 0.932 . S
H237 C219 0.929 . S
H238 C220 0.928 . S
H239 C222 0.932 . S
C240 C241 1.264 . S
C240 C245 1.479 . S
C240 C250 1.465 . S
C241 C240 1.264 . S
C241 C243 1.339 . S
C241 H268 0.931 . S
C242 C243 1.395 . S
C242 C244 1.320 . S
C243 C241 1.339 . S
C243 C242 1.395 . S
C243 H269 0.929 . S
C244 C242 1.320 . S
C244 C245 1.405 . S
C244 H270 0.930 . S
C245 C240 1.479 . S
C245 C244 1.405 . S
C245 H271 0.931 . S
U246 O247 2.454 . S
U246 O248 2.458 . S
U246 C249 2.984 . S
U246 C250 2.847 . S
U246 C263 2.882 . S
U246 O264 2.441 . S
U246 O265 2.420 . S
U246 O266 2.455 . S
U246 O267 2.449 . S
O247 U246 2.454 . S
O247 C249 1.353 . S
O248 U246 2.458 . S
O248 C249 1.286 . S
C249 U246 2.984 . S
C249 O247 1.353 . S
C249 O248 1.286 . S
C249 C251 1.363 . S
C250 C240 1.465 . S
C250 U246 2.847 . S
C250 O264 1.249 . S
C250 O265 1.202 . S
C251 C249 1.363 . S
C251 C253 1.408 . S
C251 C256 1.342 . S
C252 C253 1.310 . S
C252 C255 1.461 . S
C252 H272 0.932 . S
C253 C251 1.408 . S
C253 C252 1.310 . S
C253 H273 0.930 . S
C254 C255 1.474 . S
C254 C256 1.285 . S
C254 H274 0.929 . S
C255 C252 1.461 . S
C255 C254 1.474 . S
C256 C251 1.342 . S
C256 C254 1.285 . S
C256 H275 0.930 . S
C257 C260 1.424 . S
C257 C262 1.245 . S
C257 C263 1.428 . S
C258 C261 1.260 . S
C258 C262 1.477 . S
C258 H276 0.932 . S
C259 C260 1.384 . S
C259 C261 1.479 . S
C259 H277 0.929 . S
C260 C257 1.424 . S
C260 C259 1.384 . S
C260 H278 0.928 . S
C261 C258 1.260 . S
C261 C259 1.479 . S
C262 C257 1.245 . S
C262 C258 1.477 . S
C262 H279 0.932 . S
C263 U246 2.882 . S
C263 C257 1.428 . S
C263 O266 1.301 . S
C263 O267 1.282 . S
O264 U246 2.441 . S
O264 C250 1.249 . S
O265 U246 2.420 . S
O265 C250 1.202 . S
O266 U246 2.455 . S
O266 C263 1.301 . S
O267 U246 2.449 . S
O267 C263 1.282 . S
H268 C241 0.931 . S
H269 C243 0.929 . S
H270 C244 0.930 . S
H271 C245 0.931 . S
H272 C252 0.932 . S
H273 C253 0.930 . S
H274 C254 0.929 . S
H275 C256 0.930 . S
H276 C258 0.932 . S
H277 C259 0.929 . S
H278 C260 0.928 . S
H279 C262 0.932 . S
C280 C281 1.264 . S
C280 C285 1.479 . S
C280 C290 1.465 . S
C281 C280 1.264 . S
C281 C283 1.339 . S
C281 H308 0.931 . S
C282 C283 1.395 . S
C282 C284 1.320 . S
C283 C281 1.339 . S
C283 C282 1.395 . S
C283 H309 0.929 . S
C284 C282 1.320 . S
C284 C285 1.405 . S
C284 H310 0.930 . S
C285 C280 1.479 . S
C285 C284 1.405 . S
C285 H311 0.931 . S
U286 O287 2.454 . S
U286 O288 2.458 . S
U286 C289 2.984 . S
U286 C290 2.847 . S
U286 C303 2.882 . S
U286 O304 2.441 . S
U286 O305 2.420 . S
U286 O306 2.455 . S
U286 O307 2.449 . S
O287 U286 2.454 . S
O287 C289 1.353 . S
O288 U286 2.458 . S
O288 C289 1.286 . S
C289 U286 2.984 . S
C289 O287 1.353 . S
C289 O288 1.286 . S
C289 C291 1.363 . S
C290 C280 1.465 . S
C290 U286 2.847 . S
C290 O304 1.249 . S
C290 O305 1.202 . S
C291 C289 1.363 . S
C291 C293 1.408 . S
C291 C296 1.342 . S
C292 C293 1.310 . S
C292 C295 1.461 . S
C292 H312 0.932 . S
C293 C291 1.408 . S
C293 C292 1.310 . S
C293 H313 0.930 . S
C294 C295 1.474 . S
C294 C296 1.285 . S
C294 H314 0.929 . S
C295 C292 1.461 . S
C295 C294 1.474 . S
C296 C291 1.342 . S
C296 C294 1.285 . S
C296 H315 0.930 . S
C297 C300 1.424 . S
C297 C302 1.245 . S
C297 C303 1.428 . S
C298 C301 1.260 . S
C298 C302 1.477 . S
C298 H316 0.932 . S
C299 C300 1.384 . S
C299 C301 1.479 . S
C299 H317 0.929 . S
C300 C297 1.424 . S
C300 C299 1.384 . S
C300 H318 0.928 . S
C301 C298 1.260 . S
C301 C299 1.479 . S
C302 C297 1.245 . S
C302 C298 1.477 . S
C302 H319 0.932 . S
C303 U286 2.882 . S
C303 C297 1.428 . S
C303 O306 1.301 . S
C303 O307 1.282 . S
O304 U286 2.441 . S
O304 C290 1.249 . S
O305 U286 2.420 . S
O305 C290 1.202 . S
O306 U286 2.455 . S
O306 C303 1.301 . S
O307 U286 2.449 . S
O307 C303 1.282 . S
H308 C281 0.931 . S
H309 C283 0.929 . S
H310 C284 0.930 . S
H311 C285 0.931 . S
H312 C292 0.932 . S
H313 C293 0.930 . S
H314 C294 0.929 . S
H315 C296 0.930 . S
H316 C298 0.932 . S
H317 C299 0.929 . S
H318 C300 0.928 . S
H319 C302 0.932 . S
C320 C321 1.264 . S
C320 C325 1.479 . S
C320 C330 1.465 . S
C321 C320 1.264 . S
C321 C323 1.339 . S
C321 H348 0.931 . S
C322 C323 1.395 . S
C322 C324 1.320 . S
C323 C321 1.339 . S
C323 C322 1.395 . S
C323 H349 0.929 . S
C324 C322 1.320 . S
C324 C325 1.405 . S
C324 H350 0.930 . S
C325 C320 1.479 . S
C325 C324 1.405 . S
C325 H351 0.931 . S
U326 O327 2.454 . S
U326 O328 2.458 . S
U326 C329 2.984 . S
U326 C330 2.847 . S
U326 C343 2.882 . S
U326 O344 2.441 . S
U326 O345 2.420 . S
U326 O346 2.455 . S
U326 O347 2.449 . S
O327 U326 2.454 . S
O327 C329 1.353 . S
O328 U326 2.458 . S
O328 C329 1.286 . S
C329 U326 2.984 . S
C329 O327 1.353 . S
C329 O328 1.286 . S
C329 C331 1.363 . S
C330 C320 1.465 . S
C330 U326 2.847 . S
C330 O344 1.249 . S
C330 O345 1.202 . S
C331 C329 1.363 . S
C331 C333 1.408 . S
C331 C336 1.342 . S
C332 C333 1.310 . S
C332 C335 1.461 . S
C332 H352 0.932 . S
C333 C331 1.408 . S
C333 C332 1.310 . S
C333 H353 0.930 . S
C334 C335 1.474 . S
C334 C336 1.285 . S
C334 H354 0.929 . S
C335 C332 1.461 . S
C335 C334 1.474 . S
C336 C331 1.342 . S
C336 C334 1.285 . S
C336 H355 0.930 . S
C337 C340 1.424 . S
C337 C342 1.245 . S
C337 C343 1.428 . S
C338 C341 1.260 . S
C338 C342 1.477 . S
C338 H356 0.932 . S
C339 C340 1.384 . S
C339 C341 1.479 . S
C339 H357 0.929 . S
C340 C337 1.424 . S
C340 C339 1.384 . S
C340 H358 0.928 . S
C341 C338 1.260 . S
C341 C339 1.479 . S
C342 C337 1.245 . S
C342 C338 1.477 . S
C342 H359 0.932 . S
C343 U326 2.882 . S
C343 C337 1.428 . S
C343 O346 1.301 . S
C343 O347 1.282 . S
O344 U326 2.441 . S
O344 C330 1.249 . S
O345 U326 2.420 . S
O345 C330 1.202 . S
O346 U326 2.455 . S
O346 C343 1.301 . S
O347 U326 2.449 . S
O347 C343 1.282 . S
H348 C321 0.931 . S
H349 C323 0.929 . S
H350 C324 0.930 . S
H351 C325 0.931 . S
H352 C332 0.932 . S
H353 C333 0.930 . S
H354 C334 0.929 . S
H355 C336 0.930 . S
H356 C338 0.932 . S
H357 C339 0.929 . S
H358 C340 0.928 . S
H359 C342 0.932 . S
C360 C361 1.264 . S
C360 C365 1.479 . S
C360 C370 1.465 . S
C361 C360 1.264 . S
C361 C363 1.339 . S
C361 H388 0.931 . S
C362 C363 1.395 . S
C362 C364 1.320 . S
C363 C361 1.339 . S
C363 C362 1.395 . S
C363 H389 0.929 . S
C364 C362 1.320 . S
C364 C365 1.405 . S
C364 H390 0.930 . S
C365 C360 1.479 . S
C365 C364 1.405 . S
C365 H391 0.931 . S
U366 O367 2.454 . S
U366 O368 2.458 . S
U366 C369 2.984 . S
U366 C370 2.847 . S
U366 C383 2.882 . S
U366 O384 2.441 . S
U366 O385 2.420 . S
U366 O386 2.455 . S
U366 O387 2.449 . S
O367 U366 2.454 . S
O367 C369 1.353 . S
O368 U366 2.458 . S
O368 C369 1.286 . S
C369 U366 2.984 . S
C369 O367 1.353 . S
C369 O368 1.286 . S
C369 C371 1.363 . S
C370 C360 1.465 . S
C370 U366 2.847 . S
C370 O384 1.249 . S
C370 O385 1.202 . S
C371 C369 1.363 . S
C371 C373 1.408 . S
C371 C376 1.342 . S
C372 C373 1.310 . S
C372 C375 1.461 . S
C372 H392 0.932 . S
C373 C371 1.408 . S
C373 C372 1.310 . S
C373 H393 0.930 . S
C374 C375 1.474 . S
C374 C376 1.285 . S
C374 H394 0.929 . S
C375 C372 1.461 . S
C375 C374 1.474 . S
C376 C371 1.342 . S
C376 C374 1.285 . S
C376 H395 0.930 . S
C377 C380 1.424 . S
C377 C382 1.245 . S
C377 C383 1.428 . S
C378 C381 1.260 . S
C378 C382 1.477 . S
C378 H396 0.932 . S
C379 C380 1.384 . S
C379 C381 1.479 . S
C379 H397 0.929 . S
C380 C377 1.424 . S
C380 C379 1.384 . S
C380 H398 0.928 . S
C381 C378 1.260 . S
C381 C379 1.479 . S
C382 C377 1.245 . S
C382 C378 1.477 . S
C382 H399 0.932 . S
C383 U366 2.882 . S
C383 C377 1.428 . S
C383 O386 1.301 . S
C383 O387 1.282 . S
O384 U366 2.441 . S
O384 C370 1.249 . S
O385 U366 2.420 . S
O385 C370 1.202 . S
O386 U366 2.455 . S
O386 C383 1.301 . S
O387 U366 2.449 . S
O387 C383 1.282 . S
H388 C361 0.931 . S
H389 C363 0.929 . S
H390 C364 0.930 . S
H391 C365 0.931 . S
H392 C372 0.932 . S
H393 C373 0.930 . S
H394 C374 0.929 . S
H395 C376 0.930 . S
H396 C378 0.932 . S
H397 C379 0.929 . S
H398 C380 0.928 . S
H399 C382 0.932 . S
C400 C401 1.264 . S
C400 C405 1.479 . S
C400 C410 1.465 . S
C401 C400 1.264 . S
C401 C403 1.339 . S
C401 H428 0.931 . S
C402 C403 1.395 . S
C402 C404 1.320 . S
C403 C401 1.339 . S
C403 C402 1.395 . S
C403 H429 0.929 . S
C404 C402 1.320 . S
C404 C405 1.405 . S
C404 H430 0.930 . S
C405 C400 1.479 . S
C405 C404 1.405 . S
C405 H431 0.931 . S
U406 O407 2.454 . S
U406 O408 2.458 . S
U406 C409 2.984 . S
U406 C410 2.847 . S
U406 C423 2.882 . S
U406 O424 2.441 . S
U406 O425 2.420 . S
U406 O426 2.455 . S
U406 O427 2.449 . S
O407 U406 2.454 . S
O407 C409 1.353 . S
O408 U406 2.458 . S
O408 C409 1.286 . S
C409 U406 2.984 . S
C409 O407 1.353 . S
C409 O408 1.286 . S
C409 C411 1.363 . S
C410 C400 1.465 . S
C410 U406 2.847 . S
C410 O424 1.249 . S
C410 O425 1.202 . S
C411 C409 1.363 . S
C411 C413 1.408 . S
C411 C416 1.342 . S
C412 C413 1.310 . S
C412 C415 1.461 . S
C412 H432 0.932 . S
C413 C411 1.408 . S
C413 C412 1.310 . S
C413 H433 0.930 . S
C414 C415 1.474 . S
C414 C416 1.285 . S
C414 H434 0.929 . S
C415 C412 1.461 . S
C415 C414 1.474 . S
C416 C411 1.342 . S
C416 C414 1.285 . S
C416 H435 0.930 . S
C417 C420 1.424 . S
C417 C422 1.245 . S
C417 C423 1.428 . S
C418 C421 1.260 . S
C418 C422 1.477 . S
C418 H436 0.932 . S
C419 C420 1.384 . S
C419 C421 1.479 . S
C419 H437 0.929 . S
C420 C417 1.424 . S
C420 C419 1.384 . S
C420 H438 0.928 . S
C421 C418 1.260 . S
C421 C419 1.479 . S
C422 C417 1.245 . S
C422 C418 1.477 . S
C422 H439 0.932 . S
C423 U406 2.882 . S
C423 C417 1.428 . S
C423 O426 1.301 . S
C423 O427 1.282 . S
O424 U406 2.441 . S
O424 C410 1.249 . S
O425 U406 2.420 . S
O425 C410 1.202 . S
O426 U406 2.455 . S
O426 C423 1.301 . S
O427 U406 2.449 . S
O427 C423 1.282 . S
H428 C401 0.931 . S
H429 C403 0.929 . S
H430 C404 0.930 . S
H431 C405 0.931 . S
H432 C412 0.932 . S
H433 C413 0.930 . S
H434 C414 0.929 . S
H435 C416 0.930 . S
H436 C418 0.932 . S
H437 C419 0.929 . S
H438 C420 0.928 . S
H439 C422 0.932 . S
C440 C441 1.264 . S
C440 C445 1.479 . S
C440 C450 1.465 . S
C441 C440 1.264 . S
C441 C443 1.339 . S
C441 H468 0.931 . S
C442 C443 1.395 . S
C442 C444 1.320 . S
C443 C441 1.339 . S
C443 C442 1.395 . S
C443 H469 0.929 . S
C444 C442 1.320 . S
C444 C445 1.405 . S
C444 H470 0.930 . S
C445 C440 1.479 . S
C445 C444 1.405 . S
C445 H471 0.931 . S
U446 O447 2.454 . S
U446 O448 2.458 . S
U446 C449 2.984 . S
U446 C450 2.847 . S
U446 C463 2.882 . S
U446 O464 2.441 . S
U446 O465 2.420 . S
U446 O466 2.455 . S
U446 O467 2.449 . S
O447 U446 2.454 . S
O447 C449 1.353 . S
O448 U446 2.458 . S
O448 C449 1.286 . S
C449 U446 2.984 . S
C449 O447 1.353 . S
C449 O448 1.286 . S
C449 C451 1.363 . S
C450 C440 1.465 . S
C450 U446 2.847 . S
C450 O464 1.249 . S
C450 O465 1.202 . S
C451 C449 1.363 . S
C451 C453 1.408 . S
C451 C456 1.342 . S
C452 C453 1.310 . S
C452 C455 1.461 . S
C452 H472 0.932 . S
C453 C451 1.408 . S
C453 C452 1.310 . S
C453 H473 0.930 . S
C454 C455 1.474 . S
C454 C456 1.285 . S
C454 H474 0.929 . S
C455 C452 1.461 . S
C455 C454 1.474 . S
C456 C451 1.342 . S
C456 C454 1.285 . S
C456 H475 0.930 . S
C457 C460 1.424 . S
C457 C462 1.245 . S
C457 C463 1.428 . S
C458 C461 1.260 . S
C458 C462 1.477 . S
C458 H476 0.932 . S
C459 C460 1.384 . S
C459 C461 1.479 . S
C459 H477 0.929 . S
C460 C457 1.424 . S
C460 C459 1.384 . S
C460 H478 0.928 . S
C461 C458 1.260 . S
C461 C459 1.479 . S
C462 C457 1.245 . S
C462 C458 1.477 . S
C462 H479 0.932 . S
C463 U446 2.882 . S
C463 C457 1.428 . S
C463 O466 1.301 . S
C463 O467 1.282 . S
O464 U446 2.441 . S
O464 C450 1.249 . S
O465 U446 2.420 . S
O465 C450 1.202 . S
O466 U446 2.455 . S
O466 C463 1.301 . S
O467 U446 2.449 . S
O467 C463 1.282 . S
H468 C441 0.931 . S
H469 C443 0.929 . S
H470 C444 0.930 . S
H471 C445 0.931 . S
H472 C452 0.932 . S
H473 C453 0.930 . S
H474 C454 0.929 . S
H475 C456 0.930 . S
H476 C458 0.932 . S
H477 C459 0.929 . S
H478 C460 0.928 . S
H479 C462 0.932 . S
C480 C481 1.264 . S
C480 C485 1.479 . S
C480 C490 1.465 . S
C481 C480 1.264 . S
C481 C483 1.339 . S
C481 H508 0.931 . S
C482 C483 1.395 . S
C482 C484 1.320 . S
C483 C481 1.339 . S
C483 C482 1.395 . S
C483 H509 0.929 . S
C484 C482 1.320 . S
C484 C485 1.405 . S
C484 H510 0.930 . S
C485 C480 1.479 . S
C485 C484 1.405 . S
C485 H511 0.931 . S
U486 O487 2.454 . S
U486 O488 2.458 . S
U486 C489 2.984 . S
U486 C490 2.847 . S
U486 C503 2.882 . S
U486 O504 2.441 . S
U486 O505 2.420 . S
U486 O506 2.455 . S
U486 O507 2.449 . S
O487 U486 2.454 . S
O487 C489 1.353 . S
O488 U486 2.458 . S
O488 C489 1.286 . S
C489 U486 2.984 . S
C489 O487 1.353 . S
C489 O488 1.286 . S
C489 C491 1.363 . S
C490 C480 1.465 . S
C490 U486 2.847 . S
C490 O504 1.249 . S
C490 O505 1.202 . S
C491 C489 1.363 . S
C491 C493 1.408 . S
C491 C496 1.342 . S
C492 C493 1.310 . S
C492 C495 1.461 . S
C492 H512 0.932 . S
C493 C491 1.408 . S
C493 C492 1.310 . S
C493 H513 0.930 . S
C494 C495 1.474 . S
C494 C496 1.285 . S
C494 H514 0.929 . S
C495 C492 1.461 . S
C495 C494 1.474 . S
C496 C491 1.342 . S
C496 C494 1.285 . S
C496 H515 0.930 . S
C497 C500 1.424 . S
C497 C502 1.245 . S
C497 C503 1.428 . S
C498 C501 1.260 . S
C498 C502 1.477 . S
C498 H516 0.932 . S
C499 C500 1.384 . S
C499 C501 1.479 . S
C499 H517 0.929 . S
C500 C497 1.424 . S
C500 C499 1.384 . S
C500 H518 0.928 . S
C501 C498 1.260 . S
C501 C499 1.479 . S
C502 C497 1.245 . S
C502 C498 1.477 . S
C502 H519 0.932 . S
C503 U486 2.882 . S
C503 C497 1.428 . S
C503 O506 1.301 . S
C503 O507 1.282 . S
O504 U486 2.441 . S
O504 C490 1.249 . S
O505 U486 2.420 . S
O505 C490 1.202 . S
O506 U486 2.455 . S
O506 C503 1.301 . S
O507 U486 2.449 . S
O507 C503 1.282 . S
H508 C481 0.931 . S
H509 C483 0.929 . S
H510 C484 0.930 . S
H511 C485 0.931 . S
H512 C492 0.932 . S
H513 C493 0.930 . S
H514 C494 0.929 . S
H515 C496 0.930 . S
H516 C498 0.932 . S
H517 C499 0.929 . S
H518 C500 0.928 . S
H519 C502 0.932 . S
C520 C521 1.264 . S
C520 C525 1.479 . S
C520 C530 1.465 . S
C521 C520 1.264 . S
C521 C523 1.339 . S
C521 H548 0.931 . S
C522 C523 1.395 . S
C522 C524 1.320 . S
C523 C521 1.339 . S
C523 C522 1.395 . S
C523 H549 0.929 . S
C524 C522 1.320 . S
C524 C525 1.405 . S
C524 H550 0.930 . S
C525 C520 1.479 . S
C525 C524 1.405 . S
C525 H551 0.931 . S
U526 O527 2.454 . S
U526 O528 2.458 . S
U526 C529 2.984 . S
U526 C530 2.847 . S
U526 C543 2.882 . S
U526 O544 2.441 . S
U526 O545 2.420 . S
U526 O546 2.455 . S
U526 O547 2.449 . S
O527 U526 2.454 . S
O527 C529 1.353 . S
O528 U526 2.458 . S
O528 C529 1.286 . S
C529 U526 2.984 . S
C529 O527 1.353 . S
C529 O528 1.286 . S
C529 C531 1.363 . S
C530 C520 1.465 . S
C530 U526 2.847 . S
C530 O544 1.249 . S
C530 O545 1.202 . S
C531 C529 1.363 . S
C531 C533 1.408 . S
C531 C536 1.342 . S
C532 C533 1.310 . S
C532 C535 1.461 . S
C532 H552 0.932 . S
C533 C531 1.408 . S
C533 C532 1.310 . S
C533 H553 0.930 . S
C534 C535 1.474 . S
C534 C536 1.285 . S
C534 H554 0.929 . S
C535 C532 1.461 . S
C535 C534 1.474 . S
C536 C531 1.342 . S
C536 C534 1.285 . S
C536 H555 0.930 . S
C537 C540 1.424 . S
C537 C542 1.245 . S
C537 C543 1.428 . S
C538 C541 1.260 . S
C538 C542 1.477 . S
C538 H556 0.932 . S
C539 C540 1.384 . S
C539 C541 1.479 . S
C539 H557 0.929 . S
C540 C537 1.424 . S
C540 C539 1.384 . S
C540 H558 0.928 . S
C541 C538 1.260 . S
C541 C539 1.479 . S
C542 C537 1.245 . S
C542 C538 1.477 . S
C542 H559 0.932 . S
C543 U526 2.882 . S
C543 C537 1.428 . S
C543 O546 1.301 . S
C543 O547 1.282 . S
O544 U526 2.441 . S
O544 C530 1.249 . S
O545 U526 2.420 . S
O545 C530 1.202 . S
O546 U526 2.455 . S
O546 C543 1.301 . S
O547 U526 2.449 . S
O547 C543 1.282 . S
H548 C521 0.931 . S
H549 C523 0.929 . S
H550 C524 0.930 . S
H551 C525 0.931 . S
H552 C532 0.932 . S
H553 C533 0.930 . S
H554 C534 0.929 . S
H555 C536 0.930 . S
H556 C538 0.932 . S
H557 C539 0.929 . S
H558 C540 0.928 . S
H559 C542 0.932 . S
C560 C561 1.264 . S
C560 C565 1.479 . S
C560 C570 1.465 . S
C561 C560 1.264 . S
C561 C563 1.339 . S
C561 H588 0.931 . S
C562 C563 1.395 . S
C562 C564 1.320 . S
C563 C561 1.339 . S
C563 C562 1.395 . S
C563 H589 0.929 . S
C564 C562 1.320 . S
C564 C565 1.405 . S
C564 H590 0.930 . S
C565 C560 1.479 . S
C565 C564 1.405 . S
C565 H591 0.931 . S
U566 O567 2.454 . S
U566 O568 2.458 . S
U566 C569 2.984 . S
U566 C570 2.847 . S
U566 C583 2.882 . S
U566 O584 2.441 . S
U566 O585 2.420 . S
U566 O586 2.455 . S
U566 O587 2.449 . S
O567 U566 2.454 . S
O567 C569 1.353 . S
O568 U566 2.458 . S
O568 C569 1.286 . S
C569 U566 2.984 . S
C569 O567 1.353 . S
C569 O568 1.286 . S
C569 C571 1.363 . S
C570 C560 1.465 . S
C570 U566 2.847 . S
C570 O584 1.249 . S
C570 O585 1.202 . S
C571 C569 1.363 . S
C571 C573 1.408 . S
C571 C576 1.342 . S
C572 C573 1.310 . S
C572 C575 1.461 . S
C572 H592 0.932 . S
C573 C571 1.408 . S
C573 C572 1.310 . S
C573 H593 0.930 . S
C574 C575 1.474 . S
C574 C576 1.285 . S
C574 H594 0.929 . S
C575 C572 1.461 . S
C575 C574 1.474 . S
C576 C571 1.342 . S
C576 C574 1.285 . S
C576 H595 0.930 . S
C577 C580 1.424 . S
C577 C582 1.245 . S
C577 C583 1.428 . S
C578 C581 1.260 . S
C578 C582 1.477 . S
C578 H596 0.932 . S
C579 C580 1.384 . S
C579 C581 1.479 . S
C579 H597 0.929 . S
C580 C577 1.424 . S
C580 C579 1.384 . S
C580 H598 0.928 . S
C581 C578 1.260 . S
C581 C579 1.479 . S
C582 C577 1.245 . S
C582 C578 1.477 . S
C582 H599 0.932 . S
C583 U566 2.882 . S
C583 C577 1.428 . S
C583 O586 1.301 . S
C583 O587 1.282 . S
O584 U566 2.441 . S
O584 C570 1.249 . S
O585 U566 2.420 . S
O585 C570 1.202 . S
O586 U566 2.455 . S
O586 C583 1.301 . S
O587 U566 2.449 . S
O587 C583 1.282 . S
H588 C561 0.931 . S
H589 C563 0.929 . S
H590 C564 0.930 . S
H591 C565 0.931 . S
H592 C572 0.932 . S
H593 C573 0.930 . S
H594 C574 0.929 . S
H595 C576 0.930 . S
H596 C578 0.932 . S
H597 C579 0.929 . S
H598 C580 0.928 . S
H599 C582 0.932 . S
C600 C601 1.264 . S
C600 C605 1.479 . S
C600 C610 1.465 . S
C601 C600 1.264 . S
C601 C603 1.339 . S
C601 H628 0.931 . S
C602 C603 1.395 . S
C602 C604 1.320 . S
C603 C601 1.339 . S
C603 C602 1.395 . S
C603 H629 0.929 . S
C604 C602 1.320 . S
C604 C605 1.405 . S
C604 H630 0.930 . S
C605 C600 1.479 . S
C605 C604 1.405 . S
C605 H631 0.931 . S
U606 O607 2.454 . S
U606 O608 2.458 . S
U606 C609 2.984 . S
U606 C610 2.847 . S
U606 C623 2.882 . S
U606 O624 2.441 . S
U606 O625 2.420 . S
U606 O626 2.455 . S
U606 O627 2.449 . S
O607 U606 2.454 . S
O607 C609 1.353 . S
O608 U606 2.458 . S
O608 C609 1.286 . S
C609 U606 2.984 . S
C609 O607 1.353 . S
C609 O608 1.286 . S
C609 C611 1.363 . S
C610 C600 1.465 . S
C610 U606 2.847 . S
C610 O624 1.249 . S
C610 O625 1.202 . S
C611 C609 1.363 . S
C611 C613 1.408 . S
C611 C616 1.342 . S
C612 C613 1.310 . S
C612 C615 1.461 . S
C612 H632 0.932 . S
C613 C611 1.408 . S
C613 C612 1.310 . S
C613 H633 0.930 . S
C614 C615 1.474 . S
C614 C616 1.285 . S
C614 H634 0.929 . S
C615 C612 1.461 . S
C615 C614 1.474 . S
C616 C611 1.342 . S
C616 C614 1.285 . S
C616 H635 0.930 . S
C617 C620 1.424 . S
C617 C622 1.245 . S
C617 C623 1.428 . S
C618 C621 1.260 . S
C618 C622 1.477 . S
C618 H636 0.932 . S
C619 C620 1.384 . S
C619 C621 1.479 . S
C619 H637 0.929 . S
C620 C617 1.424 . S
C620 C619 1.384 . S
C620 H638 0.928 . S
C621 C618 1.260 . S
C621 C619 1.479 . S
C622 C617 1.245 . S
C622 C618 1.477 . S
C622 H639 0.932 . S
C623 U606 2.882 . S
C623 C617 1.428 . S
C623 O626 1.301 . S
C623 O627 1.282 . S
O624 U606 2.441 . S
O624 C610 1.249 . S
O625 U606 2.420 . S
O625 C610 1.202 . S
O626 U606 2.455 . S
O626 C623 1.301 . S
O627 U606 2.449 . S
O627 C623 1.282 . S
H628 C601 0.931 . S
H629 C603 0.929 . S
H630 C604 0.930 . S
H631 C605 0.931 . S
H632 C612 0.932 . S
H633 C613 0.930 . S
H634 C614 0.929 . S
H635 C616 0.930 . S
H636 C618 0.932 . S
H637 C619 0.929 . S
H638 C620 0.928 . S
H639 C622 0.932 . S
C640 C641 1.264 . S
C640 C645 1.479 . S
C640 C650 1.465 . S
C641 C640 1.264 . S
C641 C643 1.339 . S
C641 H668 0.931 . S
C642 C643 1.395 . S
C642 C644 1.320 . S
C643 C641 1.339 . S
C643 C642 1.395 . S
C643 H669 0.929 . S
C644 C642 1.320 . S
C644 C645 1.405 . S
C644 H670 0.930 . S
C645 C640 1.479 . S
C645 C644 1.405 . S
C645 H671 0.931 . S
U646 O647 2.454 . S
U646 O648 2.458 . S
U646 C649 2.984 . S
U646 C650 2.847 . S
U646 C663 2.882 . S
U646 O664 2.441 . S
U646 O665 2.420 . S
U646 O666 2.455 . S
U646 O667 2.449 . S
O647 U646 2.454 . S
O647 C649 1.353 . S
O648 U646 2.458 . S
O648 C649 1.286 . S
C649 U646 2.984 . S
C649 O647 1.353 . S
C649 O648 1.286 . S
C649 C651 1.363 . S
C650 C640 1.465 . S
C650 U646 2.847 . S
C650 O664 1.249 . S
C650 O665 1.202 . S
C651 C649 1.363 . S
C651 C653 1.408 . S
C651 C656 1.342 . S
C652 C653 1.310 . S
C652 C655 1.461 . S
C652 H672 0.932 . S
C653 C651 1.408 . S
C653 C652 1.310 . S
C653 H673 0.930 . S
C654 C655 1.474 . S
C654 C656 1.285 . S
C654 H674 0.929 . S
C655 C652 1.461 . S
C655 C654 1.474 . S
C656 C651 1.342 . S
C656 C654 1.285 . S
C656 H675 0.930 . S
C657 C660 1.424 . S
C657 C662 1.245 . S
C657 C663 1.428 . S
C658 C661 1.260 . S
C658 C662 1.477 . S
C658 H676 0.932 . S
C659 C660 1.384 . S
C659 C661 1.479 . S
C659 H677 0.929 . S
C660 C657 1.424 . S
C660 C659 1.384 . S
C660 H678 0.928 . S
C661 C658 1.260 . S
C661 C659 1.479 . S
C662 C657 1.245 . S
C662 C658 1.477 . S
C662 H679 0.932 . S
C663 U646 2.882 . S
C663 C657 1.428 . S
C663 O666 1.301 . S
C663 O667 1.282 . S
O664 U646 2.441 . S
O664 C650 1.249 . S
O665 U646 2.420 . S
O665 C650 1.202 . S
O666 U646 2.455 . S
O666 C663 1.301 . S
O667 U646 2.449 . S
O667 C663 1.282 . S
H668 C641 0.931 . S
H669 C643 0.929 . S
H670 C644 0.930 . S
H671 C645 0.931 . S
H672 C652 0.932 . S
H673 C653 0.930 . S
H674 C654 0.929 . S
H675 C656 0.930 . S
H676 C658 0.932 . S
H677 C659 0.929 . S
H678 C660 0.928 . S
H679 C662 0.932 . S
C680 C681 1.264 . S
C680 C685 1.479 . S
C680 C690 1.465 . S
C681 C680 1.264 . S
C681 C683 1.339 . S
C681 H708 0.931 . S
C682 C683 1.395 . S
C682 C684 1.320 . S
C683 C681 1.339 . S
C683 C682 1.395 . S
C683 H709 0.929 . S
C684 C682 1.320 . S
C684 C685 1.405 . S
C684 H710 0.930 . S
C685 C680 1.479 . S
C685 C684 1.405 . S
C685 H711 0.931 . S
U686 O687 2.454 . S
U686 O688 2.458 . S
U686 C689 2.984 . S
U686 C690 2.847 . S
U686 C703 2.882 . S
U686 O704 2.441 . S
U686 O705 2.420 . S
U686 O706 2.455 . S
U686 O707 2.449 . S
O687 U686 2.454 . S
O687 C689 1.353 . S
O688 U686 2.458 . S
O688 C689 1.286 . S
C689 U686 2.984 . S
C689 O687 1.353 . S
C689 O688 1.286 . S
C689 C691 1.363 . S
C690 C680 1.465 . S
C690 U686 2.847 . S
C690 O704 1.249 . S
C690 O705 1.202 . S
C691 C689 1.363 . S
C691 C693 1.408 . S
C691 C696 1.342 . S
C692 C693 1.310 . S
C692 C695 1.461 . S
C692 H712 0.932 . S
C693 C691 1.408 . S
C693 C692 1.310 . S
C693 H713 0.930 . S
C694 C695 1.474 . S
C694 C696 1.285 . S
C694 H714 0.929 . S
C695 C692 1.461 . S
C695 C694 1.474 . S
C696 C691 1.342 . S
C696 C694 1.285 . S
C696 H715 0.930 . S
C697 C700 1.424 . S
C697 C702 1.245 . S
C697 C703 1.428 . S
C698 C701 1.260 . S
C698 C702 1.477 . S
C698 H716 0.932 . S
C699 C700 1.384 . S
C699 C701 1.479 . S
C699 H717 0.929 . S
C700 C697 1.424 . S
C700 C699 1.384 . S
C700 H718 0.928 . S
C701 C698 1.260 . S
C701 C699 1.479 . S
C702 C697 1.245 . S
C702 C698 1.477 . S
C702 H719 0.932 . S
C703 U686 2.882 . S
C703 C697 1.428 . S
C703 O706 1.301 . S
C703 O707 1.282 . S
O704 U686 2.441 . S
O704 C690 1.249 . S
O705 U686 2.420 . S
O705 C690 1.202 . S
O706 U686 2.455 . S
O706 C703 1.301 . S
O707 U686 2.449 . S
O707 C703 1.282 . S
H708 C681 0.931 . S
H709 C683 0.929 . S
H710 C684 0.930 . S
H711 C685 0.931 . S
H712 C692 0.932 . S
H713 C693 0.930 . S
H714 C694 0.929 . S
H715 C696 0.930 . S
H716 C698 0.932 . S
H717 C699 0.929 . S
H718 C700 0.928 . S
H719 C702 0.932 . S
O720 Mn721 2.163 1_565 S
O720 C734 1.244 . S
Mn721 O720 2.163 1_545 S
Mn721 O724 2.160 . S
Mn721 O725 2.221 1_545 S
Mn721 O727 2.163 1_554 S
Mn721 O729 2.160 . S
Mn721 O739 2.221 . S
O722 Mn723 2.087 1_565 S
O722 C734 1.256 . S
Mn723 O722 2.087 1_545 S
Mn723 O730 2.089 . S
Mn723 O739 2.290 . S
Mn723 O740 2.251 . S
O724 Mn721 2.160 . S
O724 C735 1.239 1_554 S
O725 Mn721 2.221 1_565 S
O725 Mn726 2.290 1_554 S
O725 C736 1.278 . S
Mn726 O725 2.290 1_556 S
Mn726 O728 2.089 1_565 S
Mn726 O731 2.251 . S
Mn726 O732 2.087 . S
O727 Mn721 2.163 1_556 S
O727 C737 1.244 . S
O728 Mn726 2.089 1_545 S
O728 C735 1.256 . S
O729 Mn721 2.160 . S
O729 C738 1.239 . S
O730 Mn723 2.089 . S
O730 C738 1.256 . S
O731 Mn726 2.251 . S
O731 C736 1.241 1_556 S
O732 Mn726 2.087 . S
O732 C737 1.256 1_565 S
C733 O739 1.278 . S
C733 O740 1.241 . S
C734 O720 1.244 . S
C734 O722 1.256 . S
C735 O724 1.239 1_556 S
C735 O728 1.256 . S
C736 O725 1.278 . S
C736 O731 1.241 1_554 S
C737 O727 1.244 . S
C737 O732 1.256 1_545 S
C738 O729 1.239 . S
C738 O730 1.256 . S
O739 Mn721 2.221 . S
O739 Mn723 2.290 . S
O739 C733 1.278 . S
O740 Mn723 2.251 . S
O740 C733 1.241 . S
O741 Mn742 2.129 1_455 S
O741 C755 1.244 . S
Mn742 O741 2.129 1_655 S
Mn742 O745 2.194 . S
Mn742 O746 2.218 1_655 S
Mn742 O748 2.163 1_554 S
Mn742 O750 2.158 . S
Mn742 O760 2.227 . S
O743 Mn744 2.087 1_455 S
O743 C755 1.256 . S
Mn744 O743 2.087 1_655 S
Mn744 O751 2.089 1_655 S
Mn744 O760 2.290 . S
Mn744 O761 2.251 . S
O745 Mn742 2.194 . S
O745 C756 1.239 1_554 S
O746 Mn742 2.218 1_455 S
O746 Mn747 2.290 1_554 S
O746 C757 1.278 . S
Mn747 O746 2.290 1_556 S
Mn747 O749 2.089 1_455 S
Mn747 O752 2.251 . S
Mn747 O753 2.087 . S
O748 Mn742 2.163 1_556 S
O748 C758 1.245 1_655 S
O749 Mn747 2.089 1_655 S
O749 C756 1.256 . S
O750 Mn742 2.158 . S
O750 C759 1.215 1_655 S
O751 Mn744 2.089 1_455 S
O751 C759 1.256 . S
O752 Mn747 2.251 . S
O752 C757 1.241 1_556 S
O753 Mn747 2.087 . S
O753 C758 1.255 . S
C754 O760 1.278 . S
C754 O761 1.241 . S
C755 O741 1.244 . S
C755 O743 1.256 . S
C756 O745 1.239 1_556 S
C756 O749 1.256 . S
C757 O746 1.278 . S
C757 O752 1.241 1_554 S
C758 O748 1.245 1_455 S
C758 O753 1.255 . S
C759 O750 1.215 1_455 S
C759 O751 1.256 . S
O760 Mn742 2.227 . S
O760 Mn744 2.290 . S
O760 C754 1.278 . S
O761 Mn744 2.251 . S
O761 C754 1.241 . S
O762 Mn763 2.160 1_556 S
O762 C776 1.263 . S
Mn763 O762 2.160 1_554 S
Mn763 O766 2.159 . S
Mn763 O767 2.224 . S
Mn763 O769 2.194 . S
Mn763 O771 2.128 1_554 S
Mn763 O781 2.217 1_554 S
O764 Mn765 2.087 . S
O764 C776 1.256 . S
Mn765 O764 2.087 . S
Mn765 O772 2.089 . S
Mn765 O781 2.290 . S
Mn765 O782 2.207 1_556 S
O766 Mn763 2.159 . S
O766 C777 1.279 . S
O767 Mn763 2.224 . S
O767 Mn768 2.290 . S
O767 C778 1.278 . S
Mn768 O767 2.290 . S
Mn768 O770 2.089 . S
Mn768 O773 2.251 . S
Mn768 O774 2.087 . S
O769 Mn763 2.194 . S
O769 C779 1.244 . S
O770 Mn768 2.089 . S
O770 C777 1.256 . S
O771 Mn763 2.128 1_556 S
O771 C780 1.239 . S
O772 Mn765 2.089 . S
O772 C780 1.256 . S
O773 Mn768 2.251 . S
O773 C778 1.241 . S
O774 Mn768 2.087 . S
O774 C779 1.256 . S
C775 O781 1.278 1_554 S
C775 O782 1.256 . S
C776 O762 1.263 . S
C776 O764 1.256 . S
C777 O766 1.279 . S
C777 O770 1.256 . S
C778 O767 1.278 . S
C778 O773 1.241 . S
C779 O769 1.244 . S
C779 O774 1.256 . S
C780 O771 1.239 . S
C780 O772 1.256 . S
O781 Mn763 2.217 1_556 S
O781 Mn765 2.290 . S
O781 C775 1.278 1_556 S
O782 Mn765 2.207 1_554 S
O782 C775 1.256 . S
O783 Mn784 2.163 . S
O783 C797 1.244 . S
Mn784 O783 2.163 . S
Mn784 O787 2.160 . S
Mn784 O788 2.221 . S
Mn784 O790 2.163 . S
Mn784 O792 2.160 . S
Mn784 O802 2.221 . S
O785 Mn786 2.087 . S
O785 C797 1.256 . S
Mn786 O785 2.087 . S
Mn786 O793 2.089 . S
Mn786 O802 2.290 . S
Mn786 O803 2.251 . S
O787 Mn784 2.160 . S
O787 C798 1.239 . S
O788 Mn784 2.221 . S
O788 Mn789 2.290 . S
O788 C799 1.278 . S
Mn789 O788 2.290 . S
Mn789 O791 2.089 . S
Mn789 O794 2.251 . S
Mn789 O795 2.087 . S
O790 Mn784 2.163 . S
O790 C800 1.244 . S
O791 Mn789 2.089 . S
O791 C798 1.256 . S
O792 Mn784 2.160 . S
O792 C801 1.239 . S
O793 Mn786 2.089 . S
O793 C801 1.256 . S
O794 Mn789 2.251 . S
O794 C799 1.241 . S
O795 Mn789 2.087 . S
O795 C800 1.256 . S
C796 O802 1.278 . S
C796 O803 1.241 . S
C797 O783 1.244 . S
C797 O785 1.256 . S
C798 O787 1.239 . S
C798 O791 1.256 . S
C799 O788 1.278 . S
C799 O794 1.241 . S
C800 O790 1.244 . S
C800 O795 1.256 . S
C801 O792 1.239 . S
C801 O793 1.256 . S
O802 Mn784 2.221 . S
O802 Mn786 2.290 . S
O802 C796 1.278 . S
O803 Mn786 2.251 . S
O803 C796 1.241 . S
O804 Mn805 2.163 . S
O804 C818 1.244 . S
Mn805 O804 2.163 . S
Mn805 O808 2.160 . S
Mn805 O809 2.221 . S
Mn805 O811 2.163 . S
Mn805 O813 2.160 . S
Mn805 O823 2.221 . S
O806 Mn807 2.087 . S
O806 C818 1.256 . S
Mn807 O806 2.087 . S
Mn807 O814 2.089 . S
Mn807 O823 2.290 . S
Mn807 O824 2.251 . S
O808 Mn805 2.160 . S
O808 C819 1.239 . S
O809 Mn805 2.221 . S
O809 Mn810 2.290 . S
O809 C820 1.278 . S
Mn810 O809 2.290 . S
Mn810 O812 2.089 . S
Mn810 O815 2.251 . S
Mn810 O816 2.087 . S
O811 Mn805 2.163 . S
O811 C821 1.244 . S
O812 Mn810 2.089 . S
O812 C819 1.256 . S
O813 Mn805 2.160 . S
O813 C822 1.239 . S
O814 Mn807 2.089 . S
O814 C822 1.256 . S
O815 Mn810 2.251 . S
O815 C820 1.241 . S
O816 Mn810 2.087 . S
O816 C821 1.256 . S
C817 O823 1.278 . S
C817 O824 1.241 . S
C818 O804 1.244 . S
C818 O806 1.256 . S
C819 O808 1.239 . S
C819 O812 1.256 . S
C820 O809 1.278 . S
C820 O815 1.241 . S
C821 O811 1.244 . S
C821 O816 1.256 . S
C822 O813 1.239 . S
C822 O814 1.256 . S
O823 Mn805 2.221 . S
O823 Mn807 2.290 . S
O823 C817 1.278 . S
O824 Mn807 2.251 . S
O824 C817 1.241 . S
O825 Mn826 2.163 . S
O825 C839 1.244 . S
Mn826 O825 2.163 . S
Mn826 O829 2.160 . S
Mn826 O830 2.221 . S
Mn826 O832 2.163 . S
Mn826 O834 2.160 . S
Mn826 O844 2.221 . S
O827 Mn828 2.087 . S
O827 C839 1.256 . S
Mn828 O827 2.087 . S
Mn828 O835 2.089 . S
Mn828 O844 2.290 . S
Mn828 O845 2.251 . S
O829 Mn826 2.160 . S
O829 C840 1.239 . S
O830 Mn826 2.221 . S
O830 Mn831 2.290 . S
O830 C841 1.278 . S
Mn831 O830 2.290 . S
Mn831 O833 2.089 . S
Mn831 O836 2.251 . S
Mn831 O837 2.087 . S
O832 Mn826 2.163 . S
O832 C842 1.244 . S
O833 Mn831 2.089 . S
O833 C840 1.256 . S
O834 Mn826 2.160 . S
O834 C843 1.239 . S
O835 Mn828 2.089 . S
O835 C843 1.256 . S
O836 Mn831 2.251 . S
O836 C841 1.241 . S
O837 Mn831 2.087 . S
O837 C842 1.256 . S
C838 O844 1.278 . S
C838 O845 1.241 . S
C839 O825 1.244 . S
C839 O827 1.256 . S
C840 O829 1.239 . S
C840 O833 1.256 . S
C841 O830 1.278 . S
C841 O836 1.241 . S
C842 O832 1.244 . S
C842 O837 1.256 . S
C843 O834 1.239 . S
C843 O835 1.256 . S
O844 Mn826 2.221 . S
O844 Mn828 2.290 . S
O844 C838 1.278 . S
O845 Mn828 2.251 . S
O845 C838 1.241 . S
O846 Mn847 2.163 . S
O846 C860 1.244 . S
Mn847 O846 2.163 . S
Mn847 O850 2.160 . S
Mn847 O851 2.221 . S
Mn847 O853 2.163 . S
Mn847 O855 2.160 . S
Mn847 O865 2.221 . S
O848 Mn849 2.087 . S
O848 C860 1.256 . S
Mn849 O848 2.087 . S
Mn849 O856 2.089 . S
Mn849 O865 2.290 . S
Mn849 O866 2.251 . S
O850 Mn847 2.160 . S
O850 C861 1.239 . S
O851 Mn847 2.221 . S
O851 Mn852 2.290 . S
O851 C862 1.278 . S
Mn852 O851 2.290 . S
Mn852 O854 2.089 . S
Mn852 O857 2.251 . S
Mn852 O858 2.087 . S
O853 Mn847 2.163 . S
O853 C863 1.244 . S
O854 Mn852 2.089 . S
O854 C861 1.256 . S
O855 Mn847 2.160 . S
O855 C864 1.239 . S
O856 Mn849 2.089 . S
O856 C864 1.256 . S
O857 Mn852 2.251 . S
O857 C862 1.241 . S
O858 Mn852 2.087 . S
O858 C863 1.256 . S
C859 O865 1.278 . S
C859 O866 1.241 . S
C860 O846 1.244 . S
C860 O848 1.256 . S
C861 O850 1.239 . S
C861 O854 1.256 . S
C862 O851 1.278 . S
C862 O857 1.241 . S
C863 O853 1.244 . S
C863 O858 1.256 . S
C864 O855 1.239 . S
C864 O856 1.256 . S
O865 Mn847 2.221 . S
O865 Mn849 2.290 . S
O865 C859 1.278 . S
O866 Mn849 2.251 . S
O866 C859 1.241 . S
O867 Mn868 2.163 . S
O867 C881 1.244 . S
Mn868 O867 2.163 . S
Mn868 O871 2.160 . S
Mn868 O872 2.221 . S
Mn868 O874 2.163 . S
Mn868 O876 2.160 . S
Mn868 O886 2.221 . S
O869 Mn870 2.087 . S
O869 C881 1.256 . S
Mn870 O869 2.087 . S
Mn870 O877 2.089 . S
Mn870 O886 2.290 . S
Mn870 O887 2.251 . S
O871 Mn868 2.160 . S
O871 C882 1.239 . S
O872 Mn868 2.221 . S
O872 Mn873 2.290 . S
O872 C883 1.278 . S
Mn873 O872 2.290 . S
Mn873 O875 2.089 . S
Mn873 O878 2.251 . S
Mn873 O879 2.087 . S
O874 Mn868 2.163 . S
O874 C884 1.244 . S
O875 Mn873 2.089 . S
O875 C882 1.256 . S
O876 Mn868 2.160 . S
O876 C885 1.239 . S
O877 Mn870 2.089 . S
O877 C885 1.256 . S
O878 Mn873 2.251 . S
O878 C883 1.241 . S
O879 Mn873 2.087 . S
O879 C884 1.256 . S
C880 O886 1.278 . S
C880 O887 1.241 . S
C881 O867 1.244 . S
C881 O869 1.256 . S
C882 O871 1.239 . S
C882 O875 1.256 . S
C883 O872 1.278 . S
C883 O878 1.241 . S
C884 O874 1.244 . S
C884 O879 1.256 . S
C885 O876 1.239 . S
C885 O877 1.256 . S
O886 Mn868 2.221 . S
O886 Mn870 2.290 . S
O886 C880 1.278 . S
O887 Mn870 2.251 . S
O887 C880 1.241 . S
O888 Mn889 2.163 . S
O888 C902 1.244 . S
Mn889 O888 2.163 . S
Mn889 O892 2.160 . S
Mn889 O893 2.221 . S
Mn889 O895 2.163 . S
Mn889 O897 2.160 . S
Mn889 O907 2.221 . S
O890 Mn891 2.087 . S
O890 C902 1.256 . S
Mn891 O890 2.087 . S
Mn891 O898 2.089 . S
Mn891 O907 2.290 . S
Mn891 O908 2.251 . S
O892 Mn889 2.160 . S
O892 C903 1.239 . S
O893 Mn889 2.221 . S
O893 Mn894 2.290 . S
O893 C904 1.278 . S
Mn894 O893 2.290 . S
Mn894 O896 2.089 . S
Mn894 O899 2.251 . S
Mn894 O900 2.087 . S
O895 Mn889 2.163 . S
O895 C905 1.244 . S
O896 Mn894 2.089 . S
O896 C903 1.256 . S
O897 Mn889 2.160 . S
O897 C906 1.239 . S
O898 Mn891 2.089 . S
O898 C906 1.256 . S
O899 Mn894 2.251 . S
O899 C904 1.241 . S
O900 Mn894 2.087 . S
O900 C905 1.256 . S
C901 O907 1.278 . S
C901 O908 1.241 . S
C902 O888 1.244 . S
C902 O890 1.256 . S
C903 O892 1.239 . S
C903 O896 1.256 . S
C904 O893 1.278 . S
C904 O899 1.241 . S
C905 O895 1.244 . S
C905 O900 1.256 . S
C906 O897 1.239 . S
C906 O898 1.256 . S
O907 Mn889 2.221 . S
O907 Mn891 2.290 . S
O907 C901 1.278 . S
O908 Mn891 2.251 . S
O908 C901 1.241 . S
H909 C927 0.951 . S
H910 C929 0.951 . S
H911 C931 0.950 . S
H912 C932 0.950 . S
H913 C934 0.950 . S
H914 C937 0.950 . S
H915 C938 0.950 . S
H916 C940 0.950 . S
H917 C941 0.950 . S
H918 C942 0.951 . S
H919 C944 0.951 . S
H920 C946 0.950 . S
H921 C947 0.950 . S
H922 C949 0.950 . S
H923 C952 0.950 . S
H924 C953 0.950 . S
H925 C955 0.950 . S
H926 C956 0.950 1_554 S
C927 H909 0.951 . S
C927 C928 1.366 . S
C927 C929 1.388 . S
C928 C927 1.366 . S
C928 C932 1.385 . S
C929 H910 0.951 . S
C929 C927 1.388 . S
C929 C930 1.366 . S
C930 C929 1.366 . S
C930 C931 1.414 . S
C930 C933 1.499 . S
C931 H911 0.950 . S
C931 C930 1.414 . S
C931 C932 1.374 . S
C932 H912 0.950 . S
C932 C928 1.385 . S
C932 C931 1.374 . S
C933 C930 1.499 . S
C933 C934 1.373 . S
C933 C935 1.389 . S
C934 H913 0.950 . S
C934 C933 1.373 . S
C934 C950 1.377 . S
C935 C933 1.389 . S
C935 C936 1.524 . S
C935 C949 1.377 . S
C936 C935 1.524 . S
C936 C937 1.397 . S
C936 C941 1.363 . S
C937 H914 0.950 . S
C937 C936 1.397 . S
C937 C938 1.334 . S
C938 H915 0.950 . S
C938 C937 1.334 . S
C938 C939 1.287 . S
C939 C938 1.287 . S
C939 C940 1.524 . S
C939 H958 0.913 . S
C940 H916 0.950 . S
C940 C939 1.524 . S
C940 C941 1.415 . S
C941 H917 0.950 . S
C941 C936 1.363 . S
C941 C940 1.415 . S
C942 H918 0.951 . S
C942 C943 1.366 . S
C942 C944 1.388 . S
C943 C942 1.366 . S
C943 C947 1.385 . S
C944 H919 0.951 . S
C944 C942 1.388 . S
C944 C945 1.366 . S
C945 C944 1.366 . S
C945 C946 1.414 . S
C945 C948 1.499 . S
C946 H920 0.950 . S
C946 C945 1.414 . S
C946 C947 1.374 . S
C947 H921 0.950 . S
C947 C943 1.385 . S
C947 C946 1.374 . S
C948 C945 1.499 . S
C948 C949 1.373 . S
C948 C950 1.389 . S
C949 H922 0.950 . S
C949 C935 1.377 . S
C949 C948 1.373 . S
C950 C934 1.377 . S
C950 C948 1.389 . S
C950 C951 1.524 1_554 S
C951 C950 1.524 1_556 S
C951 C952 1.397 . S
C951 C956 1.363 . S
C952 H923 0.950 . S
C952 C951 1.397 . S
C952 C953 1.334 . S
C953 H924 0.950 . S
C953 C952 1.334 . S
C953 C954 1.287 . S
C954 C953 1.287 . S
C954 C955 1.524 . S
C954 H957 0.999 . S
C955 H925 0.950 . S
C955 C954 1.524 . S
C955 C956 1.415 . S
C956 H926 0.950 1_556 S
C956 C951 1.363 . S
C956 C955 1.415 . S
H957 C954 0.999 . S
H958 C939 0.913 . S
H959 C977 0.951 . S
H960 C979 0.951 . S
H961 C981 0.950 . S
H962 C982 0.950 . S
H963 C984 0.950 . S
H964 C987 0.950 . S
H965 C988 0.950 . S
H966 C990 0.950 . S
H967 C991 0.950 . S
H968 C992 0.951 . S
H969 C994 0.951 . S
H970 C996 0.950 1_556 S
H971 C997 0.950 1_556 S
H972 C999 0.979 . S
H973 C1002 0.950 . S
H974 C1003 0.950 . S
H975 C1005 0.950 . S
H976 C1006 0.950 . S
C977 H959 0.951 . S
C977 C978 1.366 . S
C977 C979 1.388 . S
C978 C977 1.366 . S
C978 C982 1.385 . S
C979 H960 0.951 . S
C979 C977 1.388 . S
C979 C980 1.366 . S
C980 C979 1.366 . S
C980 C981 1.414 . S
C980 C983 1.499 . S
C981 H961 0.950 . S
C981 C980 1.414 . S
C981 C982 1.374 . S
C982 H962 0.950 . S
C982 C978 1.385 . S
C982 C981 1.374 . S
C983 C980 1.499 . S
C983 C984 1.373 . S
C983 C985 1.389 . S
C984 H963 0.950 . S
C984 C983 1.373 . S
C984 C1000 1.377 . S
C985 C983 1.389 . S
C985 C986 1.524 1_554 S
C985 C999 1.377 . S
C986 C985 1.524 1_556 S
C986 C987 1.396 1_556 S
C986 C991 1.364 . S
C987 H964 0.950 . S
C987 C986 1.396 1_554 S
C987 C988 1.334 1_554 S
C988 H965 0.950 . S
C988 C987 1.334 1_556 S
C988 C989 1.287 . S
C989 C988 1.287 . S
C989 C990 1.524 . S
C989 H1008 0.913 . S
C990 H966 0.950 . S
C990 C989 1.524 . S
C990 C991 1.415 . S
C991 H967 0.950 . S
C991 C986 1.364 . S
C991 C990 1.415 . S
C992 H968 0.951 . S
C992 C993 1.366 . S
C992 C994 1.388 . S
C993 C992 1.366 . S
C993 C997 1.385 . S
C994 H969 0.951 . S
C994 C992 1.388 . S
C994 C995 1.366 . S
C995 C994 1.366 . S
C995 C996 1.414 . S
C995 C998 1.499 . S
C996 H970 0.950 1_554 S
C996 C995 1.414 . S
C996 C997 1.374 . S
C997 H971 0.950 1_554 S
C997 C993 1.385 . S
C997 C996 1.374 . S
C998 C995 1.499 . S
C998 C999 1.373 . S
C998 C1000 1.389 . S
C999 H972 0.979 . S
C999 C985 1.377 . S
C999 C998 1.373 . S
C1000 C984 1.377 . S
C1000 C998 1.389 . S
C1000 C1001 1.524 . S
C1001 C1000 1.524 . S
C1001 C1002 1.397 . S
C1001 C1006 1.363 . S
C1002 H973 0.950 . S
C1002 C1001 1.397 . S
C1002 C1003 1.334 . S
C1003 H974 0.950 . S
C1003 C1002 1.334 . S
C1003 C1004 1.287 . S
C1004 C1003 1.287 . S
C1004 C1005 1.524 . S
C1004 H1007 0.999 . S
C1005 H975 0.950 . S
C1005 C1004 1.524 . S
C1005 C1006 1.415 . S
C1006 H976 0.950 . S
C1006 C1001 1.363 . S
C1006 C1005 1.415 . S
H1007 C1004 0.999 . S
H1008 C989 0.913 . S
H1009 C1027 0.951 . S
H1010 C1029 0.951 . S
H1011 C1031 0.950 . S
H1012 C1032 0.950 . S
H1013 C1034 0.950 . S
H1014 C1037 0.950 . S
H1015 C1038 0.950 . S
H1016 C1040 0.950 . S
H1017 C1041 0.950 . S
H1018 C1042 0.951 . S
H1019 C1044 0.951 . S
H1020 C1046 0.950 . S
H1021 C1047 0.950 . S
H1022 C1049 0.950 . S
H1023 C1052 0.950 . S
H1024 C1053 0.950 . S
H1025 C1055 0.950 . S
H1026 C1056 0.950 . S
C1027 H1009 0.951 . S
C1027 C1028 1.366 . S
C1027 C1029 1.388 . S
C1028 C1027 1.366 . S
C1028 C1032 1.385 . S
C1029 H1010 0.951 . S
C1029 C1027 1.388 . S
C1029 C1030 1.366 . S
C1030 C1029 1.366 . S
C1030 C1031 1.414 . S
C1030 C1033 1.499 . S
C1031 H1011 0.950 . S
C1031 C1030 1.414 . S
C1031 C1032 1.374 . S
C1032 H1012 0.950 . S
C1032 C1028 1.385 . S
C1032 C1031 1.374 . S
C1033 C1030 1.499 . S
C1033 C1034 1.373 . S
C1033 C1035 1.389 . S
C1034 H1013 0.950 . S
C1034 C1033 1.373 . S
C1034 C1050 1.377 . S
C1035 C1033 1.389 . S
C1035 C1036 1.524 . S
C1035 C1049 1.377 . S
C1036 C1035 1.524 . S
C1036 C1037 1.397 . S
C1036 C1041 1.363 . S
C1037 H1014 0.950 . S
C1037 C1036 1.397 . S
C1037 C1038 1.334 . S
C1038 H1015 0.950 . S
C1038 C1037 1.334 . S
C1038 C1039 1.287 . S
C1039 C1038 1.287 . S
C1039 C1040 1.524 . S
C1039 H1058 0.913 . S
C1040 H1016 0.950 . S
C1040 C1039 1.524 . S
C1040 C1041 1.415 . S
C1041 H1017 0.950 . S
C1041 C1036 1.363 . S
C1041 C1040 1.415 . S
C1042 H1018 0.951 . S
C1042 C1043 1.366 . S
C1042 C1044 1.388 . S
C1043 C1042 1.366 . S
C1043 C1047 1.385 . S
C1044 H1019 0.951 . S
C1044 C1042 1.388 . S
C1044 C1045 1.366 . S
C1045 C1044 1.366 . S
C1045 C1046 1.414 . S
C1045 C1048 1.499 . S
C1046 H1020 0.950 . S
C1046 C1045 1.414 . S
C1046 C1047 1.374 . S
C1047 H1021 0.950 . S
C1047 C1043 1.385 . S
C1047 C1046 1.374 . S
C1048 C1045 1.499 . S
C1048 C1049 1.373 . S
C1048 C1050 1.389 . S
C1049 H1022 0.950 . S
C1049 C1035 1.377 . S
C1049 C1048 1.373 . S
C1050 C1034 1.377 . S
C1050 C1048 1.389 . S
C1050 C1051 1.524 1_554 S
C1051 C1050 1.524 1_556 S
C1051 C1052 1.397 . S
C1051 C1056 1.363 . S
C1052 H1023 0.950 . S
C1052 C1051 1.397 . S
C1052 C1053 1.334 . S
C1053 H1024 0.950 . S
C1053 C1052 1.334 . S
C1053 C1054 1.287 . S
C1054 C1053 1.287 . S
C1054 C1055 1.524 . S
C1054 H1057 0.999 . S
C1055 H1025 0.950 . S
C1055 C1054 1.524 . S
C1055 C1056 1.415 . S
C1056 H1026 0.950 . S
C1056 C1051 1.363 . S
C1056 C1055 1.415 . S
H1057 C1054 0.999 . S
H1058 C1039 0.913 . S
H1059 C1077 0.971 . S
H1060 C1079 0.951 1_554 S
H1061 C1081 0.950 . S
H1062 C1082 0.950 . S
H1063 C1084 0.950 . S
H1064 C1087 0.950 . S
H1065 C1088 0.950 . S
H1066 C1090 0.950 . S
H1067 C1091 0.950 . S
H1068 C1092 0.951 . S
H1069 C1094 0.951 . S
H1070 C1096 0.950 . S
H1071 C1097 0.950 . S
H1072 C1099 0.950 . S
H1073 C1102 0.950 1_554 S
H1074 C1103 0.950 1_554 S
H1075 C1105 0.950 . S
H1076 C1106 0.950 . S
C1077 H1059 0.971 . S
C1077 C1078 1.366 . S
C1077 C1079 1.388 . S
C1078 C1077 1.366 . S
C1078 C1082 1.385 . S
C1079 H1060 0.951 1_556 S
C1079 C1077 1.388 . S
C1079 C1080 1.366 . S
C1080 C1079 1.366 . S
C1080 C1081 1.414 . S
C1080 C1083 1.499 . S
C1081 H1061 0.950 . S
C1081 C1080 1.414 . S
C1081 C1082 1.374 . S
C1082 H1062 0.950 . S
C1082 C1078 1.385 . S
C1082 C1081 1.374 . S
C1083 C1080 1.499 . S
C1083 C1084 1.373 . S
C1083 C1085 1.389 . S
C1084 H1063 0.950 . S
C1084 C1083 1.373 . S
C1084 C1100 1.377 . S
C1085 C1083 1.389 . S
C1085 C1086 1.524 . S
C1085 C1099 1.377 . S
C1086 C1085 1.524 . S
C1086 C1087 1.397 . S
C1086 C1091 1.363 1_556 S
C1087 H1064 0.950 . S
C1087 C1086 1.397 . S
C1087 C1088 1.334 . S
C1088 H1065 0.950 . S
C1088 C1087 1.334 . S
C1088 C1089 1.287 . S
C1089 C1088 1.287 . S
C1089 C1090 1.524 1_556 S
C1089 H1108 0.913 . S
C1090 H1066 0.950 . S
C1090 C1089 1.524 1_554 S
C1090 C1091 1.415 . S
C1091 H1067 0.950 . S
C1091 C1086 1.363 1_554 S
C1091 C1090 1.415 . S
C1092 H1068 0.951 . S
C1092 C1093 1.366 . S
C1092 C1094 1.388 . S
C1093 C1092 1.366 . S
C1093 C1097 1.385 1_556 S
C1094 H1069 0.951 . S
C1094 C1092 1.388 . S
C1094 C1095 1.366 . S
C1095 C1094 1.366 . S
C1095 C1096 1.414 1_556 S
C1095 C1098 1.499 . S
C1096 H1070 0.950 . S
C1096 C1095 1.414 1_554 S
C1096 C1097 1.374 . S
C1097 H1071 0.950 . S
C1097 C1093 1.385 1_554 S
C1097 C1096 1.374 . S
C1098 C1095 1.499 . S
C1098 C1099 1.373 . S
C1098 C1100 1.389 . S
C1099 H1072 0.950 . S
C1099 C1085 1.377 . S
C1099 C1098 1.373 . S
C1100 C1084 1.377 . S
C1100 C1098 1.389 . S
C1100 C1101 1.524 . S
C1101 C1100 1.524 . S
C1101 C1102 1.397 . S
C1101 C1106 1.363 . S
C1102 H1073 0.950 1_556 S
C1102 C1101 1.397 . S
C1102 C1103 1.334 . S
C1103 H1074 0.950 1_556 S
C1103 C1102 1.334 . S
C1103 C1104 1.287 . S
C1104 C1103 1.287 . S
C1104 C1105 1.524 . S
C1104 H1107 0.999 1_655 S
C1105 H1075 0.950 . S
C1105 C1104 1.524 . S
C1105 C1106 1.415 . S
C1106 H1076 0.950 . S
C1106 C1101 1.363 . S
C1106 C1105 1.415 . S
H1107 C1104 0.999 1_455 S
H1108 C1089 0.913 . S
H1109 C1127 0.951 . S
H1110 C1129 0.951 . S
H1111 C1131 0.950 . S
H1112 C1132 0.950 . S
H1113 C1134 0.981 . S
H1114 C1137 0.950 . S
H1115 C1138 0.950 . S
H1116 C1140 0.950 . S
H1117 C1141 0.950 . S
H1118 C1142 0.951 . S
H1119 C1144 0.951 . S
H1120 C1146 0.950 . S
H1121 C1147 0.950 . S
H1122 C1149 0.950 . S
H1123 C1152 0.950 . S
H1124 C1153 0.950 . S
H1125 C1155 0.950 . S
H1126 C1156 0.950 . S
C1127 H1109 0.951 . S
C1127 C1128 1.366 . S
C1127 C1129 1.388 . S
C1128 C1127 1.366 . S
C1128 C1132 1.385 . S
C1129 H1110 0.951 . S
C1129 C1127 1.388 . S
C1129 C1130 1.366 . S
C1130 C1129 1.366 . S
C1130 C1131 1.414 . S
C1130 C1133 1.499 . S
C1131 H1111 0.950 . S
C1131 C1130 1.414 . S
C1131 C1132 1.374 . S
C1132 H1112 0.950 . S
C1132 C1128 1.385 . S
C1132 C1131 1.374 . S
C1133 C1130 1.499 . S
C1133 C1134 1.373 . S
C1133 C1135 1.389 . S
C1134 H1113 0.981 . S
C1134 C1133 1.373 . S
C1134 C1150 1.377 . S
C1135 C1133 1.389 . S
C1135 C1136 1.524 . S
C1135 C1149 1.377 . S
C1136 C1135 1.524 . S
C1136 C1137 1.397 . S
C1136 C1141 1.363 . S
C1137 H1114 0.950 . S
C1137 C1136 1.397 . S
C1137 C1138 1.334 . S
C1138 H1115 0.950 . S
C1138 C1137 1.334 . S
C1138 C1139 1.287 . S
C1139 C1138 1.287 . S
C1139 C1140 1.524 . S
C1139 H1158 0.913 . S
C1140 H1116 0.950 . S
C1140 C1139 1.524 . S
C1140 C1141 1.415 . S
C1141 H1117 0.950 . S
C1141 C1136 1.363 . S
C1141 C1140 1.415 . S
C1142 H1118 0.951 . S
C1142 C1143 1.366 . S
C1142 C1144 1.388 . S
C1143 C1142 1.366 . S
C1143 C1147 1.385 . S
C1144 H1119 0.951 . S
C1144 C1142 1.388 . S
C1144 C1145 1.366 . S
C1145 C1144 1.366 . S
C1145 C1146 1.414 . S
C1145 C1148 1.499 . S
C1146 H1120 0.950 . S
C1146 C1145 1.414 . S
C1146 C1147 1.374 . S
C1147 H1121 0.950 . S
C1147 C1143 1.385 . S
C1147 C1146 1.374 . S
C1148 C1145 1.499 . S
C1148 C1149 1.373 . S
C1148 C1150 1.389 . S
C1149 H1122 0.950 . S
C1149 C1135 1.377 . S
C1149 C1148 1.373 . S
C1150 C1134 1.377 . S
C1150 C1148 1.389 . S
C1150 C1151 1.524 1_556 S
C1151 C1150 1.524 1_554 S
C1151 C1152 1.397 . S
C1151 C1156 1.363 . S
C1152 H1123 0.950 . S
C1152 C1151 1.397 . S
C1152 C1153 1.334 . S
C1153 H1124 0.950 . S
C1153 C1152 1.334 . S
C1153 C1154 1.287 . S
C1154 C1153 1.287 . S
C1154 C1155 1.524 . S
C1154 H1157 0.999 . S
C1155 H1125 0.950 . S
C1155 C1154 1.524 . S
C1155 C1156 1.415 . S
C1156 H1126 0.950 . S
C1156 C1151 1.363 . S
C1156 C1155 1.415 . S
H1157 C1154 0.999 . S
H1158 C1139 0.913 . S
H1159 C1177 0.951 . S
H1160 C1179 0.951 . S
H1161 C1181 0.950 1_554 S
H1162 C1182 0.950 . S
H1163 C1184 0.950 . S
H1164 C1187 0.972 . S
H1165 C1188 0.950 . S
H1166 C1190 0.950 . S
H1167 C1191 0.950 . S
H1168 C1192 0.951 . S
H1169 C1194 0.951 . S
H1170 C1196 0.950 . S
H1171 C1197 0.950 . S
H1172 C1199 0.950 . S
H1173 C1202 0.950 . S
H1174 C1203 0.950 . S
H1175 C1205 0.950 1_554 S
H1176 C1206 0.950 1_554 S
C1177 H1159 0.951 . S
C1177 C1178 1.366 . S
C1177 C1179 1.388 . S
C1178 C1177 1.366 . S
C1178 C1182 1.385 . S
C1179 H1160 0.951 . S
C1179 C1177 1.388 . S
C1179 C1180 1.366 . S
C1180 C1179 1.366 . S
C1180 C1181 1.414 . S
C1180 C1183 1.499 . S
C1181 H1161 0.950 1_556 S
C1181 C1180 1.414 . S
C1181 C1182 1.374 . S
C1182 H1162 0.950 . S
C1182 C1178 1.385 . S
C1182 C1181 1.374 . S
C1183 C1180 1.499 . S
C1183 C1184 1.373 . S
C1183 C1185 1.389 . S
C1184 H1163 0.950 . S
C1184 C1183 1.373 . S
C1184 C1200 1.377 . S
C1185 C1183 1.389 . S
C1185 C1186 1.524 . S
C1185 C1199 1.377 . S
C1186 C1185 1.524 . S
C1186 C1187 1.371 1_556 S
C1186 C1191 1.363 . S
C1187 H1164 0.972 . S
C1187 C1186 1.371 1_554 S
C1187 C1188 1.339 . S
C1188 H1165 0.950 . S
C1188 C1187 1.339 . S
C1188 C1189 1.287 1_554 S
C1189 C1188 1.287 1_556 S
C1189 C1190 1.524 . S
C1189 H1208 0.913 . S
C1190 H1166 0.950 . S
C1190 C1189 1.524 . S
C1190 C1191 1.415 . S
C1191 H1167 0.950 . S
C1191 C1186 1.363 . S
C1191 C1190 1.415 . S
C1192 H1168 0.951 . S
C1192 C1193 1.366 1_554 S
C1192 C1194 1.388 . S
C1193 C1192 1.366 1_556 S
C1193 C1197 1.385 . S
C1194 H1169 0.951 . S
C1194 C1192 1.388 . S
C1194 C1195 1.366 1_554 S
C1195 C1194 1.366 1_556 S
C1195 C1196 1.414 . S
C1195 C1198 1.499 . S
C1196 H1170 0.950 . S
C1196 C1195 1.414 . S
C1196 C1197 1.374 . S
C1197 H1171 0.950 . S
C1197 C1193 1.385 . S
C1197 C1196 1.374 . S
C1198 C1195 1.499 . S
C1198 C1199 1.373 . S
C1198 C1200 1.389 . S
C1199 H1172 0.950 . S
C1199 C1185 1.377 . S
C1199 C1198 1.373 . S
C1200 C1184 1.377 . S
C1200 C1198 1.389 . S
C1200 C1201 1.524 . S
C1201 C1200 1.524 . S
C1201 C1202 1.397 . S
C1201 C1206 1.363 . S
C1202 H1173 0.950 . S
C1202 C1201 1.397 . S
C1202 C1203 1.334 . S
C1203 H1174 0.950 . S
C1203 C1202 1.334 . S
C1203 C1204 1.287 . S
C1204 C1203 1.287 . S
C1204 C1205 1.524 . S
C1204 H1207 0.999 . S
C1205 H1175 0.950 1_556 S
C1205 C1204 1.524 . S
C1205 C1206 1.415 . S
C1206 H1176 0.950 1_556 S
C1206 C1201 1.363 . S
C1206 C1205 1.415 . S
H1207 C1204 0.999 . S
H1208 C1189 0.913 . S
H1209 C1227 0.951 . S
H1210 C1229 0.951 . S
H1211 C1231 0.950 . S
H1212 C1232 0.950 . S
H1213 C1234 0.950 . S
H1214 C1237 0.950 . S
H1215 C1238 0.950 . S
H1216 C1240 0.950 . S
H1217 C1241 0.950 . S
H1218 C1242 0.951 . S
H1219 C1244 0.951 . S
H1220 C1246 0.949 . S
H1221 C1247 0.950 . S
H1222 C1249 0.950 . S
H1223 C1252 0.950 . S
H1224 C1253 0.950 . S
H1225 C1255 0.950 . S
H1226 C1256 0.950 . S
C1227 H1209 0.951 . S
C1227 C1228 1.366 . S
C1227 C1229 1.388 . S
C1228 C1227 1.366 . S
C1228 C1232 1.385 . S
C1229 H1210 0.951 . S
C1229 C1227 1.388 . S
C1229 C1230 1.366 . S
C1230 C1229 1.366 . S
C1230 C1231 1.414 . S
C1230 C1233 1.499 . S
C1231 H1211 0.950 . S
C1231 C1230 1.414 . S
C1231 C1232 1.374 . S
C1232 H1212 0.950 . S
C1232 C1228 1.385 . S
C1232 C1231 1.374 . S
C1233 C1230 1.499 . S
C1233 C1234 1.373 . S
C1233 C1235 1.399 . S
C1234 H1213 0.950 . S
C1234 C1233 1.373 . S
C1234 C1250 1.377 . S
C1235 C1233 1.399 . S
C1235 C1236 1.515 1_556 S
C1235 C1249 1.375 1_556 S
C1236 C1235 1.515 1_554 S
C1236 C1237 1.397 . S
C1236 C1241 1.363 . S
C1237 H1214 0.950 . S
C1237 C1236 1.397 . S
C1237 C1238 1.334 . S
C1238 H1215 0.950 . S
C1238 C1237 1.334 . S
C1238 C1239 1.287 . S
C1239 C1238 1.287 . S
C1239 C1240 1.524 . S
C1239 H1258 0.913 . S
C1240 H1216 0.950 . S
C1240 C1239 1.524 . S
C1240 C1241 1.415 . S
C1241 H1217 0.950 . S
C1241 C1236 1.363 . S
C1241 C1240 1.415 . S
C1242 H1218 0.951 . S
C1242 C1243 1.366 . S
C1242 C1244 1.388 . S
C1243 C1242 1.366 . S
C1243 C1247 1.385 1_556 S
C1244 H1219 0.951 . S
C1244 C1242 1.388 . S
C1244 C1245 1.366 . S
C1245 C1244 1.366 . S
C1245 C1246 1.417 1_556 S
C1245 C1248 1.499 . S
C1246 H1220 0.949 . S
C1246 C1245 1.417 1_554 S
C1246 C1247 1.373 . S
C1247 H1221 0.950 . S
C1247 C1243 1.385 1_554 S
C1247 C1246 1.373 . S
C1248 C1245 1.499 . S
C1248 C1249 1.373 1_556 S
C1248 C1250 1.389 . S
C1249 H1222 0.950 . S
C1249 C1235 1.375 1_554 S
C1249 C1248 1.373 1_554 S
C1250 C1234 1.377 . S
C1250 C1248 1.389 . S
C1250 C1251 1.524 . S
C1251 C1250 1.524 . S
C1251 C1252 1.397 . S
C1251 C1256 1.363 . S
C1252 H1223 0.950 . S
C1252 C1251 1.397 . S
C1252 C1253 1.334 . S
C1253 H1224 0.950 . S
C1253 C1252 1.334 . S
C1253 C1254 1.287 . S
C1254 C1253 1.287 . S
C1254 C1255 1.524 . S
C1254 H1257 0.999 . S
C1255 H1225 0.950 . S
C1255 C1254 1.524 . S
C1255 C1256 1.415 . S
C1256 H1226 0.950 . S
C1256 C1251 1.363 . S
C1256 C1255 1.415 . S
H1257 C1254 0.999 . S
H1258 C1239 0.913 . S
H1259 C1277 0.951 . S
H1260 C1279 0.951 . S
H1261 C1281 0.950 1_554 S
H1262 C1282 0.950 . S
H1263 C1284 0.950 . S
H1264 C1287 0.935 1_554 S
H1265 C1288 0.997 . S
H1266 C1290 0.950 . S
H1267 C1291 0.950 . S
H1268 C1292 0.951 . S
H1269 C1294 0.951 . S
H1270 C1296 0.950 . S
H1271 C1297 0.950 . S
H1272 C1299 0.950 . S
H1273 C1302 0.950 . S
H1274 C1303 0.950 . S
H1275 C1305 0.944 1_554 S
H1276 C1306 0.960 . S
C1277 H1259 0.951 . S
C1277 C1278 1.366 . S
C1277 C1279 1.388 . S
C1278 C1277 1.366 . S
C1278 C1282 1.385 . S
C1279 H1260 0.951 . S
C1279 C1277 1.388 . S
C1279 C1280 1.366 . S
C1280 C1279 1.366 . S
C1280 C1281 1.414 . S
C1280 C1283 1.499 . S
C1281 H1261 0.950 1_556 S
C1281 C1280 1.414 . S
C1281 C1282 1.374 . S
C1282 H1262 0.950 . S
C1282 C1278 1.385 . S
C1282 C1281 1.374 . S
C1283 C1280 1.499 . S
C1283 C1284 1.373 . S
C1283 C1285 1.389 . S
C1284 H1263 0.950 . S
C1284 C1283 1.373 . S
C1284 C1300 1.377 . S
C1285 C1283 1.389 . S
C1285 C1286 1.524 . S
C1285 C1299 1.377 . S
C1286 C1285 1.524 . S
C1286 C1287 1.413 . S
C1286 C1291 1.363 . S
C1287 H1264 0.935 1_556 S
C1287 C1286 1.413 . S
C1287 C1288 1.329 1_556 S
C1288 H1265 0.997 . S
C1288 C1287 1.329 1_554 S
C1288 C1289 1.247 1_554 S
C1289 C1288 1.247 1_556 S
C1289 C1290 1.524 . S
C1289 H1308 0.913 . S
C1290 H1266 0.950 . S
C1290 C1289 1.524 . S
C1290 C1291 1.415 . S
C1291 H1267 0.950 . S
C1291 C1286 1.363 . S
C1291 C1290 1.415 . S
C1292 H1268 0.951 . S
C1292 C1293 1.366 1_554 S
C1292 C1294 1.388 . S
C1293 C1292 1.366 1_556 S
C1293 C1297 1.385 . S
C1294 H1269 0.951 . S
C1294 C1292 1.388 . S
C1294 C1295 1.366 1_554 S
C1295 C1294 1.366 1_556 S
C1295 C1296 1.414 . S
C1295 C1298 1.499 . S
C1296 H1270 0.950 . S
C1296 C1295 1.414 . S
C1296 C1297 1.374 . S
C1297 H1271 0.950 . S
C1297 C1293 1.385 . S
C1297 C1296 1.374 . S
C1298 C1295 1.499 . S
C1298 C1299 1.373 . S
C1298 C1300 1.389 . S
C1299 H1272 0.950 . S
C1299 C1285 1.377 . S
C1299 C1298 1.373 . S
C1300 C1284 1.377 . S
C1300 C1298 1.389 . S
C1300 C1301 1.524 . S
C1301 C1300 1.524 . S
C1301 C1302 1.397 . S
C1301 C1306 1.354 1_556 S
C1302 H1273 0.950 . S
C1302 C1301 1.397 . S
C1302 C1303 1.334 . S
C1303 H1274 0.950 . S
C1303 C1302 1.334 . S
C1303 C1304 1.287 . S
C1304 C1303 1.287 . S
C1304 C1305 1.531 . S
C1304 H1307 0.999 . S
C1305 H1275 0.944 1_556 S
C1305 C1304 1.531 . S
C1305 C1306 1.414 1_556 S
C1306 H1276 0.960 . S
C1306 C1301 1.354 1_554 S
C1306 C1305 1.414 1_554 S
H1307 C1304 0.999 . S
H1308 C1289 0.913 . S
H1309 C1327 0.973 . S
H1310 C1329 0.951 1_554 S
H1311 C1331 0.950 . S
H1312 C1332 0.950 . S
H1313 C1334 0.950 . S
H1314 C1337 0.950 . S
H1315 C1338 0.950 . S
H1316 C1340 0.950 . S
H1317 C1341 0.950 . S
H1318 C1342 0.951 . S
H1319 C1344 0.951 . S
H1320 C1346 0.950 . S
H1321 C1347 0.950 . S
H1322 C1349 0.950 . S
H1323 C1352 0.950 . S
H1324 C1353 0.950 . S
H1325 C1355 0.950 . S
H1326 C1356 0.950 . S
C1327 H1309 0.973 . S
C1327 C1328 1.366 . S
C1327 C1329 1.388 . S
C1328 C1327 1.366 . S
C1328 C1332 1.385 . S
C1329 H1310 0.951 1_556 S
C1329 C1327 1.388 . S
C1329 C1330 1.366 . S
C1330 C1329 1.366 . S
C1330 C1331 1.414 . S
C1330 C1333 1.499 . S
C1331 H1311 0.950 . S
C1331 C1330 1.414 . S
C1331 C1332 1.374 . S
C1332 H1312 0.950 . S
C1332 C1328 1.385 . S
C1332 C1331 1.374 . S
C1333 C1330 1.499 . S
C1333 C1334 1.373 . S
C1333 C1335 1.389 1_556 S
C1334 H1313 0.950 . S
C1334 C1333 1.373 . S
C1334 C1350 1.377 . S
C1335 C1333 1.389 1_554 S
C1335 C1336 1.524 . S
C1335 C1349 1.377 . S
C1336 C1335 1.524 . S
C1336 C1337 1.397 . S
C1336 C1341 1.363 . S
C1337 H1314 0.950 . S
C1337 C1336 1.397 . S
C1337 C1338 1.334 . S
C1338 H1315 0.950 . S
C1338 C1337 1.334 . S
C1338 C1339 1.287 . S
C1339 C1338 1.287 . S
C1339 C1340 1.524 . S
C1339 H1358 0.913 . S
C1340 H1316 0.950 . S
C1340 C1339 1.524 . S
C1340 C1341 1.415 . S
C1341 H1317 0.950 . S
C1341 C1336 1.363 . S
C1341 C1340 1.415 . S
C1342 H1318 0.951 . S
C1342 C1343 1.366 . S
C1342 C1344 1.388 . S
C1343 C1342 1.366 . S
C1343 C1347 1.385 1_556 S
C1344 H1319 0.951 . S
C1344 C1342 1.388 . S
C1344 C1345 1.366 . S
C1345 C1344 1.366 . S
C1345 C1346 1.414 1_556 S
C1345 C1348 1.499 . S
C1346 H1320 0.950 . S
C1346 C1345 1.414 1_554 S
C1346 C1347 1.374 . S
C1347 H1321 0.950 . S
C1347 C1343 1.385 1_554 S
C1347 C1346 1.374 . S
C1348 C1345 1.499 . S
C1348 C1349 1.373 1_556 S
C1348 C1350 1.389 . S
C1349 H1322 0.950 . S
C1349 C1335 1.377 . S
C1349 C1348 1.373 1_554 S
C1350 C1334 1.377 . S
C1350 C1348 1.389 . S
C1350 C1351 1.524 . S
C1351 C1350 1.524 . S
C1351 C1352 1.397 . S
C1351 C1356 1.363 . S
C1352 H1323 0.950 . S
C1352 C1351 1.397 . S
C1352 C1353 1.334 . S
C1353 H1324 0.950 . S
C1353 C1352 1.334 . S
C1353 C1354 1.287 . S
C1354 C1353 1.287 . S
C1354 C1355 1.524 . S
C1354 H1357 0.999 . S
C1355 H1325 0.950 . S
C1355 C1354 1.524 . S
C1355 C1356 1.415 . S
C1356 H1326 0.950 . S
C1356 C1351 1.363 . S
C1356 C1355 1.415 . S
H1357 C1354 0.999 . S
H1358 C1339 0.913 . S
H1359 C1377 0.951 . S
H1360 C1379 0.951 . S
H1361 C1381 0.950 . S
H1362 C1382 0.950 . S
H1363 C1384 0.950 . S
H1364 C1387 0.950 . S
H1365 C1388 0.950 . S
H1366 C1390 0.950 . S
H1367 C1391 0.950 . S
H1368 C1392 0.951 . S
H1369 C1394 0.951 . S
H1370 C1396 0.950 . S
H1371 C1397 0.950 . S
H1372 C1399 0.950 . S
H1373 C1402 0.950 . S
H1374 C1403 0.950 . S
H1375 C1405 0.950 . S
H1376 C1406 0.950 . S
C1377 H1359 0.951 . S
C1377 C1378 1.366 . S
C1377 C1379 1.388 . S
C1378 C1377 1.366 . S
C1378 C1382 1.385 . S
C1379 H1360 0.951 . S
C1379 C1377 1.388 . S
C1379 C1380 1.366 . S
C1380 C1379 1.366 . S
C1380 C1381 1.414 . S
C1380 C1383 1.499 . S
C1381 H1361 0.950 . S
C1381 C1380 1.414 . S
C1381 C1382 1.374 . S
C1382 H1362 0.950 . S
C1382 C1378 1.385 . S
C1382 C1381 1.374 . S
C1383 C1380 1.499 . S
C1383 C1384 1.373 . S
C1383 C1385 1.389 . S
C1384 H1363 0.950 . S
C1384 C1383 1.373 . S
C1384 C1400 1.377 . S
C1385 C1383 1.389 . S
C1385 C1386 1.524 . S
C1385 C1399 1.377 . S
C1386 C1385 1.524 . S
C1386 C1387 1.397 . S
C1386 C1391 1.363 . S
C1387 H1364 0.950 . S
C1387 C1386 1.397 . S
C1387 C1388 1.334 . S
C1388 H1365 0.950 . S
C1388 C1387 1.334 . S
C1388 C1389 1.287 . S
C1389 C1388 1.287 . S
C1389 C1390 1.524 . S
C1389 H1408 0.913 . S
C1390 H1366 0.950 . S
C1390 C1389 1.524 . S
C1390 C1391 1.415 . S
C1391 H1367 0.950 . S
C1391 C1386 1.363 . S
C1391 C1390 1.415 . S
C1392 H1368 0.951 . S
C1392 C1393 1.366 . S
C1392 C1394 1.388 . S
C1393 C1392 1.366 . S
C1393 C1397 1.385 . S
C1394 H1369 0.951 . S
C1394 C1392 1.388 . S
C1394 C1395 1.366 . S
C1395 C1394 1.366 . S
C1395 C1396 1.414 . S
C1395 C1398 1.499 . S
C1396 H1370 0.950 . S
C1396 C1395 1.414 . S
C1396 C1397 1.374 . S
C1397 H1371 0.950 . S
C1397 C1393 1.385 . S
C1397 C1396 1.374 . S
C1398 C1395 1.499 . S
C1398 C1399 1.373 . S
C1398 C1400 1.389 . S
C1399 H1372 0.950 . S
C1399 C1385 1.377 . S
C1399 C1398 1.373 . S
C1400 C1384 1.377 . S
C1400 C1398 1.389 . S
C1400 C1401 1.524 1_554 S
C1401 C1400 1.524 1_556 S
C1401 C1402 1.397 . S
C1401 C1406 1.363 . S
C1402 H1373 0.950 . S
C1402 C1401 1.397 . S
C1402 C1403 1.334 . S
C1403 H1374 0.950 . S
C1403 C1402 1.334 . S
C1403 C1404 1.287 . S
C1404 C1403 1.287 . S
C1404 C1405 1.524 . S
C1404 H1407 0.999 . S
C1405 H1375 0.950 . S
C1405 C1404 1.524 . S
C1405 C1406 1.415 . S
C1406 H1376 0.950 . S
C1406 C1401 1.363 . S
C1406 C1405 1.415 . S
H1407 C1404 0.999 . S
H1408 C1389 0.913 . S
H1409 C1427 0.951 . S
H1410 C1429 0.951 . S
H1411 C1431 0.950 . S
H1412 C1432 0.950 . S
H1413 C1434 0.950 . S
H1414 C1437 0.952 1_554 S
H1415 C1438 0.950 . S
H1416 C1440 0.950 . S
H1417 C1441 0.950 . S
H1418 C1442 0.951 . S
H1419 C1444 0.951 . S
H1420 C1446 0.950 1_556 S
H1421 C1447 0.950 1_556 S
H1422 C1449 0.950 1_556 S
H1423 C1452 0.950 . S
H1424 C1453 0.950 . S
H1425 C1455 0.950 . S
H1426 C1456 0.950 . S
C1427 H1409 0.951 . S
C1427 C1428 1.366 . S
C1427 C1429 1.388 . S
C1428 C1427 1.366 . S
C1428 C1432 1.385 . S
C1429 H1410 0.951 . S
C1429 C1427 1.388 . S
C1429 C1430 1.366 . S
C1430 C1429 1.366 . S
C1430 C1431 1.414 . S
C1430 C1433 1.499 . S
C1431 H1411 0.950 . S
C1431 C1430 1.414 . S
C1431 C1432 1.374 . S
C1432 H1412 0.950 . S
C1432 C1428 1.385 . S
C1432 C1431 1.374 . S
C1433 C1430 1.499 . S
C1433 C1434 1.373 . S
C1433 C1435 1.389 . S
C1434 H1413 0.950 . S
C1434 C1433 1.373 . S
C1434 C1450 1.377 . S
C1435 C1433 1.389 . S
C1435 C1436 1.524 1_554 S
C1435 C1449 1.377 . S
C1436 C1435 1.524 1_556 S
C1436 C1437 1.397 . S
C1436 C1441 1.363 . S
C1437 H1414 0.952 1_556 S
C1437 C1436 1.397 . S
C1437 C1438 1.334 . S
C1438 H1415 0.950 . S
C1438 C1437 1.334 . S
C1438 C1439 1.287 . S
C1439 C1438 1.287 . S
C1439 C1440 1.524 . S
C1439 H1458 0.913 . S
C1440 H1416 0.950 . S
C1440 C1439 1.524 . S
C1440 C1441 1.415 . S
C1441 H1417 0.950 . S
C1441 C1436 1.363 . S
C1441 C1440 1.415 . S
C1442 H1418 0.951 . S
C1442 C1443 1.366 . S
C1442 C1444 1.388 . S
C1443 C1442 1.366 . S
C1443 C1447 1.385 . S
C1444 H1419 0.951 . S
C1444 C1442 1.388 . S
C1444 C1445 1.366 . S
C1445 C1444 1.366 . S
C1445 C1446 1.414 . S
C1445 C1448 1.499 . S
C1446 H1420 0.950 1_554 S
C1446 C1445 1.414 . S
C1446 C1447 1.374 . S
C1447 H1421 0.950 1_554 S
C1447 C1443 1.385 . S
C1447 C1446 1.374 . S
C1448 C1445 1.499 . S
C1448 C1449 1.373 . S
C1448 C1450 1.389 . S
C1449 H1422 0.950 1_554 S
C1449 C1435 1.377 . S
C1449 C1448 1.373 . S
C1450 C1434 1.377 . S
C1450 C1448 1.389 . S
C1450 C1451 1.524 . S
C1451 C1450 1.524 . S
C1451 C1452 1.397 . S
C1451 C1456 1.363 . S
C1452 H1423 0.950 . S
C1452 C1451 1.397 . S
C1452 C1453 1.334 . S
C1453 H1424 0.950 . S
C1453 C1452 1.334 . S
C1453 C1454 1.287 . S
C1454 C1453 1.287 . S
C1454 C1455 1.524 . S
C1454 H1457 0.999 . S
C1455 H1425 0.950 . S
C1455 C1454 1.524 . S
C1455 C1456 1.415 . S
C1456 H1426 0.950 . S
C1456 C1451 1.363 . S
C1456 C1455 1.415 . S
H1457 C1454 0.999 . S
H1458 C1439 0.913 . S
H1459 C1477 0.951 . S
H1460 C1479 0.951 . S
H1461 C1481 0.950 . S
H1462 C1482 0.950 . S
H1463 C1484 0.950 . S
H1464 C1487 0.950 . S
H1465 C1488 0.918 1_554 S
H1466 C1490 0.950 . S
H1467 C1491 0.950 . S
H1468 C1492 0.951 . S
H1469 C1494 0.951 . S
H1470 C1496 0.974 . S
H1471 C1497 0.950 . S
H1472 C1499 0.950 1_556 S
H1473 C1502 0.950 . S
H1474 C1503 0.950 . S
H1475 C1505 0.950 . S
H1476 C1506 0.950 . S
C1477 H1459 0.951 . S
C1477 C1478 1.366 . S
C1477 C1479 1.388 . S
C1478 C1477 1.366 . S
C1478 C1482 1.385 . S
C1479 H1460 0.951 . S
C1479 C1477 1.388 . S
C1479 C1480 1.366 . S
C1480 C1479 1.366 . S
C1480 C1481 1.414 . S
C1480 C1483 1.499 . S
C1481 H1461 0.950 . S
C1481 C1480 1.414 . S
C1481 C1482 1.374 . S
C1482 H1462 0.950 . S
C1482 C1478 1.385 . S
C1482 C1481 1.374 . S
C1483 C1480 1.499 . S
C1483 C1484 1.373 . S
C1483 C1485 1.389 . S
C1484 H1463 0.950 . S
C1484 C1483 1.373 . S
C1484 C1500 1.377 . S
C1485 C1483 1.389 . S
C1485 C1486 1.519 1_554 S
C1485 C1499 1.377 . S
C1486 C1485 1.519 1_556 S
C1486 C1487 1.393 1_556 S
C1486 C1491 1.371 . S
C1487 H1464 0.950 . S
C1487 C1486 1.393 1_554 S
C1487 C1488 1.294 1_554 S
C1488 H1465 0.918 1_556 S
C1488 C1487 1.294 1_556 S
C1488 C1489 1.364 . S
C1489 C1488 1.364 . S
C1489 C1490 1.524 . S
C1489 H1508 0.913 . S
C1490 H1466 0.950 . S
C1490 C1489 1.524 . S
C1490 C1491 1.415 . S
C1491 H1467 0.950 . S
C1491 C1486 1.371 . S
C1491 C1490 1.415 . S
C1492 H1468 0.951 . S
C1492 C1493 1.366 . S
C1492 C1494 1.388 . S
C1493 C1492 1.366 . S
C1493 C1497 1.385 1_554 S
C1494 H1469 0.951 . S
C1494 C1492 1.388 . S
C1494 C1495 1.366 . S
C1495 C1494 1.366 . S
C1495 C1496 1.386 1_554 S
C1495 C1498 1.499 . S
C1496 H1470 0.974 . S
C1496 C1495 1.386 1_556 S
C1496 C1497 1.379 . S
C1497 H1471 0.950 . S
C1497 C1493 1.385 1_556 S
C1497 C1496 1.379 . S
C1498 C1495 1.499 . S
C1498 C1499 1.373 . S
C1498 C1500 1.389 . S
C1499 H1472 0.950 1_554 S
C1499 C1485 1.377 . S
C1499 C1498 1.373 . S
C1500 C1484 1.377 . S
C1500 C1498 1.389 . S
C1500 C1501 1.524 . S
C1501 C1500 1.524 . S
C1501 C1502 1.397 . S
C1501 C1506 1.363 . S
C1502 H1473 0.950 . S
C1502 C1501 1.397 . S
C1502 C1503 1.334 . S
C1503 H1474 0.950 . S
C1503 C1502 1.334 . S
C1503 C1504 1.287 . S
C1504 C1503 1.287 . S
C1504 C1505 1.524 . S
C1504 H1507 0.999 . S
C1505 H1475 0.950 . S
C1505 C1504 1.524 . S
C1505 C1506 1.415 . S
C1506 H1476 0.950 . S
C1506 C1501 1.363 . S
C1506 C1505 1.415 . S
H1507 C1504 0.999 . S
H1508 C1489 0.913 . S
H1509 C1527 0.951 . S
H1510 C1529 0.928 1_455 S
H1511 C1531 0.950 . S
H1512 C1532 0.950 . S
H1513 C1534 0.950 . S
H1514 C1537 0.950 . S
H1515 C1538 0.914 1_655 S
H1516 C1540 0.950 . S
H1517 C1541 0.950 . S
H1518 C1542 0.951 . S
H1519 C1544 0.951 . S
H1520 C1546 0.950 . S
H1521 C1547 0.950 . S
H1522 C1549 0.950 . S
H1523 C1552 0.950 . S
H1524 C1553 0.950 . S
H1525 C1555 0.950 . S
H1526 C1556 0.950 . S
C1527 H1509 0.951 . S
C1527 C1528 1.366 . S
C1527 C1529 1.414 . S
C1528 C1527 1.366 . S
C1528 C1532 1.385 . S
C1529 H1510 0.928 1_655 S
C1529 C1527 1.414 . S
C1529 C1530 1.363 1_655 S
C1530 C1529 1.363 1_455 S
C1530 C1531 1.414 1_455 S
C1530 C1533 1.499 . S
C1531 H1511 0.950 . S
C1531 C1530 1.414 1_655 S
C1531 C1532 1.374 . S
C1532 H1512 0.950 . S
C1532 C1528 1.385 . S
C1532 C1531 1.374 . S
C1533 C1530 1.499 . S
C1533 C1534 1.373 . S
C1533 C1535 1.389 . S
C1534 H1513 0.950 . S
C1534 C1533 1.373 . S
C1534 C1550 1.377 . S
C1535 C1533 1.389 . S
C1535 C1536 1.524 . S
C1535 C1549 1.377 . S
C1536 C1535 1.524 . S
C1536 C1537 1.397 . S
C1536 C1541 1.363 . S
C1537 H1514 0.950 . S
C1537 C1536 1.397 . S
C1537 C1538 1.334 . S
C1538 H1515 0.914 1_455 S
C1538 C1537 1.334 . S
C1538 C1539 1.287 . S
C1539 C1538 1.287 . S
C1539 C1540 1.524 . S
C1539 H1558 0.913 . S
C1540 H1516 0.950 . S
C1540 C1539 1.524 . S
C1540 C1541 1.415 . S
C1541 H1517 0.950 . S
C1541 C1536 1.363 . S
C1541 C1540 1.415 . S
C1542 H1518 0.951 . S
C1542 C1543 1.366 . S
C1542 C1544 1.388 . S
C1543 C1542 1.366 . S
C1543 C1547 1.385 . S
C1544 H1519 0.951 . S
C1544 C1542 1.388 . S
C1544 C1545 1.366 . S
C1545 C1544 1.366 . S
C1545 C1546 1.414 . S
C1545 C1548 1.499 . S
C1546 H1520 0.950 . S
C1546 C1545 1.414 . S
C1546 C1547 1.374 . S
C1547 H1521 0.950 . S
C1547 C1543 1.385 . S
C1547 C1546 1.374 . S
C1548 C1545 1.499 . S
C1548 C1549 1.373 . S
C1548 C1550 1.389 . S
C1549 H1522 0.950 . S
C1549 C1535 1.377 . S
C1549 C1548 1.373 . S
C1550 C1534 1.377 . S
C1550 C1548 1.389 . S
C1550 C1551 1.524 . S
C1551 C1550 1.524 . S
C1551 C1552 1.397 . S
C1551 C1556 1.363 . S
C1552 H1523 0.950 . S
C1552 C1551 1.397 . S
C1552 C1553 1.334 . S
C1553 H1524 0.950 . S
C1553 C1552 1.334 . S
C1553 C1554 1.287 . S
C1554 C1553 1.287 . S
C1554 C1555 1.524 . S
C1554 H1557 0.999 . S
C1555 H1525 0.950 . S
C1555 C1554 1.524 . S
C1555 C1556 1.415 . S
C1556 H1526 0.950 . S
C1556 C1551 1.363 . S
C1556 C1555 1.415 . S
H1557 C1554 0.999 . S
H1558 C1539 0.913 . S
H1559 C1577 0.951 . S
H1560 C1579 0.951 . S
H1561 C1581 0.950 . S
H1562 C1582 0.950 . S
H1563 C1584 0.950 . S
H1564 C1587 0.950 . S
H1565 C1588 0.950 . S
H1566 C1590 0.950 . S
H1567 C1591 0.950 . S
H1568 C1592 0.951 . S
H1569 C1594 0.951 . S
H1570 C1596 0.950 . S
H1571 C1597 0.950 . S
H1572 C1599 0.950 . S
H1573 C1602 0.950 . S
H1574 C1603 0.950 . S
H1575 C1605 0.950 . S
H1576 C1606 0.950 . S
C1577 H1559 0.951 . S
C1577 C1578 1.366 . S
C1577 C1579 1.388 . S
C1578 C1577 1.366 . S
C1578 C1582 1.385 . S
C1579 H1560 0.951 . S
C1579 C1577 1.388 . S
C1579 C1580 1.366 . S
C1580 C1579 1.366 . S
C1580 C1581 1.414 . S
C1580 C1583 1.499 . S
C1581 H1561 0.950 . S
C1581 C1580 1.414 . S
C1581 C1582 1.374 . S
C1582 H1562 0.950 . S
C1582 C1578 1.385 . S
C1582 C1581 1.374 . S
C1583 C1580 1.499 . S
C1583 C1584 1.373 . S
C1583 C1585 1.389 . S
C1584 H1563 0.950 . S
C1584 C1583 1.373 . S
C1584 C1600 1.377 . S
C1585 C1583 1.389 . S
C1585 C1586 1.524 . S
C1585 C1599 1.377 . S
C1586 C1585 1.524 . S
C1586 C1587 1.397 . S
C1586 C1591 1.363 . S
C1587 H1564 0.950 . S
C1587 C1586 1.397 . S
C1587 C1588 1.334 . S
C1588 H1565 0.950 . S
C1588 C1587 1.334 . S
C1588 C1589 1.287 . S
C1589 C1588 1.287 . S
C1589 C1590 1.524 . S
C1589 H1608 0.913 . S
C1590 H1566 0.950 . S
C1590 C1589 1.524 . S
C1590 C1591 1.415 . S
C1591 H1567 0.950 . S
C1591 C1586 1.363 . S
C1591 C1590 1.415 . S
C1592 H1568 0.951 . S
C1592 C1593 1.366 . S
C1592 C1594 1.388 . S
C1593 C1592 1.366 . S
C1593 C1597 1.385 . S
C1594 H1569 0.951 . S
C1594 C1592 1.388 . S
C1594 C1595 1.366 . S
C1595 C1594 1.366 . S
C1595 C1596 1.414 . S
C1595 C1598 1.499 . S
C1596 H1570 0.950 . S
C1596 C1595 1.414 . S
C1596 C1597 1.374 . S
C1597 H1571 0.950 . S
C1597 C1593 1.385 . S
C1597 C1596 1.374 . S
C1598 C1595 1.499 . S
C1598 C1599 1.373 . S
C1598 C1600 1.389 . S
C1599 H1572 0.950 . S
C1599 C1585 1.377 . S
C1599 C1598 1.373 . S
C1600 C1584 1.377 . S
C1600 C1598 1.389 . S
C1600 C1601 1.524 . S
C1601 C1600 1.524 . S
C1601 C1602 1.397 . S
C1601 C1606 1.363 . S
C1602 H1573 0.950 . S
C1602 C1601 1.397 . S
C1602 C1603 1.334 . S
C1603 H1574 0.950 . S
C1603 C1602 1.334 . S
C1603 C1604 1.287 . S
C1604 C1603 1.287 . S
C1604 C1605 1.524 . S
C1604 H1607 0.999 . S
C1605 H1575 0.950 . S
C1605 C1604 1.524 . S
C1605 C1606 1.415 . S
C1606 H1576 0.950 . S
C1606 C1601 1.363 . S
C1606 C1605 1.415 . S
H1607 C1604 0.999 . S
H1608 C1589 0.913 . S
H1609 C1627 0.951 . S
H1610 C1629 0.951 . S
H1611 C1631 0.950 1_565 S
H1612 C1632 0.950 . S
H1613 C1634 0.950 . S
H1614 C1637 0.950 . S
H1615 C1638 0.950 . S
H1616 C1640 0.950 . S
H1617 C1641 0.950 . S
H1618 C1642 0.951 . S
H1619 C1644 0.951 . S
H1620 C1646 0.950 . S
H1621 C1647 0.950 . S
H1622 C1649 0.950 . S
H1623 C1652 0.950 . S
H1624 C1653 0.950 . S
H1625 C1655 0.950 . S
H1626 C1656 0.950 . S
C1627 H1609 0.951 . S
C1627 C1628 1.366 . S
C1627 C1629 1.388 . S
C1628 C1627 1.366 . S
C1628 C1632 1.385 . S
C1629 H1610 0.951 . S
C1629 C1627 1.388 . S
C1629 C1630 1.361 1_545 S
C1630 C1629 1.361 1_565 S
C1630 C1631 1.398 1_565 S
C1630 C1633 1.519 . S
C1631 H1611 0.950 1_545 S
C1631 C1630 1.398 1_545 S
C1631 C1632 1.374 . S
C1632 H1612 0.950 . S
C1632 C1628 1.385 . S
C1632 C1631 1.374 . S
C1633 C1630 1.519 . S
C1633 C1634 1.373 . S
C1633 C1635 1.389 . S
C1634 H1613 0.950 . S
C1634 C1633 1.373 . S
C1634 C1650 1.377 . S
C1635 C1633 1.389 . S
C1635 C1636 1.524 . S
C1635 C1649 1.377 . S
C1636 C1635 1.524 . S
C1636 C1637 1.397 . S
C1636 C1641 1.363 . S
C1637 H1614 0.950 . S
C1637 C1636 1.397 . S
C1637 C1638 1.334 1_565 S
C1638 H1615 0.950 . S
C1638 C1637 1.334 1_545 S
C1638 C1639 1.287 . S
C1639 C1638 1.287 . S
C1639 C1640 1.524 1_545 S
C1639 H1658 0.913 . S
C1640 H1616 0.950 . S
C1640 C1639 1.524 1_565 S
C1640 C1641 1.415 . S
C1641 H1617 0.950 . S
C1641 C1636 1.363 . S
C1641 C1640 1.415 . S
C1642 H1618 0.951 . S
C1642 C1643 1.366 . S
C1642 C1644 1.388 . S
C1643 C1642 1.366 . S
C1643 C1647 1.385 . S
C1644 H1619 0.951 . S
C1644 C1642 1.388 . S
C1644 C1645 1.366 . S
C1645 C1644 1.366 . S
C1645 C1646 1.414 . S
C1645 C1648 1.499 . S
C1646 H1620 0.950 . S
C1646 C1645 1.414 . S
C1646 C1647 1.374 . S
C1647 H1621 0.950 . S
C1647 C1643 1.385 . S
C1647 C1646 1.374 . S
C1648 C1645 1.499 . S
C1648 C1649 1.373 . S
C1648 C1650 1.389 . S
C1649 H1622 0.950 . S
C1649 C1635 1.377 . S
C1649 C1648 1.373 . S
C1650 C1634 1.377 . S
C1650 C1648 1.389 . S
C1650 C1651 1.524 . S
C1651 C1650 1.524 . S
C1651 C1652 1.397 . S
C1651 C1656 1.363 . S
C1652 H1623 0.950 . S
C1652 C1651 1.397 . S
C1652 C1653 1.334 . S
C1653 H1624 0.950 . S
C1653 C1652 1.334 . S
C1653 C1654 1.287 . S
C1654 C1653 1.287 . S
C1654 C1655 1.524 . S
C1654 H1657 0.999 . S
C1655 H1625 0.950 . S
C1655 C1654 1.524 . S
C1655 C1656 1.415 . S
C1656 H1626 0.950 . S
C1656 C1651 1.363 . S
C1656 C1655 1.415 . S
H1657 C1654 0.999 . S
H1658 C1639 0.913 . S
H1659 C1677 0.951 . S
H1660 C1679 0.951 . S
H1661 C1681 0.950 . S
H1662 C1682 0.950 . S
H1663 C1684 0.950 . S
H1664 C1687 0.950 . S
H1665 C1688 0.950 . S
H1666 C1690 0.950 . S
H1667 C1691 0.950 . S
H1668 C1692 0.951 . S
H1669 C1694 0.951 . S
H1670 C1696 0.950 . S
H1671 C1697 0.950 . S
H1672 C1699 0.950 . S
H1673 C1702 0.950 . S
H1674 C1703 0.950 . S
H1675 C1705 0.950 . S
H1676 C1706 0.950 . S
C1677 H1659 0.951 . S
C1677 C1678 1.366 . S
C1677 C1679 1.388 . S
C1678 C1677 1.366 . S
C1678 C1682 1.385 . S
C1679 H1660 0.951 . S
C1679 C1677 1.388 . S
C1679 C1680 1.366 . S
C1680 C1679 1.366 . S
C1680 C1681 1.414 . S
C1680 C1683 1.499 . S
C1681 H1661 0.950 . S
C1681 C1680 1.414 . S
C1681 C1682 1.374 . S
C1682 H1662 0.950 . S
C1682 C1678 1.385 . S
C1682 C1681 1.374 . S
C1683 C1680 1.499 . S
C1683 C1684 1.373 . S
C1683 C1685 1.389 . S
C1684 H1663 0.950 . S
C1684 C1683 1.373 . S
C1684 C1700 1.377 . S
C1685 C1683 1.389 . S
C1685 C1686 1.524 . S
C1685 C1699 1.377 . S
C1686 C1685 1.524 . S
C1686 C1687 1.397 . S
C1686 C1691 1.363 . S
C1687 H1664 0.950 . S
C1687 C1686 1.397 . S
C1687 C1688 1.334 . S
C1688 H1665 0.950 . S
C1688 C1687 1.334 . S
C1688 C1689 1.287 . S
C1689 C1688 1.287 . S
C1689 C1690 1.524 . S
C1689 H1708 0.913 . S
C1690 H1666 0.950 . S
C1690 C1689 1.524 . S
C1690 C1691 1.415 . S
C1691 H1667 0.950 . S
C1691 C1686 1.363 . S
C1691 C1690 1.415 . S
C1692 H1668 0.951 . S
C1692 C1693 1.366 . S
C1692 C1694 1.388 . S
C1693 C1692 1.366 . S
C1693 C1697 1.385 . S
C1694 H1669 0.951 . S
C1694 C1692 1.388 . S
C1694 C1695 1.366 . S
C1695 C1694 1.366 . S
C1695 C1696 1.414 . S
C1695 C1698 1.499 . S
C1696 H1670 0.950 . S
C1696 C1695 1.414 . S
C1696 C1697 1.374 . S
C1697 H1671 0.950 . S
C1697 C1693 1.385 . S
C1697 C1696 1.374 . S
C1698 C1695 1.499 . S
C1698 C1699 1.373 . S
C1698 C1700 1.389 . S
C1699 H1672 0.950 . S
C1699 C1685 1.377 . S
C1699 C1698 1.373 . S
C1700 C1684 1.377 . S
C1700 C1698 1.389 . S
C1700 C1701 1.524 . S
C1701 C1700 1.524 . S
C1701 C1702 1.397 . S
C1701 C1706 1.363 . S
C1702 H1673 0.950 . S
C1702 C1701 1.397 . S
C1702 C1703 1.334 . S
C1703 H1674 0.950 . S
C1703 C1702 1.334 . S
C1703 C1704 1.287 . S
C1704 C1703 1.287 . S
C1704 C1705 1.524 . S
C1704 H1707 0.999 . S
C1705 H1675 0.950 . S
C1705 C1704 1.524 . S
C1705 C1706 1.415 . S
C1706 H1676 0.950 . S
C1706 C1701 1.363 . S
C1706 C1705 1.415 . S
H1707 C1704 0.999 . S
H1708 C1689 0.913 . S
H1709 C1727 0.951 . S
H1710 C1729 0.951 . S
H1711 C1731 0.950 . S
H1712 C1732 0.950 . S
H1713 C1734 0.950 . S
H1714 C1737 0.950 . S
H1715 C1738 0.950 . S
H1716 C1740 0.950 . S
H1717 C1741 0.950 . S
H1718 C1742 0.951 . S
H1719 C1744 0.951 . S
H1720 C1746 0.950 . S
H1721 C1747 0.950 . S
H1722 C1749 0.950 . S
H1723 C1752 0.950 . S
H1724 C1753 0.950 . S
H1725 C1755 0.950 . S
H1726 C1756 0.950 . S
C1727 H1709 0.951 . S
C1727 C1728 1.366 . S
C1727 C1729 1.388 . S
C1728 C1727 1.366 . S
C1728 C1732 1.385 . S
C1729 H1710 0.951 . S
C1729 C1727 1.388 . S
C1729 C1730 1.366 . S
C1730 C1729 1.366 . S
C1730 C1731 1.414 . S
C1730 C1733 1.499 . S
C1731 H1711 0.950 . S
C1731 C1730 1.414 . S
C1731 C1732 1.374 . S
C1732 H1712 0.950 . S
C1732 C1728 1.385 . S
C1732 C1731 1.374 . S
C1733 C1730 1.499 . S
C1733 C1734 1.373 . S
C1733 C1735 1.389 . S
C1734 H1713 0.950 . S
C1734 C1733 1.373 . S
C1734 C1750 1.377 . S
C1735 C1733 1.389 . S
C1735 C1736 1.524 . S
C1735 C1749 1.377 . S
C1736 C1735 1.524 . S
C1736 C1737 1.397 . S
C1736 C1741 1.363 . S
C1737 H1714 0.950 . S
C1737 C1736 1.397 . S
C1737 C1738 1.334 . S
C1738 H1715 0.950 . S
C1738 C1737 1.334 . S
C1738 C1739 1.287 . S
C1739 C1738 1.287 . S
C1739 C1740 1.524 . S
C1739 H1758 0.913 . S
C1740 H1716 0.950 . S
C1740 C1739 1.524 . S
C1740 C1741 1.415 . S
C1741 H1717 0.950 . S
C1741 C1736 1.363 . S
C1741 C1740 1.415 . S
C1742 H1718 0.951 . S
C1742 C1743 1.366 . S
C1742 C1744 1.388 . S
C1743 C1742 1.366 . S
C1743 C1747 1.385 . S
C1744 H1719 0.951 . S
C1744 C1742 1.388 . S
C1744 C1745 1.366 . S
C1745 C1744 1.366 . S
C1745 C1746 1.414 . S
C1745 C1748 1.499 . S
C1746 H1720 0.950 . S
C1746 C1745 1.414 . S
C1746 C1747 1.374 . S
C1747 H1721 0.950 . S
C1747 C1743 1.385 . S
C1747 C1746 1.374 . S
C1748 C1745 1.499 . S
C1748 C1749 1.373 . S
C1748 C1750 1.389 . S
C1749 H1722 0.950 . S
C1749 C1735 1.377 . S
C1749 C1748 1.373 . S
C1750 C1734 1.377 . S
C1750 C1748 1.389 . S
C1750 C1751 1.524 . S
C1751 C1750 1.524 . S
C1751 C1752 1.397 . S
C1751 C1756 1.363 . S
C1752 H1723 0.950 . S
C1752 C1751 1.397 . S
C1752 C1753 1.334 . S
C1753 H1724 0.950 . S
C1753 C1752 1.334 . S
C1753 C1754 1.287 . S
C1754 C1753 1.287 . S
C1754 C1755 1.524 . S
C1754 H1757 0.999 . S
C1755 H1725 0.950 . S
C1755 C1754 1.524 . S
C1755 C1756 1.415 . S
C1756 H1726 0.950 . S
C1756 C1751 1.363 . S
C1756 C1755 1.415 . S
H1757 C1754 0.999 . S
H1758 C1739 0.913 . S
H1759 C1777 0.951 . S
H1760 C1779 0.951 . S
H1761 C1781 0.950 . S
H1762 C1782 0.950 . S
H1763 C1784 0.950 . S
H1764 C1787 0.950 . S
H1765 C1788 0.950 . S
H1766 C1790 0.950 . S
H1767 C1791 0.950 . S
H1768 C1792 0.951 . S
H1769 C1794 0.951 . S
H1770 C1796 0.950 . S
H1771 C1797 0.950 . S
H1772 C1799 0.950 . S
H1773 C1802 0.950 . S
H1774 C1803 0.950 . S
H1775 C1805 0.950 . S
H1776 C1806 0.950 . S
C1777 H1759 0.951 . S
C1777 C1778 1.366 . S
C1777 C1779 1.388 . S
C1778 C1777 1.366 . S
C1778 C1782 1.385 . S
C1779 H1760 0.951 . S
C1779 C1777 1.388 . S
C1779 C1780 1.366 . S
C1780 C1779 1.366 . S
C1780 C1781 1.414 . S
C1780 C1783 1.499 . S
C1781 H1761 0.950 . S
C1781 C1780 1.414 . S
C1781 C1782 1.374 . S
C1782 H1762 0.950 . S
C1782 C1778 1.385 . S
C1782 C1781 1.374 . S
C1783 C1780 1.499 . S
C1783 C1784 1.373 . S
C1783 C1785 1.389 . S
C1784 H1763 0.950 . S
C1784 C1783 1.373 . S
C1784 C1800 1.377 . S
C1785 C1783 1.389 . S
C1785 C1786 1.524 . S
C1785 C1799 1.377 . S
C1786 C1785 1.524 . S
C1786 C1787 1.397 . S
C1786 C1791 1.363 . S
C1787 H1764 0.950 . S
C1787 C1786 1.397 . S
C1787 C1788 1.334 . S
C1788 H1765 0.950 . S
C1788 C1787 1.334 . S
C1788 C1789 1.287 . S
C1789 C1788 1.287 . S
C1789 C1790 1.524 . S
C1789 H1808 0.913 . S
C1790 H1766 0.950 . S
C1790 C1789 1.524 . S
C1790 C1791 1.415 . S
C1791 H1767 0.950 . S
C1791 C1786 1.363 . S
C1791 C1790 1.415 . S
C1792 H1768 0.951 . S
C1792 C1793 1.366 . S
C1792 C1794 1.388 . S
C1793 C1792 1.366 . S
C1793 C1797 1.385 . S
C1794 H1769 0.951 . S
C1794 C1792 1.388 . S
C1794 C1795 1.366 . S
C1795 C1794 1.366 . S
C1795 C1796 1.414 . S
C1795 C1798 1.499 . S
C1796 H1770 0.950 . S
C1796 C1795 1.414 . S
C1796 C1797 1.374 . S
C1797 H1771 0.950 . S
C1797 C1793 1.385 . S
C1797 C1796 1.374 . S
C1798 C1795 1.499 . S
C1798 C1799 1.373 . S
C1798 C1800 1.389 . S
C1799 H1772 0.950 . S
C1799 C1785 1.377 . S
C1799 C1798 1.373 . S
C1800 C1784 1.377 . S
C1800 C1798 1.389 . S
C1800 C1801 1.524 . S
C1801 C1800 1.524 . S
C1801 C1802 1.397 . S
C1801 C1806 1.363 . S
C1802 H1773 0.950 . S
C1802 C1801 1.397 . S
C1802 C1803 1.334 . S
C1803 H1774 0.950 . S
C1803 C1802 1.334 . S
C1803 C1804 1.287 . S
C1804 C1803 1.287 . S
C1804 C1805 1.524 . S
C1804 H1807 0.999 . S
C1805 H1775 0.950 . S
C1805 C1804 1.524 . S
C1805 C1806 1.415 . S
C1806 H1776 0.950 . S
C1806 C1801 1.363 . S
C1806 C1805 1.415 . S
H1807 C1804 0.999 . S
H1808 C1789 0.913 . S
H1809 C1827 0.951 . S
H1810 C1829 0.951 . S
H1811 C1831 0.950 . S
H1812 C1832 0.950 . S
H1813 C1834 0.950 . S
H1814 C1837 0.950 . S
H1815 C1838 0.950 . S
H1816 C1840 0.950 . S
H1817 C1841 0.950 . S
H1818 C1842 0.951 . S
H1819 C1844 0.951 . S
H1820 C1846 0.950 . S
H1821 C1847 0.950 . S
H1822 C1849 0.950 . S
H1823 C1852 0.950 . S
H1824 C1853 0.950 . S
H1825 C1855 0.950 . S
H1826 C1856 0.950 . S
C1827 H1809 0.951 . S
C1827 C1828 1.366 . S
C1827 C1829 1.388 . S
C1828 C1827 1.366 . S
C1828 C1832 1.385 . S
C1829 H1810 0.951 . S
C1829 C1827 1.388 . S
C1829 C1830 1.366 . S
C1830 C1829 1.366 . S
C1830 C1831 1.414 . S
C1830 C1833 1.499 . S
C1831 H1811 0.950 . S
C1831 C1830 1.414 . S
C1831 C1832 1.374 . S
C1832 H1812 0.950 . S
C1832 C1828 1.385 . S
C1832 C1831 1.374 . S
C1833 C1830 1.499 . S
C1833 C1834 1.373 . S
C1833 C1835 1.389 . S
C1834 H1813 0.950 . S
C1834 C1833 1.373 . S
C1834 C1850 1.377 . S
C1835 C1833 1.389 . S
C1835 C1836 1.524 . S
C1835 C1849 1.377 . S
C1836 C1835 1.524 . S
C1836 C1837 1.397 . S
C1836 C1841 1.363 . S
C1837 H1814 0.950 . S
C1837 C1836 1.397 . S
C1837 C1838 1.334 . S
C1838 H1815 0.950 . S
C1838 C1837 1.334 . S
C1838 C1839 1.287 . S
C1839 C1838 1.287 . S
C1839 C1840 1.524 . S
C1839 H1858 0.913 . S
C1840 H1816 0.950 . S
C1840 C1839 1.524 . S
C1840 C1841 1.415 . S
C1841 H1817 0.950 . S
C1841 C1836 1.363 . S
C1841 C1840 1.415 . S
C1842 H1818 0.951 . S
C1842 C1843 1.366 . S
C1842 C1844 1.388 . S
C1843 C1842 1.366 . S
C1843 C1847 1.385 . S
C1844 H1819 0.951 . S
C1844 C1842 1.388 . S
C1844 C1845 1.366 . S
C1845 C1844 1.366 . S
C1845 C1846 1.414 . S
C1845 C1848 1.499 . S
C1846 H1820 0.950 . S
C1846 C1845 1.414 . S
C1846 C1847 1.374 . S
C1847 H1821 0.950 . S
C1847 C1843 1.385 . S
C1847 C1846 1.374 . S
C1848 C1845 1.499 . S
C1848 C1849 1.373 . S
C1848 C1850 1.389 . S
C1849 H1822 0.950 . S
C1849 C1835 1.377 . S
C1849 C1848 1.373 . S
C1850 C1834 1.377 . S
C1850 C1848 1.389 . S
C1850 C1851 1.524 . S
C1851 C1850 1.524 . S
C1851 C1852 1.397 . S
C1851 C1856 1.363 . S
C1852 H1823 0.950 . S
C1852 C1851 1.397 . S
C1852 C1853 1.334 . S
C1853 H1824 0.950 . S
C1853 C1852 1.334 . S
C1853 C1854 1.287 . S
C1854 C1853 1.287 . S
C1854 C1855 1.524 . S
C1854 H1857 0.999 . S
C1855 H1825 0.950 . S
C1855 C1854 1.524 . S
C1855 C1856 1.415 . S
C1856 H1826 0.950 . S
C1856 C1851 1.363 . S
C1856 C1855 1.415 . S
H1857 C1854 0.999 . S
H1858 C1839 0.913 . S
H1859 C1877 0.951 . S
H1860 C1879 0.951 . S
H1861 C1881 0.950 . S
H1862 C1882 0.950 . S
H1863 C1884 0.950 . S
H1864 C1887 0.950 . S
H1865 C1888 0.950 . S
H1866 C1890 0.950 . S
H1867 C1891 0.950 . S
H1868 C1892 0.951 . S
H1869 C1894 0.951 . S
H1870 C1896 0.950 . S
H1871 C1897 0.950 . S
H1872 C1899 0.950 . S
H1873 C1902 0.950 . S
H1874 C1903 0.950 . S
H1875 C1905 0.950 . S
H1876 C1906 0.950 . S
C1877 H1859 0.951 . S
C1877 C1878 1.366 . S
C1877 C1879 1.388 . S
C1878 C1877 1.366 . S
C1878 C1882 1.385 . S
C1879 H1860 0.951 . S
C1879 C1877 1.388 . S
C1879 C1880 1.366 . S
C1880 C1879 1.366 . S
C1880 C1881 1.414 . S
C1880 C1883 1.499 . S
C1881 H1861 0.950 . S
C1881 C1880 1.414 . S
C1881 C1882 1.374 . S
C1882 H1862 0.950 . S
C1882 C1878 1.385 . S
C1882 C1881 1.374 . S
C1883 C1880 1.499 . S
C1883 C1884 1.373 . S
C1883 C1885 1.389 . S
C1884 H1863 0.950 . S
C1884 C1883 1.373 . S
C1884 C1900 1.377 . S
C1885 C1883 1.389 . S
C1885 C1886 1.524 . S
C1885 C1899 1.377 . S
C1886 C1885 1.524 . S
C1886 C1887 1.397 . S
C1886 C1891 1.363 . S
C1887 H1864 0.950 . S
C1887 C1886 1.397 . S
C1887 C1888 1.334 . S
C1888 H1865 0.950 . S
C1888 C1887 1.334 . S
C1888 C1889 1.287 . S
C1889 C1888 1.287 . S
C1889 C1890 1.524 . S
C1889 H1908 0.913 . S
C1890 H1866 0.950 . S
C1890 C1889 1.524 . S
C1890 C1891 1.415 . S
C1891 H1867 0.950 . S
C1891 C1886 1.363 . S
C1891 C1890 1.415 . S
C1892 H1868 0.951 . S
C1892 C1893 1.366 . S
C1892 C1894 1.388 . S
C1893 C1892 1.366 . S
C1893 C1897 1.385 . S
C1894 H1869 0.951 . S
C1894 C1892 1.388 . S
C1894 C1895 1.366 . S
C1895 C1894 1.366 . S
C1895 C1896 1.414 . S
C1895 C1898 1.499 . S
C1896 H1870 0.950 . S
C1896 C1895 1.414 . S
C1896 C1897 1.374 . S
C1897 H1871 0.950 . S
C1897 C1893 1.385 . S
C1897 C1896 1.374 . S
C1898 C1895 1.499 . S
C1898 C1899 1.373 . S
C1898 C1900 1.389 . S
C1899 H1872 0.950 . S
C1899 C1885 1.377 . S
C1899 C1898 1.373 . S
C1900 C1884 1.377 . S
C1900 C1898 1.389 . S
C1900 C1901 1.524 . S
C1901 C1900 1.524 . S
C1901 C1902 1.397 . S
C1901 C1906 1.363 . S
C1902 H1873 0.950 . S
C1902 C1901 1.397 . S
C1902 C1903 1.334 . S
C1903 H1874 0.950 . S
C1903 C1902 1.334 . S
C1903 C1904 1.287 . S
C1904 C1903 1.287 . S
C1904 C1905 1.524 . S
C1904 H1907 0.999 . S
C1905 H1875 0.950 . S
C1905 C1904 1.524 . S
C1905 C1906 1.415 . S
C1906 H1876 0.950 . S
C1906 C1901 1.363 . S
C1906 C1905 1.415 . S
H1907 C1904 0.999 . S
H1908 C1889 0.913 . S
H1909 C1927 0.951 . S
H1910 C1929 0.951 . S
H1911 C1931 0.950 . S
H1912 C1932 0.950 . S
H1913 C1934 0.950 . S
H1914 C1937 0.950 . S
H1915 C1938 0.950 . S
H1916 C1940 0.950 . S
H1917 C1941 0.950 . S
H1918 C1942 0.951 . S
H1919 C1944 0.951 . S
H1920 C1946 0.950 . S
H1921 C1947 0.950 . S
H1922 C1949 0.950 . S
H1923 C1952 0.950 . S
H1924 C1953 0.950 . S
H1925 C1955 0.950 . S
H1926 C1956 0.950 . S
C1927 H1909 0.951 . S
C1927 C1928 1.366 . S
C1927 C1929 1.388 . S
C1928 C1927 1.366 . S
C1928 C1932 1.385 . S
C1929 H1910 0.951 . S
C1929 C1927 1.388 . S
C1929 C1930 1.366 . S
C1930 C1929 1.366 . S
C1930 C1931 1.414 . S
C1930 C1933 1.499 . S
C1931 H1911 0.950 . S
C1931 C1930 1.414 . S
C1931 C1932 1.374 . S
C1932 H1912 0.950 . S
C1932 C1928 1.385 . S
C1932 C1931 1.374 . S
C1933 C1930 1.499 . S
C1933 C1934 1.373 . S
C1933 C1935 1.389 . S
C1934 H1913 0.950 . S
C1934 C1933 1.373 . S
C1934 C1950 1.377 . S
C1935 C1933 1.389 . S
C1935 C1936 1.524 . S
C1935 C1949 1.377 . S
C1936 C1935 1.524 . S
C1936 C1937 1.397 . S
C1936 C1941 1.363 . S
C1937 H1914 0.950 . S
C1937 C1936 1.397 . S
C1937 C1938 1.334 . S
C1938 H1915 0.950 . S
C1938 C1937 1.334 . S
C1938 C1939 1.287 . S
C1939 C1938 1.287 . S
C1939 C1940 1.524 . S
C1939 H1958 0.913 . S
C1940 H1916 0.950 . S
C1940 C1939 1.524 . S
C1940 C1941 1.415 . S
C1941 H1917 0.950 . S
C1941 C1936 1.363 . S
C1941 C1940 1.415 . S
C1942 H1918 0.951 . S
C1942 C1943 1.366 . S
C1942 C1944 1.388 . S
C1943 C1942 1.366 . S
C1943 C1947 1.385 . S
C1944 H1919 0.951 . S
C1944 C1942 1.388 . S
C1944 C1945 1.366 . S
C1945 C1944 1.366 . S
C1945 C1946 1.414 . S
C1945 C1948 1.499 . S
C1946 H1920 0.950 . S
C1946 C1945 1.414 . S
C1946 C1947 1.374 . S
C1947 H1921 0.950 . S
C1947 C1943 1.385 . S
C1947 C1946 1.374 . S
C1948 C1945 1.499 . S
C1948 C1949 1.373 . S
C1948 C1950 1.389 . S
C1949 H1922 0.950 . S
C1949 C1935 1.377 . S
C1949 C1948 1.373 . S
C1950 C1934 1.377 . S
C1950 C1948 1.389 . S
C1950 C1951 1.524 . S
C1951 C1950 1.524 . S
C1951 C1952 1.397 . S
C1951 C1956 1.363 . S
C1952 H1923 0.950 . S
C1952 C1951 1.397 . S
C1952 C1953 1.334 . S
C1953 H1924 0.950 . S
C1953 C1952 1.334 . S
C1953 C1954 1.287 . S
C1954 C1953 1.287 . S
C1954 C1955 1.524 . S
C1954 H1957 0.999 . S
C1955 H1925 0.950 . S
C1955 C1954 1.524 . S
C1955 C1956 1.415 . S
C1956 H1926 0.950 . S
C1956 C1951 1.363 . S
C1956 C1955 1.415 . S
H1957 C1954 0.999 . S
H1958 C1939 0.913 . S
H1959 C1977 0.951 . S
H1960 C1979 0.966 . S
H1961 C1981 0.949 1_565 S
H1962 C1982 0.950 . S
H1963 C1984 0.950 . S
H1964 C1987 0.950 . S
H1965 C1988 0.950 . S
H1966 C1990 0.950 . S
H1967 C1991 0.950 . S
H1968 C1992 0.951 . S
H1969 C1994 0.951 . S
H1970 C1996 0.950 . S
H1971 C1997 0.950 . S
H1972 C1999 0.950 . S
H1973 C2002 0.950 . S
H1974 C2003 0.950 . S
H1975 C2005 0.950 . S
H1976 C2006 0.950 . S
C1977 H1959 0.951 . S
C1977 C1978 1.366 . S
C1977 C1979 1.388 . S
C1978 C1977 1.366 . S
C1978 C1982 1.385 . S
C1979 H1960 0.966 . S
C1979 C1977 1.388 . S
C1979 C1980 1.366 1_545 S
C1980 C1979 1.366 1_565 S
C1980 C1981 1.414 1_565 S
C1980 C1983 1.499 . S
C1981 H1961 0.949 1_545 S
C1981 C1980 1.414 1_545 S
C1981 C1982 1.374 . S
C1982 H1962 0.950 . S
C1982 C1978 1.385 . S
C1982 C1981 1.374 . S
C1983 C1980 1.499 . S
C1983 C1984 1.373 . S
C1983 C1985 1.389 . S
C1984 H1963 0.950 . S
C1984 C1983 1.373 . S
C1984 C2000 1.377 . S
C1985 C1983 1.389 . S
C1985 C1986 1.524 . S
C1985 C1999 1.377 . S
C1986 C1985 1.524 . S
C1986 C1987 1.397 . S
C1986 C1991 1.363 . S
C1987 H1964 0.950 . S
C1987 C1986 1.397 . S
C1987 C1988 1.334 1_565 S
C1988 H1965 0.950 . S
C1988 C1987 1.334 1_545 S
C1988 C1989 1.302 . S
C1989 C1988 1.302 . S
C1989 C1990 1.488 1_545 S
C1989 H2008 0.938 . S
C1990 H1966 0.950 . S
C1990 C1989 1.488 1_565 S
C1990 C1991 1.415 . S
C1991 H1967 0.950 . S
C1991 C1986 1.363 . S
C1991 C1990 1.415 . S
C1992 H1968 0.951 . S
C1992 C1993 1.366 . S
C1992 C1994 1.388 . S
C1993 C1992 1.366 . S
C1993 C1997 1.385 . S
C1994 H1969 0.951 . S
C1994 C1992 1.388 . S
C1994 C1995 1.366 . S
C1995 C1994 1.366 . S
C1995 C1996 1.414 . S
C1995 C1998 1.499 . S
C1996 H1970 0.950 . S
C1996 C1995 1.414 . S
C1996 C1997 1.374 . S
C1997 H1971 0.950 . S
C1997 C1993 1.385 . S
C1997 C1996 1.374 . S
C1998 C1995 1.499 . S
C1998 C1999 1.373 . S
C1998 C2000 1.389 . S
C1999 H1972 0.950 . S
C1999 C1985 1.377 . S
C1999 C1998 1.373 . S
C2000 C1984 1.377 . S
C2000 C1998 1.389 . S
C2000 C2001 1.524 . S
C2001 C2000 1.524 . S
C2001 C2002 1.397 . S
C2001 C2006 1.363 . S
C2002 H1973 0.950 . S
C2002 C2001 1.397 . S
C2002 C2003 1.334 . S
C2003 H1974 0.950 . S
C2003 C2002 1.334 . S
C2003 C2004 1.287 . S
C2004 C2003 1.287 . S
C2004 C2005 1.524 . S
C2004 H2007 0.999 . S
C2005 H1975 0.950 . S
C2005 C2004 1.524 . S
C2005 C2006 1.415 . S
C2006 H1976 0.950 . S
C2006 C2001 1.363 . S
C2006 C2005 1.415 . S
H2007 C2004 0.999 . S
H2008 C1989 0.938 . S
H2009 C2027 0.951 . S
H2010 C2029 0.951 1_455 S
H2011 C2031 0.950 . S
H2012 C2032 0.950 . S
H2013 C2034 0.950 . S
H2014 C2037 0.950 . S
H2015 C2038 0.950 1_655 S
H2016 C2040 0.950 . S
H2017 C2041 0.950 . S
H2018 C2042 0.951 . S
H2019 C2044 0.951 . S
H2020 C2046 0.950 . S
H2021 C2047 0.950 . S
H2022 C2049 0.950 . S
H2023 C2052 0.950 . S
H2024 C2053 0.950 . S
H2025 C2055 0.950 . S
H2026 C2056 0.950 . S
C2027 H2009 0.951 . S
C2027 C2028 1.366 . S
C2027 C2029 1.388 . S
C2028 C2027 1.366 . S
C2028 C2032 1.385 . S
C2029 H2010 0.951 1_655 S
C2029 C2027 1.388 . S
C2029 C2030 1.366 1_655 S
C2030 C2029 1.366 1_455 S
C2030 C2031 1.414 1_455 S
C2030 C2033 1.499 . S
C2031 H2011 0.950 . S
C2031 C2030 1.414 1_655 S
C2031 C2032 1.374 . S
C2032 H2012 0.950 . S
C2032 C2028 1.385 . S
C2032 C2031 1.374 . S
C2033 C2030 1.499 . S
C2033 C2034 1.373 . S
C2033 C2035 1.389 . S
C2034 H2013 0.950 . S
C2034 C2033 1.373 . S
C2034 C2050 1.377 . S
C2035 C2033 1.389 . S
C2035 C2036 1.524 . S
C2035 C2049 1.377 . S
C2036 C2035 1.524 . S
C2036 C2037 1.397 . S
C2036 C2041 1.363 . S
C2037 H2014 0.950 . S
C2037 C2036 1.397 . S
C2037 C2038 1.334 . S
C2038 H2015 0.950 1_455 S
C2038 C2037 1.334 . S
C2038 C2039 1.287 . S
C2039 C2038 1.287 . S
C2039 C2040 1.524 . S
C2039 H2058 0.913 . S
C2040 H2016 0.950 . S
C2040 C2039 1.524 . S
C2040 C2041 1.415 . S
C2041 H2017 0.950 . S
C2041 C2036 1.363 . S
C2041 C2040 1.415 . S
C2042 H2018 0.951 . S
C2042 C2043 1.366 . S
C2042 C2044 1.388 . S
C2043 C2042 1.366 . S
C2043 C2047 1.385 . S
C2044 H2019 0.951 . S
C2044 C2042 1.388 . S
C2044 C2045 1.366 . S
C2045 C2044 1.366 . S
C2045 C2046 1.414 . S
C2045 C2048 1.499 . S
C2046 H2020 0.950 . S
C2046 C2045 1.414 . S
C2046 C2047 1.374 . S
C2047 H2021 0.950 . S
C2047 C2043 1.385 . S
C2047 C2046 1.374 . S
C2048 C2045 1.499 . S
C2048 C2049 1.373 . S
C2048 C2050 1.389 . S
C2049 H2022 0.950 . S
C2049 C2035 1.377 . S
C2049 C2048 1.373 . S
C2050 C2034 1.377 . S
C2050 C2048 1.389 . S
C2050 C2051 1.524 . S
C2051 C2050 1.524 . S
C2051 C2052 1.397 . S
C2051 C2056 1.363 . S
C2052 H2023 0.950 . S
C2052 C2051 1.397 . S
C2052 C2053 1.334 . S
C2053 H2024 0.950 . S
C2053 C2052 1.334 . S
C2053 C2054 1.287 . S
C2054 C2053 1.287 . S
C2054 C2055 1.524 . S
C2054 H2057 0.999 . S
C2055 H2025 0.950 . S
C2055 C2054 1.524 . S
C2055 C2056 1.415 . S
C2056 H2026 0.950 . S
C2056 C2051 1.363 . S
C2056 C2055 1.415 . S
H2057 C2054 0.999 . S
H2058 C2039 0.913 . S
H2059 C2077 0.951 . S
H2060 C2079 0.951 . S
H2061 C2081 0.950 . S
H2062 C2082 0.950 . S
H2063 C2084 0.950 . S
H2064 C2087 0.950 . S
H2065 C2088 0.950 . S
H2066 C2090 0.950 . S
H2067 C2091 0.950 . S
H2068 C2092 0.951 . S
H2069 C2094 0.951 . S
H2070 C2096 0.950 . S
H2071 C2097 0.950 . S
H2072 C2099 0.950 . S
H2073 C2102 0.950 . S
H2074 C2103 0.950 . S
H2075 C2105 0.950 . S
H2076 C2106 0.950 . S
C2077 H2059 0.951 . S
C2077 C2078 1.366 . S
C2077 C2079 1.388 . S
C2078 C2077 1.366 . S
C2078 C2082 1.385 . S
C2079 H2060 0.951 . S
C2079 C2077 1.388 . S
C2079 C2080 1.366 . S
C2080 C2079 1.366 . S
C2080 C2081 1.414 . S
C2080 C2083 1.499 . S
C2081 H2061 0.950 . S
C2081 C2080 1.414 . S
C2081 C2082 1.374 . S
C2082 H2062 0.950 . S
C2082 C2078 1.385 . S
C2082 C2081 1.374 . S
C2083 C2080 1.499 . S
C2083 C2084 1.373 . S
C2083 C2085 1.389 . S
C2084 H2063 0.950 . S
C2084 C2083 1.373 . S
C2084 C2100 1.377 . S
C2085 C2083 1.389 . S
C2085 C2086 1.524 . S
C2085 C2099 1.377 . S
C2086 C2085 1.524 . S
C2086 C2087 1.397 . S
C2086 C2091 1.363 . S
C2087 H2064 0.950 . S
C2087 C2086 1.397 . S
C2087 C2088 1.334 . S
C2088 H2065 0.950 . S
C2088 C2087 1.334 . S
C2088 C2089 1.287 . S
C2089 C2088 1.287 . S
C2089 C2090 1.524 . S
C2089 H2108 0.913 . S
C2090 H2066 0.950 . S
C2090 C2089 1.524 . S
C2090 C2091 1.415 . S
C2091 H2067 0.950 . S
C2091 C2086 1.363 . S
C2091 C2090 1.415 . S
C2092 H2068 0.951 . S
C2092 C2093 1.366 . S
C2092 C2094 1.388 . S
C2093 C2092 1.366 . S
C2093 C2097 1.385 . S
C2094 H2069 0.951 . S
C2094 C2092 1.388 . S
C2094 C2095 1.366 . S
C2095 C2094 1.366 . S
C2095 C2096 1.414 . S
C2095 C2098 1.499 . S
C2096 H2070 0.950 . S
C2096 C2095 1.414 . S
C2096 C2097 1.374 . S
C2097 H2071 0.950 . S
C2097 C2093 1.385 . S
C2097 C2096 1.374 . S
C2098 C2095 1.499 . S
C2098 C2099 1.373 . S
C2098 C2100 1.389 . S
C2099 H2072 0.950 . S
C2099 C2085 1.377 . S
C2099 C2098 1.373 . S
C2100 C2084 1.377 . S
C2100 C2098 1.389 . S
C2100 C2101 1.524 . S
C2101 C2100 1.524 . S
C2101 C2102 1.397 . S
C2101 C2106 1.363 . S
C2102 H2073 0.950 . S
C2102 C2101 1.397 . S
C2102 C2103 1.334 . S
C2103 H2074 0.950 . S
C2103 C2102 1.334 . S
C2103 C2104 1.287 . S
C2104 C2103 1.287 . S
C2104 C2105 1.524 . S
C2104 H2107 0.999 . S
C2105 H2075 0.950 . S
C2105 C2104 1.524 . S
C2105 C2106 1.415 . S
C2106 H2076 0.950 . S
C2106 C2101 1.363 . S
C2106 C2105 1.415 . S
H2107 C2104 0.999 . S
H2108 C2089 0.913 . S
H2109 C2127 0.951 . S
H2110 C2129 0.951 . S
H2111 C2131 0.950 . S
H2112 C2132 0.950 . S
H2113 C2134 0.950 . S
H2114 C2137 0.950 . S
H2115 C2138 0.950 . S
H2116 C2140 0.950 . S
H2117 C2141 0.950 . S
H2118 C2142 0.951 . S
H2119 C2144 0.951 . S
H2120 C2146 0.950 . S
H2121 C2147 0.950 . S
H2122 C2149 0.950 . S
H2123 C2152 0.950 . S
H2124 C2153 0.950 . S
H2125 C2155 0.950 . S
H2126 C2156 0.950 . S
C2127 H2109 0.951 . S
C2127 C2128 1.366 . S
C2127 C2129 1.388 . S
C2128 C2127 1.366 . S
C2128 C2132 1.385 . S
C2129 H2110 0.951 . S
C2129 C2127 1.388 . S
C2129 C2130 1.366 . S
C2130 C2129 1.366 . S
C2130 C2131 1.414 . S
C2130 C2133 1.499 . S
C2131 H2111 0.950 . S
C2131 C2130 1.414 . S
C2131 C2132 1.374 . S
C2132 H2112 0.950 . S
C2132 C2128 1.385 . S
C2132 C2131 1.374 . S
C2133 C2130 1.499 . S
C2133 C2134 1.373 . S
C2133 C2135 1.389 . S
C2134 H2113 0.950 . S
C2134 C2133 1.373 . S
C2134 C2150 1.377 . S
C2135 C2133 1.389 . S
C2135 C2136 1.524 . S
C2135 C2149 1.377 . S
C2136 C2135 1.524 . S
C2136 C2137 1.397 . S
C2136 C2141 1.363 . S
C2137 H2114 0.950 . S
C2137 C2136 1.397 . S
C2137 C2138 1.334 . S
C2138 H2115 0.950 . S
C2138 C2137 1.334 . S
C2138 C2139 1.287 . S
C2139 C2138 1.287 . S
C2139 C2140 1.524 . S
C2139 H2158 0.913 . S
C2140 H2116 0.950 . S
C2140 C2139 1.524 . S
C2140 C2141 1.415 . S
C2141 H2117 0.950 . S
C2141 C2136 1.363 . S
C2141 C2140 1.415 . S
C2142 H2118 0.951 . S
C2142 C2143 1.366 . S
C2142 C2144 1.388 . S
C2143 C2142 1.366 . S
C2143 C2147 1.385 . S
C2144 H2119 0.951 . S
C2144 C2142 1.388 . S
C2144 C2145 1.366 . S
C2145 C2144 1.366 . S
C2145 C2146 1.414 . S
C2145 C2148 1.499 . S
C2146 H2120 0.950 . S
C2146 C2145 1.414 . S
C2146 C2147 1.374 . S
C2147 H2121 0.950 . S
C2147 C2143 1.385 . S
C2147 C2146 1.374 . S
C2148 C2145 1.499 . S
C2148 C2149 1.373 . S
C2148 C2150 1.389 . S
C2149 H2122 0.950 . S
C2149 C2135 1.377 . S
C2149 C2148 1.373 . S
C2150 C2134 1.377 . S
C2150 C2148 1.389 . S
C2150 C2151 1.524 . S
C2151 C2150 1.524 . S
C2151 C2152 1.397 . S
C2151 C2156 1.363 . S
C2152 H2123 0.950 . S
C2152 C2151 1.397 . S
C2152 C2153 1.334 . S
C2153 H2124 0.950 . S
C2153 C2152 1.334 . S
C2153 C2154 1.287 . S
C2154 C2153 1.287 . S
C2154 C2155 1.524 . S
C2154 H2157 0.999 . S
C2155 H2125 0.950 . S
C2155 C2154 1.524 . S
C2155 C2156 1.415 . S
C2156 H2126 0.950 . S
C2156 C2151 1.363 . S
C2156 C2155 1.415 . S
H2157 C2154 0.999 . S
H2158 C2139 0.913 . S
H2159 C2177 0.951 . S
H2160 C2179 0.951 . S
H2161 C2181 0.950 . S
H2162 C2182 0.950 . S
H2163 C2184 0.950 . S
H2164 C2187 0.950 . S
H2165 C2188 0.950 . S
H2166 C2190 0.950 . S
H2167 C2191 0.950 . S
H2168 C2192 0.951 . S
H2169 C2194 0.951 . S
H2170 C2196 0.950 . S
H2171 C2197 0.950 . S
H2172 C2199 0.950 . S
H2173 C2202 0.950 . S
H2174 C2203 0.950 . S
H2175 C2205 0.950 . S
H2176 C2206 0.950 . S
C2177 H2159 0.951 . S
C2177 C2178 1.366 . S
C2177 C2179 1.388 . S
C2178 C2177 1.366 . S
C2178 C2182 1.385 . S
C2179 H2160 0.951 . S
C2179 C2177 1.388 . S
C2179 C2180 1.366 . S
C2180 C2179 1.366 . S
C2180 C2181 1.414 . S
C2180 C2183 1.499 . S
C2181 H2161 0.950 . S
C2181 C2180 1.414 . S
C2181 C2182 1.374 . S
C2182 H2162 0.950 . S
C2182 C2178 1.385 . S
C2182 C2181 1.374 . S
C2183 C2180 1.499 . S
C2183 C2184 1.373 . S
C2183 C2185 1.389 . S
C2184 H2163 0.950 . S
C2184 C2183 1.373 . S
C2184 C2200 1.377 . S
C2185 C2183 1.389 . S
C2185 C2186 1.524 . S
C2185 C2199 1.377 . S
C2186 C2185 1.524 . S
C2186 C2187 1.397 . S
C2186 C2191 1.363 . S
C2187 H2164 0.950 . S
C2187 C2186 1.397 . S
C2187 C2188 1.334 . S
C2188 H2165 0.950 . S
C2188 C2187 1.334 . S
C2188 C2189 1.287 . S
C2189 C2188 1.287 . S
C2189 C2190 1.524 . S
C2189 H2208 0.913 . S
C2190 H2166 0.950 . S
C2190 C2189 1.524 . S
C2190 C2191 1.415 . S
C2191 H2167 0.950 . S
C2191 C2186 1.363 . S
C2191 C2190 1.415 . S
C2192 H2168 0.951 . S
C2192 C2193 1.366 . S
C2192 C2194 1.388 . S
C2193 C2192 1.366 . S
C2193 C2197 1.385 . S
C2194 H2169 0.951 . S
C2194 C2192 1.388 . S
C2194 C2195 1.366 . S
C2195 C2194 1.366 . S
C2195 C2196 1.414 . S
C2195 C2198 1.499 . S
C2196 H2170 0.950 . S
C2196 C2195 1.414 . S
C2196 C2197 1.374 . S
C2197 H2171 0.950 . S
C2197 C2193 1.385 . S
C2197 C2196 1.374 . S
C2198 C2195 1.499 . S
C2198 C2199 1.373 . S
C2198 C2200 1.389 . S
C2199 H2172 0.950 . S
C2199 C2185 1.377 . S
C2199 C2198 1.373 . S
C2200 C2184 1.377 . S
C2200 C2198 1.389 . S
C2200 C2201 1.524 . S
C2201 C2200 1.524 . S
C2201 C2202 1.397 . S
C2201 C2206 1.363 . S
C2202 H2173 0.950 . S
C2202 C2201 1.397 . S
C2202 C2203 1.334 . S
C2203 H2174 0.950 . S
C2203 C2202 1.334 . S
C2203 C2204 1.287 . S
C2204 C2203 1.287 . S
C2204 C2205 1.524 . S
C2204 H2207 0.999 . S
C2205 H2175 0.950 . S
C2205 C2204 1.524 . S
C2205 C2206 1.415 . S
C2206 H2176 0.950 . S
C2206 C2201 1.363 . S
C2206 C2205 1.415 . S
H2207 C2204 0.999 . S
H2208 C2189 0.913 . S
H2209 C2227 0.951 . S
H2210 C2229 0.951 . S
H2211 C2231 0.950 . S
H2212 C2232 0.950 . S
H2213 C2234 0.950 . S
H2214 C2237 0.950 . S
H2215 C2238 0.950 . S
H2216 C2240 0.950 . S
H2217 C2241 0.950 . S
H2218 C2242 0.951 . S
H2219 C2244 0.951 . S
H2220 C2246 0.950 . S
H2221 C2247 0.950 . S
H2222 C2249 0.950 . S
H2223 C2252 0.950 . S
H2224 C2253 0.950 . S
H2225 C2255 0.950 . S
H2226 C2256 0.950 . S
C2227 H2209 0.951 . S
C2227 C2228 1.366 . S
C2227 C2229 1.388 . S
C2228 C2227 1.366 . S
C2228 C2232 1.385 . S
C2229 H2210 0.951 . S
C2229 C2227 1.388 . S
C2229 C2230 1.366 . S
C2230 C2229 1.366 . S
C2230 C2231 1.414 . S
C2230 C2233 1.499 . S
C2231 H2211 0.950 . S
C2231 C2230 1.414 . S
C2231 C2232 1.374 . S
C2232 H2212 0.950 . S
C2232 C2228 1.385 . S
C2232 C2231 1.374 . S
C2233 C2230 1.499 . S
C2233 C2234 1.373 . S
C2233 C2235 1.389 . S
C2234 H2213 0.950 . S
C2234 C2233 1.373 . S
C2234 C2250 1.377 . S
C2235 C2233 1.389 . S
C2235 C2236 1.524 . S
C2235 C2249 1.377 . S
C2236 C2235 1.524 . S
C2236 C2237 1.397 . S
C2236 C2241 1.363 . S
C2237 H2214 0.950 . S
C2237 C2236 1.397 . S
C2237 C2238 1.334 . S
C2238 H2215 0.950 . S
C2238 C2237 1.334 . S
C2238 C2239 1.287 . S
C2239 C2238 1.287 . S
C2239 C2240 1.524 . S
C2239 H2258 0.913 . S
C2240 H2216 0.950 . S
C2240 C2239 1.524 . S
C2240 C2241 1.415 . S
C2241 H2217 0.950 . S
C2241 C2236 1.363 . S
C2241 C2240 1.415 . S
C2242 H2218 0.951 . S
C2242 C2243 1.366 . S
C2242 C2244 1.388 . S
C2243 C2242 1.366 . S
C2243 C2247 1.385 . S
C2244 H2219 0.951 . S
C2244 C2242 1.388 . S
C2244 C2245 1.366 . S
C2245 C2244 1.366 . S
C2245 C2246 1.414 . S
C2245 C2248 1.499 . S
C2246 H2220 0.950 . S
C2246 C2245 1.414 . S
C2246 C2247 1.374 . S
C2247 H2221 0.950 . S
C2247 C2243 1.385 . S
C2247 C2246 1.374 . S
C2248 C2245 1.499 . S
C2248 C2249 1.373 . S
C2248 C2250 1.389 . S
C2249 H2222 0.950 . S
C2249 C2235 1.377 . S
C2249 C2248 1.373 . S
C2250 C2234 1.377 . S
C2250 C2248 1.389 . S
C2250 C2251 1.524 . S
C2251 C2250 1.524 . S
C2251 C2252 1.397 . S
C2251 C2256 1.363 . S
C2252 H2223 0.950 . S
C2252 C2251 1.397 . S
C2252 C2253 1.334 . S
C2253 H2224 0.950 . S
C2253 C2252 1.334 . S
C2253 C2254 1.287 . S
C2254 C2253 1.287 . S
C2254 C2255 1.524 . S
C2254 H2257 0.999 . S
C2255 H2225 0.950 . S
C2255 C2254 1.524 . S
C2255 C2256 1.415 . S
C2256 H2226 0.950 . S
C2256 C2251 1.363 . S
C2256 C2255 1.415 . S
H2257 C2254 0.999 . S
H2258 C2239 0.913 . S
H2259 C2277 0.951 . S
H2260 C2279 0.951 1_545 S
H2261 C2281 0.950 . S
H2262 C2282 0.950 . S
H2263 C2284 0.950 . S
H2264 C2287 0.950 . S
H2265 C2288 0.950 . S
H2266 C2290 0.950 . S
H2267 C2291 0.950 . S
H2268 C2292 0.951 . S
H2269 C2294 0.951 . S
H2270 C2296 0.950 . S
H2271 C2297 0.950 . S
H2272 C2299 0.950 . S
H2273 C2302 0.950 . S
H2274 C2303 0.950 . S
H2275 C2305 0.950 . S
H2276 C2306 0.950 . S
C2277 H2259 0.951 . S
C2277 C2278 1.366 . S
C2277 C2279 1.388 . S
C2278 C2277 1.366 . S
C2278 C2282 1.385 . S
C2279 H2260 0.951 1_565 S
C2279 C2277 1.388 . S
C2279 C2280 1.366 1_565 S
C2280 C2279 1.366 1_545 S
C2280 C2281 1.414 1_545 S
C2280 C2283 1.499 . S
C2281 H2261 0.950 . S
C2281 C2280 1.414 1_565 S
C2281 C2282 1.374 . S
C2282 H2262 0.950 . S
C2282 C2278 1.385 . S
C2282 C2281 1.374 . S
C2283 C2280 1.499 . S
C2283 C2284 1.373 . S
C2283 C2285 1.389 . S
C2284 H2263 0.950 . S
C2284 C2283 1.373 . S
C2284 C2300 1.377 . S
C2285 C2283 1.389 . S
C2285 C2286 1.524 . S
C2285 C2299 1.377 . S
C2286 C2285 1.524 . S
C2286 C2287 1.397 . S
C2286 C2291 1.363 . S
C2287 H2264 0.950 . S
C2287 C2286 1.397 . S
C2287 C2288 1.334 . S
C2288 H2265 0.950 . S
C2288 C2287 1.334 . S
C2288 C2289 1.287 . S
C2289 C2288 1.287 . S
C2289 C2290 1.524 . S
C2289 H2308 0.913 . S
C2290 H2266 0.950 . S
C2290 C2289 1.524 . S
C2290 C2291 1.415 . S
C2291 H2267 0.950 . S
C2291 C2286 1.363 . S
C2291 C2290 1.415 . S
C2292 H2268 0.951 . S
C2292 C2293 1.366 . S
C2292 C2294 1.388 . S
C2293 C2292 1.366 . S
C2293 C2297 1.385 . S
C2294 H2269 0.951 . S
C2294 C2292 1.388 . S
C2294 C2295 1.366 . S
C2295 C2294 1.366 . S
C2295 C2296 1.414 . S
C2295 C2298 1.499 . S
C2296 H2270 0.950 . S
C2296 C2295 1.414 . S
C2296 C2297 1.374 . S
C2297 H2271 0.950 . S
C2297 C2293 1.385 . S
C2297 C2296 1.374 . S
C2298 C2295 1.499 . S
C2298 C2299 1.373 . S
C2298 C2300 1.389 . S
C2299 H2272 0.950 . S
C2299 C2285 1.377 . S
C2299 C2298 1.373 . S
C2300 C2284 1.377 . S
C2300 C2298 1.389 . S
C2300 C2301 1.524 . S
C2301 C2300 1.524 . S
C2301 C2302 1.397 . S
C2301 C2306 1.363 . S
C2302 H2273 0.950 . S
C2302 C2301 1.397 . S
C2302 C2303 1.334 . S
C2303 H2274 0.950 . S
C2303 C2302 1.334 . S
C2303 C2304 1.287 . S
C2304 C2303 1.287 . S
C2304 C2305 1.524 . S
C2304 H2307 0.999 . S
C2305 H2275 0.950 . S
C2305 C2304 1.524 . S
C2305 C2306 1.415 . S
C2306 H2276 0.950 . S
C2306 C2301 1.363 . S
C2306 C2305 1.415 . S
H2307 C2304 0.999 . S
H2308 C2289 0.913 . S
H2309 C2327 0.951 . S
H2310 C2329 0.951 . S
H2311 C2331 0.950 1_655 S
H2312 C2332 0.950 . S
H2313 C2334 0.950 . S
H2314 C2337 0.950 . S
H2315 C2338 0.950 . S
H2316 C2340 0.950 . S
H2317 C2341 0.950 . S
H2318 C2342 0.951 . S
H2319 C2344 0.951 . S
H2320 C2346 0.950 . S
H2321 C2347 0.950 . S
H2322 C2349 0.950 . S
H2323 C2352 0.950 . S
H2324 C2353 0.950 . S
H2325 C2355 0.950 . S
H2326 C2356 0.950 . S
C2327 H2309 0.951 . S
C2327 C2328 1.366 . S
C2327 C2329 1.388 . S
C2328 C2327 1.366 . S
C2328 C2332 1.385 . S
C2329 H2310 0.951 . S
C2329 C2327 1.388 . S
C2329 C2330 1.360 1_455 S
C2330 C2329 1.360 1_655 S
C2330 C2331 1.396 1_655 S
C2330 C2333 1.522 . S
C2331 H2311 0.950 1_455 S
C2331 C2330 1.396 1_455 S
C2331 C2332 1.374 . S
C2332 H2312 0.950 . S
C2332 C2328 1.385 . S
C2332 C2331 1.374 . S
C2333 C2330 1.522 . S
C2333 C2334 1.373 . S
C2333 C2335 1.389 . S
C2334 H2313 0.950 . S
C2334 C2333 1.373 . S
C2334 C2350 1.377 . S
C2335 C2333 1.389 . S
C2335 C2336 1.524 . S
C2335 C2349 1.377 . S
C2336 C2335 1.524 . S
C2336 C2337 1.397 . S
C2336 C2341 1.363 . S
C2337 H2314 0.950 . S
C2337 C2336 1.397 . S
C2337 C2338 1.334 1_655 S
C2338 H2315 0.950 . S
C2338 C2337 1.334 1_455 S
C2338 C2339 1.301 . S
C2339 C2338 1.301 . S
C2339 C2340 1.495 1_455 S
C2339 H2358 0.932 . S
C2340 H2316 0.950 . S
C2340 C2339 1.495 1_655 S
C2340 C2341 1.415 . S
C2341 H2317 0.950 . S
C2341 C2336 1.363 . S
C2341 C2340 1.415 . S
C2342 H2318 0.951 . S
C2342 C2343 1.366 . S
C2342 C2344 1.388 . S
C2343 C2342 1.366 . S
C2343 C2347 1.385 . S
C2344 H2319 0.951 . S
C2344 C2342 1.388 . S
C2344 C2345 1.366 . S
C2345 C2344 1.366 . S
C2345 C2346 1.414 . S
C2345 C2348 1.499 . S
C2346 H2320 0.950 . S
C2346 C2345 1.414 . S
C2346 C2347 1.374 . S
C2347 H2321 0.950 . S
C2347 C2343 1.385 . S
C2347 C2346 1.374 . S
C2348 C2345 1.499 . S
C2348 C2349 1.373 . S
C2348 C2350 1.389 . S
C2349 H2322 0.950 . S
C2349 C2335 1.377 . S
C2349 C2348 1.373 . S
C2350 C2334 1.377 . S
C2350 C2348 1.389 . S
C2350 C2351 1.524 . S
C2351 C2350 1.524 . S
C2351 C2352 1.397 . S
C2351 C2356 1.363 . S
C2352 H2323 0.950 . S
C2352 C2351 1.397 . S
C2352 C2353 1.334 . S
C2353 H2324 0.950 . S
C2353 C2352 1.334 . S
C2353 C2354 1.287 . S
C2354 C2353 1.287 . S
C2354 C2355 1.524 . S
C2354 H2357 0.999 . S
C2355 H2325 0.950 . S
C2355 C2354 1.524 . S
C2355 C2356 1.415 . S
C2356 H2326 0.950 . S
C2356 C2351 1.363 . S
C2356 C2355 1.415 . S
H2357 C2354 0.999 . S
H2358 C2339 0.932 . S
H2359 C2377 0.951 . S
H2360 C2379 0.951 . S
H2361 C2381 0.950 . S
H2362 C2382 0.950 . S
H2363 C2384 0.950 . S
H2364 C2387 0.950 . S
H2365 C2388 0.950 . S
H2366 C2390 0.950 . S
H2367 C2391 0.950 . S
H2368 C2392 0.951 . S
H2369 C2394 0.951 . S
H2370 C2396 0.950 . S
H2371 C2397 0.950 . S
H2372 C2399 0.950 . S
H2373 C2402 0.950 . S
H2374 C2403 0.950 . S
H2375 C2405 0.950 . S
H2376 C2406 0.950 . S
C2377 H2359 0.951 . S
C2377 C2378 1.366 . S
C2377 C2379 1.388 . S
C2378 C2377 1.366 . S
C2378 C2382 1.385 . S
C2379 H2360 0.951 . S
C2379 C2377 1.388 . S
C2379 C2380 1.366 . S
C2380 C2379 1.366 . S
C2380 C2381 1.414 . S
C2380 C2383 1.499 . S
C2381 H2361 0.950 . S
C2381 C2380 1.414 . S
C2381 C2382 1.374 . S
C2382 H2362 0.950 . S
C2382 C2378 1.385 . S
C2382 C2381 1.374 . S
C2383 C2380 1.499 . S
C2383 C2384 1.373 . S
C2383 C2385 1.389 . S
C2384 H2363 0.950 . S
C2384 C2383 1.373 . S
C2384 C2400 1.377 . S
C2385 C2383 1.389 . S
C2385 C2386 1.524 . S
C2385 C2399 1.377 . S
C2386 C2385 1.524 . S
C2386 C2387 1.397 . S
C2386 C2391 1.363 . S
C2387 H2364 0.950 . S
C2387 C2386 1.397 . S
C2387 C2388 1.334 . S
C2388 H2365 0.950 . S
C2388 C2387 1.334 . S
C2388 C2389 1.287 . S
C2389 C2388 1.287 . S
C2389 C2390 1.524 . S
C2389 H2408 0.913 . S
C2390 H2366 0.950 . S
C2390 C2389 1.524 . S
C2390 C2391 1.415 . S
C2391 H2367 0.950 . S
C2391 C2386 1.363 . S
C2391 C2390 1.415 . S
C2392 H2368 0.951 . S
C2392 C2393 1.366 . S
C2392 C2394 1.388 . S
C2393 C2392 1.366 . S
C2393 C2397 1.385 . S
C2394 H2369 0.951 . S
C2394 C2392 1.388 . S
C2394 C2395 1.366 . S
C2395 C2394 1.366 . S
C2395 C2396 1.414 . S
C2395 C2398 1.499 . S
C2396 H2370 0.950 . S
C2396 C2395 1.414 . S
C2396 C2397 1.374 . S
C2397 H2371 0.950 . S
C2397 C2393 1.385 . S
C2397 C2396 1.374 . S
C2398 C2395 1.499 . S
C2398 C2399 1.373 . S
C2398 C2400 1.389 . S
C2399 H2372 0.950 . S
C2399 C2385 1.377 . S
C2399 C2398 1.373 . S
C2400 C2384 1.377 . S
C2400 C2398 1.389 . S
C2400 C2401 1.524 . S
C2401 C2400 1.524 . S
C2401 C2402 1.397 . S
C2401 C2406 1.363 . S
C2402 H2373 0.950 . S
C2402 C2401 1.397 . S
C2402 C2403 1.334 . S
C2403 H2374 0.950 . S
C2403 C2402 1.334 . S
C2403 C2404 1.287 . S
C2404 C2403 1.287 . S
C2404 C2405 1.524 . S
C2404 H2407 0.999 . S
C2405 H2375 0.950 . S
C2405 C2404 1.524 . S
C2405 C2406 1.415 . S
C2406 H2376 0.950 . S
C2406 C2401 1.363 . S
C2406 C2405 1.415 . S
H2407 C2404 0.999 . S
H2408 C2389 0.913 . S
H2409 C2427 0.951 . S
H2410 C2429 0.951 . S
H2411 C2431 0.950 . S
H2412 C2432 0.950 . S
H2413 C2434 0.950 . S
H2414 C2437 0.912 1_455 S
H2415 C2438 0.950 . S
H2416 C2440 0.950 . S
H2417 C2441 0.950 . S
H2418 C2442 0.951 . S
H2419 C2444 0.951 . S
H2420 C2446 0.950 . S
H2421 C2447 0.950 . S
H2422 C2449 0.950 . S
H2423 C2452 0.950 . S
H2424 C2453 0.950 . S
H2425 C2455 0.950 . S
H2426 C2456 0.950 . S
C2427 H2409 0.951 . S
C2427 C2428 1.366 . S
C2427 C2429 1.388 . S
C2428 C2427 1.366 . S
C2428 C2432 1.385 . S
C2429 H2410 0.951 . S
C2429 C2427 1.388 . S
C2429 C2430 1.366 . S
C2430 C2429 1.366 . S
C2430 C2431 1.414 . S
C2430 C2433 1.499 1_455 S
C2431 H2411 0.950 . S
C2431 C2430 1.414 . S
C2431 C2432 1.374 . S
C2432 H2412 0.950 . S
C2432 C2428 1.385 . S
C2432 C2431 1.374 . S
C2433 C2430 1.499 1_655 S
C2433 C2434 1.373 . S
C2433 C2435 1.389 . S
C2434 H2413 0.950 . S
C2434 C2433 1.373 . S
C2434 C2450 1.377 . S
C2435 C2433 1.389 . S
C2435 C2436 1.524 . S
C2435 C2449 1.377 . S
C2436 C2435 1.524 . S
C2436 C2437 1.397 . S
C2436 C2441 1.363 . S
C2437 H2414 0.912 1_655 S
C2437 C2436 1.397 . S
C2437 C2438 1.334 1_655 S
C2438 H2415 0.950 . S
C2438 C2437 1.334 1_455 S
C2438 C2439 1.286 . S
C2439 C2438 1.286 . S
C2439 C2440 1.525 1_455 S
C2439 H2458 0.913 . S
C2440 H2416 0.950 . S
C2440 C2439 1.525 1_655 S
C2440 C2441 1.415 . S
C2441 H2417 0.950 . S
C2441 C2436 1.363 . S
C2441 C2440 1.415 . S
C2442 H2418 0.951 . S
C2442 C2443 1.366 . S
C2442 C2444 1.388 . S
C2443 C2442 1.366 . S
C2443 C2447 1.385 . S
C2444 H2419 0.951 . S
C2444 C2442 1.388 . S
C2444 C2445 1.366 . S
C2445 C2444 1.366 . S
C2445 C2446 1.414 . S
C2445 C2448 1.499 . S
C2446 H2420 0.950 . S
C2446 C2445 1.414 . S
C2446 C2447 1.374 . S
C2447 H2421 0.950 . S
C2447 C2443 1.385 . S
C2447 C2446 1.374 . S
C2448 C2445 1.499 . S
C2448 C2449 1.373 . S
C2448 C2450 1.389 . S
C2449 H2422 0.950 . S
C2449 C2435 1.377 . S
C2449 C2448 1.373 . S
C2450 C2434 1.377 . S
C2450 C2448 1.389 . S
C2450 C2451 1.524 . S
C2451 C2450 1.524 . S
C2451 C2452 1.397 . S
C2451 C2456 1.363 . S
C2452 H2423 0.950 . S
C2452 C2451 1.397 . S
C2452 C2453 1.334 . S
C2453 H2424 0.950 . S
C2453 C2452 1.334 . S
C2453 C2454 1.287 . S
C2454 C2453 1.287 . S
C2454 C2455 1.524 . S
C2454 H2457 0.999 . S
C2455 H2425 0.950 . S
C2455 C2454 1.524 . S
C2455 C2456 1.415 . S
C2456 H2426 0.950 . S
C2456 C2451 1.363 . S
C2456 C2455 1.415 . S
H2457 C2454 0.999 . S
H2458 C2439 0.913 . S
H2459 C2477 0.951 . S
H2460 C2479 0.951 . S
H2461 C2481 0.950 . S
H2462 C2482 0.950 . S
H2463 C2484 0.950 . S
H2464 C2487 0.950 . S
H2465 C2488 0.950 . S
H2466 C2490 0.950 . S
H2467 C2491 0.950 . S
H2468 C2492 0.951 . S
H2469 C2494 0.951 . S
H2470 C2496 0.950 . S
H2471 C2497 0.950 . S
H2472 C2499 0.950 . S
H2473 C2502 0.950 . S
H2474 C2503 0.950 . S
H2475 C2505 0.950 . S
H2476 C2506 0.950 . S
C2477 H2459 0.951 . S
C2477 C2478 1.366 . S
C2477 C2479 1.388 . S
C2478 C2477 1.366 . S
C2478 C2482 1.385 . S
C2479 H2460 0.951 . S
C2479 C2477 1.388 . S
C2479 C2480 1.366 . S
C2480 C2479 1.366 . S
C2480 C2481 1.414 . S
C2480 C2483 1.499 . S
C2481 H2461 0.950 . S
C2481 C2480 1.414 . S
C2481 C2482 1.374 . S
C2482 H2462 0.950 . S
C2482 C2478 1.385 . S
C2482 C2481 1.374 . S
C2483 C2480 1.499 . S
C2483 C2484 1.373 . S
C2483 C2485 1.389 . S
C2484 H2463 0.950 . S
C2484 C2483 1.373 . S
C2484 C2500 1.377 . S
C2485 C2483 1.389 . S
C2485 C2486 1.524 . S
C2485 C2499 1.377 . S
C2486 C2485 1.524 . S
C2486 C2487 1.397 . S
C2486 C2491 1.363 . S
C2487 H2464 0.950 . S
C2487 C2486 1.397 . S
C2487 C2488 1.334 . S
C2488 H2465 0.950 . S
C2488 C2487 1.334 . S
C2488 C2489 1.287 . S
C2489 C2488 1.287 . S
C2489 C2490 1.524 . S
C2489 H2508 0.913 . S
C2490 H2466 0.950 . S
C2490 C2489 1.524 . S
C2490 C2491 1.415 . S
C2491 H2467 0.950 . S
C2491 C2486 1.363 . S
C2491 C2490 1.415 . S
C2492 H2468 0.951 . S
C2492 C2493 1.366 . S
C2492 C2494 1.388 . S
C2493 C2492 1.366 . S
C2493 C2497 1.385 . S
C2494 H2469 0.951 . S
C2494 C2492 1.388 . S
C2494 C2495 1.366 . S
C2495 C2494 1.366 . S
C2495 C2496 1.414 . S
C2495 C2498 1.499 . S
C2496 H2470 0.950 . S
C2496 C2495 1.414 . S
C2496 C2497 1.374 . S
C2497 H2471 0.950 . S
C2497 C2493 1.385 . S
C2497 C2496 1.374 . S
C2498 C2495 1.499 . S
C2498 C2499 1.373 . S
C2498 C2500 1.389 . S
C2499 H2472 0.950 . S
C2499 C2485 1.377 . S
C2499 C2498 1.373 . S
C2500 C2484 1.377 . S
C2500 C2498 1.389 . S
C2500 C2501 1.524 . S
C2501 C2500 1.524 . S
C2501 C2502 1.397 . S
C2501 C2506 1.363 . S
C2502 H2473 0.950 . S
C2502 C2501 1.397 . S
C2502 C2503 1.334 . S
C2503 H2474 0.950 . S
C2503 C2502 1.334 . S
C2503 C2504 1.287 . S
C2504 C2503 1.287 . S
C2504 C2505 1.524 . S
C2504 H2507 0.999 . S
C2505 H2475 0.950 . S
C2505 C2504 1.524 . S
C2505 C2506 1.415 . S
C2506 H2476 0.950 . S
C2506 C2501 1.363 . S
C2506 C2505 1.415 . S
H2507 C2504 0.999 . S
H2508 C2489 0.913 . S
H2509 C2527 0.951 . S
H2510 C2529 0.951 1_545 S
H2511 C2531 0.950 . S
H2512 C2532 0.950 . S
H2513 C2534 0.950 . S
H2514 C2537 0.950 . S
H2515 C2538 0.950 . S
H2516 C2540 0.950 . S
H2517 C2541 0.950 . S
H2518 C2542 0.951 . S
H2519 C2544 0.951 . S
H2520 C2546 0.950 . S
H2521 C2547 0.950 . S
H2522 C2549 0.950 . S
H2523 C2552 0.950 . S
H2524 C2553 0.950 . S
H2525 C2555 0.950 . S
H2526 C2556 0.950 . S
C2527 H2509 0.951 . S
C2527 C2528 1.366 . S
C2527 C2529 1.388 . S
C2528 C2527 1.366 . S
C2528 C2532 1.385 . S
C2529 H2510 0.951 1_565 S
C2529 C2527 1.388 . S
C2529 C2530 1.366 1_565 S
C2530 C2529 1.366 1_545 S
C2530 C2531 1.414 1_545 S
C2530 C2533 1.499 . S
C2531 H2511 0.950 . S
C2531 C2530 1.414 1_565 S
C2531 C2532 1.374 . S
C2532 H2512 0.950 . S
C2532 C2528 1.385 . S
C2532 C2531 1.374 . S
C2533 C2530 1.499 . S
C2533 C2534 1.373 . S
C2533 C2535 1.389 . S
C2534 H2513 0.950 . S
C2534 C2533 1.373 . S
C2534 C2550 1.377 . S
C2535 C2533 1.389 . S
C2535 C2536 1.524 . S
C2535 C2549 1.377 . S
C2536 C2535 1.524 . S
C2536 C2537 1.397 . S
C2536 C2541 1.363 . S
C2537 H2514 0.950 . S
C2537 C2536 1.397 . S
C2537 C2538 1.334 . S
C2538 H2515 0.950 . S
C2538 C2537 1.334 . S
C2538 C2539 1.287 . S
C2539 C2538 1.287 . S
C2539 C2540 1.524 . S
C2539 H2558 0.913 . S
C2540 H2516 0.950 . S
C2540 C2539 1.524 . S
C2540 C2541 1.415 . S
C2541 H2517 0.950 . S
C2541 C2536 1.363 . S
C2541 C2540 1.415 . S
C2542 H2518 0.951 . S
C2542 C2543 1.366 . S
C2542 C2544 1.388 . S
C2543 C2542 1.366 . S
C2543 C2547 1.385 . S
C2544 H2519 0.951 . S
C2544 C2542 1.388 . S
C2544 C2545 1.366 . S
C2545 C2544 1.366 . S
C2545 C2546 1.414 . S
C2545 C2548 1.499 . S
C2546 H2520 0.950 . S
C2546 C2545 1.414 . S
C2546 C2547 1.374 . S
C2547 H2521 0.950 . S
C2547 C2543 1.385 . S
C2547 C2546 1.374 . S
C2548 C2545 1.499 . S
C2548 C2549 1.373 . S
C2548 C2550 1.389 . S
C2549 H2522 0.950 . S
C2549 C2535 1.377 . S
C2549 C2548 1.373 . S
C2550 C2534 1.377 . S
C2550 C2548 1.389 . S
C2550 C2551 1.524 . S
C2551 C2550 1.524 . S
C2551 C2552 1.397 . S
C2551 C2556 1.363 . S
C2552 H2523 0.950 . S
C2552 C2551 1.397 . S
C2552 C2553 1.334 . S
C2553 H2524 0.950 . S
C2553 C2552 1.334 . S
C2553 C2554 1.287 . S
C2554 C2553 1.287 . S
C2554 C2555 1.524 . S
C2554 H2557 0.999 . S
C2555 H2525 0.950 . S
C2555 C2554 1.524 . S
C2555 C2556 1.415 . S
C2556 H2526 0.950 . S
C2556 C2551 1.363 . S
C2556 C2555 1.415 . S
H2557 C2554 0.999 . S
H2558 C2539 0.913 . S
H2559 C2577 0.951 . S
H2560 C2579 0.951 . S
H2561 C2581 0.950 . S
H2562 C2582 0.950 . S
H2563 C2584 0.950 . S
H2564 C2587 0.950 . S
H2565 C2588 0.950 . S
H2566 C2590 0.950 . S
H2567 C2591 0.950 . S
H2568 C2592 0.951 . S
H2569 C2594 0.951 . S
H2570 C2596 0.950 . S
H2571 C2597 0.950 . S
H2572 C2599 0.950 . S
H2573 C2602 0.950 . S
H2574 C2603 0.950 . S
H2575 C2605 0.950 . S
H2576 C2606 0.950 . S
C2577 H2559 0.951 . S
C2577 C2578 1.366 . S
C2577 C2579 1.388 . S
C2578 C2577 1.366 . S
C2578 C2582 1.385 . S
C2579 H2560 0.951 . S
C2579 C2577 1.388 . S
C2579 C2580 1.366 . S
C2580 C2579 1.366 . S
C2580 C2581 1.414 . S
C2580 C2583 1.499 . S
C2581 H2561 0.950 . S
C2581 C2580 1.414 . S
C2581 C2582 1.374 . S
C2582 H2562 0.950 . S
C2582 C2578 1.385 . S
C2582 C2581 1.374 . S
C2583 C2580 1.499 . S
C2583 C2584 1.373 . S
C2583 C2585 1.389 . S
C2584 H2563 0.950 . S
C2584 C2583 1.373 . S
C2584 C2600 1.377 . S
C2585 C2583 1.389 . S
C2585 C2586 1.524 . S
C2585 C2599 1.377 . S
C2586 C2585 1.524 . S
C2586 C2587 1.397 . S
C2586 C2591 1.363 . S
C2587 H2564 0.950 . S
C2587 C2586 1.397 . S
C2587 C2588 1.334 . S
C2588 H2565 0.950 . S
C2588 C2587 1.334 . S
C2588 C2589 1.287 . S
C2589 C2588 1.287 . S
C2589 C2590 1.524 . S
C2589 H2608 0.913 . S
C2590 H2566 0.950 . S
C2590 C2589 1.524 . S
C2590 C2591 1.415 . S
C2591 H2567 0.950 . S
C2591 C2586 1.363 . S
C2591 C2590 1.415 . S
C2592 H2568 0.951 . S
C2592 C2593 1.366 . S
C2592 C2594 1.388 . S
C2593 C2592 1.366 . S
C2593 C2597 1.385 . S
C2594 H2569 0.951 . S
C2594 C2592 1.388 . S
C2594 C2595 1.366 . S
C2595 C2594 1.366 . S
C2595 C2596 1.414 . S
C2595 C2598 1.499 . S
C2596 H2570 0.950 . S
C2596 C2595 1.414 . S
C2596 C2597 1.374 . S
C2597 H2571 0.950 . S
C2597 C2593 1.385 . S
C2597 C2596 1.374 . S
C2598 C2595 1.499 . S
C2598 C2599 1.373 . S
C2598 C2600 1.389 . S
C2599 H2572 0.950 . S
C2599 C2585 1.377 . S
C2599 C2598 1.373 . S
C2600 C2584 1.377 . S
C2600 C2598 1.389 . S
C2600 C2601 1.524 . S
C2601 C2600 1.524 . S
C2601 C2602 1.397 . S
C2601 C2606 1.363 . S
C2602 H2573 0.950 . S
C2602 C2601 1.397 . S
C2602 C2603 1.334 . S
C2603 H2574 0.950 . S
C2603 C2602 1.334 . S
C2603 C2604 1.287 . S
C2604 C2603 1.287 . S
C2604 C2605 1.524 . S
C2604 H2607 0.999 . S
C2605 H2575 0.950 . S
C2605 C2604 1.524 . S
C2605 C2606 1.415 . S
C2606 H2576 0.950 . S
C2606 C2601 1.363 . S
C2606 C2605 1.415 . S
H2607 C2604 0.999 . S
H2608 C2589 0.913 . S
H2609 C2627 0.951 . S
H2610 C2629 0.951 . S
H2611 C2631 0.950 . S
H2612 C2632 0.950 . S
H2613 C2634 0.950 . S
H2614 C2637 0.950 . S
H2615 C2638 0.950 . S
H2616 C2640 0.950 . S
H2617 C2641 0.950 . S
H2618 C2642 0.951 . S
H2619 C2644 0.951 . S
H2620 C2646 0.950 . S
H2621 C2647 0.950 . S
H2622 C2649 0.950 . S
H2623 C2652 0.950 . S
H2624 C2653 0.950 . S
H2625 C2655 0.950 . S
H2626 C2656 0.950 . S
C2627 H2609 0.951 . S
C2627 C2628 1.366 . S
C2627 C2629 1.388 . S
C2628 C2627 1.366 . S
C2628 C2632 1.385 . S
C2629 H2610 0.951 . S
C2629 C2627 1.388 . S
C2629 C2630 1.366 . S
C2630 C2629 1.366 . S
C2630 C2631 1.414 . S
C2630 C2633 1.499 . S
C2631 H2611 0.950 . S
C2631 C2630 1.414 . S
C2631 C2632 1.374 . S
C2632 H2612 0.950 . S
C2632 C2628 1.385 . S
C2632 C2631 1.374 . S
C2633 C2630 1.499 . S
C2633 C2634 1.373 . S
C2633 C2635 1.389 . S
C2634 H2613 0.950 . S
C2634 C2633 1.373 . S
C2634 C2650 1.377 . S
C2635 C2633 1.389 . S
C2635 C2636 1.524 . S
C2635 C2649 1.377 . S
C2636 C2635 1.524 . S
C2636 C2637 1.397 . S
C2636 C2641 1.363 . S
C2637 H2614 0.950 . S
C2637 C2636 1.397 . S
C2637 C2638 1.334 . S
C2638 H2615 0.950 . S
C2638 C2637 1.334 . S
C2638 C2639 1.287 . S
C2639 C2638 1.287 . S
C2639 C2640 1.524 . S
C2639 H2658 0.913 . S
C2640 H2616 0.950 . S
C2640 C2639 1.524 . S
C2640 C2641 1.415 . S
C2641 H2617 0.950 . S
C2641 C2636 1.363 . S
C2641 C2640 1.415 . S
C2642 H2618 0.951 . S
C2642 C2643 1.366 . S
C2642 C2644 1.388 . S
C2643 C2642 1.366 . S
C2643 C2647 1.385 . S
C2644 H2619 0.951 . S
C2644 C2642 1.388 . S
C2644 C2645 1.366 . S
C2645 C2644 1.366 . S
C2645 C2646 1.414 . S
C2645 C2648 1.499 . S
C2646 H2620 0.950 . S
C2646 C2645 1.414 . S
C2646 C2647 1.374 . S
C2647 H2621 0.950 . S
C2647 C2643 1.385 . S
C2647 C2646 1.374 . S
C2648 C2645 1.499 . S
C2648 C2649 1.373 . S
C2648 C2650 1.389 . S
C2649 H2622 0.950 . S
C2649 C2635 1.377 . S
C2649 C2648 1.373 . S
C2650 C2634 1.377 . S
C2650 C2648 1.389 . S
C2650 C2651 1.524 . S
C2651 C2650 1.524 . S
C2651 C2652 1.397 . S
C2651 C2656 1.363 . S
C2652 H2623 0.950 . S
C2652 C2651 1.397 . S
C2652 C2653 1.334 . S
C2653 H2624 0.950 . S
C2653 C2652 1.334 . S
C2653 C2654 1.287 . S
C2654 C2653 1.287 . S
C2654 C2655 1.524 . S
C2654 H2657 0.999 . S
C2655 H2625 0.950 . S
C2655 C2654 1.524 . S
C2655 C2656 1.415 . S
C2656 H2626 0.950 . S
C2656 C2651 1.363 . S
C2656 C2655 1.415 . S
H2657 C2654 0.999 . S
H2658 C2639 0.913 . S
H2659 C2677 0.951 . S
H2660 C2679 0.951 . S
H2661 C2681 0.950 . S
H2662 C2682 0.950 . S
H2663 C2684 0.950 . S
H2664 C2687 0.950 . S
H2665 C2688 0.950 . S
H2666 C2690 0.950 . S
H2667 C2691 0.950 . S
H2668 C2692 0.951 . S
H2669 C2694 0.951 . S
H2670 C2696 0.950 . S
H2671 C2697 0.950 . S
H2672 C2699 0.950 . S
H2673 C2702 0.950 . S
H2674 C2703 0.950 . S
H2675 C2705 0.950 . S
H2676 C2706 0.950 . S
C2677 H2659 0.951 . S
C2677 C2678 1.366 . S
C2677 C2679 1.388 . S
C2678 C2677 1.366 . S
C2678 C2682 1.385 . S
C2679 H2660 0.951 . S
C2679 C2677 1.388 . S
C2679 C2680 1.366 . S
C2680 C2679 1.366 . S
C2680 C2681 1.414 . S
C2680 C2683 1.499 . S
C2681 H2661 0.950 . S
C2681 C2680 1.414 . S
C2681 C2682 1.374 . S
C2682 H2662 0.950 . S
C2682 C2678 1.385 . S
C2682 C2681 1.374 . S
C2683 C2680 1.499 . S
C2683 C2684 1.373 . S
C2683 C2685 1.389 . S
C2684 H2663 0.950 . S
C2684 C2683 1.373 . S
C2684 C2700 1.377 . S
C2685 C2683 1.389 . S
C2685 C2686 1.524 . S
C2685 C2699 1.377 . S
C2686 C2685 1.524 . S
C2686 C2687 1.397 . S
C2686 C2691 1.363 . S
C2687 H2664 0.950 . S
C2687 C2686 1.397 . S
C2687 C2688 1.334 . S
C2688 H2665 0.950 . S
C2688 C2687 1.334 . S
C2688 C2689 1.287 . S
C2689 C2688 1.287 . S
C2689 C2690 1.524 . S
C2689 H2708 0.913 . S
C2690 H2666 0.950 . S
C2690 C2689 1.524 . S
C2690 C2691 1.415 . S
C2691 H2667 0.950 . S
C2691 C2686 1.363 . S
C2691 C2690 1.415 . S
C2692 H2668 0.951 . S
C2692 C2693 1.366 . S
C2692 C2694 1.388 . S
C2693 C2692 1.366 . S
C2693 C2697 1.385 . S
C2694 H2669 0.951 . S
C2694 C2692 1.388 . S
C2694 C2695 1.366 . S
C2695 C2694 1.366 . S
C2695 C2696 1.414 . S
C2695 C2698 1.499 . S
C2696 H2670 0.950 . S
C2696 C2695 1.414 . S
C2696 C2697 1.374 . S
C2697 H2671 0.950 . S
C2697 C2693 1.385 . S
C2697 C2696 1.374 . S
C2698 C2695 1.499 . S
C2698 C2699 1.373 . S
C2698 C2700 1.389 . S
C2699 H2672 0.950 . S
C2699 C2685 1.377 . S
C2699 C2698 1.373 . S
C2700 C2684 1.377 . S
C2700 C2698 1.389 . S
C2700 C2701 1.524 . S
C2701 C2700 1.524 . S
C2701 C2702 1.397 . S
C2701 C2706 1.363 . S
C2702 H2673 0.950 . S
C2702 C2701 1.397 . S
C2702 C2703 1.334 . S
C2703 H2674 0.950 . S
C2703 C2702 1.334 . S
C2703 C2704 1.287 . S
C2704 C2703 1.287 . S
C2704 C2705 1.524 . S
C2704 H2707 0.999 . S
C2705 H2675 0.950 . S
C2705 C2704 1.524 . S
C2705 C2706 1.415 . S
C2706 H2676 0.950 . S
C2706 C2701 1.363 . S
C2706 C2705 1.415 . S
H2707 C2704 0.999 . S
H2708 C2689 0.913 . S
H2709 C2727 0.951 . S
H2710 C2729 0.951 1_545 S
H2711 C2731 0.950 . S
H2712 C2732 0.950 . S
H2713 C2734 0.950 . S
H2714 C2737 0.950 1_565 S
H2715 C2738 0.950 . S
H2716 C2740 0.950 . S
H2717 C2741 0.950 . S
H2718 C2742 0.951 . S
H2719 C2744 0.951 . S
H2720 C2746 0.950 . S
H2721 C2747 0.950 . S
H2722 C2749 0.950 . S
H2723 C2752 0.950 . S
H2724 C2753 0.950 . S
H2725 C2755 0.950 . S
H2726 C2756 0.950 . S
C2727 H2709 0.951 . S
C2727 C2728 1.366 . S
C2727 C2729 1.388 . S
C2728 C2727 1.366 . S
C2728 C2732 1.385 . S
C2729 H2710 0.951 1_565 S
C2729 C2727 1.388 . S
C2729 C2730 1.366 . S
C2730 C2729 1.366 . S
C2730 C2731 1.414 . S
C2730 C2733 1.499 . S
C2731 H2711 0.950 . S
C2731 C2730 1.414 . S
C2731 C2732 1.374 . S
C2732 H2712 0.950 . S
C2732 C2728 1.385 . S
C2732 C2731 1.374 . S
C2733 C2730 1.499 . S
C2733 C2734 1.373 . S
C2733 C2735 1.389 . S
C2734 H2713 0.950 . S
C2734 C2733 1.373 . S
C2734 C2750 1.377 . S
C2735 C2733 1.389 . S
C2735 C2736 1.524 1_565 S
C2735 C2749 1.377 1_565 S
C2736 C2735 1.524 1_545 S
C2736 C2737 1.397 . S
C2736 C2741 1.363 . S
C2737 H2714 0.950 1_545 S
C2737 C2736 1.397 . S
C2737 C2738 1.334 . S
C2738 H2715 0.950 . S
C2738 C2737 1.334 . S
C2738 C2739 1.287 . S
C2739 C2738 1.287 . S
C2739 C2740 1.524 . S
C2739 H2758 0.913 . S
C2740 H2716 0.950 . S
C2740 C2739 1.524 . S
C2740 C2741 1.415 . S
C2741 H2717 0.950 . S
C2741 C2736 1.363 . S
C2741 C2740 1.415 . S
C2742 H2718 0.951 . S
C2742 C2743 1.367 1_565 S
C2742 C2744 1.388 . S
C2743 C2742 1.367 1_545 S
C2743 C2747 1.384 . S
C2744 H2719 0.951 . S
C2744 C2742 1.388 . S
C2744 C2745 1.366 . S
C2745 C2744 1.366 . S
C2745 C2746 1.414 1_565 S
C2745 C2748 1.499 . S
C2746 H2720 0.950 . S
C2746 C2745 1.414 1_545 S
C2746 C2747 1.374 . S
C2747 H2721 0.950 . S
C2747 C2743 1.384 . S
C2747 C2746 1.374 . S
C2748 C2745 1.499 . S
C2748 C2749 1.373 1_565 S
C2748 C2750 1.389 . S
C2749 H2722 0.950 . S
C2749 C2735 1.377 1_545 S
C2749 C2748 1.373 1_545 S
C2750 C2734 1.377 . S
C2750 C2748 1.389 . S
C2750 C2751 1.524 . S
C2751 C2750 1.524 . S
C2751 C2752 1.397 . S
C2751 C2756 1.363 . S
C2752 H2723 0.950 . S
C2752 C2751 1.397 . S
C2752 C2753 1.334 . S
C2753 H2724 0.950 . S
C2753 C2752 1.334 . S
C2753 C2754 1.287 . S
C2754 C2753 1.287 . S
C2754 C2755 1.524 . S
C2754 H2757 0.999 . S
C2755 H2725 0.950 . S
C2755 C2754 1.524 . S
C2755 C2756 1.415 . S
C2756 H2726 0.950 . S
C2756 C2751 1.363 . S
C2756 C2755 1.415 . S
H2757 C2754 0.999 . S
H2758 C2739 0.913 . S
H2759 C2777 0.951 . S
H2760 C2779 0.951 . S
H2761 C2781 0.910 1_655 S
H2762 C2782 0.950 . S
H2763 C2784 0.950 . S
H2764 C2787 0.950 . S
H2765 C2788 0.950 . S
H2766 C2790 0.950 . S
H2767 C2791 0.950 . S
H2768 C2792 0.951 . S
H2769 C2794 0.951 . S
H2770 C2796 0.950 . S
H2771 C2797 0.950 . S
H2772 C2799 0.950 . S
H2773 C2802 0.950 . S
H2774 C2803 0.950 1_455 S
H2775 C2805 0.950 . S
H2776 C2806 0.950 . S
C2777 H2759 0.951 . S
C2777 C2778 1.366 . S
C2777 C2779 1.388 . S
C2778 C2777 1.366 . S
C2778 C2782 1.385 . S
C2779 H2760 0.951 . S
C2779 C2777 1.388 . S
C2779 C2780 1.366 . S
C2780 C2779 1.366 . S
C2780 C2781 1.414 . S
C2780 C2783 1.499 . S
C2781 H2761 0.910 1_455 S
C2781 C2780 1.414 . S
C2781 C2782 1.374 . S
C2782 H2762 0.950 . S
C2782 C2778 1.385 . S
C2782 C2781 1.374 . S
C2783 C2780 1.499 . S
C2783 C2784 1.373 . S
C2783 C2785 1.389 . S
C2784 H2763 0.950 . S
C2784 C2783 1.373 . S
C2784 C2800 1.377 . S
C2785 C2783 1.389 . S
C2785 C2786 1.524 . S
C2785 C2799 1.377 . S
C2786 C2785 1.524 . S
C2786 C2787 1.397 . S
C2786 C2791 1.363 . S
C2787 H2764 0.950 . S
C2787 C2786 1.397 . S
C2787 C2788 1.334 . S
C2788 H2765 0.950 . S
C2788 C2787 1.334 . S
C2788 C2789 1.287 . S
C2789 C2788 1.287 . S
C2789 C2790 1.524 . S
C2789 H2808 0.913 . S
C2790 H2766 0.950 . S
C2790 C2789 1.524 . S
C2790 C2791 1.415 . S
C2791 H2767 0.950 . S
C2791 C2786 1.363 . S
C2791 C2790 1.415 . S
C2792 H2768 0.951 . S
C2792 C2793 1.366 1_655 S
C2792 C2794 1.388 . S
C2793 C2792 1.366 1_455 S
C2793 C2797 1.385 . S
C2794 H2769 0.951 . S
C2794 C2792 1.388 . S
C2794 C2795 1.366 1_655 S
C2795 C2794 1.366 1_455 S
C2795 C2796 1.414 . S
C2795 C2798 1.499 . S
C2796 H2770 0.950 . S
C2796 C2795 1.414 . S
C2796 C2797 1.374 . S
C2797 H2771 0.950 . S
C2797 C2793 1.385 . S
C2797 C2796 1.374 . S
C2798 C2795 1.499 . S
C2798 C2799 1.373 . S
C2798 C2800 1.389 . S
C2799 H2772 0.950 . S
C2799 C2785 1.377 . S
C2799 C2798 1.373 . S
C2800 C2784 1.377 . S
C2800 C2798 1.389 . S
C2800 C2801 1.524 1_455 S
C2801 C2800 1.524 1_655 S
C2801 C2802 1.397 1_655 S
C2801 C2806 1.363 . S
C2802 H2773 0.950 . S
C2802 C2801 1.397 1_455 S
C2802 C2803 1.334 1_455 S
C2803 H2774 0.950 1_655 S
C2803 C2802 1.334 1_655 S
C2803 C2804 1.287 . S
C2804 C2803 1.287 . S
C2804 C2805 1.524 . S
C2804 H2807 0.999 . S
C2805 H2775 0.950 . S
C2805 C2804 1.524 . S
C2805 C2806 1.415 . S
C2806 H2776 0.950 . S
C2806 C2801 1.363 . S
C2806 C2805 1.415 . S
H2807 C2804 0.999 . S
H2808 C2789 0.913 . S
H2809 C2827 0.951 . S
H2810 C2829 0.951 . S
H2811 C2831 0.950 . S
H2812 C2832 0.950 . S
H2813 C2834 0.950 . S
H2814 C2837 0.950 . S
H2815 C2838 0.950 . S
H2816 C2840 0.950 . S
H2817 C2841 0.950 . S
H2818 C2842 0.951 . S
H2819 C2844 0.951 . S
H2820 C2846 0.950 . S
H2821 C2847 0.950 . S
H2822 C2849 0.950 . S
H2823 C2852 0.950 . S
H2824 C2853 0.950 . S
H2825 C2855 0.950 . S
H2826 C2856 0.950 . S
C2827 H2809 0.951 . S
C2827 C2828 1.366 . S
C2827 C2829 1.388 . S
C2828 C2827 1.366 . S
C2828 C2832 1.385 . S
C2829 H2810 0.951 . S
C2829 C2827 1.388 . S
C2829 C2830 1.366 . S
C2830 C2829 1.366 . S
C2830 C2831 1.414 . S
C2830 C2833 1.499 . S
C2831 H2811 0.950 . S
C2831 C2830 1.414 . S
C2831 C2832 1.374 . S
C2832 H2812 0.950 . S
C2832 C2828 1.385 . S
C2832 C2831 1.374 . S
C2833 C2830 1.499 . S
C2833 C2834 1.373 . S
C2833 C2835 1.389 . S
C2834 H2813 0.950 . S
C2834 C2833 1.373 . S
C2834 C2850 1.377 . S
C2835 C2833 1.389 . S
C2835 C2836 1.524 . S
C2835 C2849 1.377 . S
C2836 C2835 1.524 . S
C2836 C2837 1.397 . S
C2836 C2841 1.363 . S
C2837 H2814 0.950 . S
C2837 C2836 1.397 . S
C2837 C2838 1.334 . S
C2838 H2815 0.950 . S
C2838 C2837 1.334 . S
C2838 C2839 1.287 . S
C2839 C2838 1.287 . S
C2839 C2840 1.524 . S
C2839 H2858 0.913 . S
C2840 H2816 0.950 . S
C2840 C2839 1.524 . S
C2840 C2841 1.415 . S
C2841 H2817 0.950 . S
C2841 C2836 1.363 . S
C2841 C2840 1.415 . S
C2842 H2818 0.951 . S
C2842 C2843 1.366 . S
C2842 C2844 1.388 . S
C2843 C2842 1.366 . S
C2843 C2847 1.385 . S
C2844 H2819 0.951 . S
C2844 C2842 1.388 . S
C2844 C2845 1.366 . S
C2845 C2844 1.366 . S
C2845 C2846 1.414 . S
C2845 C2848 1.499 . S
C2846 H2820 0.950 . S
C2846 C2845 1.414 . S
C2846 C2847 1.374 . S
C2847 H2821 0.950 . S
C2847 C2843 1.385 . S
C2847 C2846 1.374 . S
C2848 C2845 1.499 . S
C2848 C2849 1.373 . S
C2848 C2850 1.389 . S
C2849 H2822 0.950 . S
C2849 C2835 1.377 . S
C2849 C2848 1.373 . S
C2850 C2834 1.377 . S
C2850 C2848 1.389 . S
C2850 C2851 1.524 . S
C2851 C2850 1.524 . S
C2851 C2852 1.397 . S
C2851 C2856 1.363 . S
C2852 H2823 0.950 . S
C2852 C2851 1.397 . S
C2852 C2853 1.334 . S
C2853 H2824 0.950 . S
C2853 C2852 1.334 . S
C2853 C2854 1.287 . S
C2854 C2853 1.287 . S
C2854 C2855 1.524 . S
C2854 H2857 0.999 . S
C2855 H2825 0.950 . S
C2855 C2854 1.524 . S
C2855 C2856 1.415 . S
C2856 H2826 0.950 . S
C2856 C2851 1.363 . S
C2856 C2855 1.415 . S
H2857 C2854 0.999 . S
H2858 C2839 0.913 . S
H2859 C2877 0.951 . S
H2860 C2879 0.951 . S
H2861 C2881 0.950 . S
H2862 C2882 0.950 . S
H2863 C2884 0.950 . S
H2864 C2887 0.950 . S
H2865 C2888 0.950 . S
H2866 C2890 0.950 . S
H2867 C2891 0.950 . S
H2868 C2892 0.951 . S
H2869 C2894 0.951 . S
H2870 C2896 0.950 . S
H2871 C2897 0.950 . S
H2872 C2899 0.950 . S
H2873 C2902 0.950 . S
H2874 C2903 0.950 . S
H2875 C2905 0.950 . S
H2876 C2906 0.950 . S
C2877 H2859 0.951 . S
C2877 C2878 1.366 . S
C2877 C2879 1.388 . S
C2878 C2877 1.366 . S
C2878 C2882 1.385 . S
C2879 H2860 0.951 . S
C2879 C2877 1.388 . S
C2879 C2880 1.366 . S
C2880 C2879 1.366 . S
C2880 C2881 1.414 . S
C2880 C2883 1.499 . S
C2881 H2861 0.950 . S
C2881 C2880 1.414 . S
C2881 C2882 1.374 . S
C2882 H2862 0.950 . S
C2882 C2878 1.385 . S
C2882 C2881 1.374 . S
C2883 C2880 1.499 . S
C2883 C2884 1.373 . S
C2883 C2885 1.389 . S
C2884 H2863 0.950 . S
C2884 C2883 1.373 . S
C2884 C2900 1.377 . S
C2885 C2883 1.389 . S
C2885 C2886 1.524 . S
C2885 C2899 1.377 . S
C2886 C2885 1.524 . S
C2886 C2887 1.397 . S
C2886 C2891 1.363 . S
C2887 H2864 0.950 . S
C2887 C2886 1.397 . S
C2887 C2888 1.334 . S
C2888 H2865 0.950 . S
C2888 C2887 1.334 . S
C2888 C2889 1.287 . S
C2889 C2888 1.287 . S
C2889 C2890 1.524 . S
C2889 H2908 0.913 . S
C2890 H2866 0.950 . S
C2890 C2889 1.524 . S
C2890 C2891 1.415 . S
C2891 H2867 0.950 . S
C2891 C2886 1.363 . S
C2891 C2890 1.415 . S
C2892 H2868 0.951 . S
C2892 C2893 1.366 . S
C2892 C2894 1.388 . S
C2893 C2892 1.366 . S
C2893 C2897 1.385 1_655 S
C2894 H2869 0.951 . S
C2894 C2892 1.388 . S
C2894 C2895 1.366 . S
C2895 C2894 1.366 . S
C2895 C2896 1.414 1_655 S
C2895 C2898 1.499 . S
C2896 H2870 0.950 . S
C2896 C2895 1.414 1_455 S
C2896 C2897 1.374 . S
C2897 H2871 0.950 . S
C2897 C2893 1.385 1_455 S
C2897 C2896 1.374 . S
C2898 C2895 1.499 . S
C2898 C2899 1.373 . S
C2898 C2900 1.389 . S
C2899 H2872 0.950 . S
C2899 C2885 1.377 . S
C2899 C2898 1.373 . S
C2900 C2884 1.377 . S
C2900 C2898 1.389 . S
C2900 C2901 1.524 . S
C2901 C2900 1.524 . S
C2901 C2902 1.397 1_655 S
C2901 C2906 1.363 . S
C2902 H2873 0.950 . S
C2902 C2901 1.397 1_455 S
C2902 C2903 1.334 . S
C2903 H2874 0.950 . S
C2903 C2902 1.334 . S
C2903 C2904 1.287 . S
C2904 C2903 1.287 . S
C2904 C2905 1.524 1_455 S
C2904 H2907 0.999 . S
C2905 H2875 0.950 . S
C2905 C2904 1.524 1_655 S
C2905 C2906 1.415 . S
C2906 H2876 0.950 . S
C2906 C2901 1.363 . S
C2906 C2905 1.415 . S
H2907 C2904 0.999 . S
H2908 C2889 0.913 . S
H2909 C2927 0.951 . S
H2910 C2929 0.951 . S
H2911 C2931 0.950 . S
H2912 C2932 0.950 . S
H2913 C2934 0.950 . S
H2914 C2937 0.950 . S
H2915 C2938 0.950 . S
H2916 C2940 0.950 . S
H2917 C2941 0.950 . S
H2918 C2942 0.951 . S
H2919 C2944 0.951 . S
H2920 C2946 0.950 . S
H2921 C2947 0.950 . S
H2922 C2949 0.950 . S
H2923 C2952 0.950 . S
H2924 C2953 0.950 . S
H2925 C2955 0.950 . S
H2926 C2956 0.950 . S
C2927 H2909 0.951 . S
C2927 C2928 1.366 . S
C2927 C2929 1.388 . S
C2928 C2927 1.366 . S
C2928 C2932 1.385 . S
C2929 H2910 0.951 . S
C2929 C2927 1.388 . S
C2929 C2930 1.366 . S
C2930 C2929 1.366 . S
C2930 C2931 1.414 . S
C2930 C2933 1.499 . S
C2931 H2911 0.950 . S
C2931 C2930 1.414 . S
C2931 C2932 1.374 . S
C2932 H2912 0.950 . S
C2932 C2928 1.385 . S
C2932 C2931 1.374 . S
C2933 C2930 1.499 . S
C2933 C2934 1.373 . S
C2933 C2935 1.389 . S
C2934 H2913 0.950 . S
C2934 C2933 1.373 . S
C2934 C2950 1.377 . S
C2935 C2933 1.389 . S
C2935 C2936 1.524 . S
C2935 C2949 1.377 . S
C2936 C2935 1.524 . S
C2936 C2937 1.397 . S
C2936 C2941 1.363 . S
C2937 H2914 0.950 . S
C2937 C2936 1.397 . S
C2937 C2938 1.334 . S
C2938 H2915 0.950 . S
C2938 C2937 1.334 . S
C2938 C2939 1.287 . S
C2939 C2938 1.287 . S
C2939 C2940 1.524 . S
C2939 H2958 0.913 . S
C2940 H2916 0.950 . S
C2940 C2939 1.524 . S
C2940 C2941 1.415 . S
C2941 H2917 0.950 . S
C2941 C2936 1.363 . S
C2941 C2940 1.415 . S
C2942 H2918 0.951 . S
C2942 C2943 1.366 . S
C2942 C2944 1.388 . S
C2943 C2942 1.366 . S
C2943 C2947 1.385 . S
C2944 H2919 0.951 . S
C2944 C2942 1.388 . S
C2944 C2945 1.366 . S
C2945 C2944 1.366 . S
C2945 C2946 1.414 . S
C2945 C2948 1.499 . S
C2946 H2920 0.950 . S
C2946 C2945 1.414 . S
C2946 C2947 1.374 . S
C2947 H2921 0.950 . S
C2947 C2943 1.385 . S
C2947 C2946 1.374 . S
C2948 C2945 1.499 . S
C2948 C2949 1.373 . S
C2948 C2950 1.389 . S
C2949 H2922 0.950 . S
C2949 C2935 1.377 . S
C2949 C2948 1.373 . S
C2950 C2934 1.377 . S
C2950 C2948 1.389 . S
C2950 C2951 1.524 . S
C2951 C2950 1.524 . S
C2951 C2952 1.397 . S
C2951 C2956 1.363 . S
C2952 H2923 0.950 . S
C2952 C2951 1.397 . S
C2952 C2953 1.334 . S
C2953 H2924 0.950 . S
C2953 C2952 1.334 . S
C2953 C2954 1.287 . S
C2954 C2953 1.287 . S
C2954 C2955 1.524 . S
C2954 H2957 0.999 . S
C2955 H2925 0.950 . S
C2955 C2954 1.524 . S
C2955 C2956 1.415 . S
C2956 H2926 0.950 . S
C2956 C2951 1.363 . S
C2956 C2955 1.415 . S
H2957 C2954 0.999 . S
H2958 C2939 0.913 . S
H2959 C2977 0.951 . S
H2960 C2979 0.951 . S
H2961 C2981 0.950 . S
H2962 C2982 0.950 . S
H2963 C2984 0.950 . S
H2964 C2987 0.950 . S
H2965 C2988 0.950 . S
H2966 C2990 0.950 . S
H2967 C2991 0.950 . S
H2968 C2992 0.951 . S
H2969 C2994 0.951 1_565 S
H2970 C2996 0.950 . S
H2971 C2997 0.950 . S
H2972 C2999 0.950 . S
H2973 C3002 0.950 . S
H2974 C3003 0.950 . S
H2975 C3005 0.950 1_565 S
H2976 C3006 0.950 1_565 S
C2977 H2959 0.951 . S
C2977 C2978 1.366 . S
C2977 C2979 1.388 . S
C2978 C2977 1.366 . S
C2978 C2982 1.385 . S
C2979 H2960 0.951 . S
C2979 C2977 1.388 . S
C2979 C2980 1.366 . S
C2980 C2979 1.366 . S
C2980 C2981 1.414 . S
C2980 C2983 1.499 . S
C2981 H2961 0.950 . S
C2981 C2980 1.414 . S
C2981 C2982 1.374 . S
C2982 H2962 0.950 . S
C2982 C2978 1.385 . S
C2982 C2981 1.374 . S
C2983 C2980 1.499 . S
C2983 C2984 1.373 . S
C2983 C2985 1.389 . S
C2984 H2963 0.950 . S
C2984 C2983 1.373 . S
C2984 C3000 1.377 . S
C2985 C2983 1.389 . S
C2985 C2986 1.524 . S
C2985 C2999 1.377 . S
C2986 C2985 1.524 . S
C2986 C2987 1.397 . S
C2986 C2991 1.363 . S
C2987 H2964 0.950 . S
C2987 C2986 1.397 . S
C2987 C2988 1.334 . S
C2988 H2965 0.950 . S
C2988 C2987 1.334 . S
C2988 C2989 1.287 . S
C2989 C2988 1.287 . S
C2989 C2990 1.524 . S
C2989 H3008 0.913 . S
C2990 H2966 0.950 . S
C2990 C2989 1.524 . S
C2990 C2991 1.415 . S
C2991 H2967 0.950 . S
C2991 C2986 1.363 . S
C2991 C2990 1.415 . S
C2992 H2968 0.951 . S
C2992 C2993 1.366 1_565 S
C2992 C2994 1.388 1_565 S
C2993 C2992 1.366 1_545 S
C2993 C2997 1.385 . S
C2994 H2969 0.951 1_545 S
C2994 C2992 1.388 1_545 S
C2994 C2995 1.366 . S
C2995 C2994 1.366 . S
C2995 C2996 1.414 . S
C2995 C2998 1.499 . S
C2996 H2970 0.950 . S
C2996 C2995 1.414 . S
C2996 C2997 1.374 . S
C2997 H2971 0.950 . S
C2997 C2993 1.385 . S
C2997 C2996 1.374 . S
C2998 C2995 1.499 . S
C2998 C2999 1.373 . S
C2998 C3000 1.389 . S
C2999 H2972 0.950 . S
C2999 C2985 1.377 . S
C2999 C2998 1.373 . S
C3000 C2984 1.377 . S
C3000 C2998 1.389 . S
C3000 C3001 1.524 . S
C3001 C3000 1.524 . S
C3001 C3002 1.397 . S
C3001 C3006 1.363 . S
C3002 H2973 0.950 . S
C3002 C3001 1.397 . S
C3002 C3003 1.334 . S
C3003 H2974 0.950 . S
C3003 C3002 1.334 . S
C3003 C3004 1.287 . S
C3004 C3003 1.287 . S
C3004 C3005 1.524 . S
C3004 H3007 0.999 . S
C3005 H2975 0.950 1_545 S
C3005 C3004 1.524 . S
C3005 C3006 1.415 . S
C3006 H2976 0.950 1_545 S
C3006 C3001 1.363 . S
C3006 C3005 1.415 . S
H3007 C3004 0.999 . S
H3008 C2989 0.913 . S
H3009 C3027 0.951 . S
H3010 C3029 0.951 . S
H3011 C3031 0.950 . S
H3012 C3032 0.950 . S
H3013 C3034 0.950 . S
H3014 C3037 0.950 . S
H3015 C3038 0.950 . S
H3016 C3040 0.950 . S
H3017 C3041 0.950 . S
H3018 C3042 0.951 . S
H3019 C3044 0.951 . S
H3020 C3046 0.950 . S
H3021 C3047 0.950 . S
H3022 C3049 0.950 . S
H3023 C3052 0.950 . S
H3024 C3053 0.950 . S
H3025 C3055 0.950 . S
H3026 C3056 0.950 . S
C3027 H3009 0.951 . S
C3027 C3028 1.366 . S
C3027 C3029 1.388 . S
C3028 C3027 1.366 . S
C3028 C3032 1.385 . S
C3029 H3010 0.951 . S
C3029 C3027 1.388 . S
C3029 C3030 1.366 . S
C3030 C3029 1.366 . S
C3030 C3031 1.414 . S
C3030 C3033 1.499 . S
C3031 H3011 0.950 . S
C3031 C3030 1.414 . S
C3031 C3032 1.374 . S
C3032 H3012 0.950 . S
C3032 C3028 1.385 . S
C3032 C3031 1.374 . S
C3033 C3030 1.499 . S
C3033 C3034 1.373 . S
C3033 C3035 1.389 . S
C3034 H3013 0.950 . S
C3034 C3033 1.373 . S
C3034 C3050 1.377 . S
C3035 C3033 1.389 . S
C3035 C3036 1.524 . S
C3035 C3049 1.377 . S
C3036 C3035 1.524 . S
C3036 C3037 1.397 . S
C3036 C3041 1.363 . S
C3037 H3014 0.950 . S
C3037 C3036 1.397 . S
C3037 C3038 1.334 . S
C3038 H3015 0.950 . S
C3038 C3037 1.334 . S
C3038 C3039 1.287 . S
C3039 C3038 1.287 . S
C3039 C3040 1.524 . S
C3039 H3058 0.913 . S
C3040 H3016 0.950 . S
C3040 C3039 1.524 . S
C3040 C3041 1.415 . S
C3041 H3017 0.950 . S
C3041 C3036 1.363 . S
C3041 C3040 1.415 . S
C3042 H3018 0.951 . S
C3042 C3043 1.366 . S
C3042 C3044 1.388 . S
C3043 C3042 1.366 . S
C3043 C3047 1.385 . S
C3044 H3019 0.951 . S
C3044 C3042 1.388 . S
C3044 C3045 1.366 . S
C3045 C3044 1.366 . S
C3045 C3046 1.414 . S
C3045 C3048 1.499 . S
C3046 H3020 0.950 . S
C3046 C3045 1.414 . S
C3046 C3047 1.374 . S
C3047 H3021 0.950 . S
C3047 C3043 1.385 . S
C3047 C3046 1.374 . S
C3048 C3045 1.499 . S
C3048 C3049 1.373 . S
C3048 C3050 1.389 . S
C3049 H3022 0.950 . S
C3049 C3035 1.377 . S
C3049 C3048 1.373 . S
C3050 C3034 1.377 . S
C3050 C3048 1.389 . S
C3050 C3051 1.524 . S
C3051 C3050 1.524 . S
C3051 C3052 1.397 . S
C3051 C3056 1.363 . S
C3052 H3023 0.950 . S
C3052 C3051 1.397 . S
C3052 C3053 1.334 . S
C3053 H3024 0.950 . S
C3053 C3052 1.334 . S
C3053 C3054 1.287 . S
C3054 C3053 1.287 . S
C3054 C3055 1.524 . S
C3054 H3057 0.999 . S
C3055 H3025 0.950 . S
C3055 C3054 1.524 . S
C3055 C3056 1.415 . S
C3056 H3026 0.950 . S
C3056 C3051 1.363 . S
C3056 C3055 1.415 . S
H3057 C3054 0.999 . S
H3058 C3039 0.913 . S
H3059 C3077 0.951 . S
H3060 C3079 0.951 . S
H3061 C3081 0.950 . S
H3062 C3082 0.950 . S
H3063 C3084 0.950 . S
H3064 C3087 0.950 . S
H3065 C3088 0.950 . S
H3066 C3090 0.950 . S
H3067 C3091 0.950 . S
H3068 C3092 0.951 . S
H3069 C3094 0.951 . S
H3070 C3096 0.950 . S
H3071 C3097 0.950 . S
H3072 C3099 0.950 . S
H3073 C3102 0.950 . S
H3074 C3103 0.950 . S
H3075 C3105 0.950 . S
H3076 C3106 0.950 . S
C3077 H3059 0.951 . S
C3077 C3078 1.366 . S
C3077 C3079 1.388 . S
C3078 C3077 1.366 . S
C3078 C3082 1.385 . S
C3079 H3060 0.951 . S
C3079 C3077 1.388 . S
C3079 C3080 1.366 . S
C3080 C3079 1.366 . S
C3080 C3081 1.414 . S
C3080 C3083 1.499 . S
C3081 H3061 0.950 . S
C3081 C3080 1.414 . S
C3081 C3082 1.374 . S
C3082 H3062 0.950 . S
C3082 C3078 1.385 . S
C3082 C3081 1.374 . S
C3083 C3080 1.499 . S
C3083 C3084 1.373 . S
C3083 C3085 1.389 . S
C3084 H3063 0.950 . S
C3084 C3083 1.373 . S
C3084 C3100 1.377 . S
C3085 C3083 1.389 . S
C3085 C3086 1.524 . S
C3085 C3099 1.377 . S
C3086 C3085 1.524 . S
C3086 C3087 1.397 . S
C3086 C3091 1.363 . S
C3087 H3064 0.950 . S
C3087 C3086 1.397 . S
C3087 C3088 1.334 . S
C3088 H3065 0.950 . S
C3088 C3087 1.334 . S
C3088 C3089 1.287 . S
C3089 C3088 1.287 . S
C3089 C3090 1.524 . S
C3089 H3108 0.913 . S
C3090 H3066 0.950 . S
C3090 C3089 1.524 . S
C3090 C3091 1.415 . S
C3091 H3067 0.950 . S
C3091 C3086 1.363 . S
C3091 C3090 1.415 . S
C3092 H3068 0.951 . S
C3092 C3093 1.366 . S
C3092 C3094 1.388 . S
C3093 C3092 1.366 . S
C3093 C3097 1.385 . S
C3094 H3069 0.951 . S
C3094 C3092 1.388 . S
C3094 C3095 1.366 . S
C3095 C3094 1.366 . S
C3095 C3096 1.414 . S
C3095 C3098 1.499 . S
C3096 H3070 0.950 . S
C3096 C3095 1.414 . S
C3096 C3097 1.374 . S
C3097 H3071 0.950 . S
C3097 C3093 1.385 . S
C3097 C3096 1.374 . S
C3098 C3095 1.499 . S
C3098 C3099 1.373 . S
C3098 C3100 1.389 . S
C3099 H3072 0.950 . S
C3099 C3085 1.377 . S
C3099 C3098 1.373 . S
C3100 C3084 1.377 . S
C3100 C3098 1.389 . S
C3100 C3101 1.524 . S
C3101 C3100 1.524 . S
C3101 C3102 1.397 . S
C3101 C3106 1.363 . S
C3102 H3073 0.950 . S
C3102 C3101 1.397 . S
C3102 C3103 1.334 . S
C3103 H3074 0.950 . S
C3103 C3102 1.334 . S
C3103 C3104 1.287 . S
C3104 C3103 1.287 . S
C3104 C3105 1.524 . S
C3104 H3107 0.999 . S
C3105 H3075 0.950 . S
C3105 C3104 1.524 . S
C3105 C3106 1.415 . S
C3106 H3076 0.950 . S
C3106 C3101 1.363 . S
C3106 C3105 1.415 . S
H3107 C3104 0.999 . S
H3108 C3089 0.913 . S
H3109 C3127 0.951 . S
H3110 C3129 0.951 . S
H3111 C3131 0.950 . S
H3112 C3132 0.950 . S
H3113 C3134 0.950 . S
H3114 C3137 0.950 . S
H3115 C3138 0.950 . S
H3116 C3140 0.950 . S
H3117 C3141 0.950 . S
H3118 C3142 0.951 . S
H3119 C3144 0.951 . S
H3120 C3146 0.950 . S
H3121 C3147 0.950 . S
H3122 C3149 0.950 . S
H3123 C3152 0.950 . S
H3124 C3153 0.950 . S
H3125 C3155 0.950 . S
H3126 C3156 0.950 . S
C3127 H3109 0.951 . S
C3127 C3128 1.366 . S
C3127 C3129 1.388 . S
C3128 C3127 1.366 . S
C3128 C3132 1.385 . S
C3129 H3110 0.951 . S
C3129 C3127 1.388 . S
C3129 C3130 1.366 . S
C3130 C3129 1.366 . S
C3130 C3131 1.414 . S
C3130 C3133 1.499 . S
C3131 H3111 0.950 . S
C3131 C3130 1.414 . S
C3131 C3132 1.374 . S
C3132 H3112 0.950 . S
C3132 C3128 1.385 . S
C3132 C3131 1.374 . S
C3133 C3130 1.499 . S
C3133 C3134 1.373 . S
C3133 C3135 1.389 . S
C3134 H3113 0.950 . S
C3134 C3133 1.373 . S
C3134 C3150 1.377 . S
C3135 C3133 1.389 . S
C3135 C3136 1.524 . S
C3135 C3149 1.377 . S
C3136 C3135 1.524 . S
C3136 C3137 1.397 . S
C3136 C3141 1.363 . S
C3137 H3114 0.950 . S
C3137 C3136 1.397 . S
C3137 C3138 1.334 . S
C3138 H3115 0.950 . S
C3138 C3137 1.334 . S
C3138 C3139 1.287 . S
C3139 C3138 1.287 . S
C3139 C3140 1.524 . S
C3139 H3158 0.913 . S
C3140 H3116 0.950 . S
C3140 C3139 1.524 . S
C3140 C3141 1.415 . S
C3141 H3117 0.950 . S
C3141 C3136 1.363 . S
C3141 C3140 1.415 . S
C3142 H3118 0.951 . S
C3142 C3143 1.366 . S
C3142 C3144 1.388 . S
C3143 C3142 1.366 . S
C3143 C3147 1.385 . S
C3144 H3119 0.951 . S
C3144 C3142 1.388 . S
C3144 C3145 1.366 . S
C3145 C3144 1.366 . S
C3145 C3146 1.414 . S
C3145 C3148 1.499 . S
C3146 H3120 0.950 . S
C3146 C3145 1.414 . S
C3146 C3147 1.374 . S
C3147 H3121 0.950 . S
C3147 C3143 1.385 . S
C3147 C3146 1.374 . S
C3148 C3145 1.499 . S
C3148 C3149 1.373 . S
C3148 C3150 1.389 . S
C3149 H3122 0.950 . S
C3149 C3135 1.377 . S
C3149 C3148 1.373 . S
C3150 C3134 1.377 . S
C3150 C3148 1.389 . S
C3150 C3151 1.524 . S
C3151 C3150 1.524 . S
C3151 C3152 1.397 . S
C3151 C3156 1.363 . S
C3152 H3123 0.950 . S
C3152 C3151 1.397 . S
C3152 C3153 1.334 . S
C3153 H3124 0.950 . S
C3153 C3152 1.334 . S
C3153 C3154 1.287 . S
C3154 C3153 1.287 . S
C3154 C3155 1.524 . S
C3154 H3157 0.999 . S
C3155 H3125 0.950 . S
C3155 C3154 1.524 . S
C3155 C3156 1.415 . S
C3156 H3126 0.950 . S
C3156 C3151 1.363 . S
C3156 C3155 1.415 . S
H3157 C3154 0.999 . S
H3158 C3139 0.913 . S
H3159 C3177 0.951 . S
H3160 C3179 0.951 . S
H3161 C3181 0.950 . S
H3162 C3182 0.950 . S
H3163 C3184 0.950 . S
H3164 C3187 0.950 . S
H3165 C3188 0.950 . S
H3166 C3190 0.950 . S
H3167 C3191 0.950 . S
H3168 C3192 0.951 . S
H3169 C3194 0.951 . S
H3170 C3196 0.950 . S
H3171 C3197 0.950 . S
H3172 C3199 0.950 . S
H3173 C3202 0.950 . S
H3174 C3203 0.950 . S
H3175 C3205 0.950 . S
H3176 C3206 0.950 . S
C3177 H3159 0.951 . S
C3177 C3178 1.366 . S
C3177 C3179 1.388 . S
C3178 C3177 1.366 . S
C3178 C3182 1.385 . S
C3179 H3160 0.951 . S
C3179 C3177 1.388 . S
C3179 C3180 1.366 . S
C3180 C3179 1.366 . S
C3180 C3181 1.414 . S
C3180 C3183 1.499 . S
C3181 H3161 0.950 . S
C3181 C3180 1.414 . S
C3181 C3182 1.374 . S
C3182 H3162 0.950 . S
C3182 C3178 1.385 . S
C3182 C3181 1.374 . S
C3183 C3180 1.499 . S
C3183 C3184 1.373 . S
C3183 C3185 1.389 . S
C3184 H3163 0.950 . S
C3184 C3183 1.373 . S
C3184 C3200 1.377 . S
C3185 C3183 1.389 . S
C3185 C3186 1.524 . S
C3185 C3199 1.377 . S
C3186 C3185 1.524 . S
C3186 C3187 1.397 . S
C3186 C3191 1.363 . S
C3187 H3164 0.950 . S
C3187 C3186 1.397 . S
C3187 C3188 1.334 . S
C3188 H3165 0.950 . S
C3188 C3187 1.334 . S
C3188 C3189 1.287 . S
C3189 C3188 1.287 . S
C3189 C3190 1.524 . S
C3189 H3208 0.913 . S
C3190 H3166 0.950 . S
C3190 C3189 1.524 . S
C3190 C3191 1.415 . S
C3191 H3167 0.950 . S
C3191 C3186 1.363 . S
C3191 C3190 1.415 . S
C3192 H3168 0.951 . S
C3192 C3193 1.366 . S
C3192 C3194 1.388 . S
C3193 C3192 1.366 . S
C3193 C3197 1.385 . S
C3194 H3169 0.951 . S
C3194 C3192 1.388 . S
C3194 C3195 1.366 . S
C3195 C3194 1.366 . S
C3195 C3196 1.414 . S
C3195 C3198 1.499 . S
C3196 H3170 0.950 . S
C3196 C3195 1.414 . S
C3196 C3197 1.374 . S
C3197 H3171 0.950 . S
C3197 C3193 1.385 . S
C3197 C3196 1.374 . S
C3198 C3195 1.499 . S
C3198 C3199 1.373 . S
C3198 C3200 1.389 . S
C3199 H3172 0.950 . S
C3199 C3185 1.377 . S
C3199 C3198 1.373 . S
C3200 C3184 1.377 . S
C3200 C3198 1.389 . S
C3200 C3201 1.524 . S
C3201 C3200 1.524 . S
C3201 C3202 1.397 . S
C3201 C3206 1.363 . S
C3202 H3173 0.950 . S
C3202 C3201 1.397 . S
C3202 C3203 1.334 . S
C3203 H3174 0.950 . S
C3203 C3202 1.334 . S
C3203 C3204 1.287 . S
C3204 C3203 1.287 . S
C3204 C3205 1.524 . S
C3204 H3207 0.999 . S
C3205 H3175 0.950 . S
C3205 C3204 1.524 . S
C3205 C3206 1.415 . S
C3206 H3176 0.950 . S
C3206 C3201 1.363 . S
C3206 C3205 1.415 . S
H3207 C3204 0.999 . S
H3208 C3189 0.913 . S
H3209 C3227 0.951 . S
H3210 C3229 0.951 . S
H3211 C3231 0.950 . S
H3212 C3232 0.950 . S
H3213 C3234 0.950 . S
H3214 C3237 0.950 . S
H3215 C3238 0.950 . S
H3216 C3240 0.950 . S
H3217 C3241 0.950 . S
H3218 C3242 0.951 . S
H3219 C3244 0.951 . S
H3220 C3246 0.950 . S
H3221 C3247 0.950 . S
H3222 C3249 0.950 . S
H3223 C3252 0.950 . S
H3224 C3253 0.950 . S
H3225 C3255 0.950 . S
H3226 C3256 0.950 . S
C3227 H3209 0.951 . S
C3227 C3228 1.366 . S
C3227 C3229 1.388 . S
C3228 C3227 1.366 . S
C3228 C3232 1.385 . S
C3229 H3210 0.951 . S
C3229 C3227 1.388 . S
C3229 C3230 1.366 . S
C3230 C3229 1.366 . S
C3230 C3231 1.414 . S
C3230 C3233 1.499 . S
C3231 H3211 0.950 . S
C3231 C3230 1.414 . S
C3231 C3232 1.374 . S
C3232 H3212 0.950 . S
C3232 C3228 1.385 . S
C3232 C3231 1.374 . S
C3233 C3230 1.499 . S
C3233 C3234 1.373 . S
C3233 C3235 1.389 . S
C3234 H3213 0.950 . S
C3234 C3233 1.373 . S
C3234 C3250 1.377 . S
C3235 C3233 1.389 . S
C3235 C3236 1.524 . S
C3235 C3249 1.377 . S
C3236 C3235 1.524 . S
C3236 C3237 1.397 . S
C3236 C3241 1.363 . S
C3237 H3214 0.950 . S
C3237 C3236 1.397 . S
C3237 C3238 1.334 . S
C3238 H3215 0.950 . S
C3238 C3237 1.334 . S
C3238 C3239 1.287 . S
C3239 C3238 1.287 . S
C3239 C3240 1.524 . S
C3239 H3258 0.913 . S
C3240 H3216 0.950 . S
C3240 C3239 1.524 . S
C3240 C3241 1.415 . S
C3241 H3217 0.950 . S
C3241 C3236 1.363 . S
C3241 C3240 1.415 . S
C3242 H3218 0.951 . S
C3242 C3243 1.366 . S
C3242 C3244 1.388 . S
C3243 C3242 1.366 . S
C3243 C3247 1.385 . S
C3244 H3219 0.951 . S
C3244 C3242 1.388 . S
C3244 C3245 1.366 . S
C3245 C3244 1.366 . S
C3245 C3246 1.414 . S
C3245 C3248 1.499 . S
C3246 H3220 0.950 . S
C3246 C3245 1.414 . S
C3246 C3247 1.374 . S
C3247 H3221 0.950 . S
C3247 C3243 1.385 . S
C3247 C3246 1.374 . S
C3248 C3245 1.499 . S
C3248 C3249 1.373 . S
C3248 C3250 1.389 . S
C3249 H3222 0.950 . S
C3249 C3235 1.377 . S
C3249 C3248 1.373 . S
C3250 C3234 1.377 . S
C3250 C3248 1.389 . S
C3250 C3251 1.524 . S
C3251 C3250 1.524 . S
C3251 C3252 1.397 . S
C3251 C3256 1.363 . S
C3252 H3223 0.950 . S
C3252 C3251 1.397 . S
C3252 C3253 1.334 . S
C3253 H3224 0.950 . S
C3253 C3252 1.334 . S
C3253 C3254 1.287 . S
C3254 C3253 1.287 . S
C3254 C3255 1.524 . S
C3254 H3257 0.999 . S
C3255 H3225 0.950 . S
C3255 C3254 1.524 . S
C3255 C3256 1.415 . S
C3256 H3226 0.950 . S
C3256 C3251 1.363 . S
C3256 C3255 1.415 . S
H3257 C3254 0.999 . S
H3258 C3239 0.913 . S
H3259 C3277 0.951 . S
H3260 C3279 0.951 . S
H3261 C3281 0.950 . S
H3262 C3282 0.950 . S
H3263 C3284 0.950 . S
H3264 C3287 0.950 . S
H3265 C3288 0.950 . S
H3266 C3290 0.950 . S
H3267 C3291 0.950 . S
H3268 C3292 0.951 . S
H3269 C3294 0.951 . S
H3270 C3296 0.950 . S
H3271 C3297 0.950 . S
H3272 C3299 0.950 . S
H3273 C3302 0.950 . S
H3274 C3303 0.950 . S
H3275 C3305 0.950 . S
H3276 C3306 0.950 . S
C3277 H3259 0.951 . S
C3277 C3278 1.366 . S
C3277 C3279 1.388 . S
C3278 C3277 1.366 . S
C3278 C3282 1.385 . S
C3279 H3260 0.951 . S
C3279 C3277 1.388 . S
C3279 C3280 1.366 . S
C3280 C3279 1.366 . S
C3280 C3281 1.414 . S
C3280 C3283 1.499 . S
C3281 H3261 0.950 . S
C3281 C3280 1.414 . S
C3281 C3282 1.374 . S
C3282 H3262 0.950 . S
C3282 C3278 1.385 . S
C3282 C3281 1.374 . S
C3283 C3280 1.499 . S
C3283 C3284 1.373 . S
C3283 C3285 1.389 . S
C3284 H3263 0.950 . S
C3284 C3283 1.373 . S
C3284 C3300 1.377 . S
C3285 C3283 1.389 . S
C3285 C3286 1.524 . S
C3285 C3299 1.377 . S
C3286 C3285 1.524 . S
C3286 C3287 1.397 . S
C3286 C3291 1.363 . S
C3287 H3264 0.950 . S
C3287 C3286 1.397 . S
C3287 C3288 1.334 . S
C3288 H3265 0.950 . S
C3288 C3287 1.334 . S
C3288 C3289 1.287 . S
C3289 C3288 1.287 . S
C3289 C3290 1.524 . S
C3289 H3308 0.913 . S
C3290 H3266 0.950 . S
C3290 C3289 1.524 . S
C3290 C3291 1.415 . S
C3291 H3267 0.950 . S
C3291 C3286 1.363 . S
C3291 C3290 1.415 . S
C3292 H3268 0.951 . S
C3292 C3293 1.366 . S
C3292 C3294 1.388 . S
C3293 C3292 1.366 . S
C3293 C3297 1.385 . S
C3294 H3269 0.951 . S
C3294 C3292 1.388 . S
C3294 C3295 1.366 . S
C3295 C3294 1.366 . S
C3295 C3296 1.414 . S
C3295 C3298 1.499 . S
C3296 H3270 0.950 . S
C3296 C3295 1.414 . S
C3296 C3297 1.374 . S
C3297 H3271 0.950 . S
C3297 C3293 1.385 . S
C3297 C3296 1.374 . S
C3298 C3295 1.499 . S
C3298 C3299 1.373 . S
C3298 C3300 1.389 . S
C3299 H3272 0.950 . S
C3299 C3285 1.377 . S
C3299 C3298 1.373 . S
C3300 C3284 1.377 . S
C3300 C3298 1.389 . S
C3300 C3301 1.524 . S
C3301 C3300 1.524 . S
C3301 C3302 1.397 . S
C3301 C3306 1.363 . S
C3302 H3273 0.950 . S
C3302 C3301 1.397 . S
C3302 C3303 1.334 . S
C3303 H3274 0.950 . S
C3303 C3302 1.334 . S
C3303 C3304 1.287 . S
C3304 C3303 1.287 . S
C3304 C3305 1.524 . S
C3304 H3307 0.999 . S
C3305 H3275 0.950 . S
C3305 C3304 1.524 . S
C3305 C3306 1.415 . S
C3306 H3276 0.950 . S
C3306 C3301 1.363 . S
C3306 C3305 1.415 . S
H3307 C3304 0.999 . S
H3308 C3289 0.913 . S
H3309 C3327 0.951 . S
H3310 C3329 0.951 . S
H3311 C3331 0.950 . S
H3312 C3332 0.950 . S
H3313 C3334 0.950 . S
H3314 C3337 0.950 . S
H3315 C3338 0.950 . S
H3316 C3340 0.950 . S
H3317 C3341 0.950 . S
H3318 C3342 0.951 . S
H3319 C3344 0.951 . S
H3320 C3346 0.950 . S
H3321 C3347 0.950 . S
H3322 C3349 0.950 . S
H3323 C3352 0.950 . S
H3324 C3353 0.950 . S
H3325 C3355 0.950 . S
H3326 C3356 0.950 . S
C3327 H3309 0.951 . S
C3327 C3328 1.366 . S
C3327 C3329 1.388 . S
C3328 C3327 1.366 . S
C3328 C3332 1.385 . S
C3329 H3310 0.951 . S
C3329 C3327 1.388 . S
C3329 C3330 1.366 . S
C3330 C3329 1.366 . S
C3330 C3331 1.414 . S
C3330 C3333 1.499 . S
C3331 H3311 0.950 . S
C3331 C3330 1.414 . S
C3331 C3332 1.374 . S
C3332 H3312 0.950 . S
C3332 C3328 1.385 . S
C3332 C3331 1.374 . S
C3333 C3330 1.499 . S
C3333 C3334 1.373 . S
C3333 C3335 1.389 . S
C3334 H3313 0.950 . S
C3334 C3333 1.373 . S
C3334 C3350 1.377 . S
C3335 C3333 1.389 . S
C3335 C3336 1.524 . S
C3335 C3349 1.377 . S
C3336 C3335 1.524 . S
C3336 C3337 1.397 . S
C3336 C3341 1.363 . S
C3337 H3314 0.950 . S
C3337 C3336 1.397 . S
C3337 C3338 1.334 . S
C3338 H3315 0.950 . S
C3338 C3337 1.334 . S
C3338 C3339 1.287 . S
C3339 C3338 1.287 . S
C3339 C3340 1.524 . S
C3339 H3358 0.913 . S
C3340 H3316 0.950 . S
C3340 C3339 1.524 . S
C3340 C3341 1.415 . S
C3341 H3317 0.950 . S
C3341 C3336 1.363 . S
C3341 C3340 1.415 . S
C3342 H3318 0.951 . S
C3342 C3343 1.366 . S
C3342 C3344 1.388 . S
C3343 C3342 1.366 . S
C3343 C3347 1.385 . S
C3344 H3319 0.951 . S
C3344 C3342 1.388 . S
C3344 C3345 1.366 . S
C3345 C3344 1.366 . S
C3345 C3346 1.414 . S
C3345 C3348 1.499 . S
C3346 H3320 0.950 . S
C3346 C3345 1.414 . S
C3346 C3347 1.374 . S
C3347 H3321 0.950 . S
C3347 C3343 1.385 . S
C3347 C3346 1.374 . S
C3348 C3345 1.499 . S
C3348 C3349 1.373 . S
C3348 C3350 1.389 . S
C3349 H3322 0.950 . S
C3349 C3335 1.377 . S
C3349 C3348 1.373 . S
C3350 C3334 1.377 . S
C3350 C3348 1.389 . S
C3350 C3351 1.524 . S
C3351 C3350 1.524 . S
C3351 C3352 1.397 . S
C3351 C3356 1.363 . S
C3352 H3323 0.950 . S
C3352 C3351 1.397 . S
C3352 C3353 1.334 . S
C3353 H3324 0.950 . S
C3353 C3352 1.334 . S
C3353 C3354 1.287 . S
C3354 C3353 1.287 . S
C3354 C3355 1.524 . S
C3354 H3357 0.999 . S
C3355 H3325 0.950 . S
C3355 C3354 1.524 . S
C3355 C3356 1.415 . S
C3356 H3326 0.950 . S
C3356 C3351 1.363 . S
C3356 C3355 1.415 . S
H3357 C3354 0.999 . S
H3358 C3339 0.913 . S
H3359 C3377 0.951 . S
H3360 C3379 0.951 . S
H3361 C3381 0.950 . S
H3362 C3382 0.950 . S
H3363 C3384 0.950 . S
H3364 C3387 0.950 . S
H3365 C3388 0.950 . S
H3366 C3390 0.950 . S
H3367 C3391 0.950 . S
H3368 C3392 0.951 . S
H3369 C3394 0.951 . S
H3370 C3396 0.950 . S
H3371 C3397 0.950 . S
H3372 C3399 0.950 . S
H3373 C3402 0.950 . S
H3374 C3403 0.950 . S
H3375 C3405 0.950 . S
H3376 C3406 0.950 . S
C3377 H3359 0.951 . S
C3377 C3378 1.366 . S
C3377 C3379 1.388 . S
C3378 C3377 1.366 . S
C3378 C3382 1.385 . S
C3379 H3360 0.951 . S
C3379 C3377 1.388 . S
C3379 C3380 1.366 . S
C3380 C3379 1.366 . S
C3380 C3381 1.414 . S
C3380 C3383 1.499 . S
C3381 H3361 0.950 . S
C3381 C3380 1.414 . S
C3381 C3382 1.374 . S
C3382 H3362 0.950 . S
C3382 C3378 1.385 . S
C3382 C3381 1.374 . S
C3383 C3380 1.499 . S
C3383 C3384 1.373 . S
C3383 C3385 1.389 . S
C3384 H3363 0.950 . S
C3384 C3383 1.373 . S
C3384 C3400 1.377 . S
C3385 C3383 1.389 . S
C3385 C3386 1.524 . S
C3385 C3399 1.377 . S
C3386 C3385 1.524 . S
C3386 C3387 1.397 . S
C3386 C3391 1.363 . S
C3387 H3364 0.950 . S
C3387 C3386 1.397 . S
C3387 C3388 1.334 . S
C3388 H3365 0.950 . S
C3388 C3387 1.334 . S
C3388 C3389 1.287 . S
C3389 C3388 1.287 . S
C3389 C3390 1.524 . S
C3389 H3408 0.913 . S
C3390 H3366 0.950 . S
C3390 C3389 1.524 . S
C3390 C3391 1.415 . S
C3391 H3367 0.950 . S
C3391 C3386 1.363 . S
C3391 C3390 1.415 . S
C3392 H3368 0.951 . S
C3392 C3393 1.366 . S
C3392 C3394 1.388 . S
C3393 C3392 1.366 . S
C3393 C3397 1.385 . S
C3394 H3369 0.951 . S
C3394 C3392 1.388 . S
C3394 C3395 1.366 . S
C3395 C3394 1.366 . S
C3395 C3396 1.414 . S
C3395 C3398 1.499 . S
C3396 H3370 0.950 . S
C3396 C3395 1.414 . S
C3396 C3397 1.374 . S
C3397 H3371 0.950 . S
C3397 C3393 1.385 . S
C3397 C3396 1.374 . S
C3398 C3395 1.499 . S
C3398 C3399 1.373 . S
C3398 C3400 1.389 . S
C3399 H3372 0.950 . S
C3399 C3385 1.377 . S
C3399 C3398 1.373 . S
C3400 C3384 1.377 . S
C3400 C3398 1.389 . S
C3400 C3401 1.524 . S
C3401 C3400 1.524 . S
C3401 C3402 1.397 . S
C3401 C3406 1.363 . S
C3402 H3373 0.950 . S
C3402 C3401 1.397 . S
C3402 C3403 1.334 . S
C3403 H3374 0.950 . S
C3403 C3402 1.334 . S
C3403 C3404 1.287 . S
C3404 C3403 1.287 . S
C3404 C3405 1.524 . S
C3404 H3407 0.999 . S
C3405 H3375 0.950 . S
C3405 C3404 1.524 . S
C3405 C3406 1.415 . S
C3406 H3376 0.950 . S
C3406 C3401 1.363 . S
C3406 C3405 1.415 . S
H3407 C3404 0.999 . S
H3408 C3389 0.913 . S
H3409 C3427 0.951 . S
H3410 C3429 0.951 . S
H3411 C3431 0.950 . S
H3412 C3432 0.950 . S
H3413 C3434 0.950 . S
H3414 C3437 0.950 . S
H3415 C3438 0.950 . S
H3416 C3440 0.950 . S
H3417 C3441 0.950 . S
H3418 C3442 0.951 . S
H3419 C3444 0.951 . S
H3420 C3446 0.950 . S
H3421 C3447 0.950 . S
H3422 C3449 0.950 . S
H3423 C3452 0.950 . S
H3424 C3453 0.950 . S
H3425 C3455 0.950 . S
H3426 C3456 0.950 . S
C3427 H3409 0.951 . S
C3427 C3428 1.366 . S
C3427 C3429 1.388 . S
C3428 C3427 1.366 . S
C3428 C3432 1.385 . S
C3429 H3410 0.951 . S
C3429 C3427 1.388 . S
C3429 C3430 1.366 . S
C3430 C3429 1.366 . S
C3430 C3431 1.414 . S
C3430 C3433 1.499 . S
C3431 H3411 0.950 . S
C3431 C3430 1.414 . S
C3431 C3432 1.374 . S
C3432 H3412 0.950 . S
C3432 C3428 1.385 . S
C3432 C3431 1.374 . S
C3433 C3430 1.499 . S
C3433 C3434 1.373 . S
C3433 C3435 1.389 . S
C3434 H3413 0.950 . S
C3434 C3433 1.373 . S
C3434 C3450 1.377 . S
C3435 C3433 1.389 . S
C3435 C3436 1.524 . S
C3435 C3449 1.377 . S
C3436 C3435 1.524 . S
C3436 C3437 1.397 . S
C3436 C3441 1.363 . S
C3437 H3414 0.950 . S
C3437 C3436 1.397 . S
C3437 C3438 1.334 . S
C3438 H3415 0.950 . S
C3438 C3437 1.334 . S
C3438 C3439 1.287 . S
C3439 C3438 1.287 . S
C3439 C3440 1.524 . S
C3439 H3458 0.913 . S
C3440 H3416 0.950 . S
C3440 C3439 1.524 . S
C3440 C3441 1.415 . S
C3441 H3417 0.950 . S
C3441 C3436 1.363 . S
C3441 C3440 1.415 . S
C3442 H3418 0.951 . S
C3442 C3443 1.366 . S
C3442 C3444 1.388 . S
C3443 C3442 1.366 . S
C3443 C3447 1.385 . S
C3444 H3419 0.951 . S
C3444 C3442 1.388 . S
C3444 C3445 1.366 . S
C3445 C3444 1.366 . S
C3445 C3446 1.414 . S
C3445 C3448 1.499 . S
C3446 H3420 0.950 . S
C3446 C3445 1.414 . S
C3446 C3447 1.374 . S
C3447 H3421 0.950 . S
C3447 C3443 1.385 . S
C3447 C3446 1.374 . S
C3448 C3445 1.499 . S
C3448 C3449 1.373 . S
C3448 C3450 1.389 . S
C3449 H3422 0.950 . S
C3449 C3435 1.377 . S
C3449 C3448 1.373 . S
C3450 C3434 1.377 . S
C3450 C3448 1.389 . S
C3450 C3451 1.524 . S
C3451 C3450 1.524 . S
C3451 C3452 1.397 . S
C3451 C3456 1.363 . S
C3452 H3423 0.950 . S
C3452 C3451 1.397 . S
C3452 C3453 1.334 . S
C3453 H3424 0.950 . S
C3453 C3452 1.334 . S
C3453 C3454 1.287 . S
C3454 C3453 1.287 . S
C3454 C3455 1.524 . S
C3454 H3457 0.999 . S
C3455 H3425 0.950 . S
C3455 C3454 1.524 . S
C3455 C3456 1.415 . S
C3456 H3426 0.950 . S
C3456 C3451 1.363 . S
C3456 C3455 1.415 . S
H3457 C3454 0.999 . S
H3458 C3439 0.913 . S
H3459 C3477 0.951 . S
H3460 C3479 0.951 . S
H3461 C3481 0.950 . S
H3462 C3482 0.950 . S
H3463 C3484 0.950 . S
H3464 C3487 0.950 . S
H3465 C3488 0.950 . S
H3466 C3490 0.950 . S
H3467 C3491 0.950 . S
H3468 C3492 0.951 . S
H3469 C3494 0.951 . S
H3470 C3496 0.950 . S
H3471 C3497 0.950 . S
H3472 C3499 0.950 . S
H3473 C3502 0.950 . S
H3474 C3503 0.950 . S
H3475 C3505 0.950 . S
H3476 C3506 0.950 . S
C3477 H3459 0.951 . S
C3477 C3478 1.366 . S
C3477 C3479 1.388 . S
C3478 C3477 1.366 . S
C3478 C3482 1.385 . S
C3479 H3460 0.951 . S
C3479 C3477 1.388 . S
C3479 C3480 1.366 . S
C3480 C3479 1.366 . S
C3480 C3481 1.414 . S
C3480 C3483 1.499 . S
C3481 H3461 0.950 . S
C3481 C3480 1.414 . S
C3481 C3482 1.374 . S
C3482 H3462 0.950 . S
C3482 C3478 1.385 . S
C3482 C3481 1.374 . S
C3483 C3480 1.499 . S
C3483 C3484 1.373 . S
C3483 C3485 1.389 . S
C3484 H3463 0.950 . S
C3484 C3483 1.373 . S
C3484 C3500 1.377 . S
C3485 C3483 1.389 . S
C3485 C3486 1.524 . S
C3485 C3499 1.377 . S
C3486 C3485 1.524 . S
C3486 C3487 1.397 . S
C3486 C3491 1.363 . S
C3487 H3464 0.950 . S
C3487 C3486 1.397 . S
C3487 C3488 1.334 . S
C3488 H3465 0.950 . S
C3488 C3487 1.334 . S
C3488 C3489 1.287 . S
C3489 C3488 1.287 . S
C3489 C3490 1.524 . S
C3489 H3508 0.913 . S
C3490 H3466 0.950 . S
C3490 C3489 1.524 . S
C3490 C3491 1.415 . S
C3491 H3467 0.950 . S
C3491 C3486 1.363 . S
C3491 C3490 1.415 . S
C3492 H3468 0.951 . S
C3492 C3493 1.366 . S
C3492 C3494 1.388 . S
C3493 C3492 1.366 . S
C3493 C3497 1.385 . S
C3494 H3469 0.951 . S
C3494 C3492 1.388 . S
C3494 C3495 1.366 . S
C3495 C3494 1.366 . S
C3495 C3496 1.414 . S
C3495 C3498 1.499 . S
C3496 H3470 0.950 . S
C3496 C3495 1.414 . S
C3496 C3497 1.374 . S
C3497 H3471 0.950 . S
C3497 C3493 1.385 . S
C3497 C3496 1.374 . S
C3498 C3495 1.499 . S
C3498 C3499 1.373 . S
C3498 C3500 1.389 . S
C3499 H3472 0.950 . S
C3499 C3485 1.377 . S
C3499 C3498 1.373 . S
C3500 C3484 1.377 . S
C3500 C3498 1.389 . S
C3500 C3501 1.524 . S
C3501 C3500 1.524 . S
C3501 C3502 1.397 . S
C3501 C3506 1.363 . S
C3502 H3473 0.950 . S
C3502 C3501 1.397 . S
C3502 C3503 1.334 . S
C3503 H3474 0.950 . S
C3503 C3502 1.334 . S
C3503 C3504 1.287 . S
C3504 C3503 1.287 . S
C3504 C3505 1.524 . S
C3504 H3507 0.999 . S
C3505 H3475 0.950 . S
C3505 C3504 1.524 . S
C3505 C3506 1.415 . S
C3506 H3476 0.950 . S
C3506 C3501 1.363 . S
C3506 C3505 1.415 . S
H3507 C3504 0.999 . S
H3508 C3489 0.913 . S
H3509 C3527 0.951 . S
H3510 C3529 0.951 . S
H3511 C3531 0.950 . S
H3512 C3532 0.950 . S
H3513 C3534 0.950 . S
H3514 C3537 0.950 . S
H3515 C3538 0.950 . S
H3516 C3540 0.950 . S
H3517 C3541 0.950 . S
H3518 C3542 0.951 . S
H3519 C3544 0.951 . S
H3520 C3546 0.950 . S
H3521 C3547 0.950 . S
H3522 C3549 0.950 . S
H3523 C3552 0.950 . S
H3524 C3553 0.950 . S
H3525 C3555 0.950 . S
H3526 C3556 0.950 . S
C3527 H3509 0.951 . S
C3527 C3528 1.366 . S
C3527 C3529 1.388 . S
C3528 C3527 1.366 . S
C3528 C3532 1.385 . S
C3529 H3510 0.951 . S
C3529 C3527 1.388 . S
C3529 C3530 1.366 . S
C3530 C3529 1.366 . S
C3530 C3531 1.414 . S
C3530 C3533 1.499 . S
C3531 H3511 0.950 . S
C3531 C3530 1.414 . S
C3531 C3532 1.374 . S
C3532 H3512 0.950 . S
C3532 C3528 1.385 . S
C3532 C3531 1.374 . S
C3533 C3530 1.499 . S
C3533 C3534 1.373 . S
C3533 C3535 1.389 . S
C3534 H3513 0.950 . S
C3534 C3533 1.373 . S
C3534 C3550 1.377 . S
C3535 C3533 1.389 . S
C3535 C3536 1.524 . S
C3535 C3549 1.377 . S
C3536 C3535 1.524 . S
C3536 C3537 1.397 . S
C3536 C3541 1.363 . S
C3537 H3514 0.950 . S
C3537 C3536 1.397 . S
C3537 C3538 1.334 . S
C3538 H3515 0.950 . S
C3538 C3537 1.334 . S
C3538 C3539 1.287 . S
C3539 C3538 1.287 . S
C3539 C3540 1.524 . S
C3539 H3558 0.913 . S
C3540 H3516 0.950 . S
C3540 C3539 1.524 . S
C3540 C3541 1.415 . S
C3541 H3517 0.950 . S
C3541 C3536 1.363 . S
C3541 C3540 1.415 . S
C3542 H3518 0.951 . S
C3542 C3543 1.366 . S
C3542 C3544 1.388 . S
C3543 C3542 1.366 . S
C3543 C3547 1.385 . S
C3544 H3519 0.951 . S
C3544 C3542 1.388 . S
C3544 C3545 1.366 . S
C3545 C3544 1.366 . S
C3545 C3546 1.414 . S
C3545 C3548 1.499 . S
C3546 H3520 0.950 . S
C3546 C3545 1.414 . S
C3546 C3547 1.374 . S
C3547 H3521 0.950 . S
C3547 C3543 1.385 . S
C3547 C3546 1.374 . S
C3548 C3545 1.499 . S
C3548 C3549 1.373 . S
C3548 C3550 1.389 . S
C3549 H3522 0.950 . S
C3549 C3535 1.377 . S
C3549 C3548 1.373 . S
C3550 C3534 1.377 . S
C3550 C3548 1.389 . S
C3550 C3551 1.524 . S
C3551 C3550 1.524 . S
C3551 C3552 1.397 . S
C3551 C3556 1.363 . S
C3552 H3523 0.950 . S
C3552 C3551 1.397 . S
C3552 C3553 1.334 . S
C3553 H3524 0.950 . S
C3553 C3552 1.334 . S
C3553 C3554 1.287 . S
C3554 C3553 1.287 . S
C3554 C3555 1.524 . S
C3554 H3557 0.999 . S
C3555 H3525 0.950 . S
C3555 C3554 1.524 . S
C3555 C3556 1.415 . S
C3556 H3526 0.950 . S
C3556 C3551 1.363 . S
C3556 C3555 1.415 . S
H3557 C3554 0.999 . S
H3558 C3539 0.913 . S
H3559 C3577 0.951 . S
H3560 C3579 0.951 . S
H3561 C3581 0.950 . S
H3562 C3582 0.950 . S
H3563 C3584 0.950 . S
H3564 C3587 0.950 . S
H3565 C3588 0.950 . S
H3566 C3590 0.950 . S
H3567 C3591 0.950 . S
H3568 C3592 0.951 . S
H3569 C3594 0.951 . S
H3570 C3596 0.950 . S
H3571 C3597 0.950 . S
H3572 C3599 0.950 . S
H3573 C3602 0.950 . S
H3574 C3603 0.950 . S
H3575 C3605 0.950 . S
H3576 C3606 0.950 . S
C3577 H3559 0.951 . S
C3577 C3578 1.366 . S
C3577 C3579 1.388 . S
C3578 C3577 1.366 . S
C3578 C3582 1.385 . S
C3579 H3560 0.951 . S
C3579 C3577 1.388 . S
C3579 C3580 1.366 . S
C3580 C3579 1.366 . S
C3580 C3581 1.414 . S
C3580 C3583 1.499 . S
C3581 H3561 0.950 . S
C3581 C3580 1.414 . S
C3581 C3582 1.374 . S
C3582 H3562 0.950 . S
C3582 C3578 1.385 . S
C3582 C3581 1.374 . S
C3583 C3580 1.499 . S
C3583 C3584 1.373 . S
C3583 C3585 1.389 . S
C3584 H3563 0.950 . S
C3584 C3583 1.373 . S
C3584 C3600 1.377 . S
C3585 C3583 1.389 . S
C3585 C3586 1.524 . S
C3585 C3599 1.377 . S
C3586 C3585 1.524 . S
C3586 C3587 1.397 . S
C3586 C3591 1.363 . S
C3587 H3564 0.950 . S
C3587 C3586 1.397 . S
C3587 C3588 1.334 . S
C3588 H3565 0.950 . S
C3588 C3587 1.334 . S
C3588 C3589 1.287 . S
C3589 C3588 1.287 . S
C3589 C3590 1.524 . S
C3589 H3608 0.913 . S
C3590 H3566 0.950 . S
C3590 C3589 1.524 . S
C3590 C3591 1.415 . S
C3591 H3567 0.950 . S
C3591 C3586 1.363 . S
C3591 C3590 1.415 . S
C3592 H3568 0.951 . S
C3592 C3593 1.366 . S
C3592 C3594 1.388 . S
C3593 C3592 1.366 . S
C3593 C3597 1.385 . S
C3594 H3569 0.951 . S
C3594 C3592 1.388 . S
C3594 C3595 1.366 . S
C3595 C3594 1.366 . S
C3595 C3596 1.414 . S
C3595 C3598 1.499 . S
C3596 H3570 0.950 . S
C3596 C3595 1.414 . S
C3596 C3597 1.374 . S
C3597 H3571 0.950 . S
C3597 C3593 1.385 . S
C3597 C3596 1.374 . S
C3598 C3595 1.499 . S
C3598 C3599 1.373 . S
C3598 C3600 1.389 . S
C3599 H3572 0.950 . S
C3599 C3585 1.377 . S
C3599 C3598 1.373 . S
C3600 C3584 1.377 . S
C3600 C3598 1.389 . S
C3600 C3601 1.524 . S
C3601 C3600 1.524 . S
C3601 C3602 1.397 . S
C3601 C3606 1.363 . S
C3602 H3573 0.950 . S
C3602 C3601 1.397 . S
C3602 C3603 1.334 . S
C3603 H3574 0.950 . S
C3603 C3602 1.334 . S
C3603 C3604 1.287 . S
C3604 C3603 1.287 . S
C3604 C3605 1.524 . S
C3604 H3607 0.999 . S
C3605 H3575 0.950 . S
C3605 C3604 1.524 . S
C3605 C3606 1.415 . S
C3606 H3576 0.950 . S
C3606 C3601 1.363 . S
C3606 C3605 1.415 . S
H3607 C3604 0.999 . S
H3608 C3589 0.913 . S
C928 C522 1.425 . S
C943 C734 1.342 . S
C978 C562 1.411 . S
C993 C755 1.327 . S
C1028 C495 1.335 . S
C1043 C775 1.142 . S
C1078 C455 1.365 . S
C1093 C754 1.160 1_556 S
C1143 C776 1.356 . S
C1128 C362 1.448 . S
C1178 C402 1.389 . S
C1193 C733 1.156 1_556 S
C1243 C735 1.300 . S
C1228 C442 1.339 . S
C1293 C756 1.247 . S
C1278 C375 1.304 . S
C1328 C415 1.403 . S
C1343 C778 1.179 1_556 S
C1378 C535 1.342 . S
C1393 C757 1.140 . S
C1428 C575 1.255 . S
C1443 C777 1.198 . S
C1493 C736 1.166 . S
C1478 C482 1.346 . S
C1543 C797 1.341 . S
C1528 C42 1.425 . S
C1578 C82 1.412 . S
C1593 C818 1.327 . S
C1628 C15 1.334 . S
C1643 C838 1.141 . S
C1678 C695 1.365 . S
C1693 C817 1.159 . S
C1728 C602 1.448 . S
C1743 C839 1.355 . S
C1778 C642 1.389 . S
C1793 C796 1.156 . S
C1828 C682 1.339 . S
C1843 C798 1.301 . S
C1878 C615 1.304 . S
C1893 C819 1.245 . S
C1943 C841 1.180 . S
C1928 C655 1.403 . S
C1978 C55 1.341 . S
C1993 C820 1.138 . S
C2043 C840 1.199 . S
C2028 C95 1.255 . S
C2078 C2 1.346 . S
C2093 C799 1.166 . S
C2143 C860 1.341 . S
C2128 C282 1.425 . S
C2178 C322 1.411 . S
C2193 C881 1.326 . S
C2243 C901 1.141 . S
C2228 C255 1.335 . S
C2293 C880 1.160 . S
C2278 C215 1.365 . S
C2343 C902 1.356 . S
C2328 C122 1.448 . S
C2378 C162 1.389 . S
C2393 C859 1.157 . S
C2428 C202 1.340 . S
C2443 C861 1.301 . S
C2478 C135 1.304 . S
C2493 C882 1.247 . S
C2543 C904 1.182 . S
C2528 C175 1.404 . S
C2578 C295 1.341 . S
C2593 C883 1.139 . S
C2628 C335 1.255 . S
C2643 C903 1.197 . S
C2678 C242 1.346 . S
C2693 C862 1.166 . S
C2728 C621 1.385 . S
C2743 C738 1.340 . S
C2793 C759 1.398 . S
C2778 C661 1.441 . S
C2828 C701 1.489 . S
C2843 C779 1.497 . S
C2878 C261 1.541 . S
C2893 C758 1.545 1_655 S
C2928 C301 1.451 . S
C2943 C780 1.406 . S
C2993 C737 1.467 . S
C2978 C341 1.504 . S
C3028 C141 1.385 . S
C3043 C801 1.341 . S
C3078 C181 1.441 . S
C3093 C822 1.397 . S
C3128 C221 1.490 . S
C3143 C842 1.498 . S
C3178 C501 1.541 . S
C3193 C821 1.545 . S
C3243 C843 1.406 . S
C3228 C541 1.451 . S
C3278 C581 1.504 . S
C3293 C800 1.467 . S
C3328 C381 1.385 . S
C3343 C864 1.341 . S
C3378 C421 1.441 . S
C3393 C885 1.398 . S
C3443 C905 1.498 . S
C3428 C461 1.489 . S
C3478 C21 1.542 . S
C3493 C884 1.545 . S
C3528 C61 1.451 . S
C3543 C906 1.405 . S
C3578 C101 1.504 . S
C3593 C863 1.468 . S
