# Generated by pormake.
# Topology ocu, (6,8)-cn, num edge types: 1
# Building blocks:
#     Node 0, Type 0, BuildingBlock: FUNLAD_clean_sbu_0, # of connection points: 6
#     Node 1, Type 0, BuildingBlock: FUNLAD_clean_sbu_0, # of connection points: 6
#     Node 2, Type 0, BuildingBlock: FUNLAD_clean_sbu_0, # of connection points: 6
#     Node 3, Type 0, BuildingBlock: FUNLAD_clean_sbu_0, # of connection points: 6
#     Node 4, Type 0, BuildingBlock: FUNLAD_clean_sbu_0, # of connection points: 6
#     Node 5, Type 0, BuildingBlock: FUNLAD_clean_sbu_0, # of connection points: 6
#     Node 6, Type 0, BuildingBlock: FUNLAD_clean_sbu_0, # of connection points: 6
#     Node 7, Type 0, BuildingBlock: FUNLAD_clean_sbu_0, # of connection points: 6
#     Node 8, Type 1, BuildingBlock: GIZVER_clean_sbu_0, # of connection points: 8
#     Node 9, Type 1, BuildingBlock: GIZVER_clean_sbu_0, # of connection points: 8
#     Node 10, Type 1, BuildingBlock: GIZVER_clean_sbu_0, # of connection points: 8
#     Node 11, Type 1, BuildingBlock: GIZVER_clean_sbu_0, # of connection points: 8
#     Node 12, Type 1, BuildingBlock: GIZVER_clean_sbu_0, # of connection points: 8
#     Node 13, Type 1, BuildingBlock: GIZVER_clean_sbu_0, # of connection points: 8
#     Edge 14, Type (0, 1), BuildingBlock: TEMPAE_clean_linker_10, # of connection points: 2
#     Edge 15, Type (0, 1), BuildingBlock: TEMPAE_clean_linker_10, # of connection points: 2
#     Edge 16, Type (0, 1), BuildingBlock: TEMPAE_clean_linker_10, # of connection points: 2
#     Edge 17, Type (0, 1), BuildingBlock: TEMPAE_clean_linker_10, # of connection points: 2
#     Edge 18, Type (0, 1), BuildingBlock: TEMPAE_clean_linker_10, # of connection points: 2
#     Edge 19, Type (0, 1), BuildingBlock: TEMPAE_clean_linker_10, # of connection points: 2
#     Edge 20, Type (0, 1), BuildingBlock: TEMPAE_clean_linker_10, # of connection points: 2
#     Edge 21, Type (0, 1), BuildingBlock: TEMPAE_clean_linker_10, # of connection points: 2
#     Edge 22, Type (0, 1), BuildingBlock: TEMPAE_clean_linker_10, # of connection points: 2
#     Edge 23, Type (0, 1), BuildingBlock: TEMPAE_clean_linker_10, # of connection points: 2
#     Edge 24, Type (0, 1), BuildingBlock: TEMPAE_clean_linker_10, # of connection points: 2
#     Edge 25, Type (0, 1), BuildingBlock: TEMPAE_clean_linker_10, # of connection points: 2
#     Edge 26, Type (0, 1), BuildingBlock: TEMPAE_clean_linker_10, # of connection points: 2
#     Edge 27, Type (0, 1), BuildingBlock: TEMPAE_clean_linker_10, # of connection points: 2
#     Edge 28, Type (0, 1), BuildingBlock: TEMPAE_clean_linker_10, # of connection points: 2
#     Edge 29, Type (0, 1), BuildingBlock: TEMPAE_clean_linker_10, # of connection points: 2
#     Edge 30, Type (0, 1), BuildingBlock: TEMPAE_clean_linker_10, # of connection points: 2
#     Edge 31, Type (0, 1), BuildingBlock: TEMPAE_clean_linker_10, # of connection points: 2
#     Edge 32, Type (0, 1), BuildingBlock: TEMPAE_clean_linker_10, # of connection points: 2
#     Edge 33, Type (0, 1), BuildingBlock: TEMPAE_clean_linker_10, # of connection points: 2
#     Edge 34, Type (0, 1), BuildingBlock: TEMPAE_clean_linker_10, # of connection points: 2
#     Edge 35, Type (0, 1), BuildingBlock: TEMPAE_clean_linker_10, # of connection points: 2
#     Edge 36, Type (0, 1), BuildingBlock: TEMPAE_clean_linker_10, # of connection points: 2
#     Edge 37, Type (0, 1), BuildingBlock: TEMPAE_clean_linker_10, # of connection points: 2
#     Edge 38, Type (0, 1), BuildingBlock: TEMPAE_clean_linker_10, # of connection points: 2
#     Edge 39, Type (0, 1), BuildingBlock: TEMPAE_clean_linker_10, # of connection points: 2
#     Edge 40, Type (0, 1), BuildingBlock: TEMPAE_clean_linker_10, # of connection points: 2
#     Edge 41, Type (0, 1), BuildingBlock: TEMPAE_clean_linker_10, # of connection points: 2
#     Edge 42, Type (0, 1), BuildingBlock: TEMPAE_clean_linker_10, # of connection points: 2
#     Edge 43, Type (0, 1), BuildingBlock: TEMPAE_clean_linker_10, # of connection points: 2
#     Edge 44, Type (0, 1), BuildingBlock: TEMPAE_clean_linker_10, # of connection points: 2
#     Edge 45, Type (0, 1), BuildingBlock: TEMPAE_clean_linker_10, # of connection points: 2
#     Edge 46, Type (0, 1), BuildingBlock: TEMPAE_clean_linker_10, # of connection points: 2
#     Edge 47, Type (0, 1), BuildingBlock: TEMPAE_clean_linker_10, # of connection points: 2
#     Edge 48, Type (0, 1), BuildingBlock: TEMPAE_clean_linker_10, # of connection points: 2
#     Edge 49, Type (0, 1), BuildingBlock: TEMPAE_clean_linker_10, # of connection points: 2
#     Edge 50, Type (0, 1), BuildingBlock: TEMPAE_clean_linker_10, # of connection points: 2
#     Edge 51, Type (0, 1), BuildingBlock: TEMPAE_clean_linker_10, # of connection points: 2
#     Edge 52, Type (0, 1), BuildingBlock: TEMPAE_clean_linker_10, # of connection points: 2
#     Edge 53, Type (0, 1), BuildingBlock: TEMPAE_clean_linker_10, # of connection points: 2
#     Edge 54, Type (0, 1), BuildingBlock: TEMPAE_clean_linker_10, # of connection points: 2
#     Edge 55, Type (0, 1), BuildingBlock: TEMPAE_clean_linker_10, # of connection points: 2
#     Edge 56, Type (0, 1), BuildingBlock: TEMPAE_clean_linker_10, # of connection points: 2
#     Edge 57, Type (0, 1), BuildingBlock: TEMPAE_clean_linker_10, # of connection points: 2
#     Edge 58, Type (0, 1), BuildingBlock: TEMPAE_clean_linker_10, # of connection points: 2
#     Edge 59, Type (0, 1), BuildingBlock: TEMPAE_clean_linker_10, # of connection points: 2
#     Edge 60, Type (0, 1), BuildingBlock: TEMPAE_clean_linker_10, # of connection points: 2
#     Edge 61, Type (0, 1), BuildingBlock: TEMPAE_clean_linker_10, # of connection points: 2
# Relax obj value: 0.239
# Max RMSD: 0.291
# Mean RMSD: 0.224
data_MOF--net-ocu--node1-FUNLAD_clean_sbu_0--node2-GIZVER_clean_sbu_0--edge1-TEMPAE_clean_linker_10
_symmetry_space_group_name_H-M    P1
_symmetry_Int_Tables_number       1
_symmetry_cell_setting            triclinic
loop_
_symmetry_equiv_pos_as_xyz
'x, y, z'
_cell_length_a     42.680253
_cell_length_b     44.336167
_cell_length_c     32.262501
_cell_angle_alpha  83.536181
_cell_angle_beta   85.405779
_cell_angle_gamma 93.818608
loop_
_atom_site_label
_atom_site_type_symbol
_atom_site_fract_x
_atom_site_fract_y
_atom_site_fract_z
_atom_type_partial_charge
C0 C 0.22067 0.29553 0.3019 0.0
N1 N 0.19965 0.20804 0.27089 0.0
C2 C 0.18382 0.20123 0.30936 0.0
C3 C 0.15983 0.17791 0.3162 0.0
C4 C 0.15277 0.16072 0.28349 0.0
C5 C 0.16967 0.16831 0.24418 0.0
C6 C 0.19266 0.19248 0.23837 0.0
Zn7 Zn 0.2343 0.24194 0.26008 0.0
C8 C 0.22143 0.2853 0.185 0.0
N9 N 0.30699 0.31185 0.22887 0.0
C10 C 0.31428 0.32766 0.26103 0.0
C11 C 0.32323 0.31773 0.19054 0.0
C12 C 0.34827 0.34 0.18365 0.0
C13 C 0.35613 0.35702 0.21618 0.0
C14 C 0.3385 0.35073 0.25518 0.0
Zn15 Zn 0.27214 0.27806 0.24004 0.0
O16 O 0.2095 0.26846 0.30046 0.0
C17 C 0.2854 0.23507 0.315 0.0
O18 O 0.24628 0.30507 0.28014 0.0
H19 H 0.31707 0.30484 0.16546 0.0
H20 H 0.18967 0.214 0.33469 0.0
H21 H 0.30145 0.32228 0.29152 0.0
O22 O 0.25835 0.2226 0.31062 0.0
O23 O 0.29596 0.25858 0.29042 0.0
H24 H 0.20503 0.19867 0.20773 0.0
O25 O 0.29713 0.25077 0.19962 0.0
O26 O 0.25947 0.21517 0.22037 0.0
O27 O 0.24863 0.29723 0.18957 0.0
O28 O 0.21032 0.26192 0.20957 0.0
C29 C 0.28519 0.22386 0.19861 0.0
H30 H 0.14688 0.17366 0.34678 0.0
H31 H 0.16554 0.15563 0.21811 0.0
H32 H 0.36159 0.34338 0.15329 0.0
H33 H 0.34325 0.36343 0.28103 0.0
C34 C 0.71828 0.2978 0.21651 0.0
N35 N 0.75037 0.21574 0.18156 0.0
C36 C 0.73931 0.22695 0.1449 0.0
C37 C 0.72028 0.20811 0.12344 0.0
C38 C 0.71278 0.17747 0.13978 0.0
C39 C 0.72757 0.16587 0.17487 0.0
C40 C 0.74618 0.18545 0.19545 0.0
Zn41 Zn 0.75999 0.24411 0.22644 0.0
C42 C 0.80844 0.29505 0.20468 0.0
N43 N 0.76824 0.30052 0.32427 0.0
C44 C 0.7501 0.32211 0.33834 0.0
C45 C 0.79923 0.30041 0.33179 0.0
C46 C 0.81342 0.32282 0.35219 0.0
C47 C 0.79603 0.34626 0.36476 0.0
C48 C 0.76365 0.34536 0.35915 0.0
Zn49 Zn 0.75704 0.27254 0.27939 0.0
O50 O 0.72771 0.27437 0.20146 0.0
C51 C 0.70771 0.22324 0.30089 0.0
O52 O 0.72702 0.30389 0.25165 0.0
H53 H 0.81418 0.28452 0.31886 0.0
H54 H 0.74267 0.25105 0.13429 0.0
H55 H 0.7258 0.32251 0.33113 0.0
O56 O 0.72161 0.21753 0.26649 0.0
O57 O 0.71694 0.24722 0.31643 0.0
H58 H 0.75453 0.17684 0.22492 0.0
O59 O 0.78635 0.2395 0.30661 0.0
O60 O 0.79262 0.21429 0.25247 0.0
O61 O 0.79607 0.29804 0.24105 0.0
O62 O 0.79858 0.27209 0.18728 0.0
C63 C 0.79829 0.21789 0.28975 0.0
H64 H 0.70948 0.2181 0.09644 0.0
H65 H 0.72307 0.14226 0.18804 0.0
H66 H 0.83843 0.32278 0.35598 0.0
H67 H 0.74957 0.36332 0.36838 0.0
C68 C 0.77767 0.72453 0.31965 0.0
N69 N 0.81592 0.80588 0.25403 0.0
C70 C 0.84248 0.79183 0.26259 0.0
C71 C 0.8659 0.80645 0.2824 0.0
C72 C 0.86211 0.83591 0.29263 0.0
C73 C 0.8365 0.8513 0.27884 0.0
C74 C 0.81332 0.83563 0.25952 0.0
Zn75 Zn 0.77654 0.77777 0.25076 0.0
C76 C 0.78862 0.72694 0.20004 0.0
N77 N 0.69602 0.7155 0.25457 0.0
C78 C 0.69913 0.68569 0.24989 0.0
C79 C 0.66918 0.72896 0.24572 0.0
C80 C 0.64593 0.71355 0.22646 0.0
C81 C 0.65017 0.6839 0.21734 0.0
C82 C 0.67616 0.66926 0.23124 0.0
Zn83 Zn 0.73537 0.74371 0.25742 0.0
O84 O 0.7906 0.75011 0.30315 0.0
C85 C 0.72298 0.79483 0.30797 0.0
O86 O 0.75198 0.71447 0.30687 0.0
H87 H 0.66726 0.75273 0.24943 0.0
H88 H 0.84401 0.7681 0.25842 0.0
H89 H 0.7208 0.67556 0.25667 0.0
O90 O 0.75043 0.80355 0.29095 0.0
O91 O 0.7105 0.76907 0.30141 0.0
H92 H 0.79192 0.84628 0.25283 0.0
O93 O 0.72028 0.77275 0.20731 0.0
O94 O 0.76163 0.80568 0.19859 0.0
O95 O 0.76016 0.7193 0.21363 0.0
O96 O 0.80222 0.75101 0.21043 0.0
C97 C 0.73469 0.79689 0.18807 0.0
H98 H 0.88545 0.79403 0.29267 0.0
H99 H 0.83292 0.87406 0.28654 0.0
H100 H 0.62615 0.72544 0.21578 0.0
H101 H 0.68013 0.64643 0.22419 0.0
C102 C 0.2195 0.79702 0.28371 0.0
N103 N 0.30031 0.7667 0.33409 0.0
C104 C 0.28531 0.77686 0.36815 0.0
C105 C 0.30142 0.79685 0.39119 0.0
C106 C 0.3334 0.80564 0.37977 0.0
C107 C 0.34911 0.79224 0.34755 0.0
C108 C 0.33198 0.77282 0.3248 0.0
Zn109 Zn 0.27416 0.75512 0.2861 0.0
C110 C 0.21992 0.70935 0.30883 0.0
N111 N 0.21847 0.74282 0.18433 0.0
C112 C 0.1984 0.76029 0.16322 0.0
C113 C 0.21863 0.71247 0.18064 0.0
C114 C 0.19901 0.69871 0.15497 0.0
C115 C 0.17764 0.71572 0.13384 0.0
C116 C 0.17729 0.74696 0.13789 0.0
Zn117 Zn 0.2452 0.75582 0.23112 0.0
O118 O 0.24222 0.78669 0.30253 0.0
C119 C 0.29755 0.80262 0.20826 0.0
O120 O 0.21343 0.78776 0.24909 0.0
H121 H 0.23256 0.69798 0.19959 0.0
H122 H 0.26015 0.77197 0.37503 0.0
H123 H 0.19771 0.7841 0.16746 0.0
O124 O 0.30199 0.79174 0.24548 0.0
O125 O 0.27422 0.79142 0.19102 0.0
H126 H 0.34343 0.76523 0.29712 0.0
O127 O 0.27819 0.72494 0.21426 0.0
O128 O 0.30639 0.72306 0.26802 0.0
O129 O 0.21646 0.721 0.2718 0.0
O130 O 0.24428 0.71851 0.32596 0.0
C131 C 0.30083 0.7144 0.23291 0.0
H132 H 0.28858 0.80695 0.41579 0.0
H133 H 0.3737 0.79884 0.33767 0.0
H134 H 0.19922 0.67439 0.15371 0.0
H135 H 0.16055 0.76063 0.12244 0.0
C136 C 0.22274 0.79961 0.71949 0.0
N137 N 0.24859 0.71686 0.67984 0.0
C138 C 0.21802 0.71901 0.67106 0.0
C139 C 0.20363 0.699 0.64709 0.0
C140 C 0.22014 0.67546 0.63293 0.0
C141 C 0.25176 0.67354 0.64165 0.0
C142 C 0.26576 0.69486 0.66505 0.0
Zn143 Zn 0.2618 0.74275 0.72602 0.0
C144 C 0.31211 0.79102 0.7049 0.0
N145 N 0.27341 0.79596 0.82669 0.0
C146 C 0.25713 0.81833 0.84223 0.0
C147 C 0.30415 0.79329 0.8342 0.0
C148 C 0.31988 0.81357 0.85643 0.0
C149 C 0.30463 0.83797 0.87025 0.0
C150 C 0.27245 0.83977 0.86446 0.0
Zn151 Zn 0.25976 0.7702 0.78015 0.0
O152 O 0.23253 0.77687 0.70314 0.0
C153 C 0.20988 0.72113 0.80089 0.0
O154 O 0.23034 0.80395 0.7558 0.0
H155 H 0.3179 0.77705 0.82006 0.0
H156 H 0.20354 0.7348 0.68504 0.0
H157 H 0.23304 0.82082 0.83512 0.0
O158 O 0.22311 0.71727 0.76526 0.0
O159 O 0.21941 0.74442 0.81788 0.0
H160 H 0.28966 0.69275 0.67325 0.0
O161 O 0.28772 0.73545 0.8037 0.0
O162 O 0.29224 0.70966 0.74988 0.0
O163 O 0.29993 0.79493 0.74115 0.0
O164 O 0.30086 0.76866 0.68751 0.0
C165 C 0.29845 0.71328 0.78699 0.0
H166 H 0.17895 0.70069 0.64217 0.0
H167 H 0.2651 0.65534 0.63154 0.0
H168 H 0.34463 0.81127 0.8604 0.0
H169 H 0.25993 0.85847 0.87464 0.0
C170 C 0.27137 0.2111 0.82045 0.0
N171 N 0.30988 0.29823 0.77737 0.0
C172 C 0.30583 0.30148 0.81886 0.0
C173 C 0.32847 0.31736 0.83794 0.0
C174 C 0.35661 0.32931 0.81492 0.0
C175 C 0.3603 0.32635 0.7718 0.0
C176 C 0.33638 0.31056 0.75347 0.0
Zn177 Zn 0.27504 0.26994 0.75881 0.0
C178 C 0.29628 0.22622 0.70333 0.0
N179 N 0.19936 0.20819 0.73734 0.0
C180 C 0.17567 0.19243 0.76345 0.0
C181 C 0.19988 0.20839 0.69506 0.0
C182 C 0.17579 0.19335 0.67733 0.0
C183 C 0.15066 0.17764 0.70308 0.0
C184 C 0.15092 0.17658 0.74678 0.0
Zn185 Zn 0.23495 0.23603 0.75498 0.0
O186 O 0.28469 0.23757 0.8096 0.0
C187 C 0.21387 0.28096 0.80913 0.0
O188 O 0.24757 0.20237 0.80222 0.0
H189 H 0.21867 0.221 0.67455 0.0
H190 H 0.28537 0.29081 0.83811 0.0
H191 H 0.17561 0.19269 0.79694 0.0
O192 O 0.24192 0.29056 0.79619 0.0
O193 O 0.20293 0.25549 0.7993 0.0
H194 H 0.33943 0.30734 0.7207 0.0
O195 O 0.22342 0.26973 0.70781 0.0
O196 O 0.26451 0.30226 0.7081 0.0
O197 O 0.26724 0.21761 0.71153 0.0
O198 O 0.30781 0.24885 0.71963 0.0
C199 C 0.23856 0.2948 0.69356 0.0
H200 H 0.32406 0.31971 0.87091 0.0
H201 H 0.38171 0.33525 0.75286 0.0
H202 H 0.17671 0.1942 0.64355 0.0
H203 H 0.13187 0.16444 0.76754 0.0
C204 C 0.72065 0.29767 0.77587 0.0
N205 N 0.80053 0.26361 0.82648 0.0
C206 C 0.78737 0.27623 0.85965 0.0
C207 C 0.80586 0.29562 0.88079 0.0
C208 C 0.83813 0.30154 0.86787 0.0
C209 C 0.85158 0.28508 0.83716 0.0
C210 C 0.83224 0.26638 0.8165 0.0
Zn211 Zn 0.77349 0.25208 0.78043 0.0
C212 C 0.71867 0.21006 0.8068 0.0
N213 N 0.71755 0.23848 0.67978 0.0
C214 C 0.70466 0.25258 0.64605 0.0
C215 C 0.71419 0.20751 0.68801 0.0
C216 C 0.69761 0.18974 0.66359 0.0
C217 C 0.68492 0.20297 0.62797 0.0
C218 C 0.68812 0.23507 0.61941 0.0
Zn219 Zn 0.74412 0.25499 0.72588 0.0
O220 O 0.74286 0.28605 0.7947 0.0
C221 C 0.79945 0.2977 0.70077 0.0
O222 O 0.71371 0.28862 0.74135 0.0
H223 H 0.72463 0.19568 0.71379 0.0
H224 H 0.76213 0.27363 0.86722 0.0
H225 H 0.70738 0.27713 0.63947 0.0
O226 O 0.80299 0.28586 0.73782 0.0
O227 O 0.77477 0.28909 0.68378 0.0
H228 H 0.8423 0.25656 0.78977 0.0
O229 O 0.77569 0.22225 0.71111 0.0
O230 O 0.80344 0.21821 0.76515 0.0
O231 O 0.71433 0.22253 0.77051 0.0
O232 O 0.74391 0.21801 0.8226 0.0
C233 C 0.79734 0.21009 0.73008 0.0
H234 H 0.79453 0.30767 0.90451 0.0
H235 H 0.87653 0.28826 0.8271 0.0
H236 H 0.69494 0.16541 0.67298 0.0
H237 H 0.67844 0.2464 0.59235 0.0
C238 C 0.71621 0.78622 0.80264 0.0
N239 N 0.70319 0.70247 0.75345 0.0
C240 C 0.69086 0.68815 0.79119 0.0
C241 C 0.67098 0.66174 0.79323 0.0
C242 C 0.66383 0.65 0.75607 0.0
C243 C 0.67654 0.66546 0.71756 0.0
C244 C 0.69637 0.69179 0.71697 0.0
Zn245 Zn 0.73471 0.73881 0.75048 0.0
C246 C 0.72187 0.78653 0.68309 0.0
N247 N 0.80355 0.81275 0.7382 0.0
C248 C 0.8096 0.82517 0.77372 0.0
C249 C 0.81776 0.82466 0.70022 0.0
C250 C 0.83908 0.85011 0.69691 0.0
C251 C 0.8454 0.86386 0.73293 0.0
C252 C 0.83039 0.85101 0.77176 0.0
Zn253 Zn 0.77168 0.7766 0.74191 0.0
O254 O 0.70548 0.76037 0.79408 0.0
C255 C 0.7841 0.72844 0.80935 0.0
O256 O 0.74296 0.79737 0.78575 0.0
H257 H 0.81255 0.81436 0.67248 0.0
H258 H 0.69668 0.6971 0.81969 0.0
H259 H 0.79813 0.81517 0.80366 0.0
O260 O 0.75811 0.71666 0.7997 0.0
O261 O 0.795 0.75418 0.79062 0.0
H262 H 0.70666 0.70349 0.68731 0.0
O263 O 0.80078 0.75527 0.6987 0.0
O264 O 0.76406 0.71773 0.70703 0.0
O265 O 0.74783 0.79887 0.69216 0.0
O266 O 0.71146 0.76085 0.70224 0.0
C267 C 0.79093 0.72906 0.69067 0.0
H268 H 0.66095 0.65086 0.82357 0.0
H269 H 0.67146 0.65713 0.68832 0.0
H270 H 0.85079 0.85862 0.66642 0.0
H271 H 0.83446 0.86086 0.80026 0.0
Co272 Co 0.04899 0.94305 0.48475 0.0
Co273 Co 0.06678 0.9793 0.5371 0.0
Co274 Co 1.00409 1.00176 0.50501 0.0
O275 O 0.04485 0.985 0.48975 0.0
H276 H 0.05744 0.99823 0.4679 0.0
O277 O 0.96321 0.01889 0.52026 0.0
Co278 Co 0.96038 0.06128 0.52475 0.0
Co279 Co 0.94072 0.02517 0.47317 0.0
H280 H 0.95066 1.006 0.54251 0.0
O281 O 0.10919 0.97253 0.53705 0.0
O282 O 0.06817 0.93734 0.53972 0.0
O283 O 0.04539 0.98809 0.58906 0.0
O284 O 0.99945 0.97938 0.56296 0.0
O285 O 0.02816 0.03557 0.52621 0.0
O286 O 0.9539 0.09931 0.53327 0.0
O287 O 0.92258 0.05626 0.55325 0.0
O288 O 1.00104 0.07132 0.49744 0.0
O289 O 0.00847 0.02389 0.44685 0.0
O290 O 0.96194 0.01577 0.42176 0.0
O291 O 0.94175 0.06746 0.46989 0.0
O292 O 0.8987 0.03511 0.47203 0.0
C293 C 0.08161 0.92007 0.45477 0.0
C294 C 0.98376 0.93971 0.49405 0.0
C295 C 0.01578 0.9824 0.59391 0.0
C296 C 0.09746 0.94452 0.54585 0.0
C297 C 0.92888 0.08528 0.55453 0.0
C298 C 0.02448 0.06352 0.51688 0.0
C299 C 0.9916 0.02112 0.41628 0.0
C300 C 0.91222 0.06248 0.46363 0.0
O301 O 0.05676 0.90547 0.47566 0.0
O302 O 0.08698 0.9492 0.45617 0.0
O303 O 0.98023 0.96774 0.48437 0.0
O304 O 0.00794 0.93143 0.51175 0.0
Co305 Co 0.5474 0.94657 0.98451 0.0
Co306 Co 0.54286 0.95871 0.05966 0.0
Co307 Co 0.50598 1.00753 0.00573 0.0
O308 O 0.54404 0.98364 0.01026 0.0
H309 H 0.56347 0.99654 0.00614 0.0
O310 O 0.4678 0.03126 1.00005 0.0
Co311 Co 0.46112 0.06576 0.0298 0.0
Co312 Co 0.47061 0.05979 0.95396 0.0
H313 H 0.44878 0.01801 1.00088 0.0
O314 O 0.57904 0.9533 0.08406 0.0
O315 O 0.55608 0.92381 0.03976 0.0
O316 O 0.50301 0.948 0.08983 0.0
O317 O 0.47586 0.9787 0.04932 0.0
O318 O 0.52121 0.03268 0.04899 0.0
O319 O 0.45253 0.09593 0.05882 0.0
O320 O 0.41848 0.0592 0.0418 0.0
O321 O 0.50509 0.07702 0.02306 0.0
O322 O 0.53621 0.03607 0.96258 0.0
O323 O 0.51189 0.07354 0.92942 0.0
O324 O 0.45333 0.09185 0.97657 0.0
O325 O 0.4353 0.06431 0.92679 0.0
C326 C 0.5823 0.92464 0.95523 0.0
C327 C 0.48425 0.95388 0.97306 0.0
C328 C 0.47693 0.95681 0.07907 0.0
C329 C 0.5784 0.92933 0.06429 0.0
C330 C 0.42402 0.08346 0.06056 0.0
C331 C 0.52498 0.06174 0.04221 0.0
C332 C 0.53679 0.0608 0.93728 0.0
C333 C 0.43269 0.08648 0.94969 0.0
O334 O 0.55326 0.91329 0.96007 0.0
O335 O 0.58972 0.95058 0.96916 0.0
O336 O 0.49117 0.98236 0.96273 0.0
O337 O 0.50274 0.93788 0.9941 0.0
Co338 Co 0.04958 0.45076 0.98338 0.0
Co339 Co 0.04629 0.46575 0.0573 0.0
Co340 Co 1.00585 0.51059 1.00089 0.0
O341 O 0.04598 0.48913 0.0063 0.0
H342 H 0.06479 0.5028 1.0002 0.0
O343 O 0.96545 0.53117 0.99516 0.0
Co344 Co 0.95974 0.56872 0.01766 0.0
Co345 Co 0.96551 0.55448 0.94412 0.0
H346 H 0.94696 0.51701 1.00033 0.0
O347 O 0.08366 0.45987 0.0794 0.0
O348 O 0.05813 0.42971 0.0388 0.0
O349 O 0.00706 0.45506 0.09004 0.0
O350 O 0.978 0.4809 0.04623 0.0
O351 O 0.0199 0.53921 0.04151 0.0
O352 O 0.95271 0.60242 0.03977 0.0
O353 O 0.91748 0.56317 0.03492 0.0
O354 O 1.00258 0.57918 0.00514 0.0
O355 O 0.03389 0.54006 0.95575 0.0
O356 O 1.0052 0.56767 0.91355 0.0
O357 O 0.94981 0.58911 0.96182 0.0
O358 O 0.92909 0.55717 0.91908 0.0
C359 C 0.0836 0.42796 0.95333 0.0
C360 C 0.98887 0.45435 0.96968 0.0
C361 C 0.98036 0.46091 0.07801 0.0
C362 C 0.08121 0.43486 0.06202 0.0
C363 C 0.92415 0.58998 0.04689 0.0
C364 C 0.02155 0.56804 0.03011 0.0
C365 C 0.0318 0.56097 0.92506 0.0
C366 C 0.92866 0.58226 0.93639 0.0
O367 O 0.05455 0.41699 0.96056 0.0
O368 O 0.09213 0.4539 0.96668 0.0
O369 O 0.99167 0.48315 0.95959 0.0
O370 O 1.00638 0.44201 0.99562 0.0
Co371 Co 0.5584 0.45268 0.97582 0.0
Co372 Co 0.57772 0.48731 0.0297 0.0
Co373 Co 0.51442 0.51129 1.00069 0.0
O374 O 0.55518 0.49486 0.98272 0.0
H375 H 0.56752 0.50845 0.96103 0.0
O376 O 0.47372 0.52732 0.0188 0.0
Co377 Co 0.46978 0.56911 0.026 0.0
Co378 Co 0.45152 0.53429 0.97202 0.0
H379 H 0.46142 0.51352 0.04029 0.0
O380 O 0.61975 0.47762 0.02961 0.0
O381 O 0.5767 0.44531 0.03057 0.0
O382 O 0.55672 0.49454 0.08268 0.0
O383 O 0.51052 0.48656 0.05697 0.0
O384 O 0.53843 0.54412 0.02391 0.0
O385 O 0.4625 0.60644 0.03699 0.0
O386 O 0.43192 0.56286 0.05555 0.0
O387 O 0.51055 0.58082 0.99843 0.0
O388 O 0.51833 0.53628 0.94456 0.0
O389 O 0.47243 0.52699 0.91878 0.0
O390 O 0.44986 0.5761 0.97167 0.0
O391 O 0.40915 0.54057 0.97337 0.0
C392 C 0.59048 0.42908 0.94513 0.0
C393 C 0.49369 0.4505 0.98452 0.0
C394 C 0.52714 0.48861 0.08786 0.0
C395 C 0.60614 0.45025 0.03726 0.0
C396 C 0.43769 0.59186 0.05796 0.0
C397 C 0.53453 0.57229 0.01637 0.0
C398 C 0.50181 0.5341 0.91363 0.0
C399 C 0.42065 0.56871 0.96528 0.0
O400 O 0.56518 0.41521 0.96568 0.0
O401 O 0.59684 0.45806 0.94717 0.0
O402 O 0.49009 0.47868 0.97722 0.0
O403 O 0.51744 0.44162 0.00252 0.0
Co404 Co 0.06927 0.46413 0.5145 0.0
Co405 Co 0.04821 0.47268 0.44325 0.0
Co406 Co 1.00649 0.50777 0.50695 0.0
O407 O 0.02783 0.46964 0.49644 0.0
H408 H 0.01372 0.45141 0.50211 0.0
O409 O 0.98518 0.54591 0.51752 0.0
Co410 Co 0.94535 0.55348 0.49515 0.0
Co411 Co 0.96138 0.54277 0.56857 0.0
H412 H 0.9998 0.56381 0.51396 0.0
O413 O 0.0503 0.43874 0.41653 0.0
O414 O 0.08628 0.458 0.45638 0.0
O415 O 0.05905 0.51248 0.41415 0.0
O416 O 0.03431 0.53729 0.46168 0.0
O417 O 0.97452 0.49695 0.46746 0.0
O418 O 0.90995 0.56224 0.47372 0.0
O419 O 0.95163 0.59473 0.48035 0.0
O420 O 0.93355 0.51174 0.50479 0.0
O421 O 0.97862 0.47816 0.55212 0.0
O422 O 0.94826 0.50253 0.5947 0.0
O423 O 0.92571 0.56058 0.55177 0.0
O424 O 0.95942 0.57585 0.59761 0.0
C425 C 0.09468 0.42943 0.53903 0.0
C426 C 0.06822 0.52159 0.53249 0.0
C427 C 0.05355 0.53715 0.42873 0.0
C428 C 0.07769 0.4382 0.43142 0.0
C429 C 0.92332 0.58963 0.46834 0.0
C430 C 0.94485 0.49534 0.47822 0.0
C431 C 0.95682 0.47794 0.58239 0.0
C432 C 0.93406 0.57926 0.5784 0.0
O433 O 0.10638 0.45744 0.53223 0.0
O434 O 0.06591 0.42269 0.52959 0.0
O435 O 0.03894 0.51857 0.54608 0.0
O436 O 0.07832 0.50603 0.50412 0.0
Co437 Co 0.56696 0.96876 0.50633 0.0
Co438 Co 0.55308 0.98147 0.43293 0.0
Co439 Co 0.50404 0.01077 0.49654 0.0
O440 O 0.52811 0.97556 0.48227 0.0
H441 H 0.51451 0.95708 0.48362 0.0
O442 O 0.48 0.04601 0.51065 0.0
Co443 Co 0.44148 0.0537 0.48614 0.0
Co444 Co 0.45484 0.04027 0.55981 0.0
H445 H 0.49377 0.06433 0.50968 0.0
O446 O 0.55726 0.9496 0.40283 0.0
O447 O 0.58966 0.96541 0.44981 0.0
O448 O 0.56145 0.02249 0.40741 0.0
O449 O 0.53014 0.04346 0.45326 0.0
O450 O 0.47399 1.00043 0.45484 0.0
O451 O 0.40761 0.06381 0.46166 0.0
O452 O 0.44767 0.09495 0.47777 0.0
O453 O 0.43019 0.01099 0.48996 0.0
O454 O 0.47777 0.97794 0.53967 0.0
O455 O 0.44405 0.99906 0.58248 0.0
O456 O 0.4187 0.05675 0.54259 0.0
O457 O 0.45105 0.07276 0.58955 0.0
C458 C 0.58804 0.93214 0.53255 0.0
C459 C 0.56329 0.0279 0.52564 0.0
C460 C 0.55093 0.04584 0.42133 0.0
C461 C 0.58293 0.94722 0.42176 0.0
C462 C 0.42102 0.09104 0.46104 0.0
C463 C 0.44474 0.99423 0.46641 0.0
C464 C 0.45509 0.97568 0.5693 0.0
C465 C 0.42583 0.07541 0.5698 0.0
O466 O 0.60113 0.95961 0.5307 0.0
O467 O 0.56146 0.92746 0.51591 0.0
O468 O 0.53424 0.02128 0.53811 0.0
O469 O 0.57755 0.0115 0.50132 0.0
C470 C 0.10929 0.12811 0.25828 0.0
C471 C 0.12789 0.13519 0.29047 0.0
C472 C 0.08482 0.10495 0.26552 0.0
C473 C 0.07778 0.08972 0.3064 0.0
C474 C 0.09692 0.09619 0.33874 0.0
C475 C 0.12225 0.11816 0.32996 0.0
C476 C 0.06617 0.09786 0.22952 0.0
C477 C 0.09006 0.08088 0.38324 0.0
C478 C 0.99924 0.06355 0.36047 0.0
C479 C 1.00547 0.03385 0.37492 0.0
C480 C 0.02108 0.08167 0.33208 0.0
C481 C 0.04898 0.06912 0.31756 0.0
C482 C 0.05198 0.03749 0.3259 0.0
C483 C 0.03055 0.02023 0.35593 0.0
C484 C 0.01666 0.11521 0.32315 0.0
C485 C 0.08001 0.02289 0.30766 0.0
H486 H 0.11316 0.14107 0.22755 0.0
H487 H 0.13725 0.12237 0.35455 0.0
H488 H 0.05314 0.07507 0.2353 0.0
H489 H 0.04904 0.11533 0.22407 0.0
H490 H 0.08207 0.09895 0.2003 0.0
H491 H 0.10583 0.09041 0.40511 0.0
H492 H 0.06532 0.08348 0.39488 0.0
H493 H 0.09312 0.05618 0.38432 0.0
H494 H 0.97955 0.07376 0.3754 0.0
H495 H 0.03491 0.997 0.36702 0.0
H496 H 0.02149 0.12286 0.28921 0.0
H497 H 0.03361 0.12837 0.3399 0.0
H498 H 0.99241 0.12065 0.3334 0.0
H499 H 0.08767 0.03379 0.27543 0.0
H500 H 0.07449 0.99812 0.30693 0.0
H501 H 0.09998 0.02571 0.32723 0.0
C502 C 0.82005 0.19947 0.35714 0.0
C503 C 0.81693 0.19643 0.31473 0.0
C504 C 0.83581 0.17853 0.3823 0.0
C505 C 0.8491 0.15393 0.36472 0.0
C506 C 0.84661 0.15102 0.32174 0.0
C507 C 0.83046 0.17221 0.29731 0.0
C508 C 0.83773 0.18244 0.42797 0.0
C509 C 0.86072 0.12529 0.30169 0.0
C510 C 0.91246 0.11354 0.42124 0.0
C511 C 0.89551 0.08693 0.44126 0.0
C512 C 0.89771 0.13548 0.39626 0.0
C513 C 0.86508 0.13099 0.39154 0.0
C514 C 0.84765 0.10459 0.4126 0.0
C515 C 0.86309 0.08283 0.43698 0.0
C516 C 0.91721 0.16319 0.37423 0.0
C517 C 0.81274 0.09912 0.40893 0.0
H518 H 0.80968 0.21803 0.37107 0.0
H519 H 0.82819 0.16962 0.26466 0.0
H520 H 0.82578 0.16225 0.44787 0.0
H521 H 0.86271 0.18405 0.43523 0.0
H522 H 0.82667 0.20308 0.4367 0.0
H523 H 0.85776 0.12678 0.26764 0.0
H524 H 0.88625 0.12538 0.3061 0.0
H525 H 0.84942 0.10316 0.31709 0.0
H526 H 0.93756 0.11688 0.42404 0.0
H527 H 0.84977 0.06239 0.45234 0.0
H528 H 0.90745 0.1842 0.38372 0.0
H529 H 0.91619 0.16397 0.33987 0.0
H530 H 0.9423 0.16337 0.38117 0.0
H531 H 0.80019 0.11853 0.41907 0.0
H532 H 0.80241 0.07786 0.42807 0.0
H533 H 0.80841 0.09763 0.37574 0.0
C534 C 0.8997 0.87557 0.31446 0.0
C535 C 0.88124 0.84806 0.3239 0.0
C536 C 0.91666 0.88759 0.34516 0.0
C537 C 0.91414 0.87209 0.38638 0.0
C538 C 0.89541 0.84426 0.39592 0.0
C539 C 0.87944 0.83241 0.36436 0.0
C540 C 0.93698 0.91701 0.33365 0.0
C541 C 0.89141 0.82754 0.43968 0.0
C542 C 0.97737 0.89409 0.45593 0.0
C543 C 0.9639 0.91776 0.47461 0.0
C544 C 0.96107 0.87826 0.42796 0.0
C545 C 0.93024 0.88569 0.41974 0.0
C546 C 0.91555 0.90775 0.44141 0.0
C547 C 0.93276 0.92385 0.46814 0.0
C548 C 0.97773 0.85525 0.40494 0.0
C549 C 0.8823 0.91557 0.43461 0.0
H550 H 0.90089 0.88756 0.28311 0.0
H551 H 0.86469 0.81128 0.37159 0.0
H552 H 0.92753 0.93497 0.35134 0.0
H553 H 0.9613 0.914 0.34241 0.0
H554 H 0.93808 0.92506 0.29965 0.0
H555 H 0.87688 0.80561 0.44149 0.0
H556 H 0.91472 0.82291 0.45085 0.0
H557 H 0.87993 0.84199 0.46145 0.0
H558 H 1.00143 0.88941 0.46065 0.0
H559 H 0.92229 0.94211 0.48271 0.0
H560 H 0.98215 0.86408 0.37124 0.0
H561 H 0.96276 0.83362 0.40709 0.0
H562 H 1.00065 0.85036 0.41729 0.0
H563 H 0.88174 0.9277 0.4027 0.0
H564 H 0.87304 0.93033 0.45767 0.0
H565 H 0.86633 0.89454 0.43688 0.0
C566 C 0.20991 0.8297 0.34039 0.0
C567 C 0.20025 0.8187 0.3039 0.0
C568 C 0.19111 0.8479 0.36295 0.0
C569 C 0.16196 0.85563 0.34853 0.0
C570 C 0.15258 0.84579 0.31076 0.0
C571 C 0.17187 0.8273 0.28883 0.0
C572 C 0.20193 0.85784 0.40314 0.0
C573 C 0.12174 0.85397 0.29433 0.0
C574 C 0.10018 0.87183 0.43233 0.0
C575 C 0.10291 0.90371 0.42846 0.0
C576 C 0.1189 0.85593 0.40594 0.0
C577 C 0.14064 0.87236 0.37467 0.0
C578 C 0.14338 0.90456 0.37039 0.0
C579 C 0.1246 0.91989 0.39757 0.0
C580 C 0.11571 0.82154 0.41189 0.0
C581 C 0.16622 0.92277 0.33724 0.0
H582 H 0.23201 0.82351 0.35208 0.0
H583 H 0.16436 0.81898 0.2606 0.0
H584 H 0.2019 0.8829 0.40237 0.0
H585 H 0.18534 0.84751 0.43001 0.0
H586 H 0.22597 0.8511 0.40887 0.0
H587 H 0.11914 0.84677 0.26282 0.0
H588 H 0.10185 0.84284 0.31617 0.0
H589 H 0.11981 0.87891 0.29258 0.0
H590 H 0.08341 0.85922 0.4561 0.0
H591 H 0.12653 0.94456 0.39411 0.0
H592 H 0.13841 0.81273 0.42022 0.0
H593 H 0.11013 0.81278 0.38224 0.0
H594 H 0.09702 0.81224 0.43688 0.0
H595 H 0.19073 0.91779 0.34301 0.0
H596 H 0.16428 0.94768 0.33659 0.0
H597 H 0.16195 0.91612 0.30591 0.0
C598 C 0.18953 0.84466 0.71233 0.0
C599 C 0.20359 0.82073 0.69491 0.0
C600 C 0.17173 0.86459 0.68832 0.0
C601 C 0.16821 0.86067 0.64584 0.0
C602 C 0.18237 0.83658 0.62819 0.0
C603 C 0.19968 0.8169 0.6529 0.0
C604 C 0.15672 0.88988 0.70834 0.0
C605 C 0.17953 0.83172 0.58298 0.0
C606 C 0.10097 0.89503 0.59062 0.0
C607 C 0.11602 0.92191 0.56863 0.0
C608 C 0.11756 0.87508 0.61619 0.0
C609 C 0.15011 0.88191 0.61946 0.0
C610 C 0.1656 0.90859 0.59648 0.0
C611 C 0.14836 0.92832 0.57157 0.0
C612 C 0.10014 0.84692 0.64024 0.0
C613 C 0.2004 0.91642 0.59844 0.0
H614 H 0.19236 0.84777 0.7447 0.0
H615 H 0.21049 0.79857 0.63893 0.0
H616 H 0.16618 0.91225 0.69156 0.0
H617 H 0.13091 0.88805 0.70577 0.0
H618 H 0.16098 0.88945 0.74192 0.0
H619 H 0.19189 0.81182 0.57404 0.0
H620 H 0.15434 0.82816 0.57725 0.0
H621 H 0.18955 0.85228 0.56211 0.0
H622 H 0.07594 0.88998 0.58886 0.0
H623 H 0.16021 0.949 0.55466 0.0
H624 H 0.1022 0.84714 0.67428 0.0
H625 H 0.11087 0.82628 0.63105 0.0
H626 H 0.07474 0.84508 0.6348 0.0
H627 H 0.20534 0.91885 0.63118 0.0
H628 H 0.209 0.93787 0.5784 0.0
H629 H 0.21406 0.89771 0.58824 0.0
C630 C 0.11126 0.17939 0.65038 0.0
C631 C 0.12481 0.16277 0.68303 0.0
C632 C 0.0918 0.16481 0.6246 0.0
C633 C 0.08578 0.13283 0.63171 0.0
C634 C 0.09756 0.11618 0.66652 0.0
C635 C 0.11699 0.13143 0.69191 0.0
C636 C 0.07938 0.18341 0.58819 0.0
C637 C 0.09131 0.08205 0.67531 0.0
C638 C 0.02183 0.09458 0.57608 0.0
C639 C 0.03954 0.08456 0.54255 0.0
C640 C 0.03643 0.11079 0.60507 0.0
C641 C 0.06959 0.11663 0.60063 0.0
C642 C 0.08755 0.10675 0.56646 0.0
C643 C 0.07226 0.09056 0.53796 0.0
C644 C 0.01649 0.12066 0.64121 0.0
C645 C 0.12297 0.11267 0.56057 0.0
H646 H 0.11714 0.20374 0.64381 0.0
H647 H 0.12762 0.1186 0.71704 0.0
H648 H 0.09113 0.17778 0.55839 0.0
H649 H 0.05371 0.17783 0.58758 0.0
H650 H 0.08361 0.20828 0.58946 0.0
H651 H 0.09914 0.07299 0.70599 0.0
H652 H 0.06582 0.0754 0.67498 0.0
H653 H 0.10404 0.07111 0.65036 0.0
H654 H 0.99674 0.08843 0.58088 0.0
H655 H 0.08589 0.08202 0.51256 0.0
H656 H 0.02187 0.14522 0.64347 0.0
H657 H 0.02209 0.10794 0.67099 0.0
H658 H 0.99085 0.11658 0.63815 0.0
H659 H 0.12957 0.13745 0.55876 0.0
H660 H 0.13331 0.10421 0.53176 0.0
H661 H 0.13361 0.10138 0.58792 0.0
C662 C 0.80493 0.17744 0.67311 0.0
C663 C 0.81543 0.18787 0.7095 0.0
C664 C 0.82293 0.15904 0.64985 0.0
C665 C 0.8521 0.15061 0.66346 0.0
C666 C 0.86226 0.15982 0.70118 0.0
C667 C 0.84375 0.17847 0.72386 0.0
C668 C 0.8113 0.14972 0.60976 0.0
C669 C 0.89315 0.15085 0.71671 0.0
C670 C 0.88694 0.08603 0.61267 0.0
C671 C 0.90851 0.10198 0.58145 0.0
C672 C 0.86905 0.10153 0.64054 0.0
C673 C 0.87259 0.13369 0.63661 0.0
C674 C 0.89424 0.14991 0.60506 0.0
C675 C 0.91208 0.13382 0.57796 0.0
C676 C 0.84628 0.08354 0.674 0.0
C677 C 0.89824 0.18428 0.59958 0.0
H678 H 0.78286 0.18431 0.66202 0.0
H679 H 0.85189 0.18642 0.75199 0.0
H680 H 0.82764 0.16012 0.58266 0.0
H681 H 0.81093 0.12467 0.60998 0.0
H682 H 0.78727 0.15686 0.60484 0.0
H683 H 0.89636 0.15764 0.7483 0.0
H684 H 0.89456 0.12587 0.7179 0.0
H685 H 0.91297 0.16184 0.69462 0.0
H686 H 0.88442 0.06137 0.61586 0.0
H687 H 0.9288 0.14623 0.55394 0.0
H688 H 0.82182 0.08906 0.66886 0.0
H689 H 0.85117 0.08989 0.70529 0.0
H690 H 0.84765 0.05858 0.67431 0.0
H691 H 0.87567 0.19369 0.59191 0.0
H692 H 0.9168 0.19338 0.57431 0.0
H693 H 0.90448 0.19265 0.62922 0.0
C694 C 0.8714 0.91178 0.69376 0.0
C695 C 0.86876 0.89049 0.7296 0.0
C696 C 0.89795 0.93229 0.68435 0.0
C697 C 0.92174 0.93233 0.71259 0.0
C698 C 0.91671 0.9144 0.75194 0.0
C699 C 0.89051 0.89308 0.75971 0.0
C700 C 0.90197 0.95139 0.64208 0.0
C701 C 0.94015 0.9157 0.78438 0.0
C702 C 0.99724 0.9391 0.6452 0.0
C703 C 1.00109 0.97061 0.63525 0.0
C704 C 0.97354 0.92591 0.67535 0.0
C705 C 0.95381 0.94506 0.69613 0.0
C706 C 0.96117 0.97694 0.69084 0.0
C707 C 0.98446 0.98955 0.65938 0.0
C708 C 0.96686 0.89173 0.6802 0.0
C709 C 0.94239 0.99794 0.71485 0.0
H710 H 0.85374 0.91099 0.67148 0.0
H711 H 0.88841 0.87721 0.78808 0.0
H712 H 0.90643 0.97576 0.64598 0.0
H713 H 0.9226 0.94462 0.62303 0.0
H714 H 0.88091 0.94892 0.62426 0.0
H715 H 0.92787 0.91172 0.81643 0.0
H716 H 0.95647 0.89745 0.78151 0.0
H717 H 0.95425 0.93795 0.78066 0.0
H718 H 0.01044 0.92476 0.62618 0.0
H719 H 0.98783 0.01406 0.65153 0.0
H720 H 0.94423 0.88589 0.66716 0.0
H721 H 0.96456 0.88246 0.71373 0.0
H722 H 0.98571 0.88023 0.66379 0.0
H723 H 0.93105 0.98612 0.74502 0.0
H724 H 0.92375 1.00683 0.69583 0.0
H725 H 0.95777 0.01782 0.72117 0.0
C726 C 0.32497 0.21183 0.14223 0.0
C727 C 0.30161 0.20191 0.17483 0.0
C728 C 0.3416 0.1908 0.12134 0.0
C729 C 0.33531 0.15915 0.13416 0.0
C730 C 0.3112 0.14905 0.16636 0.0
C731 C 0.29445 0.17051 0.18595 0.0
C732 C 0.36658 0.20245 0.08638 0.0
C733 C 0.30423 0.11565 0.18174 0.0
C734 C 0.36995 0.10268 0.06535 0.0
C735 C 0.39873 0.09845 0.08239 0.0
C736 C 0.34876 0.12223 0.08196 0.0
C737 C 0.35623 0.13697 0.11715 0.0
C738 C 0.38445 0.13119 0.13583 0.0
C739 C 0.40548 0.11238 0.11789 0.0
C740 C 0.31899 0.12797 0.06106 0.0
C741 C 0.39302 0.1457 0.17401 0.0
H742 H 0.33038 0.23604 0.13321 0.0
H743 H 0.27648 0.16262 0.21124 0.0
H744 H 0.39019 0.19759 0.09635 0.0
H745 H 0.36307 0.19056 0.05842 0.0
H746 H 0.3664 0.22736 0.0773 0.0
H747 H 0.28289 0.11135 0.20428 0.0
H748 H 0.30086 0.10235 0.1551 0.0
H749 H 0.32459 0.10697 0.19746 0.0
H750 H 0.36477 0.09203 0.03784 0.0
H751 H 0.42771 0.10903 0.1312 0.0
H752 H 0.31767 0.15277 0.05242 0.0
H753 H 0.29812 0.11987 0.08316 0.0
H754 H 0.3176 0.11631 0.03249 0.0
H755 H 0.39692 0.17074 0.16598 0.0
H756 H 0.41469 0.13711 0.18647 0.0
H757 H 0.37341 0.14127 0.19916 0.0
C758 C 0.83491 0.3482 0.19892 0.0
C759 C 0.83239 0.31977 0.18326 0.0
C760 C 0.85687 0.37217 0.1805 0.0
C761 C 0.87779 0.36801 0.14554 0.0
C762 C 0.87527 0.33946 0.12918 0.0
C763 C 0.85256 0.31591 0.1479 0.0
C764 C 0.85792 0.40198 0.19903 0.0
C765 C 0.89739 0.33309 0.09292 0.0
C766 C 0.92329 0.43835 0.07971 0.0
C767 C 0.95238 0.43971 0.09743 0.0
C768 C 0.89892 0.41535 0.0948 0.0
C769 C 0.90348 0.39276 0.12836 0.0
C770 C 0.93266 0.39422 0.14643 0.0
C771 C 0.95632 0.41752 0.13119 0.0
C772 C 0.86831 0.41504 0.07452 0.0
C773 C 0.93929 0.37055 0.18143 0.0
H774 H 0.81943 0.35192 0.22588 0.0
H775 H 0.85114 0.29424 0.13536 0.0
H776 H 0.88084 0.40595 0.21225 0.0
H777 H 0.85599 0.42109 0.17424 0.0
H778 H 0.83873 0.40248 0.22428 0.0
H779 H 0.8868 0.31519 0.0757 0.0
H780 H 0.90413 0.35385 0.07065 0.0
H781 H 0.91925 0.32488 0.10516 0.0
H782 H 0.91979 0.4548 0.0533 0.0
H783 H 0.97853 0.41774 0.14527 0.0
H784 H 0.84914 0.42037 0.09725 0.0
H785 H 0.86198 0.39204 0.06585 0.0
H786 H 0.86941 0.43184 0.04606 0.0
H787 H 0.92191 0.3708 0.20883 0.0
H788 H 0.96336 0.37429 0.19163 0.0
H789 H 0.93676 0.34755 0.17106 0.0
C790 C 0.69371 0.80196 0.13738 0.0
C791 C 0.71776 0.81578 0.15767 0.0
C792 C 0.67263 0.81941 0.11565 0.0
C793 C 0.67523 0.85145 0.1149 0.0
C794 C 0.70074 0.86564 0.13299 0.0
C795 C 0.72189 0.84761 0.15389 0.0
C796 C 0.64628 0.80335 0.09606 0.0
C797 C 0.70428 0.89973 0.13311 0.0
C798 C 0.62641 0.90241 0.04648 0.0
C799 C 0.601 0.90656 0.07494 0.0
C800 C 0.65028 0.88365 0.0584 0.0
C801 C 0.64916 0.86966 0.10027 0.0
C802 C 0.62337 0.87381 0.12907 0.0
C803 C 0.59963 0.89221 0.11601 0.0
C804 C 0.67706 0.8795 0.02656 0.0
C805 C 0.62128 0.85956 0.1741 0.0
H806 H 0.69052 0.77732 0.14002 0.0
H807 H 0.74025 0.85838 0.16981 0.0
H808 H 0.62367 0.80454 0.11512 0.0
H809 H 0.64381 0.81469 0.06416 0.0
H810 H 0.65016 0.77901 0.09403 0.0
H811 H 0.72716 0.90747 0.14407 0.0
H812 H 0.70237 0.91149 0.1013 0.0
H813 H 0.68496 0.9068 0.15415 0.0
H814 H 0.62833 0.9148 0.01545 0.0
H815 H 0.58029 0.89606 0.13825 0.0
H816 H 0.6791 0.85491 0.02431 0.0
H817 H 0.69964 0.88874 0.03664 0.0
H818 H 0.67383 0.89104 0.99495 0.0
H819 H 0.62195 0.8345 0.17545 0.0
H820 H 0.59942 0.86458 0.1923 0.0
H821 H 0.64187 0.86812 0.18951 0.0
C822 C 0.1644 0.68134 0.08088 0.0
C823 C 0.15415 0.69916 0.11181 0.0
C824 C 0.14352 0.66 0.06625 0.0
C825 C 0.11178 0.656 0.08358 0.0
C826 C 0.10107 0.67471 0.11381 0.0
C827 C 0.1224 0.69623 0.12743 0.0
C828 C 0.1556 0.64119 0.03302 0.0
C829 C 0.06738 0.67117 0.13294 0.0
C830 C 0.05055 0.61923 0.02259 0.0
C831 C 0.04628 0.5893 0.04302 0.0
C832 C 0.0719 0.64094 0.03528 0.0
C833 C 0.08964 0.63271 0.06932 0.0
C834 C 0.08614 0.6024 0.08958 0.0
C835 C 0.06449 0.58095 0.07609 0.0
C836 C 0.07454 0.67299 0.01299 0.0
C837 C 0.10478 0.59284 0.126 0.0
H838 H 0.1891 0.68341 0.06924 0.0
H839 H 0.11471 0.70954 0.15204 0.0
H840 H 0.15424 0.61685 0.04606 0.0
H841 H 0.14059 0.64299 0.00646 0.0
H842 H 0.18037 0.64841 0.02088 0.0
H843 H 0.0627 0.68773 0.15568 0.0
H844 H 0.051 0.67431 0.10806 0.0
H845 H 0.06197 0.64779 0.1493 0.0
H846 H 0.03685 0.626 0.99671 0.0
H847 H 0.06134 0.55794 0.09199 0.0
H848 H 0.09951 0.68217 0.00714 0.0
H849 H 0.06217 0.68802 0.03305 0.0
H850 H 0.06378 0.67423 0.98266 0.0
H851 H 0.1304 0.59703 0.11642 0.0
H852 H 0.09963 0.5684 0.13809 0.0
H853 H 0.09932 0.60673 0.15182 0.0
C854 C 0.35224 0.87404 0.86263 0.0
C855 C 0.32416 0.86234 0.88623 0.0
C856 C 0.37504 0.89189 0.87965 0.0
C857 C 0.3695 0.89879 0.92126 0.0
C858 C 0.34006 0.88912 0.9442 0.0
C859 C 0.31761 0.87094 0.9263 0.0
C860 C 0.40593 0.90164 0.85387 0.0
C861 C 0.33235 0.89741 0.98775 0.0
C862 C 0.44593 0.90859 0.97226 0.0
C863 C 0.4532 0.94012 0.96399 0.0
C864 C 0.41763 0.89505 0.96104 0.0
C865 C 0.39597 0.91346 0.94119 0.0
C866 C 0.40211 0.94547 0.93553 0.0
C867 C 0.43075 0.95842 0.94667 0.0
C868 C 0.41162 0.86086 0.96855 0.0
C869 C 0.37896 0.96593 0.91628 0.0
H870 H 0.35707 0.86783 0.83129 0.0
H871 H 0.29575 0.8622 0.9444 0.0
H872 H 0.41131 0.92656 0.85271 0.0
H873 H 0.42532 0.89029 0.86871 0.0
H874 H 0.40577 0.89584 0.82126 0.0
H875 H 0.31384 0.88118 0.00569 0.0
H876 H 0.35345 0.89821 0.00561 0.0
H877 H 0.3234 0.92042 0.98534 0.0
H878 H 0.4628 0.89428 0.98633 0.0
H879 H 0.43575 0.98289 0.94104 0.0
H880 H 0.41298 0.85143 0.93806 0.0
H881 H 0.38757 0.85449 0.98406 0.0
H882 H 0.42895 0.85009 0.98827 0.0
H883 H 0.37799 0.96272 0.88278 0.0
H884 H 0.38545 0.99036 0.91843 0.0
H885 H 0.35495 0.95979 0.93208 0.0
C886 C 0.19903 0.33316 0.81811 0.0
C887 C 0.19428 0.30175 0.83112 0.0
C888 C 0.18245 0.35433 0.83852 0.0
C889 C 0.16094 0.34409 0.87375 0.0
C890 C 0.15611 0.31234 0.88732 0.0
C891 C 0.17258 0.29146 0.8655 0.0
C892 C 0.1876 0.38767 0.82182 0.0
C893 C 0.13401 0.30048 0.92534 0.0
C894 C 0.13549 0.40419 0.9438 0.0
C895 C 0.10568 0.40971 0.93064 0.0
C896 C 0.15365 0.38252 0.92614 0.0
C897 C 0.14194 0.36656 0.89408 0.0
C898 C 0.11229 0.37297 0.87991 0.0
C899 C 0.0945 0.3941 0.89862 0.0
C900 C 0.18489 0.37605 0.94261 0.0
C901 C 0.09912 0.35724 0.84517 0.0
H902 H 0.21563 0.34126 0.79131 0.0
H903 H 0.16916 0.26728 0.87598 0.0
H904 H 0.16505 0.39631 0.81257 0.0
H905 H 0.19562 0.40105 0.84657 0.0
H906 H 0.20531 0.39192 0.79422 0.0
H907 H 0.13085 0.27522 0.9299 0.0
H908 H 0.14361 0.30834 0.95356 0.0
H909 H 0.11058 0.30964 0.92283 0.0
H910 H 0.14392 0.4157 0.96915 0.0
H911 H 0.07139 0.39822 0.88844 0.0
H912 H 0.20386 0.37893 0.91658 0.0
H913 H 0.18388 0.35203 0.95706 0.0
H914 H 0.19128 0.39117 0.96632 0.0
H915 H 0.11592 0.36114 0.81667 0.0
H916 H 0.07607 0.36538 0.83702 0.0
H917 H 0.09596 0.33231 0.85465 0.0
C918 C 0.66522 0.18154 0.81209 0.0
C919 C 0.69445 0.1861 0.82866 0.0
C920 C 0.64206 0.15885 0.83072 0.0
C921 C 0.64782 0.13978 0.86721 0.0
C922 C 0.67759 0.14373 0.88365 0.0
C923 C 0.7004 0.16683 0.86435 0.0
C924 C 0.61123 0.15533 0.81119 0.0
C925 C 0.68618 0.12319 0.92085 0.0
C926 C 0.57182 0.10848 0.9333 0.0
C927 C 0.56734 0.07873 0.92268 0.0
C928 C 0.59873 0.12771 0.91755 0.0
C929 C 0.62167 0.11753 0.88915 0.0
C930 C 0.61791 0.08702 0.87956 0.0
C931 C 0.59096 0.06785 0.89677 0.0
C932 C 0.60186 0.15945 0.93021 0.0
C933 C 0.64189 0.07498 0.85005 0.0
H934 H 0.66024 0.19591 0.78429 0.0
H935 H 0.72305 0.16948 0.87702 0.0
H936 H 0.60623 0.13132 0.8055 0.0
H937 H 0.59169 0.1611 0.833 0.0
H938 H 0.61125 0.17019 0.78107 0.0
H939 H 0.69944 0.10464 0.90936 0.0
H940 H 0.70185 0.13582 0.93993 0.0
H941 H 0.66524 0.11262 0.94109 0.0
H942 H 0.55389 0.11692 0.95382 0.0
H943 H 0.58775 0.04487 0.88858 0.0
H944 H 0.59507 0.17588 0.90453 0.0
H945 H 0.6266 0.16599 0.9357 0.0
H946 H 0.58643 0.16156 0.959 0.0
H947 H 0.64333 0.0887 0.81888 0.0
H948 H 0.63606 0.05071 0.84619 0.0
H949 H 0.66553 0.07723 0.8619 0.0
C950 C 0.83598 0.71851 0.83673 0.0
C951 C 0.80352 0.71057 0.83761 0.0
C952 C 0.85588 0.69896 0.85719 0.0
C953 C 0.84297 0.67104 0.87956 0.0
C954 C 0.80993 0.66413 0.88354 0.0
C955 C 0.79059 0.68378 0.86203 0.0
C956 C 0.89092 0.70747 0.85322 0.0
C957 C 0.7952 0.63547 0.90939 0.0
C958 C 0.89383 0.60399 0.88385 0.0
C959 C 0.90635 0.60479 0.92264 0.0
C960 C 0.87341 0.6256 0.86954 0.0
C961 C 0.86426 0.64793 0.89531 0.0
C962 C 0.87636 0.6485 0.93488 0.0
C963 C 0.8978 0.62733 0.94752 0.0
C964 C 0.86217 0.62491 0.82636 0.0
C965 C 0.86721 0.67116 0.96442 0.0
H966 H 0.84616 0.73926 0.81816 0.0
H967 H 0.76547 0.67773 0.8634 0.0
H968 H 0.89954 0.70715 0.88481 0.0
H969 H 0.90345 0.69046 0.83682 0.0
H970 H 0.89717 0.73038 0.83567 0.0
H971 H 0.76906 0.63503 0.91315 0.0
H972 H 0.8019 0.6153 0.89422 0.0
H973 H 0.80417 0.63339 0.94089 0.0
H974 H 0.90068 0.58693 0.86403 0.0
H975 H 0.90766 0.6283 0.97712 0.0
H976 H 0.86884 0.64712 0.80712 0.0
H977 H 0.83609 0.62131 0.82867 0.0
H978 H 0.87224 0.60664 0.80976 0.0
H979 H 0.88856 0.68535 0.96995 0.0
H980 H 0.85775 0.65873 0.99514 0.0
H981 H 0.84933 0.68635 0.95306 0.0
C982 C 0.2142 0.32352 0.12388 0.0
C983 C 0.20113 0.30102 0.15574 0.0
C984 C 0.19488 0.3426 0.10137 0.0
C985 C 0.16187 0.3396 0.11183 0.0
C986 C 0.14844 0.31547 0.14181 0.0
C987 C 0.16824 0.29625 0.16307 0.0
C988 C 0.20999 0.36734 0.06854 0.0
C989 C 0.11342 0.31166 0.15432 0.0
C990 C 0.12043 0.41267 0.10752 0.0
C991 C 0.10259 0.41077 0.07312 0.0
C992 C 0.13979 0.38968 0.12014 0.0
C993 C 0.14218 0.36445 0.09708 0.0
C994 C 0.125 0.36276 0.06151 0.0
C995 C 0.10486 0.38565 0.05048 0.0
C996 C 0.15715 0.39212 0.15882 0.0
C997 C 0.12751 0.33667 0.03548 0.0
H998 H 0.2396 0.32706 0.11769 0.0
H999 H 0.15794 0.27887 0.18762 0.0
H1000 H 0.19623 0.36932 0.04076 0.0
H1001 H 0.2103 0.38951 0.08145 0.0
H1002 H 0.23463 0.36306 0.0584 0.0
H1003 H 0.10633 0.28973 0.1741 0.0
H1004 H 0.10662 0.33051 0.17226 0.0
H1005 H 0.09997 0.31282 0.12625 0.0
H1006 H 0.11867 0.43182 0.12547 0.0
H1007 H 0.09099 0.38387 0.02408 0.0
H1008 H 0.18292 0.39231 0.15074 0.0
H1009 H 0.15015 0.37203 0.18228 0.0
H1010 H 0.15236 0.413 0.17357 0.0
H1011 H 0.15255 0.33212 0.02874 0.0
H1012 H 0.11676 0.34123 0.00536 0.0
H1013 H 0.11526 0.31571 0.05312 0.0
C1014 C 0.18039 0.66939 0.80513 0.0
C1015 C 0.18488 0.69726 0.82185 0.0
C1016 C 0.15743 0.64623 0.82327 0.0
C1017 C 0.13761 0.65068 0.85912 0.0
C1018 C 0.14217 0.67859 0.87658 0.0
C1019 C 0.16574 0.70136 0.85802 0.0
C1020 C 0.15416 0.61699 0.80357 0.0
C1021 C 0.12161 0.6847 0.91443 0.0
C1022 C 0.05672 0.60529 0.87413 0.0
C1023 C 0.06023 0.58176 0.90631 0.0
C1024 C 0.0813 0.62775 0.85928 0.0
C1025 C 0.11091 0.62702 0.87625 0.0
C1026 C 0.11493 0.60316 0.90837 0.0
C1027 C 0.08969 0.58101 0.92303 0.0
C1028 C 0.07533 0.65269 0.82558 0.0
C1029 C 0.14603 0.60091 0.92721 0.0
H1030 H 0.19504 0.66547 0.77751 0.0
H1031 H 0.1688 0.72255 0.8715 0.0
H1032 H 0.15573 0.59721 0.82746 0.0
H1033 H 0.13068 0.61449 0.79134 0.0
H1034 H 0.17254 0.61615 0.7774 0.0
H1035 H 0.13044 0.70538 0.92769 0.0
H1036 H 0.09733 0.68778 0.9056 0.0
H1037 H 0.12018 0.66495 0.93902 0.0
H1038 H 0.03424 0.60668 0.86089 0.0
H1039 H 0.0929 0.56343 0.94818 0.0
H1040 H 0.05081 0.65074 0.81637 0.0
H1041 H 0.0918 0.652 0.79736 0.0
H1042 H 0.0798 0.67526 0.83666 0.0
H1043 H 0.16378 0.59408 0.90371 0.0
H1044 H 0.1443 0.58397 0.95557 0.0
H1045 H 0.15482 0.62333 0.93563 0.0
C1046 C 0.29578 0.19636 0.88693 0.0
C1047 C 0.28801 0.18952 0.84746 0.0
C1048 C 0.31724 0.17952 0.90913 0.0
C1049 C 0.33258 0.15639 0.89037 0.0
C1050 C 0.32445 0.14926 0.8506 0.0
C1051 C 0.30186 0.16555 0.83002 0.0
C1052 C 0.32433 0.1873 0.95192 0.0
C1053 C 0.34094 0.12565 0.82859 0.0
C1054 C 0.414 0.13598 0.92044 0.0
C1055 C 0.40718 0.10674 0.94183 0.0
C1056 C 0.38983 0.15283 0.9045 0.0
C1057 C 0.35804 0.14042 0.9112 0.0
C1058 C 0.35103 0.11163 0.93519 0.0
C1059 C 0.37574 0.09484 0.94923 0.0
C1060 C 0.39855 0.18305 0.87826 0.0
C1061 C 0.31753 0.09795 0.94453 0.0
H1062 H 0.28561 0.21537 0.89999 0.0
H1063 H 0.29666 0.16097 0.79886 0.0
H1064 H 0.32605 0.16633 0.97362 0.0
H1065 H 0.34735 0.20082 0.94952 0.0
H1066 H 0.30603 0.20086 0.96563 0.0
H1067 H 0.33207 0.12296 0.79766 0.0
H1068 H 0.36664 0.13221 0.82375 0.0
H1069 H 0.33774 0.10329 0.84822 0.0
H1070 H 0.4384 0.14486 0.9139 0.0
H1071 H 0.37055 0.072 0.9653 0.0
H1072 H 0.38519 0.20109 0.89095 0.0
H1073 H 0.39206 0.18165 0.84585 0.0
H1074 H 0.42414 0.18995 0.87696 0.0
H1075 H 0.30183 0.11523 0.95466 0.0
H1076 H 0.3156 0.07821 0.96931 0.0
H1077 H 0.30887 0.09011 0.91575 0.0
C1078 C 0.85394 0.33235 0.92477 0.0
C1079 C 0.85708 0.32684 0.88275 0.0
C1080 C 0.87256 0.35586 0.93871 0.0
C1081 C 0.89491 0.37405 0.91 0.0
C1082 C 0.89723 0.3694 0.86726 0.0
C1083 C 0.87816 0.34602 0.85414 0.0
C1084 C 0.86924 0.36049 0.98442 0.0
C1085 C 0.92088 0.38819 0.83566 0.0
C1086 C 0.93693 0.44599 0.93969 0.0
C1087 C 0.9648 0.43473 0.95306 0.0
C1088 C 0.91352 0.42645 0.92614 0.0
C1089 C 0.91856 0.39523 0.92536 0.0
C1090 C 0.94686 0.38397 0.9384 0.0
C1091 C 0.96944 0.40378 0.95239 0.0
C1092 C 0.88335 0.43905 0.91312 0.0
C1093 C 0.95341 0.35095 0.93744 0.0
H1094 H 0.83758 0.31777 0.94699 0.0
H1095 H 0.87996 0.34262 0.8213 0.0
H1096 H 0.89137 0.35529 0.9986 0.0
H1097 H 0.86547 0.38464 0.98774 0.0
H1098 H 0.84943 0.34581 1.00226 0.0
H1099 H 0.9178 0.38346 0.80307 0.0
H1100 H 0.91883 0.41282 0.83747 0.0
H1101 H 0.94511 0.38315 0.84289 0.0
H1102 H 0.93314 0.46985 0.94071 0.0
H1103 H 0.991 0.39498 0.9626 0.0
H1104 H 0.86301 0.42728 0.93354 0.0
H1105 H 0.87978 0.43473 0.88056 0.0
H1106 H 0.88327 0.46392 0.915 0.0
H1107 H 0.97685 0.346 0.9481 0.0
H1108 H 0.95244 0.34476 0.90516 0.0
H1109 H 0.93507 0.33607 0.95782 0.0
C1110 C 0.66485 0.80526 0.82741 0.0
C1111 C 0.69744 0.80456 0.82964 0.0
C1112 C 0.64756 0.82562 0.84879 0.0
C1113 C 0.66305 0.84503 0.87412 0.0
C1114 C 0.69578 0.84352 0.87768 0.0
C1115 C 0.71266 0.82372 0.85481 0.0
C1116 C 0.61286 0.82696 0.84333 0.0
C1117 C 0.71298 0.86282 0.90562 0.0
C1118 C 0.62399 0.9168 0.89903 0.0
C1119 C 0.6063 0.90632 0.9369 0.0
C1120 C 0.64288 0.89719 0.87834 0.0
C1121 C 0.64491 0.86683 0.89684 0.0
C1122 C 0.62835 0.85687 0.93632 0.0
C1123 C 0.60857 0.87643 0.95519 0.0
C1124 C 0.65946 0.9085 0.8358 0.0
C1125 C 0.63094 0.82532 0.95826 0.0
H1126 H 0.65313 0.79083 0.80746 0.0
H1127 H 0.73788 0.8232 0.85661 0.0
H1128 H 0.5989 0.82128 0.87405 0.0
H1129 H 0.60803 0.85042 0.83098 0.0
H1130 H 0.60453 0.81103 0.82161 0.0
H1131 H 0.73837 0.85867 0.90539 0.0
H1132 H 0.71094 0.88731 0.89553 0.0
H1133 H 0.70204 0.85794 0.93828 0.0
H1134 H 0.62171 0.93974 0.88455 0.0
H1135 H 0.59465 0.8683 0.98441 0.0
H1136 H 0.65027 0.89476 0.81207 0.0
H1137 H 0.68507 0.90562 0.83576 0.0
H1138 H 0.65614 0.93285 0.82615 0.0
H1139 H 0.62029 0.80809 0.94013 0.0
H1140 H 0.61893 0.82217 0.99046 0.0
H1141 H 0.65609 0.82084 0.96014 0.0
C1142 C 0.83486 0.69643 0.1898 0.0
C1143 C 0.80647 0.70616 0.17618 0.0
C1144 C 0.8512 0.67496 0.16955 0.0
C1145 C 0.83956 0.66391 0.13369 0.0
C1146 C 0.8109 0.67389 0.1197 0.0
C1147 C 0.79431 0.69439 0.14175 0.0
C1148 C 0.88109 0.66428 0.1864 0.0
C1149 C 0.79835 0.66381 0.08064 0.0
C1150 C 0.90415 0.63977 0.05967 0.0
C1151 C 0.90002 0.60786 0.0665 0.0
C1152 C 0.8836 0.65805 0.07958 0.0
C1153 C 0.85899 0.64424 0.10889 0.0
C1154 C 0.85443 0.61197 0.11592 0.0
C1155 C 0.8747 0.59409 0.09397 0.0
C1156 C 0.88866 0.69225 0.06967 0.0
C1157 C 0.82914 0.59638 0.148 0.0
H1158 H 0.84386 0.70506 0.21705 0.0
H1159 H 0.77221 0.70183 0.13147 0.0
H1160 H 0.88032 0.63905 0.18993 0.0
H1161 H 0.90165 0.67293 0.164 0.0
H1162 H 0.88492 0.67224 0.21719 0.0
H1163 H 0.77462 0.67172 0.07574 0.0
H1164 H 0.81474 0.67304 0.053 0.0
H1165 H 0.79702 0.63865 0.08209 0.0
H1166 H 0.92365 0.65065 0.03843 0.0
H1167 H 0.87167 0.56947 0.0998 0.0
H1168 H 0.89565 0.70246 0.09771 0.0
H1169 H 0.86639 0.70185 0.06105 0.0
H1170 H 0.90721 0.69926 0.04358 0.0
H1171 H 0.83414 0.60207 0.17957 0.0
H1172 H 0.82766 0.57123 0.14848 0.0
H1173 H 0.80585 0.60468 0.14168 0.0
C1174 C 0.33009 0.82952 0.14369 0.0
C1175 C 0.31957 0.82832 0.18626 0.0
C1176 C 0.35343 0.85206 0.12429 0.0
C1177 C 0.36599 0.87478 0.14755 0.0
C1178 C 0.35405 0.87451 0.18997 0.0
C1179 C 0.33164 0.8511 0.20888 0.0
C1180 C 0.36587 0.84992 0.0797 0.0
C1181 C 0.36565 0.89853 0.21595 0.0
C1182 C 0.45091 0.90935 0.12173 0.0
C1183 C 0.44764 0.93748 0.09789 0.0
C1184 C 0.42482 0.88886 0.13692 0.0
C1185 C 0.39392 0.89655 0.12957 0.0
C1186 C 0.39016 0.92492 0.10575 0.0
C1187 C 0.41697 0.94485 0.08983 0.0
C1188 C 0.4305 0.85845 0.16017 0.0
C1189 C 0.35777 0.93405 0.09684 0.0
H1190 H 0.32125 0.8119 0.12596 0.0
H1191 H 0.32356 0.85056 0.24171 0.0
H1192 H 0.37692 0.87189 0.06359 0.0
H1193 H 0.38399 0.83309 0.07981 0.0
H1194 H 0.34674 0.84175 0.06136 0.0
H1195 H 0.35134 0.89754 0.24647 0.0
H1196 H 0.39048 0.89539 0.22218 0.0
H1197 H 0.36506 0.92154 0.19861 0.0
H1198 H 0.47424 0.90269 0.12776 0.0
H1199 H 0.41388 0.9661 0.071 0.0
H1200 H 0.41961 0.83977 0.14464 0.0
H1201 H 0.41923 0.85642 0.19265 0.0
H1202 H 0.45599 0.85516 0.16154 0.0
H1203 H 0.35855 0.95655 0.0776 0.0
H1204 H 0.34332 0.93498 0.12678 0.0
H1205 H 0.34575 0.91669 0.08012 0.0
C1206 C 0.66462 0.14088 0.15222 0.0
C1207 C 0.68697 0.15879 0.1238 0.0
C1208 C 0.63888 0.12459 0.13842 0.0
C1209 C 0.63523 0.12608 0.09504 0.0
C1210 C 0.65782 0.14385 0.06613 0.0
C1211 C 0.68332 0.16009 0.08082 0.0
C1212 C 0.61508 0.10644 0.17043 0.0
C1213 C 0.65464 0.1463 0.01972 0.0
C1214 C 0.58107 0.06335 0.06071 0.0
C1215 C 0.55335 0.07809 0.05532 0.0
C1216 C 0.60814 0.0789 0.07255 0.0
C1217 C 0.60726 0.10972 0.08019 0.0
C1218 C 0.57931 0.12467 0.07475 0.0
C1219 C 0.55287 0.10881 0.0619 0.0
C1220 C 0.63774 0.06241 0.07677 0.0
C1221 C 0.57711 0.15731 0.08322 0.0
H1222 H 0.66667 0.1403 0.18556 0.0
H1223 H 0.7004 0.17383 0.05863 0.0
H1224 H 0.5916 0.11553 0.16809 0.0
H1225 H 0.61272 0.08235 0.16415 0.0
H1226 H 0.62167 0.10712 0.20295 0.0
H1227 H 0.67621 0.15735 1.00113 0.0
H1228 H 0.64941 0.12344 0.00996 0.0
H1229 H 0.63461 0.16003 0.0123 0.0
H1230 H 0.58175 0.03975 0.05508 0.0
H1231 H 0.53153 0.12035 0.0578 0.0
H1232 H 0.64439 0.0615 0.1094 0.0
H1233 H 0.65754 0.07502 0.05615 0.0
H1234 H 0.63492 0.03879 0.06846 0.0
H1235 H 0.58217 0.15965 0.11596 0.0
H1236 H 0.55348 0.16546 0.07829 0.0
H1237 H 0.59502 0.17235 0.06241 0.0
C1238 C 0.6434 0.5985 0.78936 0.0
C1239 C 0.6416 0.6228 0.75819 0.0
C1240 C 0.61757 0.5774 0.80108 0.0
C1241 C 0.58961 0.58083 0.78071 0.0
C1242 C 0.58998 0.60168 0.74415 0.0
C1243 C 0.61598 0.62295 0.73352 0.0
C1244 C 0.61871 0.55449 0.83921 0.0
C1245 C 0.56146 0.60414 0.71964 0.0
C1246 C 0.52512 0.52845 0.84228 0.0
C1247 C 0.51594 0.54715 0.87248 0.0
C1248 C 0.54666 0.54006 0.80812 0.0
C1249 C 0.55932 0.57064 0.80536 0.0
C1250 C 0.54707 0.59024 0.83351 0.0
C1251 C 0.52547 0.5781 0.86683 0.0
C1252 C 0.55771 0.51881 0.77762 0.0
C1253 C 0.55944 0.62319 0.83165 0.0
H1254 H 0.66391 0.59763 0.80714 0.0
H1255 H 0.61486 0.64124 0.70852 0.0
H1256 H 0.60419 0.56156 0.86605 0.0
H1257 H 0.60883 0.53176 0.83337 0.0
H1258 H 0.64312 0.55244 0.84826 0.0
H1259 H 0.56832 0.61358 0.68654 0.0
H1260 H 0.54827 0.5816 0.72042 0.0
H1261 H 0.54541 0.61968 0.7336 0.0
H1262 H 0.51739 0.50441 0.84693 0.0
H1263 H 0.51788 0.59231 0.89046 0.0
H1264 H 0.57541 0.50452 0.79167 0.0
H1265 H 0.56851 0.53125 0.74756 0.0
H1266 H 0.5377 0.50319 0.77119 0.0
H1267 H 0.58451 0.62446 0.83861 0.0
H1268 H 0.54597 0.63551 0.85446 0.0
H1269 H 0.55822 0.63525 0.79988 0.0
C1270 C 0.33366 0.66977 0.7943 0.0
C1271 C 0.31694 0.69196 0.81218 0.0
C1272 C 0.35111 0.6499 0.81895 0.0
C1273 C 0.35146 0.65208 0.86247 0.0
C1274 C 0.3345 0.67434 0.88058 0.0
C1275 C 0.31766 0.69402 0.85528 0.0
C1276 C 0.3692 0.62661 0.79848 0.0
C1277 C 0.33389 0.67724 0.92687 0.0
C1278 C 0.37076 0.58344 0.93513 0.0
C1279 C 0.4022 0.59118 0.94205 0.0
C1280 C 0.35406 0.60297 0.9092 0.0
C1281 C 0.36914 0.63091 0.88947 0.0
C1282 C 0.40067 0.63913 0.89689 0.0
C1283 C 0.41676 0.61925 0.92323 0.0
C1284 C 0.32031 0.5936 0.90267 0.0
C1285 C 0.41755 0.66876 0.87653 0.0
H1286 H 0.33329 0.66807 0.76109 0.0
H1287 H 0.30471 0.71096 0.86959 0.0
H1288 H 0.39451 0.62966 0.80387 0.0
H1289 H 0.36043 0.60335 0.81281 0.0
H1290 H 0.36711 0.62824 0.76421 0.0
H1291 H 0.31952 0.6958 0.93607 0.0
H1292 H 0.32408 0.65554 0.94527 0.0
H1293 H 0.35821 0.68177 0.93566 0.0
H1294 H 0.35927 0.56183 0.94951 0.0
H1295 H 0.44108 0.62539 0.92813 0.0
H1296 H 0.31791 0.5924 0.8689 0.0
H1297 H 0.30464 0.61089 0.91277 0.0
H1298 H 0.31197 0.57115 0.9203 0.0
H1299 H 0.41788 0.66985 0.84196 0.0
H1300 H 0.44222 0.6716 0.88498 0.0
H1301 H 0.40477 0.6882 0.88604 0.0
C1302 C 0.38628 0.3323 0.87813 0.0
C1303 C 0.38151 0.34417 0.83705 0.0
C1304 C 0.40546 0.34831 0.90266 0.0
C1305 C 0.42146 0.37631 0.88514 0.0
C1306 C 0.4188 0.38735 0.84269 0.0
C1307 C 0.39851 0.37128 0.81919 0.0
C1308 C 0.40729 0.33597 0.94795 0.0
C1309 C 0.43648 0.41664 0.8226 0.0
C1310 C 0.44288 0.43463 0.95765 0.0
C1311 C 0.47431 0.42927 0.96325 0.0
C1312 C 0.4252 0.41714 0.93289 0.0
C1313 C 0.43976 0.39459 0.91201 0.0
C1314 C 0.47145 0.38902 0.91771 0.0
C1315 C 0.4881 0.406 0.94402 0.0
C1316 C 0.39105 0.42295 0.92884 0.0
C1317 C 0.48809 0.36584 0.89495 0.0
H1318 H 0.37408 0.31081 0.89173 0.0
H1319 H 0.39505 0.38057 0.7875 0.0
H1320 H 0.43215 0.33353 0.95451 0.0
H1321 H 0.39774 0.35222 0.96859 0.0
H1322 H 0.39382 0.31351 0.95648 0.0
H1323 H 0.43472 0.42025 0.78825 0.0
H1324 H 0.42682 0.43616 0.83665 0.0
H1325 H 0.46174 0.41667 0.82852 0.0
H1326 H 0.43219 0.45268 0.97248 0.0
H1327 H 0.51238 0.40195 0.94781 0.0
H1328 H 0.37592 0.40149 0.9378 0.0
H1329 H 0.38763 0.43091 0.89579 0.0
H1330 H 0.38291 0.44028 0.94875 0.0
H1331 H 0.47577 0.3429 0.90353 0.0
H1332 H 0.51306 0.36478 0.90209 0.0
H1333 H 0.48751 0.37155 0.86065 0.0
C1334 C 0.71177 0.32912 0.83438 0.0
C1335 C 0.70295 0.32061 0.79602 0.0
C1336 C 0.69439 0.34877 0.8564 0.0
C1337 C 0.66761 0.36066 0.83956 0.0
C1338 C 0.65922 0.3533 0.80004 0.0
C1339 C 0.67694 0.33319 0.77874 0.0
C1340 C 0.70401 0.35574 0.89862 0.0
C1341 C 0.63097 0.36591 0.78094 0.0
C1342 C 0.60485 0.38028 0.91986 0.0
C1343 C 0.61102 0.41186 0.91876 0.0
C1344 C 0.62264 0.36355 0.89353 0.0
C1345 C 0.64719 0.37874 0.86518 0.0
C1346 C 0.6535 0.41064 0.86367 0.0
C1347 C 0.63539 0.42684 0.89063 0.0
C1348 C 0.61541 0.3295 0.89653 0.0
C1349 C 0.67947 0.42757 0.83376 0.0
H1350 H 0.73198 0.31984 0.84797 0.0
H1351 H 0.67008 0.3269 0.74906 0.0
H1352 H 0.70672 0.3807 0.89957 0.0
H1353 H 0.68532 0.34627 0.92344 0.0
H1354 H 0.72649 0.34602 0.90618 0.0
H1355 H 0.62935 0.3604 0.7484 0.0
H1356 H 0.6091 0.35635 0.80017 0.0
H1357 H 0.63202 0.39099 0.78076 0.0
H1358 H 0.586 0.3685 0.94137 0.0
H1359 H 0.64008 0.45128 0.8893 0.0
H1360 H 0.63615 0.31767 0.90647 0.0
H1361 H 0.61059 0.32283 0.8654 0.0
H1362 H 0.59479 0.32134 0.91917 0.0
H1363 H 0.7026 0.41956 0.84157 0.0
H1364 H 0.68022 0.45257 0.83477 0.0
H1365 H 0.67623 0.42281 0.80127 0.0
C1366 C 0.69355 0.3131 0.15042 0.0
C1367 C 0.69931 0.31863 0.19129 0.0
C1368 C 0.67796 0.33359 0.12447 0.0
C1369 C 0.66748 0.36018 0.13978 0.0
C1370 C 0.67241 0.36554 0.18136 0.0
C1371 C 0.68842 0.34477 0.20657 0.0
C1372 C 0.67336 0.32709 0.08029 0.0
C1373 C 0.66117 0.39345 0.19899 0.0
C1374 C 0.65506 0.4286 0.06205 0.0
C1375 C 0.6223 0.42588 0.06029 0.0
C1376 C 0.67012 0.40711 0.0873 0.0
C1377 C 0.65191 0.38263 0.11194 0.0
C1378 C 0.61887 0.37956 0.10984 0.0
C1379 C 0.60451 0.40104 0.08374 0.0
C1380 C 0.70549 0.41081 0.08803 0.0
C1381 C 0.59856 0.35401 0.13595 0.0
H1382 H 0.70186 0.29301 0.13819 0.0
H1383 H 0.69272 0.34922 0.23807 0.0
H1384 H 0.64798 0.32654 0.07501 0.0
H1385 H 0.68572 0.34559 0.05761 0.0
H1386 H 0.6824 0.3051 0.07341 0.0
H1387 H 0.66557 0.39363 0.23244 0.0
H1388 H 0.67338 0.41423 0.18078 0.0
H1389 H 0.63554 0.39467 0.19609 0.0
H1390 H 0.66892 0.44771 0.04397 0.0
H1391 H 0.57912 0.39892 0.08293 0.0
H1392 H 0.71609 0.38989 0.07965 0.0
H1393 H 0.71158 0.41408 0.1201 0.0
H1394 H 0.71634 0.4305 0.06604 0.0
H1395 H 0.60631 0.3317 0.1285 0.0
H1396 H 0.57319 0.35487 0.13076 0.0
H1397 H 0.60125 0.35519 0.16966 0.0
C1398 C 0.63747 0.68232 0.14418 0.0
C1399 C 0.63144 0.6708 0.1865 0.0
C1400 C 0.62207 0.66895 0.1133 0.0
C1401 C 0.59973 0.64384 0.1253 0.0
C1402 C 0.59284 0.63278 0.1683 0.0
C1403 C 0.60917 0.6462 0.19849 0.0
C1404 C 0.63063 0.68091 0.06782 0.0
C1405 C 0.56868 0.60641 0.1823 0.0
C1406 C 0.54146 0.62043 0.04962 0.0
C1407 C 0.55365 0.59376 0.03781 0.0
C1408 C 0.55646 0.63738 0.07761 0.0
C1409 C 0.58488 0.62796 0.09286 0.0
C1410 C 0.59854 0.60241 0.07845 0.0
C1411 C 0.58259 0.58544 0.05146 0.0
C1412 C 0.54099 0.6643 0.09266 0.0
C1413 C 0.62935 0.59219 0.09293 0.0
H1414 H 0.65502 0.70126 0.13521 0.0
H1415 H 0.60473 0.63744 0.23134 0.0
H1416 H 0.64171 0.6631 0.0514 0.0
H1417 H 0.60917 0.68642 0.05218 0.0
H1418 H 0.64727 0.7016 0.06394 0.0
H1419 H 0.56433 0.60215 0.21695 0.0
H1420 H 0.54605 0.61086 0.16891 0.0
H1421 H 0.57686 0.58545 0.17056 0.0
H1422 H 0.51933 0.62721 0.03887 0.0
H1423 H 0.59233 0.56502 0.04204 0.0
H1424 H 0.55787 0.68476 0.08813 0.0
H1425 H 0.53383 0.65943 0.12672 0.0
H1426 H 0.51979 0.6696 0.07616 0.0
H1427 H 0.64755 0.61161 0.08862 0.0
H1428 H 0.63821 0.57366 0.07578 0.0
H1429 H 0.62617 0.58385 0.12684 0.0
C1430 C 0.34846 0.68383 0.22737 0.0
C1431 C 0.32037 0.6931 0.21206 0.0
C1432 C 0.36778 0.66546 0.2051 0.0
C1433 C 0.35873 0.65635 0.16674 0.0
C1434 C 0.32994 0.66488 0.15194 0.0
C1435 C 0.31116 0.683 0.17477 0.0
C1436 C 0.39825 0.65654 0.22193 0.0
C1437 C 0.31943 0.65579 0.11114 0.0
C1438 C 0.42043 0.64002 0.08259 0.0
C1439 C 0.41692 0.60816 0.0853 0.0
C1440 C 0.40215 0.65589 0.1096 0.0
C1441 C 0.38 0.63951 0.1404 0.0
C1442 C 0.37656 0.60732 0.14364 0.0
C1443 C 0.39495 0.59201 0.11586 0.0
C1444 C 0.40617 0.69026 0.10466 0.0
C1445 C 0.35329 0.58909 0.17622 0.0
H1446 H 0.3557 0.69147 0.25614 0.0
H1447 H 0.28938 0.68977 0.1627 0.0
H1448 H 0.39971 0.63156 0.22328 0.0
H1449 H 0.41848 0.6675 0.20054 0.0
H1450 H 0.4007 0.66335 0.25368 0.0
H1451 H 0.29566 0.66311 0.10505 0.0
H1452 H 0.33647 0.66614 0.08479 0.0
H1453 H 0.31897 0.63074 0.11132 0.0
H1454 H 0.43742 0.65266 0.05914 0.0
H1455 H 0.3924 0.56737 0.11849 0.0
H1456 H 0.41151 0.69839 0.13478 0.0
H1457 H 0.38386 0.69973 0.09597 0.0
H1458 H 0.42532 0.6995 0.08029 0.0
H1459 H 0.35738 0.59534 0.20781 0.0
H1460 H 0.35492 0.56417 0.17644 0.0
H1461 H 0.32895 0.59449 0.17014 0.0
C1462 C 0.38996 0.39751 0.17 0.0
C1463 C 0.38288 0.38073 0.20947 0.0
C1464 C 0.41691 0.41758 0.16155 0.0
C1465 C 0.43652 0.42223 0.19407 0.0
C1466 C 0.42833 0.40719 0.23484 0.0
C1467 C 0.402 0.38603 0.24185 0.0
C1468 C 0.42487 0.43293 0.11726 0.0
C1469 C 0.4477 0.4124 0.27089 0.0
C1470 C 0.51653 0.44467 0.14109 0.0
C1471 C 0.51283 0.47534 0.12879 0.0
C1472 C 0.49334 0.42711 0.16816 0.0
C1473 C 0.46657 0.4411 0.18343 0.0
C1474 C 0.46595 0.47313 0.17701 0.0
C1475 C 0.48883 0.48995 0.14854 0.0
C1476 C 0.49512 0.39304 0.17479 0.0
C1477 C 0.43892 0.48901 0.19547 0.0
H1478 H 0.37474 0.39457 0.14522 0.0
H1479 H 0.39702 0.37315 0.27252 0.0
H1480 H 0.42464 0.45797 0.11667 0.0
H1481 H 0.44889 0.42796 0.10543 0.0
H1482 H 0.408 0.4254 0.0953 0.0
H1483 H 0.43249 0.40996 0.30086 0.0
H1484 H 0.46511 0.39496 0.27379 0.0
H1485 H 0.46063 0.43525 0.26648 0.0
H1486 H 0.53527 0.43362 0.12543 0.0
H1487 H 0.48629 0.51384 0.13888 0.0
H1488 H 0.47821 0.38209 0.15559 0.0
H1489 H 0.48848 0.38412 0.20802 0.0
H1490 H 0.5191 0.38633 0.16563 0.0
H1491 H 0.43043 0.47783 0.22729 0.0
H1492 H 0.41903 0.48784 0.17543 0.0
H1493 H 0.44589 0.5134 0.19724 0.0
C1494 C 0.79903 0.68381 0.65202 0.0
C1495 C 0.81168 0.71022 0.66677 0.0
C1496 C 0.81866 0.66347 0.63442 0.0
C1497 C 0.85182 0.66933 0.63214 0.0
C1498 C 0.8647 0.6965 0.64559 0.0
C1499 C 0.84449 0.71671 0.66244 0.0
C1500 C 0.80393 0.63513 0.61962 0.0
C1501 C 0.89991 0.70357 0.64393 0.0
C1502 C 0.90157 0.60097 0.63391 0.0
C1503 C 0.91252 0.6019 0.59165 0.0
C1504 C 0.88186 0.62278 0.64748 0.0
C1505 C 0.87296 0.64619 0.61803 0.0
C1506 C 0.88441 0.64744 0.57536 0.0
C1507 C 0.9043 0.62542 0.56287 0.0
C1508 C 0.87062 0.62082 0.69337 0.0
C1509 C 0.87573 0.67205 0.54294 0.0
H1510 H 0.7737 0.67866 0.65507 0.0
H1511 H 0.8545 0.73693 0.67401 0.0
H1512 H 0.81338 0.63317 0.58706 0.0
H1513 H 0.81009 0.61472 0.63959 0.0
H1514 H 0.77784 0.63497 0.62069 0.0
H1515 H 0.90616 0.72655 0.65287 0.0
H1516 H 0.91017 0.68642 0.66557 0.0
H1517 H 0.91102 0.70219 0.61199 0.0
H1518 H 0.90839 0.58305 0.65638 0.0
H1519 H 0.91425 0.62721 0.53084 0.0
H1520 H 0.84449 0.61811 0.69744 0.0
H1521 H 0.87803 0.64224 0.70589 0.0
H1522 H 0.87997 0.60149 0.71233 0.0
H1523 H 0.85 0.66955 0.53996 0.0
H1524 H 0.8884 0.67118 0.5117 0.0
H1525 H 0.8811 0.69486 0.55282 0.0
C1526 C 0.3449 0.81703 0.63948 0.0
C1527 C 0.33775 0.8138 0.68314 0.0
C1528 C 0.36627 0.84092 0.61874 0.0
C1529 C 0.38179 0.86191 0.64207 0.0
C1530 C 0.37587 0.85764 0.68637 0.0
C1531 C 0.35388 0.8341 0.70612 0.0
C1532 C 0.37178 0.84364 0.57169 0.0
C1533 C 0.39212 0.87862 0.71309 0.0
C1534 C 0.45175 0.91787 0.59114 0.0
C1535 C 0.43739 0.94551 0.58564 0.0
C1536 C 0.43414 0.8904 0.60898 0.0
C1537 C 0.4012 0.89021 0.62058 0.0
C1538 C 0.38653 0.91779 0.61289 0.0
C1539 C 0.40466 0.94482 0.59631 0.0
C1540 C 0.45086 0.86164 0.61599 0.0
C1541 C 0.35141 0.91885 0.6223 0.0
H1542 H 0.33288 0.80156 0.62118 0.0
H1543 H 0.34899 0.83188 0.73987 0.0
H1544 H 0.376 0.8677 0.55772 0.0
H1545 H 0.39297 0.83171 0.56318 0.0
H1546 H 0.35157 0.83293 0.55756 0.0
H1547 H 0.38801 0.87031 0.74702 0.0
H1548 H 0.41789 0.88104 0.70407 0.0
H1549 H 0.38329 0.90159 0.70786 0.0
H1550 H 0.47683 0.91786 0.58268 0.0
H1551 H 0.39291 0.96569 0.59125 0.0
H1552 H 0.44102 0.84448 0.59709 0.0
H1553 H 0.44683 0.85191 0.64939 0.0
H1554 H 0.47664 0.86557 0.6073 0.0
H1555 H 0.33858 0.90107 0.60713 0.0
H1556 H 0.34309 0.94134 0.61126 0.0
H1557 H 0.3451 0.914 0.65655 0.0
C1558 C 0.21077 0.3058 0.62929 0.0
C1559 C 0.22289 0.31599 0.6648 0.0
C1560 C 0.19004 0.32292 0.60622 0.0
C1561 C 0.18007 0.35021 0.62016 0.0
C1562 C 0.19243 0.36062 0.65602 0.0
C1563 C 0.21408 0.34361 0.67752 0.0
C1564 C 0.17836 0.31149 0.56745 0.0
C1565 C 0.18192 0.38918 0.67259 0.0
C1566 C 0.14811 0.41157 0.54691 0.0
C1567 C 0.11534 0.40631 0.55626 0.0
C1568 C 0.16918 0.39268 0.56601 0.0
C1569 C 0.15745 0.36839 0.59666 0.0
C1570 C 0.12432 0.3625 0.60584 0.0
C1571 C 0.10358 0.38129 0.585 0.0
C1572 C 0.20413 0.39916 0.554 0.0
C1573 C 0.11087 0.33726 0.63905 0.0
H1574 H 0.21704 0.28405 0.62007 0.0
H1575 H 0.22261 0.35093 0.70583 0.0
H1576 H 0.15253 0.30576 0.57228 0.0
H1577 H 0.18274 0.32954 0.54044 0.0
H1578 H 0.18992 0.29095 0.55931 0.0
H1579 H 0.19279 0.39354 0.70173 0.0
H1580 H 0.18819 0.40911 0.64867 0.0
H1581 H 0.1559 0.38731 0.67918 0.0
H1582 H 0.15746 0.43095 0.52485 0.0
H1583 H 0.07835 0.37739 0.59279 0.0
H1584 H 0.2142 0.37862 0.54333 0.0
H1585 H 0.21631 0.40469 0.5816 0.0
H1586 H 0.20939 0.4184 0.52868 0.0
H1587 H 0.11974 0.31525 0.63214 0.0
H1588 H 0.08469 0.33496 0.64161 0.0
H1589 H 0.11879 0.34182 0.66985 0.0
C1590 C 0.63991 0.18834 0.58548 0.0
C1591 C 0.66858 0.18208 0.60176 0.0
C1592 C 0.62177 0.16566 0.56854 0.0
C1593 C 0.63205 0.1357 0.56931 0.0
C1594 C 0.66163 0.12984 0.58427 0.0
C1595 C 0.67999 0.15338 0.59813 0.0
C1596 C 0.59167 0.17441 0.55043 0.0
C1597 C 0.67406 0.09856 0.58761 0.0
C1598 C 0.56994 0.06932 0.57199 0.0
C1599 C 0.5796 0.05646 0.53577 0.0
C1600 C 0.58635 0.09549 0.58287 0.0
C1601 C 0.61214 0.1101 0.5558 0.0
C1602 C 0.62104 0.09782 0.51826 0.0
C1603 C 0.60514 0.07089 0.5092 0.0
C1604 C 0.57682 0.10673 0.62418 0.0
C1605 C 0.64796 0.11231 0.48783 0.0
H1606 H 0.63099 0.21051 0.58736 0.0
H1607 H 0.70285 0.14858 0.60862 0.0
H1608 H 0.57648 0.15475 0.5433 0.0
H1609 H 0.5779 0.18716 0.57237 0.0
H1610 H 0.59774 0.18997 0.52102 0.0
H1611 H 0.68762 0.09481 0.61551 0.0
H1612 H 0.65516 0.07988 0.5899 0.0
H1613 H 0.69061 0.09697 0.55977 0.0
H1614 H 0.55026 0.05823 0.59272 0.0
H1615 H 0.6126 0.06133 0.48085 0.0
H1616 H 0.56673 0.12908 0.61848 0.0
H1617 H 0.59774 0.10998 0.64203 0.0
H1618 H 0.55896 0.09074 0.64382 0.0
H1619 H 0.64307 0.10915 0.45536 0.0
H1620 H 0.66968 0.10083 0.49409 0.0
H1621 H 0.65245 0.13701 0.48988 0.0
C1622 C 0.80701 0.37972 0.42047 0.0
C1623 C 0.81329 0.37244 0.37971 0.0
C1624 C 0.82737 0.40076 0.43692 0.0
C1625 C 0.85423 0.41505 0.41164 0.0
C1626 C 0.85944 0.40897 0.36962 0.0
C1627 C 0.83903 0.38764 0.35429 0.0
C1628 C 0.8201 0.40726 0.48141 0.0
C1629 C 0.88715 0.4243 0.34116 0.0
C1630 C 0.89573 0.48626 0.44363 0.0
C1631 C 0.92277 0.47491 0.45958 0.0
C1632 C 0.87331 0.46711 0.42773 0.0
C1633 C 0.87753 0.43566 0.42909 0.0
C1634 C 0.90453 0.42396 0.44613 0.0
C1635 C 0.92718 0.44388 0.4605 0.0
C1636 C 0.8451 0.48055 0.40953 0.0
C1637 C 0.90906 0.39033 0.45009 0.0
H1638 H 0.78708 0.36797 0.44005 0.0
H1639 H 0.8437 0.3821 0.32257 0.0
H1640 H 0.84187 0.41213 0.49683 0.0
H1641 H 0.80626 0.42757 0.4813 0.0
H1642 H 0.80579 0.38793 0.50035 0.0
H1643 H 0.88652 0.41876 0.30848 0.0
H1644 H 0.88754 0.44937 0.34089 0.0
H1645 H 0.90945 0.41702 0.35311 0.0
H1646 H 0.89228 0.51028 0.44322 0.0
H1647 H 0.94776 0.43507 0.47378 0.0
H1648 H 0.82321 0.47068 0.4284 0.0
H1649 H 0.84348 0.47471 0.37717 0.0
H1650 H 0.84616 0.50571 0.40878 0.0
H1651 H 0.88845 0.37755 0.46889 0.0
H1652 H 0.93076 0.38476 0.46527 0.0
H1653 H 0.91043 0.38232 0.41868 0.0
C1654 C 0.67725 0.80596 0.35706 0.0
C1655 C 0.70491 0.81608 0.33144 0.0
C1656 C 0.65884 0.82668 0.37621 0.0
C1657 C 0.66775 0.85836 0.3686 0.0
C1658 C 0.69607 0.86856 0.3436 0.0
C1659 C 0.71442 0.84734 0.32582 0.0
C1660 C 0.62924 0.81471 0.4034 0.0
C1661 C 0.70616 0.90207 0.33364 0.0
C1662 C 0.60191 0.91216 0.37112 0.0
C1663 C 0.60533 0.92495 0.40858 0.0
C1664 C 0.62212 0.89073 0.35785 0.0
C1665 C 0.64604 0.881 0.38311 0.0
C1666 C 0.64953 0.89358 0.42118 0.0
C1667 C 0.62953 0.91582 0.43305 0.0
C1668 C 0.61804 0.87874 0.31642 0.0
C1669 C 0.67436 0.88358 0.4494 0.0
H1670 H 0.66976 0.78189 0.36175 0.0
H1671 H 0.73564 0.8555 0.30588 0.0
H1672 H 0.62727 0.8262 0.43219 0.0
H1673 H 0.60834 0.81965 0.38616 0.0
H1674 H 0.62858 0.78973 0.41246 0.0
H1675 H 0.72971 0.90621 0.31581 0.0
H1676 H 0.6887 0.91342 0.3148 0.0
H1677 H 0.70686 0.91299 0.36285 0.0
H1678 H 0.58355 0.9192 0.35162 0.0
H1679 H 0.63258 0.92568 0.46181 0.0
H1680 H 0.61253 0.85373 0.32144 0.0
H1681 H 0.64033 0.88321 0.29576 0.0
H1682 H 0.5989 0.88926 0.29988 0.0
H1683 H 0.67368 0.85837 0.45449 0.0
H1684 H 0.67128 0.89239 0.48025 0.0
H1685 H 0.69806 0.89197 0.43433 0.0
C1686 C 0.19983 0.66558 0.36547 0.0
C1687 C 0.19468 0.68612 0.33063 0.0
C1688 C 0.17614 0.64277 0.38353 0.0
C1689 C 0.14623 0.64047 0.36697 0.0
C1690 C 0.14065 0.66191 0.33285 0.0
C1691 C 0.16476 0.68404 0.31508 0.0
C1692 C 0.18356 0.62043 0.4195 0.0
C1693 C 0.10923 0.66116 0.31442 0.0
C1694 C 0.09757 0.56342 0.37741 0.0
C1695 C 0.07473 0.56517 0.41099 0.0
C1696 C 0.12086 0.58735 0.36352 0.0
C1697 C 0.12162 0.6145 0.38292 0.0
C1698 C 0.09836 0.61681 0.41638 0.0
C1699 C 0.07541 0.59224 0.43004 0.0
C1700 C 0.1451 0.58327 0.32826 0.0
C1701 C 0.0974 0.64536 0.43765 0.0
H1702 H 0.22267 0.66672 0.37791 0.0
H1703 H 0.16007 0.69985 0.28855 0.0
H1704 H 0.16332 0.61628 0.44372 0.0
H1705 H 0.18792 0.59833 0.40789 0.0
H1706 H 0.20477 0.62845 0.43419 0.0
H1707 H 0.10774 0.68057 0.28987 0.0
H1708 H 0.10524 0.63966 0.30038 0.0
H1709 H 0.08992 0.66167 0.33944 0.0
H1710 H 0.09788 0.5428 0.36233 0.0
H1711 H 0.05835 0.59409 0.45621 0.0
H1712 H 0.16915 0.58608 0.33877 0.0
H1713 H 0.14365 0.60101 0.30148 0.0
H1714 H 0.14195 0.56056 0.31705 0.0
H1715 H 0.12148 0.65494 0.44173 0.0
H1716 H 0.08365 0.6412 0.46875 0.0
H1717 H 0.08606 0.66279 0.41775 0.0
C1718 C 0.29398 0.19829 0.37728 0.0
C1719 C 0.30624 0.22035 0.34443 0.0
C1720 C 0.31411 0.18104 0.40114 0.0
C1721 C 0.34716 0.18537 0.39099 0.0
C1722 C 0.35966 0.20885 0.3595 0.0
C1723 C 0.33905 0.22629 0.33695 0.0
C1724 C 0.29993 0.15689 0.43546 0.0
C1725 C 0.39465 0.21385 0.347 0.0
C1726 C 0.4028 0.14372 0.46041 0.0
C1727 C 0.40513 0.11686 0.44169 0.0
C1728 C 0.38387 0.1664 0.44451 0.0
C1729 C 0.368 0.16237 0.40832 0.0
C1730 C 0.37159 0.13579 0.38838 0.0
C1731 C 0.38967 0.11321 0.40571 0.0
C1732 C 0.38024 0.19422 0.46691 0.0
C1733 C 0.35586 0.13089 0.34907 0.0
H1734 H 0.26865 0.19385 0.38352 0.0
H1735 H 0.34875 0.24329 0.31157 0.0
H1736 H 0.30217 0.13406 0.42503 0.0
H1737 H 0.31275 0.1577 0.46396 0.0
H1738 H 0.27457 0.15951 0.44376 0.0
H1739 H 0.40088 0.23561 0.32646 0.0
H1740 H 0.40811 0.21384 0.37498 0.0
H1741 H 0.40231 0.19491 0.3298 0.0
H1742 H 0.41464 0.14642 0.48837 0.0
H1743 H 0.39164 0.09245 0.39114 0.0
H1744 H 0.35488 0.19706 0.4747 0.0
H1745 H 0.39009 0.21486 0.44613 0.0
H1746 H 0.39236 0.19292 0.49618 0.0
H1747 H 0.32987 0.12921 0.35589 0.0
H1748 H 0.36265 0.10985 0.33608 0.0
H1749 H 0.36219 0.15055 0.32471 0.0
C1750 C 0.71461 0.82517 0.62223 0.0
C1751 C 0.70166 0.80333 0.6549 0.0
C1752 C 0.69506 0.84309 0.59828 0.0
C1753 C 0.66193 0.83978 0.6083 0.0
C1754 C 0.64878 0.81711 0.64053 0.0
C1755 C 0.66878 0.79886 0.66294 0.0
C1756 C 0.70985 0.86615 0.56299 0.0
C1757 C 0.6138 0.81356 0.65348 0.0
C1758 C 0.62022 0.91209 0.58833 0.0
C1759 C 0.60425 0.90699 0.5532 0.0
C1760 C 0.63839 0.89008 0.60695 0.0
C1761 C 0.64155 0.86255 0.58919 0.0
C1762 C 0.62516 0.85704 0.55391 0.0
C1763 C 0.60623 0.87923 0.53662 0.0
C1764 C 0.6545 0.89651 0.64542 0.0
C1765 C 0.62835 0.82816 0.5338 0.0
H1766 H 0.74001 0.82843 0.61573 0.0
H1767 H 0.65866 0.78218 0.68849 0.0
H1768 H 0.69991 0.86162 0.53338 0.0
H1769 H 0.70422 0.88943 0.56897 0.0
H1770 H 0.73588 0.86556 0.55871 0.0
H1771 H 0.60701 0.79292 0.67609 0.0
H1772 H 0.60686 0.83379 0.66837 0.0
H1773 H 0.60015 0.81232 0.62583 0.0
H1774 H 0.61851 0.93352 0.6013 0.0
H1775 H 0.59413 0.87546 0.50915 0.0
H1776 H 0.68045 0.89784 0.63833 0.0
H1777 H 0.6482 0.87771 0.67108 0.0
H1778 H 0.64799 0.91819 0.6568 0.0
H1779 H 0.65334 0.82663 0.52234 0.0
H1780 H 0.61353 0.82706 0.50718 0.0
H1781 H 0.62154 0.80799 0.55712 0.0
C1782 C 0.68971 0.17192 0.33937 0.0
C1783 C 0.68222 0.20085 0.32277 0.0
C1784 C 0.66613 0.14891 0.35609 0.0
C1785 C 0.63361 0.15441 0.35545 0.0
C1786 C 0.626 0.18381 0.33829 0.0
C1787 C 0.6503 0.20668 0.32293 0.0
C1788 C 0.67714 0.11875 0.37352 0.0
C1789 C 0.59231 0.19142 0.33469 0.0
C1790 C 0.58263 0.07904 0.3618 0.0
C1791 C 0.56671 0.07627 0.40216 0.0
C1792 C 0.60256 0.10507 0.34544 0.0
C1793 C 0.60811 0.12899 0.37034 0.0
C1794 C 0.59046 0.12731 0.41005 0.0
C1795 C 0.56982 0.10123 0.4252 0.0
C1796 C 0.61855 0.10637 0.30174 0.0
C1797 C 0.59359 0.15267 0.43726 0.0
H1798 H 0.71431 0.16706 0.33894 0.0
H1799 H 0.64424 0.22881 0.3094 0.0
H1800 H 0.65785 0.10117 0.38509 0.0
H1801 H 0.69247 0.10981 0.349 0.0
H1802 H 0.69189 0.12235 0.39964 0.0
H1803 H 0.59042 0.20722 0.30588 0.0
H1804 H 0.57598 0.17096 0.33416 0.0
H1805 H 0.58449 0.20328 0.36175 0.0
H1806 H 0.58014 0.06034 0.34307 0.0
H1807 H 0.55745 0.09976 0.45613 0.0
H1808 H 0.64337 0.10074 0.30355 0.0
H1809 H 0.6187 0.12959 0.28469 0.0
H1810 H 0.60677 0.08989 0.28337 0.0
H1811 H 0.61802 0.1634 0.4345 0.0
H1812 H 0.58648 0.14439 0.47064 0.0
H1813 H 0.57773 0.17042 0.42736 0.0
C1814 C 0.79787 0.67461 0.34359 0.0
C1815 C 0.79555 0.70539 0.34843 0.0
C1816 C 0.81978 0.65759 0.36447 0.0
C1817 C 0.83911 0.67144 0.39192 0.0
C1818 C 0.83579 0.70219 0.39832 0.0
C1819 C 0.81447 0.71895 0.3759 0.0
C1820 C 0.82308 0.62511 0.35592 0.0
C1821 C 0.85493 0.71745 0.42858 0.0
C1822 C 0.87322 0.61463 0.46952 0.0
C1823 C 0.9043 0.61422 0.45195 0.0
C1824 C 0.85245 0.63454 0.4518 0.0
C1825 C 0.86244 0.65348 0.41418 0.0
C1826 C 0.89408 0.65359 0.39662 0.0
C1827 C 0.91488 0.63426 0.4162 0.0
C1828 C 0.81949 0.63451 0.47269 0.0
C1829 C 0.90541 0.67283 0.35591 0.0
H1830 H 0.78384 0.66431 0.32157 0.0
H1831 H 0.81289 0.74286 0.37937 0.0
H1832 H 0.8477 0.62243 0.34382 0.0
H1833 H 0.81797 0.60947 0.38537 0.0
H1834 H 0.80698 0.618 0.33279 0.0
H1835 H 0.84959 0.74153 0.42994 0.0
H1836 H 0.85007 0.70489 0.46043 0.0
H1837 H 0.88047 0.71686 0.41947 0.0
H1838 H 0.86502 0.59902 0.49719 0.0
H1839 H 0.93872 0.63348 0.4022 0.0
H1840 H 0.80235 0.62395 0.45349 0.0
H1841 H 0.81319 0.65816 0.47518 0.0
H1842 H 0.81689 0.62166 0.50455 0.0
H1843 H 0.89209 0.66512 0.33036 0.0
H1844 H 0.93097 0.67148 0.34739 0.0
H1845 H 0.90086 0.69699 0.3579 0.0
C1846 C 0.37256 0.82902 0.42326 0.0
C1847 C 0.34878 0.8323 0.396 0.0
C1848 C 0.38803 0.85472 0.43688 0.0
C1849 C 0.38018 0.88433 0.42167 0.0
C1850 C 0.35619 0.88756 0.39392 0.0
C1851 C 0.34056 0.8615 0.38184 0.0
C1852 C 0.41313 0.85008 0.46688 0.0
C1853 C 0.34748 0.91857 0.37625 0.0
C1854 C 0.40016 0.95343 0.4779 0.0
C1855 C 0.42839 0.96595 0.45532 0.0
C1856 C 0.38467 0.92649 0.4681 0.0
C1857 C 0.39725 0.912 0.43415 0.0
C1858 C 0.42572 0.92459 0.41118 0.0
C1859 C 0.44111 0.95115 0.42235 0.0
C1860 C 0.35441 0.91419 0.49366 0.0
C1861 C 0.43956 0.91039 0.37413 0.0
H1862 H 0.37902 0.80639 0.43392 0.0
H1863 H 0.32238 0.86392 0.36031 0.0
H1864 H 0.4367 0.85401 0.44922 0.0
H1865 H 0.41198 0.86646 0.49046 0.0
H1866 H 0.41099 0.82657 0.48343 0.0
H1867 H 0.32934 0.91718 0.35355 0.0
H1868 H 0.33828 0.93103 0.40201 0.0
H1869 H 0.36872 0.93215 0.3603 0.0
H1870 H 0.39019 0.96457 0.5036 0.0
H1871 H 0.46288 0.96066 0.40467 0.0
H1872 H 0.35117 0.88901 0.49615 0.0
H1873 H 0.3342 0.92356 0.47833 0.0
H1874 H 0.35364 0.92117 0.52571 0.0
H1875 H 0.44512 0.88676 0.38424 0.0
H1876 H 0.46142 0.92337 0.35889 0.0
H1877 H 0.42208 0.90919 0.35056 0.0
C1878 C 0.20871 0.34799 0.31658 0.0
C1879 C 0.20305 0.31635 0.32635 0.0
C1880 C 0.19009 0.36806 0.33641 0.0
C1881 C 0.16559 0.35627 0.36737 0.0
C1882 C 0.16093 0.32442 0.37902 0.0
C1883 C 0.17943 0.30481 0.35798 0.0
C1884 C 0.19587 0.40186 0.32315 0.0
C1885 C 0.13587 0.31106 0.41298 0.0
C1886 C 0.12824 0.41211 0.43479 0.0
C1887 C 0.10033 0.41709 0.41577 0.0
C1888 C 0.14956 0.39202 0.42002 0.0
C1889 C 0.14313 0.37706 0.38469 0.0
C1890 C 0.11523 0.38241 0.36496 0.0
C1891 C 0.09407 0.402 0.38099 0.0
C1892 C 0.17846 0.38643 0.44302 0.0
C1893 C 0.10786 0.3677 0.32646 0.0
H1894 H 0.22693 0.35709 0.2922 0.0
H1895 H 0.17518 0.28039 0.36605 0.0
H1896 H 0.17482 0.41062 0.30922 0.0
H1897 H 0.19965 0.41397 0.35084 0.0
H1898 H 0.21665 0.40748 0.29987 0.0
H1899 H 0.13696 0.28612 0.4208 0.0
H1900 H 0.1385 0.32223 0.44174 0.0
H1901 H 0.1122 0.31538 0.40279 0.0
H1902 H 0.13337 0.42383 0.46134 0.0
H1903 H 0.07276 0.40586 0.36567 0.0
H1904 H 0.18469 0.40552 0.46109 0.0
H1905 H 0.19915 0.38317 0.42136 0.0
H1906 H 0.17357 0.36541 0.46539 0.0
H1907 H 0.12731 0.37382 0.30133 0.0
H1908 H 0.08552 0.37475 0.31425 0.0
H1909 H 0.10598 0.34256 0.33377 0.0
C1910 C 0.30967 0.20159 0.63877 0.0
C1911 C 0.3166 0.20758 0.67892 0.0
C1912 C 0.32692 0.18136 0.61701 0.0
C1913 C 0.35055 0.16554 0.63678 0.0
C1914 C 0.35732 0.17141 0.67763 0.0
C1915 C 0.34066 0.19276 0.69785 0.0
C1916 C 0.31946 0.17661 0.57314 0.0
C1917 C 0.38146 0.15439 0.7006 0.0
C1918 C 0.37425 0.0903 0.60073 0.0
C1919 C 0.40451 0.09873 0.58111 0.0
C1920 C 0.35612 0.11188 0.6184 0.0
C1921 C 0.36818 0.14278 0.6151 0.0
C1922 C 0.39803 0.15156 0.59301 0.0
C1923 C 0.41612 0.12931 0.57727 0.0
C1924 C 0.32483 0.10132 0.64253 0.0
C1925 C 0.41134 0.1843 0.5871 0.0
H1926 H 0.29072 0.21276 0.6244 0.0
H1927 H 0.34544 0.19684 0.72935 0.0
H1928 H 0.34145 0.17641 0.5524 0.0
H1929 H 0.30608 0.15425 0.57364 0.0
H1930 H 0.30509 0.19456 0.55943 0.0
H1931 H 0.383 0.16064 0.73282 0.0
H1932 H 0.37538 0.1295 0.70264 0.0
H1933 H 0.40503 0.1592 0.6831 0.0
H1934 H 0.36552 0.06654 0.60433 0.0
H1935 H 0.43963 0.13578 0.56224 0.0
H1936 H 0.30587 0.11446 0.62966 0.0
H1937 H 0.32569 0.10555 0.6757 0.0
H1938 H 0.31851 0.0767 0.64164 0.0
H1939 H 0.39321 0.19961 0.57667 0.0
H1940 H 0.43225 0.1881 0.56379 0.0
H1941 H 0.41846 0.19085 0.61737 0.0
C1942 C 0.85348 0.3256 0.69622 0.0
C1943 C 0.82419 0.32164 0.6794 0.0
C1944 C 0.87662 0.34894 0.67911 0.0
C1945 C 0.87066 0.36961 0.64429 0.0
C1946 C 0.84137 0.36547 0.62665 0.0
C1947 C 0.81872 0.34152 0.64405 0.0
C1948 C 0.9073 0.35186 0.6991 0.0
C1949 C 0.83363 0.3869 0.58992 0.0
C1950 C 0.91382 0.44946 0.63336 0.0
C1951 C 0.93739 0.44887 0.60029 0.0
C1952 C 0.89222 0.42416 0.64749 0.0
C1953 C 0.89392 0.3968 0.62875 0.0
C1954 C 0.91807 0.39565 0.59597 0.0
C1955 C 0.93927 0.42157 0.58204 0.0
C1956 C 0.86698 0.42702 0.68211 0.0
C1957 C 0.92121 0.36714 0.57501 0.0
H1958 H 0.85836 0.31047 0.72335 0.0
H1959 H 0.79634 0.33896 0.63068 0.0
H1960 H 0.92751 0.35283 0.67497 0.0
H1961 H 0.90903 0.3734 0.71355 0.0
H1962 H 0.90951 0.33266 0.72371 0.0
H1963 H 0.81008 0.38081 0.57953 0.0
H1964 H 0.83417 0.41053 0.59826 0.0
H1965 H 0.85175 0.38662 0.5634 0.0
H1966 H 0.91163 0.4702 0.64787 0.0
H1967 H 0.95687 0.42063 0.55616 0.0
H1968 H 0.86921 0.40982 0.70926 0.0
H1969 H 0.84333 0.42248 0.67112 0.0
H1970 H 0.86826 0.44995 0.69293 0.0
H1971 H 0.92184 0.34714 0.59885 0.0
H1972 H 0.94277 0.36872 0.55292 0.0
H1973 H 0.9004 0.36303 0.55733 0.0
C1974 C 0.18353 0.66025 0.58118 0.0
C1975 C 0.20252 0.65171 0.61336 0.0
C1976 C 0.16192 0.63905 0.56767 0.0
C1977 C 0.15898 0.60863 0.58712 0.0
C1978 C 0.1789 0.59961 0.61864 0.0
C1979 C 0.20058 0.62129 0.63129 0.0
C1980 C 0.14164 0.64941 0.53334 0.0
C1981 C 0.17651 0.56736 0.64002 0.0
C1982 C 0.08208 0.56149 0.57927 0.0
C1983 C 0.09078 0.54424 0.54697 0.0
C1984 C 0.10412 0.58241 0.59299 0.0
C1985 C 0.13545 0.58618 0.57379 0.0
C1986 C 0.14421 0.56902 0.54098 0.0
C1987 C 0.12188 0.54828 0.52811 0.0
C1988 C 0.09396 0.60042 0.62806 0.0
C1989 C 0.17733 0.57216 0.51973 0.0
H1990 H 0.18496 0.68383 0.56743 0.0
H1991 H 0.21484 0.61481 0.65671 0.0
H1992 H 0.1425 0.63373 0.50891 0.0
H1993 H 0.11674 0.64884 0.54642 0.0
H1994 H 0.14912 0.67287 0.51838 0.0
H1995 H 0.194 0.56391 0.6635 0.0
H1996 H 0.15251 0.56156 0.65601 0.0
H1997 H 0.18018 0.55123 0.6165 0.0
H1998 H 0.05817 0.55853 0.59398 0.0
H1999 H 0.129 0.53515 0.50306 0.0
H2000 H 0.09685 0.62512 0.61685 0.0
H2001 H 0.10918 0.59639 0.65414 0.0
H2002 H 0.069 0.59437 0.64035 0.0
H2003 H 0.18594 0.59647 0.51207 0.0
H2004 H 0.17892 0.5611 0.49047 0.0
H2005 H 0.19342 0.56138 0.5413 0.0
loop_
_geom_bond_atom_site_label_1
_geom_bond_atom_site_label_2
_geom_bond_distance
_geom_bond_site_symmetry_2
_ccdc_geom_bond_type
C0 O16 1.251 . S
C0 O18 1.254 . S
N1 C2 1.333 . S
N1 C6 1.307 . S
N1 Zn7 2.020 . S
C2 N1 1.333 . S
C2 C3 1.379 . S
C2 H20 0.952 . S
C3 C2 1.379 . S
C3 C4 1.390 . S
C3 H30 0.949 . S
C4 C3 1.390 . S
C4 C5 1.357 . S
C5 C4 1.357 . S
C5 C6 1.370 . S
C5 H31 0.950 . S
C6 N1 1.307 . S
C6 C5 1.370 . S
C6 H24 0.948 . S
Zn7 N1 2.020 . S
Zn7 O16 2.039 . S
Zn7 O22 2.034 . S
Zn7 O26 2.025 . S
Zn7 O28 2.024 . S
C8 O27 1.246 . S
C8 O28 1.249 . S
N9 C10 1.307 . S
N9 C11 1.333 . S
N9 Zn15 2.020 . S
C10 N9 1.307 . S
C10 C14 1.370 . S
C10 H21 0.948 . S
C11 N9 1.333 . S
C11 C12 1.379 . S
C11 H19 0.952 . S
C12 C11 1.379 . S
C12 C13 1.390 . S
C12 H32 0.949 . S
C13 C12 1.390 . S
C13 C14 1.357 . S
C14 C10 1.370 . S
C14 C13 1.357 . S
C14 H33 0.950 . S
Zn15 N9 2.020 . S
Zn15 O18 2.025 . S
Zn15 O23 2.024 . S
Zn15 O25 2.039 . S
Zn15 O27 2.034 . S
O16 C0 1.251 . S
O16 Zn7 2.039 . S
C17 O22 1.246 . S
C17 O23 1.249 . S
O18 C0 1.254 . S
O18 Zn15 2.025 . S
H19 C11 0.952 . S
H20 C2 0.952 . S
H21 C10 0.948 . S
O22 Zn7 2.034 . S
O22 C17 1.246 . S
O23 Zn15 2.024 . S
O23 C17 1.249 . S
H24 C6 0.948 . S
O25 Zn15 2.039 . S
O25 C29 1.251 . S
O26 Zn7 2.025 . S
O26 C29 1.254 . S
O27 C8 1.246 . S
O27 Zn15 2.034 . S
O28 Zn7 2.024 . S
O28 C8 1.249 . S
C29 O25 1.251 . S
C29 O26 1.254 . S
H30 C3 0.949 . S
H31 C5 0.950 . S
H32 C12 0.949 . S
H33 C14 0.950 . S
C34 O50 1.251 . S
C34 O52 1.254 . S
N35 C36 1.333 . S
N35 C40 1.307 . S
N35 Zn41 2.020 . S
C36 N35 1.333 . S
C36 C37 1.379 . S
C36 H54 0.952 . S
C37 C36 1.379 . S
C37 C38 1.390 . S
C37 H64 0.949 . S
C38 C37 1.390 . S
C38 C39 1.357 . S
C39 C38 1.357 . S
C39 C40 1.370 . S
C39 H65 0.950 . S
C40 N35 1.307 . S
C40 C39 1.370 . S
C40 H58 0.948 . S
Zn41 N35 2.020 . S
Zn41 O50 2.039 . S
Zn41 O56 2.034 . S
Zn41 O60 2.025 . S
Zn41 O62 2.024 . S
C42 O61 1.246 . S
C42 O62 1.249 . S
N43 C44 1.307 . S
N43 C45 1.333 . S
N43 Zn49 2.020 . S
C44 N43 1.307 . S
C44 C48 1.370 . S
C44 H55 0.948 . S
C45 N43 1.333 . S
C45 C46 1.379 . S
C45 H53 0.952 . S
C46 C45 1.379 . S
C46 C47 1.390 . S
C46 H66 0.949 . S
C47 C46 1.390 . S
C47 C48 1.357 . S
C48 C44 1.370 . S
C48 C47 1.357 . S
C48 H67 0.950 . S
Zn49 N43 2.020 . S
Zn49 O52 2.025 . S
Zn49 O57 2.024 . S
Zn49 O59 2.039 . S
Zn49 O61 2.034 . S
O50 C34 1.251 . S
O50 Zn41 2.039 . S
C51 O56 1.246 . S
C51 O57 1.249 . S
O52 C34 1.254 . S
O52 Zn49 2.025 . S
H53 C45 0.952 . S
H54 C36 0.952 . S
H55 C44 0.948 . S
O56 Zn41 2.034 . S
O56 C51 1.246 . S
O57 Zn49 2.024 . S
O57 C51 1.249 . S
H58 C40 0.948 . S
O59 Zn49 2.039 . S
O59 C63 1.251 . S
O60 Zn41 2.025 . S
O60 C63 1.254 . S
O61 C42 1.246 . S
O61 Zn49 2.034 . S
O62 Zn41 2.024 . S
O62 C42 1.249 . S
C63 O59 1.251 . S
C63 O60 1.254 . S
H64 C37 0.949 . S
H65 C39 0.950 . S
H66 C46 0.949 . S
H67 C48 0.950 . S
C68 O84 1.251 . S
C68 O86 1.254 . S
N69 C70 1.333 . S
N69 C74 1.307 . S
N69 Zn75 2.020 . S
C70 N69 1.333 . S
C70 C71 1.379 . S
C70 H88 0.952 . S
C71 C70 1.379 . S
C71 C72 1.390 . S
C71 H98 0.949 . S
C72 C71 1.390 . S
C72 C73 1.357 . S
C73 C72 1.357 . S
C73 C74 1.370 . S
C73 H99 0.950 . S
C74 N69 1.307 . S
C74 C73 1.370 . S
C74 H92 0.948 . S
Zn75 N69 2.020 . S
Zn75 O84 2.039 . S
Zn75 O90 2.034 . S
Zn75 O94 2.025 . S
Zn75 O96 2.024 . S
C76 O95 1.246 . S
C76 O96 1.249 . S
N77 C78 1.307 . S
N77 C79 1.333 . S
N77 Zn83 2.020 . S
C78 N77 1.307 . S
C78 C82 1.370 . S
C78 H89 0.948 . S
C79 N77 1.333 . S
C79 C80 1.379 . S
C79 H87 0.952 . S
C80 C79 1.379 . S
C80 C81 1.390 . S
C80 H100 0.949 . S
C81 C80 1.390 . S
C81 C82 1.357 . S
C82 C78 1.370 . S
C82 C81 1.357 . S
C82 H101 0.950 . S
Zn83 N77 2.020 . S
Zn83 O86 2.025 . S
Zn83 O91 2.024 . S
Zn83 O93 2.039 . S
Zn83 O95 2.034 . S
O84 C68 1.251 . S
O84 Zn75 2.039 . S
C85 O90 1.246 . S
C85 O91 1.249 . S
O86 C68 1.254 . S
O86 Zn83 2.025 . S
H87 C79 0.952 . S
H88 C70 0.952 . S
H89 C78 0.948 . S
O90 Zn75 2.034 . S
O90 C85 1.246 . S
O91 Zn83 2.024 . S
O91 C85 1.249 . S
H92 C74 0.948 . S
O93 Zn83 2.039 . S
O93 C97 1.251 . S
O94 Zn75 2.025 . S
O94 C97 1.254 . S
O95 C76 1.246 . S
O95 Zn83 2.034 . S
O96 Zn75 2.024 . S
O96 C76 1.249 . S
C97 O93 1.251 . S
C97 O94 1.254 . S
H98 C71 0.949 . S
H99 C73 0.950 . S
H100 C80 0.949 . S
H101 C82 0.950 . S
C102 O118 1.251 . S
C102 O120 1.254 . S
N103 C104 1.333 . S
N103 C108 1.307 . S
N103 Zn109 2.020 . S
C104 N103 1.333 . S
C104 C105 1.379 . S
C104 H122 0.952 . S
C105 C104 1.379 . S
C105 C106 1.390 . S
C105 H132 0.949 . S
C106 C105 1.390 . S
C106 C107 1.357 . S
C107 C106 1.357 . S
C107 C108 1.370 . S
C107 H133 0.950 . S
C108 N103 1.307 . S
C108 C107 1.370 . S
C108 H126 0.948 . S
Zn109 N103 2.020 . S
Zn109 O118 2.039 . S
Zn109 O124 2.034 . S
Zn109 O128 2.025 . S
Zn109 O130 2.024 . S
C110 O129 1.246 . S
C110 O130 1.249 . S
N111 C112 1.307 . S
N111 C113 1.333 . S
N111 Zn117 2.020 . S
C112 N111 1.307 . S
C112 C116 1.370 . S
C112 H123 0.948 . S
C113 N111 1.333 . S
C113 C114 1.379 . S
C113 H121 0.952 . S
C114 C113 1.379 . S
C114 C115 1.390 . S
C114 H134 0.949 . S
C115 C114 1.390 . S
C115 C116 1.357 . S
C116 C112 1.370 . S
C116 C115 1.357 . S
C116 H135 0.950 . S
Zn117 N111 2.020 . S
Zn117 O120 2.025 . S
Zn117 O125 2.024 . S
Zn117 O127 2.039 . S
Zn117 O129 2.034 . S
O118 C102 1.251 . S
O118 Zn109 2.039 . S
C119 O124 1.246 . S
C119 O125 1.249 . S
O120 C102 1.254 . S
O120 Zn117 2.025 . S
H121 C113 0.952 . S
H122 C104 0.952 . S
H123 C112 0.948 . S
O124 Zn109 2.034 . S
O124 C119 1.246 . S
O125 Zn117 2.024 . S
O125 C119 1.249 . S
H126 C108 0.948 . S
O127 Zn117 2.039 . S
O127 C131 1.251 . S
O128 Zn109 2.025 . S
O128 C131 1.254 . S
O129 C110 1.246 . S
O129 Zn117 2.034 . S
O130 Zn109 2.024 . S
O130 C110 1.249 . S
C131 O127 1.251 . S
C131 O128 1.254 . S
H132 C105 0.949 . S
H133 C107 0.950 . S
H134 C114 0.949 . S
H135 C116 0.950 . S
C136 O152 1.251 . S
C136 O154 1.254 . S
N137 C138 1.333 . S
N137 C142 1.307 . S
N137 Zn143 2.020 . S
C138 N137 1.333 . S
C138 C139 1.379 . S
C138 H156 0.952 . S
C139 C138 1.379 . S
C139 C140 1.390 . S
C139 H166 0.949 . S
C140 C139 1.390 . S
C140 C141 1.357 . S
C141 C140 1.357 . S
C141 C142 1.370 . S
C141 H167 0.950 . S
C142 N137 1.307 . S
C142 C141 1.370 . S
C142 H160 0.948 . S
Zn143 N137 2.020 . S
Zn143 O152 2.039 . S
Zn143 O158 2.034 . S
Zn143 O162 2.025 . S
Zn143 O164 2.024 . S
C144 O163 1.246 . S
C144 O164 1.249 . S
N145 C146 1.307 . S
N145 C147 1.333 . S
N145 Zn151 2.020 . S
C146 N145 1.307 . S
C146 C150 1.370 . S
C146 H157 0.948 . S
C147 N145 1.333 . S
C147 C148 1.379 . S
C147 H155 0.952 . S
C148 C147 1.379 . S
C148 C149 1.390 . S
C148 H168 0.949 . S
C149 C148 1.390 . S
C149 C150 1.357 . S
C150 C146 1.370 . S
C150 C149 1.357 . S
C150 H169 0.950 . S
Zn151 N145 2.020 . S
Zn151 O154 2.025 . S
Zn151 O159 2.024 . S
Zn151 O161 2.039 . S
Zn151 O163 2.034 . S
O152 C136 1.251 . S
O152 Zn143 2.039 . S
C153 O158 1.246 . S
C153 O159 1.249 . S
O154 C136 1.254 . S
O154 Zn151 2.025 . S
H155 C147 0.952 . S
H156 C138 0.952 . S
H157 C146 0.948 . S
O158 Zn143 2.034 . S
O158 C153 1.246 . S
O159 Zn151 2.024 . S
O159 C153 1.249 . S
H160 C142 0.948 . S
O161 Zn151 2.039 . S
O161 C165 1.251 . S
O162 Zn143 2.025 . S
O162 C165 1.254 . S
O163 C144 1.246 . S
O163 Zn151 2.034 . S
O164 Zn143 2.024 . S
O164 C144 1.249 . S
C165 O161 1.251 . S
C165 O162 1.254 . S
H166 C139 0.949 . S
H167 C141 0.950 . S
H168 C148 0.949 . S
H169 C150 0.950 . S
C170 O186 1.251 . S
C170 O188 1.254 . S
N171 C172 1.333 . S
N171 C176 1.307 . S
N171 Zn177 2.020 . S
C172 N171 1.333 . S
C172 C173 1.379 . S
C172 H190 0.952 . S
C173 C172 1.379 . S
C173 C174 1.390 . S
C173 H200 0.949 . S
C174 C173 1.390 . S
C174 C175 1.357 . S
C175 C174 1.357 . S
C175 C176 1.370 . S
C175 H201 0.950 . S
C176 N171 1.307 . S
C176 C175 1.370 . S
C176 H194 0.948 . S
Zn177 N171 2.020 . S
Zn177 O186 2.039 . S
Zn177 O192 2.034 . S
Zn177 O196 2.025 . S
Zn177 O198 2.024 . S
C178 O197 1.246 . S
C178 O198 1.249 . S
N179 C180 1.307 . S
N179 C181 1.333 . S
N179 Zn185 2.020 . S
C180 N179 1.307 . S
C180 C184 1.370 . S
C180 H191 0.948 . S
C181 N179 1.333 . S
C181 C182 1.379 . S
C181 H189 0.952 . S
C182 C181 1.379 . S
C182 C183 1.390 . S
C182 H202 0.949 . S
C183 C182 1.390 . S
C183 C184 1.357 . S
C184 C180 1.370 . S
C184 C183 1.357 . S
C184 H203 0.950 . S
Zn185 N179 2.020 . S
Zn185 O188 2.025 . S
Zn185 O193 2.024 . S
Zn185 O195 2.039 . S
Zn185 O197 2.034 . S
O186 C170 1.251 . S
O186 Zn177 2.039 . S
C187 O192 1.246 . S
C187 O193 1.249 . S
O188 C170 1.254 . S
O188 Zn185 2.025 . S
H189 C181 0.952 . S
H190 C172 0.952 . S
H191 C180 0.948 . S
O192 Zn177 2.034 . S
O192 C187 1.246 . S
O193 Zn185 2.024 . S
O193 C187 1.249 . S
H194 C176 0.948 . S
O195 Zn185 2.039 . S
O195 C199 1.251 . S
O196 Zn177 2.025 . S
O196 C199 1.254 . S
O197 C178 1.246 . S
O197 Zn185 2.034 . S
O198 Zn177 2.024 . S
O198 C178 1.249 . S
C199 O195 1.251 . S
C199 O196 1.254 . S
H200 C173 0.949 . S
H201 C175 0.950 . S
H202 C182 0.949 . S
H203 C184 0.950 . S
C204 O220 1.251 . S
C204 O222 1.254 . S
N205 C206 1.333 . S
N205 C210 1.307 . S
N205 Zn211 2.020 . S
C206 N205 1.333 . S
C206 C207 1.379 . S
C206 H224 0.952 . S
C207 C206 1.379 . S
C207 C208 1.390 . S
C207 H234 0.949 . S
C208 C207 1.390 . S
C208 C209 1.357 . S
C209 C208 1.357 . S
C209 C210 1.370 . S
C209 H235 0.950 . S
C210 N205 1.307 . S
C210 C209 1.370 . S
C210 H228 0.948 . S
Zn211 N205 2.020 . S
Zn211 O220 2.039 . S
Zn211 O226 2.034 . S
Zn211 O230 2.025 . S
Zn211 O232 2.024 . S
C212 O231 1.246 . S
C212 O232 1.249 . S
N213 C214 1.307 . S
N213 C215 1.333 . S
N213 Zn219 2.020 . S
C214 N213 1.307 . S
C214 C218 1.370 . S
C214 H225 0.948 . S
C215 N213 1.333 . S
C215 C216 1.379 . S
C215 H223 0.952 . S
C216 C215 1.379 . S
C216 C217 1.390 . S
C216 H236 0.949 . S
C217 C216 1.390 . S
C217 C218 1.357 . S
C218 C214 1.370 . S
C218 C217 1.357 . S
C218 H237 0.950 . S
Zn219 N213 2.020 . S
Zn219 O222 2.025 . S
Zn219 O227 2.024 . S
Zn219 O229 2.039 . S
Zn219 O231 2.034 . S
O220 C204 1.251 . S
O220 Zn211 2.039 . S
C221 O226 1.246 . S
C221 O227 1.249 . S
O222 C204 1.254 . S
O222 Zn219 2.025 . S
H223 C215 0.952 . S
H224 C206 0.952 . S
H225 C214 0.948 . S
O226 Zn211 2.034 . S
O226 C221 1.246 . S
O227 Zn219 2.024 . S
O227 C221 1.249 . S
H228 C210 0.948 . S
O229 Zn219 2.039 . S
O229 C233 1.251 . S
O230 Zn211 2.025 . S
O230 C233 1.254 . S
O231 C212 1.246 . S
O231 Zn219 2.034 . S
O232 Zn211 2.024 . S
O232 C212 1.249 . S
C233 O229 1.251 . S
C233 O230 1.254 . S
H234 C207 0.949 . S
H235 C209 0.950 . S
H236 C216 0.949 . S
H237 C218 0.950 . S
C238 O254 1.251 . S
C238 O256 1.254 . S
N239 C240 1.333 . S
N239 C244 1.307 . S
N239 Zn245 2.020 . S
C240 N239 1.333 . S
C240 C241 1.379 . S
C240 H258 0.952 . S
C241 C240 1.379 . S
C241 C242 1.390 . S
C241 H268 0.949 . S
C242 C241 1.390 . S
C242 C243 1.357 . S
C243 C242 1.357 . S
C243 C244 1.370 . S
C243 H269 0.950 . S
C244 N239 1.307 . S
C244 C243 1.370 . S
C244 H262 0.948 . S
Zn245 N239 2.020 . S
Zn245 O254 2.039 . S
Zn245 O260 2.034 . S
Zn245 O264 2.025 . S
Zn245 O266 2.024 . S
C246 O265 1.246 . S
C246 O266 1.249 . S
N247 C248 1.307 . S
N247 C249 1.333 . S
N247 Zn253 2.020 . S
C248 N247 1.307 . S
C248 C252 1.370 . S
C248 H259 0.948 . S
C249 N247 1.333 . S
C249 C250 1.379 . S
C249 H257 0.952 . S
C250 C249 1.379 . S
C250 C251 1.390 . S
C250 H270 0.949 . S
C251 C250 1.390 . S
C251 C252 1.357 . S
C252 C248 1.370 . S
C252 C251 1.357 . S
C252 H271 0.950 . S
Zn253 N247 2.020 . S
Zn253 O256 2.025 . S
Zn253 O261 2.024 . S
Zn253 O263 2.039 . S
Zn253 O265 2.034 . S
O254 C238 1.251 . S
O254 Zn245 2.039 . S
C255 O260 1.246 . S
C255 O261 1.249 . S
O256 C238 1.254 . S
O256 Zn253 2.025 . S
H257 C249 0.952 . S
H258 C240 0.952 . S
H259 C248 0.948 . S
O260 Zn245 2.034 . S
O260 C255 1.246 . S
O261 Zn253 2.024 . S
O261 C255 1.249 . S
H262 C244 0.948 . S
O263 Zn253 2.039 . S
O263 C267 1.251 . S
O264 Zn245 2.025 . S
O264 C267 1.254 . S
O265 C246 1.246 . S
O265 Zn253 2.034 . S
O266 Zn245 2.024 . S
O266 C246 1.249 . S
C267 O263 1.251 . S
C267 O264 1.254 . S
H268 C241 0.949 . S
H269 C243 0.950 . S
H270 C250 0.949 . S
H271 C252 0.950 . S
Co272 O275 2.042 . S
Co272 O282 2.264 . S
Co272 O301 2.286 . S
Co272 O302 2.069 . S
Co272 O304 2.015 1_455 S
Co273 O275 2.122 . S
Co273 O281 2.073 . S
Co273 O282 2.327 . S
Co273 O283 1.976 1_455 S
Co274 O275 2.085 1_545 S
Co274 O277 2.089 1_455 S
Co274 O284 2.110 1_445 S
Co274 O285 2.145 . S
Co274 O289 2.112 . S
Co274 O303 2.142 1_445 S
O275 Co272 2.042 . S
O275 Co273 2.122 . S
O275 Co274 2.085 1_565 S
O275 H276 0.980 . S
H276 O275 0.980 . S
O277 Co274 2.089 1_655 S
O277 Co278 2.042 . S
O277 Co279 2.122 . S
O277 H280 0.980 . S
Co278 O277 2.042 . S
Co278 O286 2.286 . S
Co278 O287 2.069 . S
Co278 O288 2.015 1_655 S
Co278 O291 2.264 . S
Co279 O277 2.122 . S
Co279 O290 1.976 1_655 S
Co279 O291 2.327 . S
Co279 O292 2.073 . S
H280 O277 0.980 . S
O281 Co273 2.073 . S
O281 C296 1.245 . S
O282 Co272 2.264 . S
O282 Co273 2.327 . S
O282 C296 1.257 . S
O283 Co273 1.976 1_655 S
O283 C295 1.251 . S
O284 Co274 2.110 1_665 S
O284 C295 1.274 . S
O285 Co274 2.145 . S
O285 C298 1.246 . S
O286 Co278 2.286 . S
O286 C297 1.259 . S
O287 Co278 2.069 . S
O287 C297 1.289 . S
O288 Co278 2.015 1_455 S
O288 C298 1.257 . S
O289 Co274 2.112 . S
O289 C299 1.274 . S
O290 Co279 1.976 1_455 S
O290 C299 1.251 . S
O291 Co278 2.264 . S
O291 Co279 2.327 . S
O291 C300 1.257 . S
O292 Co279 2.073 . S
O292 C300 1.245 . S
C293 O301 1.259 . S
C293 O302 1.289 . S
C294 O303 1.246 . S
C294 O304 1.257 . S
C295 O283 1.251 . S
C295 O284 1.274 . S
C296 O281 1.245 . S
C296 O282 1.257 . S
C297 O286 1.259 . S
C297 O287 1.289 . S
C298 O285 1.246 . S
C298 O288 1.257 . S
C299 O289 1.274 . S
C299 O290 1.251 . S
C300 O291 1.257 . S
C300 O292 1.245 . S
O301 Co272 2.286 . S
O301 C293 1.259 . S
O302 Co272 2.069 . S
O302 C293 1.289 . S
O303 Co274 2.142 1_665 S
O303 C294 1.246 . S
O304 Co272 2.015 1_655 S
O304 C294 1.257 . S
Co305 O308 2.042 1_556 S
Co305 O315 2.264 1_556 S
Co305 O334 2.286 . S
Co305 O335 2.069 . S
Co305 O337 2.015 . S
Co306 O308 2.122 . S
Co306 O314 2.073 . S
Co306 O315 2.327 . S
Co306 O316 1.976 . S
Co307 O308 2.085 1_545 S
Co307 O310 2.089 1_554 S
Co307 O317 2.110 1_545 S
Co307 O318 2.145 . S
Co307 O322 2.112 1_554 S
Co307 O336 2.142 1_544 S
O308 Co305 2.042 1_554 S
O308 Co306 2.122 . S
O308 Co307 2.085 1_565 S
O308 H309 0.980 . S
H309 O308 0.980 . S
O310 Co307 2.089 1_556 S
O310 Co311 2.042 1_556 S
O310 Co312 2.122 . S
O310 H313 0.980 . S
Co311 O310 2.042 1_554 S
Co311 O319 2.286 . S
Co311 O320 2.069 . S
Co311 O321 2.015 . S
Co311 O324 2.264 1_554 S
Co312 O310 2.122 . S
Co312 O323 1.976 . S
Co312 O324 2.327 . S
Co312 O325 2.073 . S
H313 O310 0.980 . S
O314 Co306 2.073 . S
O314 C329 1.245 . S
O315 Co305 2.264 1_554 S
O315 Co306 2.327 . S
O315 C329 1.257 . S
O316 Co306 1.976 . S
O316 C328 1.251 . S
O317 Co307 2.110 1_565 S
O317 C328 1.274 . S
O318 Co307 2.145 . S
O318 C331 1.246 . S
O319 Co311 2.286 . S
O319 C330 1.259 . S
O320 Co311 2.069 . S
O320 C330 1.289 . S
O321 Co311 2.015 . S
O321 C331 1.257 . S
O322 Co307 2.112 1_556 S
O322 C332 1.274 . S
O323 Co312 1.976 . S
O323 C332 1.251 . S
O324 Co311 2.264 1_556 S
O324 Co312 2.327 . S
O324 C333 1.257 . S
O325 Co312 2.073 . S
O325 C333 1.245 . S
C326 O334 1.259 . S
C326 O335 1.289 . S
C327 O336 1.246 . S
C327 O337 1.257 . S
C328 O316 1.251 . S
C328 O317 1.274 . S
C329 O314 1.245 . S
C329 O315 1.257 . S
C330 O319 1.259 . S
C330 O320 1.289 . S
C331 O318 1.246 . S
C331 O321 1.257 . S
C332 O322 1.274 . S
C332 O323 1.251 . S
C333 O324 1.257 . S
C333 O325 1.245 . S
O334 Co305 2.286 . S
O334 C326 1.259 . S
O335 Co305 2.069 . S
O335 C326 1.289 . S
O336 Co307 2.142 1_566 S
O336 C327 1.246 . S
O337 Co305 2.015 . S
O337 C327 1.257 . S
Co338 O341 2.042 1_556 S
Co338 O348 2.264 1_556 S
Co338 O367 2.286 . S
Co338 O368 2.069 . S
Co338 O370 2.015 1_455 S
Co339 O341 2.122 . S
Co339 O347 2.073 . S
Co339 O348 2.327 . S
Co339 O349 1.976 1_455 S
Co340 O341 2.087 . S
Co340 O343 2.087 1_454 S
Co340 O350 2.111 1_455 S
Co340 O351 2.143 . S
Co340 O355 2.111 1_554 S
Co340 O369 2.143 1_454 S
O341 Co338 2.042 1_554 S
O341 Co339 2.122 . S
O341 Co340 2.087 . S
O341 H342 0.980 . S
H342 O341 0.980 . S
O343 Co340 2.087 1_656 S
O343 Co344 2.042 1_556 S
O343 Co345 2.122 . S
O343 H346 0.980 . S
Co344 O343 2.042 1_554 S
Co344 O352 2.286 . S
Co344 O353 2.069 . S
Co344 O354 2.015 1_655 S
Co344 O357 2.264 1_554 S
Co345 O343 2.122 . S
Co345 O356 1.976 1_655 S
Co345 O357 2.327 . S
Co345 O358 2.073 . S
H346 O343 0.980 . S
O347 Co339 2.073 . S
O347 C362 1.245 . S
O348 Co338 2.264 1_554 S
O348 Co339 2.327 . S
O348 C362 1.257 . S
O349 Co339 1.976 1_655 S
O349 C361 1.251 . S
O350 Co340 2.111 1_655 S
O350 C361 1.274 . S
O351 Co340 2.143 . S
O351 C364 1.246 . S
O352 Co344 2.286 . S
O352 C363 1.259 . S
O353 Co344 2.069 . S
O353 C363 1.289 . S
O354 Co344 2.015 1_455 S
O354 C364 1.257 . S
O355 Co340 2.111 1_556 S
O355 C365 1.274 . S
O356 Co345 1.976 1_455 S
O356 C365 1.251 . S
O357 Co344 2.264 1_556 S
O357 Co345 2.327 . S
O357 C366 1.257 . S
O358 Co345 2.073 . S
O358 C366 1.245 . S
C359 O367 1.259 . S
C359 O368 1.289 . S
C360 O369 1.246 . S
C360 O370 1.257 . S
C361 O349 1.251 . S
C361 O350 1.274 . S
C362 O347 1.245 . S
C362 O348 1.257 . S
C363 O352 1.259 . S
C363 O353 1.289 . S
C364 O351 1.246 . S
C364 O354 1.257 . S
C365 O355 1.274 . S
C365 O356 1.251 . S
C366 O357 1.257 . S
C366 O358 1.245 . S
O367 Co338 2.286 . S
O367 C359 1.259 . S
O368 Co338 2.069 . S
O368 C359 1.289 . S
O369 Co340 2.143 1_656 S
O369 C360 1.246 . S
O370 Co338 2.015 1_655 S
O370 C360 1.257 . S
Co371 O374 2.042 1_556 S
Co371 O381 2.264 1_556 S
Co371 O400 2.286 . S
Co371 O401 2.069 . S
Co371 O403 2.015 . S
Co372 O374 2.122 . S
Co372 O380 2.073 . S
Co372 O381 2.327 . S
Co372 O382 1.976 . S
Co373 O374 2.087 . S
Co373 O376 2.087 1_554 S
Co373 O383 2.111 . S
Co373 O384 2.143 . S
Co373 O388 2.111 1_554 S
Co373 O402 2.143 1_554 S
O374 Co371 2.042 1_554 S
O374 Co372 2.122 . S
O374 Co373 2.087 . S
O374 H375 0.980 . S
H375 O374 0.980 . S
O376 Co373 2.087 1_556 S
O376 Co377 2.042 1_556 S
O376 Co378 2.122 . S
O376 H379 0.980 . S
Co377 O376 2.042 1_554 S
Co377 O385 2.286 . S
Co377 O386 2.069 . S
Co377 O387 2.015 . S
Co377 O390 2.264 1_554 S
Co378 O376 2.122 . S
Co378 O389 1.976 . S
Co378 O390 2.327 . S
Co378 O391 2.073 . S
H379 O376 0.980 . S
O380 Co372 2.073 . S
O380 C395 1.245 . S
O381 Co371 2.264 1_554 S
O381 Co372 2.327 . S
O381 C395 1.257 . S
O382 Co372 1.976 . S
O382 C394 1.251 . S
O383 Co373 2.111 . S
O383 C394 1.274 . S
O384 Co373 2.143 . S
O384 C397 1.246 . S
O385 Co377 2.286 . S
O385 C396 1.259 . S
O386 Co377 2.069 . S
O386 C396 1.289 . S
O387 Co377 2.015 . S
O387 C397 1.257 . S
O388 Co373 2.111 1_556 S
O388 C398 1.274 . S
O389 Co378 1.976 . S
O389 C398 1.251 . S
O390 Co377 2.264 1_556 S
O390 Co378 2.327 . S
O390 C399 1.257 . S
O391 Co378 2.073 . S
O391 C399 1.245 . S
C392 O400 1.259 . S
C392 O401 1.289 . S
C393 O402 1.246 . S
C393 O403 1.257 . S
C394 O382 1.251 . S
C394 O383 1.274 . S
C395 O380 1.245 . S
C395 O381 1.257 . S
C396 O385 1.259 . S
C396 O386 1.289 . S
C397 O384 1.246 . S
C397 O387 1.257 . S
C398 O388 1.274 . S
C398 O389 1.251 . S
C399 O390 1.257 . S
C399 O391 1.245 . S
O400 Co371 2.286 . S
O400 C392 1.259 . S
O401 Co371 2.069 . S
O401 C392 1.289 . S
O402 Co373 2.143 1_556 S
O402 C393 1.246 . S
O403 Co371 2.015 . S
O403 C393 1.257 . S
Co404 O407 2.042 . S
Co404 O414 2.264 . S
Co404 O433 2.286 . S
Co404 O434 2.069 . S
Co404 O436 2.015 . S
Co405 O407 2.122 . S
Co405 O413 2.073 . S
Co405 O414 2.327 . S
Co405 O415 1.976 . S
Co406 O407 2.087 . S
Co406 O409 2.087 1_455 S
Co406 O416 2.111 . S
Co406 O417 2.143 1_455 S
Co406 O421 2.111 1_455 S
Co406 O435 2.143 . S
O407 Co404 2.042 . S
O407 Co405 2.122 . S
O407 Co406 2.087 . S
O407 H408 0.980 . S
H408 O407 0.980 . S
O409 Co406 2.087 1_655 S
O409 Co410 2.042 . S
O409 Co411 2.122 . S
O409 H412 0.980 . S
Co410 O409 2.042 . S
Co410 O418 2.286 . S
Co410 O419 2.069 . S
Co410 O420 2.015 . S
Co410 O423 2.264 . S
Co411 O409 2.122 . S
Co411 O422 1.976 . S
Co411 O423 2.327 . S
Co411 O424 2.073 . S
H412 O409 0.980 . S
O413 Co405 2.073 . S
O413 C428 1.245 . S
O414 Co404 2.264 . S
O414 Co405 2.327 . S
O414 C428 1.257 . S
O415 Co405 1.976 . S
O415 C427 1.251 . S
O416 Co406 2.111 . S
O416 C427 1.274 . S
O417 Co406 2.143 1_655 S
O417 C430 1.246 . S
O418 Co410 2.286 . S
O418 C429 1.259 . S
O419 Co410 2.069 . S
O419 C429 1.289 . S
O420 Co410 2.015 . S
O420 C430 1.257 . S
O421 Co406 2.111 1_655 S
O421 C431 1.274 . S
O422 Co411 1.976 . S
O422 C431 1.251 . S
O423 Co410 2.264 . S
O423 Co411 2.327 . S
O423 C432 1.257 . S
O424 Co411 2.073 . S
O424 C432 1.245 . S
C425 O433 1.259 . S
C425 O434 1.289 . S
C426 O435 1.246 . S
C426 O436 1.257 . S
C427 O415 1.251 . S
C427 O416 1.274 . S
C428 O413 1.245 . S
C428 O414 1.257 . S
C429 O418 1.259 . S
C429 O419 1.289 . S
C430 O417 1.246 . S
C430 O420 1.257 . S
C431 O421 1.274 . S
C431 O422 1.251 . S
C432 O423 1.257 . S
C432 O424 1.245 . S
O433 Co404 2.286 . S
O433 C425 1.259 . S
O434 Co404 2.069 . S
O434 C425 1.289 . S
O435 Co406 2.143 . S
O435 C426 1.246 . S
O436 Co404 2.015 . S
O436 C426 1.257 . S
Co437 O440 2.042 . S
Co437 O447 2.264 . S
Co437 O466 2.286 . S
Co437 O467 2.069 . S
Co437 O469 2.015 1_565 S
Co438 O440 2.122 . S
Co438 O446 2.073 . S
Co438 O447 2.327 . S
Co438 O448 1.976 1_565 S
Co439 O440 2.085 1_545 S
Co439 O442 2.089 . S
Co439 O449 2.113 . S
Co439 O450 2.142 1_545 S
Co439 O454 2.109 1_545 S
Co439 O468 2.145 . S
O440 Co437 2.042 . S
O440 Co438 2.122 . S
O440 Co439 2.085 1_565 S
O440 H441 0.980 . S
H441 O440 0.980 . S
O442 Co439 2.089 . S
O442 Co443 2.042 . S
O442 Co444 2.122 . S
O442 H445 0.980 . S
Co443 O442 2.042 . S
Co443 O451 2.286 . S
Co443 O452 2.069 . S
Co443 O453 2.015 1_545 S
Co443 O456 2.264 . S
Co444 O442 2.122 . S
Co444 O455 1.976 1_545 S
Co444 O456 2.327 . S
Co444 O457 2.073 . S
H445 O442 0.980 . S
O446 Co438 2.073 . S
O446 C461 1.245 . S
O447 Co437 2.264 . S
O447 Co438 2.327 . S
O447 C461 1.257 . S
O448 Co438 1.976 1_545 S
O448 C460 1.251 . S
O449 Co439 2.113 . S
O449 C460 1.274 . S
O450 Co439 2.142 1_565 S
O450 C463 1.246 . S
O451 Co443 2.286 . S
O451 C462 1.259 . S
O452 Co443 2.069 . S
O452 C462 1.289 . S
O453 Co443 2.015 1_565 S
O453 C463 1.257 . S
O454 Co439 2.109 1_565 S
O454 C464 1.274 . S
O455 Co444 1.976 1_565 S
O455 C464 1.251 . S
O456 Co443 2.264 . S
O456 Co444 2.327 . S
O456 C465 1.257 . S
O457 Co444 2.073 . S
O457 C465 1.245 . S
C458 O466 1.259 . S
C458 O467 1.289 . S
C459 O468 1.246 . S
C459 O469 1.257 . S
C460 O448 1.251 . S
C460 O449 1.274 . S
C461 O446 1.245 . S
C461 O447 1.257 . S
C462 O451 1.259 . S
C462 O452 1.289 . S
C463 O450 1.246 . S
C463 O453 1.257 . S
C464 O454 1.274 . S
C464 O455 1.251 . S
C465 O456 1.257 . S
C465 O457 1.245 . S
O466 Co437 2.286 . S
O466 C458 1.259 . S
O467 Co437 2.069 . S
O467 C458 1.289 . S
O468 Co439 2.145 . S
O468 C459 1.246 . S
O469 Co437 2.015 1_545 S
O469 C459 1.257 . S
C470 C471 1.391 . S
C470 C472 1.394 . S
C470 H486 0.931 . S
C471 C470 1.391 . S
C471 C475 1.376 . S
C472 C470 1.394 . S
C472 C473 1.369 . S
C472 C476 1.531 . S
C473 C472 1.369 . S
C473 C474 1.410 . S
C473 C481 1.503 . S
C474 C473 1.410 . S
C474 C475 1.392 . S
C474 C477 1.511 . S
C475 C471 1.376 . S
C475 C474 1.392 . S
C475 H487 0.929 . S
C476 C472 1.531 . S
C476 H488 0.960 . S
C476 H489 0.962 . S
C476 H490 0.960 . S
C477 C474 1.511 . S
C477 H491 0.961 . S
C477 H492 0.961 . S
C477 H493 0.961 . S
C478 C479 1.370 . S
C478 C480 1.363 . S
C478 H494 0.931 . S
C479 C478 1.370 . S
C479 C483 1.408 . S
C480 C478 1.363 . S
C480 C481 1.370 . S
C480 C484 1.524 . S
C481 C473 1.503 . S
C481 C480 1.370 . S
C481 C482 1.403 . S
C482 C481 1.403 . S
C482 C483 1.404 . S
C482 C485 1.539 . S
C483 C479 1.408 . S
C483 C482 1.404 . S
C483 H495 0.930 . S
C484 C480 1.524 . S
C484 H496 0.956 . S
C484 H497 0.961 . S
C484 H498 0.961 . S
C485 C482 1.539 . S
C485 H499 0.958 . S
C485 H500 0.961 . S
C485 H501 0.960 . S
H486 C470 0.931 . S
H487 C475 0.929 . S
H488 C476 0.960 . S
H489 C476 0.962 . S
H490 C476 0.960 . S
H491 C477 0.961 . S
H492 C477 0.961 . S
H493 C477 0.961 . S
H494 C478 0.931 . S
H495 C483 0.930 . S
H496 C484 0.956 . S
H497 C484 0.961 . S
H498 C484 0.961 . S
H499 C485 0.958 . S
H500 C485 0.961 . S
H501 C485 0.960 . S
C502 C503 1.391 . S
C502 C504 1.394 . S
C502 H518 0.931 . S
C503 C502 1.391 . S
C503 C507 1.376 . S
C504 C502 1.394 . S
C504 C505 1.369 . S
C504 C508 1.531 . S
C505 C504 1.369 . S
C505 C506 1.410 . S
C505 C513 1.503 . S
C506 C505 1.410 . S
C506 C507 1.392 . S
C506 C509 1.511 . S
C507 C503 1.376 . S
C507 C506 1.392 . S
C507 H519 0.929 . S
C508 C504 1.531 . S
C508 H520 0.960 . S
C508 H521 0.962 . S
C508 H522 0.960 . S
C509 C506 1.511 . S
C509 H523 0.961 . S
C509 H524 0.961 . S
C509 H525 0.961 . S
C510 C511 1.370 . S
C510 C512 1.363 . S
C510 H526 0.931 . S
C511 C510 1.370 . S
C511 C515 1.408 . S
C512 C510 1.363 . S
C512 C513 1.370 . S
C512 C516 1.524 . S
C513 C505 1.503 . S
C513 C512 1.370 . S
C513 C514 1.403 . S
C514 C513 1.403 . S
C514 C515 1.404 . S
C514 C517 1.539 . S
C515 C511 1.408 . S
C515 C514 1.404 . S
C515 H527 0.930 . S
C516 C512 1.524 . S
C516 H528 0.956 . S
C516 H529 0.961 . S
C516 H530 0.961 . S
C517 C514 1.539 . S
C517 H531 0.958 . S
C517 H532 0.961 . S
C517 H533 0.960 . S
H518 C502 0.931 . S
H519 C507 0.929 . S
H520 C508 0.960 . S
H521 C508 0.962 . S
H522 C508 0.960 . S
H523 C509 0.961 . S
H524 C509 0.961 . S
H525 C509 0.961 . S
H526 C510 0.931 . S
H527 C515 0.930 . S
H528 C516 0.956 . S
H529 C516 0.961 . S
H530 C516 0.961 . S
H531 C517 0.958 . S
H532 C517 0.961 . S
H533 C517 0.960 . S
C534 C535 1.391 . S
C534 C536 1.394 . S
C534 H550 0.931 . S
C535 C534 1.391 . S
C535 C539 1.376 . S
C536 C534 1.394 . S
C536 C537 1.369 . S
C536 C540 1.531 . S
C537 C536 1.369 . S
C537 C538 1.410 . S
C537 C545 1.503 . S
C538 C537 1.410 . S
C538 C539 1.392 . S
C538 C541 1.511 . S
C539 C535 1.376 . S
C539 C538 1.392 . S
C539 H551 0.929 . S
C540 C536 1.531 . S
C540 H552 0.960 . S
C540 H553 0.962 . S
C540 H554 0.960 . S
C541 C538 1.511 . S
C541 H555 0.961 . S
C541 H556 0.961 . S
C541 H557 0.961 . S
C542 C543 1.370 . S
C542 C544 1.363 . S
C542 H558 0.931 . S
C543 C542 1.370 . S
C543 C547 1.408 . S
C544 C542 1.363 . S
C544 C545 1.370 . S
C544 C548 1.524 . S
C545 C537 1.503 . S
C545 C544 1.370 . S
C545 C546 1.403 . S
C546 C545 1.403 . S
C546 C547 1.404 . S
C546 C549 1.539 . S
C547 C543 1.408 . S
C547 C546 1.404 . S
C547 H559 0.930 . S
C548 C544 1.524 . S
C548 H560 0.956 . S
C548 H561 0.961 . S
C548 H562 0.961 . S
C549 C546 1.539 . S
C549 H563 0.958 . S
C549 H564 0.961 . S
C549 H565 0.960 . S
H550 C534 0.931 . S
H551 C539 0.929 . S
H552 C540 0.960 . S
H553 C540 0.962 . S
H554 C540 0.960 . S
H555 C541 0.961 . S
H556 C541 0.961 . S
H557 C541 0.961 . S
H558 C542 0.931 . S
H559 C547 0.930 . S
H560 C548 0.956 . S
H561 C548 0.961 . S
H562 C548 0.961 . S
H563 C549 0.958 . S
H564 C549 0.961 . S
H565 C549 0.960 . S
C566 C567 1.391 . S
C566 C568 1.394 . S
C566 H582 0.931 . S
C567 C566 1.391 . S
C567 C571 1.376 . S
C568 C566 1.394 . S
C568 C569 1.369 . S
C568 C572 1.531 . S
C569 C568 1.369 . S
C569 C570 1.410 . S
C569 C577 1.503 . S
C570 C569 1.410 . S
C570 C571 1.392 . S
C570 C573 1.511 . S
C571 C567 1.376 . S
C571 C570 1.392 . S
C571 H583 0.929 . S
C572 C568 1.531 . S
C572 H584 0.960 . S
C572 H585 0.962 . S
C572 H586 0.960 . S
C573 C570 1.511 . S
C573 H587 0.961 . S
C573 H588 0.961 . S
C573 H589 0.961 . S
C574 C575 1.370 . S
C574 C576 1.363 . S
C574 H590 0.931 . S
C575 C574 1.370 . S
C575 C579 1.408 . S
C576 C574 1.363 . S
C576 C577 1.370 . S
C576 C580 1.524 . S
C577 C569 1.503 . S
C577 C576 1.370 . S
C577 C578 1.403 . S
C578 C577 1.403 . S
C578 C579 1.404 . S
C578 C581 1.539 . S
C579 C575 1.408 . S
C579 C578 1.404 . S
C579 H591 0.930 . S
C580 C576 1.524 . S
C580 H592 0.956 . S
C580 H593 0.961 . S
C580 H594 0.961 . S
C581 C578 1.539 . S
C581 H595 0.958 . S
C581 H596 0.961 . S
C581 H597 0.960 . S
H582 C566 0.931 . S
H583 C571 0.929 . S
H584 C572 0.960 . S
H585 C572 0.962 . S
H586 C572 0.960 . S
H587 C573 0.961 . S
H588 C573 0.961 . S
H589 C573 0.961 . S
H590 C574 0.931 . S
H591 C579 0.930 . S
H592 C580 0.956 . S
H593 C580 0.961 . S
H594 C580 0.961 . S
H595 C581 0.958 . S
H596 C581 0.961 . S
H597 C581 0.960 . S
C598 C599 1.391 . S
C598 C600 1.394 . S
C598 H614 0.931 . S
C599 C598 1.391 . S
C599 C603 1.376 . S
C600 C598 1.394 . S
C600 C601 1.369 . S
C600 C604 1.531 . S
C601 C600 1.369 . S
C601 C602 1.410 . S
C601 C609 1.503 . S
C602 C601 1.410 . S
C602 C603 1.392 . S
C602 C605 1.511 . S
C603 C599 1.376 . S
C603 C602 1.392 . S
C603 H615 0.929 . S
C604 C600 1.531 . S
C604 H616 0.960 . S
C604 H617 0.962 . S
C604 H618 0.960 . S
C605 C602 1.511 . S
C605 H619 0.961 . S
C605 H620 0.961 . S
C605 H621 0.961 . S
C606 C607 1.370 . S
C606 C608 1.363 . S
C606 H622 0.931 . S
C607 C606 1.370 . S
C607 C611 1.408 . S
C608 C606 1.363 . S
C608 C609 1.370 . S
C608 C612 1.524 . S
C609 C601 1.503 . S
C609 C608 1.370 . S
C609 C610 1.403 . S
C610 C609 1.403 . S
C610 C611 1.404 . S
C610 C613 1.539 . S
C611 C607 1.408 . S
C611 C610 1.404 . S
C611 H623 0.930 . S
C612 C608 1.524 . S
C612 H624 0.956 . S
C612 H625 0.961 . S
C612 H626 0.961 . S
C613 C610 1.539 . S
C613 H627 0.958 . S
C613 H628 0.961 . S
C613 H629 0.960 . S
H614 C598 0.931 . S
H615 C603 0.929 . S
H616 C604 0.960 . S
H617 C604 0.962 . S
H618 C604 0.960 . S
H619 C605 0.961 . S
H620 C605 0.961 . S
H621 C605 0.961 . S
H622 C606 0.931 . S
H623 C611 0.930 . S
H624 C612 0.956 . S
H625 C612 0.961 . S
H626 C612 0.961 . S
H627 C613 0.958 . S
H628 C613 0.961 . S
H629 C613 0.960 . S
C630 C631 1.391 . S
C630 C632 1.394 . S
C630 H646 0.931 . S
C631 C630 1.391 . S
C631 C635 1.376 . S
C632 C630 1.394 . S
C632 C633 1.369 . S
C632 C636 1.531 . S
C633 C632 1.369 . S
C633 C634 1.410 . S
C633 C641 1.503 . S
C634 C633 1.410 . S
C634 C635 1.392 . S
C634 C637 1.511 . S
C635 C631 1.376 . S
C635 C634 1.392 . S
C635 H647 0.929 . S
C636 C632 1.531 . S
C636 H648 0.960 . S
C636 H649 0.962 . S
C636 H650 0.960 . S
C637 C634 1.511 . S
C637 H651 0.961 . S
C637 H652 0.961 . S
C637 H653 0.961 . S
C638 C639 1.370 . S
C638 C640 1.363 . S
C638 H654 0.931 . S
C639 C638 1.370 . S
C639 C643 1.408 . S
C640 C638 1.363 . S
C640 C641 1.370 . S
C640 C644 1.524 . S
C641 C633 1.503 . S
C641 C640 1.370 . S
C641 C642 1.403 . S
C642 C641 1.403 . S
C642 C643 1.404 . S
C642 C645 1.539 . S
C643 C639 1.408 . S
C643 C642 1.404 . S
C643 H655 0.930 . S
C644 C640 1.524 . S
C644 H656 0.956 . S
C644 H657 0.961 . S
C644 H658 0.961 . S
C645 C642 1.539 . S
C645 H659 0.958 . S
C645 H660 0.961 . S
C645 H661 0.960 . S
H646 C630 0.931 . S
H647 C635 0.929 . S
H648 C636 0.960 . S
H649 C636 0.962 . S
H650 C636 0.960 . S
H651 C637 0.961 . S
H652 C637 0.961 . S
H653 C637 0.961 . S
H654 C638 0.931 . S
H655 C643 0.930 . S
H656 C644 0.956 . S
H657 C644 0.961 . S
H658 C644 0.961 . S
H659 C645 0.958 . S
H660 C645 0.961 . S
H661 C645 0.960 . S
C662 C663 1.391 . S
C662 C664 1.394 . S
C662 H678 0.931 . S
C663 C662 1.391 . S
C663 C667 1.376 . S
C664 C662 1.394 . S
C664 C665 1.369 . S
C664 C668 1.531 . S
C665 C664 1.369 . S
C665 C666 1.410 . S
C665 C673 1.503 . S
C666 C665 1.410 . S
C666 C667 1.392 . S
C666 C669 1.511 . S
C667 C663 1.376 . S
C667 C666 1.392 . S
C667 H679 0.929 . S
C668 C664 1.531 . S
C668 H680 0.960 . S
C668 H681 0.962 . S
C668 H682 0.960 . S
C669 C666 1.511 . S
C669 H683 0.961 . S
C669 H684 0.961 . S
C669 H685 0.961 . S
C670 C671 1.370 . S
C670 C672 1.363 . S
C670 H686 0.931 . S
C671 C670 1.370 . S
C671 C675 1.408 . S
C672 C670 1.363 . S
C672 C673 1.370 . S
C672 C676 1.524 . S
C673 C665 1.503 . S
C673 C672 1.370 . S
C673 C674 1.403 . S
C674 C673 1.403 . S
C674 C675 1.404 . S
C674 C677 1.539 . S
C675 C671 1.408 . S
C675 C674 1.404 . S
C675 H687 0.930 . S
C676 C672 1.524 . S
C676 H688 0.956 . S
C676 H689 0.961 . S
C676 H690 0.961 . S
C677 C674 1.539 . S
C677 H691 0.958 . S
C677 H692 0.961 . S
C677 H693 0.960 . S
H678 C662 0.931 . S
H679 C667 0.929 . S
H680 C668 0.960 . S
H681 C668 0.962 . S
H682 C668 0.960 . S
H683 C669 0.961 . S
H684 C669 0.961 . S
H685 C669 0.961 . S
H686 C670 0.931 . S
H687 C675 0.930 . S
H688 C676 0.956 . S
H689 C676 0.961 . S
H690 C676 0.961 . S
H691 C677 0.958 . S
H692 C677 0.961 . S
H693 C677 0.960 . S
C694 C695 1.391 . S
C694 C696 1.394 . S
C694 H710 0.931 . S
C695 C694 1.391 . S
C695 C699 1.376 . S
C696 C694 1.394 . S
C696 C697 1.369 . S
C696 C700 1.531 . S
C697 C696 1.369 . S
C697 C698 1.410 . S
C697 C705 1.503 . S
C698 C697 1.410 . S
C698 C699 1.392 . S
C698 C701 1.511 . S
C699 C695 1.376 . S
C699 C698 1.392 . S
C699 H711 0.929 . S
C700 C696 1.531 . S
C700 H712 0.960 . S
C700 H713 0.962 . S
C700 H714 0.960 . S
C701 C698 1.511 . S
C701 H715 0.961 . S
C701 H716 0.961 . S
C701 H717 0.961 . S
C702 C703 1.370 . S
C702 C704 1.363 . S
C702 H718 0.931 . S
C703 C702 1.370 . S
C703 C707 1.408 . S
C704 C702 1.363 . S
C704 C705 1.370 . S
C704 C708 1.524 . S
C705 C697 1.503 . S
C705 C704 1.370 . S
C705 C706 1.403 . S
C706 C705 1.403 . S
C706 C707 1.404 . S
C706 C709 1.539 . S
C707 C703 1.408 . S
C707 C706 1.404 . S
C707 H719 0.930 . S
C708 C704 1.524 . S
C708 H720 0.956 . S
C708 H721 0.961 . S
C708 H722 0.961 . S
C709 C706 1.539 . S
C709 H723 0.958 . S
C709 H724 0.961 . S
C709 H725 0.960 . S
H710 C694 0.931 . S
H711 C699 0.929 . S
H712 C700 0.960 . S
H713 C700 0.962 . S
H714 C700 0.960 . S
H715 C701 0.961 . S
H716 C701 0.961 . S
H717 C701 0.961 . S
H718 C702 0.931 . S
H719 C707 0.930 . S
H720 C708 0.956 . S
H721 C708 0.961 . S
H722 C708 0.961 . S
H723 C709 0.958 . S
H724 C709 0.961 . S
H725 C709 0.960 . S
C726 C727 1.391 . S
C726 C728 1.394 . S
C726 H742 0.931 . S
C727 C726 1.391 . S
C727 C731 1.376 . S
C728 C726 1.394 . S
C728 C729 1.369 . S
C728 C732 1.531 . S
C729 C728 1.369 . S
C729 C730 1.410 . S
C729 C737 1.503 . S
C730 C729 1.410 . S
C730 C731 1.392 . S
C730 C733 1.511 . S
C731 C727 1.376 . S
C731 C730 1.392 . S
C731 H743 0.929 . S
C732 C728 1.531 . S
C732 H744 0.960 . S
C732 H745 0.962 . S
C732 H746 0.960 . S
C733 C730 1.511 . S
C733 H747 0.961 . S
C733 H748 0.961 . S
C733 H749 0.961 . S
C734 C735 1.370 . S
C734 C736 1.363 . S
C734 H750 0.931 . S
C735 C734 1.370 . S
C735 C739 1.408 . S
C736 C734 1.363 . S
C736 C737 1.370 . S
C736 C740 1.524 . S
C737 C729 1.503 . S
C737 C736 1.370 . S
C737 C738 1.403 . S
C738 C737 1.403 . S
C738 C739 1.404 . S
C738 C741 1.539 . S
C739 C735 1.408 . S
C739 C738 1.404 . S
C739 H751 0.930 . S
C740 C736 1.524 . S
C740 H752 0.956 . S
C740 H753 0.961 . S
C740 H754 0.961 . S
C741 C738 1.539 . S
C741 H755 0.958 . S
C741 H756 0.961 . S
C741 H757 0.960 . S
H742 C726 0.931 . S
H743 C731 0.929 . S
H744 C732 0.960 . S
H745 C732 0.962 . S
H746 C732 0.960 . S
H747 C733 0.961 . S
H748 C733 0.961 . S
H749 C733 0.961 . S
H750 C734 0.931 . S
H751 C739 0.930 . S
H752 C740 0.956 . S
H753 C740 0.961 . S
H754 C740 0.961 . S
H755 C741 0.958 . S
H756 C741 0.961 . S
H757 C741 0.960 . S
C758 C759 1.391 . S
C758 C760 1.394 . S
C758 H774 0.931 . S
C759 C758 1.391 . S
C759 C763 1.376 . S
C760 C758 1.394 . S
C760 C761 1.369 . S
C760 C764 1.531 . S
C761 C760 1.369 . S
C761 C762 1.410 . S
C761 C769 1.503 . S
C762 C761 1.410 . S
C762 C763 1.392 . S
C762 C765 1.511 . S
C763 C759 1.376 . S
C763 C762 1.392 . S
C763 H775 0.929 . S
C764 C760 1.531 . S
C764 H776 0.960 . S
C764 H777 0.962 . S
C764 H778 0.960 . S
C765 C762 1.511 . S
C765 H779 0.961 . S
C765 H780 0.961 . S
C765 H781 0.961 . S
C766 C767 1.370 . S
C766 C768 1.363 . S
C766 H782 0.931 . S
C767 C766 1.370 . S
C767 C771 1.408 . S
C768 C766 1.363 . S
C768 C769 1.370 . S
C768 C772 1.524 . S
C769 C761 1.503 . S
C769 C768 1.370 . S
C769 C770 1.403 . S
C770 C769 1.403 . S
C770 C771 1.404 . S
C770 C773 1.539 . S
C771 C767 1.408 . S
C771 C770 1.404 . S
C771 H783 0.930 . S
C772 C768 1.524 . S
C772 H784 0.956 . S
C772 H785 0.961 . S
C772 H786 0.961 . S
C773 C770 1.539 . S
C773 H787 0.958 . S
C773 H788 0.961 . S
C773 H789 0.960 . S
H774 C758 0.931 . S
H775 C763 0.929 . S
H776 C764 0.960 . S
H777 C764 0.962 . S
H778 C764 0.960 . S
H779 C765 0.961 . S
H780 C765 0.961 . S
H781 C765 0.961 . S
H782 C766 0.931 . S
H783 C771 0.930 . S
H784 C772 0.956 . S
H785 C772 0.961 . S
H786 C772 0.961 . S
H787 C773 0.958 . S
H788 C773 0.961 . S
H789 C773 0.960 . S
C790 C791 1.391 . S
C790 C792 1.394 . S
C790 H806 0.931 . S
C791 C790 1.391 . S
C791 C795 1.376 . S
C792 C790 1.394 . S
C792 C793 1.369 . S
C792 C796 1.531 . S
C793 C792 1.369 . S
C793 C794 1.410 . S
C793 C801 1.503 . S
C794 C793 1.410 . S
C794 C795 1.392 . S
C794 C797 1.511 . S
C795 C791 1.376 . S
C795 C794 1.392 . S
C795 H807 0.929 . S
C796 C792 1.531 . S
C796 H808 0.960 . S
C796 H809 0.962 . S
C796 H810 0.960 . S
C797 C794 1.511 . S
C797 H811 0.961 . S
C797 H812 0.961 . S
C797 H813 0.961 . S
C798 C799 1.370 . S
C798 C800 1.363 . S
C798 H814 0.931 . S
C799 C798 1.370 . S
C799 C803 1.408 . S
C800 C798 1.363 . S
C800 C801 1.370 . S
C800 C804 1.524 . S
C801 C793 1.503 . S
C801 C800 1.370 . S
C801 C802 1.403 . S
C802 C801 1.403 . S
C802 C803 1.404 . S
C802 C805 1.539 . S
C803 C799 1.408 . S
C803 C802 1.404 . S
C803 H815 0.930 . S
C804 C800 1.524 . S
C804 H816 0.956 . S
C804 H817 0.961 . S
C804 H818 0.961 . S
C805 C802 1.539 . S
C805 H819 0.958 . S
C805 H820 0.961 . S
C805 H821 0.960 . S
H806 C790 0.931 . S
H807 C795 0.929 . S
H808 C796 0.960 . S
H809 C796 0.962 . S
H810 C796 0.960 . S
H811 C797 0.961 . S
H812 C797 0.961 . S
H813 C797 0.961 . S
H814 C798 0.931 . S
H815 C803 0.930 . S
H816 C804 0.956 . S
H817 C804 0.961 . S
H818 C804 0.961 . S
H819 C805 0.958 . S
H820 C805 0.961 . S
H821 C805 0.960 . S
C822 C823 1.391 . S
C822 C824 1.394 . S
C822 H838 0.931 . S
C823 C822 1.391 . S
C823 C827 1.376 . S
C824 C822 1.394 . S
C824 C825 1.369 . S
C824 C828 1.531 . S
C825 C824 1.369 . S
C825 C826 1.410 . S
C825 C833 1.503 . S
C826 C825 1.410 . S
C826 C827 1.392 . S
C826 C829 1.511 . S
C827 C823 1.376 . S
C827 C826 1.392 . S
C827 H839 0.929 . S
C828 C824 1.531 . S
C828 H840 0.960 . S
C828 H841 0.962 . S
C828 H842 0.960 . S
C829 C826 1.511 . S
C829 H843 0.961 . S
C829 H844 0.961 . S
C829 H845 0.961 . S
C830 C831 1.370 . S
C830 C832 1.363 . S
C830 H846 0.931 1_554 S
C831 C830 1.370 . S
C831 C835 1.408 . S
C832 C830 1.363 . S
C832 C833 1.370 . S
C832 C836 1.524 1_554 S
C833 C825 1.503 . S
C833 C832 1.370 . S
C833 C834 1.403 . S
C834 C833 1.403 . S
C834 C835 1.404 . S
C834 C837 1.539 . S
C835 C831 1.408 . S
C835 C834 1.404 . S
C835 H847 0.930 . S
C836 C832 1.524 1_556 S
C836 H848 0.956 1_556 S
C836 H849 0.961 . S
C836 H850 0.961 . S
C837 C834 1.539 . S
C837 H851 0.958 . S
C837 H852 0.961 . S
C837 H853 0.960 . S
H838 C822 0.931 . S
H839 C827 0.929 . S
H840 C828 0.960 . S
H841 C828 0.962 . S
H842 C828 0.960 . S
H843 C829 0.961 . S
H844 C829 0.961 . S
H845 C829 0.961 . S
H846 C830 0.931 1_556 S
H847 C835 0.930 . S
H848 C836 0.956 1_554 S
H849 C836 0.961 . S
H850 C836 0.961 . S
H851 C837 0.958 . S
H852 C837 0.961 . S
H853 C837 0.960 . S
C854 C855 1.391 . S
C854 C856 1.394 . S
C854 H870 0.931 . S
C855 C854 1.391 . S
C855 C859 1.376 . S
C856 C854 1.394 . S
C856 C857 1.369 . S
C856 C860 1.531 . S
C857 C856 1.369 . S
C857 C858 1.410 . S
C857 C865 1.503 . S
C858 C857 1.410 . S
C858 C859 1.392 . S
C858 C861 1.511 . S
C859 C855 1.376 . S
C859 C858 1.392 . S
C859 H871 0.929 . S
C860 C856 1.531 . S
C860 H872 0.960 . S
C860 H873 0.962 . S
C860 H874 0.960 . S
C861 C858 1.511 . S
C861 H875 0.961 . S
C861 H876 0.961 . S
C861 H877 0.961 . S
C862 C863 1.370 . S
C862 C864 1.363 . S
C862 H878 0.931 . S
C863 C862 1.370 . S
C863 C867 1.408 . S
C864 C862 1.363 . S
C864 C865 1.370 . S
C864 C868 1.524 . S
C865 C857 1.503 . S
C865 C864 1.370 . S
C865 C866 1.403 . S
C866 C865 1.403 . S
C866 C867 1.404 . S
C866 C869 1.539 . S
C867 C863 1.408 . S
C867 C866 1.404 . S
C867 H879 0.930 . S
C868 C864 1.524 . S
C868 H880 0.956 . S
C868 H881 0.961 . S
C868 H882 0.961 . S
C869 C866 1.539 . S
C869 H883 0.958 . S
C869 H884 0.961 . S
C869 H885 0.960 . S
H870 C854 0.931 . S
H871 C859 0.929 . S
H872 C860 0.960 . S
H873 C860 0.962 . S
H874 C860 0.960 . S
H875 C861 0.961 . S
H876 C861 0.961 . S
H877 C861 0.961 . S
H878 C862 0.931 . S
H879 C867 0.930 . S
H880 C868 0.956 . S
H881 C868 0.961 . S
H882 C868 0.961 . S
H883 C869 0.958 . S
H884 C869 0.961 . S
H885 C869 0.960 . S
C886 C887 1.391 . S
C886 C888 1.394 . S
C886 H902 0.931 . S
C887 C886 1.391 . S
C887 C891 1.376 . S
C888 C886 1.394 . S
C888 C889 1.369 . S
C888 C892 1.531 . S
C889 C888 1.369 . S
C889 C890 1.410 . S
C889 C897 1.503 . S
C890 C889 1.410 . S
C890 C891 1.392 . S
C890 C893 1.511 . S
C891 C887 1.376 . S
C891 C890 1.392 . S
C891 H903 0.929 . S
C892 C888 1.531 . S
C892 H904 0.960 . S
C892 H905 0.962 . S
C892 H906 0.960 . S
C893 C890 1.511 . S
C893 H907 0.961 . S
C893 H908 0.961 . S
C893 H909 0.961 . S
C894 C895 1.370 . S
C894 C896 1.363 . S
C894 H910 0.931 . S
C895 C894 1.370 . S
C895 C899 1.408 . S
C896 C894 1.363 . S
C896 C897 1.370 . S
C896 C900 1.524 . S
C897 C889 1.503 . S
C897 C896 1.370 . S
C897 C898 1.403 . S
C898 C897 1.403 . S
C898 C899 1.404 . S
C898 C901 1.539 . S
C899 C895 1.408 . S
C899 C898 1.404 . S
C899 H911 0.930 . S
C900 C896 1.524 . S
C900 H912 0.956 . S
C900 H913 0.961 . S
C900 H914 0.961 . S
C901 C898 1.539 . S
C901 H915 0.958 . S
C901 H916 0.961 . S
C901 H917 0.960 . S
H902 C886 0.931 . S
H903 C891 0.929 . S
H904 C892 0.960 . S
H905 C892 0.962 . S
H906 C892 0.960 . S
H907 C893 0.961 . S
H908 C893 0.961 . S
H909 C893 0.961 . S
H910 C894 0.931 . S
H911 C899 0.930 . S
H912 C900 0.956 . S
H913 C900 0.961 . S
H914 C900 0.961 . S
H915 C901 0.958 . S
H916 C901 0.961 . S
H917 C901 0.960 . S
C918 C919 1.391 . S
C918 C920 1.394 . S
C918 H934 0.931 . S
C919 C918 1.391 . S
C919 C923 1.376 . S
C920 C918 1.394 . S
C920 C921 1.369 . S
C920 C924 1.531 . S
C921 C920 1.369 . S
C921 C922 1.410 . S
C921 C929 1.503 . S
C922 C921 1.410 . S
C922 C923 1.392 . S
C922 C925 1.511 . S
C923 C919 1.376 . S
C923 C922 1.392 . S
C923 H935 0.929 . S
C924 C920 1.531 . S
C924 H936 0.960 . S
C924 H937 0.962 . S
C924 H938 0.960 . S
C925 C922 1.511 . S
C925 H939 0.961 . S
C925 H940 0.961 . S
C925 H941 0.961 . S
C926 C927 1.370 . S
C926 C928 1.363 . S
C926 H942 0.931 . S
C927 C926 1.370 . S
C927 C931 1.408 . S
C928 C926 1.363 . S
C928 C929 1.370 . S
C928 C932 1.524 . S
C929 C921 1.503 . S
C929 C928 1.370 . S
C929 C930 1.403 . S
C930 C929 1.403 . S
C930 C931 1.404 . S
C930 C933 1.539 . S
C931 C927 1.408 . S
C931 C930 1.404 . S
C931 H943 0.930 . S
C932 C928 1.524 . S
C932 H944 0.956 . S
C932 H945 0.961 . S
C932 H946 0.961 . S
C933 C930 1.539 . S
C933 H947 0.958 . S
C933 H948 0.961 . S
C933 H949 0.960 . S
H934 C918 0.931 . S
H935 C923 0.929 . S
H936 C924 0.960 . S
H937 C924 0.962 . S
H938 C924 0.960 . S
H939 C925 0.961 . S
H940 C925 0.961 . S
H941 C925 0.961 . S
H942 C926 0.931 . S
H943 C931 0.930 . S
H944 C932 0.956 . S
H945 C932 0.961 . S
H946 C932 0.961 . S
H947 C933 0.958 . S
H948 C933 0.961 . S
H949 C933 0.960 . S
C950 C951 1.391 . S
C950 C952 1.394 . S
C950 H966 0.931 . S
C951 C950 1.391 . S
C951 C955 1.376 . S
C952 C950 1.394 . S
C952 C953 1.369 . S
C952 C956 1.531 . S
C953 C952 1.369 . S
C953 C954 1.410 . S
C953 C961 1.503 . S
C954 C953 1.410 . S
C954 C955 1.392 . S
C954 C957 1.511 . S
C955 C951 1.376 . S
C955 C954 1.392 . S
C955 H967 0.929 . S
C956 C952 1.531 . S
C956 H968 0.960 . S
C956 H969 0.962 . S
C956 H970 0.960 . S
C957 C954 1.511 . S
C957 H971 0.961 . S
C957 H972 0.961 . S
C957 H973 0.961 . S
C958 C959 1.370 . S
C958 C960 1.363 . S
C958 H974 0.931 . S
C959 C958 1.370 . S
C959 C963 1.408 . S
C960 C958 1.363 . S
C960 C961 1.370 . S
C960 C964 1.524 . S
C961 C953 1.503 . S
C961 C960 1.370 . S
C961 C962 1.403 . S
C962 C961 1.403 . S
C962 C963 1.404 . S
C962 C965 1.539 . S
C963 C959 1.408 . S
C963 C962 1.404 . S
C963 H975 0.930 . S
C964 C960 1.524 . S
C964 H976 0.956 . S
C964 H977 0.961 . S
C964 H978 0.961 . S
C965 C962 1.539 . S
C965 H979 0.958 . S
C965 H980 0.961 . S
C965 H981 0.960 . S
H966 C950 0.931 . S
H967 C955 0.929 . S
H968 C956 0.960 . S
H969 C956 0.962 . S
H970 C956 0.960 . S
H971 C957 0.961 . S
H972 C957 0.961 . S
H973 C957 0.961 . S
H974 C958 0.931 . S
H975 C963 0.930 . S
H976 C964 0.956 . S
H977 C964 0.961 . S
H978 C964 0.961 . S
H979 C965 0.958 . S
H980 C965 0.961 . S
H981 C965 0.960 . S
C982 C983 1.391 . S
C982 C984 1.394 . S
C982 H998 0.931 . S
C983 C982 1.391 . S
C983 C987 1.376 . S
C984 C982 1.394 . S
C984 C985 1.369 . S
C984 C988 1.531 . S
C985 C984 1.369 . S
C985 C986 1.410 . S
C985 C993 1.503 . S
C986 C985 1.410 . S
C986 C987 1.392 . S
C986 C989 1.511 . S
C987 C983 1.376 . S
C987 C986 1.392 . S
C987 H999 0.929 . S
C988 C984 1.531 . S
C988 H1000 0.960 . S
C988 H1001 0.962 . S
C988 H1002 0.960 . S
C989 C986 1.511 . S
C989 H1003 0.961 . S
C989 H1004 0.961 . S
C989 H1005 0.961 . S
C990 C991 1.370 . S
C990 C992 1.363 . S
C990 H1006 0.931 . S
C991 C990 1.370 . S
C991 C995 1.408 . S
C992 C990 1.363 . S
C992 C993 1.370 . S
C992 C996 1.524 . S
C993 C985 1.503 . S
C993 C992 1.370 . S
C993 C994 1.403 . S
C994 C993 1.403 . S
C994 C995 1.404 . S
C994 C997 1.539 . S
C995 C991 1.408 . S
C995 C994 1.404 . S
C995 H1007 0.930 . S
C996 C992 1.524 . S
C996 H1008 0.956 . S
C996 H1009 0.961 . S
C996 H1010 0.961 . S
C997 C994 1.539 . S
C997 H1011 0.958 . S
C997 H1012 0.961 . S
C997 H1013 0.960 . S
H998 C982 0.931 . S
H999 C987 0.929 . S
H1000 C988 0.960 . S
H1001 C988 0.962 . S
H1002 C988 0.960 . S
H1003 C989 0.961 . S
H1004 C989 0.961 . S
H1005 C989 0.961 . S
H1006 C990 0.931 . S
H1007 C995 0.930 . S
H1008 C996 0.956 . S
H1009 C996 0.961 . S
H1010 C996 0.961 . S
H1011 C997 0.958 . S
H1012 C997 0.961 . S
H1013 C997 0.960 . S
C1014 C1015 1.391 . S
C1014 C1016 1.394 . S
C1014 H1030 0.931 . S
C1015 C1014 1.391 . S
C1015 C1019 1.376 . S
C1016 C1014 1.394 . S
C1016 C1017 1.369 . S
C1016 C1020 1.531 . S
C1017 C1016 1.369 . S
C1017 C1018 1.410 . S
C1017 C1025 1.503 . S
C1018 C1017 1.410 . S
C1018 C1019 1.392 . S
C1018 C1021 1.511 . S
C1019 C1015 1.376 . S
C1019 C1018 1.392 . S
C1019 H1031 0.929 . S
C1020 C1016 1.531 . S
C1020 H1032 0.960 . S
C1020 H1033 0.962 . S
C1020 H1034 0.960 . S
C1021 C1018 1.511 . S
C1021 H1035 0.961 . S
C1021 H1036 0.961 . S
C1021 H1037 0.961 . S
C1022 C1023 1.370 . S
C1022 C1024 1.363 . S
C1022 H1038 0.931 . S
C1023 C1022 1.370 . S
C1023 C1027 1.408 . S
C1024 C1022 1.363 . S
C1024 C1025 1.370 . S
C1024 C1028 1.524 . S
C1025 C1017 1.503 . S
C1025 C1024 1.370 . S
C1025 C1026 1.403 . S
C1026 C1025 1.403 . S
C1026 C1027 1.404 . S
C1026 C1029 1.539 . S
C1027 C1023 1.408 . S
C1027 C1026 1.404 . S
C1027 H1039 0.930 . S
C1028 C1024 1.524 . S
C1028 H1040 0.956 . S
C1028 H1041 0.961 . S
C1028 H1042 0.961 . S
C1029 C1026 1.539 . S
C1029 H1043 0.958 . S
C1029 H1044 0.961 . S
C1029 H1045 0.960 . S
H1030 C1014 0.931 . S
H1031 C1019 0.929 . S
H1032 C1020 0.960 . S
H1033 C1020 0.962 . S
H1034 C1020 0.960 . S
H1035 C1021 0.961 . S
H1036 C1021 0.961 . S
H1037 C1021 0.961 . S
H1038 C1022 0.931 . S
H1039 C1027 0.930 . S
H1040 C1028 0.956 . S
H1041 C1028 0.961 . S
H1042 C1028 0.961 . S
H1043 C1029 0.958 . S
H1044 C1029 0.961 . S
H1045 C1029 0.960 . S
C1046 C1047 1.391 . S
C1046 C1048 1.394 . S
C1046 H1062 0.931 . S
C1047 C1046 1.391 . S
C1047 C1051 1.376 . S
C1048 C1046 1.394 . S
C1048 C1049 1.369 . S
C1048 C1052 1.531 . S
C1049 C1048 1.369 . S
C1049 C1050 1.410 . S
C1049 C1057 1.503 . S
C1050 C1049 1.410 . S
C1050 C1051 1.392 . S
C1050 C1053 1.511 . S
C1051 C1047 1.376 . S
C1051 C1050 1.392 . S
C1051 H1063 0.929 . S
C1052 C1048 1.531 . S
C1052 H1064 0.960 . S
C1052 H1065 0.962 . S
C1052 H1066 0.960 . S
C1053 C1050 1.511 . S
C1053 H1067 0.961 . S
C1053 H1068 0.961 . S
C1053 H1069 0.961 . S
C1054 C1055 1.370 . S
C1054 C1056 1.363 . S
C1054 H1070 0.931 . S
C1055 C1054 1.370 . S
C1055 C1059 1.408 . S
C1056 C1054 1.363 . S
C1056 C1057 1.370 . S
C1056 C1060 1.524 . S
C1057 C1049 1.503 . S
C1057 C1056 1.370 . S
C1057 C1058 1.403 . S
C1058 C1057 1.403 . S
C1058 C1059 1.404 . S
C1058 C1061 1.539 . S
C1059 C1055 1.408 . S
C1059 C1058 1.404 . S
C1059 H1071 0.930 . S
C1060 C1056 1.524 . S
C1060 H1072 0.956 . S
C1060 H1073 0.961 . S
C1060 H1074 0.961 . S
C1061 C1058 1.539 . S
C1061 H1075 0.958 . S
C1061 H1076 0.961 . S
C1061 H1077 0.960 . S
H1062 C1046 0.931 . S
H1063 C1051 0.929 . S
H1064 C1052 0.960 . S
H1065 C1052 0.962 . S
H1066 C1052 0.960 . S
H1067 C1053 0.961 . S
H1068 C1053 0.961 . S
H1069 C1053 0.961 . S
H1070 C1054 0.931 . S
H1071 C1059 0.930 . S
H1072 C1060 0.956 . S
H1073 C1060 0.961 . S
H1074 C1060 0.961 . S
H1075 C1061 0.958 . S
H1076 C1061 0.961 . S
H1077 C1061 0.960 . S
C1078 C1079 1.391 . S
C1078 C1080 1.394 . S
C1078 H1094 0.931 . S
C1079 C1078 1.391 . S
C1079 C1083 1.376 . S
C1080 C1078 1.394 . S
C1080 C1081 1.369 . S
C1080 C1084 1.531 . S
C1081 C1080 1.369 . S
C1081 C1082 1.410 . S
C1081 C1089 1.503 . S
C1082 C1081 1.410 . S
C1082 C1083 1.392 . S
C1082 C1085 1.511 . S
C1083 C1079 1.376 . S
C1083 C1082 1.392 . S
C1083 H1095 0.929 . S
C1084 C1080 1.531 . S
C1084 H1096 0.960 . S
C1084 H1097 0.962 . S
C1084 H1098 0.960 1_556 S
C1085 C1082 1.511 . S
C1085 H1099 0.961 . S
C1085 H1100 0.961 . S
C1085 H1101 0.961 . S
C1086 C1087 1.370 . S
C1086 C1088 1.363 . S
C1086 H1102 0.931 . S
C1087 C1086 1.370 . S
C1087 C1091 1.408 . S
C1088 C1086 1.363 . S
C1088 C1089 1.370 . S
C1088 C1092 1.524 . S
C1089 C1081 1.503 . S
C1089 C1088 1.370 . S
C1089 C1090 1.403 . S
C1090 C1089 1.403 . S
C1090 C1091 1.404 . S
C1090 C1093 1.539 1_556 S
C1091 C1087 1.408 . S
C1091 C1090 1.404 . S
C1091 H1103 0.930 1_556 S
C1092 C1088 1.524 . S
C1092 H1104 0.956 . S
C1092 H1105 0.961 . S
C1092 H1106 0.961 . S
C1093 C1090 1.539 1_554 S
C1093 H1107 0.958 . S
C1093 H1108 0.961 . S
C1093 H1109 0.960 1_554 S
H1094 C1078 0.931 . S
H1095 C1083 0.929 . S
H1096 C1084 0.960 . S
H1097 C1084 0.962 . S
H1098 C1084 0.960 1_554 S
H1099 C1085 0.961 . S
H1100 C1085 0.961 . S
H1101 C1085 0.961 . S
H1102 C1086 0.931 . S
H1103 C1091 0.930 1_554 S
H1104 C1092 0.956 . S
H1105 C1092 0.961 . S
H1106 C1092 0.961 . S
H1107 C1093 0.958 . S
H1108 C1093 0.961 . S
H1109 C1093 0.960 1_556 S
C1110 C1111 1.391 . S
C1110 C1112 1.394 . S
C1110 H1126 0.931 . S
C1111 C1110 1.391 . S
C1111 C1115 1.376 . S
C1112 C1110 1.394 . S
C1112 C1113 1.369 . S
C1112 C1116 1.531 . S
C1113 C1112 1.369 . S
C1113 C1114 1.410 . S
C1113 C1121 1.503 . S
C1114 C1113 1.410 . S
C1114 C1115 1.392 . S
C1114 C1117 1.511 . S
C1115 C1111 1.376 . S
C1115 C1114 1.392 . S
C1115 H1127 0.929 . S
C1116 C1112 1.531 . S
C1116 H1128 0.960 . S
C1116 H1129 0.962 . S
C1116 H1130 0.960 . S
C1117 C1114 1.511 . S
C1117 H1131 0.961 . S
C1117 H1132 0.961 . S
C1117 H1133 0.961 . S
C1118 C1119 1.370 . S
C1118 C1120 1.363 . S
C1118 H1134 0.931 . S
C1119 C1118 1.370 . S
C1119 C1123 1.408 . S
C1120 C1118 1.363 . S
C1120 C1121 1.370 . S
C1120 C1124 1.524 . S
C1121 C1113 1.503 . S
C1121 C1120 1.370 . S
C1121 C1122 1.403 . S
C1122 C1121 1.403 . S
C1122 C1123 1.404 . S
C1122 C1125 1.539 . S
C1123 C1119 1.408 . S
C1123 C1122 1.404 . S
C1123 H1135 0.930 . S
C1124 C1120 1.524 . S
C1124 H1136 0.956 . S
C1124 H1137 0.961 . S
C1124 H1138 0.961 . S
C1125 C1122 1.539 . S
C1125 H1139 0.958 . S
C1125 H1140 0.961 . S
C1125 H1141 0.960 . S
H1126 C1110 0.931 . S
H1127 C1115 0.929 . S
H1128 C1116 0.960 . S
H1129 C1116 0.962 . S
H1130 C1116 0.960 . S
H1131 C1117 0.961 . S
H1132 C1117 0.961 . S
H1133 C1117 0.961 . S
H1134 C1118 0.931 . S
H1135 C1123 0.930 . S
H1136 C1124 0.956 . S
H1137 C1124 0.961 . S
H1138 C1124 0.961 . S
H1139 C1125 0.958 . S
H1140 C1125 0.961 . S
H1141 C1125 0.960 . S
C1142 C1143 1.391 . S
C1142 C1144 1.394 . S
C1142 H1158 0.931 . S
C1143 C1142 1.391 . S
C1143 C1147 1.376 . S
C1144 C1142 1.394 . S
C1144 C1145 1.369 . S
C1144 C1148 1.531 . S
C1145 C1144 1.369 . S
C1145 C1146 1.410 . S
C1145 C1153 1.503 . S
C1146 C1145 1.410 . S
C1146 C1147 1.392 . S
C1146 C1149 1.511 . S
C1147 C1143 1.376 . S
C1147 C1146 1.392 . S
C1147 H1159 0.929 . S
C1148 C1144 1.531 . S
C1148 H1160 0.960 . S
C1148 H1161 0.962 . S
C1148 H1162 0.960 . S
C1149 C1146 1.511 . S
C1149 H1163 0.961 . S
C1149 H1164 0.961 . S
C1149 H1165 0.961 . S
C1150 C1151 1.370 . S
C1150 C1152 1.363 . S
C1150 H1166 0.931 . S
C1151 C1150 1.370 . S
C1151 C1155 1.408 . S
C1152 C1150 1.363 . S
C1152 C1153 1.370 . S
C1152 C1156 1.524 . S
C1153 C1145 1.503 . S
C1153 C1152 1.370 . S
C1153 C1154 1.403 . S
C1154 C1153 1.403 . S
C1154 C1155 1.404 . S
C1154 C1157 1.539 . S
C1155 C1151 1.408 . S
C1155 C1154 1.404 . S
C1155 H1167 0.930 . S
C1156 C1152 1.524 . S
C1156 H1168 0.956 . S
C1156 H1169 0.961 . S
C1156 H1170 0.961 . S
C1157 C1154 1.539 . S
C1157 H1171 0.958 . S
C1157 H1172 0.961 . S
C1157 H1173 0.960 . S
H1158 C1142 0.931 . S
H1159 C1147 0.929 . S
H1160 C1148 0.960 . S
H1161 C1148 0.962 . S
H1162 C1148 0.960 . S
H1163 C1149 0.961 . S
H1164 C1149 0.961 . S
H1165 C1149 0.961 . S
H1166 C1150 0.931 . S
H1167 C1155 0.930 . S
H1168 C1156 0.956 . S
H1169 C1156 0.961 . S
H1170 C1156 0.961 . S
H1171 C1157 0.958 . S
H1172 C1157 0.961 . S
H1173 C1157 0.960 . S
C1174 C1175 1.391 . S
C1174 C1176 1.394 . S
C1174 H1190 0.931 . S
C1175 C1174 1.391 . S
C1175 C1179 1.376 . S
C1176 C1174 1.394 . S
C1176 C1177 1.369 . S
C1176 C1180 1.531 . S
C1177 C1176 1.369 . S
C1177 C1178 1.410 . S
C1177 C1185 1.503 . S
C1178 C1177 1.410 . S
C1178 C1179 1.392 . S
C1178 C1181 1.511 . S
C1179 C1175 1.376 . S
C1179 C1178 1.392 . S
C1179 H1191 0.929 . S
C1180 C1176 1.531 . S
C1180 H1192 0.960 . S
C1180 H1193 0.962 . S
C1180 H1194 0.960 . S
C1181 C1178 1.511 . S
C1181 H1195 0.961 . S
C1181 H1196 0.961 . S
C1181 H1197 0.961 . S
C1182 C1183 1.370 . S
C1182 C1184 1.363 . S
C1182 H1198 0.931 . S
C1183 C1182 1.370 . S
C1183 C1187 1.408 . S
C1184 C1182 1.363 . S
C1184 C1185 1.370 . S
C1184 C1188 1.524 . S
C1185 C1177 1.503 . S
C1185 C1184 1.370 . S
C1185 C1186 1.403 . S
C1186 C1185 1.403 . S
C1186 C1187 1.404 . S
C1186 C1189 1.539 . S
C1187 C1183 1.408 . S
C1187 C1186 1.404 . S
C1187 H1199 0.930 . S
C1188 C1184 1.524 . S
C1188 H1200 0.956 . S
C1188 H1201 0.961 . S
C1188 H1202 0.961 . S
C1189 C1186 1.539 . S
C1189 H1203 0.958 . S
C1189 H1204 0.961 . S
C1189 H1205 0.960 . S
H1190 C1174 0.931 . S
H1191 C1179 0.929 . S
H1192 C1180 0.960 . S
H1193 C1180 0.962 . S
H1194 C1180 0.960 . S
H1195 C1181 0.961 . S
H1196 C1181 0.961 . S
H1197 C1181 0.961 . S
H1198 C1182 0.931 . S
H1199 C1187 0.930 . S
H1200 C1188 0.956 . S
H1201 C1188 0.961 . S
H1202 C1188 0.961 . S
H1203 C1189 0.958 . S
H1204 C1189 0.961 . S
H1205 C1189 0.960 . S
C1206 C1207 1.391 . S
C1206 C1208 1.394 . S
C1206 H1222 0.931 . S
C1207 C1206 1.391 . S
C1207 C1211 1.376 . S
C1208 C1206 1.394 . S
C1208 C1209 1.369 . S
C1208 C1212 1.531 . S
C1209 C1208 1.369 . S
C1209 C1210 1.410 . S
C1209 C1217 1.503 . S
C1210 C1209 1.410 . S
C1210 C1211 1.392 . S
C1210 C1213 1.511 . S
C1211 C1207 1.376 . S
C1211 C1210 1.392 . S
C1211 H1223 0.929 . S
C1212 C1208 1.531 . S
C1212 H1224 0.960 . S
C1212 H1225 0.962 . S
C1212 H1226 0.960 . S
C1213 C1210 1.511 . S
C1213 H1227 0.961 . S
C1213 H1228 0.961 . S
C1213 H1229 0.961 . S
C1214 C1215 1.370 . S
C1214 C1216 1.363 . S
C1214 H1230 0.931 . S
C1215 C1214 1.370 . S
C1215 C1219 1.408 . S
C1216 C1214 1.363 . S
C1216 C1217 1.370 . S
C1216 C1220 1.524 . S
C1217 C1209 1.503 . S
C1217 C1216 1.370 . S
C1217 C1218 1.403 . S
C1218 C1217 1.403 . S
C1218 C1219 1.404 . S
C1218 C1221 1.539 . S
C1219 C1215 1.408 . S
C1219 C1218 1.404 . S
C1219 H1231 0.930 . S
C1220 C1216 1.524 . S
C1220 H1232 0.956 . S
C1220 H1233 0.961 . S
C1220 H1234 0.935 1_554 S
C1221 C1218 1.539 . S
C1221 H1235 0.958 . S
C1221 H1236 0.961 . S
C1221 H1237 0.960 . S
H1222 C1206 0.931 . S
H1223 C1211 0.929 . S
H1224 C1212 0.960 . S
H1225 C1212 0.962 . S
H1226 C1212 0.960 . S
H1227 C1213 0.961 . S
H1228 C1213 0.961 . S
H1229 C1213 0.961 . S
H1230 C1214 0.931 . S
H1231 C1219 0.930 . S
H1232 C1220 0.956 . S
H1233 C1220 0.961 . S
H1234 C1220 0.935 1_556 S
H1235 C1221 0.958 . S
H1236 C1221 0.961 . S
H1237 C1221 0.960 . S
C1238 C1239 1.391 . S
C1238 C1240 1.394 . S
C1238 H1254 0.931 . S
C1239 C1238 1.391 . S
C1239 C1243 1.376 . S
C1240 C1238 1.394 . S
C1240 C1241 1.369 . S
C1240 C1244 1.531 . S
C1241 C1240 1.369 . S
C1241 C1242 1.410 . S
C1241 C1249 1.503 . S
C1242 C1241 1.410 . S
C1242 C1243 1.392 . S
C1242 C1245 1.511 . S
C1243 C1239 1.376 . S
C1243 C1242 1.392 . S
C1243 H1255 0.929 . S
C1244 C1240 1.531 . S
C1244 H1256 0.960 . S
C1244 H1257 0.962 . S
C1244 H1258 0.960 . S
C1245 C1242 1.511 . S
C1245 H1259 0.961 . S
C1245 H1260 0.961 . S
C1245 H1261 0.961 . S
C1246 C1247 1.370 . S
C1246 C1248 1.363 . S
C1246 H1262 0.931 . S
C1247 C1246 1.370 . S
C1247 C1251 1.408 . S
C1248 C1246 1.363 . S
C1248 C1249 1.370 . S
C1248 C1252 1.524 . S
C1249 C1241 1.503 . S
C1249 C1248 1.370 . S
C1249 C1250 1.403 . S
C1250 C1249 1.403 . S
C1250 C1251 1.404 . S
C1250 C1253 1.539 . S
C1251 C1247 1.408 . S
C1251 C1250 1.404 . S
C1251 H1263 0.930 . S
C1252 C1248 1.524 . S
C1252 H1264 0.956 . S
C1252 H1265 0.961 . S
C1252 H1266 0.961 . S
C1253 C1250 1.539 . S
C1253 H1267 0.958 . S
C1253 H1268 0.961 . S
C1253 H1269 0.960 . S
H1254 C1238 0.931 . S
H1255 C1243 0.929 . S
H1256 C1244 0.960 . S
H1257 C1244 0.962 . S
H1258 C1244 0.960 . S
H1259 C1245 0.961 . S
H1260 C1245 0.961 . S
H1261 C1245 0.961 . S
H1262 C1246 0.931 . S
H1263 C1251 0.930 . S
H1264 C1252 0.956 . S
H1265 C1252 0.961 . S
H1266 C1252 0.961 . S
H1267 C1253 0.958 . S
H1268 C1253 0.961 . S
H1269 C1253 0.960 . S
C1270 C1271 1.391 . S
C1270 C1272 1.394 . S
C1270 H1286 0.931 . S
C1271 C1270 1.391 . S
C1271 C1275 1.376 . S
C1272 C1270 1.394 . S
C1272 C1273 1.369 . S
C1272 C1276 1.531 . S
C1273 C1272 1.369 . S
C1273 C1274 1.410 . S
C1273 C1281 1.503 . S
C1274 C1273 1.410 . S
C1274 C1275 1.392 . S
C1274 C1277 1.511 . S
C1275 C1271 1.376 . S
C1275 C1274 1.392 . S
C1275 H1287 0.929 . S
C1276 C1272 1.531 . S
C1276 H1288 0.960 . S
C1276 H1289 0.962 . S
C1276 H1290 0.960 . S
C1277 C1274 1.511 . S
C1277 H1291 0.961 . S
C1277 H1292 0.961 . S
C1277 H1293 0.961 . S
C1278 C1279 1.370 . S
C1278 C1280 1.363 . S
C1278 H1294 0.931 . S
C1279 C1278 1.370 . S
C1279 C1283 1.408 . S
C1280 C1278 1.363 . S
C1280 C1281 1.370 . S
C1280 C1284 1.524 . S
C1281 C1273 1.503 . S
C1281 C1280 1.370 . S
C1281 C1282 1.403 . S
C1282 C1281 1.403 . S
C1282 C1283 1.404 . S
C1282 C1285 1.539 . S
C1283 C1279 1.408 . S
C1283 C1282 1.404 . S
C1283 H1295 0.930 . S
C1284 C1280 1.524 . S
C1284 H1296 0.956 . S
C1284 H1297 0.961 . S
C1284 H1298 0.961 . S
C1285 C1282 1.539 . S
C1285 H1299 0.958 . S
C1285 H1300 0.961 . S
C1285 H1301 0.960 . S
H1286 C1270 0.931 . S
H1287 C1275 0.929 . S
H1288 C1276 0.960 . S
H1289 C1276 0.962 . S
H1290 C1276 0.960 . S
H1291 C1277 0.961 . S
H1292 C1277 0.961 . S
H1293 C1277 0.961 . S
H1294 C1278 0.931 . S
H1295 C1283 0.930 . S
H1296 C1284 0.956 . S
H1297 C1284 0.961 . S
H1298 C1284 0.961 . S
H1299 C1285 0.958 . S
H1300 C1285 0.961 . S
H1301 C1285 0.960 . S
C1302 C1303 1.391 . S
C1302 C1304 1.394 . S
C1302 H1318 0.931 . S
C1303 C1302 1.391 . S
C1303 C1307 1.376 . S
C1304 C1302 1.394 . S
C1304 C1305 1.369 . S
C1304 C1308 1.531 . S
C1305 C1304 1.369 . S
C1305 C1306 1.410 . S
C1305 C1313 1.503 . S
C1306 C1305 1.410 . S
C1306 C1307 1.392 . S
C1306 C1309 1.511 . S
C1307 C1303 1.376 . S
C1307 C1306 1.392 . S
C1307 H1319 0.929 . S
C1308 C1304 1.531 . S
C1308 H1320 0.960 . S
C1308 H1321 0.962 . S
C1308 H1322 0.960 . S
C1309 C1306 1.511 . S
C1309 H1323 0.961 . S
C1309 H1324 0.961 . S
C1309 H1325 0.961 . S
C1310 C1311 1.370 . S
C1310 C1312 1.363 . S
C1310 H1326 0.931 . S
C1311 C1310 1.370 . S
C1311 C1315 1.408 . S
C1312 C1310 1.363 . S
C1312 C1313 1.370 . S
C1312 C1316 1.524 . S
C1313 C1305 1.503 . S
C1313 C1312 1.370 . S
C1313 C1314 1.403 . S
C1314 C1313 1.403 . S
C1314 C1315 1.404 . S
C1314 C1317 1.539 . S
C1315 C1311 1.408 . S
C1315 C1314 1.404 . S
C1315 H1327 0.930 . S
C1316 C1312 1.524 . S
C1316 H1328 0.956 . S
C1316 H1329 0.961 . S
C1316 H1330 0.961 . S
C1317 C1314 1.539 . S
C1317 H1331 0.958 . S
C1317 H1332 0.961 . S
C1317 H1333 0.960 . S
H1318 C1302 0.931 . S
H1319 C1307 0.929 . S
H1320 C1308 0.960 . S
H1321 C1308 0.962 . S
H1322 C1308 0.960 . S
H1323 C1309 0.961 . S
H1324 C1309 0.961 . S
H1325 C1309 0.961 . S
H1326 C1310 0.931 . S
H1327 C1315 0.930 . S
H1328 C1316 0.956 . S
H1329 C1316 0.961 . S
H1330 C1316 0.961 . S
H1331 C1317 0.958 . S
H1332 C1317 0.961 . S
H1333 C1317 0.960 . S
C1334 C1335 1.391 . S
C1334 C1336 1.394 . S
C1334 H1350 0.931 . S
C1335 C1334 1.391 . S
C1335 C1339 1.376 . S
C1336 C1334 1.394 . S
C1336 C1337 1.369 . S
C1336 C1340 1.531 . S
C1337 C1336 1.369 . S
C1337 C1338 1.410 . S
C1337 C1345 1.503 . S
C1338 C1337 1.410 . S
C1338 C1339 1.392 . S
C1338 C1341 1.511 . S
C1339 C1335 1.376 . S
C1339 C1338 1.392 . S
C1339 H1351 0.929 . S
C1340 C1336 1.531 . S
C1340 H1352 0.960 . S
C1340 H1353 0.962 . S
C1340 H1354 0.960 . S
C1341 C1338 1.511 . S
C1341 H1355 0.961 . S
C1341 H1356 0.961 . S
C1341 H1357 0.961 . S
C1342 C1343 1.370 . S
C1342 C1344 1.363 . S
C1342 H1358 0.931 . S
C1343 C1342 1.370 . S
C1343 C1347 1.408 . S
C1344 C1342 1.363 . S
C1344 C1345 1.370 . S
C1344 C1348 1.524 . S
C1345 C1337 1.503 . S
C1345 C1344 1.370 . S
C1345 C1346 1.403 . S
C1346 C1345 1.403 . S
C1346 C1347 1.404 . S
C1346 C1349 1.539 . S
C1347 C1343 1.408 . S
C1347 C1346 1.404 . S
C1347 H1359 0.930 . S
C1348 C1344 1.524 . S
C1348 H1360 0.956 . S
C1348 H1361 0.961 . S
C1348 H1362 0.961 . S
C1349 C1346 1.539 . S
C1349 H1363 0.958 . S
C1349 H1364 0.961 . S
C1349 H1365 0.960 . S
H1350 C1334 0.931 . S
H1351 C1339 0.929 . S
H1352 C1340 0.960 . S
H1353 C1340 0.962 . S
H1354 C1340 0.960 . S
H1355 C1341 0.961 . S
H1356 C1341 0.961 . S
H1357 C1341 0.961 . S
H1358 C1342 0.931 . S
H1359 C1347 0.930 . S
H1360 C1348 0.956 . S
H1361 C1348 0.961 . S
H1362 C1348 0.961 . S
H1363 C1349 0.958 . S
H1364 C1349 0.961 . S
H1365 C1349 0.960 . S
C1366 C1367 1.391 . S
C1366 C1368 1.394 . S
C1366 H1382 0.931 . S
C1367 C1366 1.391 . S
C1367 C1371 1.376 . S
C1368 C1366 1.394 . S
C1368 C1369 1.369 . S
C1368 C1372 1.531 . S
C1369 C1368 1.369 . S
C1369 C1370 1.410 . S
C1369 C1377 1.503 . S
C1370 C1369 1.410 . S
C1370 C1371 1.392 . S
C1370 C1373 1.511 . S
C1371 C1367 1.376 . S
C1371 C1370 1.392 . S
C1371 H1383 0.929 . S
C1372 C1368 1.531 . S
C1372 H1384 0.960 . S
C1372 H1385 0.962 . S
C1372 H1386 0.960 . S
C1373 C1370 1.511 . S
C1373 H1387 0.961 . S
C1373 H1388 0.961 . S
C1373 H1389 0.961 . S
C1374 C1375 1.370 . S
C1374 C1376 1.363 . S
C1374 H1390 0.931 . S
C1375 C1374 1.370 . S
C1375 C1379 1.408 . S
C1376 C1374 1.363 . S
C1376 C1377 1.370 . S
C1376 C1380 1.524 . S
C1377 C1369 1.503 . S
C1377 C1376 1.370 . S
C1377 C1378 1.403 . S
C1378 C1377 1.403 . S
C1378 C1379 1.404 . S
C1378 C1381 1.539 . S
C1379 C1375 1.408 . S
C1379 C1378 1.404 . S
C1379 H1391 0.930 . S
C1380 C1376 1.524 . S
C1380 H1392 0.956 . S
C1380 H1393 0.961 . S
C1380 H1394 0.961 . S
C1381 C1378 1.539 . S
C1381 H1395 0.958 . S
C1381 H1396 0.961 . S
C1381 H1397 0.960 . S
H1382 C1366 0.931 . S
H1383 C1371 0.929 . S
H1384 C1372 0.960 . S
H1385 C1372 0.962 . S
H1386 C1372 0.960 . S
H1387 C1373 0.961 . S
H1388 C1373 0.961 . S
H1389 C1373 0.961 . S
H1390 C1374 0.931 . S
H1391 C1379 0.930 . S
H1392 C1380 0.956 . S
H1393 C1380 0.961 . S
H1394 C1380 0.961 . S
H1395 C1381 0.958 . S
H1396 C1381 0.961 . S
H1397 C1381 0.960 . S
C1398 C1399 1.391 . S
C1398 C1400 1.394 . S
C1398 H1414 0.931 . S
C1399 C1398 1.391 . S
C1399 C1403 1.376 . S
C1400 C1398 1.394 . S
C1400 C1401 1.369 . S
C1400 C1404 1.531 . S
C1401 C1400 1.369 . S
C1401 C1402 1.410 . S
C1401 C1409 1.503 . S
C1402 C1401 1.410 . S
C1402 C1403 1.392 . S
C1402 C1405 1.511 . S
C1403 C1399 1.376 . S
C1403 C1402 1.392 . S
C1403 H1415 0.929 . S
C1404 C1400 1.531 . S
C1404 H1416 0.960 . S
C1404 H1417 0.962 . S
C1404 H1418 0.960 . S
C1405 C1402 1.511 . S
C1405 H1419 0.961 . S
C1405 H1420 0.961 . S
C1405 H1421 0.961 . S
C1406 C1407 1.370 . S
C1406 C1408 1.363 . S
C1406 H1422 0.931 . S
C1407 C1406 1.370 . S
C1407 C1411 1.408 . S
C1408 C1406 1.363 . S
C1408 C1409 1.370 . S
C1408 C1412 1.524 . S
C1409 C1401 1.503 . S
C1409 C1408 1.370 . S
C1409 C1410 1.403 . S
C1410 C1409 1.403 . S
C1410 C1411 1.404 . S
C1410 C1413 1.539 . S
C1411 C1407 1.408 . S
C1411 C1410 1.404 . S
C1411 H1423 0.930 . S
C1412 C1408 1.524 . S
C1412 H1424 0.956 . S
C1412 H1425 0.961 . S
C1412 H1426 0.961 . S
C1413 C1410 1.539 . S
C1413 H1427 0.958 . S
C1413 H1428 0.961 . S
C1413 H1429 0.960 . S
H1414 C1398 0.931 . S
H1415 C1403 0.929 . S
H1416 C1404 0.960 . S
H1417 C1404 0.962 . S
H1418 C1404 0.960 . S
H1419 C1405 0.961 . S
H1420 C1405 0.961 . S
H1421 C1405 0.961 . S
H1422 C1406 0.931 . S
H1423 C1411 0.930 . S
H1424 C1412 0.956 . S
H1425 C1412 0.961 . S
H1426 C1412 0.961 . S
H1427 C1413 0.958 . S
H1428 C1413 0.961 . S
H1429 C1413 0.960 . S
C1430 C1431 1.391 . S
C1430 C1432 1.394 . S
C1430 H1446 0.931 . S
C1431 C1430 1.391 . S
C1431 C1435 1.376 . S
C1432 C1430 1.394 . S
C1432 C1433 1.369 . S
C1432 C1436 1.531 . S
C1433 C1432 1.369 . S
C1433 C1434 1.410 . S
C1433 C1441 1.503 . S
C1434 C1433 1.410 . S
C1434 C1435 1.392 . S
C1434 C1437 1.511 . S
C1435 C1431 1.376 . S
C1435 C1434 1.392 . S
C1435 H1447 0.929 . S
C1436 C1432 1.531 . S
C1436 H1448 0.960 . S
C1436 H1449 0.962 . S
C1436 H1450 0.960 . S
C1437 C1434 1.511 . S
C1437 H1451 0.961 . S
C1437 H1452 0.961 . S
C1437 H1453 0.961 . S
C1438 C1439 1.370 . S
C1438 C1440 1.363 . S
C1438 H1454 0.931 . S
C1439 C1438 1.370 . S
C1439 C1443 1.408 . S
C1440 C1438 1.363 . S
C1440 C1441 1.370 . S
C1440 C1444 1.524 . S
C1441 C1433 1.503 . S
C1441 C1440 1.370 . S
C1441 C1442 1.403 . S
C1442 C1441 1.403 . S
C1442 C1443 1.404 . S
C1442 C1445 1.539 . S
C1443 C1439 1.408 . S
C1443 C1442 1.404 . S
C1443 H1455 0.930 . S
C1444 C1440 1.524 . S
C1444 H1456 0.956 . S
C1444 H1457 0.961 . S
C1444 H1458 0.961 . S
C1445 C1442 1.539 . S
C1445 H1459 0.958 . S
C1445 H1460 0.961 . S
C1445 H1461 0.960 . S
H1446 C1430 0.931 . S
H1447 C1435 0.929 . S
H1448 C1436 0.960 . S
H1449 C1436 0.962 . S
H1450 C1436 0.960 . S
H1451 C1437 0.961 . S
H1452 C1437 0.961 . S
H1453 C1437 0.961 . S
H1454 C1438 0.931 . S
H1455 C1443 0.930 . S
H1456 C1444 0.956 . S
H1457 C1444 0.961 . S
H1458 C1444 0.961 . S
H1459 C1445 0.958 . S
H1460 C1445 0.961 . S
H1461 C1445 0.960 . S
C1462 C1463 1.391 . S
C1462 C1464 1.394 . S
C1462 H1478 0.931 . S
C1463 C1462 1.391 . S
C1463 C1467 1.376 . S
C1464 C1462 1.394 . S
C1464 C1465 1.369 . S
C1464 C1468 1.531 . S
C1465 C1464 1.369 . S
C1465 C1466 1.410 . S
C1465 C1473 1.503 . S
C1466 C1465 1.410 . S
C1466 C1467 1.392 . S
C1466 C1469 1.511 . S
C1467 C1463 1.376 . S
C1467 C1466 1.392 . S
C1467 H1479 0.929 . S
C1468 C1464 1.531 . S
C1468 H1480 0.960 . S
C1468 H1481 0.962 . S
C1468 H1482 0.960 . S
C1469 C1466 1.511 . S
C1469 H1483 0.961 . S
C1469 H1484 0.961 . S
C1469 H1485 0.961 . S
C1470 C1471 1.370 . S
C1470 C1472 1.363 . S
C1470 H1486 0.931 . S
C1471 C1470 1.370 . S
C1471 C1475 1.408 . S
C1472 C1470 1.363 . S
C1472 C1473 1.370 . S
C1472 C1476 1.524 . S
C1473 C1465 1.503 . S
C1473 C1472 1.370 . S
C1473 C1474 1.403 . S
C1474 C1473 1.403 . S
C1474 C1475 1.404 . S
C1474 C1477 1.539 . S
C1475 C1471 1.408 . S
C1475 C1474 1.404 . S
C1475 H1487 0.930 . S
C1476 C1472 1.524 . S
C1476 H1488 0.956 . S
C1476 H1489 0.961 . S
C1476 H1490 0.961 . S
C1477 C1474 1.539 . S
C1477 H1491 0.958 . S
C1477 H1492 0.961 . S
C1477 H1493 0.960 . S
H1478 C1462 0.931 . S
H1479 C1467 0.929 . S
H1480 C1468 0.960 . S
H1481 C1468 0.962 . S
H1482 C1468 0.960 . S
H1483 C1469 0.961 . S
H1484 C1469 0.961 . S
H1485 C1469 0.961 . S
H1486 C1470 0.931 . S
H1487 C1475 0.930 . S
H1488 C1476 0.956 . S
H1489 C1476 0.961 . S
H1490 C1476 0.961 . S
H1491 C1477 0.958 . S
H1492 C1477 0.961 . S
H1493 C1477 0.960 . S
C1494 C1495 1.391 . S
C1494 C1496 1.394 . S
C1494 H1510 0.931 . S
C1495 C1494 1.391 . S
C1495 C1499 1.376 . S
C1496 C1494 1.394 . S
C1496 C1497 1.369 . S
C1496 C1500 1.531 . S
C1497 C1496 1.369 . S
C1497 C1498 1.410 . S
C1497 C1505 1.503 . S
C1498 C1497 1.410 . S
C1498 C1499 1.392 . S
C1498 C1501 1.511 . S
C1499 C1495 1.376 . S
C1499 C1498 1.392 . S
C1499 H1511 0.929 . S
C1500 C1496 1.531 . S
C1500 H1512 0.960 . S
C1500 H1513 0.962 . S
C1500 H1514 0.960 . S
C1501 C1498 1.511 . S
C1501 H1515 0.961 . S
C1501 H1516 0.961 . S
C1501 H1517 0.961 . S
C1502 C1503 1.370 . S
C1502 C1504 1.363 . S
C1502 H1518 0.931 . S
C1503 C1502 1.370 . S
C1503 C1507 1.408 . S
C1504 C1502 1.363 . S
C1504 C1505 1.370 . S
C1504 C1508 1.524 . S
C1505 C1497 1.503 . S
C1505 C1504 1.370 . S
C1505 C1506 1.403 . S
C1506 C1505 1.403 . S
C1506 C1507 1.404 . S
C1506 C1509 1.539 . S
C1507 C1503 1.408 . S
C1507 C1506 1.404 . S
C1507 H1519 0.930 . S
C1508 C1504 1.524 . S
C1508 H1520 0.956 . S
C1508 H1521 0.961 . S
C1508 H1522 0.961 . S
C1509 C1506 1.539 . S
C1509 H1523 0.958 . S
C1509 H1524 0.961 . S
C1509 H1525 0.960 . S
H1510 C1494 0.931 . S
H1511 C1499 0.929 . S
H1512 C1500 0.960 . S
H1513 C1500 0.962 . S
H1514 C1500 0.960 . S
H1515 C1501 0.961 . S
H1516 C1501 0.961 . S
H1517 C1501 0.961 . S
H1518 C1502 0.931 . S
H1519 C1507 0.930 . S
H1520 C1508 0.956 . S
H1521 C1508 0.961 . S
H1522 C1508 0.961 . S
H1523 C1509 0.958 . S
H1524 C1509 0.961 . S
H1525 C1509 0.960 . S
C1526 C1527 1.391 . S
C1526 C1528 1.394 . S
C1526 H1542 0.931 . S
C1527 C1526 1.391 . S
C1527 C1531 1.376 . S
C1528 C1526 1.394 . S
C1528 C1529 1.369 . S
C1528 C1532 1.531 . S
C1529 C1528 1.369 . S
C1529 C1530 1.410 . S
C1529 C1537 1.503 . S
C1530 C1529 1.410 . S
C1530 C1531 1.392 . S
C1530 C1533 1.511 . S
C1531 C1527 1.376 . S
C1531 C1530 1.392 . S
C1531 H1543 0.929 . S
C1532 C1528 1.531 . S
C1532 H1544 0.960 . S
C1532 H1545 0.962 . S
C1532 H1546 0.960 . S
C1533 C1530 1.511 . S
C1533 H1547 0.961 . S
C1533 H1548 0.961 . S
C1533 H1549 0.961 . S
C1534 C1535 1.370 . S
C1534 C1536 1.363 . S
C1534 H1550 0.931 . S
C1535 C1534 1.370 . S
C1535 C1539 1.408 . S
C1536 C1534 1.363 . S
C1536 C1537 1.370 . S
C1536 C1540 1.524 . S
C1537 C1529 1.503 . S
C1537 C1536 1.370 . S
C1537 C1538 1.403 . S
C1538 C1537 1.403 . S
C1538 C1539 1.404 . S
C1538 C1541 1.539 . S
C1539 C1535 1.408 . S
C1539 C1538 1.404 . S
C1539 H1551 0.930 . S
C1540 C1536 1.524 . S
C1540 H1552 0.956 . S
C1540 H1553 0.961 . S
C1540 H1554 0.961 . S
C1541 C1538 1.539 . S
C1541 H1555 0.958 . S
C1541 H1556 0.961 . S
C1541 H1557 0.960 . S
H1542 C1526 0.931 . S
H1543 C1531 0.929 . S
H1544 C1532 0.960 . S
H1545 C1532 0.962 . S
H1546 C1532 0.960 . S
H1547 C1533 0.961 . S
H1548 C1533 0.961 . S
H1549 C1533 0.961 . S
H1550 C1534 0.931 . S
H1551 C1539 0.930 . S
H1552 C1540 0.956 . S
H1553 C1540 0.961 . S
H1554 C1540 0.961 . S
H1555 C1541 0.958 . S
H1556 C1541 0.961 . S
H1557 C1541 0.960 . S
C1558 C1559 1.391 . S
C1558 C1560 1.394 . S
C1558 H1574 0.931 . S
C1559 C1558 1.391 . S
C1559 C1563 1.376 . S
C1560 C1558 1.394 . S
C1560 C1561 1.369 . S
C1560 C1564 1.531 . S
C1561 C1560 1.369 . S
C1561 C1562 1.410 . S
C1561 C1569 1.503 . S
C1562 C1561 1.410 . S
C1562 C1563 1.392 . S
C1562 C1565 1.511 . S
C1563 C1559 1.376 . S
C1563 C1562 1.392 . S
C1563 H1575 0.929 . S
C1564 C1560 1.531 . S
C1564 H1576 0.960 . S
C1564 H1577 0.962 . S
C1564 H1578 0.960 . S
C1565 C1562 1.511 . S
C1565 H1579 0.961 . S
C1565 H1580 0.961 . S
C1565 H1581 0.961 . S
C1566 C1567 1.370 . S
C1566 C1568 1.363 . S
C1566 H1582 0.931 . S
C1567 C1566 1.370 . S
C1567 C1571 1.408 . S
C1568 C1566 1.363 . S
C1568 C1569 1.370 . S
C1568 C1572 1.524 . S
C1569 C1561 1.503 . S
C1569 C1568 1.370 . S
C1569 C1570 1.403 . S
C1570 C1569 1.403 . S
C1570 C1571 1.404 . S
C1570 C1573 1.539 . S
C1571 C1567 1.408 . S
C1571 C1570 1.404 . S
C1571 H1583 0.930 . S
C1572 C1568 1.524 . S
C1572 H1584 0.956 . S
C1572 H1585 0.961 . S
C1572 H1586 0.961 . S
C1573 C1570 1.539 . S
C1573 H1587 0.958 . S
C1573 H1588 0.961 . S
C1573 H1589 0.960 . S
H1574 C1558 0.931 . S
H1575 C1563 0.929 . S
H1576 C1564 0.960 . S
H1577 C1564 0.962 . S
H1578 C1564 0.960 . S
H1579 C1565 0.961 . S
H1580 C1565 0.961 . S
H1581 C1565 0.961 . S
H1582 C1566 0.931 . S
H1583 C1571 0.930 . S
H1584 C1572 0.956 . S
H1585 C1572 0.961 . S
H1586 C1572 0.961 . S
H1587 C1573 0.958 . S
H1588 C1573 0.961 . S
H1589 C1573 0.960 . S
C1590 C1591 1.391 . S
C1590 C1592 1.394 . S
C1590 H1606 0.931 . S
C1591 C1590 1.391 . S
C1591 C1595 1.376 . S
C1592 C1590 1.394 . S
C1592 C1593 1.369 . S
C1592 C1596 1.531 . S
C1593 C1592 1.369 . S
C1593 C1594 1.410 . S
C1593 C1601 1.503 . S
C1594 C1593 1.410 . S
C1594 C1595 1.392 . S
C1594 C1597 1.511 . S
C1595 C1591 1.376 . S
C1595 C1594 1.392 . S
C1595 H1607 0.929 . S
C1596 C1592 1.531 . S
C1596 H1608 0.960 . S
C1596 H1609 0.962 . S
C1596 H1610 0.960 . S
C1597 C1594 1.511 . S
C1597 H1611 0.961 . S
C1597 H1612 0.961 . S
C1597 H1613 0.961 . S
C1598 C1599 1.370 . S
C1598 C1600 1.363 . S
C1598 H1614 0.931 . S
C1599 C1598 1.370 . S
C1599 C1603 1.408 . S
C1600 C1598 1.363 . S
C1600 C1601 1.370 . S
C1600 C1604 1.524 . S
C1601 C1593 1.503 . S
C1601 C1600 1.370 . S
C1601 C1602 1.403 . S
C1602 C1601 1.403 . S
C1602 C1603 1.404 . S
C1602 C1605 1.539 . S
C1603 C1599 1.408 . S
C1603 C1602 1.404 . S
C1603 H1615 0.930 . S
C1604 C1600 1.524 . S
C1604 H1616 0.956 . S
C1604 H1617 0.961 . S
C1604 H1618 0.961 . S
C1605 C1602 1.539 . S
C1605 H1619 0.958 . S
C1605 H1620 0.961 . S
C1605 H1621 0.960 . S
H1606 C1590 0.931 . S
H1607 C1595 0.929 . S
H1608 C1596 0.960 . S
H1609 C1596 0.962 . S
H1610 C1596 0.960 . S
H1611 C1597 0.961 . S
H1612 C1597 0.961 . S
H1613 C1597 0.961 . S
H1614 C1598 0.931 . S
H1615 C1603 0.930 . S
H1616 C1604 0.956 . S
H1617 C1604 0.961 . S
H1618 C1604 0.961 . S
H1619 C1605 0.958 . S
H1620 C1605 0.961 . S
H1621 C1605 0.960 . S
C1622 C1623 1.391 . S
C1622 C1624 1.394 . S
C1622 H1638 0.931 . S
C1623 C1622 1.391 . S
C1623 C1627 1.376 . S
C1624 C1622 1.394 . S
C1624 C1625 1.369 . S
C1624 C1628 1.531 . S
C1625 C1624 1.369 . S
C1625 C1626 1.410 . S
C1625 C1633 1.503 . S
C1626 C1625 1.410 . S
C1626 C1627 1.392 . S
C1626 C1629 1.511 . S
C1627 C1623 1.376 . S
C1627 C1626 1.392 . S
C1627 H1639 0.929 . S
C1628 C1624 1.531 . S
C1628 H1640 0.960 . S
C1628 H1641 0.962 . S
C1628 H1642 0.960 . S
C1629 C1626 1.511 . S
C1629 H1643 0.961 . S
C1629 H1644 0.961 . S
C1629 H1645 0.961 . S
C1630 C1631 1.370 . S
C1630 C1632 1.363 . S
C1630 H1646 0.931 . S
C1631 C1630 1.370 . S
C1631 C1635 1.408 . S
C1632 C1630 1.363 . S
C1632 C1633 1.370 . S
C1632 C1636 1.524 . S
C1633 C1625 1.503 . S
C1633 C1632 1.370 . S
C1633 C1634 1.403 . S
C1634 C1633 1.403 . S
C1634 C1635 1.404 . S
C1634 C1637 1.539 . S
C1635 C1631 1.408 . S
C1635 C1634 1.404 . S
C1635 H1647 0.930 . S
C1636 C1632 1.524 . S
C1636 H1648 0.956 . S
C1636 H1649 0.961 . S
C1636 H1650 0.961 . S
C1637 C1634 1.539 . S
C1637 H1651 0.958 . S
C1637 H1652 0.961 . S
C1637 H1653 0.960 . S
H1638 C1622 0.931 . S
H1639 C1627 0.929 . S
H1640 C1628 0.960 . S
H1641 C1628 0.962 . S
H1642 C1628 0.960 . S
H1643 C1629 0.961 . S
H1644 C1629 0.961 . S
H1645 C1629 0.961 . S
H1646 C1630 0.931 . S
H1647 C1635 0.930 . S
H1648 C1636 0.956 . S
H1649 C1636 0.961 . S
H1650 C1636 0.961 . S
H1651 C1637 0.958 . S
H1652 C1637 0.961 . S
H1653 C1637 0.960 . S
C1654 C1655 1.391 . S
C1654 C1656 1.394 . S
C1654 H1670 0.931 . S
C1655 C1654 1.391 . S
C1655 C1659 1.376 . S
C1656 C1654 1.394 . S
C1656 C1657 1.369 . S
C1656 C1660 1.531 . S
C1657 C1656 1.369 . S
C1657 C1658 1.410 . S
C1657 C1665 1.503 . S
C1658 C1657 1.410 . S
C1658 C1659 1.392 . S
C1658 C1661 1.511 . S
C1659 C1655 1.376 . S
C1659 C1658 1.392 . S
C1659 H1671 0.929 . S
C1660 C1656 1.531 . S
C1660 H1672 0.960 . S
C1660 H1673 0.962 . S
C1660 H1674 0.960 . S
C1661 C1658 1.511 . S
C1661 H1675 0.961 . S
C1661 H1676 0.961 . S
C1661 H1677 0.961 . S
C1662 C1663 1.370 . S
C1662 C1664 1.363 . S
C1662 H1678 0.931 . S
C1663 C1662 1.370 . S
C1663 C1667 1.408 . S
C1664 C1662 1.363 . S
C1664 C1665 1.370 . S
C1664 C1668 1.524 . S
C1665 C1657 1.503 . S
C1665 C1664 1.370 . S
C1665 C1666 1.403 . S
C1666 C1665 1.403 . S
C1666 C1667 1.404 . S
C1666 C1669 1.539 . S
C1667 C1663 1.408 . S
C1667 C1666 1.404 . S
C1667 H1679 0.930 . S
C1668 C1664 1.524 . S
C1668 H1680 0.956 . S
C1668 H1681 0.961 . S
C1668 H1682 0.961 . S
C1669 C1666 1.539 . S
C1669 H1683 0.958 . S
C1669 H1684 0.961 . S
C1669 H1685 0.960 . S
H1670 C1654 0.931 . S
H1671 C1659 0.929 . S
H1672 C1660 0.960 . S
H1673 C1660 0.962 . S
H1674 C1660 0.960 . S
H1675 C1661 0.961 . S
H1676 C1661 0.961 . S
H1677 C1661 0.961 . S
H1678 C1662 0.931 . S
H1679 C1667 0.930 . S
H1680 C1668 0.956 . S
H1681 C1668 0.961 . S
H1682 C1668 0.961 . S
H1683 C1669 0.958 . S
H1684 C1669 0.961 . S
H1685 C1669 0.960 . S
C1686 C1687 1.391 . S
C1686 C1688 1.394 . S
C1686 H1702 0.931 . S
C1687 C1686 1.391 . S
C1687 C1691 1.376 . S
C1688 C1686 1.394 . S
C1688 C1689 1.369 . S
C1688 C1692 1.531 . S
C1689 C1688 1.369 . S
C1689 C1690 1.410 . S
C1689 C1697 1.503 . S
C1690 C1689 1.410 . S
C1690 C1691 1.392 . S
C1690 C1693 1.511 . S
C1691 C1687 1.376 . S
C1691 C1690 1.392 . S
C1691 H1703 0.929 . S
C1692 C1688 1.531 . S
C1692 H1704 0.960 . S
C1692 H1705 0.962 . S
C1692 H1706 0.960 . S
C1693 C1690 1.511 . S
C1693 H1707 0.961 . S
C1693 H1708 0.961 . S
C1693 H1709 0.961 . S
C1694 C1695 1.370 . S
C1694 C1696 1.363 . S
C1694 H1710 0.931 . S
C1695 C1694 1.370 . S
C1695 C1699 1.408 . S
C1696 C1694 1.363 . S
C1696 C1697 1.370 . S
C1696 C1700 1.524 . S
C1697 C1689 1.503 . S
C1697 C1696 1.370 . S
C1697 C1698 1.403 . S
C1698 C1697 1.403 . S
C1698 C1699 1.404 . S
C1698 C1701 1.539 . S
C1699 C1695 1.408 . S
C1699 C1698 1.404 . S
C1699 H1711 0.930 . S
C1700 C1696 1.524 . S
C1700 H1712 0.956 . S
C1700 H1713 0.961 . S
C1700 H1714 0.961 . S
C1701 C1698 1.539 . S
C1701 H1715 0.958 . S
C1701 H1716 0.961 . S
C1701 H1717 0.960 . S
H1702 C1686 0.931 . S
H1703 C1691 0.929 . S
H1704 C1692 0.960 . S
H1705 C1692 0.962 . S
H1706 C1692 0.960 . S
H1707 C1693 0.961 . S
H1708 C1693 0.961 . S
H1709 C1693 0.961 . S
H1710 C1694 0.931 . S
H1711 C1699 0.930 . S
H1712 C1700 0.956 . S
H1713 C1700 0.961 . S
H1714 C1700 0.961 . S
H1715 C1701 0.958 . S
H1716 C1701 0.961 . S
H1717 C1701 0.960 . S
C1718 C1719 1.391 . S
C1718 C1720 1.394 . S
C1718 H1734 0.931 . S
C1719 C1718 1.391 . S
C1719 C1723 1.376 . S
C1720 C1718 1.394 . S
C1720 C1721 1.369 . S
C1720 C1724 1.531 . S
C1721 C1720 1.369 . S
C1721 C1722 1.410 . S
C1721 C1729 1.503 . S
C1722 C1721 1.410 . S
C1722 C1723 1.392 . S
C1722 C1725 1.511 . S
C1723 C1719 1.376 . S
C1723 C1722 1.392 . S
C1723 H1735 0.929 . S
C1724 C1720 1.531 . S
C1724 H1736 0.960 . S
C1724 H1737 0.962 . S
C1724 H1738 0.960 . S
C1725 C1722 1.511 . S
C1725 H1739 0.961 . S
C1725 H1740 0.961 . S
C1725 H1741 0.961 . S
C1726 C1727 1.370 . S
C1726 C1728 1.363 . S
C1726 H1742 0.931 . S
C1727 C1726 1.370 . S
C1727 C1731 1.408 . S
C1728 C1726 1.363 . S
C1728 C1729 1.370 . S
C1728 C1732 1.524 . S
C1729 C1721 1.503 . S
C1729 C1728 1.370 . S
C1729 C1730 1.403 . S
C1730 C1729 1.403 . S
C1730 C1731 1.404 . S
C1730 C1733 1.539 . S
C1731 C1727 1.408 . S
C1731 C1730 1.404 . S
C1731 H1743 0.930 . S
C1732 C1728 1.524 . S
C1732 H1744 0.956 . S
C1732 H1745 0.961 . S
C1732 H1746 0.961 . S
C1733 C1730 1.539 . S
C1733 H1747 0.958 . S
C1733 H1748 0.961 . S
C1733 H1749 0.960 . S
H1734 C1718 0.931 . S
H1735 C1723 0.929 . S
H1736 C1724 0.960 . S
H1737 C1724 0.962 . S
H1738 C1724 0.960 . S
H1739 C1725 0.961 . S
H1740 C1725 0.961 . S
H1741 C1725 0.961 . S
H1742 C1726 0.931 . S
H1743 C1731 0.930 . S
H1744 C1732 0.956 . S
H1745 C1732 0.961 . S
H1746 C1732 0.961 . S
H1747 C1733 0.958 . S
H1748 C1733 0.961 . S
H1749 C1733 0.960 . S
C1750 C1751 1.391 . S
C1750 C1752 1.394 . S
C1750 H1766 0.931 . S
C1751 C1750 1.391 . S
C1751 C1755 1.376 . S
C1752 C1750 1.394 . S
C1752 C1753 1.369 . S
C1752 C1756 1.531 . S
C1753 C1752 1.369 . S
C1753 C1754 1.410 . S
C1753 C1761 1.503 . S
C1754 C1753 1.410 . S
C1754 C1755 1.392 . S
C1754 C1757 1.511 . S
C1755 C1751 1.376 . S
C1755 C1754 1.392 . S
C1755 H1767 0.929 . S
C1756 C1752 1.531 . S
C1756 H1768 0.960 . S
C1756 H1769 0.962 . S
C1756 H1770 0.960 . S
C1757 C1754 1.511 . S
C1757 H1771 0.961 . S
C1757 H1772 0.961 . S
C1757 H1773 0.961 . S
C1758 C1759 1.370 . S
C1758 C1760 1.363 . S
C1758 H1774 0.931 . S
C1759 C1758 1.370 . S
C1759 C1763 1.408 . S
C1760 C1758 1.363 . S
C1760 C1761 1.370 . S
C1760 C1764 1.524 . S
C1761 C1753 1.503 . S
C1761 C1760 1.370 . S
C1761 C1762 1.403 . S
C1762 C1761 1.403 . S
C1762 C1763 1.404 . S
C1762 C1765 1.539 . S
C1763 C1759 1.408 . S
C1763 C1762 1.404 . S
C1763 H1775 0.930 . S
C1764 C1760 1.524 . S
C1764 H1776 0.956 . S
C1764 H1777 0.961 . S
C1764 H1778 0.961 . S
C1765 C1762 1.539 . S
C1765 H1779 0.958 . S
C1765 H1780 0.961 . S
C1765 H1781 0.960 . S
H1766 C1750 0.931 . S
H1767 C1755 0.929 . S
H1768 C1756 0.960 . S
H1769 C1756 0.962 . S
H1770 C1756 0.960 . S
H1771 C1757 0.961 . S
H1772 C1757 0.961 . S
H1773 C1757 0.961 . S
H1774 C1758 0.931 . S
H1775 C1763 0.930 . S
H1776 C1764 0.956 . S
H1777 C1764 0.961 . S
H1778 C1764 0.961 . S
H1779 C1765 0.958 . S
H1780 C1765 0.961 . S
H1781 C1765 0.960 . S
C1782 C1783 1.391 . S
C1782 C1784 1.394 . S
C1782 H1798 0.931 . S
C1783 C1782 1.391 . S
C1783 C1787 1.376 . S
C1784 C1782 1.394 . S
C1784 C1785 1.369 . S
C1784 C1788 1.531 . S
C1785 C1784 1.369 . S
C1785 C1786 1.410 . S
C1785 C1793 1.503 . S
C1786 C1785 1.410 . S
C1786 C1787 1.392 . S
C1786 C1789 1.511 . S
C1787 C1783 1.376 . S
C1787 C1786 1.392 . S
C1787 H1799 0.929 . S
C1788 C1784 1.531 . S
C1788 H1800 0.960 . S
C1788 H1801 0.962 . S
C1788 H1802 0.960 . S
C1789 C1786 1.511 . S
C1789 H1803 0.961 . S
C1789 H1804 0.961 . S
C1789 H1805 0.961 . S
C1790 C1791 1.370 . S
C1790 C1792 1.363 . S
C1790 H1806 0.931 . S
C1791 C1790 1.370 . S
C1791 C1795 1.408 . S
C1792 C1790 1.363 . S
C1792 C1793 1.370 . S
C1792 C1796 1.524 . S
C1793 C1785 1.503 . S
C1793 C1792 1.370 . S
C1793 C1794 1.403 . S
C1794 C1793 1.403 . S
C1794 C1795 1.404 . S
C1794 C1797 1.539 . S
C1795 C1791 1.408 . S
C1795 C1794 1.404 . S
C1795 H1807 0.930 . S
C1796 C1792 1.524 . S
C1796 H1808 0.956 . S
C1796 H1809 0.961 . S
C1796 H1810 0.961 . S
C1797 C1794 1.539 . S
C1797 H1811 0.958 . S
C1797 H1812 0.961 . S
C1797 H1813 0.960 . S
H1798 C1782 0.931 . S
H1799 C1787 0.929 . S
H1800 C1788 0.960 . S
H1801 C1788 0.962 . S
H1802 C1788 0.960 . S
H1803 C1789 0.961 . S
H1804 C1789 0.961 . S
H1805 C1789 0.961 . S
H1806 C1790 0.931 . S
H1807 C1795 0.930 . S
H1808 C1796 0.956 . S
H1809 C1796 0.961 . S
H1810 C1796 0.961 . S
H1811 C1797 0.958 . S
H1812 C1797 0.961 . S
H1813 C1797 0.960 . S
C1814 C1815 1.391 . S
C1814 C1816 1.394 . S
C1814 H1830 0.931 . S
C1815 C1814 1.391 . S
C1815 C1819 1.376 . S
C1816 C1814 1.394 . S
C1816 C1817 1.369 . S
C1816 C1820 1.531 . S
C1817 C1816 1.369 . S
C1817 C1818 1.410 . S
C1817 C1825 1.503 . S
C1818 C1817 1.410 . S
C1818 C1819 1.392 . S
C1818 C1821 1.511 . S
C1819 C1815 1.376 . S
C1819 C1818 1.392 . S
C1819 H1831 0.929 . S
C1820 C1816 1.531 . S
C1820 H1832 0.960 . S
C1820 H1833 0.962 . S
C1820 H1834 0.960 . S
C1821 C1818 1.511 . S
C1821 H1835 0.961 . S
C1821 H1836 0.961 . S
C1821 H1837 0.961 . S
C1822 C1823 1.370 . S
C1822 C1824 1.363 . S
C1822 H1838 0.931 . S
C1823 C1822 1.370 . S
C1823 C1827 1.408 . S
C1824 C1822 1.363 . S
C1824 C1825 1.370 . S
C1824 C1828 1.524 . S
C1825 C1817 1.503 . S
C1825 C1824 1.370 . S
C1825 C1826 1.403 . S
C1826 C1825 1.403 . S
C1826 C1827 1.404 . S
C1826 C1829 1.539 . S
C1827 C1823 1.408 . S
C1827 C1826 1.404 . S
C1827 H1839 0.930 . S
C1828 C1824 1.524 . S
C1828 H1840 0.956 . S
C1828 H1841 0.961 . S
C1828 H1842 0.961 . S
C1829 C1826 1.539 . S
C1829 H1843 0.958 . S
C1829 H1844 0.961 . S
C1829 H1845 0.960 . S
H1830 C1814 0.931 . S
H1831 C1819 0.929 . S
H1832 C1820 0.960 . S
H1833 C1820 0.962 . S
H1834 C1820 0.960 . S
H1835 C1821 0.961 . S
H1836 C1821 0.961 . S
H1837 C1821 0.961 . S
H1838 C1822 0.931 . S
H1839 C1827 0.930 . S
H1840 C1828 0.956 . S
H1841 C1828 0.961 . S
H1842 C1828 0.961 . S
H1843 C1829 0.958 . S
H1844 C1829 0.961 . S
H1845 C1829 0.960 . S
C1846 C1847 1.391 . S
C1846 C1848 1.394 . S
C1846 H1862 0.931 . S
C1847 C1846 1.391 . S
C1847 C1851 1.376 . S
C1848 C1846 1.394 . S
C1848 C1849 1.369 . S
C1848 C1852 1.531 . S
C1849 C1848 1.369 . S
C1849 C1850 1.410 . S
C1849 C1857 1.503 . S
C1850 C1849 1.410 . S
C1850 C1851 1.392 . S
C1850 C1853 1.511 . S
C1851 C1847 1.376 . S
C1851 C1850 1.392 . S
C1851 H1863 0.929 . S
C1852 C1848 1.531 . S
C1852 H1864 0.960 . S
C1852 H1865 0.962 . S
C1852 H1866 0.960 . S
C1853 C1850 1.511 . S
C1853 H1867 0.961 . S
C1853 H1868 0.961 . S
C1853 H1869 0.961 . S
C1854 C1855 1.370 . S
C1854 C1856 1.363 . S
C1854 H1870 0.931 . S
C1855 C1854 1.370 . S
C1855 C1859 1.408 . S
C1856 C1854 1.363 . S
C1856 C1857 1.370 . S
C1856 C1860 1.524 . S
C1857 C1849 1.503 . S
C1857 C1856 1.370 . S
C1857 C1858 1.403 . S
C1858 C1857 1.403 . S
C1858 C1859 1.404 . S
C1858 C1861 1.539 . S
C1859 C1855 1.408 . S
C1859 C1858 1.404 . S
C1859 H1871 0.930 . S
C1860 C1856 1.524 . S
C1860 H1872 0.956 . S
C1860 H1873 0.961 . S
C1860 H1874 0.961 . S
C1861 C1858 1.539 . S
C1861 H1875 0.958 . S
C1861 H1876 0.961 . S
C1861 H1877 0.960 . S
H1862 C1846 0.931 . S
H1863 C1851 0.929 . S
H1864 C1852 0.960 . S
H1865 C1852 0.962 . S
H1866 C1852 0.960 . S
H1867 C1853 0.961 . S
H1868 C1853 0.961 . S
H1869 C1853 0.961 . S
H1870 C1854 0.931 . S
H1871 C1859 0.930 . S
H1872 C1860 0.956 . S
H1873 C1860 0.961 . S
H1874 C1860 0.961 . S
H1875 C1861 0.958 . S
H1876 C1861 0.961 . S
H1877 C1861 0.960 . S
C1878 C1879 1.391 . S
C1878 C1880 1.394 . S
C1878 H1894 0.931 . S
C1879 C1878 1.391 . S
C1879 C1883 1.376 . S
C1880 C1878 1.394 . S
C1880 C1881 1.369 . S
C1880 C1884 1.531 . S
C1881 C1880 1.369 . S
C1881 C1882 1.410 . S
C1881 C1889 1.503 . S
C1882 C1881 1.410 . S
C1882 C1883 1.392 . S
C1882 C1885 1.511 . S
C1883 C1879 1.376 . S
C1883 C1882 1.392 . S
C1883 H1895 0.929 . S
C1884 C1880 1.531 . S
C1884 H1896 0.960 . S
C1884 H1897 0.962 . S
C1884 H1898 0.960 . S
C1885 C1882 1.511 . S
C1885 H1899 0.961 . S
C1885 H1900 0.961 . S
C1885 H1901 0.961 . S
C1886 C1887 1.370 . S
C1886 C1888 1.363 . S
C1886 H1902 0.931 . S
C1887 C1886 1.370 . S
C1887 C1891 1.408 . S
C1888 C1886 1.363 . S
C1888 C1889 1.370 . S
C1888 C1892 1.524 . S
C1889 C1881 1.503 . S
C1889 C1888 1.370 . S
C1889 C1890 1.403 . S
C1890 C1889 1.403 . S
C1890 C1891 1.404 . S
C1890 C1893 1.539 . S
C1891 C1887 1.408 . S
C1891 C1890 1.404 . S
C1891 H1903 0.930 . S
C1892 C1888 1.524 . S
C1892 H1904 0.956 . S
C1892 H1905 0.961 . S
C1892 H1906 0.961 . S
C1893 C1890 1.539 . S
C1893 H1907 0.958 . S
C1893 H1908 0.961 . S
C1893 H1909 0.960 . S
H1894 C1878 0.931 . S
H1895 C1883 0.929 . S
H1896 C1884 0.960 . S
H1897 C1884 0.962 . S
H1898 C1884 0.960 . S
H1899 C1885 0.961 . S
H1900 C1885 0.961 . S
H1901 C1885 0.961 . S
H1902 C1886 0.931 . S
H1903 C1891 0.930 . S
H1904 C1892 0.956 . S
H1905 C1892 0.961 . S
H1906 C1892 0.961 . S
H1907 C1893 0.958 . S
H1908 C1893 0.961 . S
H1909 C1893 0.960 . S
C1910 C1911 1.391 . S
C1910 C1912 1.394 . S
C1910 H1926 0.931 . S
C1911 C1910 1.391 . S
C1911 C1915 1.376 . S
C1912 C1910 1.394 . S
C1912 C1913 1.369 . S
C1912 C1916 1.531 . S
C1913 C1912 1.369 . S
C1913 C1914 1.410 . S
C1913 C1921 1.503 . S
C1914 C1913 1.410 . S
C1914 C1915 1.392 . S
C1914 C1917 1.511 . S
C1915 C1911 1.376 . S
C1915 C1914 1.392 . S
C1915 H1927 0.929 . S
C1916 C1912 1.531 . S
C1916 H1928 0.960 . S
C1916 H1929 0.962 . S
C1916 H1930 0.960 . S
C1917 C1914 1.511 . S
C1917 H1931 0.961 . S
C1917 H1932 0.961 . S
C1917 H1933 0.961 . S
C1918 C1919 1.370 . S
C1918 C1920 1.363 . S
C1918 H1934 0.931 . S
C1919 C1918 1.370 . S
C1919 C1923 1.408 . S
C1920 C1918 1.363 . S
C1920 C1921 1.370 . S
C1920 C1924 1.524 . S
C1921 C1913 1.503 . S
C1921 C1920 1.370 . S
C1921 C1922 1.403 . S
C1922 C1921 1.403 . S
C1922 C1923 1.404 . S
C1922 C1925 1.539 . S
C1923 C1919 1.408 . S
C1923 C1922 1.404 . S
C1923 H1935 0.930 . S
C1924 C1920 1.524 . S
C1924 H1936 0.956 . S
C1924 H1937 0.961 . S
C1924 H1938 0.961 . S
C1925 C1922 1.539 . S
C1925 H1939 0.958 . S
C1925 H1940 0.961 . S
C1925 H1941 0.960 . S
H1926 C1910 0.931 . S
H1927 C1915 0.929 . S
H1928 C1916 0.960 . S
H1929 C1916 0.962 . S
H1930 C1916 0.960 . S
H1931 C1917 0.961 . S
H1932 C1917 0.961 . S
H1933 C1917 0.961 . S
H1934 C1918 0.931 . S
H1935 C1923 0.930 . S
H1936 C1924 0.956 . S
H1937 C1924 0.961 . S
H1938 C1924 0.961 . S
H1939 C1925 0.958 . S
H1940 C1925 0.961 . S
H1941 C1925 0.960 . S
C1942 C1943 1.391 . S
C1942 C1944 1.394 . S
C1942 H1958 0.931 . S
C1943 C1942 1.391 . S
C1943 C1947 1.376 . S
C1944 C1942 1.394 . S
C1944 C1945 1.369 . S
C1944 C1948 1.531 . S
C1945 C1944 1.369 . S
C1945 C1946 1.410 . S
C1945 C1953 1.503 . S
C1946 C1945 1.410 . S
C1946 C1947 1.392 . S
C1946 C1949 1.511 . S
C1947 C1943 1.376 . S
C1947 C1946 1.392 . S
C1947 H1959 0.929 . S
C1948 C1944 1.531 . S
C1948 H1960 0.960 . S
C1948 H1961 0.962 . S
C1948 H1962 0.960 . S
C1949 C1946 1.511 . S
C1949 H1963 0.961 . S
C1949 H1964 0.961 . S
C1949 H1965 0.961 . S
C1950 C1951 1.370 . S
C1950 C1952 1.363 . S
C1950 H1966 0.931 . S
C1951 C1950 1.370 . S
C1951 C1955 1.408 . S
C1952 C1950 1.363 . S
C1952 C1953 1.370 . S
C1952 C1956 1.524 . S
C1953 C1945 1.503 . S
C1953 C1952 1.370 . S
C1953 C1954 1.403 . S
C1954 C1953 1.403 . S
C1954 C1955 1.404 . S
C1954 C1957 1.539 . S
C1955 C1951 1.408 . S
C1955 C1954 1.404 . S
C1955 H1967 0.930 . S
C1956 C1952 1.524 . S
C1956 H1968 0.956 . S
C1956 H1969 0.961 . S
C1956 H1970 0.961 . S
C1957 C1954 1.539 . S
C1957 H1971 0.958 . S
C1957 H1972 0.961 . S
C1957 H1973 0.960 . S
H1958 C1942 0.931 . S
H1959 C1947 0.929 . S
H1960 C1948 0.960 . S
H1961 C1948 0.962 . S
H1962 C1948 0.960 . S
H1963 C1949 0.961 . S
H1964 C1949 0.961 . S
H1965 C1949 0.961 . S
H1966 C1950 0.931 . S
H1967 C1955 0.930 . S
H1968 C1956 0.956 . S
H1969 C1956 0.961 . S
H1970 C1956 0.961 . S
H1971 C1957 0.958 . S
H1972 C1957 0.961 . S
H1973 C1957 0.960 . S
C1974 C1975 1.391 . S
C1974 C1976 1.394 . S
C1974 H1990 0.931 . S
C1975 C1974 1.391 . S
C1975 C1979 1.376 . S
C1976 C1974 1.394 . S
C1976 C1977 1.369 . S
C1976 C1980 1.531 . S
C1977 C1976 1.369 . S
C1977 C1978 1.410 . S
C1977 C1985 1.503 . S
C1978 C1977 1.410 . S
C1978 C1979 1.392 . S
C1978 C1981 1.511 . S
C1979 C1975 1.376 . S
C1979 C1978 1.392 . S
C1979 H1991 0.929 . S
C1980 C1976 1.531 . S
C1980 H1992 0.960 . S
C1980 H1993 0.962 . S
C1980 H1994 0.960 . S
C1981 C1978 1.511 . S
C1981 H1995 0.961 . S
C1981 H1996 0.961 . S
C1981 H1997 0.961 . S
C1982 C1983 1.370 . S
C1982 C1984 1.363 . S
C1982 H1998 0.931 . S
C1983 C1982 1.370 . S
C1983 C1987 1.408 . S
C1984 C1982 1.363 . S
C1984 C1985 1.370 . S
C1984 C1988 1.524 . S
C1985 C1977 1.503 . S
C1985 C1984 1.370 . S
C1985 C1986 1.403 . S
C1986 C1985 1.403 . S
C1986 C1987 1.404 . S
C1986 C1989 1.539 . S
C1987 C1983 1.408 . S
C1987 C1986 1.404 . S
C1987 H1999 0.930 . S
C1988 C1984 1.524 . S
C1988 H2000 0.956 . S
C1988 H2001 0.961 . S
C1988 H2002 0.961 . S
C1989 C1986 1.539 . S
C1989 H2003 0.958 . S
C1989 H2004 0.961 . S
C1989 H2005 0.960 . S
H1990 C1974 0.931 . S
H1991 C1979 0.929 . S
H1992 C1980 0.960 . S
H1993 C1980 0.962 . S
H1994 C1980 0.960 . S
H1995 C1981 0.961 . S
H1996 C1981 0.961 . S
H1997 C1981 0.961 . S
H1998 C1982 0.931 . S
H1999 C1987 0.930 . S
H2000 C1988 0.956 . S
H2001 C1988 0.961 . S
H2002 C1988 0.961 . S
H2003 C1989 0.958 . S
H2004 C1989 0.961 . S
H2005 C1989 0.960 . S
C479 C299 0.557 . S
C471 C4 0.291 . S
C511 C300 1.814 . S
C503 C63 1.935 . S
C543 C294 1.056 . S
C535 C72 1.046 . S
C567 C102 1.211 . S
C575 C293 1.166 . S
C599 C136 1.936 . S
C607 C296 1.811 . S
C639 C298 1.053 . S
C631 C183 1.028 . S
C663 C233 1.166 . S
C671 C297 1.183 . S
C695 C251 0.200 . S
C703 C295 0.591 . S
C735 C330 1.556 . S
C727 C29 1.543 . S
C759 C42 2.133 . S
C767 C361 2.064 . S
C799 C329 1.483 . S
C791 C97 1.512 . S
C831 C364 1.165 . S
C823 C115 1.134 . S
C855 C149 1.263 . S
C863 C327 1.287 . S
C895 C359 1.553 . S
C887 C187 1.579 . S
C919 C212 1.886 . S
C927 C332 1.881 . S
C951 C255 1.511 . S
C959 C366 1.454 . S
C983 C8 1.515 . S
C991 C362 1.431 . S
C1015 C153 2.110 . S
C1023 C365 2.052 . S
C1055 C333 1.496 . S
C1047 C170 1.553 . S
C1087 C360 1.153 . S
C1079 C208 1.219 . S
C1111 C238 1.562 . S
C1119 C326 1.566 . S
C1143 C76 1.564 . S
C1151 C363 1.559 . S
C1183 C328 1.895 . S
C1175 C119 1.918 . S
C1207 C38 1.224 . S
C1215 C331 1.269 . S
C1239 C242 0.209 . S
C1247 C398 0.566 . S
C1271 C165 1.390 . S
C1279 C399 1.340 . S
C1311 C393 1.015 . S
C1303 C174 1.068 . S
C1343 C392 1.685 . S
C1335 C204 1.685 . S
C1367 C34 1.438 . S
C1375 C395 1.300 . S
C1407 C397 1.050 . S
C1399 C81 1.033 . S
C1431 C131 1.707 . S
C1439 C396 1.668 . S
C1463 C13 0.299 . S
C1471 C394 0.526 . S
C1495 C267 1.724 . S
C1503 C432 1.655 . S
C1535 C464 1.893 . S
C1527 C144 1.910 . S
C1559 C199 1.344 . S
C1567 C425 1.358 . S
C1591 C217 1.329 . S
C1599 C459 1.332 . S
C1631 C430 1.165 . S
C1623 C47 1.152 . S
C1655 C85 1.841 . S
C1663 C461 1.776 . S
C1695 C427 2.081 . S
C1687 C110 2.137 . S
C1727 C462 1.380 . S
C1719 C17 1.372 . S
C1759 C458 1.389 . S
C1751 C246 1.397 . S
C1783 C51 1.930 . S
C1791 C460 1.906 . S
C1815 C68 1.348 . S
C1823 C429 1.358 . S
C1855 C463 1.338 . S
C1847 C106 1.279 . S
C1879 C0 1.705 . S
C1887 C428 1.624 . S
C1911 C178 1.843 . S
C1919 C465 1.768 . S
C1951 C431 2.079 . S
C1943 C221 2.131 . S
C1983 C426 1.146 . S
C1975 C140 1.179 . S
