# Generated by pormake.
# Topology rtl, (3,6)-cn, num edge types: 1
# Building blocks:
#     Node 0, Type 0, BuildingBlock: OLANEW_clean_sbu_2, # of connection points: 3
#     Node 1, Type 0, BuildingBlock: OLANEW_clean_sbu_2, # of connection points: 3
#     Node 2, Type 0, BuildingBlock: OLANEW_clean_sbu_2, # of connection points: 3
#     Node 3, Type 0, BuildingBlock: OLANEW_clean_sbu_2, # of connection points: 3
#     Node 4, Type 1, BuildingBlock: CIFDUS_clean_sbu_1, # of connection points: 6
#     Node 5, Type 1, BuildingBlock: CIFDUS_clean_sbu_1, # of connection points: 6
#     Edge 6, Type (0, 1), BuildingBlock: XIVTED_clean_linker_0, # of connection points: 2
#     Edge 7, Type (0, 1), BuildingBlock: XIVTED_clean_linker_0, # of connection points: 2
#     Edge 8, Type (0, 1), BuildingBlock: XIVTED_clean_linker_0, # of connection points: 2
#     Edge 9, Type (0, 1), BuildingBlock: XIVTED_clean_linker_0, # of connection points: 2
#     Edge 10, Type (0, 1), BuildingBlock: XIVTED_clean_linker_0, # of connection points: 2
#     Edge 11, Type (0, 1), BuildingBlock: XIVTED_clean_linker_0, # of connection points: 2
#     Edge 12, Type (0, 1), BuildingBlock: XIVTED_clean_linker_0, # of connection points: 2
#     Edge 13, Type (0, 1), BuildingBlock: XIVTED_clean_linker_0, # of connection points: 2
#     Edge 14, Type (0, 1), BuildingBlock: XIVTED_clean_linker_0, # of connection points: 2
#     Edge 15, Type (0, 1), BuildingBlock: XIVTED_clean_linker_0, # of connection points: 2
#     Edge 16, Type (0, 1), BuildingBlock: XIVTED_clean_linker_0, # of connection points: 2
#     Edge 17, Type (0, 1), BuildingBlock: XIVTED_clean_linker_0, # of connection points: 2
# Relax obj value: 0.016
# Max RMSD: 0.119
# Mean RMSD: 0.076
data_MOF--net-rtl--node1-OLANEW_clean_sbu_2--node2-CIFDUS_clean_sbu_1--edge1-XIVTED_clean_linker_0
_symmetry_space_group_name_H-M    P1
_symmetry_Int_Tables_number       1
_symmetry_cell_setting            triclinic
loop_
_symmetry_equiv_pos_as_xyz
'x, y, z'
_cell_length_a     38.059278
_cell_length_b     38.361196
_cell_length_c     24.243885
_cell_angle_alpha  87.256164
_cell_angle_beta   100.54726
_cell_angle_gamma 90.783656
loop_
_atom_site_label
_atom_site_type_symbol
_atom_site_fract_x
_atom_site_fract_y
_atom_site_fract_z
_atom_type_partial_charge
O0 O 0.17681 0.81507 0.99336 0.0
Cd1 Cd 0.20241 0.78457 0.08378 0.0
O2 O 0.18248 0.86707 0.02963 0.0
Cd3 Cd 0.19771 0.85367 0.11963 0.0
O4 O 0.1898 0.86722 0.20361 0.0
C5 C 0.18947 0.89938 0.21439 0.0
O6 O 0.19601 0.92286 0.17626 0.0
C7 C 0.17392 0.84814 0.98742 0.0
C8 C 0.25765 0.73671 0.08162 0.0
O9 O 0.2248 0.72707 0.07247 0.0
O10 O 0.2644 0.769 0.09064 0.0
O11 O 0.70705 0.69507 0.69849 0.0
Cd12 Cd 0.72801 0.7281 0.62047 0.0
O13 O 0.68032 0.65491 0.64271 0.0
Cd14 Cd 0.68683 0.6752 0.55905 0.0
O15 O 0.67133 0.66605 0.46896 0.0
C16 C 0.63995 0.67322 0.44268 0.0
O17 O 0.61779 0.68881 0.46906 0.0
C18 C 0.68937 0.66662 0.69159 0.0
C19 C 0.77917 0.78181 0.64465 0.0
O20 O 0.7456 0.78821 0.6368 0.0
O21 O 0.78862 0.74993 0.64342 0.0
O22 O 0.80132 0.20641 0.10566 0.0
Cd23 Cd 0.76999 0.23092 0.01308 0.0
O24 O 0.82445 0.16767 0.05846 0.0
Cd25 Cd 0.79915 0.17895 0.97107 0.0
O26 O 0.80284 0.1644 0.88599 0.0
C27 C 0.80356 0.13204 0.87684 0.0
O28 O 0.79928 0.10918 0.91722 0.0
C29 C 0.82206 0.18064 0.10499 0.0
C30 C 0.71767 0.28328 0.00279 0.0
O31 O 0.70923 0.25081 0.00451 0.0
O32 O 0.75097 0.29114 0.00865 0.0
O33 O 0.30692 0.32493 0.57453 0.0
Cd34 Cd 0.28315 0.29834 0.48385 0.0
O35 O 0.29449 0.37794 0.5373 0.0
Cd36 Cd 0.27848 0.36596 0.44881 0.0
O37 O 0.28488 0.37864 0.36196 0.0
C38 C 0.28522 0.41066 0.34559 0.0
O39 O 0.27952 0.43448 0.38008 0.0
C40 C 0.30633 0.35781 0.57974 0.0
C41 C 0.22993 0.2463 0.48123 0.0
O42 O 0.26321 0.23849 0.49226 0.0
O43 O 0.22176 0.27869 0.47309 0.0
O44 O 0.97094 0.04296 0.47624 0.0
Mn45 Mn -0.00189 0.0158 0.54889 0.0
O46 O 0.94736 0.00192 0.41673 0.0
Mn47 Mn 0.96606 0.9635 0.46124 0.0
O48 O 0.02577 0.9885 0.62132 0.0
O49 O 0.02943 0.05884 0.56566 0.0
Mn50 Mn 0.02963 0.06761 0.63662 0.0
O51 O 0.95914 0.03348 0.59251 0.0
O52 O 0.05102 0.02973 0.67898 0.0
O53 O 0.03684 -0.00223 0.50475 0.0
O54 O 0.01227 0.95196 0.45721 0.0
O55 O 0.05777 0.10166 0.61217 0.0
O56 O 0.98357 0.07805 0.64304 0.0
C57 C 0.94513 0.94679 0.53374 0.0
C58 C 0.95256 0.03376 0.4291 0.0
C59 C 0.04632 -0.00212 0.66659 0.0
C60 C 0.05053 0.08579 0.56548 0.0
C61 C 0.95687 0.0592 0.62378 0.0
C62 C 0.039 0.97123 0.47495 0.0
O63 O 0.96653 0.97326 0.53178 0.0
O64 O 0.93682 0.93073 0.48737 0.0
O65 O 0.51091 0.54442 0.07154 0.0
Mn66 Mn 0.48476 0.5181 0.00132 0.0
O67 O 0.5342 0.50321 0.13631 0.0
Mn68 Mn 0.51213 0.46609 0.09768 0.0
O69 O 0.45779 0.49225 0.93059 0.0
O70 O 0.45577 0.56183 0.97719 0.0
Mn71 Mn 0.45671 0.5721 0.90584 0.0
O72 O 0.52595 0.53566 0.95869 0.0
O73 O 0.43474 0.53475 0.86752 0.0
O74 O 0.44349 0.5013 0.04397 0.0
O75 O 0.46533 0.45684 0.10314 0.0
O76 O 0.4294 0.60617 0.92768 0.0
O77 O 0.50383 0.58121 0.90159 0.0
C78 C 0.53453 0.44638 0.03247 0.0
C79 C 0.52991 0.53504 0.1193 0.0
C80 C 0.43823 0.50262 0.88357 0.0
C81 C 0.43569 0.58899 0.97564 0.0
C82 C 0.52969 0.56186 0.92491 0.0
C83 C 0.43957 0.47605 0.0792 0.0
O84 O 0.51437 0.47404 0.02579 0.0
O85 O 0.53955 0.4309 0.0819 0.0
H86 H 0.23849 0.17529 0.49702 0.0
H87 H 0.0315 0.14095 0.4934 0.0
H88 H 0.15711 0.25438 0.45673 0.0
H89 H 0.11198 0.06193 0.53982 0.0
H90 H 0.07511 0.17871 0.45711 0.0
H91 H 0.19165 0.13074 0.49493 0.0
C92 C 0.21078 0.18331 0.48747 0.0
C93 C 0.2018 0.21877 0.47785 0.0
C94 C 0.08308 0.15268 0.47346 0.0
C95 C 0.14789 0.16772 0.47492 0.0
C96 C 0.0579 0.13081 0.49303 0.0
C97 C 0.06809 0.09818 0.51906 0.0
C98 C 0.1189 0.14202 0.48097 0.0
C99 C 0.10296 0.08675 0.51929 0.0
C100 C 0.18402 0.1578 0.48601 0.0
C101 C 0.16538 0.22747 0.46509 0.0
N102 N 0.12739 0.10894 0.50187 0.0
N103 N 0.13986 0.20221 0.46448 0.0
H104 H 0.3299 0.74909 0.10074 0.0
H105 H 0.37745 0.56045 0.0109 0.0
H106 H 0.25231 0.66655 0.0628 0.0
H107 H 0.45236 0.64573 0.03687 0.0
H108 H 0.33481 0.59403 0.05151 0.0
H109 H 0.37749 0.70791 0.09576 0.0
C110 C 0.32284 0.72226 0.09161 0.0
C111 C 0.28693 0.71145 0.08141 0.0
C112 C 0.361 0.60501 0.05004 0.0
C113 C 0.34154 0.6639 0.07586 0.0
C114 C 0.38559 0.58553 0.0279 0.0
C115 C 0.41857 0.60023 0.02136 0.0
C116 C 0.36945 0.63956 0.06496 0.0
C117 C 0.42735 0.63333 0.04204 0.0
C118 C 0.3501 0.69867 0.08899 0.0
C119 C 0.27955 0.67619 0.07036 0.0
N120 N 0.40276 0.65212 0.06204 0.0
N121 N 0.30654 0.65379 0.06738 0.0
H122 H 0.76751 0.85256 0.63675 0.0
H123 H 0.96926 0.89468 0.60951 0.0
H124 H 0.85235 0.77674 0.66437 0.0
H125 H 0.88306 0.9677 0.56145 0.0
H126 H 0.93014 0.85667 0.65569 0.0
H127 H 0.81183 0.89898 0.63228 0.0
C128 C 0.79549 0.84567 0.64278 0.0
C129 C 0.80609 0.81055 0.65016 0.0
C130 C 0.92001 0.88153 0.63675 0.0
C131 C 0.85709 0.86374 0.64502 0.0
C132 C 0.9426 0.90355 0.61134 0.0
C133 C 0.92946 0.93452 0.58232 0.0
C134 C 0.88381 0.89033 0.63223 0.0
C135 C 0.89434 0.94426 0.5842 0.0
C136 C 0.82081 0.87224 0.64019 0.0
C137 C 0.84282 0.80334 0.65797 0.0
N138 N 0.87248 0.92193 0.60765 0.0
N139 N 0.86687 0.8296 0.65457 0.0
H140 H 0.72658 0.35458 0.00175 0.0
H141 H 0.51771 0.39003 0.97028 0.0
H142 H 0.64488 0.27477 0.97944 0.0
H143 H 0.59808 0.46948 0.0093 0.0
H144 H 0.56311 0.35098 0.94891 0.0
H145 H 0.67985 0.39917 0.98582 0.0
C146 C 0.69884 0.34639 0.99339 0.0
C147 C 0.68971 0.31077 0.99273 0.0
C148 C 0.57076 0.37733 0.96032 0.0
C149 C 0.63598 0.36182 0.9736 0.0
C150 C 0.54461 0.39994 0.9712 0.0
C151 C 0.55411 0.43312 0.99105 0.0
C152 C 0.60681 0.38787 0.97019 0.0
C153 C 0.58959 0.44424 0.99331 0.0
C154 C 0.67216 0.37191 0.98397 0.0
C155 C 0.65327 0.30184 0.98107 0.0
N156 N 0.61487 0.42139 0.98444 0.0
N157 N 0.62784 0.32711 0.97231 0.0
H158 H 0.17096 0.85811 0.30025 0.0
H159 H 0.08653 0.01619 0.43503 0.0
H160 H 0.18046 0.96603 0.24565 0.0
H161 H 0.0665 0.90719 0.46962 0.0
H162 H 0.13237 -0.00053 0.38165 0.0
H163 H 0.14388 0.87681 0.3777 0.0
C164 C 0.16775 0.88577 0.30488 0.0
C165 C 0.1775 0.91047 0.26577 0.0
C166 C 0.11845 0.97927 0.40198 0.0
C167 C 0.14621 0.93215 0.35439 0.0
C168 C 0.09259 0.98883 0.43285 0.0
C169 C 0.07258 0.96298 0.45617 0.0
C170 C 0.12428 0.94369 0.39497 0.0
C171 C 0.08114 0.92789 0.45171 0.0
C172 C 0.15224 0.89647 0.34916 0.0
C173 C 0.17297 0.94601 0.27437 0.0
N174 N 0.10601 0.91929 0.42122 0.0
N175 N 0.15725 0.95577 0.3173 0.0
H176 H 0.68263 0.69109 0.79412 0.0
H177 H 0.57346 0.52182 0.87568 0.0
H178 H 0.66699 0.59877 0.6974 0.0
H179 H 0.56392 0.62374 0.93857 0.0
H180 H 0.62201 0.54428 0.82896 0.0
H181 H 0.6531 0.66134 0.86523 0.0
C182 C 0.6736 0.66439 0.78829 0.0
C183 C 0.67679 0.64763 0.73926 0.0
C184 C 0.60987 0.56147 0.85419 0.0
C185 C 0.64308 0.61342 0.82045 0.0
C186 C 0.58251 0.54854 0.88128 0.0
C187 C 0.56485 0.57104 0.91087 0.0
C188 C 0.61958 0.597 0.8572 0.0
C189 C 0.577 0.60563 0.91606 0.0
C190 C 0.65665 0.64745 0.82879 0.0
C191 C 0.6646 0.61294 0.73408 0.0
N192 N 0.60336 0.61765 0.88909 0.0
N193 N 0.64805 0.59712 0.77382 0.0
H194 H 0.81781 0.18918 0.21733 0.0
H195 H 0.95072 0.03031 0.31797 0.0
H196 H 0.87714 0.13569 0.11153 0.0
H197 H 0.92033 0.09719 0.43907 0.0
H198 H 0.92182 0.0697 0.24263 0.0
H199 H 0.85291 0.15747 0.30008 0.0
C200 C 0.83828 0.17111 0.21145 0.0
C201 C 0.84405 0.16476 0.15711 0.0
C202 C 0.92152 0.07618 0.28553 0.0
C203 C 0.88406 0.12861 0.25111 0.0
C204 C 0.93804 0.05355 0.32868 0.0
C205 C 0.93784 0.06039 0.38485 0.0
C206 C 0.90386 0.10592 0.298 0.0
C207 C 0.92118 0.09109 0.3962 0.0
C208 C 0.85829 0.15309 0.25864 0.0
C209 C 0.87109 0.14116 0.15216 0.0
N210 N 0.90436 0.1126 0.35301 0.0
N211 N 0.8897 0.12397 0.19817 0.0
H212 H 0.35748 0.33144 0.66753 0.0
H213 H 0.37603 0.51568 0.81234 0.0
H214 H 0.29089 0.4213 0.6138 0.0
H215 H 0.45027 0.43207 0.87064 0.0
H216 H 0.34133 0.47746 0.7466 0.0
H217 H 0.3882 0.3635 0.74853 0.0
C218 C 0.34887 0.35759 0.6733 0.0
C219 C 0.32171 0.37381 0.63354 0.0
C220 C 0.36514 0.46716 0.77356 0.0
C221 C 0.35676 0.41054 0.72558 0.0
C222 C 0.38518 0.48915 0.81123 0.0
C223 C 0.41659 0.47735 0.84658 0.0
C224 C 0.37644 0.4328 0.77008 0.0
C225 C 0.42638 0.44233 0.84388 0.0
C226 C 0.36657 0.37593 0.71928 0.0
C227 C 0.31186 0.40781 0.64289 0.0
N228 N 0.40658 0.42132 0.80569 0.0
N229 N 0.32941 0.42493 0.68751 0.0
H230 H 0.67562 0.63205 0.38205 0.0
H231 H 0.50699 0.60078 0.1374 0.0
H232 H 0.57447 0.68336 0.37438 0.0
H233 H 0.59461 0.52908 0.18725 0.0
H234 H 0.53611 0.64031 0.2096 0.0
H235 H 0.65104 0.60372 0.2952 0.0
C236 C 0.64838 0.63775 0.36179 0.0
C237 C 0.62695 0.65978 0.38609 0.0
C238 C 0.54903 0.61607 0.2041 0.0
C239 C 0.59858 0.62725 0.28647 0.0
C240 C 0.53256 0.59367 0.16285 0.0
C241 C 0.54828 0.56151 0.15691 0.0
C242 C 0.58167 0.6064 0.23854 0.0
C243 C 0.58135 0.55343 0.191 0.0
C244 C 0.63432 0.62145 0.31224 0.0
C245 C 0.59187 0.66628 0.35751 0.0
N246 N 0.59687 0.57563 0.23029 0.0
N247 N 0.57865 0.64987 0.30943 0.0
H248 H 0.81902 0.1722 0.78762 0.0
H249 H 0.90878 0.01405 0.66164 0.0
H250 H 0.81373 0.065 0.84854 0.0
H251 H 0.92891 0.12311 0.62768 0.0
H252 H 0.86127 0.03061 0.71188 0.0
H253 H 0.84641 0.15283 0.71094 0.0
C254 C 0.82313 0.14453 0.78447 0.0
C255 C 0.81465 0.12027 0.82524 0.0
C256 C 0.87559 0.05084 0.69231 0.0
C257 C 0.84632 0.09789 0.73762 0.0
C258 C 0.90242 0.04138 0.66331 0.0
C259 C 0.92288 0.06733 0.64118 0.0
C260 C 0.86922 0.0864 0.6985 0.0
C261 C 0.91392 0.10237 0.6448 0.0
C262 C 0.83884 0.13347 0.74066 0.0
C263 C 0.82029 0.08469 0.81851 0.0
N264 N 0.88805 0.11088 0.67341 0.0
N265 N 0.83624 0.0746 0.77605 0.0
H266 H 0.30087 0.36856 0.26513 0.0
H267 H 0.39407 0.52294 0.11107 0.0
H268 H 0.29614 0.47688 0.30383 0.0
H269 H 0.40784 0.41335 0.09014 0.0
H270 H 0.34624 0.50821 0.16419 0.0
H271 H 0.32819 0.38611 0.18448 0.0
C272 C 0.30516 0.39608 0.25631 0.0
C273 C 0.29678 0.4212 0.29198 0.0
C274 C 0.35915 0.48746 0.14677 0.0
C275 C 0.3284 0.44155 0.19974 0.0
C276 C 0.38611 0.49592 0.11594 0.0
C277 C 0.40489 0.46927 0.0966 0.0
C278 C 0.35109 0.45216 0.15794 0.0
C279 C 0.39409 0.43461 0.10482 0.0
C280 C 0.32079 0.40612 0.21018 0.0
C281 C 0.3026 0.45654 0.27794 0.0
N282 N 0.36824 0.42704 0.13537 0.0
N283 N 0.31851 0.46563 0.23341 0.0
H284 H 0.12636 0.82203 0.89838 0.0
H285 H 0.10989 0.00887 0.7338 0.0
H286 H 0.18671 0.91433 0.95154 0.0
H287 H 0.03188 0.92756 0.68867 0.0
H288 H 0.14358 0.96954 0.80424 0.0
H289 H 0.09665 0.85533 0.81332 0.0
C290 C 0.13379 0.84905 0.89173 0.0
C291 C 0.15893 0.86551 0.93228 0.0
C292 C 0.11913 0.96003 0.77919 0.0
C293 C 0.12521 0.90351 0.83561 0.0
C294 C 0.09972 0.98261 0.73879 0.0
C295 C 0.06752 0.9718 0.70587 0.0
C296 C 0.10643 0.92609 0.78778 0.0
C297 C 0.0564 0.93706 0.71348 0.0
C298 C 0.11667 0.86805 0.84345 0.0
C299 C 0.16733 0.9006 0.9218 0.0
N300 N 0.07564 0.91545 0.75426 0.0
N301 N 0.15052 0.91829 0.87482 0.0
loop_
_geom_bond_atom_site_label_1
_geom_bond_atom_site_label_2
_geom_bond_distance
_geom_bond_site_symmetry_2
_ccdc_geom_bond_type
O0 Cd1 2.300 1_556 S
O0 C7 1.275 1_556 S
Cd1 O0 2.300 1_554 S
Cd1 O9 2.381 . S
Cd1 O10 2.378 . S
O2 Cd3 2.385 . S
O2 C7 1.255 . S
Cd3 O2 2.385 . S
Cd3 O4 2.317 . S
O4 Cd3 2.317 . S
O4 C5 1.232 . S
C5 O4 1.232 . S
C5 O6 1.218 . S
O6 C5 1.218 . S
C7 O0 1.275 1_554 S
C7 O2 1.255 . S
C8 O9 1.258 . S
C8 O10 1.256 . S
O9 Cd1 2.381 . S
O9 C8 1.258 . S
O10 Cd1 2.378 . S
O10 C8 1.256 . S
O11 Cd12 2.300 . S
O11 C18 1.275 . S
Cd12 O11 2.300 . S
Cd12 O20 2.381 . S
Cd12 O21 2.378 . S
O13 Cd14 2.385 . S
O13 C18 1.255 . S
Cd14 O13 2.385 . S
Cd14 O15 2.317 . S
O15 Cd14 2.317 . S
O15 C16 1.232 . S
C16 O15 1.232 . S
C16 O17 1.218 . S
O17 C16 1.218 . S
C18 O11 1.275 . S
C18 O13 1.255 . S
C19 O20 1.258 . S
C19 O21 1.256 . S
O20 Cd12 2.381 . S
O20 C19 1.258 . S
O21 Cd12 2.378 . S
O21 C19 1.256 . S
O22 Cd23 2.300 . S
O22 C29 1.275 . S
Cd23 O22 2.300 . S
Cd23 O31 2.381 . S
Cd23 O32 2.378 1_554 S
O24 Cd25 2.385 1_554 S
O24 C29 1.255 . S
Cd25 O24 2.385 1_556 S
Cd25 O26 2.317 . S
O26 Cd25 2.317 . S
O26 C27 1.232 . S
C27 O26 1.232 . S
C27 O28 1.218 . S
O28 C27 1.218 . S
C29 O22 1.275 . S
C29 O24 1.255 . S
C30 O31 1.258 . S
C30 O32 1.256 1_554 S
O31 Cd23 2.381 . S
O31 C30 1.258 . S
O32 Cd23 2.378 1_556 S
O32 C30 1.256 1_556 S
O33 Cd34 2.300 . S
O33 C40 1.275 . S
Cd34 O33 2.300 . S
Cd34 O42 2.381 . S
Cd34 O43 2.378 . S
O35 Cd36 2.385 . S
O35 C40 1.255 . S
Cd36 O35 2.385 . S
Cd36 O37 2.317 . S
O37 Cd36 2.317 . S
O37 C38 1.232 . S
C38 O37 1.232 . S
C38 O39 1.218 . S
O39 C38 1.218 . S
C40 O33 1.275 . S
C40 O35 1.255 . S
C41 O42 1.258 . S
C41 O43 1.256 . S
O42 Cd34 2.381 . S
O42 C41 1.258 . S
O43 Cd34 2.378 . S
O43 C41 1.256 . S
O44 Mn45 2.163 1_655 S
O44 C58 1.244 . S
Mn45 O44 2.163 1_455 S
Mn45 O48 2.160 1_545 S
Mn45 O49 2.221 . S
Mn45 O51 2.163 1_455 S
Mn45 O53 2.160 1_545 S
Mn45 O63 2.221 1_445 S
O46 Mn47 2.087 1_545 S
O46 C58 1.256 . S
Mn47 O46 2.087 1_565 S
Mn47 O54 2.089 1_655 S
Mn47 O63 2.290 . S
Mn47 O64 2.251 . S
O48 Mn45 2.160 1_565 S
O48 C59 1.239 . S
O49 Mn45 2.221 . S
O49 Mn50 2.290 . S
O49 C60 1.278 . S
Mn50 O49 2.290 . S
Mn50 O52 2.089 . S
Mn50 O55 2.251 . S
Mn50 O56 2.092 . S
O51 Mn45 2.163 1_655 S
O51 C61 1.244 . S
O52 Mn50 2.089 . S
O52 C59 1.256 1_545 S
O53 Mn45 2.160 1_565 S
O53 C62 1.239 . S
O54 Mn47 2.089 1_455 S
O54 C62 1.256 . S
O55 Mn50 2.251 . S
O55 C60 1.241 . S
O56 Mn50 2.092 . S
O56 C61 1.252 1_455 S
C57 O63 1.278 . S
C57 O64 1.241 . S
C58 O44 1.244 . S
C58 O46 1.256 . S
C59 O48 1.239 . S
C59 O52 1.256 1_565 S
C60 O49 1.278 . S
C60 O55 1.241 . S
C61 O51 1.244 . S
C61 O56 1.252 1_655 S
C62 O53 1.239 . S
C62 O54 1.256 . S
O63 Mn45 2.221 1_665 S
O63 Mn47 2.290 . S
O63 C57 1.278 . S
O64 Mn47 2.251 . S
O64 C57 1.241 . S
O65 Mn66 2.163 . S
O65 C79 1.244 . S
Mn66 O65 2.163 . S
Mn66 O69 2.160 1_554 S
Mn66 O70 2.221 1_554 S
Mn66 O72 2.163 1_554 S
Mn66 O74 2.160 . S
Mn66 O84 2.221 . S
O67 Mn68 2.087 . S
O67 C79 1.256 . S
Mn68 O67 2.087 . S
Mn68 O75 2.089 . S
Mn68 O84 2.290 . S
Mn68 O85 2.251 . S
O69 Mn66 2.160 1_556 S
O69 C80 1.239 . S
O70 Mn66 2.221 1_556 S
O70 Mn71 2.290 . S
O70 C81 1.278 . S
Mn71 O70 2.290 . S
Mn71 O73 2.089 . S
Mn71 O76 2.251 . S
Mn71 O77 2.087 . S
O72 Mn66 2.163 1_556 S
O72 C82 1.244 . S
O73 Mn71 2.089 . S
O73 C80 1.256 . S
O74 Mn66 2.160 . S
O74 C83 1.239 . S
O75 Mn68 2.089 . S
O75 C83 1.256 . S
O76 Mn71 2.251 . S
O76 C81 1.241 . S
O77 Mn71 2.087 . S
O77 C82 1.256 . S
C78 O84 1.278 . S
C78 O85 1.241 . S
C79 O65 1.244 . S
C79 O67 1.256 . S
C80 O69 1.239 . S
C80 O73 1.256 . S
C81 O70 1.278 . S
C81 O76 1.241 . S
C82 O72 1.244 . S
C82 O77 1.256 . S
C83 O74 1.239 . S
C83 O75 1.256 . S
O84 Mn66 2.221 . S
O84 Mn68 2.290 . S
O84 C78 1.278 . S
O85 Mn68 2.251 . S
O85 C78 1.241 . S
H86 C92 0.930 . S
H87 C96 0.930 . S
H88 C101 0.929 . S
H89 C99 0.929 . S
H90 C94 0.929 . S
H91 C100 0.929 . S
C92 H86 0.930 . S
C92 C93 1.367 . S
C92 C100 1.378 . S
C93 C92 1.367 . S
C93 C101 1.433 . S
C94 H90 0.929 . S
C94 C96 1.378 . S
C94 C98 1.350 . S
C95 C98 1.463 . S
C95 C100 1.350 . S
C95 N103 1.427 . S
C96 H87 0.930 . S
C96 C94 1.378 . S
C96 C97 1.367 . S
C97 C96 1.367 . S
C97 C99 1.433 . S
C98 C94 1.350 . S
C98 C95 1.463 . S
C98 N102 1.427 . S
C99 H89 0.929 . S
C99 C97 1.433 . S
C99 N102 1.384 . S
C100 H91 0.929 . S
C100 C92 1.378 . S
C100 C95 1.350 . S
C101 H88 0.929 . S
C101 C93 1.433 . S
C101 N103 1.384 . S
N102 C98 1.427 . S
N102 C99 1.384 . S
N103 C95 1.427 . S
N103 C101 1.384 . S
H104 C110 0.930 . S
H105 C114 0.930 . S
H106 C119 0.929 . S
H107 C117 0.944 . S
H108 C112 0.929 . S
H109 C118 0.921 1_556 S
C110 H104 0.930 . S
C110 C111 1.367 . S
C110 C118 1.378 . S
C111 C110 1.367 . S
C111 C119 1.433 . S
C112 H108 0.929 . S
C112 C114 1.378 . S
C112 C116 1.350 . S
C113 C116 1.463 . S
C113 C118 1.350 . S
C113 N121 1.427 . S
C114 H105 0.930 . S
C114 C112 1.378 . S
C114 C115 1.367 . S
C115 C114 1.367 . S
C115 C117 1.424 1_554 S
C116 C112 1.350 . S
C116 C113 1.463 . S
C116 N120 1.427 . S
C117 H107 0.944 . S
C117 C115 1.424 1_556 S
C117 N120 1.378 1_556 S
C118 H109 0.921 1_554 S
C118 C110 1.378 . S
C118 C113 1.350 . S
C119 H106 0.929 . S
C119 C111 1.433 . S
C119 N121 1.384 . S
N120 C116 1.427 . S
N120 C117 1.378 1_554 S
N121 C113 1.427 . S
N121 C119 1.384 . S
H122 C128 0.930 . S
H123 C132 0.930 . S
H124 C137 0.929 . S
H125 C135 0.929 . S
H126 C130 0.929 . S
H127 C136 0.929 . S
C128 H122 0.930 . S
C128 C129 1.367 . S
C128 C136 1.378 . S
C129 C128 1.367 . S
C129 C137 1.433 . S
C130 H126 0.929 . S
C130 C132 1.378 . S
C130 C134 1.350 . S
C131 C134 1.463 . S
C131 C136 1.350 . S
C131 N139 1.427 . S
C132 H123 0.930 . S
C132 C130 1.378 . S
C132 C133 1.367 . S
C133 C132 1.367 . S
C133 C135 1.433 . S
C134 C130 1.350 . S
C134 C131 1.463 . S
C134 N138 1.427 . S
C135 H125 0.929 . S
C135 C133 1.433 . S
C135 N138 1.384 . S
C136 H127 0.929 . S
C136 C128 1.378 . S
C136 C131 1.350 . S
C137 H124 0.929 . S
C137 C129 1.433 . S
C137 N139 1.384 . S
N138 C134 1.427 . S
N138 C135 1.384 . S
N139 C131 1.427 . S
N139 C137 1.384 . S
H140 C146 0.930 . S
H141 C150 0.930 . S
H142 C155 0.929 . S
H143 C153 0.929 . S
H144 C148 0.929 . S
H145 C154 0.929 . S
C146 H140 0.930 . S
C146 C147 1.367 1_556 S
C146 C154 1.378 . S
C147 C146 1.367 1_554 S
C147 C155 1.433 . S
C148 H144 0.929 . S
C148 C150 1.378 . S
C148 C152 1.350 . S
C149 C152 1.463 . S
C149 C154 1.350 1_554 S
C149 N157 1.427 . S
C150 H141 0.930 . S
C150 C148 1.378 . S
C150 C151 1.367 . S
C151 C150 1.367 . S
C151 C153 1.433 1_554 S
C152 C148 1.350 . S
C152 C149 1.463 . S
C152 N156 1.427 1_554 S
C153 H143 0.929 . S
C153 C151 1.433 1_556 S
C153 N156 1.384 . S
C154 H145 0.929 . S
C154 C146 1.378 . S
C154 C149 1.350 1_556 S
C155 H142 0.929 . S
C155 C147 1.433 . S
C155 N157 1.384 . S
N156 C152 1.427 1_556 S
N156 C153 1.384 . S
N157 C149 1.427 . S
N157 C155 1.384 . S
H158 C164 0.930 . S
H159 C168 0.930 . S
H160 C173 0.929 . S
H161 C171 0.929 . S
H162 C166 0.929 . S
H163 C172 0.929 . S
C164 H158 0.930 . S
C164 C165 1.367 . S
C164 C172 1.378 . S
C165 C164 1.367 . S
C165 C173 1.433 . S
C166 H162 0.929 . S
C166 C168 1.378 . S
C166 C170 1.350 . S
C167 C170 1.463 . S
C167 C172 1.350 . S
C167 N175 1.427 . S
C168 H159 0.930 . S
C168 C166 1.378 . S
C168 C169 1.367 . S
C169 C168 1.367 . S
C169 C171 1.433 . S
C170 C166 1.350 . S
C170 C167 1.463 . S
C170 N174 1.427 . S
C171 H161 0.929 . S
C171 C169 1.433 . S
C171 N174 1.384 . S
C172 H163 0.929 . S
C172 C164 1.378 . S
C172 C167 1.350 . S
C173 H160 0.929 . S
C173 C165 1.433 . S
C173 N175 1.384 . S
N174 C170 1.427 . S
N174 C171 1.384 . S
N175 C167 1.427 . S
N175 C173 1.384 . S
H176 C182 0.930 . S
H177 C186 0.930 . S
H178 C191 0.929 . S
H179 C189 0.929 . S
H180 C184 0.929 . S
H181 C190 0.929 . S
C182 H176 0.930 . S
C182 C183 1.367 . S
C182 C190 1.378 . S
C183 C182 1.367 . S
C183 C191 1.433 . S
C184 H180 0.929 . S
C184 C186 1.378 . S
C184 C188 1.350 . S
C185 C188 1.463 . S
C185 C190 1.350 . S
C185 N193 1.427 . S
C186 H177 0.930 . S
C186 C184 1.378 . S
C186 C187 1.367 . S
C187 C186 1.367 . S
C187 C189 1.433 . S
C188 C184 1.350 . S
C188 C185 1.463 . S
C188 N192 1.427 . S
C189 H179 0.929 . S
C189 C187 1.433 . S
C189 N192 1.384 . S
C190 H181 0.929 . S
C190 C182 1.378 . S
C190 C185 1.350 . S
C191 H178 0.929 . S
C191 C183 1.433 . S
C191 N193 1.384 . S
N192 C188 1.427 . S
N192 C189 1.384 . S
N193 C185 1.427 . S
N193 C191 1.384 . S
H194 C200 0.930 . S
H195 C204 0.930 . S
H196 C209 0.929 . S
H197 C207 0.929 . S
H198 C202 0.929 . S
H199 C208 0.929 . S
C200 H194 0.930 . S
C200 C201 1.367 . S
C200 C208 1.378 . S
C201 C200 1.367 . S
C201 C209 1.433 . S
C202 H198 0.929 . S
C202 C204 1.378 . S
C202 C206 1.350 . S
C203 C206 1.463 . S
C203 C208 1.350 . S
C203 N211 1.427 . S
C204 H195 0.930 . S
C204 C202 1.378 . S
C204 C205 1.367 . S
C205 C204 1.367 . S
C205 C207 1.433 . S
C206 C202 1.350 . S
C206 C203 1.463 . S
C206 N210 1.427 . S
C207 H197 0.929 . S
C207 C205 1.433 . S
C207 N210 1.384 . S
C208 H199 0.929 . S
C208 C200 1.378 . S
C208 C203 1.350 . S
C209 H196 0.929 . S
C209 C201 1.433 . S
C209 N211 1.384 . S
N210 C206 1.427 . S
N210 C207 1.384 . S
N211 C203 1.427 . S
N211 C209 1.384 . S
H212 C218 0.930 . S
H213 C222 0.930 . S
H214 C227 0.929 . S
H215 C225 0.929 . S
H216 C220 0.929 . S
H217 C226 0.929 . S
C218 H212 0.930 . S
C218 C219 1.367 . S
C218 C226 1.378 . S
C219 C218 1.367 . S
C219 C227 1.433 . S
C220 H216 0.929 . S
C220 C222 1.378 . S
C220 C224 1.350 . S
C221 C224 1.463 . S
C221 C226 1.350 . S
C221 N229 1.427 . S
C222 H213 0.930 . S
C222 C220 1.378 . S
C222 C223 1.367 . S
C223 C222 1.367 . S
C223 C225 1.433 . S
C224 C220 1.350 . S
C224 C221 1.463 . S
C224 N228 1.427 . S
C225 H215 0.929 . S
C225 C223 1.433 . S
C225 N228 1.384 . S
C226 H217 0.929 . S
C226 C218 1.378 . S
C226 C221 1.350 . S
C227 H214 0.929 . S
C227 C219 1.433 . S
C227 N229 1.384 . S
N228 C224 1.427 . S
N228 C225 1.384 . S
N229 C221 1.427 . S
N229 C227 1.384 . S
H230 C236 0.930 . S
H231 C240 0.930 . S
H232 C245 0.929 . S
H233 C243 0.929 . S
H234 C238 0.929 . S
H235 C244 0.929 . S
C236 H230 0.930 . S
C236 C237 1.367 . S
C236 C244 1.378 . S
C237 C236 1.367 . S
C237 C245 1.433 . S
C238 H234 0.929 . S
C238 C240 1.378 . S
C238 C242 1.350 . S
C239 C242 1.463 . S
C239 C244 1.350 . S
C239 N247 1.427 . S
C240 H231 0.930 . S
C240 C238 1.378 . S
C240 C241 1.367 . S
C241 C240 1.367 . S
C241 C243 1.433 . S
C242 C238 1.350 . S
C242 C239 1.463 . S
C242 N246 1.427 . S
C243 H233 0.929 . S
C243 C241 1.433 . S
C243 N246 1.384 . S
C244 H235 0.929 . S
C244 C236 1.378 . S
C244 C239 1.350 . S
C245 H232 0.929 . S
C245 C237 1.433 . S
C245 N247 1.384 . S
N246 C242 1.427 . S
N246 C243 1.384 . S
N247 C239 1.427 . S
N247 C245 1.384 . S
H248 C254 0.930 . S
H249 C258 0.930 . S
H250 C263 0.929 . S
H251 C261 0.929 . S
H252 C256 0.929 . S
H253 C262 0.929 . S
C254 H248 0.930 . S
C254 C255 1.367 . S
C254 C262 1.378 . S
C255 C254 1.367 . S
C255 C263 1.433 . S
C256 H252 0.929 . S
C256 C258 1.378 . S
C256 C260 1.350 . S
C257 C260 1.463 . S
C257 C262 1.350 . S
C257 N265 1.427 . S
C258 H249 0.930 . S
C258 C256 1.378 . S
C258 C259 1.367 . S
C259 C258 1.367 . S
C259 C261 1.433 . S
C260 C256 1.350 . S
C260 C257 1.463 . S
C260 N264 1.427 . S
C261 H251 0.929 . S
C261 C259 1.433 . S
C261 N264 1.384 . S
C262 H253 0.929 . S
C262 C254 1.378 . S
C262 C257 1.350 . S
C263 H250 0.929 . S
C263 C255 1.433 . S
C263 N265 1.384 . S
N264 C260 1.427 . S
N264 C261 1.384 . S
N265 C257 1.427 . S
N265 C263 1.384 . S
H266 C272 0.930 . S
H267 C276 0.930 . S
H268 C281 0.929 . S
H269 C279 0.929 . S
H270 C274 0.929 . S
H271 C280 0.929 . S
C272 H266 0.930 . S
C272 C273 1.367 . S
C272 C280 1.378 . S
C273 C272 1.367 . S
C273 C281 1.433 . S
C274 H270 0.929 . S
C274 C276 1.378 . S
C274 C278 1.350 . S
C275 C278 1.463 . S
C275 C280 1.350 . S
C275 N283 1.427 . S
C276 H267 0.930 . S
C276 C274 1.378 . S
C276 C277 1.367 . S
C277 C276 1.367 . S
C277 C279 1.433 . S
C278 C274 1.350 . S
C278 C275 1.463 . S
C278 N282 1.427 . S
C279 H269 0.929 . S
C279 C277 1.433 . S
C279 N282 1.384 . S
C280 H271 0.929 . S
C280 C272 1.378 . S
C280 C275 1.350 . S
C281 H268 0.929 . S
C281 C273 1.433 . S
C281 N283 1.384 . S
N282 C278 1.427 . S
N282 C279 1.384 . S
N283 C275 1.427 . S
N283 C281 1.384 . S
H284 C290 0.930 . S
H285 C294 0.930 . S
H286 C299 0.929 . S
H287 C297 0.929 . S
H288 C292 0.929 . S
H289 C298 0.929 . S
C290 H284 0.930 . S
C290 C291 1.367 . S
C290 C298 1.378 . S
C291 C290 1.367 . S
C291 C299 1.433 . S
C292 H288 0.929 . S
C292 C294 1.378 . S
C292 C296 1.350 . S
C293 C296 1.463 . S
C293 C298 1.350 . S
C293 N301 1.427 . S
C294 H285 0.930 . S
C294 C292 1.378 . S
C294 C295 1.367 . S
C295 C294 1.367 . S
C295 C297 1.433 . S
C296 C292 1.350 . S
C296 C293 1.463 . S
C296 N300 1.427 . S
C297 H287 0.929 . S
C297 C295 1.433 . S
C297 N300 1.384 . S
C298 H289 0.929 . S
C298 C290 1.378 . S
C298 C293 1.350 . S
C299 H286 0.929 . S
C299 C291 1.433 . S
C299 N301 1.384 . S
N300 C296 1.427 . S
N300 C297 1.384 . S
N301 C293 1.427 . S
N301 C299 1.384 . S
C97 C60 1.246 . S
C93 C41 1.431 . S
C111 C8 1.433 . S
C115 C81 1.295 1_554 S
C129 C19 1.643 . S
C133 C57 1.450 . S
C147 C30 1.581 . S
C151 C78 1.346 . S
C169 C62 1.512 . S
C165 C5 1.388 . S
C187 C82 1.628 . S
C183 C18 1.655 . S
C201 C29 1.559 . S
C205 C58 1.557 . S
C219 C40 1.582 . S
C223 C80 1.549 . S
C241 C79 1.401 . S
C237 C16 1.282 . S
C259 C61 1.431 . S
C255 C27 1.275 . S
C277 C83 1.342 . S
C273 C38 1.245 . S
C291 C7 1.396 1_556 S
C295 C59 1.359 . S
