# Generated by pormake.
# Topology scu, (8,4)-cn, num edge types: 1
# Building blocks:
#     Node 0, Type 0, BuildingBlock: GIZVER_clean_sbu_0, # of connection points: 8
#     Node 1, Type 1, BuildingBlock: ESEHIV_clean_sbu_0, # of connection points: 4
#     Node 2, Type 1, BuildingBlock: ESEHIV_clean_sbu_0, # of connection points: 4
#     Edge 3, Type (0, 1), BuildingBlock: TEMPAE_clean_linker_10, # of connection points: 2
#     Edge 4, Type (0, 1), BuildingBlock: TEMPAE_clean_linker_10, # of connection points: 2
#     Edge 5, Type (0, 1), BuildingBlock: TEMPAE_clean_linker_10, # of connection points: 2
#     Edge 6, Type (0, 1), BuildingBlock: TEMPAE_clean_linker_10, # of connection points: 2
#     Edge 7, Type (0, 1), BuildingBlock: TEMPAE_clean_linker_10, # of connection points: 2
#     Edge 8, Type (0, 1), BuildingBlock: TEMPAE_clean_linker_10, # of connection points: 2
#     Edge 9, Type (0, 1), BuildingBlock: TEMPAE_clean_linker_10, # of connection points: 2
#     Edge 10, Type (0, 1), BuildingBlock: TEMPAE_clean_linker_10, # of connection points: 2
# Relax obj value: 0.031
# Max RMSD: 0.139
# Mean RMSD: 0.115
data_MOF--net-scu--node1-GIZVER_clean_sbu_0--node2-ESEHIV_clean_sbu_0--edge1-TEMPAE_clean_linker_10
_symmetry_space_group_name_H-M    P1
_symmetry_Int_Tables_number       1
_symmetry_cell_setting            triclinic
loop_
_symmetry_equiv_pos_as_xyz
'x, y, z'
_cell_length_a     25.032419
_cell_length_b     25.839767
_cell_length_c     22.615932
_cell_angle_alpha  102.93962
_cell_angle_beta   85.588372
_cell_angle_gamma 112.58171
loop_
_atom_site_label
_atom_site_type_symbol
_atom_site_fract_x
_atom_site_fract_y
_atom_site_fract_z
_atom_type_partial_charge
Co0 Co 0.03701 0.99006 0.14668 0.0
Co1 Co 0.11766 0.07322 0.10808 0.0
Co2 Co 1.00743 0.04152 0.02871 0.0
O3 O 0.05437 1.01158 0.0692 0.0
H4 H 0.06755 0.98529 0.04046 0.0
O5 O 0.9632 0.07481 0.98901 0.0
Co6 Co 0.99357 0.10299 0.91653 0.0
Co7 Co 0.90342 1.02255 0.94076 0.0
H8 H 0.94962 0.1008 1.01771 0.0
O9 O 0.18432 0.06422 0.11816 0.0
O10 O 0.10917 0.05482 0.18321 0.0
O11 O 0.11929 0.14979 0.12244 0.0
O12 O 0.02998 0.11845 0.08717 0.0
O13 O 0.07501 0.06835 0.97428 0.0
O14 O 0.02043 0.13281 0.85268 0.0
O15 O 0.97312 0.16571 0.93127 0.0
O16 O 0.02228 0.04392 0.89142 0.0
O17 O 0.98157 0.96348 0.97017 0.0
O18 O 0.90178 0.94644 0.91824 0.0
O19 O 0.91849 0.05489 0.87311 0.0
O20 O 0.84068 0.03981 0.93477 0.0
C21 C 0.05488 0.93637 0.19081 0.0
C22 C 0.94308 1.02123 0.13999 0.0
C23 C 0.07322 0.15765 0.11729 0.0
C24 C 0.16255 0.05883 0.17156 0.0
C25 C 0.99975 0.17097 0.87944 0.0
C26 C 0.06822 0.04931 0.917 0.0
C27 C 0.94035 0.93081 0.9325 0.0
C28 C 0.86758 0.05719 0.88706 0.0
O29 O 0.02359 0.96545 0.21591 0.0
O30 O 0.07543 0.9414 0.13652 0.0
O31 O 0.94027 1.01249 0.08221 0.0
O32 O 0.99138 0.0362 0.16701 0.0
Cu33 Cu 0.05446 0.56354 0.53259 0.0
N34 N 0.09037 0.53324 0.57785 0.0
N35 N 0.09496 0.4801 0.64181 0.0
C36 C 0.06103 0.49915 0.61621 0.0
C37 C 0.14807 0.50342 0.61842 0.0
C38 C 0.14505 0.536 0.57877 0.0
O39 O 0.01826 0.50106 0.46349 0.0
C40 C 0.03483 0.62923 0.63556 0.0
O41 O 0.09051 0.64003 0.63735 0.0
H42 H 0.01533 0.48851 0.62485 0.0
H43 H 0.17985 0.55891 0.55167 0.0
N44 N 0.10338 0.62694 0.50122 0.0
N45 N 0.12727 0.69486 0.4464 0.0
C46 C 0.08522 0.64801 0.4608 0.0
C47 C 0.15902 0.66177 0.51333 0.0
C48 C 0.17387 0.70377 0.47959 0.0
C49 C 0.0528 0.49512 0.42022 0.0
O50 O 0.10686 0.53133 0.42463 0.0
H51 H 0.04128 0.62982 0.4435 0.0
H52 H 0.18657 0.65749 0.54493 0.0
O53 O 1.00536 0.59312 0.59003 0.0
H54 H 0.18604 0.49604 0.62766 0.0
H55 H 0.21574 0.73808 0.47956 0.0
Cu56 Cu 0.49237 0.99757 0.52519 0.0
N57 N 0.4363 0.9577 0.57565 0.0
N58 N 0.36684 0.94605 0.6459 0.0
C59 C 0.40154 0.98075 0.61027 0.0
C60 C 0.38024 0.89878 0.63253 0.0
C61 C 0.42322 0.90616 0.58927 0.0
O62 O 0.45554 0.03489 0.48594 0.0
C63 C 0.58491 1.01618 0.59063 0.0
O64 O 0.5593 0.96009 0.57562 0.0
H65 H 0.40203 1.02251 0.60896 0.0
H66 H 0.44416 0.87661 0.57018 0.0
N67 N 0.51877 0.95262 0.46244 0.0
N68 N 0.57977 0.93643 0.38968 0.0
C69 C 0.56663 0.97608 0.43117 0.0
C70 C 0.50041 0.89575 0.44015 0.0
C71 C 0.53814 0.8856 0.39519 0.0
C72 C 0.41333 0.9983 0.45227 0.0
O73 O 0.40052 0.94352 0.44962 0.0
H74 H 0.59234 1.02161 0.44041 0.0
H75 H 0.46279 0.864 0.45573 0.0
O76 O 0.56086 0.04648 0.57477 0.0
H77 H 0.36153 0.86204 0.65347 0.0
H78 H 0.53502 0.84408 0.3687 0.0
C79 C 0.01633 0.22114 0.14746 0.0
C80 C 0.06591 0.20986 0.15434 0.0
C81 C 1.00574 0.26668 0.18681 0.0
C82 C 0.04527 0.30144 0.23467 0.0
C83 C 0.09578 0.29083 0.24124 0.0
C84 C 0.10564 0.24555 0.20087 0.0
C85 C 0.95193 0.27714 0.17765 0.0
C86 C 0.13908 0.32677 0.29171 0.0
C87 C 0.06211 0.45287 0.31215 0.0
C88 C 0.03693 0.44522 0.3687 0.0
C89 C 0.06104 0.40594 0.26619 0.0
C90 C 0.03518 0.34989 0.27749 0.0
C91 C 1.006 0.3416 0.33302 0.0
C92 C 1.00686 0.38952 0.37798 0.0
C93 C 0.09154 0.41683 0.20734 0.0
C94 C 0.97801 0.28258 0.34695 0.0
H95 H 0.98525 0.19385 0.11177 0.0
H96 H 0.14379 0.23707 0.20707 0.0
H97 H 0.92383 0.27129 0.21796 0.0
H98 H 0.96369 0.32201 0.1729 0.0
H99 H 0.92667 0.24773 0.13688 0.0
H100 H 0.17561 0.31235 0.29128 0.0
H101 H 0.15687 0.3723 0.28765 0.0
H102 H 0.11739 0.32485 0.3363 0.0
H103 H 0.08535 0.49602 0.30492 0.0
H104 H 0.98801 0.38356 0.42195 0.0
H105 H 0.06465 0.3866 0.16804 0.0
H106 H 0.13261 0.40964 0.20593 0.0
H107 H 0.10182 0.46139 0.20214 0.0
H108 H 0.9508 0.25173 0.30819 0.0
H109 H 0.95085 0.28243 0.38819 0.0
H110 H 1.01214 0.2671 0.35433 0.0
C111 C 0.83494 0.9884 0.14649 0.0
C112 C 0.88902 1.01081 0.17587 0.0
C113 C 0.78326 0.97525 0.17952 0.0
C114 C 0.78552 0.985 0.24359 0.0
C115 C 0.83991 1.00834 0.27362 0.0
C116 C 0.89094 1.02083 0.23945 0.0
C117 C 0.72617 0.9504 0.14578 0.0
C118 C 0.84421 1.0199 0.34191 0.0
C119 C 0.65638 1.00082 0.33444 0.0
C120 C 0.62954 0.94717 0.35038 0.0
C121 C 0.70682 1.01352 0.29951 0.0
C122 C 0.73102 0.97141 0.27932 0.0
C123 C 0.70355 0.91669 0.29393 0.0
C124 C 0.65321 0.90525 0.32933 0.0
C125 C 0.73463 0.07235 0.28487 0.0
C126 C 0.72788 0.87053 0.27298 0.0
H127 H 0.83282 0.98031 0.09742 0.0
H128 H 0.93238 0.03812 0.26268 0.0
H129 H 0.69976 0.90779 0.15583 0.0
H130 H 0.70133 0.97839 0.16123 0.0
H131 H 0.73179 0.94547 0.09589 0.0
H132 H 0.88976 0.03845 0.35837 0.0
H133 H 0.82282 0.05001 0.36273 0.0
H134 H 0.82126 0.9795 0.35804 0.0
H135 H 0.63793 0.03317 0.34927 0.0
H136 H 0.63325 0.86391 0.34171 0.0
H137 H 0.73785 0.06858 0.23501 0.0
H138 H 0.77932 0.09379 0.3037 0.0
H139 H 0.71009 0.10014 0.3035 0.0
H140 H 0.7004 0.82966 0.2864 0.0
H141 H 0.77186 0.8851 0.29253 0.0
H142 H 0.73213 0.86223 0.22288 0.0
C143 C 0.10807 0.87403 0.2042 0.0
C144 C 0.06863 0.90038 0.22575 0.0
C145 C 0.12164 0.84106 0.23827 0.0
C146 C 0.09474 0.83377 0.29503 0.0
C147 C 0.05527 0.86064 0.31705 0.0
C148 C 0.04285 0.89355 0.28237 0.0
C149 C 0.16417 0.81349 0.21292 0.0
C150 C 0.02601 0.85464 0.37744 0.0
C151 C 0.08057 0.70459 0.35898 0.0
C152 C 0.12201 0.72905 0.40604 0.0
C153 C 0.07235 0.73788 0.32174 0.0
C154 C 0.10663 0.79727 0.33121 0.0
C155 C 0.14968 0.82193 0.3776 0.0
C156 C 0.15671 0.78763 0.41437 0.0
C157 C 0.0256 0.70975 0.27342 0.0
C158 C 0.187 0.88499 0.39097 0.0
H159 H 0.12862 0.87931 0.16081 0.0
H160 H 1.0126 0.91394 0.29987 0.0
H161 H 0.19245 0.81497 0.24921 0.0
H162 H 0.14006 0.76776 0.19198 0.0
H163 H 0.19178 0.83455 0.17756 0.0
H164 H 0.9949 0.8766 0.38728 0.0
H165 H 1.00251 0.80862 0.37831 0.0
H166 H 0.05908 0.87312 0.41425 0.0
H167 H 0.05416 0.65924 0.35134 0.0
H168 H 0.18835 0.80732 0.45093 0.0
H169 H 0.0444 0.7164 0.22841 0.0
H170 H 0.99298 0.72987 0.28271 0.0
H171 H 1.00326 0.66296 0.27109 0.0
H172 H 0.19143 0.90435 0.35105 0.0
H173 H 0.23085 0.8924 0.40663 0.0
H174 H 0.1671 0.90756 0.42803 0.0
C175 C 0.25994 0.07602 0.20981 0.0
C176 C 0.20019 0.05972 0.21945 0.0
C177 C 0.29645 0.07438 0.25262 0.0
C178 C 0.27255 0.05458 0.30584 0.0
C179 C 0.21265 0.04078 0.31741 0.0
C180 C 0.1773 0.04411 0.27423 0.0
C181 C 0.36042 0.09205 0.23978 0.0
C182 C 0.1844 1.02119 0.37413 0.0
C183 C 0.3498 0.97519 0.36362 0.0
C184 C 0.37929 1.01497 0.41497 0.0
C185 C 0.315 0.98771 0.328 0.0
C186 C 0.30895 0.04129 0.34442 0.0
C187 C 0.33875 0.08192 0.39612 0.0
C188 C 0.37409 0.06843 0.43073 0.0
C189 C 0.28597 0.94375 0.27199 0.0
C190 C 0.33287 0.13926 0.41486 0.0
H191 H 0.27842 0.08963 0.1683 0.0
H192 H 0.13145 0.03283 0.28286 0.0
H193 H 0.38614 0.12052 0.2806 0.0
H194 H 0.37179 0.05353 0.22813 0.0
H195 H 0.37332 0.11467 0.20149 0.0
H196 H 0.14705 0.9799 0.36156 0.0
H197 H 0.21399 1.01592 0.40423 0.0
H198 H 0.16685 0.0529 0.40021 0.0
H199 H 0.35426 0.93403 0.35075 0.0
H200 H 0.39659 0.09908 0.47064 0.0
H201 H 0.31128 0.95597 0.23142 0.0
H202 H 0.24162 0.94159 0.26561 0.0
H203 H 0.28362 0.90035 0.27386 0.0
H204 H 0.34522 0.16211 0.37678 0.0
H205 H 0.36014 0.16683 0.45512 0.0
H206 H 0.287 0.13268 0.42562 0.0
C207 C 0.96884 0.88495 0.83466 0.0
C208 C 0.94607 0.88 0.89246 0.0
C209 C 0.97586 0.83834 0.79435 0.0
C210 C 0.95851 0.78497 0.8119 0.0
C211 C 0.9336 0.77928 0.8698 0.0
C212 C 0.92821 0.82731 0.9099 0.0
C213 C 1.0036 0.84688 0.73371 0.0
C214 C 0.91355 0.72287 0.88966 0.0
C215 C 0.95482 0.66266 0.67964 0.0
C216 C 1.01022 0.66233 0.68429 0.0
C217 C 0.93551 0.69989 0.72321 0.0
C218 C 0.97271 0.73777 0.77192 0.0
C219 C 0.02733 0.73526 0.77835 0.0
C220 C 0.04513 0.69744 0.73485 0.0
C221 C 0.87641 0.70048 0.71568 0.0
C222 C 0.06828 0.7745 0.82972 0.0
H223 H 0.98206 0.92586 0.82136 0.0
H224 H 0.90997 0.82369 0.95454 0.0
H225 H 0.04367 0.83771 0.72965 0.0
H226 H 0.97398 0.81649 0.69644 0.0
H227 H 1.01473 0.8912 0.72725 0.0
H228 H 0.88761 0.72326 0.93177 0.0
H229 H 0.88719 0.68743 0.85333 0.0
H230 H 0.95158 0.71348 0.89825 0.0
H231 H 0.92742 0.6354 0.64103 0.0
H232 H 0.08766 0.69689 0.73962 0.0
H233 H 0.88104 0.73997 0.70059 0.0
H234 H 0.8534 0.70101 0.75962 0.0
H235 H 0.84947 0.66281 0.68166 0.0
H236 H 0.07631 0.81991 0.83022 0.0
H237 H 0.11051 0.76928 0.82638 0.0
H238 H 0.04855 0.76558 0.87375 0.0
C239 C 0.10607 1.01411 0.81678 0.0
C240 C 0.1116 0.02991 0.88027 0.0
C241 C 0.14703 0.99696 0.78074 0.0
C242 C 0.19482 0.99516 0.80867 0.0
C243 C 0.19988 1.00944 0.87283 0.0
C244 C 0.15837 0.02689 0.90786 0.0
C245 C 0.13992 0.98221 0.71256 0.0
C246 C 0.24973 1.00732 0.90441 0.0
C247 C 0.27924 0.91357 0.70878 0.0
C248 C 0.32527 0.95811 0.6894 0.0
C249 C 0.23748 0.92498 0.74916 0.0
C250 C 0.24131 0.98223 0.77028 0.0
C251 C 0.28824 0.0274 0.75197 0.0
C252 C 0.32969 1.01487 0.71231 0.0
C253 C 0.18854 0.87565 0.76813 0.0
C254 C 0.29397 0.08908 0.77311 0.0
H255 H 0.07004 1.01601 0.79488 0.0
H256 H 0.16274 0.03839 0.95687 0.0
H257 H 0.17756 1.01194 0.69197 0.0
H258 H 0.13866 0.93818 0.69431 0.0
H259 H 0.09983 0.98483 0.69794 0.0
H260 H 0.24518 1.01551 0.95454 0.0
H261 H 0.25304 0.96481 0.88857 0.0
H262 H 0.2909 0.03992 0.89283 0.0
H263 H 0.27497 0.86958 0.6914 0.0
H264 H 0.3656 0.04993 0.69924 0.0
H265 H 0.14708 0.87201 0.75 0.0
H266 H 0.18528 0.88361 0.81831 0.0
H267 H 0.19399 0.83413 0.75157 0.0
H268 H 0.25603 0.09458 0.75715 0.0
H269 H 0.33387 0.11941 0.75611 0.0
H270 H 0.29452 0.10078 0.82339 0.0
C271 C 0.02559 0.21466 0.78845 0.0
C272 C 1.00647 0.2184 0.84877 0.0
C273 C 0.03671 0.25951 0.75836 0.0
C274 C 0.02858 0.30996 0.789 0.0
C275 C 1.0076 0.31365 0.84933 0.0
C276 C 0.99667 0.26769 0.87858 0.0
C277 C 0.05837 0.25317 0.6939 0.0
C278 C 0.99782 0.36653 0.88325 0.0
C279 C 0.11723 0.43973 0.72215 0.0
C280 C 0.07717 0.44056 0.68257 0.0
C281 C 0.10117 0.39947 0.75957 0.0
C282 C 0.0436 0.35875 0.75746 0.0
C283 C 1.00242 0.36061 0.71927 0.0
C284 C 0.01966 0.40132 0.68235 0.0
C285 C 0.14652 0.39899 0.79952 0.0
C286 C 0.94071 0.3178 0.71521 0.0
H287 H 0.03255 0.17651 0.76443 0.0
H288 H 0.98176 0.27091 0.92504 0.0
H289 H 0.02915 0.25888 0.66365 0.0
H290 H 0.10187 0.28692 0.69159 0.0
H291 H 0.06132 0.21065 0.67611 0.0
H292 H 0.9788 0.36176 0.92869 0.0
H293 H 0.03952 0.40396 0.88912 0.0
H294 H 0.96858 0.37614 0.85673 0.0
H295 H 0.16141 0.47034 0.72355 0.0
H296 H 0.98833 0.40091 0.65166 0.0
H297 H 0.15556 0.35943 0.78265 0.0
H298 H 0.13051 0.3985 0.8466 0.0
H299 H 0.18771 0.43665 0.80046 0.0
H300 H 0.93961 0.27456 0.69276 0.0
H301 H 0.91244 0.32899 0.689 0.0
H302 H 0.92252 0.31508 0.76123 0.0
C303 C 0.77789 0.06362 0.85463 0.0
C304 C 0.83668 0.07326 0.84529 0.0
C305 C 0.74504 0.07022 0.81163 0.0
C306 C 0.77186 0.08826 0.75839 0.0
C307 C 0.8325 0.10432 0.75192 0.0
C308 C 0.8641 0.09545 0.79487 0.0
C309 C 0.68048 0.05246 0.82064 0.0
C310 C 0.86352 0.12711 0.69778 0.0
C311 C 0.66954 1.0049 0.62716 0.0
C312 C 0.64 0.0409 0.62524 0.0
C313 C 0.71613 1.02206 0.66684 0.0
C314 C 0.73441 0.07715 0.70536 0.0
C315 C 0.70882 0.11608 0.69923 0.0
C316 C 0.6613 0.0973 0.65935 0.0
C317 C 0.74234 0.97911 0.67106 0.0
C318 C 0.72911 0.17618 0.73729 0.0
H319 H 0.75637 0.04749 0.89396 0.0
H320 H 0.90974 0.10411 0.78772 0.0
H321 H 0.66595 0.08597 0.81315 0.0
H322 H 0.65755 1.01254 0.78702 0.0
H323 H 0.66727 0.04444 0.86682 0.0
H324 H 0.90954 0.15493 0.70898 0.0
H325 H 0.8627 0.09072 0.66043 0.0
H326 H 0.84245 0.15197 0.68111 0.0
H327 H 0.65451 0.96181 0.59947 0.0
H328 H 0.63933 0.12572 0.65716 0.0
H329 H 0.73278 0.96724 0.71605 0.0
H330 H 0.79002 0.99811 0.66678 0.0
H331 H 0.72534 0.93931 0.6354 0.0
H332 H 0.70755 0.17568 0.78199 0.0
H333 H 0.71805 0.20525 0.71536 0.0
H334 H 0.77655 0.19379 0.7454 0.0
loop_
_geom_bond_atom_site_label_1
_geom_bond_atom_site_label_2
_geom_bond_distance
_geom_bond_site_symmetry_2
_ccdc_geom_bond_type
Co0 O3 2.042 . S
Co0 O10 2.264 1_565 S
Co0 O29 2.286 1_455 S
Co0 O30 2.069 . S
Co0 O32 2.015 1_455 S
Co1 O3 2.122 1_545 S
Co1 O9 2.073 . S
Co1 O10 2.327 . S
Co1 O11 1.976 . S
Co2 O3 2.087 1_545 S
Co2 O5 2.087 1_454 S
Co2 O12 2.111 . S
Co2 O13 2.143 1_554 S
Co2 O17 2.111 1_444 S
Co2 O31 2.143 1_445 S
O3 Co0 2.042 . S
O3 Co1 2.122 1_565 S
O3 Co2 2.087 1_565 S
O3 H4 0.980 . S
H4 O3 0.980 . S
O5 Co2 2.087 1_656 S
O5 Co6 2.042 1_655 S
O5 Co7 2.122 1_545 S
O5 H8 0.980 . S
Co6 O5 2.042 1_455 S
Co6 O14 2.286 . S
Co6 O15 2.069 1_455 S
Co6 O16 2.015 . S
Co6 O19 2.264 1_455 S
Co7 O5 2.122 1_565 S
Co7 O18 1.976 . S
Co7 O19 2.327 1_565 S
Co7 O20 2.073 . S
H8 O5 0.980 . S
O9 Co1 2.073 . S
O9 C24 1.245 . S
O10 Co0 2.264 1_545 S
O10 Co1 2.327 . S
O10 C24 1.257 . S
O11 Co1 1.976 . S
O11 C23 1.251 . S
O12 Co2 2.111 . S
O12 C23 1.274 . S
O13 Co2 2.143 1_556 S
O13 C26 1.246 . S
O14 Co6 2.286 . S
O14 C25 1.259 1_455 S
O15 Co6 2.069 1_655 S
O15 C25 1.289 . S
O16 Co6 2.015 . S
O16 C26 1.257 . S
O17 Co2 2.111 1_666 S
O17 C27 1.274 . S
O18 Co7 1.976 . S
O18 C27 1.251 . S
O19 Co6 2.264 1_655 S
O19 Co7 2.327 1_545 S
O19 C28 1.257 . S
O20 Co7 2.073 . S
O20 C28 1.245 1_565 S
C21 O29 1.259 1_455 S
C21 O30 1.289 . S
C22 O31 1.246 . S
C22 O32 1.257 . S
C23 O11 1.251 . S
C23 O12 1.274 . S
C24 O9 1.245 . S
C24 O10 1.257 . S
C25 O14 1.259 1_655 S
C25 O15 1.289 . S
C26 O13 1.246 . S
C26 O16 1.257 . S
C27 O17 1.274 . S
C27 O18 1.251 . S
C28 O19 1.257 . S
C28 O20 1.245 1_545 S
O29 Co0 2.286 1_655 S
O29 C21 1.259 1_655 S
O30 Co0 2.069 . S
O30 C21 1.289 . S
O31 Co2 2.143 1_665 S
O31 C22 1.246 . S
O32 Co0 2.015 1_655 S
O32 C22 1.257 . S
Cu33 N34 1.999 . S
Cu33 O39 1.974 . S
Cu33 N44 1.985 . S
Cu33 O53 1.959 . S
N34 Cu33 1.999 . S
N34 C36 1.263 . S
N34 C38 1.389 . S
N35 C36 1.358 . S
N35 C37 1.400 . S
C36 N34 1.263 . S
C36 N35 1.358 . S
C36 H42 0.930 1_655 S
C37 N35 1.400 . S
C37 C38 1.351 . S
C37 H54 0.930 . S
C38 N34 1.389 . S
C38 C37 1.351 . S
C38 H43 0.930 . S
O39 Cu33 1.974 . S
O39 C49 1.282 1_655 S
C40 O41 1.261 . S
C40 O53 1.251 1_455 S
O41 C40 1.261 . S
H42 C36 0.930 1_455 S
H43 C38 0.930 . S
N44 Cu33 1.985 . S
N44 C46 1.335 . S
N44 C47 1.390 1_655 S
N45 C46 1.345 . S
N45 C48 1.336 1_655 S
C46 N44 1.335 . S
C46 N45 1.345 . S
C46 H51 0.930 . S
C47 N44 1.390 1_455 S
C47 C48 1.346 . S
C47 H52 0.930 . S
C48 N45 1.336 1_455 S
C48 C47 1.346 . S
C48 H55 0.929 . S
C49 O39 1.282 1_455 S
C49 O50 1.216 . S
O50 C49 1.216 . S
H51 C46 0.930 . S
H52 C47 0.930 . S
O53 Cu33 1.959 . S
O53 C40 1.251 1_655 S
H54 C37 0.930 . S
H55 C48 0.929 . S
Cu56 N57 1.999 . S
Cu56 O62 1.974 . S
Cu56 N67 1.985 . S
Cu56 O76 1.959 . S
N57 Cu56 1.999 . S
N57 C59 1.263 . S
N57 C61 1.389 . S
N58 C59 1.358 . S
N58 C60 1.400 . S
C59 N57 1.263 . S
C59 N58 1.358 . S
C59 H65 0.928 1_545 S
C60 N58 1.400 . S
C60 C61 1.351 . S
C60 H77 0.930 . S
C61 N57 1.389 . S
C61 C60 1.351 . S
C61 H66 0.930 . S
O62 Cu56 1.974 . S
O62 C72 1.282 1_545 S
C63 O64 1.261 . S
C63 O76 1.251 1_565 S
O64 C63 1.261 . S
H65 C59 0.928 1_565 S
H66 C61 0.930 . S
N67 Cu56 1.985 . S
N67 C69 1.335 . S
N67 C70 1.390 . S
N68 C69 1.345 . S
N68 C71 1.336 . S
C69 N67 1.335 . S
C69 N68 1.345 . S
C69 H74 0.930 . S
C70 N67 1.390 . S
C70 C71 1.346 . S
C70 H75 0.930 1_545 S
C71 N68 1.336 . S
C71 C70 1.346 . S
C71 H78 0.929 1_545 S
C72 O62 1.282 1_565 S
C72 O73 1.216 . S
O73 C72 1.216 . S
H74 C69 0.930 . S
H75 C70 0.930 1_565 S
O76 Cu56 1.959 . S
O76 C63 1.251 1_545 S
H77 C60 0.930 . S
H78 C71 0.929 1_565 S
C79 C80 1.391 . S
C79 C81 1.394 . S
C79 H95 0.931 . S
C80 C79 1.391 . S
C80 C84 1.376 1_455 S
C81 C79 1.394 . S
C81 C82 1.369 . S
C81 C85 1.531 . S
C82 C81 1.369 . S
C82 C83 1.410 1_455 S
C82 C90 1.503 . S
C83 C82 1.410 1_655 S
C83 C84 1.392 . S
C83 C86 1.511 . S
C84 C80 1.376 1_655 S
C84 C83 1.392 . S
C84 H96 0.929 . S
C85 C81 1.531 . S
C85 H97 0.960 . S
C85 H98 0.962 . S
C85 H99 0.960 . S
C86 C83 1.511 . S
C86 H100 0.961 . S
C86 H101 0.961 . S
C86 H102 0.961 . S
C87 C88 1.370 . S
C87 C89 1.363 . S
C87 H103 0.931 . S
C88 C87 1.370 . S
C88 C92 1.408 1_455 S
C89 C87 1.363 . S
C89 C90 1.370 . S
C89 C93 1.524 . S
C90 C82 1.503 . S
C90 C89 1.370 . S
C90 C91 1.403 1_455 S
C91 C90 1.403 1_655 S
C91 C92 1.404 . S
C91 C94 1.539 . S
C92 C88 1.408 1_655 S
C92 C91 1.404 . S
C92 H104 0.930 . S
C93 C89 1.524 . S
C93 H105 0.956 . S
C93 H106 0.961 . S
C93 H107 0.961 . S
C94 C91 1.539 . S
C94 H108 0.958 . S
C94 H109 0.961 . S
C94 H110 0.960 . S
H95 C79 0.931 . S
H96 C84 0.929 . S
H97 C85 0.960 . S
H98 C85 0.962 . S
H99 C85 0.960 . S
H100 C86 0.961 . S
H101 C86 0.961 . S
H102 C86 0.961 . S
H103 C87 0.931 . S
H104 C92 0.930 . S
H105 C93 0.956 . S
H106 C93 0.961 . S
H107 C93 0.961 . S
H108 C94 0.958 . S
H109 C94 0.961 . S
H110 C94 0.960 . S
C111 C112 1.391 1_565 S
C111 C113 1.394 . S
C111 H127 0.931 . S
C112 C111 1.391 1_545 S
C112 C116 1.376 . S
C113 C111 1.394 . S
C113 C114 1.369 1_565 S
C113 C117 1.531 . S
C114 C113 1.369 1_545 S
C114 C115 1.410 . S
C114 C122 1.503 . S
C115 C114 1.410 . S
C115 C116 1.392 . S
C115 C118 1.511 . S
C116 C112 1.376 . S
C116 C115 1.392 . S
C116 H128 0.929 . S
C117 C113 1.531 . S
C117 H129 0.960 . S
C117 H130 0.962 . S
C117 H131 0.960 . S
C118 C115 1.511 . S
C118 H132 0.961 . S
C118 H133 0.961 . S
C118 H134 0.961 . S
C119 C120 1.370 . S
C119 C121 1.363 . S
C119 H135 0.931 . S
C120 C119 1.370 . S
C120 C124 1.408 1_545 S
C121 C119 1.363 . S
C121 C122 1.370 . S
C121 C125 1.524 . S
C122 C114 1.503 . S
C122 C121 1.370 . S
C122 C123 1.403 1_545 S
C123 C122 1.403 1_565 S
C123 C124 1.404 . S
C123 C126 1.539 . S
C124 C120 1.408 1_565 S
C124 C123 1.404 . S
C124 H136 0.930 . S
C125 C121 1.524 . S
C125 H137 0.956 . S
C125 H138 0.961 . S
C125 H139 0.961 . S
C126 C123 1.539 . S
C126 H140 0.958 . S
C126 H141 0.961 . S
C126 H142 0.960 . S
H127 C111 0.931 . S
H128 C116 0.929 . S
H129 C117 0.960 . S
H130 C117 0.962 . S
H131 C117 0.960 . S
H132 C118 0.961 . S
H133 C118 0.961 . S
H134 C118 0.961 . S
H135 C119 0.931 . S
H136 C124 0.930 . S
H137 C125 0.956 . S
H138 C125 0.961 . S
H139 C125 0.961 . S
H140 C126 0.958 . S
H141 C126 0.961 . S
H142 C126 0.960 . S
C143 C144 1.391 . S
C143 C145 1.394 . S
C143 H159 0.931 . S
C144 C143 1.391 . S
C144 C148 1.376 1_455 S
C145 C143 1.394 . S
C145 C146 1.369 . S
C145 C149 1.531 . S
C146 C145 1.369 . S
C146 C147 1.410 1_455 S
C146 C154 1.503 . S
C147 C146 1.410 1_655 S
C147 C148 1.392 . S
C147 C150 1.511 . S
C148 C144 1.376 1_655 S
C148 C147 1.392 . S
C148 H160 0.929 . S
C149 C145 1.531 . S
C149 H161 0.960 . S
C149 H162 0.962 . S
C149 H163 0.960 . S
C150 C147 1.511 . S
C150 H164 0.961 . S
C150 H165 0.961 . S
C150 H166 0.961 . S
C151 C152 1.370 1_455 S
C151 C153 1.363 . S
C151 H167 0.931 . S
C152 C151 1.370 1_655 S
C152 C156 1.408 . S
C153 C151 1.363 . S
C153 C154 1.370 . S
C153 C157 1.524 . S
C154 C146 1.503 . S
C154 C153 1.370 . S
C154 C155 1.403 1_455 S
C155 C154 1.403 1_655 S
C155 C156 1.404 . S
C155 C158 1.539 . S
C156 C152 1.408 . S
C156 C155 1.404 . S
C156 H168 0.930 . S
C157 C153 1.524 . S
C157 H169 0.956 . S
C157 H170 0.961 . S
C157 H171 0.961 . S
C158 C155 1.539 . S
C158 H172 0.958 . S
C158 H173 0.961 . S
C158 H174 0.960 . S
H159 C143 0.931 . S
H160 C148 0.929 . S
H161 C149 0.960 . S
H162 C149 0.962 . S
H163 C149 0.960 . S
H164 C150 0.961 . S
H165 C150 0.961 . S
H166 C150 0.961 . S
H167 C151 0.931 . S
H168 C156 0.930 . S
H169 C157 0.956 . S
H170 C157 0.961 . S
H171 C157 0.961 . S
H172 C158 0.958 . S
H173 C158 0.961 . S
H174 C158 0.960 . S
C175 C176 1.391 1_545 S
C175 C177 1.394 . S
C175 H191 0.931 . S
C176 C175 1.391 1_565 S
C176 C180 1.377 . S
C177 C175 1.394 . S
C177 C178 1.369 . S
C177 C181 1.531 . S
C178 C177 1.369 . S
C178 C179 1.410 1_545 S
C178 C186 1.503 . S
C179 C178 1.410 1_565 S
C179 C180 1.392 . S
C179 C182 1.511 . S
C180 C176 1.377 . S
C180 C179 1.392 . S
C180 H192 0.929 . S
C181 C177 1.531 . S
C181 H193 0.960 . S
C181 H194 0.962 . S
C181 H195 0.960 . S
C182 C179 1.511 . S
C182 H196 0.961 . S
C182 H197 0.961 . S
C182 H198 0.961 . S
C183 C184 1.370 . S
C183 C185 1.363 . S
C183 H199 0.931 . S
C184 C183 1.370 . S
C184 C188 1.408 1_565 S
C185 C183 1.363 . S
C185 C186 1.370 1_565 S
C185 C189 1.524 . S
C186 C178 1.503 . S
C186 C185 1.370 1_545 S
C186 C187 1.403 . S
C187 C186 1.403 . S
C187 C188 1.404 . S
C187 C190 1.539 . S
C188 C184 1.408 1_545 S
C188 C187 1.404 . S
C188 H200 0.930 . S
C189 C185 1.524 . S
C189 H201 0.956 . S
C189 H202 0.961 . S
C189 H203 0.961 . S
C190 C187 1.539 . S
C190 H204 0.958 . S
C190 H205 0.961 . S
C190 H206 0.960 . S
H191 C175 0.931 . S
H192 C180 0.929 . S
H193 C181 0.960 . S
H194 C181 0.962 . S
H195 C181 0.960 . S
H196 C182 0.961 . S
H197 C182 0.961 . S
H198 C182 0.961 . S
H199 C183 0.931 . S
H200 C188 0.930 . S
H201 C189 0.956 . S
H202 C189 0.961 . S
H203 C189 0.961 . S
H204 C190 0.958 . S
H205 C190 0.961 . S
H206 C190 0.960 . S
C207 C208 1.391 . S
C207 C209 1.394 . S
C207 H223 0.931 . S
C208 C207 1.391 . S
C208 C212 1.376 1_455 S
C209 C207 1.394 . S
C209 C210 1.369 . S
C209 C213 1.531 . S
C210 C209 1.369 . S
C210 C211 1.410 . S
C210 C218 1.503 . S
C211 C210 1.410 . S
C211 C212 1.392 1_455 S
C211 C214 1.511 1_455 S
C212 C208 1.376 1_655 S
C212 C211 1.392 1_655 S
C212 H224 0.929 . S
C213 C209 1.531 . S
C213 H225 0.960 . S
C213 H226 0.962 . S
C213 H227 0.960 . S
C214 C211 1.511 1_655 S
C214 H228 0.961 . S
C214 H229 0.961 . S
C214 H230 0.961 1_655 S
C215 C216 1.370 1_655 S
C215 C217 1.363 . S
C215 H231 0.931 . S
C216 C215 1.370 1_455 S
C216 C220 1.408 . S
C217 C215 1.363 . S
C217 C218 1.370 1_655 S
C217 C221 1.524 . S
C218 C210 1.503 . S
C218 C217 1.370 1_455 S
C218 C219 1.403 . S
C219 C218 1.403 . S
C219 C220 1.404 . S
C219 C222 1.539 . S
C220 C216 1.408 . S
C220 C219 1.404 . S
C220 H232 0.930 . S
C221 C217 1.524 . S
C221 H233 0.956 . S
C221 H234 0.961 . S
C221 H235 0.961 . S
C222 C219 1.539 . S
C222 H236 0.958 . S
C222 H237 0.961 . S
C222 H238 0.960 . S
H223 C207 0.931 . S
H224 C212 0.929 . S
H225 C213 0.960 . S
H226 C213 0.962 . S
H227 C213 0.960 . S
H228 C214 0.961 . S
H229 C214 0.961 . S
H230 C214 0.961 1_455 S
H231 C215 0.931 . S
H232 C220 0.930 . S
H233 C221 0.956 . S
H234 C221 0.961 . S
H235 C221 0.961 . S
H236 C222 0.958 . S
H237 C222 0.961 . S
H238 C222 0.960 . S
C239 C240 1.391 . S
C239 C241 1.394 . S
C239 H255 0.931 . S
C240 C239 1.391 . S
C240 C244 1.376 1_545 S
C241 C239 1.394 . S
C241 C242 1.369 . S
C241 C245 1.531 . S
C242 C241 1.369 . S
C242 C243 1.410 1_545 S
C242 C250 1.503 . S
C243 C242 1.410 1_565 S
C243 C244 1.392 . S
C243 C246 1.511 . S
C244 C240 1.376 1_565 S
C244 C243 1.392 . S
C244 H256 0.929 . S
C245 C241 1.531 . S
C245 H257 0.960 . S
C245 H258 0.962 . S
C245 H259 0.960 . S
C246 C243 1.511 . S
C246 H260 0.961 . S
C246 H261 0.961 . S
C246 H262 0.961 . S
C247 C248 1.370 . S
C247 C249 1.362 . S
C247 H263 0.931 1_545 S
C248 C247 1.370 . S
C248 C252 1.408 . S
C249 C247 1.362 . S
C249 C250 1.373 . S
C249 C253 1.523 1_545 S
C250 C242 1.503 . S
C250 C249 1.373 . S
C250 C251 1.403 . S
C251 C250 1.403 . S
C251 C252 1.404 . S
C251 C254 1.539 . S
C252 C248 1.408 . S
C252 C251 1.404 . S
C252 H264 0.930 . S
C253 C249 1.523 1_565 S
C253 H265 0.956 . S
C253 H266 0.961 . S
C253 H267 0.961 . S
C254 C251 1.539 . S
C254 H268 0.958 . S
C254 H269 0.961 . S
C254 H270 0.960 . S
H255 C239 0.931 . S
H256 C244 0.929 . S
H257 C245 0.960 . S
H258 C245 0.962 . S
H259 C245 0.960 . S
H260 C246 0.961 . S
H261 C246 0.961 . S
H262 C246 0.961 . S
H263 C247 0.931 1_565 S
H264 C252 0.930 . S
H265 C253 0.956 . S
H266 C253 0.961 . S
H267 C253 0.961 . S
H268 C254 0.958 . S
H269 C254 0.961 . S
H270 C254 0.960 . S
C271 C272 1.391 1_455 S
C271 C273 1.394 . S
C271 H287 0.931 . S
C272 C271 1.391 1_655 S
C272 C276 1.376 . S
C273 C271 1.394 . S
C273 C274 1.369 1_455 S
C273 C277 1.531 . S
C274 C273 1.369 1_655 S
C274 C275 1.410 . S
C274 C282 1.503 . S
C275 C274 1.410 . S
C275 C276 1.392 . S
C275 C278 1.511 . S
C276 C272 1.376 . S
C276 C275 1.392 . S
C276 H288 0.929 . S
C277 C273 1.531 . S
C277 H289 0.960 . S
C277 H290 0.962 . S
C277 H291 0.960 . S
C278 C275 1.511 . S
C278 H292 0.961 . S
C278 H293 0.961 . S
C278 H294 0.961 . S
C279 C280 1.370 1_455 S
C279 C281 1.363 . S
C279 H295 0.931 . S
C280 C279 1.370 1_655 S
C280 C284 1.408 . S
C281 C279 1.363 . S
C281 C282 1.370 1_455 S
C281 C285 1.524 . S
C282 C274 1.503 . S
C282 C281 1.370 1_655 S
C282 C283 1.403 . S
C283 C282 1.403 . S
C283 C284 1.404 . S
C283 C286 1.539 . S
C284 C280 1.408 . S
C284 C283 1.404 . S
C284 H296 0.930 . S
C285 C281 1.524 . S
C285 H297 0.956 . S
C285 H298 0.961 . S
C285 H299 0.961 . S
C286 C283 1.539 . S
C286 H300 0.958 . S
C286 H301 0.961 . S
C286 H302 0.960 . S
H287 C271 0.931 . S
H288 C276 0.929 . S
H289 C277 0.960 . S
H290 C277 0.962 . S
H291 C277 0.960 . S
H292 C278 0.961 . S
H293 C278 0.961 . S
H294 C278 0.961 . S
H295 C279 0.931 . S
H296 C284 0.930 . S
H297 C285 0.956 . S
H298 C285 0.961 . S
H299 C285 0.961 . S
H300 C286 0.958 . S
H301 C286 0.961 . S
H302 C286 0.960 . S
C303 C304 1.391 . S
C303 C305 1.394 . S
C303 H319 0.931 . S
C304 C303 1.391 . S
C304 C308 1.376 . S
C305 C303 1.394 . S
C305 C306 1.369 . S
C305 C309 1.531 . S
C306 C305 1.369 . S
C306 C307 1.410 . S
C306 C314 1.503 . S
C307 C306 1.410 . S
C307 C308 1.392 . S
C307 C310 1.511 . S
C308 C304 1.376 . S
C308 C307 1.392 . S
C308 H320 0.929 . S
C309 C305 1.531 . S
C309 H321 0.960 . S
C309 H322 0.962 1_545 S
C309 H323 0.960 . S
C310 C307 1.511 . S
C310 H324 0.961 . S
C310 H325 0.961 . S
C310 H326 0.961 . S
C311 C312 1.370 1_565 S
C311 C313 1.363 . S
C311 H327 0.931 . S
C312 C311 1.370 1_545 S
C312 C316 1.408 . S
C313 C311 1.363 . S
C313 C314 1.370 1_565 S
C313 C317 1.524 . S
C314 C306 1.503 . S
C314 C313 1.370 1_545 S
C314 C315 1.403 . S
C315 C314 1.403 . S
C315 C316 1.404 . S
C315 C318 1.539 . S
C316 C312 1.408 . S
C316 C315 1.404 . S
C316 H328 0.930 . S
C317 C313 1.524 . S
C317 H329 0.956 . S
C317 H330 0.961 . S
C317 H331 0.961 . S
C318 C315 1.539 . S
C318 H332 0.958 . S
C318 H333 0.961 . S
C318 H334 0.960 . S
H319 C303 0.931 . S
H320 C308 0.929 . S
H321 C309 0.960 . S
H322 C309 0.962 1_565 S
H323 C309 0.960 . S
H324 C310 0.961 . S
H325 C310 0.961 . S
H326 C310 0.961 . S
H327 C311 0.931 . S
H328 C316 0.930 . S
H329 C317 0.956 . S
H330 C317 0.961 . S
H331 C317 0.961 . S
H332 C318 0.958 . S
H333 C318 0.961 . S
H334 C318 0.960 . S
C80 C23 1.407 . S
C88 C49 1.448 . S
C112 C22 1.365 1_545 S
C120 N68 1.405 . S
C144 C21 1.664 . S
C152 N45 1.663 . S
C176 C24 1.546 1_565 S
C184 C72 1.623 . S
C208 C27 1.464 1_455 S
C216 C40 1.497 . S
C240 C26 1.426 . S
C248 N58 1.413 . S
C280 N35 1.666 . S
C272 C25 1.704 . S
C304 C28 1.633 . S
C312 C63 1.677 1_545 S
