# Generated by pormake.
# Topology ctn, (3,4)-cn, num edge types: 1
# Building blocks:
#     Node 0, Type 0, BuildingBlock: OLANEW_clean_sbu_2, # of connection points: 3
#     Node 1, Type 0, BuildingBlock: OLANEW_clean_sbu_2, # of connection points: 3
#     Node 2, Type 0, BuildingBlock: OLANEW_clean_sbu_2, # of connection points: 3
#     Node 3, Type 0, BuildingBlock: OLANEW_clean_sbu_2, # of connection points: 3
#     Node 4, Type 0, BuildingBlock: OLANEW_clean_sbu_2, # of connection points: 3
#     Node 5, Type 0, BuildingBlock: OLANEW_clean_sbu_2, # of connection points: 3
#     Node 6, Type 0, BuildingBlock: OLANEW_clean_sbu_2, # of connection points: 3
#     Node 7, Type 0, BuildingBlock: OLANEW_clean_sbu_2, # of connection points: 3
#     Node 8, Type 0, BuildingBlock: OLANEW_clean_sbu_2, # of connection points: 3
#     Node 9, Type 0, BuildingBlock: OLANEW_clean_sbu_2, # of connection points: 3
#     Node 10, Type 0, BuildingBlock: OLANEW_clean_sbu_2, # of connection points: 3
#     Node 11, Type 0, BuildingBlock: OLANEW_clean_sbu_2, # of connection points: 3
#     Node 12, Type 0, BuildingBlock: OLANEW_clean_sbu_2, # of connection points: 3
#     Node 13, Type 0, BuildingBlock: OLANEW_clean_sbu_2, # of connection points: 3
#     Node 14, Type 0, BuildingBlock: OLANEW_clean_sbu_2, # of connection points: 3
#     Node 15, Type 0, BuildingBlock: OLANEW_clean_sbu_2, # of connection points: 3
#     Node 16, Type 1, BuildingBlock: TATPOV_clean_sbu_0, # of connection points: 4
#     Node 17, Type 1, BuildingBlock: TATPOV_clean_sbu_0, # of connection points: 4
#     Node 18, Type 1, BuildingBlock: TATPOV_clean_sbu_0, # of connection points: 4
#     Node 19, Type 1, BuildingBlock: TATPOV_clean_sbu_0, # of connection points: 4
#     Node 20, Type 1, BuildingBlock: TATPOV_clean_sbu_0, # of connection points: 4
#     Node 21, Type 1, BuildingBlock: TATPOV_clean_sbu_0, # of connection points: 4
#     Node 22, Type 1, BuildingBlock: TATPOV_clean_sbu_0, # of connection points: 4
#     Node 23, Type 1, BuildingBlock: TATPOV_clean_sbu_0, # of connection points: 4
#     Node 24, Type 1, BuildingBlock: TATPOV_clean_sbu_0, # of connection points: 4
#     Node 25, Type 1, BuildingBlock: TATPOV_clean_sbu_0, # of connection points: 4
#     Node 26, Type 1, BuildingBlock: TATPOV_clean_sbu_0, # of connection points: 4
#     Node 27, Type 1, BuildingBlock: TATPOV_clean_sbu_0, # of connection points: 4
#     Edge 28, Type (0, 1), BuildingBlock: ZUJKAS_clean_linker_0, # of connection points: 2
#     Edge 29, Type (0, 1), BuildingBlock: ZUJKAS_clean_linker_0, # of connection points: 2
#     Edge 30, Type (0, 1), BuildingBlock: ZUJKAS_clean_linker_0, # of connection points: 2
#     Edge 31, Type (0, 1), BuildingBlock: ZUJKAS_clean_linker_0, # of connection points: 2
#     Edge 32, Type (0, 1), BuildingBlock: ZUJKAS_clean_linker_0, # of connection points: 2
#     Edge 33, Type (0, 1), BuildingBlock: ZUJKAS_clean_linker_0, # of connection points: 2
#     Edge 34, Type (0, 1), BuildingBlock: ZUJKAS_clean_linker_0, # of connection points: 2
#     Edge 35, Type (0, 1), BuildingBlock: ZUJKAS_clean_linker_0, # of connection points: 2
#     Edge 36, Type (0, 1), BuildingBlock: ZUJKAS_clean_linker_0, # of connection points: 2
#     Edge 37, Type (0, 1), BuildingBlock: ZUJKAS_clean_linker_0, # of connection points: 2
#     Edge 38, Type (0, 1), BuildingBlock: ZUJKAS_clean_linker_0, # of connection points: 2
#     Edge 39, Type (0, 1), BuildingBlock: ZUJKAS_clean_linker_0, # of connection points: 2
#     Edge 40, Type (0, 1), BuildingBlock: ZUJKAS_clean_linker_0, # of connection points: 2
#     Edge 41, Type (0, 1), BuildingBlock: ZUJKAS_clean_linker_0, # of connection points: 2
#     Edge 42, Type (0, 1), BuildingBlock: ZUJKAS_clean_linker_0, # of connection points: 2
#     Edge 43, Type (0, 1), BuildingBlock: ZUJKAS_clean_linker_0, # of connection points: 2
#     Edge 44, Type (0, 1), BuildingBlock: ZUJKAS_clean_linker_0, # of connection points: 2
#     Edge 45, Type (0, 1), BuildingBlock: ZUJKAS_clean_linker_0, # of connection points: 2
#     Edge 46, Type (0, 1), BuildingBlock: ZUJKAS_clean_linker_0, # of connection points: 2
#     Edge 47, Type (0, 1), BuildingBlock: ZUJKAS_clean_linker_0, # of connection points: 2
#     Edge 48, Type (0, 1), BuildingBlock: ZUJKAS_clean_linker_0, # of connection points: 2
#     Edge 49, Type (0, 1), BuildingBlock: ZUJKAS_clean_linker_0, # of connection points: 2
#     Edge 50, Type (0, 1), BuildingBlock: ZUJKAS_clean_linker_0, # of connection points: 2
#     Edge 51, Type (0, 1), BuildingBlock: ZUJKAS_clean_linker_0, # of connection points: 2
#     Edge 52, Type (0, 1), BuildingBlock: ZUJKAS_clean_linker_0, # of connection points: 2
#     Edge 53, Type (0, 1), BuildingBlock: ZUJKAS_clean_linker_0, # of connection points: 2
#     Edge 54, Type (0, 1), BuildingBlock: ZUJKAS_clean_linker_0, # of connection points: 2
#     Edge 55, Type (0, 1), BuildingBlock: ZUJKAS_clean_linker_0, # of connection points: 2
#     Edge 56, Type (0, 1), BuildingBlock: ZUJKAS_clean_linker_0, # of connection points: 2
#     Edge 57, Type (0, 1), BuildingBlock: ZUJKAS_clean_linker_0, # of connection points: 2
#     Edge 58, Type (0, 1), BuildingBlock: ZUJKAS_clean_linker_0, # of connection points: 2
#     Edge 59, Type (0, 1), BuildingBlock: ZUJKAS_clean_linker_0, # of connection points: 2
#     Edge 60, Type (0, 1), BuildingBlock: ZUJKAS_clean_linker_0, # of connection points: 2
#     Edge 61, Type (0, 1), BuildingBlock: ZUJKAS_clean_linker_0, # of connection points: 2
#     Edge 62, Type (0, 1), BuildingBlock: ZUJKAS_clean_linker_0, # of connection points: 2
#     Edge 63, Type (0, 1), BuildingBlock: ZUJKAS_clean_linker_0, # of connection points: 2
#     Edge 64, Type (0, 1), BuildingBlock: ZUJKAS_clean_linker_0, # of connection points: 2
#     Edge 65, Type (0, 1), BuildingBlock: ZUJKAS_clean_linker_0, # of connection points: 2
#     Edge 66, Type (0, 1), BuildingBlock: ZUJKAS_clean_linker_0, # of connection points: 2
#     Edge 67, Type (0, 1), BuildingBlock: ZUJKAS_clean_linker_0, # of connection points: 2
#     Edge 68, Type (0, 1), BuildingBlock: ZUJKAS_clean_linker_0, # of connection points: 2
#     Edge 69, Type (0, 1), BuildingBlock: ZUJKAS_clean_linker_0, # of connection points: 2
#     Edge 70, Type (0, 1), BuildingBlock: ZUJKAS_clean_linker_0, # of connection points: 2
#     Edge 71, Type (0, 1), BuildingBlock: ZUJKAS_clean_linker_0, # of connection points: 2
#     Edge 72, Type (0, 1), BuildingBlock: ZUJKAS_clean_linker_0, # of connection points: 2
#     Edge 73, Type (0, 1), BuildingBlock: ZUJKAS_clean_linker_0, # of connection points: 2
#     Edge 74, Type (0, 1), BuildingBlock: ZUJKAS_clean_linker_0, # of connection points: 2
#     Edge 75, Type (0, 1), BuildingBlock: ZUJKAS_clean_linker_0, # of connection points: 2
# Relax obj value: 0.050
# Max RMSD: 0.169
# Mean RMSD: 0.096
data_MOF--net-ctn--node1-OLANEW_clean_sbu_2--node2-TATPOV_clean_sbu_0--edge1-ZUJKAS_clean_linker_0
_symmetry_space_group_name_H-M    P1
_symmetry_Int_Tables_number       1
_symmetry_cell_setting            triclinic
loop_
_symmetry_equiv_pos_as_xyz
'x, y, z'
_cell_length_a     74.977138
_cell_length_b     76.988998
_cell_length_c     73.140276
_cell_angle_alpha  91.758816
_cell_angle_beta   95.614362
_cell_angle_gamma 95.970128
loop_
_atom_site_label
_atom_site_type_symbol
_atom_site_fract_x
_atom_site_fract_y
_atom_site_fract_z
_atom_type_partial_charge
O0 O 0.04827 0.0506 0.02452 0.0
Cd1 Cd 0.05299 0.02824 0.04737 0.0
O2 O 0.02283 0.05708 0.03455 0.0
Cd3 Cd 0.02073 0.0397 0.05762 0.0
O4 O 0.0073 0.03128 0.08176 0.0
C5 C 0.0076 0.04236 0.09509 0.0
O6 O 0.01671 0.05779 0.0942 0.0
C7 C 0.03479 0.05946 0.02339 0.0
C8 C 0.08062 0.00712 0.04195 0.0
O9 O 0.06433 0.0025 0.03519 0.0
O10 O 0.08394 0.02186 0.05091 0.0
O11 O 0.29506 0.73075 0.26563 0.0
Cd12 Cd 0.26392 0.72814 0.25114 0.0
O13 O 0.29218 0.70406 0.27577 0.0
Cd14 Cd 0.26392 0.69692 0.26574 0.0
O15 O 0.23946 0.67888 0.26599 0.0
C16 C 0.23605 0.67352 0.28168 0.0
O17 O 0.24666 0.67981 0.29626 0.0
C18 C 0.30178 0.71846 0.27425 0.0
C19 C 0.25861 0.75155 0.22306 0.0
O20 O 0.25638 0.75573 0.23972 0.0
O21 O 0.26345 0.73638 0.21973 0.0
O22 O 0.93829 0.43675 0.11016 0.0
Cd23 Cd 0.913 0.42645 0.08765 0.0
O24 O 0.95755 0.44073 0.08946 0.0
Cd25 Cd 0.9407 0.42422 0.06837 0.0
O26 O 0.94115 0.40071 0.05099 0.0
C27 C 0.95623 0.39443 0.05254 0.0
O28 O 0.96939 0.40234 0.06399 0.0
C29 C 0.95381 0.44248 0.10594 0.0
C30 C 0.89419 0.45502 0.07908 0.0
O31 O 0.89058 0.44561 0.09267 0.0
O32 O 0.90638 0.45064 0.06925 0.0
O33 O 0.73591 0.79889 0.22844 0.0
Cd34 Cd 0.71571 0.77173 0.22798 0.0
O35 O 0.74434 0.79844 0.25809 0.0
Cd36 Cd 0.72474 0.77656 0.26348 0.0
O37 O 0.70314 0.76325 0.27766 0.0
C38 C 0.68734 0.76777 0.27439 0.0
O39 O 0.68453 0.77939 0.26192 0.0
C40 C 0.74561 0.8055 0.2427 0.0
C41 C 0.72273 0.74805 0.20052 0.0
O42 O 0.71144 0.75925 0.19719 0.0
O43 O 0.73064 0.748 0.21686 0.0
O44 O 0.11936 0.93136 0.48068 0.0
Cd45 Cd 0.10706 0.90083 0.47533 0.0
O46 O 0.09611 0.93923 0.46374 0.0
Cd47 Cd 0.07965 0.95649 0.44787 0.0
O48 O 0.05888 0.96783 0.43047 0.0
C49 C 0.06017 0.96939 0.41339 0.0
O50 O 0.07453 0.96468 0.40643 0.0
C51 C 0.11103 0.94342 0.47348 0.0
C52 C 0.08806 0.88804 0.50385 0.0
O53 O 0.10506 0.88712 0.50412 0.0
O54 O 0.0801 0.89515 0.49016 0.0
O55 O 0.2315 0.73138 0.82948 0.0
Cd56 Cd 0.22716 0.71714 0.79859 0.0
O57 O 0.20249 0.7277 0.83276 0.0
Cd58 Cd 0.19333 0.71632 0.80533 0.0
O59 O 0.17211 0.71508 0.7825 0.0
C60 C 0.15662 0.7173 0.78724 0.0
O61 O 0.15475 0.71927 0.80484 0.0
C62 C 0.21853 0.73323 0.83913 0.0
C63 C 0.24779 0.6894 0.79336 0.0
O64 O 0.25401 0.7052 0.79082 0.0
O65 O 0.23199 0.68677 0.79872 0.0
O66 O 0.95602 0.53704 0.45886 0.0
Cd67 Cd 0.93745 0.5507 0.47979 0.0
O68 O 0.97657 0.53145 0.48086 0.0
Cd69 Cd 0.96333 0.54387 0.50217 0.0
O70 O 0.95706 0.56376 0.52164 0.0
C71 C 0.97039 0.57401 0.52896 0.0
O72 O 0.98664 0.57156 0.52483 0.0
C73 C 0.9707 0.53081 0.46391 0.0
C74 C 0.90708 0.52866 0.48662 0.0
O75 O 0.90652 0.53894 0.47317 0.0
O76 O 0.92202 0.52879 0.4968 0.0
O77 O 0.79852 0.78632 0.85506 0.0
Cd78 Cd 0.79723 0.80798 0.83134 0.0
O79 O 0.79678 0.80526 0.87778 0.0
Cd80 Cd 0.79219 0.82649 0.85934 0.0
O81 O 0.77751 0.84561 0.84443 0.0
C82 C 0.77944 0.86159 0.84988 0.0
O83 O 0.79123 0.86667 0.86401 0.0
C84 C 0.79836 0.78975 0.87217 0.0
C85 C 0.822 0.8033 0.80602 0.0
O86 O 0.8263 0.81344 0.82035 0.0
O87 O 0.80597 0.79544 0.80365 0.0
O88 O 0.31838 0.30578 0.37331 0.0
Cd89 Cd 0.32345 0.33171 0.35526 0.0
O90 O 0.28939 0.30205 0.364 0.0
Cd91 Cd 0.2893 0.32513 0.34745 0.0
O92 O 0.27725 0.34671 0.33423 0.0
C93 C 0.28036 0.3622 0.34114 0.0
O94 O 0.29205 0.36536 0.35576 0.0
C95 C 0.30299 0.29714 0.37342 0.0
C96 C 0.33999 0.32402 0.32392 0.0
O97 O 0.34935 0.32892 0.33916 0.0
O98 O 0.32277 0.32285 0.32347 0.0
O99 O 0.43091 0.94086 0.61366 0.0
Cd100 Cd 0.40585 0.92972 0.59119 0.0
O101 O 0.45094 0.94157 0.59355 0.0
Cd102 Cd 0.434 0.92506 0.57251 0.0
O103 O 0.43542 0.90223 0.55441 0.0
C104 C 0.44884 0.90327 0.54499 0.0
O105 O 0.45964 0.91792 0.546 0.0
C106 C 0.44686 0.94505 0.60963 0.0
C107 C 0.38685 0.95741 0.57972 0.0
O108 O 0.38289 0.94889 0.59382 0.0
O109 O 0.3996 0.95265 0.57091 0.0
O110 O 0.23036 0.29412 0.71739 0.0
Cd111 Cd 0.21173 0.26613 0.71833 0.0
O112 O 0.23657 0.29634 0.74747 0.0
Cd113 Cd 0.21886 0.27333 0.75372 0.0
O114 O 0.19875 0.25913 0.76907 0.0
C115 C 0.18239 0.26198 0.76567 0.0
O116 O 0.17819 0.27241 0.75239 0.0
C117 C 0.23846 0.30235 0.73168 0.0
C118 C 0.21769 0.24242 0.69044 0.0
O119 O 0.20574 0.25308 0.68783 0.0
O120 O 0.22684 0.24298 0.70624 0.0
O121 O 0.79414 0.22934 0.76084 0.0
Cd122 Cd 0.76297 0.22714 0.74638 0.0
O123 O 0.79037 0.20309 0.77195 0.0
Cd124 Cd 0.76209 0.19621 0.76181 0.0
O125 O 0.73783 0.1779 0.76207 0.0
C126 C 0.73428 0.17276 0.77779 0.0
O127 O 0.74459 0.17945 0.79241 0.0
C128 C 0.80041 0.21713 0.76998 0.0
C129 C 0.7577 0.24999 0.71776 0.0
O130 O 0.7557 0.2546 0.73436 0.0
O131 O 0.76235 0.23469 0.71474 0.0
O132 O 0.54371 0.55205 0.52859 0.0
Cd133 Cd 0.54705 0.52808 0.54981 0.0
O134 O 0.52269 0.56309 0.54307 0.0
Cd135 Cd 0.51865 0.54455 0.56485 0.0
O136 O 0.50292 0.53601 0.58745 0.0
C137 C 0.48798 0.54242 0.58792 0.0
O138 O 0.48321 0.55307 0.57506 0.0
C139 C 0.53295 0.56365 0.53016 0.0
C140 C 0.57416 0.50663 0.54332 0.0
O141 O 0.5579 0.50277 0.53608 0.0
O142 O 0.57771 0.52078 0.5533 0.0
O143 O 0.57463 0.47027 0.98505 0.0
Cd144 Cd 0.54784 0.45054 0.97373 0.0
O145 O 0.55853 0.49157 0.99143 0.0
Cd146 Cd 0.53347 0.47793 0.97815 0.0
O147 O 0.51194 0.4729 0.95575 0.0
C148 C 0.51642 0.47458 0.93952 0.0
O149 O 0.53354 0.47838 0.93724 0.0
C150 C 0.57375 0.48566 0.99151 0.0
C151 C 0.53699 0.4273 4e-05 0.0
O152 O 0.54708 0.42283 0.98793 0.0
O153 O 0.5321 0.44276 -0.00025 0.0
O154 O 0.74487 0.23373 0.32489 0.0
Cd155 Cd 0.748 0.21919 0.29515 0.0
O156 O 0.71828 0.23832 0.31221 0.0
Cd157 Cd 0.69238 0.24913 0.30795 0.0
O158 O 0.66689 0.25537 0.29388 0.0
C159 C 0.66581 0.255 0.27641 0.0
O160 O 0.6799 0.25134 0.26824 0.0
C161 C 0.73013 0.24032 0.32601 0.0
C162 C 0.76758 0.19019 0.29524 0.0
O163 O 0.77542 0.2057 0.29429 0.0
O164 O 0.7506 0.18845 0.29675 0.0
O165 O 0.46401 0.04346 0.96345 0.0
Cd166 Cd 0.44531 0.05684 0.98445 0.0
O167 O 0.48715 0.04314 0.98436 0.0
Cd168 Cd 0.47403 0.05578 0.00565 0.0
O169 O 0.46643 0.07449 0.02568 0.0
C170 C 0.47788 0.07993 0.03913 0.0
O171 O 0.49352 0.07355 0.04085 0.0
C172 C 0.47998 0.03983 0.96797 0.0
C173 C 0.41528 0.03443 0.99153 0.0
O174 O 0.41452 0.04455 0.97795 0.0
O175 O 0.43025 0.0349 0.00172 0.0
Zn176 Zn 0.27924 0.85784 0.03359 0.0
Zn177 Zn 0.24895 0.8729 0.03076 0.0
O178 O 0.24967 0.86215 0.05668 0.0
O179 O 0.27581 0.85136 0.05938 0.0
O180 O 0.22642 0.88568 0.02905 0.0
O181 O 0.29391 0.88014 0.02879 0.0
O182 O 0.269 0.89302 0.02739 0.0
C183 C 0.26144 0.85432 0.06608 0.0
C184 C 0.25409 0.84258 0.00392 0.0
O185 O 0.24459 0.85436 0.009 0.0
O186 O 0.26933 0.84118 0.01253 0.0
C187 C 0.22394 0.89603 0.04225 0.0
O188 O 0.2358 0.89778 0.05683 0.0
C189 C 0.28601 0.89378 0.02667 0.0
Zn190 Zn 0.08799 0.4492 0.29844 0.0
Zn191 Zn 0.10339 0.48225 0.29587 0.0
O192 O 0.08819 0.48455 0.31759 0.0
O193 O 0.07502 0.4578 0.31938 0.0
O194 O 0.11505 0.50661 0.29299 0.0
O195 O 0.1128 0.44125 0.30325 0.0
O196 O 0.12511 0.46815 0.30059 0.0
C197 C 0.07747 0.47366 0.32509 0.0
C198 C 0.0785 0.46368 0.2636 0.0
O199 O 0.08836 0.47701 0.27099 0.0
O200 O 0.07637 0.44982 0.27239 0.0
C201 C 0.1243 0.51546 0.30624 0.0
O202 O 0.12609 0.50864 0.32249 0.0
C203 C 0.12672 0.4521 0.3033 0.0
Zn204 Zn 0.77345 0.60374 0.98767 0.0
Zn205 Zn 0.7702 0.62207 0.01898 0.0
O206 O 0.79012 0.60668 0.02732 0.0
O207 O 0.79371 0.59261 0.00145 0.0
O208 O 0.76727 0.63701 0.04143 0.0
O209 O 0.77881 0.62589 0.9744 0.0
O210 O 0.77653 0.64066 0.00014 0.0
C211 C 0.79804 0.59571 0.01851 0.0
C212 C 0.73863 0.59663 0.00101 0.0
O213 O 0.74549 0.60773 0.0137 0.0
O214 O 0.74772 0.59278 0.98803 0.0
C215 C 0.76058 0.63076 0.05545 0.0
O216 O 0.75589 0.61385 0.0557 0.0
C217 C 0.77944 0.64036 0.98325 0.0
Zn218 Zn 0.85895 -0.00119 0.30145 0.0
Zn219 Zn 0.87361 0.00392 0.2697 0.0
O220 O 0.86104 0.02643 0.27328 0.0
O221 O 0.8494 0.02224 0.2995 0.0
O222 O 0.88568 0.00728 0.24628 0.0
O223 O 0.88356 -0.00285 0.31478 0.0
O224 O 0.89533 0.00153 0.2887 0.0
C225 C 0.8521 0.03171 0.28597 0.0
C226 C 0.84568 0.9722 0.27356 0.0
O227 O 0.85652 0.98107 0.26412 0.0
O228 O 0.84408 0.97716 0.28994 0.0
C229 C 0.89824 0.01963 0.24564 0.0
O230 O 0.90257 0.03041 0.26004 0.0
C231 C 0.89724 -0.00111 0.30586 0.0
Zn232 Zn 0.26703 0.10288 0.474 0.0
Zn233 Zn 0.26039 0.11951 0.50492 0.0
O234 O 0.27984 0.10388 0.51439 0.0
O235 O 0.2859 0.09091 0.4888 0.0
O236 O 0.25587 0.13361 0.5274 0.0
O237 O 0.27411 0.12543 0.46228 0.0
O238 O 0.26818 0.13902 0.48753 0.0
C239 C 0.28864 0.0933 0.5061 0.0
C240 C 0.23057 0.09474 0.48327 0.0
O241 O 0.23602 0.10513 0.49706 0.0
O242 O 0.24113 0.09191 0.47126 0.0
C243 C 0.25017 0.12683 0.54165 0.0
O244 O 0.24709 0.10974 0.54209 0.0
C245 C 0.27327 0.1395 0.4714 0.0
Zn246 Zn 0.3349 0.49884 0.79149 0.0
Zn247 Zn 0.35514 0.50469 0.76381 0.0
O248 O 0.34316 0.52785 0.76628 0.0
O249 O 0.32741 0.52304 0.78985 0.0
O250 O 0.37143 0.50847 0.74341 0.0
O251 O 0.35669 0.49459 0.80841 0.0
O252 O 0.3734 0.50021 0.78576 0.0
C253 C 0.33272 0.53306 0.77762 0.0
C254 C 0.32499 0.47392 0.7614 0.0
O255 O 0.33806 0.48255 0.75461 0.0
O256 O 0.32055 0.47861 0.77692 0.0
C257 C 0.36741 0.5163 0.72876 0.0
O258 O 0.35176 0.5226 0.72635 0.0
C259 C 0.372 0.49617 0.80238 0.0
Zn260 Zn 0.76711 0.35259 0.52258 0.0
Zn261 Zn 0.73781 0.36882 0.52254 0.0
O262 O 0.73949 0.35702 0.54801 0.0
O263 O 0.76503 0.34526 0.54827 0.0
O264 O 0.71582 0.38229 0.52258 0.0
O265 O 0.78225 0.3747 0.51796 0.0
O266 O 0.7582 0.38862 0.51928 0.0
C267 C 0.75141 0.34846 0.5562 0.0
C268 C 0.74042 0.33937 0.49357 0.0
O269 O 0.73189 0.35145 0.49974 0.0
O270 O 0.7557 0.33684 0.50139 0.0
C271 C 0.71359 0.39182 0.53653 0.0
O272 O 0.72541 0.3924 0.55109 0.0
C273 C 0.77497 0.3888 0.51739 0.0
Zn274 Zn 0.58611 0.94857 0.79953 0.0
Zn275 Zn 0.60296 0.98083 0.79543 0.0
O276 O 0.5892 0.98446 0.81797 0.0
O277 O 0.57508 0.95837 0.8213 0.0
O278 O 0.61548 0.00466 0.79158 0.0
O279 O 0.61045 0.93936 0.80307 0.0
O280 O 0.62392 0.96565 0.79948 0.0
C281 C 0.5786 0.97433 0.82648 0.0
C282 C 0.57557 0.96282 0.76479 0.0
O283 O 0.58654 0.97577 0.77134 0.0
O284 O 0.57313 0.94929 0.77404 0.0
C285 C 0.62449 0.01394 0.80467 0.0
O286 O 0.62562 0.00787 0.8213 0.0
C287 C 0.62478 0.9495 0.80236 0.0
Zn288 Zn 0.00861 0.26965 0.88172 0.0
Zn289 Zn 0.00683 0.23927 0.89783 0.0
O290 O 0.031 0.24101 0.88569 0.0
O291 O 0.03251 0.26659 0.87301 0.0
O292 O 0.00758 0.21681 0.91162 0.0
O293 O 0.00723 0.28282 0.90545 0.0
O294 O 0.0042 0.25755 0.91869 0.0
C295 C 0.03928 0.25254 0.87649 0.0
C296 C 0.97751 0.24586 0.86756 0.0
O297 O 0.98391 0.23558 0.87928 0.0
O298 O 0.98569 0.2609 0.86597 0.0
C299 C 0.01217 0.20287 0.9045 0.0
O300 O 0.0158 0.20267 0.88728 0.0
C301 C 0.00478 0.27418 0.91959 0.0
Zn302 Zn 0.50946 0.77406 0.3867 0.0
Zn303 Zn 0.50785 0.74332 0.40246 0.0
O304 O 0.53207 0.74547 0.39036 0.0
O305 O 0.53333 0.77114 0.37784 0.0
O306 O 0.50836 0.72062 0.41597 0.0
O307 O 0.50827 0.78684 0.41071 0.0
O308 O 0.50516 0.76134 0.42354 0.0
C309 C 0.54024 0.75714 0.38123 0.0
C310 C 0.47844 0.7502 0.37237 0.0
O311 O 0.48502 0.7398 0.38385 0.0
O312 O 0.48644 0.76536 0.37102 0.0
C313 C 0.51603 0.70771 0.41046 0.0
O314 O 0.52338 0.70861 0.39488 0.0
C315 C 0.50582 0.77798 0.42471 0.0
Zn316 Zn 0.94384 0.77123 0.62681 0.0
Zn317 Zn 0.97206 0.76456 0.65108 0.0
O318 O 0.98312 0.78389 0.63571 0.0
O319 O 0.96062 0.7898 0.61606 0.0
O320 O -0.00688 0.75926 0.66848 0.0
O321 O 0.93054 0.77723 0.64868 0.0
O322 O 0.95352 0.77167 0.66795 0.0
C323 C 0.97707 0.79255 0.62234 0.0
C324 C 0.9531 0.73588 0.6236 0.0
O325 O 0.96497 0.74131 0.63673 0.0
O326 O 0.94221 0.74608 0.61681 0.0
C327 C 0.00687 0.7542 0.66189 0.0
O328 O 0.00696 0.75274 0.64395 0.0
C329 C 0.93769 0.77631 0.66501 0.0
Zn330 Zn 0.43387 0.2735 0.12782 0.0
Zn331 Zn 0.46516 0.27493 0.15042 0.0
O332 O 0.47091 0.29419 0.13249 0.0
O333 O 0.44604 0.29286 0.11352 0.0
O334 O 0.48804 0.27521 0.16737 0.0
O335 O 0.42092 0.2793 0.15007 0.0
O336 O 0.44646 0.28012 0.16787 0.0
C337 C 0.46202 0.29959 0.11843 0.0
C338 C 0.45025 0.24132 0.12754 0.0
O339 O 0.4621 0.25009 0.13882 0.0
O340 O 0.43656 0.24824 0.1209 0.0
C341 C 0.50261 0.27228 0.1609 0.0
O342 O 0.50253 0.26947 0.14308 0.0
C343 C 0.4296 0.28146 0.16588 0.0
H344 H 0.1941 0.73741 0.86387 0.0
H345 H 0.19835 0.75565 0.89219 0.0
H346 H 0.2541 0.76936 0.8838 0.0
H347 H 0.24998 0.7512 0.85529 0.0
H348 H 0.22234 0.75444 0.92414 0.0
H349 H 0.23394 0.81705 0.88921 0.0
H350 H 0.22455 0.7969 0.87702 0.0
H351 H 0.2484 0.80091 0.88354 0.0
C352 C 0.20733 0.74421 0.86806 0.0
C353 C 0.22168 0.74292 0.85721 0.0
C354 C 0.2097 0.75464 0.88427 0.0
C355 C 0.22643 0.7641 0.88991 0.0
C356 C 0.24097 0.76242 0.87948 0.0
H357 H 0.26897 0.81358 -0.0066 0.0
H358 H 0.26028 0.79456 0.96612 0.0
C359 C 0.23863 0.75192 0.86327 0.0
C360 C 0.22858 0.77578 0.90666 0.0
H361 H 0.23911 0.81836 0.92185 0.0
C362 C 0.22592 0.76843 0.92364 0.0
C363 C 0.23289 0.79406 0.90592 0.0
C364 C 0.23496 0.80278 0.88794 0.0
C365 C 0.22809 0.77881 0.93999 0.0
C366 C 0.23321 0.79697 0.93935 0.0
C367 C 0.23526 0.80441 0.9223 0.0
C368 C 0.23769 0.80825 0.95631 0.0
C369 C 0.22492 0.77025 0.95784 0.0
C370 C 0.22799 0.82246 0.95976 0.0
C371 C 0.23294 0.83348 0.97547 0.0
C372 C 0.24785 0.83057 0.98779 0.0
C373 C 0.25742 0.81624 0.98424 0.0
C374 C 0.25241 0.80525 0.96869 0.0
H375 H 0.21629 0.75759 0.95549 0.0
H376 H 0.23806 0.76762 0.96499 0.0
H377 H 0.21847 0.77889 0.96704 0.0
H378 H 0.21664 0.82506 0.95027 0.0
H379 H 0.22535 0.84443 0.97775 0.0
H380 H 0.96044 0.52316 0.42735 0.0
H381 H 0.97877 0.51262 0.40432 0.0
H382 H 0.02374 0.51264 0.44591 0.0
H383 H 0.00538 0.52263 0.46908 0.0
H384 H 0.0091 0.52806 0.39284 0.0
H385 H 0.02278 0.46475 0.42222 0.0
H386 H 0.00604 0.47756 0.43021 0.0
H387 H 0.02951 0.48291 0.43822 0.0
C388 C 0.97417 0.52073 0.43163 0.0
C389 C 0.98141 0.52363 0.45007 0.0
C390 C 0.98464 0.51474 0.41845 0.0
C391 C 0.00255 0.51159 0.42343 0.0
C392 C 0.00982 0.51453 0.44182 0.0
H393 H 0.08262 0.50498 0.34484 0.0
H394 H 0.06502 0.51452 0.36908 0.0
C395 C -0.00069 0.52033 0.45504 0.0
C396 C 0.01383 0.50593 0.40925 0.0
H397 H 0.04023 0.47441 0.39823 0.0
C398 C 0.01584 0.51628 0.39396 0.0
C399 C 0.02247 0.49046 0.41065 0.0
C400 C 0.01996 0.47819 0.42611 0.0
C401 C 0.02634 0.51167 0.38007 0.0
C402 C 0.0355 0.49653 0.3818 0.0
C403 C 0.03339 0.48612 0.39704 0.0
C404 C 0.04664 0.49076 0.36754 0.0
C405 C 0.0271 0.5228 0.36348 0.0
C406 C 0.04259 0.47402 0.35912 0.0
C407 C 0.05279 0.46843 0.34555 0.0
C408 C 0.06724 0.47951 0.34003 0.0
C409 C 0.07147 0.4962 0.34866 0.0
C410 C 0.06135 0.50172 0.36242 0.0
H411 H 0.0156 0.53082 0.36188 0.0
H412 H 0.03972 0.53186 0.36513 0.0
H413 H 0.02701 0.51463 0.35069 0.0
H414 H 0.03135 0.46532 0.36289 0.0
H415 H 0.04914 0.45549 0.33919 0.0
H416 H 0.80115 0.75511 0.86485 0.0
H417 H 0.80002 0.73143 0.88636 0.0
H418 H 0.7961 0.76844 0.93086 0.0
H419 H 0.79703 0.79223 0.90944 0.0
H420 H 0.82261 0.72671 0.91911 0.0
H421 H 0.75164 0.73235 0.93261 0.0
H422 H 0.76152 0.74249 0.91352 0.0
H423 H 0.7668 0.75209 0.93635 0.0
C424 C 0.80013 0.75826 0.87922 0.0
C425 C 0.79904 0.77557 0.88539 0.0
C426 C 0.79951 0.7447 0.89149 0.0
C427 C 0.7977 0.74817 0.91012 0.0
C428 C 0.79717 0.76547 0.91646 0.0
H429 H 0.78026 0.67408 -0.00299 0.0
H430 H 0.78616 0.70112 0.9807 0.0
C431 C 0.7978 0.77905 0.90421 0.0
C432 C 0.79604 0.73357 0.92277 0.0
H433 H 0.76664 0.71117 0.94872 0.0
C434 C 0.81041 0.72334 0.92565 0.0
C435 C 0.78013 0.72928 0.93134 0.0
C436 C 0.76405 0.73951 0.92824 0.0
C437 C 0.80924 0.70882 0.93678 0.0
C438 C 0.79316 0.70425 0.94495 0.0
C439 C 0.77896 0.71474 0.94245 0.0
C440 C 0.79033 0.68802 0.95512 0.0
C441 C 0.82525 0.69849 0.9397 0.0
C442 C 0.79053 0.67173 0.94607 0.0
C443 C 0.78715 0.65632 0.95528 0.0
C444 C 0.78339 0.65685 0.97375 0.0
C445 C 0.78317 0.67321 0.98281 0.0
C446 C 0.78653 0.68866 0.97353 0.0
H447 H 0.83797 0.70645 0.93728 0.0
H448 H 0.82667 0.69364 0.95385 0.0
H449 H 0.82335 0.68704 0.92985 0.0
H450 H 0.79302 0.67093 0.93174 0.0
H451 H 0.78736 0.64398 0.94783 0.0
H452 H 0.05837 0.97386 0.37627 0.0
H453 H 0.03276 0.98195 0.35615 0.0
H454 H 0.00228 0.98581 0.40288 0.0
H455 H 0.02783 0.97804 0.4231 0.0
H456 H -0.00093 0.96401 0.35032 0.0
H457 H -0.00574 0.03099 0.37777 0.0
H458 H 0.01391 0.01964 0.38304 0.0
H459 H -0.00559 0.01527 0.39537 0.0
C460 C 0.04629 0.97664 0.38231 0.0
C461 C 0.04516 0.97533 0.40131 0.0
C462 C 0.03168 0.98126 0.37078 0.0
C463 C 0.01572 0.98474 0.37805 0.0
C464 C 0.01461 0.98359 0.39702 0.0
H465 H 0.90602 -0.00457 0.34259 0.0
H466 H 0.93573 -0.00714 0.35852 0.0
C467 C 0.02921 0.97903 0.40856 0.0
C468 C -0.00024 0.98841 0.36572 0.0
H469 H 0.96817 0.01713 0.3592 0.0
C470 C -0.00754 0.97575 0.35205 0.0
C471 C 0.9912 0.00375 0.36799 0.0
C472 C -0.00105 0.01827 0.38172 0.0
C473 C 0.97634 0.97764 0.34117 0.0
C474 C 0.96744 -0.00733 0.34393 0.0
C475 C 0.97502 0.00559 0.35719 0.0
C476 C 0.94966 -0.0053 0.33401 0.0
C477 C 0.96852 0.96322 0.32735 0.0
C478 C 0.94771 -0.00322 0.31495 0.0
C479 C 0.93071 -0.00172 0.30574 0.0
C480 C 0.91538 -0.00229 0.31549 0.0
C481 C 0.9175 -0.00415 0.33463 0.0
C482 C 0.93447 -0.00557 0.34379 0.0
H483 H 0.97545 0.95121 0.32908 0.0
H484 H 0.95393 0.95986 0.32858 0.0
H485 H 0.96994 0.96775 0.31326 0.0
H486 H 0.95934 -0.00276 0.30721 0.0
H487 H 0.92956 -0.00023 0.29101 0.0
H488 H 0.20132 0.2389 0.65521 0.0
H489 H 0.20679 0.21833 0.63076 0.0
H490 H 0.24646 0.19683 0.66766 0.0
H491 H 0.24129 0.21755 0.69214 0.0
H492 H 0.25829 0.20356 0.63392 0.0
H493 H 0.19053 0.16608 0.62541 0.0
H494 H 0.19001 0.18921 0.62348 0.0
H495 H 0.19815 0.18073 0.64501 0.0
C496 C 0.21116 0.22975 0.65817 0.0
C497 C 0.22083 0.22983 0.67565 0.0
C498 C 0.21418 0.21792 0.6442 0.0
C499 C 0.22681 0.20585 0.64748 0.0
C500 C 0.23657 0.20597 0.66487 0.0
H501 H 0.23867 0.1168 0.57455 0.0
H502 H 0.23355 0.13566 0.60068 0.0
C503 C 0.23359 0.21782 0.67884 0.0
C504 C 0.23029 0.19348 0.63259 0.0
H505 H 0.20997 0.16101 0.60236 0.0
C506 C 0.24775 0.19419 0.62708 0.0
C507 C 0.21658 0.1811 0.62385 0.0
C508 C 0.1978 0.17907 0.62984 0.0
C509 C 0.2518 0.18313 0.61279 0.0
C510 C 0.23792 0.17125 0.60354 0.0
C511 C 0.22055 0.17025 0.60934 0.0
C512 C 0.24113 0.15985 0.58773 0.0
C513 C 0.27095 0.18414 0.60785 0.0
C514 C 0.24686 0.16719 0.57169 0.0
C515 C 0.24984 0.15647 0.55677 0.0
C516 C 0.247 0.13816 0.55752 0.0
C517 C 0.24104 0.13084 0.57353 0.0
C518 C 0.23809 0.1416 0.58847 0.0
H519 H 0.28069 0.19014 0.6193 0.0
H520 H 0.27468 0.17096 0.60426 0.0
H521 H 0.27225 0.19235 0.59576 0.0
H522 H 0.24891 0.18125 0.57066 0.0
H523 H 0.2543 0.16256 0.54462 0.0
H524 H 0.45519 0.5537 0.59169 0.0
H525 H 0.43583 0.54774 0.61619 0.0
H526 H 0.47428 0.51596 0.64217 0.0
H527 H 0.49394 0.522 0.61769 0.0
H528 H 0.42031 0.51521 0.627 0.0
H529 H 0.46582 0.55047 0.6839 0.0
H530 H 0.46894 0.55353 0.66 0.0
H531 H 0.47552 0.53429 0.67094 0.0
C532 C 0.45961 0.54545 0.60261 0.0
C533 C 0.47619 0.53839 0.60274 0.0
C534 C 0.44848 0.54205 0.6166 0.0
C535 C 0.45369 0.53159 0.63113 0.0
C536 C 0.47013 0.52432 0.63125 0.0
H537 H 0.40019 0.5035 0.72872 0.0
H538 H 0.42105 0.50628 0.70499 0.0
C539 C 0.48131 0.5277 0.6172 0.0
C540 C 0.44169 0.52822 0.64592 0.0
H541 H 0.43853 0.53585 0.6917 0.0
C542 C 0.4243 0.51969 0.64116 0.0
C543 C 0.44694 0.53402 0.66439 0.0
C544 C 0.46526 0.54371 0.67018 0.0
C545 C 0.41201 0.51681 0.65435 0.0
C546 C 0.41711 0.52295 0.67275 0.0
C547 C 0.43462 0.53119 0.67758 0.0
C548 C 0.40436 0.52125 0.68709 0.0
C549 C 0.39376 0.507 0.64848 0.0
C550 C 0.38815 0.52896 0.68506 0.0
C551 C 0.37615 0.52735 0.69857 0.0
C552 C 0.3802 0.51813 0.71449 0.0
C553 C 0.3966 0.51065 0.71662 0.0
C554 C 0.40856 0.51223 0.70307 0.0
H555 H 0.39388 0.49891 0.63566 0.0
H556 H 0.38922 0.49838 0.65939 0.0
H557 H 0.38377 0.51652 0.64576 0.0
H558 H 0.38481 0.53634 0.67306 0.0
H559 H 0.36373 0.53339 0.69654 0.0
H560 H 0.76192 0.24422 0.68146 0.0
H561 H 0.75725 0.26395 0.65631 0.0
H562 H 0.74149 0.30229 0.69405 0.0
H563 H 0.74641 0.28272 0.71942 0.0
H564 H 0.72626 0.27874 0.64297 0.0
H565 H 0.78158 0.32981 0.66932 0.0
H566 H 0.77942 0.30822 0.67833 0.0
H567 H 0.76496 0.32404 0.68483 0.0
C568 C 0.75749 0.25686 0.68446 0.0
C569 C 0.75466 0.26193 0.70249 0.0
C570 C 0.75477 0.2681 0.67004 0.0
C571 C 0.7492 0.28466 0.67333 0.0
C572 C 0.74608 0.28969 0.69125 0.0
H573 H 0.7219 0.3471 0.57621 0.0
H574 H 0.71904 0.33365 0.60604 0.0
C575 C 0.74884 0.27845 0.70572 0.0
C576 C 0.74696 0.29662 0.65791 0.0
H577 H 0.7652 0.3347 0.64124 0.0
C578 C 0.7346 0.29109 0.64265 0.0
C579 C 0.75791 0.3127 0.65755 0.0
C580 C 0.77183 0.31906 0.67329 0.0
C581 C 0.73334 0.30089 0.62677 0.0
C582 C 0.7446 0.31676 0.62624 0.0
C583 C 0.75647 0.32261 0.64176 0.0
C584 C 0.74617 0.32611 0.60893 0.0
C585 C 0.72072 0.29373 0.61031 0.0
C586 C 0.76246 0.32676 0.60098 0.0
C587 C 0.76413 0.3344 0.58413 0.0
C588 C 0.74955 0.34166 0.57477 0.0
C589 C 0.73335 0.34156 0.58302 0.0
C590 C 0.73167 0.33381 0.6 0.0
H591 H 0.71488 0.28009 0.61207 0.0
H592 H 0.70948 0.30199 0.6082 0.0
H593 H 0.72787 0.29404 0.5977 0.0
H594 H 0.77382 0.32095 0.60763 0.0
H595 H 0.77687 0.33434 0.57831 0.0
H596 H 0.44449 0.9493 0.64655 0.0
H597 H 0.46907 0.958 0.67049 0.0
H598 H 0.50598 0.96678 0.62919 0.0
H599 H 0.48154 0.95771 0.60513 0.0
H600 H 0.51816 0.94567 0.65462 0.0
H601 H 0.49699 0.00356 0.68965 0.0
H602 H 0.47952 0.98565 0.68785 0.0
H603 H 0.4867 -0.00472 0.66729 0.0
C604 C 0.45775 0.95341 0.64251 0.0
C605 C 0.46108 0.95269 0.62393 0.0
C606 C 0.47178 0.95853 0.65623 0.0
C607 C 0.48932 0.96326 0.65162 0.0
C608 C 0.49252 0.96326 0.63304 0.0
H609 H 0.57484 0.99072 0.74234 0.0
H610 H 0.55606 -0.00759 0.71319 0.0
C611 C 0.47853 0.95805 0.61932 0.0
C612 C 0.50459 0.96609 0.66624 0.0
H613 H 0.51833 0.9876 0.70752 0.0
C614 C 0.51837 0.95508 0.66601 0.0
C615 C 0.50504 0.97853 0.68097 0.0
C616 C 0.49136 0.99155 0.68137 0.0
C617 C 0.53197 0.95545 0.68063 0.0
C618 C 0.53156 0.96688 0.69604 0.0
C619 C 0.51846 0.97866 0.69578 0.0
C620 C 0.54363 0.96576 0.7131 0.0
C621 C 0.54645 0.94332 0.67961 0.0
C622 C 0.54277 0.95025 0.72269 0.0
C623 C 0.55341 0.94922 0.73927 0.0
C624 C 0.56509 0.96375 0.74668 0.0
C625 C 0.56604 0.97927 0.73697 0.0
C626 C 0.55532 0.98029 0.72035 0.0
H627 H 0.54828 0.93976 0.66513 0.0
H628 H 0.55955 0.94934 0.68659 0.0
H629 H 0.54245 0.93109 0.68652 0.0
H630 H 0.53356 0.939 0.71752 0.0
H631 H 0.55227 0.9371 0.7464 0.0
H632 H 0.82603 0.24534 0.76957 0.0
H633 H 0.85676 0.24866 0.78509 0.0
H634 H 0.8479 0.19712 0.80616 0.0
H635 H 0.81741 0.19355 0.79058 0.0
H636 H 0.86675 0.24751 0.8226 0.0
H637 H 0.8958 0.19556 0.78454 0.0
H638 H 0.87493 0.20381 0.77633 0.0
H639 H 0.87532 0.18817 0.79409 0.0
C640 C 0.83068 0.23465 0.77736 0.0
C641 C 0.81925 0.21916 0.77876 0.0
C642 C 0.84823 0.23657 0.78623 0.0
C643 C 0.8547 0.22303 0.79654 0.0
C644 C 0.84334 0.20758 0.79794 0.0
H645 H 0.95381 0.21613 0.8688 0.0
H646 H 0.92386 0.20977 0.85161 0.0
C647 C 0.82584 0.20563 0.78909 0.0
C648 C 0.87299 0.22538 0.80664 0.0
H649 H 0.91346 0.20837 0.81131 0.0
C650 C 0.87699 0.23901 0.82006 0.0
C651 C 0.88627 0.21416 0.80341 0.0
C652 C 0.88297 0.1997 0.7887 0.0
C653 C 0.89387 0.24167 0.83043 0.0
C654 C 0.90717 0.23054 0.82712 0.0
C655 C 0.90317 0.2168 0.81384 0.0
C656 C 0.92561 0.23364 0.83672 0.0
C657 C 0.89729 0.25627 0.84499 0.0
C658 C 0.93661 0.24888 0.83362 0.0
C659 C 0.95362 0.25251 0.8433 0.0
C660 C 0.96005 0.24094 0.85631 0.0
C661 C 0.94925 0.22532 0.85893 0.0
C662 C 0.93215 0.22168 0.84915 0.0
H663 H 0.88453 0.26077 0.84892 0.0
H664 H 0.90507 0.25209 0.8575 0.0
H665 H 0.90533 0.26756 0.8396 0.0
H666 H 0.93192 0.25812 0.82385 0.0
H667 H 0.96159 0.26459 0.84078 0.0
H668 H 0.47472 0.90249 0.52142 0.0
H669 H 0.48344 0.87714 0.50506 0.0
H670 H 0.44235 0.84385 0.52831 0.0
H671 H 0.43324 0.86932 0.54453 0.0
H672 H 0.49616 0.84769 0.52005 0.0
H673 H 0.43301 0.83006 0.47366 0.0
H674 H 0.43767 0.85082 0.48625 0.0
H675 H 0.43053 0.83146 0.49783 0.0
C676 C 0.46739 0.88982 0.52295 0.0
C677 C 0.45324 0.88794 0.53424 0.0
C678 C 0.47245 0.87532 0.51363 0.0
C679 C 0.46349 0.85862 0.51537 0.0
C680 C 0.44926 0.85666 0.52653 0.0
H681 H 0.48627 0.76523 0.45213 0.0
H682 H 0.47641 0.78231 0.47756 0.0
C683 C 0.4441 0.87122 0.53582 0.0
C684 C 0.46948 0.84339 0.50567 0.0
H685 H 0.45686 0.813 0.47055 0.0
C686 C 0.48749 0.83997 0.50937 0.0
C687 C 0.45812 0.83323 0.49186 0.0
C688 C 0.43879 0.83658 0.487 0.0
C689 C 0.49466 0.82716 0.4991 0.0
C690 C 0.48356 0.81763 0.48471 0.0
C691 C 0.4653 0.82033 0.48166 0.0
C692 C 0.49115 0.80664 0.4711 0.0
C693 C 0.51419 0.82426 0.50337 0.0
C694 C 0.50283 0.81465 0.45927 0.0
C695 C 0.5083 0.80505 0.44475 0.0
C696 C 0.50227 0.78719 0.4418 0.0
C697 C 0.49125 0.77894 0.45418 0.0
C698 C 0.48555 0.78867 0.46863 0.0
H699 H 0.51934 0.82871 0.51768 0.0
H700 H 0.51611 0.81024 0.50139 0.0
H701 H 0.52238 0.83185 0.4939 0.0
H702 H 0.50711 0.82855 0.46079 0.0
H703 H 0.5168 0.81176 0.43545 0.0
H704 H 0.14674 0.26697 0.7627 0.0
H705 H 0.1248 0.259 0.78435 0.0
H706 H 0.1646 0.23388 0.81749 0.0
H707 H 0.18684 0.24206 0.79598 0.0
H708 H 0.11115 0.2269 0.7976 0.0
H709 H 0.1496 0.27061 0.85322 0.0
H710 H 0.1546 0.27151 0.82962 0.0
H711 H 0.16143 0.25403 0.84345 0.0
C712 C 0.15083 0.25961 0.77449 0.0
C713 C 0.16862 0.25534 0.77771 0.0
C714 C 0.13824 0.25502 0.78684 0.0
C715 C 0.14314 0.24608 0.80267 0.0
C716 C 0.16063 0.24104 0.80552 0.0
H717 H 0.05468 0.22171 0.87344 0.0
H718 H 0.08152 0.21694 0.85788 0.0
C719 C 0.17329 0.24566 0.79316 0.0
C720 C 0.1301 0.24307 0.81654 0.0
H721 H 0.12125 0.25744 0.85903 0.0
C722 C 0.11344 0.23329 0.81118 0.0
C723 C 0.13314 0.25152 0.8342 0.0
C724 C 0.15058 0.26262 0.84052 0.0
C725 C 0.09943 0.23241 0.82265 0.0
C726 C 0.10226 0.24141 0.84002 0.0
C727 C 0.11921 0.25045 0.84575 0.0
C728 C 0.08709 0.24399 0.85102 0.0
C729 C 0.08134 0.22284 0.81565 0.0
C730 C 0.08174 0.2608 0.85282 0.0
C731 C 0.06657 0.26355 0.86163 0.0
C732 C 0.0564 0.24953 0.86897 0.0
C733 C 0.06221 0.23276 0.86789 0.0
C734 C 0.07745 0.23 0.85893 0.0
H735 H 0.08078 0.21835 0.801 0.0
H736 H 0.07859 0.21122 0.82396 0.0
H737 H 0.07047 0.23138 0.81709 0.0
H738 H 0.089 0.27178 0.84685 0.0
H739 H 0.0626 0.27667 0.86234 0.0
H740 H 0.51328 0.59151 0.53149 0.0
H741 H 0.51155 0.61511 0.51013 0.0
H742 H 0.54894 0.59237 0.47781 0.0
H743 H 0.55075 0.56849 0.49917 0.0
H744 H 0.54048 0.63912 0.50054 0.0
H745 H 0.50555 0.59971 0.43995 0.0
H746 H 0.50617 0.59187 0.46301 0.0
H747 H 0.5257 0.59194 0.45063 0.0
C748 C 0.52114 0.59142 0.51983 0.0
C749 C 0.53213 0.57801 0.51705 0.0
C750 C 0.52013 0.60498 0.50764 0.0
C751 C 0.52995 0.60541 0.49228 0.0
C752 C 0.54103 0.59214 0.48944 0.0
H753 H 0.53404 0.6793 0.40409 0.0
H754 H 0.53797 0.65462 0.42383 0.0
C755 C 0.54212 0.57855 0.50171 0.0
C756 C 0.52871 0.62 0.47954 0.0
H757 H 0.5134 0.62971 0.43589 0.0
C758 C 0.5346 0.63708 0.48639 0.0
C759 C 0.52109 0.61728 0.46108 0.0
C760 C 0.51412 0.59925 0.45317 0.0
C761 C 0.53309 0.65153 0.47528 0.0
C762 C 0.52507 0.64887 0.45692 0.0
C763 C 0.51946 0.63175 0.44998 0.0
C764 C 0.52228 0.66371 0.44477 0.0
C765 C 0.54036 0.66947 0.48325 0.0
C766 C 0.51182 0.67687 0.44977 0.0
C767 C 0.50959 0.69105 0.43854 0.0
C768 C 0.51763 0.69228 0.42197 0.0
C769 C 0.52769 0.67882 0.41677 0.0
C770 C 0.52996 0.66468 0.42804 0.0
H771 H 0.55055 0.66875 0.49523 0.0
H772 H 0.54662 0.67759 0.47281 0.0
H773 H 0.52913 0.67613 0.48805 0.0
H774 H 0.50538 0.6762 0.46239 0.0
H775 H 0.50165 0.7011 0.44292 0.0
H776 H 0.81718 0.78189 0.77502 0.0
H777 H 0.83884 0.77783 0.75276 0.0
H778 H 0.87816 0.81471 0.78427 0.0
H779 H 0.85653 0.81898 0.80657 0.0
H780 H 0.87436 0.8205 0.74633 0.0
H781 H 0.88384 0.75135 0.75977 0.0
H782 H 0.86068 0.75531 0.75513 0.0
H783 H 0.8738 0.76513 0.77542 0.0
C784 C 0.83046 0.7891 0.77727 0.0
C785 C 0.83515 0.80073 0.7926 0.0
C786 C 0.84285 0.78668 0.76459 0.0
C787 C 0.86018 0.79577 0.76703 0.0
C788 C 0.86488 0.80749 0.78222 0.0
H789 H 0.94751 0.77339 0.70183 0.0
H790 H 0.92985 0.77912 0.72741 0.0
C791 C 0.85251 0.8099 0.79494 0.0
C792 C 0.87317 0.79348 0.75337 0.0
H793 H 0.8953 0.76285 0.73281 0.0
C794 C 0.87906 0.80794 0.74347 0.0
C795 C 0.87946 0.77713 0.74985 0.0
C796 C 0.87428 0.76136 0.76071 0.0
C797 C 0.89062 0.80634 0.72967 0.0
C798 C 0.89624 0.78981 0.72557 0.0
C799 C 0.89084 0.77548 0.7359 0.0
C800 C 0.9072 0.78697 0.71019 0.0
C801 C 0.89673 0.82235 0.7196 0.0
C802 C 0.90024 0.78938 0.69206 0.0
C803 C 0.91023 0.78611 0.67743 0.0
C804 C 0.9274 0.78028 0.68065 0.0
C805 C 0.93437 0.77792 0.69887 0.0
C806 C 0.92431 0.78116 0.7135 0.0
H807 H 0.89535 0.83458 0.72756 0.0
H808 H 0.91099 0.82233 0.7167 0.0
H809 H 0.88827 0.82243 0.70628 0.0
H810 H 0.88691 0.79354 0.68918 0.0
H811 H 0.90441 0.788 0.66359 0.0
H812 H 0.05181 0.88668 0.50626 0.0
H813 H 0.03472 0.87294 0.52972 0.0
H814 H 0.08393 0.85904 0.55839 0.0
H815 H 0.10115 0.87252 0.53479 0.0
H816 H 0.05753 0.83145 0.55289 0.0
H817 H 0.02985 0.88886 0.58234 0.0
H818 H 0.02538 0.88657 0.55779 0.0
H819 H 0.04826 0.89092 0.56811 0.0
C820 C 0.05904 0.88087 0.51765 0.0
C821 C 0.07784 0.88069 0.51865 0.0
C822 C 0.04925 0.87313 0.53113 0.0
C823 C 0.05809 0.86522 0.54596 0.0
C824 C 0.07687 0.86519 0.54712 0.0
H825 H 0.01364 0.79979 0.63026 0.0
H826 H 0.03431 0.81842 0.61343 0.0
C827 C 0.08668 0.8729 0.53362 0.0
C828 C 0.04755 0.85588 0.55947 0.0
H829 H 0.01592 0.86072 0.58929 0.0
C830 C 0.04862 0.83789 0.56105 0.0
C831 C 0.03593 0.86432 0.57008 0.0
C832 C 0.03489 0.88377 0.56966 0.0
C833 C 0.03785 0.82795 0.5724 0.0
C834 C 0.02589 0.83631 0.58263 0.0
C835 C 0.0251 0.85437 0.58139 0.0
C836 C 0.0134 0.82629 0.5939 0.0
C837 C 0.03883 0.80848 0.57279 0.0
C838 C -0.00523 0.82507 0.58886 0.0
C839 C 0.98291 0.81451 0.59845 0.0
C840 C 0.98948 0.80502 0.61333 0.0
C841 C 0.00813 0.80684 0.6188 0.0
C842 C 0.01998 0.81742 0.60917 0.0
H843 H 0.046 0.80362 0.56139 0.0
H844 H 0.0462 0.80536 0.58597 0.0
H845 H 0.0251 0.80132 0.57185 0.0
H846 H 0.98944 0.8319 0.57714 0.0
H847 H 0.96865 0.81348 0.59392 0.0
H848 H 0.12245 0.72314 0.7935 0.0
H849 H 0.09753 0.72812 0.7709 0.0
H850 H 0.13082 0.72077 0.72704 0.0
H851 H 0.15594 0.71565 0.74961 0.0
H852 H 0.09892 0.75529 0.74521 0.0
H853 H 0.08313 0.68926 0.71079 0.0
H854 H 0.09589 0.69284 0.7331 0.0
H855 H 0.10638 0.69831 0.71269 0.0
C856 C 0.12447 0.72239 0.77905 0.0
C857 C 0.14121 0.71902 0.77336 0.0
C858 C 0.1102 0.72526 0.76616 0.0
C859 C 0.11231 0.72469 0.74733 0.0
C860 C 0.12886 0.72101 0.74152 0.0
H861 H 0.03869 0.74413 0.65216 0.0
H862 H 0.06467 0.73733 0.67256 0.0
C863 C 0.14321 0.71816 0.75444 0.0
C864 C 0.09743 0.72895 0.73396 0.0
H865 H 0.06698 0.71178 0.6986 0.0
C866 C 0.09192 0.74579 0.73501 0.0
C867 C 0.08845 0.71655 0.72062 0.0
C868 C 0.09361 0.69817 0.71922 0.0
C869 C 0.07764 0.75059 0.72306 0.0
C870 C 0.06838 0.73808 0.70996 0.0
C871 C 0.07408 0.72131 0.7087 0.0
C872 C 0.05257 0.7421 0.69765 0.0
C873 C 0.07277 0.76909 0.72439 0.0
C874 C 0.03706 0.74681 0.705 0.0
C875 C 0.02222 0.75078 0.6934 0.0
C876 C 0.02256 0.74995 0.67421 0.0
C877 C 0.03801 0.74496 0.66688 0.0
C878 C 0.05287 0.74103 0.67851 0.0
H879 H 0.08411 0.77815 0.73129 0.0
H880 H 0.0689 0.77393 0.71056 0.0
H881 H 0.06113 0.76945 0.73262 0.0
H882 H 0.03641 0.74734 0.71973 0.0
H883 H 0.01049 0.75444 0.69949 0.0
H884 H -0.00398 0.59903 0.54505 0.0
H885 H 0.99144 0.62515 0.56304 0.0
H886 H 0.93417 0.60967 0.55776 0.0
H887 H 0.93859 0.58338 0.53976 0.0
H888 H 0.96958 0.65112 0.54972 0.0
H889 H 0.94731 0.62225 0.61359 0.0
H890 H 0.95917 0.61053 0.59767 0.0
H891 H 0.93568 0.61286 0.59232 0.0
C892 C 0.98245 0.60105 0.54786 0.0
C893 C 0.96766 0.58914 0.54093 0.0
C894 C 0.97987 0.61599 0.55814 0.0
C895 C 0.9625 0.61923 0.56182 0.0
C896 C 0.94771 0.60724 0.55527 0.0
H897 H 0.93142 0.72068 0.59386 0.0
H898 H 0.93257 0.69186 0.57927 0.0
C899 C 0.95027 0.59228 0.54493 0.0
C900 C 0.95984 0.63576 0.5715 0.0
H901 H 0.94625 0.65273 0.61088 0.0
C902 C 0.96445 0.6515 0.56308 0.0
C903 C 0.95327 0.63613 0.58896 0.0
C904 C 0.94868 0.61957 0.5988 0.0
C905 C 0.96262 0.66766 0.57164 0.0
C906 C 0.95582 0.66804 0.58898 0.0
C907 C 0.95129 0.65232 0.59749 0.0
C908 C 0.95397 0.68476 0.59871 0.0
C909 C 0.96831 0.68422 0.56224 0.0
C910 C 0.96527 0.69003 0.61475 0.0
C911 C 0.96468 0.70649 0.62312 0.0
C912 C 0.95267 0.71791 0.61563 0.0
C913 C 0.94087 0.71227 0.59993 0.0
C914 C 0.94153 0.69582 0.59155 0.0
H915 H 0.9765 0.68175 0.55076 0.0
H916 H 0.95613 0.69006 0.55655 0.0
H917 H 0.97625 0.69394 0.57221 0.0
H918 H 0.97493 0.68162 0.62047 0.0
H919 H 0.9739 0.71039 0.63524 0.0
H920 H 0.74828 0.82692 0.21356 0.0
H921 H 0.76678 0.85505 0.21297 0.0
H922 H 0.78857 0.84934 0.26896 0.0
H923 H 0.77027 0.8213 0.2697 0.0
H924 H 0.76487 0.88424 0.23645 0.0
H925 H 0.83368 0.86354 0.24285 0.0
H926 H 0.81382 0.84857 0.23582 0.0
H927 H 0.82003 0.85442 0.25977 0.0
C928 C 0.7572 0.83153 0.22566 0.0
C929 C 0.75778 0.82184 0.24169 0.0
C930 C 0.76774 0.84761 0.22529 0.0
C931 C 0.77922 0.85416 0.24083 0.0
C932 C 0.78008 0.84437 0.25669 0.0
H933 H 0.81774 0.95364 0.28786 0.0
H934 H 0.80152 0.92573 0.2765 0.0
C935 C 0.7695 0.82838 0.25712 0.0
C936 C 0.78927 0.87182 0.24112 0.0
H937 H 0.8313 0.89371 0.25086 0.0
C938 C 0.77942 0.88632 0.23928 0.0
C939 C 0.80827 0.87451 0.24457 0.0
C940 C 0.8196 0.85943 0.24568 0.0
C941 C 0.78799 0.90344 0.2419 0.0
C942 C 0.80684 0.90609 0.24665 0.0
C943 C 0.81682 0.89164 0.24738 0.0
C944 C 0.81616 0.92355 0.25262 0.0
C945 C 0.77674 0.91855 0.24002 0.0
C946 C 0.82993 0.93153 0.24304 0.0
C947 C 0.83928 0.94761 0.2495 0.0
C948 C 0.83518 0.95578 0.26582 0.0
C949 C 0.82127 0.94774 0.27526 0.0
C950 C 0.81188 0.93181 0.26872 0.0
H951 H 0.76387 0.91481 0.23126 0.0
H952 H 0.77341 0.92273 0.25383 0.0
H953 H 0.7842 0.92988 0.23405 0.0
H954 H 0.83351 0.92527 0.23065 0.0
H955 H 0.84997 0.95342 0.24197 0.0
H956 H 0.80345 0.18955 0.29119 0.0
H957 H 0.81965 0.16386 0.28737 0.0
H958 H 0.77088 0.13017 0.29245 0.0
H959 H 0.75453 0.15572 0.29607 0.0
H960 H 0.82485 0.13693 0.31088 0.0
H961 H 0.78754 0.11134 0.24477 0.0
H962 H 0.78644 0.13324 0.25383 0.0
H963 H 0.77307 0.11505 0.26233 0.0
C964 C 0.79616 0.17667 0.29151 0.0
C965 C 0.77766 0.17469 0.29386 0.0
C966 C 0.80544 0.16201 0.28929 0.0
C967 C 0.79639 0.14511 0.28925 0.0
C968 C 0.77803 0.14309 0.29198 0.0
H969 H 0.83388 0.04665 0.31169 0.0
H970 H 0.82205 0.07489 0.31125 0.0
C971 C 0.76874 0.15772 0.29421 0.0
C972 C 0.80623 0.12955 0.28692 0.0
H973 H 0.80563 0.09177 0.26098 0.0
C974 C 0.82077 0.12715 0.29986 0.0
C975 C 0.80111 0.11694 0.27234 0.0
C976 C 0.78631 0.11932 0.25741 0.0
C977 C 0.82979 0.11209 0.2991 0.0
C978 C 0.82396 0.09899 0.28517 0.0
C979 C 0.80997 0.10176 0.27174 0.0
C980 C 0.83138 0.08187 0.28512 0.0
C981 C 0.84539 0.11024 0.31332 0.0
C982 C 0.84018 0.07618 0.2703 0.0
C983 C 0.84699 0.05988 0.27045 0.0
C984 C 0.84491 0.04896 0.28535 0.0
C985 C 0.83584 0.0547 0.30001 0.0
C986 C 0.82914 0.07092 0.29986 0.0
H987 H 0.85148 0.12316 0.31942 0.0
H988 H 0.84049 0.10231 0.32459 0.0
H989 H 0.85601 0.10356 0.30729 0.0
H990 H 0.84191 0.0844 0.25871 0.0
H991 H 0.85385 0.05585 0.25893 0.0
H992 H 0.38208 0.02961 0.97176 0.0
H993 H 0.35623 0.00903 0.97742 0.0
H994 H 0.3868 0.99135 0.025 0.0
H995 H 0.4126 0.01195 0.01958 0.0
H996 H 0.35534 0.97316 0.97784 0.0
H997 H 0.33908 -0.00047 0.04478 0.0
H998 H 0.35316 0.01205 0.03013 0.0
H999 H 0.36243 -0.0038 0.04482 0.0
C1000 C 0.38324 0.02146 0.98354 0.0
C1001 C 0.3994 0.02243 -0.00477 0.0
C1002 C 0.36845 0.00973 0.98675 0.0
C1003 C 0.36949 -0.00113 0.0018 0.0
C1004 C 0.38555 -0.0001 0.01356 0.0
H1005 H 0.32158 0.89838 0.02133 0.0
H1006 H 0.33941 0.92512 0.0143 0.0
C1007 C 0.40035 0.01159 0.01035 0.0
C1008 C 0.35433 0.98553 0.00448 0.0
H1009 H 0.32726 0.96973 0.03649 0.0
C1010 C 0.34899 0.97257 0.99054 0.0
C1011 C 0.34587 0.98491 0.02095 0.0
C1012 C 0.35029 -0.00098 0.03595 0.0
C1013 C 0.33618 0.95847 -0.00693 0.0
C1014 C 0.32866 0.95721 0.01002 0.0
C1015 C 0.33319 0.97067 0.02356 0.0
C1016 C 0.31747 0.94123 0.01451 0.0
C1017 C 0.33111 0.94475 0.97774 0.0
C1018 C 0.29926 0.94153 0.01738 0.0
C1019 C 0.2889 0.92615 0.02141 0.0
C1020 C 0.29671 0.91033 0.02284 0.0
C1021 C 0.31507 0.91028 0.02029 0.0
C1022 C 0.3253 0.92555 0.01618 0.0
H1023 H 0.3341 0.94988 0.96421 0.0
H1024 H 0.33901 0.93351 0.98041 0.0
H1025 H 0.31657 0.93989 0.97699 0.0
H1026 H 0.29304 0.95359 0.01627 0.0
H1027 H 0.27482 0.92664 0.02336 0.0
H1028 H 0.28102 0.39582 0.35481 0.0
H1029 H 0.25883 0.41633 0.34711 0.0
H1030 H 0.23137 0.3796 0.30536 0.0
H1031 H 0.25356 0.35915 0.31272 0.0
H1032 H 0.23268 0.41525 0.29535 0.0
H1033 H 0.2082 0.40439 0.36401 0.0
H1034 H 0.23161 0.4123 0.364 0.0
H1035 H 0.2235 0.39081 0.3545 0.0
C1036 C 0.27045 0.39223 0.34376 0.0
C1037 C 0.26888 0.37573 0.33459 0.0
C1038 C 0.25776 0.40395 0.33943 0.0
C1039 C 0.24329 0.39931 0.32592 0.0
C1040 C 0.24241 0.38338 0.31589 0.0
H1041 H 0.13452 0.41907 0.3107 0.0
H1042 H 0.16412 0.40867 0.31601 0.0
C1043 C 0.25508 0.37168 0.32017 0.0
C1044 C 0.22809 0.41012 0.32336 0.0
H1045 H 0.19213 0.42194 0.34421 0.0
C1046 C 0.22394 0.41696 0.30608 0.0
C1047 C 0.21663 0.41211 0.33738 0.0
C1048 C 0.22004 0.40443 0.35599 0.0
C1049 C 0.20832 0.4254 0.3023 0.0
C1050 C 0.19672 0.42708 0.31622 0.0
C1051 C 0.20117 0.4207 0.33364 0.0
C1052 C 0.17898 0.43376 0.31254 0.0
C1053 C 0.20386 0.43173 0.28325 0.0
C1054 C 0.17757 0.45138 0.30889 0.0
C1055 C 0.16059 0.45743 0.30587 0.0
C1056 C 0.14479 0.44593 0.30646 0.0
C1057 C 0.14636 0.4283 0.31012 0.0
C1058 C 0.16328 0.42231 0.31317 0.0
H1059 H 0.213 0.42735 0.27337 0.0
H1060 H 0.18974 0.42696 0.27802 0.0
H1061 H 0.2051 0.44623 0.28378 0.0
H1062 H 0.18958 0.46045 0.30858 0.0
H1063 H 0.15985 0.4711 0.30312 0.0
H1064 H 0.14663 0.95473 0.47892 0.0
H1065 H 0.16079 0.98475 0.48295 0.0
H1066 H 0.10845 0.00369 0.47792 0.0
H1067 H 0.09411 0.97349 0.47402 0.0
H1068 H 0.13232 0.02181 0.45706 0.0
H1069 H 0.1639 0.01754 0.52792 0.0
H1070 H 0.16944 0.00015 0.51337 0.0
H1071 H 0.14632 0.00139 0.51759 0.0
C1072 C 0.1381 0.96526 0.47876 0.0
C1073 C 0.11926 0.96175 0.47586 0.0
C1074 C 0.14621 0.98242 0.48117 0.0
C1075 C 0.13566 -0.00356 0.48104 0.0
C1076 C 0.11682 -0.00696 0.47811 0.0
H1077 H 0.20545 0.09417 0.50827 0.0
H1078 H 0.17806 0.07378 0.50809 0.0
C1079 C 0.10866 0.9758 0.47565 0.0
C1080 C 0.14461 0.01458 0.48321 0.0
H1081 H 0.17818 0.0397 0.50963 0.0
C1082 C 0.14208 0.02591 0.46874 0.0
C1083 C 0.15695 0.02015 0.49867 0.0
C1084 C 0.15916 0.00922 0.51535 0.0
C1085 C 0.15271 0.04203 0.46861 0.0
C1086 C 0.16645 0.0467 0.48313 0.0
C1087 C 0.16786 0.03605 0.49833 0.0
C1088 C 0.18094 0.06116 0.48184 0.0
C1089 C 0.14941 0.05365 0.45267 0.0
C1090 C 0.19148 0.06108 0.46702 0.0
C1091 C 0.20703 0.07271 0.46704 0.0
C1092 C 0.21257 0.08456 0.48203 0.0
C1093 C 0.20157 0.08521 0.49651 0.0
C1094 C 0.18591 0.07356 0.49644 0.0
H1095 H 0.13495 0.0521 0.44722 0.0
H1096 H 0.15353 0.06763 0.45666 0.0
H1097 H 0.15725 0.04982 0.44137 0.0
H1098 H 0.18826 0.05136 0.45584 0.0
H1099 H 0.21515 0.07182 0.45566 0.0
H1100 H 0.71217 0.15408 0.75033 0.0
H1101 H 0.69046 0.12857 0.75355 0.0
H1102 H 0.70281 0.13296 0.81246 0.0
H1103 H 0.72425 0.15852 0.80942 0.0
H1104 H 0.69871 0.09766 0.76871 0.0
H1105 H 0.64802 0.12645 0.80706 0.0
H1106 H 0.66437 0.13961 0.79536 0.0
H1107 H 0.67063 0.13161 0.81769 0.0
C1108 C 0.71005 0.14979 0.76399 0.0
C1109 C 0.71995 0.15834 0.77962 0.0
C1110 C 0.69766 0.1352 0.7658 0.0
C1111 C 0.69485 0.12901 0.78325 0.0
C1112 C 0.70445 0.13773 0.79888 0.0
H1113 H 0.64466 0.03719 0.82949 0.0
H1114 H 0.66094 0.06529 0.82332 0.0
C1115 C 0.71682 0.1523 0.7971 0.0
C1116 C 0.683 0.11264 0.78514 0.0
H1117 H 0.64734 0.09527 0.8068 0.0
C1118 C 0.68732 0.09715 0.77683 0.0
C1119 C 0.66821 0.11203 0.7958 0.0
C1120 C 0.6624 0.12834 0.80434 0.0
C1121 C 0.67764 0.08097 0.77942 0.0
C1122 C 0.6631 0.08031 0.79041 0.0
C1123 C 0.65855 0.09583 0.79845 0.0
C1124 C 0.65273 0.06356 0.79408 0.0
C1125 C 0.68345 0.06462 0.77092 0.0
C1126 C 0.64252 0.05344 0.7797 0.0
C1127 C 0.63322 0.03738 0.78317 0.0
C1128 C 0.63392 0.03118 0.8011 0.0
C1129 C 0.6439 0.04154 0.81552 0.0
C1130 C 0.65317 0.05761 0.81204 0.0
H1131 H 0.69716 0.06692 0.76632 0.0
H1132 H 0.68333 0.05397 0.78083 0.0
H1133 H 0.67388 0.06013 0.75876 0.0
H1134 H 0.64178 0.05795 0.76579 0.0
H1135 H 0.62559 0.02979 0.77176 0.0
H1136 H 0.36159 0.97274 0.59742 0.0
H1137 H 0.34531 -0.00264 0.58738 0.0
H1138 H 0.37369 0.00052 0.53891 0.0
H1139 H 0.39007 0.97601 0.54879 0.0
H1140 H 0.36121 0.03319 0.57712 0.0
H1141 H 0.3178 -0.00553 0.52105 0.0
H1142 H 0.32912 0.98446 0.54029 0.0
H1143 H 0.34154 -0.00762 0.52191 0.0
C1144 C 0.36437 0.97867 0.58462 0.0
C1145 C 0.37705 0.97235 0.57383 0.0
C1146 C 0.35511 -0.00723 0.57897 0.0
C1147 C 0.35825 0.00063 0.56239 0.0
C1148 C 0.37102 -0.0055 0.5517 0.0
H1149 H 0.31492 0.07621 0.49284 0.0
H1150 H 0.33249 0.0551 0.50841 0.0
C1151 C 0.38036 0.98051 0.55738 0.0
C1152 C 0.34794 0.01501 0.55591 0.0
H1153 H 0.31691 0.02508 0.52175 0.0
C1154 C 0.35141 0.03146 0.5651 0.0
C1155 C 0.33516 0.0126 0.5403 0.0
C1156 C 0.33051 -0.00499 0.53034 0.0
C1157 C 0.34288 0.04583 0.55859 0.0
C1158 C 0.33038 0.0435 0.5427 0.0
C1159 C 0.3266 0.02688 0.53386 0.0
C1160 C 0.32143 0.0581 0.53442 0.0
C1161 C 0.34779 0.06347 0.56835 0.0
C1162 C 0.30968 0.06715 0.54403 0.0
C1163 C 0.29968 0.07943 0.53516 0.0
C1164 C 0.3011 0.08259 0.51649 0.0
C1165 C 0.31342 0.07399 0.50719 0.0
C1166 C 0.32347 0.06191 0.51607 0.0
H1167 H 0.36055 0.06393 0.57754 0.0
H1168 H 0.34921 0.07395 0.55833 0.0
H1169 H 0.33691 0.06627 0.5769 0.0
H1170 H 0.30765 0.0642 0.5581 0.0
H1171 H 0.2902 0.08575 0.54264 0.0
H1172 H 0.61031 0.51244 0.55454 0.0
H1173 H 0.63328 0.49244 0.55145 0.0
H1174 H 0.59306 0.45405 0.52349 0.0
H1175 H 0.56997 0.47398 0.52647 0.0
H1176 H 0.61551 0.44122 0.55325 0.0
H1177 H 0.65551 0.47782 0.50405 0.0
H1178 H 0.65095 0.49046 0.52381 0.0
H1179 H 0.63265 0.48169 0.50732 0.0
C1180 C 0.60635 0.49981 0.54759 0.0
C1181 C 0.58828 0.49484 0.54071 0.0
C1182 C 0.61952 0.48841 0.54577 0.0
C1183 C 0.61492 0.47182 0.53708 0.0
C1184 C 0.59692 0.46683 0.53017 0.0
H1185 H 0.68952 0.39786 0.50721 0.0
H1186 H 0.66496 0.4166 0.50686 0.0
C1187 C 0.58376 0.47826 0.53186 0.0
C1188 C 0.62874 0.45943 0.53586 0.0
H1189 H 0.66827 0.45382 0.51791 0.0
C1190 C 0.627 0.44392 0.54545 0.0
C1191 C 0.64363 0.4629 0.52554 0.0
C1192 C 0.6458 0.47904 0.51445 0.0
C1193 C 0.64 0.43201 0.54538 0.0
C1194 C 0.65518 0.43575 0.53553 0.0
C1195 C 0.65668 0.45103 0.52554 0.0
C1196 C 0.66983 0.42414 0.53579 0.0
C1197 C 0.63741 0.41549 0.55581 0.0
C1198 C 0.68078 0.42225 0.55214 0.0
C1199 C 0.69485 0.41164 0.55238 0.0
C1200 C 0.69827 0.40265 0.53626 0.0
C1201 C 0.68721 0.40452 0.51989 0.0
C1202 C 0.6732 0.41526 0.51964 0.0
H1203 H 0.62328 0.41264 0.55913 0.0
H1204 H 0.64109 0.40415 0.54778 0.0
H1205 H 0.64633 0.41697 0.56891 0.0
H1206 H 0.67856 0.42916 0.5647 0.0
H1207 H 0.7031 0.41056 0.56521 0.0
H1208 H 0.69832 0.2451 0.34026 0.0
H1209 H 0.69422 0.2631 0.36746 0.0
H1210 H 0.75176 0.27625 0.37722 0.0
H1211 H 0.75591 0.25864 0.34986 0.0
H1212 H 0.70863 0.25956 0.40425 0.0
H1213 H 0.73176 0.32421 0.37869 0.0
H1214 H 0.72521 0.30513 0.36358 0.0
H1215 H 0.74727 0.30825 0.37608 0.0
C1216 C 0.71005 0.25214 0.34794 0.0
C1217 C 0.72741 0.25079 0.34265 0.0
C1218 C 0.7077 0.26228 0.36359 0.0
C1219 C 0.72265 0.27131 0.37412 0.0
C1220 C 0.74 0.26971 0.36905 0.0
H1221 H 0.75022 0.30789 0.48313 0.0
H1222 H 0.74173 0.2915 0.45407 0.0
C1223 C 0.74236 0.25953 0.3535 0.0
C1224 C 0.72035 0.28188 0.39087 0.0
H1225 H 0.73121 0.32256 0.41136 0.0
C1226 C 0.71328 0.2734 0.40572 0.0
C1227 C 0.72611 0.3 0.39267 0.0
C1228 C 0.73285 0.31 0.37684 0.0
C1229 C 0.71292 0.28234 0.42269 0.0
C1230 C 0.71995 0.30014 0.42489 0.0
C1231 C 0.72593 0.30888 0.4097 0.0
C1232 C 0.72324 0.30932 0.44324 0.0
C1233 C 0.70543 0.27253 0.43828 0.0
C1234 C 0.71567 0.32488 0.44686 0.0
C1235 C 0.72051 0.33435 0.46363 0.0
C1236 C 0.73325 0.32856 0.47683 0.0
C1237 C 0.7404 0.31275 0.47326 0.0
C1238 C 0.73545 0.30327 0.45668 0.0
H1239 H 0.69555 0.26128 0.43306 0.0
H1240 H 0.71661 0.26732 0.44675 0.0
H1241 H 0.69877 0.28121 0.44725 0.0
H1242 H 0.70634 0.32985 0.43657 0.0
H1243 H 0.71487 0.34653 0.46593 0.0
H1244 H 0.51564 0.03458 0.9719 0.0
H1245 H 0.53346 0.02407 0.94846 0.0
H1246 H 0.48612 0.01757 0.90931 0.0
H1247 H 0.46825 0.02848 0.93254 0.0
H1248 H 0.53074 -0.0067 0.92921 0.0
H1249 H 0.52152 0.04693 0.88151 0.0
H1250 H 0.51536 0.04783 0.90473 0.0
H1251 H 0.50058 0.03572 0.88682 0.0
C1252 C 0.50899 0.03091 0.95831 0.0
C1253 C 0.49053 0.0325 0.95406 0.0
C1254 C 0.51921 0.02491 0.94493 0.0
C1255 C 0.51121 0.02037 0.92704 0.0
C1256 C 0.49268 0.02145 0.92289 0.0
H1257 H 0.55226 0.95732 0.84459 0.0
H1258 H 0.53698 0.96881 0.86952 0.0
C1259 C 0.48245 0.02756 0.93623 0.0
C1260 C 0.52223 0.0143 0.91284 0.0
H1261 H 0.53451 0.0224 0.86992 0.0
C1262 C 0.53165 -0.00029 0.91628 0.0
C1263 C 0.5237 0.02289 0.89613 0.0
C1264 C 0.51491 0.03932 0.89212 0.0
C1265 C 0.54211 -0.00679 0.90328 0.0
C1266 C 0.54282 0.00126 0.8862 0.0
C1267 C 0.5338 0.01613 0.88295 0.0
C1268 C 0.55248 -0.00575 0.87133 0.0
C1269 C 0.55246 0.97789 0.90809 0.0
C1270 C 0.56598 0.00488 0.86369 0.0
C1271 C 0.57463 -0.00159 0.84922 0.0
C1272 C 0.5699 0.98118 0.84212 0.0
C1273 C 0.55637 0.97059 0.84983 0.0
C1274 C 0.54768 0.9771 0.86418 0.0
H1275 H 0.55508 0.97688 0.92321 0.0
H1276 H 0.5444 0.96563 0.90253 0.0
H1277 H 0.56555 0.97894 0.90209 0.0
H1278 H 0.56981 0.0182 0.86893 0.0
H1279 H 0.58496 0.00692 0.84358 0.0
H1280 H 0.32934 0.28021 0.39175 0.0
H1281 H 0.32531 0.25376 0.40934 0.0
H1282 H 0.26762 0.25251 0.39826 0.0
H1283 H 0.27148 0.2786 0.38035 0.0
H1284 H 0.30775 0.24689 0.44003 0.0
H1285 H 0.27626 0.20391 0.38091 0.0
H1286 H 0.28739 0.22545 0.37809 0.0
H1287 H 0.26466 0.2228 0.38434 0.0
C1288 C 0.3158 0.27428 0.39302 0.0
C1289 C 0.30074 0.28141 0.38448 0.0
C1290 C 0.31352 0.25919 0.40311 0.0
C1291 C 0.29618 0.251 0.40482 0.0
C1292 C 0.28114 0.25837 0.39673 0.0
H1293 H 0.26561 0.17208 0.48234 0.0
H1294 H 0.27192 0.19955 0.46697 0.0
C1295 C 0.28338 0.27334 0.38655 0.0
C1296 C 0.29376 0.23473 0.41502 0.0
H1297 H 0.27488 0.19236 0.41056 0.0
C1298 C 0.30065 0.23492 0.43359 0.0
C1299 C 0.28471 0.21908 0.40651 0.0
C1300 C 0.27799 0.2177 0.38632 0.0
C1301 C 0.29848 0.21993 0.44397 0.0
C1302 C 0.28882 0.20447 0.43563 0.0
C1303 C 0.28214 0.20426 0.417 0.0
C1304 C 0.28578 0.18816 0.4457 0.0
C1305 C 0.30687 0.22071 0.46363 0.0
C1306 C 0.29118 0.17259 0.4387 0.0
C1307 C 0.28731 0.15688 0.44723 0.0
C1308 C 0.27802 0.1564 0.46303 0.0
C1309 C 0.2729 0.17206 0.47027 0.0
C1310 C 0.27661 0.18778 0.46157 0.0
H1311 H 0.31794 0.23154 0.4662 0.0
H1312 H 0.29645 0.22305 0.47293 0.0
H1313 H 0.31231 0.20824 0.46723 0.0
H1314 H 0.29825 0.17255 0.42647 0.0
H1315 H 0.29153 0.14507 0.44135 0.0
H1316 H 0.47981 0.46824 0.93953 0.0
H1317 H 0.45691 0.46959 0.91359 0.0
H1318 H 0.49854 0.4807 0.8776 0.0
H1319 H 0.52158 0.47955 0.90349 0.0
H1320 H 0.47253 0.50399 0.8752 0.0
H1321 H 0.44056 0.43558 0.86964 0.0
H1322 H 0.44212 0.44518 0.8925 0.0
H1323 H 0.46237 0.44186 0.88216 0.0
C1324 C 0.48412 0.47074 0.92606 0.0
C1325 C 0.50253 0.47382 0.92359 0.0
C1326 C 0.471 0.47141 0.91122 0.0
C1327 C 0.47604 0.47504 0.89363 0.0
C1328 C 0.49439 0.47779 0.89105 0.0
H1329 H 0.40722 0.49776 0.79447 0.0
H1330 H 0.43358 0.49216 0.81518 0.0
C1331 C 0.50752 0.47711 0.90587 0.0
C1332 C 0.46213 0.47722 0.8783 0.0
H1333 H 0.42399 0.4568 0.8543 0.0
C1334 C 0.46205 0.49361 0.87042 0.0
C1335 C 0.44852 0.46364 0.87209 0.0
C1336 C 0.44845 0.44552 0.8794 0.0
C1337 C 0.44822 0.49705 0.85709 0.0
C1338 C 0.43429 0.48363 0.85133 0.0
C1339 C 0.43468 0.46707 0.85879 0.0
C1340 C 0.41853 0.48682 0.83853 0.0
C1341 C 0.44819 0.5152 0.84988 0.0
C1342 C 0.40136 0.48538 0.84473 0.0
C1343 C 0.38633 0.4885 0.83299 0.0
C1344 C 0.38814 0.49306 0.81473 0.0
C1345 C 0.40537 0.49437 0.80848 0.0
C1346 C 0.42045 0.49124 0.82029 0.0
H1347 H 0.45792 0.52486 0.85829 0.0
H1348 H 0.45198 0.51506 0.83559 0.0
H1349 H 0.43454 0.51963 0.84961 0.0
H1350 H 0.3996 0.48198 0.85876 0.0
H1351 H 0.37328 0.48733 0.83827 0.0
H1352 H 0.74511 0.72216 0.20358 0.0
H1353 H 0.75171 0.70195 0.17929 0.0
H1354 H 0.71598 0.72575 0.14009 0.0
H1355 H 0.70907 0.74583 0.16434 0.0
H1356 H 0.71106 0.68963 0.1374 0.0
H1357 H 0.78348 0.7139 0.1382 0.0
H1358 H 0.77694 0.70748 0.16019 0.0
H1359 H 0.76781 0.72577 0.14944 0.0
C1360 C 0.73867 0.72312 0.18979 0.0
C1361 C 0.72663 0.73567 0.18588 0.0
C1362 C 0.74254 0.71161 0.1759 0.0
C1363 C 0.73457 0.71253 0.15782 0.0
C1364 C 0.72235 0.72487 0.15393 0.0
H1365 H 0.76697 0.66644 0.05833 0.0
H1366 H 0.76041 0.6859 0.08327 0.0
C1367 C 0.71843 0.73636 0.16781 0.0
C1368 C 0.73877 0.70049 0.14298 0.0
H1369 H 0.77321 0.68807 0.12002 0.0
C1370 C 0.72464 0.68929 0.13357 0.0
C1371 C 0.75646 0.70024 0.13786 0.0
C1372 C 0.77203 0.71259 0.14681 0.0
C1373 C 0.72775 0.6777 0.11931 0.0
C1374 C 0.74553 0.67709 0.11455 0.0
C1375 C 0.75962 0.68843 0.12382 0.0
C1376 C 0.74972 0.66511 0.09966 0.0
C1377 C 0.71191 0.6665 0.10919 0.0
C1378 C 0.74617 0.64692 0.10073 0.0
C1379 C 0.74986 0.63574 0.08646 0.0
C1380 C 0.7573 0.64253 0.07091 0.0
C1381 C 0.7612 0.66075 0.07008 0.0
C1382 C 0.75747 0.67191 0.08433 0.0
H1383 H 0.69893 0.6717 0.11123 0.0
H1384 H 0.71327 0.66556 0.09422 0.0
H1385 H 0.71134 0.65312 0.11447 0.0
H1386 H 0.74055 0.64137 0.11262 0.0
H1387 H 0.74679 0.62178 0.0876 0.0
H1388 H 0.98382 0.01349 0.09945 0.0
H1389 H 0.96435 0.00862 0.12427 0.0
H1390 H 0.98754 0.05764 0.15093 0.0
H1391 H 0.00677 0.06275 0.12614 0.0
H1392 H 0.97227 0.00644 0.16204 0.0
H1393 H 0.93383 0.06286 0.14662 0.0
H1394 H 0.94833 0.05455 0.13091 0.0
H1395 H 0.95774 0.06876 0.15021 0.0
C1396 C 0.98482 0.0232 0.11063 0.0
C1397 C -0.00326 0.03859 0.11071 0.0
C1398 C 0.97367 0.02041 0.12479 0.0
C1399 C 0.9742 0.03295 0.13924 0.0
C1400 C 0.98655 0.048 0.13968 0.0
H1401 H 0.92466 0.04538 0.23949 0.0
H1402 H 0.94243 0.04772 0.21321 0.0
C1403 C -0.00236 0.05084 0.12553 0.0
C1404 C 0.9619 0.03039 0.1539 0.0
H1405 H 0.9298 0.04947 0.1751 0.0
C1406 C 0.96286 0.01575 0.1648 0.0
C1407 C 0.94956 0.04251 0.15743 0.0
C1408 C 0.94713 0.05796 0.14557 0.0
C1409 C 0.95227 0.01324 0.17954 0.0
C1410 C 0.94027 0.0256 0.18331 0.0
C1411 C 0.93908 0.04006 0.17222 0.0
C1412 C 0.92921 0.02407 0.19906 0.0
C1413 C 0.95441 -0.0023 0.19132 0.0
C1414 C 0.91567 0.01013 0.19968 0.0
C1415 C 0.9054 0.00878 0.21467 0.0
C1416 C 0.90851 0.02136 0.22933 0.0
C1417 C 0.92193 0.03544 0.22849 0.0
C1418 C 0.93211 0.03681 0.21348 0.0
H1419 H 0.96673 0.99145 0.18894 0.0
H1420 H 0.95503 0.00162 0.20613 0.0
H1421 H 0.94257 0.98782 0.18801 0.0
H1422 H 0.91301 0.00032 0.18854 0.0
H1423 H 0.89516 -0.00221 0.21485 0.0
H1424 H 0.24734 0.78422 0.2255 0.0
H1425 H 0.24289 0.80451 0.20072 0.0
H1426 H 0.2593 0.7672 0.16224 0.0
H1427 H 0.26348 0.74678 0.18678 0.0
H1428 H 0.26746 0.81953 0.17958 0.0
H1429 H 0.21326 0.78028 0.13499 0.0
H1430 H 0.21943 0.77505 0.15851 0.0
H1431 H 0.23216 0.7682 0.14044 0.0
C1432 C 0.24987 0.78028 0.21173 0.0
C1433 C 0.25571 0.76384 0.20811 0.0
C1434 C 0.2473 0.79189 0.19758 0.0
C1435 C 0.25041 0.78725 0.17955 0.0
C1436 C 0.25633 0.77089 0.17594 0.0
H1437 H 0.28617 0.84268 0.09114 0.0
H1438 H 0.28114 0.8291 0.11999 0.0
C1439 C 0.25886 0.75927 0.19004 0.0
C1440 C 0.24859 0.79983 0.16465 0.0
H1441 H 0.23052 0.80317 0.12035 0.0
C1442 C 0.25913 0.81608 0.16675 0.0
C1443 C 0.23743 0.79554 0.14804 0.0
C1444 C 0.22478 0.77889 0.14542 0.0
C1445 C 0.25974 0.8276 0.15226 0.0
C1446 C 0.24979 0.82261 0.13512 0.0
C1447 C 0.23831 0.80692 0.13342 0.0
C1448 C 0.25273 0.8324 0.11831 0.0
C1449 C 0.27137 0.84484 0.15531 0.0
C1450 C 0.23835 0.83866 0.10758 0.0
C1451 C 0.24118 0.84647 0.09086 0.0
C1452 C 0.25838 0.84785 0.08453 0.0
C1453 C 0.27274 0.84184 0.09555 0.0
C1454 C 0.26993 0.83418 0.11218 0.0
H1455 H 0.27283 0.84932 0.17002 0.0
H1456 H 0.28504 0.84324 0.15135 0.0
H1457 H 0.26571 0.85512 0.1469 0.0
H1458 H 0.22492 0.83726 0.11199 0.0
H1459 H 0.22983 0.85089 0.08265 0.0
H1460 H 0.95149 0.44534 0.14295 0.0
H1461 H 0.9757 0.45485 0.16697 0.0
H1462 H 0.01217 0.46657 0.12584 0.0
H1463 H 0.98808 0.45671 0.10164 0.0
H1464 H 0.02587 0.44607 0.15135 0.0
H1465 H 0.00055 0.50176 0.18628 0.0
H1466 H 0.98407 0.483 0.18421 0.0
H1467 H 0.99095 0.49317 0.1638 0.0
C1468 C 0.96456 0.45021 0.13896 0.0
C1469 C 0.96787 0.45017 0.12037 0.0
C1470 C 0.97837 0.4558 0.15273 0.0
C1471 C -0.00432 0.46167 0.14819 0.0
C1472 C -0.00112 0.46219 0.12963 0.0
H1473 H 0.07728 0.49198 0.24177 0.0
H1474 H 0.05973 0.4934 0.21185 0.0
C1475 C 0.98509 0.45654 0.11583 0.0
C1476 C 0.01077 0.46532 0.16289 0.0
H1477 H 0.02253 0.48675 0.20453 0.0
C1478 C 0.02532 0.45523 0.1628 0.0
C1479 C 0.01025 0.47749 0.17767 0.0
C1480 C -0.0043 0.4896 0.1779 0.0
C1481 C 0.0387 0.45612 0.17768 0.0
C1482 C 0.03727 0.46712 0.19318 0.0
C1483 C 0.02345 0.47812 0.19273 0.0
C1484 C 0.0489 0.46618 0.21058 0.0
C1485 C 0.05399 0.44493 0.17687 0.0
C1486 C 0.04853 0.45043 0.21974 0.0
C1487 C 0.05847 0.44956 0.23675 0.0
C1488 C 0.06891 0.46448 0.24504 0.0
C1489 C 0.06942 0.48024 0.23573 0.0
C1490 C 0.05941 0.48109 0.21867 0.0
H1491 H 0.0565 0.442 0.16243 0.0
H1492 H 0.06663 0.45139 0.18443 0.0
H1493 H 0.05042 0.43231 0.18325 0.0
H1494 H 0.04018 0.43887 0.21392 0.0
H1495 H 0.0577 0.43724 0.24354 0.0
H1496 H 0.32641 0.74756 0.27485 0.0
H1497 H 0.35711 0.7515 0.29039 0.0
H1498 H 0.35027 0.69897 0.30933 0.0
H1499 H 0.3198 0.6948 0.2937 0.0
H1500 H 0.36707 0.74924 0.3278 0.0
H1501 H 0.39848 0.7004 0.2877 0.0
H1502 H 0.37722 0.70807 0.27982 0.0
H1503 H 0.3782 0.69178 0.29689 0.0
C1504 C 0.3315 0.73678 0.28216 0.0
C1505 C 0.32063 0.72085 0.28297 0.0
C1506 C 0.34903 0.73907 0.29105 0.0
C1507 C 0.35606 0.72544 0.30078 0.0
C1508 C 0.34528 0.70952 0.30156 0.0
H1509 H 0.45567 0.71971 0.37248 0.0
H1510 H 0.42585 0.71295 0.35515 0.0
C1511 C 0.32779 0.70722 0.2927 0.0
C1512 C 0.3743 0.72816 0.31097 0.0
H1513 H 0.41563 0.71284 0.31492 0.0
C1514 C 0.37771 0.74134 0.32492 0.0
C1515 C 0.38811 0.71772 0.30728 0.0
C1516 C 0.38542 0.7038 0.292 0.0
C1517 C 0.39452 0.74431 0.33538 0.0
C1518 C 0.40836 0.73397 0.33161 0.0
C1519 C 0.40494 0.72067 0.31779 0.0
C1520 C 0.42671 0.73743 0.34134 0.0
C1521 C 0.39732 0.75839 0.35051 0.0
C1522 C 0.43716 0.75319 0.33892 0.0
C1523 C 0.4541 0.75706 0.34869 0.0
C1524 C 0.46101 0.74521 0.36111 0.0
C1525 C 0.45074 0.72913 0.36308 0.0
C1526 C 0.43372 0.72525 0.35321 0.0
H1527 H 0.38432 0.76216 0.35459 0.0
H1528 H 0.40526 0.75404 0.36283 0.0
H1529 H 0.40495 0.77019 0.34561 0.0
H1530 H 0.43209 0.76263 0.32959 0.0
H1531 H 0.46165 0.76951 0.34668 0.0
H1532 H 0.93151 0.3728 0.0299 0.0
H1533 H 0.93735 0.34799 0.01039 0.0
H1534 H -0.00608 0.35682 0.02967 0.0
H1535 H 0.98814 0.38114 0.04951 0.0
H1536 H 0.95701 0.34875 0.98261 0.0
H1537 H 0.98585 0.30493 0.03313 0.0
H1538 H 0.97425 0.32314 0.03985 0.0
H1539 H -0.00227 0.32642 0.03601 0.0
C1540 C 0.94514 0.36928 0.03016 0.0
C1541 C 0.95935 0.37894 0.04127 0.0
C1542 C 0.94846 0.35508 0.01904 0.0
C1543 C 0.96602 0.35029 0.01882 0.0
C1544 C 0.98017 0.35987 0.03001 0.0
H1545 H 0.01353 0.30867 0.92886 0.0
H1546 H 0.00336 0.32537 0.95398 0.0
C1547 C 0.97686 0.37393 0.04122 0.0
C1548 C 0.96995 0.33647 0.00564 0.0
H1549 H -0.00647 0.30105 0.00188 0.0
C1550 C 0.96473 0.33816 0.98689 0.0
C1551 C 0.97977 0.32243 0.01118 0.0
C1552 C 0.98453 0.31901 0.03117 0.0
C1553 C 0.96988 0.32682 0.97348 0.0
C1554 C 0.98099 0.31372 0.97893 0.0
C1555 C 0.98534 0.31134 -0.00229 0.0
C1556 C 0.98884 0.30305 0.96519 0.0
C1557 C 0.96351 0.32912 0.95357 0.0
C1558 C 0.985 0.28478 0.96386 0.0
C1559 C 0.99107 0.2751 0.9496 0.0
C1560 C 0.00099 0.2836 0.93648 0.0
C1561 C 0.00569 0.30176 0.93859 0.0
C1562 C -0.0002 0.31135 0.95287 0.0
H1563 H 0.95091 0.33561 0.95219 0.0
H1564 H 0.97399 0.33752 0.94726 0.0
H1565 H 0.96106 0.31637 0.94573 0.0
H1566 H 0.97673 0.27812 0.97338 0.0
H1567 H 0.98723 0.26112 0.94832 0.0
H1568 H 0.65257 0.77573 0.27126 0.0
H1569 H 0.62941 0.76792 0.29168 0.0
H1570 H 0.66565 0.73772 0.32342 0.0
H1571 H 0.6891 0.74566 0.30313 0.0
H1572 H 0.61304 0.73526 0.30188 0.0
H1573 H 0.65193 0.7735 0.36134 0.0
H1574 H 0.65774 0.77578 0.3381 0.0
H1575 H 0.66306 0.75694 0.35055 0.0
C1576 C 0.65562 0.76731 0.28248 0.0
C1577 C 0.67277 0.76147 0.28566 0.0
C1578 C 0.64233 0.76282 0.29412 0.0
C1579 C 0.64589 0.75244 0.30921 0.0
C1580 C 0.66273 0.74597 0.31202 0.0
H1581 H 0.55526 0.7263 0.37669 0.0
H1582 H 0.58223 0.72205 0.36112 0.0
C1583 C 0.67607 0.75046 0.30036 0.0
C1584 C 0.63217 0.74929 0.32236 0.0
H1585 H 0.62272 0.76122 0.36545 0.0
C1586 C 0.61522 0.74063 0.31589 0.0
C1587 C 0.63507 0.75644 0.3406 0.0
C1588 C 0.65287 0.7663 0.34812 0.0
C1589 C 0.60085 0.73956 0.32693 0.0
C1590 C 0.6036 0.74722 0.34494 0.0
C1591 C 0.62075 0.75522 0.35168 0.0
C1592 C 0.5883 0.74943 0.35585 0.0
C1593 C 0.58256 0.73118 0.31891 0.0
C1594 C 0.58316 0.76623 0.35848 0.0
C1595 C 0.56788 0.76868 0.36725 0.0
C1596 C 0.55743 0.75437 0.37374 0.0
C1597 C 0.56302 0.73757 0.37183 0.0
C1598 C 0.57834 0.73511 0.36287 0.0
H1599 H 0.58226 0.7275 0.30407 0.0
H1600 H 0.57886 0.7192 0.32636 0.0
H1601 H 0.57218 0.74022 0.32063 0.0
H1602 H 0.59068 0.77745 0.3532 0.0
H1603 H 0.56406 0.78181 0.36861 0.0
H1604 H 0.006 0.07784 0.01519 0.0
H1605 H 0.00315 0.10086 -0.00674 0.0
H1606 H 0.05635 0.09504 0.97797 0.0
H1607 H 0.05942 0.07188 5e-05 0.0
H1608 H 0.04971 0.13032 0.98591 0.0
H1609 H -0.00426 0.09583 0.93657 0.0
H1610 H 0.99082 0.09543 0.96011 0.0
H1611 H 0.00925 0.0845 0.95313 0.0
C1612 C 0.0171 0.08132 0.0071 0.0
C1613 C 0.03295 0.07294 0.00939 0.0
C1614 C 0.01538 0.09444 -0.00552 0.0
C1615 C 0.02943 0.09951 0.98381 0.0
C1616 C 0.04529 0.09123 0.986 0.0
H1617 H 0.0208 0.17079 0.89328 0.0
H1618 H 0.0257 0.14565 0.91213 0.0
C1619 C 0.047 0.07798 -0.00141 0.0
C1620 C 0.0277 0.11396 0.97096 0.0
H1621 H 0.00169 0.12663 0.93376 0.0
C1622 C 0.03931 0.12947 0.97441 0.0
C1623 C 0.01423 0.11278 0.95588 0.0
C1624 C 0.00188 0.09619 0.95104 0.0
C1625 C 0.03744 0.14403 0.96352 0.0
C1626 C 0.02348 0.1431 0.94891 0.0
C1627 C 0.01225 0.12739 0.94509 0.0
C1628 C 0.02026 0.15832 0.93749 0.0
C1629 C 0.05046 0.16029 0.9677 0.0
C1630 C 0.01524 0.17369 0.94542 0.0
C1631 C 0.01236 0.18807 0.93468 0.0
C1632 C 0.01441 0.18736 0.91576 0.0
C1633 C 0.01915 0.17182 0.9078 0.0
C1634 C 0.02196 0.15742 0.91855 0.0
H1635 H 0.06291 0.15748 0.97611 0.0
H1636 H 0.05427 0.1663 0.95483 0.0
H1637 H 0.04392 0.16998 0.97556 0.0
H1638 H 0.01353 0.17455 0.95994 0.0
H1639 H 0.00867 0.19979 0.94126 0.0
H1640 H 0.37604 0.32371 0.3211 0.0
H1641 H 0.39062 0.31637 0.29381 0.0
H1642 H 0.33869 0.30702 0.26215 0.0
H1643 H 0.32396 0.31443 0.28934 0.0
H1644 H 0.38464 0.28426 0.27209 0.0
H1645 H 0.3685 0.34155 0.23156 0.0
H1646 H 0.36712 0.34098 0.25606 0.0
H1647 H 0.34966 0.32938 0.24039 0.0
C1648 C 0.36771 0.32017 0.30832 0.0
C1649 C 0.34884 0.31972 0.30737 0.0
C1650 C 0.37607 0.31596 0.29276 0.0
C1651 C 0.36574 0.31136 0.27595 0.0
C1652 C 0.34691 0.31082 0.27494 0.0
H1653 H 0.39347 0.28346 0.16703 0.0
H1654 H 0.37786 0.29003 0.19384 0.0
C1655 C 0.33852 0.31498 0.29051 0.0
C1656 C 0.3747 0.30678 0.25957 0.0
H1657 H 0.38247 0.31975 0.21659 0.0
C1658 C 0.38422 0.29202 0.25996 0.0
C1659 C 0.37402 0.31691 0.24377 0.0
C1660 C 0.36441 0.33318 0.24287 0.0
C1661 C 0.39296 0.28699 0.24484 0.0
C1662 C 0.39246 0.29723 0.2291 0.0
C1663 C 0.38283 0.31193 0.22868 0.0
C1664 C 0.40199 0.29303 0.21296 0.0
C1665 C 0.40232 0.27056 0.24573 0.0
C1666 C 0.42076 0.29274 0.2148 0.0
C1667 C 0.42972 0.28892 0.19953 0.0
C1668 C 0.4201 0.2855 0.18208 0.0
C1669 C 0.4013 0.28601 0.18027 0.0
C1670 C 0.39235 0.28977 0.19556 0.0
H1671 H 0.39722 0.26176 0.25626 0.0
H1672 H 0.4005 0.26328 0.23222 0.0
H1673 H 0.41697 0.27413 0.2495 0.0
H1674 H 0.42851 0.29562 0.22803 0.0
H1675 H 0.44421 0.28877 0.20141 0.0
H1676 H 0.52211 0.43464 0.03164 0.0
H1677 H 0.5114 0.41404 0.05396 0.0
H1678 H 0.52644 0.3713 0.02131 0.0
H1679 H 0.53785 0.39191 -0.00064 0.0
H1680 H 0.48513 0.3889 0.04997 0.0
H1681 H 0.5478 0.35951 0.07082 0.0
H1682 H 0.54766 0.37883 0.05749 0.0
H1683 H 0.54217 0.35744 0.04642 0.0
C1684 C 0.52331 0.42087 0.02933 0.0
C1685 C 0.5309 0.4149 0.01379 0.0
C1686 C 0.51718 0.4091 0.0421 0.0
C1687 C 0.51839 0.39112 0.03953 0.0
C1688 C 0.52586 0.38513 0.02393 0.0
H1689 H 0.45048 0.30875 0.08387 0.0
H1690 H 0.46446 0.33136 0.06563 0.0
C1691 C 0.53225 0.39692 0.0113 0.0
C1692 C 0.51086 0.37857 0.05256 0.0
H1693 H 0.5203 0.34377 0.0783 0.0
C1694 C 0.4929 0.37915 0.0563 0.0
C1695 C 0.52105 0.36603 0.06113 0.0
C1696 C 0.54079 0.36553 0.05892 0.0
C1697 C 0.48472 0.36727 0.06792 0.0
C1698 C 0.49454 0.35402 0.07552 0.0
C1699 C 0.51266 0.35375 0.07225 0.0
C1700 C 0.48619 0.34014 0.08663 0.0
C1701 C 0.46568 0.36924 0.07208 0.0
C1702 C 0.49413 0.33704 0.10427 0.0
C1703 C 0.48634 0.32384 0.11463 0.0
C1704 C 0.4704 0.31356 0.10756 0.0
C1705 C 0.4626 0.3166 0.08983 0.0
C1706 C 0.47052 0.32961 0.07941 0.0
H1707 H 0.46247 0.38291 0.07052 0.0
H1708 H 0.45611 0.36077 0.06223 0.0
H1709 H 0.46347 0.36538 0.08625 0.0
H1710 H 0.5063 0.34491 0.11008 0.0
H1711 H 0.49271 0.32179 0.12821 0.0
H1712 H 0.65947 0.25461 0.23902 0.0
H1713 H 0.63134 0.25856 0.22059 0.0
H1714 H 0.60555 0.26577 0.27003 0.0
H1715 H 0.63376 0.26199 0.28868 0.0
H1716 H 0.59804 0.23802 0.22117 0.0
H1717 H 0.59304 0.30784 0.23957 0.0
H1718 H 0.61374 0.29788 0.24382 0.0
H1719 H 0.59615 0.29392 0.25865 0.0
C1720 C 0.64787 0.25716 0.24603 0.0
C1721 C 0.64887 0.25801 0.26534 0.0
C1722 C 0.6318 0.2594 0.23545 0.0
C1723 C 0.61644 0.26264 0.24394 0.0
C1724 C 0.61736 0.26358 0.26321 0.0
H1725 H 0.50705 0.27596 0.1985 0.0
H1726 H 0.53443 0.2734 0.21895 0.0
C1727 C 0.63346 0.26133 0.27384 0.0
C1728 C 0.59931 0.26431 0.23252 0.0
H1729 H 0.56841 0.29273 0.22087 0.0
C1730 C 0.59156 0.24998 0.22108 0.0
C1731 C 0.59086 0.2799 0.23253 0.0
C1732 C 0.5989 0.29584 0.24418 0.0
C1733 C 0.57553 0.2508 0.20966 0.0
C1734 C 0.56724 0.26648 0.20942 0.0
C1735 C 0.57484 0.28074 0.22106 0.0
C1736 C 0.55079 0.2684 0.19699 0.0
C1737 C 0.56748 0.23476 0.19816 0.0
C1738 C 0.55102 0.26676 0.17785 0.0
C1739 C 0.53541 0.26817 0.16613 0.0
C1740 C 0.51929 0.27139 0.17332 0.0
C1741 C 0.51922 0.27342 0.1925 0.0
C1742 C 0.53484 0.27198 0.20422 0.0
H1743 H 0.57257 0.22268 0.2036 0.0
H1744 H 0.55255 0.23326 0.19758 0.0
H1745 H 0.57125 0.23605 0.18393 0.0
H1746 H 0.56329 0.26437 0.17197 0.0
H1747 H 0.53598 0.26666 0.15143 0.0
H1748 H 0.50024 0.09568 0.06803 0.0
H1749 H 0.49536 0.12112 0.08702 0.0
H1750 H 0.44292 0.12246 0.0574 0.0
H1751 H 0.44756 0.09693 0.03848 0.0
H1752 H 0.48976 0.1535 0.07347 0.0
H1753 H 0.43243 0.12798 0.11093 0.0
H1754 H 0.44602 0.11384 0.0995 0.0
H1755 H 0.42851 0.12385 0.0865 0.0
C1756 C 0.48755 0.10122 0.06572 0.0
C1757 C 0.4743 0.0943 0.05171 0.0
C1758 C 0.48479 0.11575 0.0766 0.0
C1759 C 0.4687 0.12354 0.07376 0.0
C1760 C 0.45528 0.11643 0.06008 0.0
H1761 H 0.42783 0.21907 0.10355 0.0
H1762 H 0.43298 0.19003 0.0922 0.0
C1763 C 0.45802 0.1019 0.04919 0.0
C1764 C 0.46656 0.13997 0.08398 0.0
H1765 H 0.43891 0.15909 0.11109 0.0
C1766 C 0.47879 0.15469 0.0819 0.0
C1767 C 0.4522 0.14146 0.09491 0.0
C1768 C 0.43913 0.1259 0.09826 0.0
C1769 C 0.47667 0.17103 0.08991 0.0
C1770 C 0.46209 0.17261 0.10052 0.0
C1771 C 0.45007 0.15782 0.10292 0.0
C1772 C 0.45863 0.18971 0.10846 0.0
C1773 C 0.48963 0.18662 0.08632 0.0
C1774 C 0.47119 0.19897 0.12166 0.0
C1775 C 0.46833 0.21563 0.12815 0.0
C1776 C 0.4528 0.22325 0.12161 0.0
C1777 C 0.43997 0.21364 0.10882 0.0
C1778 C 0.44286 0.19702 0.10234 0.0
H1779 H 0.49763 0.18394 0.07474 0.0
H1780 H 0.4823 0.19816 0.08317 0.0
H1781 H 0.49916 0.19 0.09881 0.0
H1782 H 0.48331 0.19341 0.12677 0.0
H1783 H 0.47842 0.22261 0.13809 0.0
H1784 H 0.258 0.32264 0.75942 0.0
H1785 H 0.27395 0.35168 0.75758 0.0
H1786 H 0.2599 0.34986 0.69891 0.0
H1787 H 0.24361 0.32072 0.70062 0.0
H1788 H 0.30265 0.36379 0.73749 0.0
H1789 H 0.24021 0.39473 0.71694 0.0
H1790 H 0.23959 0.37311 0.72588 0.0
H1791 H 0.24466 0.37654 0.7027 0.0
C1792 C 0.25834 0.32832 0.74608 0.0
C1793 C 0.24937 0.31938 0.73018 0.0
C1794 C 0.26752 0.34493 0.74505 0.0
C1795 C 0.26791 0.35302 0.72815 0.0
C1796 C 0.25951 0.34395 0.71214 0.0
H1797 H 0.33472 0.45532 0.73186 0.0
H1798 H 0.32116 0.42637 0.71958 0.0
C1799 C 0.25029 0.32727 0.71314 0.0
C1800 C 0.27663 0.37118 0.72772 0.0
H1801 H 0.26715 0.41332 0.7227 0.0
C1802 C 0.295 0.37463 0.73396 0.0
C1803 C 0.26653 0.38526 0.7232 0.0
C1804 C 0.24663 0.38236 0.71691 0.0
C1805 C 0.30338 0.39183 0.73659 0.0
C1806 C 0.29315 0.40593 0.73261 0.0
C1807 C 0.27497 0.40246 0.72559 0.0
C1808 C 0.30031 0.42423 0.73812 0.0
C1809 C 0.32282 0.39478 0.74467 0.0
C1810 C 0.29263 0.43289 0.75203 0.0
C1811 C 0.30024 0.44935 0.75898 0.0
C1812 C 0.31571 0.45759 0.75213 0.0
C1813 C 0.32286 0.4493 0.73749 0.0
C1814 C 0.3152 0.43273 0.73054 0.0
H1815 H 0.32796 0.38254 0.74956 0.0
H1816 H 0.33129 0.39999 0.73404 0.0
H1817 H 0.32442 0.40454 0.75637 0.0
H1818 H 0.2811 0.4266 0.75804 0.0
H1819 H 0.29428 0.45538 0.77015 0.0
H1820 H 0.28228 0.6908 0.7836 0.0
H1821 H 0.2994 0.66621 0.77732 0.0
H1822 H 0.25444 0.63006 0.78894 0.0
H1823 H 0.23722 0.65447 0.79516 0.0
H1824 H 0.30888 0.63988 0.80118 0.0
H1825 H 0.26679 0.6117 0.73869 0.0
H1826 H 0.26563 0.63366 0.74762 0.0
H1827 H 0.25403 0.61531 0.75773 0.0
C1828 C 0.27601 0.67761 0.78477 0.0
C1829 C 0.25835 0.6746 0.78984 0.0
C1830 C 0.28581 0.66359 0.78115 0.0
C1831 C 0.27808 0.64631 0.78234 0.0
C1832 C 0.26053 0.64328 0.78755 0.0
H1833 H 0.31648 0.54956 0.80377 0.0
H1834 H 0.30569 0.57827 0.80307 0.0
C1835 C 0.25076 0.65727 0.79124 0.0
C1836 C 0.28854 0.63139 0.77895 0.0
H1837 H 0.28694 0.59309 0.75368 0.0
C1838 C 0.30425 0.62978 0.79061 0.0
C1839 C 0.28265 0.61836 0.76497 0.0
C1840 C 0.26645 0.61988 0.75141 0.0
C1841 C 0.3136 0.61498 0.78935 0.0
C1842 C 0.307 0.60141 0.77619 0.0
C1843 C 0.29192 0.60347 0.76383 0.0
C1844 C 0.31436 0.58426 0.77643 0.0
C1845 C 0.33023 0.61375 0.80243 0.0
C1846 C 0.32264 0.57796 0.7615 0.0
C1847 C 0.32894 0.56141 0.76185 0.0
C1848 C 0.32675 0.55084 0.77701 0.0
C1849 C 0.31839 0.55729 0.79184 0.0
C1850 C 0.31229 0.57378 0.79155 0.0
H1851 H 0.33637 0.62687 0.80791 0.0
H1852 H 0.32649 0.60592 0.81423 0.0
H1853 H 0.34046 0.60719 0.79558 0.0
H1854 H 0.32421 0.58584 0.74963 0.0
H1855 H 0.33526 0.5568 0.75019 0.0
H1856 H 0.87366 0.5251 0.46728 0.0
H1857 H 0.84753 0.50473 0.47255 0.0
H1858 H 0.87815 0.48483 0.51881 0.0
H1859 H 0.90422 0.50526 0.51382 0.0
H1860 H 0.84568 0.46904 0.47126 0.0
H1861 H 0.83118 0.49274 0.5399 0.0
H1862 H 0.84541 0.50565 0.52571 0.0
H1863 H 0.85431 0.48887 0.53936 0.0
C1864 C 0.87478 0.51652 0.4787 0.0
C1865 C 0.89103 0.51681 0.49014 0.0
C1866 C 0.85982 0.5049 0.48169 0.0
C1867 C 0.86079 0.49347 0.49625 0.0
C1868 C 0.87695 0.49383 0.50777 0.0
H1869 H 0.81017 0.39257 0.51053 0.0
H1870 H 0.8287 0.41925 0.50458 0.0
C1871 C 0.8919 0.50542 0.5048 0.0
C1872 C 0.84544 0.48023 0.49859 0.0
H1873 H 0.8186 0.46342 0.53033 0.0
C1874 C 0.83956 0.46799 0.48408 0.0
C1875 C 0.83726 0.479 0.51521 0.0
C1876 C 0.84223 0.49238 0.53087 0.0
C1877 C 0.82647 0.45399 0.48611 0.0
C1878 C 0.81922 0.45208 0.50316 0.0
C1879 C 0.82432 0.46484 0.51733 0.0
C1880 C 0.80764 0.43611 0.50699 0.0
C1881 C 0.82076 0.44112 0.47011 0.0
C1882 C 0.78972 0.43682 0.51077 0.0
C1883 C 0.77897 0.42148 0.51421 0.0
C1884 C 0.7861 0.40527 0.51411 0.0
C1885 C 0.80417 0.40478 0.51064 0.0
C1886 C 0.8148 0.42002 0.50714 0.0
H1887 H 0.82347 0.44696 0.45682 0.0
H1888 H 0.8285 0.42965 0.47176 0.0
H1889 H 0.80619 0.43645 0.46955 0.0
H1890 H 0.78402 0.44918 0.51084 0.0
H1891 H 0.76513 0.42232 0.5169 0.0
H1892 H 0.77796 0.89586 0.86018 0.0
H1893 H 0.75467 0.91448 0.85 0.0
H1894 H 0.72917 0.8734 0.81189 0.0
H1895 H 0.75245 0.85474 0.82181 0.0
H1896 H 0.72987 0.90842 0.79809 0.0
H1897 H 0.70348 0.90227 0.86643 0.0
H1898 H 0.72687 0.91036 0.86667 0.0
H1899 H 0.71934 0.88829 0.85867 0.0
C1900 C 0.76756 0.89086 0.84943 0.0
C1901 C 0.76692 0.87371 0.842 0.0
C1902 C 0.75425 0.90152 0.84367 0.0
C1903 C 0.74008 0.89519 0.83042 0.0
C1904 C 0.73999 0.87849 0.82219 0.0
H1905 H 0.63107 0.91615 0.81025 0.0
H1906 H 0.66007 0.90462 0.81619 0.0
C1907 C 0.75328 0.86782 0.82792 0.0
C1908 C 0.72451 0.90526 0.82624 0.0
H1909 H 0.68793 0.91862 0.84479 0.0
C1910 C 0.72078 0.91084 0.80831 0.0
C1911 C 0.71261 0.90818 0.83961 0.0
C1912 C 0.71561 0.90188 0.8589 0.0
C1913 C 0.70526 0.91912 0.80334 0.0
C1914 C 0.69332 0.92187 0.81668 0.0
C1915 C 0.69722 0.91655 0.83466 0.0
C1916 C 0.67594 0.929 0.81203 0.0
C1917 C 0.70137 0.92428 0.78375 0.0
C1918 C 0.67531 0.94657 0.8077 0.0
C1919 C 0.65868 0.95327 0.80433 0.0
C1920 C 0.64247 0.94249 0.80527 0.0
C1921 C 0.64326 0.92484 0.80941 0.0
C1922 C 0.65982 0.91821 0.81281 0.0
H1923 H 0.71068 0.9191 0.77453 0.0
H1924 H 0.68728 0.91946 0.77842 0.0
H1925 H 0.70282 0.93875 0.78328 0.0
H1926 H 0.68765 0.95515 0.80725 0.0
H1927 H 0.65855 0.96692 0.8012 0.0
H1928 H 0.60873 0.47837 0.99124 0.0
H1929 H 0.63599 0.49888 -0.00269 0.0
H1930 H 0.60387 0.53972 0.01135 0.0
H1931 H 0.57653 0.51939 0.00516 0.0
H1932 H 0.62657 0.54873 0.98472 0.0
H1933 H 0.66412 0.52159 0.04441 0.0
H1934 H 0.65673 0.50574 0.02598 0.0
H1935 H 0.64033 0.51555 0.03809 0.0
C1936 C 0.60747 0.49163 -0.00404 0.0
C1937 C 0.59043 0.49726 -0.00239 0.0
C1938 C 0.62309 0.50331 -0.00048 0.0
C1939 C 0.62195 0.52078 0.00493 0.0
C1940 C 0.60503 0.52627 0.00725 0.0
H1941 H 0.71743 0.59709 0.0295 0.0
H1942 H 0.68817 0.58014 0.03143 0.0
C1943 C 0.58942 0.51461 0.00371 0.0
C1944 C 0.63815 0.53368 0.00631 0.0
H1945 H 0.68101 0.54241 0.0273 0.0
C1946 C 0.63839 0.54748 -0.0058 0.0
C1947 C 0.65348 0.53211 0.01879 0.0
C1948 C 0.65365 0.51805 0.03269 0.0
C1949 C 0.65382 0.55935 -0.00629 0.0
C1950 C 0.66946 0.55723 0.00551 0.0
C1951 C 0.66901 0.54389 0.01817 0.0
C1952 C 0.6867 0.56809 0.00415 0.0
C1953 C 0.65336 0.57395 0.98043 0.0
C1954 C 0.69548 0.56689 0.98817 0.0
C1955 C 0.71216 0.57647 0.98702 0.0
C1956 C 0.72038 0.58746 0.00186 0.0
C1957 C 0.71141 0.58883 0.01779 0.0
C1958 C 0.69475 0.57912 0.01896 0.0
H1959 H 0.63933 0.57656 0.97597 0.0
H1960 H 0.66099 0.58618 0.98667 0.0
H1961 H 0.65972 0.57021 0.96802 0.0
H1962 H 0.68959 0.55825 0.97669 0.0
H1963 H 0.7187 0.57507 0.97457 0.0
H1964 H 0.21303 0.65587 0.25422 0.0
H1965 H 0.19084 0.6307 0.25726 0.0
H1966 H 0.20449 0.63349 0.31602 0.0
H1967 H 0.22641 0.65872 0.31317 0.0
H1968 H 0.19852 0.59922 0.27119 0.0
H1969 H 0.14977 0.62822 0.312 0.0
H1970 H 0.16612 0.64137 0.30029 0.0
H1971 H 0.17262 0.63262 0.32219 0.0
C1972 C 0.2111 0.6513 0.26782 0.0
C1973 C 0.22149 0.65931 0.28345 0.0
C1974 C 0.19843 0.63691 0.26952 0.0
C1975 C 0.19584 0.63037 0.28689 0.0
C1976 C 0.20596 0.63855 0.30253 0.0
H1977 H 0.14525 0.53781 0.33141 0.0
H1978 H 0.16167 0.56601 0.32583 0.0
C1979 C 0.21859 0.65292 0.30085 0.0
C1980 C 0.18368 0.61417 0.2886 0.0
H1981 H 0.14831 0.59696 0.31079 0.0
C1982 C 0.18738 0.59876 0.27964 0.0
C1983 C 0.16922 0.61361 0.2997 0.0
C1984 C 0.16406 0.62987 0.30896 0.0
C1985 C 0.1774 0.58268 0.28199 0.0
C1986 C 0.16319 0.58205 0.2934 0.0
C1987 C 0.15926 0.5975 0.3021 0.0
C1988 C 0.15256 0.56538 0.29681 0.0
C1989 C 0.18253 0.56637 0.27276 0.0
C1990 C 0.14175 0.55588 0.28239 0.0
C1991 C 0.13236 0.53977 0.28551 0.0
C1992 C 0.13358 0.5329 0.30314 0.0
C1993 C 0.14408 0.54268 0.31766 0.0
C1994 C 0.15344 0.55881 0.31451 0.0
H1995 H 0.19608 0.56851 0.26775 0.0
H1996 H 0.18244 0.55546 0.28234 0.0
H1997 H 0.17256 0.56235 0.26076 0.0
H1998 H 0.14068 0.56087 0.26868 0.0
H1999 H 0.12432 0.53263 0.27404 0.0
H2000 H 0.87213 0.47081 0.1005 0.0
H2001 H 0.85748 0.49726 0.09428 0.0
H2002 H 0.88034 0.50105 0.04249 0.0
H2003 H 0.89547 0.47492 0.04885 0.0
H2004 H 0.88354 0.53249 0.0612 0.0
H2005 H 0.81323 0.50085 0.05911 0.0
H2006 H 0.82695 0.4983 0.08017 0.0
H2007 H 0.83234 0.48843 0.05908 0.0
C2008 C 0.87396 0.47722 0.08774 0.0
C2009 C 0.88486 0.47071 0.0751 0.0
C2010 C 0.86552 0.4923 0.08418 0.0
C2011 C 0.86757 0.50097 0.06779 0.0
C2012 C 0.87854 0.49454 0.05521 0.0
H2013 H 0.82337 0.57845 0.00361 0.0
H2014 H 0.84192 0.55762 0.01842 0.0
C2015 C 0.88712 0.47958 0.05884 0.0
C2016 C 0.85842 0.51679 0.06366 0.0
H2017 H 0.81696 0.53136 0.0559 0.0
C2018 C 0.86898 0.53226 0.06013 0.0
C2019 C 0.83942 0.5165 0.06236 0.0
C2020 C 0.82729 0.50011 0.06521 0.0
C2021 C 0.86103 0.54733 0.05497 0.0
C2022 C 0.84207 0.54688 0.05325 0.0
C2023 C 0.83152 0.53165 0.05739 0.0
C2024 C 0.83277 0.56133 0.04527 0.0
C2025 C 0.87293 0.56356 0.05114 0.0
C2026 C 0.82163 0.57047 0.05555 0.0
C2027 C 0.81107 0.58253 0.04713 0.0
C2028 C 0.81124 0.58531 0.02823 0.0
C2029 C 0.82291 0.57657 0.01818 0.0
C2030 C 0.83359 0.56473 0.02664 0.0
H2031 H 0.88696 0.56333 0.05755 0.0
H2032 H 0.87333 0.56443 0.03606 0.0
H2033 H 0.86752 0.57548 0.05628 0.0
H2034 H 0.82073 0.56789 0.06992 0.0
H2035 H 0.80212 0.58899 0.05518 0.0
H2036 H 0.07716 0.97369 0.02702 0.0
H2037 H 0.10076 0.9541 0.02543 0.0
H2038 H 0.14023 -0.00549 0.05097 0.0
H2039 H 0.11676 0.01421 0.05264 0.0
H2040 H 0.1508 0.97591 0.01895 0.0
H2041 H 0.12523 0.93169 0.07154 0.0
H2042 H 0.10905 0.93613 0.05291 0.0
H2043 H 0.11867 0.95347 0.06899 0.0
C2044 C 0.09087 0.97846 0.03223 0.0
C2045 C 0.09504 -0.00449 0.04004 0.0
C2046 C 0.10432 0.96721 0.03138 0.0
C2047 C 0.1222 0.97278 0.03827 0.0
C2048 C 0.1265 0.98993 0.04563 0.0
H2049 H 0.21328 0.91656 0.06941 0.0
H2050 H 0.18827 0.93462 0.06746 0.0
C2051 C 0.11306 0.00116 0.04659 0.0
C2052 C 0.13641 0.9607 0.0381 0.0
H2053 H 0.15027 0.9238 0.05724 0.0
C2054 C 0.15066 0.96447 0.02724 0.0
C2055 C 0.13626 0.94587 0.04906 0.0
C2056 C 0.12159 0.94153 0.06142 0.0
C2057 C 0.16476 0.95377 0.02704 0.0
C2058 C 0.16455 0.93888 0.03792 0.0
C2059 C 0.15031 0.93513 0.0488 0.0
C2060 C 0.17945 0.92753 0.03893 0.0
C2061 C 0.18002 0.95869 0.01556 0.0
C2062 C 0.18266 0.91733 0.02358 0.0
C2063 C 0.19694 0.90688 0.02466 0.0
C2064 C 0.20831 0.90649 0.04111 0.0
C2065 C 0.20487 0.91657 0.0565 0.0
C2066 C 0.19054 0.9269 0.05543 0.0
H2067 H 0.17983 0.97217 0.0106 0.0
H2068 H 0.19322 0.95768 0.02357 0.0
H2069 H 0.17887 0.9495 0.00341 0.0
H2070 H 0.17411 0.91745 0.01077 0.0
H2071 H 0.19918 0.89926 0.01256 0.0
loop_
_geom_bond_atom_site_label_1
_geom_bond_atom_site_label_2
_geom_bond_distance
_geom_bond_site_symmetry_2
_ccdc_geom_bond_type
O0 Cd1 2.300 . S
O0 C7 1.275 . S
Cd1 O0 2.300 . S
Cd1 O9 2.381 . S
Cd1 O10 2.378 . S
O2 Cd3 2.385 . S
O2 C7 1.255 . S
Cd3 O2 2.385 . S
Cd3 O4 2.317 . S
O4 Cd3 2.317 . S
O4 C5 1.232 . S
C5 O4 1.232 . S
C5 O6 1.218 . S
O6 C5 1.218 . S
C7 O0 1.275 . S
C7 O2 1.255 . S
C8 O9 1.258 . S
C8 O10 1.256 . S
O9 Cd1 2.381 . S
O9 C8 1.258 . S
O10 Cd1 2.378 . S
O10 C8 1.256 . S
O11 Cd12 2.300 . S
O11 C18 1.275 . S
Cd12 O11 2.300 . S
Cd12 O20 2.381 . S
Cd12 O21 2.378 . S
O13 Cd14 2.385 . S
O13 C18 1.255 . S
Cd14 O13 2.385 . S
Cd14 O15 2.317 . S
O15 Cd14 2.317 . S
O15 C16 1.232 . S
C16 O15 1.232 . S
C16 O17 1.218 . S
O17 C16 1.218 . S
C18 O11 1.275 . S
C18 O13 1.255 . S
C19 O20 1.258 . S
C19 O21 1.256 . S
O20 Cd12 2.381 . S
O20 C19 1.258 . S
O21 Cd12 2.378 . S
O21 C19 1.256 . S
O22 Cd23 2.300 . S
O22 C29 1.275 . S
Cd23 O22 2.300 . S
Cd23 O31 2.381 . S
Cd23 O32 2.378 . S
O24 Cd25 2.385 . S
O24 C29 1.255 . S
Cd25 O24 2.385 . S
Cd25 O26 2.317 . S
O26 Cd25 2.317 . S
O26 C27 1.232 . S
C27 O26 1.232 . S
C27 O28 1.218 . S
O28 C27 1.218 . S
C29 O22 1.275 . S
C29 O24 1.255 . S
C30 O31 1.258 . S
C30 O32 1.256 . S
O31 Cd23 2.381 . S
O31 C30 1.258 . S
O32 Cd23 2.378 . S
O32 C30 1.256 . S
O33 Cd34 2.300 . S
O33 C40 1.275 . S
Cd34 O33 2.300 . S
Cd34 O42 2.381 . S
Cd34 O43 2.378 . S
O35 Cd36 2.385 . S
O35 C40 1.255 . S
Cd36 O35 2.385 . S
Cd36 O37 2.317 . S
O37 Cd36 2.317 . S
O37 C38 1.232 . S
C38 O37 1.232 . S
C38 O39 1.218 . S
O39 C38 1.218 . S
C40 O33 1.275 . S
C40 O35 1.255 . S
C41 O42 1.258 . S
C41 O43 1.256 . S
O42 Cd34 2.381 . S
O42 C41 1.258 . S
O43 Cd34 2.378 . S
O43 C41 1.256 . S
O44 Cd45 2.300 . S
O44 C51 1.275 . S
Cd45 O44 2.300 . S
Cd45 O53 2.381 . S
Cd45 O54 2.378 . S
O46 Cd47 2.385 . S
O46 C51 1.255 . S
Cd47 O46 2.385 . S
Cd47 O48 2.317 . S
O48 Cd47 2.317 . S
O48 C49 1.232 . S
C49 O48 1.232 . S
C49 O50 1.218 . S
O50 C49 1.218 . S
C51 O44 1.275 . S
C51 O46 1.255 . S
C52 O53 1.258 . S
C52 O54 1.256 . S
O53 Cd45 2.381 . S
O53 C52 1.258 . S
O54 Cd45 2.378 . S
O54 C52 1.256 . S
O55 Cd56 2.300 . S
O55 C62 1.275 . S
Cd56 O55 2.300 . S
Cd56 O64 2.381 . S
Cd56 O65 2.378 . S
O57 Cd58 2.385 . S
O57 C62 1.255 . S
Cd58 O57 2.385 . S
Cd58 O59 2.317 . S
O59 Cd58 2.317 . S
O59 C60 1.232 . S
C60 O59 1.232 . S
C60 O61 1.218 . S
O61 C60 1.218 . S
C62 O55 1.275 . S
C62 O57 1.255 . S
C63 O64 1.258 . S
C63 O65 1.256 . S
O64 Cd56 2.381 . S
O64 C63 1.258 . S
O65 Cd56 2.378 . S
O65 C63 1.256 . S
O66 Cd67 2.300 . S
O66 C73 1.275 . S
Cd67 O66 2.300 . S
Cd67 O75 2.381 . S
Cd67 O76 2.378 . S
O68 Cd69 2.385 . S
O68 C73 1.255 . S
Cd69 O68 2.385 . S
Cd69 O70 2.317 . S
O70 Cd69 2.317 . S
O70 C71 1.232 . S
C71 O70 1.232 . S
C71 O72 1.280 . S
O72 C71 1.280 . S
C73 O66 1.275 . S
C73 O68 1.255 . S
C74 O75 1.258 . S
C74 O76 1.256 . S
O75 Cd67 2.381 . S
O75 C74 1.258 . S
O76 Cd67 2.378 . S
O76 C74 1.256 . S
O77 Cd78 2.300 . S
O77 C84 1.275 . S
Cd78 O77 2.300 . S
Cd78 O86 2.381 . S
Cd78 O87 2.378 . S
O79 Cd80 2.385 . S
O79 C84 1.255 . S
Cd80 O79 2.385 . S
Cd80 O81 2.317 . S
O81 Cd80 2.317 . S
O81 C82 1.232 . S
C82 O81 1.232 . S
C82 O83 1.218 . S
O83 C82 1.218 . S
C84 O77 1.275 . S
C84 O79 1.255 . S
C85 O86 1.258 . S
C85 O87 1.256 . S
O86 Cd78 2.381 . S
O86 C85 1.258 . S
O87 Cd78 2.378 . S
O87 C85 1.256 . S
O88 Cd89 2.300 . S
O88 C95 1.275 . S
Cd89 O88 2.300 . S
Cd89 O97 2.381 . S
Cd89 O98 2.378 . S
O90 Cd91 2.385 . S
O90 C95 1.255 . S
Cd91 O90 2.385 . S
Cd91 O92 2.317 . S
O92 Cd91 2.317 . S
O92 C93 1.232 . S
C93 O92 1.232 . S
C93 O94 1.218 . S
O94 C93 1.218 . S
C95 O88 1.275 . S
C95 O90 1.255 . S
C96 O97 1.258 . S
C96 O98 1.256 . S
O97 Cd89 2.381 . S
O97 C96 1.258 . S
O98 Cd89 2.378 . S
O98 C96 1.256 . S
O99 Cd100 2.300 . S
O99 C106 1.275 . S
Cd100 O99 2.300 . S
Cd100 O108 2.381 . S
Cd100 O109 2.378 . S
O101 Cd102 2.385 . S
O101 C106 1.255 . S
Cd102 O101 2.385 . S
Cd102 O103 2.317 . S
O103 Cd102 2.317 . S
O103 C104 1.232 . S
C104 O103 1.232 . S
C104 O105 1.218 . S
O105 C104 1.218 . S
C106 O99 1.275 . S
C106 O101 1.255 . S
C107 O108 1.252 1_545 S
C107 O109 1.254 1_545 S
O108 Cd100 2.381 . S
O108 C107 1.252 1_565 S
O109 Cd100 2.378 . S
O109 C107 1.254 1_565 S
O110 Cd111 2.300 . S
O110 C117 1.275 . S
Cd111 O110 2.300 . S
Cd111 O119 2.381 . S
Cd111 O120 2.378 . S
O112 Cd113 2.385 . S
O112 C117 1.255 . S
Cd113 O112 2.385 . S
Cd113 O114 2.317 . S
O114 Cd113 2.317 . S
O114 C115 1.232 . S
C115 O114 1.232 . S
C115 O116 1.218 . S
O116 C115 1.218 . S
C117 O110 1.275 . S
C117 O112 1.255 . S
C118 O119 1.258 . S
C118 O120 1.256 . S
O119 Cd111 2.381 . S
O119 C118 1.258 . S
O120 Cd111 2.378 . S
O120 C118 1.256 . S
O121 Cd122 2.300 . S
O121 C128 1.275 . S
Cd122 O121 2.300 . S
Cd122 O130 2.381 . S
Cd122 O131 2.378 . S
O123 Cd124 2.385 . S
O123 C128 1.255 . S
Cd124 O123 2.385 . S
Cd124 O125 2.317 . S
O125 Cd124 2.317 . S
O125 C126 1.232 . S
C126 O125 1.232 . S
C126 O127 1.218 . S
O127 C126 1.218 . S
C128 O121 1.275 . S
C128 O123 1.255 . S
C129 O130 1.258 . S
C129 O131 1.256 . S
O130 Cd122 2.381 . S
O130 C129 1.258 . S
O131 Cd122 2.378 . S
O131 C129 1.256 . S
O132 Cd133 2.300 . S
O132 C139 1.275 . S
Cd133 O132 2.300 . S
Cd133 O141 2.381 . S
Cd133 O142 2.378 . S
O134 Cd135 2.385 . S
O134 C139 1.255 . S
Cd135 O134 2.385 . S
Cd135 O136 2.317 . S
O136 Cd135 2.317 . S
O136 C137 1.232 . S
C137 O136 1.232 . S
C137 O138 1.218 . S
O138 C137 1.218 . S
C139 O132 1.275 . S
C139 O134 1.255 . S
C140 O141 1.258 . S
C140 O142 1.256 . S
O141 Cd133 2.381 . S
O141 C140 1.258 . S
O142 Cd133 2.378 . S
O142 C140 1.256 . S
O143 Cd144 2.300 . S
O143 C150 1.275 . S
Cd144 O143 2.300 . S
Cd144 O152 2.381 1_556 S
Cd144 O153 2.378 1_556 S
O145 Cd146 2.385 . S
O145 C150 1.255 . S
Cd146 O145 2.385 . S
Cd146 O147 2.317 . S
O147 Cd146 2.317 . S
O147 C148 1.232 . S
C148 O147 1.232 . S
C148 O149 1.218 . S
O149 C148 1.218 . S
C150 O143 1.275 . S
C150 O145 1.255 . S
C151 O152 1.258 . S
C151 O153 1.256 . S
O152 Cd144 2.381 1_554 S
O152 C151 1.258 . S
O153 Cd144 2.378 1_554 S
O153 C151 1.256 . S
O154 Cd155 2.300 . S
O154 C161 1.275 . S
Cd155 O154 2.300 . S
Cd155 O163 2.381 . S
Cd155 O164 2.378 . S
O156 Cd157 2.385 . S
O156 C161 1.255 . S
Cd157 O156 2.385 . S
Cd157 O158 2.317 . S
O158 Cd157 2.317 . S
O158 C159 1.232 . S
C159 O158 1.232 . S
C159 O160 1.218 . S
O160 C159 1.218 . S
C161 O154 1.275 . S
C161 O156 1.255 . S
C162 O163 1.258 . S
C162 O164 1.256 . S
O163 Cd155 2.381 . S
O163 C162 1.258 . S
O164 Cd155 2.378 . S
O164 C162 1.256 . S
O165 Cd166 2.300 . S
O165 C172 1.275 . S
Cd166 O165 2.300 . S
Cd166 O174 2.381 . S
Cd166 O175 2.390 . S
O167 Cd168 2.385 1_556 S
O167 C172 1.255 . S
Cd168 O167 2.385 1_554 S
Cd168 O169 2.317 . S
O169 Cd168 2.317 . S
O169 C170 1.232 . S
C170 O169 1.232 . S
C170 O171 1.218 . S
O171 C170 1.218 . S
C172 O165 1.275 . S
C172 O167 1.255 . S
C173 O174 1.258 . S
C173 O175 1.276 . S
O174 Cd166 2.381 . S
O174 C173 1.258 . S
O175 Cd166 2.390 . S
O175 C173 1.276 . S
Zn176 O179 2.031 . S
Zn176 O181 2.049 . S
Zn176 O186 2.067 1_554 S
Zn177 O178 1.962 . S
Zn177 O180 1.986 . S
Zn177 O182 1.996 . S
Zn177 O185 1.943 1_554 S
O178 Zn177 1.962 . S
O178 C183 1.254 . S
O179 Zn176 2.031 . S
O179 C183 1.269 . S
O180 Zn177 1.986 . S
O180 C187 1.262 . S
O181 Zn176 2.049 . S
O181 C189 1.260 . S
O182 Zn177 1.996 . S
O182 C189 1.257 . S
C183 O178 1.254 . S
C183 O179 1.269 . S
C184 O185 1.249 . S
C184 O186 1.270 . S
O185 Zn177 1.943 1_556 S
O185 C184 1.249 . S
O186 Zn176 2.067 1_556 S
O186 C184 1.270 . S
C187 O180 1.262 . S
C187 O188 1.232 . S
O188 C187 1.232 . S
C189 O181 1.260 . S
C189 O182 1.257 . S
Zn190 O193 2.031 . S
Zn190 O195 2.049 . S
Zn190 O200 2.067 . S
Zn191 O192 1.962 . S
Zn191 O194 1.986 . S
Zn191 O196 1.996 . S
Zn191 O199 1.943 . S
O192 Zn191 1.962 . S
O192 C197 1.254 . S
O193 Zn190 2.031 . S
O193 C197 1.269 . S
O194 Zn191 1.986 . S
O194 C201 1.262 . S
O195 Zn190 2.049 . S
O195 C203 1.260 . S
O196 Zn191 1.996 . S
O196 C203 1.257 . S
C197 O192 1.254 . S
C197 O193 1.269 . S
C198 O199 1.249 . S
C198 O200 1.270 . S
O199 Zn191 1.943 . S
O199 C198 1.249 . S
O200 Zn190 2.067 . S
O200 C198 1.270 . S
C201 O194 1.262 . S
C201 O202 1.232 . S
O202 C201 1.232 . S
C203 O195 1.260 . S
C203 O196 1.257 . S
Zn204 O207 2.031 1_556 S
Zn204 O209 2.049 . S
Zn204 O214 2.067 . S
Zn205 O206 1.962 . S
Zn205 O208 1.986 . S
Zn205 O210 1.996 . S
Zn205 O213 1.943 . S
O206 Zn205 1.962 . S
O206 C211 1.254 . S
O207 Zn204 2.031 1_554 S
O207 C211 1.269 . S
O208 Zn205 1.986 . S
O208 C215 1.262 . S
O209 Zn204 2.049 . S
O209 C217 1.260 . S
O210 Zn205 1.996 . S
O210 C217 1.257 1_554 S
C211 O206 1.254 . S
C211 O207 1.269 . S
C212 O213 1.249 . S
C212 O214 1.270 1_554 S
O213 Zn205 1.943 . S
O213 C212 1.249 . S
O214 Zn204 2.067 . S
O214 C212 1.270 1_556 S
C215 O208 1.262 . S
C215 O216 1.232 . S
O216 C215 1.232 . S
C217 O209 1.260 . S
C217 O210 1.257 1_556 S
Zn218 O221 2.031 . S
Zn218 O223 2.049 . S
Zn218 O228 2.067 1_545 S
Zn219 O220 1.962 . S
Zn219 O222 1.986 . S
Zn219 O224 1.996 . S
Zn219 O227 1.936 1_545 S
O220 Zn219 1.962 . S
O220 C225 1.254 . S
O221 Zn218 2.031 . S
O221 C225 1.269 . S
O222 Zn219 1.986 . S
O222 C229 1.262 . S
O223 Zn218 2.049 . S
O223 C231 1.260 . S
O224 Zn219 1.996 . S
O224 C231 1.257 . S
C225 O220 1.254 . S
C225 O221 1.269 . S
C226 O227 1.253 . S
C226 O228 1.270 . S
O227 Zn219 1.936 1_565 S
O227 C226 1.253 . S
O228 Zn218 2.067 1_565 S
O228 C226 1.270 . S
C229 O222 1.262 . S
C229 O230 1.232 . S
O230 C229 1.232 . S
C231 O223 1.260 . S
C231 O224 1.257 . S
Zn232 O235 2.031 . S
Zn232 O237 2.049 . S
Zn232 O242 2.067 . S
Zn233 O234 1.962 . S
Zn233 O236 1.986 . S
Zn233 O238 1.996 . S
Zn233 O241 1.943 . S
O234 Zn233 1.962 . S
O234 C239 1.254 . S
O235 Zn232 2.031 . S
O235 C239 1.269 . S
O236 Zn233 1.986 . S
O236 C243 1.262 . S
O237 Zn232 2.049 . S
O237 C245 1.260 . S
O238 Zn233 1.996 . S
O238 C245 1.257 . S
C239 O234 1.254 . S
C239 O235 1.269 . S
C240 O241 1.249 . S
C240 O242 1.270 . S
O241 Zn233 1.943 . S
O241 C240 1.249 . S
O242 Zn232 2.067 . S
O242 C240 1.270 . S
C243 O236 1.262 . S
C243 O244 1.232 . S
O244 C243 1.232 . S
C245 O237 1.260 . S
C245 O238 1.257 . S
Zn246 O249 2.031 . S
Zn246 O251 2.049 . S
Zn246 O256 2.067 . S
Zn247 O248 1.962 . S
Zn247 O250 1.986 . S
Zn247 O252 1.996 . S
Zn247 O255 1.943 . S
O248 Zn247 1.962 . S
O248 C253 1.254 . S
O249 Zn246 2.031 . S
O249 C253 1.269 . S
O250 Zn247 1.986 . S
O250 C257 1.262 . S
O251 Zn246 2.049 . S
O251 C259 1.260 . S
O252 Zn247 1.996 . S
O252 C259 1.257 . S
C253 O248 1.254 . S
C253 O249 1.269 . S
C254 O255 1.249 . S
C254 O256 1.270 . S
O255 Zn247 1.943 . S
O255 C254 1.249 . S
O256 Zn246 2.067 . S
O256 C254 1.270 . S
C257 O250 1.262 . S
C257 O258 1.232 . S
O258 C257 1.232 . S
C259 O251 1.260 . S
C259 O252 1.257 . S
Zn260 O263 2.031 . S
Zn260 O265 2.049 . S
Zn260 O270 2.067 . S
Zn261 O262 1.962 . S
Zn261 O264 1.986 . S
Zn261 O266 1.996 . S
Zn261 O269 1.943 . S
O262 Zn261 1.962 . S
O262 C267 1.254 . S
O263 Zn260 2.031 . S
O263 C267 1.269 . S
O264 Zn261 1.986 . S
O264 C271 1.262 . S
O265 Zn260 2.049 . S
O265 C273 1.260 . S
O266 Zn261 1.996 . S
O266 C273 1.257 . S
C267 O262 1.254 . S
C267 O263 1.269 . S
C268 O269 1.249 . S
C268 O270 1.270 . S
O269 Zn261 1.943 . S
O269 C268 1.249 . S
O270 Zn260 2.067 . S
O270 C268 1.270 . S
C271 O264 1.262 . S
C271 O272 1.232 . S
O272 C271 1.232 . S
C273 O265 1.260 . S
C273 O266 1.257 . S
Zn274 O277 2.031 . S
Zn274 O279 2.049 . S
Zn274 O284 2.067 . S
Zn275 O276 1.962 . S
Zn275 O278 1.986 . S
Zn275 O280 1.996 1_545 S
Zn275 O283 1.943 . S
O276 Zn275 1.962 . S
O276 C281 1.254 . S
O277 Zn274 2.031 . S
O277 C281 1.269 1_565 S
O278 Zn275 1.986 . S
O278 C285 1.262 . S
O279 Zn274 2.049 . S
O279 C287 1.260 . S
O280 Zn275 1.996 1_565 S
O280 C287 1.257 . S
C281 O276 1.254 . S
C281 O277 1.269 1_545 S
C282 O283 1.249 1_565 S
C282 O284 1.270 . S
O283 Zn275 1.943 . S
O283 C282 1.249 1_545 S
O284 Zn274 2.067 . S
O284 C282 1.270 . S
C285 O278 1.262 . S
C285 O286 1.232 . S
O286 C285 1.232 . S
C287 O279 1.260 . S
C287 O280 1.257 . S
Zn288 O291 2.031 . S
Zn288 O293 2.049 1_455 S
Zn288 O298 2.067 1_455 S
Zn289 O290 1.962 . S
Zn289 O292 1.986 . S
Zn289 O294 1.996 . S
Zn289 O297 1.943 1_455 S
O290 Zn289 1.962 . S
O290 C295 1.254 . S
O291 Zn288 2.031 . S
O291 C295 1.269 . S
O292 Zn289 1.986 . S
O292 C299 1.262 . S
O293 Zn288 2.049 1_655 S
O293 C301 1.260 1_655 S
O294 Zn289 1.996 . S
O294 C301 1.257 . S
C295 O290 1.254 . S
C295 O291 1.269 . S
C296 O297 1.249 . S
C296 O298 1.270 . S
O297 Zn289 1.943 1_655 S
O297 C296 1.249 . S
O298 Zn288 2.067 1_655 S
O298 C296 1.270 . S
C299 O292 1.262 . S
C299 O300 1.232 . S
O300 C299 1.232 . S
C301 O293 1.260 1_455 S
C301 O294 1.257 . S
Zn302 O305 2.031 . S
Zn302 O307 2.049 . S
Zn302 O312 2.067 . S
Zn303 O304 1.962 . S
Zn303 O306 1.986 . S
Zn303 O308 1.996 . S
Zn303 O311 1.943 . S
O304 Zn303 1.962 . S
O304 C309 1.254 . S
O305 Zn302 2.031 . S
O305 C309 1.269 . S
O306 Zn303 1.986 . S
O306 C313 1.262 . S
O307 Zn302 2.049 . S
O307 C315 1.260 . S
O308 Zn303 1.996 . S
O308 C315 1.257 . S
C309 O304 1.254 . S
C309 O305 1.269 . S
C310 O311 1.249 . S
C310 O312 1.270 . S
O311 Zn303 1.943 . S
O311 C310 1.249 . S
O312 Zn302 2.067 . S
O312 C310 1.270 . S
C313 O306 1.262 . S
C313 O314 1.232 . S
O314 C313 1.232 . S
C315 O307 1.260 . S
C315 O308 1.257 . S
Zn316 O319 2.031 1_655 S
Zn316 O321 2.049 . S
Zn316 O326 2.067 . S
Zn317 O318 1.962 . S
Zn317 O320 1.986 . S
Zn317 O322 1.996 . S
Zn317 O325 1.943 . S
O318 Zn317 1.962 . S
O318 C323 1.254 . S
O319 Zn316 2.031 1_455 S
O319 C323 1.269 . S
O320 Zn317 1.986 . S
O320 C327 1.262 . S
O321 Zn316 2.049 . S
O321 C329 1.260 . S
O322 Zn317 1.996 . S
O322 C329 1.257 1_455 S
C323 O318 1.254 . S
C323 O319 1.269 . S
C324 O325 1.249 . S
C324 O326 1.270 1_455 S
O325 Zn317 1.943 . S
O325 C324 1.249 . S
O326 Zn316 2.067 . S
O326 C324 1.270 1_655 S
C327 O320 1.262 . S
C327 O328 1.232 . S
O328 C327 1.232 . S
C329 O321 1.260 . S
C329 O322 1.257 1_655 S
Zn330 O333 2.031 . S
Zn330 O335 2.049 . S
Zn330 O340 2.067 . S
Zn331 O332 1.962 . S
Zn331 O334 1.986 . S
Zn331 O336 1.996 . S
Zn331 O339 1.943 . S
O332 Zn331 1.962 . S
O332 C337 1.254 . S
O333 Zn330 2.031 . S
O333 C337 1.269 . S
O334 Zn331 1.986 . S
O334 C341 1.262 . S
O335 Zn330 2.049 . S
O335 C343 1.260 . S
O336 Zn331 1.996 . S
O336 C343 1.257 . S
C337 O332 1.254 . S
C337 O333 1.269 . S
C338 O339 1.249 . S
C338 O340 1.270 . S
O339 Zn331 1.943 . S
O339 C338 1.249 . S
O340 Zn330 2.067 . S
O340 C338 1.270 . S
C341 O334 1.262 . S
C341 O342 1.232 . S
O342 C341 1.232 . S
C343 O335 1.260 . S
C343 O336 1.257 . S
H344 C352 0.929 . S
H345 C354 0.930 . S
H346 C356 0.930 . S
H347 C359 0.929 . S
H348 C362 0.930 . S
H349 C364 0.960 . S
H350 C364 0.960 . S
H351 C364 0.960 . S
C352 H344 0.929 . S
C352 C353 1.377 . S
C352 C354 1.384 . S
C353 C352 1.377 . S
C353 C359 1.390 . S
C354 H345 0.930 . S
C354 C352 1.384 . S
C354 C355 1.372 . S
C355 C354 1.372 . S
C355 C356 1.400 . S
C355 C360 1.490 . S
C356 H346 0.930 . S
C356 C355 1.400 . S
C356 C359 1.386 . S
H357 C373 0.930 . S
H358 C374 0.931 . S
C359 H347 0.929 . S
C359 C353 1.390 . S
C359 C356 1.386 . S
C360 C355 1.490 . S
C360 C362 1.395 . S
C360 C363 1.403 . S
H361 C367 0.930 . S
C362 H348 0.930 . S
C362 C360 1.395 . S
C362 C365 1.403 . S
C363 C360 1.403 . S
C363 C364 1.524 . S
C363 C367 1.400 . S
C364 H349 0.960 . S
C364 H350 0.960 . S
C364 H351 0.960 . S
C364 C363 1.524 . S
C365 C362 1.403 . S
C365 C366 1.392 . S
C365 C369 1.495 . S
C366 C365 1.392 . S
C366 C367 1.385 . S
C366 C368 1.478 . S
C367 H361 0.930 . S
C367 C363 1.400 . S
C367 C366 1.385 . S
C368 C366 1.478 . S
C368 C370 1.381 . S
C368 C374 1.383 . S
C369 C365 1.495 . S
C369 H375 0.959 . S
C369 H376 0.961 . S
C369 H377 0.960 . S
C370 C368 1.381 . S
C370 C371 1.394 . S
C370 H378 0.930 . S
C371 C370 1.394 . S
C371 C372 1.383 . S
C371 H379 0.929 . S
C372 C371 1.383 . S
C372 C373 1.377 . S
C373 H357 0.930 . S
C373 C372 1.377 . S
C373 C374 1.379 . S
C374 H358 0.931 . S
C374 C368 1.383 . S
C374 C373 1.379 . S
H375 C369 0.959 . S
H376 C369 0.961 . S
H377 C369 0.960 . S
H378 C370 0.930 . S
H379 C371 0.929 . S
H380 C388 0.929 . S
H381 C390 0.930 . S
H382 C392 0.930 . S
H383 C395 0.929 . S
H384 C398 0.930 . S
H385 C400 0.960 . S
H386 C400 0.960 . S
H387 C400 0.960 . S
C388 H380 0.929 . S
C388 C389 1.377 . S
C388 C390 1.384 . S
C389 C388 1.377 . S
C389 C395 1.390 1_655 S
C390 H381 0.930 . S
C390 C388 1.384 . S
C390 C391 1.372 1_655 S
C391 C390 1.372 1_455 S
C391 C392 1.400 . S
C391 C396 1.490 . S
C392 H382 0.930 . S
C392 C391 1.400 . S
C392 C395 1.386 . S
H393 C409 0.930 . S
H394 C410 0.931 . S
C395 H383 0.929 . S
C395 C389 1.390 1_455 S
C395 C392 1.386 . S
C396 C391 1.490 . S
C396 C398 1.395 . S
C396 C399 1.403 . S
H397 C403 0.930 . S
C398 H384 0.930 . S
C398 C396 1.395 . S
C398 C401 1.403 . S
C399 C396 1.403 . S
C399 C400 1.524 . S
C399 C403 1.400 . S
C400 H385 0.960 . S
C400 H386 0.960 . S
C400 H387 0.960 . S
C400 C399 1.524 . S
C401 C398 1.403 . S
C401 C402 1.392 . S
C401 C405 1.495 . S
C402 C401 1.392 . S
C402 C403 1.385 . S
C402 C404 1.478 . S
C403 H397 0.930 . S
C403 C399 1.400 . S
C403 C402 1.385 . S
C404 C402 1.478 . S
C404 C406 1.381 . S
C404 C410 1.383 . S
C405 C401 1.495 . S
C405 H411 0.959 . S
C405 H412 0.961 . S
C405 H413 0.960 . S
C406 C404 1.381 . S
C406 C407 1.394 . S
C406 H414 0.930 . S
C407 C406 1.394 . S
C407 C408 1.383 . S
C407 H415 0.929 . S
C408 C407 1.383 . S
C408 C409 1.377 . S
C409 H393 0.930 . S
C409 C408 1.377 . S
C409 C410 1.379 . S
C410 H394 0.931 . S
C410 C404 1.383 . S
C410 C409 1.379 . S
H411 C405 0.959 . S
H412 C405 0.961 . S
H413 C405 0.960 . S
H414 C406 0.930 . S
H415 C407 0.929 . S
H416 C424 0.929 . S
H417 C426 0.930 . S
H418 C428 0.930 . S
H419 C431 0.929 . S
H420 C434 0.930 . S
H421 C436 0.960 . S
H422 C436 0.960 . S
H423 C436 0.960 . S
C424 H416 0.929 . S
C424 C425 1.377 . S
C424 C426 1.384 . S
C425 C424 1.377 . S
C425 C431 1.390 . S
C426 H417 0.930 . S
C426 C424 1.384 . S
C426 C427 1.372 . S
C427 C426 1.372 . S
C427 C428 1.400 . S
C427 C432 1.490 . S
C428 H418 0.930 . S
C428 C427 1.400 . S
C428 C431 1.386 . S
H429 C445 0.930 . S
H430 C446 0.931 . S
C431 H419 0.929 . S
C431 C425 1.390 . S
C431 C428 1.386 . S
C432 C427 1.490 . S
C432 C434 1.395 . S
C432 C435 1.403 . S
H433 C439 0.930 . S
C434 H420 0.930 . S
C434 C432 1.395 . S
C434 C437 1.403 . S
C435 C432 1.403 . S
C435 C436 1.524 . S
C435 C439 1.400 . S
C436 H421 0.960 . S
C436 H422 0.960 . S
C436 H423 0.960 . S
C436 C435 1.524 . S
C437 C434 1.403 . S
C437 C438 1.392 . S
C437 C441 1.495 . S
C438 C437 1.392 . S
C438 C439 1.385 . S
C438 C440 1.478 . S
C439 H433 0.930 . S
C439 C435 1.400 . S
C439 C438 1.385 . S
C440 C438 1.478 . S
C440 C442 1.381 . S
C440 C446 1.383 . S
C441 C437 1.495 . S
C441 H447 0.959 . S
C441 H448 0.961 . S
C441 H449 0.960 . S
C442 C440 1.381 . S
C442 C443 1.394 . S
C442 H450 0.930 . S
C443 C442 1.394 . S
C443 C444 1.383 . S
C443 H451 0.929 . S
C444 C443 1.383 . S
C444 C445 1.377 . S
C445 H429 0.930 . S
C445 C444 1.377 . S
C445 C446 1.379 . S
C446 H430 0.931 . S
C446 C440 1.383 . S
C446 C445 1.379 . S
H447 C441 0.959 . S
H448 C441 0.961 . S
H449 C441 0.960 . S
H450 C442 0.930 . S
H451 C443 0.929 . S
H452 C460 0.929 . S
H453 C462 0.930 . S
H454 C464 0.930 . S
H455 C467 0.929 . S
H456 C470 0.930 . S
H457 C472 0.960 . S
H458 C472 0.960 . S
H459 C472 0.960 . S
C460 H452 0.929 . S
C460 C461 1.377 . S
C460 C462 1.384 . S
C461 C460 1.377 . S
C461 C467 1.390 . S
C462 H453 0.930 . S
C462 C460 1.384 . S
C462 C463 1.376 . S
C463 C462 1.376 . S
C463 C464 1.399 1_455 S
C463 C468 1.487 1_455 S
C464 H454 0.930 . S
C464 C463 1.399 1_655 S
C464 C467 1.386 1_655 S
H465 C481 0.930 . S
H466 C482 0.931 . S
C467 H455 0.929 . S
C467 C461 1.390 . S
C467 C464 1.386 1_455 S
C468 C463 1.487 1_655 S
C468 C470 1.395 . S
C468 C471 1.403 . S
H469 C475 0.942 . S
C470 H456 0.930 . S
C470 C468 1.395 . S
C470 C473 1.403 . S
C471 C468 1.403 . S
C471 C472 1.524 1_565 S
C471 C475 1.396 1_565 S
C472 H457 0.960 . S
C472 H458 0.960 . S
C472 H459 0.960 . S
C472 C471 1.524 1_545 S
C473 C470 1.403 . S
C473 C474 1.392 . S
C473 C477 1.495 . S
C474 C473 1.392 . S
C474 C475 1.377 1_565 S
C474 C476 1.478 . S
C475 H469 0.942 . S
C475 C471 1.396 1_545 S
C475 C474 1.377 1_545 S
C476 C474 1.478 . S
C476 C478 1.397 . S
C476 C482 1.383 . S
C477 C473 1.495 . S
C477 H483 0.959 . S
C477 H484 0.961 . S
C477 H485 0.960 . S
C478 C476 1.397 . S
C478 C479 1.376 1_565 S
C478 H486 0.931 . S
C479 C478 1.376 1_545 S
C479 C480 1.383 . S
C479 H487 0.929 . S
C480 C479 1.383 . S
C480 C481 1.377 1_545 S
C481 H465 0.930 . S
C481 C480 1.377 1_565 S
C481 C482 1.379 . S
C482 H466 0.931 . S
C482 C476 1.383 . S
C482 C481 1.379 . S
H483 C477 0.959 . S
H484 C477 0.961 . S
H485 C477 0.960 . S
H486 C478 0.931 . S
H487 C479 0.929 . S
H488 C496 0.929 . S
H489 C498 0.930 . S
H490 C500 0.930 . S
H491 C503 0.929 . S
H492 C506 0.930 . S
H493 C508 0.960 . S
H494 C508 0.960 . S
H495 C508 0.960 . S
C496 H488 0.929 . S
C496 C497 1.377 . S
C496 C498 1.384 . S
C497 C496 1.377 . S
C497 C503 1.390 . S
C498 H489 0.930 . S
C498 C496 1.384 . S
C498 C499 1.372 . S
C499 C498 1.372 . S
C499 C500 1.400 . S
C499 C504 1.490 . S
C500 H490 0.930 . S
C500 C499 1.400 . S
C500 C503 1.386 . S
H501 C517 0.930 . S
H502 C518 0.931 . S
C503 H491 0.929 . S
C503 C497 1.390 . S
C503 C500 1.386 . S
C504 C499 1.490 . S
C504 C506 1.395 . S
C504 C507 1.403 . S
H505 C511 0.930 . S
C506 H492 0.930 . S
C506 C504 1.395 . S
C506 C509 1.403 . S
C507 C504 1.403 . S
C507 C508 1.524 . S
C507 C511 1.400 . S
C508 H493 0.960 . S
C508 H494 0.960 . S
C508 H495 0.960 . S
C508 C507 1.524 . S
C509 C506 1.403 . S
C509 C510 1.392 . S
C509 C513 1.495 . S
C510 C509 1.392 . S
C510 C511 1.385 . S
C510 C512 1.478 . S
C511 H505 0.930 . S
C511 C507 1.400 . S
C511 C510 1.385 . S
C512 C510 1.478 . S
C512 C514 1.381 . S
C512 C518 1.383 . S
C513 C509 1.495 . S
C513 H519 0.959 . S
C513 H520 0.961 . S
C513 H521 0.960 . S
C514 C512 1.381 . S
C514 C515 1.394 . S
C514 H522 0.930 . S
C515 C514 1.394 . S
C515 C516 1.383 . S
C515 H523 0.929 . S
C516 C515 1.383 . S
C516 C517 1.377 . S
C517 H501 0.930 . S
C517 C516 1.377 . S
C517 C518 1.379 . S
C518 H502 0.931 . S
C518 C512 1.383 . S
C518 C517 1.379 . S
H519 C513 0.959 . S
H520 C513 0.961 . S
H521 C513 0.960 . S
H522 C514 0.930 . S
H523 C515 0.929 . S
H524 C532 0.929 . S
H525 C534 0.930 . S
H526 C536 0.930 . S
H527 C539 0.929 . S
H528 C542 0.930 . S
H529 C544 0.960 . S
H530 C544 0.960 . S
H531 C544 0.960 . S
C532 H524 0.929 . S
C532 C533 1.377 . S
C532 C534 1.384 . S
C533 C532 1.377 . S
C533 C539 1.390 . S
C534 H525 0.930 . S
C534 C532 1.384 . S
C534 C535 1.372 . S
C535 C534 1.372 . S
C535 C536 1.400 . S
C535 C540 1.490 . S
C536 H526 0.930 . S
C536 C535 1.400 . S
C536 C539 1.386 . S
H537 C553 0.930 . S
H538 C554 0.931 . S
C539 H527 0.929 . S
C539 C533 1.390 . S
C539 C536 1.386 . S
C540 C535 1.490 . S
C540 C542 1.395 . S
C540 C543 1.403 . S
H541 C547 0.930 . S
C542 H528 0.930 . S
C542 C540 1.395 . S
C542 C545 1.403 . S
C543 C540 1.403 . S
C543 C544 1.524 . S
C543 C547 1.400 . S
C544 H529 0.960 . S
C544 H530 0.960 . S
C544 H531 0.960 . S
C544 C543 1.524 . S
C545 C542 1.403 . S
C545 C546 1.392 . S
C545 C549 1.495 . S
C546 C545 1.392 . S
C546 C547 1.385 . S
C546 C548 1.478 . S
C547 H541 0.930 . S
C547 C543 1.400 . S
C547 C546 1.385 . S
C548 C546 1.478 . S
C548 C550 1.381 . S
C548 C554 1.383 . S
C549 C545 1.495 . S
C549 H555 0.959 . S
C549 H556 0.961 . S
C549 H557 0.960 . S
C550 C548 1.381 . S
C550 C551 1.394 . S
C550 H558 0.930 . S
C551 C550 1.394 . S
C551 C552 1.383 . S
C551 H559 0.929 . S
C552 C551 1.383 . S
C552 C553 1.377 . S
C553 H537 0.930 . S
C553 C552 1.377 . S
C553 C554 1.379 . S
C554 H538 0.931 . S
C554 C548 1.383 . S
C554 C553 1.379 . S
H555 C549 0.959 . S
H556 C549 0.961 . S
H557 C549 0.960 . S
H558 C550 0.930 . S
H559 C551 0.929 . S
H560 C568 0.929 . S
H561 C570 0.930 . S
H562 C572 0.930 . S
H563 C575 0.929 . S
H564 C578 0.930 . S
H565 C580 0.960 . S
H566 C580 0.960 . S
H567 C580 0.960 . S
C568 H560 0.929 . S
C568 C569 1.377 . S
C568 C570 1.384 . S
C569 C568 1.377 . S
C569 C575 1.390 . S
C570 H561 0.930 . S
C570 C568 1.384 . S
C570 C571 1.372 . S
C571 C570 1.372 . S
C571 C572 1.400 . S
C571 C576 1.490 . S
C572 H562 0.930 . S
C572 C571 1.400 . S
C572 C575 1.386 . S
H573 C589 0.930 . S
H574 C590 0.931 . S
C575 H563 0.929 . S
C575 C569 1.390 . S
C575 C572 1.386 . S
C576 C571 1.490 . S
C576 C578 1.395 . S
C576 C579 1.403 . S
H577 C583 0.930 . S
C578 H564 0.930 . S
C578 C576 1.395 . S
C578 C581 1.403 . S
C579 C576 1.403 . S
C579 C580 1.524 . S
C579 C583 1.400 . S
C580 H565 0.960 . S
C580 H566 0.960 . S
C580 H567 0.960 . S
C580 C579 1.524 . S
C581 C578 1.403 . S
C581 C582 1.392 . S
C581 C585 1.495 . S
C582 C581 1.392 . S
C582 C583 1.385 . S
C582 C584 1.478 . S
C583 H577 0.930 . S
C583 C579 1.400 . S
C583 C582 1.385 . S
C584 C582 1.478 . S
C584 C586 1.381 . S
C584 C590 1.383 . S
C585 C581 1.495 . S
C585 H591 0.959 . S
C585 H592 0.961 . S
C585 H593 0.960 . S
C586 C584 1.381 . S
C586 C587 1.394 . S
C586 H594 0.930 . S
C587 C586 1.394 . S
C587 C588 1.383 . S
C587 H595 0.929 . S
C588 C587 1.383 . S
C588 C589 1.377 . S
C589 H573 0.930 . S
C589 C588 1.377 . S
C589 C590 1.379 . S
C590 H574 0.931 . S
C590 C584 1.383 . S
C590 C589 1.379 . S
H591 C585 0.959 . S
H592 C585 0.961 . S
H593 C585 0.960 . S
H594 C586 0.930 . S
H595 C587 0.929 . S
H596 C604 0.929 . S
H597 C606 0.930 . S
H598 C608 0.930 . S
H599 C611 0.929 . S
H600 C614 0.930 . S
H601 C616 0.960 . S
H602 C616 0.970 . S
H603 C616 0.960 . S
C604 H596 0.929 . S
C604 C605 1.377 . S
C604 C606 1.384 . S
C605 C604 1.377 . S
C605 C611 1.390 . S
C606 H597 0.930 . S
C606 C604 1.384 . S
C606 C607 1.372 . S
C607 C606 1.372 . S
C607 C608 1.400 . S
C607 C612 1.490 . S
C608 H598 0.930 . S
C608 C607 1.400 . S
C608 C611 1.386 . S
H609 C625 0.930 . S
H610 C626 0.931 1_545 S
C611 H599 0.929 . S
C611 C605 1.390 . S
C611 C608 1.386 . S
C612 C607 1.490 . S
C612 C614 1.395 . S
C612 C615 1.403 . S
H613 C619 0.930 1_545 S
C614 H600 0.930 . S
C614 C612 1.395 . S
C614 C617 1.403 . S
C615 C612 1.403 . S
C615 C616 1.524 1_565 S
C615 C619 1.400 . S
C616 H601 0.960 . S
C616 H602 0.970 . S
C616 H603 0.960 . S
C616 C615 1.524 1_545 S
C617 C614 1.403 . S
C617 C618 1.392 . S
C617 C621 1.495 . S
C618 C617 1.392 . S
C618 C619 1.385 . S
C618 C620 1.478 . S
C619 H613 0.930 1_565 S
C619 C615 1.400 . S
C619 C618 1.385 . S
C620 C618 1.478 . S
C620 C622 1.381 . S
C620 C626 1.383 . S
C621 C617 1.495 . S
C621 H627 0.959 . S
C621 H628 0.961 . S
C621 H629 0.960 . S
C622 C620 1.381 . S
C622 C623 1.394 . S
C622 H630 0.930 . S
C623 C622 1.394 . S
C623 C624 1.383 . S
C623 H631 0.929 . S
C624 C623 1.383 . S
C624 C625 1.377 1_565 S
C625 H609 0.930 . S
C625 C624 1.377 1_545 S
C625 C626 1.379 1_545 S
C626 H610 0.931 1_565 S
C626 C620 1.383 . S
C626 C625 1.379 1_565 S
H627 C621 0.959 . S
H628 C621 0.961 . S
H629 C621 0.960 . S
H630 C622 0.930 . S
H631 C623 0.929 . S
H632 C640 0.929 . S
H633 C642 0.930 . S
H634 C644 0.930 . S
H635 C647 0.929 . S
H636 C650 0.930 . S
H637 C652 0.960 . S
H638 C652 0.960 . S
H639 C652 0.960 . S
C640 H632 0.929 . S
C640 C641 1.377 . S
C640 C642 1.384 . S
C641 C640 1.377 . S
C641 C647 1.390 . S
C642 H633 0.930 . S
C642 C640 1.384 . S
C642 C643 1.372 . S
C643 C642 1.372 . S
C643 C644 1.400 . S
C643 C648 1.490 . S
C644 H634 0.930 . S
C644 C643 1.400 . S
C644 C647 1.386 . S
H645 C661 0.930 . S
H646 C662 0.931 . S
C647 H635 0.929 . S
C647 C641 1.390 . S
C647 C644 1.386 . S
C648 C643 1.490 . S
C648 C650 1.395 . S
C648 C651 1.403 . S
H649 C655 0.930 . S
C650 H636 0.930 . S
C650 C648 1.395 . S
C650 C653 1.403 . S
C651 C648 1.403 . S
C651 C652 1.524 . S
C651 C655 1.400 . S
C652 H637 0.960 . S
C652 H638 0.960 . S
C652 H639 0.960 . S
C652 C651 1.524 . S
C653 C650 1.403 . S
C653 C654 1.392 . S
C653 C657 1.495 . S
C654 C653 1.392 . S
C654 C655 1.385 . S
C654 C656 1.478 . S
C655 H649 0.930 . S
C655 C651 1.400 . S
C655 C654 1.385 . S
C656 C654 1.478 . S
C656 C658 1.381 . S
C656 C662 1.383 . S
C657 C653 1.495 . S
C657 H663 0.959 . S
C657 H664 0.961 . S
C657 H665 0.960 . S
C658 C656 1.381 . S
C658 C659 1.394 . S
C658 H666 0.930 . S
C659 C658 1.394 . S
C659 C660 1.383 . S
C659 H667 0.929 . S
C660 C659 1.383 . S
C660 C661 1.377 . S
C661 H645 0.930 . S
C661 C660 1.377 . S
C661 C662 1.379 . S
C662 H646 0.931 . S
C662 C656 1.383 . S
C662 C661 1.379 . S
H663 C657 0.959 . S
H664 C657 0.961 . S
H665 C657 0.960 . S
H666 C658 0.930 . S
H667 C659 0.929 . S
H668 C676 0.929 . S
H669 C678 0.930 . S
H670 C680 0.930 . S
H671 C683 0.929 . S
H672 C686 0.930 . S
H673 C688 0.960 . S
H674 C688 0.960 . S
H675 C688 0.960 . S
C676 H668 0.929 . S
C676 C677 1.377 . S
C676 C678 1.384 . S
C677 C676 1.377 . S
C677 C683 1.390 . S
C678 H669 0.930 . S
C678 C676 1.384 . S
C678 C679 1.372 . S
C679 C678 1.372 . S
C679 C680 1.400 . S
C679 C684 1.490 . S
C680 H670 0.930 . S
C680 C679 1.400 . S
C680 C683 1.386 . S
H681 C697 0.930 . S
H682 C698 0.931 . S
C683 H671 0.929 . S
C683 C677 1.390 . S
C683 C680 1.386 . S
C684 C679 1.490 . S
C684 C686 1.395 . S
C684 C687 1.403 . S
H685 C691 0.930 . S
C686 H672 0.930 . S
C686 C684 1.395 . S
C686 C689 1.403 . S
C687 C684 1.403 . S
C687 C688 1.524 . S
C687 C691 1.400 . S
C688 H673 0.960 . S
C688 H674 0.960 . S
C688 H675 0.960 . S
C688 C687 1.524 . S
C689 C686 1.403 . S
C689 C690 1.392 . S
C689 C693 1.495 . S
C690 C689 1.392 . S
C690 C691 1.385 . S
C690 C692 1.478 . S
C691 H685 0.930 . S
C691 C687 1.400 . S
C691 C690 1.385 . S
C692 C690 1.478 . S
C692 C694 1.381 . S
C692 C698 1.383 . S
C693 C689 1.495 . S
C693 H699 0.959 . S
C693 H700 0.961 . S
C693 H701 0.960 . S
C694 C692 1.381 . S
C694 C695 1.394 . S
C694 H702 0.930 . S
C695 C694 1.394 . S
C695 C696 1.383 . S
C695 H703 0.929 . S
C696 C695 1.383 . S
C696 C697 1.377 . S
C697 H681 0.930 . S
C697 C696 1.377 . S
C697 C698 1.379 . S
C698 H682 0.931 . S
C698 C692 1.383 . S
C698 C697 1.379 . S
H699 C693 0.959 . S
H700 C693 0.961 . S
H701 C693 0.960 . S
H702 C694 0.930 . S
H703 C695 0.929 . S
H704 C712 0.929 . S
H705 C714 0.930 . S
H706 C716 0.930 . S
H707 C719 0.929 . S
H708 C722 0.930 . S
H709 C724 0.960 . S
H710 C724 0.960 . S
H711 C724 0.960 . S
C712 H704 0.929 . S
C712 C713 1.377 . S
C712 C714 1.384 . S
C713 C712 1.377 . S
C713 C719 1.390 . S
C714 H705 0.930 . S
C714 C712 1.384 . S
C714 C715 1.372 . S
C715 C714 1.372 . S
C715 C716 1.400 . S
C715 C720 1.490 . S
C716 H706 0.930 . S
C716 C715 1.400 . S
C716 C719 1.386 . S
H717 C733 0.930 . S
H718 C734 0.931 . S
C719 H707 0.929 . S
C719 C713 1.390 . S
C719 C716 1.386 . S
C720 C715 1.490 . S
C720 C722 1.395 . S
C720 C723 1.403 . S
H721 C727 0.930 . S
C722 H708 0.930 . S
C722 C720 1.395 . S
C722 C725 1.403 . S
C723 C720 1.403 . S
C723 C724 1.524 . S
C723 C727 1.400 . S
C724 H709 0.960 . S
C724 H710 0.960 . S
C724 H711 0.960 . S
C724 C723 1.524 . S
C725 C722 1.403 . S
C725 C726 1.392 . S
C725 C729 1.495 . S
C726 C725 1.392 . S
C726 C727 1.385 . S
C726 C728 1.478 . S
C727 H721 0.930 . S
C727 C723 1.400 . S
C727 C726 1.385 . S
C728 C726 1.478 . S
C728 C730 1.381 . S
C728 C734 1.383 . S
C729 C725 1.495 . S
C729 H735 0.959 . S
C729 H736 0.961 . S
C729 H737 0.960 . S
C730 C728 1.381 . S
C730 C731 1.394 . S
C730 H738 0.930 . S
C731 C730 1.394 . S
C731 C732 1.383 . S
C731 H739 0.929 . S
C732 C731 1.383 . S
C732 C733 1.377 . S
C733 H717 0.930 . S
C733 C732 1.377 . S
C733 C734 1.379 . S
C734 H718 0.931 . S
C734 C728 1.383 . S
C734 C733 1.379 . S
H735 C729 0.959 . S
H736 C729 0.961 . S
H737 C729 0.960 . S
H738 C730 0.930 . S
H739 C731 0.929 . S
H740 C748 0.929 . S
H741 C750 0.930 . S
H742 C752 0.930 . S
H743 C755 0.929 . S
H744 C758 0.930 . S
H745 C760 0.960 . S
H746 C760 0.960 . S
H747 C760 0.960 . S
C748 H740 0.929 . S
C748 C749 1.377 . S
C748 C750 1.384 . S
C749 C748 1.377 . S
C749 C755 1.390 . S
C750 H741 0.930 . S
C750 C748 1.384 . S
C750 C751 1.372 . S
C751 C750 1.372 . S
C751 C752 1.400 . S
C751 C756 1.490 . S
C752 H742 0.930 . S
C752 C751 1.400 . S
C752 C755 1.386 . S
H753 C769 0.930 . S
H754 C770 0.931 . S
C755 H743 0.929 . S
C755 C749 1.390 . S
C755 C752 1.386 . S
C756 C751 1.490 . S
C756 C758 1.395 . S
C756 C759 1.403 . S
H757 C763 0.930 . S
C758 H744 0.930 . S
C758 C756 1.395 . S
C758 C761 1.403 . S
C759 C756 1.403 . S
C759 C760 1.524 . S
C759 C763 1.400 . S
C760 H745 0.960 . S
C760 H746 0.960 . S
C760 H747 0.960 . S
C760 C759 1.524 . S
C761 C758 1.403 . S
C761 C762 1.392 . S
C761 C765 1.495 . S
C762 C761 1.392 . S
C762 C763 1.385 . S
C762 C764 1.478 . S
C763 H757 0.930 . S
C763 C759 1.400 . S
C763 C762 1.385 . S
C764 C762 1.478 . S
C764 C766 1.381 . S
C764 C770 1.383 . S
C765 C761 1.495 . S
C765 H771 0.959 . S
C765 H772 0.961 . S
C765 H773 0.960 . S
C766 C764 1.381 . S
C766 C767 1.394 . S
C766 H774 0.930 . S
C767 C766 1.394 . S
C767 C768 1.383 . S
C767 H775 0.929 . S
C768 C767 1.383 . S
C768 C769 1.377 . S
C769 H753 0.930 . S
C769 C768 1.377 . S
C769 C770 1.379 . S
C770 H754 0.931 . S
C770 C764 1.383 . S
C770 C769 1.379 . S
H771 C765 0.959 . S
H772 C765 0.961 . S
H773 C765 0.960 . S
H774 C766 0.930 . S
H775 C767 0.929 . S
H776 C784 0.929 . S
H777 C786 0.930 . S
H778 C788 0.930 . S
H779 C791 0.929 . S
H780 C794 0.930 . S
H781 C796 0.960 . S
H782 C796 0.960 . S
H783 C796 0.960 . S
C784 H776 0.929 . S
C784 C785 1.377 . S
C784 C786 1.384 . S
C785 C784 1.377 . S
C785 C791 1.390 . S
C786 H777 0.930 . S
C786 C784 1.384 . S
C786 C787 1.372 . S
C787 C786 1.372 . S
C787 C788 1.400 . S
C787 C792 1.490 . S
C788 H778 0.930 . S
C788 C787 1.400 . S
C788 C791 1.386 . S
H789 C805 0.930 . S
H790 C806 0.931 . S
C791 H779 0.929 . S
C791 C785 1.390 . S
C791 C788 1.386 . S
C792 C787 1.490 . S
C792 C794 1.395 . S
C792 C795 1.403 . S
H793 C799 0.930 . S
C794 H780 0.930 . S
C794 C792 1.395 . S
C794 C797 1.403 . S
C795 C792 1.403 . S
C795 C796 1.524 . S
C795 C799 1.400 . S
C796 H781 0.960 . S
C796 H782 0.960 . S
C796 H783 0.960 . S
C796 C795 1.524 . S
C797 C794 1.403 . S
C797 C798 1.392 . S
C797 C801 1.495 . S
C798 C797 1.392 . S
C798 C799 1.385 . S
C798 C800 1.478 . S
C799 H793 0.930 . S
C799 C795 1.400 . S
C799 C798 1.385 . S
C800 C798 1.478 . S
C800 C802 1.381 . S
C800 C806 1.383 . S
C801 C797 1.495 . S
C801 H807 0.959 . S
C801 H808 0.961 . S
C801 H809 0.960 . S
C802 C800 1.381 . S
C802 C803 1.394 . S
C802 H810 0.930 . S
C803 C802 1.394 . S
C803 C804 1.383 . S
C803 H811 0.929 . S
C804 C803 1.383 . S
C804 C805 1.377 . S
C805 H789 0.930 . S
C805 C804 1.377 . S
C805 C806 1.379 . S
C806 H790 0.931 . S
C806 C800 1.383 . S
C806 C805 1.379 . S
H807 C801 0.959 . S
H808 C801 0.961 . S
H809 C801 0.960 . S
H810 C802 0.930 . S
H811 C803 0.929 . S
H812 C820 0.929 . S
H813 C822 0.930 . S
H814 C824 0.930 . S
H815 C827 0.929 . S
H816 C830 0.930 . S
H817 C832 0.960 . S
H818 C832 0.960 . S
H819 C832 0.960 . S
C820 H812 0.929 . S
C820 C821 1.377 . S
C820 C822 1.384 . S
C821 C820 1.377 . S
C821 C827 1.390 . S
C822 H813 0.930 . S
C822 C820 1.384 . S
C822 C823 1.372 . S
C823 C822 1.372 . S
C823 C824 1.400 . S
C823 C828 1.490 . S
C824 H814 0.930 . S
C824 C823 1.400 . S
C824 C827 1.386 . S
H825 C841 0.930 . S
H826 C842 0.931 . S
C827 H815 0.929 . S
C827 C821 1.390 . S
C827 C824 1.386 . S
C828 C823 1.490 . S
C828 C830 1.395 . S
C828 C831 1.403 . S
H829 C835 0.930 . S
C830 H816 0.930 . S
C830 C828 1.395 . S
C830 C833 1.403 . S
C831 C828 1.403 . S
C831 C832 1.524 . S
C831 C835 1.400 . S
C832 H817 0.960 . S
C832 H818 0.960 . S
C832 H819 0.960 . S
C832 C831 1.524 . S
C833 C830 1.403 . S
C833 C834 1.392 . S
C833 C837 1.495 . S
C834 C833 1.392 . S
C834 C835 1.385 . S
C834 C836 1.478 . S
C835 H829 0.930 . S
C835 C831 1.400 . S
C835 C834 1.385 . S
C836 C834 1.478 . S
C836 C838 1.381 . S
C836 C842 1.383 . S
C837 C833 1.495 . S
C837 H843 0.959 . S
C837 H844 0.961 . S
C837 H845 0.960 . S
C838 C836 1.381 . S
C838 C839 1.394 . S
C838 H846 0.930 . S
C839 C838 1.394 . S
C839 C840 1.383 . S
C839 H847 0.929 . S
C840 C839 1.383 . S
C840 C841 1.377 . S
C841 H825 0.930 . S
C841 C840 1.377 . S
C841 C842 1.379 . S
C842 H826 0.931 . S
C842 C836 1.383 . S
C842 C841 1.379 . S
H843 C837 0.959 . S
H844 C837 0.961 . S
H845 C837 0.960 . S
H846 C838 0.930 . S
H847 C839 0.929 . S
H848 C856 0.929 . S
H849 C858 0.930 . S
H850 C860 0.930 . S
H851 C863 0.929 . S
H852 C866 0.930 . S
H853 C868 0.960 . S
H854 C868 0.960 . S
H855 C868 0.960 . S
C856 H848 0.929 . S
C856 C857 1.377 . S
C856 C858 1.384 . S
C857 C856 1.377 . S
C857 C863 1.390 . S
C858 H849 0.930 . S
C858 C856 1.384 . S
C858 C859 1.372 . S
C859 C858 1.372 . S
C859 C860 1.400 . S
C859 C864 1.490 . S
C860 H850 0.930 . S
C860 C859 1.400 . S
C860 C863 1.386 . S
H861 C877 0.930 . S
H862 C878 0.931 . S
C863 H851 0.929 . S
C863 C857 1.390 . S
C863 C860 1.386 . S
C864 C859 1.490 . S
C864 C866 1.395 . S
C864 C867 1.403 . S
H865 C871 0.930 . S
C866 H852 0.930 . S
C866 C864 1.395 . S
C866 C869 1.403 . S
C867 C864 1.403 . S
C867 C868 1.524 . S
C867 C871 1.400 . S
C868 H853 0.960 . S
C868 H854 0.960 . S
C868 H855 0.960 . S
C868 C867 1.524 . S
C869 C866 1.403 . S
C869 C870 1.392 . S
C869 C873 1.495 . S
C870 C869 1.392 . S
C870 C871 1.385 . S
C870 C872 1.478 . S
C871 H865 0.930 . S
C871 C867 1.400 . S
C871 C870 1.385 . S
C872 C870 1.478 . S
C872 C874 1.381 . S
C872 C878 1.383 . S
C873 C869 1.495 . S
C873 H879 0.959 . S
C873 H880 0.961 . S
C873 H881 0.960 . S
C874 C872 1.381 . S
C874 C875 1.394 . S
C874 H882 0.930 . S
C875 C874 1.394 . S
C875 C876 1.383 . S
C875 H883 0.929 . S
C876 C875 1.383 . S
C876 C877 1.377 . S
C877 H861 0.930 . S
C877 C876 1.377 . S
C877 C878 1.379 . S
C878 H862 0.931 . S
C878 C872 1.383 . S
C878 C877 1.379 . S
H879 C873 0.959 . S
H880 C873 0.961 . S
H881 C873 0.960 . S
H882 C874 0.930 . S
H883 C875 0.929 . S
H884 C892 0.929 . S
H885 C894 0.930 . S
H886 C896 0.930 . S
H887 C899 0.929 . S
H888 C902 0.930 . S
H889 C904 0.960 . S
H890 C904 0.960 . S
H891 C904 0.960 . S
C892 H884 0.929 . S
C892 C893 1.377 . S
C892 C894 1.384 . S
C893 C892 1.377 . S
C893 C899 1.390 . S
C894 H885 0.930 . S
C894 C892 1.384 . S
C894 C895 1.372 . S
C895 C894 1.372 . S
C895 C896 1.400 . S
C895 C900 1.490 . S
C896 H886 0.930 . S
C896 C895 1.400 . S
C896 C899 1.386 . S
H897 C913 0.940 . S
H898 C914 0.931 . S
C899 H887 0.929 . S
C899 C893 1.390 . S
C899 C896 1.386 . S
C900 C895 1.490 . S
C900 C902 1.395 . S
C900 C903 1.403 1_655 S
H901 C907 0.930 . S
C902 H888 0.930 . S
C902 C900 1.395 . S
C902 C905 1.403 . S
C903 C900 1.403 1_455 S
C903 C904 1.524 . S
C903 C907 1.400 . S
C904 H889 0.960 . S
C904 H890 0.960 . S
C904 H891 0.960 . S
C904 C903 1.524 . S
C905 C902 1.403 . S
C905 C906 1.392 . S
C905 C909 1.495 . S
C906 C905 1.392 . S
C906 C907 1.385 1_655 S
C906 C908 1.478 . S
C907 H901 0.930 . S
C907 C903 1.400 . S
C907 C906 1.385 1_455 S
C908 C906 1.478 . S
C908 C910 1.381 1_655 S
C908 C914 1.383 . S
C909 C905 1.495 . S
C909 H915 0.959 . S
C909 H916 0.961 . S
C909 H917 0.960 . S
C910 C908 1.381 1_455 S
C910 C911 1.394 . S
C910 H918 0.930 . S
C911 C910 1.394 . S
C911 C912 1.383 . S
C911 H919 0.929 . S
C912 C911 1.383 . S
C912 C913 1.365 1_455 S
C913 H897 0.940 . S
C913 C912 1.365 1_655 S
C913 C914 1.384 . S
C914 H898 0.931 . S
C914 C908 1.383 . S
C914 C913 1.384 . S
H915 C909 0.959 . S
H916 C909 0.961 . S
H917 C909 0.960 . S
H918 C910 0.930 . S
H919 C911 0.929 . S
H920 C928 0.929 . S
H921 C930 0.930 . S
H922 C932 0.930 . S
H923 C935 0.929 . S
H924 C938 0.930 . S
H925 C940 0.960 . S
H926 C940 0.960 . S
H927 C940 0.960 . S
C928 H920 0.929 . S
C928 C929 1.377 . S
C928 C930 1.384 . S
C929 C928 1.377 . S
C929 C935 1.390 . S
C930 H921 0.930 . S
C930 C928 1.384 . S
C930 C931 1.372 . S
C931 C930 1.372 . S
C931 C932 1.400 . S
C931 C936 1.490 . S
C932 H922 0.930 . S
C932 C931 1.400 . S
C932 C935 1.386 . S
H933 C949 0.930 . S
H934 C950 0.931 . S
C935 H923 0.929 . S
C935 C929 1.390 . S
C935 C932 1.386 . S
C936 C931 1.490 . S
C936 C938 1.395 . S
C936 C939 1.403 . S
H937 C943 0.930 . S
C938 H924 0.930 . S
C938 C936 1.395 . S
C938 C941 1.403 . S
C939 C936 1.403 . S
C939 C940 1.524 . S
C939 C943 1.400 . S
C940 H925 0.960 . S
C940 H926 0.960 . S
C940 H927 0.960 . S
C940 C939 1.524 . S
C941 C938 1.403 . S
C941 C942 1.392 . S
C941 C945 1.495 . S
C942 C941 1.392 . S
C942 C943 1.385 . S
C942 C944 1.478 . S
C943 H937 0.930 . S
C943 C939 1.400 . S
C943 C942 1.385 . S
C944 C942 1.478 . S
C944 C946 1.381 . S
C944 C950 1.383 . S
C945 C941 1.495 . S
C945 H951 0.959 . S
C945 H952 0.961 . S
C945 H953 0.960 . S
C946 C944 1.381 . S
C946 C947 1.394 . S
C946 H954 0.930 . S
C947 C946 1.394 . S
C947 C948 1.383 . S
C947 H955 0.929 . S
C948 C947 1.383 . S
C948 C949 1.377 . S
C949 H933 0.930 . S
C949 C948 1.377 . S
C949 C950 1.379 . S
C950 H934 0.931 . S
C950 C944 1.383 . S
C950 C949 1.379 . S
H951 C945 0.959 . S
H952 C945 0.961 . S
H953 C945 0.960 . S
H954 C946 0.930 . S
H955 C947 0.929 . S
H956 C964 0.929 . S
H957 C966 0.930 . S
H958 C968 0.930 . S
H959 C971 0.929 . S
H960 C974 0.930 . S
H961 C976 0.960 . S
H962 C976 0.960 . S
H963 C976 0.960 . S
C964 H956 0.929 . S
C964 C965 1.377 . S
C964 C966 1.384 . S
C965 C964 1.377 . S
C965 C971 1.390 . S
C966 H957 0.930 . S
C966 C964 1.384 . S
C966 C967 1.372 . S
C967 C966 1.372 . S
C967 C968 1.400 . S
C967 C972 1.490 . S
C968 H958 0.930 . S
C968 C967 1.400 . S
C968 C971 1.386 . S
H969 C985 0.930 . S
H970 C986 0.931 . S
C971 H959 0.929 . S
C971 C965 1.390 . S
C971 C968 1.386 . S
C972 C967 1.490 . S
C972 C974 1.395 . S
C972 C975 1.403 . S
H973 C979 0.930 . S
C974 H960 0.930 . S
C974 C972 1.395 . S
C974 C977 1.403 . S
C975 C972 1.403 . S
C975 C976 1.524 . S
C975 C979 1.400 . S
C976 H961 0.960 . S
C976 H962 0.960 . S
C976 H963 0.960 . S
C976 C975 1.524 . S
C977 C974 1.403 . S
C977 C978 1.392 . S
C977 C981 1.495 . S
C978 C977 1.392 . S
C978 C979 1.385 . S
C978 C980 1.478 . S
C979 H973 0.930 . S
C979 C975 1.400 . S
C979 C978 1.385 . S
C980 C978 1.478 . S
C980 C982 1.381 . S
C980 C986 1.383 . S
C981 C977 1.495 . S
C981 H987 0.959 . S
C981 H988 0.961 . S
C981 H989 0.960 . S
C982 C980 1.381 . S
C982 C983 1.394 . S
C982 H990 0.930 . S
C983 C982 1.394 . S
C983 C984 1.383 . S
C983 H991 0.929 . S
C984 C983 1.383 . S
C984 C985 1.377 . S
C985 H969 0.930 . S
C985 C984 1.377 . S
C985 C986 1.379 . S
C986 H970 0.931 . S
C986 C980 1.383 . S
C986 C985 1.379 . S
H987 C981 0.959 . S
H988 C981 0.961 . S
H989 C981 0.960 . S
H990 C982 0.930 . S
H991 C983 0.929 . S
H992 C1000 0.921 1_545 S
H993 C1002 0.930 . S
H994 C1004 0.930 . S
H995 C1007 0.971 . S
H996 C1010 0.930 . S
H997 C1012 0.960 . S
H998 C1012 0.955 1_546 S
H999 C1012 0.960 . S
C1000 H992 0.921 1_565 S
C1000 C1001 1.352 1_565 S
C1000 C1002 1.422 . S
C1001 C1000 1.352 1_545 S
C1001 C1007 1.336 1_556 S
C1002 H993 0.930 . S
C1002 C1000 1.422 . S
C1002 C1003 1.372 . S
C1003 C1002 1.372 . S
C1003 C1004 1.400 1_556 S
C1003 C1008 1.490 . S
C1004 H994 0.930 . S
C1004 C1003 1.400 1_554 S
C1004 C1007 1.399 1_565 S
H1005 C1021 0.930 . S
H1006 C1022 0.931 . S
C1007 H995 0.971 . S
C1007 C1001 1.336 1_554 S
C1007 C1004 1.399 1_545 S
C1008 C1003 1.490 . S
C1008 C1010 1.395 . S
C1008 C1011 1.425 . S
H1009 C1015 0.930 . S
C1010 H996 0.930 . S
C1010 C1008 1.395 . S
C1010 C1013 1.403 . S
C1011 C1008 1.425 . S
C1011 C1012 1.514 1_556 S
C1011 C1015 1.391 1_556 S
C1012 H997 0.960 . S
C1012 H998 0.955 1_564 S
C1012 H999 0.960 . S
C1012 C1011 1.514 1_554 S
C1013 C1010 1.403 . S
C1013 C1014 1.392 . S
C1013 C1017 1.495 . S
C1014 C1013 1.392 . S
C1014 C1015 1.385 1_556 S
C1014 C1016 1.477 . S
C1015 H1009 0.930 . S
C1015 C1011 1.391 1_554 S
C1015 C1014 1.385 1_554 S
C1016 C1014 1.477 . S
C1016 C1018 1.379 . S
C1016 C1022 1.385 1_556 S
C1017 C1013 1.495 . S
C1017 H1023 0.959 . S
C1017 H1024 0.961 . S
C1017 H1025 0.960 . S
C1018 C1016 1.379 . S
C1018 C1019 1.394 . S
C1018 H1026 0.930 . S
C1019 C1018 1.394 . S
C1019 C1020 1.383 1_556 S
C1019 H1027 0.929 . S
C1020 C1019 1.383 1_554 S
C1020 C1021 1.377 . S
C1021 H1005 0.930 . S
C1021 C1020 1.377 . S
C1021 C1022 1.379 . S
C1022 H1006 0.931 . S
C1022 C1016 1.385 1_554 S
C1022 C1021 1.379 . S
H1023 C1017 0.959 . S
H1024 C1017 0.961 . S
H1025 C1017 0.960 . S
H1026 C1018 0.930 . S
H1027 C1019 0.929 . S
H1028 C1036 0.929 . S
H1029 C1038 0.930 . S
H1030 C1040 0.930 . S
H1031 C1043 0.929 . S
H1032 C1046 0.930 . S
H1033 C1048 0.960 . S
H1034 C1048 0.960 . S
H1035 C1048 0.960 . S
C1036 H1028 0.929 . S
C1036 C1037 1.377 . S
C1036 C1038 1.384 . S
C1037 C1036 1.377 . S
C1037 C1043 1.390 . S
C1038 H1029 0.930 . S
C1038 C1036 1.384 . S
C1038 C1039 1.372 . S
C1039 C1038 1.372 . S
C1039 C1040 1.400 . S
C1039 C1044 1.490 . S
C1040 H1030 0.930 . S
C1040 C1039 1.400 . S
C1040 C1043 1.386 . S
H1041 C1057 0.930 . S
H1042 C1058 0.931 . S
C1043 H1031 0.929 . S
C1043 C1037 1.390 . S
C1043 C1040 1.386 . S
C1044 C1039 1.490 . S
C1044 C1046 1.395 . S
C1044 C1047 1.403 . S
H1045 C1051 0.930 . S
C1046 H1032 0.930 . S
C1046 C1044 1.395 . S
C1046 C1049 1.403 . S
C1047 C1044 1.403 . S
C1047 C1048 1.524 . S
C1047 C1051 1.400 . S
C1048 H1033 0.960 . S
C1048 H1034 0.960 . S
C1048 H1035 0.960 . S
C1048 C1047 1.524 . S
C1049 C1046 1.403 . S
C1049 C1050 1.392 . S
C1049 C1053 1.495 . S
C1050 C1049 1.392 . S
C1050 C1051 1.385 . S
C1050 C1052 1.478 . S
C1051 H1045 0.930 . S
C1051 C1047 1.400 . S
C1051 C1050 1.385 . S
C1052 C1050 1.478 . S
C1052 C1054 1.381 . S
C1052 C1058 1.383 . S
C1053 C1049 1.495 . S
C1053 H1059 0.959 . S
C1053 H1060 0.961 . S
C1053 H1061 0.960 . S
C1054 C1052 1.381 . S
C1054 C1055 1.394 . S
C1054 H1062 0.930 . S
C1055 C1054 1.394 . S
C1055 C1056 1.383 . S
C1055 H1063 0.929 . S
C1056 C1055 1.383 . S
C1056 C1057 1.377 . S
C1057 H1041 0.930 . S
C1057 C1056 1.377 . S
C1057 C1058 1.379 . S
C1058 H1042 0.931 . S
C1058 C1052 1.383 . S
C1058 C1057 1.379 . S
H1059 C1053 0.959 . S
H1060 C1053 0.961 . S
H1061 C1053 0.960 . S
H1062 C1054 0.930 . S
H1063 C1055 0.929 . S
H1064 C1072 0.929 . S
H1065 C1074 0.951 . S
H1066 C1076 0.930 . S
H1067 C1079 0.929 . S
H1068 C1082 0.930 . S
H1069 C1084 0.960 . S
H1070 C1084 0.960 . S
H1071 C1084 0.960 . S
C1072 H1064 0.929 . S
C1072 C1073 1.377 . S
C1072 C1074 1.430 . S
C1073 C1072 1.377 . S
C1073 C1079 1.390 1_565 S
C1074 H1065 0.951 . S
C1074 C1072 1.430 . S
C1074 C1075 1.309 1_565 S
C1075 C1074 1.309 1_545 S
C1075 C1076 1.400 . S
C1075 C1080 1.490 . S
C1076 H1066 0.930 . S
C1076 C1075 1.400 . S
C1076 C1079 1.386 . S
H1077 C1093 0.930 . S
H1078 C1094 0.931 . S
C1079 H1067 0.929 . S
C1079 C1073 1.390 1_545 S
C1079 C1076 1.386 . S
C1080 C1075 1.490 . S
C1080 C1082 1.395 . S
C1080 C1083 1.403 . S
H1081 C1087 0.930 . S
C1082 H1068 0.930 . S
C1082 C1080 1.395 . S
C1082 C1085 1.403 . S
C1083 C1080 1.403 . S
C1083 C1084 1.524 . S
C1083 C1087 1.400 . S
C1084 H1069 0.960 . S
C1084 H1070 0.960 . S
C1084 H1071 0.960 . S
C1084 C1083 1.524 . S
C1085 C1082 1.403 . S
C1085 C1086 1.392 . S
C1085 C1089 1.495 . S
C1086 C1085 1.392 . S
C1086 C1087 1.385 . S
C1086 C1088 1.478 . S
C1087 H1081 0.930 . S
C1087 C1083 1.400 . S
C1087 C1086 1.385 . S
C1088 C1086 1.478 . S
C1088 C1090 1.381 . S
C1088 C1094 1.383 . S
C1089 C1085 1.495 . S
C1089 H1095 0.959 . S
C1089 H1096 0.961 . S
C1089 H1097 0.960 . S
C1090 C1088 1.381 . S
C1090 C1091 1.394 . S
C1090 H1098 0.930 . S
C1091 C1090 1.394 . S
C1091 C1092 1.383 . S
C1091 H1099 0.929 . S
C1092 C1091 1.383 . S
C1092 C1093 1.377 . S
C1093 H1077 0.930 . S
C1093 C1092 1.377 . S
C1093 C1094 1.379 . S
C1094 H1078 0.931 . S
C1094 C1088 1.383 . S
C1094 C1093 1.379 . S
H1095 C1089 0.959 . S
H1096 C1089 0.961 . S
H1097 C1089 0.960 . S
H1098 C1090 0.930 . S
H1099 C1091 0.929 . S
H1100 C1108 0.929 . S
H1101 C1110 0.930 . S
H1102 C1112 0.930 . S
H1103 C1115 0.929 . S
H1104 C1118 0.930 . S
H1105 C1120 0.960 . S
H1106 C1120 0.960 . S
H1107 C1120 0.960 . S
C1108 H1100 0.929 . S
C1108 C1109 1.377 . S
C1108 C1110 1.384 . S
C1109 C1108 1.377 . S
C1109 C1115 1.390 . S
C1110 H1101 0.930 . S
C1110 C1108 1.384 . S
C1110 C1111 1.372 . S
C1111 C1110 1.372 . S
C1111 C1112 1.400 . S
C1111 C1116 1.490 . S
C1112 H1102 0.930 . S
C1112 C1111 1.400 . S
C1112 C1115 1.386 . S
H1113 C1129 0.930 . S
H1114 C1130 0.931 . S
C1115 H1103 0.929 . S
C1115 C1109 1.390 . S
C1115 C1112 1.386 . S
C1116 C1111 1.490 . S
C1116 C1118 1.395 . S
C1116 C1119 1.403 . S
H1117 C1123 0.930 . S
C1118 H1104 0.930 . S
C1118 C1116 1.395 . S
C1118 C1121 1.403 . S
C1119 C1116 1.403 . S
C1119 C1120 1.524 . S
C1119 C1123 1.400 . S
C1120 H1105 0.960 . S
C1120 H1106 0.960 . S
C1120 H1107 0.960 . S
C1120 C1119 1.524 . S
C1121 C1118 1.403 . S
C1121 C1122 1.392 . S
C1121 C1125 1.495 . S
C1122 C1121 1.392 . S
C1122 C1123 1.385 . S
C1122 C1124 1.478 . S
C1123 H1117 0.930 . S
C1123 C1119 1.400 . S
C1123 C1122 1.385 . S
C1124 C1122 1.478 . S
C1124 C1126 1.381 . S
C1124 C1130 1.383 . S
C1125 C1121 1.495 . S
C1125 H1131 0.959 . S
C1125 H1132 0.961 . S
C1125 H1133 0.960 . S
C1126 C1124 1.381 . S
C1126 C1127 1.394 . S
C1126 H1134 0.930 . S
C1127 C1126 1.394 . S
C1127 C1128 1.383 . S
C1127 H1135 0.929 . S
C1128 C1127 1.383 . S
C1128 C1129 1.377 . S
C1129 H1113 0.930 . S
C1129 C1128 1.377 . S
C1129 C1130 1.379 . S
C1130 H1114 0.931 . S
C1130 C1124 1.383 . S
C1130 C1129 1.379 . S
H1131 C1125 0.959 . S
H1132 C1125 0.961 . S
H1133 C1125 0.960 . S
H1134 C1126 0.930 . S
H1135 C1127 0.929 . S
H1136 C1144 0.929 . S
H1137 C1146 0.930 . S
H1138 C1148 0.930 . S
H1139 C1151 0.929 . S
H1140 C1154 0.930 . S
H1141 C1156 0.960 . S
H1142 C1156 0.960 . S
H1143 C1156 0.960 . S
C1144 H1136 0.929 . S
C1144 C1145 1.377 . S
C1144 C1146 1.384 . S
C1145 C1144 1.377 . S
C1145 C1151 1.390 . S
C1146 H1137 0.930 . S
C1146 C1144 1.384 . S
C1146 C1147 1.372 . S
C1147 C1146 1.372 . S
C1147 C1148 1.400 . S
C1147 C1152 1.490 . S
C1148 H1138 0.930 . S
C1148 C1147 1.400 . S
C1148 C1151 1.386 . S
H1149 C1165 0.930 . S
H1150 C1166 0.931 . S
C1151 H1139 0.929 . S
C1151 C1145 1.390 . S
C1151 C1148 1.386 . S
C1152 C1147 1.490 . S
C1152 C1154 1.395 . S
C1152 C1155 1.403 . S
H1153 C1159 0.930 . S
C1154 H1140 0.930 . S
C1154 C1152 1.395 . S
C1154 C1157 1.403 . S
C1155 C1152 1.403 . S
C1155 C1156 1.524 . S
C1155 C1159 1.400 . S
C1156 H1141 0.960 . S
C1156 H1142 0.960 . S
C1156 H1143 0.960 . S
C1156 C1155 1.524 . S
C1157 C1154 1.403 . S
C1157 C1158 1.392 . S
C1157 C1161 1.495 . S
C1158 C1157 1.392 . S
C1158 C1159 1.385 . S
C1158 C1160 1.478 . S
C1159 H1153 0.930 . S
C1159 C1155 1.400 . S
C1159 C1158 1.385 . S
C1160 C1158 1.478 . S
C1160 C1162 1.381 . S
C1160 C1166 1.383 . S
C1161 C1157 1.495 . S
C1161 H1167 0.959 . S
C1161 H1168 0.961 . S
C1161 H1169 0.960 . S
C1162 C1160 1.381 . S
C1162 C1163 1.394 . S
C1162 H1170 0.930 . S
C1163 C1162 1.394 . S
C1163 C1164 1.383 . S
C1163 H1171 0.929 . S
C1164 C1163 1.383 . S
C1164 C1165 1.377 . S
C1165 H1149 0.930 . S
C1165 C1164 1.377 . S
C1165 C1166 1.379 . S
C1166 H1150 0.931 . S
C1166 C1160 1.383 . S
C1166 C1165 1.379 . S
H1167 C1161 0.959 . S
H1168 C1161 0.961 . S
H1169 C1161 0.960 . S
H1170 C1162 0.930 . S
H1171 C1163 0.929 . S
H1172 C1180 0.929 . S
H1173 C1182 0.930 . S
H1174 C1184 0.930 . S
H1175 C1187 0.929 . S
H1176 C1190 0.930 . S
H1177 C1192 0.960 . S
H1178 C1192 0.960 . S
H1179 C1192 0.960 . S
C1180 H1172 0.929 . S
C1180 C1181 1.377 . S
C1180 C1182 1.384 . S
C1181 C1180 1.377 . S
C1181 C1187 1.390 . S
C1182 H1173 0.930 . S
C1182 C1180 1.384 . S
C1182 C1183 1.372 . S
C1183 C1182 1.372 . S
C1183 C1184 1.400 . S
C1183 C1188 1.490 . S
C1184 H1174 0.930 . S
C1184 C1183 1.400 . S
C1184 C1187 1.386 . S
H1185 C1201 0.930 . S
H1186 C1202 0.931 . S
C1187 H1175 0.929 . S
C1187 C1181 1.390 . S
C1187 C1184 1.386 . S
C1188 C1183 1.490 . S
C1188 C1190 1.395 . S
C1188 C1191 1.403 . S
H1189 C1195 0.930 . S
C1190 H1176 0.930 . S
C1190 C1188 1.395 . S
C1190 C1193 1.403 . S
C1191 C1188 1.403 . S
C1191 C1192 1.524 . S
C1191 C1195 1.400 . S
C1192 H1177 0.960 . S
C1192 H1178 0.960 . S
C1192 H1179 0.960 . S
C1192 C1191 1.524 . S
C1193 C1190 1.403 . S
C1193 C1194 1.392 . S
C1193 C1197 1.495 . S
C1194 C1193 1.392 . S
C1194 C1195 1.385 . S
C1194 C1196 1.478 . S
C1195 H1189 0.930 . S
C1195 C1191 1.400 . S
C1195 C1194 1.385 . S
C1196 C1194 1.478 . S
C1196 C1198 1.381 . S
C1196 C1202 1.383 . S
C1197 C1193 1.495 . S
C1197 H1203 0.959 . S
C1197 H1204 0.961 . S
C1197 H1205 0.960 . S
C1198 C1196 1.381 . S
C1198 C1199 1.394 . S
C1198 H1206 0.930 . S
C1199 C1198 1.394 . S
C1199 C1200 1.383 . S
C1199 H1207 0.929 . S
C1200 C1199 1.383 . S
C1200 C1201 1.377 . S
C1201 H1185 0.930 . S
C1201 C1200 1.377 . S
C1201 C1202 1.379 . S
C1202 H1186 0.931 . S
C1202 C1196 1.383 . S
C1202 C1201 1.379 . S
H1203 C1197 0.959 . S
H1204 C1197 0.961 . S
H1205 C1197 0.960 . S
H1206 C1198 0.930 . S
H1207 C1199 0.929 . S
H1208 C1216 0.929 . S
H1209 C1218 0.930 . S
H1210 C1220 0.930 . S
H1211 C1223 0.929 . S
H1212 C1226 0.930 . S
H1213 C1228 0.960 . S
H1214 C1228 0.960 . S
H1215 C1228 0.960 . S
C1216 H1208 0.929 . S
C1216 C1217 1.377 . S
C1216 C1218 1.384 . S
C1217 C1216 1.377 . S
C1217 C1223 1.390 . S
C1218 H1209 0.930 . S
C1218 C1216 1.384 . S
C1218 C1219 1.372 . S
C1219 C1218 1.372 . S
C1219 C1220 1.400 . S
C1219 C1224 1.490 . S
C1220 H1210 0.930 . S
C1220 C1219 1.400 . S
C1220 C1223 1.386 . S
H1221 C1237 0.930 . S
H1222 C1238 0.931 . S
C1223 H1211 0.929 . S
C1223 C1217 1.390 . S
C1223 C1220 1.386 . S
C1224 C1219 1.490 . S
C1224 C1226 1.395 . S
C1224 C1227 1.403 . S
H1225 C1231 0.930 . S
C1226 H1212 0.930 . S
C1226 C1224 1.395 . S
C1226 C1229 1.403 . S
C1227 C1224 1.403 . S
C1227 C1228 1.524 . S
C1227 C1231 1.400 . S
C1228 H1213 0.960 . S
C1228 H1214 0.960 . S
C1228 H1215 0.960 . S
C1228 C1227 1.524 . S
C1229 C1226 1.403 . S
C1229 C1230 1.392 . S
C1229 C1233 1.495 . S
C1230 C1229 1.392 . S
C1230 C1231 1.385 . S
C1230 C1232 1.478 . S
C1231 H1225 0.930 . S
C1231 C1227 1.400 . S
C1231 C1230 1.385 . S
C1232 C1230 1.478 . S
C1232 C1234 1.381 . S
C1232 C1238 1.383 . S
C1233 C1229 1.495 . S
C1233 H1239 0.959 . S
C1233 H1240 0.961 . S
C1233 H1241 0.960 . S
C1234 C1232 1.381 . S
C1234 C1235 1.394 . S
C1234 H1242 0.930 . S
C1235 C1234 1.394 . S
C1235 C1236 1.383 . S
C1235 H1243 0.929 . S
C1236 C1235 1.383 . S
C1236 C1237 1.377 . S
C1237 H1221 0.930 . S
C1237 C1236 1.377 . S
C1237 C1238 1.379 . S
C1238 H1222 0.931 . S
C1238 C1232 1.383 . S
C1238 C1237 1.379 . S
H1239 C1233 0.959 . S
H1240 C1233 0.961 . S
H1241 C1233 0.960 . S
H1242 C1234 0.930 . S
H1243 C1235 0.929 . S
H1244 C1252 0.929 . S
H1245 C1254 0.930 . S
H1246 C1256 0.930 . S
H1247 C1259 0.929 . S
H1248 C1262 0.930 . S
H1249 C1264 0.960 . S
H1250 C1264 0.960 . S
H1251 C1264 0.960 . S
C1252 H1244 0.929 . S
C1252 C1253 1.377 . S
C1252 C1254 1.384 . S
C1253 C1252 1.377 . S
C1253 C1259 1.390 . S
C1254 H1245 0.930 . S
C1254 C1252 1.384 . S
C1254 C1255 1.372 . S
C1255 C1254 1.372 . S
C1255 C1256 1.400 . S
C1255 C1260 1.490 . S
C1256 H1246 0.930 . S
C1256 C1255 1.400 . S
C1256 C1259 1.386 . S
H1257 C1273 0.930 1_565 S
H1258 C1274 0.931 1_565 S
C1259 H1247 0.929 . S
C1259 C1253 1.390 . S
C1259 C1256 1.386 . S
C1260 C1255 1.490 . S
C1260 C1262 1.395 . S
C1260 C1263 1.403 . S
H1261 C1267 0.930 . S
C1262 H1248 0.930 . S
C1262 C1260 1.395 . S
C1262 C1265 1.403 . S
C1263 C1260 1.403 . S
C1263 C1264 1.524 . S
C1263 C1267 1.400 . S
C1264 H1249 0.960 . S
C1264 H1250 0.960 . S
C1264 H1251 0.960 . S
C1264 C1263 1.524 . S
C1265 C1262 1.403 . S
C1265 C1266 1.392 . S
C1265 C1269 1.495 . S
C1266 C1265 1.392 . S
C1266 C1267 1.385 . S
C1266 C1268 1.478 . S
C1267 H1261 0.930 . S
C1267 C1263 1.400 . S
C1267 C1266 1.385 . S
C1268 C1266 1.478 . S
C1268 C1270 1.381 . S
C1268 C1274 1.383 . S
C1269 C1265 1.495 . S
C1269 H1275 0.959 . S
C1269 H1276 0.961 . S
C1269 H1277 0.960 . S
C1270 C1268 1.381 . S
C1270 C1271 1.394 . S
C1270 H1278 0.930 . S
C1271 C1270 1.394 . S
C1271 C1272 1.383 . S
C1271 H1279 0.929 . S
C1272 C1271 1.383 . S
C1272 C1273 1.377 . S
C1273 H1257 0.930 1_545 S
C1273 C1272 1.377 . S
C1273 C1274 1.379 . S
C1274 H1258 0.931 1_545 S
C1274 C1268 1.383 . S
C1274 C1273 1.379 . S
H1275 C1269 0.959 . S
H1276 C1269 0.961 . S
H1277 C1269 0.960 . S
H1278 C1270 0.930 . S
H1279 C1271 0.929 . S
H1280 C1288 0.929 . S
H1281 C1290 0.930 . S
H1282 C1292 0.930 . S
H1283 C1295 0.929 . S
H1284 C1298 0.930 . S
H1285 C1300 0.960 . S
H1286 C1300 0.960 . S
H1287 C1300 0.960 . S
C1288 H1280 0.929 . S
C1288 C1289 1.377 . S
C1288 C1290 1.384 . S
C1289 C1288 1.377 . S
C1289 C1295 1.390 . S
C1290 H1281 0.930 . S
C1290 C1288 1.384 . S
C1290 C1291 1.372 . S
C1291 C1290 1.372 . S
C1291 C1292 1.400 . S
C1291 C1296 1.490 . S
C1292 H1282 0.930 . S
C1292 C1291 1.400 . S
C1292 C1295 1.386 . S
H1293 C1309 0.930 . S
H1294 C1310 0.931 . S
C1295 H1283 0.929 . S
C1295 C1289 1.390 . S
C1295 C1292 1.386 . S
C1296 C1291 1.490 . S
C1296 C1298 1.395 . S
C1296 C1299 1.403 . S
H1297 C1303 0.930 . S
C1298 H1284 0.930 . S
C1298 C1296 1.395 . S
C1298 C1301 1.403 . S
C1299 C1296 1.403 . S
C1299 C1300 1.524 . S
C1299 C1303 1.400 . S
C1300 H1285 0.960 . S
C1300 H1286 0.960 . S
C1300 H1287 0.960 . S
C1300 C1299 1.524 . S
C1301 C1298 1.403 . S
C1301 C1302 1.392 . S
C1301 C1305 1.495 . S
C1302 C1301 1.392 . S
C1302 C1303 1.385 . S
C1302 C1304 1.478 . S
C1303 H1297 0.930 . S
C1303 C1299 1.400 . S
C1303 C1302 1.385 . S
C1304 C1302 1.478 . S
C1304 C1306 1.381 . S
C1304 C1310 1.383 . S
C1305 C1301 1.495 . S
C1305 H1311 0.959 . S
C1305 H1312 0.961 . S
C1305 H1313 0.960 . S
C1306 C1304 1.381 . S
C1306 C1307 1.394 . S
C1306 H1314 0.930 . S
C1307 C1306 1.394 . S
C1307 C1308 1.383 . S
C1307 H1315 0.929 . S
C1308 C1307 1.383 . S
C1308 C1309 1.377 . S
C1309 H1293 0.930 . S
C1309 C1308 1.377 . S
C1309 C1310 1.379 . S
C1310 H1294 0.931 . S
C1310 C1304 1.383 . S
C1310 C1309 1.379 . S
H1311 C1305 0.959 . S
H1312 C1305 0.961 . S
H1313 C1305 0.960 . S
H1314 C1306 0.930 . S
H1315 C1307 0.929 . S
H1316 C1324 0.929 . S
H1317 C1326 0.930 . S
H1318 C1328 0.930 . S
H1319 C1331 0.929 . S
H1320 C1334 0.930 . S
H1321 C1336 0.960 . S
H1322 C1336 0.960 . S
H1323 C1336 0.960 . S
C1324 H1316 0.929 . S
C1324 C1325 1.377 . S
C1324 C1326 1.384 . S
C1325 C1324 1.377 . S
C1325 C1331 1.390 . S
C1326 H1317 0.930 . S
C1326 C1324 1.384 . S
C1326 C1327 1.372 . S
C1327 C1326 1.372 . S
C1327 C1328 1.400 . S
C1327 C1332 1.490 . S
C1328 H1318 0.930 . S
C1328 C1327 1.400 . S
C1328 C1331 1.386 . S
H1329 C1345 0.930 . S
H1330 C1346 0.931 . S
C1331 H1319 0.929 . S
C1331 C1325 1.390 . S
C1331 C1328 1.386 . S
C1332 C1327 1.490 . S
C1332 C1334 1.395 . S
C1332 C1335 1.403 . S
H1333 C1339 0.930 . S
C1334 H1320 0.930 . S
C1334 C1332 1.395 . S
C1334 C1337 1.403 . S
C1335 C1332 1.403 . S
C1335 C1336 1.524 . S
C1335 C1339 1.400 . S
C1336 H1321 0.960 . S
C1336 H1322 0.960 . S
C1336 H1323 0.960 . S
C1336 C1335 1.524 . S
C1337 C1334 1.403 . S
C1337 C1338 1.392 . S
C1337 C1341 1.495 . S
C1338 C1337 1.392 . S
C1338 C1339 1.385 . S
C1338 C1340 1.478 . S
C1339 H1333 0.930 . S
C1339 C1335 1.400 . S
C1339 C1338 1.385 . S
C1340 C1338 1.478 . S
C1340 C1342 1.381 . S
C1340 C1346 1.383 . S
C1341 C1337 1.495 . S
C1341 H1347 0.959 . S
C1341 H1348 0.961 . S
C1341 H1349 0.960 . S
C1342 C1340 1.381 . S
C1342 C1343 1.394 . S
C1342 H1350 0.930 . S
C1343 C1342 1.394 . S
C1343 C1344 1.383 . S
C1343 H1351 0.929 . S
C1344 C1343 1.383 . S
C1344 C1345 1.377 . S
C1345 H1329 0.930 . S
C1345 C1344 1.377 . S
C1345 C1346 1.379 . S
C1346 H1330 0.931 . S
C1346 C1340 1.383 . S
C1346 C1345 1.379 . S
H1347 C1341 0.959 . S
H1348 C1341 0.961 . S
H1349 C1341 0.960 . S
H1350 C1342 0.930 . S
H1351 C1343 0.929 . S
H1352 C1360 0.929 . S
H1353 C1362 0.930 . S
H1354 C1364 0.930 . S
H1355 C1367 0.929 . S
H1356 C1370 0.930 . S
H1357 C1372 0.960 . S
H1358 C1372 0.960 . S
H1359 C1372 0.960 . S
C1360 H1352 0.929 . S
C1360 C1361 1.377 . S
C1360 C1362 1.384 . S
C1361 C1360 1.377 . S
C1361 C1367 1.390 . S
C1362 H1353 0.930 . S
C1362 C1360 1.384 . S
C1362 C1363 1.372 . S
C1363 C1362 1.372 . S
C1363 C1364 1.400 . S
C1363 C1368 1.490 . S
C1364 H1354 0.930 . S
C1364 C1363 1.400 . S
C1364 C1367 1.386 . S
H1365 C1381 0.930 . S
H1366 C1382 0.931 . S
C1367 H1355 0.929 . S
C1367 C1361 1.390 . S
C1367 C1364 1.386 . S
C1368 C1363 1.490 . S
C1368 C1370 1.395 . S
C1368 C1371 1.403 . S
H1369 C1375 0.930 . S
C1370 H1356 0.930 . S
C1370 C1368 1.395 . S
C1370 C1373 1.403 . S
C1371 C1368 1.403 . S
C1371 C1372 1.524 . S
C1371 C1375 1.400 . S
C1372 H1357 0.960 . S
C1372 H1358 0.960 . S
C1372 H1359 0.960 . S
C1372 C1371 1.524 . S
C1373 C1370 1.403 . S
C1373 C1374 1.392 . S
C1373 C1377 1.495 . S
C1374 C1373 1.392 . S
C1374 C1375 1.385 . S
C1374 C1376 1.478 . S
C1375 H1369 0.930 . S
C1375 C1371 1.400 . S
C1375 C1374 1.385 . S
C1376 C1374 1.478 . S
C1376 C1378 1.381 . S
C1376 C1382 1.383 . S
C1377 C1373 1.495 . S
C1377 H1383 0.959 . S
C1377 H1384 0.961 . S
C1377 H1385 0.960 . S
C1378 C1376 1.381 . S
C1378 C1379 1.394 . S
C1378 H1386 0.930 . S
C1379 C1378 1.394 . S
C1379 C1380 1.383 . S
C1379 H1387 0.929 . S
C1380 C1379 1.383 . S
C1380 C1381 1.377 . S
C1381 H1365 0.930 . S
C1381 C1380 1.377 . S
C1381 C1382 1.379 . S
C1382 H1366 0.931 . S
C1382 C1376 1.383 . S
C1382 C1381 1.379 . S
H1383 C1377 0.959 . S
H1384 C1377 0.961 . S
H1385 C1377 0.960 . S
H1386 C1378 0.930 . S
H1387 C1379 0.929 . S
H1388 C1396 0.929 . S
H1389 C1398 0.930 . S
H1390 C1400 0.930 . S
H1391 C1403 0.929 . S
H1392 C1406 0.930 . S
H1393 C1408 0.960 . S
H1394 C1408 0.960 . S
H1395 C1408 0.960 . S
C1396 H1388 0.929 . S
C1396 C1397 1.377 . S
C1396 C1398 1.384 . S
C1397 C1396 1.377 . S
C1397 C1403 1.390 . S
C1398 H1389 0.930 . S
C1398 C1396 1.384 . S
C1398 C1399 1.372 . S
C1399 C1398 1.372 . S
C1399 C1400 1.400 . S
C1399 C1404 1.490 . S
C1400 H1390 0.930 . S
C1400 C1399 1.400 . S
C1400 C1403 1.386 . S
H1401 C1417 0.930 . S
H1402 C1418 0.931 . S
C1403 H1391 0.929 . S
C1403 C1397 1.390 . S
C1403 C1400 1.386 . S
C1404 C1399 1.490 . S
C1404 C1406 1.395 . S
C1404 C1407 1.403 . S
H1405 C1411 0.930 . S
C1406 H1392 0.930 . S
C1406 C1404 1.395 . S
C1406 C1409 1.403 . S
C1407 C1404 1.403 . S
C1407 C1408 1.524 . S
C1407 C1411 1.400 . S
C1408 H1393 0.960 . S
C1408 H1394 0.960 . S
C1408 H1395 0.960 . S
C1408 C1407 1.524 . S
C1409 C1406 1.403 . S
C1409 C1410 1.392 . S
C1409 C1413 1.495 . S
C1410 C1409 1.392 . S
C1410 C1411 1.385 . S
C1410 C1412 1.478 . S
C1411 H1405 0.930 . S
C1411 C1407 1.400 . S
C1411 C1410 1.385 . S
C1412 C1410 1.478 . S
C1412 C1414 1.381 . S
C1412 C1418 1.383 . S
C1413 C1409 1.495 . S
C1413 H1419 0.935 1_545 S
C1413 H1420 0.961 . S
C1413 H1421 0.960 1_545 S
C1414 C1412 1.381 . S
C1414 C1415 1.394 . S
C1414 H1422 0.930 1_545 S
C1415 C1414 1.394 . S
C1415 C1416 1.383 . S
C1415 H1423 0.929 1_545 S
C1416 C1415 1.383 . S
C1416 C1417 1.377 . S
C1417 H1401 0.930 . S
C1417 C1416 1.377 . S
C1417 C1418 1.379 . S
C1418 H1402 0.931 . S
C1418 C1412 1.383 . S
C1418 C1417 1.379 . S
H1419 C1413 0.935 1_565 S
H1420 C1413 0.961 . S
H1421 C1413 0.960 1_565 S
H1422 C1414 0.930 1_565 S
H1423 C1415 0.929 1_565 S
H1424 C1432 0.929 . S
H1425 C1434 0.930 . S
H1426 C1436 0.930 . S
H1427 C1439 0.929 . S
H1428 C1442 0.930 . S
H1429 C1444 0.960 . S
H1430 C1444 0.960 . S
H1431 C1444 0.960 . S
C1432 H1424 0.929 . S
C1432 C1433 1.377 . S
C1432 C1434 1.384 . S
C1433 C1432 1.377 . S
C1433 C1439 1.390 . S
C1434 H1425 0.930 . S
C1434 C1432 1.384 . S
C1434 C1435 1.372 . S
C1435 C1434 1.372 . S
C1435 C1436 1.400 . S
C1435 C1440 1.490 . S
C1436 H1426 0.930 . S
C1436 C1435 1.400 . S
C1436 C1439 1.386 . S
H1437 C1453 0.930 . S
H1438 C1454 0.931 . S
C1439 H1427 0.929 . S
C1439 C1433 1.390 . S
C1439 C1436 1.386 . S
C1440 C1435 1.490 . S
C1440 C1442 1.395 . S
C1440 C1443 1.403 . S
H1441 C1447 0.930 . S
C1442 H1428 0.930 . S
C1442 C1440 1.395 . S
C1442 C1445 1.403 . S
C1443 C1440 1.403 . S
C1443 C1444 1.524 . S
C1443 C1447 1.400 . S
C1444 H1429 0.960 . S
C1444 H1430 0.960 . S
C1444 H1431 0.960 . S
C1444 C1443 1.524 . S
C1445 C1442 1.403 . S
C1445 C1446 1.392 . S
C1445 C1449 1.495 . S
C1446 C1445 1.392 . S
C1446 C1447 1.385 . S
C1446 C1448 1.478 . S
C1447 H1441 0.930 . S
C1447 C1443 1.400 . S
C1447 C1446 1.385 . S
C1448 C1446 1.478 . S
C1448 C1450 1.381 . S
C1448 C1454 1.383 . S
C1449 C1445 1.495 . S
C1449 H1455 0.959 . S
C1449 H1456 0.961 . S
C1449 H1457 0.960 . S
C1450 C1448 1.381 . S
C1450 C1451 1.394 . S
C1450 H1458 0.930 . S
C1451 C1450 1.394 . S
C1451 C1452 1.383 . S
C1451 H1459 0.929 . S
C1452 C1451 1.383 . S
C1452 C1453 1.377 . S
C1453 H1437 0.930 . S
C1453 C1452 1.377 . S
C1453 C1454 1.379 . S
C1454 H1438 0.931 . S
C1454 C1448 1.383 . S
C1454 C1453 1.379 . S
H1455 C1449 0.959 . S
H1456 C1449 0.961 . S
H1457 C1449 0.960 . S
H1458 C1450 0.930 . S
H1459 C1451 0.929 . S
H1460 C1468 0.929 . S
H1461 C1470 0.930 . S
H1462 C1472 0.930 . S
H1463 C1475 0.929 . S
H1464 C1478 0.930 . S
H1465 C1480 0.960 . S
H1466 C1480 0.960 . S
H1467 C1480 0.960 . S
C1468 H1460 0.929 . S
C1468 C1469 1.377 . S
C1468 C1470 1.384 . S
C1469 C1468 1.377 . S
C1469 C1475 1.390 . S
C1470 H1461 0.930 . S
C1470 C1468 1.384 . S
C1470 C1471 1.372 1_655 S
C1471 C1470 1.372 1_455 S
C1471 C1472 1.400 . S
C1471 C1476 1.490 . S
C1472 H1462 0.930 . S
C1472 C1471 1.400 . S
C1472 C1475 1.386 1_455 S
H1473 C1489 0.930 . S
H1474 C1490 0.931 . S
C1475 H1463 0.929 . S
C1475 C1469 1.390 . S
C1475 C1472 1.386 1_655 S
C1476 C1471 1.490 . S
C1476 C1478 1.395 . S
C1476 C1479 1.403 . S
H1477 C1483 0.930 . S
C1478 H1464 0.930 . S
C1478 C1476 1.395 . S
C1478 C1481 1.403 . S
C1479 C1476 1.403 . S
C1479 C1480 1.524 . S
C1479 C1483 1.400 . S
C1480 H1465 0.960 . S
C1480 H1466 0.960 . S
C1480 H1467 0.960 . S
C1480 C1479 1.524 . S
C1481 C1478 1.403 . S
C1481 C1482 1.392 . S
C1481 C1485 1.495 . S
C1482 C1481 1.392 . S
C1482 C1483 1.385 . S
C1482 C1484 1.478 . S
C1483 H1477 0.930 . S
C1483 C1479 1.400 . S
C1483 C1482 1.385 . S
C1484 C1482 1.478 . S
C1484 C1486 1.381 . S
C1484 C1490 1.383 . S
C1485 C1481 1.495 . S
C1485 H1491 0.959 . S
C1485 H1492 0.961 . S
C1485 H1493 0.960 . S
C1486 C1484 1.381 . S
C1486 C1487 1.394 . S
C1486 H1494 0.930 . S
C1487 C1486 1.394 . S
C1487 C1488 1.383 . S
C1487 H1495 0.929 . S
C1488 C1487 1.383 . S
C1488 C1489 1.377 . S
C1489 H1473 0.930 . S
C1489 C1488 1.377 . S
C1489 C1490 1.379 . S
C1490 H1474 0.931 . S
C1490 C1484 1.383 . S
C1490 C1489 1.379 . S
H1491 C1485 0.959 . S
H1492 C1485 0.961 . S
H1493 C1485 0.960 . S
H1494 C1486 0.930 . S
H1495 C1487 0.929 . S
H1496 C1504 0.929 . S
H1497 C1506 0.930 . S
H1498 C1508 0.930 . S
H1499 C1511 0.929 . S
H1500 C1514 0.930 . S
H1501 C1516 0.960 . S
H1502 C1516 0.960 . S
H1503 C1516 0.960 . S
C1504 H1496 0.929 . S
C1504 C1505 1.377 . S
C1504 C1506 1.384 . S
C1505 C1504 1.377 . S
C1505 C1511 1.390 . S
C1506 H1497 0.930 . S
C1506 C1504 1.384 . S
C1506 C1507 1.372 . S
C1507 C1506 1.372 . S
C1507 C1508 1.400 . S
C1507 C1512 1.490 . S
C1508 H1498 0.930 . S
C1508 C1507 1.400 . S
C1508 C1511 1.386 . S
H1509 C1525 0.930 . S
H1510 C1526 0.931 . S
C1511 H1499 0.929 . S
C1511 C1505 1.390 . S
C1511 C1508 1.386 . S
C1512 C1507 1.490 . S
C1512 C1514 1.395 . S
C1512 C1515 1.403 . S
H1513 C1519 0.930 . S
C1514 H1500 0.930 . S
C1514 C1512 1.395 . S
C1514 C1517 1.403 . S
C1515 C1512 1.403 . S
C1515 C1516 1.524 . S
C1515 C1519 1.400 . S
C1516 H1501 0.960 . S
C1516 H1502 0.960 . S
C1516 H1503 0.960 . S
C1516 C1515 1.524 . S
C1517 C1514 1.403 . S
C1517 C1518 1.392 . S
C1517 C1521 1.495 . S
C1518 C1517 1.392 . S
C1518 C1519 1.385 . S
C1518 C1520 1.478 . S
C1519 H1513 0.930 . S
C1519 C1515 1.400 . S
C1519 C1518 1.385 . S
C1520 C1518 1.478 . S
C1520 C1522 1.381 . S
C1520 C1526 1.383 . S
C1521 C1517 1.495 . S
C1521 H1527 0.959 . S
C1521 H1528 0.961 . S
C1521 H1529 0.960 . S
C1522 C1520 1.381 . S
C1522 C1523 1.394 . S
C1522 H1530 0.930 . S
C1523 C1522 1.394 . S
C1523 C1524 1.383 . S
C1523 H1531 0.929 . S
C1524 C1523 1.383 . S
C1524 C1525 1.377 . S
C1525 H1509 0.930 . S
C1525 C1524 1.377 . S
C1525 C1526 1.379 . S
C1526 H1510 0.931 . S
C1526 C1520 1.383 . S
C1526 C1525 1.379 . S
H1527 C1521 0.959 . S
H1528 C1521 0.961 . S
H1529 C1521 0.960 . S
H1530 C1522 0.930 . S
H1531 C1523 0.929 . S
H1532 C1540 0.929 . S
H1533 C1542 0.930 . S
H1534 C1544 0.930 . S
H1535 C1547 0.929 . S
H1536 C1550 0.930 . S
H1537 C1552 0.962 1_455 S
H1538 C1552 0.960 . S
H1539 C1552 0.963 1_455 S
C1540 H1532 0.929 . S
C1540 C1541 1.377 . S
C1540 C1542 1.384 . S
C1541 C1540 1.377 . S
C1541 C1547 1.390 . S
C1542 H1533 0.930 . S
C1542 C1540 1.384 . S
C1542 C1543 1.372 . S
C1543 C1542 1.372 . S
C1543 C1544 1.400 . S
C1543 C1548 1.490 . S
C1544 H1534 0.930 . S
C1544 C1543 1.400 . S
C1544 C1547 1.386 . S
H1545 C1561 0.930 . S
H1546 C1562 0.931 . S
C1547 H1535 0.929 . S
C1547 C1541 1.390 . S
C1547 C1544 1.386 . S
C1548 C1543 1.490 . S
C1548 C1550 1.395 . S
C1548 C1551 1.403 . S
H1549 C1555 0.930 . S
C1550 H1536 0.930 . S
C1550 C1548 1.395 . S
C1550 C1553 1.380 1_554 S
C1551 C1548 1.403 . S
C1551 C1552 1.524 . S
C1551 C1555 1.400 . S
C1552 H1537 0.962 1_655 S
C1552 H1538 0.960 . S
C1552 H1539 0.963 1_655 S
C1552 C1551 1.524 . S
C1553 C1550 1.380 1_556 S
C1553 C1554 1.382 1_556 S
C1553 C1557 1.528 . S
C1554 C1553 1.382 1_554 S
C1554 C1555 1.385 . S
C1554 C1556 1.478 1_554 S
C1555 H1549 0.930 . S
C1555 C1551 1.400 . S
C1555 C1554 1.385 . S
C1556 C1554 1.478 1_556 S
C1556 C1558 1.381 . S
C1556 C1562 1.383 1_655 S
C1557 C1553 1.528 . S
C1557 H1563 0.959 . S
C1557 H1564 0.961 . S
C1557 H1565 0.960 . S
C1558 C1556 1.381 . S
C1558 C1559 1.394 . S
C1558 H1566 0.930 . S
C1559 C1558 1.394 . S
C1559 C1560 1.383 . S
C1559 H1567 0.929 . S
C1560 C1559 1.383 . S
C1560 C1561 1.377 1_655 S
C1561 H1545 0.930 . S
C1561 C1560 1.377 1_455 S
C1561 C1562 1.379 . S
C1562 H1546 0.931 . S
C1562 C1556 1.383 1_455 S
C1562 C1561 1.379 . S
H1563 C1557 0.959 . S
H1564 C1557 0.961 . S
H1565 C1557 0.960 . S
H1566 C1558 0.930 . S
H1567 C1559 0.929 . S
H1568 C1576 0.929 . S
H1569 C1578 0.930 . S
H1570 C1580 0.930 . S
H1571 C1583 0.929 . S
H1572 C1586 0.930 . S
H1573 C1588 0.960 . S
H1574 C1588 0.960 . S
H1575 C1588 0.960 . S
C1576 H1568 0.929 . S
C1576 C1577 1.377 . S
C1576 C1578 1.384 . S
C1577 C1576 1.377 . S
C1577 C1583 1.390 . S
C1578 H1569 0.930 . S
C1578 C1576 1.384 . S
C1578 C1579 1.372 . S
C1579 C1578 1.372 . S
C1579 C1580 1.400 . S
C1579 C1584 1.490 . S
C1580 H1570 0.930 . S
C1580 C1579 1.400 . S
C1580 C1583 1.386 . S
H1581 C1597 0.930 . S
H1582 C1598 0.931 . S
C1583 H1571 0.929 . S
C1583 C1577 1.390 . S
C1583 C1580 1.386 . S
C1584 C1579 1.490 . S
C1584 C1586 1.395 . S
C1584 C1587 1.403 . S
H1585 C1591 0.930 . S
C1586 H1572 0.930 . S
C1586 C1584 1.395 . S
C1586 C1589 1.403 . S
C1587 C1584 1.403 . S
C1587 C1588 1.524 . S
C1587 C1591 1.400 . S
C1588 H1573 0.960 . S
C1588 H1574 0.960 . S
C1588 H1575 0.960 . S
C1588 C1587 1.524 . S
C1589 C1586 1.403 . S
C1589 C1590 1.392 . S
C1589 C1593 1.495 . S
C1590 C1589 1.392 . S
C1590 C1591 1.385 . S
C1590 C1592 1.478 . S
C1591 H1585 0.930 . S
C1591 C1587 1.400 . S
C1591 C1590 1.385 . S
C1592 C1590 1.478 . S
C1592 C1594 1.381 . S
C1592 C1598 1.383 . S
C1593 C1589 1.495 . S
C1593 H1599 0.959 . S
C1593 H1600 0.961 . S
C1593 H1601 0.960 . S
C1594 C1592 1.381 . S
C1594 C1595 1.394 . S
C1594 H1602 0.930 . S
C1595 C1594 1.394 . S
C1595 C1596 1.383 . S
C1595 H1603 0.929 . S
C1596 C1595 1.383 . S
C1596 C1597 1.377 . S
C1597 H1581 0.930 . S
C1597 C1596 1.377 . S
C1597 C1598 1.379 . S
C1598 H1582 0.931 . S
C1598 C1592 1.383 . S
C1598 C1597 1.379 . S
H1599 C1593 0.959 . S
H1600 C1593 0.961 . S
H1601 C1593 0.960 . S
H1602 C1594 0.930 . S
H1603 C1595 0.929 . S
H1604 C1612 0.929 . S
H1605 C1614 0.930 . S
H1606 C1616 0.930 . S
H1607 C1619 0.929 . S
H1608 C1622 0.930 . S
H1609 C1624 0.960 . S
H1610 C1624 0.960 . S
H1611 C1624 0.960 . S
C1612 H1604 0.929 . S
C1612 C1613 1.377 . S
C1612 C1614 1.384 . S
C1613 C1612 1.377 . S
C1613 C1619 1.390 . S
C1614 H1605 0.930 . S
C1614 C1612 1.384 . S
C1614 C1615 1.372 . S
C1615 C1614 1.372 . S
C1615 C1616 1.400 . S
C1615 C1620 1.490 . S
C1616 H1606 0.930 . S
C1616 C1615 1.400 . S
C1616 C1619 1.386 . S
H1617 C1633 0.898 1_655 S
H1618 C1634 0.931 . S
C1619 H1607 0.929 . S
C1619 C1613 1.390 . S
C1619 C1616 1.386 . S
C1620 C1615 1.490 . S
C1620 C1622 1.395 . S
C1620 C1623 1.403 . S
H1621 C1627 0.883 1_655 S
C1622 H1608 0.930 . S
C1622 C1620 1.395 . S
C1622 C1625 1.403 1_554 S
C1623 C1620 1.403 . S
C1623 C1624 1.524 1_455 S
C1623 C1627 1.400 . S
C1624 H1609 0.960 . S
C1624 H1610 0.960 . S
C1624 H1611 0.960 . S
C1624 C1623 1.524 1_655 S
C1625 C1622 1.403 1_556 S
C1625 C1626 1.392 . S
C1625 C1629 1.495 . S
C1626 C1625 1.392 . S
C1626 C1627 1.385 1_556 S
C1626 C1628 1.478 . S
C1627 H1621 0.883 1_455 S
C1627 C1623 1.400 . S
C1627 C1626 1.385 1_554 S
C1628 C1626 1.478 . S
C1628 C1630 1.381 . S
C1628 C1634 1.383 . S
C1629 C1625 1.495 . S
C1629 H1635 0.959 . S
C1629 H1636 0.961 . S
C1629 H1637 0.960 . S
C1630 C1628 1.381 . S
C1630 C1631 1.394 . S
C1630 H1638 0.930 1_556 S
C1631 C1630 1.394 . S
C1631 C1632 1.383 . S
C1631 H1639 0.929 . S
C1632 C1631 1.383 . S
C1632 C1633 1.377 . S
C1633 H1617 0.898 1_455 S
C1633 C1632 1.377 . S
C1633 C1634 1.379 . S
C1634 H1618 0.931 . S
C1634 C1628 1.383 . S
C1634 C1633 1.379 . S
H1635 C1629 0.959 . S
H1636 C1629 0.961 . S
H1637 C1629 0.960 . S
H1638 C1630 0.930 1_554 S
H1639 C1631 0.929 . S
H1640 C1648 0.929 . S
H1641 C1650 0.930 . S
H1642 C1652 0.930 . S
H1643 C1655 0.929 . S
H1644 C1658 0.930 . S
H1645 C1660 0.960 . S
H1646 C1660 0.960 . S
H1647 C1660 0.960 . S
C1648 H1640 0.929 . S
C1648 C1649 1.377 . S
C1648 C1650 1.384 . S
C1649 C1648 1.377 . S
C1649 C1655 1.390 . S
C1650 H1641 0.930 . S
C1650 C1648 1.384 . S
C1650 C1651 1.372 . S
C1651 C1650 1.372 . S
C1651 C1652 1.400 . S
C1651 C1656 1.490 . S
C1652 H1642 0.930 . S
C1652 C1651 1.400 . S
C1652 C1655 1.386 . S
H1653 C1669 0.930 . S
H1654 C1670 0.931 . S
C1655 H1643 0.929 . S
C1655 C1649 1.390 . S
C1655 C1652 1.386 . S
C1656 C1651 1.490 . S
C1656 C1658 1.395 . S
C1656 C1659 1.403 . S
H1657 C1663 0.930 . S
C1658 H1644 0.930 . S
C1658 C1656 1.395 . S
C1658 C1661 1.403 . S
C1659 C1656 1.403 . S
C1659 C1660 1.524 . S
C1659 C1663 1.400 . S
C1660 H1645 0.960 . S
C1660 H1646 0.960 . S
C1660 H1647 0.960 . S
C1660 C1659 1.524 . S
C1661 C1658 1.403 . S
C1661 C1662 1.392 . S
C1661 C1665 1.495 . S
C1662 C1661 1.392 . S
C1662 C1663 1.385 . S
C1662 C1664 1.478 . S
C1663 H1657 0.930 . S
C1663 C1659 1.400 . S
C1663 C1662 1.385 . S
C1664 C1662 1.478 . S
C1664 C1666 1.381 . S
C1664 C1670 1.383 . S
C1665 C1661 1.495 . S
C1665 H1671 0.959 . S
C1665 H1672 0.961 . S
C1665 H1673 0.960 . S
C1666 C1664 1.381 . S
C1666 C1667 1.394 . S
C1666 H1674 0.930 . S
C1667 C1666 1.394 . S
C1667 C1668 1.383 . S
C1667 H1675 0.929 . S
C1668 C1667 1.383 . S
C1668 C1669 1.377 . S
C1669 H1653 0.930 . S
C1669 C1668 1.377 . S
C1669 C1670 1.379 . S
C1670 H1654 0.931 . S
C1670 C1664 1.383 . S
C1670 C1669 1.379 . S
H1671 C1665 0.959 . S
H1672 C1665 0.961 . S
H1673 C1665 0.960 . S
H1674 C1666 0.930 . S
H1675 C1667 0.929 . S
H1676 C1684 0.929 . S
H1677 C1686 0.930 . S
H1678 C1688 0.930 . S
H1679 C1691 0.929 . S
H1680 C1694 0.930 . S
H1681 C1696 0.960 . S
H1682 C1696 0.960 . S
H1683 C1696 0.960 . S
C1684 H1676 0.929 . S
C1684 C1685 1.377 . S
C1684 C1686 1.384 . S
C1685 C1684 1.377 . S
C1685 C1691 1.390 . S
C1686 H1677 0.930 . S
C1686 C1684 1.384 . S
C1686 C1687 1.372 . S
C1687 C1686 1.372 . S
C1687 C1688 1.400 . S
C1687 C1692 1.490 . S
C1688 H1678 0.930 . S
C1688 C1687 1.400 . S
C1688 C1691 1.386 . S
H1689 C1705 0.930 . S
H1690 C1706 0.931 . S
C1691 H1679 0.929 . S
C1691 C1685 1.390 . S
C1691 C1688 1.386 . S
C1692 C1687 1.490 . S
C1692 C1694 1.395 . S
C1692 C1695 1.403 . S
H1693 C1699 0.930 . S
C1694 H1680 0.930 . S
C1694 C1692 1.395 . S
C1694 C1697 1.403 . S
C1695 C1692 1.403 . S
C1695 C1696 1.524 . S
C1695 C1699 1.400 . S
C1696 H1681 0.960 . S
C1696 H1682 0.960 . S
C1696 H1683 0.960 . S
C1696 C1695 1.524 . S
C1697 C1694 1.403 . S
C1697 C1698 1.392 . S
C1697 C1701 1.495 . S
C1698 C1697 1.392 . S
C1698 C1699 1.385 . S
C1698 C1700 1.478 . S
C1699 H1693 0.930 . S
C1699 C1695 1.400 . S
C1699 C1698 1.385 . S
C1700 C1698 1.478 . S
C1700 C1702 1.381 . S
C1700 C1706 1.383 . S
C1701 C1697 1.495 . S
C1701 H1707 0.959 . S
C1701 H1708 0.961 . S
C1701 H1709 0.960 . S
C1702 C1700 1.381 . S
C1702 C1703 1.394 . S
C1702 H1710 0.930 . S
C1703 C1702 1.394 . S
C1703 C1704 1.383 . S
C1703 H1711 0.929 . S
C1704 C1703 1.383 . S
C1704 C1705 1.377 . S
C1705 H1689 0.930 . S
C1705 C1704 1.377 . S
C1705 C1706 1.379 . S
C1706 H1690 0.931 . S
C1706 C1700 1.383 . S
C1706 C1705 1.379 . S
H1707 C1701 0.959 . S
H1708 C1701 0.961 . S
H1709 C1701 0.960 . S
H1710 C1702 0.930 . S
H1711 C1703 0.929 . S
H1712 C1720 0.929 . S
H1713 C1722 0.930 . S
H1714 C1724 0.930 . S
H1715 C1727 0.929 . S
H1716 C1730 0.930 . S
H1717 C1732 0.960 . S
H1718 C1732 0.960 . S
H1719 C1732 0.960 . S
C1720 H1712 0.929 . S
C1720 C1721 1.377 . S
C1720 C1722 1.384 . S
C1721 C1720 1.377 . S
C1721 C1727 1.390 . S
C1722 H1713 0.930 . S
C1722 C1720 1.384 . S
C1722 C1723 1.372 . S
C1723 C1722 1.372 . S
C1723 C1724 1.400 . S
C1723 C1728 1.490 . S
C1724 H1714 0.930 . S
C1724 C1723 1.400 . S
C1724 C1727 1.386 . S
H1725 C1741 0.930 . S
H1726 C1742 0.931 . S
C1727 H1715 0.929 . S
C1727 C1721 1.390 . S
C1727 C1724 1.386 . S
C1728 C1723 1.490 . S
C1728 C1730 1.395 . S
C1728 C1731 1.403 . S
H1729 C1735 0.930 . S
C1730 H1716 0.930 . S
C1730 C1728 1.395 . S
C1730 C1733 1.403 . S
C1731 C1728 1.403 . S
C1731 C1732 1.524 . S
C1731 C1735 1.400 . S
C1732 H1717 0.960 . S
C1732 H1718 0.960 . S
C1732 H1719 0.960 . S
C1732 C1731 1.524 . S
C1733 C1730 1.403 . S
C1733 C1734 1.392 . S
C1733 C1737 1.495 . S
C1734 C1733 1.392 . S
C1734 C1735 1.385 . S
C1734 C1736 1.478 . S
C1735 H1729 0.930 . S
C1735 C1731 1.400 . S
C1735 C1734 1.385 . S
C1736 C1734 1.478 . S
C1736 C1738 1.381 . S
C1736 C1742 1.383 . S
C1737 C1733 1.495 . S
C1737 H1743 0.959 . S
C1737 H1744 0.961 . S
C1737 H1745 0.960 . S
C1738 C1736 1.381 . S
C1738 C1739 1.394 . S
C1738 H1746 0.930 . S
C1739 C1738 1.394 . S
C1739 C1740 1.383 . S
C1739 H1747 0.929 . S
C1740 C1739 1.383 . S
C1740 C1741 1.377 . S
C1741 H1725 0.930 . S
C1741 C1740 1.377 . S
C1741 C1742 1.379 . S
C1742 H1726 0.931 . S
C1742 C1736 1.383 . S
C1742 C1741 1.379 . S
H1743 C1737 0.959 . S
H1744 C1737 0.961 . S
H1745 C1737 0.960 . S
H1746 C1738 0.930 . S
H1747 C1739 0.929 . S
H1748 C1756 0.978 . S
H1749 C1758 0.930 . S
H1750 C1760 0.930 . S
H1751 C1763 0.929 . S
H1752 C1766 0.930 . S
H1753 C1768 0.960 . S
H1754 C1768 0.960 . S
H1755 C1768 0.960 . S
C1756 H1748 0.978 . S
C1756 C1757 1.377 . S
C1756 C1758 1.384 . S
C1757 C1756 1.377 . S
C1757 C1763 1.390 . S
C1758 H1749 0.930 . S
C1758 C1756 1.384 . S
C1758 C1759 1.372 . S
C1759 C1758 1.372 . S
C1759 C1760 1.400 . S
C1759 C1764 1.490 . S
C1760 H1750 0.930 . S
C1760 C1759 1.400 . S
C1760 C1763 1.386 . S
H1761 C1777 0.930 . S
H1762 C1778 0.931 . S
C1763 H1751 0.929 . S
C1763 C1757 1.390 . S
C1763 C1760 1.386 . S
C1764 C1759 1.490 . S
C1764 C1766 1.395 . S
C1764 C1767 1.403 . S
H1765 C1771 0.930 . S
C1766 H1752 0.930 . S
C1766 C1764 1.395 . S
C1766 C1769 1.403 . S
C1767 C1764 1.403 . S
C1767 C1768 1.524 . S
C1767 C1771 1.400 . S
C1768 H1753 0.960 . S
C1768 H1754 0.960 . S
C1768 H1755 0.960 . S
C1768 C1767 1.524 . S
C1769 C1766 1.403 . S
C1769 C1770 1.392 . S
C1769 C1773 1.495 . S
C1770 C1769 1.392 . S
C1770 C1771 1.385 . S
C1770 C1772 1.478 . S
C1771 H1765 0.930 . S
C1771 C1767 1.400 . S
C1771 C1770 1.385 . S
C1772 C1770 1.478 . S
C1772 C1774 1.381 . S
C1772 C1778 1.383 . S
C1773 C1769 1.495 . S
C1773 H1779 0.959 . S
C1773 H1780 0.961 . S
C1773 H1781 0.960 . S
C1774 C1772 1.381 . S
C1774 C1775 1.394 . S
C1774 H1782 0.930 . S
C1775 C1774 1.394 . S
C1775 C1776 1.383 . S
C1775 H1783 0.929 . S
C1776 C1775 1.383 . S
C1776 C1777 1.377 . S
C1777 H1761 0.930 . S
C1777 C1776 1.377 . S
C1777 C1778 1.379 . S
C1778 H1762 0.931 . S
C1778 C1772 1.383 . S
C1778 C1777 1.379 . S
H1779 C1773 0.959 . S
H1780 C1773 0.961 . S
H1781 C1773 0.960 . S
H1782 C1774 0.930 . S
H1783 C1775 0.929 . S
H1784 C1792 0.929 . S
H1785 C1794 0.930 . S
H1786 C1796 0.930 . S
H1787 C1799 0.929 . S
H1788 C1802 0.930 . S
H1789 C1804 0.960 . S
H1790 C1804 0.960 . S
H1791 C1804 0.960 . S
C1792 H1784 0.929 . S
C1792 C1793 1.377 . S
C1792 C1794 1.384 . S
C1793 C1792 1.377 . S
C1793 C1799 1.390 . S
C1794 H1785 0.930 . S
C1794 C1792 1.384 . S
C1794 C1795 1.372 . S
C1795 C1794 1.372 . S
C1795 C1796 1.400 . S
C1795 C1800 1.490 . S
C1796 H1786 0.930 . S
C1796 C1795 1.400 . S
C1796 C1799 1.386 . S
H1797 C1813 0.930 . S
H1798 C1814 0.931 . S
C1799 H1787 0.929 . S
C1799 C1793 1.390 . S
C1799 C1796 1.386 . S
C1800 C1795 1.490 . S
C1800 C1802 1.395 . S
C1800 C1803 1.403 . S
H1801 C1807 0.930 . S
C1802 H1788 0.930 . S
C1802 C1800 1.395 . S
C1802 C1805 1.403 . S
C1803 C1800 1.403 . S
C1803 C1804 1.524 . S
C1803 C1807 1.400 . S
C1804 H1789 0.960 . S
C1804 H1790 0.960 . S
C1804 H1791 0.960 . S
C1804 C1803 1.524 . S
C1805 C1802 1.403 . S
C1805 C1806 1.392 . S
C1805 C1809 1.495 . S
C1806 C1805 1.392 . S
C1806 C1807 1.385 . S
C1806 C1808 1.478 . S
C1807 H1801 0.930 . S
C1807 C1803 1.400 . S
C1807 C1806 1.385 . S
C1808 C1806 1.478 . S
C1808 C1810 1.381 . S
C1808 C1814 1.383 . S
C1809 C1805 1.495 . S
C1809 H1815 0.959 . S
C1809 H1816 0.961 . S
C1809 H1817 0.960 . S
C1810 C1808 1.381 . S
C1810 C1811 1.394 . S
C1810 H1818 0.930 . S
C1811 C1810 1.394 . S
C1811 C1812 1.383 . S
C1811 H1819 0.929 . S
C1812 C1811 1.383 . S
C1812 C1813 1.377 . S
C1813 H1797 0.930 . S
C1813 C1812 1.377 . S
C1813 C1814 1.379 . S
C1814 H1798 0.931 . S
C1814 C1808 1.383 . S
C1814 C1813 1.379 . S
H1815 C1809 0.959 . S
H1816 C1809 0.961 . S
H1817 C1809 0.960 . S
H1818 C1810 0.930 . S
H1819 C1811 0.929 . S
H1820 C1828 0.929 . S
H1821 C1830 0.930 . S
H1822 C1832 0.930 . S
H1823 C1835 0.929 . S
H1824 C1838 0.930 . S
H1825 C1840 0.960 . S
H1826 C1840 0.960 . S
H1827 C1840 0.960 . S
C1828 H1820 0.929 . S
C1828 C1829 1.377 . S
C1828 C1830 1.384 . S
C1829 C1828 1.377 . S
C1829 C1835 1.390 . S
C1830 H1821 0.930 . S
C1830 C1828 1.384 . S
C1830 C1831 1.372 . S
C1831 C1830 1.372 . S
C1831 C1832 1.400 . S
C1831 C1836 1.490 . S
C1832 H1822 0.930 . S
C1832 C1831 1.400 . S
C1832 C1835 1.386 . S
H1833 C1849 0.930 . S
H1834 C1850 0.931 . S
C1835 H1823 0.929 . S
C1835 C1829 1.390 . S
C1835 C1832 1.386 . S
C1836 C1831 1.490 . S
C1836 C1838 1.395 . S
C1836 C1839 1.403 . S
H1837 C1843 0.930 . S
C1838 H1824 0.930 . S
C1838 C1836 1.395 . S
C1838 C1841 1.403 . S
C1839 C1836 1.403 . S
C1839 C1840 1.524 . S
C1839 C1843 1.400 . S
C1840 H1825 0.960 . S
C1840 H1826 0.960 . S
C1840 H1827 0.960 . S
C1840 C1839 1.524 . S
C1841 C1838 1.403 . S
C1841 C1842 1.392 . S
C1841 C1845 1.495 . S
C1842 C1841 1.392 . S
C1842 C1843 1.385 . S
C1842 C1844 1.478 . S
C1843 H1837 0.930 . S
C1843 C1839 1.400 . S
C1843 C1842 1.385 . S
C1844 C1842 1.478 . S
C1844 C1846 1.381 . S
C1844 C1850 1.383 . S
C1845 C1841 1.495 . S
C1845 H1851 0.959 . S
C1845 H1852 0.961 . S
C1845 H1853 0.960 . S
C1846 C1844 1.381 . S
C1846 C1847 1.394 . S
C1846 H1854 0.930 . S
C1847 C1846 1.394 . S
C1847 C1848 1.383 . S
C1847 H1855 0.929 . S
C1848 C1847 1.383 . S
C1848 C1849 1.377 . S
C1849 H1833 0.930 . S
C1849 C1848 1.377 . S
C1849 C1850 1.379 . S
C1850 H1834 0.931 . S
C1850 C1844 1.383 . S
C1850 C1849 1.379 . S
H1851 C1845 0.959 . S
H1852 C1845 0.961 . S
H1853 C1845 0.960 . S
H1854 C1846 0.930 . S
H1855 C1847 0.929 . S
H1856 C1864 0.929 . S
H1857 C1866 0.930 . S
H1858 C1868 0.930 . S
H1859 C1871 0.929 . S
H1860 C1874 0.930 . S
H1861 C1876 0.960 . S
H1862 C1876 0.960 . S
H1863 C1876 0.960 . S
C1864 H1856 0.929 . S
C1864 C1865 1.377 . S
C1864 C1866 1.384 . S
C1865 C1864 1.377 . S
C1865 C1871 1.390 . S
C1866 H1857 0.930 . S
C1866 C1864 1.384 . S
C1866 C1867 1.372 . S
C1867 C1866 1.372 . S
C1867 C1868 1.400 . S
C1867 C1872 1.490 . S
C1868 H1858 0.930 . S
C1868 C1867 1.400 . S
C1868 C1871 1.386 . S
H1869 C1885 0.930 . S
H1870 C1886 0.931 . S
C1871 H1859 0.929 . S
C1871 C1865 1.390 . S
C1871 C1868 1.386 . S
C1872 C1867 1.490 . S
C1872 C1874 1.395 . S
C1872 C1875 1.403 . S
H1873 C1879 0.930 . S
C1874 H1860 0.930 . S
C1874 C1872 1.395 . S
C1874 C1877 1.403 . S
C1875 C1872 1.403 . S
C1875 C1876 1.524 . S
C1875 C1879 1.400 . S
C1876 H1861 0.960 . S
C1876 H1862 0.960 . S
C1876 H1863 0.960 . S
C1876 C1875 1.524 . S
C1877 C1874 1.403 . S
C1877 C1878 1.392 . S
C1877 C1881 1.495 . S
C1878 C1877 1.392 . S
C1878 C1879 1.385 . S
C1878 C1880 1.478 . S
C1879 H1873 0.930 . S
C1879 C1875 1.400 . S
C1879 C1878 1.385 . S
C1880 C1878 1.478 . S
C1880 C1882 1.381 . S
C1880 C1886 1.383 . S
C1881 C1877 1.495 . S
C1881 H1887 0.959 . S
C1881 H1888 0.961 . S
C1881 H1889 0.960 . S
C1882 C1880 1.381 . S
C1882 C1883 1.394 . S
C1882 H1890 0.930 . S
C1883 C1882 1.394 . S
C1883 C1884 1.383 . S
C1883 H1891 0.929 . S
C1884 C1883 1.383 . S
C1884 C1885 1.377 . S
C1885 H1869 0.930 . S
C1885 C1884 1.377 . S
C1885 C1886 1.379 . S
C1886 H1870 0.931 . S
C1886 C1880 1.383 . S
C1886 C1885 1.379 . S
H1887 C1881 0.959 . S
H1888 C1881 0.961 . S
H1889 C1881 0.960 . S
H1890 C1882 0.930 . S
H1891 C1883 0.929 . S
H1892 C1900 0.929 . S
H1893 C1902 0.930 . S
H1894 C1904 0.930 . S
H1895 C1907 0.929 . S
H1896 C1910 0.930 . S
H1897 C1912 0.960 . S
H1898 C1912 0.960 . S
H1899 C1912 0.960 . S
C1900 H1892 0.929 . S
C1900 C1901 1.377 . S
C1900 C1902 1.384 . S
C1901 C1900 1.377 . S
C1901 C1907 1.390 . S
C1902 H1893 0.930 . S
C1902 C1900 1.384 . S
C1902 C1903 1.372 . S
C1903 C1902 1.372 . S
C1903 C1904 1.400 . S
C1903 C1908 1.490 . S
C1904 H1894 0.930 . S
C1904 C1903 1.400 . S
C1904 C1907 1.386 . S
H1905 C1921 0.930 . S
H1906 C1922 0.931 . S
C1907 H1895 0.929 . S
C1907 C1901 1.390 . S
C1907 C1904 1.386 . S
C1908 C1903 1.490 . S
C1908 C1910 1.395 . S
C1908 C1911 1.403 . S
H1909 C1915 0.930 . S
C1910 H1896 0.930 . S
C1910 C1908 1.395 . S
C1910 C1913 1.403 . S
C1911 C1908 1.403 . S
C1911 C1912 1.524 . S
C1911 C1915 1.400 . S
C1912 H1897 0.960 . S
C1912 H1898 0.960 . S
C1912 H1899 0.960 . S
C1912 C1911 1.524 . S
C1913 C1910 1.403 . S
C1913 C1914 1.392 . S
C1913 C1917 1.495 . S
C1914 C1913 1.392 . S
C1914 C1915 1.385 . S
C1914 C1916 1.478 . S
C1915 H1909 0.930 . S
C1915 C1911 1.400 . S
C1915 C1914 1.385 . S
C1916 C1914 1.478 . S
C1916 C1918 1.381 . S
C1916 C1922 1.383 . S
C1917 C1913 1.495 . S
C1917 H1923 0.959 . S
C1917 H1924 0.961 . S
C1917 H1925 0.960 . S
C1918 C1916 1.381 . S
C1918 C1919 1.394 . S
C1918 H1926 0.930 . S
C1919 C1918 1.394 . S
C1919 C1920 1.383 . S
C1919 H1927 0.929 . S
C1920 C1919 1.383 . S
C1920 C1921 1.377 . S
C1921 H1905 0.930 . S
C1921 C1920 1.377 . S
C1921 C1922 1.379 . S
C1922 H1906 0.931 . S
C1922 C1916 1.383 . S
C1922 C1921 1.379 . S
H1923 C1917 0.959 . S
H1924 C1917 0.961 . S
H1925 C1917 0.960 . S
H1926 C1918 0.930 . S
H1927 C1919 0.929 . S
H1928 C1936 0.929 . S
H1929 C1938 0.930 . S
H1930 C1940 0.972 . S
H1931 C1943 0.929 1_554 S
H1932 C1946 0.930 . S
H1933 C1948 0.960 . S
H1934 C1948 0.960 . S
H1935 C1948 0.960 1_554 S
C1936 H1928 0.929 . S
C1936 C1937 1.377 . S
C1936 C1938 1.384 . S
C1937 C1936 1.377 . S
C1937 C1943 1.390 . S
C1938 H1929 0.930 . S
C1938 C1936 1.384 . S
C1938 C1939 1.372 . S
C1939 C1938 1.372 . S
C1939 C1940 1.362 1_556 S
C1939 C1944 1.490 . S
C1940 H1930 0.972 . S
C1940 C1939 1.362 1_554 S
C1940 C1943 1.384 1_554 S
H1941 C1957 0.930 . S
H1942 C1958 0.931 . S
C1943 H1931 0.929 1_556 S
C1943 C1937 1.390 . S
C1943 C1940 1.384 1_556 S
C1944 C1939 1.490 . S
C1944 C1946 1.395 . S
C1944 C1947 1.403 . S
H1945 C1951 0.929 1_554 S
C1946 H1932 0.930 . S
C1946 C1944 1.395 . S
C1946 C1949 1.403 . S
C1947 C1944 1.403 . S
C1947 C1948 1.524 . S
C1947 C1951 1.400 . S
C1948 H1933 0.960 . S
C1948 H1934 0.960 . S
C1948 H1935 0.960 1_556 S
C1948 C1947 1.524 . S
C1949 C1946 1.403 . S
C1949 C1950 1.392 . S
C1949 C1953 1.495 . S
C1950 C1949 1.392 . S
C1950 C1951 1.385 . S
C1950 C1952 1.478 1_556 S
C1951 H1945 0.929 1_556 S
C1951 C1947 1.400 . S
C1951 C1950 1.385 . S
C1952 C1950 1.478 1_554 S
C1952 C1954 1.381 1_554 S
C1952 C1958 1.383 . S
C1953 C1949 1.495 . S
C1953 H1959 0.959 . S
C1953 H1960 0.961 1_556 S
C1953 H1961 0.960 . S
C1954 C1952 1.381 1_556 S
C1954 C1955 1.394 . S
C1954 H1962 0.930 . S
C1955 C1954 1.394 . S
C1955 C1956 1.383 1_556 S
C1955 H1963 0.929 . S
C1956 C1955 1.383 1_554 S
C1956 C1957 1.377 . S
C1957 H1941 0.930 . S
C1957 C1956 1.377 . S
C1957 C1958 1.379 . S
C1958 H1942 0.931 . S
C1958 C1952 1.383 . S
C1958 C1957 1.379 . S
H1959 C1953 0.959 . S
H1960 C1953 0.961 1_554 S
H1961 C1953 0.960 . S
H1962 C1954 0.930 . S
H1963 C1955 0.929 . S
H1964 C1972 0.929 . S
H1965 C1974 0.930 . S
H1966 C1976 0.930 . S
H1967 C1979 0.929 . S
H1968 C1982 0.930 . S
H1969 C1984 0.960 . S
H1970 C1984 0.960 . S
H1971 C1984 0.960 . S
C1972 H1964 0.929 . S
C1972 C1973 1.377 . S
C1972 C1974 1.384 . S
C1973 C1972 1.377 . S
C1973 C1979 1.390 . S
C1974 H1965 0.930 . S
C1974 C1972 1.384 . S
C1974 C1975 1.372 . S
C1975 C1974 1.372 . S
C1975 C1976 1.400 . S
C1975 C1980 1.490 . S
C1976 H1966 0.930 . S
C1976 C1975 1.400 . S
C1976 C1979 1.386 . S
H1977 C1993 0.930 . S
H1978 C1994 0.931 . S
C1979 H1967 0.929 . S
C1979 C1973 1.390 . S
C1979 C1976 1.386 . S
C1980 C1975 1.490 . S
C1980 C1982 1.395 . S
C1980 C1983 1.403 . S
H1981 C1987 0.930 . S
C1982 H1968 0.930 . S
C1982 C1980 1.395 . S
C1982 C1985 1.403 . S
C1983 C1980 1.403 . S
C1983 C1984 1.524 . S
C1983 C1987 1.400 . S
C1984 H1969 0.960 . S
C1984 H1970 0.960 . S
C1984 H1971 0.960 . S
C1984 C1983 1.524 . S
C1985 C1982 1.403 . S
C1985 C1986 1.392 . S
C1985 C1989 1.495 . S
C1986 C1985 1.392 . S
C1986 C1987 1.385 . S
C1986 C1988 1.478 . S
C1987 H1981 0.930 . S
C1987 C1983 1.400 . S
C1987 C1986 1.385 . S
C1988 C1986 1.478 . S
C1988 C1990 1.381 . S
C1988 C1994 1.383 . S
C1989 C1985 1.495 . S
C1989 H1995 0.959 . S
C1989 H1996 0.961 . S
C1989 H1997 0.960 . S
C1990 C1988 1.381 . S
C1990 C1991 1.394 . S
C1990 H1998 0.930 . S
C1991 C1990 1.394 . S
C1991 C1992 1.383 . S
C1991 H1999 0.929 . S
C1992 C1991 1.383 . S
C1992 C1993 1.377 . S
C1993 H1977 0.930 . S
C1993 C1992 1.377 . S
C1993 C1994 1.379 . S
C1994 H1978 0.931 . S
C1994 C1988 1.383 . S
C1994 C1993 1.379 . S
H1995 C1989 0.959 . S
H1996 C1989 0.961 . S
H1997 C1989 0.960 . S
H1998 C1990 0.930 . S
H1999 C1991 0.929 . S
H2000 C2008 0.929 . S
H2001 C2010 0.930 . S
H2002 C2012 0.930 . S
H2003 C2015 0.929 . S
H2004 C2018 0.930 . S
H2005 C2020 0.960 . S
H2006 C2020 0.960 . S
H2007 C2020 0.960 . S
C2008 H2000 0.929 . S
C2008 C2009 1.377 . S
C2008 C2010 1.384 . S
C2009 C2008 1.377 . S
C2009 C2015 1.390 . S
C2010 H2001 0.930 . S
C2010 C2008 1.384 . S
C2010 C2011 1.372 . S
C2011 C2010 1.372 . S
C2011 C2012 1.400 . S
C2011 C2016 1.490 . S
C2012 H2002 0.930 . S
C2012 C2011 1.400 . S
C2012 C2015 1.386 . S
H2013 C2029 0.930 . S
H2014 C2030 0.931 . S
C2015 H2003 0.929 . S
C2015 C2009 1.390 . S
C2015 C2012 1.386 . S
C2016 C2011 1.490 . S
C2016 C2018 1.395 . S
C2016 C2019 1.403 . S
H2017 C2023 0.930 . S
C2018 H2004 0.930 . S
C2018 C2016 1.395 . S
C2018 C2021 1.403 . S
C2019 C2016 1.403 . S
C2019 C2020 1.524 . S
C2019 C2023 1.400 . S
C2020 H2005 0.960 . S
C2020 H2006 0.960 . S
C2020 H2007 0.960 . S
C2020 C2019 1.524 . S
C2021 C2018 1.403 . S
C2021 C2022 1.392 . S
C2021 C2025 1.495 . S
C2022 C2021 1.392 . S
C2022 C2023 1.385 . S
C2022 C2024 1.478 . S
C2023 H2017 0.930 . S
C2023 C2019 1.400 . S
C2023 C2022 1.385 . S
C2024 C2022 1.478 . S
C2024 C2026 1.381 . S
C2024 C2030 1.383 . S
C2025 C2021 1.495 . S
C2025 H2031 0.959 . S
C2025 H2032 0.961 . S
C2025 H2033 0.960 . S
C2026 C2024 1.381 . S
C2026 C2027 1.394 . S
C2026 H2034 0.930 . S
C2027 C2026 1.394 . S
C2027 C2028 1.383 . S
C2027 H2035 0.929 . S
C2028 C2027 1.383 . S
C2028 C2029 1.377 . S
C2029 H2013 0.930 . S
C2029 C2028 1.377 . S
C2029 C2030 1.379 . S
C2030 H2014 0.931 . S
C2030 C2024 1.383 . S
C2030 C2029 1.379 . S
H2031 C2025 0.959 . S
H2032 C2025 0.961 . S
H2033 C2025 0.960 . S
H2034 C2026 0.930 . S
H2035 C2027 0.929 . S
H2036 C2044 0.929 1_545 S
H2037 C2046 0.930 . S
H2038 C2048 0.930 . S
H2039 C2051 0.929 . S
H2040 C2054 0.930 . S
H2041 C2056 0.960 . S
H2042 C2056 0.960 . S
H2043 C2056 0.960 . S
C2044 H2036 0.929 1_565 S
C2044 C2045 1.377 . S
C2044 C2046 1.384 . S
C2045 C2044 1.377 . S
C2045 C2051 1.390 . S
C2046 H2037 0.930 . S
C2046 C2044 1.384 . S
C2046 C2047 1.372 . S
C2047 C2046 1.372 . S
C2047 C2048 1.400 . S
C2047 C2052 1.490 . S
C2048 H2038 0.930 . S
C2048 C2047 1.400 . S
C2048 C2051 1.386 . S
H2049 C2065 0.930 . S
H2050 C2066 0.931 . S
C2051 H2039 0.929 . S
C2051 C2045 1.390 . S
C2051 C2048 1.386 . S
C2052 C2047 1.490 . S
C2052 C2054 1.395 . S
C2052 C2055 1.403 . S
H2053 C2059 0.930 . S
C2054 H2040 0.930 . S
C2054 C2052 1.395 . S
C2054 C2057 1.403 . S
C2055 C2052 1.403 . S
C2055 C2056 1.524 . S
C2055 C2059 1.400 . S
C2056 H2041 0.960 . S
C2056 H2042 0.960 . S
C2056 H2043 0.960 . S
C2056 C2055 1.524 . S
C2057 C2054 1.403 . S
C2057 C2058 1.392 . S
C2057 C2061 1.495 . S
C2058 C2057 1.392 . S
C2058 C2059 1.385 . S
C2058 C2060 1.478 . S
C2059 H2053 0.930 . S
C2059 C2055 1.400 . S
C2059 C2058 1.385 . S
C2060 C2058 1.478 . S
C2060 C2062 1.381 . S
C2060 C2066 1.383 . S
C2061 C2057 1.495 . S
C2061 H2067 0.959 . S
C2061 H2068 0.961 . S
C2061 H2069 0.960 . S
C2062 C2060 1.381 . S
C2062 C2063 1.394 . S
C2062 H2070 0.958 . S
C2063 C2062 1.394 . S
C2063 C2064 1.383 . S
C2063 H2071 0.929 1_554 S
C2064 C2063 1.383 . S
C2064 C2065 1.377 . S
C2065 H2049 0.930 . S
C2065 C2064 1.377 . S
C2065 C2066 1.379 . S
C2066 H2050 0.931 . S
C2066 C2060 1.383 . S
C2066 C2065 1.379 . S
H2067 C2061 0.959 . S
H2068 C2061 0.961 . S
H2069 C2061 0.960 . S
H2070 C2062 0.958 . S
H2071 C2063 0.929 1_556 S
C372 C184 1.083 . S
C353 C62 1.110 . S
C408 C197 1.509 . S
C389 C73 1.434 . S
C425 C84 1.673 . S
C444 C217 1.617 . S
C480 C231 1.158 . S
C461 C49 1.006 . S
C516 C243 1.370 . S
C497 C118 1.372 . S
C552 C257 1.549 . S
C533 C137 1.319 . S
C569 C129 1.574 . S
C588 C267 1.560 . S
C624 C282 1.938 . S
C605 C106 1.919 . S
C641 C128 1.867 . S
C660 C296 1.870 . S
C696 C315 1.527 . S
C677 C104 1.375 . S
C713 C115 1.608 . S
C732 C295 1.821 . S
C768 C313 1.732 . S
C749 C139 1.667 . S
C785 C85 1.745 . S
C804 C329 1.608 . S
C821 C52 1.122 . S
C840 C323 1.130 . S
C857 C60 0.898 . S
C876 C327 0.991 . S
C893 C71 1.369 . S
C912 C324 1.538 . S
C929 C40 1.749 . S
C948 C226 1.810 . S
C965 C162 0.996 . S
C984 C225 0.996 . S
C1020 C189 0.876 . S
C1001 C173 0.961 . S
C1056 C203 1.827 . S
C1037 C93 1.750 . S
C1073 C51 1.443 . S
C1092 C240 1.470 . S
C1128 C285 1.574 . S
C1109 C126 1.386 . S
C1164 C239 1.807 . S
C1145 C107 1.799 . S
C1200 C271 1.510 . S
C1181 C140 1.499 . S
C1236 C268 1.101 . S
C1217 C161 1.114 . S
C1253 C172 1.448 . S
C1272 C281 1.518 . S
C1289 C95 1.673 . S
C1308 C245 1.622 . S
C1344 C259 1.124 . S
C1325 C148 1.010 . S
C1361 C41 1.367 . S
C1380 C215 1.380 . S
C1416 C229 1.558 . S
C1397 C5 1.339 1_655 S
C1452 C183 1.551 . S
C1433 C19 1.575 . S
C1488 C198 1.937 . S
C1469 C29 1.918 . S
C1505 C18 1.866 . S
C1524 C310 1.868 . S
C1541 C27 1.393 . S
C1560 C301 1.468 1_655 S
C1577 C38 1.605 . S
C1596 C309 1.818 . S
C1613 C7 1.661 . S
C1632 C299 1.720 . S
C1668 C343 1.646 . S
C1649 C96 1.746 . S
C1704 C337 1.127 . S
C1685 C151 1.129 . S
C1740 C341 0.985 . S
C1721 C159 0.915 . S
C1757 C170 1.367 . S
C1776 C338 1.541 . S
C1793 C117 1.757 . S
C1812 C254 1.794 . S
C1848 C253 0.995 . S
C1829 C63 0.996 . S
C1884 C273 0.973 . S
C1865 C74 0.953 . S
C1920 C287 1.826 . S
C1901 C82 1.752 . S
C1937 C150 1.454 . S
C1956 C212 1.491 . S
C1992 C201 1.574 . S
C1973 C16 1.387 . S
C2009 C30 1.792 . S
C2028 C211 1.803 . S
C2064 C187 1.512 . S
C2045 C8 1.505 1_565 S
