# Generated by pormake.
# Topology tph, (6,8)-cn, num edge types: 1
# Building blocks:
#     Node 0, Type 0, BuildingBlock: OJICUG_clean_sbu_0, # of connection points: 6
#     Node 1, Type 0, BuildingBlock: OJICUG_clean_sbu_0, # of connection points: 6
#     Node 2, Type 0, BuildingBlock: OJICUG_clean_sbu_0, # of connection points: 6
#     Node 3, Type 0, BuildingBlock: OJICUG_clean_sbu_0, # of connection points: 6
#     Node 4, Type 0, BuildingBlock: OJICUG_clean_sbu_0, # of connection points: 6
#     Node 5, Type 0, BuildingBlock: OJICUG_clean_sbu_0, # of connection points: 6
#     Node 6, Type 0, BuildingBlock: OJICUG_clean_sbu_0, # of connection points: 6
#     Node 7, Type 0, BuildingBlock: OJICUG_clean_sbu_0, # of connection points: 6
#     Node 8, Type 0, BuildingBlock: OJICUG_clean_sbu_0, # of connection points: 6
#     Node 9, Type 0, BuildingBlock: OJICUG_clean_sbu_0, # of connection points: 6
#     Node 10, Type 0, BuildingBlock: OJICUG_clean_sbu_0, # of connection points: 6
#     Node 11, Type 0, BuildingBlock: OJICUG_clean_sbu_0, # of connection points: 6
#     Node 12, Type 0, BuildingBlock: OJICUG_clean_sbu_0, # of connection points: 6
#     Node 13, Type 0, BuildingBlock: OJICUG_clean_sbu_0, # of connection points: 6
#     Node 14, Type 0, BuildingBlock: OJICUG_clean_sbu_0, # of connection points: 6
#     Node 15, Type 0, BuildingBlock: OJICUG_clean_sbu_0, # of connection points: 6
#     Node 16, Type 1, BuildingBlock: TAGTUT_clean_sbu_3, # of connection points: 8
#     Node 17, Type 1, BuildingBlock: TAGTUT_clean_sbu_3, # of connection points: 8
#     Node 18, Type 1, BuildingBlock: TAGTUT_clean_sbu_3, # of connection points: 8
#     Node 19, Type 1, BuildingBlock: TAGTUT_clean_sbu_3, # of connection points: 8
#     Node 20, Type 1, BuildingBlock: TAGTUT_clean_sbu_3, # of connection points: 8
#     Node 21, Type 1, BuildingBlock: TAGTUT_clean_sbu_3, # of connection points: 8
#     Node 22, Type 1, BuildingBlock: TAGTUT_clean_sbu_3, # of connection points: 8
#     Node 23, Type 1, BuildingBlock: TAGTUT_clean_sbu_3, # of connection points: 8
#     Node 24, Type 1, BuildingBlock: TAGTUT_clean_sbu_3, # of connection points: 8
#     Node 25, Type 1, BuildingBlock: TAGTUT_clean_sbu_3, # of connection points: 8
#     Node 26, Type 1, BuildingBlock: TAGTUT_clean_sbu_3, # of connection points: 8
#     Node 27, Type 1, BuildingBlock: TAGTUT_clean_sbu_3, # of connection points: 8
#     Edge 28, Type (0, 1), BuildingBlock: OJICUG_clean_linker_0, # of connection points: 2
#     Edge 29, Type (0, 1), BuildingBlock: OJICUG_clean_linker_0, # of connection points: 2
#     Edge 30, Type (0, 1), BuildingBlock: OJICUG_clean_linker_0, # of connection points: 2
#     Edge 31, Type (0, 1), BuildingBlock: OJICUG_clean_linker_0, # of connection points: 2
#     Edge 32, Type (0, 1), BuildingBlock: OJICUG_clean_linker_0, # of connection points: 2
#     Edge 33, Type (0, 1), BuildingBlock: OJICUG_clean_linker_0, # of connection points: 2
#     Edge 34, Type (0, 1), BuildingBlock: OJICUG_clean_linker_0, # of connection points: 2
#     Edge 35, Type (0, 1), BuildingBlock: OJICUG_clean_linker_0, # of connection points: 2
#     Edge 36, Type (0, 1), BuildingBlock: OJICUG_clean_linker_0, # of connection points: 2
#     Edge 37, Type (0, 1), BuildingBlock: OJICUG_clean_linker_0, # of connection points: 2
#     Edge 38, Type (0, 1), BuildingBlock: OJICUG_clean_linker_0, # of connection points: 2
#     Edge 39, Type (0, 1), BuildingBlock: OJICUG_clean_linker_0, # of connection points: 2
#     Edge 40, Type (0, 1), BuildingBlock: OJICUG_clean_linker_0, # of connection points: 2
#     Edge 41, Type (0, 1), BuildingBlock: OJICUG_clean_linker_0, # of connection points: 2
#     Edge 42, Type (0, 1), BuildingBlock: OJICUG_clean_linker_0, # of connection points: 2
#     Edge 43, Type (0, 1), BuildingBlock: OJICUG_clean_linker_0, # of connection points: 2
#     Edge 44, Type (0, 1), BuildingBlock: OJICUG_clean_linker_0, # of connection points: 2
#     Edge 45, Type (0, 1), BuildingBlock: OJICUG_clean_linker_0, # of connection points: 2
#     Edge 46, Type (0, 1), BuildingBlock: OJICUG_clean_linker_0, # of connection points: 2
#     Edge 47, Type (0, 1), BuildingBlock: OJICUG_clean_linker_0, # of connection points: 2
#     Edge 48, Type (0, 1), BuildingBlock: OJICUG_clean_linker_0, # of connection points: 2
#     Edge 49, Type (0, 1), BuildingBlock: OJICUG_clean_linker_0, # of connection points: 2
#     Edge 50, Type (0, 1), BuildingBlock: OJICUG_clean_linker_0, # of connection points: 2
#     Edge 51, Type (0, 1), BuildingBlock: OJICUG_clean_linker_0, # of connection points: 2
#     Edge 52, Type (0, 1), BuildingBlock: OJICUG_clean_linker_0, # of connection points: 2
#     Edge 53, Type (0, 1), BuildingBlock: OJICUG_clean_linker_0, # of connection points: 2
#     Edge 54, Type (0, 1), BuildingBlock: OJICUG_clean_linker_0, # of connection points: 2
#     Edge 55, Type (0, 1), BuildingBlock: OJICUG_clean_linker_0, # of connection points: 2
#     Edge 56, Type (0, 1), BuildingBlock: OJICUG_clean_linker_0, # of connection points: 2
#     Edge 57, Type (0, 1), BuildingBlock: OJICUG_clean_linker_0, # of connection points: 2
#     Edge 58, Type (0, 1), BuildingBlock: OJICUG_clean_linker_0, # of connection points: 2
#     Edge 59, Type (0, 1), BuildingBlock: OJICUG_clean_linker_0, # of connection points: 2
#     Edge 60, Type (0, 1), BuildingBlock: OJICUG_clean_linker_0, # of connection points: 2
#     Edge 61, Type (0, 1), BuildingBlock: OJICUG_clean_linker_0, # of connection points: 2
#     Edge 62, Type (0, 1), BuildingBlock: OJICUG_clean_linker_0, # of connection points: 2
#     Edge 63, Type (0, 1), BuildingBlock: OJICUG_clean_linker_0, # of connection points: 2
#     Edge 64, Type (0, 1), BuildingBlock: OJICUG_clean_linker_0, # of connection points: 2
#     Edge 65, Type (0, 1), BuildingBlock: OJICUG_clean_linker_0, # of connection points: 2
#     Edge 66, Type (0, 1), BuildingBlock: OJICUG_clean_linker_0, # of connection points: 2
#     Edge 67, Type (0, 1), BuildingBlock: OJICUG_clean_linker_0, # of connection points: 2
#     Edge 68, Type (0, 1), BuildingBlock: OJICUG_clean_linker_0, # of connection points: 2
#     Edge 69, Type (0, 1), BuildingBlock: OJICUG_clean_linker_0, # of connection points: 2
#     Edge 70, Type (0, 1), BuildingBlock: OJICUG_clean_linker_0, # of connection points: 2
#     Edge 71, Type (0, 1), BuildingBlock: OJICUG_clean_linker_0, # of connection points: 2
#     Edge 72, Type (0, 1), BuildingBlock: OJICUG_clean_linker_0, # of connection points: 2
#     Edge 73, Type (0, 1), BuildingBlock: OJICUG_clean_linker_0, # of connection points: 2
#     Edge 74, Type (0, 1), BuildingBlock: OJICUG_clean_linker_0, # of connection points: 2
#     Edge 75, Type (0, 1), BuildingBlock: OJICUG_clean_linker_0, # of connection points: 2
#     Edge 76, Type (0, 1), BuildingBlock: OJICUG_clean_linker_0, # of connection points: 2
#     Edge 77, Type (0, 1), BuildingBlock: OJICUG_clean_linker_0, # of connection points: 2
#     Edge 78, Type (0, 1), BuildingBlock: OJICUG_clean_linker_0, # of connection points: 2
#     Edge 79, Type (0, 1), BuildingBlock: OJICUG_clean_linker_0, # of connection points: 2
#     Edge 80, Type (0, 1), BuildingBlock: OJICUG_clean_linker_0, # of connection points: 2
#     Edge 81, Type (0, 1), BuildingBlock: OJICUG_clean_linker_0, # of connection points: 2
#     Edge 82, Type (0, 1), BuildingBlock: OJICUG_clean_linker_0, # of connection points: 2
#     Edge 83, Type (0, 1), BuildingBlock: OJICUG_clean_linker_0, # of connection points: 2
#     Edge 84, Type (0, 1), BuildingBlock: OJICUG_clean_linker_0, # of connection points: 2
#     Edge 85, Type (0, 1), BuildingBlock: OJICUG_clean_linker_0, # of connection points: 2
#     Edge 86, Type (0, 1), BuildingBlock: OJICUG_clean_linker_0, # of connection points: 2
#     Edge 87, Type (0, 1), BuildingBlock: OJICUG_clean_linker_0, # of connection points: 2
#     Edge 88, Type (0, 1), BuildingBlock: OJICUG_clean_linker_0, # of connection points: 2
#     Edge 89, Type (0, 1), BuildingBlock: OJICUG_clean_linker_0, # of connection points: 2
#     Edge 90, Type (0, 1), BuildingBlock: OJICUG_clean_linker_0, # of connection points: 2
#     Edge 91, Type (0, 1), BuildingBlock: OJICUG_clean_linker_0, # of connection points: 2
#     Edge 92, Type (0, 1), BuildingBlock: OJICUG_clean_linker_0, # of connection points: 2
#     Edge 93, Type (0, 1), BuildingBlock: OJICUG_clean_linker_0, # of connection points: 2
#     Edge 94, Type (0, 1), BuildingBlock: OJICUG_clean_linker_0, # of connection points: 2
#     Edge 95, Type (0, 1), BuildingBlock: OJICUG_clean_linker_0, # of connection points: 2
#     Edge 96, Type (0, 1), BuildingBlock: OJICUG_clean_linker_0, # of connection points: 2
#     Edge 97, Type (0, 1), BuildingBlock: OJICUG_clean_linker_0, # of connection points: 2
#     Edge 98, Type (0, 1), BuildingBlock: OJICUG_clean_linker_0, # of connection points: 2
#     Edge 99, Type (0, 1), BuildingBlock: OJICUG_clean_linker_0, # of connection points: 2
#     Edge 100, Type (0, 1), BuildingBlock: OJICUG_clean_linker_0, # of connection points: 2
#     Edge 101, Type (0, 1), BuildingBlock: OJICUG_clean_linker_0, # of connection points: 2
#     Edge 102, Type (0, 1), BuildingBlock: OJICUG_clean_linker_0, # of connection points: 2
#     Edge 103, Type (0, 1), BuildingBlock: OJICUG_clean_linker_0, # of connection points: 2
#     Edge 104, Type (0, 1), BuildingBlock: OJICUG_clean_linker_0, # of connection points: 2
#     Edge 105, Type (0, 1), BuildingBlock: OJICUG_clean_linker_0, # of connection points: 2
#     Edge 106, Type (0, 1), BuildingBlock: OJICUG_clean_linker_0, # of connection points: 2
#     Edge 107, Type (0, 1), BuildingBlock: OJICUG_clean_linker_0, # of connection points: 2
#     Edge 108, Type (0, 1), BuildingBlock: OJICUG_clean_linker_0, # of connection points: 2
#     Edge 109, Type (0, 1), BuildingBlock: OJICUG_clean_linker_0, # of connection points: 2
#     Edge 110, Type (0, 1), BuildingBlock: OJICUG_clean_linker_0, # of connection points: 2
#     Edge 111, Type (0, 1), BuildingBlock: OJICUG_clean_linker_0, # of connection points: 2
#     Edge 112, Type (0, 1), BuildingBlock: OJICUG_clean_linker_0, # of connection points: 2
#     Edge 113, Type (0, 1), BuildingBlock: OJICUG_clean_linker_0, # of connection points: 2
#     Edge 114, Type (0, 1), BuildingBlock: OJICUG_clean_linker_0, # of connection points: 2
#     Edge 115, Type (0, 1), BuildingBlock: OJICUG_clean_linker_0, # of connection points: 2
#     Edge 116, Type (0, 1), BuildingBlock: OJICUG_clean_linker_0, # of connection points: 2
#     Edge 117, Type (0, 1), BuildingBlock: OJICUG_clean_linker_0, # of connection points: 2
#     Edge 118, Type (0, 1), BuildingBlock: OJICUG_clean_linker_0, # of connection points: 2
#     Edge 119, Type (0, 1), BuildingBlock: OJICUG_clean_linker_0, # of connection points: 2
#     Edge 120, Type (0, 1), BuildingBlock: OJICUG_clean_linker_0, # of connection points: 2
#     Edge 121, Type (0, 1), BuildingBlock: OJICUG_clean_linker_0, # of connection points: 2
#     Edge 122, Type (0, 1), BuildingBlock: OJICUG_clean_linker_0, # of connection points: 2
#     Edge 123, Type (0, 1), BuildingBlock: OJICUG_clean_linker_0, # of connection points: 2
# Relax obj value: 0.179
# Max RMSD: 0.262
# Mean RMSD: 0.254
data_MOF--net-tph--node1-OJICUG_clean_sbu_0--node2-TAGTUT_clean_sbu_3--edge1-OJICUG_clean_linker_0
_symmetry_space_group_name_H-M    P1
_symmetry_Int_Tables_number       1
_symmetry_cell_setting            triclinic
loop_
_symmetry_equiv_pos_as_xyz
'x, y, z'
_cell_length_a     36.459165
_cell_length_b     36.589658
_cell_length_c     36.191175
_cell_angle_alpha  89.515844
_cell_angle_beta   89.652346
_cell_angle_gamma 88.959471
loop_
_atom_site_label
_atom_site_type_symbol
_atom_site_fract_x
_atom_site_fract_y
_atom_site_fract_z
_atom_type_partial_charge
Sc0 Sc 0.13599 0.22076 0.21896 0.0
Sc1 Sc 0.20055 0.15049 0.21623 0.0
Sc2 Sc 0.18585 0.20539 0.13975 0.0
O3 O 0.17458 0.19227 0.19197 0.0
C4 C 0.10251 0.21144 0.13981 0.0
C5 C 0.11747 0.14227 0.24288 0.0
C6 C 0.19532 0.11859 0.13873 0.0
C7 C 0.19222 0.19894 0.28352 0.0
C8 C 0.17159 0.28294 0.17711 0.0
C9 C 0.26279 0.18903 0.16637 0.0
O10 O 0.10331 0.23028 0.16926 0.0
O11 O 0.15129 0.13281 0.24503 0.0
O12 O 0.20004 0.14993 0.1242 0.0
O13 O 0.16147 0.21174 0.27243 0.0
O14 O 0.17328 0.26326 0.14823 0.0
O15 O 0.25136 0.16368 0.18784 0.0
O16 O 0.16578 0.26965 0.20914 0.0
O17 O 0.21537 0.18446 0.26152 0.0
O18 O 0.24172 0.21349 0.15247 0.0
O19 O 0.10653 0.17236 0.22862 0.0
O20 O 0.13062 0.19512 0.12685 0.0
O21 O 0.18705 0.11425 0.17254 0.0
Sc22 Sc 0.4398 0.60674 0.03207 0.0
Sc23 Sc 0.3873 0.54069 0.07408 0.0
Sc24 Sc 0.47031 0.56506 0.11302 0.0
O25 O 0.43389 0.56928 0.07219 0.0
C26 C 0.5236 0.58327 0.04843 0.0
C27 C 0.40657 0.54568 0.98754 0.0
C28 C 0.44488 0.48201 0.09785 0.0
C29 C 0.36092 0.6188 0.05486 0.0
C30 C 0.46404 0.6508 0.10018 0.0
C31 C 0.39675 0.55739 0.15801 0.0
O32 O 0.49844 0.60177 0.03232 0.0
O33 O 0.38486 0.53836 0.01423 0.0
O34 O 0.46364 0.50633 0.11407 0.0
O35 O 0.38204 0.61531 0.02735 0.0
O36 O 0.47902 0.62265 0.11482 0.0
O37 O 0.38337 0.53816 0.13278 0.0
O38 O 0.4433 0.64968 0.07219 0.0
O39 O 0.3568 0.59239 0.07737 0.0
O40 O 0.42735 0.57321 0.15456 0.0
O41 O 0.43474 0.56548 0.99102 0.0
O42 O 0.51674 0.56098 0.07491 0.0
O43 O 0.41832 0.48983 0.07601 0.0
Sc44 Sc 0.84332 0.28851 0.18512 0.0
Sc45 Sc 0.76545 0.28362 0.13264 0.0
Sc46 Sc 0.78072 0.35861 0.1848 0.0
O47 O 0.79641 0.30967 0.16824 0.0
C48 C 0.80895 0.33065 0.25719 0.0
C49 C 0.8016 0.21894 0.18284 0.0
C50 C 0.70564 0.31544 0.17885 0.0
C51 C 0.83935 0.26608 0.09828 0.0
C52 C 0.86716 0.36642 0.18003 0.0
C53 C 0.75714 0.36796 0.10882 0.0
O54 O 0.83575 0.31394 0.24064 0.0
O55 O 0.78548 0.2292 0.15296 0.0
O56 O 0.72254 0.34571 0.17926 0.0
O57 O 0.85391 0.26216 0.13047 0.0
O58 O 0.83611 0.37696 0.1926 0.0
O59 O 0.74332 0.33597 0.1082 0.0
O60 O 0.87219 0.33515 0.16596 0.0
O61 O 0.8088 0.28266 0.09362 0.0
O62 O 0.78429 0.37429 0.12899 0.0
O63 O 0.81526 0.24176 0.20468 0.0
O64 O 0.78011 0.34096 0.24028 0.0
O65 O 0.72235 0.28532 0.1726 0.0
Sc66 Sc 0.61472 0.96096 0.06532 0.0
Sc67 Sc 0.57149 0.87759 0.05798 0.0
Sc68 Sc 0.53262 0.94723 0.11099 0.0
O69 O 0.57219 0.92869 0.07683 0.0
C70 C 0.60428 0.97553 0.14774 0.0
C71 C 0.65558 0.88455 0.07122 0.0
C72 C 0.55301 0.87062 0.14416 0.0
C73 C 0.60053 0.9274 0.98866 0.0
C74 C 0.54624 0.01759 0.07273 0.0
C75 C 0.48709 0.89457 0.05792 0.0
O76 O 0.62565 0.96384 0.12256 0.0
O77 O 0.62618 0.86725 0.07517 0.0
O78 O 0.54401 0.90394 0.14779 0.0
O79 O 0.60519 0.95618 0.0076 0.0
O80 O 0.52265 0.99261 0.07531 0.0
O81 O 0.51487 0.88157 0.04079 0.0
O82 O 0.5805 0.01017 0.07032 0.0
O83 O 0.58965 0.89703 0.00286 0.0
O84 O 0.4899 0.91671 0.08465 0.0
O85 O 0.65608 0.91779 0.06107 0.0
O86 O 0.56981 0.97905 0.14381 0.0
O87 O 0.5574 0.85542 0.11265 0.0
Sc88 Sc 0.18968 0.83946 0.27461 0.0
Sc89 Sc 0.12598 0.77075 0.27643 0.0
Sc90 Sc 0.18223 0.78337 0.35057 0.0
O91 O 0.16638 0.79771 0.30008 0.0
C92 C 0.25691 0.79725 0.3181 0.0
C93 C 0.17798 0.79151 0.20775 0.0
C94 C 0.15973 0.70719 0.31535 0.0
C95 C 0.10351 0.84814 0.25336 0.0
C96 C 0.19113 0.86968 0.35239 0.0
C97 C 0.0996 0.77991 0.35899 0.0
O98 O 0.24376 0.8244 0.29916 0.0
O99 O 0.14776 0.7797 0.22071 0.0
O100 O 0.16696 0.72668 0.34329 0.0
O101 O 0.13691 0.85821 0.24913 0.0
O102 O 0.19856 0.83791 0.3651 0.0
O103 O 0.09777 0.76189 0.32905 0.0
O104 O 0.17852 0.87489 0.32014 0.0
O105 O 0.09521 0.81917 0.2705 0.0
O106 O 0.12841 0.79591 0.36901 0.0
O107 O 0.202 0.80566 0.22813 0.0
O108 O 0.23655 0.7726 0.33164 0.0
O109 O 0.15571 0.72093 0.28328 0.0
Sc110 Sc 0.07506 0.60769 0.95383 0.0
Sc111 Sc 0.04804 0.55203 0.88305 0.0
Sc112 Sc 0.11541 0.52121 0.94223 0.0
O113 O 0.07806 0.55936 0.92863 0.0
C114 C 0.16093 0.59286 0.95077 0.0
C115 C 0.06499 0.6306 0.87165 0.0
C116 C 0.12739 0.53438 0.86034 0.0
C117 C 0.99139 0.58365 0.93755 0.0
C118 C 0.0896 0.55339 0.02126 0.0
C119 C 0.05642 0.47074 0.91363 0.0
O120 O 0.13292 0.61185 0.95987 0.0
O121 O 0.03907 0.60858 0.87299 0.0
O122 O 0.12558 0.50964 0.88501 0.0
O123 O 0.01518 0.60626 0.94921 0.0
O124 O 0.10679 0.53087 0.00034 0.0
O125 O 0.05035 0.49295 0.88708 0.0
O126 O 0.07244 0.58179 0.00872 0.0
O127 O -0.00035 0.55626 0.91691 0.0
O128 O 0.07376 0.4801 0.94246 0.0
O129 O 0.08382 0.63577 0.90043 0.0
O130 O 0.15971 0.55972 0.94074 0.0
O131 O 0.09913 0.55365 0.85223 0.0
Sc132 Sc 0.85326 0.70068 0.30812 0.0
Sc133 Sc 0.79254 0.63118 0.30755 0.0
Sc134 Sc 0.7784 0.7016 0.36652 0.0
O135 O 0.8077 0.67869 0.32651 0.0
C136 C 0.85328 0.7174 0.39673 0.0
C137 C 0.88102 0.62358 0.30333 0.0
C138 C 0.77456 0.61554 0.38375 0.0
C139 C 0.8147 0.66358 0.23594 0.0
C140 C 0.81025 0.77009 0.31883 0.0
C141 C 0.7152 0.67384 0.32493 0.0
O142 O 0.86623 0.72384 0.36407 0.0
O143 O 0.84939 0.61342 0.29253 0.0
O144 O 0.75996 0.64739 0.38836 0.0
O145 O 0.84265 0.67842 0.25133 0.0
O146 O 0.7949 0.75744 0.34829 0.0
O147 O 0.73317 0.64366 0.31991 0.0
O148 O 0.82346 0.749 0.29437 0.0
O149 O 0.7868 0.65416 0.25455 0.0
O150 O 0.7318 0.70332 0.33132 0.0
O151 O 0.88457 0.65277 0.32143 0.0
O152 O 0.82453 0.69891 0.40146 0.0
O153 O 0.8009 0.61122 0.36143 0.0
Sc154 Sc 0.95515 0.92254 0.88567 0.0
Sc155 Sc 0.88659 0.95078 0.94636 0.0
Sc156 Sc 0.95685 0.89224 0.97636 0.0
O157 O 0.933 0.92293 0.93652 0.0
C158 C 0.96371 0.84198 0.90585 0.0
C159 C 0.87028 0.92437 0.86592 0.0
C160 C 0.87486 0.86946 0.97926 0.0
C161 C 0.93772 0.00603 0.89827 0.0
C162 C 0.0254 0.91785 0.94084 0.0
C163 C 0.91953 0.95654 0.02495 0.0
O164 O 0.94876 0.86535 0.88463 0.0
O165 O 0.86129 0.93213 0.89851 0.0
O166 O 0.90885 0.86204 0.98175 0.0
O167 O 0.95898 0.98073 0.88609 0.0
O168 O 0.00567 0.92235 0.96949 0.0
O169 O 0.90472 0.97204 0.99737 0.0
O170 O 0.01108 0.91527 0.90871 0.0
O171 O 0.90947 -0.00026 0.91877 0.0
O172 O 0.93829 0.92694 0.02199 0.0
O173 O 0.90343 0.92532 0.85477 0.0
O174 O 0.97682 0.85055 0.93716 0.0
O175 O 0.86201 0.90147 0.9712 0.0
Sc176 Sc 0.37877 0.45337 0.43189 0.0
Sc177 Sc 0.4341 0.38811 0.47358 0.0
Sc178 Sc 0.45737 0.42258 0.38689 0.0
O179 O 0.42531 0.42323 0.43177 0.0
C180 C 0.37938 0.42869 0.35073 0.0
C181 C 0.35452 0.37704 0.4579 0.0
C182 C 0.45158 0.3385 0.40539 0.0
C183 C 0.40339 0.45279 0.51737 0.0
C184 C 0.43498 0.50784 0.39961 0.0
C185 C 0.51615 0.40812 0.44755 0.0
O186 O 0.37101 0.45344 0.3735 0.0
O187 O 0.37676 0.38243 0.48374 0.0
O188 O 0.46632 0.36482 0.3882 0.0
O189 O 0.3803 0.45866 0.49152 0.0
O190 O 0.45092 0.4816 0.38221 0.0
O191 O 0.49254 0.39163 0.46737 0.0
O192 O 0.41033 0.50264 0.42447 0.0
O193 O 0.43185 0.4323 0.5129 0.0
O194 O 0.50711 0.42783 0.41952 0.0
O195 O 0.34865 0.4022 0.43413 0.0
O196 O 0.41003 0.41168 0.35205 0.0
O197 O 0.43399 0.34233 0.43563 0.0
Sc198 Sc 0.34536 0.78747 0.68692 0.0
Sc199 Sc 0.2685 0.78541 0.63298 0.0
Sc200 Sc 0.28267 0.85762 0.68921 0.0
O201 O 0.29892 0.80975 0.67012 0.0
C202 C 0.31051 0.82649 0.76033 0.0
C203 C 0.30289 0.71845 0.68105 0.0
C204 C 0.20819 0.81468 0.67983 0.0
C205 C 0.34237 0.7683 0.59922 0.0
C206 C 0.36904 0.86575 0.68482 0.0
C207 C 0.26003 0.87091 0.61329 0.0
O208 O 0.33754 0.81071 0.74331 0.0
O209 O 0.28769 0.73015 0.65122 0.0
O210 O 0.22457 0.84511 0.68207 0.0
O211 O 0.35634 0.76306 0.63149 0.0
O212 O 0.33802 0.87562 0.69805 0.0
O213 O 0.24677 0.83879 0.61053 0.0
O214 O 0.37448 0.83478 0.67015 0.0
O215 O 0.3124 0.78595 0.59463 0.0
O216 O 0.28647 0.87667 0.63457 0.0
O217 O 0.31678 0.74005 0.70402 0.0
O218 O 0.28158 0.83691 0.74366 0.0
O219 O 0.22552 0.78517 0.67275 0.0
Sc220 Sc 0.11204 0.45746 0.56616 0.0
Sc221 Sc 0.06947 0.37392 0.55914 0.0
Sc222 Sc 0.0295 0.44393 0.61113 0.0
O223 O 0.06949 0.42518 0.57755 0.0
C224 C 0.10136 0.47049 0.64893 0.0
C225 C 0.15338 0.38129 0.57099 0.0
C226 C 0.04936 0.36721 0.64521 0.0
C227 C 0.09822 0.42412 0.48959 0.0
C228 C 0.04434 0.51464 0.57404 0.0
C229 C 0.98474 0.39154 0.55726 0.0
O230 O 0.1229 0.45939 0.62357 0.0
O231 O 0.12425 0.364 0.57671 0.0
O232 O 0.03937 0.40034 0.64805 0.0
O233 O 0.10205 0.45313 0.50845 0.0
O234 O 0.0205 0.48987 0.57584 0.0
O235 O 0.01285 0.37744 0.54153 0.0
O236 O 0.0785 0.50688 0.57199 0.0
O237 O 0.08788 0.39355 0.50392 0.0
O238 O 0.98699 0.41428 0.58353 0.0
O239 O 0.15319 0.4144 0.56049 0.0
O240 O 0.06695 0.47466 0.64472 0.0
O241 O 0.05549 0.35184 0.61404 0.0
Sc242 Sc 0.95828 0.10316 0.53509 0.0
Sc243 Sc 0.89329 0.04604 0.57501 0.0
Sc244 Sc 0.97607 0.05982 0.61831 0.0
O245 O 0.94283 0.06843 0.57525 0.0
C246 C 0.03257 0.07127 0.54968 0.0
C247 C 0.90954 0.04588 0.49086 0.0
C248 C 0.94966 0.98168 0.60306 0.0
C249 C 0.8788 0.12991 0.55475 0.0
C250 C 0.98146 0.14264 0.60725 0.0
C251 C 0.89892 0.06013 0.65914 0.0
O252 O 0.00753 0.07248 0.52543 0.0
O253 O 0.89876 0.02852 0.51921 0.0
O254 O 0.97665 0.00284 0.6076 0.0
O255 O 0.91174 0.13574 0.54578 0.0
O256 O 0.97322 0.11663 0.62897 0.0
O257 O 0.88164 0.06338 0.62928 0.0
O258 O 0.98656 0.13866 0.57274 0.0
O259 O 0.86615 0.09784 0.55965 0.0
O260 O 0.93294 0.05184 0.66004 0.0
O261 O 0.92957 0.07399 0.49247 0.0
O262 O 0.02504 0.06853 0.58413 0.0
O263 O 0.91745 0.9932 0.59368 0.0
Sc264 Sc 0.69017 0.70572 0.64229 0.0
Sc265 Sc 0.63692 0.72136 0.71901 0.0
Sc266 Sc 0.70017 0.64975 0.71873 0.0
O267 O 0.67626 0.69236 0.69378 0.0
C268 C 0.6989 0.61898 0.64037 0.0
C269 C 0.60716 0.71232 0.63816 0.0
C270 C 0.6156 0.64233 0.73893 0.0
C271 C 0.67452 0.7832 0.67921 0.0
C272 C 0.76527 0.68898 0.67358 0.0
C273 C 0.68967 0.69847 0.78628 0.0
O274 O 0.705 0.65041 0.62666 0.0
O275 O 0.60683 0.73128 0.66761 0.0
O276 O 0.64889 0.63202 0.74379 0.0
O277 O 0.67723 0.76354 0.6504 0.0
O278 O 0.75268 0.66319 0.69381 0.0
O279 O 0.6597 0.71195 0.77382 0.0
O280 O 0.74502 0.71344 0.65852 0.0
O281 O 0.66778 0.76982 0.711 0.0
O282 O 0.71298 0.68237 0.76563 0.0
O283 O 0.63571 0.69582 0.62646 0.0
O284 O 0.68882 0.6144 0.67363 0.0
O285 O 0.60646 0.67356 0.72617 0.0
Sc286 Sc 0.69154 0.34242 0.7706 0.0
Sc287 Sc 0.62607 0.27575 0.77535 0.0
Sc288 Sc 0.68467 0.28746 0.8475 0.0
O289 O 0.66786 0.30171 0.79741 0.0
C290 C 0.75887 0.29935 0.81321 0.0
C291 C 0.67712 0.29373 0.70517 0.0
C292 C 0.65949 0.21153 0.81325 0.0
C293 C 0.605 0.3524 0.75094 0.0
C294 C 0.69469 0.37379 0.84796 0.0
C295 C 0.60238 0.28575 0.85862 0.0
O296 O 0.74598 0.32676 0.79444 0.0
O297 O 0.64659 0.28368 0.71897 0.0
O298 O 0.66801 0.23087 0.84097 0.0
O299 O 0.63854 0.36147 0.74524 0.0
O300 O 0.70219 0.34206 0.86086 0.0
O301 O 0.59927 0.26773 0.82881 0.0
O302 O 0.68189 0.37884 0.81573 0.0
O303 O 0.59664 0.32506 0.77056 0.0
O304 O 0.63176 0.30134 0.8675 0.0
O305 O 0.70215 0.3072 0.72479 0.0
O306 O 0.73814 0.27526 0.82718 0.0
O307 O 0.65473 0.22535 0.78135 0.0
Sc308 Sc 0.57691 0.10573 0.45226 0.0
Sc309 Sc 0.55001 0.05084 0.38071 0.0
Sc310 Sc 0.6188 0.02053 0.43801 0.0
O311 O 0.5804 0.05803 0.42597 0.0
C312 C 0.6627 0.09307 0.44593 0.0
C313 C 0.5655 0.12998 0.37067 0.0
C314 C 0.6287 0.03404 0.35633 0.0
C315 C 0.49359 0.0808 0.43617 0.0
C316 C 0.59442 0.05106 0.5182 0.0
C317 C 0.5598 0.96959 0.41091 0.0
O318 O 0.6348 0.11071 0.45774 0.0
O319 O 0.54012 0.10732 0.37158 0.0
O320 O 0.62672 0.00894 0.38052 0.0
O321 O 0.51708 0.10358 0.44807 0.0
O322 O 0.61229 0.02987 0.49645 0.0
O323 O 0.55323 0.99182 0.38446 0.0
O324 O 0.57533 0.07858 0.50653 0.0
O325 O 0.50217 0.05375 0.41525 0.0
O326 O 0.57774 0.97888 0.43942 0.0
O327 O 0.5844 0.13508 0.39942 0.0
O328 O 0.6618 0.06035 0.43457 0.0
O329 O 0.60052 0.05365 0.34897 0.0
Sc330 Sc 0.35263 0.19974 0.80568 0.0
Sc331 Sc 0.29288 0.12939 0.80527 0.0
Sc332 Sc 0.27956 0.19884 0.86576 0.0
O333 O 0.30796 0.17672 0.82474 0.0
C334 C 0.35425 0.21589 0.89425 0.0
C335 C 0.38161 0.12337 0.79989 0.0
C336 C 0.27646 0.11243 0.88178 0.0
C337 C 0.31392 0.16285 0.73366 0.0
C338 C 0.30911 0.26801 0.81778 0.0
C339 C 0.21562 0.17151 0.82533 0.0
O340 O 0.36611 0.22309 0.86136 0.0
O341 O 0.35003 0.11262 0.78936 0.0
O342 O 0.26192 0.14419 0.88726 0.0
O343 O 0.34177 0.17777 0.74904 0.0
O344 O 0.29518 0.25508 0.84783 0.0
O345 O 0.23342 0.1414 0.81911 0.0
O346 O 0.32126 0.24712 0.79267 0.0
O347 O 0.28627 0.15279 0.75236 0.0
O348 O 0.23248 0.20085 0.83153 0.0
O349 O 0.38473 0.15238 0.81836 0.0
O350 O 0.3266 0.19594 0.89943 0.0
O351 O 0.30215 0.10848 0.85864 0.0
C352 C 0.06715 0.19308 0.88226 0.0
C353 C 0.00831 0.21893 0.01754 0.0
C354 C 0.91082 0.21559 0.96587 0.0
Mg355 Mg 0.03258 0.20887 0.80639 0.0
Mg356 Mg 0.98208 0.28137 0.79203 0.0
O357 O 0.98473 0.2365 0.81674 0.0
Mg358 Mg 0.98943 0.23984 0.87213 0.0
O359 O -0.00136 0.23711 0.92687 0.0
Mg360 Mg 0.99381 0.18259 0.93605 0.0
Mg361 Mg 0.96811 0.26531 0.95653 0.0
C362 C 0.91382 0.28632 0.84555 0.0
O363 O 0.00726 0.30157 0.87671 0.0
O364 O 0.01382 0.20659 0.74704 0.0
O365 O 0.98357 0.31604 0.93281 0.0
O366 O 0.06339 0.25896 0.78428 0.0
O367 O 0.98344 0.26008 0.73644 0.0
O368 O 0.03226 0.30725 0.8032 0.0
O369 O 0.97201 0.18002 0.87625 0.0
O370 O 0.00064 0.15755 0.82662 0.0
C371 C 0.97982 0.15319 0.85506 0.0
C372 C -0.00228 0.22975 0.72547 0.0
O373 O 0.92827 0.26351 0.86926 0.0
O374 O 0.01439 0.19307 0.99435 0.0
O375 O 0.93176 0.29901 0.8178 0.0
O376 O 0.93586 0.19058 0.96502 0.0
O377 O 0.99033 0.24825 0.00918 0.0
O378 O 0.91526 0.24505 0.94791 0.0
O379 O 0.04775 0.21763 0.86609 0.0
O380 O 0.054 0.17553 0.91014 0.0
C381 C 0.05858 0.29352 0.78451 0.0
C382 C 0.00092 0.32449 0.90317 0.0
C383 C 0.56515 0.69291 0.37742 0.0
C384 C 0.51204 0.71902 0.51553 0.0
C385 C 0.41248 0.71687 0.46672 0.0
Mg386 Mg 0.52554 0.70919 0.30235 0.0
Mg387 Mg 0.47553 0.78274 0.29223 0.0
O388 O 0.47958 0.73776 0.31646 0.0
Mg389 Mg 0.48777 0.74047 0.37117 0.0
O390 O 0.49983 0.73746 0.42536 0.0
Mg391 Mg 0.49413 0.68313 0.4346 0.0
Mg392 Mg 0.4703 0.76574 0.4559 0.0
C393 C 0.4115 0.78824 0.35008 0.0
O394 O 0.50674 0.80171 0.37479 0.0
O395 O 0.50148 0.70827 0.24417 0.0
O396 O 0.48545 0.81628 0.43179 0.0
O397 O 0.55595 0.75866 0.27953 0.0
O398 O 0.47029 0.76183 0.23691 0.0
O399 O 0.52675 0.80879 0.29741 0.0
O400 O 0.46992 0.68113 0.37586 0.0
O401 O 0.49435 0.6585 0.32416 0.0
C402 C 0.4759 0.65429 0.35419 0.0
C403 C 0.48297 0.73143 0.2245 0.0
O404 O 0.42696 0.76458 0.37219 0.0
O405 O 0.51715 0.69315 0.49213 0.0
O406 O 0.42808 0.80178 0.32191 0.0
O407 O 0.43728 0.69164 0.46555 0.0
O408 O 0.49388 0.7484 0.50781 0.0
O409 O 0.41695 0.74628 0.44871 0.0
O410 O 0.54528 0.71726 0.3614 0.0
O411 O 0.55302 0.67603 0.40622 0.0
C412 C 0.55304 0.79337 0.27997 0.0
C413 C 0.50182 0.82456 0.40155 0.0
C414 C 0.97724 0.83206 0.64988 0.0
C415 C 0.98853 0.75994 0.78234 0.0
C416 C 0.058 0.69313 0.72968 0.0
Mg417 Mg 0.99379 0.80256 0.56898 0.0
Mg418 Mg 0.97261 0.72019 0.54863 0.0
O419 O 0.0015 0.74825 0.57883 0.0
Mg420 Mg 0.99061 0.74584 0.63351 0.0
O421 O 0.98336 0.74909 0.68922 0.0
Mg422 Mg 0.02879 0.77706 0.70181 0.0
Mg423 Mg 0.97956 0.70592 0.71646 0.0
C424 C 0.00064 0.66095 0.60576 0.0
O425 O 0.93345 0.722 0.63224 0.0
O426 O 0.01733 0.79208 0.51189 0.0
O427 O 0.93406 0.68714 0.68444 0.0
O428 O 0.93814 0.79447 0.53615 0.0
O429 O -0.00302 0.73642 0.49654 0.0
O430 O 0.91847 0.74046 0.5531 0.0
O431 O 0.04601 0.76772 0.64182 0.0
O432 O 0.0514 0.80938 0.59697 0.0
C433 C 0.06421 0.79231 0.6254 0.0
C434 C 0.0136 0.76612 0.48863 0.0
O435 O 0.00959 0.68431 0.63062 0.0
O436 O 0.007 0.78115 0.76106 0.0
O437 O 0.98451 0.66969 0.57555 0.0
O438 O 0.06082 0.72769 0.72659 0.0
O439 O 0.97422 0.73024 0.77111 0.0
O440 O 0.03088 0.67712 0.71537 0.0
O441 O 0.97036 0.80539 0.62851 0.0
O442 O -0.00357 0.82725 0.67922 0.0
C443 C 0.91451 0.76914 0.53365 0.0
C444 C 0.91888 0.69855 0.65438 0.0
C445 C 0.85991 -0.00224 0.1674 0.0
C446 C 0.72161 0.00824 0.23344 0.0
C447 C 0.77331 0.06619 0.30505 0.0
Mg448 Mg 0.93406 0.01542 0.20772 0.0
Mg449 Mg 0.94942 0.98382 0.29179 0.0
O450 O 0.91828 0.01085 0.26129 0.0
Mg451 Mg 0.86494 0.00018 0.25677 0.0
O452 O 0.81081 -0.00577 0.2463 0.0
Mg453 Mg 0.80148 0.04421 0.22122 0.0
Mg454 Mg 0.78444 0.99239 0.29059 0.0
C455 C 0.8832 5e-05 0.34568 0.0
O456 O 0.8627 0.93821 0.2767 0.0
O457 O 0.98524 0.04202 0.22985 0.0
O458 O 0.80967 0.94227 0.30959 0.0
O459 O 0.96801 0.96101 0.20999 0.0
O460 O 0.99548 0.01981 0.28744 0.0
O461 O 0.96355 0.93426 0.26526 0.0
O462 O 0.85739 0.05974 0.23944 0.0
O463 O 0.9041 0.07218 0.20275 0.0
C464 C 0.87393 0.08178 0.21823 0.0
C465 C 0.00372 0.04034 0.25988 0.0
O466 O 0.86174 0.01162 0.31973 0.0
O467 O 0.74415 0.02411 0.21133 0.0
O468 O 0.91463 0.98484 0.33979 0.0
O469 O 0.77281 0.07267 0.27051 0.0
O470 O 0.73087 -0.00514 0.26502 0.0
O471 O 0.79608 0.04245 0.31683 0.0
O472 O 0.87773 0.98886 0.19634 0.0
O473 O 0.82984 0.01668 0.16947 0.0
C474 C 0.97539 0.93457 0.23215 0.0
C475 C 0.83811 0.9242 0.29853 0.0
C476 C 0.2026 0.85408 0.06487 0.0
C477 C 0.23166 0.99168 0.05299 0.0
C478 C 0.2365 0.97547 0.94015 0.0
Mg479 Mg 0.21704 0.78788 0.01438 0.0
Mg480 Mg 0.29367 0.78165 0.97062 0.0
O481 O 0.24903 0.80703 0.97263 0.0
Mg482 Mg 0.25359 0.85901 0.99022 0.0
O483 O 0.25105 0.90963 0.01175 0.0
Mg484 Mg 0.19696 0.92255 0.00661 0.0
Mg485 Mg 0.28348 0.94629 0.00098 0.0
C486 C 0.30594 0.8478 0.9161 0.0
O487 O 0.31449 0.85498 0.01202 0.0
O488 O 0.21525 0.73458 0.98186 0.0
O489 O 0.33267 0.91398 0.00896 0.0
O490 O 0.26306 0.75849 0.04637 0.0
O491 O 0.27212 0.72846 0.95708 0.0
O492 O 0.31556 0.77889 0.02494 0.0
O493 O 0.19529 0.87098 0.96978 0.0
O494 O 0.16916 0.81783 0.98315 0.0
C495 C 0.16733 0.85049 0.96981 0.0
C496 C 0.24 0.71633 0.96402 0.0
O497 O 0.28161 0.86846 0.93243 0.0
O498 O 0.20495 0.97113 0.04461 0.0
O499 O 0.31737 0.81718 0.92977 0.0
O500 O 0.20862 0.96401 0.9583 0.0
O501 O 0.26415 0.98706 0.03986 0.0
O502 O 0.26906 0.96496 0.94779 0.0
O503 O 0.22735 0.84107 0.0437 0.0
O504 O 0.1864 0.88449 0.05725 0.0
C505 C 0.29787 0.75946 0.04797 0.0
C506 C 0.3392 0.87978 0.01425 0.0
C507 C 0.13506 0.4329 0.19166 0.0
C508 C -0.00369 0.43855 0.22686 0.0
C509 C 0.01328 0.54637 0.25893 0.0
Mg510 Mg 0.20293 0.48358 0.21113 0.0
Mg511 Mg 0.21054 0.51377 0.29489 0.0
O512 O 0.18184 0.51427 0.25228 0.0
Mg513 Mg 0.13052 0.49429 0.25511 0.0
O514 O 0.07995 0.47331 0.2507 0.0
Mg515 Mg 0.06481 0.4914 0.20027 0.0
Mg516 Mg 0.04363 0.47444 0.28633 0.0
C517 C 0.13797 0.55677 0.31815 0.0
O518 O 0.1361 0.46119 0.31242 0.0
O519 O 0.25235 0.52223 0.21139 0.0
O520 O 0.07675 0.45461 0.33042 0.0
O521 O 0.23886 0.44736 0.24943 0.0
O522 O 0.25897 0.5393 0.27079 0.0
O523 O 0.22756 0.45893 0.30843 0.0
O524 O 0.1165 0.52604 0.20106 0.0
O525 O 0.16929 0.51927 0.17061 0.0
C526 C 0.13588 0.53054 0.17182 0.0
C527 C 0.26952 0.53914 0.23688 0.0
O528 O 0.11837 0.54304 0.29232 0.0
O529 O 0.0159 0.45387 0.20201 0.0
O530 O 0.16991 0.54402 0.32707 0.0
O531 O 0.02422 0.53715 0.22626 0.0
O532 O 0.00232 0.44192 0.26143 0.0
O533 O 0.02323 0.52854 0.28759 0.0
O534 O 0.15051 0.44887 0.21847 0.0
O535 O 0.10332 0.44353 0.17992 0.0
C536 C 0.24445 0.44066 0.28357 0.0
C537 C 0.11125 0.4504 0.33576 0.0
C538 C 0.66995 0.63834 0.02384 0.0
C539 C 0.74396 0.7658 0.04272 0.0
C540 C 0.80487 0.73163 0.96001 0.0
Mg541 Mg 0.69771 0.56688 0.9857 0.0
Mg542 Mg 0.78123 0.53456 0.99508 0.0
O543 O 0.75253 0.57502 0.984 0.0
Mg544 Mg 0.75704 0.62523 0.00668 0.0
O545 O 0.75376 0.67691 0.02595 0.0
Mg546 Mg 0.72307 0.70052 0.98501 0.0
Mg547 Mg 0.79862 0.70004 0.03047 0.0
C548 C 0.8409 0.59604 0.98247 0.0
O549 O 0.78278 0.6133 0.06571 0.0
O550 O 0.70485 0.51914 0.94568 0.0
O551 O 0.82225 0.66048 0.06757 0.0
O552 O 0.7031 0.52254 0.03217 0.0
O553 O 0.76255 0.49778 0.95312 0.0
O554 O 0.76211 0.51369 0.04631 0.0
O555 O 0.73437 0.64816 0.9524 0.0
O556 O 0.6926 0.60776 0.93676 0.0
C557 C 0.71011 0.63711 0.93027 0.0
C558 C 0.73096 0.49654 0.9379 0.0
O559 O 0.81855 0.62376 0.98583 0.0
O560 O 0.71989 0.75025 0.02264 0.0
O561 O 0.8317 0.56273 0.98798 0.0
O562 O 0.77006 0.73297 0.95809 0.0
O563 O 0.77615 0.75236 0.04872 0.0
O564 O 0.82006 0.70466 0.97638 0.0
O565 O 0.69753 0.61659 0.02473 0.0
O566 O 0.67314 0.67119 0.01174 0.0
C567 C 0.72831 0.50681 0.05128 0.0
C568 C 0.80839 0.63159 0.0818 0.0
C569 C 0.17232 0.13743 0.51981 0.0
C570 C 0.24406 0.26483 0.53583 0.0
C571 C 0.30723 0.22919 0.45123 0.0
Mg572 Mg 0.19958 0.06555 0.48416 0.0
Mg573 Mg 0.28256 0.03255 0.49459 0.0
O574 O 0.25449 0.07287 0.48174 0.0
Mg575 Mg 0.25935 0.12378 0.5028 0.0
O576 O 0.25603 0.17595 0.51983 0.0
Mg577 Mg 0.22495 0.1981 0.47869 0.0
Mg578 Mg 0.3001 0.20006 0.5254 0.0
C579 C 0.3427 0.09325 0.47973 0.0
O580 O 0.28437 0.11365 0.56236 0.0
O581 O 0.20571 0.01651 0.44629 0.0
O582 O 0.32299 0.16155 0.5643 0.0
O583 O 0.20467 0.02302 0.53236 0.0
O584 O 0.26288 -0.00597 0.45458 0.0
O585 O 0.26363 0.01528 0.54712 0.0
O586 O 0.23687 0.1448 0.44807 0.0
O587 O 0.1947 0.10453 0.43347 0.0
C588 C 0.2128 0.13331 0.42608 0.0
C589 C 0.23122 0.99301 0.43946 0.0
O590 O 0.32073 0.12134 0.48225 0.0
O591 O 0.2211 0.24902 0.5147 0.0
O592 O 0.33308 0.06022 0.48622 0.0
O593 O 0.27233 0.22861 0.45067 0.0
O594 O 0.27596 0.25159 0.54347 0.0
O595 O 0.32476 0.20742 0.47255 0.0
O596 O 0.20033 0.11639 0.52114 0.0
O597 O 0.17446 0.16978 0.5062 0.0
C598 C 0.22988 0.00839 0.5523 0.0
C599 C 0.30925 0.13265 0.5787 0.0
C600 C 0.36951 0.57769 0.71203 0.0
C601 C 0.50027 0.53904 0.74803 0.0
C602 C 0.4737 0.43208 0.72641 0.0
Mg603 Mg 0.29675 0.54058 0.71991 0.0
Mg604 Mg 0.28238 0.48908 0.79034 0.0
O605 O 0.3073 0.49113 0.74517 0.0
Mg606 Mg 0.36187 0.49709 0.75263 0.0
O607 O 0.4154 0.5075 0.7543 0.0
Mg608 Mg 0.42887 0.5108 0.70012 0.0
Mg609 Mg 0.44851 0.4833 0.78506 0.0
C610 C 0.33706 0.42168 0.79689 0.0
O611 O 0.36126 0.51019 0.81536 0.0
O612 O 0.23904 0.52022 0.71296 0.0
O613 O 0.41573 0.48604 0.83451 0.0
O614 O 0.27037 0.56953 0.7702 0.0
O615 O 0.22789 0.49037 0.76679 0.0
O616 O 0.29376 0.53917 0.81652 0.0
O617 O 0.37185 0.48435 0.69154 0.0
O618 O 0.3224 0.51221 0.66752 0.0
C619 C 0.35227 0.49327 0.66366 0.0
C620 C 0.21746 0.50385 0.73564 0.0
O621 O 0.36054 0.43558 0.77379 0.0
O622 O 0.48063 0.53826 0.71878 0.0
O623 O 0.30894 0.4396 0.80894 0.0
O624 O 0.46392 0.45685 0.70316 0.0
O625 O 0.49336 0.52019 0.77716 0.0
O626 O 0.46363 0.43317 0.7601 0.0
O627 O 0.35375 0.55637 0.73463 0.0
O628 O 0.3987 0.56733 0.69522 0.0
C629 C 0.27128 0.56324 0.8048 0.0
C630 C 0.38402 0.50043 0.84089 0.0
C631 C 0.70094 0.35449 0.56173 0.0
C632 C 0.73183 0.49269 0.55215 0.0
C633 C 0.73384 0.47809 0.43911 0.0
Mg634 Mg 0.71513 0.28916 0.50892 0.0
Mg635 Mg 0.79139 0.28452 0.46456 0.0
O636 O 0.74664 0.30975 0.46771 0.0
Mg637 Mg 0.75128 0.36108 0.48683 0.0
O638 O 0.74942 0.4111 0.5097 0.0
Mg639 Mg 0.69535 0.42457 0.50547 0.0
Mg640 Mg 0.78204 0.44751 0.49829 0.0
C641 C 0.80376 0.35228 0.41247 0.0
O642 O 0.81231 0.35599 0.508 0.0
O643 O 0.71327 0.23692 0.47428 0.0
O644 O 0.83127 0.41471 0.505 0.0
O645 O 0.76112 0.25919 0.53952 0.0
O646 O 0.76998 0.23196 0.44894 0.0
O647 O 0.81427 0.27847 0.51817 0.0
O648 O 0.69241 0.37384 0.46765 0.0
O649 O 0.66723 0.3199 0.47977 0.0
C650 C 0.66457 0.35313 0.46823 0.0
C651 C 0.73794 0.21949 0.45551 0.0
O652 O 0.77903 0.37222 0.42911 0.0
O653 O 0.70471 0.47244 0.54425 0.0
O654 O 0.81545 0.32147 0.42544 0.0
O655 O 0.70637 0.46671 0.45788 0.0
O656 O 0.76392 0.48798 0.53806 0.0
O657 O 0.76647 0.467 0.4456 0.0
O658 O 0.72541 0.34158 0.54008 0.0
O659 O 0.68534 0.38543 0.55513 0.0
C660 C 0.7959 0.25969 0.5412 0.0
C661 C 0.83741 0.3804 0.51005 0.0
C662 C 0.64027 0.02874 0.66959 0.0
C663 C 0.77382 0.03235 0.73974 0.0
C664 C 0.73927 0.93884 0.78858 0.0
Mg665 Mg 0.56692 0.9929 0.69813 0.0
Mg666 Mg 0.54492 0.97956 0.78476 0.0
O667 O 0.58112 0.97621 0.74925 0.0
Mg668 Mg 0.63185 -0.00362 0.75372 0.0
O669 O 0.6837 0.01508 0.75132 0.0
Mg670 Mg 0.70466 0.98097 0.71282 0.0
Mg671 Mg 0.71023 0.01391 0.7953 0.0
C672 C 0.61133 0.95479 0.83498 0.0
O673 O 0.61986 0.04661 0.7893 0.0
O674 O 0.51722 0.95629 0.70088 0.0
O675 O 0.67081 0.04778 0.82482 0.0
O676 O 0.52651 0.0398 0.72244 0.0
O677 O 0.50304 0.94741 0.76073 0.0
O678 O 0.52626 0.03414 0.7841 0.0
O679 O 0.6508 0.94924 0.7192 0.0
O680 O 0.60466 0.9438 0.67944 0.0
C681 C 0.63583 0.93291 0.69238 0.0
C682 C 0.49715 0.94258 0.72634 0.0
O683 O 0.63638 0.96471 0.81156 0.0
O684 O 0.75659 0.01611 0.71384 0.0
O685 O 0.57694 0.95973 0.82959 0.0
O686 O 0.73694 0.94473 0.75395 0.0
O687 O 0.76157 0.03478 0.77297 0.0
O688 O 0.72112 0.95853 0.81133 0.0
O689 O 0.61979 0.02643 0.6984 0.0
O690 O 0.67348 0.01654 0.67003 0.0
C691 C 0.51585 0.0505 0.75474 0.0
C692 C 0.63918 0.06067 0.81517 0.0
C693 C 0.46915 0.33311 0.14829 0.0
C694 C 0.46716 0.25896 0.27913 0.0
C695 C 0.548 0.19647 0.23265 0.0
Mg696 Mg 0.49194 0.30506 0.06855 0.0
Mg697 Mg 0.47458 0.2227 0.04648 0.0
O698 O 0.50159 0.25102 0.07817 0.0
Mg699 Mg 0.48665 0.24754 0.13186 0.0
O700 O 0.47457 0.2494 0.18648 0.0
Mg701 Mg 0.5168 0.27927 0.20393 0.0
Mg702 Mg 0.46922 0.20565 0.21247 0.0
C703 C 0.50111 0.1634 0.104 0.0
O704 O 0.4305 0.22224 0.12516 0.0
O705 O 0.51879 0.29627 0.01262 0.0
O706 O 0.42851 0.18496 0.17548 0.0
O707 O 0.43813 0.29559 0.03301 0.0
O708 O 0.50016 0.24047 0.99567 0.0
O709 O 0.41961 0.24084 0.04891 0.0
O710 O 0.5405 0.27165 0.14538 0.0
O711 O 0.54753 0.3128 0.10015 0.0
C712 C 0.559 0.29658 0.12969 0.0
C713 C 0.51649 0.27057 0.98884 0.0
O714 O 0.50765 0.18664 0.12975 0.0
O715 O 0.48808 0.2806 0.2608 0.0
O716 O 0.48669 0.17209 0.07292 0.0
O717 O 0.54931 0.23112 0.22956 0.0
O718 O 0.45533 0.22896 0.266 0.0
O719 O 0.5215 0.179 0.21887 0.0
O720 O 0.46516 0.30632 0.12633 0.0
O721 O 0.48485 0.3286 0.17966 0.0
C722 C 0.41516 0.26972 0.02991 0.0
C723 C 0.41516 0.19731 0.14492 0.0
C724 C 0.05634 0.36796 0.7137 0.0
C725 C 0.05688 0.34782 0.68057 0.0
H726 H 0.05835 0.36672 0.77267 0.0
C727 C 0.06617 0.31049 0.68215 0.0
H728 H 0.0507 0.39713 0.71372 0.0
C729 C 0.0716 0.2932 0.71643 0.0
C730 C 0.06738 0.31292 0.74967 0.0
H731 H 0.06787 0.29442 0.65719 0.0
H732 H 0.07617 0.26388 0.71685 0.0
C733 C 0.06156 0.35076 0.74771 0.0
C734 C 0.56921 0.6808 0.59293 0.0
C735 C 0.5755 0.7123 0.61361 0.0
H736 H 0.54375 0.65814 0.54577 0.0
C737 C 0.55591 0.74466 0.60565 0.0
H738 H 0.58376 0.65538 0.59907 0.0
C739 C 0.53307 0.74638 0.57479 0.0
C740 C 0.52976 0.71573 0.55184 0.0
H741 H 0.5605 0.76924 0.62132 0.0
H742 H 0.52004 0.7723 0.56763 0.0
C743 C 0.54649 0.68246 0.56233 0.0
C744 C 0.9577 0.19715 0.63825 0.0
C745 C 0.98807 0.1775 0.62432 0.0
H746 H 0.93734 0.23075 0.68226 0.0
C747 C 0.0231 0.18346 0.63823 0.0
H748 H 0.93039 0.1921 0.62807 0.0
C749 C 0.0269 0.20464 0.66961 0.0
C750 C 0.99572 0.22015 0.68665 0.0
H751 H 0.04662 0.16799 0.62797 0.0
H752 H 0.05353 0.20577 0.68267 0.0
C753 C 0.9616 0.21889 0.66932 0.0
C754 C 0.38923 0.72685 0.5677 0.0
C755 C 0.35888 0.75103 0.56574 0.0
H756 H 0.42938 0.69538 0.53746 0.0
C757 C 0.34281 0.75785 0.53092 0.0
H758 H 0.40186 0.72039 0.59403 0.0
C759 C 0.35798 0.74298 0.49882 0.0
C760 C 0.38963 0.72075 0.50042 0.0
H761 H 0.31902 0.77578 0.52809 0.0
H762 H 0.34632 0.75084 0.47237 0.0
C763 C 0.40444 0.71178 0.53533 0.0
C764 C 0.08515 0.68169 0.82914 0.0
C765 C 0.07496 0.64532 0.83477 0.0
H766 H 0.08908 0.72576 0.79009 0.0
C767 C 0.06948 0.62311 0.80375 0.0
H768 H 0.08983 0.69929 0.85249 0.0
C769 C 0.06994 0.63774 0.76813 0.0
C770 C 0.0748 0.67528 0.76264 0.0
H771 H 0.06208 0.59475 0.80707 0.0
H772 H 0.06242 0.62042 0.74535 0.0
C773 C 0.08505 0.69664 0.79322 0.0
C774 C 0.8514 0.72674 0.4653 0.0
C775 C 0.8686 0.73408 0.43098 0.0
H776 H 0.8513 0.73338 0.52396 0.0
C777 C 0.89819 0.75828 0.4306 0.0
H778 H 0.82818 0.70877 0.46724 0.0
C779 C 0.91115 0.7731 0.4639 0.0
C780 C 0.89475 0.76405 0.49822 0.0
H781 H 0.91179 0.7651 0.40484 0.0
H782 H 0.93536 0.7898 0.46298 0.0
C783 C 0.8642 0.74141 0.49815 0.0
C784 C 0.94518 0.78732 0.87254 0.0
C785 C 0.97366 0.80765 0.8878 0.0
H786 H 0.92768 0.75572 0.82638 0.0
C787 C 0.00896 0.80475 0.87255 0.0
H788 H 0.91757 0.78976 0.88364 0.0
C789 C 0.01437 0.78658 0.83917 0.0
C790 C 0.98473 0.77037 0.82132 0.0
H791 H 0.03112 0.8207 0.88352 0.0
H792 H 0.04107 0.78761 0.82591 0.0
C793 C 0.95078 0.76843 0.8395 0.0
C794 C 0.05308 0.74505 0.39438 0.0
C795 C 0.07008 0.77824 0.38625 0.0
H796 H 0.02174 0.7149 0.43405 0.0
C797 C 0.06388 0.80853 0.40899 0.0
H798 H 0.05775 0.72135 0.37711 0.0
C799 C 0.04375 0.80491 0.44136 0.0
C800 C 0.02964 0.77083 0.45162 0.0
H801 H 0.07653 0.83449 0.40283 0.0
H802 H 0.04084 0.82846 0.45916 0.0
C803 C 0.0329 0.74133 0.42708 0.0
C804 C 0.69636 0.03258 0.36374 0.0
C805 C 0.66548 0.04576 0.34438 0.0
H806 H 0.75434 0.03161 0.36896 0.0
C807 C 0.67035 0.07157 0.31592 0.0
H808 H 0.6937 0.01333 0.38645 0.0
C809 C 0.70577 0.08168 0.30524 0.0
C810 C 0.73678 0.06648 0.32324 0.0
H811 H 0.64699 0.08287 0.3011 0.0
H812 H 0.7089 0.09959 0.28148 0.0
C813 C 0.73136 0.04357 0.35402 0.0
C814 C 0.2657 0.04605 0.87345 0.0
C815 C 0.25837 0.07824 0.89372 0.0
H816 H 0.26288 0.98779 0.87172 0.0
C817 C 0.23513 0.07625 0.92467 0.0
H818 H 0.28243 0.04648 0.84862 0.0
C819 C 0.22294 0.04207 0.93725 0.0
C820 C 0.23381 0.00972 0.9189 0.0
H821 H 0.22843 0.10055 0.94041 0.0
H822 H 0.20823 0.04062 0.96332 0.0
C823 C 0.25376 0.01227 0.886 0.0
C824 C 0.31829 0.40225 0.3443 0.0
C825 C 0.3494 0.4168 0.32684 0.0
H826 H 0.2597 0.39829 0.3442 0.0
C827 C 0.34631 0.43019 0.29064 0.0
H828 H 0.32005 0.39186 0.37222 0.0
C829 C 0.31174 0.43278 0.27395 0.0
C830 C 0.27983 0.42315 0.29384 0.0
H831 H 0.3697 0.44221 0.27687 0.0
H832 H 0.30963 0.4466 0.24743 0.0
C833 C 0.28368 0.40584 0.32825 0.0
C834 C 0.73261 0.40268 0.89612 0.0
C835 C 0.70425 0.4057 0.87012 0.0
H836 H 0.76382 0.42941 0.93735 0.0
C837 C 0.68585 0.43941 0.86519 0.0
H838 H 0.74757 0.37711 0.90014 0.0
C839 C 0.69497 0.46932 0.88679 0.0
C840 C 0.72318 0.46615 0.91298 0.0
H841 H 0.66397 0.44243 0.84522 0.0
H842 H 0.67986 0.49485 0.88313 0.0
C843 C 0.74222 0.43272 0.91711 0.0
C844 C 0.63428 0.96418 0.20698 0.0
C845 C 0.62176 0.9894 0.18037 0.0
H846 H 0.67668 0.95088 0.24574 0.0
C847 C 0.63718 0.02405 0.17781 0.0
H848 H 0.62282 0.93709 0.20868 0.0
C849 C 0.66836 0.03153 0.19804 0.0
C850 C 0.68388 0.00448 0.2211 0.0
H851 H 0.62791 0.04353 0.15699 0.0
H852 H 0.68205 0.05722 0.19331 0.0
C853 C 0.66522 0.97189 0.22772 0.0
C854 C 0.18649 0.05293 0.12377 0.0
C855 C 0.20401 0.08608 0.11664 0.0
H856 H 0.18152 -0.00325 0.10876 0.0
C857 C 0.23162 0.08761 0.08945 0.0
H858 H 0.16527 0.05111 0.14476 0.0
C859 C 0.24163 0.05642 0.06973 0.0
C860 C 0.22361 0.02345 0.07631 0.0
H861 H 0.24593 0.11278 0.08385 0.0
H862 H 0.26277 0.05834 0.04866 0.0
C863 C 0.19587 0.02193 0.10336 0.0
C864 C 0.34058 0.58706 0.18085 0.0
C865 C 0.37166 0.56519 0.18889 0.0
H866 H 0.28287 0.59544 0.18988 0.0
C867 C 0.3705 0.54095 0.21909 0.0
H868 H 0.34065 0.60532 0.15709 0.0
C869 C 0.33751 0.53588 0.23839 0.0
C870 C 0.30532 0.55433 0.22696 0.0
H871 H 0.39376 0.52306 0.22507 0.0
H872 H 0.33626 0.51462 0.25936 0.0
C873 C 0.30745 0.58124 0.19934 0.0
C874 C 0.73566 0.43138 0.12007 0.0
C875 C 0.73664 0.40094 0.09632 0.0
H876 H 0.73205 0.48974 0.12421 0.0
C877 C 0.72496 0.40547 0.05978 0.0
H878 H 0.74396 0.4285 0.14867 0.0
C879 C 0.71685 0.44073 0.04621 0.0
C880 C 0.72072 0.47153 0.06898 0.0
H881 H 0.72559 0.38259 0.04098 0.0
H882 H 0.71159 0.44428 0.01694 0.0
C883 C 0.72845 0.46645 0.10637 0.0
C884 C 0.36777 0.68575 0.05182 0.0
C885 C 0.34658 0.65581 0.06279 0.0
H886 H 0.37042 0.74299 0.04285 0.0
C887 C 0.31197 0.66223 0.07875 0.0
H888 H 0.39448 0.68194 0.03921 0.0
C889 C 0.29707 0.69787 0.079 0.0
C890 C 0.31715 0.72726 0.06406 0.0
H891 H 0.29537 0.63962 0.08798 0.0
H892 H 0.26876 0.70176 0.08755 0.0
C893 C 0.35383 0.72112 0.05388 0.0
C894 C 0.36532 0.31027 0.46628 0.0
C895 C 0.34374 0.33884 0.45109 0.0
H896 H 0.37301 0.25319 0.47491 0.0
C897 C 0.31334 0.33 0.42953 0.0
H898 H 0.38906 0.31582 0.48302 0.0
C899 C 0.30334 0.29334 0.42568 0.0
C900 C 0.32399 0.26497 0.44284 0.0
H901 H 0.29617 0.35133 0.41749 0.0
H902 H 0.27812 0.28743 0.41143 0.0
C903 C 0.3563 0.27396 0.46125 0.0
C904 C 0.57397 0.40941 0.7247 0.0
C905 C 0.57323 0.37223 0.73421 0.0
H906 H 0.54161 0.45775 0.71317 0.0
C907 C 0.53959 0.35373 0.73176 0.0
H908 H 0.5993 0.42433 0.72605 0.0
C909 C 0.50686 0.37269 0.72491 0.0
C910 C 0.5071 0.41034 0.71894 0.0
H911 H 0.53804 0.32475 0.73783 0.0
H912 H 0.48114 0.35839 0.72702 0.0
C913 C 0.54099 0.42835 0.71698 0.0
C914 C 0.71539 0.12245 0.4737 0.0
C915 C 0.69578 0.11443 0.44176 0.0
H916 H 0.74496 0.16313 0.50258 0.0
C917 C 0.69793 0.13784 0.41086 0.0
H918 H 0.7133 0.10512 0.49804 0.0
C919 C 0.71523 0.17147 0.41374 0.0
C920 C 0.73089 0.18128 0.44734 0.0
H921 H 0.68221 0.13234 0.38625 0.0
H922 H 0.71326 0.19101 0.39115 0.0
C923 C 0.73298 0.15579 0.47643 0.0
C924 C 0.9486 0.61056 0.30863 0.0
C925 C 0.91528 0.6047 0.29032 0.0
H926 H 0.00605 0.59761 0.31221 0.0
C927 C 0.916 0.58348 0.25803 0.0
H928 H 0.94927 0.6271 0.3333 0.0
C929 C 0.94906 0.56754 0.24519 0.0
C930 C 0.98198 0.57217 0.2646 0.0
H931 H 0.89102 0.57906 0.24277 0.0
H932 H 0.94843 0.54972 0.22145 0.0
C933 C 0.98135 0.59426 0.29617 0.0
C934 C 0.20975 0.36095 0.53812 0.0
C935 C 0.18724 0.35919 0.56963 0.0
H936 H 0.24627 0.33091 0.50243 0.0
C937 C 0.19126 0.32963 0.59441 0.0
H938 H 0.20679 0.38332 0.51849 0.0
C939 C 0.21389 0.29994 0.58534 0.0
C940 C 0.23256 0.29971 0.5515 0.0
H941 H 0.17404 0.32782 0.61886 0.0
H942 H 0.21382 0.27577 0.60287 0.0
C943 C 0.23211 0.331 0.52886 0.0
C944 C 0.55199 0.62377 0.7279 0.0
C945 C 0.58595 0.61632 0.74474 0.0
H946 H 0.49868 0.60491 0.7158 0.0
C947 C 0.59124 0.58347 0.76458 0.0
H948 H 0.54692 0.64871 0.71225 0.0
C949 C 0.56295 0.5582 0.76685 0.0
C950 C 0.52972 0.56544 0.74859 0.0
H951 H 0.61717 0.57719 0.77785 0.0
H952 H 0.56738 0.5327 0.78173 0.0
C953 C 0.52434 0.59853 0.72961 0.0
C954 C 0.4012 0.90759 0.72641 0.0
C955 C 0.401 0.88752 0.69353 0.0
H956 H 0.43246 0.94002 0.76302 0.0
C957 C 0.43264 0.88562 0.67136 0.0
H958 H 0.37725 0.90898 0.74426 0.0
C959 C 0.46415 0.90364 0.68201 0.0
C960 C 0.46455 0.92289 0.71538 0.0
H961 H 0.43305 0.87007 0.64601 0.0
H962 H 0.48834 0.90203 0.66451 0.0
C963 C 0.43288 0.92483 0.73745 0.0
C964 C 0.56133 0.8695 0.21244 0.0
C965 C 0.56018 0.8502 0.17885 0.0
H966 H 0.56182 0.8664 0.27141 0.0
C967 C 0.56636 0.81231 0.17939 0.0
H968 H 0.55819 0.89898 0.21312 0.0
C969 C 0.56963 0.79375 0.21316 0.0
C970 C 0.56622 0.81282 0.24683 0.0
H971 H 0.56673 0.79683 0.15401 0.0
H972 H 0.57121 0.76417 0.21276 0.0
C973 C 0.56429 0.85101 0.24602 0.0
C974 C 0.06226 0.18004 0.09674 0.0
C975 C 0.07006 0.21179 0.1164 0.0
H976 H 0.036 0.15736 0.05004 0.0
C977 C 0.05189 0.24474 0.10757 0.0
H978 H 0.07579 0.15424 0.10355 0.0
C979 C 0.02925 0.24668 0.07657 0.0
C980 C 0.02482 0.21566 0.05439 0.0
H981 H 0.05773 0.26953 0.12243 0.0
H982 H 0.01758 0.27297 0.06852 0.0
C983 C 0.03975 0.18192 0.06599 0.0
C984 C 0.50391 0.69268 0.13228 0.0
C985 C 0.4685 0.68471 0.12029 0.0
H986 H 0.53604 0.71404 0.17595 0.0
C987 C 0.4379 0.70067 0.138 0.0
H988 H 0.52777 0.68048 0.11887 0.0
C989 C 0.44265 0.71987 0.17082 0.0
C990 C 0.47791 0.72279 0.18564 0.0
H991 H 0.41036 0.69438 0.12925 0.0
H992 H 0.41874 0.72881 0.18647 0.0
C993 C 0.50859 0.71139 0.16505 0.0
C994 C 0.8869 0.22521 0.06688 0.0
C995 C 0.85625 0.24901 0.06484 0.0
H996 H 0.92754 0.19424 0.03676 0.0
C997 C 0.84036 0.25578 0.02992 0.0
H998 H 0.89943 0.21881 0.09326 0.0
C999 C 0.85594 0.24127 0.99783 0.0
C1000 C 0.88779 0.21935 -0.00047 0.0
H1001 H 0.8164 0.27348 0.02701 0.0
H1002 H 0.84437 0.24912 0.97134 0.0
C1003 C 0.90246 0.21042 0.03452 0.0
C1004 C 0.56939 0.1249 0.30268 0.0
C1005 C 0.57408 0.14646 0.33431 0.0
H1006 H 0.55967 0.12379 0.24461 0.0
C1007 C 0.58092 0.18376 0.32981 0.0
H1008 H 0.56446 0.0959 0.30516 0.0
C1009 C 0.57796 0.19993 0.29459 0.0
C1010 C 0.56804 0.17886 0.26372 0.0
H1011 H 0.58485 0.2009 0.35368 0.0
H1012 H 0.57926 0.22943 0.29248 0.0
C1013 C 0.56683 0.14083 0.26774 0.0
C1014 C 0.39899 0.25753 0.92728 0.0
C1015 C 0.36907 0.23374 0.92806 0.0
H1016 H 0.43658 0.28901 0.9592 0.0
C1017 C 0.35135 0.22766 0.96236 0.0
H1018 H 0.413 0.26337 0.90149 0.0
C1019 C 0.36416 0.24288 0.99493 0.0
C1020 C 0.39518 0.26487 0.99465 0.0
H1021 H 0.32778 0.21016 0.96453 0.0
H1022 H 0.35099 0.23565 0.02084 0.0
C1023 C 0.41197 0.27289 0.96029 0.0
C1024 C 0.48668 0.29006 0.37468 0.0
C1025 C 0.45219 0.3039 0.38548 0.0
H1026 H 0.51821 0.26494 0.33149 0.0
C1027 C 0.42106 0.29484 0.36495 0.0
H1028 H 0.51105 0.29723 0.38981 0.0
C1029 C 0.42519 0.27662 0.33121 0.0
C1030 C 0.46045 0.26753 0.31812 0.0
H1031 H 0.3943 0.30595 0.37246 0.0
H1032 H 0.40146 0.27307 0.31382 0.0
C1033 C 0.49082 0.27223 0.34105 0.0
C1034 C 0.55447 0.25211 0.89342 0.0
C1035 C 0.57386 0.2843 0.887 0.0
H1036 H 0.52108 0.22222 0.93142 0.0
C1037 C 0.57046 0.31337 0.91182 0.0
H1038 H 0.55688 0.22934 0.87456 0.0
C1039 C 0.55045 0.30933 0.94422 0.0
C1040 C 0.53358 0.27604 0.95243 0.0
H1041 H 0.58492 0.33863 0.90706 0.0
H1042 H 0.54958 0.33184 0.96348 0.0
C1043 C 0.53443 0.24795 0.9261 0.0
C1044 C 0.16855 0.56962 0.81738 0.0
C1045 C 0.16405 0.54542 0.8473 0.0
H1046 H 0.20654 0.59563 0.78078 0.0
C1047 C 0.19521 0.53336 0.86694 0.0
H1048 H 0.14499 0.58012 0.8023 0.0
C1049 C 0.23013 0.54354 0.85587 0.0
C1050 C 0.23511 0.56469 0.82374 0.0
H1051 H 0.19282 0.51547 0.89079 0.0
H1052 H 0.25336 0.53233 0.87097 0.0
C1053 C 0.20381 0.57905 0.80554 0.0
C1054 C 0.76146 0.55003 0.37321 0.0
C1055 C 0.75552 0.58164 0.39475 0.0
H1056 H 0.75777 0.4919 0.36999 0.0
C1057 C 0.73335 0.57916 0.42643 0.0
H1058 H 0.7773 0.55101 0.3478 0.0
C1059 C 0.7211 0.54483 0.43846 0.0
C1060 C 0.7309 0.51289 0.41886 0.0
H1061 H 0.72779 0.60304 0.44316 0.0
H1062 H 0.70736 0.54284 0.46502 0.0
C1063 C 0.74955 0.51608 0.38527 0.0
C1064 C 0.83968 0.9245 0.80354 0.0
C1065 C 0.83934 0.91586 0.8413 0.0
H1066 H 0.80694 0.93666 0.75594 0.0
C1067 C 0.80628 0.90421 0.85772 0.0
H1068 H 0.86472 0.93307 0.79002 0.0
C1069 C 0.77331 0.90693 0.83868 0.0
C1070 C 0.77284 0.92051 0.80251 0.0
H1071 H 0.80526 0.89627 0.88658 0.0
H1072 H 0.74789 0.90188 0.8534 0.0
C1073 C 0.80652 0.9264 0.78408 0.0
C1074 C 0.18428 0.93569 0.36839 0.0
C1075 C 0.20125 0.90146 0.37441 0.0
H1076 H 0.18058 0.99177 0.38451 0.0
C1077 C 0.22926 0.89797 0.40079 0.0
H1078 H 0.16275 0.9391 0.34808 0.0
C1079 C 0.24 0.92815 0.42096 0.0
C1080 C 0.22247 0.96218 0.41556 0.0
H1081 H 0.24317 0.87196 0.40562 0.0
H1082 H 0.2613 0.92459 0.44149 0.0
C1083 C 0.19455 0.96576 0.38911 0.0
C1084 C 0.13179 0.51878 0.6821 0.0
C1085 C 0.11858 0.48316 0.68223 0.0
H1086 H 0.17468 0.55341 0.69987 0.0
C1087 C 0.13263 0.45702 0.70714 0.0
H1088 H 0.12131 0.53902 0.66261 0.0
C1089 C 0.16302 0.46517 0.72849 0.0
C1090 C 0.17962 0.49919 0.72412 0.0
H1091 H 0.12281 0.42923 0.70699 0.0
H1092 H 0.17586 0.44369 0.74494 0.0
C1093 C 0.16246 0.52677 0.70292 0.0
C1094 C 0.73469 0.58784 0.59067 0.0
C1095 C 0.70707 0.58658 0.61786 0.0
H1096 H 0.76486 0.55856 0.54916 0.0
C1097 C 0.68862 0.55379 0.62433 0.0
H1098 H 0.74965 0.6127 0.5855 0.0
C1099 C 0.69707 0.52296 0.60328 0.0
C1100 C 0.72475 0.52423 0.57615 0.0
H1101 H 0.66733 0.55215 0.64526 0.0
H1102 H 0.68199 0.49813 0.60822 0.0
C1103 C 0.74373 0.55679 0.57025 0.0
C1104 C 0.87337 0.02865 0.71423 0.0
C1105 C 0.8757 0.06043 0.69248 0.0
H1106 H 0.83809 -0.00504 0.74705 0.0
C1107 C 0.84714 0.0868 0.69427 0.0
H1108 H 0.89467 0.00766 0.71276 0.0
C1109 C 0.81463 0.07923 0.71316 0.0
C1110 C 0.81064 0.04553 0.73106 0.0
H1111 H 0.84827 0.11139 0.67741 0.0
H1112 H 0.79157 0.09822 0.71095 0.0
C1113 C 0.84083 0.02121 0.7334 0.0
C1114 C 0.22602 0.90753 0.56454 0.0
C1115 C 0.24028 0.90419 0.60025 0.0
H1116 H 0.20986 0.94495 0.52138 0.0
C1117 C 0.241 0.93545 0.62288 0.0
H1118 H 0.22501 0.88397 0.54667 0.0
C1119 C 0.23284 0.97003 0.60852 0.0
C1120 C 0.22259 0.9739 0.57164 0.0
H1121 H 0.25097 0.93357 0.65099 0.0
H1122 H 0.23769 0.99388 0.62523 0.0
C1123 C 0.21708 0.94237 0.55031 0.0
C1124 C 0.81739 0.16179 0.5615 0.0
C1125 C 0.85575 0.1629 0.5605 0.0
H1126 H 0.76741 0.19302 0.55841 0.0
C1127 C 0.87305 0.19689 0.56382 0.0
H1128 H 0.80334 0.13602 0.56013 0.0
C1129 C 0.85275 0.2293 0.56293 0.0
C1130 C 0.81474 0.22837 0.55877 0.0
H1131 H 0.90265 0.19877 0.56475 0.0
H1132 H 0.86708 0.25499 0.56192 0.0
C1133 C 0.79692 0.19448 0.56098 0.0
C1134 C 0.82201 0.83393 0.95492 0.0
C1135 C 0.85135 0.837 0.97962 0.0
H1136 H 0.78486 0.79776 0.92819 0.0
C1137 C 0.8646 0.80535 0.99775 0.0
H1138 H 0.81155 0.85772 0.94019 0.0
C1139 C 0.85085 0.77122 0.98961 0.0
C1140 C 0.82246 0.76761 0.9639 0.0
H1141 H 0.88719 0.80671 0.01699 0.0
H1142 H 0.8623 0.74768 0.00411 0.0
C1143 C 0.8075 0.7995 0.94729 0.0
C1144 C 0.03708 0.85299 0.23803 0.0
C1145 C 0.07183 0.86956 0.23851 0.0
H1146 H 0.97883 0.86085 0.23517 0.0
C1147 C 0.0743 0.90641 0.22801 0.0
H1148 H 0.03401 0.82434 0.24491 0.0
C1149 C 0.04219 0.92699 0.22095 0.0
C1150 C 0.00744 0.91097 0.22462 0.0
H1151 H 0.10052 0.91985 0.22775 0.0
H1152 H 0.04435 0.95615 0.21617 0.0
C1153 C 0.00526 0.87359 0.23178 0.0
C1154 C 0.20234 0.63418 0.91823 0.0
C1155 C 0.19527 0.61253 0.94964 0.0
H1156 H 0.22264 0.68549 0.89826 0.0
C1157 C 0.21117 0.62134 0.98345 0.0
H1158 H 0.18952 0.62809 0.89209 0.0
C1159 C 0.22969 0.65406 0.98698 0.0
C1160 C 0.23246 0.67805 0.95671 0.0
H1161 H 0.20529 0.60537 0.00807 0.0
H1162 H 0.23862 0.6623 0.01415 0.0
C1163 C 0.22083 0.6671 0.92179 0.0
C1164 C 0.44984 0.114 0.80306 0.0
C1165 C 0.41629 0.10566 0.78624 0.0
H1166 H 0.50792 0.10424 0.80518 0.0
C1167 C 0.41714 0.08321 0.75482 0.0
H1168 H 0.4505 0.13153 0.82701 0.0
C1169 C 0.45059 0.06839 0.74157 0.0
C1170 C 0.4838 0.07553 0.75962 0.0
H1171 H 0.39198 0.07684 0.74067 0.0
H1172 H 0.45015 0.04942 0.71876 0.0
C1173 C 0.48298 0.09899 0.79011 0.0
C1174 C 0.69134 0.8332 0.09804 0.0
C1175 C 0.68938 0.86234 0.07252 0.0
H1176 H 0.71147 0.77876 0.10836 0.0
C1177 C 0.71378 0.86305 0.04243 0.0
H1178 H 0.6727 0.83225 0.12146 0.0
C1179 C 0.73584 0.83235 0.03496 0.0
C1180 C 0.73387 0.80132 0.05788 0.0
H1181 H 0.71245 0.8851 0.02227 0.0
H1182 H 0.75135 0.83139 0.00934 0.0
C1183 C 0.71342 0.80267 0.09063 0.0
C1184 C 0.09785 0.07954 0.26203 0.0
C1185 C 0.0892 0.11655 0.25486 0.0
H1186 H 0.07658 0.02555 0.26972 0.0
C1187 C 0.05232 0.12839 0.25529 0.0
H1188 H 0.12606 0.06973 0.26209 0.0
C1189 C 0.02456 0.10332 0.25924 0.0
C1190 C 0.03316 0.06618 0.26355 0.0
H1191 H 0.0447 0.15679 0.25057 0.0
H1192 H -0.00374 0.11273 0.25725 0.0
C1193 C 0.06977 0.05434 0.26647 0.0
C1194 C 0.89973 0.4054 0.22405 0.0
C1195 C 0.89952 0.38698 0.19017 0.0
H1196 H 0.93124 0.43521 0.26276 0.0
C1197 C 0.93157 0.38501 0.16862 0.0
H1198 H 0.8755 0.40665 0.24151 0.0
C1199 C 0.96339 0.40159 0.18071 0.0
C1200 C 0.9637 0.41935 0.21495 0.0
H1201 H 0.932 0.37057 0.1426 0.0
H1202 H 0.98783 0.40019 0.16356 0.0
C1203 C 0.93172 0.42112 0.23654 0.0
C1204 C 0.15932 0.14564 0.85732 0.0
C1205 C 0.17555 0.17235 0.8344 0.0
H1206 H 0.11264 0.1311 0.89117 0.0
C1207 C 0.15524 0.20446 0.82674 0.0
H1208 H 0.1746 0.12101 0.86467 0.0
C1209 C 0.12046 0.21043 0.84222 0.0
C1210 C 0.10436 0.18456 0.86605 0.0
H1211 H 0.16704 0.22594 0.8099 0.0
H1212 H 0.10673 0.23628 0.83649 0.0
C1213 C 0.1241 0.15174 0.8731 0.0
C1214 C 0.43251 0.57636 0.40847 0.0
C1215 C 0.4451 0.54566 0.38867 0.0
H1216 H 0.4323 0.63475 0.41316 0.0
C1217 C 0.46741 0.55126 0.35726 0.0
H1218 H 0.41524 0.57313 0.43269 0.0
C1219 C 0.47694 0.58639 0.34596 0.0
C1220 C 0.4647 0.61707 0.36584 0.0
H1221 H 0.47751 0.52842 0.34104 0.0
H1222 H 0.49422 0.5894 0.32171 0.0
C1223 C 0.44233 0.61168 0.39725 0.0
C1224 C 0.812 0.26865 0.84628 0.0
C1225 C 0.79848 0.29735 0.82344 0.0
H1226 H 0.85874 0.24326 0.87248 0.0
C1227 C 0.82266 0.32499 0.81286 0.0
H1228 H 0.79413 0.2471 0.85568 0.0
C1229 C 0.85961 0.32302 0.82317 0.0
C1230 C 0.87352 0.29335 0.84435 0.0
H1231 H 0.81323 0.34791 0.79609 0.0
H1232 H 0.87776 0.34405 0.81309 0.0
C1233 C 0.84899 0.26673 0.85667 0.0
C1234 C 0.53404 0.91868 0.37314 0.0
C1235 C 0.54706 0.93165 0.40726 0.0
H1236 H 0.50989 0.87402 0.34404 0.0
C1237 C 0.54745 0.90811 0.43789 0.0
H1238 H 0.53385 0.93609 0.34879 0.0
C1239 C 0.53375 0.87305 0.43504 0.0
C1240 C 0.51952 0.86044 0.40145 0.0
H1241 H 0.55754 0.91699 0.46438 0.0
H1242 H 0.53384 0.85582 0.45955 0.0
C1243 C 0.5206 0.88315 0.37018 0.0
C1244 C 0.1495 0.78293 0.68272 0.0
C1245 C 0.16861 0.81439 0.67314 0.0
H1246 H 0.10268 0.75087 0.67385 0.0
C1247 C 0.1521 0.84068 0.6496 0.0
H1248 H 0.1619 0.76208 0.70033 0.0
C1249 C 0.1177 0.83424 0.63403 0.0
C1250 C 0.09958 0.80159 0.64215 0.0
H1251 H 0.16681 0.86487 0.64119 0.0
H1252 H 0.10587 0.85415 0.61504 0.0
C1253 C 0.11556 0.77654 0.66731 0.0
C1254 C -0.00419 0.56156 0.58831 0.0
C1255 C 0.03314 0.55218 0.58454 0.0
H1256 H 0.95625 0.60371 0.60029 0.0
C1257 C 0.05959 0.57781 0.59479 0.0
H1258 H 0.97472 0.54233 0.58143 0.0
C1259 C 0.04887 0.61269 0.60667 0.0
C1260 C 0.0116 0.62244 0.60833 0.0
H1261 H 0.08863 0.57116 0.59316 0.0
H1262 H 0.06965 0.63277 0.61189 0.0
C1263 C 0.98519 0.59635 0.60001 0.0
C1264 C 0.81903 0.71541 0.6407 0.0
C1265 C 0.80455 0.68868 0.66453 0.0
H1266 H 0.86723 0.73861 0.61733 0.0
C1267 C 0.82772 0.66084 0.67841 0.0
H1268 H 0.80167 0.73663 0.62864 0.0
C1269 C 0.86516 0.66159 0.67127 0.0
C1270 C 0.88002 0.69034 0.65041 0.0
H1271 H 0.81723 0.63917 0.69585 0.0
H1272 H 0.88276 0.64109 0.68422 0.0
C1273 C 0.85651 0.71613 0.63354 0.0
C1274 C 0.98346 0.93435 0.63956 0.0
C1275 C 0.95582 0.94286 0.61377 0.0
H1276 H 0.01132 0.89335 0.67132 0.0
C1277 C 0.93445 0.91444 0.60006 0.0
H1278 H 0.0002 0.95552 0.65115 0.0
C1279 C 0.94126 0.87813 0.61154 0.0
C1280 C 0.96883 0.86998 0.63762 0.0
H1281 H 0.9129 0.9202 0.58028 0.0
H1282 H 0.92483 0.85655 0.6003 0.0
C1283 C 0.98966 0.89858 0.6515 0.0
C1284 C 0.81104 0.16514 0.22431 0.0
C1285 C 0.8137 0.18052 0.18876 0.0
H1286 H 0.82828 0.12237 0.26133 0.0
C1287 C 0.8361 0.16284 0.16232 0.0
H1288 H 0.79487 0.17874 0.24552 0.0
C1289 C 0.85635 0.13104 0.17174 0.0
C1290 C 0.8541 0.11611 0.20762 0.0
H1291 H 0.83964 0.1748 0.13506 0.0
H1292 H 0.87381 0.11823 0.15107 0.0
C1293 C 0.8306 0.13315 0.23347 0.0
C1294 C 0.44156 0.87328 0.01087 0.0
C1295 C 0.44976 0.88328 0.0473 0.0
H1296 H 0.39888 0.86337 0.97161 0.0
C1297 C 0.42134 0.88404 0.07377 0.0
H1298 H 0.4629 0.87229 0.98994 0.0
C1299 C 0.38516 0.87773 0.06353 0.0
C1300 C 0.37656 0.87076 0.02661 0.0
H1301 H 0.42683 0.89102 0.10221 0.0
H1302 H 0.36351 0.88132 0.0839 0.0
C1303 C 0.40508 0.86756 0.00049 0.0
C1304 C 0.18863 0.34452 0.19766 0.0
C1305 C 0.16941 0.32278 0.17313 0.0
H1306 H 0.19392 0.39695 0.22153 0.0
C1307 C 0.14328 0.33904 0.14949 0.0
H1308 H 0.20892 0.33242 0.21605 0.0
C1309 C 0.13381 0.37609 0.15315 0.0
C1310 C 0.15088 0.39726 0.18009 0.0
H1311 H 0.12798 0.3225 0.13048 0.0
H1312 H 0.11156 0.38742 0.13671 0.0
C1313 C 0.1799 0.38154 0.20069 0.0
C1314 C 0.59249 0.57747 0.05721 0.0
C1315 C 0.562 0.59382 0.0396 0.0
H1316 H 0.65073 0.57875 0.06598 0.0
C1317 C 0.56787 0.62427 0.01621 0.0
H1318 H 0.58907 0.55423 0.07555 0.0
C1319 C 0.60266 0.63889 0.01173 0.0
C1320 C 0.63295 0.6231 0.02979 0.0
H1321 H 0.5453 0.63787 0.00206 0.0
H1322 H 0.6058 0.66253 0.99384 0.0
C1323 C 0.62771 0.59175 0.05199 0.0
C1324 C 0.80819 0.83507 0.34194 0.0
C1325 C 0.81869 0.80971 0.31485 0.0
H1326 H 0.8075 0.89105 0.35871 0.0
C1327 C 0.84019 0.82204 0.28469 0.0
H1328 H 0.79241 0.82661 0.36587 0.0
C1329 C 0.84962 0.85885 0.28098 0.0
C1330 C 0.83755 0.88444 0.30712 0.0
H1331 H 0.84949 0.8033 0.26347 0.0
H1332 H 0.86453 0.86756 0.25656 0.0
C1333 C 0.81741 0.87194 0.33807 0.0
C1334 C 0.06541 0.87137 0.97141 0.0
C1335 C 0.06223 0.90136 0.94697 0.0
H1336 H 0.10064 0.83137 0.99698 0.0
C1337 C 0.0937 0.91367 0.92857 0.0
H1338 H 0.04143 0.86094 0.98553 0.0
C1339 C 0.12803 0.89701 0.93574 0.0
C1340 C 0.13108 0.86701 0.96037 0.0
H1341 H 0.09187 0.93649 0.90938 0.0
H1342 H 0.15217 0.90752 0.922 0.0
C1343 C 0.09927 0.85416 0.9777 0.0
C1344 C 0.12173 0.65436 0.29845 0.0
C1345 C 0.14821 0.66941 0.32157 0.0
H1346 H 0.09466 0.60631 0.28156 0.0
C1347 C 0.16205 0.64857 0.35119 0.0
H1348 H 0.10907 0.67049 0.27659 0.0
C1349 C 0.15348 0.61165 0.35436 0.0
C1350 C 0.13107 0.59529 0.32783 0.0
H1351 H 0.18135 0.66008 0.37033 0.0
H1352 H 0.16753 0.59514 0.37506 0.0
C1353 C 0.11268 0.61774 0.302 0.0
C1354 C 0.92493 0.5723 0.92796 0.0
C1355 C 0.95231 0.59065 0.94702 0.0
H1356 H 0.86791 0.56121 0.92366 0.0
C1357 C 0.94184 0.61566 0.97487 0.0
H1358 H 0.93179 0.5535 0.9059 0.0
C1359 C 0.90479 0.62031 0.98493 0.0
C1360 C 0.87795 0.60017 0.96704 0.0
H1361 H 0.96232 0.63055 0.98984 0.0
H1362 H 0.89745 0.63779 0.00793 0.0
C1363 C 0.88826 0.57709 0.9378 0.0
C1364 C 0.21506 0.79496 0.15003 0.0
C1365 C 0.18112 0.79935 0.16792 0.0
H1366 H 0.24814 0.8086 0.1032 0.0
C1367 C 0.15282 0.81925 0.15014 0.0
H1368 H 0.23746 0.78036 0.16351 0.0
C1369 C 0.15924 0.83657 0.1161 0.0
C1370 C 0.19377 0.83343 0.09897 0.0
H1371 H 0.12664 0.82377 0.16386 0.0
H1372 H 0.13762 0.85319 0.10374 0.0
C1373 C 0.22115 0.81138 0.11565 0.0
C1374 C 0.16619 0.17319 0.34144 0.0
C1375 C 0.19591 0.18945 0.32295 0.0
H1376 H 0.14844 0.14163 0.38828 0.0
C1377 C 0.23031 0.18951 0.33999 0.0
H1378 H 0.13951 0.17208 0.32851 0.0
C1379 C 0.23518 0.17266 0.37444 0.0
C1380 C 0.20605 0.1543 0.39176 0.0
H1381 H 0.25369 0.20135 0.32602 0.0
H1382 H 0.26227 0.17233 0.38661 0.0
C1383 C 0.17135 0.15529 0.37533 0.0
C1384 C 0.38575 0.4983 0.9437 0.0
C1385 C 0.3959 0.53442 0.95045 0.0
H1386 H 0.37335 0.4588 0.90227 0.0
C1387 C 0.39483 0.56027 0.92164 0.0
H1388 H 0.38597 0.47813 0.9658 0.0
C1389 C 0.38567 0.5497 0.88601 0.0
C1390 C 0.37845 0.513 0.87864 0.0
H1391 H 0.40182 0.58847 0.92656 0.0
H1392 H 0.3873 0.56956 0.86368 0.0
C1393 C 0.37783 0.48744 0.90774 0.0
C1394 C 0.84134 0.33026 0.31861 0.0
C1395 C 0.8118 0.3417 0.29648 0.0
H1396 H 0.86314 0.32675 0.37329 0.0
C1397 C 0.78444 0.36469 0.31218 0.0
H1398 H 0.86341 0.31352 0.30727 0.0
C1399 C 0.78457 0.37287 0.3498 0.0
C1400 C 0.8119 0.35799 0.37273 0.0
H1401 H 0.76177 0.37517 0.29577 0.0
H1402 H 0.76139 0.38789 0.36136 0.0
C1403 C 0.84145 0.33844 0.35634 0.0
C1404 C 0.12966 0.45531 0.43627 0.0
C1405 C 0.10805 0.42632 0.44963 0.0
H1406 H 0.14964 0.4846 0.38882 0.0
C1407 C 0.0958 0.40044 0.42434 0.0
H1408 H 0.14043 0.47532 0.45503 0.0
C1409 C 0.10171 0.40562 0.38637 0.0
C1410 C 0.12045 0.43641 0.37293 0.0
H1411 H 0.07964 0.37753 0.43362 0.0
H1412 H 0.08883 0.38725 0.36725 0.0
C1413 C 0.13592 0.46021 0.39834 0.0
C1414 C 0.28523 0.13241 0.6792 0.0
C1415 C 0.31511 0.15128 0.69424 0.0
H1416 H 0.26072 0.10972 0.6311 0.0
C1417 C 0.34621 0.15646 0.67193 0.0
H1418 H 0.261 0.12698 0.69564 0.0
C1419 C 0.34623 0.14564 0.63485 0.0
C1420 C 0.31512 0.12946 0.61913 0.0
H1421 H 0.37009 0.16983 0.68274 0.0
H1422 H 0.36966 0.15234 0.61769 0.0
C1423 C 0.28532 0.1215 0.64224 0.0
C1424 C 0.41165 0.4536 0.58646 0.0
C1425 C 0.39321 0.4663 0.55477 0.0
H1426 H 0.41297 0.45172 0.64552 0.0
C1427 C 0.36204 0.48926 0.5593 0.0
H1428 H 0.43556 0.43574 0.58411 0.0
C1429 C 0.34886 0.49818 0.59449 0.0
C1430 C 0.36657 0.48454 0.62617 0.0
H1431 H 0.3471 0.49972 0.53557 0.0
H1432 H 0.32454 0.51546 0.59679 0.0
C1433 C 0.39848 0.46261 0.62172 0.0
C1434 C 0.61756 0.01156 0.56997 0.0
C1435 C 0.5997 0.04419 0.55864 0.0
H1436 H 0.64427 0.98169 0.61338 0.0
C1437 C 0.59168 0.07081 0.58567 0.0
H1438 H 0.62384 0.99005 0.55042 0.0
C1439 C 0.60322 0.06555 0.62256 0.0
C1440 C 0.6234 0.03391 0.63268 0.0
H1441 H 0.57802 0.09626 0.57802 0.0
H1442 H 0.59796 0.08684 0.64261 0.0
C1443 C 0.62946 0.00669 0.6062 0.0
C1444 C 0.65397 0.70547 0.32334 0.0
C1445 C 0.67495 0.67425 0.33274 0.0
H1446 H 0.60385 0.73569 0.33007 0.0
C1447 C 0.65878 0.64761 0.35573 0.0
H1448 H 0.66571 0.7268 0.30627 0.0
C1449 C 0.623 0.653 0.37016 0.0
C1450 C 0.60248 0.68492 0.36146 0.0
H1451 H 0.67453 0.62364 0.36427 0.0
H1452 H 0.61172 0.63259 0.38861 0.0
C1453 C 0.61837 0.71059 0.33721 0.0
C1454 C 0.93218 0.07485 0.90543 0.0
C1455 C 0.94674 0.04416 0.88695 0.0
H1456 H 0.93129 0.13332 0.91009 0.0
C1457 C 0.97129 0.04994 0.85729 0.0
H1458 H 0.91325 0.07148 0.92833 0.0
C1459 C 0.98143 0.08516 0.84672 0.0
C1460 C 0.96761 0.11584 0.8656 0.0
H1461 H 0.98291 0.02712 0.84205 0.0
H1462 H 0.00058 0.08823 0.82395 0.0
C1463 C 0.94265 0.11029 0.89499 0.0
C1464 C 0.31929 0.82559 0.32022 0.0
C1465 C 0.2963 0.79637 0.32897 0.0
H1466 H 0.37349 0.84684 0.32194 0.0
C1467 C 0.31072 0.76722 0.3506 0.0
H1468 H 0.30906 0.84893 0.30454 0.0
C1469 C 0.34765 0.7663 0.36122 0.0
C1470 C 0.37113 0.79444 0.35037 0.0
H1471 H 0.2937 0.7445 0.35862 0.0
H1472 H 0.35829 0.74239 0.37573 0.0
C1473 C 0.35614 0.82467 0.33084 0.0
C1474 C 0.03239 0.41921 0.87534 0.0
C1475 C 0.04394 0.43266 0.90981 0.0
H1476 H 0.01019 0.37388 0.84565 0.0
C1477 C 0.04342 0.40935 0.94064 0.0
H1478 H 0.03291 0.43644 0.85086 0.0
C1479 C 0.03041 0.37402 0.93754 0.0
C1480 C 0.01782 0.36083 0.9035 0.0
H1481 H 0.05235 0.41859 0.96743 0.0
H1482 H 0.02983 0.35699 0.96218 0.0
C1483 C 0.01968 0.38339 0.87213 0.0
C1484 C 0.6492 0.34221 0.15005 0.0
C1485 C 0.66575 0.31589 0.17351 0.0
H1486 H 0.60227 0.35653 0.11695 0.0
C1487 C 0.64562 0.28572 0.1852 0.0
H1488 H 0.66452 0.36547 0.14015 0.0
C1489 C 0.6104 0.28064 0.17196 0.0
C1490 C 0.59458 0.30542 0.14641 0.0
H1491 H 0.65793 0.26494 0.20294 0.0
H1492 H 0.59647 0.256 0.18023 0.0
C1493 C 0.61388 0.33685 0.13632 0.0
C1494 C 0.4973 0.06402 0.08717 0.0
C1495 C 0.53472 0.0551 0.08298 0.0
H1496 H 0.45735 0.10571 0.0995 0.0
C1497 C 0.56094 0.08109 0.09282 0.0
H1498 H 0.47638 0.0445 0.08057 0.0
C1499 C 0.54988 0.11585 0.10475 0.0
C1500 C 0.51252 0.12509 0.10696 0.0
H1501 H 0.59003 0.07483 0.09085 0.0
H1502 H 0.57045 0.13625 0.10961 0.0
C1503 C 0.48636 0.09868 0.09896 0.0
C1504 C 0.31589 0.21657 0.13307 0.0
C1505 C 0.30148 0.18817 0.15482 0.0
H1506 H 0.36417 0.24087 0.11099 0.0
C1507 C 0.3242 0.1583 0.1646 0.0
H1508 H 0.29878 0.23941 0.12405 0.0
C1509 C 0.36144 0.15874 0.15633 0.0
C1510 C 0.37656 0.18926 0.13859 0.0
H1511 H 0.31363 0.13526 0.18006 0.0
H1512 H 0.37889 0.13672 0.16675 0.0
C1513 C 0.35323 0.21702 0.12483 0.0
C1514 C 0.43572 0.41417 0.09033 0.0
C1515 C 0.45208 0.44338 0.10869 0.0
H1516 H 0.42828 0.3561 0.08841 0.0
C1517 C 0.47375 0.43575 0.13994 0.0
H1518 H 0.41875 0.41912 0.06628 0.0
C1519 C 0.47852 0.40012 0.15292 0.0
C1520 C 0.46221 0.37087 0.1348 0.0
H1521 H 0.48661 0.45742 0.15509 0.0
H1522 H 0.49539 0.39557 0.17712 0.0
C1523 C 0.44102 0.37815 0.1031 0.0
C1524 C 0.31002 0.66317 0.7209 0.0
C1525 C 0.31331 0.67947 0.68584 0.0
H1526 H 0.32538 0.61858 0.75649 0.0
C1527 C 0.33444 0.66147 0.65861 0.0
H1528 H 0.29472 0.67691 0.74265 0.0
C1529 C 0.35309 0.62845 0.66688 0.0
C1530 C 0.35039 0.61264 0.70234 0.0
H1531 H 0.33835 0.67403 0.63169 0.0
H1532 H 0.36982 0.61552 0.64572 0.0
C1533 C 0.32795 0.62999 0.7289 0.0
C1534 C 0.91869 0.38079 0.57131 0.0
C1535 C 0.94758 0.38098 0.54539 0.0
H1536 H 0.86063 0.37828 0.58018 0.0
C1537 C 0.93994 0.37314 0.50828 0.0
H1538 H 0.92378 0.38621 0.6002 0.0
C1539 C 0.90357 0.36863 0.49687 0.0
C1540 C 0.8746 0.37077 0.5226 0.0
H1541 H 0.96168 0.37303 0.48774 0.0
H1542 H 0.89785 0.3661 0.46767 0.0
C1543 C 0.88261 0.37555 0.56004 0.0
C1544 C 0.64596 0.83882 0.65086 0.0
C1545 C 0.67177 0.82298 0.67515 0.0
H1546 H 0.61391 0.88678 0.63719 0.0
C1547 C 0.68996 0.84497 0.7002 0.0
H1548 H 0.63141 0.82202 0.63149 0.0
C1549 C 0.68057 0.88183 0.70299 0.0
C1550 C 0.65198 0.89719 0.68154 0.0
H1551 H 0.70992 0.83318 0.71914 0.0
H1552 H 0.69377 0.8974 0.72422 0.0
C1553 C 0.63586 0.87575 0.65423 0.0
C1554 C 0.10017 0.07552 0.5605 0.0
C1555 C 0.06924 0.0849 0.53932 0.0
H1556 H 0.15705 0.08486 0.57075 0.0
C1557 C 0.07241 0.11214 0.51177 0.0
H1558 H 0.09842 0.05507 0.58223 0.0
C1559 C 0.10552 0.13023 0.50618 0.0
C1560 C 0.13635 0.12087 0.52746 0.0
H1561 H 0.04886 0.12059 0.49548 0.0
H1562 H 0.10712 0.15113 0.48489 0.0
C1563 C 0.13352 0.09291 0.55423 0.0
C1564 C 0.30893 0.33271 0.84159 0.0
C1565 C 0.31777 0.30752 0.81379 0.0
H1566 H 0.3096 0.38857 0.85867 0.0
C1567 C 0.33792 0.31985 0.7827 0.0
H1568 H 0.29425 0.32419 0.86621 0.0
C1569 C 0.34756 0.35654 0.77877 0.0
C1570 C 0.337 0.38201 0.80562 0.0
H1571 H 0.34595 0.30122 0.76089 0.0
H1572 H 0.36128 0.36528 0.75366 0.0
C1573 C 0.31833 0.3695 0.83748 0.0
C1574 C 0.5634 0.37139 0.48179 0.0
C1575 C 0.55535 0.39851 0.45497 0.0
H1576 H 0.60344 0.3356 0.50614 0.0
C1577 C 0.58443 0.41217 0.43343 0.0
H1578 H 0.5421 0.36009 0.49922 0.0
C1579 C 0.62036 0.39813 0.43804 0.0
C1580 C 0.62748 0.36956 0.46347 0.0
H1581 H 0.57932 0.43294 0.4125 0.0
H1582 H 0.64229 0.40873 0.42095 0.0
C1583 C 0.59871 0.35689 0.48562 0.0
C1584 C 0.62198 0.15839 0.79603 0.0
C1585 C 0.64814 0.17365 0.81943 0.0
H1586 H 0.59582 0.11005 0.77843 0.0
C1587 C 0.6622 0.1527 0.84887 0.0
H1588 H 0.6092 0.17452 0.77424 0.0
C1589 C 0.65416 0.11562 0.8516 0.0
C1590 C 0.63209 0.09918 0.8248 0.0
H1591 H 0.68129 0.16428 0.86816 0.0
H1592 H 0.66832 0.09913 0.87223 0.0
C1593 C 0.61353 0.12157 0.79908 0.0
C1594 C 0.42759 0.06679 0.42792 0.0
C1595 C 0.45443 0.0873 0.44542 0.0
H1596 H 0.37095 0.05404 0.42442 0.0
C1597 C 0.4433 0.11412 0.47123 0.0
H1598 H 0.43491 0.04647 0.40743 0.0
C1599 C 0.40614 0.11868 0.48083 0.0
C1600 C 0.37991 0.09653 0.46459 0.0
H1601 H 0.46333 0.13073 0.48488 0.0
H1602 H 0.39827 0.13785 0.50223 0.0
C1603 C 0.39085 0.07143 0.43735 0.0
C1604 C 0.65154 0.32079 0.64749 0.0
C1605 C 0.67975 0.30069 0.66515 0.0
H1606 H 0.63636 0.3545 0.60098 0.0
C1607 C 0.7133 0.29523 0.64673 0.0
H1608 H 0.62566 0.32605 0.66152 0.0
C1609 C 0.71921 0.31106 0.61202 0.0
C1610 C 0.69206 0.33357 0.5956 0.0
H1611 H 0.73561 0.28038 0.66007 0.0
H1612 H 0.74595 0.30761 0.59918 0.0
C1613 C 0.65781 0.33752 0.61316 0.0
C1614 C 0.72702 0.69263 0.84363 0.0
C1615 C 0.6928 0.69135 0.82626 0.0
H1616 H 0.75894 0.67718 0.89091 0.0
C1617 C 0.66316 0.67547 0.84512 0.0
H1618 H 0.75036 0.70424 0.8294 0.0
C1619 C 0.66835 0.65866 0.87958 0.0
C1620 C 0.70301 0.65845 0.89619 0.0
H1621 H 0.63665 0.67347 0.83196 0.0
H1622 H 0.6456 0.64487 0.89268 0.0
C1623 C 0.73191 0.67692 0.87864 0.0
C1624 C 0.88866 0.05996 0.42684 0.0
C1625 C 0.89653 0.034 0.45463 0.0
H1626 H 0.87528 0.06896 0.36992 0.0
C1627 C 0.89134 -0.00321 0.44763 0.0
H1628 H 0.89154 0.0889 0.43195 0.0
C1629 C 0.8821 0.98548 0.41223 0.0
C1630 C 0.87686 0.01131 0.38378 0.0
H1631 H 0.89669 0.97634 0.46884 0.0
H1632 H 0.88178 0.95649 0.40635 0.0
C1633 C 0.87841 0.04867 0.39172 0.0
C1634 C 0.28668 0.86047 0.81562 0.0
C1635 C 0.31342 0.83684 0.79982 0.0
H1636 H 0.26435 0.8842 0.86486 0.0
C1637 C 0.34249 0.82425 0.82197 0.0
H1638 H 0.26442 0.87181 0.7992 0.0
C1639 C 0.34275 0.83213 0.85978 0.0
C1640 C 0.31389 0.85266 0.8762 0.0
H1641 H 0.36406 0.80692 0.81057 0.0
H1642 H 0.36407 0.81971 0.8767 0.0
C1643 C 0.28702 0.86843 0.85328 0.0
C1644 C 0.5958 0.90461 0.92341 0.0
C1645 C 0.60967 0.92967 0.94864 0.0
H1646 H 0.58692 0.89246 0.86639 0.0
C1647 C 0.63199 0.95805 0.93516 0.0
H1648 H 0.57903 0.8822 0.93281 0.0
C1649 C 0.63744 0.96326 0.89717 0.0
C1650 C 0.6204 0.94039 0.87195 0.0
H1651 H 0.64395 0.97737 0.95391 0.0
H1652 H 0.65187 0.98721 0.88757 0.0
C1653 C 0.6009 0.91011 0.88541 0.0
C1654 C 0.78546 0.63254 0.18223 0.0
C1655 C 0.81574 0.65121 0.19677 0.0
H1656 H 0.76019 0.60953 0.13475 0.0
C1657 C 0.84686 0.65534 0.17427 0.0
H1658 H 0.76117 0.62783 0.19884 0.0
C1659 C 0.84644 0.64383 0.13738 0.0
C1660 C 0.81485 0.62809 0.12209 0.0
H1661 H 0.87103 0.66845 0.18471 0.0
H1662 H 0.86986 0.64987 0.11995 0.0
C1663 C 0.78511 0.62097 0.14553 0.0
C1664 C 0.92018 0.95241 0.09444 0.0
C1665 C 0.90865 0.97043 0.06202 0.0
H1666 H 0.91359 0.94674 0.15298 0.0
C1667 C 0.88209 -0.00114 0.06494 0.0
H1668 H 0.94032 0.93032 0.09333 0.0
C1669 C 0.86615 0.00774 0.09899 0.0
C1670 C 0.87677 0.98886 0.13113 0.0
H1671 H 0.87239 0.01347 0.04064 0.0
H1672 H 0.84535 0.02923 0.10007 0.0
C1673 C 0.90456 0.96167 0.12862 0.0
C1674 C 0.1064 0.51251 0.07434 0.0
C1675 C 0.09362 0.54699 0.06189 0.0
H1676 H 0.12992 0.48089 0.1184 0.0
C1677 C 0.09051 0.5755 0.0878 0.0
H1678 H 0.1089 0.4897 0.05553 0.0
C1679 C 0.10228 0.57007 0.12458 0.0
C1680 C 0.11753 0.53618 0.13574 0.0
H1681 H 0.08101 0.60245 0.07919 0.0
H1682 H 0.10132 0.59276 0.1436 0.0
C1683 C 0.11847 0.50733 0.11051 0.0
loop_
_geom_bond_atom_site_label_1
_geom_bond_atom_site_label_2
_geom_bond_distance
_geom_bond_site_symmetry_2
_ccdc_geom_bond_type
Sc0 O3 2.025 . S
Sc0 O10 2.105 . S
Sc0 O13 2.105 . S
Sc0 O16 2.105 . S
Sc0 O19 2.105 . S
Sc1 O3 2.025 . S
Sc1 O11 2.105 . S
Sc1 O15 2.105 . S
Sc1 O17 2.105 . S
Sc1 O21 2.105 . S
Sc2 O3 2.025 . S
Sc2 O12 2.105 . S
Sc2 O14 2.105 . S
Sc2 O18 2.105 . S
Sc2 O20 2.105 . S
O3 Sc0 2.025 . S
O3 Sc1 2.025 . S
O3 Sc2 2.025 . S
C4 O10 1.268 . S
C4 O20 1.268 . S
C5 O11 1.268 . S
C5 O19 1.268 . S
C6 O12 1.268 . S
C6 O21 1.268 . S
C7 O13 1.268 . S
C7 O17 1.268 . S
C8 O14 1.268 . S
C8 O16 1.268 . S
C9 O15 1.268 . S
C9 O18 1.268 . S
O10 Sc0 2.105 . S
O10 C4 1.268 . S
O11 Sc1 2.105 . S
O11 C5 1.268 . S
O12 Sc2 2.105 . S
O12 C6 1.268 . S
O13 Sc0 2.105 . S
O13 C7 1.268 . S
O14 Sc2 2.105 . S
O14 C8 1.268 . S
O15 Sc1 2.105 . S
O15 C9 1.268 . S
O16 Sc0 2.105 . S
O16 C8 1.268 . S
O17 Sc1 2.105 . S
O17 C7 1.268 . S
O18 Sc2 2.105 . S
O18 C9 1.268 . S
O19 Sc0 2.105 . S
O19 C5 1.268 . S
O20 Sc2 2.105 . S
O20 C4 1.268 . S
O21 Sc1 2.105 . S
O21 C6 1.268 . S
Sc22 O25 2.025 . S
Sc22 O32 2.105 . S
Sc22 O35 2.105 . S
Sc22 O38 2.105 . S
Sc22 O41 2.105 . S
Sc23 O25 2.025 . S
Sc23 O33 2.105 . S
Sc23 O37 2.105 . S
Sc23 O39 2.105 . S
Sc23 O43 2.105 . S
Sc24 O25 2.025 . S
Sc24 O34 2.105 . S
Sc24 O36 2.105 . S
Sc24 O40 2.105 . S
Sc24 O42 2.105 . S
O25 Sc22 2.025 . S
O25 Sc23 2.025 . S
O25 Sc24 2.025 . S
C26 O32 1.268 . S
C26 O42 1.268 . S
C27 O33 1.268 1_556 S
C27 O41 1.268 1_556 S
C28 O34 1.268 . S
C28 O43 1.268 . S
C29 O35 1.268 . S
C29 O39 1.268 . S
C30 O36 1.268 . S
C30 O38 1.268 . S
C31 O37 1.268 . S
C31 O40 1.268 . S
O32 Sc22 2.105 . S
O32 C26 1.268 . S
O33 Sc23 2.105 . S
O33 C27 1.268 1_554 S
O34 Sc24 2.105 . S
O34 C28 1.268 . S
O35 Sc22 2.105 . S
O35 C29 1.268 . S
O36 Sc24 2.105 . S
O36 C30 1.268 . S
O37 Sc23 2.105 . S
O37 C31 1.268 . S
O38 Sc22 2.105 . S
O38 C30 1.268 . S
O39 Sc23 2.105 . S
O39 C29 1.268 . S
O40 Sc24 2.105 . S
O40 C31 1.268 . S
O41 Sc22 2.105 . S
O41 C27 1.268 1_554 S
O42 Sc24 2.105 . S
O42 C26 1.268 . S
O43 Sc23 2.105 . S
O43 C28 1.268 . S
Sc44 O47 2.025 . S
Sc44 O54 2.105 . S
Sc44 O57 2.105 . S
Sc44 O60 2.105 . S
Sc44 O63 2.105 . S
Sc45 O47 2.025 . S
Sc45 O55 2.105 . S
Sc45 O59 2.105 . S
Sc45 O61 2.105 . S
Sc45 O65 2.105 . S
Sc46 O47 2.025 . S
Sc46 O56 2.105 . S
Sc46 O58 2.105 . S
Sc46 O62 2.105 . S
Sc46 O64 2.105 . S
O47 Sc44 2.025 . S
O47 Sc45 2.025 . S
O47 Sc46 2.025 . S
C48 O54 1.268 . S
C48 O64 1.268 . S
C49 O55 1.268 . S
C49 O63 1.268 . S
C50 O56 1.268 . S
C50 O65 1.268 . S
C51 O57 1.268 . S
C51 O61 1.268 . S
C52 O58 1.268 . S
C52 O60 1.268 . S
C53 O59 1.268 . S
C53 O62 1.268 . S
O54 Sc44 2.105 . S
O54 C48 1.268 . S
O55 Sc45 2.105 . S
O55 C49 1.268 . S
O56 Sc46 2.105 . S
O56 C50 1.268 . S
O57 Sc44 2.105 . S
O57 C51 1.268 . S
O58 Sc46 2.105 . S
O58 C52 1.268 . S
O59 Sc45 2.105 . S
O59 C53 1.268 . S
O60 Sc44 2.105 . S
O60 C52 1.268 . S
O61 Sc45 2.105 . S
O61 C51 1.268 . S
O62 Sc46 2.105 . S
O62 C53 1.268 . S
O63 Sc44 2.105 . S
O63 C49 1.268 . S
O64 Sc46 2.105 . S
O64 C48 1.268 . S
O65 Sc45 2.105 . S
O65 C50 1.268 . S
Sc66 O69 2.025 . S
Sc66 O76 2.105 . S
Sc66 O79 2.105 . S
Sc66 O82 2.105 . S
Sc66 O85 2.105 . S
Sc67 O69 2.025 . S
Sc67 O77 2.105 . S
Sc67 O81 2.105 . S
Sc67 O83 2.105 . S
Sc67 O87 2.105 . S
Sc68 O69 2.025 . S
Sc68 O78 2.105 . S
Sc68 O80 2.105 . S
Sc68 O84 2.105 . S
Sc68 O86 2.105 . S
O69 Sc66 2.025 . S
O69 Sc67 2.025 . S
O69 Sc68 2.025 . S
C70 O76 1.268 . S
C70 O86 1.268 . S
C71 O77 1.268 . S
C71 O85 1.268 . S
C72 O78 1.268 . S
C72 O87 1.268 . S
C73 O79 1.268 1_556 S
C73 O83 1.268 1_556 S
C74 O80 1.268 1_545 S
C74 O82 1.268 1_545 S
C75 O81 1.268 . S
C75 O84 1.268 . S
O76 Sc66 2.105 . S
O76 C70 1.268 . S
O77 Sc67 2.105 . S
O77 C71 1.268 . S
O78 Sc68 2.105 . S
O78 C72 1.268 . S
O79 Sc66 2.105 . S
O79 C73 1.268 1_554 S
O80 Sc68 2.105 . S
O80 C74 1.268 1_565 S
O81 Sc67 2.105 . S
O81 C75 1.268 . S
O82 Sc66 2.105 . S
O82 C74 1.268 1_565 S
O83 Sc67 2.105 . S
O83 C73 1.268 1_554 S
O84 Sc68 2.105 . S
O84 C75 1.268 . S
O85 Sc66 2.105 . S
O85 C71 1.268 . S
O86 Sc68 2.105 . S
O86 C70 1.268 . S
O87 Sc67 2.105 . S
O87 C72 1.268 . S
Sc88 O91 2.025 . S
Sc88 O98 2.105 . S
Sc88 O101 2.105 . S
Sc88 O104 2.105 . S
Sc88 O107 2.105 . S
Sc89 O91 2.025 . S
Sc89 O99 2.105 . S
Sc89 O103 2.105 . S
Sc89 O105 2.105 . S
Sc89 O109 2.105 . S
Sc90 O91 2.025 . S
Sc90 O100 2.105 . S
Sc90 O102 2.105 . S
Sc90 O106 2.105 . S
Sc90 O108 2.105 . S
O91 Sc88 2.025 . S
O91 Sc89 2.025 . S
O91 Sc90 2.025 . S
C92 O98 1.268 . S
C92 O108 1.268 . S
C93 O99 1.268 . S
C93 O107 1.268 . S
C94 O100 1.268 . S
C94 O109 1.268 . S
C95 O101 1.268 . S
C95 O105 1.268 . S
C96 O102 1.268 . S
C96 O104 1.268 . S
C97 O103 1.268 . S
C97 O106 1.268 . S
O98 Sc88 2.105 . S
O98 C92 1.268 . S
O99 Sc89 2.105 . S
O99 C93 1.268 . S
O100 Sc90 2.105 . S
O100 C94 1.268 . S
O101 Sc88 2.105 . S
O101 C95 1.268 . S
O102 Sc90 2.105 . S
O102 C96 1.268 . S
O103 Sc89 2.105 . S
O103 C97 1.268 . S
O104 Sc88 2.105 . S
O104 C96 1.268 . S
O105 Sc89 2.105 . S
O105 C95 1.268 . S
O106 Sc90 2.105 . S
O106 C97 1.268 . S
O107 Sc88 2.105 . S
O107 C93 1.268 . S
O108 Sc90 2.105 . S
O108 C92 1.268 . S
O109 Sc89 2.105 . S
O109 C94 1.268 . S
Sc110 O113 2.025 . S
Sc110 O120 2.105 . S
Sc110 O123 2.105 . S
Sc110 O126 2.105 . S
Sc110 O129 2.105 . S
Sc111 O113 2.025 . S
Sc111 O121 2.105 . S
Sc111 O125 2.105 . S
Sc111 O127 2.105 . S
Sc111 O131 2.105 . S
Sc112 O113 2.025 . S
Sc112 O122 2.105 . S
Sc112 O124 2.105 . S
Sc112 O128 2.105 . S
Sc112 O130 2.105 . S
O113 Sc110 2.025 . S
O113 Sc111 2.025 . S
O113 Sc112 2.025 . S
C114 O120 1.268 . S
C114 O130 1.268 . S
C115 O121 1.268 . S
C115 O129 1.268 . S
C116 O122 1.268 . S
C116 O131 1.268 . S
C117 O123 1.268 1_655 S
C117 O127 1.268 1_655 S
C118 O124 1.268 1_554 S
C118 O126 1.268 1_554 S
C119 O125 1.268 . S
C119 O128 1.268 . S
O120 Sc110 2.105 . S
O120 C114 1.268 . S
O121 Sc111 2.105 . S
O121 C115 1.268 . S
O122 Sc112 2.105 . S
O122 C116 1.268 . S
O123 Sc110 2.105 . S
O123 C117 1.268 1_455 S
O124 Sc112 2.105 . S
O124 C118 1.268 1_556 S
O125 Sc111 2.105 . S
O125 C119 1.268 . S
O126 Sc110 2.105 . S
O126 C118 1.268 1_556 S
O127 Sc111 2.105 . S
O127 C117 1.268 1_455 S
O128 Sc112 2.105 . S
O128 C119 1.268 . S
O129 Sc110 2.105 . S
O129 C115 1.268 . S
O130 Sc112 2.105 . S
O130 C114 1.268 . S
O131 Sc111 2.105 . S
O131 C116 1.268 . S
Sc132 O135 2.025 . S
Sc132 O142 2.105 . S
Sc132 O145 2.105 . S
Sc132 O148 2.105 . S
Sc132 O151 2.105 . S
Sc133 O135 2.025 . S
Sc133 O143 2.105 . S
Sc133 O147 2.105 . S
Sc133 O149 2.105 . S
Sc133 O153 2.105 . S
Sc134 O135 2.025 . S
Sc134 O144 2.105 . S
Sc134 O146 2.105 . S
Sc134 O150 2.105 . S
Sc134 O152 2.105 . S
O135 Sc132 2.025 . S
O135 Sc133 2.025 . S
O135 Sc134 2.025 . S
C136 O142 1.268 . S
C136 O152 1.268 . S
C137 O143 1.268 . S
C137 O151 1.268 . S
C138 O144 1.268 . S
C138 O153 1.268 . S
C139 O145 1.268 . S
C139 O149 1.268 . S
C140 O146 1.268 . S
C140 O148 1.268 . S
C141 O147 1.268 . S
C141 O150 1.268 . S
O142 Sc132 2.105 . S
O142 C136 1.268 . S
O143 Sc133 2.105 . S
O143 C137 1.268 . S
O144 Sc134 2.105 . S
O144 C138 1.268 . S
O145 Sc132 2.105 . S
O145 C139 1.268 . S
O146 Sc134 2.105 . S
O146 C140 1.268 . S
O147 Sc133 2.105 . S
O147 C141 1.268 . S
O148 Sc132 2.105 . S
O148 C140 1.268 . S
O149 Sc133 2.105 . S
O149 C139 1.268 . S
O150 Sc134 2.105 . S
O150 C141 1.268 . S
O151 Sc132 2.105 . S
O151 C137 1.268 . S
O152 Sc134 2.105 . S
O152 C136 1.268 . S
O153 Sc133 2.105 . S
O153 C138 1.268 . S
Sc154 O157 2.025 . S
Sc154 O164 2.105 . S
Sc154 O167 2.105 . S
Sc154 O170 2.105 . S
Sc154 O173 2.105 . S
Sc155 O157 2.025 . S
Sc155 O165 2.105 . S
Sc155 O169 2.126 . S
Sc155 O171 2.105 . S
Sc155 O175 2.105 . S
Sc156 O157 2.025 . S
Sc156 O166 2.105 . S
Sc156 O168 2.105 . S
Sc156 O172 2.105 . S
Sc156 O174 2.105 . S
O157 Sc154 2.025 . S
O157 Sc155 2.025 . S
O157 Sc156 2.025 . S
C158 O164 1.268 . S
C158 O174 1.268 . S
C159 O165 1.268 . S
C159 O173 1.268 . S
C160 O166 1.268 . S
C160 O175 1.268 . S
C161 O167 1.268 1_545 S
C161 O171 1.268 1_545 S
C162 O168 1.268 1_455 S
C162 O170 1.268 1_455 S
C163 O169 1.259 1_554 S
C163 O172 1.268 1_554 S
O164 Sc154 2.105 . S
O164 C158 1.268 . S
O165 Sc155 2.105 . S
O165 C159 1.268 . S
O166 Sc156 2.105 . S
O166 C160 1.268 . S
O167 Sc154 2.105 . S
O167 C161 1.268 1_565 S
O168 Sc156 2.105 . S
O168 C162 1.268 1_655 S
O169 Sc155 2.126 . S
O169 C163 1.259 1_556 S
O170 Sc154 2.105 . S
O170 C162 1.268 1_655 S
O171 Sc155 2.105 . S
O171 C161 1.268 1_565 S
O172 Sc156 2.105 . S
O172 C163 1.268 1_556 S
O173 Sc154 2.105 . S
O173 C159 1.268 . S
O174 Sc156 2.105 . S
O174 C158 1.268 . S
O175 Sc155 2.105 . S
O175 C160 1.268 . S
Sc176 O179 2.025 . S
Sc176 O186 2.105 . S
Sc176 O189 2.105 . S
Sc176 O192 2.105 . S
Sc176 O195 2.105 . S
Sc177 O179 2.025 . S
Sc177 O187 2.105 . S
Sc177 O191 2.105 . S
Sc177 O193 2.105 . S
Sc177 O197 2.105 . S
Sc178 O179 2.025 . S
Sc178 O188 2.105 . S
Sc178 O190 2.105 . S
Sc178 O194 2.105 . S
Sc178 O196 2.105 . S
O179 Sc176 2.025 . S
O179 Sc177 2.025 . S
O179 Sc178 2.025 . S
C180 O186 1.268 . S
C180 O196 1.268 . S
C181 O187 1.268 . S
C181 O195 1.268 . S
C182 O188 1.268 . S
C182 O197 1.268 . S
C183 O189 1.268 . S
C183 O193 1.268 . S
C184 O190 1.268 . S
C184 O192 1.268 . S
C185 O191 1.268 . S
C185 O194 1.268 . S
O186 Sc176 2.105 . S
O186 C180 1.268 . S
O187 Sc177 2.105 . S
O187 C181 1.268 . S
O188 Sc178 2.105 . S
O188 C182 1.268 . S
O189 Sc176 2.105 . S
O189 C183 1.268 . S
O190 Sc178 2.105 . S
O190 C184 1.268 . S
O191 Sc177 2.105 . S
O191 C185 1.268 . S
O192 Sc176 2.105 . S
O192 C184 1.268 . S
O193 Sc177 2.105 . S
O193 C183 1.268 . S
O194 Sc178 2.105 . S
O194 C185 1.268 . S
O195 Sc176 2.105 . S
O195 C181 1.268 . S
O196 Sc178 2.105 . S
O196 C180 1.268 . S
O197 Sc177 2.105 . S
O197 C182 1.268 . S
Sc198 O201 2.025 . S
Sc198 O208 2.105 . S
Sc198 O211 2.105 . S
Sc198 O214 2.105 . S
Sc198 O217 2.105 . S
Sc199 O201 2.025 . S
Sc199 O209 2.105 . S
Sc199 O213 2.105 . S
Sc199 O215 2.105 . S
Sc199 O219 2.105 . S
Sc200 O201 2.025 . S
Sc200 O210 2.105 . S
Sc200 O212 2.105 . S
Sc200 O216 2.105 . S
Sc200 O218 2.105 . S
O201 Sc198 2.025 . S
O201 Sc199 2.025 . S
O201 Sc200 2.025 . S
C202 O208 1.268 . S
C202 O218 1.268 . S
C203 O209 1.268 . S
C203 O217 1.268 . S
C204 O210 1.268 . S
C204 O219 1.268 . S
C205 O211 1.268 . S
C205 O215 1.268 . S
C206 O212 1.268 . S
C206 O214 1.268 . S
C207 O213 1.268 . S
C207 O216 1.268 . S
O208 Sc198 2.105 . S
O208 C202 1.268 . S
O209 Sc199 2.105 . S
O209 C203 1.268 . S
O210 Sc200 2.105 . S
O210 C204 1.268 . S
O211 Sc198 2.105 . S
O211 C205 1.268 . S
O212 Sc200 2.105 . S
O212 C206 1.268 . S
O213 Sc199 2.105 . S
O213 C207 1.268 . S
O214 Sc198 2.105 . S
O214 C206 1.268 . S
O215 Sc199 2.105 . S
O215 C205 1.268 . S
O216 Sc200 2.105 . S
O216 C207 1.268 . S
O217 Sc198 2.105 . S
O217 C203 1.268 . S
O218 Sc200 2.105 . S
O218 C202 1.268 . S
O219 Sc199 2.105 . S
O219 C204 1.268 . S
Sc220 O223 2.025 . S
Sc220 O230 2.105 . S
Sc220 O233 2.105 . S
Sc220 O236 2.105 . S
Sc220 O239 2.105 . S
Sc221 O223 2.025 . S
Sc221 O231 2.105 . S
Sc221 O235 2.105 . S
Sc221 O237 2.105 . S
Sc221 O241 2.105 . S
Sc222 O223 2.025 . S
Sc222 O232 2.105 . S
Sc222 O234 2.105 . S
Sc222 O238 2.105 . S
Sc222 O240 2.105 . S
O223 Sc220 2.025 . S
O223 Sc221 2.025 . S
O223 Sc222 2.025 . S
C224 O230 1.268 . S
C224 O240 1.268 . S
C225 O231 1.268 . S
C225 O239 1.268 . S
C226 O232 1.268 . S
C226 O241 1.268 . S
C227 O233 1.268 . S
C227 O237 1.268 . S
C228 O234 1.268 . S
C228 O236 1.268 . S
C229 O235 1.268 1_655 S
C229 O238 1.268 1_655 S
O230 Sc220 2.105 . S
O230 C224 1.268 . S
O231 Sc221 2.105 . S
O231 C225 1.268 . S
O232 Sc222 2.105 . S
O232 C226 1.268 . S
O233 Sc220 2.105 . S
O233 C227 1.268 . S
O234 Sc222 2.105 . S
O234 C228 1.268 . S
O235 Sc221 2.105 . S
O235 C229 1.268 1_455 S
O236 Sc220 2.105 . S
O236 C228 1.268 . S
O237 Sc221 2.105 . S
O237 C227 1.268 . S
O238 Sc222 2.105 . S
O238 C229 1.268 1_455 S
O239 Sc220 2.105 . S
O239 C225 1.268 . S
O240 Sc222 2.105 . S
O240 C224 1.268 . S
O241 Sc221 2.105 . S
O241 C226 1.268 . S
Sc242 O245 2.025 . S
Sc242 O252 2.105 . S
Sc242 O255 2.105 . S
Sc242 O258 2.105 . S
Sc242 O261 2.105 . S
Sc243 O245 2.025 . S
Sc243 O253 2.105 . S
Sc243 O257 2.105 . S
Sc243 O259 2.105 . S
Sc243 O263 2.105 . S
Sc244 O245 2.025 . S
Sc244 O254 2.105 . S
Sc244 O256 2.105 . S
Sc244 O260 2.105 . S
Sc244 O262 2.105 . S
O245 Sc242 2.025 . S
O245 Sc243 2.025 . S
O245 Sc244 2.025 . S
C246 O252 1.268 1_455 S
C246 O262 1.268 1_455 S
C247 O253 1.268 . S
C247 O261 1.268 . S
C248 O254 1.268 1_565 S
C248 O263 1.268 1_565 S
C249 O255 1.268 . S
C249 O259 1.268 . S
C250 O256 1.268 . S
C250 O258 1.268 . S
C251 O257 1.268 . S
C251 O260 1.268 . S
O252 Sc242 2.105 . S
O252 C246 1.268 1_655 S
O253 Sc243 2.105 . S
O253 C247 1.268 . S
O254 Sc244 2.105 . S
O254 C248 1.268 1_545 S
O255 Sc242 2.105 . S
O255 C249 1.268 . S
O256 Sc244 2.105 . S
O256 C250 1.268 . S
O257 Sc243 2.105 . S
O257 C251 1.268 . S
O258 Sc242 2.105 . S
O258 C250 1.268 . S
O259 Sc243 2.105 . S
O259 C249 1.268 . S
O260 Sc244 2.105 . S
O260 C251 1.268 . S
O261 Sc242 2.105 . S
O261 C247 1.268 . S
O262 Sc244 2.105 . S
O262 C246 1.268 1_655 S
O263 Sc243 2.105 . S
O263 C248 1.268 1_545 S
Sc264 O267 2.025 . S
Sc264 O274 2.105 . S
Sc264 O277 2.105 . S
Sc264 O280 2.105 . S
Sc264 O283 2.105 . S
Sc265 O267 2.025 . S
Sc265 O275 2.105 . S
Sc265 O279 2.105 . S
Sc265 O281 2.105 . S
Sc265 O285 2.105 . S
Sc266 O267 2.025 . S
Sc266 O276 2.105 . S
Sc266 O278 2.105 . S
Sc266 O282 2.105 . S
Sc266 O284 2.105 . S
O267 Sc264 2.025 . S
O267 Sc265 2.025 . S
O267 Sc266 2.025 . S
C268 O274 1.268 . S
C268 O284 1.268 . S
C269 O275 1.268 . S
C269 O283 1.268 . S
C270 O276 1.268 . S
C270 O285 1.268 . S
C271 O277 1.268 . S
C271 O281 1.268 . S
C272 O278 1.268 . S
C272 O280 1.268 . S
C273 O279 1.268 . S
C273 O282 1.268 . S
O274 Sc264 2.105 . S
O274 C268 1.268 . S
O275 Sc265 2.105 . S
O275 C269 1.268 . S
O276 Sc266 2.105 . S
O276 C270 1.268 . S
O277 Sc264 2.105 . S
O277 C271 1.268 . S
O278 Sc266 2.105 . S
O278 C272 1.268 . S
O279 Sc265 2.105 . S
O279 C273 1.268 . S
O280 Sc264 2.105 . S
O280 C272 1.268 . S
O281 Sc265 2.105 . S
O281 C271 1.268 . S
O282 Sc266 2.105 . S
O282 C273 1.268 . S
O283 Sc264 2.105 . S
O283 C269 1.268 . S
O284 Sc266 2.105 . S
O284 C268 1.268 . S
O285 Sc265 2.105 . S
O285 C270 1.268 . S
Sc286 O289 2.025 . S
Sc286 O296 2.105 . S
Sc286 O299 2.105 . S
Sc286 O302 2.105 . S
Sc286 O305 2.105 . S
Sc287 O289 2.025 . S
Sc287 O297 2.105 . S
Sc287 O301 2.105 . S
Sc287 O303 2.105 . S
Sc287 O307 2.105 . S
Sc288 O289 2.025 . S
Sc288 O298 2.105 . S
Sc288 O300 2.105 . S
Sc288 O304 2.105 . S
Sc288 O306 2.105 . S
O289 Sc286 2.025 . S
O289 Sc287 2.025 . S
O289 Sc288 2.025 . S
C290 O296 1.268 . S
C290 O306 1.268 . S
C291 O297 1.268 . S
C291 O305 1.268 . S
C292 O298 1.268 . S
C292 O307 1.268 . S
C293 O299 1.268 . S
C293 O303 1.268 . S
C294 O300 1.268 . S
C294 O302 1.268 . S
C295 O301 1.268 . S
C295 O304 1.268 . S
O296 Sc286 2.105 . S
O296 C290 1.268 . S
O297 Sc287 2.105 . S
O297 C291 1.268 . S
O298 Sc288 2.105 . S
O298 C292 1.268 . S
O299 Sc286 2.105 . S
O299 C293 1.268 . S
O300 Sc288 2.105 . S
O300 C294 1.268 . S
O301 Sc287 2.105 . S
O301 C295 1.268 . S
O302 Sc286 2.105 . S
O302 C294 1.268 . S
O303 Sc287 2.105 . S
O303 C293 1.268 . S
O304 Sc288 2.105 . S
O304 C295 1.268 . S
O305 Sc286 2.105 . S
O305 C291 1.268 . S
O306 Sc288 2.105 . S
O306 C290 1.268 . S
O307 Sc287 2.105 . S
O307 C292 1.268 . S
Sc308 O311 2.025 . S
Sc308 O318 2.105 . S
Sc308 O321 2.105 . S
Sc308 O324 2.105 . S
Sc308 O327 2.105 . S
Sc309 O311 2.025 . S
Sc309 O319 2.105 . S
Sc309 O323 2.105 . S
Sc309 O325 2.105 . S
Sc309 O329 2.105 . S
Sc310 O311 2.025 . S
Sc310 O320 2.105 . S
Sc310 O322 2.105 . S
Sc310 O326 2.105 . S
Sc310 O328 2.105 . S
O311 Sc308 2.025 . S
O311 Sc309 2.025 . S
O311 Sc310 2.025 . S
C312 O318 1.268 . S
C312 O328 1.268 . S
C313 O319 1.268 . S
C313 O327 1.268 . S
C314 O320 1.268 . S
C314 O329 1.268 . S
C315 O321 1.268 . S
C315 O325 1.268 . S
C316 O322 1.268 . S
C316 O324 1.268 . S
C317 O323 1.268 1_565 S
C317 O326 1.268 1_565 S
O318 Sc308 2.105 . S
O318 C312 1.268 . S
O319 Sc309 2.105 . S
O319 C313 1.268 . S
O320 Sc310 2.105 . S
O320 C314 1.268 . S
O321 Sc308 2.105 . S
O321 C315 1.268 . S
O322 Sc310 2.105 . S
O322 C316 1.268 . S
O323 Sc309 2.105 . S
O323 C317 1.268 1_545 S
O324 Sc308 2.105 . S
O324 C316 1.268 . S
O325 Sc309 2.105 . S
O325 C315 1.268 . S
O326 Sc310 2.105 . S
O326 C317 1.268 1_545 S
O327 Sc308 2.105 . S
O327 C313 1.268 . S
O328 Sc310 2.105 . S
O328 C312 1.268 . S
O329 Sc309 2.105 . S
O329 C314 1.268 . S
Sc330 O333 2.025 . S
Sc330 O340 2.105 . S
Sc330 O343 2.105 . S
Sc330 O346 2.105 . S
Sc330 O349 2.105 . S
Sc331 O333 2.025 . S
Sc331 O341 2.105 . S
Sc331 O345 2.105 . S
Sc331 O347 2.105 . S
Sc331 O351 2.105 . S
Sc332 O333 2.025 . S
Sc332 O342 2.105 . S
Sc332 O344 2.105 . S
Sc332 O348 2.105 . S
Sc332 O350 2.105 . S
O333 Sc330 2.025 . S
O333 Sc331 2.025 . S
O333 Sc332 2.025 . S
C334 O340 1.268 . S
C334 O350 1.268 . S
C335 O341 1.268 . S
C335 O349 1.268 . S
C336 O342 1.268 . S
C336 O351 1.268 . S
C337 O343 1.268 . S
C337 O347 1.268 . S
C338 O344 1.268 . S
C338 O346 1.268 . S
C339 O345 1.268 . S
C339 O348 1.268 . S
O340 Sc330 2.105 . S
O340 C334 1.268 . S
O341 Sc331 2.105 . S
O341 C335 1.268 . S
O342 Sc332 2.105 . S
O342 C336 1.268 . S
O343 Sc330 2.105 . S
O343 C337 1.268 . S
O344 Sc332 2.105 . S
O344 C338 1.268 . S
O345 Sc331 2.105 . S
O345 C339 1.268 . S
O346 Sc330 2.105 . S
O346 C338 1.268 . S
O347 Sc331 2.105 . S
O347 C337 1.268 . S
O348 Sc332 2.105 . S
O348 C339 1.268 . S
O349 Sc330 2.105 . S
O349 C335 1.268 . S
O350 Sc332 2.105 . S
O350 C334 1.268 . S
O351 Sc331 2.105 . S
O351 C336 1.268 . S
C352 O379 1.312 . S
C352 O380 1.208 . S
C353 O374 1.331 1_554 S
C353 O377 1.244 1_554 S
C354 O376 1.264 . S
C354 O378 1.273 . S
Mg355 O357 1.936 1_455 S
Mg355 O364 2.081 1_455 S
Mg355 O366 2.023 . S
Mg355 O370 2.041 . S
Mg355 O379 2.291 . S
Mg356 O357 1.963 . S
Mg356 O367 1.942 . S
Mg356 O368 1.955 1_655 S
Mg356 O375 1.986 . S
O357 Mg355 1.936 1_655 S
O357 Mg356 1.963 . S
O357 Mg358 1.915 . S
Mg358 O357 1.915 . S
Mg358 O359 1.915 1_655 S
Mg358 O363 2.013 1_655 S
Mg358 O369 2.114 . S
Mg358 O373 2.013 . S
Mg358 O379 2.114 1_655 S
O359 Mg358 1.915 1_455 S
O359 Mg360 1.936 . S
O359 Mg361 1.963 1_455 S
Mg360 O359 1.936 . S
Mg360 O369 2.291 1_455 S
Mg360 O374 2.081 . S
Mg360 O376 2.023 1_455 S
Mg360 O380 2.031 . S
Mg361 O359 1.963 1_655 S
Mg361 O365 1.986 1_655 S
Mg361 O377 1.942 1_655 S
Mg361 O378 1.955 . S
C362 O373 1.191 . S
C362 O375 1.307 . S
O363 Mg358 2.013 1_455 S
O363 C382 1.191 . S
O364 Mg355 2.081 1_655 S
O364 C372 1.331 . S
O365 Mg361 1.986 1_455 S
O365 C382 1.307 . S
O366 Mg355 2.023 . S
O366 C381 1.264 . S
O367 Mg356 1.942 . S
O367 C372 1.244 . S
O368 Mg356 1.955 1_455 S
O368 C381 1.273 . S
O369 Mg358 2.114 . S
O369 Mg360 2.291 1_655 S
O369 C371 1.312 . S
O370 Mg355 2.041 . S
O370 C371 1.199 1_455 S
C371 O369 1.312 . S
C371 O370 1.199 1_655 S
C372 O364 1.331 . S
C372 O367 1.244 . S
O373 Mg358 2.013 . S
O373 C362 1.191 . S
O374 C353 1.331 1_556 S
O374 Mg360 2.081 . S
O375 Mg356 1.986 . S
O375 C362 1.307 . S
O376 C354 1.264 . S
O376 Mg360 2.023 1_655 S
O377 C353 1.244 1_556 S
O377 Mg361 1.942 1_455 S
O378 C354 1.273 . S
O378 Mg361 1.955 . S
O379 C352 1.312 . S
O379 Mg355 2.291 . S
O379 Mg358 2.114 1_455 S
O380 C352 1.208 . S
O380 Mg360 2.031 . S
C381 O366 1.264 . S
C381 O368 1.273 . S
C382 O363 1.191 . S
C382 O365 1.307 . S
C383 O410 1.312 . S
C383 O411 1.208 . S
C384 O405 1.331 . S
C384 O408 1.244 . S
C385 O407 1.264 . S
C385 O409 1.273 . S
Mg386 O388 1.936 . S
Mg386 O395 2.081 . S
Mg386 O397 2.023 . S
Mg386 O401 2.031 . S
Mg386 O410 2.291 . S
Mg387 O388 1.963 . S
Mg387 O398 1.942 . S
Mg387 O399 1.955 . S
Mg387 O406 1.986 . S
O388 Mg386 1.936 . S
O388 Mg387 1.963 . S
O388 Mg389 1.915 . S
Mg389 O388 1.915 . S
Mg389 O390 1.915 . S
Mg389 O394 2.013 . S
Mg389 O400 2.114 . S
Mg389 O404 2.013 . S
Mg389 O410 2.114 . S
O390 Mg389 1.915 . S
O390 Mg391 1.936 . S
O390 Mg392 1.963 . S
Mg391 O390 1.936 . S
Mg391 O400 2.291 . S
Mg391 O405 2.081 . S
Mg391 O407 2.023 . S
Mg391 O411 2.031 . S
Mg392 O390 1.963 . S
Mg392 O396 1.986 . S
Mg392 O408 1.942 . S
Mg392 O409 1.955 . S
C393 O404 1.191 . S
C393 O406 1.307 . S
O394 Mg389 2.013 . S
O394 C413 1.191 . S
O395 Mg386 2.081 . S
O395 C403 1.331 . S
O396 Mg392 1.986 . S
O396 C413 1.307 . S
O397 Mg386 2.023 . S
O397 C412 1.264 . S
O398 Mg387 1.942 . S
O398 C403 1.244 . S
O399 Mg387 1.955 . S
O399 C412 1.273 . S
O400 Mg389 2.114 . S
O400 Mg391 2.291 . S
O400 C402 1.312 . S
O401 Mg386 2.031 . S
O401 C402 1.208 . S
C402 O400 1.312 . S
C402 O401 1.208 . S
C403 O395 1.331 . S
C403 O398 1.244 . S
O404 Mg389 2.013 . S
O404 C393 1.191 . S
O405 C384 1.331 . S
O405 Mg391 2.081 . S
O406 Mg387 1.986 . S
O406 C393 1.307 . S
O407 C385 1.264 . S
O407 Mg391 2.023 . S
O408 C384 1.244 . S
O408 Mg392 1.942 . S
O409 C385 1.273 . S
O409 Mg392 1.955 . S
O410 C383 1.312 . S
O410 Mg386 2.291 . S
O410 Mg389 2.114 . S
O411 C383 1.208 . S
O411 Mg391 2.031 . S
C412 O397 1.264 . S
C412 O399 1.273 . S
C413 O394 1.191 . S
C413 O396 1.307 . S
C414 O441 1.312 . S
C414 O442 1.203 1_655 S
C415 O436 1.331 . S
C415 O439 1.244 . S
C416 O438 1.264 . S
C416 O440 1.273 . S
Mg417 O419 1.936 . S
Mg417 O426 2.081 . S
Mg417 O428 2.023 1_455 S
Mg417 O432 2.031 . S
Mg417 O441 2.291 1_455 S
Mg418 O419 1.963 1_655 S
Mg418 O429 1.942 1_655 S
Mg418 O430 1.955 . S
Mg418 O437 1.986 1_655 S
O419 Mg417 1.936 . S
O419 Mg418 1.963 1_455 S
O419 Mg420 1.915 1_455 S
Mg420 O419 1.915 1_655 S
Mg420 O421 1.915 . S
Mg420 O425 2.013 . S
Mg420 O431 2.114 1_655 S
Mg420 O435 2.013 1_655 S
Mg420 O441 2.114 . S
O421 Mg420 1.915 . S
O421 Mg422 1.936 1_655 S
O421 Mg423 1.963 . S
Mg422 O421 1.936 1_455 S
Mg422 O431 2.291 . S
Mg422 O436 2.081 1_455 S
Mg422 O438 2.023 . S
Mg422 O442 2.036 . S
Mg423 O421 1.963 . S
Mg423 O427 1.986 . S
Mg423 O439 1.942 . S
Mg423 O440 1.955 1_655 S
C424 O435 1.191 . S
C424 O437 1.307 . S
O425 Mg420 2.013 . S
O425 C444 1.191 . S
O426 Mg417 2.081 . S
O426 C434 1.331 . S
O427 Mg423 1.986 . S
O427 C444 1.307 . S
O428 Mg417 2.023 1_655 S
O428 C443 1.264 . S
O429 Mg418 1.942 1_455 S
O429 C434 1.244 . S
O430 Mg418 1.955 . S
O430 C443 1.273 . S
O431 Mg420 2.114 1_455 S
O431 Mg422 2.291 . S
O431 C433 1.312 . S
O432 Mg417 2.031 . S
O432 C433 1.208 . S
C433 O431 1.312 . S
C433 O432 1.208 . S
C434 O426 1.331 . S
C434 O429 1.244 . S
O435 Mg420 2.013 1_455 S
O435 C424 1.191 . S
O436 C415 1.331 . S
O436 Mg422 2.081 1_655 S
O437 Mg418 1.986 1_455 S
O437 C424 1.307 . S
O438 C416 1.264 . S
O438 Mg422 2.023 . S
O439 C415 1.244 . S
O439 Mg423 1.942 . S
O440 C416 1.273 . S
O440 Mg423 1.955 1_455 S
O441 C414 1.312 . S
O441 Mg417 2.291 1_655 S
O441 Mg420 2.114 . S
O442 C414 1.203 1_455 S
O442 Mg422 2.036 . S
C443 O428 1.264 . S
C443 O430 1.273 . S
C444 O425 1.191 . S
C444 O427 1.307 . S
C445 O472 1.312 . S
C445 O473 1.199 1_565 S
C446 O467 1.331 . S
C446 O470 1.244 . S
C447 O469 1.264 . S
C447 O471 1.273 . S
Mg448 O450 1.936 . S
Mg448 O457 2.081 . S
Mg448 O459 2.023 1_545 S
Mg448 O463 2.031 . S
Mg448 O472 2.291 1_545 S
Mg449 O450 1.963 1_565 S
Mg449 O460 1.942 1_565 S
Mg449 O461 1.955 . S
Mg449 O468 1.986 1_565 S
O450 Mg448 1.936 . S
O450 Mg449 1.963 1_545 S
O450 Mg451 1.915 1_545 S
Mg451 O450 1.915 1_565 S
Mg451 O452 1.915 . S
Mg451 O456 2.013 . S
Mg451 O462 2.114 1_565 S
Mg451 O466 2.013 1_565 S
Mg451 O472 2.114 . S
O452 Mg451 1.915 . S
O452 Mg453 1.936 1_565 S
O452 Mg454 1.963 . S
Mg453 O452 1.936 1_545 S
Mg453 O462 2.291 . S
Mg453 O467 2.081 1_545 S
Mg453 O469 2.023 . S
Mg453 O473 2.041 . S
Mg454 O452 1.963 . S
Mg454 O458 1.986 . S
Mg454 O470 1.942 . S
Mg454 O471 1.955 1_565 S
C455 O466 1.191 . S
C455 O468 1.307 . S
O456 Mg451 2.013 . S
O456 C475 1.191 . S
O457 Mg448 2.081 . S
O457 C465 1.331 1_655 S
O458 Mg454 1.986 . S
O458 C475 1.307 . S
O459 Mg448 2.023 1_565 S
O459 C474 1.264 . S
O460 Mg449 1.942 1_545 S
O460 C465 1.244 1_655 S
O461 Mg449 1.955 . S
O461 C474 1.273 . S
O462 Mg451 2.114 1_545 S
O462 Mg453 2.291 . S
O462 C464 1.312 . S
O463 Mg448 2.031 . S
O463 C464 1.208 . S
C464 O462 1.312 . S
C464 O463 1.208 . S
C465 O457 1.331 1_455 S
C465 O460 1.244 1_455 S
O466 Mg451 2.013 1_545 S
O466 C455 1.191 . S
O467 C446 1.331 . S
O467 Mg453 2.081 1_565 S
O468 Mg449 1.986 1_545 S
O468 C455 1.307 . S
O469 C447 1.264 . S
O469 Mg453 2.023 . S
O470 C446 1.244 . S
O470 Mg454 1.942 . S
O471 C447 1.273 . S
O471 Mg454 1.955 1_545 S
O472 C445 1.312 . S
O472 Mg448 2.291 1_565 S
O472 Mg451 2.114 . S
O473 C445 1.199 1_545 S
O473 Mg453 2.041 . S
C474 O459 1.264 . S
C474 O461 1.273 . S
C475 O456 1.191 . S
C475 O458 1.307 . S
C476 O503 1.312 . S
C476 O504 1.208 . S
C477 O498 1.322 1_545 S
C477 O501 1.239 1_545 S
C478 O500 1.264 . S
C478 O502 1.273 . S
Mg479 O481 1.936 1_554 S
Mg479 O488 2.081 1_554 S
Mg479 O490 2.023 . S
Mg479 O494 2.037 . S
Mg479 O503 2.291 . S
Mg480 O481 1.963 . S
Mg480 O491 1.942 . S
Mg480 O492 1.955 1_556 S
Mg480 O499 1.986 . S
O481 Mg479 1.936 1_556 S
O481 Mg480 1.963 . S
O481 Mg482 1.915 . S
Mg482 O481 1.915 . S
Mg482 O483 1.915 1_556 S
Mg482 O487 2.013 1_556 S
Mg482 O493 2.114 . S
Mg482 O497 2.013 . S
Mg482 O503 2.114 1_556 S
O483 Mg482 1.915 1_554 S
O483 Mg484 1.936 . S
O483 Mg485 1.963 1_554 S
Mg484 O483 1.936 . S
Mg484 O493 2.291 1_554 S
Mg484 O498 2.081 . S
Mg484 O500 2.023 1_554 S
Mg484 O504 2.031 . S
Mg485 O483 1.963 1_556 S
Mg485 O489 1.986 1_556 S
Mg485 O501 1.942 1_556 S
Mg485 O502 1.955 . S
C486 O497 1.191 . S
C486 O499 1.307 . S
O487 Mg482 2.013 1_554 S
O487 C506 1.191 . S
O488 Mg479 2.081 1_556 S
O488 C496 1.331 . S
O489 Mg485 1.986 1_554 S
O489 C506 1.307 . S
O490 Mg479 2.023 . S
O490 C505 1.264 . S
O491 Mg480 1.942 . S
O491 C496 1.244 . S
O492 Mg480 1.955 1_554 S
O492 C505 1.273 . S
O493 Mg482 2.114 . S
O493 Mg484 2.291 1_556 S
O493 C495 1.312 . S
O494 Mg479 2.037 . S
O494 C495 1.202 1_554 S
C495 O493 1.312 . S
C495 O494 1.202 1_556 S
C496 O488 1.331 . S
C496 O491 1.244 . S
O497 Mg482 2.013 . S
O497 C486 1.191 . S
O498 C477 1.322 1_565 S
O498 Mg484 2.081 . S
O499 Mg480 1.986 . S
O499 C486 1.307 . S
O500 C478 1.264 . S
O500 Mg484 2.023 1_556 S
O501 C477 1.239 1_565 S
O501 Mg485 1.942 1_554 S
O502 C478 1.273 . S
O502 Mg485 1.955 . S
O503 C476 1.312 . S
O503 Mg479 2.291 . S
O503 Mg482 2.114 1_554 S
O504 C476 1.208 . S
O504 Mg484 2.031 . S
C505 O490 1.264 . S
C505 O492 1.273 . S
C506 O487 1.191 . S
C506 O489 1.307 . S
C507 O534 1.312 . S
C507 O535 1.208 . S
C508 O529 1.330 . S
C508 O532 1.244 . S
C509 O531 1.264 . S
C509 O533 1.273 . S
Mg510 O512 1.936 . S
Mg510 O519 2.081 . S
Mg510 O521 2.023 . S
Mg510 O525 2.031 . S
Mg510 O534 2.291 . S
Mg511 O512 1.963 . S
Mg511 O522 1.942 . S
Mg511 O523 1.955 . S
Mg511 O530 1.986 . S
O512 Mg510 1.936 . S
O512 Mg511 1.963 . S
O512 Mg513 1.915 . S
Mg513 O512 1.915 . S
Mg513 O514 1.915 . S
Mg513 O518 2.013 . S
Mg513 O524 2.114 . S
Mg513 O528 2.013 . S
Mg513 O534 2.114 . S
O514 Mg513 1.915 . S
O514 Mg515 1.936 . S
O514 Mg516 1.963 . S
Mg515 O514 1.936 . S
Mg515 O524 2.291 . S
Mg515 O529 2.081 . S
Mg515 O531 2.023 . S
Mg515 O535 2.031 . S
Mg516 O514 1.963 . S
Mg516 O520 1.986 . S
Mg516 O532 1.942 . S
Mg516 O533 1.955 . S
C517 O528 1.191 . S
C517 O530 1.307 . S
O518 Mg513 2.013 . S
O518 C537 1.191 . S
O519 Mg510 2.081 . S
O519 C527 1.331 . S
O520 Mg516 1.986 . S
O520 C537 1.307 . S
O521 Mg510 2.023 . S
O521 C536 1.264 . S
O522 Mg511 1.942 . S
O522 C527 1.244 . S
O523 Mg511 1.955 . S
O523 C536 1.273 . S
O524 Mg513 2.114 . S
O524 Mg515 2.291 . S
O524 C526 1.312 . S
O525 Mg510 2.031 . S
O525 C526 1.208 . S
C526 O524 1.312 . S
C526 O525 1.208 . S
C527 O519 1.331 . S
C527 O522 1.244 . S
O528 Mg513 2.013 . S
O528 C517 1.191 . S
O529 C508 1.330 . S
O529 Mg515 2.081 . S
O530 Mg511 1.986 . S
O530 C517 1.307 . S
O531 C509 1.264 . S
O531 Mg515 2.023 . S
O532 C508 1.244 . S
O532 Mg516 1.942 . S
O533 C509 1.273 . S
O533 Mg516 1.955 . S
O534 C507 1.312 . S
O534 Mg510 2.291 . S
O534 Mg513 2.114 . S
O535 C507 1.208 . S
O535 Mg515 2.031 . S
C536 O521 1.264 . S
C536 O523 1.273 . S
C537 O518 1.191 . S
C537 O520 1.307 . S
C538 O565 1.312 . S
C538 O566 1.208 . S
C539 O560 1.331 . S
C539 O563 1.244 . S
C540 O562 1.264 . S
C540 O564 1.273 . S
Mg541 O543 1.936 . S
Mg541 O550 2.081 . S
Mg541 O552 2.023 1_556 S
Mg541 O556 2.031 . S
Mg541 O565 2.291 1_556 S
Mg542 O543 1.963 1_554 S
Mg542 O553 1.942 1_554 S
Mg542 O554 1.955 . S
Mg542 O561 1.986 1_554 S
O543 Mg541 1.936 . S
O543 Mg542 1.963 1_556 S
O543 Mg544 1.915 1_556 S
Mg544 O543 1.915 1_554 S
Mg544 O545 1.915 . S
Mg544 O549 2.013 . S
Mg544 O555 2.114 1_554 S
Mg544 O559 2.013 1_554 S
Mg544 O565 2.114 . S
O545 Mg544 1.915 . S
O545 Mg546 1.936 1_554 S
O545 Mg547 1.963 . S
Mg546 O545 1.936 1_556 S
Mg546 O555 2.291 . S
Mg546 O560 2.081 1_556 S
Mg546 O562 2.023 . S
Mg546 O566 2.031 1_556 S
Mg547 O545 1.963 . S
Mg547 O551 1.986 . S
Mg547 O563 1.942 . S
Mg547 O564 1.955 1_554 S
C548 O559 1.191 . S
C548 O561 1.307 . S
O549 Mg544 2.013 . S
O549 C568 1.191 . S
O550 Mg541 2.081 . S
O550 C558 1.331 . S
O551 Mg547 1.986 . S
O551 C568 1.307 . S
O552 Mg541 2.023 1_554 S
O552 C567 1.264 . S
O553 Mg542 1.942 1_556 S
O553 C558 1.244 . S
O554 Mg542 1.955 . S
O554 C567 1.273 . S
O555 Mg544 2.114 1_556 S
O555 Mg546 2.291 . S
O555 C557 1.312 . S
O556 Mg541 2.031 . S
O556 C557 1.208 . S
C557 O555 1.312 . S
C557 O556 1.208 . S
C558 O550 1.331 . S
C558 O553 1.244 . S
O559 Mg544 2.013 1_556 S
O559 C548 1.191 . S
O560 C539 1.331 . S
O560 Mg546 2.081 1_554 S
O561 Mg542 1.986 1_556 S
O561 C548 1.307 . S
O562 C540 1.264 . S
O562 Mg546 2.023 . S
O563 C539 1.244 . S
O563 Mg547 1.942 . S
O564 C540 1.273 . S
O564 Mg547 1.955 1_556 S
O565 C538 1.312 . S
O565 Mg541 2.291 1_554 S
O565 Mg544 2.114 . S
O566 C538 1.208 . S
O566 Mg546 2.031 1_554 S
C567 O552 1.264 . S
C567 O554 1.273 . S
C568 O549 1.191 . S
C568 O551 1.307 . S
C569 O596 1.312 . S
C569 O597 1.208 . S
C570 O591 1.331 . S
C570 O594 1.244 . S
C571 O593 1.264 . S
C571 O595 1.273 . S
Mg572 O574 1.936 . S
Mg572 O581 2.081 . S
Mg572 O583 2.023 . S
Mg572 O587 2.031 . S
Mg572 O596 2.291 . S
Mg573 O574 1.963 . S
Mg573 O584 1.942 . S
Mg573 O585 1.955 . S
Mg573 O592 1.986 . S
O574 Mg572 1.936 . S
O574 Mg573 1.963 . S
O574 Mg575 1.915 . S
Mg575 O574 1.915 . S
Mg575 O576 1.915 . S
Mg575 O580 2.013 . S
Mg575 O586 2.114 . S
Mg575 O590 2.013 . S
Mg575 O596 2.114 . S
O576 Mg575 1.915 . S
O576 Mg577 1.936 . S
O576 Mg578 1.963 . S
Mg577 O576 1.936 . S
Mg577 O586 2.291 . S
Mg577 O591 2.081 . S
Mg577 O593 2.023 . S
Mg577 O597 2.031 . S
Mg578 O576 1.963 . S
Mg578 O582 1.986 . S
Mg578 O594 1.942 . S
Mg578 O595 1.955 . S
C579 O590 1.191 . S
C579 O592 1.307 . S
O580 Mg575 2.013 . S
O580 C599 1.191 . S
O581 Mg572 2.081 . S
O581 C589 1.336 . S
O582 Mg578 1.986 . S
O582 C599 1.307 . S
O583 Mg572 2.023 . S
O583 C598 1.264 . S
O584 Mg573 1.942 . S
O584 C589 1.248 . S
O585 Mg573 1.955 . S
O585 C598 1.273 . S
O586 Mg575 2.114 . S
O586 Mg577 2.291 . S
O586 C588 1.312 . S
O587 Mg572 2.031 . S
O587 C588 1.208 . S
C588 O586 1.312 . S
C588 O587 1.208 . S
C589 O581 1.336 . S
C589 O584 1.248 . S
O590 Mg575 2.013 . S
O590 C579 1.191 . S
O591 C570 1.331 . S
O591 Mg577 2.081 . S
O592 Mg573 1.986 . S
O592 C579 1.307 . S
O593 C571 1.264 . S
O593 Mg577 2.023 . S
O594 C570 1.244 . S
O594 Mg578 1.942 . S
O595 C571 1.273 . S
O595 Mg578 1.955 . S
O596 C569 1.312 . S
O596 Mg572 2.291 . S
O596 Mg575 2.114 . S
O597 C569 1.208 . S
O597 Mg577 2.031 . S
C598 O583 1.264 . S
C598 O585 1.273 . S
C599 O580 1.191 . S
C599 O582 1.307 . S
C600 O627 1.312 . S
C600 O628 1.208 . S
C601 O622 1.331 . S
C601 O625 1.244 . S
C602 O624 1.264 . S
C602 O626 1.273 . S
Mg603 O605 1.936 . S
Mg603 O612 2.081 . S
Mg603 O614 2.023 . S
Mg603 O618 2.031 . S
Mg603 O627 2.291 . S
Mg604 O605 1.963 . S
Mg604 O615 1.942 . S
Mg604 O616 1.955 . S
Mg604 O623 1.986 . S
O605 Mg603 1.936 . S
O605 Mg604 1.963 . S
O605 Mg606 1.915 . S
Mg606 O605 1.915 . S
Mg606 O607 1.915 . S
Mg606 O611 2.013 . S
Mg606 O617 2.114 . S
Mg606 O621 2.013 . S
Mg606 O627 2.114 . S
O607 Mg606 1.915 . S
O607 Mg608 1.936 . S
O607 Mg609 1.963 . S
Mg608 O607 1.936 . S
Mg608 O617 2.291 . S
Mg608 O622 2.081 . S
Mg608 O624 2.023 . S
Mg608 O628 2.031 . S
Mg609 O607 1.963 . S
Mg609 O613 1.986 . S
Mg609 O625 1.942 . S
Mg609 O626 1.955 . S
C610 O621 1.191 . S
C610 O623 1.307 . S
O611 Mg606 2.013 . S
O611 C630 1.191 . S
O612 Mg603 2.081 . S
O612 C620 1.331 . S
O613 Mg609 1.986 . S
O613 C630 1.307 . S
O614 Mg603 2.023 . S
O614 C629 1.264 . S
O615 Mg604 1.942 . S
O615 C620 1.244 . S
O616 Mg604 1.955 . S
O616 C629 1.273 . S
O617 Mg606 2.114 . S
O617 Mg608 2.291 . S
O617 C619 1.312 . S
O618 Mg603 2.031 . S
O618 C619 1.208 . S
C619 O617 1.312 . S
C619 O618 1.208 . S
C620 O612 1.331 . S
C620 O615 1.244 . S
O621 Mg606 2.013 . S
O621 C610 1.191 . S
O622 C601 1.331 . S
O622 Mg608 2.081 . S
O623 Mg604 1.986 . S
O623 C610 1.307 . S
O624 C602 1.264 . S
O624 Mg608 2.023 . S
O625 C601 1.244 . S
O625 Mg609 1.942 . S
O626 C602 1.273 . S
O626 Mg609 1.955 . S
O627 C600 1.312 . S
O627 Mg603 2.291 . S
O627 Mg606 2.114 . S
O628 C600 1.208 . S
O628 Mg608 2.031 . S
C629 O614 1.264 . S
C629 O616 1.273 . S
C630 O611 1.191 . S
C630 O613 1.307 . S
C631 O658 1.312 . S
C631 O659 1.208 . S
C632 O653 1.331 . S
C632 O656 1.244 . S
C633 O655 1.264 . S
C633 O657 1.273 . S
Mg634 O636 1.936 . S
Mg634 O643 2.081 . S
Mg634 O645 2.023 . S
Mg634 O649 2.031 . S
Mg634 O658 2.291 . S
Mg635 O636 1.963 . S
Mg635 O646 1.942 . S
Mg635 O647 1.955 . S
Mg635 O654 1.986 . S
O636 Mg634 1.936 . S
O636 Mg635 1.963 . S
O636 Mg637 1.915 . S
Mg637 O636 1.915 . S
Mg637 O638 1.915 . S
Mg637 O642 2.013 . S
Mg637 O648 2.114 . S
Mg637 O652 2.013 . S
Mg637 O658 2.114 . S
O638 Mg637 1.915 . S
O638 Mg639 1.936 . S
O638 Mg640 1.963 . S
Mg639 O638 1.936 . S
Mg639 O648 2.291 . S
Mg639 O653 2.081 . S
Mg639 O655 2.023 . S
Mg639 O659 2.031 . S
Mg640 O638 1.963 . S
Mg640 O644 1.986 . S
Mg640 O656 1.942 . S
Mg640 O657 1.955 . S
C641 O652 1.191 . S
C641 O654 1.307 . S
O642 Mg637 2.013 . S
O642 C661 1.191 . S
O643 Mg634 2.081 . S
O643 C651 1.331 . S
O644 Mg640 1.986 . S
O644 C661 1.307 . S
O645 Mg634 2.023 . S
O645 C660 1.264 . S
O646 Mg635 1.942 . S
O646 C651 1.244 . S
O647 Mg635 1.955 . S
O647 C660 1.273 . S
O648 Mg637 2.114 . S
O648 Mg639 2.291 . S
O648 C650 1.312 . S
O649 Mg634 2.031 . S
O649 C650 1.208 . S
C650 O648 1.312 . S
C650 O649 1.208 . S
C651 O643 1.331 . S
C651 O646 1.244 . S
O652 Mg637 2.013 . S
O652 C641 1.191 . S
O653 C632 1.331 . S
O653 Mg639 2.081 . S
O654 Mg635 1.986 . S
O654 C641 1.307 . S
O655 C633 1.264 . S
O655 Mg639 2.023 . S
O656 C632 1.244 . S
O656 Mg640 1.942 . S
O657 C633 1.273 . S
O657 Mg640 1.955 . S
O658 C631 1.312 . S
O658 Mg634 2.291 . S
O658 Mg637 2.114 . S
O659 C631 1.208 . S
O659 Mg639 2.031 . S
C660 O645 1.264 . S
C660 O647 1.273 . S
C661 O642 1.191 . S
C661 O644 1.307 . S
C662 O689 1.312 . S
C662 O690 1.208 . S
C663 O684 1.331 . S
C663 O687 1.244 . S
C664 O686 1.264 . S
C664 O688 1.273 . S
Mg665 O667 1.936 . S
Mg665 O674 2.081 . S
Mg665 O676 2.023 1_565 S
Mg665 O680 2.031 . S
Mg665 O689 2.291 1_565 S
Mg666 O667 1.963 1_545 S
Mg666 O677 1.942 1_545 S
Mg666 O678 1.955 . S
Mg666 O685 1.986 1_545 S
O667 Mg665 1.936 . S
O667 Mg666 1.963 1_565 S
O667 Mg668 1.915 1_565 S
Mg668 O667 1.915 1_545 S
Mg668 O669 1.915 . S
Mg668 O673 2.013 . S
Mg668 O679 2.114 1_545 S
Mg668 O683 2.013 1_545 S
Mg668 O689 2.114 . S
O669 Mg668 1.915 . S
O669 Mg670 1.936 1_545 S
O669 Mg671 1.963 . S
Mg670 O669 1.936 1_565 S
Mg670 O679 2.291 . S
Mg670 O684 2.081 1_565 S
Mg670 O686 2.023 . S
Mg670 O690 2.031 1_565 S
Mg671 O669 1.963 . S
Mg671 O675 1.986 . S
Mg671 O687 1.942 . S
Mg671 O688 1.955 1_545 S
C672 O683 1.191 . S
C672 O685 1.307 . S
O673 Mg668 2.013 . S
O673 C692 1.191 . S
O674 Mg665 2.081 . S
O674 C682 1.331 . S
O675 Mg671 1.986 . S
O675 C692 1.307 . S
O676 Mg665 2.023 1_545 S
O676 C691 1.264 . S
O677 Mg666 1.942 1_565 S
O677 C682 1.244 . S
O678 Mg666 1.955 . S
O678 C691 1.273 . S
O679 Mg668 2.114 1_565 S
O679 Mg670 2.291 . S
O679 C681 1.312 . S
O680 Mg665 2.031 . S
O680 C681 1.208 . S
C681 O679 1.312 . S
C681 O680 1.208 . S
C682 O674 1.331 . S
C682 O677 1.244 . S
O683 Mg668 2.013 1_565 S
O683 C672 1.191 . S
O684 C663 1.331 . S
O684 Mg670 2.081 1_545 S
O685 Mg666 1.986 1_565 S
O685 C672 1.307 . S
O686 C664 1.264 . S
O686 Mg670 2.023 . S
O687 C663 1.244 . S
O687 Mg671 1.942 . S
O688 C664 1.273 . S
O688 Mg671 1.955 1_565 S
O689 C662 1.312 . S
O689 Mg665 2.291 1_545 S
O689 Mg668 2.114 . S
O690 C662 1.208 . S
O690 Mg670 2.031 1_545 S
C691 O676 1.264 . S
C691 O678 1.273 . S
C692 O673 1.191 . S
C692 O675 1.307 . S
C693 O720 1.312 . S
C693 O721 1.208 . S
C694 O715 1.331 . S
C694 O718 1.244 . S
C695 O717 1.264 . S
C695 O719 1.273 . S
Mg696 O698 1.936 . S
Mg696 O705 2.081 . S
Mg696 O707 2.023 . S
Mg696 O711 2.031 . S
Mg696 O720 2.291 . S
Mg697 O698 1.963 . S
Mg697 O708 1.942 . S
Mg697 O709 1.955 . S
Mg697 O716 1.986 . S
O698 Mg696 1.936 . S
O698 Mg697 1.963 . S
O698 Mg699 1.915 . S
Mg699 O698 1.915 . S
Mg699 O700 1.915 . S
Mg699 O704 2.013 . S
Mg699 O710 2.114 . S
Mg699 O714 2.013 . S
Mg699 O720 2.114 . S
O700 Mg699 1.915 . S
O700 Mg701 1.936 . S
O700 Mg702 1.963 . S
Mg701 O700 1.936 . S
Mg701 O710 2.291 . S
Mg701 O715 2.081 . S
Mg701 O717 2.023 . S
Mg701 O721 2.031 . S
Mg702 O700 1.963 . S
Mg702 O706 1.986 . S
Mg702 O718 1.942 . S
Mg702 O719 1.955 . S
C703 O714 1.191 . S
C703 O716 1.307 . S
O704 Mg699 2.013 . S
O704 C723 1.191 . S
O705 Mg696 2.081 . S
O705 C713 1.335 . S
O706 Mg702 1.986 . S
O706 C723 1.307 . S
O707 Mg696 2.023 . S
O707 C722 1.264 . S
O708 Mg697 1.942 . S
O708 C713 1.247 . S
O709 Mg697 1.955 . S
O709 C722 1.273 . S
O710 Mg699 2.114 . S
O710 Mg701 2.291 . S
O710 C712 1.312 . S
O711 Mg696 2.031 . S
O711 C712 1.208 . S
C712 O710 1.312 . S
C712 O711 1.208 . S
C713 O705 1.335 . S
C713 O708 1.247 . S
O714 Mg699 2.013 . S
O714 C703 1.191 . S
O715 C694 1.331 . S
O715 Mg701 2.081 . S
O716 Mg697 1.986 . S
O716 C703 1.307 . S
O717 C695 1.264 . S
O717 Mg701 2.023 . S
O718 C694 1.244 . S
O718 Mg702 1.942 . S
O719 C695 1.273 . S
O719 Mg702 1.955 . S
O720 C693 1.312 . S
O720 Mg696 2.291 . S
O720 Mg699 2.114 . S
O721 C693 1.208 . S
O721 Mg701 2.031 . S
C722 O707 1.264 . S
C722 O709 1.273 . S
C723 O704 1.191 . S
C723 O706 1.307 . S
C724 C725 1.387 . S
C724 H728 0.950 1_455 S
C724 C733 1.390 . S
C725 C724 1.387 . S
C725 C727 1.387 . S
H726 C733 0.937 1_655 S
C727 C725 1.387 . S
C727 C729 1.390 . S
C727 H731 0.950 . S
H728 C724 0.950 1_655 S
C729 C727 1.390 . S
C729 C730 1.387 . S
C729 H732 0.950 . S
C730 C729 1.387 . S
C730 C733 1.387 . S
H731 C727 0.950 . S
H732 C729 0.950 . S
C733 C724 1.390 . S
C733 H726 0.937 1_455 S
C733 C730 1.387 . S
C734 C735 1.387 . S
C734 H738 0.950 . S
C734 C743 1.390 . S
C735 C734 1.387 . S
C735 C737 1.387 . S
H736 C743 0.950 . S
C737 C735 1.387 . S
C737 C739 1.390 . S
C737 H741 0.950 . S
H738 C734 0.950 . S
C739 C737 1.390 . S
C739 C740 1.387 . S
C739 H742 0.950 . S
C740 C739 1.387 . S
C740 C743 1.387 . S
H741 C737 0.950 . S
H742 C739 0.950 . S
C743 C734 1.390 . S
C743 H736 0.950 . S
C743 C740 1.387 . S
C744 C745 1.387 . S
C744 H748 0.950 . S
C744 C753 1.390 . S
C745 C744 1.387 . S
C745 C747 1.387 . S
H746 C753 0.950 . S
C747 C745 1.387 . S
C747 C749 1.390 . S
C747 H751 0.950 . S
H748 C744 0.950 . S
C749 C747 1.390 . S
C749 C750 1.387 . S
C749 H752 0.950 . S
C750 C749 1.387 . S
C750 C753 1.387 . S
H751 C747 0.950 . S
H752 C749 0.950 . S
C753 C744 1.390 . S
C753 H746 0.950 . S
C753 C750 1.387 . S
C754 C755 1.387 . S
C754 H758 0.950 . S
C754 C763 1.390 . S
C755 C754 1.387 . S
C755 C757 1.387 . S
H756 C763 0.950 . S
C757 C755 1.387 . S
C757 C759 1.390 . S
C757 H761 0.950 . S
H758 C754 0.950 . S
C759 C757 1.390 . S
C759 C760 1.387 . S
C759 H762 0.950 . S
C760 C759 1.387 . S
C760 C763 1.387 . S
H761 C757 0.950 . S
H762 C759 0.950 . S
C763 C754 1.390 . S
C763 H756 0.950 . S
C763 C760 1.387 . S
C764 C765 1.387 . S
C764 H768 0.950 . S
C764 C773 1.390 . S
C765 C764 1.387 . S
C765 C767 1.387 . S
H766 C773 0.950 . S
C767 C765 1.387 . S
C767 C769 1.390 . S
C767 H771 0.950 . S
H768 C764 0.950 . S
C769 C767 1.390 . S
C769 C770 1.387 . S
C769 H772 0.948 . S
C770 C769 1.387 . S
C770 C773 1.387 . S
H771 C767 0.950 . S
H772 C769 0.948 . S
C773 C764 1.390 . S
C773 H766 0.950 . S
C773 C770 1.387 . S
C774 C775 1.387 . S
C774 H778 0.950 . S
C774 C783 1.390 . S
C775 C774 1.387 . S
C775 C777 1.387 . S
H776 C783 0.950 . S
C777 C775 1.387 . S
C777 C779 1.390 . S
C777 H781 0.950 . S
H778 C774 0.950 . S
C779 C777 1.390 . S
C779 C780 1.387 . S
C779 H782 0.950 . S
C780 C779 1.387 . S
C780 C783 1.387 . S
H781 C777 0.950 . S
H782 C779 0.950 . S
C783 C774 1.390 . S
C783 H776 0.950 . S
C783 C780 1.387 . S
C784 C785 1.387 . S
C784 H788 0.950 . S
C784 C793 1.390 . S
C785 C784 1.387 . S
C785 C787 1.387 . S
H786 C793 0.950 . S
C787 C785 1.387 . S
C787 C789 1.390 . S
C787 H791 0.950 . S
H788 C784 0.950 . S
C789 C787 1.390 . S
C789 C790 1.387 . S
C789 H792 0.950 . S
C790 C789 1.387 . S
C790 C793 1.387 . S
H791 C787 0.950 . S
H792 C789 0.950 . S
C793 C784 1.390 . S
C793 H786 0.950 . S
C793 C790 1.387 . S
C794 C795 1.387 . S
C794 H798 0.950 . S
C794 C803 1.390 . S
C795 C794 1.387 . S
C795 C797 1.387 . S
H796 C803 0.950 . S
C797 C795 1.387 . S
C797 C799 1.390 . S
C797 H801 0.950 . S
H798 C794 0.950 . S
C799 C797 1.390 . S
C799 C800 1.387 . S
C799 H802 0.950 . S
C800 C799 1.387 . S
C800 C803 1.387 . S
H801 C797 0.950 . S
H802 C799 0.950 . S
C803 C794 1.390 . S
C803 H796 0.950 . S
C803 C800 1.387 . S
C804 C805 1.387 . S
C804 H808 0.928 1_545 S
C804 C813 1.390 . S
C805 C804 1.387 . S
C805 C807 1.387 . S
H806 C813 0.926 1_565 S
C807 C805 1.387 . S
C807 C809 1.390 . S
C807 H811 0.950 . S
H808 C804 0.928 1_565 S
C809 C807 1.390 . S
C809 C810 1.387 . S
C809 H812 0.950 . S
C810 C809 1.387 . S
C810 C813 1.387 . S
H811 C807 0.950 . S
H812 C809 0.950 . S
C813 C804 1.390 . S
C813 H806 0.926 1_545 S
C813 C810 1.387 . S
C814 C815 1.387 . S
C814 H818 0.950 . S
C814 C823 1.390 . S
C815 C814 1.387 . S
C815 C817 1.387 . S
H816 C823 0.950 1_565 S
C817 C815 1.387 . S
C817 C819 1.390 . S
C817 H821 0.950 . S
H818 C814 0.950 . S
C819 C817 1.390 . S
C819 C820 1.387 . S
C819 H822 0.950 . S
C820 C819 1.387 . S
C820 C823 1.387 . S
H821 C817 0.950 . S
H822 C819 0.950 . S
C823 C814 1.390 . S
C823 H816 0.950 1_545 S
C823 C820 1.387 . S
C824 C825 1.387 . S
C824 H828 0.950 . S
C824 C833 1.390 . S
C825 C824 1.387 . S
C825 C827 1.387 . S
H826 C833 0.950 . S
C827 C825 1.387 . S
C827 C829 1.390 . S
C827 H831 0.950 . S
H828 C824 0.950 . S
C829 C827 1.390 . S
C829 C830 1.387 . S
C829 H832 0.950 . S
C830 C829 1.387 . S
C830 C833 1.387 . S
H831 C827 0.950 . S
H832 C829 0.950 . S
C833 C824 1.390 . S
C833 H826 0.950 . S
C833 C830 1.387 . S
C834 C835 1.387 . S
C834 H838 0.950 . S
C834 C843 1.390 . S
C835 C834 1.387 . S
C835 C837 1.387 . S
H836 C843 0.950 . S
C837 C835 1.387 . S
C837 C839 1.390 . S
C837 H841 0.950 . S
H838 C834 0.950 . S
C839 C837 1.390 . S
C839 C840 1.387 . S
C839 H842 0.950 . S
C840 C839 1.387 . S
C840 C843 1.387 . S
H841 C837 0.950 . S
H842 C839 0.950 . S
C843 C834 1.390 . S
C843 H836 0.950 . S
C843 C840 1.387 . S
C844 C845 1.387 . S
C844 H848 0.950 . S
C844 C853 1.390 . S
C845 C844 1.387 . S
C845 C847 1.387 . S
H846 C853 0.950 . S
C847 C845 1.387 . S
C847 C849 1.390 . S
C847 H851 0.974 . S
H848 C844 0.950 . S
C849 C847 1.390 . S
C849 C850 1.387 . S
C849 H852 0.950 . S
C850 C849 1.387 . S
C850 C853 1.387 . S
H851 C847 0.974 . S
H852 C849 0.950 . S
C853 C844 1.390 . S
C853 H846 0.950 . S
C853 C850 1.387 . S
C854 C855 1.387 . S
C854 H858 0.950 . S
C854 C863 1.390 . S
C855 C854 1.387 . S
C855 C857 1.387 . S
H856 C863 0.950 . S
C857 C855 1.387 . S
C857 C859 1.390 . S
C857 H861 0.950 . S
H858 C854 0.950 . S
C859 C857 1.390 . S
C859 C860 1.387 . S
C859 H862 0.950 . S
C860 C859 1.387 . S
C860 C863 1.387 . S
H861 C857 0.950 . S
H862 C859 0.950 . S
C863 C854 1.390 . S
C863 H856 0.950 . S
C863 C860 1.387 . S
C864 C865 1.387 . S
C864 H868 0.950 . S
C864 C873 1.390 . S
C865 C864 1.387 . S
C865 C867 1.387 . S
H866 C873 0.950 . S
C867 C865 1.387 . S
C867 C869 1.390 . S
C867 H871 0.950 . S
H868 C864 0.950 . S
C869 C867 1.390 . S
C869 C870 1.387 . S
C869 H872 0.950 . S
C870 C869 1.387 . S
C870 C873 1.387 . S
H871 C867 0.950 . S
H872 C869 0.950 . S
C873 C864 1.390 . S
C873 H866 0.950 . S
C873 C870 1.387 . S
C874 C875 1.387 . S
C874 H878 0.950 . S
C874 C883 1.390 . S
C875 C874 1.387 . S
C875 C877 1.387 . S
H876 C883 0.950 . S
C877 C875 1.387 . S
C877 C879 1.390 . S
C877 H881 0.950 . S
H878 C874 0.950 . S
C879 C877 1.390 . S
C879 C880 1.387 . S
C879 H882 0.950 . S
C880 C879 1.387 . S
C880 C883 1.387 . S
H881 C877 0.950 . S
H882 C879 0.950 . S
C883 C874 1.390 . S
C883 H876 0.950 . S
C883 C880 1.387 . S
C884 C885 1.387 . S
C884 H888 0.950 1_554 S
C884 C893 1.390 . S
C885 C884 1.387 . S
C885 C887 1.387 . S
H886 C893 0.923 1_556 S
C887 C885 1.387 . S
C887 C889 1.390 . S
C887 H891 0.950 . S
H888 C884 0.950 1_556 S
C889 C887 1.390 . S
C889 C890 1.387 . S
C889 H892 0.950 . S
C890 C889 1.387 . S
C890 C893 1.387 . S
H891 C887 0.950 . S
H892 C889 0.950 . S
C893 C884 1.390 . S
C893 H886 0.923 1_554 S
C893 C890 1.387 . S
C894 C895 1.387 . S
C894 H898 0.950 . S
C894 C903 1.390 . S
C895 C894 1.387 . S
C895 C897 1.387 . S
H896 C903 0.950 . S
C897 C895 1.387 . S
C897 C899 1.390 . S
C897 H901 0.950 . S
H898 C894 0.950 . S
C899 C897 1.390 . S
C899 C900 1.387 . S
C899 H902 0.950 . S
C900 C899 1.387 . S
C900 C903 1.387 . S
H901 C897 0.950 . S
H902 C899 0.950 . S
C903 C894 1.390 . S
C903 H896 0.950 . S
C903 C900 1.387 . S
C904 C905 1.387 . S
C904 H908 0.950 . S
C904 C913 1.390 . S
C905 C904 1.387 . S
C905 C907 1.387 . S
H906 C913 0.950 . S
C907 C905 1.387 . S
C907 C909 1.390 . S
C907 H911 0.950 . S
H908 C904 0.950 . S
C909 C907 1.390 . S
C909 C910 1.387 . S
C909 H912 0.950 . S
C910 C909 1.387 . S
C910 C913 1.387 . S
H911 C907 0.950 . S
H912 C909 0.950 . S
C913 C904 1.390 . S
C913 H906 0.950 . S
C913 C910 1.387 . S
C914 C915 1.387 . S
C914 H918 0.950 . S
C914 C923 1.390 . S
C915 C914 1.387 . S
C915 C917 1.387 . S
H916 C923 0.950 . S
C917 C915 1.387 . S
C917 C919 1.390 . S
C917 H921 0.950 . S
H918 C914 0.950 . S
C919 C917 1.390 . S
C919 C920 1.387 . S
C919 H922 0.950 . S
C920 C919 1.387 . S
C920 C923 1.387 . S
H921 C917 0.950 . S
H922 C919 0.950 . S
C923 C914 1.390 . S
C923 H916 0.950 . S
C923 C920 1.387 . S
C924 C925 1.387 . S
C924 H928 0.950 . S
C924 C933 1.390 . S
C925 C924 1.387 . S
C925 C927 1.387 . S
H926 C933 0.950 . S
C927 C925 1.387 . S
C927 C929 1.390 . S
C927 H931 0.950 . S
H928 C924 0.950 . S
C929 C927 1.390 . S
C929 C930 1.387 . S
C929 H932 0.950 . S
C930 C929 1.387 . S
C930 C933 1.387 . S
H931 C927 0.950 . S
H932 C929 0.950 . S
C933 C924 1.390 . S
C933 H926 0.950 . S
C933 C930 1.387 . S
C934 C935 1.387 . S
C934 H938 0.950 . S
C934 C943 1.390 . S
C935 C934 1.387 . S
C935 C937 1.387 . S
H936 C943 0.950 . S
C937 C935 1.387 . S
C937 C939 1.390 . S
C937 H941 0.950 . S
H938 C934 0.950 . S
C939 C937 1.390 . S
C939 C940 1.387 . S
C939 H942 0.950 . S
C940 C939 1.387 . S
C940 C943 1.387 . S
H941 C937 0.950 . S
H942 C939 0.950 . S
C943 C934 1.390 . S
C943 H936 0.950 . S
C943 C940 1.387 . S
C944 C945 1.387 . S
C944 H948 0.950 . S
C944 C953 1.390 . S
C945 C944 1.387 . S
C945 C947 1.387 . S
H946 C953 0.950 . S
C947 C945 1.387 . S
C947 C949 1.390 . S
C947 H951 0.950 . S
H948 C944 0.950 . S
C949 C947 1.390 . S
C949 C950 1.387 . S
C949 H952 0.950 . S
C950 C949 1.387 . S
C950 C953 1.387 . S
H951 C947 0.950 . S
H952 C949 0.950 . S
C953 C944 1.390 . S
C953 H946 0.950 . S
C953 C950 1.387 . S
C954 C955 1.387 . S
C954 H958 0.950 . S
C954 C963 1.390 . S
C955 C954 1.387 . S
C955 C957 1.387 . S
H956 C963 0.950 . S
C957 C955 1.387 . S
C957 C959 1.390 . S
C957 H961 0.950 . S
H958 C954 0.950 . S
C959 C957 1.390 . S
C959 C960 1.387 . S
C959 H962 0.950 . S
C960 C959 1.387 . S
C960 C963 1.387 . S
H961 C957 0.950 . S
H962 C959 0.950 . S
C963 C954 1.390 . S
C963 H956 0.950 . S
C963 C960 1.387 . S
C964 C965 1.387 . S
C964 H968 0.950 . S
C964 C973 1.390 . S
C965 C964 1.387 . S
C965 C967 1.387 . S
H966 C973 0.950 . S
C967 C965 1.387 . S
C967 C969 1.390 . S
C967 H971 0.950 . S
H968 C964 0.950 . S
C969 C967 1.390 . S
C969 C970 1.387 . S
C969 H972 0.950 . S
C970 C969 1.387 . S
C970 C973 1.387 . S
H971 C967 0.950 . S
H972 C969 0.950 . S
C973 C964 1.390 . S
C973 H966 0.950 . S
C973 C970 1.387 . S
C974 C975 1.387 . S
C974 H978 0.950 . S
C974 C983 1.390 . S
C975 C974 1.387 . S
C975 C977 1.387 . S
H976 C983 0.950 . S
C977 C975 1.387 . S
C977 C979 1.390 . S
C977 H981 0.950 . S
H978 C974 0.950 . S
C979 C977 1.390 . S
C979 C980 1.387 . S
C979 H982 0.950 . S
C980 C979 1.387 . S
C980 C983 1.387 . S
H981 C977 0.950 . S
H982 C979 0.950 . S
C983 C974 1.390 . S
C983 H976 0.950 . S
C983 C980 1.387 . S
C984 C985 1.387 . S
C984 H988 0.950 . S
C984 C993 1.390 . S
C985 C984 1.387 . S
C985 C987 1.387 . S
H986 C993 0.950 . S
C987 C985 1.387 . S
C987 C989 1.390 . S
C987 H991 0.950 . S
H988 C984 0.950 . S
C989 C987 1.390 . S
C989 C990 1.387 . S
C989 H992 0.950 . S
C990 C989 1.387 . S
C990 C993 1.387 . S
H991 C987 0.950 . S
H992 C989 0.950 . S
C993 C984 1.390 . S
C993 H986 0.950 . S
C993 C990 1.387 . S
C994 C995 1.387 . S
C994 H998 0.950 . S
C994 C1003 1.390 . S
C995 C994 1.387 . S
C995 C997 1.387 . S
H996 C1003 0.950 . S
C997 C995 1.387 . S
C997 C999 1.390 . S
C997 H1001 0.950 . S
H998 C994 0.950 . S
C999 C997 1.390 . S
C999 C1000 1.387 . S
C999 H1002 0.950 . S
C1000 C999 1.387 . S
C1000 C1003 1.387 . S
H1001 C997 0.950 . S
H1002 C999 0.950 . S
C1003 C994 1.390 . S
C1003 H996 0.950 . S
C1003 C1000 1.387 . S
C1004 C1005 1.387 . S
C1004 H1008 0.950 . S
C1004 C1013 1.390 . S
C1005 C1004 1.387 . S
C1005 C1007 1.387 . S
H1006 C1013 0.950 . S
C1007 C1005 1.387 . S
C1007 C1009 1.390 . S
C1007 H1011 0.950 . S
H1008 C1004 0.950 . S
C1009 C1007 1.390 . S
C1009 C1010 1.387 . S
C1009 H1012 0.950 . S
C1010 C1009 1.387 . S
C1010 C1013 1.387 . S
H1011 C1007 0.950 . S
H1012 C1009 0.950 . S
C1013 C1004 1.390 . S
C1013 H1006 0.950 . S
C1013 C1010 1.387 . S
C1014 C1015 1.387 . S
C1014 H1018 0.950 . S
C1014 C1023 1.390 . S
C1015 C1014 1.387 . S
C1015 C1017 1.387 . S
H1016 C1023 0.950 . S
C1017 C1015 1.387 . S
C1017 C1019 1.390 . S
C1017 H1021 0.950 . S
H1018 C1014 0.950 . S
C1019 C1017 1.390 . S
C1019 C1020 1.387 . S
C1019 H1022 0.950 . S
C1020 C1019 1.387 . S
C1020 C1023 1.387 . S
H1021 C1017 0.950 . S
H1022 C1019 0.950 . S
C1023 C1014 1.390 . S
C1023 H1016 0.950 . S
C1023 C1020 1.387 . S
C1024 C1025 1.387 . S
C1024 H1028 0.950 . S
C1024 C1033 1.390 . S
C1025 C1024 1.387 . S
C1025 C1027 1.387 . S
H1026 C1033 0.950 . S
C1027 C1025 1.387 . S
C1027 C1029 1.390 . S
C1027 H1031 0.950 . S
H1028 C1024 0.950 . S
C1029 C1027 1.390 . S
C1029 C1030 1.387 . S
C1029 H1032 0.950 . S
C1030 C1029 1.387 . S
C1030 C1033 1.387 . S
H1031 C1027 0.950 . S
H1032 C1029 0.950 . S
C1033 C1024 1.390 . S
C1033 H1026 0.950 . S
C1033 C1030 1.387 . S
C1034 C1035 1.387 . S
C1034 H1038 0.950 . S
C1034 C1043 1.390 . S
C1035 C1034 1.387 . S
C1035 C1037 1.387 . S
H1036 C1043 0.950 . S
C1037 C1035 1.387 . S
C1037 C1039 1.390 . S
C1037 H1041 0.950 . S
H1038 C1034 0.950 . S
C1039 C1037 1.390 . S
C1039 C1040 1.387 . S
C1039 H1042 0.950 . S
C1040 C1039 1.387 . S
C1040 C1043 1.387 . S
H1041 C1037 0.950 . S
H1042 C1039 0.950 . S
C1043 C1034 1.390 . S
C1043 H1036 0.950 . S
C1043 C1040 1.387 . S
C1044 C1045 1.387 . S
C1044 H1048 0.950 . S
C1044 C1053 1.390 . S
C1045 C1044 1.387 . S
C1045 C1047 1.387 . S
H1046 C1053 0.950 . S
C1047 C1045 1.387 . S
C1047 C1049 1.390 . S
C1047 H1051 0.950 . S
H1048 C1044 0.950 . S
C1049 C1047 1.390 . S
C1049 C1050 1.387 . S
C1049 H1052 0.950 . S
C1050 C1049 1.387 . S
C1050 C1053 1.387 . S
H1051 C1047 0.950 . S
H1052 C1049 0.950 . S
C1053 C1044 1.390 . S
C1053 H1046 0.950 . S
C1053 C1050 1.387 . S
C1054 C1055 1.387 . S
C1054 H1058 0.950 . S
C1054 C1063 1.390 . S
C1055 C1054 1.387 . S
C1055 C1057 1.387 . S
H1056 C1063 0.950 . S
C1057 C1055 1.387 . S
C1057 C1059 1.390 . S
C1057 H1061 0.950 . S
H1058 C1054 0.950 . S
C1059 C1057 1.390 . S
C1059 C1060 1.387 . S
C1059 H1062 0.950 . S
C1060 C1059 1.387 . S
C1060 C1063 1.387 . S
H1061 C1057 0.950 . S
H1062 C1059 0.950 . S
C1063 C1054 1.390 . S
C1063 H1056 0.950 . S
C1063 C1060 1.387 . S
C1064 C1065 1.387 . S
C1064 H1068 0.950 . S
C1064 C1073 1.390 . S
C1065 C1064 1.387 . S
C1065 C1067 1.387 . S
H1066 C1073 0.950 . S
C1067 C1065 1.387 . S
C1067 C1069 1.390 . S
C1067 H1071 0.950 1_565 S
H1068 C1064 0.950 . S
C1069 C1067 1.390 . S
C1069 C1070 1.387 . S
C1069 H1072 0.950 1_565 S
C1070 C1069 1.387 . S
C1070 C1073 1.387 . S
H1071 C1067 0.950 1_545 S
H1072 C1069 0.950 1_545 S
C1073 C1064 1.390 . S
C1073 H1066 0.950 . S
C1073 C1070 1.387 . S
C1074 C1075 1.387 . S
C1074 H1078 0.950 . S
C1074 C1083 1.390 . S
C1075 C1074 1.387 . S
C1075 C1077 1.387 . S
H1076 C1083 0.950 . S
C1077 C1075 1.387 . S
C1077 C1079 1.390 . S
C1077 H1081 0.950 . S
H1078 C1074 0.950 . S
C1079 C1077 1.390 . S
C1079 C1080 1.387 . S
C1079 H1082 0.950 . S
C1080 C1079 1.387 . S
C1080 C1083 1.387 . S
H1081 C1077 0.950 . S
H1082 C1079 0.950 . S
C1083 C1074 1.390 . S
C1083 H1076 0.950 . S
C1083 C1080 1.387 . S
C1084 C1085 1.387 . S
C1084 H1088 0.950 . S
C1084 C1093 1.390 . S
C1085 C1084 1.387 . S
C1085 C1087 1.387 . S
H1086 C1093 0.950 . S
C1087 C1085 1.387 . S
C1087 C1089 1.390 . S
C1087 H1091 0.950 . S
H1088 C1084 0.950 . S
C1089 C1087 1.390 . S
C1089 C1090 1.387 . S
C1089 H1092 0.950 . S
C1090 C1089 1.387 . S
C1090 C1093 1.387 . S
H1091 C1087 0.950 . S
H1092 C1089 0.950 . S
C1093 C1084 1.390 . S
C1093 H1086 0.950 . S
C1093 C1090 1.387 . S
C1094 C1095 1.387 . S
C1094 H1098 0.950 . S
C1094 C1103 1.390 . S
C1095 C1094 1.387 . S
C1095 C1097 1.387 . S
H1096 C1103 0.950 . S
C1097 C1095 1.387 . S
C1097 C1099 1.390 . S
C1097 H1101 0.950 . S
H1098 C1094 0.950 . S
C1099 C1097 1.390 . S
C1099 C1100 1.387 . S
C1099 H1102 0.950 . S
C1100 C1099 1.387 . S
C1100 C1103 1.387 . S
H1101 C1097 0.950 . S
H1102 C1099 0.950 . S
C1103 C1094 1.390 . S
C1103 H1096 0.950 . S
C1103 C1100 1.387 . S
C1104 C1105 1.387 . S
C1104 H1108 0.950 . S
C1104 C1113 1.390 . S
C1105 C1104 1.387 . S
C1105 C1107 1.387 . S
H1106 C1113 0.950 . S
C1107 C1105 1.387 . S
C1107 C1109 1.390 . S
C1107 H1111 0.950 . S
H1108 C1104 0.950 . S
C1109 C1107 1.390 . S
C1109 C1110 1.387 . S
C1109 H1112 0.950 . S
C1110 C1109 1.387 . S
C1110 C1113 1.387 . S
H1111 C1107 0.950 . S
H1112 C1109 0.950 . S
C1113 C1104 1.390 . S
C1113 H1106 0.950 . S
C1113 C1110 1.387 . S
C1114 C1115 1.387 . S
C1114 H1118 0.950 . S
C1114 C1123 1.390 . S
C1115 C1114 1.387 . S
C1115 C1117 1.387 . S
H1116 C1123 0.950 . S
C1117 C1115 1.387 . S
C1117 C1119 1.390 . S
C1117 H1121 0.950 . S
H1118 C1114 0.950 . S
C1119 C1117 1.390 . S
C1119 C1120 1.387 . S
C1119 H1122 0.950 . S
C1120 C1119 1.387 . S
C1120 C1123 1.387 . S
H1121 C1117 0.950 . S
H1122 C1119 0.950 . S
C1123 C1114 1.390 . S
C1123 H1116 0.950 . S
C1123 C1120 1.387 . S
C1124 C1125 1.387 . S
C1124 H1128 0.950 . S
C1124 C1133 1.390 . S
C1125 C1124 1.387 . S
C1125 C1127 1.387 . S
H1126 C1133 0.950 . S
C1127 C1125 1.387 . S
C1127 C1129 1.390 . S
C1127 H1131 0.950 . S
H1128 C1124 0.950 . S
C1129 C1127 1.390 . S
C1129 C1130 1.387 . S
C1129 H1132 0.950 . S
C1130 C1129 1.387 . S
C1130 C1133 1.387 . S
H1131 C1127 0.950 . S
H1132 C1129 0.950 . S
C1133 C1124 1.390 . S
C1133 H1126 0.950 . S
C1133 C1130 1.387 . S
C1134 C1135 1.387 . S
C1134 H1138 0.950 . S
C1134 C1143 1.390 . S
C1135 C1134 1.387 . S
C1135 C1137 1.387 . S
H1136 C1143 0.950 . S
C1137 C1135 1.387 . S
C1137 C1139 1.390 . S
C1137 H1141 0.950 1_556 S
H1138 C1134 0.950 . S
C1139 C1137 1.390 . S
C1139 C1140 1.387 . S
C1139 H1142 0.950 1_556 S
C1140 C1139 1.387 . S
C1140 C1143 1.387 . S
H1141 C1137 0.950 1_554 S
H1142 C1139 0.950 1_554 S
C1143 C1134 1.390 . S
C1143 H1136 0.950 . S
C1143 C1140 1.387 . S
C1144 C1145 1.387 . S
C1144 H1148 0.950 . S
C1144 C1153 1.390 . S
C1145 C1144 1.387 . S
C1145 C1147 1.387 . S
H1146 C1153 0.950 . S
C1147 C1145 1.387 . S
C1147 C1149 1.390 . S
C1147 H1151 0.950 . S
H1148 C1144 0.950 . S
C1149 C1147 1.390 . S
C1149 C1150 1.387 . S
C1149 H1152 0.950 . S
C1150 C1149 1.387 . S
C1150 C1153 1.387 . S
H1151 C1147 0.950 . S
H1152 C1149 0.950 . S
C1153 C1144 1.390 . S
C1153 H1146 0.950 . S
C1153 C1150 1.387 . S
C1154 C1155 1.387 . S
C1154 H1158 0.950 . S
C1154 C1163 1.390 . S
C1155 C1154 1.387 . S
C1155 C1157 1.387 . S
H1156 C1163 0.950 . S
C1157 C1155 1.387 . S
C1157 C1159 1.390 . S
C1157 H1161 0.950 . S
H1158 C1154 0.950 . S
C1159 C1157 1.390 . S
C1159 C1160 1.387 . S
C1159 H1162 0.950 . S
C1160 C1159 1.387 . S
C1160 C1163 1.387 . S
H1161 C1157 0.950 . S
H1162 C1159 0.950 . S
C1163 C1154 1.390 . S
C1163 H1156 0.950 . S
C1163 C1160 1.387 . S
C1164 C1165 1.387 . S
C1164 H1168 0.950 . S
C1164 C1173 1.390 . S
C1165 C1164 1.387 . S
C1165 C1167 1.387 . S
H1166 C1173 0.950 . S
C1167 C1165 1.387 . S
C1167 C1169 1.390 . S
C1167 H1171 0.950 . S
H1168 C1164 0.950 . S
C1169 C1167 1.390 . S
C1169 C1170 1.387 . S
C1169 H1172 0.950 . S
C1170 C1169 1.387 . S
C1170 C1173 1.387 . S
H1171 C1167 0.950 . S
H1172 C1169 0.950 . S
C1173 C1164 1.390 . S
C1173 H1166 0.950 . S
C1173 C1170 1.387 . S
C1174 C1175 1.387 . S
C1174 H1178 0.950 . S
C1174 C1183 1.390 . S
C1175 C1174 1.387 . S
C1175 C1177 1.387 . S
H1176 C1183 0.950 . S
C1177 C1175 1.387 . S
C1177 C1179 1.390 . S
C1177 H1181 0.950 . S
H1178 C1174 0.950 . S
C1179 C1177 1.390 . S
C1179 C1180 1.387 . S
C1179 H1182 0.950 . S
C1180 C1179 1.387 . S
C1180 C1183 1.387 . S
H1181 C1177 0.950 . S
H1182 C1179 0.950 . S
C1183 C1174 1.390 . S
C1183 H1176 0.950 . S
C1183 C1180 1.387 . S
C1184 C1185 1.387 . S
C1184 H1188 0.950 . S
C1184 C1193 1.390 . S
C1185 C1184 1.387 . S
C1185 C1187 1.387 . S
H1186 C1193 0.950 . S
C1187 C1185 1.387 . S
C1187 C1189 1.390 . S
C1187 H1191 0.950 . S
H1188 C1184 0.950 . S
C1189 C1187 1.390 . S
C1189 C1190 1.387 . S
C1189 H1192 0.950 . S
C1190 C1189 1.387 . S
C1190 C1193 1.387 . S
H1191 C1187 0.950 . S
H1192 C1189 0.950 . S
C1193 C1184 1.390 . S
C1193 H1186 0.950 . S
C1193 C1190 1.387 . S
C1194 C1195 1.387 . S
C1194 H1198 0.950 . S
C1194 C1203 1.390 . S
C1195 C1194 1.387 . S
C1195 C1197 1.387 . S
H1196 C1203 0.950 . S
C1197 C1195 1.387 . S
C1197 C1199 1.390 . S
C1197 H1201 0.950 . S
H1198 C1194 0.950 . S
C1199 C1197 1.390 . S
C1199 C1200 1.387 . S
C1199 H1202 0.950 . S
C1200 C1199 1.387 . S
C1200 C1203 1.387 . S
H1201 C1197 0.950 . S
H1202 C1199 0.950 . S
C1203 C1194 1.390 . S
C1203 H1196 0.950 . S
C1203 C1200 1.387 . S
C1204 C1205 1.387 . S
C1204 H1208 0.950 . S
C1204 C1213 1.390 . S
C1205 C1204 1.387 . S
C1205 C1207 1.387 . S
H1206 C1213 0.950 . S
C1207 C1205 1.387 . S
C1207 C1209 1.390 . S
C1207 H1211 0.950 . S
H1208 C1204 0.950 . S
C1209 C1207 1.390 . S
C1209 C1210 1.387 . S
C1209 H1212 0.950 . S
C1210 C1209 1.387 . S
C1210 C1213 1.387 . S
H1211 C1207 0.950 . S
H1212 C1209 0.950 . S
C1213 C1204 1.390 . S
C1213 H1206 0.950 . S
C1213 C1210 1.387 . S
C1214 C1215 1.387 . S
C1214 H1218 0.950 . S
C1214 C1223 1.390 . S
C1215 C1214 1.387 . S
C1215 C1217 1.387 . S
H1216 C1223 0.950 . S
C1217 C1215 1.387 . S
C1217 C1219 1.390 . S
C1217 H1221 0.950 . S
H1218 C1214 0.950 . S
C1219 C1217 1.390 . S
C1219 C1220 1.387 . S
C1219 H1222 0.950 . S
C1220 C1219 1.387 . S
C1220 C1223 1.387 . S
H1221 C1217 0.950 . S
H1222 C1219 0.950 . S
C1223 C1214 1.390 . S
C1223 H1216 0.950 . S
C1223 C1220 1.387 . S
C1224 C1225 1.387 . S
C1224 H1228 0.950 . S
C1224 C1233 1.390 . S
C1225 C1224 1.387 . S
C1225 C1227 1.387 . S
H1226 C1233 0.950 . S
C1227 C1225 1.387 . S
C1227 C1229 1.390 . S
C1227 H1231 0.950 . S
H1228 C1224 0.950 . S
C1229 C1227 1.390 . S
C1229 C1230 1.387 . S
C1229 H1232 0.950 . S
C1230 C1229 1.387 . S
C1230 C1233 1.387 . S
H1231 C1227 0.950 . S
H1232 C1229 0.950 . S
C1233 C1224 1.390 . S
C1233 H1226 0.950 . S
C1233 C1230 1.387 . S
C1234 C1235 1.387 . S
C1234 H1238 0.950 . S
C1234 C1243 1.390 . S
C1235 C1234 1.387 . S
C1235 C1237 1.387 . S
H1236 C1243 0.950 . S
C1237 C1235 1.387 . S
C1237 C1239 1.390 . S
C1237 H1241 0.950 . S
H1238 C1234 0.950 . S
C1239 C1237 1.390 . S
C1239 C1240 1.387 . S
C1239 H1242 0.950 . S
C1240 C1239 1.387 . S
C1240 C1243 1.387 . S
H1241 C1237 0.950 . S
H1242 C1239 0.950 . S
C1243 C1234 1.390 . S
C1243 H1236 0.950 . S
C1243 C1240 1.387 . S
C1244 C1245 1.387 . S
C1244 H1248 0.950 . S
C1244 C1253 1.390 . S
C1245 C1244 1.387 . S
C1245 C1247 1.387 . S
H1246 C1253 0.950 . S
C1247 C1245 1.387 . S
C1247 C1249 1.390 . S
C1247 H1251 0.950 . S
H1248 C1244 0.950 . S
C1249 C1247 1.390 . S
C1249 C1250 1.387 . S
C1249 H1252 0.950 . S
C1250 C1249 1.387 . S
C1250 C1253 1.387 . S
H1251 C1247 0.950 . S
H1252 C1249 0.950 . S
C1253 C1244 1.390 . S
C1253 H1246 0.950 . S
C1253 C1250 1.387 . S
C1254 C1255 1.387 . S
C1254 H1258 0.950 . S
C1254 C1263 1.390 . S
C1255 C1254 1.387 . S
C1255 C1257 1.387 . S
H1256 C1263 0.950 . S
C1257 C1255 1.387 . S
C1257 C1259 1.390 . S
C1257 H1261 0.950 . S
H1258 C1254 0.950 . S
C1259 C1257 1.390 . S
C1259 C1260 1.387 . S
C1259 H1262 0.950 . S
C1260 C1259 1.387 . S
C1260 C1263 1.387 . S
H1261 C1257 0.950 . S
H1262 C1259 0.950 . S
C1263 C1254 1.390 . S
C1263 H1256 0.950 . S
C1263 C1260 1.387 . S
C1264 C1265 1.387 . S
C1264 H1268 0.950 . S
C1264 C1273 1.390 . S
C1265 C1264 1.387 . S
C1265 C1267 1.387 . S
H1266 C1273 0.950 . S
C1267 C1265 1.387 . S
C1267 C1269 1.390 . S
C1267 H1271 0.950 . S
H1268 C1264 0.950 . S
C1269 C1267 1.390 . S
C1269 C1270 1.387 . S
C1269 H1272 0.950 . S
C1270 C1269 1.387 . S
C1270 C1273 1.387 . S
H1271 C1267 0.950 . S
H1272 C1269 0.950 . S
C1273 C1264 1.390 . S
C1273 H1266 0.950 . S
C1273 C1270 1.387 . S
C1274 C1275 1.387 . S
C1274 H1278 0.950 . S
C1274 C1283 1.390 . S
C1275 C1274 1.387 . S
C1275 C1277 1.387 . S
H1276 C1283 0.950 . S
C1277 C1275 1.387 . S
C1277 C1279 1.390 . S
C1277 H1281 0.950 . S
H1278 C1274 0.950 . S
C1279 C1277 1.390 . S
C1279 C1280 1.387 . S
C1279 H1282 0.950 . S
C1280 C1279 1.387 . S
C1280 C1283 1.387 . S
H1281 C1277 0.950 . S
H1282 C1279 0.950 . S
C1283 C1274 1.390 . S
C1283 H1276 0.950 . S
C1283 C1280 1.387 . S
C1284 C1285 1.387 . S
C1284 H1288 0.950 . S
C1284 C1293 1.390 . S
C1285 C1284 1.387 . S
C1285 C1287 1.387 . S
H1286 C1293 0.950 . S
C1287 C1285 1.387 . S
C1287 C1289 1.390 . S
C1287 H1291 0.950 . S
H1288 C1284 0.950 . S
C1289 C1287 1.390 . S
C1289 C1290 1.387 . S
C1289 H1292 0.950 . S
C1290 C1289 1.387 . S
C1290 C1293 1.387 . S
H1291 C1287 0.950 . S
H1292 C1289 0.950 . S
C1293 C1284 1.390 . S
C1293 H1286 0.950 . S
C1293 C1290 1.387 . S
C1294 C1295 1.387 . S
C1294 H1298 0.950 . S
C1294 C1303 1.390 . S
C1295 C1294 1.387 . S
C1295 C1297 1.387 . S
H1296 C1303 0.950 1_556 S
C1297 C1295 1.387 . S
C1297 C1299 1.390 . S
C1297 H1301 0.950 . S
H1298 C1294 0.950 . S
C1299 C1297 1.390 . S
C1299 C1300 1.387 . S
C1299 H1302 0.950 . S
C1300 C1299 1.387 . S
C1300 C1303 1.387 . S
H1301 C1297 0.950 . S
H1302 C1299 0.950 . S
C1303 C1294 1.390 . S
C1303 H1296 0.950 1_554 S
C1303 C1300 1.387 . S
C1304 C1305 1.387 . S
C1304 H1308 0.950 . S
C1304 C1313 1.390 . S
C1305 C1304 1.387 . S
C1305 C1307 1.387 . S
H1306 C1313 0.950 . S
C1307 C1305 1.387 . S
C1307 C1309 1.390 . S
C1307 H1311 0.950 . S
H1308 C1304 0.950 . S
C1309 C1307 1.390 . S
C1309 C1310 1.387 . S
C1309 H1312 0.950 . S
C1310 C1309 1.387 . S
C1310 C1313 1.387 . S
H1311 C1307 0.950 . S
H1312 C1309 0.950 . S
C1313 C1304 1.390 . S
C1313 H1306 0.950 . S
C1313 C1310 1.387 . S
C1314 C1315 1.387 . S
C1314 H1318 0.950 . S
C1314 C1323 1.390 . S
C1315 C1314 1.387 . S
C1315 C1317 1.387 . S
H1316 C1323 0.950 . S
C1317 C1315 1.387 . S
C1317 C1319 1.390 . S
C1317 H1321 0.950 . S
H1318 C1314 0.950 . S
C1319 C1317 1.390 . S
C1319 C1320 1.387 . S
C1319 H1322 0.950 1_554 S
C1320 C1319 1.387 . S
C1320 C1323 1.387 . S
H1321 C1317 0.950 . S
H1322 C1319 0.950 1_556 S
C1323 C1314 1.390 . S
C1323 H1316 0.950 . S
C1323 C1320 1.387 . S
C1324 C1325 1.387 . S
C1324 H1328 0.950 . S
C1324 C1333 1.390 . S
C1325 C1324 1.387 . S
C1325 C1327 1.387 . S
H1326 C1333 0.950 . S
C1327 C1325 1.387 . S
C1327 C1329 1.390 . S
C1327 H1331 0.950 . S
H1328 C1324 0.950 . S
C1329 C1327 1.390 . S
C1329 C1330 1.387 . S
C1329 H1332 0.950 . S
C1330 C1329 1.387 . S
C1330 C1333 1.387 . S
H1331 C1327 0.950 . S
H1332 C1329 0.950 . S
C1333 C1324 1.390 . S
C1333 H1326 0.950 . S
C1333 C1330 1.387 . S
C1334 C1335 1.387 . S
C1334 H1338 0.950 . S
C1334 C1343 1.390 . S
C1335 C1334 1.387 . S
C1335 C1337 1.387 . S
H1336 C1343 0.950 . S
C1337 C1335 1.387 . S
C1337 C1339 1.390 . S
C1337 H1341 0.950 . S
H1338 C1334 0.950 . S
C1339 C1337 1.390 . S
C1339 C1340 1.387 . S
C1339 H1342 0.950 . S
C1340 C1339 1.387 . S
C1340 C1343 1.387 . S
H1341 C1337 0.950 . S
H1342 C1339 0.950 . S
C1343 C1334 1.390 . S
C1343 H1336 0.950 . S
C1343 C1340 1.387 . S
C1344 C1345 1.387 . S
C1344 H1348 0.950 . S
C1344 C1353 1.390 . S
C1345 C1344 1.387 . S
C1345 C1347 1.387 . S
H1346 C1353 0.950 . S
C1347 C1345 1.387 . S
C1347 C1349 1.390 . S
C1347 H1351 0.950 . S
H1348 C1344 0.950 . S
C1349 C1347 1.390 . S
C1349 C1350 1.387 . S
C1349 H1352 0.950 . S
C1350 C1349 1.387 . S
C1350 C1353 1.387 . S
H1351 C1347 0.950 . S
H1352 C1349 0.950 . S
C1353 C1344 1.390 . S
C1353 H1346 0.950 . S
C1353 C1350 1.387 . S
C1354 C1355 1.387 . S
C1354 H1358 0.950 . S
C1354 C1363 1.390 . S
C1355 C1354 1.387 . S
C1355 C1357 1.387 . S
H1356 C1363 0.950 . S
C1357 C1355 1.387 . S
C1357 C1359 1.390 . S
C1357 H1361 0.950 . S
H1358 C1354 0.950 . S
C1359 C1357 1.390 . S
C1359 C1360 1.387 . S
C1359 H1362 0.950 1_556 S
C1360 C1359 1.387 . S
C1360 C1363 1.387 . S
H1361 C1357 0.950 . S
H1362 C1359 0.950 1_554 S
C1363 C1354 1.390 . S
C1363 H1356 0.950 . S
C1363 C1360 1.387 . S
C1364 C1365 1.387 . S
C1364 H1368 0.950 . S
C1364 C1373 1.390 . S
C1365 C1364 1.387 . S
C1365 C1367 1.387 . S
H1366 C1373 0.950 . S
C1367 C1365 1.387 . S
C1367 C1369 1.390 . S
C1367 H1371 0.950 . S
H1368 C1364 0.950 . S
C1369 C1367 1.390 . S
C1369 C1370 1.387 . S
C1369 H1372 0.950 . S
C1370 C1369 1.387 . S
C1370 C1373 1.387 . S
H1371 C1367 0.950 . S
H1372 C1369 0.950 . S
C1373 C1364 1.390 . S
C1373 H1366 0.950 . S
C1373 C1370 1.387 . S
C1374 C1375 1.387 . S
C1374 H1378 0.950 . S
C1374 C1383 1.390 . S
C1375 C1374 1.387 . S
C1375 C1377 1.387 . S
H1376 C1383 0.950 . S
C1377 C1375 1.387 . S
C1377 C1379 1.390 . S
C1377 H1381 0.950 . S
H1378 C1374 0.950 . S
C1379 C1377 1.390 . S
C1379 C1380 1.387 . S
C1379 H1382 0.950 . S
C1380 C1379 1.387 . S
C1380 C1383 1.387 . S
H1381 C1377 0.950 . S
H1382 C1379 0.950 . S
C1383 C1374 1.390 . S
C1383 H1376 0.950 . S
C1383 C1380 1.387 . S
C1384 C1385 1.387 . S
C1384 H1388 0.950 . S
C1384 C1393 1.390 . S
C1385 C1384 1.387 . S
C1385 C1387 1.387 . S
H1386 C1393 0.950 . S
C1387 C1385 1.387 . S
C1387 C1389 1.390 . S
C1387 H1391 0.950 . S
H1388 C1384 0.950 . S
C1389 C1387 1.390 . S
C1389 C1390 1.387 . S
C1389 H1392 0.950 . S
C1390 C1389 1.387 . S
C1390 C1393 1.387 . S
H1391 C1387 0.950 . S
H1392 C1389 0.950 . S
C1393 C1384 1.390 . S
C1393 H1386 0.950 . S
C1393 C1390 1.387 . S
C1394 C1395 1.387 . S
C1394 H1398 0.950 . S
C1394 C1403 1.390 . S
C1395 C1394 1.387 . S
C1395 C1397 1.387 . S
H1396 C1403 0.950 . S
C1397 C1395 1.387 . S
C1397 C1399 1.390 . S
C1397 H1401 0.950 . S
H1398 C1394 0.950 . S
C1399 C1397 1.390 . S
C1399 C1400 1.387 . S
C1399 H1402 0.950 . S
C1400 C1399 1.387 . S
C1400 C1403 1.387 . S
H1401 C1397 0.950 . S
H1402 C1399 0.950 . S
C1403 C1394 1.390 . S
C1403 H1396 0.950 . S
C1403 C1400 1.387 . S
C1404 C1405 1.387 . S
C1404 H1408 0.950 . S
C1404 C1413 1.390 . S
C1405 C1404 1.387 . S
C1405 C1407 1.387 . S
H1406 C1413 0.950 . S
C1407 C1405 1.387 . S
C1407 C1409 1.390 . S
C1407 H1411 0.950 . S
H1408 C1404 0.950 . S
C1409 C1407 1.390 . S
C1409 C1410 1.387 . S
C1409 H1412 0.950 . S
C1410 C1409 1.387 . S
C1410 C1413 1.387 . S
H1411 C1407 0.950 . S
H1412 C1409 0.950 . S
C1413 C1404 1.390 . S
C1413 H1406 0.950 . S
C1413 C1410 1.387 . S
C1414 C1415 1.387 . S
C1414 H1418 0.950 . S
C1414 C1423 1.390 . S
C1415 C1414 1.387 . S
C1415 C1417 1.387 . S
H1416 C1423 0.950 . S
C1417 C1415 1.387 . S
C1417 C1419 1.390 . S
C1417 H1421 0.950 . S
H1418 C1414 0.950 . S
C1419 C1417 1.390 . S
C1419 C1420 1.387 . S
C1419 H1422 0.950 . S
C1420 C1419 1.387 . S
C1420 C1423 1.387 . S
H1421 C1417 0.950 . S
H1422 C1419 0.950 . S
C1423 C1414 1.390 . S
C1423 H1416 0.950 . S
C1423 C1420 1.387 . S
C1424 C1425 1.387 . S
C1424 H1428 0.950 . S
C1424 C1433 1.390 . S
C1425 C1424 1.387 . S
C1425 C1427 1.387 . S
H1426 C1433 0.950 . S
C1427 C1425 1.387 . S
C1427 C1429 1.390 . S
C1427 H1431 0.950 . S
H1428 C1424 0.950 . S
C1429 C1427 1.390 . S
C1429 C1430 1.387 . S
C1429 H1432 0.950 . S
C1430 C1429 1.387 . S
C1430 C1433 1.387 . S
H1431 C1427 0.950 . S
H1432 C1429 0.950 . S
C1433 C1424 1.390 . S
C1433 H1426 0.950 . S
C1433 C1430 1.387 . S
C1434 C1435 1.387 . S
C1434 H1438 0.950 . S
C1434 C1443 1.390 . S
C1435 C1434 1.387 . S
C1435 C1437 1.387 . S
H1436 C1443 0.950 . S
C1437 C1435 1.387 . S
C1437 C1439 1.390 . S
C1437 H1441 0.950 . S
H1438 C1434 0.950 . S
C1439 C1437 1.390 . S
C1439 C1440 1.387 . S
C1439 H1442 0.950 . S
C1440 C1439 1.387 . S
C1440 C1443 1.387 . S
H1441 C1437 0.950 . S
H1442 C1439 0.950 . S
C1443 C1434 1.390 . S
C1443 H1436 0.950 . S
C1443 C1440 1.387 . S
C1444 C1445 1.387 . S
C1444 H1448 0.950 . S
C1444 C1453 1.390 . S
C1445 C1444 1.387 . S
C1445 C1447 1.387 . S
H1446 C1453 0.950 . S
C1447 C1445 1.387 . S
C1447 C1449 1.390 . S
C1447 H1451 0.950 . S
H1448 C1444 0.950 . S
C1449 C1447 1.390 . S
C1449 C1450 1.387 . S
C1449 H1452 0.950 . S
C1450 C1449 1.387 . S
C1450 C1453 1.387 . S
H1451 C1447 0.950 . S
H1452 C1449 0.950 . S
C1453 C1444 1.390 . S
C1453 H1446 0.950 . S
C1453 C1450 1.387 . S
C1454 C1455 1.387 . S
C1454 H1458 0.950 . S
C1454 C1463 1.390 . S
C1455 C1454 1.387 . S
C1455 C1457 1.387 . S
H1456 C1463 0.950 . S
C1457 C1455 1.387 . S
C1457 C1459 1.390 . S
C1457 H1461 0.950 . S
H1458 C1454 0.950 . S
C1459 C1457 1.390 . S
C1459 C1460 1.387 . S
C1459 H1462 0.950 1_655 S
C1460 C1459 1.387 . S
C1460 C1463 1.387 . S
H1461 C1457 0.950 . S
H1462 C1459 0.950 1_455 S
C1463 C1454 1.390 . S
C1463 H1456 0.950 . S
C1463 C1460 1.387 . S
C1464 C1465 1.387 . S
C1464 H1468 0.950 . S
C1464 C1473 1.390 . S
C1465 C1464 1.387 . S
C1465 C1467 1.387 . S
H1466 C1473 0.950 . S
C1467 C1465 1.387 . S
C1467 C1469 1.390 . S
C1467 H1471 0.950 . S
H1468 C1464 0.950 . S
C1469 C1467 1.390 . S
C1469 C1470 1.387 . S
C1469 H1472 0.950 . S
C1470 C1469 1.387 . S
C1470 C1473 1.387 . S
H1471 C1467 0.950 . S
H1472 C1469 0.950 . S
C1473 C1464 1.390 . S
C1473 H1466 0.950 . S
C1473 C1470 1.387 . S
C1474 C1475 1.387 . S
C1474 H1478 0.950 . S
C1474 C1483 1.390 . S
C1475 C1474 1.387 . S
C1475 C1477 1.387 . S
H1476 C1483 0.950 1_655 S
C1477 C1475 1.387 . S
C1477 C1479 1.390 . S
C1477 H1481 0.950 . S
H1478 C1474 0.950 . S
C1479 C1477 1.390 . S
C1479 C1480 1.387 . S
C1479 H1482 0.950 . S
C1480 C1479 1.387 . S
C1480 C1483 1.387 . S
H1481 C1477 0.950 . S
H1482 C1479 0.950 . S
C1483 C1474 1.390 . S
C1483 H1476 0.950 1_455 S
C1483 C1480 1.387 . S
C1484 C1485 1.387 . S
C1484 H1488 0.950 . S
C1484 C1493 1.390 . S
C1485 C1484 1.387 . S
C1485 C1487 1.387 . S
H1486 C1493 0.950 . S
C1487 C1485 1.387 . S
C1487 C1489 1.390 . S
C1487 H1491 0.950 . S
H1488 C1484 0.950 . S
C1489 C1487 1.390 . S
C1489 C1490 1.387 . S
C1489 H1492 0.950 . S
C1490 C1489 1.387 . S
C1490 C1493 1.387 . S
H1491 C1487 0.950 . S
H1492 C1489 0.950 . S
C1493 C1484 1.390 . S
C1493 H1486 0.950 . S
C1493 C1490 1.387 . S
C1494 C1495 1.387 . S
C1494 H1498 0.950 . S
C1494 C1503 1.390 . S
C1495 C1494 1.387 . S
C1495 C1497 1.387 . S
H1496 C1503 0.950 . S
C1497 C1495 1.387 . S
C1497 C1499 1.390 . S
C1497 H1501 0.950 . S
H1498 C1494 0.950 . S
C1499 C1497 1.390 . S
C1499 C1500 1.387 . S
C1499 H1502 0.950 . S
C1500 C1499 1.387 . S
C1500 C1503 1.387 . S
H1501 C1497 0.950 . S
H1502 C1499 0.950 . S
C1503 C1494 1.390 . S
C1503 H1496 0.950 . S
C1503 C1500 1.387 . S
C1504 C1505 1.387 . S
C1504 H1508 0.950 . S
C1504 C1513 1.390 . S
C1505 C1504 1.387 . S
C1505 C1507 1.387 . S
H1506 C1513 0.950 . S
C1507 C1505 1.387 . S
C1507 C1509 1.390 . S
C1507 H1511 0.950 . S
H1508 C1504 0.950 . S
C1509 C1507 1.390 . S
C1509 C1510 1.387 . S
C1509 H1512 0.950 . S
C1510 C1509 1.387 . S
C1510 C1513 1.387 . S
H1511 C1507 0.950 . S
H1512 C1509 0.950 . S
C1513 C1504 1.390 . S
C1513 H1506 0.950 . S
C1513 C1510 1.387 . S
C1514 C1515 1.387 . S
C1514 H1518 0.950 . S
C1514 C1523 1.390 . S
C1515 C1514 1.387 . S
C1515 C1517 1.387 . S
H1516 C1523 0.950 . S
C1517 C1515 1.387 . S
C1517 C1519 1.390 . S
C1517 H1521 0.950 . S
H1518 C1514 0.950 . S
C1519 C1517 1.390 . S
C1519 C1520 1.387 . S
C1519 H1522 0.950 . S
C1520 C1519 1.387 . S
C1520 C1523 1.387 . S
H1521 C1517 0.950 . S
H1522 C1519 0.950 . S
C1523 C1514 1.390 . S
C1523 H1516 0.950 . S
C1523 C1520 1.387 . S
C1524 C1525 1.387 . S
C1524 H1528 0.950 . S
C1524 C1533 1.390 . S
C1525 C1524 1.387 . S
C1525 C1527 1.387 . S
H1526 C1533 0.950 . S
C1527 C1525 1.387 . S
C1527 C1529 1.390 . S
C1527 H1531 0.950 . S
H1528 C1524 0.950 . S
C1529 C1527 1.390 . S
C1529 C1530 1.387 . S
C1529 H1532 0.950 . S
C1530 C1529 1.387 . S
C1530 C1533 1.387 . S
H1531 C1527 0.950 . S
H1532 C1529 0.950 . S
C1533 C1524 1.390 . S
C1533 H1526 0.950 . S
C1533 C1530 1.387 . S
C1534 C1535 1.387 . S
C1534 H1538 0.950 . S
C1534 C1543 1.390 . S
C1535 C1534 1.387 . S
C1535 C1537 1.387 . S
H1536 C1543 0.950 . S
C1537 C1535 1.387 . S
C1537 C1539 1.390 . S
C1537 H1541 0.950 . S
H1538 C1534 0.950 . S
C1539 C1537 1.390 . S
C1539 C1540 1.387 . S
C1539 H1542 0.950 . S
C1540 C1539 1.387 . S
C1540 C1543 1.387 . S
H1541 C1537 0.950 . S
H1542 C1539 0.950 . S
C1543 C1534 1.390 . S
C1543 H1536 0.950 . S
C1543 C1540 1.387 . S
C1544 C1545 1.387 . S
C1544 H1548 0.950 . S
C1544 C1553 1.390 . S
C1545 C1544 1.387 . S
C1545 C1547 1.387 . S
H1546 C1553 0.950 . S
C1547 C1545 1.387 . S
C1547 C1549 1.390 . S
C1547 H1551 0.950 . S
H1548 C1544 0.950 . S
C1549 C1547 1.390 . S
C1549 C1550 1.387 . S
C1549 H1552 0.950 . S
C1550 C1549 1.387 . S
C1550 C1553 1.387 . S
H1551 C1547 0.950 . S
H1552 C1549 0.950 . S
C1553 C1544 1.390 . S
C1553 H1546 0.950 . S
C1553 C1550 1.387 . S
C1554 C1555 1.387 . S
C1554 H1558 0.950 . S
C1554 C1563 1.390 . S
C1555 C1554 1.387 . S
C1555 C1557 1.387 . S
H1556 C1563 0.950 . S
C1557 C1555 1.387 . S
C1557 C1559 1.390 . S
C1557 H1561 0.950 . S
H1558 C1554 0.950 . S
C1559 C1557 1.390 . S
C1559 C1560 1.387 . S
C1559 H1562 0.950 . S
C1560 C1559 1.387 . S
C1560 C1563 1.387 . S
H1561 C1557 0.950 . S
H1562 C1559 0.950 . S
C1563 C1554 1.390 . S
C1563 H1556 0.950 . S
C1563 C1560 1.387 . S
C1564 C1565 1.387 . S
C1564 H1568 0.950 . S
C1564 C1573 1.390 . S
C1565 C1564 1.387 . S
C1565 C1567 1.387 . S
H1566 C1573 0.950 . S
C1567 C1565 1.387 . S
C1567 C1569 1.390 . S
C1567 H1571 0.950 . S
H1568 C1564 0.950 . S
C1569 C1567 1.390 . S
C1569 C1570 1.387 . S
C1569 H1572 0.950 . S
C1570 C1569 1.387 . S
C1570 C1573 1.387 . S
H1571 C1567 0.950 . S
H1572 C1569 0.950 . S
C1573 C1564 1.390 . S
C1573 H1566 0.950 . S
C1573 C1570 1.387 . S
C1574 C1575 1.387 . S
C1574 H1578 0.950 . S
C1574 C1583 1.390 . S
C1575 C1574 1.387 . S
C1575 C1577 1.387 . S
H1576 C1583 0.950 . S
C1577 C1575 1.387 . S
C1577 C1579 1.390 . S
C1577 H1581 0.950 . S
H1578 C1574 0.950 . S
C1579 C1577 1.390 . S
C1579 C1580 1.387 . S
C1579 H1582 0.950 . S
C1580 C1579 1.387 . S
C1580 C1583 1.387 . S
H1581 C1577 0.950 . S
H1582 C1579 0.950 . S
C1583 C1574 1.390 . S
C1583 H1576 0.950 . S
C1583 C1580 1.387 . S
C1584 C1585 1.387 . S
C1584 H1588 0.950 . S
C1584 C1593 1.390 . S
C1585 C1584 1.387 . S
C1585 C1587 1.387 . S
H1586 C1593 0.950 . S
C1587 C1585 1.387 . S
C1587 C1589 1.390 . S
C1587 H1591 0.950 . S
H1588 C1584 0.950 . S
C1589 C1587 1.390 . S
C1589 C1590 1.387 . S
C1589 H1592 0.950 . S
C1590 C1589 1.387 . S
C1590 C1593 1.387 . S
H1591 C1587 0.950 . S
H1592 C1589 0.950 . S
C1593 C1584 1.390 . S
C1593 H1586 0.950 . S
C1593 C1590 1.387 . S
C1594 C1595 1.387 . S
C1594 H1598 0.950 . S
C1594 C1603 1.390 . S
C1595 C1594 1.387 . S
C1595 C1597 1.387 . S
H1596 C1603 0.950 . S
C1597 C1595 1.387 . S
C1597 C1599 1.390 . S
C1597 H1601 0.950 . S
H1598 C1594 0.950 . S
C1599 C1597 1.390 . S
C1599 C1600 1.387 . S
C1599 H1602 0.950 . S
C1600 C1599 1.387 . S
C1600 C1603 1.387 . S
H1601 C1597 0.950 . S
H1602 C1599 0.950 . S
C1603 C1594 1.390 . S
C1603 H1596 0.950 . S
C1603 C1600 1.387 . S
C1604 C1605 1.387 . S
C1604 H1608 0.950 . S
C1604 C1613 1.390 . S
C1605 C1604 1.387 . S
C1605 C1607 1.387 . S
H1606 C1613 0.950 . S
C1607 C1605 1.387 . S
C1607 C1609 1.390 . S
C1607 H1611 0.950 . S
H1608 C1604 0.950 . S
C1609 C1607 1.390 . S
C1609 C1610 1.387 . S
C1609 H1612 0.950 . S
C1610 C1609 1.387 . S
C1610 C1613 1.387 . S
H1611 C1607 0.950 . S
H1612 C1609 0.950 . S
C1613 C1604 1.390 . S
C1613 H1606 0.950 . S
C1613 C1610 1.387 . S
C1614 C1615 1.387 . S
C1614 H1618 0.950 . S
C1614 C1623 1.390 . S
C1615 C1614 1.387 . S
C1615 C1617 1.387 . S
H1616 C1623 0.950 . S
C1617 C1615 1.387 . S
C1617 C1619 1.390 . S
C1617 H1621 0.950 . S
H1618 C1614 0.950 . S
C1619 C1617 1.390 . S
C1619 C1620 1.387 . S
C1619 H1622 0.950 . S
C1620 C1619 1.387 . S
C1620 C1623 1.387 . S
H1621 C1617 0.950 . S
H1622 C1619 0.950 . S
C1623 C1614 1.390 . S
C1623 H1616 0.950 . S
C1623 C1620 1.387 . S
C1624 C1625 1.387 . S
C1624 H1628 0.950 . S
C1624 C1633 1.390 . S
C1625 C1624 1.387 . S
C1625 C1627 1.387 . S
H1626 C1633 0.950 . S
C1627 C1625 1.387 . S
C1627 C1629 1.390 . S
C1627 H1631 0.950 . S
H1628 C1624 0.950 . S
C1629 C1627 1.390 . S
C1629 C1630 1.387 . S
C1629 H1632 0.950 1_545 S
C1630 C1629 1.387 . S
C1630 C1633 1.387 . S
H1631 C1627 0.950 . S
H1632 C1629 0.950 1_565 S
C1633 C1624 1.390 . S
C1633 H1626 0.950 . S
C1633 C1630 1.387 . S
C1634 C1635 1.387 . S
C1634 H1638 0.950 . S
C1634 C1643 1.390 . S
C1635 C1634 1.387 . S
C1635 C1637 1.387 . S
H1636 C1643 0.950 . S
C1637 C1635 1.387 . S
C1637 C1639 1.390 . S
C1637 H1641 0.950 . S
H1638 C1634 0.950 . S
C1639 C1637 1.390 . S
C1639 C1640 1.387 . S
C1639 H1642 0.950 . S
C1640 C1639 1.387 . S
C1640 C1643 1.387 . S
H1641 C1637 0.950 . S
H1642 C1639 0.950 . S
C1643 C1634 1.390 . S
C1643 H1636 0.950 . S
C1643 C1640 1.387 . S
C1644 C1645 1.387 . S
C1644 H1648 0.950 . S
C1644 C1653 1.390 . S
C1645 C1644 1.387 . S
C1645 C1647 1.387 . S
H1646 C1653 0.950 . S
C1647 C1645 1.387 . S
C1647 C1649 1.390 . S
C1647 H1651 0.950 . S
H1648 C1644 0.950 . S
C1649 C1647 1.390 . S
C1649 C1650 1.387 . S
C1649 H1652 0.950 . S
C1650 C1649 1.387 . S
C1650 C1653 1.387 . S
H1651 C1647 0.950 . S
H1652 C1649 0.950 . S
C1653 C1644 1.390 . S
C1653 H1646 0.950 . S
C1653 C1650 1.387 . S
C1654 C1655 1.387 . S
C1654 H1658 0.950 . S
C1654 C1663 1.390 . S
C1655 C1654 1.387 . S
C1655 C1657 1.387 . S
H1656 C1663 0.950 . S
C1657 C1655 1.387 . S
C1657 C1659 1.390 . S
C1657 H1661 0.950 . S
H1658 C1654 0.950 . S
C1659 C1657 1.390 . S
C1659 C1660 1.387 . S
C1659 H1662 0.950 . S
C1660 C1659 1.387 . S
C1660 C1663 1.387 . S
H1661 C1657 0.950 . S
H1662 C1659 0.950 . S
C1663 C1654 1.390 . S
C1663 H1656 0.950 . S
C1663 C1660 1.387 . S
C1664 C1665 1.387 . S
C1664 H1668 0.950 . S
C1664 C1673 1.390 . S
C1665 C1664 1.387 . S
C1665 C1667 1.387 . S
H1666 C1673 0.950 . S
C1667 C1665 1.387 . S
C1667 C1669 1.390 . S
C1667 H1671 0.950 . S
H1668 C1664 0.950 . S
C1669 C1667 1.390 . S
C1669 C1670 1.387 . S
C1669 H1672 0.950 . S
C1670 C1669 1.387 . S
C1670 C1673 1.387 . S
H1671 C1667 0.950 . S
H1672 C1669 0.950 . S
C1673 C1664 1.390 . S
C1673 H1666 0.950 . S
C1673 C1670 1.387 . S
C1674 C1675 1.387 . S
C1674 H1678 0.950 . S
C1674 C1683 1.390 . S
C1675 C1674 1.387 . S
C1675 C1677 1.387 . S
H1676 C1683 0.950 . S
C1677 C1675 1.387 . S
C1677 C1679 1.390 . S
C1677 H1681 0.950 . S
H1678 C1674 0.950 . S
C1679 C1677 1.390 . S
C1679 C1680 1.387 . S
C1679 H1682 0.950 . S
C1680 C1679 1.387 . S
C1680 C1683 1.387 . S
H1681 C1677 0.950 . S
H1682 C1679 0.950 . S
C1683 C1674 1.390 . S
C1683 H1676 0.950 . S
C1683 C1680 1.387 . S
C730 C381 1.241 . S
C725 C226 1.340 . S
C740 C384 1.522 . S
C735 C269 1.621 . S
C750 C372 1.136 . S
C745 C250 1.219 . S
C755 C205 1.778 . S
C760 C385 1.649 . S
C770 C416 1.248 . S
C765 C115 1.339 . S
C775 C136 1.795 . S
C780 C443 1.657 . S
C790 C415 1.140 . S
C785 C158 1.213 . S
C795 C97 1.644 . S
C800 C434 1.538 . S
C805 C314 1.354 . S
C810 C447 1.257 . S
C815 C336 1.745 . S
C820 C478 1.611 1_545 S
C830 C536 1.251 . S
C825 C180 1.348 . S
C840 C558 1.579 . S
C835 C294 1.686 . S
C850 C446 1.131 . S
C845 C70 1.208 . S
C860 C477 1.593 . S
C855 C6 1.667 . S
C865 C31 1.202 . S
C870 C527 1.124 . S
C875 C53 1.735 . S
C880 C567 1.607 . S
C885 C29 1.360 . S
C890 C505 1.257 . S
C900 C571 1.277 . S
C895 C181 1.375 . S
C905 C293 1.752 . S
C910 C602 1.626 . S
C920 C651 1.120 . S
C915 C312 1.193 . S
C925 C137 1.781 . S
C930 C509 1.642 1_655 S
C940 C570 1.105 . S
C935 C225 1.179 . S
C950 C601 1.534 . S
C945 C270 1.633 . S
C960 C682 1.562 . S
C955 C206 1.671 . S
C965 C72 1.342 . S
C970 C412 1.241 . S
C975 C4 1.620 . S
C980 C353 1.519 . S
C990 C403 1.138 . S
C985 C30 1.218 . S
C995 C51 1.777 . S
C1000 C354 1.648 1_554 S
C1005 C313 1.337 . S
C1010 C695 1.246 . S
C1015 C334 1.797 . S
C1020 C722 1.659 1_556 S
C1030 C694 1.137 . S
C1025 C182 1.211 . S
C1035 C295 1.644 . S
C1040 C713 1.525 1_556 S
C1045 C116 1.356 . S
C1050 C629 1.260 . S
C1060 C633 1.609 . S
C1055 C138 1.745 . S
C1070 C664 1.252 . S
C1065 C159 1.350 . S
C1080 C589 1.559 1_565 S
C1075 C96 1.683 . S
C1090 C620 1.129 . S
C1085 C224 1.206 . S
C1095 C268 1.672 . S
C1100 C632 1.572 . S
C1105 C251 1.200 . S
C1110 C663 1.123 . S
C1120 C598 1.611 1_565 S
C1115 C207 1.738 . S
C1125 C249 1.361 . S
C1130 C660 1.260 . S
C1140 C540 1.278 . S
C1135 C160 1.378 . S
C1145 C95 1.752 . S
C1150 C474 1.628 1_455 S
C1155 C114 1.196 . S
C1160 C496 1.124 . S
C1165 C335 1.783 . S
C1170 C691 1.644 . S
C1175 C71 1.181 . S
C1180 C539 1.107 . S
C1185 C5 1.635 . S
C1190 C465 1.535 . S
C1200 C508 1.565 1_655 S
C1195 C52 1.672 . S
C1210 C352 1.712 . S
C1205 C339 1.582 . S
C1220 C402 1.962 . S
C1215 C184 1.881 . S
C1230 C362 1.490 . S
C1225 C290 1.506 . S
C1240 C413 1.792 . S
C1235 C317 1.796 . S
C1250 C433 1.674 . S
C1245 C204 1.548 . S
C1255 C228 1.762 . S
C1260 C424 1.754 . S
C1265 C272 1.475 . S
C1270 C444 1.458 . S
C1275 C248 1.848 . S
C1280 C414 1.923 . S
C1290 C464 1.677 . S
C1285 C49 1.542 . S
C1300 C506 1.763 . S
C1295 C75 1.767 . S
C1305 C8 1.532 . S
C1310 C507 1.669 . S
C1320 C538 1.919 . S
C1315 C26 1.840 . S
C1325 C140 1.524 . S
C1330 C475 1.508 . S
C1340 C495 1.950 . S
C1335 C162 1.877 . S
C1350 C517 1.489 . S
C1345 C94 1.507 . S
C1355 C117 1.801 . S
C1360 C548 1.794 . S
C1370 C476 1.627 . S
C1365 C93 1.495 . S
C1375 C7 1.505 . S
C1380 C588 1.639 . S
C1385 C27 1.781 . S
C1390 C630 1.778 . S
C1395 C48 1.555 . S
C1400 C641 1.535 . S
C1410 C537 1.799 . S
C1405 C227 1.806 . S
C1420 C599 1.528 . S
C1415 C337 1.550 . S
C1425 C183 1.835 . S
C1430 C619 1.912 . S
C1440 C662 1.937 . S
C1435 C316 1.865 . S
C1450 C383 1.710 . S
C1445 C141 1.581 . S
C1455 C161 1.879 . S
C1460 C371 1.963 . S
C1465 C92 1.509 . S
C1470 C393 1.495 . S
C1475 C119 1.797 . S
C1480 C382 1.791 . S
C1490 C712 1.676 . S
C1485 C50 1.552 . S
C1500 C703 1.754 . S
C1495 C74 1.763 . S
C1505 C9 1.474 . S
C1510 C723 1.457 . S
C1515 C28 1.847 . S
C1520 C693 1.923 . S
C1525 C203 1.545 . S
C1530 C600 1.678 . S
C1540 C661 1.760 . S
C1535 C229 1.766 . S
C1550 C681 1.671 . S
C1545 C271 1.536 . S
C1555 C246 1.840 . S
C1560 C569 1.919 . S
C1570 C610 1.504 . S
C1565 C338 1.524 . S
C1575 C185 1.875 . S
C1580 C650 1.949 . S
C1590 C692 1.488 . S
C1585 C292 1.507 . S
C1595 C315 1.803 . S
C1600 C579 1.796 . S
C1605 C291 1.502 . S
C1610 C631 1.629 . S
C1615 C273 1.503 . S
C1620 C557 1.637 . S
C1630 C455 1.775 . S
C1625 C247 1.778 . S
C1635 C202 1.555 . S
C1640 C486 1.538 . S
C1645 C73 1.806 . S
C1650 C672 1.799 . S
C1655 C139 1.550 . S
C1660 C568 1.527 . S
C1670 C445 1.912 . S
C1665 C163 1.837 . S
C1675 C118 1.865 . S
C1680 C526 1.937 . S
