# Generated by pormake.
# Topology rtl, (3,6)-cn, num edge types: 1
# Building blocks:
#     Node 0, Type 0, BuildingBlock: OLANEW_clean_sbu_2, # of connection points: 3
#     Node 1, Type 0, BuildingBlock: OLANEW_clean_sbu_2, # of connection points: 3
#     Node 2, Type 0, BuildingBlock: OLANEW_clean_sbu_2, # of connection points: 3
#     Node 3, Type 0, BuildingBlock: OLANEW_clean_sbu_2, # of connection points: 3
#     Node 4, Type 1, BuildingBlock: FUNLAD_clean_sbu_0, # of connection points: 6
#     Node 5, Type 1, BuildingBlock: FUNLAD_clean_sbu_0, # of connection points: 6
#     Edge 6, Type (0, 1), BuildingBlock: UVAHIK_clean_linker_0, # of connection points: 2
#     Edge 7, Type (0, 1), BuildingBlock: UVAHIK_clean_linker_0, # of connection points: 2
#     Edge 8, Type (0, 1), BuildingBlock: UVAHIK_clean_linker_0, # of connection points: 2
#     Edge 9, Type (0, 1), BuildingBlock: UVAHIK_clean_linker_0, # of connection points: 2
#     Edge 10, Type (0, 1), BuildingBlock: UVAHIK_clean_linker_0, # of connection points: 2
#     Edge 11, Type (0, 1), BuildingBlock: UVAHIK_clean_linker_0, # of connection points: 2
#     Edge 12, Type (0, 1), BuildingBlock: UVAHIK_clean_linker_0, # of connection points: 2
#     Edge 13, Type (0, 1), BuildingBlock: UVAHIK_clean_linker_0, # of connection points: 2
#     Edge 14, Type (0, 1), BuildingBlock: UVAHIK_clean_linker_0, # of connection points: 2
#     Edge 15, Type (0, 1), BuildingBlock: UVAHIK_clean_linker_0, # of connection points: 2
#     Edge 16, Type (0, 1), BuildingBlock: UVAHIK_clean_linker_0, # of connection points: 2
#     Edge 17, Type (0, 1), BuildingBlock: UVAHIK_clean_linker_0, # of connection points: 2
# Relax obj value: 0.012
# Max RMSD: 0.079
# Mean RMSD: 0.053
data_MOF--net-rtl--node1-OLANEW_clean_sbu_2--node2-FUNLAD_clean_sbu_0--edge1-UVAHIK_clean_linker_0
_symmetry_space_group_name_H-M    P1
_symmetry_Int_Tables_number       1
_symmetry_cell_setting            triclinic
loop_
_symmetry_equiv_pos_as_xyz
'x, y, z'
_cell_length_a     54.007187
_cell_length_b     50.977757
_cell_length_c     29.06587
_cell_angle_alpha  87.389021
_cell_angle_beta   93.543286
_cell_angle_gamma 90.02819
loop_
_atom_site_label
_atom_site_type_symbol
_atom_site_fract_x
_atom_site_fract_y
_atom_site_fract_z
_atom_type_partial_charge
O0 O 0.14525 0.79948 0.99548 0.0
Cd1 Cd 0.16248 0.77911 0.06835 0.0
O2 O 0.16977 0.8337 0.00281 0.0
Cd3 Cd 0.17851 0.82464 0.07602 0.0
O4 O 0.16611 0.8335 0.14368 0.0
C5 C 0.14417 0.8268 0.15255 0.0
O6 O 0.13105 0.81314 0.12253 0.0
C7 C 0.15373 0.82097 0.97896 0.0
C8 C 0.2031 0.7471 0.055 0.0
O9 O 0.18129 0.73742 0.05745 0.0
O10 O 0.20572 0.7719 0.05892 0.0
O11 O 0.64243 0.71094 0.57688 0.0
Cd12 Cd 0.65766 0.72937 0.50479 0.0
O13 O 0.66801 0.67726 0.57913 0.0
Cd14 Cd 0.67834 0.68539 0.50865 0.0
O15 O 0.66822 0.67776 0.43671 0.0
C16 C 0.64606 0.68334 0.42235 0.0
O17 O 0.63154 0.6947 0.45018 0.0
C18 C 0.65137 0.69018 0.5975 0.0
C19 C 0.69788 0.76305 0.51787 0.0
O20 O 0.67566 0.77202 0.51251 0.0
O21 O 0.70103 0.73815 0.51747 0.0
O22 O 0.82871 0.18085 0.09179 0.0
Cd23 Cd 0.8119 0.19594 0.01497 0.0
O24 O 0.86103 0.207 0.08898 0.0
Cd25 Cd 0.85349 0.21626 0.01554 0.0
O26 O 0.85958 0.2019 0.9476 0.0
C27 C 0.88114 0.20459 0.93285 0.0
O28 O 0.89784 0.21778 0.95712 0.0
C29 C 0.8484 0.19016 0.11106 0.0
C30 C 0.77605 0.23518 0.01729 0.0
O31 O 0.76988 0.21095 0.01535 0.0
O32 O 0.7992 0.24085 0.01851 0.0
O33 O 0.37894 0.25559 0.6563 0.0
Cd34 Cd 0.37188 0.22065 0.6024 0.0
O35 O 0.37247 0.28349 0.59745 0.0
Cd36 Cd 0.37421 0.32103 0.55846 0.0
O37 O 0.38326 0.34827 0.50191 0.0
C38 C 0.4028 0.34284 0.48202 0.0
O39 O 0.416 0.32228 0.49745 0.0
C40 C 0.37808 0.27919 0.64026 0.0
C41 C 0.32355 0.20159 0.59834 0.0
O42 O 0.34024 0.1914 0.62697 0.0
O43 O 0.32968 0.22107 0.57199 0.0
C44 C 0.01904 0.97341 0.47876 0.0
N45 N 0.04572 0.04052 0.54271 0.0
C46 C 0.06841 0.02887 0.54372 0.0
C47 C 0.08989 0.04404 0.5444 0.0
C48 C 0.08809 0.07153 0.54407 0.0
C49 C 0.06442 0.08308 0.54285 0.0
C50 C 0.04336 0.06711 0.5421 0.0
Zn51 Zn 0.01518 0.01689 0.54331 0.0
C52 C 0.97497 0.0351 0.47545 0.0
N53 N 0.95228 0.96616 0.54528 0.0
C54 C 0.95522 0.93977 0.54287 0.0
C55 C 0.9294 0.97697 0.54776 0.0
C56 C 0.90835 0.96108 0.54793 0.0
C57 C 0.91073 0.93375 0.54489 0.0
C58 C 0.93463 0.92318 0.54234 0.0
Zn59 Zn 0.98267 0.9901 0.54455 0.0
O60 O 0.03011 0.99365 0.49344 0.0
C61 C 0.02292 0.97206 0.61264 0.0
O62 O 0.99811 0.96719 0.4938 0.0
H63 H 0.92744 0.99801 0.54957 0.0
H64 H 0.06991 0.00771 0.54443 0.0
H65 H 0.97356 0.93155 0.541 0.0
O66 O 0.03299 0.99269 0.59627 0.0
O67 O 0.00121 0.96592 0.59743 0.0
H68 H 0.02513 0.07596 0.54125 0.0
O69 O 0.96784 0.01357 0.59521 0.0
O70 O 1.0 0.03981 0.59317 0.0
O71 O 0.9646 0.0146 0.49176 0.0
O72 O 0.99682 0.04082 0.49049 0.0
C73 C 0.97924 0.03386 0.60908 0.0
H74 H 0.10775 0.03428 0.54613 0.0
H75 H 0.0622 0.10421 0.54218 0.0
H76 H 0.89043 0.97017 0.55077 0.0
H77 H 0.93745 0.90233 0.53921 0.0
C78 C 0.47609 0.47611 0.9378 0.0
N79 N 0.54628 0.46948 0.00614 0.0
C80 C 0.5416 0.44346 0.01367 0.0
C81 C 0.5608 0.42512 0.01516 0.0
C82 C 0.58515 0.43346 0.00821 0.0
C83 C 0.58948 0.4605 0.00081 0.0
C84 C 0.5697 0.47825 7e-05 0.0
Zn85 Zn 0.51687 0.49499 0.00254 0.0
C86 C 0.52087 0.53695 0.92876 0.0
N87 N 0.45411 0.54648 0.99388 0.0
C88 C 0.43088 0.53611 0.99172 0.0
C89 C 0.45767 0.57281 0.99638 0.0
C90 C 0.43743 0.58973 -0.0018 0.0
C91 C 0.41319 0.57953 0.99681 0.0
C92 C 0.41013 0.55232 0.9927 0.0
Zn93 Zn 0.48399 0.52158 0.99691 0.0
O94 O 0.4975 0.47053 0.95616 0.0
C95 C 0.48059 0.48038 0.07232 0.0
O96 O 0.46557 0.49725 0.94772 0.0
H97 H 0.47628 0.5807 -0.00198 0.0
H98 H 0.52286 0.43683 0.01827 0.0
H99 H 0.42841 0.51512 0.98997 0.0
O100 O 0.50165 0.47431 0.05871 0.0
O101 O 0.46853 0.49936 0.05184 0.0
H102 H 0.57303 0.49901 0.99409 0.0
O103 O 0.50313 0.54523 0.04594 0.0
O104 O 0.53594 0.51966 0.04891 0.0
O105 O 0.50009 0.54376 0.94286 0.0
O106 O 0.53171 0.51652 0.94685 0.0
C107 C 0.52516 0.54 0.06169 0.0
H108 H 0.55655 0.4046 0.0219 0.0
H109 H 0.60785 0.46788 0.99473 0.0
H110 H 0.44087 0.61046 0.00198 0.0
H111 H 0.39188 0.54351 0.99051 0.0
C112 C 0.28 0.20172 0.56304 0.0
C113 C 0.29818 0.19061 0.59477 0.0
C114 C 0.25645 0.19042 0.55797 0.0
C115 C 0.22488 0.12727 0.5751 0.0
H116 H 0.16459 0.16891 0.56017 0.0
C117 C 0.13121 0.08121 0.52083 0.0
C118 C 0.1109 0.08781 0.54605 0.0
C119 C 0.15339 0.09517 0.52533 0.0
C120 C 0.18127 0.15704 0.56448 0.0
H121 H 0.30569 0.15935 0.64694 0.0
H122 H 0.26461 0.13974 0.63821 0.0
H123 H 0.20463 0.19068 0.57327 0.0
H124 H 0.09779 0.11473 0.59492 0.0
H125 H 0.13659 0.13923 0.60263 0.0
H126 H 0.20165 0.09363 0.5669 0.0
C127 C 0.26866 0.15699 0.61685 0.0
C128 C 0.20418 0.1695 0.5716 0.0
C129 C 0.29215 0.16832 0.62202 0.0
C130 C 0.11301 0.10931 0.57468 0.0
C131 C 0.13523 0.12332 0.57914 0.0
C132 C 0.20204 0.11485 0.56778 0.0
C133 C 0.25064 0.16773 0.5844 0.0
C134 C 0.22622 0.15472 0.5771 0.0
C135 C 0.15579 0.1161 0.5551 0.0
C136 C 0.17998 0.12958 0.56237 0.0
H137 H 0.28406 0.21891 0.54155 0.0
H138 H 0.24302 0.19902 0.53243 0.0
H139 H 0.24155 0.11535 0.57866 0.0
H140 H 0.13001 0.0651 0.49776 0.0
H141 H 0.16874 0.08948 0.50564 0.0
C142 C 0.22308 0.70276 0.05541 0.0
C143 C 0.22465 0.73013 0.04803 0.0
C144 C 0.24355 0.68675 0.04952 0.0
C145 C 0.30047 0.68308 0.98889 0.0
H146 H 0.32171 0.63212 0.08641 0.0
C147 C 0.39091 0.62293 0.98241 0.0
C148 C 0.39134 0.59697 0.00111 0.0
C149 C 0.37069 0.63942 0.98777 0.0
C150 C 0.31584 0.6459 0.05842 0.0
H151 H 0.24876 0.76216 0.028 0.0
H152 H 0.28439 0.73404 0.01679 0.0
H153 H 0.28594 0.66003 0.09577 0.0
H154 H 0.37054 0.56821 0.0404 0.0
H155 H 0.33494 0.59628 0.04737 0.0
H156 H 0.32977 0.66855 0.9508 0.0
C157 C 0.26735 0.72507 0.02744 0.0
C158 C 0.2954 0.66199 0.06399 0.0
C159 C 0.24701 0.74114 0.03408 0.0
C160 C 0.37083 0.58789 0.0248 0.0
C161 C 0.35049 0.60423 0.02958 0.0
C162 C 0.32069 0.6667 0.98296 0.0
C163 C 0.26585 0.69775 0.03539 0.0
C164 C 0.28754 0.68074 0.02932 0.0
C165 C 0.3502 0.6303 0.0115 0.0
C166 C 0.32868 0.64787 0.01768 0.0
H167 H 0.20612 0.6937 0.06623 0.0
H168 H 0.24188 0.66571 0.05557 0.0
H169 H 0.29462 0.69724 0.96146 0.0
H170 H 0.40616 0.63058 0.96339 0.0
H171 H 0.37135 0.65944 0.97381 0.0
C172 C 0.74286 0.77108 0.53855 0.0
C173 C 0.71931 0.78094 0.52341 0.0
C174 C 0.76324 0.78791 0.54274 0.0
C175 C 0.78701 0.84996 0.4968 0.0
H176 H 0.83103 0.84797 0.60746 0.0
C177 C 0.86594 0.92511 0.5213 0.0
C178 C 0.88846 0.91647 0.54388 0.0
C179 C 0.84508 0.90889 0.52008 0.0
C180 C 0.81917 0.84854 0.576 0.0
H181 H 0.69862 0.81616 0.50086 0.0
H182 H 0.73437 0.84548 0.50744 0.0
H183 H 0.79521 0.81881 0.6029 0.0
H184 H 0.90639 0.88385 0.58343 0.0
H185 H 0.87048 0.85517 0.57932 0.0
H186 H 0.81117 0.879 0.4691 0.0
C187 C 0.73698 0.82474 0.51622 0.0
C188 C 0.79859 0.83191 0.57356 0.0
C189 C 0.71653 0.80798 0.51269 0.0
C190 C 0.88952 0.89111 0.56514 0.0
C191 C 0.86874 0.87475 0.56342 0.0
C192 C 0.80776 0.86633 0.49894 0.0
C193 C 0.76052 0.81486 0.53121 0.0
C194 C 0.78229 0.83253 0.53399 0.0
C195 C 0.84622 0.88341 0.54086 0.0
C196 C 0.8241 0.86591 0.53863 0.0
H197 H 0.74558 0.75034 0.54715 0.0
H198 H 0.78123 0.77978 0.55409 0.0
H199 H 0.7749 0.85057 0.46563 0.0
H200 H 0.86442 0.94435 0.50396 0.0
H201 H 0.828 0.91644 0.50298 0.0
C202 C 0.76369 0.28184 0.02777 0.0
C203 C 0.75699 0.25602 0.01733 0.0
C204 C 0.74567 0.30159 0.02704 0.0
C205 C 0.6843 0.31978 0.97528 0.0
H206 H 0.68115 0.36595 0.07715 0.0
C207 C 0.60145 0.38925 0.98954 0.0
C208 C 0.6057 0.41396 0.00815 0.0
C209 C 0.62044 0.37065 0.99029 0.0
C210 C 0.68199 0.35355 0.04803 0.0
H211 H 0.72616 0.23069 -0.00203 0.0
H212 H 0.6948 0.26528 0.99608 0.0
H213 H 0.71342 0.33235 0.07932 0.0
H214 H 0.63356 0.43841 0.04196 0.0
H215 H 0.66696 0.40638 0.04151 0.0
H216 H 0.6533 0.34111 0.94339 0.0
C217 C 0.71398 0.27018 0.00487 0.0
C218 C 0.70043 0.33422 0.04943 0.0
C219 C 0.73191 0.25037 0.00621 0.0
C220 C 0.62962 0.4197 0.02691 0.0
C221 C 0.64873 0.40115 0.02725 0.0
C222 C 0.66607 0.33928 0.97359 0.0
C223 C 0.72068 0.29599 0.01521 0.0
C224 C 0.70161 0.317 0.01327 0.0
C225 C 0.64436 0.37632 0.00913 0.0
C226 C 0.66448 0.35627 0.01016 0.0
H227 H 0.78285 0.28681 0.03655 0.0
H228 H 0.75136 0.32135 0.0349 0.0
H229 H 0.68503 0.30702 0.9466 0.0
H230 H 0.58342 0.38423 0.97406 0.0
H231 H 0.61622 0.35165 0.97659 0.0
C232 C 0.14444 0.85618 0.21945 0.0
C233 C 0.13239 0.83716 0.19268 0.0
C234 C 0.13211 0.86826 0.25374 0.0
C235 C 0.06864 0.88304 0.28571 0.0
H236 H 0.10273 0.9051 0.39872 0.0
C237 C 0.01878 0.93486 0.42788 0.0
C238 C 0.03107 0.95673 0.44619 0.0
C239 C 0.03072 0.91863 0.39855 0.0
C240 C 0.093 0.89918 0.36717 0.0
H241 H 0.09838 0.81491 0.18259 0.0
H242 H 0.07709 0.83556 0.24304 0.0
H243 H 0.12469 0.8786 0.34647 0.0
H244 H 0.0655 0.97878 0.44781 0.0
H245 H 0.08618 0.95057 0.39673 0.0
H246 H 0.03697 0.90373 0.30649 0.0
C247 C 0.09586 0.84163 0.23679 0.0
C248 C 0.10558 0.88402 0.33721 0.0
C249 C 0.10814 0.82965 0.20235 0.0
C250 C 0.05546 0.9621 0.43432 0.0
C251 C 0.06742 0.94582 0.40533 0.0
C252 C 0.05602 0.89808 0.31583 0.0
C253 C 0.10749 0.86149 0.26224 0.0
C254 C 0.09366 0.87603 0.2958 0.0
C255 C 0.05524 0.92384 0.38728 0.0
C256 C 0.06816 0.9066 0.35658 0.0
H257 H 0.1631 0.86247 0.21283 0.0
H258 H 0.14159 0.88365 0.27231 0.0
H259 H 0.05897 0.87762 0.2538 0.0
H260 H 1.0 0.93014 0.43644 0.0
H261 H 0.02092 0.90175 0.38534 0.0
C262 C 0.61883 0.69025 0.65548 0.0
C263 C 0.64051 0.6793 0.63987 0.0
C264 C 0.6064 0.67753 0.6909 0.0
C265 C 0.61267 0.62525 0.784 0.0
H266 H 0.54179 0.61716 0.75854 0.0
C267 C 0.55672 0.54654 0.88009 0.0
C268 C 0.53333 0.55368 0.89425 0.0
C269 C 0.56955 0.56331 0.85067 0.0
C270 C 0.5615 0.61951 0.76651 0.0
H271 H 0.66693 0.64724 0.65121 0.0
H272 H 0.64527 0.62513 0.71275 0.0
H273 H 0.56541 0.64523 0.70717 0.0
H274 H 0.50487 0.58388 0.88781 0.0
H275 H 0.52735 0.61321 0.83647 0.0
H276 H 0.60883 0.59925 0.84299 0.0
C277 C 0.63787 0.64354 0.69774 0.0
C278 C 0.57504 0.63566 0.73714 0.0
C279 C 0.65024 0.65619 0.66226 0.0
C280 C 0.52281 0.57773 0.87741 0.0
C281 C 0.53567 0.59453 0.84793 0.0
C282 C 0.59914 0.60912 0.81337 0.0
C283 C 0.61546 0.65369 0.71163 0.0
C284 C 0.60083 0.63845 0.74522 0.0
C285 C 0.55933 0.58765 0.8347 0.0
C286 C 0.57346 0.60578 0.80462 0.0
H287 H 0.61088 0.70808 0.63911 0.0
H288 H 0.58938 0.68606 0.70138 0.0
H289 H 0.63246 0.62729 0.79153 0.0
H290 H 0.56535 0.52813 0.89231 0.0
H291 H 0.58753 0.55719 0.84041 0.0
C292 C 0.84679 0.15746 0.17797 0.0
C293 C 0.85823 0.17921 0.15666 0.0
C294 C 0.85828 0.14445 0.21697 0.0
C295 C 0.9208 0.13253 0.27063 0.0
H296 H 0.88589 0.10065 0.37146 0.0
C297 C 0.97228 0.07604 0.42429 0.0
C298 C 0.96142 0.05259 0.44045 0.0
C299 C 0.95925 0.0929 0.39217 0.0
C300 C 0.89586 0.10925 0.34331 0.0
H301 H 0.88986 0.20544 0.16163 0.0
H302 H 0.90966 0.18295 0.22994 0.0
H303 H 0.8633 0.1287 0.31274 0.0
H304 H 0.92833 0.02845 0.43544 0.0
H305 H 0.90578 0.05768 0.37884 0.0
H306 H 0.95324 0.11282 0.30056 0.0
C307 C 0.8921 0.17561 0.21587 0.0
C308 C 0.88292 0.12536 0.30977 0.0
C309 C 0.88064 0.1886 0.17689 0.0
C310 C 0.93725 0.04637 0.42371 0.0
C311 C 0.92423 0.06323 0.39154 0.0
C312 C 0.9337 0.11643 0.30408 0.0
C313 C 0.88143 0.15292 0.23552 0.0
C314 C 0.89523 0.13708 0.2729 0.0
C315 C 0.93507 0.08671 0.37541 0.0
C316 C 0.92137 0.10446 0.34067 0.0
H317 H 0.82952 0.14972 0.16333 0.0
H318 H 0.84962 0.12696 0.23112 0.0
H319 H 0.93075 0.1408 0.24219 0.0
H320 H 0.9908 0.08152 0.4367 0.0
H321 H 0.96803 0.11098 0.3809 0.0
C322 C 0.40247 0.29592 0.70825 0.0
C323 C 0.38529 0.30075 0.67061 0.0
C324 C 0.40969 0.31602 0.73716 0.0
C325 C 0.41151 0.38844 0.74289 0.0
H326 H 0.42634 0.37125 0.87303 0.0
C327 C 0.44206 0.46492 0.87891 0.0
C328 C 0.46348 0.45756 0.90645 0.0
C329 C 0.43025 0.44694 0.84985 0.0
C330 C 0.42227 0.37632 0.83675 0.0
H331 H 0.36129 0.33013 0.63493 0.0
H332 H 0.37375 0.36536 0.68572 0.0
H333 H 0.40922 0.33771 0.82327 0.0
H334 H 0.48922 0.42559 0.92522 0.0
H335 H 0.46846 0.39432 0.87522 0.0
H336 H 0.42455 0.42722 0.75695 0.0
C337 C 0.38219 0.34618 0.69212 0.0
C338 C 0.41258 0.3571 0.80814 0.0
C339 C 0.37511 0.32604 0.66288 0.0
C340 C 0.47279 0.43192 0.90442 0.0
C341 C 0.46082 0.41393 0.87601 0.0
C342 C 0.42098 0.4078 0.77173 0.0
C343 C 0.39961 0.34141 0.72961 0.0
C344 C 0.40764 0.3627 0.76062 0.0
C345 C 0.43942 0.4212 0.84853 0.0
C346 C 0.42697 0.40172 0.81871 0.0
H347 H 0.41071 0.27664 0.71494 0.0
H348 H 0.42352 0.31169 0.76504 0.0
H349 H 0.4081 0.39342 0.70643 0.0
H350 H 0.43448 0.48455 0.8797 0.0
H351 H 0.41373 0.45298 0.82902 0.0
C352 C 0.61152 0.6815 0.36133 0.0
C353 C 0.63564 0.6741 0.37772 0.0
C354 C 0.60029 0.67025 0.32244 0.0
C355 C 0.61217 0.6299 0.22265 0.0
H356 H 0.54402 0.60816 0.23565 0.0
C357 C 0.56303 0.5527 0.10967 0.0
C358 C 0.53816 0.55748 0.09444 0.0
C359 C 0.57524 0.56906 0.14095 0.0
C360 C 0.56292 0.61441 0.23116 0.0
H361 H 0.66736 0.65002 0.36486 0.0
H362 H 0.64761 0.63 0.29746 0.0
H363 H 0.56504 0.63359 0.29506 0.0
H364 H 0.50671 0.58344 0.09962 0.0
H365 H 0.52803 0.61194 0.15432 0.0
H366 H 0.61009 0.61004 0.15912 0.0
C367 C 0.63744 0.64474 0.31431 0.0
C368 C 0.57498 0.62906 0.26517 0.0
C369 C 0.64875 0.65614 0.35309 0.0
C370 C 0.52583 0.57913 0.11084 0.0
C371 C 0.53801 0.59541 0.14228 0.0
C372 C 0.6001 0.61512 0.18866 0.0
C373 C 0.61285 0.65119 0.29923 0.0
C374 C 0.59979 0.63687 0.2615 0.0
C375 C 0.5628 0.59048 0.15783 0.0
C376 C 0.5754 0.60709 0.19273 0.0
H377 H 0.60102 0.69551 0.37923 0.0
H378 H 0.58154 0.6761 0.31113 0.0
H379 H 0.63117 0.63588 0.21848 0.0
H380 H 0.57308 0.53622 0.09763 0.0
H381 H 0.59425 0.56459 0.15271 0.0
C382 C 0.91227 0.19321 0.87662 0.0
C383 C 0.88838 0.19016 0.89269 0.0
C384 C 0.92021 0.17747 0.84227 0.0
C385 C 0.90903 0.11288 0.79482 0.0
H386 H 0.94972 0.13956 0.69788 0.0
C387 C 0.9437 0.04687 0.65493 0.0
C388 C 0.96805 0.05112 0.64177 0.0
C389 C 0.93276 0.06411 0.68384 0.0
C390 C 0.93859 0.13174 0.72504 0.0
H391 H 0.85372 0.16887 0.88395 0.0
H392 H 0.86763 0.14141 0.82384 0.0
H393 H 0.93225 0.16999 0.7496 0.0
H394 H 1.00016 0.07652 0.64942 0.0
H395 H 0.9813 0.10618 0.70046 0.0
H396 H 0.91575 0.07459 0.77095 0.0
C397 C 0.88028 0.15582 0.83823 0.0
C398 C 0.92852 0.14921 0.75455 0.0
C399 C 0.87227 0.17168 0.87242 0.0
C400 C 0.98133 0.07273 0.65872 0.0
C401 C 0.97044 0.08988 0.6877 0.0
C402 C 0.91919 0.09539 0.76542 0.0
C403 C 0.90448 0.15824 0.82336 0.0
C404 C 0.91381 0.13995 0.79003 0.0
C405 C 0.94595 0.08594 0.7003 0.0
C406 C 0.9343 0.10459 0.73046 0.0
H407 H 0.92513 0.20728 0.89145 0.0
H408 H 0.93903 0.17968 0.83181 0.0
H409 H 0.89807 0.1051 0.82226 0.0
H410 H 0.93292 0.03048 0.64227 0.0
H411 H 0.91379 0.06063 0.69251 0.0
C412 C 0.39538 0.37958 0.42212 0.0
C413 C 0.41022 0.35867 0.44119 0.0
C414 C 0.40224 0.39388 0.38268 0.0
C415 C 0.45639 0.40925 0.31456 0.0
H416 H 0.40713 0.4263 0.21491 0.0
C417 C 0.48439 0.44521 0.13521 0.0
C418 C 0.47086 0.46617 0.11289 0.0
C419 C 0.47613 0.43272 0.17514 0.0
C420 C 0.42104 0.42195 0.24266 0.0
H421 H 0.44394 0.3365 0.43393 0.0
H422 H 0.45575 0.36126 0.36529 0.0
H423 H 0.39446 0.40399 0.28584 0.0
H424 H 0.4377 0.49005 0.11447 0.0
H425 H 0.42335 0.46827 0.18452 0.0
H426 H 0.48299 0.42703 0.27151 0.0
C427 C 0.43898 0.36683 0.381 0.0
C428 C 0.41379 0.4092 0.28329 0.0
C429 C 0.43211 0.35253 0.42025 0.0
C430 C 0.44855 0.47396 0.13084 0.0
C431 C 0.44028 0.46142 0.17087 0.0
C432 C 0.46363 0.42197 0.27404 0.0
C433 C 0.42412 0.38763 0.36168 0.0
C434 C 0.43144 0.40245 0.31949 0.0
C435 C 0.45415 0.44088 0.19378 0.0
C436 C 0.4461 0.4282 0.2374 0.0
H437 H 0.37839 0.38481 0.43746 0.0
H438 H 0.39052 0.40996 0.36885 0.0
H439 H 0.47037 0.40479 0.34215 0.0
H440 H 0.50156 0.43858 0.12217 0.0
H441 H 0.487 0.41662 0.19144 0.0
C442 C 0.1213 0.8227 0.91323 0.0
C443 C 0.14323 0.83267 0.93442 0.0
C444 C 0.1094 0.83614 0.87505 0.0
C445 C 0.1041 0.90322 0.82273 0.0
H446 H 0.06924 0.86957 0.72079 0.0
C447 C 0.06048 0.96264 0.66546 0.0
C448 C 0.0367 0.95524 0.64836 0.0
C449 C 0.07378 0.94679 0.69873 0.0
C450 C 0.07871 0.8792 0.74929 0.0
H451 H 0.17075 0.86356 0.93015 0.0
H452 H 0.15032 0.88661 0.86313 0.0
H453 H 0.09294 0.84283 0.78007 0.0
H454 H 0.00831 0.92526 0.65261 0.0
H455 H 0.03156 0.89761 0.71115 0.0
H456 H 0.08987 0.93952 0.79224 0.0
C457 C 0.14192 0.86883 0.87675 0.0
C458 C 0.09231 0.8639 0.78319 0.0
C459 C 0.15373 0.8555 0.915 0.0
C460 C 0.02656 0.93154 0.66515 0.0
C461 C 0.03994 0.91561 0.69843 0.0
C462 C 0.09059 0.91846 0.78888 0.0
C463 C 0.11923 0.85975 0.85717 0.0
C464 C 0.10521 0.87576 0.82026 0.0
C465 C 0.06366 0.92313 0.71569 0.0
C466 C 0.07778 0.90667 0.75174 0.0
H467 H 0.11271 0.80516 0.92736 0.0
H468 H 0.0919 0.82866 0.86094 0.0
H469 H 0.11329 0.91297 0.85136 0.0
H470 H 0.06892 0.98069 0.6531 0.0
H471 H 0.09214 0.95296 0.71085 0.0
loop_
_geom_bond_atom_site_label_1
_geom_bond_atom_site_label_2
_geom_bond_distance
_geom_bond_site_symmetry_2
_ccdc_geom_bond_type
O0 Cd1 2.300 1_556 S
O0 C7 1.275 . S
Cd1 O0 2.300 1_554 S
Cd1 O9 2.381 . S
Cd1 O10 2.378 . S
O2 Cd3 2.385 . S
O2 C7 1.255 1_554 S
Cd3 O2 2.385 . S
Cd3 O4 2.317 . S
O4 Cd3 2.317 . S
O4 C5 1.232 . S
C5 O4 1.232 . S
C5 O6 1.218 . S
O6 C5 1.218 . S
C7 O0 1.275 . S
C7 O2 1.255 1_556 S
C8 O9 1.258 . S
C8 O10 1.256 . S
O9 Cd1 2.381 . S
O9 C8 1.258 . S
O10 Cd1 2.378 . S
O10 C8 1.256 . S
O11 Cd12 2.300 . S
O11 C18 1.275 . S
Cd12 O11 2.300 . S
Cd12 O20 2.381 . S
Cd12 O21 2.378 . S
O13 Cd14 2.385 . S
O13 C18 1.255 . S
Cd14 O13 2.385 . S
Cd14 O15 2.317 . S
O15 Cd14 2.317 . S
O15 C16 1.232 . S
C16 O15 1.232 . S
C16 O17 1.218 . S
O17 C16 1.218 . S
C18 O11 1.275 . S
C18 O13 1.255 . S
C19 O20 1.258 . S
C19 O21 1.256 . S
O20 Cd12 2.381 . S
O20 C19 1.258 . S
O21 Cd12 2.378 . S
O21 C19 1.256 . S
O22 Cd23 2.300 . S
O22 C29 1.275 . S
Cd23 O22 2.300 . S
Cd23 O31 2.381 . S
Cd23 O32 2.378 . S
O24 Cd25 2.385 . S
O24 C29 1.255 . S
Cd25 O24 2.385 . S
Cd25 O26 2.317 1_554 S
O26 Cd25 2.317 1_556 S
O26 C27 1.232 . S
C27 O26 1.232 . S
C27 O28 1.218 . S
O28 C27 1.218 . S
C29 O22 1.275 . S
C29 O24 1.255 . S
C30 O31 1.258 . S
C30 O32 1.256 . S
O31 Cd23 2.381 . S
O31 C30 1.258 . S
O32 Cd23 2.378 . S
O32 C30 1.256 . S
O33 Cd34 2.300 . S
O33 C40 1.275 . S
Cd34 O33 2.300 . S
Cd34 O42 2.381 . S
Cd34 O43 2.378 . S
O35 Cd36 2.385 . S
O35 C40 1.255 . S
Cd36 O35 2.385 . S
Cd36 O37 2.317 . S
O37 Cd36 2.317 . S
O37 C38 1.232 . S
C38 O37 1.232 . S
C38 O39 1.218 . S
O39 C38 1.218 . S
C40 O33 1.275 . S
C40 O35 1.255 . S
C41 O42 1.258 . S
C41 O43 1.256 . S
O42 Cd34 2.381 . S
O42 C41 1.258 . S
O43 Cd34 2.378 . S
O43 C41 1.256 . S
C44 O60 1.251 . S
C44 O62 1.254 . S
N45 C46 1.333 . S
N45 C50 1.307 . S
N45 Zn51 2.020 . S
C46 N45 1.333 . S
C46 C47 1.379 . S
C46 H64 0.952 . S
C47 C46 1.379 . S
C47 C48 1.390 . S
C47 H74 0.949 . S
C48 C47 1.390 . S
C48 C49 1.357 . S
C49 C48 1.357 . S
C49 C50 1.370 . S
C49 H75 0.950 . S
C50 N45 1.307 . S
C50 C49 1.370 . S
C50 H68 0.948 . S
Zn51 N45 2.020 . S
Zn51 O60 2.039 1_545 S
Zn51 O66 2.034 1_545 S
Zn51 O70 2.025 . S
Zn51 O72 2.050 . S
C52 O71 1.246 . S
C52 O72 1.211 1_655 S
N53 C54 1.307 . S
N53 C55 1.333 . S
N53 Zn59 2.020 . S
C54 N53 1.307 . S
C54 C58 1.370 . S
C54 H65 0.948 . S
C55 N53 1.333 . S
C55 C56 1.379 . S
C55 H63 0.952 . S
C56 C55 1.379 . S
C56 C57 1.390 . S
C56 H76 0.949 . S
C57 C56 1.390 . S
C57 C58 1.357 . S
C58 C54 1.370 . S
C58 C57 1.357 . S
C58 H77 0.950 . S
Zn59 N53 2.020 . S
Zn59 O62 2.025 1_655 S
Zn59 O67 2.024 1_655 S
Zn59 O69 2.039 1_565 S
Zn59 O71 2.034 1_565 S
O60 C44 1.251 . S
O60 Zn51 2.039 1_565 S
C61 O66 1.246 . S
C61 O67 1.249 . S
O62 C44 1.254 . S
O62 Zn59 2.025 1_455 S
H63 C55 0.952 . S
H64 C46 0.952 . S
H65 C54 0.948 . S
O66 Zn51 2.034 1_565 S
O66 C61 1.246 . S
O67 Zn59 2.024 1_455 S
O67 C61 1.249 . S
H68 C50 0.948 . S
O69 Zn59 2.039 1_545 S
O69 C73 1.251 . S
O70 Zn51 2.025 . S
O70 C73 1.254 1_455 S
O71 C52 1.246 . S
O71 Zn59 2.034 1_545 S
O72 Zn51 2.050 . S
O72 C52 1.211 1_455 S
C73 O69 1.251 . S
C73 O70 1.254 1_655 S
H74 C47 0.949 . S
H75 C49 0.950 . S
H76 C56 0.949 . S
H77 C58 0.950 . S
C78 O94 1.251 . S
C78 O96 1.254 . S
N79 C80 1.333 . S
N79 C84 1.307 . S
N79 Zn85 2.020 . S
C80 N79 1.333 . S
C80 C81 1.379 . S
C80 H98 0.952 1_554 S
C81 C80 1.379 . S
C81 C82 1.390 . S
C81 H108 0.949 1_554 S
C82 C81 1.390 . S
C82 C83 1.357 . S
C83 C82 1.357 . S
C83 C84 1.370 . S
C83 H109 0.950 . S
C84 N79 1.307 . S
C84 C83 1.370 . S
C84 H102 0.948 . S
Zn85 N79 2.020 . S
Zn85 O94 2.039 1_554 S
Zn85 O100 2.034 . S
Zn85 O104 2.025 . S
Zn85 O106 2.024 1_554 S
C86 O105 1.246 . S
C86 O106 1.249 . S
N87 C88 1.307 1_554 S
N87 C89 1.333 . S
N87 Zn93 2.020 . S
C88 N87 1.307 1_556 S
C88 C92 1.370 . S
C88 H99 0.948 . S
C89 N87 1.333 . S
C89 C90 1.379 . S
C89 H97 0.952 . S
C90 C89 1.379 . S
C90 C91 1.390 . S
C90 H110 0.949 . S
C91 C90 1.390 . S
C91 C92 1.357 1_554 S
C92 C88 1.370 . S
C92 C91 1.357 1_556 S
C92 H111 0.950 . S
Zn93 N87 2.020 . S
Zn93 O96 2.025 1_554 S
Zn93 O101 2.024 . S
Zn93 O103 2.039 . S
Zn93 O105 2.034 1_554 S
O94 C78 1.251 . S
O94 Zn85 2.039 1_556 S
C95 O100 1.246 . S
C95 O101 1.249 . S
O96 C78 1.254 . S
O96 Zn93 2.025 1_556 S
H97 C89 0.952 . S
H98 C80 0.952 1_556 S
H99 C88 0.948 . S
O100 Zn85 2.034 . S
O100 C95 1.246 . S
O101 Zn93 2.024 . S
O101 C95 1.249 . S
H102 C84 0.948 . S
O103 Zn93 2.039 . S
O103 C107 1.251 . S
O104 Zn85 2.025 . S
O104 C107 1.254 . S
O105 C86 1.246 . S
O105 Zn93 2.034 1_556 S
O106 Zn85 2.024 1_556 S
O106 C86 1.249 . S
C107 O103 1.251 . S
C107 O104 1.254 . S
H108 C81 0.949 1_556 S
H109 C83 0.950 . S
H110 C90 0.949 . S
H111 C92 0.950 . S
C112 C113 1.349 . S
C112 C114 1.327 . S
C112 H137 0.950 . S
C113 C112 1.349 . S
C113 C129 1.349 . S
C114 C112 1.327 . S
C114 C133 1.429 . S
C114 H138 0.950 . S
C115 C132 1.574 . S
C115 C134 1.368 . S
C115 H139 0.949 . S
H116 C120 0.949 . S
C117 C118 1.349 . S
C117 C119 1.327 . S
C117 H140 0.950 . S
C118 C117 1.349 . S
C118 C130 1.349 . S
C119 C117 1.327 . S
C119 C135 1.429 . S
C119 H141 0.950 . S
C120 H116 0.949 . S
C120 C128 1.574 . S
C120 C136 1.368 . S
H121 C129 0.950 . S
H122 C127 0.950 . S
H123 C128 0.949 . S
H124 C130 0.950 . S
H125 C131 0.950 . S
H126 C132 0.949 . S
C127 H122 0.950 . S
C127 C129 1.327 . S
C127 C133 1.429 . S
C128 C120 1.574 . S
C128 H123 0.949 . S
C128 C134 1.368 . S
C129 C113 1.349 . S
C129 H121 0.950 . S
C129 C127 1.327 . S
C130 C118 1.349 . S
C130 H124 0.950 . S
C130 C131 1.327 . S
C131 H125 0.950 . S
C131 C130 1.327 . S
C131 C135 1.429 . S
C132 C115 1.574 . S
C132 H126 0.949 . S
C132 C136 1.368 . S
C133 C114 1.429 . S
C133 C127 1.429 . S
C133 C134 1.523 . S
C134 C115 1.368 . S
C134 C128 1.368 . S
C134 C133 1.523 . S
C135 C119 1.429 . S
C135 C131 1.429 . S
C135 C136 1.523 . S
C136 C120 1.368 . S
C136 C132 1.368 . S
C136 C135 1.523 . S
H137 C112 0.950 . S
H138 C114 0.950 . S
H139 C115 0.949 . S
H140 C117 0.950 . S
H141 C119 0.950 . S
C142 C143 1.349 . S
C142 C144 1.327 . S
C142 H167 0.950 . S
C143 C142 1.349 . S
C143 C159 1.349 . S
C144 C142 1.327 . S
C144 C163 1.429 . S
C144 H168 0.950 . S
C145 C162 1.574 . S
C145 C164 1.368 1_556 S
C145 H169 0.949 . S
H146 C150 0.949 . S
C147 C148 1.349 1_556 S
C147 C149 1.327 . S
C147 H170 0.950 . S
C148 C147 1.349 1_554 S
C148 C160 1.349 . S
C149 C147 1.327 . S
C149 C165 1.429 1_556 S
C149 H171 0.950 . S
C150 H146 0.949 . S
C150 C158 1.574 . S
C150 C166 1.368 . S
H151 C159 0.950 1_556 S
H152 C157 0.950 . S
H153 C158 0.949 . S
H154 C160 0.950 . S
H155 C161 0.950 . S
H156 C162 0.949 . S
C157 H152 0.950 . S
C157 C159 1.327 1_556 S
C157 C163 1.429 1_556 S
C158 C150 1.574 . S
C158 H153 0.949 . S
C158 C164 1.368 . S
C159 C143 1.349 . S
C159 H151 0.950 1_554 S
C159 C157 1.327 1_554 S
C160 C148 1.349 . S
C160 H154 0.950 . S
C160 C161 1.327 . S
C161 H155 0.950 . S
C161 C160 1.327 . S
C161 C165 1.429 . S
C162 C145 1.574 . S
C162 H156 0.949 . S
C162 C166 1.368 1_556 S
C163 C144 1.429 . S
C163 C157 1.429 1_554 S
C163 C164 1.523 . S
C164 C145 1.368 1_554 S
C164 C158 1.368 . S
C164 C163 1.523 . S
C165 C149 1.429 1_554 S
C165 C161 1.429 . S
C165 C166 1.523 . S
C166 C150 1.368 . S
C166 C162 1.368 1_554 S
C166 C165 1.523 . S
H167 C142 0.950 . S
H168 C144 0.950 . S
H169 C145 0.949 . S
H170 C147 0.950 . S
H171 C149 0.950 . S
C172 C173 1.349 . S
C172 C174 1.327 . S
C172 H197 0.950 . S
C173 C172 1.349 . S
C173 C189 1.349 . S
C174 C172 1.327 . S
C174 C193 1.429 . S
C174 H198 0.950 . S
C175 C192 1.574 . S
C175 C194 1.368 . S
C175 H199 0.949 . S
H176 C180 0.949 . S
C177 C178 1.349 . S
C177 C179 1.327 . S
C177 H200 0.950 . S
C178 C177 1.349 . S
C178 C190 1.349 . S
C179 C177 1.327 . S
C179 C195 1.429 . S
C179 H201 0.950 . S
C180 H176 0.949 . S
C180 C188 1.574 . S
C180 C196 1.368 . S
H181 C189 0.950 . S
H182 C187 0.950 . S
H183 C188 0.949 . S
H184 C190 0.950 . S
H185 C191 0.950 . S
H186 C192 0.949 . S
C187 H182 0.950 . S
C187 C189 1.327 . S
C187 C193 1.429 . S
C188 C180 1.574 . S
C188 H183 0.949 . S
C188 C194 1.368 . S
C189 C173 1.349 . S
C189 H181 0.950 . S
C189 C187 1.327 . S
C190 C178 1.349 . S
C190 H184 0.950 . S
C190 C191 1.327 . S
C191 H185 0.950 . S
C191 C190 1.327 . S
C191 C195 1.429 . S
C192 C175 1.574 . S
C192 H186 0.949 . S
C192 C196 1.368 . S
C193 C174 1.429 . S
C193 C187 1.429 . S
C193 C194 1.523 . S
C194 C175 1.368 . S
C194 C188 1.368 . S
C194 C193 1.523 . S
C195 C179 1.429 . S
C195 C191 1.429 . S
C195 C196 1.523 . S
C196 C180 1.368 . S
C196 C192 1.368 . S
C196 C195 1.523 . S
H197 C172 0.950 . S
H198 C174 0.950 . S
H199 C175 0.949 . S
H200 C177 0.950 . S
H201 C179 0.950 . S
C202 C203 1.349 . S
C202 C204 1.327 . S
C202 H227 0.950 . S
C203 C202 1.349 . S
C203 C219 1.349 . S
C204 C202 1.327 . S
C204 C223 1.429 . S
C204 H228 0.950 . S
C205 C222 1.574 . S
C205 C224 1.368 1_556 S
C205 H229 0.949 . S
H206 C210 0.949 . S
C207 C208 1.349 1_556 S
C207 C209 1.327 . S
C207 H230 0.950 . S
C208 C207 1.349 1_554 S
C208 C220 1.349 . S
C209 C207 1.327 . S
C209 C225 1.429 1_556 S
C209 H231 0.950 . S
C210 H206 0.949 . S
C210 C218 1.574 . S
C210 C226 1.368 . S
H211 C219 0.950 1_556 S
H212 C217 0.950 1_556 S
H213 C218 0.949 . S
H214 C220 0.950 . S
H215 C221 0.950 . S
H216 C222 0.949 . S
C217 H212 0.950 1_554 S
C217 C219 1.327 . S
C217 C223 1.429 . S
C218 C210 1.574 . S
C218 H213 0.949 . S
C218 C224 1.368 . S
C219 C203 1.349 . S
C219 H211 0.950 1_554 S
C219 C217 1.327 . S
C220 C208 1.349 . S
C220 H214 0.950 . S
C220 C221 1.327 . S
C221 H215 0.950 . S
C221 C220 1.327 . S
C221 C225 1.429 . S
C222 C205 1.574 . S
C222 H216 0.949 . S
C222 C226 1.368 1_556 S
C223 C204 1.429 . S
C223 C217 1.429 . S
C223 C224 1.523 . S
C224 C205 1.368 1_554 S
C224 C218 1.368 . S
C224 C223 1.523 . S
C225 C209 1.429 1_554 S
C225 C221 1.429 . S
C225 C226 1.523 . S
C226 C210 1.368 . S
C226 C222 1.368 1_554 S
C226 C225 1.523 . S
H227 C202 0.950 . S
H228 C204 0.950 . S
H229 C205 0.949 . S
H230 C207 0.950 . S
H231 C209 0.950 . S
C232 C233 1.349 . S
C232 C234 1.327 . S
C232 H257 0.950 . S
C233 C232 1.349 . S
C233 C249 1.349 . S
C234 C232 1.327 . S
C234 C253 1.429 . S
C234 H258 0.950 . S
C235 C252 1.574 . S
C235 C254 1.368 . S
C235 H259 0.949 . S
H236 C240 0.949 . S
C237 C238 1.349 . S
C237 C239 1.327 . S
C237 H260 0.950 . S
C238 C237 1.349 . S
C238 C250 1.349 . S
C239 C237 1.327 . S
C239 C255 1.429 . S
C239 H261 0.950 . S
C240 H236 0.949 . S
C240 C248 1.574 . S
C240 C256 1.368 . S
H241 C249 0.950 . S
H242 C247 0.950 . S
H243 C248 0.949 . S
H244 C250 0.950 . S
H245 C251 0.950 . S
H246 C252 0.949 . S
C247 H242 0.950 . S
C247 C249 1.327 . S
C247 C253 1.429 . S
C248 C240 1.574 . S
C248 H243 0.949 . S
C248 C254 1.368 . S
C249 C233 1.349 . S
C249 H241 0.950 . S
C249 C247 1.327 . S
C250 C238 1.349 . S
C250 H244 0.950 . S
C250 C251 1.327 . S
C251 H245 0.950 . S
C251 C250 1.327 . S
C251 C255 1.429 . S
C252 C235 1.574 . S
C252 H246 0.949 . S
C252 C256 1.368 . S
C253 C234 1.429 . S
C253 C247 1.429 . S
C253 C254 1.523 . S
C254 C235 1.368 . S
C254 C248 1.368 . S
C254 C253 1.523 . S
C255 C239 1.429 . S
C255 C251 1.429 . S
C255 C256 1.523 . S
C256 C240 1.368 . S
C256 C252 1.368 . S
C256 C255 1.523 . S
H257 C232 0.950 . S
H258 C234 0.950 . S
H259 C235 0.949 . S
H260 C237 0.950 . S
H261 C239 0.950 . S
C262 C263 1.349 . S
C262 C264 1.327 . S
C262 H287 0.950 . S
C263 C262 1.349 . S
C263 C279 1.349 . S
C264 C262 1.327 . S
C264 C283 1.429 . S
C264 H288 0.950 . S
C265 C282 1.574 . S
C265 C284 1.368 . S
C265 H289 0.949 . S
H266 C270 0.949 . S
C267 C268 1.349 . S
C267 C269 1.327 . S
C267 H290 0.950 . S
C268 C267 1.349 . S
C268 C280 1.349 . S
C269 C267 1.327 . S
C269 C285 1.429 . S
C269 H291 0.950 . S
C270 H266 0.949 . S
C270 C278 1.574 . S
C270 C286 1.368 . S
H271 C279 0.950 . S
H272 C277 0.950 . S
H273 C278 0.949 . S
H274 C280 0.950 . S
H275 C281 0.950 . S
H276 C282 0.949 . S
C277 H272 0.950 . S
C277 C279 1.327 . S
C277 C283 1.429 . S
C278 C270 1.574 . S
C278 H273 0.949 . S
C278 C284 1.368 . S
C279 C263 1.349 . S
C279 H271 0.950 . S
C279 C277 1.327 . S
C280 C268 1.349 . S
C280 H274 0.950 . S
C280 C281 1.327 . S
C281 H275 0.950 . S
C281 C280 1.327 . S
C281 C285 1.429 . S
C282 C265 1.574 . S
C282 H276 0.949 . S
C282 C286 1.368 . S
C283 C264 1.429 . S
C283 C277 1.429 . S
C283 C284 1.523 . S
C284 C265 1.368 . S
C284 C278 1.368 . S
C284 C283 1.523 . S
C285 C269 1.429 . S
C285 C281 1.429 . S
C285 C286 1.523 . S
C286 C270 1.368 . S
C286 C282 1.368 . S
C286 C285 1.523 . S
H287 C262 0.950 . S
H288 C264 0.950 . S
H289 C265 0.949 . S
H290 C267 0.950 . S
H291 C269 0.950 . S
C292 C293 1.349 . S
C292 C294 1.327 . S
C292 H317 0.950 . S
C293 C292 1.349 . S
C293 C309 1.349 . S
C294 C292 1.327 . S
C294 C313 1.429 . S
C294 H318 0.950 . S
C295 C312 1.574 . S
C295 C314 1.368 . S
C295 H319 0.949 . S
H296 C300 0.949 . S
C297 C298 1.349 . S
C297 C299 1.327 . S
C297 H320 0.950 . S
C298 C297 1.349 . S
C298 C310 1.349 . S
C299 C297 1.327 . S
C299 C315 1.429 . S
C299 H321 0.950 . S
C300 H296 0.949 . S
C300 C308 1.574 . S
C300 C316 1.368 . S
H301 C309 0.950 . S
H302 C307 0.950 . S
H303 C308 0.949 . S
H304 C310 0.950 . S
H305 C311 0.950 . S
H306 C312 0.949 . S
C307 H302 0.950 . S
C307 C309 1.327 . S
C307 C313 1.429 . S
C308 C300 1.574 . S
C308 H303 0.949 . S
C308 C314 1.368 . S
C309 C293 1.349 . S
C309 H301 0.950 . S
C309 C307 1.327 . S
C310 C298 1.349 . S
C310 H304 0.950 . S
C310 C311 1.327 . S
C311 H305 0.950 . S
C311 C310 1.327 . S
C311 C315 1.429 . S
C312 C295 1.574 . S
C312 H306 0.949 . S
C312 C316 1.368 . S
C313 C294 1.429 . S
C313 C307 1.429 . S
C313 C314 1.523 . S
C314 C295 1.368 . S
C314 C308 1.368 . S
C314 C313 1.523 . S
C315 C299 1.429 . S
C315 C311 1.429 . S
C315 C316 1.523 . S
C316 C300 1.368 . S
C316 C312 1.368 . S
C316 C315 1.523 . S
H317 C292 0.950 . S
H318 C294 0.950 . S
H319 C295 0.949 . S
H320 C297 0.950 . S
H321 C299 0.950 . S
C322 C323 1.349 . S
C322 C324 1.327 . S
C322 H347 0.950 . S
C323 C322 1.349 . S
C323 C339 1.349 . S
C324 C322 1.327 . S
C324 C343 1.429 . S
C324 H348 0.950 . S
C325 C342 1.574 . S
C325 C344 1.368 . S
C325 H349 0.949 . S
H326 C330 0.949 . S
C327 C328 1.349 . S
C327 C329 1.327 . S
C327 H350 0.950 . S
C328 C327 1.349 . S
C328 C340 1.349 . S
C329 C327 1.327 . S
C329 C345 1.429 . S
C329 H351 0.950 . S
C330 H326 0.949 . S
C330 C338 1.574 . S
C330 C346 1.368 . S
H331 C339 0.950 . S
H332 C337 0.950 . S
H333 C338 0.949 . S
H334 C340 0.950 . S
H335 C341 0.950 . S
H336 C342 0.949 . S
C337 H332 0.950 . S
C337 C339 1.327 . S
C337 C343 1.429 . S
C338 C330 1.574 . S
C338 H333 0.949 . S
C338 C344 1.368 . S
C339 C323 1.349 . S
C339 H331 0.950 . S
C339 C337 1.327 . S
C340 C328 1.349 . S
C340 H334 0.950 . S
C340 C341 1.327 . S
C341 H335 0.950 . S
C341 C340 1.327 . S
C341 C345 1.429 . S
C342 C325 1.574 . S
C342 H336 0.949 . S
C342 C346 1.368 . S
C343 C324 1.429 . S
C343 C337 1.429 . S
C343 C344 1.523 . S
C344 C325 1.368 . S
C344 C338 1.368 . S
C344 C343 1.523 . S
C345 C329 1.429 . S
C345 C341 1.429 . S
C345 C346 1.523 . S
C346 C330 1.368 . S
C346 C342 1.368 . S
C346 C345 1.523 . S
H347 C322 0.950 . S
H348 C324 0.950 . S
H349 C325 0.949 . S
H350 C327 0.950 . S
H351 C329 0.950 . S
C352 C353 1.349 . S
C352 C354 1.327 . S
C352 H377 0.950 . S
C353 C352 1.349 . S
C353 C369 1.349 . S
C354 C352 1.327 . S
C354 C373 1.429 . S
C354 H378 0.950 . S
C355 C372 1.574 . S
C355 C374 1.368 . S
C355 H379 0.949 . S
H356 C360 0.949 . S
C357 C358 1.349 . S
C357 C359 1.327 . S
C357 H380 0.950 . S
C358 C357 1.349 . S
C358 C370 1.349 . S
C359 C357 1.327 . S
C359 C375 1.429 . S
C359 H381 0.950 . S
C360 H356 0.949 . S
C360 C368 1.574 . S
C360 C376 1.368 . S
H361 C369 0.950 . S
H362 C367 0.950 . S
H363 C368 0.949 . S
H364 C370 0.950 . S
H365 C371 0.950 . S
H366 C372 0.949 . S
C367 H362 0.950 . S
C367 C369 1.327 . S
C367 C373 1.429 . S
C368 C360 1.574 . S
C368 H363 0.949 . S
C368 C374 1.368 . S
C369 C353 1.349 . S
C369 H361 0.950 . S
C369 C367 1.327 . S
C370 C358 1.349 . S
C370 H364 0.950 . S
C370 C371 1.327 . S
C371 H365 0.950 . S
C371 C370 1.327 . S
C371 C375 1.429 . S
C372 C355 1.574 . S
C372 H366 0.949 . S
C372 C376 1.368 . S
C373 C354 1.429 . S
C373 C367 1.429 . S
C373 C374 1.523 . S
C374 C355 1.368 . S
C374 C368 1.368 . S
C374 C373 1.523 . S
C375 C359 1.429 . S
C375 C371 1.429 . S
C375 C376 1.523 . S
C376 C360 1.368 . S
C376 C372 1.368 . S
C376 C375 1.523 . S
H377 C352 0.950 . S
H378 C354 0.950 . S
H379 C355 0.949 . S
H380 C357 0.950 . S
H381 C359 0.950 . S
C382 C383 1.349 . S
C382 C384 1.327 . S
C382 H407 0.950 . S
C383 C382 1.349 . S
C383 C399 1.349 . S
C384 C382 1.327 . S
C384 C403 1.429 . S
C384 H408 0.950 . S
C385 C402 1.574 . S
C385 C404 1.368 . S
C385 H409 0.949 . S
H386 C390 0.949 . S
C387 C388 1.349 . S
C387 C389 1.327 . S
C387 H410 0.950 . S
C388 C387 1.349 . S
C388 C400 1.349 . S
C389 C387 1.327 . S
C389 C405 1.429 . S
C389 H411 0.950 . S
C390 H386 0.949 . S
C390 C398 1.574 . S
C390 C406 1.368 . S
H391 C399 0.950 . S
H392 C397 0.950 . S
H393 C398 0.949 . S
H394 C400 0.934 1_455 S
H395 C401 0.950 . S
H396 C402 0.949 . S
C397 H392 0.950 . S
C397 C399 1.327 . S
C397 C403 1.429 . S
C398 C390 1.574 . S
C398 H393 0.949 . S
C398 C404 1.368 . S
C399 C383 1.349 . S
C399 H391 0.950 . S
C399 C397 1.327 . S
C400 C388 1.349 . S
C400 H394 0.934 1_655 S
C400 C401 1.327 . S
C401 H395 0.950 . S
C401 C400 1.327 . S
C401 C405 1.429 . S
C402 C385 1.574 . S
C402 H396 0.949 . S
C402 C406 1.368 . S
C403 C384 1.429 . S
C403 C397 1.429 . S
C403 C404 1.523 . S
C404 C385 1.368 . S
C404 C398 1.368 . S
C404 C403 1.523 . S
C405 C389 1.429 . S
C405 C401 1.429 . S
C405 C406 1.523 . S
C406 C390 1.368 . S
C406 C402 1.368 . S
C406 C405 1.523 . S
H407 C382 0.950 . S
H408 C384 0.950 . S
H409 C385 0.949 . S
H410 C387 0.950 . S
H411 C389 0.950 . S
C412 C413 1.349 . S
C412 C414 1.327 . S
C412 H437 0.950 . S
C413 C412 1.349 . S
C413 C429 1.349 . S
C414 C412 1.327 . S
C414 C433 1.429 . S
C414 H438 0.950 . S
C415 C432 1.574 . S
C415 C434 1.368 . S
C415 H439 0.949 . S
H416 C420 0.949 . S
C417 C418 1.349 . S
C417 C419 1.327 . S
C417 H440 0.950 . S
C418 C417 1.349 . S
C418 C430 1.349 . S
C419 C417 1.327 . S
C419 C435 1.429 . S
C419 H441 0.950 . S
C420 H416 0.949 . S
C420 C428 1.574 . S
C420 C436 1.368 . S
H421 C429 0.950 . S
H422 C427 0.950 . S
H423 C428 0.949 . S
H424 C430 0.950 . S
H425 C431 0.950 . S
H426 C432 0.949 . S
C427 H422 0.950 . S
C427 C429 1.327 . S
C427 C433 1.429 . S
C428 C420 1.574 . S
C428 H423 0.949 . S
C428 C434 1.368 . S
C429 C413 1.349 . S
C429 H421 0.950 . S
C429 C427 1.327 . S
C430 C418 1.349 . S
C430 H424 0.950 . S
C430 C431 1.327 . S
C431 H425 0.950 . S
C431 C430 1.327 . S
C431 C435 1.429 . S
C432 C415 1.574 . S
C432 H426 0.949 . S
C432 C436 1.368 . S
C433 C414 1.429 . S
C433 C427 1.429 . S
C433 C434 1.523 . S
C434 C415 1.368 . S
C434 C428 1.368 . S
C434 C433 1.523 . S
C435 C419 1.429 . S
C435 C431 1.429 . S
C435 C436 1.523 . S
C436 C420 1.368 . S
C436 C432 1.368 . S
C436 C435 1.523 . S
H437 C412 0.950 . S
H438 C414 0.950 . S
H439 C415 0.949 . S
H440 C417 0.950 . S
H441 C419 0.950 . S
C442 C443 1.349 . S
C442 C444 1.327 . S
C442 H467 0.950 . S
C443 C442 1.349 . S
C443 C459 1.349 . S
C444 C442 1.327 . S
C444 C463 1.429 . S
C444 H468 0.950 . S
C445 C462 1.574 . S
C445 C464 1.368 . S
C445 H469 0.949 . S
H446 C450 0.949 . S
C447 C448 1.349 . S
C447 C449 1.327 . S
C447 H470 0.950 . S
C448 C447 1.349 . S
C448 C460 1.349 . S
C449 C447 1.327 . S
C449 C465 1.429 . S
C449 H471 0.950 . S
C450 H446 0.949 . S
C450 C458 1.574 . S
C450 C466 1.368 . S
H451 C459 0.950 . S
H452 C457 0.950 . S
H453 C458 0.949 . S
H454 C460 0.950 . S
H455 C461 0.950 . S
H456 C462 0.949 . S
C457 H452 0.950 . S
C457 C459 1.327 . S
C457 C463 1.429 . S
C458 C450 1.574 . S
C458 H453 0.949 . S
C458 C464 1.368 . S
C459 C443 1.349 . S
C459 H451 0.950 . S
C459 C457 1.327 . S
C460 C448 1.349 . S
C460 H454 0.950 . S
C460 C461 1.327 . S
C461 H455 0.950 . S
C461 C460 1.327 . S
C461 C465 1.429 . S
C462 C445 1.574 . S
C462 H456 0.949 . S
C462 C466 1.368 . S
C463 C444 1.429 . S
C463 C457 1.429 . S
C463 C464 1.523 . S
C464 C445 1.368 . S
C464 C458 1.368 . S
C464 C463 1.523 . S
C465 C449 1.429 . S
C465 C461 1.429 . S
C465 C466 1.523 . S
C466 C450 1.368 . S
C466 C462 1.368 . S
C466 C465 1.523 . S
H467 C442 0.950 . S
H468 C444 0.950 . S
H469 C445 0.949 . S
H470 C447 0.950 . S
H471 C449 0.950 . S
C118 C48 1.529 . S
C113 C41 1.509 . S
C143 C8 1.497 . S
C148 C91 1.510 . S
C173 C19 1.517 . S
C178 C57 1.536 . S
C203 C30 1.506 . S
C208 C82 1.506 . S
C238 C44 1.585 . S
C233 C5 1.350 . S
C268 C86 1.663 . S
C263 C18 1.611 . S
C293 C29 1.561 . S
C298 C52 1.587 . S
C323 C40 1.606 . S
C328 C78 1.666 . S
C358 C107 1.385 . S
C353 C16 1.159 . S
C388 C73 1.401 . S
C383 C27 1.241 . S
C418 C95 1.380 . S
C413 C38 1.156 . S
C443 C7 1.355 . S
C448 C61 1.393 . S
