# Generated by pormake.
# Topology pts, (4,4)-cn, num edge types: 1
# Building blocks:
#     Node 0, Type 0, BuildingBlock: MUDLON_clean_sbu_0, # of connection points: 4
#     Node 1, Type 0, BuildingBlock: MUDLON_clean_sbu_0, # of connection points: 4
#     Node 2, Type 1, BuildingBlock: QUQFOY_clean_sbu_1, # of connection points: 4
#     Node 3, Type 1, BuildingBlock: QUQFOY_clean_sbu_1, # of connection points: 4
#     Edge 4, Type (0, 1), BuildingBlock: XUDNAN_clean_linker_2, # of connection points: 2
#     Edge 5, Type (0, 1), BuildingBlock: XUDNAN_clean_linker_2, # of connection points: 2
#     Edge 6, Type (0, 1), BuildingBlock: XUDNAN_clean_linker_2, # of connection points: 2
#     Edge 7, Type (0, 1), BuildingBlock: XUDNAN_clean_linker_2, # of connection points: 2
#     Edge 8, Type (0, 1), BuildingBlock: XUDNAN_clean_linker_2, # of connection points: 2
#     Edge 9, Type (0, 1), BuildingBlock: XUDNAN_clean_linker_2, # of connection points: 2
#     Edge 10, Type (0, 1), BuildingBlock: XUDNAN_clean_linker_2, # of connection points: 2
#     Edge 11, Type (0, 1), BuildingBlock: XUDNAN_clean_linker_2, # of connection points: 2
# Relax obj value: 0.129
# Max RMSD: 0.244
# Mean RMSD: 0.144
data_MOF--net-pts--node1-MUDLON_clean_sbu_0--node2-QUQFOY_clean_sbu_1--edge1-XUDNAN_clean_linker_2
_symmetry_space_group_name_H-M    P1
_symmetry_Int_Tables_number       1
_symmetry_cell_setting            triclinic
loop_
_symmetry_equiv_pos_as_xyz
'x, y, z'
_cell_length_a     21.787147
_cell_length_b     23.844199
_cell_length_c     39.833406
_cell_angle_alpha  91.491138
_cell_angle_beta   91.874429
_cell_angle_gamma 89.260574
loop_
_atom_site_label
_atom_site_type_symbol
_atom_site_fract_x
_atom_site_fract_y
_atom_site_fract_z
_atom_type_partial_charge
Mg0 Mg 0.46999 1.0025 0.03343 0.0
C1 C 0.42743 0.89124 0.99219 0.0
O2 O 0.43351 0.83659 0.98814 0.0
C3 C 0.52007 0.98807 0.10478 0.0
O4 O 0.4677 0.96198 0.10707 0.0
C5 C 0.34659 0.99082 0.06048 0.0
O6 O 0.36497 0.93937 0.05353 0.0
O7 O 0.38101 0.03117 0.05301 0.0
O8 O 0.46058 0.91525 1.01528 0.0
O9 O 0.51654 0.04298 0.99258 0.0
C10 C 0.55934 1.01091 0.98184 0.0
O11 O 0.56924 0.96288 0.99663 0.0
O12 O 0.53391 1.00776 0.07668 0.0
Mg13 Mg 0.0478 0.5128 0.5295 0.0
C14 C 0.07791 0.62685 0.56165 0.0
O15 O 0.10401 0.63211 0.53264 0.0
C16 C 0.15793 0.44214 0.49985 0.0
O17 O 0.21636 0.4278 0.50066 0.0
C18 C 0.97863 0.59856 0.48722 0.0
O19 O 0.96484 0.61836 0.51714 0.0
O20 O 0.00667 0.5515 0.48473 0.0
O21 O 0.05271 0.58056 0.56787 0.0
O22 O 0.00491 0.4406 0.55157 0.0
C23 C 0.01944 0.43528 0.58258 0.0
O24 O 0.05268 0.47453 0.59777 0.0
O25 O 0.14036 0.48269 0.51893 0.0
O26 O 0.88088 1.00689 0.2813 0.0
Cd27 Cd 0.97051 0.98835 0.29511 0.0
Cd28 Cd 0.97707 0.10991 0.28511 0.0
O29 O 0.88762 0.0957 0.26714 0.0
O30 O 0.96564 0.90443 0.29525 0.0
O31 O 0.98914 0.95416 0.34096 0.0
C32 C 0.97908 0.90569 0.32687 0.0
C33 C 0.99538 0.18123 0.3262 0.0
C34 C 0.85687 0.05091 0.26896 0.0
C35 C 0.05835 0.03692 0.24344 0.0
O36 O 0.04483 0.08734 0.25179 0.0
O37 O 0.03413 0.99597 0.25786 0.0
O38 O 0.98256 0.19259 0.29525 0.0
O39 O -0.00177 0.12897 0.33404 0.0
O40 O 0.92087 0.07301 0.81528 0.0
Cd41 Cd 0.00405 0.07515 0.79176 0.0
Cd42 Cd 0.99126 0.96128 0.79166 0.0
O43 O 0.90703 0.98139 0.81231 0.0
O44 O 0.01145 0.15319 0.77475 0.0
O45 O 0.00291 0.07833 0.74118 0.0
C46 C 0.0071 0.13214 0.74461 0.0
C47 C 0.00106 0.90867 0.74156 0.0
C48 C 0.8885 0.03044 0.82092 0.0
C49 C 0.09895 1.00888 0.83184 0.0
O50 O 0.06786 0.96557 0.82359 0.0
O51 O 0.08282 0.05673 0.82077 0.0
O52 O 0.98967 0.88463 0.76933 0.0
O53 O 0.00468 0.96272 0.74215 0.0
H54 H 0.31818 0.07596 0.10672 0.0
H55 H 0.25044 0.921 0.06037 0.0
H56 H 0.16802 0.91922 0.10089 0.0
H57 H 0.29525 0.04138 0.18952 0.0
H58 H 0.26886 0.10934 0.20423 0.0
H59 H 0.31882 0.10385 0.16914 0.0
H60 H 0.23985 0.15852 0.13222 0.0
H61 H 0.19001 0.16514 0.1674 0.0
H62 H 0.16177 0.1345 0.12812 0.0
H63 H 0.10414 0.92485 0.15022 0.0
H64 H 0.04931 0.94558 0.20202 0.0
H65 H 0.15081 0.10036 0.21686 0.0
C66 C 0.28459 0.04289 0.10444 0.0
C67 C 0.29066 0.99861 0.08031 0.0
C68 C 0.24675 0.95527 0.07862 0.0
C69 C 0.19974 0.95381 0.10158 0.0
C70 C 0.19656 0.99638 0.12599 0.0
C71 C 0.23665 0.0409 0.12728 0.0
C72 C 0.22366 0.07968 0.15728 0.0
C73 C 0.28001 0.08378 0.18146 0.0
C74 C 0.20256 0.13792 0.14555 0.0
C75 C 0.17149 0.04883 0.173 0.0
C76 C 0.15716 1.00077 0.15442 0.0
C77 C 0.11396 0.96293 0.16467 0.0
C78 C 0.08348 0.97487 0.19438 0.0
C79 C 0.09555 0.02465 0.21352 0.0
C80 C 0.14021 0.06225 0.20259 0.0
H81 H 0.02711 0.42165 0.65027 0.0
H82 H 0.98344 0.33205 0.55651 0.0
H83 H 0.97377 0.24408 0.58771 0.0
H84 H 0.11925 0.31671 0.68707 0.0
H85 H 0.09303 0.32959 0.72905 0.0
H86 H 0.09221 0.38564 0.69964 0.0
H87 H 0.97597 0.40244 0.70831 0.0
H88 H 0.97654 0.34684 0.73809 0.0
H89 H 0.92369 0.34478 0.70232 0.0
H90 H 0.97662 0.16435 0.62962 0.0
H91 H 0.9841 0.10199 0.67835 0.0
H92 H 0.02462 0.24571 0.74404 0.0
C93 C 0.01469 0.38373 0.63625 0.0
C94 C 0.00594 0.38374 0.60093 0.0
C95 C 0.98982 0.33315 0.5836 0.0
C96 C 0.98456 0.28296 0.60111 0.0
C97 C 0.99499 0.28428 0.63592 0.0
C98 C 0.00894 0.33365 0.65327 0.0
C99 C 0.01914 0.32417 0.69048 0.0
C100 C 0.08481 0.33996 0.70223 0.0
C101 C 0.97095 0.35646 0.711 0.0
C102 C 0.00972 0.26151 0.69146 0.0
C103 C 0.99589 0.23909 0.65979 0.0
C104 C 0.98691 0.18166 0.65452 0.0
C105 C 0.99152 0.14652 0.68235 0.0
C106 C 0.00483 0.16891 0.71506 0.0
C107 C 0.01415 0.22721 0.71944 0.0
H108 H 0.62334 0.0534 0.11173 0.0
H109 H 0.5104 0.93993 0.16591 0.0
H110 H 0.57906 0.95165 0.21601 0.0
H111 H 0.76701 1.0066 0.14488 0.0
H112 H 0.80079 0.07525 0.14747 0.0
H113 H 0.74081 0.06025 0.11654 0.0
H114 H 0.67724 0.14463 0.13949 0.0
H115 H 0.73691 0.15955 0.17074 0.0
H116 H 0.65942 0.14838 0.18337 0.0
H117 H 0.66433 0.96902 0.25845 0.0
H118 H 0.76077 0.9909 0.29023 0.0
H119 H 0.81577 0.09722 0.21013 0.0
C120 C 0.61283 0.03124 0.13419 0.0
C121 C 0.56144 0.99563 0.13483 0.0
C122 C 0.54937 0.96747 0.16476 0.0
C123 C 0.58802 0.974 0.19341 0.0
C124 C 0.63819 1.00939 0.19195 0.0
C125 C 0.65061 0.03774 0.16317 0.0
C126 C 0.70876 0.07173 0.16792 0.0
C127 C 0.7572 0.05227 0.14272 0.0
C128 C 0.69472 0.13482 0.16522 0.0
C129 C 0.72794 0.05692 0.20357 0.0
C130 C 0.68638 0.02106 0.217 0.0
C131 C 0.69659 0.99791 0.24849 0.0
C132 C 0.75137 1.01062 0.26638 0.0
C133 C 0.79494 0.04664 0.25293 0.0
C134 C 0.78229 0.07106 0.22147 0.0
H135 H 0.03728 0.62978 0.62662 0.0
H136 H 0.10354 0.73604 0.549 0.0
H137 H 0.08863 0.81931 0.58597 0.0
H138 H 0.92099 0.72473 0.6569 0.0
H139 H 0.93389 0.70789 0.70044 0.0
H140 H 0.94972 0.65619 0.66798 0.0
H141 H 0.06138 0.64529 0.69149 0.0
H142 H 0.0458 0.69667 0.72415 0.0
H143 H 0.10886 0.70646 0.69679 0.0
H144 H 0.06437 0.89157 0.63072 0.0
H145 H 0.03874 0.94716 0.68159 0.0
H146 H 0.99053 0.79438 0.73101 0.0
C147 C 0.04887 0.67054 0.61745 0.0
C148 C 0.07169 0.67624 0.58486 0.0
C149 C 0.08636 0.7304 0.57388 0.0
C150 C 0.07778 0.77809 0.59466 0.0
C151 C 0.05483 0.77107 0.62649 0.0
C152 C 0.04106 0.71866 0.638 0.0
C153 C 0.01796 0.72279 0.67352 0.0
C154 C 0.9517 0.70165 0.67477 0.0
C155 C 0.06108 0.69092 0.69793 0.0
C156 C 0.02081 0.78568 0.68013 0.0
C157 C 0.04182 0.81273 0.65256 0.0
C158 C 0.04805 0.87083 0.65251 0.0
C159 C 0.03318 0.90208 0.68152 0.0
C160 C 0.01264 0.87525 0.71037 0.0
C161 C 0.0061 0.81622 0.70943 0.0
H162 H 0.34169 0.84493 0.94866 0.0
H163 H 0.40844 1.00632 0.98556 0.0
H164 H 0.33413 0.05393 0.94792 0.0
H165 H 0.31613 0.88219 0.86274 0.0
H166 H 0.24719 0.84155 0.85717 0.0
H167 H 0.30631 0.82039 0.88704 0.0
H168 H 0.2272 0.82222 0.93426 0.0
H169 H 0.16777 0.84315 0.90453 0.0
H170 H 0.18267 0.88518 0.94211 0.0
H171 H 0.25194 0.08399 0.90476 0.0
H172 H 0.16647 0.09343 0.86278 0.0
H173 H 0.15274 0.91203 0.85524 0.0
C174 C 0.34106 0.89036 0.94894 0.0
C175 C 0.38187 0.92168 0.97031 0.0
C176 C 0.37847 0.98101 0.96974 0.0
C177 C 0.33615 1.00857 0.94823 0.0
C178 C 0.29708 0.97625 0.9274 0.0
C179 C 0.29896 0.91838 0.9278 0.0
C180 C 0.25138 0.89306 0.90351 0.0
C181 C 0.28211 0.85719 0.87599 0.0
C182 C 0.20448 0.8589 0.92223 0.0
C183 C 0.22235 0.94575 0.88929 0.0
C184 C 0.24949 0.99337 0.9032 0.0
C185 C 0.23034 0.04692 0.89377 0.0
C186 C 0.18182 0.05186 0.86981 0.0
C187 C 0.15265 1.00354 0.85564 0.0
C188 C 0.17379 0.94989 0.86553 0.0
H189 H 0.14964 0.3288 0.49019 0.0
H190 H 0.07715 0.48649 0.45389 0.0
H191 H 0.01944 0.43587 0.40821 0.0
H192 H 0.17691 0.26762 0.4123 0.0
H193 H 0.15559 0.19742 0.42245 0.0
H194 H 0.18353 0.24494 0.45511 0.0
H195 H 0.08494 0.23092 0.48836 0.0
H196 H 0.05691 0.18268 0.45597 0.0
H197 H 0.01086 0.24273 0.46812 0.0
H198 H 0.98193 0.36909 0.36215 0.0
H199 H 0.96082 0.29126 0.32149 0.0
H200 H 0.05621 0.1755 0.38795 0.0
C201 C 0.11988 0.35234 0.47324 0.0
C202 C 0.11554 0.41148 0.47634 0.0
C203 C 0.07809 0.44116 0.45307 0.0
C204 C 0.04608 0.41267 0.42672 0.0
C205 C 0.05197 0.35434 0.42405 0.0
C206 C 0.0873 0.32439 0.44698 0.0
C207 C 0.08902 0.26236 0.43732 0.0
C208 C 0.15519 0.24192 0.43145 0.0
C209 C 0.05861 0.22762 0.46403 0.0
C210 C 0.05086 0.26225 0.40477 0.0
C211 C 0.02984 0.31575 0.39763 0.0
C212 C -0.00278 0.32692 0.36781 0.0
C213 C 0.98572 0.28242 0.34477 0.0
C214 C 0.00639 0.22714 0.3516 0.0
C215 C 0.03892 0.21706 0.38223 0.0
H216 H 0.63418 0.94048 0.94677 0.0
H217 H 0.57412 0.11446 0.95359 0.0
H218 H 0.64707 0.13787 0.90958 0.0
H219 H 0.79032 0.96497 0.93797 0.0
H220 H 0.8024 0.90711 0.90881 0.0
H221 H 0.74224 0.90405 0.93854 0.0
H222 H 0.66239 0.88633 0.88988 0.0
H223 H 0.72241 0.88924 0.85993 0.0
H224 H 0.6561 0.93487 0.85595 0.0
H225 H 0.73428 0.14263 0.86836 0.0
H226 H 0.82433 0.12842 0.8328 0.0
H227 H 0.82376 0.95032 0.85254 0.0
C228 C 0.63572 0.98352 0.93884 0.0
C229 C 0.59856 0.02577 0.95372 0.0
C230 C 0.602 0.08143 0.94247 0.0
C231 C 0.64332 0.09503 0.91751 0.0
C232 C 0.6801 0.05231 0.90383 0.0
C233 C 0.67605 0.99757 0.91394 0.0
C234 C 0.72179 0.9595 0.89642 0.0
C235 C 0.76684 0.93234 0.92196 0.0
C236 C 0.68868 0.91486 0.87423 0.0
C237 C 0.7536 1.00149 0.87537 0.0
C238 C 0.72886 0.0548 0.87982 0.0
C239 C 0.75332 0.10093 0.86439 0.0
C240 C 0.80461 0.09242 0.84427 0.0
C241 C 0.83094 0.03814 0.83961 0.0
C242 C 0.80424 0.99215 0.85508 0.0
H243 H 0.9647 0.71283 0.48793 0.0
H244 H 0.98293 0.56819 0.42041 0.0
H245 H 0.98402 0.63133 0.37208 0.0
H246 H 0.86825 0.79903 0.43271 0.0
H247 H 0.90618 0.86308 0.44576 0.0
H248 H 0.9021 0.80623 0.47448 0.0
H249 H 0.02055 0.80673 0.48258 0.0
H250 H 0.02509 0.86319 0.45363 0.0
H251 H 0.06776 0.79898 0.44637 0.0
H252 H 0.98531 0.71032 0.33143 0.0
H253 H 0.98734 0.79906 0.30108 0.0
H254 H 0.97379 0.89289 0.39545 0.0
C255 C 0.96763 0.69428 0.46292 0.0
C256 C 0.97283 0.63544 0.45787 0.0
C257 C 0.9783 0.61305 0.42482 0.0
C258 C 0.97909 0.6486 0.39726 0.0
C259 C 0.97503 0.70645 0.40322 0.0
C260 C 0.96943 0.72916 0.43523 0.0
C261 C 0.96883 0.79281 0.43501 0.0
C262 C 0.90769 0.81668 0.44774 0.0
C263 C 0.02383 0.81682 0.45562 0.0
C264 C 0.97497 0.80247 0.39781 0.0
C265 C 0.97807 0.75204 0.37994 0.0
C266 C 0.98298 0.75 0.34517 0.0
C267 C 0.98415 0.80071 0.32817 0.0
C268 C 0.98104 0.85298 0.34588 0.0
C269 C 0.97688 0.85367 0.38124 0.0
loop_
_geom_bond_atom_site_label_1
_geom_bond_atom_site_label_2
_geom_bond_distance
_geom_bond_site_symmetry_2
_ccdc_geom_bond_type
Mg0 O7 2.141 . S
Mg0 O8 2.048 1_554 S
Mg0 O9 2.048 1_554 S
Mg0 O12 2.141 . S
C1 O2 1.313 . S
C1 O8 1.195 1_565 S
O2 C1 1.313 . S
C3 O4 1.245 . S
C3 O12 1.289 1_565 S
O4 C3 1.245 . S
C5 O6 1.245 . S
C5 O7 1.289 1_565 S
O6 C5 1.245 . S
O7 Mg0 2.141 . S
O7 C5 1.289 1_545 S
O8 Mg0 2.048 1_556 S
O8 C1 1.195 1_545 S
O9 Mg0 2.048 1_556 S
O9 C10 1.195 1_545 S
C10 O9 1.195 1_565 S
C10 O11 1.313 . S
O11 C10 1.313 . S
O12 Mg0 2.141 . S
O12 C3 1.289 1_545 S
Mg13 O20 2.141 . S
Mg13 O21 2.048 . S
Mg13 O22 2.048 . S
Mg13 O25 2.141 . S
C14 O15 1.313 . S
C14 O21 1.195 1_455 S
O15 C14 1.313 . S
C16 O17 1.245 . S
C16 O25 1.289 1_455 S
O17 C16 1.245 . S
C18 O19 1.245 . S
C18 O20 1.289 1_455 S
O19 C18 1.245 . S
O20 Mg13 2.141 . S
O20 C18 1.289 1_655 S
O21 Mg13 2.048 . S
O21 C14 1.195 1_655 S
O22 Mg13 2.048 . S
O22 C23 1.195 1_655 S
C23 O22 1.195 1_455 S
C23 O24 1.313 . S
O24 C23 1.313 . S
O25 Mg13 2.141 . S
O25 C16 1.289 1_655 S
O26 Cd27 2.223 1_655 S
O26 C34 1.315 . S
Cd27 O26 2.223 1_455 S
Cd27 O30 2.297 1_455 S
Cd27 O31 2.439 1_455 S
Cd27 O37 2.240 1_565 S
Cd28 O29 2.240 1_545 S
Cd28 O36 2.223 1_655 S
Cd28 O38 2.297 1_655 S
Cd28 O39 2.439 1_655 S
O29 Cd28 2.240 1_565 S
O29 C34 1.279 . S
O30 Cd27 2.297 1_655 S
O30 C32 1.247 . S
O31 Cd27 2.439 1_655 S
O31 C32 1.208 . S
C32 O30 1.247 . S
C32 O31 1.208 . S
C33 O38 1.247 . S
C33 O39 1.208 . S
C34 O26 1.315 . S
C34 O29 1.279 . S
C35 O36 1.315 . S
C35 O37 1.279 . S
O36 Cd28 2.223 1_455 S
O36 C35 1.315 . S
O37 Cd27 2.240 1_545 S
O37 C35 1.279 . S
O38 Cd28 2.297 1_455 S
O38 C33 1.247 . S
O39 Cd28 2.439 1_455 S
O39 C33 1.208 . S
O40 Cd41 2.223 1_655 S
O40 C48 1.315 . S
Cd41 O40 2.223 1_455 S
Cd41 O44 2.297 1_455 S
Cd41 O45 2.439 1_455 S
Cd41 O51 2.240 1_545 S
Cd42 O43 2.240 1_565 S
Cd42 O50 2.223 1_655 S
Cd42 O52 2.297 1_655 S
Cd42 O53 2.439 1_655 S
O43 Cd42 2.240 1_545 S
O43 C48 1.279 . S
O44 Cd41 2.297 1_655 S
O44 C46 1.247 . S
O45 Cd41 2.439 1_655 S
O45 C46 1.208 . S
C46 O44 1.247 . S
C46 O45 1.208 . S
C47 O52 1.247 . S
C47 O53 1.208 . S
C48 O40 1.315 . S
C48 O43 1.279 . S
C49 O50 1.315 . S
C49 O51 1.279 . S
O50 Cd42 2.223 1_455 S
O50 C49 1.315 . S
O51 Cd41 2.240 1_565 S
O51 C49 1.279 . S
O52 Cd42 2.297 1_455 S
O52 C47 1.247 . S
O53 Cd42 2.439 1_455 S
O53 C47 1.208 . S
H54 C66 0.930 . S
H55 C68 0.930 . S
H56 C69 0.930 . S
H57 C73 0.959 . S
H58 C73 0.959 . S
H59 C73 0.961 . S
H60 C74 0.960 . S
H61 C74 0.961 . S
H62 C74 0.959 . S
H63 C77 0.929 . S
H64 C78 0.931 . S
H65 C80 0.930 . S
C66 H54 0.930 . S
C66 C67 1.399 1_545 S
C66 C71 1.399 . S
C67 C66 1.399 1_565 S
C67 C68 1.376 . S
C68 H55 0.930 . S
C68 C67 1.376 . S
C68 C69 1.388 . S
C69 H56 0.930 . S
C69 C68 1.388 . S
C69 C70 1.390 . S
C70 C69 1.390 . S
C70 C71 1.394 1_565 S
C70 C76 1.465 . S
C71 C66 1.399 . S
C71 C70 1.394 1_545 S
C71 C72 1.516 . S
C72 C71 1.516 . S
C72 C73 1.502 . S
C72 C74 1.561 . S
C72 C75 1.526 . S
C73 H57 0.959 . S
C73 H58 0.959 . S
C73 H59 0.961 . S
C73 C72 1.502 . S
C74 H60 0.960 . S
C74 H61 0.961 . S
C74 H62 0.959 . S
C74 C72 1.561 . S
C75 C72 1.526 . S
C75 C76 1.396 1_545 S
C75 C80 1.390 . S
C76 C70 1.465 . S
C76 C75 1.396 1_565 S
C76 C77 1.399 . S
C77 H63 0.929 . S
C77 C76 1.399 . S
C77 C78 1.385 . S
C78 H64 0.931 . S
C78 C77 1.385 . S
C78 C79 1.389 1_565 S
C79 C78 1.389 1_545 S
C79 C80 1.387 . S
C80 H65 0.930 . S
C80 C75 1.390 . S
C80 C79 1.387 . S
H81 C93 0.930 . S
H82 C95 0.930 . S
H83 C96 0.930 . S
H84 C100 0.959 . S
H85 C100 0.959 . S
H86 C100 0.961 . S
H87 C101 0.960 . S
H88 C101 0.961 . S
H89 C101 0.959 . S
H90 C104 0.929 . S
H91 C105 0.931 . S
H92 C107 0.930 . S
C93 H81 0.930 . S
C93 C94 1.396 1_655 S
C93 C98 1.399 . S
C94 C93 1.396 1_455 S
C94 C95 1.380 . S
C95 H82 0.930 . S
C95 C94 1.380 . S
C95 C96 1.388 . S
C96 H83 0.930 . S
C96 C95 1.388 . S
C96 C97 1.390 . S
C97 C96 1.390 . S
C97 C98 1.394 1_455 S
C97 C103 1.465 . S
C98 C93 1.399 . S
C98 C97 1.394 1_655 S
C98 C99 1.516 . S
C99 C98 1.516 . S
C99 C100 1.502 . S
C99 C101 1.561 . S
C99 C102 1.526 . S
C100 H84 0.959 . S
C100 H85 0.959 . S
C100 H86 0.961 . S
C100 C99 1.502 . S
C101 H87 0.960 . S
C101 H88 0.961 . S
C101 H89 0.959 . S
C101 C99 1.561 . S
C102 C99 1.526 . S
C102 C103 1.396 1_655 S
C102 C107 1.390 . S
C103 C97 1.465 . S
C103 C102 1.396 1_455 S
C103 C104 1.399 . S
C104 H90 0.929 . S
C104 C103 1.399 . S
C104 C105 1.385 . S
C105 H91 0.931 . S
C105 C104 1.385 . S
C105 C106 1.389 1_455 S
C106 C105 1.389 1_655 S
C106 C107 1.387 . S
C107 H92 0.930 . S
C107 C102 1.390 . S
C107 C106 1.387 . S
H108 C120 0.930 . S
H109 C122 0.930 . S
H110 C123 0.930 . S
H111 C127 0.959 . S
H112 C127 0.959 . S
H113 C127 0.961 . S
H114 C128 0.960 . S
H115 C128 0.961 . S
H116 C128 0.959 . S
H117 C131 0.929 . S
H118 C132 0.931 . S
H119 C134 0.930 . S
C120 H108 0.930 . S
C120 C121 1.399 1_545 S
C120 C125 1.399 . S
C121 C120 1.399 1_565 S
C121 C122 1.376 . S
C122 H109 0.930 . S
C122 C121 1.376 . S
C122 C123 1.388 . S
C123 H110 0.930 . S
C123 C122 1.388 . S
C123 C124 1.390 . S
C124 C123 1.390 . S
C124 C125 1.394 1_565 S
C124 C130 1.465 . S
C125 C120 1.399 . S
C125 C124 1.394 1_545 S
C125 C126 1.516 . S
C126 C125 1.516 . S
C126 C127 1.502 . S
C126 C128 1.561 . S
C126 C129 1.526 . S
C127 H111 0.959 . S
C127 H112 0.959 . S
C127 H113 0.961 . S
C127 C126 1.502 . S
C128 H114 0.960 . S
C128 H115 0.961 . S
C128 H116 0.959 . S
C128 C126 1.561 . S
C129 C126 1.526 . S
C129 C130 1.396 1_545 S
C129 C134 1.390 . S
C130 C124 1.465 . S
C130 C129 1.396 1_565 S
C130 C131 1.399 . S
C131 H117 0.929 . S
C131 C130 1.399 . S
C131 C132 1.385 . S
C132 H118 0.931 . S
C132 C131 1.385 . S
C132 C133 1.389 . S
C133 C132 1.389 . S
C133 C134 1.387 1_565 S
C134 H119 0.930 . S
C134 C129 1.390 . S
C134 C133 1.387 1_545 S
H135 C147 0.930 . S
H136 C149 0.930 . S
H137 C150 0.930 . S
H138 C154 0.959 . S
H139 C154 0.959 . S
H140 C154 0.961 . S
H141 C155 0.960 . S
H142 C155 0.961 . S
H143 C155 0.959 . S
H144 C158 0.929 . S
H145 C159 0.931 . S
H146 C161 0.930 . S
C147 H135 0.930 . S
C147 C148 1.399 1_655 S
C147 C152 1.399 . S
C148 C147 1.399 1_455 S
C148 C149 1.376 . S
C149 H136 0.930 . S
C149 C148 1.376 . S
C149 C150 1.388 . S
C150 H137 0.930 . S
C150 C149 1.388 . S
C150 C151 1.390 . S
C151 C150 1.390 . S
C151 C152 1.394 1_455 S
C151 C157 1.465 . S
C152 C147 1.399 . S
C152 C151 1.394 1_655 S
C152 C153 1.516 . S
C153 C152 1.516 . S
C153 C154 1.502 . S
C153 C155 1.561 . S
C153 C156 1.536 . S
C154 H138 0.959 . S
C154 H139 0.959 . S
C154 H140 0.961 . S
C154 C153 1.502 . S
C155 H141 0.960 . S
C155 H142 0.961 . S
C155 H143 0.959 . S
C155 C153 1.561 . S
C156 C153 1.536 . S
C156 C157 1.383 1_655 S
C156 C161 1.391 . S
C157 C151 1.465 . S
C157 C156 1.383 1_455 S
C157 C158 1.399 . S
C158 H144 0.929 . S
C158 C157 1.399 . S
C158 C159 1.385 . S
C159 H145 0.931 . S
C159 C158 1.385 . S
C159 C160 1.389 . S
C160 C159 1.389 . S
C160 C161 1.387 1_455 S
C161 H146 0.930 . S
C161 C156 1.391 . S
C161 C160 1.387 1_655 S
H162 C174 0.930 . S
H163 C176 0.930 . S
H164 C177 0.930 . S
H165 C181 0.959 . S
H166 C181 0.959 . S
H167 C181 0.961 . S
H168 C182 0.960 . S
H169 C182 0.961 . S
H170 C182 0.959 . S
H171 C185 0.929 . S
H172 C186 0.931 . S
H173 C188 0.930 . S
C174 H162 0.930 . S
C174 C175 1.399 1_565 S
C174 C179 1.399 . S
C175 C174 1.399 1_545 S
C175 C176 1.376 . S
C176 H163 0.930 . S
C176 C175 1.376 . S
C176 C177 1.388 . S
C177 H164 0.930 . S
C177 C176 1.388 . S
C177 C178 1.390 . S
C178 C177 1.390 . S
C178 C179 1.394 1_545 S
C178 C184 1.465 . S
C179 C174 1.399 . S
C179 C178 1.394 1_565 S
C179 C180 1.516 . S
C180 C179 1.516 . S
C180 C181 1.502 . S
C180 C182 1.561 . S
C180 C183 1.526 . S
C181 H165 0.959 . S
C181 H166 0.959 . S
C181 H167 0.961 . S
C181 C180 1.502 . S
C182 H168 0.960 . S
C182 H169 0.961 . S
C182 H170 0.959 . S
C182 C180 1.561 . S
C183 C180 1.526 . S
C183 C184 1.396 1_565 S
C183 C188 1.390 . S
C184 C178 1.465 . S
C184 C183 1.396 1_545 S
C184 C185 1.399 . S
C185 H171 0.929 . S
C185 C184 1.399 . S
C185 C186 1.385 . S
C186 H172 0.931 . S
C186 C185 1.385 . S
C186 C187 1.389 1_545 S
C187 C186 1.389 1_565 S
C187 C188 1.387 . S
C188 H173 0.930 . S
C188 C183 1.390 . S
C188 C187 1.387 . S
H189 C201 0.930 . S
H190 C203 0.930 . S
H191 C204 0.930 . S
H192 C208 0.959 . S
H193 C208 0.959 . S
H194 C208 0.961 . S
H195 C209 0.960 . S
H196 C209 0.961 . S
H197 C209 0.959 . S
H198 C212 0.929 . S
H199 C213 0.931 . S
H200 C215 0.930 . S
C201 H189 0.930 . S
C201 C202 1.399 1_455 S
C201 C206 1.399 . S
C202 C201 1.399 1_655 S
C202 C203 1.376 . S
C203 H190 0.930 . S
C203 C202 1.376 . S
C203 C204 1.388 . S
C204 H191 0.930 . S
C204 C203 1.388 . S
C204 C205 1.390 . S
C205 C204 1.390 . S
C205 C206 1.394 1_655 S
C205 C211 1.465 . S
C206 C201 1.399 . S
C206 C205 1.394 1_455 S
C206 C207 1.516 . S
C207 C206 1.516 . S
C207 C208 1.502 . S
C207 C209 1.561 . S
C207 C210 1.526 . S
C208 H192 0.959 . S
C208 H193 0.959 . S
C208 H194 0.961 . S
C208 C207 1.502 . S
C209 H195 0.960 . S
C209 H196 0.961 . S
C209 H197 0.959 . S
C209 C207 1.561 . S
C210 C207 1.526 . S
C210 C211 1.396 1_455 S
C210 C215 1.390 . S
C211 C205 1.465 . S
C211 C210 1.396 1_655 S
C211 C212 1.399 . S
C212 H198 0.929 . S
C212 C211 1.399 . S
C212 C213 1.385 . S
C213 H199 0.931 . S
C213 C212 1.385 . S
C213 C214 1.389 1_655 S
C214 C213 1.389 1_455 S
C214 C215 1.387 . S
C215 H200 0.930 . S
C215 C210 1.390 . S
C215 C214 1.387 . S
H216 C228 0.930 . S
H217 C230 0.930 . S
H218 C231 0.930 . S
H219 C235 0.959 . S
H220 C235 0.959 . S
H221 C235 0.961 . S
H222 C236 0.960 . S
H223 C236 0.961 . S
H224 C236 0.959 . S
H225 C239 0.929 . S
H226 C240 0.931 . S
H227 C242 0.930 . S
C228 H216 0.930 . S
C228 C229 1.399 1_565 S
C228 C233 1.399 . S
C229 C228 1.399 1_545 S
C229 C230 1.376 . S
C230 H217 0.930 . S
C230 C229 1.376 . S
C230 C231 1.388 . S
C231 H218 0.930 . S
C231 C230 1.388 . S
C231 C232 1.390 . S
C232 C231 1.390 . S
C232 C233 1.394 1_545 S
C232 C238 1.465 . S
C233 C228 1.399 . S
C233 C232 1.394 1_565 S
C233 C234 1.516 . S
C234 C233 1.516 . S
C234 C235 1.502 . S
C234 C236 1.561 . S
C234 C237 1.526 . S
C235 H219 0.959 . S
C235 H220 0.959 . S
C235 H221 0.961 . S
C235 C234 1.502 . S
C236 H222 0.960 . S
C236 H223 0.961 . S
C236 H224 0.959 . S
C236 C234 1.561 . S
C237 C234 1.526 . S
C237 C238 1.396 1_565 S
C237 C242 1.390 . S
C238 C232 1.465 . S
C238 C237 1.396 1_545 S
C238 C239 1.399 . S
C239 H225 0.929 . S
C239 C238 1.399 . S
C239 C240 1.385 . S
C240 H226 0.931 . S
C240 C239 1.385 . S
C240 C241 1.389 . S
C241 C240 1.389 . S
C241 C242 1.387 1_545 S
C242 H227 0.930 . S
C242 C237 1.390 . S
C242 C241 1.387 1_565 S
H243 C255 0.930 . S
H244 C257 0.930 . S
H245 C258 0.930 . S
H246 C262 0.959 . S
H247 C262 0.959 . S
H248 C262 0.961 . S
H249 C263 0.960 . S
H250 C263 0.961 . S
H251 C263 0.959 1_455 S
H252 C266 0.929 . S
H253 C267 0.931 . S
H254 C269 0.930 . S
C255 H243 0.930 . S
C255 C256 1.399 1_655 S
C255 C260 1.399 . S
C256 C255 1.399 1_455 S
C256 C257 1.376 . S
C257 H244 0.930 . S
C257 C256 1.376 . S
C257 C258 1.388 . S
C258 H245 0.930 . S
C258 C257 1.388 . S
C258 C259 1.390 . S
C259 C258 1.390 . S
C259 C260 1.394 1_455 S
C259 C265 1.465 1_455 S
C260 C255 1.399 . S
C260 C259 1.394 1_655 S
C260 C261 1.516 . S
C261 C260 1.516 . S
C261 C262 1.502 . S
C261 C263 1.561 . S
C261 C264 1.526 . S
C262 H246 0.959 . S
C262 H247 0.959 . S
C262 H248 0.961 . S
C262 C261 1.502 . S
C263 H249 0.960 . S
C263 H250 0.961 . S
C263 H251 0.959 1_655 S
C263 C261 1.561 . S
C264 C261 1.526 . S
C264 C265 1.396 . S
C264 C269 1.390 . S
C265 C259 1.465 1_655 S
C265 C264 1.396 . S
C265 C266 1.399 1_655 S
C266 H252 0.929 . S
C266 C265 1.399 1_455 S
C266 C267 1.385 . S
C267 H253 0.931 . S
C267 C266 1.385 . S
C267 C268 1.389 1_455 S
C268 C267 1.389 1_655 S
C268 C269 1.387 . S
C269 H254 0.930 . S
C269 C264 1.390 . S
C269 C268 1.387 . S
C79 C35 1.491 . S
C67 C5 1.478 . S
C106 C46 1.502 . S
C94 C23 1.575 . S
C133 C34 1.486 . S
C121 C3 1.449 . S
C160 C47 1.555 . S
C148 C14 1.548 . S
C187 C49 1.552 . S
C175 C1 1.548 1_545 S
C214 C33 1.422 . S
C202 C16 1.510 1_655 S
C241 C48 1.546 . S
C229 C10 1.553 1_545 S
C256 C18 1.500 . S
C268 C32 1.423 . S
