# Generated by pormake.
# Topology zzz, (3,6)-cn, num edge types: 1
# Building blocks:
#     Node 0, Type 0, BuildingBlock: WUSLED_clean_sbu_0, # of connection points: 3
#     Node 1, Type 0, BuildingBlock: WUSLED_clean_sbu_0, # of connection points: 3
#     Node 2, Type 0, BuildingBlock: WUSLED_clean_sbu_0, # of connection points: 3
#     Node 3, Type 0, BuildingBlock: WUSLED_clean_sbu_0, # of connection points: 3
#     Node 4, Type 0, BuildingBlock: WUSLED_clean_sbu_0, # of connection points: 3
#     Node 5, Type 0, BuildingBlock: WUSLED_clean_sbu_0, # of connection points: 3
#     Node 6, Type 0, BuildingBlock: WUSLED_clean_sbu_0, # of connection points: 3
#     Node 7, Type 0, BuildingBlock: WUSLED_clean_sbu_0, # of connection points: 3
#     Node 8, Type 1, BuildingBlock: CUWYAW_clean_sbu_0, # of connection points: 6
#     Node 9, Type 1, BuildingBlock: CUWYAW_clean_sbu_0, # of connection points: 6
#     Node 10, Type 1, BuildingBlock: CUWYAW_clean_sbu_0, # of connection points: 6
#     Node 11, Type 1, BuildingBlock: CUWYAW_clean_sbu_0, # of connection points: 6
#     Edge 12, Type (0, 1), BuildingBlock: XIVTED_clean_linker_0, # of connection points: 2
#     Edge 13, Type (0, 1), BuildingBlock: XIVTED_clean_linker_0, # of connection points: 2
#     Edge 14, Type (0, 1), BuildingBlock: XIVTED_clean_linker_0, # of connection points: 2
#     Edge 15, Type (0, 1), BuildingBlock: XIVTED_clean_linker_0, # of connection points: 2
#     Edge 16, Type (0, 1), BuildingBlock: XIVTED_clean_linker_0, # of connection points: 2
#     Edge 17, Type (0, 1), BuildingBlock: XIVTED_clean_linker_0, # of connection points: 2
#     Edge 18, Type (0, 1), BuildingBlock: XIVTED_clean_linker_0, # of connection points: 2
#     Edge 19, Type (0, 1), BuildingBlock: XIVTED_clean_linker_0, # of connection points: 2
#     Edge 20, Type (0, 1), BuildingBlock: XIVTED_clean_linker_0, # of connection points: 2
#     Edge 21, Type (0, 1), BuildingBlock: XIVTED_clean_linker_0, # of connection points: 2
#     Edge 22, Type (0, 1), BuildingBlock: XIVTED_clean_linker_0, # of connection points: 2
#     Edge 23, Type (0, 1), BuildingBlock: XIVTED_clean_linker_0, # of connection points: 2
#     Edge 24, Type (0, 1), BuildingBlock: XIVTED_clean_linker_0, # of connection points: 2
#     Edge 25, Type (0, 1), BuildingBlock: XIVTED_clean_linker_0, # of connection points: 2
#     Edge 26, Type (0, 1), BuildingBlock: XIVTED_clean_linker_0, # of connection points: 2
#     Edge 27, Type (0, 1), BuildingBlock: XIVTED_clean_linker_0, # of connection points: 2
#     Edge 28, Type (0, 1), BuildingBlock: XIVTED_clean_linker_0, # of connection points: 2
#     Edge 29, Type (0, 1), BuildingBlock: XIVTED_clean_linker_0, # of connection points: 2
#     Edge 30, Type (0, 1), BuildingBlock: XIVTED_clean_linker_0, # of connection points: 2
#     Edge 31, Type (0, 1), BuildingBlock: XIVTED_clean_linker_0, # of connection points: 2
#     Edge 32, Type (0, 1), BuildingBlock: XIVTED_clean_linker_0, # of connection points: 2
#     Edge 33, Type (0, 1), BuildingBlock: XIVTED_clean_linker_0, # of connection points: 2
#     Edge 34, Type (0, 1), BuildingBlock: XIVTED_clean_linker_0, # of connection points: 2
#     Edge 35, Type (0, 1), BuildingBlock: XIVTED_clean_linker_0, # of connection points: 2
# Relax obj value: 0.397
# Max RMSD: 0.244
# Mean RMSD: 0.224
data_MOF--net-zzz--node1-WUSLED_clean_sbu_0--node2-CUWYAW_clean_sbu_0--edge1-XIVTED_clean_linker_0
_symmetry_space_group_name_H-M    P1
_symmetry_Int_Tables_number       1
_symmetry_cell_setting            triclinic
loop_
_symmetry_equiv_pos_as_xyz
'x, y, z'
_cell_length_a     63.330487
_cell_length_b     63.396257
_cell_length_c     20.417263
_cell_angle_alpha  89.811001
_cell_angle_beta   89.918449
_cell_angle_gamma 90.230579
loop_
_atom_site_label
_atom_site_type_symbol
_atom_site_fract_x
_atom_site_fract_y
_atom_site_fract_z
_atom_type_partial_charge
C0 C 0.76892 0.50588 0.50273 0.0
C1 C 0.78614 0.49881 0.46504 0.0
C2 C 0.81134 0.5076 0.5528 0.0
C3 C 0.80701 0.49963 0.48978 0.0
C4 C 0.79411 0.51441 0.59084 0.0
C5 C 0.77325 0.5135 0.56626 0.0
U6 U 0.72498 0.50494 0.36556 0.0
O7 O 0.69421 0.48825 0.35933 0.0
O8 O 0.695 0.52262 0.35768 0.0
C9 C 0.68344 0.50562 0.34843 0.0
C10 C 0.74648 0.50548 0.47766 0.0
C11 C 0.66877 0.50575 0.28993 0.0
C12 C 0.63258 0.50665 0.24588 0.0
C13 C 0.64673 0.50614 0.29941 0.0
C14 C 0.66203 0.50598 0.17098 0.0
C15 C 0.63994 0.50656 0.18071 0.0
C16 C 0.67623 0.50571 0.22469 0.0
C17 C 0.76224 0.50353 0.20815 0.0
C18 C 0.77279 0.49948 0.0951 0.0
C19 C 0.79903 0.50673 0.17889 0.0
C20 C 0.78323 0.50695 0.2267 0.0
C21 C 0.7938 0.50294 0.11298 0.0
C22 C 0.75709 0.49988 0.14253 0.0
C23 C 0.74485 0.50405 0.25426 0.0
O24 O 0.73966 0.52253 0.44765 0.0
O25 O 0.73974 0.48812 0.44915 0.0
O26 O 0.73988 0.48678 0.28659 0.0
O27 O 0.74075 0.52176 0.28499 0.0
H28 H 0.7835 0.49277 0.41617 0.0
H29 H 0.81987 0.49424 0.45919 0.0
H30 H 0.79678 0.52055 0.6396 0.0
H31 H 0.76042 0.5189 0.59701 0.0
H32 H 0.61576 0.50693 0.25552 0.0
H33 H 0.64037 0.5061 0.34868 0.0
H34 H 0.66833 0.50592 0.12164 0.0
H35 H 0.69306 0.50549 0.21519 0.0
H36 H 0.76855 0.49661 0.0445 0.0
H37 H 0.81532 0.50919 0.19329 0.0
H38 H 0.78733 0.50975 0.27745 0.0
H39 H 0.74082 0.49737 0.12794 0.0
C40 C 0.01623 0.76837 0.50255 0.0
C41 C 0.02511 0.78501 0.46582 0.0
C42 C 0.01503 0.81134 0.54927 0.0
C43 C 0.02454 0.80603 0.48873 0.0
C44 C 1.00667 0.79448 0.58683 0.0
C45 C 1.00723 0.77343 0.5638 0.0
U46 U 0.01587 0.72454 0.36642 0.0
O47 O 0.03347 0.69448 0.35742 0.0
O48 O 0.99907 0.69392 0.35927 0.0
C49 C 0.01636 0.68306 0.34813 0.0
C50 C 0.0165 0.74579 0.47879 0.0
C51 C 0.01625 0.66838 0.28969 0.0
C52 C 0.02038 0.63254 0.24503 0.0
C53 C 0.02066 0.64676 0.2983 0.0
C54 C 1.01096 0.66099 0.17229 0.0
C55 C 0.01538 0.63932 0.1811 0.0
C56 C 1.01157 0.67532 0.22555 0.0
C57 C 0.01474 0.76237 0.20958 0.0
C58 C 0.02077 0.77313 0.09752 0.0
C59 C 1.01033 0.79894 0.17898 0.0
C60 C 1.00969 0.78311 0.2269 0.0
C61 C 0.01613 0.79394 0.11439 0.0
C62 C 0.01997 0.75743 0.14488 0.0
C63 C 0.01497 0.74504 0.25617 0.0
O64 O 0.99914 0.73853 0.45147 0.0
O65 O 0.03356 0.7393 0.44803 0.0
O66 O 0.03275 0.74025 0.28568 0.0
O67 O 0.99771 0.74032 0.28897 0.0
H68 H 0.03244 0.78181 0.41898 0.0
H69 H 0.03171 0.81818 0.45861 0.0
H70 H 0.99916 0.79756 0.63349 0.0
H71 H 1.00043 0.76105 0.59393 0.0
H72 H 0.02372 0.61605 0.25415 0.0
H73 H 0.02425 0.64078 0.34675 0.0
H74 H 1.00717 0.6669 0.1239 0.0
H75 H 1.00822 0.69182 0.21662 0.0
H76 H 0.02539 0.76913 0.04799 0.0
H77 H 1.00702 0.81511 0.19255 0.0
H78 H 1.00567 0.78705 0.27697 0.0
H79 H 0.0238 0.74139 0.13116 0.0
C80 C 0.75701 0.01653 0.50189 0.0
C81 C 0.74002 0.02287 0.46229 0.0
C82 C 0.71427 0.0147 0.54966 0.0
C83 C 0.71905 0.02196 0.48573 0.0
C84 C 0.73142 1.00887 0.58982 0.0
C85 C 0.75241 1.00971 0.5662 0.0
U86 U 0.80108 0.01605 0.36593 0.0
O87 O 0.83097 0.03411 0.35759 0.0
O88 O 0.83191 0.99976 0.36252 0.0
C89 C 0.84262 0.01715 0.35025 0.0
C90 C 0.7795 0.01708 0.47776 0.0
C91 C 0.85712 0.01677 0.29163 0.0
C92 C 0.89306 0.01703 0.24579 0.0
C93 C 0.87916 0.01768 0.29998 0.0
C94 C 0.86323 0.01465 0.17291 0.0
C95 C 0.88543 0.01536 0.18102 0.0
C96 C 0.84934 0.01537 0.22717 0.0
C97 C 0.76385 0.0132 0.20887 0.0
C98 C 0.75233 0.01823 0.09707 0.0
C99 C 0.72693 1.00905 0.18185 0.0
C100 C 0.74312 1.00857 0.22838 0.0
C101 C 0.73156 0.01408 0.11628 0.0
C102 C 0.76839 0.01774 0.1432 0.0
C103 C 0.78148 0.01396 0.25423 0.0
O104 O 0.78689 0.99966 0.4516 0.0
O105 O 0.78572 0.03403 0.44556 0.0
O106 O 0.78591 0.03198 0.28283 0.0
O107 O 0.7861 0.99708 0.28878 0.0
H108 H 0.74294 0.02845 0.41289 0.0
H109 H 0.70651 0.02706 0.45345 0.0
H110 H 0.72863 1.00312 0.6391 0.0
H111 H 0.76511 1.00484 0.5983 0.0
H112 H 0.90989 0.0174 0.25501 0.0
H113 H 0.88572 0.01874 0.34883 0.0
H114 H 0.85647 0.01372 0.12434 0.0
H115 H 0.83246 0.01477 0.21869 0.0
H116 H 0.75599 0.02255 0.04691 0.0
H117 H 0.71077 1.00624 0.1972 0.0
H118 H 0.73946 1.0051 0.27915 0.0
H119 H 0.78439 0.02138 0.12783 0.0
C120 C 0.50637 0.7553 0.49896 0.0
C121 C 0.49655 0.73841 0.46608 0.0
C122 C 0.50828 0.71295 0.55007 0.0
C123 C 0.49738 0.71762 0.49146 0.0
C124 C 0.5179 0.72993 0.58321 0.0
C125 C 0.51681 0.75073 0.55833 0.0
U126 U 0.5046 0.80061 0.3645 0.0
O127 O 0.52217 0.8308 0.36163 0.0
O128 O 0.48775 0.83121 0.36213 0.0
C129 C 0.50514 0.84221 0.35228 0.0
C130 C 0.50565 0.77777 0.47416 0.0
C131 C 0.50543 0.8567 0.29347 0.0
C132 C 0.50273 0.89232 0.24586 0.0
C133 C 0.50223 0.87854 0.30055 0.0
C134 C 0.50964 0.86276 0.17514 0.0
C135 C 0.50637 0.88474 0.18178 0.0
C136 C 0.50917 0.84903 0.22984 0.0
C137 C 0.50447 0.76417 0.20787 0.0
C138 C 0.50807 0.75113 0.0973 0.0
C139 C 0.50264 0.72674 0.18784 0.0
C140 C 0.50201 0.74359 0.23164 0.0
C141 C 0.50571 0.73045 0.12035 0.0
C142 C 0.50747 0.76787 0.14091 0.0
C143 C 0.50421 0.78249 0.25016 0.0
O144 O 0.52259 0.78513 0.44439 0.0
O145 O 0.48811 0.78439 0.44641 0.0
O146 O 0.48686 0.78642 0.28327 0.0
O147 O 0.52174 0.7871 0.28137 0.0
H148 H 0.48829 0.74123 0.42052 0.0
H149 H 0.48985 0.70504 0.46425 0.0
H150 H 0.52616 0.72717 0.62884 0.0
H151 H 0.52425 0.76335 0.58568 0.0
H152 H 0.49987 0.90893 0.25392 0.0
H153 H 0.49929 0.88503 0.34871 0.0
H154 H 0.51287 0.85606 0.1275 0.0
H155 H 0.51182 0.83234 0.22233 0.0
H156 H 0.51058 0.75435 0.04572 0.0
H157 H 0.50044 0.71086 0.2065 0.0
H158 H 0.4996 0.74063 0.28342 0.0
H159 H 0.5094 0.7838 0.12229 0.0
C160 C 0.25611 0.50921 0.89203 0.0
C161 C 0.23904 0.50176 0.92998 0.0
C162 C 0.21394 0.50816 0.83995 0.0
C163 C 0.21833 0.50111 0.90416 0.0
C164 C 0.23103 0.51568 0.80209 0.0
C165 C 0.25177 0.51602 0.82756 0.0
U166 U 0.30075 0.50897 0.02788 0.0
O167 O 0.33185 0.49303 0.03056 0.0
O168 O 0.33044 0.52739 0.0325 0.0
C169 C 0.34235 0.51065 0.04099 0.0
C170 C 0.27849 0.5096 0.91726 0.0
C171 C 0.35708 0.51098 0.09907 0.0
C172 C 0.39291 0.50742 0.14419 0.0
C173 C 0.37874 0.50684 0.09075 0.0
C174 C 0.36418 0.51645 0.21631 0.0
C175 C 0.38598 0.51236 0.20809 0.0
C176 C 0.34998 0.51567 0.16287 0.0
C177 C 0.26398 0.5071 0.18511 0.0
C178 C 0.25175 0.51044 0.29683 0.0
C179 C 0.2266 0.50898 0.20719 0.0
C180 C 0.24316 0.5072 0.16229 0.0
C181 C 0.23093 0.511 0.27447 0.0
C182 C 0.26818 0.50834 0.25228 0.0
C183 C 0.28209 0.5074 0.14153 0.0
O184 O 0.28483 0.52667 0.9481 0.0
O185 O 0.28578 0.49228 0.9447 0.0
O186 O 0.28653 0.49034 0.10788 0.0
O187 O 0.28631 0.5252 0.11103 0.0
H188 H 0.24171 0.49639 0.97967 0.0
H189 H 0.20559 0.49536 0.93493 0.0
H190 H 0.22838 0.52108 0.75239 0.0
H191 H 0.26453 0.52164 0.79658 0.0
H192 H 0.40946 0.50438 0.13506 0.0
H193 H 0.38481 0.50325 0.04245 0.0
H194 H 0.35799 0.52005 0.26444 0.0
H195 H 0.3334 0.51882 0.17144 0.0
H196 H 0.25528 0.51185 0.34855 0.0
H197 H 0.21049 0.50948 0.18942 0.0
H198 H 0.2398 0.50639 0.11034 0.0
H199 H 0.2843 0.50829 0.27017 0.0
C200 C 0.01936 0.25664 0.89298 0.0
C201 C 0.02843 0.24026 0.92985 0.0
C202 C 0.02026 0.21396 0.84422 0.0
C203 C 0.02892 0.21938 0.90591 0.0
C204 C 1.01159 0.23059 0.80677 0.0
C205 C 1.01115 0.25151 0.83079 0.0
U206 U 0.01929 0.30115 0.0282 0.0
O207 O 0.0346 0.33264 0.03089 0.0
O208 O 1.00027 0.33028 0.03445 0.0
C209 C 0.0168 0.34263 0.04207 0.0
C210 C 0.01867 0.27909 0.91731 0.0
C211 C 0.01635 0.3574 0.09999 0.0
C212 C 0.01625 0.39358 0.14335 0.0
C213 C 0.01683 0.3794 0.09008 0.0
C214 C 0.01487 0.36421 0.21862 0.0
C215 C 0.01529 0.38625 0.20851 0.0
C216 C 0.0153 0.34999 0.1652 0.0
C217 C 0.02239 0.26368 0.18353 0.0
C218 C 0.02 0.25063 0.29473 0.0
C219 C 0.02038 0.22616 0.20341 0.0
C220 C 0.0219 0.24304 0.15941 0.0
C221 C 0.01899 0.22999 0.27114 0.0
C222 C 0.02185 0.26737 0.25106 0.0
C223 C 0.02162 0.28209 0.1412 0.0
O224 O 1.00158 0.28501 0.94889 0.0
O225 O 0.03595 0.28687 0.94384 0.0
O226 O 0.03848 0.28718 0.10694 0.0
O227 O 1.00362 0.28601 0.11174 0.0
H228 H 0.03517 0.24358 0.97744 0.0
H229 H 0.03631 0.20747 0.93608 0.0
H230 H 1.00467 0.22746 0.75932 0.0
H231 H 1.00423 0.26374 0.8006 0.0
H232 H 0.01677 0.41037 0.13356 0.0
H233 H 0.01768 0.38569 0.04075 0.0
H234 H 0.01419 0.35796 0.26802 0.0
H235 H 0.01486 0.33319 0.17491 0.0
H236 H 0.01905 0.25379 0.34677 0.0
H237 H 0.01949 0.21021 0.18466 0.0
H238 H 0.02215 0.24006 0.10719 0.0
H239 H 0.02218 0.28333 0.26997 0.0
C240 C 0.26973 0.02032 0.89177 0.0
C241 C 0.28691 0.02484 0.93291 0.0
C242 C 0.31227 0.02018 0.84234 0.0
C243 C 0.30779 0.0247 0.90868 0.0
C244 C 0.29496 0.0162 0.8007 0.0
C245 C 0.27404 0.01615 0.82519 0.0
U246 U 0.22529 0.02123 0.02792 0.0
O247 O 0.19362 0.03601 0.02878 0.0
O248 O 0.19633 1.00177 0.03443 0.0
C249 C 0.18377 0.01809 0.04076 0.0
C250 C 0.24738 0.01969 0.9169 0.0
C251 C 0.16897 0.01763 0.0986 0.0
C252 C 0.13282 0.01771 0.14268 0.0
C253 C 0.14699 0.01868 0.08921 0.0
C254 C 0.16225 0.0147 0.21688 0.0
C255 C 0.1401 0.01559 0.20779 0.0
C256 C 0.1764 0.01571 0.16333 0.0
C257 C 0.26257 0.02572 0.18289 0.0
C258 C 0.27607 0.02104 0.29277 0.0
C259 C 0.30015 0.02275 0.20025 0.0
C260 C 0.28313 0.02571 0.15775 0.0
C261 C 0.29661 0.01968 0.26776 0.0
C262 C 0.25917 0.02402 0.25046 0.0
C263 C 0.244 0.02477 0.1412 0.0
O264 O 0.24165 1.00294 0.95081 0.0
O265 O 0.23968 0.03717 0.94183 0.0
O266 O 0.23917 0.04124 0.10502 0.0
O267 O 0.23992 1.00653 0.11353 0.0
H268 H 0.2842 0.02833 0.98407 0.0
H269 H 0.32055 0.02818 0.94224 0.0
H270 H 0.29759 0.01256 0.74954 0.0
H271 H 0.26118 0.01265 0.79199 0.0
H272 H 0.11606 0.01821 0.13256 0.0
H273 H 0.1407 0.02008 0.0401 0.0
H274 H 0.16878 0.01344 0.26568 0.0
H275 H 0.19322 0.01492 0.17257 0.0
H276 H 0.27294 0.0185 0.34438 0.0
H277 H 0.31598 0.02199 0.18021 0.0
H278 H 0.28592 0.02703 0.10557 0.0
H279 H 0.24327 0.02385 0.27024 0.0
C280 C 0.50941 0.26839 0.89165 0.0
C281 C 0.50444 0.28539 0.93277 0.0
C282 C 0.5086 0.31098 0.84209 0.0
C283 C 0.50405 0.30627 0.90847 0.0
C284 C 0.51313 0.29379 0.80063 0.0
C285 C 0.51359 0.27289 0.82511 0.0
U286 U 0.51035 0.22383 0.02761 0.0
O287 O 0.49501 0.19239 0.03031 0.0
O288 O 0.52936 0.19466 0.03254 0.0
C289 C 0.51282 0.18232 0.04064 0.0
C290 C 0.51026 0.24599 0.91649 0.0
C291 C 0.51336 0.16755 0.09863 0.0
C292 C 0.51585 0.13153 0.14306 0.0
C293 C 0.51531 0.14564 0.08933 0.0
C294 C 0.5122 0.16083 0.21727 0.0
C295 C 0.51415 0.13885 0.20802 0.0
C296 C 0.51198 0.17497 0.16352 0.0
C297 C 0.50735 0.26136 0.18167 0.0
C298 C 0.50582 0.27505 0.29205 0.0
C299 C 0.5123 0.29864 0.20018 0.0
C300 C 0.51109 0.28165 0.15696 0.0
C301 C 0.51005 0.29533 0.26811 0.0
C302 C 0.50437 0.25819 0.24894 0.0
C303 C 0.50833 0.24264 0.14089 0.0
O304 O 0.52753 0.24016 0.94725 0.0
O305 O 0.49313 0.23828 0.94442 0.0
O306 O 0.4914 0.23725 0.10769 0.0
O307 O 0.52622 0.23895 0.11045 0.0
H308 H 0.50089 0.28255 0.98394 0.0
H309 H 0.50001 0.31879 0.94209 0.0
H310 H 0.51681 0.29649 0.74946 0.0
H311 H 0.51738 0.26017 0.79184 0.0
H312 H 0.51716 0.11479 0.13367 0.0
H313 H 0.51634 0.13937 0.04016 0.0
H314 H 0.51101 0.16714 0.26636 0.0
H315 H 0.51061 0.19173 0.1727 0.0
H316 H 0.5039 0.27222 0.34409 0.0
H317 H 0.51576 0.31422 0.18088 0.0
H318 H 0.51362 0.28421 0.10506 0.0
H319 H 0.50156 0.2425 0.26841 0.0
C320 C 0.97023 0.03398 0.56452 0.0
Eu321 Eu 0.99451 0.01697 0.65164 0.0
C322 C 0.97362 0.05479 0.53461 0.0
C323 C 0.95679 0.06885 0.52598 0.0
C324 C 0.96071 0.08959 0.50525 0.0
C325 C 0.98152 0.09636 0.49312 0.0
C326 C 0.99827 0.08232 0.50336 0.0
C327 C 0.99437 0.0618 0.52372 0.0
C328 C 0.98062 1.00755 0.77545 0.0
C329 C 0.0198 0.05759 0.71819 0.0
C330 C 0.04684 0.99377 0.84546 0.0
Eu331 Eu 0.02911 1.00874 0.74162 0.0
C332 C 0.04518 0.97172 0.86809 0.0
C333 C 0.0619 0.95771 0.85691 0.0
C334 C 0.05917 0.93612 0.86741 0.0
C335 C 0.03971 0.92817 0.88977 0.0
C336 C 0.02311 0.9422 0.90212 0.0
C337 C 0.02579 0.96374 0.8914 0.0
C338 C 0.04826 1.0116 0.62077 0.0
C339 C 1.00732 0.96847 0.66694 0.0
O340 O 0.98425 0.0196 0.55002 0.0
O341 O 0.96607 0.03456 0.62703 0.0
O342 O 0.97265 0.99974 0.7222 0.0
O343 O 0.99609 0.01942 0.76047 0.0
O344 O 1.00705 0.05066 0.67141 0.0
O345 O 0.03023 0.04413 0.75541 0.0
O346 O 0.02946 1.00478 0.84757 0.0
O347 O 0.05716 0.99662 0.79071 0.0
O348 O 0.05795 1.00948 0.67611 0.0
O349 O 0.02855 0.01358 0.63115 0.0
O350 O 0.01692 0.97529 0.72029 0.0
O351 O 0.99872 0.98223 0.6262 0.0
H352 H 0.94073 0.06389 0.53621 0.0
H353 H 0.94755 0.10018 0.49784 0.0
H354 H 0.01451 0.08728 0.4962 0.0
H355 H 1.00773 0.05156 0.53257 0.0
H356 H 0.07687 0.96337 0.83792 0.0
H357 H 0.07219 0.92562 0.85705 0.0
H358 H 1.00805 0.93658 0.92059 0.0
H359 H 1.01244 0.97401 0.89986 0.0
C360 C 0.49314 0.98007 0.54331 0.0
Eu361 Eu 0.50893 0.99677 0.64727 0.0
C362 C 0.47067 0.98097 0.52497 0.0
C363 C 0.45865 0.96236 0.52223 0.0
C364 C 0.43692 0.96329 0.51124 0.0
C365 C 0.4269 0.98284 0.50333 0.0
C366 C 0.43878 1.00147 0.50768 0.0
C367 C 0.46047 1.00057 0.51825 0.0
C368 C 0.51042 0.97696 0.76769 0.0
C369 C 0.46868 0.01883 0.72183 0.0
C370 C 0.53395 0.05287 0.83172 0.0
Eu371 Eu 0.51693 0.03066 0.74034 0.0
C372 C 0.55538 0.04976 0.8572 0.0
C373 C 0.56986 0.06649 0.85494 0.0
C374 C 0.59105 0.06301 0.8694 0.0
C375 C 0.59809 0.04275 0.88672 0.0
C376 C 0.58365 0.02594 0.88861 0.0
C377 C 0.56248 0.02939 0.87374 0.0
C378 C 0.50868 0.04508 0.61637 0.0
C379 C 0.5578 1.0064 0.67176 0.0
O380 O 0.50336 0.99802 0.54216 0.0
O381 O 0.49737 0.96892 0.59554 0.0
O382 O 0.5086 0.96754 0.71183 0.0
O383 O 0.5128 0.99662 0.75758 0.0
O384 O 0.47566 1.00959 0.66816 0.0
O385 O 0.48219 0.02665 0.76446 0.0
O386 O 0.52035 0.03779 0.8441 0.0
O387 O 0.5332 0.05932 0.77098 0.0
O388 O 0.50036 0.05287 0.66925 0.0
O389 O 0.52047 0.02972 0.63181 0.0
O390 O 0.55066 0.01908 0.71831 0.0
O391 O 0.54447 0.99573 0.63446 0.0
H392 H 0.46605 0.94714 0.52909 0.0
H393 H 0.42796 0.94874 0.50816 0.0
H394 H 0.43142 0.01672 0.50081 0.0
H395 H 0.46915 0.01528 0.52166 0.0
H396 H 0.56486 0.08213 0.84032 0.0
H397 H 0.60199 0.07617 0.86685 0.0
H398 H 0.58866 1.01022 0.90235 0.0
H399 H 0.55179 0.01601 0.87393 0.0
C400 C 0.5524 0.49232 0.54991 0.0
Eu401 Eu 0.5319 0.50808 0.64681 0.0
C402 C 0.55007 0.47034 0.52814 0.0
C403 C 0.5677 0.457 0.52441 0.0
C404 C 0.56503 0.43553 0.51056 0.0
C405 C 0.5447 0.42733 0.50066 0.0
C406 C 0.52711 0.44043 0.50717 0.0
C407 C 0.52976 0.46167 0.52116 0.0
C408 C 0.54697 0.5121 0.77331 0.0
C409 C 0.50722 0.46749 0.71953 0.0
C410 C 0.47419 0.53143 0.84281 0.0
Eu411 Eu 0.49344 0.51568 0.74381 0.0
C412 C 0.47692 0.55346 0.86351 0.0
C413 C 0.45966 0.56733 0.86364 0.0
C414 C 0.46277 0.58883 0.87578 0.0
C415 C 0.48317 0.59653 0.88758 0.0
C416 C 0.50045 0.58288 0.88496 0.0
C417 C 0.49738 0.56157 0.87293 0.0
C418 C 0.47794 0.51153 0.61842 0.0
C419 C 0.51721 0.5565 0.66929 0.0
O420 O 0.53603 0.50468 0.54126 0.0
O421 O 0.56072 0.49424 0.60804 0.0
O422 O 0.55871 0.5094 0.72208 0.0
O423 O 0.52802 0.51335 0.75319 0.0
O424 O 0.51948 0.47466 0.67128 0.0
O425 O 0.49636 0.48033 0.75802 0.0
O426 O 0.49065 0.51912 0.84963 0.0
O427 O 0.46497 0.52924 0.78605 0.0
O428 O 0.46642 0.5136 0.67053 0.0
O429 O 0.49713 0.51037 0.63684 0.0
O430 O 0.50407 0.54901 0.71466 0.0
O431 O 0.52967 0.54391 0.63445 0.0
H432 H 0.58346 0.46319 0.53232 0.0
H433 H 0.57877 0.42555 0.50521 0.0
H434 H 0.5113 0.4343 0.49949 0.0
H435 H 0.51585 0.47124 0.52715 0.0
H436 H 0.44384 0.56154 0.85415 0.0
H437 H 0.44927 0.59924 0.87836 0.0
H438 H 0.51629 0.58865 0.89436 0.0
H439 H 0.5111 0.55151 0.87063 0.0
C440 C 0.03214 0.553 0.55274 0.0
Eu441 Eu 0.0163 0.53235 0.64984 0.0
C442 C 0.05371 0.54971 0.5285 0.0
C443 C 0.06708 0.5669 0.51494 0.0
C444 C 0.08834 0.56351 0.49923 0.0
C445 C 0.09633 0.54289 0.49729 0.0
C446 C 0.08313 0.52588 0.51389 0.0
C447 C 0.06206 0.52922 0.52902 0.0
C448 C 1.01112 0.54547 0.77706 0.0
C449 C 0.05749 0.50748 0.71996 0.0
C450 C 0.99404 0.4718 0.83985 0.0
Eu451 Eu 1.00934 0.49207 0.74126 0.0
C452 C 0.97276 0.47561 0.86547 0.0
C453 C 0.95952 0.45873 0.88298 0.0
C454 C 0.93823 0.46235 0.89725 0.0
C455 C 0.92995 0.48288 0.89344 0.0
C456 C 0.94319 0.49959 0.8743 0.0
C457 C 0.96437 0.49603 0.86098 0.0
C458 C 0.01473 0.47897 0.61421 0.0
C459 C 0.9681 0.51629 0.6697 0.0
O460 O 0.01889 0.53725 0.54435 0.0
O461 O 0.0313 0.56084 0.61177 0.0
O462 O 1.0127 0.55813 0.72719 0.0
O463 O 1.01084 0.52667 0.75521 0.0
O464 O 0.04991 0.52197 0.67896 0.0
O465 O 0.04499 0.49403 0.75171 0.0
O466 O 1.00762 0.48733 0.84697 0.0
O467 O 0.99418 0.4639 0.78081 0.0
O468 O 0.0131 0.46629 0.66402 0.0
O469 O 0.01486 0.49777 0.63602 0.0
O470 O 0.97576 0.50221 0.71193 0.0
O471 O 0.9806 0.52971 0.63755 0.0
H472 H 0.06111 0.58288 0.51688 0.0
H473 H 0.09832 0.57686 0.4868 0.0
H474 H 0.08908 0.50986 0.5141 0.0
H475 H 0.05237 0.51571 0.54203 0.0
H476 H 0.96556 0.44277 0.88443 0.0
H477 H 0.92835 0.44918 0.912 0.0
H478 H 0.93716 0.51548 0.86919 0.0
H479 H 0.97403 0.50925 0.84518 0.0
H480 H 0.10066 0.03459 0.22492 0.0
H481 H 0.0862 0.99356 0.59596 0.0
H482 H 0.14401 0.99305 0.32408 0.0
H483 H 0.03683 0.02744 0.4966 0.0
H484 H 0.10678 0.99327 0.49502 0.0
H485 H 0.07685 0.03234 0.31993 0.0
C486 C 0.10525 0.02487 0.26614 0.0
C487 C 0.12482 0.01417 0.26554 0.0
C488 C 0.09147 1.00083 0.49472 0.0
C489 C 0.09726 1.01174 0.37625 0.0
C490 C 0.07962 1.00103 0.55281 0.0
C491 C 0.05969 1.01073 0.55575 0.0
C492 C 0.08379 1.01074 0.43791 0.0
C493 C 0.05208 0.01983 0.49723 0.0
C494 C 0.09155 0.02369 0.32081 0.0
C495 C 0.12957 1.00207 0.32171 0.0
N496 N 0.06419 0.01982 0.44115 0.0
N497 N 0.11608 1.00128 0.37407 0.0
H498 H 0.54203 0.10655 0.23934 0.0
H499 H 0.47992 0.07346 0.57076 0.0
H500 H 0.48523 0.13622 0.30853 0.0
H501 H 0.53821 0.04384 0.51444 0.0
H502 H 0.48112 0.09473 0.47064 0.0
H503 H 0.54088 0.08249 0.33475 0.0
C504 C 0.52924 0.10795 0.27429 0.0
C505 C 0.51376 0.12367 0.26561 0.0
C506 C 0.49372 0.08363 0.47977 0.0
C507 C 0.51217 0.09579 0.37536 0.0
C508 C 0.49301 0.07138 0.53723 0.0
C509 C 0.50898 0.05678 0.5518 0.0
C510 C 0.51073 0.08172 0.43567 0.0
C511 C 0.52546 0.05479 0.50554 0.0
C512 C 0.52861 0.09418 0.32896 0.0
C513 C 0.49768 0.12466 0.31314 0.0
N514 N 0.52599 0.06717 0.45011 0.0
N515 N 0.49729 0.11102 0.36518 0.0
H516 H 0.38748 0.54106 0.3101 0.0
H517 H 0.48579 0.48844 0.50343 0.0
H518 H 0.42009 0.48634 0.23769 0.0
H519 H 0.44746 0.53861 0.57925 0.0
H520 H 0.46512 0.48943 0.40087 0.0
H521 H 0.41185 0.54228 0.40308 0.0
C522 C 0.39963 0.52915 0.31374 0.0
C523 C 0.40134 0.51343 0.26541 0.0
C524 C 0.46141 0.50043 0.43964 0.0
C525 C 0.42984 0.51478 0.37358 0.0
C526 C 0.47347 0.50001 0.49813 0.0
C527 C 0.46863 0.51354 0.55051 0.0
C528 C 0.44436 0.51459 0.43292 0.0
C529 C 0.4519 0.52782 0.54065 0.0
C530 C 0.41372 0.52993 0.36707 0.0
C531 C 0.418 0.49883 0.27305 0.0
N532 N 0.44051 0.52794 0.48382 0.0
N533 N 0.43138 0.49977 0.32584 0.0
H534 H 0.04868 0.39801 0.28627 0.0
H535 H 0.98277 0.47634 0.52275 0.0
H536 H 0.98238 0.40975 0.26006 0.0
H537 H 0.04816 0.46084 0.55107 0.0
H538 H 0.98258 0.45495 0.42186 0.0
H539 H 0.04909 0.42309 0.37791 0.0
C540 C 0.03415 0.4058 0.30001 0.0
C541 C 0.01546 0.40155 0.26537 0.0
C542 C 0.99712 0.45656 0.44924 0.0
C543 C 0.01571 0.43064 0.37153 0.0
C544 C 0.99732 0.46909 0.50652 0.0
C545 C 0.01574 0.47111 0.54471 0.0
C546 C 0.01546 0.44563 0.42973 0.0
C547 C 0.03377 0.46035 0.52253 0.0
C548 C 0.03437 0.42023 0.35246 0.0
C549 C 0.99716 0.41243 0.28531 0.0
N550 N 0.03317 0.44822 0.46714 0.0
N551 N 0.99772 0.4263 0.33687 0.0
H552 H 0.8809 0.99225 0.06699 0.0
H553 H 0.99039 0.02776 0.89328 0.0
H554 H 0.92468 0.03482 0.16043 0.0
H555 H 0.94233 0.98945 0.80284 0.0
H556 H 0.96838 0.02959 0.99334 0.0
H557 H 0.90455 0.99025 0.97286 0.0
C558 C 0.89537 1.00139 0.06787 0.0
C559 C 0.90039 0.01392 0.12259 0.0
C560 C 0.96268 0.02076 0.9516 0.0
C561 C 0.92824 1.01144 0.01289 0.0
C562 C 0.97531 0.01965 0.89435 0.0
C563 C 0.96834 1.00837 0.83895 0.0
C564 C 0.94283 1.01055 0.95381 0.0
C565 C 0.94855 0.99828 0.84383 0.0
C566 C 0.90906 1.00011 0.01374 0.0
C567 C 0.91994 0.02483 0.12015 0.0
N568 N 0.93665 0.99965 0.8995 0.0
N569 N 0.93299 0.0234 0.06656 0.0
H570 H 0.49286 0.87665 0.05526 0.0
H571 H 0.51813 0.99121 0.89628 0.0
H572 H 0.51968 0.92691 0.17064 0.0
H573 H 0.50085 0.93561 0.78779 0.0
H574 H 0.51689 0.96997 0.99857 0.0
H575 H 0.49365 0.89967 0.95954 0.0
C576 C 0.49913 0.89245 0.06085 0.0
C577 C 0.50644 0.89943 0.12226 0.0
C578 C 0.51338 0.96246 0.95228 0.0
C579 C 0.50712 0.9266 1.0103 0.0
C580 C 0.51408 0.97463 0.89372 0.0
C581 C 0.50973 0.96528 0.83254 0.0
C582 C 0.50808 0.94078 0.95003 0.0
C583 C 0.50448 0.94366 0.83308 0.0
C584 C 0.49945 0.90577 1.00562 0.0
C585 C 0.51374 0.92058 0.12509 0.0
N586 N 0.50379 0.93236 0.89009 0.0
N587 N 0.51395 0.93328 0.07034 0.0
H588 H 0.62936 0.47425 0.09652 0.0
H589 H 0.54772 0.5418 0.87379 0.0
H590 H 0.61504 0.53931 0.13497 0.0
H591 H 0.56821 0.47904 0.82699 0.0
H592 H 0.56879 0.54026 0.97549 0.0
H593 H 0.60427 0.47476 1.0045 0.0
C594 C 0.62105 0.48871 0.08535 0.0
C595 C 0.6246 0.50681 0.12359 0.0
C596 C 0.56839 0.52665 0.94365 0.0
C597 C 0.59552 0.50762 0.01688 0.0
C598 C 0.556 0.52742 0.88588 0.0
C599 C 0.55557 0.5103 0.84212 0.0
C600 C 0.58066 0.50865 0.95819 0.0
C601 C 0.56765 0.49249 0.85947 0.0
C602 C 0.60662 0.48901 0.03268 0.0
C603 C 0.61295 0.52498 0.10699 0.0
N604 N 0.57954 0.49214 0.91546 0.0
N605 N 0.59915 0.52496 0.0551 0.0
H606 H 0.98116 0.62816 0.1048 0.0
H607 H 0.04481 0.55066 0.86048 0.0
H608 H 0.04722 0.61457 0.12846 0.0
H609 H 0.97793 0.56125 0.84829 0.0
H610 H 0.04602 0.57219 0.96084 0.0
H611 H 0.9796 0.60269 0.01415 0.0
C612 C 0.99541 0.61995 0.09065 0.0
C613 C 0.01438 0.62379 0.12455 0.0
C614 C 0.03096 0.56946 0.93726 0.0
C615 C 0.01279 0.59434 0.019 0.0
C616 C 0.03021 0.55685 0.88023 0.0
C617 C 1.01108 0.55337 0.8467 0.0
C618 C 1.01247 0.57916 0.9611 0.0
C619 C 0.99292 0.56286 0.87322 0.0
C620 C 0.99451 0.60527 0.03879 0.0
C621 C 0.03222 0.61224 0.10409 0.0
N622 N 0.99407 0.57522 0.92816 0.0
N623 N 0.03104 0.59832 0.05277 0.0
H624 H 0.04397 0.19605 0.2904 0.0
H625 H 0.96532 0.13486 0.53131 0.0
H626 H 0.98601 0.22471 0.3553 0.0
H627 H 1.0083 0.10591 0.39432 0.0
H628 H 0.97584 0.16979 0.48817 0.0
H629 H 0.03559 0.16486 0.3562 0.0
C630 C 0.02953 0.1957 0.31893 0.0
C631 C 0.0154 0.2125 0.31681 0.0
C632 C 0.98293 0.15569 0.46815 0.0
C633 C 1.00548 0.17705 0.39052 0.0
C634 C 0.97686 0.13586 0.49219 0.0
C635 C 0.98619 0.11756 0.46676 0.0
C636 C 0.99849 0.15693 0.41918 0.0
C637 C 1.00109 0.11962 0.41641 0.0
C638 C 0.02472 0.17801 0.35627 0.0
C639 C 0.9971 0.21175 0.3556 0.0
N640 N 1.00683 0.13892 0.3946 0.0
N641 N 0.99241 0.19404 0.39039 0.0
H642 H 0.30727 0.03429 0.38983 0.0
H643 H 0.40947 0.96184 0.40225 0.0
H644 H 0.32406 0.98806 0.24443 0.0
H645 H 0.39465 1.00679 0.5534 0.0
H646 H 0.37511 0.96787 0.35334 0.0
H647 H 0.33623 0.02157 0.45928 0.0
C648 C 0.31709 0.02149 0.37269 0.0
C649 C 0.31382 0.01258 0.31069 0.0
C650 C 0.37908 0.97616 0.39796 0.0
C651 C 0.34645 0.99784 0.38951 0.0
C652 C 0.39866 0.97257 0.42613 0.0
C653 C 0.4048 0.98387 0.48166 0.0
C654 C 0.36558 0.9913 0.42525 0.0
C655 C 0.39044 0.99795 0.51005 0.0
C656 C 0.33348 0.01419 0.41229 0.0
C657 C 0.32659 0.99582 0.29095 0.0
N658 N 0.37146 1.00146 0.48106 0.0
N659 N 0.34241 0.98908 0.33008 0.0
H660 H 0.53537 0.29654 0.37653 0.0
H661 H 0.53253 0.42019 0.3783 0.0
H662 H 0.49164 0.33379 0.26347 0.0
H663 H 0.54923 0.38787 0.55686 0.0
H664 H 0.52269 0.38669 0.32954 0.0
H665 H 0.54398 0.32794 0.44208 0.0
C666 C 0.52733 0.31124 0.36645 0.0
C667 C 0.51312 0.31289 0.31388 0.0
C668 C 0.52844 0.38682 0.37947 0.0
C669 C 0.52295 0.34836 0.3873 0.0
C670 C 0.53423 0.40586 0.40689 0.0
C671 C 0.54155 0.40656 0.47126 0.0
C672 C 0.52998 0.36829 0.41662 0.0
C673 C 0.54366 0.38771 0.50675 0.0
C674 C 0.53225 0.32903 0.40368 0.0
C675 C 0.50306 0.3321 0.30252 0.0
N676 N 0.53783 0.36908 0.47879 0.0
N677 N 0.50836 0.34917 0.33851 0.0
H678 H 0.22524 0.54483 0.35427 0.0
H679 H 0.10581 0.51475 0.4039 0.0
H680 H 0.19794 0.48507 0.29947 0.0
H681 H 0.13468 0.56119 0.52969 0.0
H682 H 0.14021 0.50579 0.36115 0.0
H683 H 0.19343 0.55258 0.41925 0.0
C684 C 0.21265 0.53324 0.35714 0.0
C685 C 0.21371 0.51452 0.32088 0.0
C686 C 0.1392 0.51775 0.39877 0.0
C687 C 0.17785 0.52313 0.39391 0.0
C688 C 0.11953 0.5229 0.42307 0.0
C689 C 0.11751 0.53845 0.47106 0.0
C690 C 0.15713 0.52833 0.42197 0.0
C691 C 0.13571 0.54905 0.49269 0.0
C692 C 0.19464 0.53763 0.39405 0.0
C693 C 0.19733 0.49986 0.32579 0.0
N694 N 0.15495 0.54379 0.46777 0.0
N695 N 0.17994 0.50457 0.36121 0.0
H696 H 0.0535 0.80616 0.0642 0.0
H697 H 1.00539 0.90285 0.86424 0.0
H698 H 0.98677 0.81886 0.0551 0.0
H699 H 0.0679 0.90193 0.94857 0.0
H700 H 0.99973 0.86671 0.90396 0.0
H701 H 0.0601 0.83601 0.9905 0.0
C702 C 0.04027 0.81519 0.04578 0.0
C703 C 0.01967 0.8106 0.06608 0.0
C704 C 0.01475 0.87442 0.91275 0.0
C705 C 0.02693 0.84427 0.98215 0.0
C706 C 0.01797 0.89499 0.89052 0.0
C707 C 0.03703 0.90548 0.90416 0.0
C708 C 0.03077 0.86437 0.94823 0.0
C709 C 0.05302 0.89443 0.93675 0.0
C710 C 0.04399 0.83209 1.00391 0.0
C711 C 1.0029 0.8224 0.04106 0.0
N712 N 0.04944 0.87452 0.95826 0.0
N713 N 1.00691 0.83893 1.00041 0.0
H714 H 0.7118 0.98641 0.03392 0.0
H715 H 0.62025 0.06749 0.9694 0.0
H716 H 0.71364 0.0515 0.09353 0.0
H717 H 0.6255 1.01072 0.85444 0.0
H718 H 0.65531 0.06153 0.01233 0.0
H719 H 0.68133 0.99438 0.96302 0.0
C720 C 0.70575 1.00235 0.03155 0.0
C721 C 0.71454 0.0183 0.07015 0.0
C722 C 0.64906 0.0505 0.97683 0.0
C723 C 0.68035 0.02748 0.99056 0.0
C724 C 0.62902 0.05397 0.95216 0.0
C725 C 0.62005 0.03964 0.90822 0.0
C726 C 0.6602 0.03241 0.95821 0.0
C727 C 0.63188 0.02201 0.88889 0.0
C728 C 0.68859 1.00692 0.99107 0.0
C729 C 0.70679 0.0388 0.06514 0.0
N730 N 0.6514 0.01875 0.91458 0.0
N731 N 0.68994 0.04277 0.02659 0.0
H732 H 0.48546 0.72751 1.00221 0.0
H733 H 0.49462 0.60465 1.01004 0.0
H734 H 0.52681 0.69348 0.13266 0.0
H735 H 0.47943 0.63544 0.82761 0.0
H736 H 0.50337 0.63859 0.05754 0.0
H737 H 0.48192 0.69568 0.93486 0.0
C738 C 0.49406 0.71344 0.01596 0.0
C739 C 0.50592 0.71276 0.07404 0.0
C740 C 0.49833 0.63804 1.0069 0.0
C741 C 0.50177 0.67673 0.99835 0.0
C742 C 0.49316 0.61873 0.98017 0.0
C743 C 0.48646 0.6175 0.91525 0.0
C744 C 0.49669 0.65631 0.96853 0.0
C745 C 0.48452 0.63604 0.87818 0.0
C746 C 0.49203 0.69539 0.9776 0.0
C747 C 0.51692 0.69436 0.08953 0.0
N748 N 0.48961 0.65494 0.90559 0.0
N749 N 0.51433 0.67696 0.05236 0.0
H750 H 0.80282 0.47012 0.0325 0.0
H751 H 0.91621 0.5159 0.96583 0.0
H752 H 0.82205 0.53345 0.0811 0.0
H753 H 0.89381 0.45998 0.86707 0.0
H754 H 0.88062 0.5231 1.00188 0.0
H755 H 0.83427 0.46665 0.9631 0.0
C756 C 0.81352 0.4834 0.02728 0.0
C757 C 0.81042 0.50189 0.06334 0.0
C758 C 0.88332 0.50941 0.97146 0.0
C759 C 0.84599 0.49813 0.98506 0.0
C760 C 0.9037 0.5053 0.95071 0.0
C761 C 0.90798 0.48735 0.91316 0.0
C762 C 0.86702 0.49532 0.95568 0.0
C763 C 0.89118 0.47386 0.89669 0.0
C764 C 0.83137 0.48144 0.98783 0.0
C765 C 0.82439 0.51877 0.05515 0.0
N766 N 0.87136 0.47802 0.91866 0.0
N767 N 0.84176 0.5164 0.01733 0.0
H768 H 0.02248 0.19757 0.71637 0.0
H769 H 0.02685 0.07642 0.83666 0.0
H770 H 0.0167 0.17734 0.91764 0.0
H771 H 0.01483 0.09223 0.63486 0.0
H772 H 0.0265 0.11393 0.86388 0.0
H773 H 0.02233 0.16028 0.68254 0.0
C774 C 0.02112 0.18548 0.75372 0.0
C775 C 0.01991 0.19111 0.82069 0.0
C776 C 0.02407 0.10933 0.81343 0.0
C777 C 0.02004 0.14788 0.78152 0.0
C778 C 0.02442 0.08778 0.79769 0.0
C779 C 0.02095 0.0809 0.73317 0.0
C780 C 0.02063 0.12461 0.76439 0.0
C781 C 0.01752 0.09665 0.68529 0.0
C782 C 0.02113 0.16407 0.7341 0.0
C783 C 0.01833 0.17427 0.86583 0.0
N784 N 0.01759 0.11767 0.70166 0.0
N785 N 0.01855 0.15375 0.84559 0.0
H786 H 0.34571 1.00097 0.90253 0.0
H787 H 0.43586 0.02722 0.63576 0.0
H788 H 0.33086 0.03576 0.72699 0.0
H789 H 0.44802 1.01214 0.83793 0.0
H790 H 0.39755 0.02737 0.65975 0.0
H791 H 0.38279 1.00052 0.86989 0.0
C792 C 0.35023 1.00871 0.85726 0.0
C793 C 0.33494 0.01884 0.81861 0.0
C794 C 0.4086 0.02395 0.69874 0.0
C795 C 0.3781 0.01834 0.78019 0.0
C796 C 0.4305 0.02386 0.68511 0.0
C797 C 0.44531 0.01973 0.73501 0.0
C798 C 0.40132 0.01921 0.76241 0.0
C799 C 0.43734 0.01562 0.79803 0.0
C800 C 0.37153 1.00842 0.83848 0.0
C801 C 0.34197 0.02788 0.75895 0.0
N802 N 0.41608 0.01525 0.80957 0.0
N803 N 0.36297 0.02755 0.74185 0.0
H804 H 0.4962 0.32802 0.7209 0.0
H805 H 0.51403 0.44829 0.83701 0.0
H806 H 0.52271 0.34642 0.90665 0.0
H807 H 0.5006 0.43349 0.6357 0.0
H808 H 0.51537 0.41057 0.86221 0.0
H809 H 0.49615 0.36546 0.68711 0.0
C810 C 0.5021 0.33977 0.75467 0.0
C811 C 0.50911 0.33371 0.81773 0.0
C812 C 0.51196 0.41541 0.81246 0.0
C813 C 0.50894 0.37699 0.77895 0.0
C814 C 0.51108 0.43707 0.79815 0.0
C815 C 0.50705 0.44421 0.73428 0.0
C816 C 0.50834 0.40037 0.76304 0.0
C817 C 0.50378 0.42875 0.68569 0.0
C818 C 0.50199 0.36125 0.73523 0.0
C819 C 0.51652 0.35001 0.85856 0.0
N820 N 0.50428 0.40764 0.70109 0.0
N821 N 0.51613 0.37059 0.83875 0.0
H822 H 0.19017 0.54136 0.79275 0.0
H823 H 0.08279 0.47325 0.75012 0.0
H824 H 0.18662 0.47439 0.82638 0.0
H825 H 0.08628 0.54024 0.71558 0.0
H826 H 0.12104 0.47297 0.77113 0.0
H827 H 0.15292 0.54101 0.75823 0.0
C828 C 0.18163 0.52652 0.79227 0.0
C829 C 0.19162 0.50791 0.81351 0.0
C830 C 0.11347 0.48777 0.7592 0.0
C831 C 0.1486 0.50733 0.77335 0.0
C832 C 0.09153 0.48795 0.74731 0.0
C833 C 0.08105 0.50682 0.73144 0.0
C834 C 0.12525 0.50669 0.75659 0.0
C835 C 0.09352 0.52527 0.72747 0.0
C836 C 0.16027 0.52633 0.77266 0.0
C837 C 0.17958 0.48919 0.81168 0.0
N838 N 0.11474 0.52477 0.74048 0.0
N839 N 0.15888 0.48938 0.79223 0.0
H840 H 0.01647 0.82878 0.67576 0.0
H841 H 0.9981 0.94853 0.55037 0.0
H842 H 1.00918 0.84705 0.4734 0.0
H843 H 0.01567 0.93446 0.74959 0.0
H844 H 0.99942 0.91082 0.5252 0.0
H845 H 0.01363 0.8662 0.70716 0.0
C846 C 0.01423 0.84049 0.6377 0.0
C847 C 0.0133 0.8343 0.5712 0.0
C848 C 1.00291 0.91587 0.57461 0.0
C849 C 1.00998 0.8777 0.60751 0.0
C850 C 1.00206 0.93756 0.58917 0.0
C851 C 1.00682 0.94503 0.65226 0.0
C852 C 1.00836 0.90107 0.62339 0.0
C853 C 1.01197 0.92967 0.70006 0.0
C854 C 1.01271 0.86199 0.65587 0.0
C855 C 1.01048 0.85064 0.52497 0.0
N856 N 1.01256 0.90859 0.68477 0.0
N857 N 1.00891 0.87125 0.54387 0.0
H858 H 0.69665 0.02257 0.67307 0.0
H859 H 0.5784 0.98955 0.56501 0.0
H860 H 0.67946 1.00164 0.47956 0.0
H861 H 0.59115 0.02175 0.74639 0.0
H862 H 0.61612 0.99077 0.53906 0.0
H863 H 0.65933 0.0194 0.70643 0.0
C864 C 0.68516 0.01725 0.63748 0.0
C865 C 0.69151 0.01262 0.57273 0.0
C866 C 0.61076 0.99747 0.58484 0.0
C867 C 0.64838 1.00884 0.61121 0.0
C868 C 0.58909 0.99667 0.59996 0.0
C869 C 0.58127 1.00551 0.65822 0.0
C870 C 0.62514 1.00704 0.62827 0.0
C871 C 0.59624 0.01469 0.70091 0.0
C872 C 0.66375 0.01553 0.65665 0.0
C873 C 0.67557 1.00585 0.52943 0.0
N874 N 0.61731 0.01519 0.68522 0.0
N875 N 0.65502 1.00416 0.54933 0.0
H876 H 0.54376 0.6915 0.59281 0.0
H877 H 0.48387 0.58338 0.68541 0.0
H878 H 0.47687 0.6828 0.56568 0.0
H879 H 0.54896 0.58368 0.62352 0.0
H880 H 0.48193 0.62127 0.66231 0.0
H881 H 0.54668 0.65412 0.62526 0.0
C882 C 0.52964 0.68182 0.59405 0.0
C883 C 0.51006 0.69045 0.57516 0.0
C884 C 0.49668 0.61312 0.65391 0.0
C885 C 0.5133 0.64736 0.61345 0.0
C886 C 0.49787 0.59138 0.6673 0.0
C887 C 0.51659 0.57999 0.65605 0.0
C888 C 0.51448 0.62408 0.63027 0.0
C889 C 0.5341 0.59156 0.63235 0.0
C890 C 0.53136 0.66039 0.61228 0.0
C891 C 0.49236 0.67693 0.57841 0.0
N892 N 0.53266 0.61287 0.62076 0.0
N893 N 0.49439 0.65627 0.59724 0.0
H894 H 0.83593 0.47727 0.61301 0.0
H895 H 0.94296 0.54731 0.61304 0.0
H896 H 0.83802 0.54198 0.54923 0.0
H897 H 0.93884 0.48518 0.69858 0.0
H898 H 0.90475 0.54601 0.59132 0.0
H899 H 0.87321 0.48006 0.64679 0.0
C900 C 0.84422 0.49209 0.6062 0.0
C901 C 0.83378 0.50936 0.57754 0.0
C902 C 0.91219 0.53264 0.61481 0.0
C903 C 0.87688 0.51269 0.61564 0.0
C904 C 0.93413 0.53335 0.62716 0.0
C905 C 0.94449 0.51628 0.65743 0.0
C906 C 0.90025 0.51457 0.63169 0.0
C907 C 0.93181 0.49878 0.6751 0.0
C908 C 0.86557 0.49371 0.62553 0.0
C909 C 0.84541 0.52822 0.57059 0.0
N910 N 0.91063 0.49832 0.66157 0.0
N911 N 0.86621 0.52932 0.58886 0.0
loop_
_geom_bond_atom_site_label_1
_geom_bond_atom_site_label_2
_geom_bond_distance
_geom_bond_site_symmetry_2
_ccdc_geom_bond_type
C0 C1 1.264 . S
C0 C5 1.479 . S
C0 C10 1.465 . S
C1 C0 1.264 . S
C1 C3 1.339 . S
C1 H28 0.931 . S
C2 C3 1.395 . S
C2 C4 1.320 . S
C3 C1 1.339 . S
C3 C2 1.395 . S
C3 H29 0.929 . S
C4 C2 1.320 . S
C4 C5 1.405 . S
C4 H30 0.930 . S
C5 C0 1.479 . S
C5 C4 1.405 . S
C5 H31 0.931 . S
U6 O7 2.454 . S
U6 O8 2.458 . S
U6 C9 2.984 . S
U6 C10 2.847 . S
U6 C23 2.882 . S
U6 O24 2.441 . S
U6 O25 2.420 . S
U6 O26 2.455 . S
U6 O27 2.449 . S
O7 U6 2.454 . S
O7 C9 1.353 . S
O8 U6 2.458 . S
O8 C9 1.286 . S
C9 U6 2.984 . S
C9 O7 1.353 . S
C9 O8 1.286 . S
C9 C11 1.363 . S
C10 C0 1.465 . S
C10 U6 2.847 . S
C10 O24 1.249 . S
C10 O25 1.202 . S
C11 C9 1.363 . S
C11 C13 1.408 . S
C11 C16 1.342 . S
C12 C13 1.310 . S
C12 C15 1.461 . S
C12 H32 0.932 . S
C13 C11 1.408 . S
C13 C12 1.310 . S
C13 H33 0.930 . S
C14 C15 1.474 . S
C14 C16 1.285 . S
C14 H34 0.929 . S
C15 C12 1.461 . S
C15 C14 1.474 . S
C16 C11 1.342 . S
C16 C14 1.285 . S
C16 H35 0.930 . S
C17 C20 1.424 . S
C17 C22 1.245 . S
C17 C23 1.428 . S
C18 C21 1.260 . S
C18 C22 1.477 . S
C18 H36 0.932 . S
C19 C20 1.384 . S
C19 C21 1.479 . S
C19 H37 0.929 . S
C20 C17 1.424 . S
C20 C19 1.384 . S
C20 H38 0.928 . S
C21 C18 1.260 . S
C21 C19 1.479 . S
C22 C17 1.245 . S
C22 C18 1.477 . S
C22 H39 0.932 . S
C23 U6 2.882 . S
C23 C17 1.428 . S
C23 O26 1.301 . S
C23 O27 1.282 . S
O24 U6 2.441 . S
O24 C10 1.249 . S
O25 U6 2.420 . S
O25 C10 1.202 . S
O26 U6 2.455 . S
O26 C23 1.301 . S
O27 U6 2.449 . S
O27 C23 1.282 . S
H28 C1 0.931 . S
H29 C3 0.929 . S
H30 C4 0.930 . S
H31 C5 0.931 . S
H32 C12 0.932 . S
H33 C13 0.930 . S
H34 C14 0.929 . S
H35 C16 0.930 . S
H36 C18 0.932 . S
H37 C19 0.929 . S
H38 C20 0.928 . S
H39 C22 0.932 . S
C40 C41 1.264 . S
C40 C45 1.479 . S
C40 C50 1.465 . S
C41 C40 1.264 . S
C41 C43 1.339 . S
C41 H68 0.931 . S
C42 C43 1.395 . S
C42 C44 1.320 . S
C43 C41 1.339 . S
C43 C42 1.395 . S
C43 H69 0.929 . S
C44 C42 1.320 . S
C44 C45 1.405 . S
C44 H70 0.921 1_455 S
C45 C40 1.479 . S
C45 C44 1.405 . S
C45 H71 0.931 . S
U46 O47 2.454 . S
U46 O48 2.458 . S
U46 C49 2.984 . S
U46 C50 2.847 . S
U46 C63 2.882 . S
U46 O64 2.441 . S
U46 O65 2.420 . S
U46 O66 2.455 . S
U46 O67 2.449 . S
O47 U46 2.454 . S
O47 C49 1.353 . S
O48 U46 2.458 . S
O48 C49 1.286 . S
C49 U46 2.984 . S
C49 O47 1.353 . S
C49 O48 1.286 . S
C49 C51 1.363 . S
C50 C40 1.465 . S
C50 U46 2.847 . S
C50 O64 1.249 . S
C50 O65 1.202 . S
C51 C49 1.363 . S
C51 C53 1.408 . S
C51 C56 1.342 . S
C52 C53 1.310 . S
C52 C55 1.461 . S
C52 H72 0.932 . S
C53 C51 1.408 . S
C53 C52 1.310 . S
C53 H73 0.930 . S
C54 C55 1.474 1_655 S
C54 C56 1.285 1_655 S
C54 H74 0.930 . S
C55 C52 1.461 . S
C55 C54 1.474 1_455 S
C56 C51 1.342 . S
C56 C54 1.285 1_455 S
C56 H75 0.932 . S
C57 C60 1.424 . S
C57 C62 1.245 . S
C57 C63 1.428 . S
C58 C61 1.260 . S
C58 C62 1.477 . S
C58 H76 0.932 . S
C59 C60 1.384 . S
C59 C61 1.479 . S
C59 H77 0.929 . S
C60 C57 1.424 . S
C60 C59 1.384 . S
C60 H78 0.928 . S
C61 C58 1.260 . S
C61 C59 1.479 . S
C62 C57 1.245 . S
C62 C58 1.477 . S
C62 H79 0.932 . S
C63 U46 2.882 . S
C63 C57 1.428 . S
C63 O66 1.301 . S
C63 O67 1.282 . S
O64 U46 2.441 . S
O64 C50 1.249 . S
O65 U46 2.420 . S
O65 C50 1.202 . S
O66 U46 2.455 . S
O66 C63 1.301 . S
O67 U46 2.449 . S
O67 C63 1.282 . S
H68 C41 0.931 . S
H69 C43 0.929 . S
H70 C44 0.921 1_655 S
H71 C45 0.931 . S
H72 C52 0.932 . S
H73 C53 0.930 . S
H74 C54 0.930 . S
H75 C56 0.932 . S
H76 C58 0.932 . S
H77 C59 0.929 . S
H78 C60 0.928 . S
H79 C62 0.932 . S
C80 C81 1.264 . S
C80 C85 1.479 . S
C80 C90 1.465 . S
C81 C80 1.264 . S
C81 C83 1.339 . S
C81 H108 0.931 . S
C82 C83 1.395 . S
C82 C84 1.320 . S
C83 C81 1.339 . S
C83 C82 1.395 . S
C83 H109 0.929 . S
C84 C82 1.320 . S
C84 C85 1.405 . S
C84 H110 0.921 1_545 S
C85 C80 1.479 . S
C85 C84 1.405 . S
C85 H111 0.931 . S
U86 O87 2.454 . S
U86 O88 2.458 . S
U86 C89 2.984 . S
U86 C90 2.847 . S
U86 C103 2.882 . S
U86 O104 2.441 . S
U86 O105 2.420 . S
U86 O106 2.455 . S
U86 O107 2.449 . S
O87 U86 2.454 . S
O87 C89 1.353 . S
O88 U86 2.458 . S
O88 C89 1.286 . S
C89 U86 2.984 . S
C89 O87 1.353 . S
C89 O88 1.286 . S
C89 C91 1.363 . S
C90 C80 1.465 . S
C90 U86 2.847 . S
C90 O104 1.249 . S
C90 O105 1.202 . S
C91 C89 1.363 . S
C91 C93 1.408 . S
C91 C96 1.342 . S
C92 C93 1.310 . S
C92 C95 1.461 . S
C92 H112 0.932 . S
C93 C91 1.408 . S
C93 C92 1.310 . S
C93 H113 0.930 . S
C94 C95 1.474 1_565 S
C94 C96 1.285 1_565 S
C94 H114 0.930 . S
C95 C92 1.461 . S
C95 C94 1.474 1_545 S
C96 C91 1.342 . S
C96 C94 1.285 1_545 S
C96 H115 0.932 . S
C97 C100 1.424 . S
C97 C102 1.245 . S
C97 C103 1.428 . S
C98 C101 1.260 . S
C98 C102 1.477 . S
C98 H116 0.932 . S
C99 C100 1.384 . S
C99 C101 1.479 . S
C99 H117 0.929 . S
C100 C97 1.424 . S
C100 C99 1.384 . S
C100 H118 0.928 . S
C101 C98 1.260 . S
C101 C99 1.479 . S
C102 C97 1.245 . S
C102 C98 1.477 . S
C102 H119 0.932 . S
C103 U86 2.882 . S
C103 C97 1.428 . S
C103 O106 1.301 . S
C103 O107 1.282 . S
O104 U86 2.441 . S
O104 C90 1.249 . S
O105 U86 2.420 . S
O105 C90 1.202 . S
O106 U86 2.455 . S
O106 C103 1.301 . S
O107 U86 2.449 . S
O107 C103 1.282 . S
H108 C81 0.931 . S
H109 C83 0.929 . S
H110 C84 0.921 1_565 S
H111 C85 0.931 . S
H112 C92 0.932 . S
H113 C93 0.930 . S
H114 C94 0.930 . S
H115 C96 0.932 . S
H116 C98 0.932 . S
H117 C99 0.929 . S
H118 C100 0.928 . S
H119 C102 0.932 . S
C120 C121 1.264 . S
C120 C125 1.479 . S
C120 C130 1.465 . S
C121 C120 1.264 . S
C121 C123 1.339 . S
C121 H148 0.931 . S
C122 C123 1.395 . S
C122 C124 1.320 . S
C123 C121 1.339 . S
C123 C122 1.395 . S
C123 H149 0.929 . S
C124 C122 1.320 . S
C124 C125 1.405 . S
C124 H150 0.930 . S
C125 C120 1.479 . S
C125 C124 1.405 . S
C125 H151 0.931 . S
U126 O127 2.454 . S
U126 O128 2.458 . S
U126 C129 2.984 . S
U126 C130 2.847 . S
U126 C143 2.882 . S
U126 O144 2.441 . S
U126 O145 2.420 . S
U126 O146 2.455 . S
U126 O147 2.449 . S
O127 U126 2.454 . S
O127 C129 1.353 . S
O128 U126 2.458 . S
O128 C129 1.286 . S
C129 U126 2.984 . S
C129 O127 1.353 . S
C129 O128 1.286 . S
C129 C131 1.363 . S
C130 C120 1.465 . S
C130 U126 2.847 . S
C130 O144 1.249 . S
C130 O145 1.202 . S
C131 C129 1.363 . S
C131 C133 1.408 . S
C131 C136 1.342 . S
C132 C133 1.310 . S
C132 C135 1.461 . S
C132 H152 0.932 . S
C133 C131 1.408 . S
C133 C132 1.310 . S
C133 H153 0.930 . S
C134 C135 1.474 . S
C134 C136 1.285 . S
C134 H154 0.929 . S
C135 C132 1.461 . S
C135 C134 1.474 . S
C136 C131 1.342 . S
C136 C134 1.285 . S
C136 H155 0.930 . S
C137 C140 1.424 . S
C137 C142 1.245 . S
C137 C143 1.428 . S
C138 C141 1.260 . S
C138 C142 1.477 . S
C138 H156 0.932 . S
C139 C140 1.384 . S
C139 C141 1.479 . S
C139 H157 0.929 . S
C140 C137 1.424 . S
C140 C139 1.384 . S
C140 H158 0.928 . S
C141 C138 1.260 . S
C141 C139 1.479 . S
C142 C137 1.245 . S
C142 C138 1.477 . S
C142 H159 0.932 . S
C143 U126 2.882 . S
C143 C137 1.428 . S
C143 O146 1.301 . S
C143 O147 1.282 . S
O144 U126 2.441 . S
O144 C130 1.249 . S
O145 U126 2.420 . S
O145 C130 1.202 . S
O146 U126 2.455 . S
O146 C143 1.301 . S
O147 U126 2.449 . S
O147 C143 1.282 . S
H148 C121 0.931 . S
H149 C123 0.929 . S
H150 C124 0.930 . S
H151 C125 0.931 . S
H152 C132 0.932 . S
H153 C133 0.930 . S
H154 C134 0.929 . S
H155 C136 0.930 . S
H156 C138 0.932 . S
H157 C139 0.929 . S
H158 C140 0.928 . S
H159 C142 0.932 . S
C160 C161 1.264 . S
C160 C165 1.479 . S
C160 C170 1.465 . S
C161 C160 1.264 . S
C161 C163 1.339 . S
C161 H188 0.931 . S
C162 C163 1.395 . S
C162 C164 1.320 . S
C163 C161 1.339 . S
C163 C162 1.395 . S
C163 H189 0.929 . S
C164 C162 1.320 . S
C164 C165 1.405 . S
C164 H190 0.930 . S
C165 C160 1.479 . S
C165 C164 1.405 . S
C165 H191 0.931 . S
U166 O167 2.454 . S
U166 O168 2.458 . S
U166 C169 2.984 . S
U166 C170 2.847 1_554 S
U166 C183 2.882 . S
U166 O184 2.441 1_554 S
U166 O185 2.420 1_554 S
U166 O186 2.455 . S
U166 O187 2.449 . S
O167 U166 2.454 . S
O167 C169 1.353 . S
O168 U166 2.458 . S
O168 C169 1.286 . S
C169 U166 2.984 . S
C169 O167 1.353 . S
C169 O168 1.286 . S
C169 C171 1.363 . S
C170 C160 1.465 . S
C170 U166 2.847 1_556 S
C170 O184 1.249 . S
C170 O185 1.202 . S
C171 C169 1.363 . S
C171 C173 1.408 . S
C171 C176 1.342 . S
C172 C173 1.310 . S
C172 C175 1.461 . S
C172 H192 0.932 . S
C173 C171 1.408 . S
C173 C172 1.310 . S
C173 H193 0.930 . S
C174 C175 1.474 . S
C174 C176 1.285 . S
C174 H194 0.929 . S
C175 C172 1.461 . S
C175 C174 1.474 . S
C176 C171 1.342 . S
C176 C174 1.285 . S
C176 H195 0.930 . S
C177 C180 1.424 . S
C177 C182 1.245 . S
C177 C183 1.428 . S
C178 C181 1.260 . S
C178 C182 1.477 . S
C178 H196 0.932 . S
C179 C180 1.384 . S
C179 C181 1.479 . S
C179 H197 0.929 . S
C180 C177 1.424 . S
C180 C179 1.384 . S
C180 H198 0.928 . S
C181 C178 1.260 . S
C181 C179 1.479 . S
C182 C177 1.245 . S
C182 C178 1.477 . S
C182 H199 0.932 . S
C183 U166 2.882 . S
C183 C177 1.428 . S
C183 O186 1.301 . S
C183 O187 1.282 . S
O184 U166 2.441 1_556 S
O184 C170 1.249 . S
O185 U166 2.420 1_556 S
O185 C170 1.202 . S
O186 U166 2.455 . S
O186 C183 1.301 . S
O187 U166 2.449 . S
O187 C183 1.282 . S
H188 C161 0.931 . S
H189 C163 0.929 . S
H190 C164 0.930 . S
H191 C165 0.931 . S
H192 C172 0.932 . S
H193 C173 0.930 . S
H194 C174 0.929 . S
H195 C176 0.930 . S
H196 C178 0.932 . S
H197 C179 0.929 . S
H198 C180 0.928 . S
H199 C182 0.932 . S
C200 C201 1.264 . S
C200 C205 1.479 . S
C200 C210 1.465 . S
C201 C200 1.264 . S
C201 C203 1.339 . S
C201 H228 0.931 . S
C202 C203 1.395 . S
C202 C204 1.320 . S
C203 C201 1.339 . S
C203 C202 1.395 . S
C203 H229 0.929 . S
C204 C202 1.320 . S
C204 C205 1.405 . S
C204 H230 0.923 1_455 S
C205 C200 1.479 . S
C205 C204 1.405 . S
C205 H231 0.931 . S
U206 O207 2.454 . S
U206 O208 2.458 . S
U206 C209 2.984 . S
U206 C210 2.847 1_554 S
U206 C223 2.882 . S
U206 O224 2.441 1_554 S
U206 O225 2.420 1_554 S
U206 O226 2.455 . S
U206 O227 2.449 . S
O207 U206 2.454 . S
O207 C209 1.353 . S
O208 U206 2.458 . S
O208 C209 1.286 . S
C209 U206 2.984 . S
C209 O207 1.353 . S
C209 O208 1.286 . S
C209 C211 1.363 . S
C210 C200 1.465 . S
C210 U206 2.847 1_556 S
C210 O224 1.249 . S
C210 O225 1.202 . S
C211 C209 1.363 . S
C211 C213 1.408 . S
C211 C216 1.342 . S
C212 C213 1.310 . S
C212 C215 1.462 . S
C212 H232 0.932 . S
C213 C211 1.408 . S
C213 C212 1.310 . S
C213 H233 0.930 . S
C214 C215 1.474 1_655 S
C214 C216 1.286 1_655 S
C214 H234 0.929 . S
C215 C212 1.462 . S
C215 C214 1.474 1_455 S
C216 C211 1.342 . S
C216 C214 1.286 1_455 S
C216 H235 0.934 . S
C217 C220 1.424 . S
C217 C222 1.245 . S
C217 C223 1.428 . S
C218 C221 1.260 . S
C218 C222 1.477 . S
C218 H236 0.932 . S
C219 C220 1.384 . S
C219 C221 1.479 . S
C219 H237 0.929 . S
C220 C217 1.424 . S
C220 C219 1.384 . S
C220 H238 0.928 . S
C221 C218 1.260 . S
C221 C219 1.479 . S
C222 C217 1.245 . S
C222 C218 1.477 . S
C222 H239 0.932 . S
C223 U206 2.882 . S
C223 C217 1.428 . S
C223 O226 1.301 . S
C223 O227 1.282 . S
O224 U206 2.441 1_556 S
O224 C210 1.249 . S
O225 U206 2.420 1_556 S
O225 C210 1.202 . S
O226 U206 2.455 . S
O226 C223 1.301 . S
O227 U206 2.449 . S
O227 C223 1.282 . S
H228 C201 0.931 . S
H229 C203 0.929 . S
H230 C204 0.923 1_655 S
H231 C205 0.931 . S
H232 C212 0.932 . S
H233 C213 0.930 . S
H234 C214 0.929 . S
H235 C216 0.934 . S
H236 C218 0.932 . S
H237 C219 0.929 . S
H238 C220 0.928 . S
H239 C222 0.932 . S
C240 C241 1.264 . S
C240 C245 1.479 . S
C240 C250 1.465 . S
C241 C240 1.264 . S
C241 C243 1.339 . S
C241 H268 0.931 . S
C242 C243 1.395 . S
C242 C244 1.320 . S
C243 C241 1.339 . S
C243 C242 1.395 . S
C243 H269 0.929 . S
C244 C242 1.320 . S
C244 C245 1.405 . S
C244 H270 0.923 1_545 S
C245 C240 1.479 . S
C245 C244 1.405 . S
C245 H271 0.931 . S
U246 O247 2.454 . S
U246 O248 2.458 . S
U246 C249 2.984 . S
U246 C250 2.847 1_554 S
U246 C263 2.882 . S
U246 O264 2.441 1_554 S
U246 O265 2.420 1_554 S
U246 O266 2.455 . S
U246 O267 2.449 . S
O247 U246 2.454 . S
O247 C249 1.353 . S
O248 U246 2.458 . S
O248 C249 1.286 . S
C249 U246 2.984 . S
C249 O247 1.353 . S
C249 O248 1.286 . S
C249 C251 1.363 . S
C250 C240 1.465 . S
C250 U246 2.847 1_556 S
C250 O264 1.249 . S
C250 O265 1.202 . S
C251 C249 1.363 . S
C251 C253 1.408 . S
C251 C256 1.342 . S
C252 C253 1.310 . S
C252 C255 1.462 . S
C252 H272 0.932 . S
C253 C251 1.408 . S
C253 C252 1.310 . S
C253 H273 0.930 . S
C254 C255 1.474 1_565 S
C254 C256 1.286 1_565 S
C254 H274 0.929 . S
C255 C252 1.462 . S
C255 C254 1.474 1_545 S
C256 C251 1.342 . S
C256 C254 1.286 1_545 S
C256 H275 0.933 . S
C257 C260 1.424 . S
C257 C262 1.245 . S
C257 C263 1.428 . S
C258 C261 1.260 . S
C258 C262 1.477 . S
C258 H276 0.932 . S
C259 C260 1.384 . S
C259 C261 1.479 . S
C259 H277 0.929 . S
C260 C257 1.424 . S
C260 C259 1.384 . S
C260 H278 0.928 . S
C261 C258 1.260 . S
C261 C259 1.479 . S
C262 C257 1.245 . S
C262 C258 1.477 . S
C262 H279 0.932 . S
C263 U246 2.882 . S
C263 C257 1.428 . S
C263 O266 1.301 . S
C263 O267 1.282 . S
O264 U246 2.441 1_556 S
O264 C250 1.249 . S
O265 U246 2.420 1_556 S
O265 C250 1.202 . S
O266 U246 2.455 . S
O266 C263 1.301 . S
O267 U246 2.449 . S
O267 C263 1.282 . S
H268 C241 0.931 . S
H269 C243 0.929 . S
H270 C244 0.923 1_565 S
H271 C245 0.931 . S
H272 C252 0.932 . S
H273 C253 0.930 . S
H274 C254 0.929 . S
H275 C256 0.933 . S
H276 C258 0.932 . S
H277 C259 0.929 . S
H278 C260 0.928 . S
H279 C262 0.932 . S
C280 C281 1.264 . S
C280 C285 1.479 . S
C280 C290 1.465 . S
C281 C280 1.264 . S
C281 C283 1.339 . S
C281 H308 0.931 . S
C282 C283 1.395 . S
C282 C284 1.320 . S
C283 C281 1.339 . S
C283 C282 1.395 . S
C283 H309 0.929 . S
C284 C282 1.320 . S
C284 C285 1.405 . S
C284 H310 0.930 . S
C285 C280 1.479 . S
C285 C284 1.405 . S
C285 H311 0.931 . S
U286 O287 2.454 . S
U286 O288 2.458 . S
U286 C289 2.984 . S
U286 C290 2.847 1_554 S
U286 C303 2.882 . S
U286 O304 2.441 1_554 S
U286 O305 2.420 1_554 S
U286 O306 2.455 . S
U286 O307 2.449 . S
O287 U286 2.454 . S
O287 C289 1.353 . S
O288 U286 2.458 . S
O288 C289 1.286 . S
C289 U286 2.984 . S
C289 O287 1.353 . S
C289 O288 1.286 . S
C289 C291 1.363 . S
C290 C280 1.465 . S
C290 U286 2.847 1_556 S
C290 O304 1.249 . S
C290 O305 1.202 . S
C291 C289 1.363 . S
C291 C293 1.408 . S
C291 C296 1.342 . S
C292 C293 1.310 . S
C292 C295 1.461 . S
C292 H312 0.932 . S
C293 C291 1.408 . S
C293 C292 1.310 . S
C293 H313 0.930 . S
C294 C295 1.474 . S
C294 C296 1.285 . S
C294 H314 0.929 . S
C295 C292 1.461 . S
C295 C294 1.474 . S
C296 C291 1.342 . S
C296 C294 1.285 . S
C296 H315 0.930 . S
C297 C300 1.424 . S
C297 C302 1.245 . S
C297 C303 1.428 . S
C298 C301 1.260 . S
C298 C302 1.477 . S
C298 H316 0.932 . S
C299 C300 1.384 . S
C299 C301 1.479 . S
C299 H317 0.929 . S
C300 C297 1.424 . S
C300 C299 1.384 . S
C300 H318 0.928 . S
C301 C298 1.260 . S
C301 C299 1.479 . S
C302 C297 1.245 . S
C302 C298 1.477 . S
C302 H319 0.932 . S
C303 U286 2.882 . S
C303 C297 1.428 . S
C303 O306 1.301 . S
C303 O307 1.282 . S
O304 U286 2.441 1_556 S
O304 C290 1.249 . S
O305 U286 2.420 1_556 S
O305 C290 1.202 . S
O306 U286 2.455 . S
O306 C303 1.301 . S
O307 U286 2.449 . S
O307 C303 1.282 . S
H308 C281 0.931 . S
H309 C283 0.929 . S
H310 C284 0.930 . S
H311 C285 0.931 . S
H312 C292 0.932 . S
H313 C293 0.930 . S
H314 C294 0.929 . S
H315 C296 0.930 . S
H316 C298 0.932 . S
H317 C299 0.929 . S
H318 C300 0.928 . S
H319 C302 0.932 . S
C320 Eu321 2.835 . S
C320 C322 1.500 . S
C320 O340 1.257 . S
C320 O341 1.260 . S
Eu321 C320 2.835 . S
Eu321 O340 2.473 . S
Eu321 O341 2.480 . S
Eu321 O342 2.430 . S
Eu321 O343 2.670 1_545 S
Eu321 O344 2.394 . S
Eu321 O349 2.355 1_655 S
Eu321 O351 2.374 1_545 S
C322 C320 1.500 . S
C322 C323 1.377 . S
C322 C327 1.377 . S
C323 C322 1.377 . S
C323 C324 1.395 . S
C323 H352 0.931 . S
C324 C323 1.395 . S
C324 C325 1.383 . S
C324 H353 0.931 . S
C325 C324 1.383 . S
C325 C326 1.394 . S
C326 C325 1.394 . S
C326 C327 1.378 . S
C326 H354 0.931 1_655 S
C327 C322 1.377 . S
C327 C326 1.378 . S
C327 H355 0.931 1_655 S
C328 O342 1.284 . S
C328 O343 1.253 1_545 S
C329 O344 1.251 1_455 S
C329 O345 1.251 . S
C330 Eu331 2.835 . S
C330 C332 1.500 . S
C330 O346 1.257 . S
C330 O347 1.260 . S
Eu331 C330 2.835 . S
Eu331 O343 2.355 1_455 S
Eu331 O345 2.374 1_565 S
Eu331 O346 2.473 . S
Eu331 O347 2.480 . S
Eu331 O348 2.430 . S
Eu331 O349 2.670 1_565 S
Eu331 O350 2.394 . S
C332 C330 1.500 . S
C332 C333 1.377 . S
C332 C337 1.377 . S
C333 C332 1.377 . S
C333 C334 1.395 . S
C333 H356 0.931 . S
C334 C333 1.395 . S
C334 C335 1.383 . S
C334 H357 0.931 . S
C335 C334 1.383 . S
C335 C336 1.394 . S
C336 C335 1.394 . S
C336 C337 1.378 . S
C336 H358 0.931 1_455 S
C337 C332 1.377 . S
C337 C336 1.378 . S
C337 H359 0.931 1_455 S
C338 O348 1.277 . S
C338 O349 1.257 1_565 S
C339 O350 1.251 1_655 S
C339 O351 1.251 . S
O340 C320 1.257 . S
O340 Eu321 2.473 . S
O341 C320 1.260 . S
O341 Eu321 2.480 . S
O342 Eu321 2.430 . S
O342 C328 1.284 . S
O343 Eu321 2.670 1_565 S
O343 C328 1.253 1_565 S
O343 Eu331 2.355 1_655 S
O344 Eu321 2.394 . S
O344 C329 1.251 1_655 S
O345 C329 1.251 . S
O345 Eu331 2.374 1_545 S
O346 C330 1.257 . S
O346 Eu331 2.473 . S
O347 C330 1.260 . S
O347 Eu331 2.480 . S
O348 Eu331 2.430 . S
O348 C338 1.277 . S
O349 Eu321 2.355 1_455 S
O349 Eu331 2.670 1_545 S
O349 C338 1.257 1_545 S
O350 Eu331 2.394 . S
O350 C339 1.251 1_455 S
O351 Eu321 2.374 1_565 S
O351 C339 1.251 . S
H352 C323 0.931 . S
H353 C324 0.931 . S
H354 C326 0.931 1_455 S
H355 C327 0.931 1_455 S
H356 C333 0.931 . S
H357 C334 0.931 . S
H358 C336 0.931 1_655 S
H359 C337 0.931 1_655 S
C360 Eu361 2.835 . S
C360 C362 1.500 . S
C360 O380 1.257 . S
C360 O381 1.260 . S
Eu361 C360 2.835 . S
Eu361 O380 2.473 . S
Eu361 O381 2.480 . S
Eu361 O382 2.430 . S
Eu361 O383 2.670 . S
Eu361 O384 2.394 . S
Eu361 O389 2.355 1_565 S
Eu361 O391 2.374 . S
C362 C360 1.500 . S
C362 C363 1.377 . S
C362 C367 1.377 . S
C363 C362 1.377 . S
C363 C364 1.395 . S
C363 H392 0.931 . S
C364 C363 1.395 . S
C364 C365 1.383 . S
C364 H393 0.931 . S
C365 C364 1.383 . S
C365 C366 1.394 . S
C366 C365 1.394 . S
C366 C367 1.378 . S
C366 H394 0.931 1_565 S
C367 C362 1.377 . S
C367 C366 1.378 . S
C367 H395 0.931 1_565 S
C368 O382 1.259 . S
C368 O383 1.270 . S
C369 O384 1.251 1_545 S
C369 O385 1.251 . S
C370 Eu371 2.835 . S
C370 C372 1.500 . S
C370 O386 1.257 . S
C370 O387 1.260 . S
Eu371 C370 2.835 . S
Eu371 O383 2.355 1_545 S
Eu371 O385 2.374 . S
Eu371 O386 2.473 . S
Eu371 O387 2.480 . S
Eu371 O388 2.430 . S
Eu371 O389 2.670 . S
Eu371 O390 2.394 . S
C372 C370 1.500 . S
C372 C373 1.377 . S
C372 C377 1.377 . S
C373 C372 1.377 . S
C373 C374 1.395 . S
C373 H396 0.931 . S
C374 C373 1.395 . S
C374 C375 1.383 . S
C374 H397 0.931 . S
C375 C374 1.383 . S
C375 C376 1.394 . S
C376 C375 1.394 . S
C376 C377 1.378 . S
C376 H398 0.931 1_545 S
C377 C372 1.377 . S
C377 C376 1.378 . S
C377 H399 0.931 1_545 S
C378 O388 1.259 . S
C378 O389 1.270 . S
C379 O390 1.251 1_565 S
C379 O391 1.251 . S
O380 C360 1.257 . S
O380 Eu361 2.473 . S
O381 C360 1.260 . S
O381 Eu361 2.480 . S
O382 Eu361 2.430 . S
O382 C368 1.259 . S
O383 Eu361 2.670 . S
O383 C368 1.270 . S
O383 Eu371 2.355 1_565 S
O384 Eu361 2.394 . S
O384 C369 1.251 1_565 S
O385 C369 1.251 . S
O385 Eu371 2.374 . S
O386 C370 1.257 . S
O386 Eu371 2.473 . S
O387 C370 1.260 . S
O387 Eu371 2.480 . S
O388 Eu371 2.430 . S
O388 C378 1.259 . S
O389 Eu361 2.355 1_545 S
O389 Eu371 2.670 . S
O389 C378 1.270 . S
O390 Eu371 2.394 . S
O390 C379 1.251 1_545 S
O391 Eu361 2.374 . S
O391 C379 1.251 . S
H392 C363 0.931 . S
H393 C364 0.931 . S
H394 C366 0.931 1_545 S
H395 C367 0.931 1_545 S
H396 C373 0.931 . S
H397 C374 0.931 . S
H398 C376 0.931 1_565 S
H399 C377 0.931 1_565 S
C400 Eu401 2.835 . S
C400 C402 1.500 . S
C400 O420 1.257 . S
C400 O421 1.260 . S
Eu401 C400 2.835 . S
Eu401 O420 2.473 . S
Eu401 O421 2.480 . S
Eu401 O422 2.430 . S
Eu401 O423 2.670 . S
Eu401 O424 2.394 . S
Eu401 O429 2.355 . S
Eu401 O431 2.374 . S
C402 C400 1.500 . S
C402 C403 1.377 . S
C402 C407 1.377 . S
C403 C402 1.377 . S
C403 C404 1.395 . S
C403 H432 0.931 . S
C404 C403 1.395 . S
C404 C405 1.383 . S
C404 H433 0.931 . S
C405 C404 1.383 . S
C405 C406 1.394 . S
C406 C405 1.394 . S
C406 C407 1.378 . S
C406 H434 0.931 . S
C407 C402 1.377 . S
C407 C406 1.378 . S
C407 H435 0.931 . S
C408 O422 1.259 . S
C408 O423 1.270 . S
C409 O424 1.251 . S
C409 O425 1.251 . S
C410 Eu411 2.835 . S
C410 C412 1.500 . S
C410 O426 1.257 . S
C410 O427 1.260 . S
Eu411 C410 2.835 . S
Eu411 O423 2.355 . S
Eu411 O425 2.374 . S
Eu411 O426 2.473 . S
Eu411 O427 2.480 . S
Eu411 O428 2.430 . S
Eu411 O429 2.670 . S
Eu411 O430 2.394 . S
C412 C410 1.500 . S
C412 C413 1.377 . S
C412 C417 1.377 . S
C413 C412 1.377 . S
C413 C414 1.395 . S
C413 H436 0.931 . S
C414 C413 1.395 . S
C414 C415 1.383 . S
C414 H437 0.931 . S
C415 C414 1.383 . S
C415 C416 1.394 . S
C416 C415 1.394 . S
C416 C417 1.378 . S
C416 H438 0.931 . S
C417 C412 1.377 . S
C417 C416 1.378 . S
C417 H439 0.931 . S
C418 O428 1.259 . S
C418 O429 1.270 . S
C419 O430 1.251 . S
C419 O431 1.251 . S
O420 C400 1.257 . S
O420 Eu401 2.473 . S
O421 C400 1.260 . S
O421 Eu401 2.480 . S
O422 Eu401 2.430 . S
O422 C408 1.259 . S
O423 Eu401 2.670 . S
O423 C408 1.270 . S
O423 Eu411 2.355 . S
O424 Eu401 2.394 . S
O424 C409 1.251 . S
O425 C409 1.251 . S
O425 Eu411 2.374 . S
O426 C410 1.257 . S
O426 Eu411 2.473 . S
O427 C410 1.260 . S
O427 Eu411 2.480 . S
O428 Eu411 2.430 . S
O428 C418 1.259 . S
O429 Eu401 2.355 . S
O429 Eu411 2.670 . S
O429 C418 1.270 . S
O430 Eu411 2.394 . S
O430 C419 1.251 . S
O431 Eu401 2.374 . S
O431 C419 1.251 . S
H432 C403 0.931 . S
H433 C404 0.931 . S
H434 C406 0.931 . S
H435 C407 0.931 . S
H436 C413 0.931 . S
H437 C414 0.931 . S
H438 C416 0.931 . S
H439 C417 0.931 . S
C440 Eu441 2.835 . S
C440 C442 1.500 . S
C440 O460 1.257 . S
C440 O461 1.260 . S
Eu441 C440 2.835 . S
Eu441 O460 2.473 . S
Eu441 O461 2.480 . S
Eu441 O462 2.430 . S
Eu441 O463 2.670 1_455 S
Eu441 O464 2.394 . S
Eu441 O469 2.355 . S
Eu441 O471 2.374 1_455 S
C442 C440 1.500 . S
C442 C443 1.377 . S
C442 C447 1.377 . S
C443 C442 1.377 . S
C443 C444 1.395 . S
C443 H472 0.931 . S
C444 C443 1.395 . S
C444 C445 1.383 . S
C444 H473 0.931 . S
C445 C444 1.383 . S
C445 C446 1.394 . S
C446 C445 1.394 . S
C446 C447 1.378 . S
C446 H474 0.931 . S
C447 C442 1.377 . S
C447 C446 1.378 . S
C447 H475 0.931 . S
C448 O462 1.272 . S
C448 O463 1.261 1_455 S
C449 O464 1.251 . S
C449 O465 1.251 . S
C450 Eu451 2.835 . S
C450 C452 1.500 . S
C450 O466 1.257 . S
C450 O467 1.260 . S
Eu451 C450 2.835 . S
Eu451 O463 2.355 . S
Eu451 O465 2.374 1_655 S
Eu451 O466 2.473 . S
Eu451 O467 2.480 . S
Eu451 O468 2.430 . S
Eu451 O469 2.670 1_655 S
Eu451 O470 2.394 . S
C452 C450 1.500 . S
C452 C453 1.377 . S
C452 C457 1.377 . S
C453 C452 1.377 . S
C453 C454 1.395 . S
C453 H476 0.931 . S
C454 C453 1.395 . S
C454 C455 1.383 . S
C454 H477 0.931 . S
C455 C454 1.383 . S
C455 C456 1.394 . S
C456 C455 1.394 . S
C456 C457 1.378 . S
C456 H478 0.931 . S
C457 C452 1.377 . S
C457 C456 1.378 . S
C457 H479 0.931 . S
C458 O468 1.266 . S
C458 O469 1.265 1_655 S
C459 O470 1.251 . S
C459 O471 1.251 . S
O460 C440 1.257 . S
O460 Eu441 2.473 . S
O461 C440 1.260 . S
O461 Eu441 2.480 . S
O462 Eu441 2.430 . S
O462 C448 1.272 . S
O463 Eu441 2.670 1_655 S
O463 C448 1.261 1_655 S
O463 Eu451 2.355 . S
O464 Eu441 2.394 . S
O464 C449 1.251 . S
O465 C449 1.251 . S
O465 Eu451 2.374 1_455 S
O466 C450 1.257 . S
O466 Eu451 2.473 . S
O467 C450 1.260 . S
O467 Eu451 2.480 . S
O468 Eu451 2.430 . S
O468 C458 1.266 . S
O469 Eu441 2.355 . S
O469 Eu451 2.670 1_455 S
O469 C458 1.265 1_455 S
O470 Eu451 2.394 . S
O470 C459 1.251 . S
O471 Eu441 2.374 1_655 S
O471 C459 1.251 . S
H472 C443 0.931 . S
H473 C444 0.931 . S
H474 C446 0.931 . S
H475 C447 0.931 . S
H476 C453 0.931 . S
H477 C454 0.931 . S
H478 C456 0.931 . S
H479 C457 0.931 . S
H480 C486 0.930 . S
H481 C490 0.930 . S
H482 C495 0.929 . S
H483 C493 0.929 . S
H484 C488 0.929 . S
H485 C494 0.929 . S
C486 H480 0.930 . S
C486 C487 1.378 . S
C486 C494 1.378 . S
C487 C486 1.378 . S
C487 C495 1.422 1_545 S
C488 H484 0.929 . S
C488 C490 1.378 . S
C488 C492 1.351 1_565 S
C489 C492 1.462 . S
C489 C494 1.369 . S
C489 N497 1.408 1_545 S
C490 H481 0.930 . S
C490 C488 1.378 . S
C490 C491 1.360 1_565 S
C491 C490 1.360 1_545 S
C491 C493 1.440 . S
C492 C488 1.351 1_545 S
C492 C489 1.462 . S
C492 N496 1.426 . S
C493 H483 0.929 . S
C493 C491 1.440 . S
C493 N496 1.384 . S
C494 H485 0.929 . S
C494 C486 1.378 . S
C494 C489 1.369 . S
C495 H482 0.929 . S
C495 C487 1.422 1_565 S
C495 N497 1.384 . S
N496 C492 1.426 . S
N496 C493 1.384 . S
N497 C489 1.408 1_565 S
N497 C495 1.384 . S
H498 C504 0.930 . S
H499 C508 0.930 . S
H500 C513 0.929 . S
H501 C511 0.929 . S
H502 C506 0.929 . S
H503 C512 0.929 . S
C504 H498 0.930 . S
C504 C505 1.367 . S
C504 C512 1.378 . S
C505 C504 1.367 . S
C505 C513 1.433 . S
C506 H502 0.929 . S
C506 C508 1.378 . S
C506 C510 1.350 . S
C507 C510 1.463 . S
C507 C512 1.350 . S
C507 N515 1.427 . S
C508 H499 0.930 . S
C508 C506 1.378 . S
C508 C509 1.367 . S
C509 C508 1.367 . S
C509 C511 1.433 . S
C510 C506 1.350 . S
C510 C507 1.463 . S
C510 N514 1.427 . S
C511 H501 0.929 . S
C511 C509 1.433 . S
C511 N514 1.384 . S
C512 H503 0.929 . S
C512 C504 1.378 . S
C512 C507 1.350 . S
C513 H500 0.929 . S
C513 C505 1.433 . S
C513 N515 1.384 . S
N514 C510 1.427 . S
N514 C511 1.384 . S
N515 C507 1.427 . S
N515 C513 1.384 . S
H516 C522 0.930 . S
H517 C526 0.930 . S
H518 C531 0.929 . S
H519 C529 0.929 . S
H520 C524 0.929 . S
H521 C530 0.929 . S
C522 H516 0.930 . S
C522 C523 1.367 . S
C522 C530 1.378 . S
C523 C522 1.367 . S
C523 C531 1.433 . S
C524 H520 0.929 . S
C524 C526 1.378 . S
C524 C528 1.350 . S
C525 C528 1.463 . S
C525 C530 1.350 . S
C525 N533 1.427 . S
C526 H517 0.930 . S
C526 C524 1.378 . S
C526 C527 1.367 . S
C527 C526 1.367 . S
C527 C529 1.433 . S
C528 C524 1.350 . S
C528 C525 1.463 . S
C528 N532 1.427 . S
C529 H519 0.929 . S
C529 C527 1.433 . S
C529 N532 1.384 . S
C530 H521 0.929 . S
C530 C522 1.378 . S
C530 C525 1.350 . S
C531 H518 0.929 . S
C531 C523 1.433 . S
C531 N533 1.384 . S
N532 C528 1.427 . S
N532 C529 1.384 . S
N533 C525 1.427 . S
N533 C531 1.384 . S
H534 C540 0.930 . S
H535 C544 0.930 . S
H536 C549 0.929 . S
H537 C547 0.929 . S
H538 C542 0.929 . S
H539 C548 0.929 . S
C540 H534 0.930 . S
C540 C541 1.398 . S
C540 C548 1.378 . S
C541 C540 1.398 . S
C541 C549 1.402 1_455 S
C542 H538 0.929 . S
C542 C544 1.378 . S
C542 C546 1.355 1_655 S
C543 C546 1.462 . S
C543 C548 1.350 . S
C543 N551 1.427 1_455 S
C544 H535 0.930 . S
C544 C542 1.378 . S
C544 C545 1.348 1_655 S
C545 C544 1.348 1_455 S
C545 C547 1.453 . S
C546 C542 1.355 1_455 S
C546 C543 1.462 . S
C546 N550 1.422 . S
C547 H537 0.929 . S
C547 C545 1.453 . S
C547 N550 1.384 . S
C548 H539 0.929 . S
C548 C540 1.378 . S
C548 C543 1.350 . S
C549 H536 0.929 . S
C549 C541 1.402 1_655 S
C549 N551 1.384 . S
N550 C546 1.422 . S
N550 C547 1.384 . S
N551 C543 1.427 1_655 S
N551 C549 1.384 . S
H552 C558 0.930 . S
H553 C562 0.930 . S
H554 C567 0.929 . S
H555 C565 0.929 . S
H556 C560 0.929 . S
H557 C566 0.929 . S
C558 H552 0.930 . S
C558 C559 1.370 . S
C558 C566 1.378 . S
C559 C558 1.370 . S
C559 C567 1.430 1_565 S
C560 H556 0.929 . S
C560 C562 1.378 . S
C560 C564 1.350 . S
C561 C564 1.462 1_564 S
C561 C566 1.360 . S
C561 N569 1.417 1_565 S
C562 H553 0.930 . S
C562 C560 1.378 . S
C562 C563 1.366 1_545 S
C563 C562 1.366 1_565 S
C563 C565 1.434 . S
C564 C560 1.350 . S
C564 C561 1.462 1_546 S
C564 N568 1.427 1_545 S
C565 H555 0.929 . S
C565 C563 1.434 . S
C565 N568 1.384 . S
C566 H557 0.929 . S
C566 C558 1.378 . S
C566 C561 1.360 . S
C567 H554 0.929 . S
C567 C559 1.430 1_545 S
C567 N569 1.384 . S
N568 C564 1.427 1_565 S
N568 C565 1.384 . S
N569 C561 1.417 1_545 S
N569 C567 1.384 . S
H570 C576 0.930 . S
H571 C580 0.930 . S
H572 C585 0.929 . S
H573 C583 0.929 . S
H574 C578 0.929 . S
H575 C584 0.929 . S
C576 H570 0.930 . S
C576 C577 1.367 . S
C576 C584 1.378 . S
C577 C576 1.367 . S
C577 C585 1.433 . S
C578 H574 0.929 . S
C578 C580 1.378 . S
C578 C582 1.350 . S
C579 C582 1.463 1_554 S
C579 C584 1.350 . S
C579 N587 1.427 . S
C580 H571 0.930 . S
C580 C578 1.378 . S
C580 C581 1.367 . S
C581 C580 1.367 . S
C581 C583 1.433 . S
C582 C578 1.350 . S
C582 C579 1.463 1_556 S
C582 N586 1.427 . S
C583 H573 0.929 . S
C583 C581 1.433 . S
C583 N586 1.384 . S
C584 H575 0.929 . S
C584 C576 1.378 . S
C584 C579 1.350 . S
C585 H572 0.929 . S
C585 C577 1.433 . S
C585 N587 1.384 . S
N586 C582 1.427 . S
N586 C583 1.384 . S
N587 C579 1.427 . S
N587 C585 1.384 . S
H588 C594 0.930 . S
H589 C598 0.930 . S
H590 C603 0.929 . S
H591 C601 0.929 . S
H592 C596 0.929 . S
H593 C602 0.929 . S
C594 H588 0.930 . S
C594 C595 1.367 . S
C594 C602 1.378 . S
C595 C594 1.367 . S
C595 C603 1.433 . S
C596 H592 0.929 . S
C596 C598 1.378 . S
C596 C600 1.350 . S
C597 C600 1.463 1_554 S
C597 C602 1.350 . S
C597 N605 1.427 . S
C598 H589 0.930 . S
C598 C596 1.378 . S
C598 C599 1.367 . S
C599 C598 1.367 . S
C599 C601 1.433 . S
C600 C596 1.350 . S
C600 C597 1.463 1_556 S
C600 N604 1.427 . S
C601 H591 0.929 . S
C601 C599 1.433 . S
C601 N604 1.384 . S
C602 H593 0.929 . S
C602 C594 1.378 . S
C602 C597 1.350 . S
C603 H590 0.929 . S
C603 C595 1.433 . S
C603 N605 1.384 . S
N604 C600 1.427 . S
N604 C601 1.384 . S
N605 C597 1.427 . S
N605 C603 1.384 . S
H606 C612 0.930 . S
H607 C616 0.930 . S
H608 C621 0.929 . S
H609 C619 0.929 . S
H610 C614 0.929 . S
H611 C620 0.929 . S
C612 H606 0.930 . S
C612 C613 1.399 . S
C612 C620 1.378 . S
C613 C612 1.399 . S
C613 C621 1.400 1_655 S
C614 H610 0.929 . S
C614 C616 1.378 . S
C614 C618 1.345 . S
C615 C618 1.463 1_654 S
C615 C620 1.350 . S
C615 N623 1.427 1_655 S
C616 H607 0.930 . S
C616 C614 1.378 . S
C616 C617 1.348 1_455 S
C617 C616 1.348 1_655 S
C617 C619 1.452 . S
C618 C614 1.345 . S
C618 C615 1.463 1_456 S
C618 N622 1.433 1_455 S
C619 H609 0.929 . S
C619 C617 1.452 . S
C619 N622 1.384 . S
C620 H611 0.929 . S
C620 C612 1.378 . S
C620 C615 1.350 . S
C621 H608 0.929 . S
C621 C613 1.400 1_455 S
C621 N623 1.384 . S
N622 C618 1.433 1_655 S
N622 C619 1.384 . S
N623 C615 1.427 1_455 S
N623 C621 1.384 . S
H624 C630 0.930 . S
H625 C634 0.930 . S
H626 C639 0.929 . S
H627 C637 0.929 . S
H628 C632 0.929 . S
H629 C638 0.929 . S
C630 H624 0.930 . S
C630 C631 1.367 . S
C630 C638 1.378 . S
C631 C630 1.367 . S
C631 C639 1.433 1_455 S
C632 H628 0.929 . S
C632 C634 1.378 . S
C632 C636 1.350 . S
C633 C636 1.463 . S
C633 C638 1.350 1_655 S
C633 N641 1.427 . S
C634 H625 0.930 . S
C634 C632 1.378 . S
C634 C635 1.367 . S
C635 C634 1.367 . S
C635 C637 1.433 . S
C636 C632 1.350 . S
C636 C633 1.463 . S
C636 N640 1.427 . S
C637 H627 0.929 . S
C637 C635 1.433 . S
C637 N640 1.384 . S
C638 H629 0.929 . S
C638 C630 1.378 . S
C638 C633 1.350 1_455 S
C639 H626 0.929 . S
C639 C631 1.433 1_655 S
C639 N641 1.384 . S
N640 C636 1.427 . S
N640 C637 1.384 . S
N641 C633 1.427 . S
N641 C639 1.384 . S
H642 C648 0.930 . S
H643 C652 0.930 . S
H644 C657 0.929 . S
H645 C655 0.929 . S
H646 C650 0.929 . S
H647 C656 0.929 . S
C648 H642 0.930 . S
C648 C649 1.367 . S
C648 C656 1.378 . S
C649 C648 1.367 . S
C649 C657 1.433 1_545 S
C650 H646 0.929 . S
C650 C652 1.378 . S
C650 C654 1.350 . S
C651 C654 1.463 . S
C651 C656 1.350 1_565 S
C651 N659 1.427 . S
C652 H643 0.930 . S
C652 C650 1.378 . S
C652 C653 1.367 . S
C653 C652 1.367 . S
C653 C655 1.433 . S
C654 C650 1.350 . S
C654 C651 1.463 . S
C654 N658 1.427 . S
C655 H645 0.929 . S
C655 C653 1.433 . S
C655 N658 1.384 . S
C656 H647 0.929 . S
C656 C648 1.378 . S
C656 C651 1.350 1_545 S
C657 H644 0.929 . S
C657 C649 1.433 1_565 S
C657 N659 1.384 . S
N658 C654 1.427 . S
N658 C655 1.384 . S
N659 C651 1.427 . S
N659 C657 1.384 . S
H660 C666 0.930 . S
H661 C670 0.930 . S
H662 C675 0.929 . S
H663 C673 0.929 . S
H664 C668 0.929 . S
H665 C674 0.929 . S
C666 H660 0.930 . S
C666 C667 1.367 . S
C666 C674 1.378 . S
C667 C666 1.367 . S
C667 C675 1.433 . S
C668 H664 0.929 . S
C668 C670 1.378 . S
C668 C672 1.350 . S
C669 C672 1.463 . S
C669 C674 1.350 . S
C669 N677 1.427 . S
C670 H661 0.930 . S
C670 C668 1.378 . S
C670 C671 1.367 . S
C671 C670 1.367 . S
C671 C673 1.433 . S
C672 C668 1.350 . S
C672 C669 1.463 . S
C672 N676 1.427 . S
C673 H663 0.929 . S
C673 C671 1.433 . S
C673 N676 1.384 . S
C674 H665 0.929 . S
C674 C666 1.378 . S
C674 C669 1.350 . S
C675 H662 0.929 . S
C675 C667 1.433 . S
C675 N677 1.384 . S
N676 C672 1.427 . S
N676 C673 1.384 . S
N677 C669 1.427 . S
N677 C675 1.384 . S
H678 C684 0.930 . S
H679 C688 0.930 . S
H680 C693 0.929 . S
H681 C691 0.929 . S
H682 C686 0.929 . S
H683 C692 0.929 . S
C684 H678 0.930 . S
C684 C685 1.367 . S
C684 C692 1.378 . S
C685 C684 1.367 . S
C685 C693 1.433 . S
C686 H682 0.929 . S
C686 C688 1.378 . S
C686 C690 1.350 . S
C687 C690 1.463 . S
C687 C692 1.350 . S
C687 N695 1.427 . S
C688 H679 0.930 . S
C688 C686 1.378 . S
C688 C689 1.367 . S
C689 C688 1.367 . S
C689 C691 1.433 . S
C690 C686 1.350 . S
C690 C687 1.463 . S
C690 N694 1.427 . S
C691 H681 0.929 . S
C691 C689 1.433 . S
C691 N694 1.384 . S
C692 H683 0.929 . S
C692 C684 1.378 . S
C692 C687 1.350 . S
C693 H680 0.929 . S
C693 C685 1.433 . S
C693 N695 1.384 . S
N694 C690 1.427 . S
N694 C691 1.384 . S
N695 C687 1.427 . S
N695 C693 1.384 . S
H696 C702 0.930 . S
H697 C706 0.930 1_655 S
H698 C711 0.929 . S
H699 C709 0.929 . S
H700 C704 0.929 1_655 S
H701 C710 0.929 . S
C702 H696 0.930 . S
C702 C703 1.367 1_455 S
C702 C710 1.378 . S
C703 C702 1.367 1_655 S
C703 C711 1.433 . S
C704 H700 0.929 1_455 S
C704 C706 1.378 . S
C704 C708 1.350 . S
C705 C708 1.459 1_554 S
C705 C710 1.354 . S
C705 N713 1.427 1_454 S
C706 H697 0.930 1_455 S
C706 C704 1.378 . S
C706 C707 1.367 . S
C707 C706 1.367 . S
C707 C709 1.433 . S
C708 C704 1.350 . S
C708 C705 1.459 1_556 S
C708 N712 1.427 . S
C709 H699 0.929 . S
C709 C707 1.433 . S
C709 N712 1.384 . S
C710 H701 0.929 . S
C710 C702 1.378 . S
C710 C705 1.354 . S
C711 H698 0.929 . S
C711 C703 1.433 . S
C711 N713 1.384 1_554 S
N712 C708 1.427 . S
N712 C709 1.384 . S
N713 C705 1.427 1_656 S
N713 C711 1.384 1_556 S
H714 C720 0.930 1_556 S
H715 C724 0.930 . S
H716 C729 0.929 . S
H717 C727 0.929 . S
H718 C722 0.929 1_554 S
H719 C728 0.929 . S
C720 H714 0.930 1_554 S
C720 C721 1.367 . S
C720 C728 1.378 1_554 S
C721 C720 1.367 . S
C721 C729 1.433 1_565 S
C722 H718 0.929 1_556 S
C722 C724 1.378 . S
C722 C726 1.350 . S
C723 C726 1.463 . S
C723 C728 1.350 1_545 S
C723 N731 1.427 1_556 S
C724 H715 0.930 . S
C724 C722 1.378 . S
C724 C725 1.367 . S
C725 C724 1.367 . S
C725 C727 1.433 . S
C726 C722 1.350 . S
C726 C723 1.463 . S
C726 N730 1.427 . S
C727 H717 0.929 . S
C727 C725 1.433 . S
C727 N730 1.384 . S
C728 H719 0.929 . S
C728 C720 1.378 1_556 S
C728 C723 1.350 1_565 S
C729 H716 0.929 . S
C729 C721 1.433 1_545 S
C729 N731 1.384 . S
N730 C726 1.427 . S
N730 C727 1.384 . S
N731 C723 1.427 1_554 S
N731 C729 1.384 . S
H732 C738 0.930 . S
H733 C742 0.930 1_554 S
H734 C747 0.929 . S
H735 C745 0.929 . S
H736 C740 0.929 . S
H737 C746 0.929 . S
C738 H732 0.930 . S
C738 C739 1.367 1_556 S
C738 C746 1.378 . S
C739 C738 1.367 1_554 S
C739 C747 1.433 . S
C740 H736 0.929 . S
C740 C742 1.378 1_554 S
C740 C744 1.350 1_554 S
C741 C744 1.457 1_554 S
C741 C746 1.342 1_554 S
C741 N749 1.442 . S
C742 H733 0.930 1_556 S
C742 C740 1.378 1_556 S
C742 C743 1.367 . S
C743 C742 1.367 . S
C743 C745 1.433 . S
C744 C740 1.350 1_556 S
C744 C741 1.457 1_556 S
C744 N748 1.427 . S
C745 H735 0.929 . S
C745 C743 1.433 . S
C745 N748 1.384 . S
C746 H737 0.929 . S
C746 C738 1.378 . S
C746 C741 1.342 1_556 S
C747 H734 0.929 . S
C747 C739 1.433 . S
C747 N749 1.384 . S
N748 C744 1.427 . S
N748 C745 1.384 . S
N749 C741 1.442 . S
N749 C747 1.384 . S
H750 C756 0.930 . S
H751 C760 0.930 . S
H752 C765 0.929 . S
H753 C763 0.929 . S
H754 C758 0.929 . S
H755 C764 0.933 . S
C756 H750 0.930 . S
C756 C757 1.367 . S
C756 C764 1.378 . S
C757 C756 1.367 . S
C757 C765 1.433 . S
C758 H754 0.929 . S
C758 C760 1.378 . S
C758 C762 1.350 . S
C759 C762 1.463 1_554 S
C759 C764 1.350 . S
C759 N767 1.427 . S
C760 H751 0.930 . S
C760 C758 1.378 . S
C760 C761 1.367 . S
C761 C760 1.367 . S
C761 C763 1.433 . S
C762 C758 1.350 . S
C762 C759 1.463 1_556 S
C762 N766 1.427 . S
C763 H753 0.929 . S
C763 C761 1.433 . S
C763 N766 1.384 . S
C764 H755 0.933 . S
C764 C756 1.378 . S
C764 C759 1.350 . S
C765 H752 0.929 . S
C765 C757 1.433 . S
C765 N767 1.384 . S
N766 C762 1.427 . S
N766 C763 1.384 . S
N767 C759 1.427 . S
N767 C765 1.384 . S
H768 C774 0.930 . S
H769 C778 0.930 . S
H770 C783 0.929 . S
H771 C781 0.929 . S
H772 C776 0.929 . S
H773 C782 0.929 . S
C774 H768 0.930 . S
C774 C775 1.367 . S
C774 C782 1.378 . S
C775 C774 1.367 . S
C775 C783 1.433 . S
C776 H772 0.929 . S
C776 C778 1.378 . S
C776 C780 1.350 . S
C777 C780 1.463 . S
C777 C782 1.350 . S
C777 N785 1.427 . S
C778 H769 0.930 . S
C778 C776 1.378 . S
C778 C779 1.367 . S
C779 C778 1.367 . S
C779 C781 1.433 . S
C780 C776 1.350 . S
C780 C777 1.463 . S
C780 N784 1.427 . S
C781 H771 0.929 . S
C781 C779 1.433 . S
C781 N784 1.384 . S
C782 H773 0.929 . S
C782 C774 1.378 . S
C782 C777 1.350 . S
C783 H770 0.929 . S
C783 C775 1.433 . S
C783 N785 1.384 . S
N784 C780 1.427 . S
N784 C781 1.384 . S
N785 C777 1.427 . S
N785 C783 1.384 . S
H786 C792 0.930 . S
H787 C796 0.930 . S
H788 C801 0.929 . S
H789 C799 0.929 . S
H790 C794 0.929 . S
H791 C800 0.929 . S
C792 H786 0.930 . S
C792 C793 1.367 1_565 S
C792 C800 1.378 . S
C793 C792 1.367 1_545 S
C793 C801 1.433 . S
C794 H790 0.929 . S
C794 C796 1.378 . S
C794 C798 1.350 . S
C795 C798 1.463 . S
C795 C800 1.350 1_545 S
C795 N803 1.427 . S
C796 H787 0.930 . S
C796 C794 1.378 . S
C796 C797 1.367 . S
C797 C796 1.367 . S
C797 C799 1.433 1_545 S
C798 C794 1.350 . S
C798 C795 1.463 . S
C798 N802 1.427 1_545 S
C799 H789 0.929 . S
C799 C797 1.433 1_565 S
C799 N802 1.384 . S
C800 H791 0.929 . S
C800 C792 1.378 . S
C800 C795 1.350 1_565 S
C801 H788 0.929 . S
C801 C793 1.433 . S
C801 N803 1.384 . S
N802 C798 1.427 1_565 S
N802 C799 1.384 . S
N803 C795 1.427 . S
N803 C801 1.384 . S
H804 C810 0.930 . S
H805 C814 0.930 . S
H806 C819 0.929 . S
H807 C817 0.929 . S
H808 C812 0.929 . S
H809 C818 0.929 . S
C810 H804 0.930 . S
C810 C811 1.367 . S
C810 C818 1.378 . S
C811 C810 1.367 . S
C811 C819 1.433 . S
C812 H808 0.929 . S
C812 C814 1.378 . S
C812 C816 1.350 . S
C813 C816 1.463 . S
C813 C818 1.350 . S
C813 N821 1.427 . S
C814 H805 0.930 . S
C814 C812 1.378 . S
C814 C815 1.367 . S
C815 C814 1.367 . S
C815 C817 1.433 . S
C816 C812 1.350 . S
C816 C813 1.463 . S
C816 N820 1.427 . S
C817 H807 0.929 . S
C817 C815 1.433 . S
C817 N820 1.384 . S
C818 H809 0.929 . S
C818 C810 1.378 . S
C818 C813 1.350 . S
C819 H806 0.929 . S
C819 C811 1.433 . S
C819 N821 1.384 . S
N820 C816 1.427 . S
N820 C817 1.384 . S
N821 C813 1.427 . S
N821 C819 1.384 . S
H822 C828 0.930 . S
H823 C832 0.930 . S
H824 C837 0.929 . S
H825 C835 0.929 . S
H826 C830 0.929 . S
H827 C836 0.929 . S
C828 H822 0.930 . S
C828 C829 1.367 . S
C828 C836 1.378 . S
C829 C828 1.367 . S
C829 C837 1.433 . S
C830 H826 0.929 . S
C830 C832 1.378 . S
C830 C834 1.350 . S
C831 C834 1.463 . S
C831 C836 1.350 . S
C831 N839 1.427 . S
C832 H823 0.930 . S
C832 C830 1.378 . S
C832 C833 1.367 . S
C833 C832 1.367 . S
C833 C835 1.433 . S
C834 C830 1.350 . S
C834 C831 1.463 . S
C834 N838 1.427 . S
C835 H825 0.929 . S
C835 C833 1.433 . S
C835 N838 1.384 . S
C836 H827 0.929 . S
C836 C828 1.378 . S
C836 C831 1.350 . S
C837 H824 0.929 . S
C837 C829 1.433 . S
C837 N839 1.384 . S
N838 C834 1.427 . S
N838 C835 1.384 . S
N839 C831 1.427 . S
N839 C837 1.384 . S
H840 C846 0.930 . S
H841 C850 0.930 . S
H842 C855 0.934 . S
H843 C853 0.929 . S
H844 C848 0.929 . S
H845 C854 0.929 . S
C846 H840 0.930 . S
C846 C847 1.367 . S
C846 C854 1.378 . S
C847 C846 1.367 . S
C847 C855 1.433 . S
C848 H844 0.929 . S
C848 C850 1.378 . S
C848 C852 1.350 . S
C849 C852 1.463 . S
C849 C854 1.350 . S
C849 N857 1.427 . S
C850 H841 0.930 . S
C850 C848 1.378 . S
C850 C851 1.367 . S
C851 C850 1.367 . S
C851 C853 1.433 . S
C852 C848 1.350 . S
C852 C849 1.463 . S
C852 N856 1.427 . S
C853 H843 0.929 . S
C853 C851 1.433 . S
C853 N856 1.384 . S
C854 H845 0.929 . S
C854 C846 1.378 . S
C854 C849 1.350 . S
C855 H842 0.934 . S
C855 C847 1.433 . S
C855 N857 1.384 . S
N856 C852 1.427 . S
N856 C853 1.384 . S
N857 C849 1.427 . S
N857 C855 1.384 . S
H858 C864 0.930 . S
H859 C868 0.930 . S
H860 C873 0.929 . S
H861 C871 0.930 1_545 S
H862 C866 0.929 . S
H863 C872 0.936 . S
C864 H858 0.930 . S
C864 C865 1.367 1_545 S
C864 C872 1.380 . S
C865 C864 1.367 1_565 S
C865 C873 1.433 . S
C866 H862 0.929 . S
C866 C868 1.378 . S
C866 C870 1.350 . S
C867 C870 1.463 . S
C867 C872 1.342 1_565 S
C867 N875 1.427 . S
C868 H859 0.930 . S
C868 C866 1.378 . S
C868 C869 1.367 . S
C869 C868 1.367 . S
C869 C871 1.433 . S
C870 C866 1.350 . S
C870 C867 1.463 . S
C870 N874 1.427 . S
C871 H861 0.930 1_565 S
C871 C869 1.433 . S
C871 N874 1.384 . S
C872 H863 0.936 . S
C872 C864 1.380 . S
C872 C867 1.342 1_545 S
C873 H860 0.929 . S
C873 C865 1.433 . S
C873 N875 1.384 . S
N874 C870 1.427 . S
N874 C871 1.384 . S
N875 C867 1.427 . S
N875 C873 1.384 . S
H876 C882 0.930 . S
H877 C886 0.930 . S
H878 C891 0.929 . S
H879 C889 0.929 . S
H880 C884 0.929 . S
H881 C890 0.929 . S
C882 H876 0.930 . S
C882 C883 1.367 . S
C882 C890 1.378 . S
C883 C882 1.367 . S
C883 C891 1.433 . S
C884 H880 0.929 . S
C884 C886 1.378 . S
C884 C888 1.350 . S
C885 C888 1.463 . S
C885 C890 1.350 . S
C885 N893 1.427 . S
C886 H877 0.930 . S
C886 C884 1.378 . S
C886 C887 1.367 . S
C887 C886 1.367 . S
C887 C889 1.433 . S
C888 C884 1.350 . S
C888 C885 1.463 . S
C888 N892 1.427 . S
C889 H879 0.929 . S
C889 C887 1.433 . S
C889 N892 1.384 . S
C890 H881 0.929 . S
C890 C882 1.378 . S
C890 C885 1.350 . S
C891 H878 0.929 . S
C891 C883 1.433 . S
C891 N893 1.384 . S
N892 C888 1.427 . S
N892 C889 1.384 . S
N893 C885 1.427 . S
N893 C891 1.384 . S
H894 C900 0.930 . S
H895 C904 0.930 . S
H896 C909 0.929 . S
H897 C907 0.929 . S
H898 C902 0.929 . S
H899 C908 0.929 . S
C900 H894 0.930 . S
C900 C901 1.367 . S
C900 C908 1.378 . S
C901 C900 1.367 . S
C901 C909 1.433 . S
C902 H898 0.929 . S
C902 C904 1.378 . S
C902 C906 1.350 . S
C903 C906 1.463 . S
C903 C908 1.350 . S
C903 N911 1.427 . S
C904 H895 0.930 . S
C904 C902 1.378 . S
C904 C905 1.367 . S
C905 C904 1.367 . S
C905 C907 1.433 . S
C906 C902 1.350 . S
C906 C903 1.463 . S
C906 N910 1.427 . S
C907 H897 0.929 . S
C907 C905 1.433 . S
C907 N910 1.384 . S
C908 H899 0.929 . S
C908 C900 1.378 . S
C908 C903 1.350 . S
C909 H896 0.929 . S
C909 C901 1.433 . S
C909 N911 1.384 . S
N910 C906 1.427 . S
N910 C907 1.384 . S
N911 C903 1.427 . S
N911 C909 1.384 . S
C487 C255 2.298 . S
C491 C338 2.510 1_545 S
C509 C378 2.524 . S
C505 C295 2.300 . S
C527 C418 2.524 . S
C523 C175 2.299 . S
C545 C458 2.513 1_455 S
C541 C215 2.292 . S
C563 C328 2.511 1_565 S
C559 C95 2.289 1_565 S
C577 C135 2.294 . S
C581 C368 2.524 . S
C595 C15 2.302 . S
C599 C408 2.525 . S
C613 C55 2.292 1_655 S
C617 C448 2.513 1_655 S
C635 C325 0.410 . S
C631 C221 0.360 . S
C653 C365 0.415 . S
C649 C261 0.396 . S
C671 C405 0.390 . S
C667 C301 0.396 . S
C685 C181 0.381 . S
C689 C445 0.369 . S
C703 C61 0.460 1_655 S
C707 C335 0.369 . S
C725 C375 0.419 . S
C721 C101 0.503 1_565 S
C743 C415 0.393 . S
C739 C141 0.486 . S
C757 C21 0.456 . S
C761 C455 0.370 . S
C775 C202 3.134 . S
C779 C329 3.462 . S
C793 C242 3.106 . S
C797 C369 3.450 . S
C815 C409 3.442 . S
C811 C282 3.105 . S
C833 C449 3.462 . S
C829 C162 3.113 . S
C847 C42 3.148 1_655 S
C851 C339 3.475 . S
C869 C379 3.452 . S
C865 C82 3.130 1_565 S
C887 C419 3.440 . S
C883 C122 3.122 . S
C901 C2 3.137 . S
C905 C459 3.467 . S
