# Generated by pormake.
# Topology gar, (4,6)-cn, num edge types: 1
# Building blocks:
#     Node 0, Type 0, BuildingBlock: TATPOV_clean_sbu_0, # of connection points: 4
#     Node 1, Type 0, BuildingBlock: TATPOV_clean_sbu_0, # of connection points: 4
#     Node 2, Type 0, BuildingBlock: TATPOV_clean_sbu_0, # of connection points: 4
#     Node 3, Type 0, BuildingBlock: TATPOV_clean_sbu_0, # of connection points: 4
#     Node 4, Type 0, BuildingBlock: TATPOV_clean_sbu_0, # of connection points: 4
#     Node 5, Type 0, BuildingBlock: TATPOV_clean_sbu_0, # of connection points: 4
#     Node 6, Type 0, BuildingBlock: TATPOV_clean_sbu_0, # of connection points: 4
#     Node 7, Type 0, BuildingBlock: TATPOV_clean_sbu_0, # of connection points: 4
#     Node 8, Type 0, BuildingBlock: TATPOV_clean_sbu_0, # of connection points: 4
#     Node 9, Type 0, BuildingBlock: TATPOV_clean_sbu_0, # of connection points: 4
#     Node 10, Type 0, BuildingBlock: TATPOV_clean_sbu_0, # of connection points: 4
#     Node 11, Type 0, BuildingBlock: TATPOV_clean_sbu_0, # of connection points: 4
#     Node 12, Type 0, BuildingBlock: TATPOV_clean_sbu_0, # of connection points: 4
#     Node 13, Type 0, BuildingBlock: TATPOV_clean_sbu_0, # of connection points: 4
#     Node 14, Type 0, BuildingBlock: TATPOV_clean_sbu_0, # of connection points: 4
#     Node 15, Type 0, BuildingBlock: TATPOV_clean_sbu_0, # of connection points: 4
#     Node 16, Type 0, BuildingBlock: TATPOV_clean_sbu_0, # of connection points: 4
#     Node 17, Type 0, BuildingBlock: TATPOV_clean_sbu_0, # of connection points: 4
#     Node 18, Type 0, BuildingBlock: TATPOV_clean_sbu_0, # of connection points: 4
#     Node 19, Type 0, BuildingBlock: TATPOV_clean_sbu_0, # of connection points: 4
#     Node 20, Type 0, BuildingBlock: TATPOV_clean_sbu_0, # of connection points: 4
#     Node 21, Type 0, BuildingBlock: TATPOV_clean_sbu_0, # of connection points: 4
#     Node 22, Type 0, BuildingBlock: TATPOV_clean_sbu_0, # of connection points: 4
#     Node 23, Type 0, BuildingBlock: TATPOV_clean_sbu_0, # of connection points: 4
#     Node 24, Type 1, BuildingBlock: PAMTOO_clean_sbu_0, # of connection points: 6
#     Node 25, Type 1, BuildingBlock: PAMTOO_clean_sbu_0, # of connection points: 6
#     Node 26, Type 1, BuildingBlock: PAMTOO_clean_sbu_0, # of connection points: 6
#     Node 27, Type 1, BuildingBlock: PAMTOO_clean_sbu_0, # of connection points: 6
#     Node 28, Type 1, BuildingBlock: PAMTOO_clean_sbu_0, # of connection points: 6
#     Node 29, Type 1, BuildingBlock: PAMTOO_clean_sbu_0, # of connection points: 6
#     Node 30, Type 1, BuildingBlock: PAMTOO_clean_sbu_0, # of connection points: 6
#     Node 31, Type 1, BuildingBlock: PAMTOO_clean_sbu_0, # of connection points: 6
#     Node 32, Type 1, BuildingBlock: PAMTOO_clean_sbu_0, # of connection points: 6
#     Node 33, Type 1, BuildingBlock: PAMTOO_clean_sbu_0, # of connection points: 6
#     Node 34, Type 1, BuildingBlock: PAMTOO_clean_sbu_0, # of connection points: 6
#     Node 35, Type 1, BuildingBlock: PAMTOO_clean_sbu_0, # of connection points: 6
#     Node 36, Type 1, BuildingBlock: PAMTOO_clean_sbu_0, # of connection points: 6
#     Node 37, Type 1, BuildingBlock: PAMTOO_clean_sbu_0, # of connection points: 6
#     Node 38, Type 1, BuildingBlock: PAMTOO_clean_sbu_0, # of connection points: 6
#     Node 39, Type 1, BuildingBlock: PAMTOO_clean_sbu_0, # of connection points: 6
#     Edge 40, Type (0, 1), BuildingBlock: XIVTED_clean_linker_0, # of connection points: 2
#     Edge 41, Type (0, 1), BuildingBlock: XIVTED_clean_linker_0, # of connection points: 2
#     Edge 42, Type (0, 1), BuildingBlock: XIVTED_clean_linker_0, # of connection points: 2
#     Edge 43, Type (0, 1), BuildingBlock: XIVTED_clean_linker_0, # of connection points: 2
#     Edge 44, Type (0, 1), BuildingBlock: XIVTED_clean_linker_0, # of connection points: 2
#     Edge 45, Type (0, 1), BuildingBlock: XIVTED_clean_linker_0, # of connection points: 2
#     Edge 46, Type (0, 1), BuildingBlock: XIVTED_clean_linker_0, # of connection points: 2
#     Edge 47, Type (0, 1), BuildingBlock: XIVTED_clean_linker_0, # of connection points: 2
#     Edge 48, Type (0, 1), BuildingBlock: XIVTED_clean_linker_0, # of connection points: 2
#     Edge 49, Type (0, 1), BuildingBlock: XIVTED_clean_linker_0, # of connection points: 2
#     Edge 50, Type (0, 1), BuildingBlock: XIVTED_clean_linker_0, # of connection points: 2
#     Edge 51, Type (0, 1), BuildingBlock: XIVTED_clean_linker_0, # of connection points: 2
#     Edge 52, Type (0, 1), BuildingBlock: XIVTED_clean_linker_0, # of connection points: 2
#     Edge 53, Type (0, 1), BuildingBlock: XIVTED_clean_linker_0, # of connection points: 2
#     Edge 54, Type (0, 1), BuildingBlock: XIVTED_clean_linker_0, # of connection points: 2
#     Edge 55, Type (0, 1), BuildingBlock: XIVTED_clean_linker_0, # of connection points: 2
#     Edge 56, Type (0, 1), BuildingBlock: XIVTED_clean_linker_0, # of connection points: 2
#     Edge 57, Type (0, 1), BuildingBlock: XIVTED_clean_linker_0, # of connection points: 2
#     Edge 58, Type (0, 1), BuildingBlock: XIVTED_clean_linker_0, # of connection points: 2
#     Edge 59, Type (0, 1), BuildingBlock: XIVTED_clean_linker_0, # of connection points: 2
#     Edge 60, Type (0, 1), BuildingBlock: XIVTED_clean_linker_0, # of connection points: 2
#     Edge 61, Type (0, 1), BuildingBlock: XIVTED_clean_linker_0, # of connection points: 2
#     Edge 62, Type (0, 1), BuildingBlock: XIVTED_clean_linker_0, # of connection points: 2
#     Edge 63, Type (0, 1), BuildingBlock: XIVTED_clean_linker_0, # of connection points: 2
#     Edge 64, Type (0, 1), BuildingBlock: XIVTED_clean_linker_0, # of connection points: 2
#     Edge 65, Type (0, 1), BuildingBlock: XIVTED_clean_linker_0, # of connection points: 2
#     Edge 66, Type (0, 1), BuildingBlock: XIVTED_clean_linker_0, # of connection points: 2
#     Edge 67, Type (0, 1), BuildingBlock: XIVTED_clean_linker_0, # of connection points: 2
#     Edge 68, Type (0, 1), BuildingBlock: XIVTED_clean_linker_0, # of connection points: 2
#     Edge 69, Type (0, 1), BuildingBlock: XIVTED_clean_linker_0, # of connection points: 2
#     Edge 70, Type (0, 1), BuildingBlock: XIVTED_clean_linker_0, # of connection points: 2
#     Edge 71, Type (0, 1), BuildingBlock: XIVTED_clean_linker_0, # of connection points: 2
#     Edge 72, Type (0, 1), BuildingBlock: XIVTED_clean_linker_0, # of connection points: 2
#     Edge 73, Type (0, 1), BuildingBlock: XIVTED_clean_linker_0, # of connection points: 2
#     Edge 74, Type (0, 1), BuildingBlock: XIVTED_clean_linker_0, # of connection points: 2
#     Edge 75, Type (0, 1), BuildingBlock: XIVTED_clean_linker_0, # of connection points: 2
#     Edge 76, Type (0, 1), BuildingBlock: XIVTED_clean_linker_0, # of connection points: 2
#     Edge 77, Type (0, 1), BuildingBlock: XIVTED_clean_linker_0, # of connection points: 2
#     Edge 78, Type (0, 1), BuildingBlock: XIVTED_clean_linker_0, # of connection points: 2
#     Edge 79, Type (0, 1), BuildingBlock: XIVTED_clean_linker_0, # of connection points: 2
#     Edge 80, Type (0, 1), BuildingBlock: XIVTED_clean_linker_0, # of connection points: 2
#     Edge 81, Type (0, 1), BuildingBlock: XIVTED_clean_linker_0, # of connection points: 2
#     Edge 82, Type (0, 1), BuildingBlock: XIVTED_clean_linker_0, # of connection points: 2
#     Edge 83, Type (0, 1), BuildingBlock: XIVTED_clean_linker_0, # of connection points: 2
#     Edge 84, Type (0, 1), BuildingBlock: XIVTED_clean_linker_0, # of connection points: 2
#     Edge 85, Type (0, 1), BuildingBlock: XIVTED_clean_linker_0, # of connection points: 2
#     Edge 86, Type (0, 1), BuildingBlock: XIVTED_clean_linker_0, # of connection points: 2
#     Edge 87, Type (0, 1), BuildingBlock: XIVTED_clean_linker_0, # of connection points: 2
#     Edge 88, Type (0, 1), BuildingBlock: XIVTED_clean_linker_0, # of connection points: 2
#     Edge 89, Type (0, 1), BuildingBlock: XIVTED_clean_linker_0, # of connection points: 2
#     Edge 90, Type (0, 1), BuildingBlock: XIVTED_clean_linker_0, # of connection points: 2
#     Edge 91, Type (0, 1), BuildingBlock: XIVTED_clean_linker_0, # of connection points: 2
#     Edge 92, Type (0, 1), BuildingBlock: XIVTED_clean_linker_0, # of connection points: 2
#     Edge 93, Type (0, 1), BuildingBlock: XIVTED_clean_linker_0, # of connection points: 2
#     Edge 94, Type (0, 1), BuildingBlock: XIVTED_clean_linker_0, # of connection points: 2
#     Edge 95, Type (0, 1), BuildingBlock: XIVTED_clean_linker_0, # of connection points: 2
#     Edge 96, Type (0, 1), BuildingBlock: XIVTED_clean_linker_0, # of connection points: 2
#     Edge 97, Type (0, 1), BuildingBlock: XIVTED_clean_linker_0, # of connection points: 2
#     Edge 98, Type (0, 1), BuildingBlock: XIVTED_clean_linker_0, # of connection points: 2
#     Edge 99, Type (0, 1), BuildingBlock: XIVTED_clean_linker_0, # of connection points: 2
#     Edge 100, Type (0, 1), BuildingBlock: XIVTED_clean_linker_0, # of connection points: 2
#     Edge 101, Type (0, 1), BuildingBlock: XIVTED_clean_linker_0, # of connection points: 2
#     Edge 102, Type (0, 1), BuildingBlock: XIVTED_clean_linker_0, # of connection points: 2
#     Edge 103, Type (0, 1), BuildingBlock: XIVTED_clean_linker_0, # of connection points: 2
#     Edge 104, Type (0, 1), BuildingBlock: XIVTED_clean_linker_0, # of connection points: 2
#     Edge 105, Type (0, 1), BuildingBlock: XIVTED_clean_linker_0, # of connection points: 2
#     Edge 106, Type (0, 1), BuildingBlock: XIVTED_clean_linker_0, # of connection points: 2
#     Edge 107, Type (0, 1), BuildingBlock: XIVTED_clean_linker_0, # of connection points: 2
#     Edge 108, Type (0, 1), BuildingBlock: XIVTED_clean_linker_0, # of connection points: 2
#     Edge 109, Type (0, 1), BuildingBlock: XIVTED_clean_linker_0, # of connection points: 2
#     Edge 110, Type (0, 1), BuildingBlock: XIVTED_clean_linker_0, # of connection points: 2
#     Edge 111, Type (0, 1), BuildingBlock: XIVTED_clean_linker_0, # of connection points: 2
#     Edge 112, Type (0, 1), BuildingBlock: XIVTED_clean_linker_0, # of connection points: 2
#     Edge 113, Type (0, 1), BuildingBlock: XIVTED_clean_linker_0, # of connection points: 2
#     Edge 114, Type (0, 1), BuildingBlock: XIVTED_clean_linker_0, # of connection points: 2
#     Edge 115, Type (0, 1), BuildingBlock: XIVTED_clean_linker_0, # of connection points: 2
#     Edge 116, Type (0, 1), BuildingBlock: XIVTED_clean_linker_0, # of connection points: 2
#     Edge 117, Type (0, 1), BuildingBlock: XIVTED_clean_linker_0, # of connection points: 2
#     Edge 118, Type (0, 1), BuildingBlock: XIVTED_clean_linker_0, # of connection points: 2
#     Edge 119, Type (0, 1), BuildingBlock: XIVTED_clean_linker_0, # of connection points: 2
#     Edge 120, Type (0, 1), BuildingBlock: XIVTED_clean_linker_0, # of connection points: 2
#     Edge 121, Type (0, 1), BuildingBlock: XIVTED_clean_linker_0, # of connection points: 2
#     Edge 122, Type (0, 1), BuildingBlock: XIVTED_clean_linker_0, # of connection points: 2
#     Edge 123, Type (0, 1), BuildingBlock: XIVTED_clean_linker_0, # of connection points: 2
#     Edge 124, Type (0, 1), BuildingBlock: XIVTED_clean_linker_0, # of connection points: 2
#     Edge 125, Type (0, 1), BuildingBlock: XIVTED_clean_linker_0, # of connection points: 2
#     Edge 126, Type (0, 1), BuildingBlock: XIVTED_clean_linker_0, # of connection points: 2
#     Edge 127, Type (0, 1), BuildingBlock: XIVTED_clean_linker_0, # of connection points: 2
#     Edge 128, Type (0, 1), BuildingBlock: XIVTED_clean_linker_0, # of connection points: 2
#     Edge 129, Type (0, 1), BuildingBlock: XIVTED_clean_linker_0, # of connection points: 2
#     Edge 130, Type (0, 1), BuildingBlock: XIVTED_clean_linker_0, # of connection points: 2
#     Edge 131, Type (0, 1), BuildingBlock: XIVTED_clean_linker_0, # of connection points: 2
#     Edge 132, Type (0, 1), BuildingBlock: XIVTED_clean_linker_0, # of connection points: 2
#     Edge 133, Type (0, 1), BuildingBlock: XIVTED_clean_linker_0, # of connection points: 2
#     Edge 134, Type (0, 1), BuildingBlock: XIVTED_clean_linker_0, # of connection points: 2
#     Edge 135, Type (0, 1), BuildingBlock: XIVTED_clean_linker_0, # of connection points: 2
# Relax obj value: 0.162
# Max RMSD: 0.271
# Mean RMSD: 0.176
data_MOF--net-gar--node1-TATPOV_clean_sbu_0--node2-PAMTOO_clean_sbu_0--edge1-XIVTED_clean_linker_0
_symmetry_space_group_name_H-M    P1
_symmetry_Int_Tables_number       1
_symmetry_cell_setting            triclinic
loop_
_symmetry_equiv_pos_as_xyz
'x, y, z'
_cell_length_a     59.84937
_cell_length_b     60.009994
_cell_length_c     58.360535
_cell_angle_alpha  97.020234
_cell_angle_beta   96.627569
_cell_angle_gamma 107.41339
loop_
_atom_site_label
_atom_site_type_symbol
_atom_site_fract_x
_atom_site_fract_y
_atom_site_fract_z
_atom_type_partial_charge
Zn0 Zn 0.02699 0.3264 0.38965 0.0
Zn1 Zn 0.05392 0.32487 0.36091 0.0
O2 O 0.06571 0.36092 0.37907 0.0
O3 O 0.0434 0.35832 0.40676 0.0
O4 O 0.08086 0.32104 0.34123 0.0
O5 O 0.02807 0.30046 0.40599 0.0
O6 O 0.05352 0.29791 0.38229 0.0
C7 C 0.0596 0.3705 0.39721 0.0
C8 C 1.0008 0.31986 0.34465 0.0
O9 O 0.02051 0.31918 0.3382 0.0
O10 O 0.99935 0.32263 0.36615 0.0
C11 C 0.10187 0.33587 0.34399 0.0
O12 O 0.10669 0.35596 0.35832 0.0
C13 C 0.04257 0.29074 0.399 0.0
Zn14 Zn 0.01209 0.72591 0.71948 0.0
Zn15 Zn 0.01907 0.75785 0.69186 0.0
O16 O 0.98958 0.76127 0.70805 0.0
O17 O 0.98479 0.73505 0.73172 0.0
O18 O 0.02523 0.78416 0.67183 0.0
O19 O 0.04682 0.73865 0.73547 0.0
O20 O 0.05284 0.76488 0.71179 0.0
C21 C 0.97816 0.75087 0.72311 0.0
C22 C 0.00707 0.70516 0.67081 0.0
O23 O 0.01214 0.72678 0.66786 0.0
O24 O 0.00498 0.70007 0.69108 0.0
C25 C 0.00856 0.78921 0.66022 0.0
O26 O 0.98648 0.77701 0.66096 0.0
C27 C 0.06103 0.75524 0.72775 0.0
Zn28 Zn 0.52455 0.82317 0.88715 0.0
Zn29 Zn 0.55569 0.82525 0.86166 0.0
O30 O 0.56417 0.86074 0.88037 0.0
O31 O 0.53598 0.85634 0.90222 0.0
O32 O 0.58563 0.82587 0.8449 0.0
O33 O 0.52977 0.80015 0.90604 0.0
O34 O 0.55606 0.79848 0.88303 0.0
C35 C 0.55405 0.86946 0.89577 0.0
C36 C 0.50182 0.81284 0.84072 0.0
O37 O 0.52334 0.81728 0.83674 0.0
O38 O 0.4976 0.8132 0.86142 0.0
C39 C 0.58839 0.80793 0.83261 0.0
O40 O 0.57064 0.78801 0.82803 0.0
C41 C 0.54523 0.79138 0.89984 0.0
Zn42 Zn 0.51029 0.22695 0.21806 0.0
Zn43 Zn 0.51823 0.25984 0.19136 0.0
O44 O 0.48857 0.2633 0.20712 0.0
O45 O 0.4819 0.23532 0.22885 0.0
O46 O 0.52479 0.28629 0.17161 0.0
O47 O 0.54457 0.24015 0.23538 0.0
O48 O 0.55147 0.26666 0.21201 0.0
C49 C 0.47619 0.25203 0.22108 0.0
C50 C 0.50791 0.20751 0.16953 0.0
O51 O 0.51218 0.22919 0.16701 0.0
O52 O 0.50535 0.20182 0.18952 0.0
C53 C 0.50824 0.29014 0.15856 0.0
O54 O 0.48626 0.27673 0.15785 0.0
C55 C 0.55912 0.25686 0.22813 0.0
Zn56 Zn 0.09867 0.81294 0.08321 0.0
Zn57 Zn 0.06695 0.80658 0.1113 0.0
O58 O 0.06375 0.83621 0.09532 0.0
O59 O 0.09102 0.84191 0.07259 0.0
O60 O 0.04168 0.80183 0.13258 0.0
O61 O 0.08413 0.77827 0.06626 0.0
O62 O 0.05921 0.77252 0.09145 0.0
C63 C 0.07478 0.84821 0.08096 0.0
C64 C 0.11929 0.8159 0.13174 0.0
O65 O 0.09788 0.81259 0.135 0.0
O66 O 0.12438 0.81753 0.11136 0.0
C67 C 0.02178 0.80503 0.12719 0.0
O68 O 0.01705 0.81157 0.10699 0.0
C69 C 0.06801 0.76416 0.07472 0.0
Zn70 Zn 0.4706 0.7643 0.47264 0.0
Zn71 Zn 0.49957 0.77053 0.44156 0.0
O72 O 0.50877 0.80452 0.46238 0.0
O73 O 0.48507 0.79883 0.48872 0.0
O74 O 0.52384 0.77424 0.41873 0.0
O75 O 0.48051 0.73661 0.48359 0.0
O76 O 0.5027 0.74006 0.45596 0.0
C77 C 0.50067 0.81287 0.47971 0.0
C78 C 0.44641 0.76256 0.42565 0.0
O79 O 0.4673 0.76607 0.42059 0.0
O80 O 0.44285 0.75962 0.44627 0.0
C81 C 0.54479 0.7889 0.42418 0.0
O82 O 0.55094 0.80236 0.44485 0.0
C83 C 0.49451 0.7292 0.47233 0.0
Zn84 Zn 0.59502 0.31109 0.58028 0.0
Zn85 Zn 0.56555 0.30549 0.61082 0.0
O86 O 0.56289 0.33578 0.59569 0.0
O87 O 0.58544 0.33847 0.56837 0.0
O88 O 0.53975 0.29993 0.63187 0.0
O89 O 0.58111 0.27641 0.56432 0.0
O90 O 0.55749 0.27142 0.59071 0.0
C91 C 0.57145 0.34628 0.57926 0.0
C92 C 0.61826 0.31485 0.62851 0.0
O93 O 0.5972 0.3111 0.63313 0.0
O94 O 0.62205 0.31688 0.60777 0.0
C95 C 0.53245 0.31629 0.64107 0.0
O96 O 0.54217 0.33805 0.63752 0.0
C97 C 0.56558 0.26265 0.57363 0.0
Zn98 Zn 0.96786 0.26342 0.97002 0.0
Zn99 Zn 1.00004 0.27184 0.94263 0.0
O100 O 0.00847 0.30529 0.96408 0.0
O101 O 0.98186 0.2979 0.98752 0.0
O102 O 0.02481 0.27669 0.92065 0.0
O103 O 0.97631 0.23456 0.98009 0.0
O104 O 1.00341 0.24134 0.95725 0.0
C105 C 0.99864 0.31268 0.98049 0.0
C106 C 0.9472 0.2634 0.92266 0.0
O107 O 0.96885 0.26774 0.91973 0.0
O108 O 0.94165 0.25934 0.94243 0.0
C109 C 0.04695 0.282 0.9279 0.0
O110 O 0.05436 0.28475 0.95046 0.0
C111 C 0.99266 0.22875 0.9714 0.0
Zn112 Zn 0.38395 0.9818 0.29551 0.0
Zn113 Zn 0.38661 0.02599 0.29451 0.0
O114 O 0.39956 0.02615 0.32852 0.0
O115 O 0.39523 0.98864 0.32974 0.0
O116 O 0.38544 0.05848 0.29447 0.0
O117 O 0.407 0.98466 0.2732 0.0
O118 O 0.4089 0.02173 0.27183 0.0
C119 C 0.40163 0.0099 0.33991 0.0
C120 C 0.33977 0.98609 0.27817 0.0
O121 O 0.35135 0.008 0.28196 0.0
O122 O 0.34976 0.97101 0.28281 0.0
C123 C 0.37017 0.06214 0.30651 0.0
O124 O 0.36097 0.04662 0.31968 0.0
C125 C 0.41506 0.00372 0.26534 0.0
Zn126 Zn 0.26218 0.23301 0.51224 0.0
Zn127 Zn 0.28755 0.20498 0.51715 0.0
O128 O 0.29667 0.21991 0.48731 0.0
O129 O 0.27724 0.24569 0.48577 0.0
O130 O 0.30842 0.18428 0.52169 0.0
O131 O 0.27316 0.25065 0.54491 0.0
O132 O 0.29377 0.22637 0.55008 0.0
C133 C 0.29133 0.23599 0.47757 0.0
C134 C 0.23395 0.18376 0.50721 0.0
O135 O 0.25411 0.18073 0.51124 0.0
O136 O 0.23273 0.20435 0.50618 0.0
C137 C 0.32851 0.18802 0.515 0.0
O138 O 0.33673 0.20642 0.50473 0.0
C139 C 0.28659 0.24332 0.55827 0.0
Zn140 Zn 0.09198 0.06004 0.78875 0.0
Zn141 Zn 0.12181 0.03663 0.78431 0.0
O142 O 0.10674 0.02754 0.81389 0.0
O143 O 0.07909 0.04473 0.81498 0.0
O144 O 0.14173 0.01488 0.78082 0.0
O145 O 0.07503 0.04882 0.75586 0.0
O146 O 0.10127 0.03037 0.75111 0.0
C147 C 0.08999 0.03178 0.82346 0.0
C148 C 0.14138 0.08982 0.79505 0.0
O149 O 0.14553 0.07024 0.7908 0.0
O150 O 0.1203 0.08994 0.79558 0.0
C151 C 0.16085 0.0202 0.77223 0.0
O152 O 0.16813 0.04061 0.7649 0.0
C153 C 0.08372 0.03646 0.74264 0.0
Zn154 Zn 0.30232 0.89192 0.97999 0.0
Zn155 Zn 0.27617 0.91332 -0.00137 0.0
O156 O 0.25423 0.89618 0.96774 0.0
O157 O 0.27418 0.87242 0.95678 0.0
O158 O 0.2585 0.9327 0.01343 0.0
O159 O 0.30865 0.8793 0.00918 0.0
O160 O 0.28023 0.8914 0.02164 0.0
C161 C 0.25576 0.8786 0.95422 0.0
C162 C 0.3231 0.94058 0.98446 0.0
O163 O 0.30649 0.93958 -0.0036 0.0
O164 O 0.32457 0.92185 0.97316 0.0
C165 C 0.25633 0.94889 0.00211 0.0
O166 O 0.2642 0.95006 0.98203 0.0
C167 C 0.29482 0.87983 0.02391 0.0
Zn168 Zn 0.30974 0.35233 0.04332 0.0
Zn169 Zn 0.28379 0.37945 0.03714 0.0
O170 O 0.27834 0.35847 0.00418 0.0
O171 O 0.30148 0.33664 0.00987 0.0
O172 O 0.2622 0.39982 0.03378 0.0
O173 O 0.29279 0.33714 0.06766 0.0
O174 O 0.27414 0.36359 0.06639 0.0
C175 C 0.28734 0.34288 -0.00379 0.0
C176 C 0.33746 0.40147 0.04968 0.0
O177 O 0.31735 0.40389 0.04323 0.0
O178 O 0.33878 0.38127 0.05246 0.0
C179 C 0.24558 0.39618 0.01669 0.0
O180 O 0.24166 0.37821 -0.0002 0.0
C181 C 0.2786 0.34681 0.07564 0.0
Zn182 Zn 0.7589 0.17108 0.05537 0.0
Zn183 Zn 0.79086 0.15764 0.04849 0.0
O184 O 0.78808 0.17512 0.02153 0.0
O185 O 0.75019 0.16985 0.02088 0.0
O186 O 0.81487 0.1427 0.04226 0.0
O187 O 0.7812 0.20136 0.07367 0.0
O188 O 0.80513 0.18047 0.0792 0.0
C189 C 0.76852 0.176 0.01134 0.0
C190 C 0.74499 0.12599 0.05911 0.0
O191 O 0.76142 0.12874 0.04676 0.0
O192 O 0.74271 0.14398 0.07103 0.0
C193 C 0.81508 0.12541 0.05264 0.0
O194 O 0.80108 0.11991 0.06826 0.0
C195 C 0.80002 0.1994 0.08416 0.0
Zn196 Zn 0.1964 0.60883 0.25377 0.0
Zn197 Zn 0.19798 0.56646 0.25917 0.0
O198 O 0.18257 0.5745 0.28689 0.0
O199 O 0.18287 0.61078 0.2836 0.0
O200 O 0.19992 0.53443 0.26052 0.0
O201 O 0.17343 0.59622 0.22439 0.0
O202 O 0.1762 0.561 0.22788 0.0
C203 C 0.17785 0.59316 0.29419 0.0
C204 C 0.24336 0.60576 0.2586 0.0
O205 O 0.23329 0.58517 0.26271 0.0
O206 O 0.23125 0.61898 0.25337 0.0
C207 C 0.1942 0.52185 0.27615 0.0
O208 O 0.1849 0.52953 0.29356 0.0
C209 C 0.16743 0.57427 0.2169 0.0
Zn210 Zn 0.81175 0.85367 0.5451 0.0
Zn211 Zn 0.78429 0.87882 0.53908 0.0
O212 O 0.779 0.85794 0.50611 0.0
O213 O 0.80432 0.83833 0.51158 0.0
O214 O 0.76104 0.89724 0.53575 0.0
O215 O 0.79557 0.83746 0.56925 0.0
O216 O 0.7756 0.8628 0.56843 0.0
C217 C 0.78921 0.84346 0.49803 0.0
C218 C 0.83754 0.90316 0.55181 0.0
O219 O 0.81708 0.90464 0.54499 0.0
O220 O 0.83977 0.88333 0.55475 0.0
C221 C 0.75554 0.90452 0.51699 0.0
O222 O 0.76522 0.90001 0.49861 0.0
C223 C 0.78097 0.84638 0.57752 0.0
Zn224 Zn 0.97786 0.01941 0.26252 0.0
Zn225 Zn 0.94817 0.04357 0.26622 0.0
O226 O 0.96802 0.04947 0.29967 0.0
O227 O 0.99471 0.03142 0.29556 0.0
O228 O 0.92838 0.06567 0.2686 0.0
O229 O 0.99128 0.03398 0.23603 0.0
O230 O 0.96393 0.0516 0.23654 0.0
C231 C 0.98559 0.04361 0.30844 0.0
C232 C 0.92776 0.99057 0.25671 0.0
O233 O 0.92402 0.01039 0.26055 0.0
O234 O 0.94869 0.98992 0.25608 0.0
C235 C 0.92162 0.07224 0.28742 0.0
O236 O 0.92742 0.06435 0.30651 0.0
C237 C 0.98067 0.04698 0.2272 0.0
Zn238 Zn 0.27534 0.68415 0.55572 0.0
Zn239 Zn 0.29668 0.65808 0.55722 0.0
O240 O 0.29961 0.66743 0.52488 0.0
O241 O 0.26545 0.67381 0.5212 0.0
O242 O 0.31393 0.63484 0.55726 0.0
O243 O 0.30333 0.71268 0.56939 0.0
O244 O 0.31433 0.68515 0.58421 0.0
C245 C 0.28232 0.67007 0.512 0.0
C246 C 0.24797 0.64725 0.57054 0.0
O247 O 0.26264 0.63939 0.56072 0.0
O248 O 0.25252 0.66935 0.57592 0.0
C249 C 0.30396 0.61455 0.54492 0.0
O250 O 0.28194 0.60902 0.53438 0.0
C251 C 0.31635 0.70696 0.58469 0.0
Zn252 Zn 0.47466 0.516 0.76227 0.0
Zn253 Zn 0.44907 0.54209 0.76762 0.0
O254 O 0.47254 0.54864 0.79935 0.0
O255 O 0.49794 0.53 0.79151 0.0
O256 O 0.43176 0.5664 0.77196 0.0
O257 O 0.48146 0.52216 0.73082 0.0
O258 O 0.46124 0.54712 0.7354 0.0
C259 C 0.49076 0.54265 0.806 0.0
C260 C 0.4266 0.48961 0.76517 0.0
O261 O 0.42317 0.5096 0.76541 0.0
O262 O 0.44712 0.48811 0.76424 0.0
C263 C 0.41395 0.56305 0.78262 0.0
O264 O 0.4068 0.54353 0.79152 0.0
C265 C 0.47305 0.53721 0.72305 0.0
Zn266 Zn 0.6916 0.09972 0.74568 0.0
Zn267 Zn 0.69345 0.0607 0.75654 0.0
O268 O 0.68111 0.07337 0.78436 0.0
O269 O 0.6878 0.11025 0.77878 0.0
O270 O 0.69623 0.03003 0.76268 0.0
O271 O 0.66245 0.0842 0.72229 0.0
O272 O 0.66978 0.05093 0.72594 0.0
C273 C 0.6818 0.09449 0.79147 0.0
C274 C 0.73725 0.09696 0.74735 0.0
O275 O 0.72808 0.07996 0.75778 0.0
O276 O 0.724 0.10641 0.7364 0.0
C277 C 0.70085 0.02568 0.78309 0.0
O278 O 0.7026 0.04161 0.80134 0.0
C279 C 0.6577 0.0622 0.71588 0.0
Zn280 Zn 0.76352 0.73392 0.01345 0.0
Zn281 Zn 0.78914 0.70617 0.01927 0.0
O282 O 0.79858 0.72092 0.98945 0.0
O283 O 0.77889 0.74643 0.98702 0.0
O284 O 0.81134 0.68693 0.02494 0.0
O285 O 0.77393 0.75209 0.04592 0.0
O286 O 0.7946 0.72799 0.05176 0.0
C287 C 0.79329 0.73684 0.97936 0.0
C288 C 0.73565 0.68438 0.00925 0.0
O289 O 0.75584 0.68138 0.0134 0.0
O290 O 0.73441 0.7049 0.00778 0.0
C291 C 0.81392 0.67228 0.00859 0.0
O292 O 0.80202 0.66971 0.98754 0.0
C293 C 0.78727 0.74495 0.05958 0.0
Zn294 Zn 0.93304 0.50038 0.7837 0.0
Zn295 Zn 0.91533 0.5373 0.78902 0.0
O296 O 0.92058 0.53493 0.82311 0.0
O297 O 0.93424 0.50454 0.81883 0.0
O298 O 0.9051 0.56535 0.78634 0.0
O299 O 0.96396 0.51404 0.76933 0.0
O300 O 0.94509 0.53942 0.7758 0.0
C301 C 0.92806 0.51955 0.83172 0.0
C302 C 0.88328 0.48907 0.76429 0.0
O303 O 0.8867 0.51032 0.77338 0.0
O304 O 0.90038 0.48064 0.76474 0.0
C305 C 0.88577 0.56273 0.79431 0.0
O306 O 0.87729 0.54433 0.80451 0.0
C307 C 0.9462 0.52076 0.76375 0.0
Zn308 Zn 0.80731 0.37728 0.49275 0.0
Zn309 Zn 0.77653 0.42032 0.50431 0.0
O310 O 0.77424 0.41965 0.46919 0.0
O311 O 0.80128 0.40601 0.48269 0.0
O312 O 0.75423 0.43448 0.51702 0.0
O313 O 0.78066 0.35549 0.50738 0.0
O314 O 0.7721 0.3883 0.51194 0.0
C315 C 0.78802 0.40782 0.46512 0.0
C316 C 0.82712 0.43099 0.52454 0.0
O317 O 0.80915 0.43815 0.52125 0.0
O318 O 0.82694 0.41048 0.51483 0.0
C319 C 0.7606 0.45631 0.51572 0.0
O320 O 0.77931 0.46533 0.506 0.0
C321 C 0.76923 0.36783 0.51688 0.0
Zn322 Zn 0.59288 0.56535 0.28539 0.0
Zn323 Zn 0.61998 0.53909 0.28246 0.0
O324 O 0.60727 0.53413 0.31414 0.0
O325 O 0.58642 0.55866 0.3171 0.0
O326 O 0.63983 0.51728 0.27847 0.0
O327 O 0.57078 0.54893 0.25556 0.0
O328 O 0.597 0.53059 0.25045 0.0
C329 C 0.59501 0.54409 0.32572 0.0
C330 C 0.64141 0.5917 0.28394 0.0
O331 O 0.64479 0.57185 0.28485 0.0
O332 O 0.62073 0.59327 0.28328 0.0
C333 C 0.64033 0.50117 0.29061 0.0
O334 O 0.62682 0.49755 0.30688 0.0
C335 C 0.57859 0.53559 0.24247 0.0
Dy336 Dy 0.06334 0.05491 0.0357 0.0
Dy337 Dy 0.00915 0.02307 0.01453 0.0
C338 C 0.05013 0.02807 0.98314 0.0
O339 O 0.0481 0.07934 0.01713 0.0
O340 O 0.00852 0.06092 0.01665 0.0
O341 O 0.09661 0.07947 0.03138 0.0
O342 O 0.09193 0.06836 0.06492 0.0
O343 O 0.00819 0.03227 0.05254 0.0
O344 O 0.04258 0.06361 0.06304 0.0
O345 O 0.02666 0.99563 0.02136 0.0
O346 O 0.06066 0.01896 0.04571 0.0
O347 O 0.97693 0.99526 0.01594 0.0
O348 O 0.98031 0.01273 0.98563 0.0
C349 C 0.02602 0.07961 0.01419 0.0
O350 O 0.06614 0.03419 0.00206 0.0
O351 O 0.02826 0.02742 0.98418 0.0
C352 C 0.1276 0.0706 0.05188 0.0
C353 C 0.16622 0.05397 0.05009 0.0
C354 C 0.14327 0.03876 0.04127 0.0
C355 C 0.12406 0.04705 0.0421 0.0
C356 C 0.15053 0.08586 0.06093 0.0
C357 C 0.16992 0.07754 0.05993 0.0
C358 C 0.107 0.07871 0.05204 0.0
C359 C 0.02235 0.05037 0.06767 0.0
C360 C 0.04568 0.99788 0.03637 0.0
C361 C 0.94489 0.00553 -0.00029 0.0
C362 C 0.9078 0.02421 0.00159 0.0
C363 C 0.92867 0.03418 0.01781 0.0
C364 C 0.94713 0.02489 0.01688 0.0
C365 C 0.92374 0.99499 0.98389 0.0
C366 C 0.90502 0.00429 0.98495 0.0
C367 C 0.96593 0.99894 -0.00312 0.0
H368 H 0.14028 0.02057 0.03341 0.0
H369 H 0.10643 0.03512 0.03493 0.0
H370 H 0.15339 0.10408 0.06852 0.0
H371 H 0.18769 0.08939 0.06667 0.0
H372 H 0.9309 0.04958 0.03077 0.0
H373 H 0.96353 0.0334 0.02899 0.0
H374 H 0.92205 0.98026 0.97037 0.0
H375 H 0.88887 0.99659 0.97236 0.0
Dy376 Dy 0.29597 0.79236 0.26431 0.0
Dy377 Dy 0.26554 0.79679 0.30733 0.0
C378 C 0.28705 0.84126 0.28191 0.0
O379 O 0.31859 0.78837 0.29563 0.0
O380 O 0.30367 0.80541 0.32504 0.0
O381 O 0.32652 0.8028 0.247 0.0
O382 O 0.29844 0.76953 0.23397 0.0
O383 O 0.27317 0.76258 0.30562 0.0
O384 O 0.2691 0.75867 0.26668 0.0
O385 O 0.23919 0.78895 0.27371 0.0
O386 O 0.26432 0.79935 0.24687 0.0
O387 O 0.23625 0.78067 0.32461 0.0
O388 O 0.25915 0.81676 0.33768 0.0
C389 C 0.31997 0.79678 0.31775 0.0
O390 O 0.30084 0.83096 0.27194 0.0
O391 O 0.27178 0.83092 0.29472 0.0
C392 C 0.31449 0.7915 0.20657 0.0
C393 C 0.3034 0.80032 0.1614 0.0
C394 C 0.29899 0.81379 0.18074 0.0
C395 C 0.30439 0.80934 0.20315 0.0
C396 C 0.31913 0.77809 0.18744 0.0
C397 C 0.31367 0.78253 0.1649 0.0
C398 C 0.31727 0.78511 0.22972 0.0
C399 C 0.27145 0.74955 0.28554 0.0
C400 C 0.24311 0.79454 0.25293 0.0
C401 C 0.24903 0.79164 0.36467 0.0
C402 C 0.25978 0.77229 0.40404 0.0
C403 C 0.27655 0.77889 0.38922 0.0
C404 C 0.27109 0.78826 0.36966 0.0
C405 C 0.23258 0.78635 0.38001 0.0
C406 C 0.23794 0.77661 0.39972 0.0
C407 C 0.24312 0.79829 0.34213 0.0
H408 H 0.29154 0.82793 0.1786 0.0
H409 H 0.3003 0.81956 0.21778 0.0
H410 H 0.32646 0.76393 0.1899 0.0
H411 H 0.31713 0.77185 0.15023 0.0
H412 H 0.29322 0.77515 0.39167 0.0
H413 H 0.28365 0.79167 0.35768 0.0
H414 H 0.21537 0.78874 0.37623 0.0
H415 H 0.22472 0.77149 0.41094 0.0
Dy416 Dy 0.50813 0.03439 0.53651 0.0
Dy417 Dy 0.56024 0.04195 0.51911 0.0
C418 C 0.51563 0.04254 0.48616 0.0
O419 O 0.50754 0.99756 0.5208 0.0
O420 O 0.54738 0.00337 0.52089 0.0
O421 O 0.47021 0.02043 0.52599 0.0
O422 O 0.48506 0.04069 0.56074 0.0
O423 O 0.56589 0.03858 0.55672 0.0
O424 O 0.52801 0.02422 0.56556 0.0
O425 O 0.5563 0.07847 0.52466 0.0
O426 O 0.52953 0.07242 0.55028 0.0
O427 O 0.59843 0.05734 0.52495 0.0
O428 O 0.58014 0.0354 0.4919 0.0
C429 C 0.52544 0.98922 0.51858 0.0
O430 O 0.50947 0.05148 0.50492 0.0
O431 O 0.53213 0.03244 0.48783 0.0
C432 C 0.45124 0.04693 0.54128 0.0
C433 C 0.42417 0.07774 0.53553 0.0
C434 C 0.43735 0.07273 0.51826 0.0
C435 C 0.45087 0.05762 0.52117 0.0
C436 C 0.43805 0.05175 0.55848 0.0
C437 C 0.42466 0.06703 0.55567 0.0
C438 C 0.4661 0.03161 0.54488 0.0
C439 C 0.55107 0.02921 0.57052 0.0
C440 C 0.54503 0.0868 0.54005 0.0
C441 C 0.61648 0.03148 0.50701 0.0
C442 C 0.64605 0.00273 0.50886 0.0
C443 C 0.62671 0.99879 0.52116 0.0
C444 C 0.61205 0.01304 0.52023 0.0
C445 C 0.6357 0.03553 0.49476 0.0
C446 C 0.6504 0.02132 0.4957 0.0
C447 C 0.60055 0.04587 0.50527 0.0
H448 H 0.43715 0.08035 0.50238 0.0
H449 H 0.46108 0.05438 0.5077 0.0
H450 H 0.43834 0.04391 0.57423 0.0
H451 H 0.41506 0.07079 0.5695 0.0
H452 H 0.62264 0.98445 0.53119 0.0
H453 H 0.59713 0.00954 0.52966 0.0
H454 H 0.63928 0.04963 0.48441 0.0
H455 H 0.6653 0.02504 0.48627 0.0
Dy456 Dy 0.3062 0.2816 0.78013 0.0
Dy457 Dy 0.25704 0.29721 0.77205 0.0
C458 C 0.30796 0.33342 0.77195 0.0
O459 O 0.30323 0.29837 0.81583 0.0
O460 O 0.26342 0.29437 0.80969 0.0
O461 O 0.3438 0.29138 0.79264 0.0
O462 O 0.32505 0.25658 0.77262 0.0
O463 O 0.24648 0.258 0.77001 0.0
O464 O 0.27874 0.25291 0.79162 0.0
O465 O 0.26876 0.29471 0.73684 0.0
O466 O 0.288 0.26774 0.74329 0.0
O467 O 0.21992 0.28861 0.75741 0.0
O468 O 0.23814 0.32192 0.78022 0.0
C469 C 0.28362 0.29909 0.82368 0.0
O470 O 0.31484 0.31514 0.76569 0.0
O471 O 0.28742 0.33093 0.7789 0.0
C472 C 0.36398 0.27526 0.76602 0.0
C473 C 0.39965 0.28206 0.73717 0.0
C474 C 0.38138 0.29225 0.73384 0.0
C475 C 0.36372 0.28884 0.74808 0.0
C476 C 0.38193 0.26484 0.76926 0.0
C477 C 0.39957 0.26816 0.75497 0.0
C478 C 0.34571 0.27201 0.78143 0.0
C479 C 0.25613 0.24553 0.78259 0.0
C480 C 0.27888 0.27921 0.72903 0.0
C481 C 0.19879 0.3028 0.78456 0.0
C482 C 0.16421 0.29719 0.8146 0.0
C483 C 0.1834 0.28839 0.8187 0.0
C484 C 0.20047 0.29114 0.80383 0.0
C485 C 0.17958 0.3113 0.78017 0.0
C486 C 0.16242 0.30849 0.79499 0.0
C487 C 0.21767 0.30719 0.76986 0.0
H488 H 0.38063 0.30274 0.72011 0.0
H489 H 0.34989 0.29688 0.74514 0.0
H490 H 0.38243 0.25428 0.78298 0.0
H491 H 0.41344 0.26025 0.75823 0.0
H492 H 0.18522 0.27928 0.83338 0.0
H493 H 0.21514 0.28438 0.80753 0.0
H494 H 0.17804 0.32047 0.76548 0.0
H495 H 0.14809 0.31572 0.79139 0.0
Dy496 Dy 0.04405 0.01303 0.52048 0.0
Dy497 Dy 0.02875 0.06152 0.52761 0.0
C498 C 0.99306 0.01185 0.53155 0.0
O499 O 0.02572 0.0156 0.48539 0.0
O500 O 0.03622 0.05593 0.49123 0.0
O501 O 0.03404 0.97556 0.50742 0.0
O502 O 0.06897 0.99394 0.52733 0.0
O503 O 0.0681 0.07227 0.5335 0.0
O504 O 0.07411 0.04112 0.51096 0.0
O505 O 0.03147 0.05162 0.56353 0.0
O506 O 0.0574 0.03075 0.55758 0.0
O507 O 0.03494 0.09809 0.54253 0.0
O508 O 0.00438 0.07955 0.51598 0.0
C509 C 0.02882 0.03557 0.47717 0.0
O510 O 0.01144 0.00486 0.53696 0.0
O511 O 0.99521 0.03103 0.52224 0.0
C512 C 0.0498 0.95528 0.53396 0.0
C513 C 0.04281 0.92015 0.56311 0.0
C514 C 0.03025 0.93661 0.56428 0.0
C515 C 0.03378 0.95403 0.54993 0.0
C516 C 0.06259 0.93917 0.53293 0.0
C517 C 0.05917 0.92179 0.54737 0.0
C518 C 0.05331 0.97342 0.51855 0.0
C519 C 0.08152 0.06335 0.52144 0.0
C520 C 0.0469 0.04161 0.57164 0.0
C521 C 0.02305 0.11971 0.51483 0.0
C522 C 0.03215 0.15702 0.48842 0.0
C523 C 0.04467 0.14057 0.48678 0.0
C524 C 0.04017 0.12207 0.4999 0.0
C525 C 0.01036 0.13585 0.51626 0.0
C526 C 0.01484 0.1543 0.50321 0.0
C527 C 0.01745 0.09993 0.52812 0.0
H528 H 0.01781 0.93616 0.57644 0.0
H529 H 0.02392 0.96648 0.55126 0.0
H530 H 0.07512 0.93991 0.52082 0.0
H531 H 0.06901 0.90933 0.54585 0.0
H532 H 0.05819 0.14223 0.47569 0.0
H533 H 0.05001 0.1096 0.49841 0.0
H534 H 0.99685 0.1341 0.52739 0.0
H535 H 0.00453 0.16634 0.50457 0.0
Dy536 Dy 0.29196 0.81891 0.76783 0.0
Dy537 Dy 0.28161 0.76487 0.78163 0.0
C538 C 0.27301 0.80636 0.81464 0.0
O539 O 0.32794 0.8141 0.77353 0.0
O540 O 0.31916 0.78621 0.79758 0.0
O541 O 0.30825 0.85679 0.77749 0.0
O542 O 0.28651 0.84185 0.74354 0.0
O543 O 0.29999 0.76553 0.75066 0.0
O544 O 0.29104 0.79558 0.73494 0.0
O545 O 0.24615 0.76434 0.76295 0.0
O546 O 0.25243 0.80444 0.76501 0.0
O547 O 0.26902 0.72692 0.77155 0.0
O548 O 0.2854 0.7427 0.80743 0.0
C549 C 0.33472 0.80139 0.78809 0.0
O550 O 0.28926 0.82108 0.80565 0.0
O551 O 0.26526 0.78363 0.80655 0.0
C552 C 0.28436 0.87794 0.76169 0.0
C553 C 0.25716 0.90891 0.76543 0.0
C554 C 0.25478 0.89111 0.77948 0.0
C555 C 0.26813 0.87564 0.77748 0.0
C556 C 0.2869 0.89564 0.74776 0.0
C557 C 0.27339 0.91095 0.74954 0.0
C558 C 0.29759 0.86108 0.75852 0.0
C559 C 0.29904 0.77749 0.73346 0.0
C560 C 0.23814 0.78242 0.76106 0.0
C561 C 0.29312 0.70825 0.79141 0.0
C562 C 0.32188 0.67851 0.79054 0.0
C563 C 0.32318 0.69472 0.77481 0.0
C564 C 0.30904 0.70954 0.77534 0.0
C565 C 0.29202 0.69246 0.80734 0.0
C566 C 0.3063 0.6778 0.80699 0.0
C567 C 0.27777 0.72339 0.79187 0.0
H568 H 0.24268 0.88915 0.79208 0.0
H569 H 0.26565 0.86176 0.78809 0.0
H570 H 0.29907 0.89738 0.73521 0.0
H571 H 0.27535 0.92406 0.73807 0.0
H572 H 0.33475 0.69566 0.76175 0.0
H573 H 0.31037 0.72181 0.76302 0.0
H574 H 0.28008 0.69144 0.82007 0.0
H575 H 0.30518 0.66599 0.81973 0.0
Dy576 Dy 0.53362 0.06593 0.9944 0.0
Dy577 Dy 0.52754 0.03008 0.0327 0.0
C578 C 0.53395 0.01311 0.98067 0.0
O579 O 0.49552 0.0444 0.98986 0.0
O580 O 0.49379 0.03829 0.02746 0.0
O581 O 0.52242 0.07223 0.96006 0.0
O582 O 0.54822 0.1005 0.98518 0.0
O583 O 0.53508 0.06588 0.0543 0.0
O584 O 0.52498 0.08566 0.02553 0.0
O585 O 0.56442 0.03679 0.02663 0.0
O586 O 0.57055 0.07142 0.0117 0.0
O587 O 0.54107 0.01948 0.06393 0.0
O588 O 0.50794 0.99716 0.04233 0.0
C589 C 0.48347 0.03993 0.00703 0.0
O590 O 0.54363 0.03516 0.97798 0.0
O591 O 0.52112 0.00814 -0.00271 0.0
C592 C 0.55449 0.09726 0.94645 0.0
C593 C 0.58997 0.10577 0.91823 0.0
C594 C 0.57905 0.08273 0.92234 0.0
C595 C 0.5616 0.07854 0.93646 0.0
C596 C 0.56485 0.12019 0.94196 0.0
C597 C 0.58251 0.12444 0.92787 0.0
C598 C 0.53816 0.09326 0.96339 0.0
C599 C 0.52962 0.08409 0.04775 0.0
C600 C 0.57846 0.05584 0.02102 0.0
C601 C 0.51119 0.99936 0.08313 0.0
C602 C 0.49253 0.99982 0.12479 0.0
C603 C 0.4805 0.00448 0.10481 0.0
C604 C 0.4899 0.00449 0.08411 0.0
C605 C 0.52305 0.99439 0.10303 0.0
C606 C 0.51383 0.99476 0.12386 0.0
C607 C 0.52222 0.00109 0.06214 0.0
H608 H 0.58405 0.0679 0.91469 0.0
H609 H 0.55401 0.06072 0.93991 0.0
H610 H 0.55973 0.13485 0.94984 0.0
H611 H 0.59072 0.14237 0.925 0.0
H612 H 0.4641 0.00857 0.10538 0.0
H613 H 0.48072 0.00884 0.06904 0.0
H614 H 0.53964 0.99066 0.10253 0.0
H615 H 0.5232 0.99102 0.13919 0.0
Dy616 Dy 0.27111 0.2654 0.2666 0.0
Dy617 Dy 0.3018 0.32045 0.2876 0.0
C618 C 0.29783 0.28013 0.31961 0.0
O619 O 0.24584 0.27986 0.28452 0.0
O620 O 0.26362 0.31961 0.28573 0.0
O621 O 0.24518 0.23275 0.27025 0.0
O622 O 0.26079 0.23545 0.23861 0.0
O623 O 0.29168 0.32066 0.24961 0.0
O624 O 0.26197 0.28498 0.23863 0.0
O625 O 0.33001 0.3039 0.2808 0.0
O626 O 0.30743 0.269 0.25723 0.0
O627 O 0.32962 0.35267 0.28623 0.0
O628 O 0.30992 0.35036 0.31521 0.0
C629 C 0.24518 0.30171 0.28781 0.0
O630 O 0.2916 0.26391 0.30079 0.0
O631 O 0.29892 0.30206 0.31846 0.0
C632 C 0.25763 0.2015 0.25495 0.0
C633 C 0.28134 0.16827 0.25924 0.0
C634 C 0.28588 0.18755 0.27713 0.0
C635 C 0.27409 0.204 0.27502 0.0
C636 C 0.25246 0.1818 0.23728 0.0
C637 C 0.26417 0.16502 0.23954 0.0
C638 C 0.24893 0.22128 0.25138 0.0
C639 C 0.27421 0.30571 0.23431 0.0
C640 C 0.32822 0.28463 0.26629 0.0
C641 C 0.31719 0.38488 0.29933 0.0
C642 C 0.29273 0.41723 0.2926 0.0
C643 C 0.29368 0.401 0.27359 0.0
C644 C 0.30579 0.38493 0.27694 0.0
C645 C 0.31752 0.402 0.31808 0.0
C646 C 0.30537 0.41816 0.31473 0.0
C647 C 0.32413 0.36432 0.30393 0.0
H648 H 0.29883 0.19007 0.29262 0.0
H649 H 0.27849 0.2191 0.28878 0.0
H650 H 0.24007 0.17986 0.22153 0.0
H651 H 0.2605 0.15006 0.22565 0.0
H652 H 0.28383 0.39965 0.25642 0.0
H653 H 0.30489 0.37158 0.26229 0.0
H654 H 0.32594 0.40194 0.33553 0.0
H655 H 0.30509 0.43074 0.32959 0.0
Dy656 Dy 0.54484 0.51366 0.01954 0.0
Dy657 Dy 0.5292 0.56218 0.02801 0.0
C658 C 0.49268 0.51159 0.02866 0.0
O659 O 0.52922 0.51774 0.98385 0.0
O660 O 0.53653 0.55782 0.99161 0.0
O661 O 0.53575 0.47652 0.00539 0.0
O662 O 0.56999 0.49492 0.02673 0.0
O663 O 0.56866 0.57277 0.03508 0.0
O664 O 0.5752 0.54249 0.01174 0.0
O665 O 0.52972 0.55039 0.06303 0.0
O666 O 0.5554 0.52909 0.0576 0.0
O667 O 0.53594 0.59867 0.04359 0.0
O668 O 0.50506 0.58078 0.01725 0.0
C669 C 0.53074 0.53807 0.97673 0.0
O670 O 0.51069 0.50386 0.03332 0.0
O671 O 0.49536 0.53186 0.02126 0.0
C672 C 0.55073 0.45585 0.03204 0.0
C673 C 0.54311 0.42033 0.06072 0.0
C674 C 0.53004 0.43633 0.0613 0.0
C675 C 0.53388 0.45395 0.0472 0.0
C676 C 0.56397 0.44013 0.03153 0.0
C677 C 0.56025 0.42256 0.04576 0.0
C678 C 0.55475 0.47441 0.01711 0.0
C679 C 0.58243 0.56436 0.02303 0.0
C680 C 0.54399 0.53924 0.0713 0.0
C681 C 0.5245 0.62077 0.0161 0.0
C682 C 0.53404 0.65772 0.98922 0.0
C683 C 0.54661 0.64129 0.98816 0.0
C684 C 0.54188 0.62297 0.00149 0.0
C685 C 0.51178 0.6369 0.01701 0.0
C686 C 0.51648 0.65518 0.00373 0.0
C687 C 0.51855 0.60099 0.0294 0.0
H688 H 0.51699 0.4354 0.07287 0.0
H689 H 0.52369 0.46612 0.04815 0.0
H690 H 0.57715 0.4414 0.02007 0.0
H691 H 0.5705 0.41046 0.04473 0.0
H692 H 0.56034 0.64279 0.97732 0.0
H693 H 0.55174 0.6105 0.00037 0.0
H694 H 0.49804 0.63525 0.02786 0.0
H695 H 0.50611 0.66719 0.00465 0.0
Dy696 Dy 0.78902 0.31895 0.26524 0.0
Dy697 Dy 0.78019 0.26564 0.2803 0.0
C698 C 0.77579 0.30804 0.31519 0.0
O699 O 0.82518 0.31432 0.27009 0.0
O700 O 0.81774 0.28772 0.29564 0.0
O701 O 0.80612 0.35685 0.27242 0.0
O702 O 0.78067 0.34063 0.24077 0.0
O703 O 0.79857 0.26688 0.24932 0.0
O704 O 0.78537 0.29409 0.23275 0.0
O705 O 0.74402 0.26508 0.26334 0.0
O706 O 0.75019 0.30514 0.26644 0.0
O707 O 0.76787 0.2277 0.26982 0.0
O708 O 0.78449 0.24322 0.30562 0.0
C709 C 0.8327 0.30292 0.28563 0.0
O710 O 0.78832 0.32297 0.30331 0.0
O711 O 0.76787 0.28511 0.30825 0.0
C712 C 0.77943 0.37686 0.25982 0.0
C713 C 0.75011 0.40523 0.26771 0.0
C714 C 0.75855 0.39499 0.28591 0.0
C715 C 0.77291 0.38081 0.28197 0.0
C716 C 0.77138 0.38732 0.24176 0.0
C717 C 0.75682 0.4013 0.24562 0.0
C718 C 0.79277 0.3603 0.25474 0.0
C719 C 0.79535 0.27746 0.2315 0.0
C720 C 0.73588 0.28319 0.26256 0.0
C721 C 0.79211 0.20901 0.28922 0.0
C722 C 0.82179 0.18034 0.28846 0.0
C723 C 0.8253 0.19906 0.2755 0.0
C724 C 0.81062 0.21332 0.27594 0.0
C725 C 0.78859 0.19048 0.30221 0.0
C726 C 0.80328 0.17624 0.30184 0.0
C727 C 0.77669 0.22399 0.29 0.0
H728 H 0.75403 0.39787 0.30323 0.0
H729 H 0.77864 0.37269 0.29616 0.0
H730 H 0.77589 0.38417 0.22446 0.0
H731 H 0.75033 0.4085 0.23107 0.0
H732 H 0.83959 0.2029 0.26529 0.0
H733 H 0.81377 0.22776 0.26599 0.0
H734 H 0.77445 0.18699 0.31263 0.0
H735 H 0.79991 0.16182 0.31179 0.0
Dy736 Dy 0.02718 0.55678 0.49911 0.0
Dy737 Dy 0.02953 0.52527 0.54042 0.0
C738 C 0.04381 0.50962 0.49201 0.0
O739 O 0.99124 0.5438 0.50937 0.0
O740 O 0.99901 0.5104 0.51204 0.0
O741 O 0.00939 0.55705 0.46489 0.0
O742 O 0.03713 0.58845 0.48369 0.0
O743 O 0.0167 0.55508 0.55481 0.0
O744 O 0.031 0.58238 0.5315 0.0
O745 O 0.06673 0.5479 0.54465 0.0
O746 O 0.06596 0.56358 0.51027 0.0
O747 O 0.03625 0.51997 0.57617 0.0
O748 O 0.01497 0.4906 0.54944 0.0
C749 C 0.98348 0.52145 0.51097 0.0
O750 O 0.03195 0.52259 0.48277 0.0
O751 O 0.04849 0.51077 0.51479 0.0
C752 C 0.03712 0.57839 0.44403 0.0
C753 C 0.06708 0.58234 0.41017 0.0
C754 C 0.06494 0.56455 0.42409 0.0
C755 C 0.05022 0.5627 0.44097 0.0
C756 C 0.03854 0.59572 0.42978 0.0
C757 C 0.05344 0.59769 0.41287 0.0
C758 C 0.024 0.5778 0.46362 0.0
C759 C 0.02271 0.57701 0.55066 0.0
C760 C 0.0773 0.56 0.5295 0.0
C761 C 1.001 0.49532 0.58472 0.0
C762 C 0.96345 0.49134 0.61034 0.0
C763 C 0.96635 0.50588 0.59312 0.0
C764 C 0.98505 0.50794 0.58055 0.0
C765 C 0.99775 0.48009 0.60121 0.0
C766 C 0.97908 0.47812 0.614 0.0
C767 C 0.02096 0.49866 0.57179 0.0
H768 H 0.07485 0.55218 0.42213 0.0
H769 H 0.0495 0.54936 0.45203 0.0
H770 H 0.02869 0.60809 0.43218 0.0
H771 H 0.05489 0.61169 0.4025 0.0
H772 H 0.95452 0.5161 0.58975 0.0
H773 H 0.98724 0.51968 0.56774 0.0
H774 H 0.00993 0.47023 0.60459 0.0
H775 H 0.97759 0.46711 0.62749 0.0
Dy776 Dy 0.81084 0.78466 0.2825 0.0
Dy777 Dy 0.76189 0.80022 0.27491 0.0
C778 C 0.81246 0.83595 0.272 0.0
O779 O 0.80767 0.80154 0.31795 0.0
O780 O 0.76743 0.79411 0.31169 0.0
O781 O 0.84824 0.7941 0.29575 0.0
O782 O 0.82953 0.75937 0.27551 0.0
O783 O 0.75171 0.76092 0.26772 0.0
O784 O 0.7822 0.75461 0.29083 0.0
O785 O 0.7726 0.79793 0.23919 0.0
O786 O 0.79419 0.77259 0.24503 0.0
O787 O 0.72477 0.79257 0.26085 0.0
O788 O 0.74349 0.82499 0.28493 0.0
C789 C 0.78767 0.80016 0.32588 0.0
O790 O 0.81983 0.81772 0.26719 0.0
O791 O 0.79245 0.83379 0.28005 0.0
C792 C 0.86841 0.77803 0.26889 0.0
C793 C 0.90242 0.7832 0.23824 0.0
C794 C 0.88971 0.79942 0.24099 0.0
C795 C 0.87284 0.7968 0.25605 0.0
C796 C 0.881 0.76183 0.26626 0.0
C797 C 0.89782 0.76436 0.25111 0.0
C798 C 0.85017 0.77481 0.28435 0.0
C799 C 0.76053 0.74707 0.27906 0.0
C800 C 0.78349 0.78321 0.23108 0.0
C801 C 0.70335 0.80686 0.28814 0.0
C802 C 0.66739 0.80108 0.31674 0.0
C803 C 0.67617 0.78233 0.31009 0.0
C804 C 0.69407 0.78523 0.29605 0.0
C805 C 0.69446 0.82545 0.29457 0.0
C806 C 0.67675 0.82263 0.3087 0.0
C807 C 0.72291 0.8109 0.2741 0.0
H808 H 0.89293 0.81432 0.23167 0.0
H809 H 0.86323 0.80945 0.25762 0.0
H810 H 0.87766 0.74707 0.27579 0.0
H811 H 0.90693 0.7513 0.2492 0.0
H812 H 0.6696 0.76559 0.31617 0.0
H813 H 0.70082 0.77067 0.29163 0.0
H814 H 0.70139 0.84231 0.28878 0.0
H815 H 0.67027 0.83736 0.31322 0.0
Dy816 Dy 0.80587 0.30234 0.75706 0.0
Dy817 Dy 0.77045 0.29789 0.79638 0.0
C818 C 0.78866 0.34434 0.77606 0.0
O819 O 0.8294 0.30642 0.79162 0.0
O820 O 0.80263 0.29376 0.81621 0.0
O821 O 0.83803 0.32509 0.74847 0.0
O822 O 0.81874 0.29138 0.72604 0.0
O823 O 0.77513 0.2619 0.78996 0.0
O824 O 0.79578 0.2646 0.75875 0.0
O825 O 0.74622 0.29482 0.76311 0.0
O826 O 0.77016 0.29475 0.73483 0.0
O827 O 0.73881 0.28136 0.8103 0.0
O828 O 0.76235 0.31628 0.82663 0.0
C829 C 0.82427 0.29913 0.81138 0.0
O830 O 0.79141 0.33189 0.75747 0.0
O831 O 0.78828 0.33622 0.79579 0.0
C832 C 0.83179 0.32432 0.70777 0.0
C833 C 0.81259 0.33982 0.66908 0.0
C834 C 0.81653 0.35322 0.69143 0.0
C835 C 0.82597 0.34546 0.7107 0.0
C836 C 0.82985 0.31219 0.68519 0.0
C837 C 0.82025 0.31986 0.66595 0.0
C838 C 0.83454 0.31225 0.72779 0.0
C839 C 0.78557 0.25288 0.77419 0.0
C840 C 0.74944 0.29382 0.74115 0.0
C841 C 0.74707 0.29035 0.85108 0.0
C842 C 0.75617 0.27886 0.89534 0.0
C843 C 0.7674 0.27194 0.87722 0.0
C844 C 0.76281 0.27757 0.85524 0.0
C845 C 0.73598 0.2976 0.86909 0.0
C846 C 0.74036 0.29168 0.8912 0.0
C847 C 0.74462 0.29807 0.82859 0.0
H848 H 0.81082 0.36872 0.69421 0.0
H849 H 0.8271 0.35515 0.72794 0.0
H850 H 0.8341 0.29582 0.68258 0.0
H851 H 0.81779 0.30956 0.64873 0.0
H852 H 0.77917 0.2615 0.8798 0.0
H853 H 0.77161 0.27199 0.84148 0.0
H854 H 0.72411 0.30786 0.86609 0.0
H855 H 0.7314 0.29696 0.90497 0.0
Dy856 Dy 0.77156 0.75953 0.76624 0.0
Dy857 Dy 0.8004 0.81429 0.78711 0.0
C858 C 0.7979 0.77483 0.81949 0.0
O859 O 0.74256 0.77566 0.77058 0.0
O860 O 0.76395 0.80865 0.79722 0.0
O861 O 0.74589 0.72609 0.76838 0.0
O862 O 0.76408 0.7299 0.73842 0.0
O863 O 0.77925 0.81541 0.75318 0.0
O864 O 0.77499 0.77801 0.73542 0.0
O865 O 0.82561 0.80102 0.76787 0.0
O866 O 0.81021 0.76175 0.76977 0.0
O867 O 0.82554 0.84742 0.78354 0.0
O868 O 0.81027 0.84393 0.81535 0.0
C869 C 0.74342 0.79366 0.78639 0.0
O870 O 0.77944 0.7607 0.80478 0.0
O871 O 0.81119 0.79464 0.81424 0.0
C872 C 0.76141 0.69652 0.75518 0.0
C873 C 0.78673 0.66482 0.76075 0.0
C874 C 0.79311 0.68625 0.77625 0.0
C875 C 0.78054 0.70199 0.77347 0.0
C876 C 0.75441 0.67479 0.74009 0.0
C877 C 0.76696 0.65883 0.74299 0.0
C878 C 0.75159 0.7152 0.75034 0.0
C879 C 0.77447 0.7995 0.73424 0.0
C880 C 0.82769 0.77972 0.76613 0.0
C881 C 0.8134 0.87846 0.80003 0.0
C882 C 0.79019 0.9124 0.79737 0.0
C883 C 0.7861 0.89402 0.77851 0.0
C884 C 0.79761 0.87722 0.77984 0.0
C885 C 0.81811 0.89713 0.81866 0.0
C886 C 0.8066 0.91411 0.81731 0.0
C887 C 0.82195 0.85845 0.80275 0.0
H888 H 0.80811 0.69103 0.79024 0.0
H889 H 0.78638 0.71887 0.78509 0.0
H890 H 0.73991 0.67059 0.72567 0.0
H891 H 0.76188 0.64231 0.73087 0.0
H892 H 0.77321 0.89194 0.76312 0.0
H893 H 0.79336 0.86269 0.76542 0.0
H894 H 0.82999 0.89807 0.83449 0.0
H895 H 0.81017 0.92826 0.832 0.0
Dy896 Dy 0.56055 0.55516 0.54075 0.0
Dy897 Dy 0.51098 0.52194 0.50922 0.0
C898 C 0.55756 0.53218 0.48628 0.0
O899 O 0.54385 0.58258 0.53237 0.0
O900 O 0.51446 0.55948 0.50276 0.0
O901 O 0.59369 0.58338 0.54502 0.0
O902 O 0.5855 0.5627 0.57267 0.0
O903 O 0.50412 0.52725 0.54629 0.0
O904 O 0.53448 0.56074 0.56292 0.0
O905 O 0.52794 0.49461 0.51704 0.0
O906 O 0.55655 0.51756 0.54743 0.0
O907 O 0.4775 0.49426 0.50604 0.0
O908 O 0.4852 0.51419 0.47783 0.0
C909 C 0.52702 0.58044 0.51492 0.0
O910 O 0.56822 0.54933 0.50401 0.0
O911 O 0.53666 0.51706 0.48627 0.0
C912 C 0.62441 0.5726 0.56493 0.0
C913 C 0.66189 0.55391 0.56353 0.0
C914 C 0.65311 0.56175 0.54379 0.0
C915 C 0.63449 0.571 0.54445 0.0
C916 C 0.63411 0.566 0.58508 0.0
C917 C 0.65268 0.55655 0.58434 0.0
C918 C 0.60193 0.57777 0.56442 0.0
C919 C 0.5141 0.54508 0.56349 0.0
C920 C 0.54431 0.49664 0.53492 0.0
C921 C 0.44883 0.50902 0.48997 0.0
C922 C 0.41282 0.52897 0.49555 0.0
C923 C 0.43496 0.53868 0.50996 0.0
C924 C 0.45281 0.52889 0.50708 0.0
C925 C 0.42665 0.4988 0.47576 0.0
C926 C 0.40856 0.50874 0.47862 0.0
C927 C 0.46877 0.50038 0.48719 0.0
H928 H 0.65975 0.55956 0.52744 0.0
H929 H 0.6273 0.57574 0.52855 0.0
H930 H 0.62654 0.56704 0.60101 0.0
H931 H 0.65937 0.55067 0.59977 0.0
H932 H 0.43854 0.55393 0.5235 0.0
H933 H 0.46991 0.53704 0.51815 0.0
H934 H 0.42348 0.48349 0.46242 0.0
H935 H 0.39152 0.50101 0.46738 0.0
Dy936 Dy 0.00782 0.53462 0.04104 0.0
Dy937 Dy 0.05899 0.54217 0.02136 0.0
C938 C 0.01225 0.5394 0.98962 0.0
O939 O 0.00733 0.49756 0.02598 0.0
O940 O 0.04706 0.50389 0.02472 0.0
O941 O 0.96974 0.52007 0.03226 0.0
O942 O 0.9858 0.54194 0.06602 0.0
O943 O 0.06642 0.54023 0.05909 0.0
O944 O 0.02941 0.52605 0.07 0.0
O945 O 0.05436 0.57849 0.02591 0.0
O946 O 0.02898 0.57309 0.05288 0.0
O947 O 0.09697 0.55846 0.02534 0.0
O948 O 0.07792 0.53437 0.99363 0.0
C949 C 0.02532 0.48947 0.02316 0.0
O950 O 0.00707 0.54962 0.0083 0.0
O951 O 0.0296 0.53042 0.9912 0.0
C952 C 0.95094 0.54675 0.0472 0.0
C953 C 0.92165 0.57525 0.04002 0.0
C954 C 0.93803 0.57365 0.02495 0.0
C955 C 0.95258 0.55962 0.02856 0.0
C956 C 0.93483 0.54847 0.06241 0.0
C957 C 0.92031 0.5626 0.05888 0.0
C958 C 0.96628 0.53196 0.05106 0.0
C959 C 0.05256 0.53137 0.07385 0.0
C960 C 0.04368 0.58717 0.04168 0.0
C961 C 0.11514 0.53194 0.0084 0.0
C962 C 0.14477 0.50325 0.01116 0.0
C963 C 0.13263 0.50724 0.0297 0.0
C964 C 0.11785 0.52134 0.02828 0.0
C965 C 0.12727 0.52808 0.98993 0.0
C966 C 0.14195 0.51386 0.99128 0.0
C967 C 0.0986 0.54574 0.00618 0.0
H968 H 0.9398 0.58345 0.0105 0.0
H969 H 0.96514 0.55883 0.01677 0.0
H970 H 0.93342 0.5388 0.07698 0.0
H971 H 0.90776 0.5633 0.07069 0.0
H972 H 0.13413 0.49903 0.04509 0.0
H973 H 0.1083 0.52371 0.04259 0.0
H974 H 0.1252 0.53589 0.97436 0.0
H975 H 0.1512 0.51128 0.97678 0.0
H976 H 0.03107 0.21335 0.96291 0.0
H977 H 0.98427 0.09092 0.01335 0.0
H978 H 0.96734 0.19377 0.99371 0.0
H979 H 0.056 0.11884 0.00029 0.0
H980 H 0.97658 0.12674 0.00304 0.0
H981 H 0.03934 0.17762 0.97319 0.0
C982 C 0.01877 0.20163 0.97179 0.0
C983 C 0.99845 0.20695 0.97743 0.0
C984 C 0.99403 0.12508 0.00242 0.0
C985 C 0.00776 0.16541 0.98912 0.0
C986 C 0.99845 0.10449 0.00829 0.0
C987 C 0.02089 0.10156 0.00783 0.0
C988 C 0.01201 0.14308 -0.00438 0.0
C989 C 0.03843 0.12009 0.00106 0.0
C990 C 0.02354 0.18115 0.97772 0.0
C991 C 0.98329 0.19076 0.989 0.0
N992 N 0.03361 0.1398 -0.00482 0.0
N993 N 0.98815 0.17091 0.99428 0.0
H994 H 0.16523 0.81828 0.12893 0.0
H995 H 0.19822 0.79549 0.25966 0.0
H996 H 0.11585 0.81105 0.17802 0.0
H997 H 0.2436 0.79914 0.20693 0.0
H998 H 0.168 0.80195 0.23118 0.0
H999 H 0.1944 0.81287 0.15849 0.0
C1000 C 0.16054 0.81583 0.14604 0.0
C1001 C 0.13789 0.81518 0.15085 0.0
C1002 C 0.18456 0.80123 0.22588 0.0
C1003 C 0.17159 0.80868 0.18515 0.0
C1004 C 0.20178 0.79741 0.24211 0.0
C1005 C 0.22358 0.79669 0.23579 0.0
C1006 C 0.18911 0.80433 0.20315 0.0
C1007 C 0.22719 0.79957 0.21279 0.0
C1008 C 0.17727 0.81259 0.16296 0.0
C1009 C 0.13303 0.81174 0.17345 0.0
N1010 N 0.21025 0.80325 0.19746 0.0
N1011 N 0.14969 0.80857 0.18971 0.0
H1012 H 0.53547 0.84978 0.46756 0.0
H1013 H 0.48605 0.95181 0.52232 0.0
H1014 H 0.47856 0.8362 0.50833 0.0
H1015 H 0.55549 0.96663 0.50222 0.0
H1016 H 0.4809 0.90919 0.51393 0.0
H1017 H 0.54144 0.89244 0.47715 0.0
C1018 C 0.5244 0.85569 0.47872 0.0
C1019 C 0.5066 0.83913 0.48725 0.0
C1020 C 0.49726 0.92181 0.51138 0.0
C1021 C 0.51295 0.88819 0.49783 0.0
C1022 C 0.50017 0.94618 0.51608 0.0
C1023 C 0.52128 0.96304 0.51309 0.0
C1024 C 0.5154 0.91406 0.50323 0.0
C1025 C 0.53894 0.95447 0.50497 0.0
C1026 C 0.52776 0.8801 0.48413 0.0
C1027 C 0.49267 0.84811 0.50146 0.0
N1028 N 0.53557 0.93075 0.50024 0.0
N1029 N 0.49599 0.87184 0.50609 0.0
H1030 H 0.51169 0.34701 0.66112 0.0
H1031 H 0.42106 0.25063 0.71881 0.0
H1032 H 0.50831 0.27357 0.65329 0.0
H1033 H 0.42248 0.32328 0.72203 0.0
H1034 H 0.45323 0.25846 0.69548 0.0
H1035 H 0.4794 0.33842 0.68395 0.0
C1036 C 0.5042 0.32904 0.66421 0.0
C1037 C 0.51286 0.31101 0.65522 0.0
C1038 C 0.44647 0.27267 0.70125 0.0
C1039 C 0.47558 0.30099 0.68155 0.0
C1040 C 0.42815 0.26825 0.71471 0.0
C1041 C 0.41894 0.28631 0.72248 0.0
C1042 C 0.45582 0.29536 0.69556 0.0
C1043 C 0.42871 0.30869 0.71624 0.0
C1044 C 0.48567 0.32413 0.67727 0.0
C1045 C 0.50228 0.28806 0.65985 0.0
N1046 N 0.44658 0.31256 0.70327 0.0
N1047 N 0.48424 0.28372 0.6727 0.0
H1048 H 0.97694 0.80532 0.63495 0.0
H1049 H 0.07535 0.90314 0.58644 0.0
H1050 H 0.05209 0.81757 0.65315 0.0
H1051 H 1.00034 0.89358 0.57354 0.0
H1052 H 0.0675 0.87148 0.61016 0.0
H1053 H 0.98548 0.83716 0.61179 0.0
C1054 C 0.99527 0.81468 0.6341 0.0
C1055 C 0.0138 0.80866 0.64608 0.0
C1056 C 0.05278 0.87635 0.60217 0.0
C1057 C 0.02376 0.84537 0.61938 0.0
C1058 C 0.05722 0.89435 0.5885 0.0
C1059 C 0.03849 0.90113 0.57792 0.0
C1060 C 0.02939 0.86485 0.60522 0.0
C1061 C 0.01541 0.88925 0.58154 0.0
C1062 C 1.00014 0.83294 0.62084 0.0
C1063 C 0.03721 0.82155 0.64424 0.0
N1064 N 0.01154 0.87173 0.59478 0.0
N1065 N 0.04152 0.83925 0.63114 0.0
H1066 H 0.48978 0.84453 0.81567 0.0
H1067 H 0.35321 0.76991 0.80685 0.0
H1068 H 0.46476 0.77253 0.82767 0.0
H1069 H 0.37458 0.83539 0.77953 0.0
H1070 H 0.39445 0.77097 0.8135 0.0
H1071 H 0.44883 0.84151 0.79976 0.0
C1072 C 0.47588 0.8277 0.81384 0.0
C1073 C 0.48086 0.80854 0.82247 0.0
C1074 C 0.39024 0.78515 0.80602 0.0
C1075 C 0.4337 0.80535 0.80554 0.0
C1076 C 0.36659 0.78468 0.8024 0.0
C1077 C 0.36025 0.80274 0.79285 0.0
C1078 C 0.4081 0.80399 0.80037 0.0
C1079 C 0.37857 0.82114 0.78708 0.0
C1080 C 0.4524 0.82613 0.80518 0.0
C1081 C 0.46188 0.78755 0.82071 0.0
N1082 N 0.40164 0.82141 0.79111 0.0
N1083 N 0.43926 0.78663 0.8128 0.0
H1084 H 0.51482 0.21223 0.12404 0.0
H1085 H 0.52801 0.08296 0.09453 0.0
H1086 H 0.5035 0.16095 0.17087 0.0
H1087 H 0.52477 0.12737 0.04221 0.0
H1088 H 0.52156 0.11266 0.12334 0.0
H1089 H 0.52018 0.18247 0.09419 0.0
C1090 C 0.51319 0.1947 0.128 0.0
C1091 C 0.50864 0.1892 0.15009 0.0
C1092 C 0.52228 0.11594 0.10556 0.0
C1093 C 0.51519 0.15512 0.11608 0.0
C1094 C 0.52611 0.09901 0.08909 0.0
C1095 C 0.52696 0.10258 0.06582 0.0
C1096 C 0.51945 0.13681 0.09889 0.0
C1097 C 0.5242 0.12376 0.05989 0.0
C1098 C 0.51635 0.17773 0.11096 0.0
C1099 C 0.50692 0.16614 0.15416 0.0
N1100 N 0.52064 0.14005 0.07628 0.0
N1101 N 0.51034 0.15011 0.13746 0.0
H1102 H 0.14426 0.36709 0.33882 0.0
H1103 H 0.20252 0.26917 0.29188 0.0
H1104 H 0.10527 0.29246 0.32416 0.0
H1105 H 0.23702 0.34445 0.29904 0.0
H1106 H 0.16709 0.27685 0.30361 0.0
H1107 H 0.178 0.35872 0.32417 0.0
C1108 C 0.14265 0.34887 0.33239 0.0
C1109 C 0.12161 0.3305 0.33282 0.0
C1110 C 0.18235 0.29169 0.30253 0.0
C1111 C 0.16094 0.32066 0.31606 0.0
C1112 C 0.20272 0.28734 0.29583 0.0
C1113 C 0.22307 0.30617 0.29439 0.0
C1114 C 0.18211 0.3151 0.30805 0.0
C1115 C 0.22195 0.32929 0.29981 0.0
C1116 C 0.16208 0.34411 0.324 0.0
C1117 C 0.12092 0.30728 0.32411 0.0
N1118 N 0.202 0.33304 0.30643 0.0
N1119 N 0.14026 0.30304 0.3163 0.0
H1120 H 0.95035 0.04922 0.18917 0.0
H1121 H 0.05128 0.07667 0.10794 0.0
H1122 H 0.02423 0.06069 0.21402 0.0
H1123 H 0.97853 0.03494 0.08102 0.0
H1124 H 0.04089 0.08091 0.14727 0.0
H1125 H 0.95999 0.0541 0.14981 0.0
C1126 C 0.96866 0.05341 0.18648 0.0
C1127 C 0.98654 0.05453 0.20482 0.0
C1128 C 0.02718 0.07103 0.13269 0.0
C1129 C 0.99763 0.06012 0.16007 0.0
C1130 C 0.03306 0.06867 0.11021 0.0
C1131 C 0.0158 0.05521 0.09114 0.0
C1132 C 1.00381 0.06018 0.13613 0.0
C1133 C 0.99247 0.04524 0.09523 0.0
C1134 C 0.9741 0.05596 0.16402 0.0
C1135 C 0.00993 0.05961 0.20032 0.0
N1136 N 0.98716 0.04787 0.11727 0.0
N1137 N 0.0148 0.06219 0.17843 0.0
H1138 H 0.24868 0.65391 0.47349 0.0
H1139 H 0.30013 0.77883 0.43474 0.0
H1140 H 0.31966 0.70103 0.49886 0.0
H1141 H 0.22922 0.73076 0.41034 0.0
H1142 H 0.30956 0.74872 0.45503 0.0
H1143 H 0.24456 0.67806 0.4436 0.0
C1144 C 0.26378 0.66877 0.47198 0.0
C1145 C 0.28434 0.67589 0.48871 0.0
C1146 C 0.29192 0.7448 0.4453 0.0
C1147 C 0.27937 0.70421 0.45583 0.0
C1148 C 0.28645 0.76206 0.43405 0.0
C1149 C 0.26387 0.75719 0.42096 0.0
C1150 C 0.27462 0.72263 0.44347 0.0
C1151 C 0.24673 0.7353 0.42053 0.0
C1152 C 0.2613 0.68282 0.45527 0.0
C1153 C 0.30347 0.69517 0.48623 0.0
N1154 N 0.25251 0.71875 0.43155 0.0
N1155 N 0.30026 0.70924 0.47052 0.0
H1156 H 0.65296 0.02341 0.68338 0.0
H1157 H 0.53538 0.03387 0.61234 0.0
H1158 H 0.61739 0.07308 0.70585 0.0
H1159 H 0.58983 0.0153 0.57954 0.0
H1160 H 0.55721 0.03413 0.65071 0.0
H1161 H 0.62152 0.00686 0.6491 0.0
C1162 C 0.63831 0.03048 0.68129 0.0
C1163 C 0.63787 0.0499 0.69699 0.0
C1164 C 0.56401 0.02947 0.63502 0.0
C1165 C 0.60205 0.03093 0.65863 0.0
C1166 C 0.55161 0.02928 0.61324 0.0
C1167 C 0.56125 0.02512 0.59302 0.0
C1168 C 0.58587 0.02512 0.63632 0.0
C1169 C 0.58223 0.01916 0.59492 0.0
C1170 C 0.62048 0.02107 0.66186 0.0
C1171 C 0.61855 0.05842 0.69376 0.0
N1172 N 0.59404 0.01958 0.61629 0.0
N1173 N 0.60144 0.04897 0.6748 0.0
H1174 H 0.30601 0.31131 0.97449 0.0
H1175 H 0.25205 0.31594 0.84441 0.0
H1176 H 0.26121 0.35408 0.95965 0.0
H1177 H 0.31498 0.2962 0.86091 0.0
H1178 H 0.25122 0.32531 0.88615 0.0
H1179 H 0.30476 0.3003 0.93268 0.0
C1180 C 0.29567 0.31824 0.96247 0.0
C1181 C 0.2838 0.33382 0.97074 0.0
C1182 C 0.26521 0.31895 0.88066 0.0
C1183 C 0.28243 0.32119 0.92257 0.0
C1184 C 0.2657 0.31351 0.85681 0.0
C1185 C 0.28364 0.30522 0.8491 0.0
C1186 C 0.28256 0.31574 0.89704 0.0
C1187 C 0.3009 0.30262 0.86604 0.0
C1188 C 0.29513 0.31202 0.93855 0.0
C1189 C 0.27066 0.34206 0.95415 0.0
N1190 N 0.29984 0.30771 0.88922 0.0
N1191 N 0.27036 0.33568 0.93084 0.0
H1192 H 0.03055 0.05613 0.33261 0.0
H1193 H 0.99167 0.00548 0.44508 0.0
H1194 H 0.95723 0.03741 0.34202 0.0
H1195 H 0.05367 0.06678 0.45199 0.0
H1196 H 0.98097 0.00979 0.40414 0.0
H1197 H 0.04177 0.05439 0.3741 0.0
C1198 C 0.0169 0.0521 0.34355 0.0
C1199 C 0.99298 0.04724 0.33403 0.0
C1200 C 0.99697 0.02216 0.41467 0.0
C1201 C 0.00552 0.04401 0.38092 0.0
C1202 C 1.0032 0.01955 0.43785 0.0
C1203 C 0.02358 0.03577 0.45182 0.0
C1204 C 0.0116 0.04069 0.40534 0.0
C1205 C 0.03779 0.05393 0.44175 0.0
C1206 C 0.02327 0.05097 0.36709 0.0
C1207 C 0.9759 0.04169 0.34882 0.0
N1208 N 0.03167 0.05579 0.41905 0.0
N1209 N 0.98244 0.03979 0.37146 0.0
H1210 H 0.32064 0.75403 0.59284 0.0
H1211 H 0.32276 0.74549 0.72686 0.0
H1212 H 0.33815 0.69928 0.62547 0.0
H1213 H 0.29892 0.79628 0.69293 0.0
H1214 H 0.33851 0.73489 0.69205 0.0
H1215 H 0.32479 0.77694 0.6314 0.0
C1216 C 0.32612 0.74715 0.60809 0.0
C1217 C 0.32807 0.72426 0.60603 0.0
C1218 C 0.33004 0.74852 0.69228 0.0
C1219 C 0.33244 0.75019 0.65005 0.0
C1220 C 0.32082 0.75443 0.71208 0.0
C1221 C 0.30899 0.7714 0.71258 0.0
C1222 C 0.32726 0.75948 0.67273 0.0
C1223 C 0.30753 0.78279 0.69313 0.0
C1224 C 0.32831 0.76019 0.63012 0.0
C1225 C 0.33578 0.71654 0.6263 0.0
N1226 N 0.31629 0.77639 0.67383 0.0
N1227 N 0.33705 0.72921 0.64757 0.0
H1228 H 0.67677 0.06865 0.82696 0.0
H1229 H 0.59657 0.13372 0.88429 0.0
H1230 H 0.66951 0.13333 0.80675 0.0
H1231 H 0.62641 0.08724 0.91919 0.0
H1232 H 0.62467 0.13561 0.8568 0.0
H1233 H 0.65963 0.07617 0.86185 0.0
C1234 C 0.67179 0.08456 0.83001 0.0
C1235 C 0.6742 0.10023 0.81384 0.0
C1236 C 0.62531 0.12533 0.87073 0.0
C1237 C 0.65451 0.10885 0.85351 0.0
C1238 C 0.60933 0.12429 0.88643 0.0
C1239 C 0.60889 0.10991 0.90368 0.0
C1240 C 0.64065 0.11167 0.87224 0.0
C1241 C 0.62573 0.09797 0.90567 0.0
C1242 C 0.66214 0.08892 0.84998 0.0
C1243 C 0.66775 0.12072 0.81874 0.0
N1244 N 0.6407 0.09881 0.88986 0.0
N1245 N 0.65779 0.12426 0.838 0.0
H1246 H 0.26527 0.30269 0.08702 0.0
H1247 H 0.28576 0.34991 0.22201 0.0
H1248 H 0.2727 0.37523 0.11351 0.0
H1249 H 0.25092 0.27613 0.19327 0.0
H1250 H 0.28063 0.35975 0.1827 0.0
H1251 H 0.2588 0.2924 0.12552 0.0
C1252 C 0.26503 0.31636 0.10087 0.0
C1253 C 0.26954 0.33985 0.09711 0.0
C1254 C 0.27381 0.34145 0.18503 0.0
C1255 C 0.26289 0.32835 0.14146 0.0
C1256 C 0.27685 0.33579 0.20747 0.0
C1257 C 0.26897 0.31212 0.21096 0.0
C1258 C 0.26323 0.32328 0.16581 0.0
C1259 C 0.25734 0.2946 0.19144 0.0
C1260 C 0.26137 0.31049 0.12286 0.0
C1261 C 0.26912 0.35689 0.11565 0.0
N1262 N 0.25516 0.30049 0.16968 0.0
N1263 N 0.26636 0.35091 0.13719 0.0
H1264 H 0.24054 0.95325 0.0441 0.0
H1265 H 0.19442 0.06042 0.01702 0.0
H1266 H 0.24937 0.98539 0.98202 0.0
H1267 H 0.18088 0.02558 0.07665 0.0
H1268 H 0.22041 0.03722 0.00728 0.0
H1269 H 0.22346 0.98314 0.05928 0.0
C1270 C 0.23889 0.96659 0.03368 0.0
C1271 C 0.24613 0.96674 0.01168 0.0
C1272 C 0.21222 0.03501 0.02282 0.0
C1273 C 0.22688 0.00096 0.02896 0.0
C1274 C 0.19767 0.0484 0.02845 0.0
C1275 C 0.18599 0.04489 0.04773 0.0
C1276 C 0.21477 0.01796 0.03652 0.0
C1277 C 0.18998 0.02877 0.06178 0.0
C1278 C 0.22926 0.98369 0.04239 0.0
C1279 C 0.24384 0.98453 -0.001 0.0
N1280 N 0.20395 0.01566 0.05578 0.0
N1281 N 0.23428 0.00087 0.00778 0.0
H1282 H 0.72889 0.63634 0.00647 0.0
H1283 H 0.60011 0.61151 0.04018 0.0
H1284 H 0.69174 0.68793 0.01131 0.0
H1285 H 0.61865 0.55478 0.00239 0.0
H1286 H 0.63764 0.6392 0.0358 0.0
H1287 H 0.69186 0.60546 0.0095 0.0
C1288 C 0.71299 0.64114 0.00796 0.0
C1289 C 0.71345 0.66479 0.00867 0.0
C1290 C 0.63353 0.6207 0.02844 0.0
C1291 C 0.67157 0.62989 0.01263 0.0
C1292 C 0.61211 0.60477 0.03104 0.0
C1293 C 0.60608 0.58071 0.02151 0.0
C1294 C 0.64932 0.61266 0.01637 0.0
C1295 C 0.62254 0.57319 0.00991 0.0
C1296 C 0.69196 0.62356 0.00968 0.0
C1297 C 0.69233 0.67001 0.01064 0.0
N1298 N 0.64352 0.58916 0.00765 0.0
N1299 N 0.67242 0.6528 0.0128 0.0
H1300 H 0.67157 0.50481 0.25931 0.0
H1301 H 0.71458 0.39791 0.29461 0.0
H1302 H 0.64581 0.46529 0.31321 0.0
H1303 H 0.74858 0.445 0.2495 0.0
H1304 H 0.68807 0.42129 0.30035 0.0
H1305 H 0.69836 0.48159 0.25377 0.0
C1306 C 0.67151 0.49124 0.26998 0.0
C1307 C 0.6564 0.48701 0.28678 0.0
C1308 C 0.70135 0.42651 0.28921 0.0
C1309 C 0.68707 0.46038 0.28051 0.0
C1310 C 0.71665 0.41326 0.28604 0.0
C1311 C 0.73397 0.41947 0.27157 0.0
C1312 C 0.70319 0.44605 0.27771 0.0
C1313 C 0.73533 0.43928 0.26054 0.0
C1314 C 0.68686 0.47802 0.26683 0.0
C1315 C 0.65712 0.46918 0.30006 0.0
N1316 N 0.72012 0.45182 0.2638 0.0
N1317 N 0.67219 0.45651 0.29663 0.0
H1318 H 0.83989 0.4793 0.53025 0.0
H1319 H 0.96879 0.47843 0.52407 0.0
H1320 H 0.86629 0.42201 0.54435 0.0
H1321 H 0.94773 0.54058 0.51778 0.0
H1322 H 0.93349 0.46129 0.54006 0.0
H1323 H 0.88062 0.50585 0.536 0.0
C1324 C 0.85424 0.47248 0.53532 0.0
C1325 C 0.84993 0.44823 0.53579 0.0
C1326 C 0.93645 0.47871 0.5353 0.0
C1327 C 0.89622 0.4783 0.54209 0.0
C1328 C 0.95659 0.48848 0.52587 0.0
C1329 C 0.96104 0.51088 0.51921 0.0
C1330 C 0.91994 0.49089 0.53726 0.0
C1331 C 0.94472 0.52309 0.52236 0.0
C1332 C 0.87749 0.48765 0.53851 0.0
C1333 C 0.86899 0.44042 0.54292 0.0
N1334 N 0.92456 0.51272 0.53081 0.0
N1335 N 0.89141 0.45534 0.54528 0.0
H1336 H 0.32603 0.06176 0.31349 0.0
H1337 H 0.32908 0.17903 0.26502 0.0
H1338 H 0.38712 0.10092 0.28572 0.0
H1339 H 0.26435 0.12111 0.25989 0.0
H1340 H 0.35192 0.15321 0.27614 0.0
H1341 H 0.30429 0.08689 0.29887 0.0
C1342 C 0.33501 0.07593 0.30467 0.0
C1343 C 0.35842 0.07941 0.30086 0.0
C1344 C 0.33276 0.14608 0.27216 0.0
C1345 C 0.33358 0.10785 0.28393 0.0
C1346 C 0.3198 0.16069 0.26582 0.0
C1347 C 0.29497 0.15194 0.2616 0.0
C1348 C 0.32063 0.12285 0.27469 0.0
C1349 C 0.28353 0.12826 0.26291 0.0
C1350 C 0.32248 0.08999 0.29606 0.0
C1351 C 0.36909 0.09777 0.28902 0.0
N1352 N 0.29651 0.11451 0.26971 0.0
N1353 N 0.35655 0.11146 0.281 0.0
H1354 H 0.31743 0.14879 0.53652 0.0
H1355 H 0.43598 0.11856 0.51653 0.0
H1356 H 0.37121 0.18984 0.50138 0.0
H1357 H 0.38051 0.07472 0.54794 0.0
H1358 H 0.41263 0.14512 0.51141 0.0
H1359 H 0.3406 0.12193 0.54175 0.0
C1360 C 0.3341 0.15218 0.5299 0.0
C1361 C 0.34238 0.17164 0.51849 0.0
C1362 C 0.40556 0.1297 0.51944 0.0
C1363 C 0.36898 0.14091 0.52442 0.0
C1364 C 0.41882 0.1144 0.52224 0.0
C1365 C 0.4102 0.09425 0.53261 0.0
C1366 C 0.3835 0.12497 0.52716 0.0
C1367 C 0.38805 0.09015 0.54011 0.0
C1368 C 0.34732 0.13681 0.53289 0.0
C1369 C 0.36413 0.17512 0.51031 0.0
N1370 N 0.37547 0.10537 0.53723 0.0
N1371 N 0.37664 0.15991 0.51343 0.0
H1372 H 0.68954 0.60195 0.29858 0.0
H1373 H 0.71881 0.72451 0.25021 0.0
H1374 H 0.63776 0.62975 0.26539 0.0
H1375 H 0.76748 0.71335 0.30492 0.0
H1376 H 0.6919 0.68526 0.24985 0.0
H1377 H 0.72099 0.63878 0.2961 0.0
C1378 C 0.68484 0.6157 0.29071 0.0
C1379 C 0.66104 0.61295 0.28237 0.0
C1380 C 0.70846 0.69132 0.26196 0.0
C1381 C 0.69656 0.65446 0.27918 0.0
C1382 C 0.7239 0.7138 0.2622 0.0
C1383 C 0.74529 0.72243 0.27793 0.0
C1384 C 0.71426 0.67719 0.2776 0.0
C1385 C 0.75104 0.70743 0.29266 0.0
C1386 C 0.7027 0.63663 0.28937 0.0
C1387 C 0.65581 0.63121 0.27232 0.0
N1388 N 0.73545 0.68548 0.2923 0.0
N1389 N 0.6734 0.65108 0.27097 0.0
H1390 H 0.86539 0.44958 0.73078 0.0
H1391 H 0.80279 0.38356 0.81044 0.0
H1392 H 0.84641 0.49145 0.78616 0.0
H1393 H 0.77446 0.35961 0.73708 0.0
H1394 H 0.81483 0.42444 0.80289 0.0
H1395 H 0.82906 0.41716 0.73083 0.0
C1396 C 0.85314 0.45218 0.74235 0.0
C1397 C 0.85891 0.4729 0.75869 0.0
C1398 C 0.80509 0.41024 0.78865 0.0
C1399 C 0.81819 0.43599 0.7595 0.0
C1400 C 0.79831 0.38699 0.79298 0.0
C1401 C 0.78859 0.36839 0.77418 0.0
C1402 C 0.80245 0.41441 0.76544 0.0
C1403 C 0.78284 0.37361 0.75187 0.0
C1404 C 0.83242 0.4338 0.74236 0.0
C1405 C 0.84255 0.47557 0.77338 0.0
N1406 N 0.79065 0.39616 0.74791 0.0
N1407 N 0.82328 0.45689 0.77413 0.0
H1408 H 0.03363 0.8607 0.08194 0.0
H1409 H 0.08823 0.99168 0.05301 0.0
H1410 H 0.10432 0.88612 0.06553 0.0
H1411 H 0.01341 0.95363 0.03521 0.0
H1412 H 0.09499 0.95553 0.06371 0.0
H1413 H 0.0263 0.89665 0.07096 0.0
C1414 C 0.04765 0.87379 0.07613 0.0
C1415 C 0.06963 0.87008 0.07461 0.0
C1416 C 0.07708 0.95509 0.05748 0.0
C1417 C 0.06145 0.91179 0.06242 0.0
C1418 C 0.07318 0.9758 0.05142 0.0
C1419 C 0.05019 0.97589 0.04306 0.0
C1420 C 0.05783 0.93422 0.05584 0.0
C1421 C 0.03147 0.95453 0.04138 0.0
C1422 C 0.04341 0.89432 0.06977 0.0
C1423 C 0.08703 0.88792 0.06688 0.0
N1424 N 0.03565 0.93477 0.04788 0.0
N1425 N 0.08267 0.9079 0.06134 0.0
H1426 H 0.95292 0.27794 0.87985 0.0
H1427 H 0.82012 0.28405 0.85376 0.0
H1428 H 0.89982 0.25601 0.9238 0.0
H1429 H 0.87108 0.30393 0.80721 0.0
H1430 H 0.84948 0.27407 0.87947 0.0
H1431 H 0.92355 0.28695 0.85265 0.0
C1432 C 0.93505 0.2747 0.88367 0.0
C1433 C 0.92897 0.26611 0.90426 0.0
C1434 C 0.85435 0.28069 0.86369 0.0
C1435 C 0.89522 0.27682 0.87323 0.0
C1436 C 0.83755 0.28655 0.84896 0.0
C1437 C 0.84301 0.29503 0.82816 0.0
C1438 C 0.87701 0.28323 0.8578 0.0
C1439 C 0.866 0.29764 0.82305 0.0
C1440 C 0.9183 0.28001 0.86817 0.0
C1441 C 0.90548 0.26253 0.90823 0.0
N1442 N 0.88208 0.29175 0.8377 0.0
N1443 N 0.88963 0.26798 0.89302 0.0
H1444 H 0.53587 0.22655 0.59186 0.0
H1445 H 0.57355 0.12299 0.52109 0.0
H1446 H 0.58255 0.23827 0.54038 0.0
H1447 H 0.52394 0.11045 0.56983 0.0
H1448 H 0.57714 0.16515 0.52802 0.0
H1449 H 0.53071 0.18405 0.58362 0.0
C1450 C 0.5448 0.22024 0.5786 0.0
C1451 C 0.55962 0.23628 0.56679 0.0
C1452 C 0.56548 0.15319 0.53724 0.0
C1453 C 0.55409 0.1873 0.5575 0.0
C1454 C 0.56348 0.12903 0.53334 0.0
C1455 C 0.54846 0.11289 0.5449 0.0
C1456 C 0.55238 0.16154 0.55286 0.0
C1457 C 0.53582 0.12204 0.56051 0.0
C1458 C 0.54195 0.19589 0.574 0.0
C1459 C 0.57086 0.22678 0.54994 0.0
N1460 N 0.53807 0.14559 0.56399 0.0
N1461 N 0.56797 0.20311 0.54593 0.0
H1462 H 0.58805 0.82268 0.42814 0.0
H1463 H 0.62732 0.76301 0.31564 0.0
H1464 H 0.54199 0.75925 0.383 0.0
H1465 H 0.66523 0.83318 0.35351 0.0
H1466 H 0.5971 0.75967 0.34128 0.0
H1467 H 0.61745 0.82528 0.40208 0.0
C1468 C 0.58406 0.80926 0.41272 0.0
C1469 C 0.56241 0.79071 0.40783 0.0
C1470 C 0.61202 0.7758 0.34392 0.0
C1471 C 0.59634 0.79354 0.37777 0.0
C1472 C 0.62937 0.77768 0.32939 0.0
C1473 C 0.64888 0.79846 0.3323 0.0
C1474 C 0.61426 0.79475 0.36172 0.0
C1475 C 0.6504 0.81694 0.35032 0.0
C1476 C 0.60091 0.8108 0.39779 0.0
C1477 C 0.55837 0.77391 0.38748 0.0
N1478 N 0.63343 0.81461 0.36431 0.0
N1479 N 0.5752 0.77566 0.37327 0.0
H1480 H 0.05156 0.24941 0.38199 0.0
H1481 H 0.0355 0.20278 0.5042 0.0
H1482 H 0.04256 0.28946 0.44484 0.0
H1483 H 0.0408 0.15777 0.44287 0.0
H1484 H 0.04175 0.23559 0.48258 0.0
H1485 H 0.05191 0.21663 0.40382 0.0
C1486 C 0.05013 0.25147 0.4004 0.0
C1487 C 0.04685 0.27207 0.4116 0.0
C1488 C 0.04165 0.2186 0.47373 0.0
C1489 C 0.04706 0.23495 0.43646 0.0
C1490 C 0.0379 0.19975 0.4861 0.0
C1491 C 0.03729 0.17734 0.47531 0.0
C1492 C 0.0448 0.21524 0.4502 0.0
C1493 C 0.04116 0.17475 0.45192 0.0
C1494 C 0.05014 0.23276 0.4128 0.0
C1495 C 0.04486 0.2738 0.43542 0.0
N1496 N 0.04457 0.19344 0.44005 0.0
N1497 N 0.04488 0.25554 0.44692 0.0
H1498 H 0.58176 0.23265 0.25451 0.0
H1499 H 0.71366 0.31447 0.24944 0.0
H1500 H 0.59643 0.29315 0.21895 0.0
H1501 H 0.69825 0.24338 0.26473 0.0
H1502 H 0.6712 0.30904 0.24249 0.0
H1503 H 0.62438 0.23876 0.26307 0.0
C1504 C 0.5939 0.24746 0.24876 0.0
C1505 C 0.58525 0.26244 0.23598 0.0
C1506 C 0.67704 0.29458 0.24732 0.0
C1507 C 0.63447 0.26943 0.24573 0.0
C1508 C 0.70138 0.29765 0.25134 0.0
C1509 C 0.70975 0.27933 0.25764 0.0
C1510 C 0.66064 0.27311 0.24989 0.0
C1511 C 0.69274 0.25797 0.25977 0.0
C1512 C 0.6183 0.25078 0.25352 0.0
C1513 C 0.60209 0.28115 0.22889 0.0
N1514 N 0.66908 0.25551 0.25604 0.0
N1515 N 0.62578 0.28411 0.23387 0.0
H1516 H 0.55594 0.90861 0.87486 0.0
H1517 H 0.52928 0.96928 0.99129 0.0
H1518 H 0.56715 0.88677 0.94166 0.0
H1519 H 0.55177 0.01213 0.93876 0.0
H1520 H 0.5402 0.93758 0.97043 0.0
H1521 H 0.55384 0.94638 0.89518 0.0
C1522 C 0.55909 0.91222 0.8938 0.0
C1523 C 0.56205 0.8947 0.90666 0.0
C1524 C 0.54283 0.9539 0.9634 0.0
C1525 C 0.55849 0.93705 0.92979 0.0
C1526 C 0.53633 0.97201 0.97521 0.0
C1527 C 0.53945 0.99346 0.96675 0.0
C1528 C 0.55223 0.95684 0.94261 0.0
C1529 C 0.549 0.99586 0.94588 0.0
C1530 C 0.55753 0.9336 0.90536 0.0
C1531 C 0.56513 0.89991 0.93112 0.0
N1532 N 0.55486 0.97766 0.93435 0.0
N1533 N 0.56286 0.92034 0.94181 0.0
H1534 H 0.94607 0.72604 0.74824 0.0
H1535 H 0.86456 0.81075 0.75029 0.0
H1536 H 0.95995 0.78701 0.7134 0.0
H1537 H 0.84245 0.74033 0.76743 0.0
H1538 H 0.90098 0.80439 0.73979 0.0
H1539 H 0.91006 0.73309 0.75845 0.0
C1540 C 0.9417 0.74104 0.74279 0.0
C1541 C 0.95638 0.75595 0.72989 0.0
C1542 C 0.88817 0.79032 0.74582 0.0
C1543 C 0.91458 0.76421 0.74179 0.0
C1544 C 0.86731 0.79394 0.75192 0.0
C1545 C 0.85017 0.77606 0.75982 0.0
C1546 C 0.89231 0.76873 0.74786 0.0
C1547 C 0.85496 0.75467 0.76143 0.0
C1548 C 0.92094 0.74498 0.7486 0.0
C1549 C 0.94936 0.775 0.72334 0.0
N1550 N 0.8755 0.75169 0.75564 0.0
N1551 N 0.92911 0.77862 0.72943 0.0
H1552 H 0.12035 0.02706 0.86034 0.0
H1553 H 0.01995 0.00848 0.94217 0.0
H1554 H 0.04696 0.01953 0.83748 0.0
H1555 H 0.09466 0.03573 0.97043 0.0
H1556 H 0.02977 0.00376 0.90304 0.0
H1557 H 0.11123 0.02169 0.89981 0.0
C1558 C 0.10223 0.02366 0.86348 0.0
C1559 C 0.08436 0.02381 0.84571 0.0
C1560 C 0.04408 0.01065 0.91776 0.0
C1561 C 0.0739 0.01781 0.89054 0.0
C1562 C 0.0385 0.01338 0.9402 0.0
C1563 C 0.05652 0.02291 0.95969 0.0
C1564 C 0.0679 0.01753 0.91453 0.0
C1565 C 0.0802 0.0285 0.9559 0.0
C1566 C 0.0971 0.02084 0.88601 0.0
C1567 C 0.06127 0.01967 0.85073 0.0
N1568 N 0.08524 0.02597 0.9337 0.0
N1569 N 0.05675 0.01694 0.87264 0.0
H1570 H 0.75062 0.3251 0.53071 0.0
H1571 H 0.81814 0.38291 0.65539 0.0
H1572 H 0.77259 0.40054 0.55451 0.0
H1573 H 0.77528 0.30935 0.6385 0.0
H1574 H 0.79712 0.39052 0.62019 0.0
H1575 H 0.75296 0.31899 0.57143 0.0
C1576 C 0.75514 0.34027 0.5445 0.0
C1577 C 0.76183 0.36325 0.53936 0.0
C1578 C 0.79199 0.37279 0.62441 0.0
C1579 C 0.76567 0.35663 0.58568 0.0
C1580 C 0.80407 0.36847 0.64439 0.0
C1581 C 0.79883 0.34538 0.64931 0.0
C1582 C 0.77473 0.35381 0.60934 0.0
C1583 C 0.78035 0.32726 0.63475 0.0
C1584 C 0.75663 0.33686 0.56774 0.0
C1585 C 0.76744 0.38244 0.55777 0.0
N1586 N 0.76919 0.33178 0.61519 0.0
N1587 N 0.77002 0.37874 0.5802 0.0
H1588 H 0.42134 0.05391 0.36707 0.0
H1589 H 0.50735 0.00869 0.44794 0.0
H1590 H 0.41228 0.97969 0.36716 0.0
H1591 H 0.4898 0.07085 0.47393 0.0
H1592 H 0.47736 0.0014 0.41331 0.0
H1593 H 0.44989 0.06356 0.40343 0.0
C1594 C 0.42503 0.03966 0.3749 0.0
C1595 C 0.41476 0.01599 0.36389 0.0
C1596 C 0.48023 0.01671 0.42657 0.0
C1597 C 0.44753 0.02695 0.40468 0.0
C1598 C 0.4975 0.02104 0.4461 0.0
C1599 C 0.50085 0.04031 0.4637 0.0
C1600 C 0.46663 0.032 0.42456 0.0
C1601 C 0.48752 0.0557 0.46067 0.0
C1602 C 0.44133 0.0452 0.3955 0.0
C1603 C 0.42003 0.9982 0.37483 0.0
N1604 N 0.47089 0.05123 0.44137 0.0
N1605 N 0.43639 0.00409 0.39443 0.0
H1606 H 0.77513 0.78179 0.08117 0.0
H1607 H 0.80387 0.75315 0.20945 0.0
H1608 H 0.80778 0.72894 0.09617 0.0
H1609 H 0.76697 0.8029 0.19481 0.0
H1610 H 0.80786 0.74637 0.1685 0.0
H1611 H 0.77538 0.79251 0.12292 0.0
C1612 C 0.78267 0.77262 0.09325 0.0
C1613 C 0.79128 0.75424 0.08502 0.0
C1614 C 0.79887 0.75877 0.17415 0.0
C1615 C 0.79133 0.76636 0.13304 0.0
C1616 C 0.79647 0.76265 0.19764 0.0
C1617 C 0.7849 0.77859 0.20574 0.0
C1618 C 0.78965 0.77085 0.15837 0.0
C1619 C 0.77588 0.79036 0.18941 0.0
C1620 C 0.78268 0.77871 0.11713 0.0
C1621 C 0.80091 0.74316 0.10161 0.0
N1622 N 0.77843 0.78623 0.16649 0.0
N1623 N 0.80049 0.74925 0.12478 0.0
H1624 H 0.04305 0.0409 0.71992 0.0
H1625 H 0.08455 0.0323 0.59455 0.0
H1626 H 0.106 0.02371 0.70694 0.0
H1627 H 0.02128 0.04932 0.60655 0.0
H1628 H 0.09187 0.02809 0.63543 0.0
H1629 H 0.03334 0.04158 0.67825 0.0
C1630 C 0.05469 0.03693 0.70826 0.0
C1631 C 0.07549 0.03239 0.71703 0.0
C1632 C 0.07637 0.03274 0.62921 0.0
C1633 C 0.06462 0.03358 0.66921 0.0
C1634 C 0.07218 0.03524 0.60581 0.0
C1635 C 0.05223 0.04118 0.59703 0.0
C1636 C 0.06047 0.0361 0.64413 0.0
C1637 C 0.03697 0.04489 0.61258 0.0
C1638 C 0.04916 0.03746 0.68445 0.0
C1639 C 0.08977 0.02726 0.70102 0.0
N1640 N 0.04137 0.04221 0.63537 0.0
N1641 N 0.0842 0.02824 0.67796 0.0
H1642 H 0.8132 0.3786 0.45298 0.0
H1643 H 0.75639 0.34279 0.32188 0.0
H1644 H 0.75379 0.40044 0.42712 0.0
H1645 H 0.78492 0.29632 0.35797 0.0
H1646 H 0.75574 0.36525 0.35956 0.0
H1647 H 0.80505 0.35009 0.4172 0.0
C1648 C 0.79827 0.37721 0.43988 0.0
C1649 C 0.78385 0.39156 0.44312 0.0
C1650 C 0.76165 0.34984 0.35925 0.0
C1651 C 0.77473 0.3593 0.40219 0.0
C1652 C 0.76205 0.33713 0.33787 0.0
C1653 C 0.77084 0.31798 0.3372 0.0
C1654 C 0.77077 0.34362 0.37984 0.0
C1655 C 0.77798 0.31105 0.35807 0.0
C1656 C 0.7936 0.36088 0.41955 0.0
C1657 C 0.7652 0.38956 0.4253 0.0
N1658 N 0.77827 0.32425 0.37875 0.0
N1659 N 0.76123 0.37373 0.40541 0.0
H1660 H 0.44679 0.04197 0.25281 0.0
H1661 H 0.44932 0.97329 0.13141 0.0
H1662 H 0.41621 0.96585 0.23588 0.0
H1663 H 0.51342 0.0273 0.16698 0.0
H1664 H 0.43244 0.97457 0.16764 0.0
H1665 H 0.46827 0.04116 0.21932 0.0
C1666 C 0.44477 0.02517 0.24218 0.0
C1667 C 0.42974 0.00395 0.24694 0.0
C1668 C 0.45025 0.98603 0.16748 0.0
C1669 C 0.4535 0.00305 0.20897 0.0
C1670 C 0.45976 0.98536 0.14694 0.0
C1671 C 0.48267 1.00014 0.14654 0.0
C1672 C 0.46363 0.00192 0.18745 0.0
C1673 C 0.4957 0.01556 0.16692 0.0
C1674 C 0.45703 0.02473 0.22329 0.0
C1675 C 0.42769 0.98259 0.23281 0.0
N1676 N 0.48585 0.01627 0.1867 0.0
N1677 N 0.43917 0.98271 0.21419 0.0
H1678 H 0.80613 0.78042 0.96683 0.0
H1679 H 0.78478 0.73107 0.83253 0.0
H1680 H 0.79901 0.7076 0.942 0.0
H1681 H 0.82232 0.80465 0.86001 0.0
H1682 H 0.78968 0.72181 0.87216 0.0
H1683 H 0.81255 0.78981 0.92802 0.0
C1684 C 0.80642 0.7665 0.95327 0.0
C1685 C 0.80205 0.74321 0.95759 0.0
C1686 C 0.79713 0.73992 0.86947 0.0
C1687 C 0.80864 0.75367 0.9129 0.0
C1688 C 0.79423 0.74525 0.84688 0.0
C1689 C 0.80296 0.76871 0.84297 0.0
C1690 C 0.8084 0.75823 0.8884 0.0
C1691 C 0.81526 0.78633 0.8622 0.0
C1692 C 0.81005 0.77186 0.93112 0.0
C1693 C 0.80249 0.72581 0.93941 0.0
N1694 N 0.81726 0.7808 0.88413 0.0
N1695 N 0.80521 0.73129 0.91768 0.0
H1696 H 0.80955 0.08041 0.06073 0.0
H1697 H 0.91082 0.06643 0.98904 0.0
H1698 H 0.84941 0.13454 0.02527 0.0
H1699 H 0.86551 0.00904 0.01657 0.0
H1700 H 0.88622 0.09074 -0.0005 0.0
H1701 H 0.82882 0.05335 0.04362 0.0
C1702 C 0.82253 0.08664 0.04953 0.0
C1703 C 0.82803 0.1097 0.04444 0.0
C1704 C 0.88126 0.07267 0.00281 0.0
C1705 C 0.8497 0.07892 0.02462 0.0
C1706 C 0.89513 0.05882 -0.00337 0.0
C1707 C 0.88981 0.0359 0.0019 0.0
C1708 C 0.86228 0.0635 0.01463 0.0
C1709 C 0.86978 0.02666 0.01211 0.0
C1710 C 0.83329 0.07114 0.03957 0.0
C1711 C 0.8447 0.11687 0.02962 0.0
N1712 N 0.85679 0.0407 0.0185 0.0
N1713 N 0.85501 0.1015 0.02025 0.0
H1714 H 0.38141 0.40485 0.07128 0.0
H1715 H 0.44923 0.51813 0.01766 0.0
H1716 H 0.34436 0.44285 0.03153 0.0
H1717 H 0.48274 0.47317 0.05077 0.0
H1718 H 0.41089 0.49406 0.02601 0.0
H1719 H 0.41894 0.43373 0.06836 0.0
C1720 C 0.38115 0.41947 0.06216 0.0
C1721 C 0.35971 0.42127 0.05141 0.0
C1722 C 0.4267 0.48959 0.03148 0.0
C1723 C 0.40283 0.45436 0.04764 0.0
C1724 C 0.44856 0.50327 0.0267 0.0
C1725 C 0.46923 0.49758 0.03336 0.0
C1726 C 0.42562 0.47022 0.04314 0.0
C1727 C 0.46732 0.47817 0.04508 0.0
C1728 C 0.40264 0.43594 0.06041 0.0
C1729 C 0.36049 0.44076 0.04003 0.0
N1730 N 0.44596 0.46525 0.04955 0.0
N1731 N 0.38176 0.45643 0.03818 0.0
H1732 H 0.37275 0.5589 0.80017 0.0
H1733 H 0.36742 0.68697 0.78068 0.0
H1734 H 0.42525 0.60694 0.7691 0.0
H1735 H 0.30924 0.63237 0.79794 0.0
H1736 H 0.39022 0.65929 0.77868 0.0
H1737 H 0.35087 0.58723 0.80235 0.0
C1738 C 0.37974 0.57544 0.79385 0.0
C1739 C 0.40089 0.58049 0.7844 0.0
C1740 C 0.37247 0.65343 0.78293 0.0
C1741 C 0.37581 0.61313 0.78687 0.0
C1742 C 0.35935 0.66918 0.78396 0.0
C1743 C 0.33629 0.6621 0.78954 0.0
C1744 C 0.36256 0.63046 0.78768 0.0
C1745 C 0.32705 0.63889 0.79401 0.0
C1746 C 0.36718 0.5916 0.79504 0.0
C1747 C 0.40901 0.60226 0.77647 0.0
N1748 N 0.3402 0.62398 0.79303 0.0
N1749 N 0.39647 0.6178 0.77791 0.0
H1750 H 0.21037 0.66068 0.58099 0.0
H1751 H 0.10812 0.54154 0.55216 0.0
H1752 H 0.22994 0.59882 0.55798 0.0
H1753 H 0.1049 0.60085 0.51834 0.0
H1754 H 0.15109 0.5607 0.56419 0.0
H1755 H 0.16876 0.63706 0.57006 0.0
C1756 C 0.20598 0.642 0.57422 0.0
C1757 C 0.22365 0.63176 0.57005 0.0
C1758 C 0.14087 0.56925 0.55394 0.0
C1759 C 0.17621 0.60491 0.55771 0.0
C1760 C 0.11653 0.55851 0.54718 0.0
C1761 C 0.10314 0.56989 0.5345 0.0
C1762 C 0.15143 0.59168 0.54852 0.0
C1763 C 0.11469 0.59163 0.52817 0.0
C1764 C 0.18227 0.62869 0.56779 0.0
C1765 C 0.21682 0.60741 0.56129 0.0
N1766 N 0.13825 0.60211 0.53567 0.0
N1767 N 0.19343 0.59468 0.55523 0.0
H1768 H 0.70354 0.99234 0.74839 0.0
H1769 H 0.7699 0.92926 0.83241 0.0
H1770 H 0.71628 0.01226 0.82363 0.0
H1771 H 0.77819 0.93221 0.76015 0.0
H1772 H 0.74429 0.95417 0.82945 0.0
H1773 H 0.72339 0.96284 0.75241 0.0
C1774 C 0.7102 0.99028 0.7658 0.0
C1775 C 0.70868 0.00507 0.78573 0.0
C1776 C 0.75177 0.94929 0.81431 0.0
C1777 C 0.7315 0.97148 0.79034 0.0
C1778 C 0.76655 0.93535 0.81603 0.0
C1779 C 0.77619 0.92875 0.79649 0.0
C1780 C 0.7465 0.95634 0.79287 0.0
C1781 C 0.77087 0.93665 0.77554 0.0
C1782 C 0.72164 0.97353 0.76804 0.0
C1783 C 0.71738 0.00141 0.80783 0.0
N1784 N 0.75629 0.94999 0.77426 0.0
N1785 N 0.7287 0.98505 0.80956 0.0
H1786 H 0.73342 0.91845 0.55216 0.0
H1787 H 0.66544 0.98559 0.47303 0.0
H1788 H 0.73912 0.92185 0.47949 0.0
H1789 H 0.662 0.98503 0.54646 0.0
H1790 H 0.69159 0.96131 0.47487 0.0
H1791 H 0.70615 0.94166 0.55014 0.0
C1792 C 0.72892 0.92403 0.53576 0.0
C1793 C 0.73866 0.91823 0.51597 0.0
C1794 C 0.6851 0.96646 0.49059 0.0
C1795 C 0.70742 0.94483 0.51356 0.0
C1796 C 0.67027 0.98047 0.48959 0.0
C1797 C 0.66157 0.9875 0.50965 0.0
C1798 C 0.69131 0.95935 0.51181 0.0
C1799 C 0.66806 0.97986 0.53049 0.0
C1800 C 0.71335 0.9373 0.53463 0.0
C1801 C 0.73214 0.92594 0.49521 0.0
N1802 N 0.68257 0.96625 0.53103 0.0
N1803 N 0.71696 0.93885 0.49456 0.0
H1804 H 0.37784 0.48116 0.7599 0.0
H1805 H 0.3551 0.34512 0.77124 0.0
H1806 H 0.43198 0.4486 0.77517 0.0
H1807 H 0.29834 0.37571 0.77159 0.0
H1808 H 0.38266 0.38359 0.77029 0.0
H1809 H 0.34747 0.44347 0.76221 0.0
C1810 C 0.38333 0.46621 0.76378 0.0
C1811 C 0.40746 0.46793 0.767 0.0
C1812 C 0.36421 0.38208 0.77059 0.0
C1813 C 0.37317 0.42526 0.76974 0.0
C1814 C 0.34837 0.35998 0.771 0.0
C1815 C 0.32434 0.35717 0.77138 0.0
C1816 C 0.35611 0.40174 0.77035 0.0
C1817 C 0.31678 0.3772 0.77134 0.0
C1818 C 0.36605 0.4448 0.76512 0.0
C1819 C 0.41364 0.44811 0.77213 0.0
N1820 N 0.33265 0.39875 0.7707 0.0
N1821 N 0.39667 0.42773 0.77326 0.0
H1822 H 0.27506 0.62147 0.22966 0.0
H1823 H 0.28338 0.72786 0.32167 0.0
H1824 H 0.26964 0.6177 0.30193 0.0
H1825 H 0.27878 0.72429 0.24683 0.0
H1826 H 0.29611 0.69256 0.3186 0.0
H1827 H 0.29914 0.66282 0.2406 0.0
C1828 C 0.28026 0.62896 0.24808 0.0
C1829 C 0.26898 0.61698 0.26479 0.0
C1830 C 0.29276 0.69984 0.30295 0.0
C1831 C 0.29499 0.66416 0.27724 0.0
C1832 C 0.2851 0.7197 0.30464 0.0
C1833 C 0.2792 0.72847 0.28437 0.0
C1834 C 0.29446 0.68877 0.28085 0.0
C1835 C 0.28247 0.71775 0.26286 0.0
C1836 C 0.2936 0.65279 0.25432 0.0
C1837 C 0.27699 0.62703 0.28838 0.0
N1838 N 0.28959 0.69833 0.26165 0.0
N1839 N 0.28836 0.65069 0.29396 0.0
H1840 H 0.50721 0.69604 0.44365 0.0
H1841 H 0.53524 0.62319 0.54338 0.0
H1842 H 0.49557 0.71269 0.51432 0.0
H1843 H 0.50846 0.58847 0.47208 0.0
H1844 H 0.52789 0.65914 0.53299 0.0
H1845 H 0.51484 0.65983 0.4535 0.0
C1846 C 0.50648 0.69228 0.46129 0.0
C1847 C 0.50069 0.70766 0.47813 0.0
C1848 C 0.52362 0.64367 0.5196 0.0
C1849 C 0.50982 0.66617 0.48965 0.0
C1850 C 0.52786 0.62307 0.5255 0.0
C1851 C 0.52235 0.6025 0.50866 0.0
C1852 C 0.51439 0.64421 0.49645 0.0
C1853 C 0.51282 0.6037 0.48576 0.0
C1854 C 0.51069 0.67148 0.46685 0.0
C1855 C 0.49987 0.70151 0.50067 0.0
N1856 N 0.50938 0.62415 0.4803 0.0
N1857 N 0.50456 0.68154 0.50577 0.0
H1858 H 0.61687 0.30684 0.67407 0.0
H1859 H 0.75004 0.30042 0.69513 0.0
H1860 H 0.66449 0.31988 0.62349 0.0
H1861 H 0.70371 0.29055 0.7471 0.0
H1862 H 0.71855 0.30652 0.66833 0.0
H1863 H 0.64834 0.30088 0.70109 0.0
C1864 C 0.63398 0.30874 0.6687 0.0
C1865 C 0.6379 0.31395 0.64637 0.0
C1866 C 0.71523 0.30289 0.68556 0.0
C1867 C 0.67407 0.30671 0.67722 0.0
C1868 C 0.73319 0.29921 0.70086 0.0
C1869 C 0.72965 0.29483 0.72351 0.0
C1870 C 0.69344 0.30223 0.69285 0.0
C1871 C 0.7074 0.29381 0.72987 0.0
C1872 C 0.65194 0.30518 0.68412 0.0
C1873 C 0.66052 0.31596 0.64047 0.0
N1874 N 0.69027 0.29752 0.71472 0.0
N1875 N 0.6776 0.31225 0.65568 0.0
H1876 H 0.97536 0.33453 0.00931 0.0
H1877 H 0.05556 0.46758 0.00606 0.0
H1878 H 0.03403 0.35088 0.97093 0.0
H1879 H 0.98645 0.45124 0.02704 0.0
H1880 H 0.04996 0.42528 -0.00322 0.0
H1881 H 0.98146 0.37693 0.01982 0.0
C1882 C 0.98977 0.34697 0.0033 0.0
C1883 C 0.00426 0.33879 0.9892 0.0
C1884 C 0.03599 0.43086 0.00342 0.0
C1885 C 0.01126 0.38794 0.00127 0.0
C1886 C 0.03917 0.45515 0.00883 0.0
C1887 C 0.02148 0.46329 0.01747 0.0
C1888 C 0.01503 0.41416 0.00686 0.0
C1889 C 1.00061 0.446 0.02043 0.0
C1890 C 0.9931 0.37129 0.00921 0.0
C1891 C 0.02244 0.3561 0.98188 0.0
N1892 N 0.99805 0.42237 0.01529 0.0
N1893 N 0.02541 0.37969 0.98801 0.0
H1894 H 0.97872 0.81264 0.12183 0.0
H1895 H 0.94544 0.77486 0.24388 0.0
H1896 H 0.02444 0.78967 0.16972 0.0
H1897 H 0.90021 0.79767 0.19529 0.0
H1898 H 0.97435 0.77962 0.21697 0.0
H1899 H 0.94983 0.80709 0.14863 0.0
C1900 C 0.98271 0.80639 0.13797 0.0
C1901 C 0.00411 0.80162 0.14346 0.0
C1902 C 0.9581 0.7836 0.21221 0.0
C1903 C 0.97091 0.79518 0.17439 0.0
C1904 C 0.94147 0.78074 0.22752 0.0
C1905 C 0.92025 0.78589 0.22196 0.0
C1906 C 0.95358 0.7917 0.1911 0.0
C1907 C 0.9164 0.79382 0.2006 0.0
C1908 C 0.96616 0.80323 0.15331 0.0
C1909 C 0.00822 0.79361 0.16472 0.0
N1910 N 0.93285 0.79646 0.18602 0.0
N1911 N 0.99179 0.79063 0.17938 0.0
H1912 H 0.47668 0.30425 0.13082 0.0
H1913 H 0.57561 0.40453 0.08569 0.0
H1914 H 0.55179 0.32012 0.15359 0.0
H1915 H 0.50035 0.39248 0.06929 0.0
H1916 H 0.56758 0.373 0.10957 0.0
H1917 H 0.48533 0.3358 0.10731 0.0
C1918 C 0.49503 0.31436 0.13091 0.0
C1919 C 0.51352 0.30945 0.14427 0.0
C1920 C 0.55283 0.37729 0.10077 0.0
C1921 C 0.5236 0.3458 0.11718 0.0
C1922 C 0.55739 0.39521 0.08701 0.0
C1923 C 0.53864 0.40125 0.07544 0.0
C1924 C 0.52931 0.36514 0.10288 0.0
C1925 C 0.51541 0.38871 0.07809 0.0
C1926 C 0.49996 0.33244 0.11745 0.0
C1927 C 0.53694 0.32325 0.1436 0.0
N1928 N 0.51143 0.37127 0.09143 0.0
N1929 N 0.54131 0.34075 0.13027 0.0
H1930 H 0.97552 0.28878 0.30364 0.0
H1931 H 0.85744 0.30418 0.32828 0.0
H1932 H 0.97657 0.3505 0.35066 0.0
H1933 H 0.86665 0.30916 0.2567 0.0
H1934 H 0.89986 0.30913 0.33816 0.0
H1935 H 0.93449 0.28499 0.28587 0.0
C1936 C 0.96754 0.30195 0.30966 0.0
C1937 C 0.97957 0.32006 0.32863 0.0
C1938 C 0.8925 0.309 0.32026 0.0
C1939 C 0.93275 0.31526 0.30918 0.0
C1940 C 0.86837 0.30624 0.31463 0.0
C1941 C 0.85855 0.30654 0.2917 0.0
C1942 C 0.9069 0.31129 0.30276 0.0
C1943 C 0.87362 0.30919 0.27467 0.0
C1944 C 0.94411 0.29966 0.29969 0.0
C1945 C 0.96801 0.33625 0.33612 0.0
N1946 N 0.89707 0.31129 0.28048 0.0
N1947 N 0.94523 0.33318 0.3268 0.0
H1948 H 0.9922 0.6573 0.67047 0.0
H1949 H 0.0332 0.62443 0.54819 0.0
H1950 H 0.02 0.70907 0.62712 0.0
H1951 H 0.00409 0.57313 0.59156 0.0
H1952 H 0.02742 0.65539 0.57601 0.0
H1953 H 0.99483 0.62622 0.64083 0.0
C1954 C 0.99865 0.66216 0.6546 0.0
C1955 C 0.00592 0.68598 0.6514 0.0
C1956 C 0.02224 0.63736 0.57942 0.0
C1957 C 0.00924 0.65017 0.61724 0.0
C1958 C 0.02555 0.61961 0.56353 0.0
C1959 C 0.01917 0.59601 0.56746 0.0
C1960 C 0.01246 0.63161 0.59953 0.0
C1961 C 0.00935 0.591 0.58773 0.0
C1962 C 1.00021 0.64433 0.63766 0.0
C1963 C 0.01411 0.69102 0.63038 0.0
N1964 N 0.00636 0.6086 0.60295 0.0
N1965 N 0.01569 0.67332 0.61421 0.0
H1966 H 0.63365 0.84055 0.84766 0.0
H1967 H 0.69742 0.76647 0.76773 0.0
H1968 H 0.59663 0.77587 0.79966 0.0
H1969 H 0.73687 0.82818 0.81875 0.0
H1970 H 0.6605 0.77129 0.77804 0.0
H1971 H 0.67137 0.83812 0.83619 0.0
C1972 C 0.63333 0.82599 0.83455 0.0
C1973 C 0.61167 0.80839 0.8247 0.0
C1974 C 0.67719 0.78385 0.78702 0.0
C1975 C 0.65509 0.80544 0.81146 0.0
C1976 C 0.69843 0.7811 0.78109 0.0
C1977 C 0.72058 0.79689 0.79233 0.0
C1978 C 0.67774 0.80256 0.80442 0.0
C1979 C 0.72037 0.8155 0.80953 0.0
C1980 C 0.65496 0.82455 0.82808 0.0
C1981 C 0.61269 0.78986 0.8079 0.0
N1982 N 0.69942 0.81778 0.81503 0.0
N1983 N 0.63381 0.78891 0.80191 0.0
H1984 H 0.48512 0.57896 0.70491 0.0
H1985 H 0.47743 0.5112 0.57563 0.0
H1986 H 0.46546 0.50314 0.68584 0.0
H1987 H 0.5267 0.58135 0.60102 0.0
H1988 H 0.46378 0.51111 0.6135 0.0
H1989 H 0.49194 0.5829 0.66436 0.0
C1990 C 0.48189 0.56321 0.69212 0.0
C1991 C 0.47494 0.54071 0.69865 0.0
C1992 C 0.47741 0.52662 0.61067 0.0
C1993 C 0.48219 0.54498 0.65263 0.0
C1994 C 0.48516 0.52673 0.58901 0.0
C1995 C 0.50347 0.54618 0.58518 0.0
C1996 C 0.48783 0.54617 0.62862 0.0
C1997 C 0.51272 0.56585 0.60327 0.0
C1998 C 0.48587 0.56544 0.66912 0.0
C1999 C 0.47107 0.52081 0.68153 0.0
N2000 N 0.5049 0.5653 0.62427 0.0
N2001 N 0.4747 0.5234 0.65936 0.0
H2002 H 0.8062 0.2062 -0.00307 0.0
H2003 H 0.72112 0.2564 0.91792 0.0
H2004 H 0.72979 0.17641 0.9824 0.0
H2005 H 0.79723 0.27978 0.92176 0.0
H2006 H 0.72484 0.23126 0.9469 0.0
H2007 H 0.80403 0.23524 0.97162 0.0
C2008 C 0.78902 0.20542 0.98798 0.0
C2009 C 0.76809 0.18913 0.9919 0.0
C2010 C 0.74078 0.24211 0.94163 0.0
C2011 C 0.76549 0.22248 0.96365 0.0
C2012 C 0.73867 0.25675 0.92543 0.0
C2013 C 0.75888 0.26975 0.9173 0.0
C2014 C 0.76321 0.24052 0.94955 0.0
C2015 C 0.78123 0.26957 0.92741 0.0
C2016 C 0.78779 0.22219 0.97383 0.0
C2017 C 0.74631 0.18891 0.98002 0.0
N2018 N 0.78281 0.25478 0.94282 0.0
N2019 N 0.74556 0.20554 0.96656 0.0
H2020 H 0.13366 0.5929 0.20159 0.0
H2021 H 0.08963 0.51478 0.08139 0.0
H2022 H 0.15715 0.53192 0.1874 0.0
H2023 H 0.04233 0.54311 0.11699 0.0
H2024 H 0.11496 0.51981 0.11896 0.0
H2025 H 0.10106 0.57565 0.1692 0.0
C2026 C 0.13199 0.57588 0.19157 0.0
C2027 C 0.14825 0.56391 0.19692 0.0
C2028 C 0.0987 0.52429 0.1186 0.0
C2029 C 0.11092 0.54408 0.16003 0.0
C2030 C 0.08436 0.52153 0.09726 0.0
C2031 C 0.06422 0.52891 0.09632 0.0
C2032 C 0.0931 0.53515 0.1388 0.0
C2033 C 0.05785 0.53735 0.11717 0.0
C2034 C 0.11318 0.56591 0.17335 0.0
C2035 C 0.14503 0.54175 0.18364 0.0
N2036 N 0.07267 0.54087 0.13764 0.0
N2037 N 0.12686 0.53265 0.16542 0.0
H2038 H 0.75881 0.85015 0.46197 0.0
H2039 H 0.82208 0.80238 0.36251 0.0
H2040 H 0.81261 0.81686 0.47584 0.0
H2041 H 0.75278 0.81024 0.34731 0.0
H2042 H 0.82084 0.81132 0.4044 0.0
H2043 H 0.75762 0.83862 0.41983 0.0
C2044 C 0.77015 0.84023 0.45622 0.0
C2045 C 0.78585 0.83453 0.47255 0.0
C2046 C 0.80588 0.81099 0.39186 0.0
C2047 C 0.78494 0.82178 0.42447 0.0
C2048 C 0.80664 0.806 0.36796 0.0
C2049 C 0.7875 0.80548 0.35135 0.0
C2050 C 0.78603 0.8159 0.39922 0.0
C2051 C 0.7679 0.81028 0.35947 0.0
C2052 C 0.76951 0.83371 0.43219 0.0
C2053 C 0.80022 0.82172 0.464 0.0
N2054 N 0.76773 0.81544 0.38279 0.0
N2055 N 0.79959 0.81602 0.44065 0.0
H2056 H 0.5231 0.52398 0.82608 0.0
H2057 H 0.5185 0.57289 0.95792 0.0
H2058 H 0.48044 0.56829 0.84368 0.0
H2059 H 0.5319 0.50695 0.93807 0.0
H2060 H 0.51098 0.57626 0.91672 0.0
H2061 H 0.53362 0.52325 0.86756 0.0
C2062 C 0.51626 0.53396 0.83864 0.0
C2063 C 0.5007 0.54616 0.83123 0.0
C2064 C 0.51556 0.56107 0.92136 0.0
C2065 C 0.51276 0.54522 0.87894 0.0
C2066 C 0.51995 0.5591 0.9449 0.0
C2067 C 0.52586 0.53955 0.95152 0.0
C2068 C 0.51748 0.5436 0.90416 0.0
C2069 C 0.5273 0.52224 0.93378 0.0
C2070 C 0.52213 0.53329 0.86234 0.0
C2071 C 0.49243 0.55864 0.84849 0.0
N2072 N 0.5233 0.52475 0.91089 0.0
N2073 N 0.49854 0.55782 0.87154 0.0
H2074 H 0.82773 0.19455 0.12268 0.0
H2075 H 0.79464 0.29736 0.19181 0.0
H2076 H 0.80237 0.24557 0.091 0.0
H2077 H 0.81881 0.24546 0.22339 0.0
H2078 H 0.80873 0.28597 0.15608 0.0
H2079 H 0.83763 0.22096 0.16029 0.0
C2080 C 0.82499 0.21165 0.12352 0.0
C2081 C 0.81335 0.21759 0.10413 0.0
C2082 C 0.81125 0.27729 0.17093 0.0
C2083 C 0.824 0.24742 0.14678 0.0
C2084 C 0.80298 0.28362 0.19125 0.0
C2085 C 0.80485 0.27177 0.21028 0.0
C2086 C 0.82115 0.25879 0.16959 0.0
C2087 C 0.8164 0.25459 0.20886 0.0
C2088 C 0.83049 0.22667 0.14498 0.0
C2089 C 0.81053 0.24006 0.1059 0.0
N2090 N 0.82376 0.24833 0.18869 0.0
N2091 N 0.81523 0.25395 0.12706 0.0
H2092 H 0.17665 0.56885 0.33101 0.0
H2093 H 0.06113 0.59255 0.36584 0.0
H2094 H 0.14656 0.61712 0.29966 0.0
H2095 H 0.11171 0.57864 0.41656 0.0
H2096 H 0.0895 0.5965 0.33841 0.0
H2097 H 0.15008 0.5671 0.36032 0.0
C2098 C 0.1646 0.57919 0.33046 0.0
C2099 C 0.16383 0.5933 0.31314 0.0
C2100 C 0.09434 0.59268 0.35561 0.0
C2101 C 0.1333 0.5909 0.34584 0.0
C2102 C 0.07823 0.5905 0.37126 0.0
C2103 C 0.08405 0.58517 0.39345 0.0
C2104 C 0.11621 0.58926 0.36217 0.0
C2105 C 0.10633 0.5823 0.39945 0.0
C2106 C 0.14954 0.57821 0.3471 0.0
C2107 C 0.14788 0.60629 0.31298 0.0
N2108 N 0.12159 0.58423 0.38381 0.0
N2109 N 0.133 0.60457 0.32895 0.0
H2110 H 0.77107 0.87291 0.61462 0.0
H2111 H 0.76131 0.77002 0.6921 0.0
H2112 H 0.77208 0.80267 0.58943 0.0
H2113 H 0.77644 0.84328 0.72258 0.0
H2114 H 0.757 0.78066 0.65336 0.0
H2115 H 0.76475 0.86117 0.65298 0.0
C2116 C 0.76935 0.85488 0.61698 0.0
C2117 C 0.77224 0.83875 0.59891 0.0
C2118 C 0.76112 0.79444 0.66848 0.0
C2119 C 0.76521 0.82532 0.64253 0.0
C2120 C 0.7636 0.78838 0.69071 0.0
C2121 C 0.76961 0.80583 0.71076 0.0
C2122 C 0.76471 0.81819 0.66605 0.0
C2123 C 0.77202 0.82926 0.70766 0.0
C2124 C 0.76597 0.84827 0.6389 0.0
C2125 C 0.77014 0.81571 0.60295 0.0
N2126 N 0.76978 0.83481 0.68571 0.0
N2127 N 0.7669 0.80975 0.6243 0.0
H2128 H 0.76959 0.50322 0.51485 0.0
H2129 H 0.66007 0.51166 0.57714 0.0
H2130 H 0.72229 0.44374 0.53836 0.0
H2131 H 0.70218 0.5669 0.54446 0.0
H2132 H 0.68591 0.48806 0.56822 0.0
H2133 H 0.74776 0.52823 0.53028 0.0
C2134 C 0.75461 0.49543 0.5233 0.0
C2135 C 0.7476 0.47141 0.52523 0.0
C2136 C 0.68961 0.50545 0.56325 0.0
C2137 C 0.72259 0.49989 0.54294 0.0
C2138 C 0.67507 0.51897 0.56853 0.0
C2139 C 0.67914 0.54116 0.56146 0.0
C2140 C 0.70822 0.51434 0.5509 0.0
C2141 C 0.69846 0.54977 0.55002 0.0
C2142 C 0.74217 0.50972 0.53213 0.0
C2143 C 0.72814 0.46222 0.53642 0.0
N2144 N 0.71223 0.53624 0.54495 0.0
N2145 N 0.71618 0.47652 0.54483 0.0
H2146 H 0.22804 0.13616 0.50669 0.0
H2147 H 0.09762 0.11104 0.53476 0.0
H2148 H 0.18923 0.18633 0.5053 0.0
H2149 H 0.11843 0.05324 0.50238 0.0
H2150 H 0.13471 0.13864 0.52955 0.0
H2151 H 0.19099 0.10505 0.50903 0.0
C2152 C 0.21177 0.1406 0.50663 0.0
C2153 C 0.21178 0.16395 0.50595 0.0
C2154 C 0.13121 0.11994 0.52351 0.0
C2155 C 0.16983 0.12876 0.509 0.0
C2156 C 0.11003 0.10404 0.52661 0.0
C2157 C 0.1048 0.07968 0.51892 0.0
C2158 C 0.14759 0.1116 0.51279 0.0
C2159 C 0.12174 0.07189 0.50847 0.0
C2160 C 0.19072 0.12286 0.50795 0.0
C2161 C 0.1902 0.16868 0.50588 0.0
N2162 N 0.14254 0.08785 0.50575 0.0
N2163 N 0.17024 0.15134 0.50767 0.0
H2164 H 0.20427 0.02754 0.75835 0.0
H2165 H 0.21078 0.89877 0.77274 0.0
H2166 H 0.1497 0.9754 0.78322 0.0
H2167 H 0.27029 0.95612 0.76176 0.0
H2168 H 0.18726 0.92569 0.77472 0.0
H2169 H 0.22762 0.00045 0.75692 0.0
C2170 C 0.19716 0.01038 0.76348 0.0
C2171 C 0.17499 0.00376 0.77095 0.0
C2172 C 0.20547 0.93235 0.77189 0.0
C2173 C 0.20167 0.97263 0.76934 0.0
C2174 C 0.21901 0.91703 0.77092 0.0
C2175 C 0.24263 0.92512 0.76705 0.0
C2176 C 0.21554 0.9559 0.76879 0.0
C2177 C 0.25208 0.9489 0.76436 0.0
C2178 C 0.21055 0.99494 0.76272 0.0
C2179 C 0.16672 0.98128 0.77739 0.0
N2180 N 0.23849 0.9634 0.76521 0.0
N2181 N 0.18005 0.9665 0.77641 0.0
H2182 H 0.33893 0.9782 0.02018 0.0
H2183 H 0.45465 0.0328 0.96514 0.0
H2184 H 0.35012 0.95382 0.95108 0.0
H2185 H 0.45337 0.03472 0.03921 0.0
H2186 H 0.41138 0.01678 0.95787 0.0
H2187 H 0.37575 0.01144 0.0246 0.0
C2188 C 0.3488 0.98023 0.00572 0.0
C2189 C 0.34195 0.96306 0.98545 0.0
C2190 C 0.42062 0.02118 0.97572 0.0
C2191 C 0.38355 0.00081 0.99029 0.0
C2192 C 0.44527 0.03025 0.9799 0.0
C2193 C 0.45757 0.03434 0.00274 0.0
C2194 C 0.40834 0.01628 0.99453 0.0
C2195 C 0.44454 0.03116 0.02125 0.0
C2196 C 0.36976 0.99911 0.00828 0.0
C2197 C 0.3552 0.96646 0.96718 0.0
N2198 N 0.42056 0.02193 0.01671 0.0
N2199 N 0.37558 0.98484 0.97014 0.0
H2200 H 0.83964 0.55518 0.79929 0.0
H2201 H 0.83457 0.67713 0.76412 0.0
H2202 H 0.89915 0.60482 0.77803 0.0
H2203 H 0.772 0.61765 0.76266 0.0
H2204 H 0.85921 0.6521 0.7717 0.0
H2205 H 0.81515 0.57949 0.78909 0.0
C2206 C 0.84761 0.57131 0.79264 0.0
C2207 C 0.87146 0.57811 0.78956 0.0
C2208 C 0.84009 0.64447 0.76949 0.0
C2209 C 0.84353 0.60578 0.77774 0.0
C2210 C 0.82609 0.65871 0.76527 0.0
C2211 C 0.80135 0.64931 0.76297 0.0
C2212 C 0.8292 0.62083 0.77164 0.0
C2213 C 0.79106 0.6254 0.7643 0.0
C2214 C 0.83356 0.58503 0.78663 0.0
C2215 C 0.88082 0.59902 0.78068 0.0
N2216 N 0.8051 0.61194 0.7688 0.0
N2217 N 0.8668 0.61224 0.77513 0.0
H2218 H 0.82477 0.64092 0.97717 0.0
H2219 H 0.909 0.60453 0.07243 0.0
H2220 H 0.8397 0.67132 0.05042 0.0
H2221 H 0.89836 0.57931 -0.00177 0.0
H2222 H 0.88284 0.62825 0.06509 0.0
H2223 H 0.851 0.61753 0.9849 0.0
C2224 C 0.83357 0.6427 0.9949 0.0
C2225 C 0.82999 0.65814 0.01316 0.0
C2226 C 0.88627 0.61756 0.05042 0.0
C2227 C 0.86012 0.63129 0.02217 0.0
C2228 C 0.90109 0.60389 0.05461 0.0
C2229 C 0.90591 0.58989 0.03592 0.0
C2230 C 0.87609 0.61716 0.02738 0.0
C2231 C 0.89542 0.59004 0.01316 0.0
C2232 C 0.84859 0.62933 -0.0007 0.0
C2233 C 0.84192 0.65967 0.03579 0.0
N2234 N 0.881 0.6034 0.00956 0.0
N2235 N 0.85642 0.64639 0.03966 0.0
H2236 H 0.18861 0.09784 0.79118 0.0
H2237 H 0.20858 0.2328 0.78147 0.0
H2238 H 0.13772 0.13402 0.80424 0.0
H2239 H 0.26804 0.20671 0.79357 0.0
H2240 H 0.18222 0.19525 0.78757 0.0
H2241 H 0.21825 0.13627 0.79069 0.0
C2242 C 0.18375 0.11381 0.79423 0.0
C2243 C 0.16055 0.11266 0.7975 0.0
C2244 C 0.20103 0.19768 0.78903 0.0
C2245 C 0.19413 0.15636 0.79669 0.0
C2246 C 0.2161 0.21909 0.78536 0.0
C2247 C 0.24051 0.22279 0.78685 0.0
C2248 C 0.2103 0.17958 0.79392 0.0
C2249 C 0.24928 0.2045 0.79228 0.0
C2250 C 0.20065 0.13569 0.79394 0.0
C2251 C 0.15525 0.13393 0.8014 0.0
N2252 N 0.23411 0.18349 0.7954 0.0
N2253 N 0.1718 0.1548 0.80064 0.0
H2254 H 0.30306 0.98123 0.3023 0.0
H2255 H 0.3021 0.86177 0.24481 0.0
H2256 H 0.31907 0.96842 0.23303 0.0
H2257 H 0.26778 0.87153 0.30469 0.0
H2258 H 0.29852 0.89887 0.23466 0.0
H2259 H 0.27602 0.94102 0.29651 0.0
C2260 C 0.29962 0.97041 0.28519 0.0
C2261 C 0.31453 0.97719 0.26877 0.0
C2262 C 0.29143 0.89276 0.24984 0.0
C2263 C 0.28475 0.93128 0.26228 0.0
C2264 C 0.29397 0.87183 0.25591 0.0
C2265 C 0.28601 0.86405 0.27607 0.0
C2266 C 0.28129 0.90623 0.26432 0.0
C2267 C 0.27473 0.87724 0.28931 0.0
C2268 C 0.28455 0.94715 0.28203 0.0
C2269 C 0.30877 0.96306 0.24666 0.0
N2270 N 0.27309 0.89791 0.28343 0.0
N2271 N 0.29533 0.94006 0.24441 0.0
H2272 H 0.55915 0.38017 0.60731 0.0
H2273 H 0.53631 0.45391 0.50657 0.0
H2274 H 0.57176 0.3626 0.53717 0.0
H2275 H 0.56158 0.48835 0.57815 0.0
H2276 H 0.54241 0.4176 0.51737 0.0
H2277 H 0.55306 0.41688 0.59704 0.0
C2278 C 0.56039 0.38383 0.5897 0.0
C2279 C 0.56597 0.36804 0.57312 0.0
C2280 C 0.54664 0.43309 0.53073 0.0
C2281 C 0.55868 0.41013 0.56114 0.0
C2282 C 0.54313 0.4539 0.52459 0.0
C2283 C 0.54855 0.47448 0.54139 0.0
C2284 C 0.55505 0.43236 0.55407 0.0
C2285 C 0.55732 0.47311 0.56449 0.0
C2286 C 0.55707 0.40492 0.5839 0.0
C2287 C 0.56754 0.37408 0.55061 0.0
N2288 N 0.56005 0.45247 0.57017 0.0
N2289 N 0.56373 0.39436 0.54528 0.0
H2290 H 0.44609 0.76785 0.37926 0.0
H2291 H 0.32459 0.79993 0.36616 0.0
H2292 H 0.40254 0.76448 0.43355 0.0
H2293 H 0.35976 0.78651 0.30796 0.0
H2294 H 0.35438 0.79009 0.39199 0.0
H2295 H 0.41578 0.77694 0.35353 0.0
C2296 C 0.43008 0.76873 0.38573 0.0
C2297 C 0.42697 0.76523 0.40868 0.0
C2298 C 0.35558 0.78938 0.37356 0.0
C2299 C 0.39222 0.77625 0.37932 0.0
C2300 C 0.33857 0.79511 0.35877 0.0
C2301 C 0.33936 0.79392 0.33467 0.0
C2302 C 0.37384 0.78278 0.36433 0.0
C2303 C 0.35819 0.78762 0.32633 0.0
C2304 C 0.41277 0.77405 0.37103 0.0
C2305 C 0.40579 0.76686 0.416 0.0
N2306 N 0.37456 0.78236 0.34104 0.0
N2307 N 0.38939 0.77239 0.4015 0.0
H2308 H 0.08507 0.74025 0.04101 0.0
H2309 H 0.02337 0.61105 0.07201 0.0
H2310 H 0.03808 0.72753 0.09212 0.0
H2311 H 0.07151 0.6234 0.02188 0.0
H2312 H 0.02784 0.65327 0.0787 0.0
H2313 H 0.07913 0.69769 0.0326 0.0
C2314 C 0.07324 0.72855 0.05029 0.0
C2315 C 0.06202 0.7378 0.06731 0.0
C2316 C 0.03748 0.64682 0.06624 0.0
C2317 C 0.05535 0.68852 0.05784 0.0
C2318 C 0.03499 0.62258 0.06242 0.0
C2319 C 0.04712 0.61334 0.04635 0.0
C2320 C 0.05223 0.66234 0.05396 0.0
C2321 C 0.06181 0.62949 0.03448 0.0
C2322 C 0.06996 0.70414 0.04553 0.0
C2323 C 0.04705 0.72145 0.07878 0.0
N2324 N 0.06393 0.65306 0.03851 0.0
N2325 N 0.04427 0.6978 0.07392 0.0
H2326 H 0.0953 0.29338 0.93788 0.0
H2327 H 0.11577 0.28731 0.80401 0.0
H2328 H 0.03822 0.27677 0.87977 0.0
H2329 H 0.17199 0.30209 0.86262 0.0
H2330 H 0.08717 0.28408 0.83122 0.0
H2331 H 0.12354 0.29722 0.91043 0.0
C2332 C 0.08866 0.29054 0.91934 0.0
C2333 C 0.06426 0.2847 0.91119 0.0
C2334 C 0.10576 0.28801 0.83813 0.0
C2335 C 0.09672 0.28907 0.87947 0.0
C2336 C 0.12216 0.28999 0.82258 0.0
C2337 C 0.14643 0.29495 0.83094 0.0
C2338 C 0.1136 0.29109 0.8623 0.0
C2339 C 0.15349 0.2979 0.85525 0.0
C2340 C 0.10485 0.29274 0.90363 0.0
C2341 C 0.05683 0.28129 0.8869 0.0
N2342 N 0.13722 0.29595 0.86999 0.0
N2343 N 0.07296 0.28351 0.87193 0.0
H2344 H 0.54723 0.79226 0.94615 0.0
H2345 H 0.54388 0.65771 0.944 0.0
H2346 H 0.5535 0.74946 0.88381 0.0
H2347 H 0.53649 0.7036 0.00361 0.0
H2348 H 0.55103 0.69104 0.92214 0.0
H2349 H 0.54758 0.76042 0.96792 0.0
C2350 C 0.54907 0.77617 0.93711 0.0
C2351 C 0.5503 0.77349 0.91312 0.0
C2352 C 0.54793 0.69376 0.94003 0.0
C2353 C 0.55017 0.73637 0.938 0.0
C2354 C 0.54393 0.67479 0.95257 0.0
C2355 C 0.53933 0.67774 0.97568 0.0
C2356 C 0.54745 0.71587 0.95073 0.0
C2357 C 0.53946 0.70025 0.98575 0.0
C2358 C 0.54915 0.75788 0.94956 0.0
C2359 C 0.55269 0.75228 0.90233 0.0
N2360 N 0.54335 0.71829 0.97324 0.0
N2361 N 0.55224 0.73433 0.91481 0.0
H2362 H 0.08438 0.73172 0.75424 0.0
H2363 H 0.21575 0.81319 0.74657 0.0
H2364 H 0.09791 0.79118 0.71724 0.0
H2365 H 0.20064 0.74282 0.76372 0.0
H2366 H 0.17319 0.80759 0.73963 0.0
H2367 H 0.12705 0.73807 0.7622 0.0
C2368 C 0.09628 0.74634 0.74802 0.0
C2369 C 0.08728 0.76096 0.73503 0.0
C2370 C 0.17913 0.79332 0.74482 0.0
C2371 C 0.13661 0.76825 0.74411 0.0
C2372 C 0.20352 0.79648 0.74881 0.0
C2373 C 0.21199 0.7784 0.75564 0.0
C2374 C 0.16283 0.77202 0.74799 0.0
C2375 C 0.19507 0.7572 0.75828 0.0
C2376 C 0.12073 0.74982 0.75245 0.0
C2377 C 0.10384 0.77947 0.72735 0.0
N2378 N 0.17139 0.75467 0.7546 0.0
N2379 N 0.1276 0.78258 0.73202 0.0
H2380 H 0.05 0.40605 0.37731 0.0
H2381 H 0.07109 0.48243 0.50467 0.0
H2382 H 0.08587 0.39188 0.43941 0.0
H2383 H 0.03365 0.49758 0.44382 0.0
H2384 H 0.08147 0.4528 0.47961 0.0
H2385 H 0.04972 0.44354 0.39941 0.0
C2386 C 0.05895 0.41145 0.39527 0.0
C2387 C 0.0685 0.39612 0.40642 0.0
C2388 C 0.07111 0.46267 0.47163 0.0
C2389 C 0.06724 0.43836 0.43214 0.0
C2390 C 0.06509 0.47962 0.486 0.0
C2391 C 0.05122 0.49245 0.47646 0.0
C2392 C 0.06318 0.45823 0.44738 0.0
C2393 C 0.04423 0.48805 0.45203 0.0
C2394 C 0.05836 0.43262 0.40803 0.0
C2395 C 0.07884 0.40344 0.43002 0.0
N2396 N 0.05009 0.47117 0.43837 0.0
N2397 N 0.07769 0.42383 0.44212 0.0
H2398 H 0.43858 0.2228 0.23692 0.0
H2399 H 0.37205 0.31741 0.26688 0.0
H2400 H 0.46381 0.29319 0.22027 0.0
H2401 H 0.33521 0.24233 0.25068 0.0
H2402 H 0.40789 0.31014 0.25541 0.0
H2403 H 0.40301 0.23082 0.24749 0.0
C2404 C 0.43676 0.24004 0.23556 0.0
C2405 C 0.45446 0.25733 0.22763 0.0
C2406 C 0.39195 0.29528 0.25436 0.0
C2407 C 0.41342 0.26676 0.24018 0.0
C2408 C 0.37147 0.29938 0.26103 0.0
C2409 C 0.3504 0.28047 0.25977 0.0
C2410 C 0.39172 0.27201 0.24685 0.0
C2411 C 0.35088 0.25751 0.25188 0.0
C2412 C 0.41629 0.24454 0.24154 0.0
C2413 C 0.45075 0.27926 0.2262 0.0
N2414 N 0.37115 0.25395 0.24597 0.0
N2415 N 0.43083 0.28341 0.2326 0.0
H2416 H 0.59522 0.57773 0.36099 0.0
H2417 H 0.54696 0.49519 0.44982 0.0
H2418 H 0.58991 0.50395 0.34625 0.0
H2419 H 0.59134 0.56775 0.47262 0.0
H2420 H 0.55967 0.49671 0.41136 0.0
H2421 H 0.5904 0.57361 0.40131 0.0
C2422 C 0.59299 0.5606 0.36627 0.0
C2423 C 0.59275 0.54108 0.35022 0.0
C2424 C 0.56691 0.51211 0.42496 0.0
C2425 C 0.58701 0.53623 0.39644 0.0
C2426 C 0.55965 0.51132 0.44688 0.0
C2427 C 0.56795 0.53146 0.46444 0.0
C2428 C 0.58212 0.53335 0.42043 0.0
C2429 C 0.58443 0.55182 0.45965 0.0
C2430 C 0.59045 0.55833 0.38935 0.0
C2431 C 0.59013 0.51939 0.35811 0.0
N2432 N 0.59061 0.55238 0.43798 0.0
N2433 N 0.58693 0.51741 0.38066 0.0
H2434 H 0.3238 0.85366 0.03352 0.0
H2435 H 0.2642 0.80995 0.14212 0.0
H2436 H 0.26515 0.87321 0.05661 0.0
H2437 H 0.33128 0.80355 0.12738 0.0
H2438 H 0.25973 0.82622 0.10613 0.0
H2439 H 0.32259 0.82906 0.0638 0.0
C2440 C 0.3107 0.85284 0.04502 0.0
C2441 C 0.29469 0.86568 0.04272 0.0
C2442 C 0.27528 0.821 0.11067 0.0
C2443 C 0.29314 0.83742 0.07725 0.0
C2444 C 0.27785 0.81176 0.13116 0.0
C2445 C 0.29838 0.80591 0.13789 0.0
C2446 C 0.29336 0.82433 0.09692 0.0
C2447 C 0.31523 0.80793 0.12284 0.0
C2448 C 0.30996 0.8387 0.06222 0.0
C2449 C 0.27797 0.86378 0.05794 0.0
N2450 N 0.31248 0.81728 0.10314 0.0
N2451 N 0.27767 0.84992 0.07467 0.0
H2452 H 0.93153 0.55602 0.86663 0.0
H2453 H 0.00542 0.50484 0.95249 0.0
H2454 H 0.93247 0.48389 0.85435 0.0
H2455 H 0.98248 0.56397 0.97698 0.0
H2456 H 0.9775 0.49686 0.9164 0.0
H2457 H 0.94708 0.55888 0.90795 0.0
C2458 C 0.93449 0.54064 0.87274 0.0
C2459 C 0.93162 0.51999 0.85705 0.0
C2460 C 0.97841 0.51148 0.92973 0.0
C2461 C 0.94946 0.5232 0.90375 0.0
C2462 C 0.99458 0.51623 0.95015 0.0
C2463 C 0.99639 0.53525 0.96745 0.0
C2464 C 0.96433 0.52617 0.92645 0.0
C2465 C 0.98164 0.54921 0.96385 0.0
C2466 C 0.94336 0.54229 0.89626 0.0
C2467 C 0.93529 0.50043 0.86581 0.0
N2468 N 0.96636 0.54458 0.94352 0.0
N2469 N 0.94451 0.50267 0.88854 0.0
H2470 H 0.27634 0.28115 0.58026 0.0
H2471 H 0.2997 0.24911 0.70805 0.0
H2472 H 0.30555 0.22577 0.59466 0.0
H2473 H 0.26434 0.29986 0.69271 0.0
H2474 H 0.3052 0.24298 0.66738 0.0
H2475 H 0.2761 0.29137 0.62195 0.0
C2476 C 0.28305 0.27132 0.59221 0.0
C2477 C 0.29076 0.25235 0.5838 0.0
C2478 C 0.29621 0.25544 0.67284 0.0
C2479 C 0.29023 0.26391 0.63179 0.0
C2480 C 0.29293 0.25892 0.69613 0.0
C2481 C 0.28129 0.27491 0.70392 0.0
C2482 C 0.28783 0.26801 0.65698 0.0
C2483 C 0.27322 0.28722 0.68754 0.0
C2484 C 0.28276 0.27713 0.61606 0.0
C2485 C 0.29938 0.24045 0.60025 0.0
N2486 N 0.27661 0.28348 0.66486 0.0
N2487 N 0.29866 0.24627 0.62341 0.0
H2488 H 0.59415 0.51233 0.20712 0.0
H2489 H 0.5231 0.55614 0.10638 0.0
H2490 H 0.54186 0.54684 0.21948 0.0
H2491 H 0.57155 0.51691 0.09377 0.0
H2492 H 0.52821 0.55132 0.14758 0.0
H2493 H 0.58371 0.51105 0.1651 0.0
C2494 C 0.58017 0.51923 0.20103 0.0
C2495 C 0.56908 0.52992 0.21699 0.0
C2496 C 0.53766 0.54372 0.13575 0.0
C2497 C 0.55737 0.529 0.1688 0.0
C2498 C 0.53484 0.54658 0.11223 0.0
C2499 C 0.54706 0.53713 0.09652 0.0
C2500 C 0.55285 0.53135 0.14368 0.0
C2501 C 0.56188 0.52472 0.10516 0.0
C2502 C 0.57432 0.51866 0.17699 0.0
C2503 C 0.55106 0.53857 0.20793 0.0
N2504 N 0.5644 0.52228 0.12808 0.0
N2505 N 0.54601 0.5382 0.18453 0.0
H2506 H 0.23004 0.83231 0.94225 0.0
H2507 H 0.27601 0.85245 0.82716 0.0
H2508 H 0.24494 0.89916 0.91763 0.0
H2509 H 0.24302 0.78239 0.84204 0.0
H2510 H 0.25676 0.86861 0.85629 0.0
H2511 H 0.2233 0.81205 0.90207 0.0
C2512 C 0.23052 0.84258 0.92817 0.0
C2513 C 0.2386 0.86736 0.93306 0.0
C2514 C 0.2534 0.84965 0.85304 0.0
C2515 C 0.23237 0.84466 0.88745 0.0
C2516 C 0.2647 0.84043 0.83659 0.0
C2517 C 0.26157 0.81611 0.83258 0.0
C2518 C 0.23933 0.83455 0.86609 0.0
C2519 C 0.24629 0.80134 0.84496 0.0
C2520 C 0.22704 0.83106 0.90523 0.0
C2521 C 0.23902 0.87998 0.91443 0.0
N2522 N 0.23608 0.81087 0.86152 0.0
N2523 N 0.23692 0.86854 0.89236 0.0
H2524 H 0.93015 0.54738 0.73435 0.0
H2525 H 0.93478 0.45484 0.62814 0.0
H2526 H 0.9354 0.47765 0.73757 0.0
H2527 H 0.95344 0.53036 0.62973 0.0
H2528 H 0.91599 0.45902 0.66276 0.0
H2529 H 0.92007 0.53679 0.69158 0.0
C2530 C 0.92848 0.52965 0.72612 0.0
C2531 C 0.93439 0.51358 0.73924 0.0
C2532 C 0.9236 0.47456 0.65507 0.0
C2533 C 0.92263 0.50136 0.69086 0.0
C2534 C 0.93444 0.4722 0.63544 0.0
C2535 C 0.9464 0.49237 0.62658 0.0
C2536 C 0.92508 0.49726 0.666 0.0
C2537 C 0.94474 0.51434 0.63619 0.0
C2538 C 0.92269 0.52361 0.70179 0.0
C2539 C 0.93164 0.49074 0.72788 0.0
N2540 N 0.93484 0.5163 0.65578 0.0
N2541 N 0.9263 0.48541 0.70429 0.0
H2542 H 0.2988 0.20758 0.44034 0.0
H2543 H 0.31417 0.30993 0.36148 0.0
H2544 H 0.30202 0.27939 0.46484 0.0
H2545 H 0.29251 0.2358 0.33156 0.0
H2546 H 0.31825 0.29946 0.40033 0.0
H2547 H 0.30492 0.21821 0.4015 0.0
C2548 C 0.30141 0.22569 0.43771 0.0
C2549 C 0.2998 0.24263 0.45575 0.0
C2550 C 0.31274 0.28544 0.3853 0.0
C2551 C 0.30664 0.25482 0.41162 0.0
C2552 C 0.31039 0.2914 0.36301 0.0
C2553 C 0.30261 0.2737 0.34309 0.0
C2554 C 0.30726 0.26155 0.38793 0.0
C2555 C 0.29834 0.25004 0.34637 0.0
C2556 C 0.30466 0.23168 0.41553 0.0
C2557 C 0.30298 0.26575 0.45137 0.0
N2558 N 0.30051 0.24462 0.36838 0.0
N2559 N 0.30613 0.27111 0.4298 0.0
H2560 H 0.28891 0.5689 0.52141 0.0
H2561 H 0.41869 0.5759 0.50017 0.0
H2562 H 0.35193 0.6262 0.55428 0.0
H2563 H 0.36594 0.50813 0.49827 0.0
H2564 H 0.39094 0.59555 0.51254 0.0
H2565 H 0.31424 0.54655 0.50708 0.0
C2566 C 0.308 0.57664 0.52582 0.0
C2567 C 0.31838 0.59945 0.53892 0.0
C2568 C 0.38538 0.57638 0.5093 0.0
C2569 C 0.34702 0.57444 0.52226 0.0
C2570 C 0.40112 0.56518 0.50218 0.0
C2571 C 0.39463 0.54042 0.49868 0.0
C2572 C 0.3629 0.56271 0.51265 0.0
C2573 C 0.37152 0.52728 0.5009 0.0
C2574 C 0.32234 0.56393 0.51762 0.0
C2575 C 0.34316 0.60869 0.54421 0.0
N2576 N 0.35638 0.53865 0.50796 0.0
N2577 N 0.35665 0.59624 0.53561 0.0
H2578 H 0.84338 0.9436 0.53221 0.0
H2579 H 0.98436 0.97687 0.55813 0.0
H2580 H 0.88131 0.90889 0.57536 0.0
H2581 H 0.94908 0.0161 0.51806 0.0
H2582 H 0.94636 0.95394 0.56683 0.0
H2583 H 0.88133 0.97296 0.52971 0.0
C2584 C 0.85961 0.94245 0.54156 0.0
C2585 C 0.85924 0.92361 0.55377 0.0
C2586 C 0.94683 0.96761 0.55621 0.0
C2587 C 0.90255 0.95682 0.55076 0.0
C2588 C 0.96859 0.98067 0.55112 0.0
C2589 C 0.96991 0.99831 0.53715 0.0
C2590 C 0.92605 0.97197 0.54713 0.0
C2591 C 0.94885 0.00259 0.52883 0.0
C2592 C 0.88126 0.9591 0.54 0.0
C2593 C 0.88078 0.92292 0.56548 0.0
N2594 N 0.92771 0.98936 0.53379 0.0
N2595 N 0.90152 0.9391 0.56349 0.0
H2596 H 0.90574 0.09109 0.32494 0.0
H2597 H 0.83893 0.16296 0.25091 0.0
H2598 H 0.90507 0.09085 0.25085 0.0
H2599 H 0.83996 0.16289 0.32499 0.0
H2600 H 0.86389 0.13732 0.25059 0.0
H2601 H 0.88212 0.11792 0.32528 0.0
C2602 C 0.90063 0.09666 0.30873 0.0
C2603 C 0.90738 0.08863 0.28782 0.0
C2604 C 0.85866 0.14293 0.26691 0.0
C2605 C 0.88027 0.11942 0.2881 0.0
C2606 C 0.84453 0.1577 0.26715 0.0
C2607 C 0.83727 0.16507 0.28801 0.0
C2608 C 0.86562 0.13547 0.2877 0.0
C2609 C 0.8448 0.15738 0.30843 0.0
C2610 C 0.88713 0.11201 0.30894 0.0
C2611 C 0.90026 0.09655 0.26737 0.0
N2612 N 0.85853 0.143 0.30775 0.0
N2613 N 0.88707 0.11148 0.26802 0.0
H2614 H 0.7273 0.09725 0.01726 0.0
H2615 H 0.6023 0.04174 0.05573 0.0
H2616 H 0.71608 0.10642 0.08906 0.0
H2617 H 0.61209 0.07732 -0.00409 0.0
H2618 H 0.64517 0.04903 0.06402 0.0
H2619 H 0.68605 0.07179 0.00589 0.0
C2620 C 0.7165 0.09297 0.03078 0.0
C2621 C 0.72477 0.10419 0.05407 0.0
C2622 C 0.63777 0.05479 0.04887 0.0
C2623 C 0.67812 0.07533 0.0412 0.0
C2624 C 0.61348 0.05082 0.04419 0.0
C2625 C 0.60392 0.05939 0.02537 0.0
C2626 C 0.65236 0.0669 0.0343 0.0
C2627 C 0.61899 0.07092 0.01086 0.0
C2628 C 0.69299 0.07867 0.02422 0.0
C2629 C 0.7101 0.09826 0.07089 0.0
N2630 N 0.64263 0.07444 0.01568 0.0
N2631 N 0.68721 0.08445 0.06406 0.0
H2632 H 0.19611 0.49642 0.31191 0.0
H2633 H 0.28608 0.44036 0.25625 0.0
H2634 H 0.21182 0.5008 0.24185 0.0
H2635 H 0.26269 0.42582 0.32176 0.0
H2636 H 0.25748 0.46145 0.25025 0.0
H2637 H 0.21794 0.46811 0.31508 0.0
C2638 C 0.20374 0.49109 0.29706 0.0
C2639 C 0.20258 0.50128 0.27678 0.0
C2640 C 0.25855 0.45362 0.26593 0.0
C2641 C 0.22775 0.46944 0.2804 0.0
C2642 C 0.27491 0.44166 0.26937 0.0
C2643 C 0.27683 0.43154 0.2896 0.0
C2644 C 0.24415 0.45561 0.28293 0.0
C2645 C 0.26209 0.43383 0.30616 0.0
C2646 C 0.21629 0.47506 0.29891 0.0
C2647 C 0.21265 0.49369 0.25799 0.0
N2648 N 0.24637 0.44574 0.30249 0.0
N2649 N 0.22512 0.47847 0.26039 0.0
H2650 H 0.21098 0.39534 0.98126 0.0
H2651 H 0.1761 0.50145 0.04861 0.0
H2652 H 0.24626 0.43304 0.05001 0.0
H2653 H 0.14804 0.46967 0.97656 0.0
H2654 H 0.20064 0.47542 0.05025 0.0
H2655 H 0.18659 0.4214 0.97998 0.0
C2656 C 0.21361 0.40909 -0.00389 0.0
C2657 C 0.23073 0.41198 0.01577 0.0
C2658 C 0.18916 0.47419 0.03407 0.0
C2659 C 0.20276 0.44193 0.01442 0.0
C2660 C 0.17504 0.48895 0.03316 0.0
C2661 C 0.16 0.48777 0.0124 0.0
C2662 C 0.18815 0.45802 0.01412 0.0
C2663 C 0.15958 0.47142 0.99284 0.0
C2664 C 0.19968 0.42401 -0.00466 0.0
C2665 C 0.23332 0.43017 0.03447 0.0
N2666 N 0.17339 0.45717 0.99421 0.0
N2667 N 0.21945 0.44442 0.03335 0.0
H2668 H 0.92752 0.94621 0.23957 0.0
H2669 H 0.80719 0.87987 0.28366 0.0
H2670 H 0.88379 0.98364 0.26986 0.0
H2671 H 0.85105 0.84495 0.24985 0.0
H2672 H 0.83318 0.918 0.27699 0.0
H2673 H 0.89765 0.90886 0.24093 0.0
C2674 C 0.91149 0.94657 0.24634 0.0
C2675 C 0.90824 0.96809 0.25478 0.0
C2676 C 0.83696 0.90193 0.27095 0.0
C2677 C 0.87391 0.92519 0.25669 0.0
C2678 C 0.82217 0.88018 0.27477 0.0
C2679 C 0.82707 0.85918 0.26754 0.0
C2680 C 0.85671 0.90257 0.2598 0.0
C2681 C 0.84668 0.86063 0.25603 0.0
C2682 C 0.8944 0.92519 0.24714 0.0
C2683 C 0.88701 0.96743 0.26318 0.0
N2684 N 0.86076 0.8819 0.25263 0.0
N2685 N 0.87072 0.94629 0.26417 0.0
H2686 H 0.75958 0.11133 0.79201 0.0
H2687 H 0.80642 0.23029 0.74423 0.0
H2688 H 0.7699 0.11774 0.721 0.0
H2689 H 0.77144 0.22182 0.80493 0.0
H2690 H 0.81027 0.19129 0.74358 0.0
H2691 H 0.78345 0.15277 0.80442 0.0
C2692 C 0.76824 0.12098 0.77923 0.0
C2693 C 0.76193 0.11166 0.75527 0.0
C2694 C 0.80207 0.19808 0.75725 0.0
C2695 C 0.7888 0.15866 0.76925 0.0
C2696 C 0.79953 0.22029 0.75753 0.0
C2697 C 0.78785 0.22913 0.77428 0.0
C2698 C 0.79263 0.18429 0.77361 0.0
C2699 C 0.77992 0.21542 0.7913 0.0
C2700 C 0.78149 0.14478 0.78632 0.0
C2701 C 0.77381 0.12469 0.73955 0.0
N2702 N 0.78208 0.19341 0.79029 0.0
N2703 N 0.78607 0.14795 0.74667 0.0
loop_
_geom_bond_atom_site_label_1
_geom_bond_atom_site_label_2
_geom_bond_distance
_geom_bond_site_symmetry_2
_ccdc_geom_bond_type
Zn0 O3 2.031 . S
Zn0 O5 2.049 . S
Zn0 O10 2.067 1_455 S
Zn1 O2 1.962 . S
Zn1 O4 1.986 . S
Zn1 O6 1.996 . S
Zn1 O9 1.943 . S
O2 Zn1 1.962 . S
O2 C7 1.254 . S
O3 Zn0 2.031 . S
O3 C7 1.269 . S
O4 Zn1 1.986 . S
O4 C11 1.262 . S
O5 Zn0 2.049 . S
O5 C13 1.260 . S
O6 Zn1 1.996 . S
O6 C13 1.257 . S
C7 O2 1.254 . S
C7 O3 1.269 . S
C8 O9 1.215 1_655 S
C8 O10 1.285 . S
O9 Zn1 1.943 . S
O9 C8 1.215 1_455 S
O10 Zn0 2.067 1_655 S
O10 C8 1.285 . S
C11 O4 1.262 . S
C11 O12 1.232 . S
O12 C11 1.232 . S
C13 O5 1.260 . S
C13 O6 1.257 . S
Zn14 O17 2.031 1_455 S
Zn14 O19 2.049 . S
Zn14 O24 2.067 . S
Zn15 O16 1.962 . S
Zn15 O18 1.986 . S
Zn15 O20 1.996 . S
Zn15 O23 1.943 . S
O16 Zn15 1.962 . S
O16 C21 1.254 1_455 S
O17 Zn14 2.031 1_655 S
O17 C21 1.269 . S
O18 Zn15 1.986 . S
O18 C25 1.262 . S
O19 Zn14 2.049 . S
O19 C27 1.260 . S
O20 Zn15 1.996 . S
O20 C27 1.257 . S
C21 O16 1.254 1_655 S
C21 O17 1.269 . S
C22 O23 1.249 . S
C22 O24 1.270 . S
O23 Zn15 1.943 . S
O23 C22 1.249 . S
O24 Zn14 2.067 . S
O24 C22 1.270 . S
C25 O18 1.262 . S
C25 O26 1.232 . S
O26 C25 1.232 . S
C27 O19 1.260 . S
C27 O20 1.257 . S
Zn28 O31 2.031 . S
Zn28 O33 2.049 . S
Zn28 O38 2.067 . S
Zn29 O30 1.962 . S
Zn29 O32 1.986 . S
Zn29 O34 1.996 . S
Zn29 O37 1.943 . S
O30 Zn29 1.962 . S
O30 C35 1.254 . S
O31 Zn28 2.031 . S
O31 C35 1.269 . S
O32 Zn29 1.986 . S
O32 C39 1.262 . S
O33 Zn28 2.049 . S
O33 C41 1.260 . S
O34 Zn29 1.996 . S
O34 C41 1.257 . S
C35 O30 1.254 . S
C35 O31 1.269 . S
C36 O37 1.249 . S
C36 O38 1.270 . S
O37 Zn29 1.943 . S
O37 C36 1.249 . S
O38 Zn28 2.067 . S
O38 C36 1.270 . S
C39 O32 1.262 . S
C39 O40 1.232 . S
O40 C39 1.232 . S
C41 O33 1.260 . S
C41 O34 1.257 . S
Zn42 O45 2.031 . S
Zn42 O47 2.049 . S
Zn42 O52 2.067 . S
Zn43 O44 1.962 . S
Zn43 O46 1.986 . S
Zn43 O48 1.996 . S
Zn43 O51 1.943 . S
O44 Zn43 1.962 . S
O44 C49 1.254 . S
O45 Zn42 2.031 . S
O45 C49 1.269 . S
O46 Zn43 1.986 . S
O46 C53 1.262 . S
O47 Zn42 2.049 . S
O47 C55 1.260 . S
O48 Zn43 1.996 . S
O48 C55 1.257 . S
C49 O44 1.254 . S
C49 O45 1.269 . S
C50 O51 1.249 . S
C50 O52 1.270 . S
O51 Zn43 1.943 . S
O51 C50 1.249 . S
O52 Zn42 2.067 . S
O52 C50 1.270 . S
C53 O46 1.262 . S
C53 O54 1.232 . S
O54 C53 1.232 . S
C55 O47 1.260 . S
C55 O48 1.257 . S
Zn56 O59 2.031 . S
Zn56 O61 2.049 . S
Zn56 O66 2.067 . S
Zn57 O58 1.962 . S
Zn57 O60 1.986 . S
Zn57 O62 1.996 . S
Zn57 O65 1.943 . S
O58 Zn57 1.962 . S
O58 C63 1.254 . S
O59 Zn56 2.031 . S
O59 C63 1.269 . S
O60 Zn57 1.986 . S
O60 C67 1.262 . S
O61 Zn56 2.049 . S
O61 C69 1.260 . S
O62 Zn57 1.996 . S
O62 C69 1.257 . S
C63 O58 1.254 . S
C63 O59 1.269 . S
C64 O65 1.249 . S
C64 O66 1.270 . S
O65 Zn57 1.943 . S
O65 C64 1.249 . S
O66 Zn56 2.067 . S
O66 C64 1.270 . S
C67 O60 1.262 . S
C67 O68 1.232 . S
O68 C67 1.232 . S
C69 O61 1.260 . S
C69 O62 1.257 . S
Zn70 O73 2.031 . S
Zn70 O75 2.049 . S
Zn70 O80 2.067 . S
Zn71 O72 1.962 . S
Zn71 O74 1.986 . S
Zn71 O76 1.996 . S
Zn71 O79 1.943 . S
O72 Zn71 1.962 . S
O72 C77 1.254 . S
O73 Zn70 2.031 . S
O73 C77 1.269 . S
O74 Zn71 1.986 . S
O74 C81 1.262 . S
O75 Zn70 2.049 . S
O75 C83 1.260 . S
O76 Zn71 1.996 . S
O76 C83 1.257 . S
C77 O72 1.254 . S
C77 O73 1.269 . S
C78 O79 1.249 . S
C78 O80 1.270 . S
O79 Zn71 1.943 . S
O79 C78 1.249 . S
O80 Zn70 2.067 . S
O80 C78 1.270 . S
C81 O74 1.262 . S
C81 O82 1.232 . S
O82 C81 1.232 . S
C83 O75 1.260 . S
C83 O76 1.257 . S
Zn84 O87 2.031 . S
Zn84 O89 2.049 . S
Zn84 O94 2.067 . S
Zn85 O86 1.962 . S
Zn85 O88 1.986 . S
Zn85 O90 1.996 . S
Zn85 O93 1.943 . S
O86 Zn85 1.962 . S
O86 C91 1.254 . S
O87 Zn84 2.031 . S
O87 C91 1.269 . S
O88 Zn85 1.986 . S
O88 C95 1.262 . S
O89 Zn84 2.049 . S
O89 C97 1.260 . S
O90 Zn85 1.996 . S
O90 C97 1.257 . S
C91 O86 1.254 . S
C91 O87 1.269 . S
C92 O93 1.249 . S
C92 O94 1.270 . S
O93 Zn85 1.943 . S
O93 C92 1.249 . S
O94 Zn84 2.067 . S
O94 C92 1.270 . S
C95 O88 1.262 . S
C95 O96 1.232 . S
O96 C95 1.232 . S
C97 O89 1.260 . S
C97 O90 1.257 . S
Zn98 O101 2.031 . S
Zn98 O103 2.049 . S
Zn98 O108 2.067 . S
Zn99 O100 1.962 . S
Zn99 O102 1.986 . S
Zn99 O104 1.996 . S
Zn99 O107 1.943 1_455 S
O100 Zn99 1.962 . S
O100 C105 1.254 . S
O101 Zn98 2.031 . S
O101 C105 1.269 1_655 S
O102 Zn99 1.986 . S
O102 C109 1.262 . S
O103 Zn98 2.049 . S
O103 C111 1.260 . S
O104 Zn99 1.996 . S
O104 C111 1.257 1_455 S
C105 O100 1.254 . S
C105 O101 1.269 1_455 S
C106 O107 1.249 . S
C106 O108 1.270 . S
O107 Zn99 1.943 1_655 S
O107 C106 1.249 . S
O108 Zn98 2.067 . S
O108 C106 1.270 . S
C109 O102 1.262 . S
C109 O110 1.232 . S
O110 C109 1.232 . S
C111 O103 1.260 . S
C111 O104 1.257 1_655 S
Zn112 O115 2.031 . S
Zn112 O117 2.049 . S
Zn112 O122 2.067 . S
Zn113 O114 1.962 . S
Zn113 O116 1.986 . S
Zn113 O118 1.996 . S
Zn113 O121 1.943 1_545 S
O114 Zn113 1.962 . S
O114 C119 1.254 . S
O115 Zn112 2.031 . S
O115 C119 1.269 1_565 S
O116 Zn113 1.986 . S
O116 C123 1.262 . S
O117 Zn112 2.049 . S
O117 C125 1.260 . S
O118 Zn113 1.996 . S
O118 C125 1.257 1_545 S
C119 O114 1.254 . S
C119 O115 1.269 1_545 S
C120 O121 1.249 . S
C120 O122 1.270 . S
O121 Zn113 1.943 1_565 S
O121 C120 1.249 . S
O122 Zn112 2.067 . S
O122 C120 1.270 . S
C123 O116 1.262 . S
C123 O124 1.232 . S
O124 C123 1.232 . S
C125 O117 1.260 . S
C125 O118 1.257 1_565 S
Zn126 O129 2.031 . S
Zn126 O131 2.049 . S
Zn126 O136 2.067 . S
Zn127 O128 1.962 . S
Zn127 O130 1.986 . S
Zn127 O132 1.996 . S
Zn127 O135 1.943 . S
O128 Zn127 1.962 . S
O128 C133 1.254 . S
O129 Zn126 2.031 . S
O129 C133 1.269 . S
O130 Zn127 1.986 . S
O130 C137 1.262 . S
O131 Zn126 2.049 . S
O131 C139 1.260 . S
O132 Zn127 1.996 . S
O132 C139 1.257 . S
C133 O128 1.254 . S
C133 O129 1.269 . S
C134 O135 1.249 . S
C134 O136 1.270 . S
O135 Zn127 1.943 . S
O135 C134 1.249 . S
O136 Zn126 2.067 . S
O136 C134 1.270 . S
C137 O130 1.262 . S
C137 O138 1.232 . S
O138 C137 1.232 . S
C139 O131 1.260 . S
C139 O132 1.257 . S
Zn140 O143 2.031 . S
Zn140 O145 2.049 . S
Zn140 O150 2.067 . S
Zn141 O142 1.962 . S
Zn141 O144 1.986 . S
Zn141 O146 1.996 . S
Zn141 O149 1.943 . S
O142 Zn141 1.962 . S
O142 C147 1.254 . S
O143 Zn140 2.031 . S
O143 C147 1.269 . S
O144 Zn141 1.986 . S
O144 C151 1.262 . S
O145 Zn140 2.049 . S
O145 C153 1.260 . S
O146 Zn141 1.996 . S
O146 C153 1.257 . S
C147 O142 1.254 . S
C147 O143 1.269 . S
C148 O149 1.249 . S
C148 O150 1.270 . S
O149 Zn141 1.943 . S
O149 C148 1.249 . S
O150 Zn140 2.067 . S
O150 C148 1.270 . S
C151 O144 1.262 . S
C151 O152 1.232 . S
O152 C151 1.232 . S
C153 O145 1.260 . S
C153 O146 1.257 . S
Zn154 O157 2.031 1_554 S
Zn154 O159 2.049 . S
Zn154 O164 2.067 . S
Zn155 O156 1.962 . S
Zn155 O158 1.986 1_556 S
Zn155 O160 1.996 1_556 S
Zn155 O163 1.943 1_556 S
O156 Zn155 1.962 . S
O156 C161 1.254 . S
O157 Zn154 2.031 1_556 S
O157 C161 1.269 . S
O158 Zn155 1.986 1_554 S
O158 C165 1.262 1_554 S
O159 Zn154 2.049 . S
O159 C167 1.260 . S
O160 Zn155 1.996 1_554 S
O160 C167 1.257 . S
C161 O156 1.254 . S
C161 O157 1.269 . S
C162 O163 1.249 . S
C162 O164 1.270 . S
O163 Zn155 1.943 1_554 S
O163 C162 1.249 . S
O164 Zn154 2.067 . S
O164 C162 1.270 . S
C165 O158 1.262 1_556 S
C165 O166 1.232 . S
O166 C165 1.232 . S
C167 O159 1.260 . S
C167 O160 1.257 . S
Zn168 O171 2.031 . S
Zn168 O173 2.049 . S
Zn168 O178 2.067 . S
Zn169 O170 1.962 . S
Zn169 O172 1.986 . S
Zn169 O174 1.996 . S
Zn169 O177 1.943 . S
O170 Zn169 1.962 . S
O170 C175 1.254 1_554 S
O171 Zn168 2.031 . S
O171 C175 1.269 1_554 S
O172 Zn169 1.986 . S
O172 C179 1.262 . S
O173 Zn168 2.049 . S
O173 C181 1.260 . S
O174 Zn169 1.996 . S
O174 C181 1.257 . S
C175 O170 1.254 1_556 S
C175 O171 1.269 1_556 S
C176 O177 1.249 . S
C176 O178 1.270 . S
O177 Zn169 1.943 . S
O177 C176 1.249 . S
O178 Zn168 2.067 . S
O178 C176 1.270 . S
C179 O172 1.262 . S
C179 O180 1.232 . S
O180 C179 1.232 . S
C181 O173 1.260 . S
C181 O174 1.257 . S
Zn182 O185 2.031 . S
Zn182 O187 2.049 . S
Zn182 O192 2.067 . S
Zn183 O184 1.962 . S
Zn183 O186 1.986 . S
Zn183 O188 1.996 . S
Zn183 O191 1.943 . S
O184 Zn183 1.962 . S
O184 C189 1.254 . S
O185 Zn182 2.031 . S
O185 C189 1.269 . S
O186 Zn183 1.986 . S
O186 C193 1.262 . S
O187 Zn182 2.049 . S
O187 C195 1.260 . S
O188 Zn183 1.996 . S
O188 C195 1.257 . S
C189 O184 1.254 . S
C189 O185 1.269 . S
C190 O191 1.249 . S
C190 O192 1.270 . S
O191 Zn183 1.943 . S
O191 C190 1.249 . S
O192 Zn182 2.067 . S
O192 C190 1.270 . S
C193 O186 1.262 . S
C193 O194 1.232 . S
O194 C193 1.232 . S
C195 O187 1.260 . S
C195 O188 1.257 . S
Zn196 O199 2.031 . S
Zn196 O201 2.049 . S
Zn196 O206 2.067 . S
Zn197 O198 1.962 . S
Zn197 O200 1.986 . S
Zn197 O202 1.996 . S
Zn197 O205 1.943 . S
O198 Zn197 1.962 . S
O198 C203 1.254 . S
O199 Zn196 2.031 . S
O199 C203 1.269 . S
O200 Zn197 1.986 . S
O200 C207 1.262 . S
O201 Zn196 2.049 . S
O201 C209 1.260 . S
O202 Zn197 1.996 . S
O202 C209 1.257 . S
C203 O198 1.254 . S
C203 O199 1.269 . S
C204 O205 1.249 . S
C204 O206 1.270 . S
O205 Zn197 1.943 . S
O205 C204 1.249 . S
O206 Zn196 2.067 . S
O206 C204 1.270 . S
C207 O200 1.262 . S
C207 O208 1.232 . S
O208 C207 1.232 . S
C209 O201 1.260 . S
C209 O202 1.257 . S
Zn210 O213 2.031 . S
Zn210 O215 2.049 . S
Zn210 O220 2.067 . S
Zn211 O212 1.962 . S
Zn211 O214 1.986 . S
Zn211 O216 1.996 . S
Zn211 O219 1.943 . S
O212 Zn211 1.962 . S
O212 C217 1.254 . S
O213 Zn210 2.031 . S
O213 C217 1.269 . S
O214 Zn211 1.986 . S
O214 C221 1.262 . S
O215 Zn210 2.049 . S
O215 C223 1.260 . S
O216 Zn211 1.996 . S
O216 C223 1.257 . S
C217 O212 1.254 . S
C217 O213 1.269 . S
C218 O219 1.249 . S
C218 O220 1.270 . S
O219 Zn211 1.943 . S
O219 C218 1.249 . S
O220 Zn210 2.067 . S
O220 C218 1.270 . S
C221 O214 1.262 . S
C221 O222 1.232 . S
O222 C221 1.232 . S
C223 O215 1.260 . S
C223 O216 1.257 . S
Zn224 O227 2.031 . S
Zn224 O229 2.049 . S
Zn224 O234 2.067 1_545 S
Zn225 O226 1.962 . S
Zn225 O228 1.986 . S
Zn225 O230 1.996 . S
Zn225 O233 1.943 . S
O226 Zn225 1.962 . S
O226 C231 1.254 . S
O227 Zn224 2.031 . S
O227 C231 1.269 . S
O228 Zn225 1.986 . S
O228 C235 1.262 . S
O229 Zn224 2.049 . S
O229 C237 1.260 . S
O230 Zn225 1.996 . S
O230 C237 1.257 . S
C231 O226 1.254 . S
C231 O227 1.269 . S
C232 O233 1.249 1_565 S
C232 O234 1.270 . S
O233 Zn225 1.943 . S
O233 C232 1.249 1_545 S
O234 Zn224 2.067 1_565 S
O234 C232 1.270 . S
C235 O228 1.262 . S
C235 O236 1.232 . S
O236 C235 1.232 . S
C237 O229 1.260 . S
C237 O230 1.257 . S
Zn238 O241 2.031 . S
Zn238 O243 2.049 . S
Zn238 O248 2.067 . S
Zn239 O240 1.962 . S
Zn239 O242 1.986 . S
Zn239 O244 1.996 . S
Zn239 O247 1.943 . S
O240 Zn239 1.962 . S
O240 C245 1.254 . S
O241 Zn238 2.031 . S
O241 C245 1.269 . S
O242 Zn239 1.986 . S
O242 C249 1.262 . S
O243 Zn238 2.049 . S
O243 C251 1.260 . S
O244 Zn239 1.996 . S
O244 C251 1.257 . S
C245 O240 1.254 . S
C245 O241 1.269 . S
C246 O247 1.249 . S
C246 O248 1.270 . S
O247 Zn239 1.943 . S
O247 C246 1.249 . S
O248 Zn238 2.067 . S
O248 C246 1.270 . S
C249 O242 1.262 . S
C249 O250 1.232 . S
O250 C249 1.232 . S
C251 O243 1.260 . S
C251 O244 1.257 . S
Zn252 O255 2.031 . S
Zn252 O257 2.049 . S
Zn252 O262 2.067 . S
Zn253 O254 1.962 . S
Zn253 O256 1.986 . S
Zn253 O258 1.996 . S
Zn253 O261 1.943 . S
O254 Zn253 1.962 . S
O254 C259 1.254 . S
O255 Zn252 2.031 . S
O255 C259 1.269 . S
O256 Zn253 1.986 . S
O256 C263 1.262 . S
O257 Zn252 2.049 . S
O257 C265 1.260 . S
O258 Zn253 1.996 . S
O258 C265 1.257 . S
C259 O254 1.254 . S
C259 O255 1.269 . S
C260 O261 1.249 . S
C260 O262 1.270 . S
O261 Zn253 1.943 . S
O261 C260 1.249 . S
O262 Zn252 2.067 . S
O262 C260 1.270 . S
C263 O256 1.262 . S
C263 O264 1.232 . S
O264 C263 1.232 . S
C265 O257 1.260 . S
C265 O258 1.257 . S
Zn266 O269 2.031 . S
Zn266 O271 2.049 . S
Zn266 O276 2.067 . S
Zn267 O268 1.962 . S
Zn267 O270 1.986 . S
Zn267 O272 1.996 . S
Zn267 O275 1.943 . S
O268 Zn267 1.962 . S
O268 C273 1.254 . S
O269 Zn266 2.031 . S
O269 C273 1.269 . S
O270 Zn267 1.986 . S
O270 C277 1.262 . S
O271 Zn266 2.049 . S
O271 C279 1.260 . S
O272 Zn267 1.996 . S
O272 C279 1.257 . S
C273 O268 1.254 . S
C273 O269 1.269 . S
C274 O275 1.249 . S
C274 O276 1.270 . S
O275 Zn267 1.943 . S
O275 C274 1.249 . S
O276 Zn266 2.067 . S
O276 C274 1.270 . S
C277 O270 1.262 . S
C277 O278 1.232 . S
O278 C277 1.232 . S
C279 O271 1.260 . S
C279 O272 1.257 . S
Zn280 O283 2.031 1_554 S
Zn280 O285 2.049 . S
Zn280 O290 2.067 . S
Zn281 O282 1.994 . S
Zn281 O284 1.986 . S
Zn281 O286 1.996 . S
Zn281 O289 1.943 . S
O282 Zn281 1.994 . S
O282 C287 1.240 1_554 S
O283 Zn280 2.031 1_556 S
O283 C287 1.269 . S
O284 Zn281 1.986 . S
O284 C291 1.262 . S
O285 Zn280 2.049 . S
O285 C293 1.260 . S
O286 Zn281 1.996 . S
O286 C293 1.257 . S
C287 O282 1.240 1_556 S
C287 O283 1.269 . S
C288 O289 1.249 . S
C288 O290 1.270 . S
O289 Zn281 1.943 . S
O289 C288 1.249 . S
O290 Zn280 2.067 . S
O290 C288 1.270 . S
C291 O284 1.262 . S
C291 O292 1.232 . S
O292 C291 1.232 . S
C293 O285 1.260 . S
C293 O286 1.257 . S
Zn294 O297 2.031 . S
Zn294 O299 2.049 . S
Zn294 O304 2.067 . S
Zn295 O296 1.962 . S
Zn295 O298 1.986 . S
Zn295 O300 1.996 . S
Zn295 O303 1.943 . S
O296 Zn295 1.962 . S
O296 C301 1.254 . S
O297 Zn294 2.031 . S
O297 C301 1.269 . S
O298 Zn295 1.986 . S
O298 C305 1.262 . S
O299 Zn294 2.049 . S
O299 C307 1.260 . S
O300 Zn295 1.996 . S
O300 C307 1.257 . S
C301 O296 1.254 . S
C301 O297 1.269 . S
C302 O303 1.249 . S
C302 O304 1.270 . S
O303 Zn295 1.943 . S
O303 C302 1.249 . S
O304 Zn294 2.067 . S
O304 C302 1.270 . S
C305 O298 1.262 . S
C305 O306 1.232 . S
O306 C305 1.232 . S
C307 O299 1.260 . S
C307 O300 1.257 . S
Zn308 O311 2.031 . S
Zn308 O313 2.049 . S
Zn308 O318 2.067 . S
Zn309 O310 1.962 . S
Zn309 O312 1.986 . S
Zn309 O314 1.996 . S
Zn309 O317 1.943 . S
O310 Zn309 1.962 . S
O310 C315 1.254 . S
O311 Zn308 2.031 . S
O311 C315 1.269 . S
O312 Zn309 1.986 . S
O312 C319 1.262 . S
O313 Zn308 2.049 . S
O313 C321 1.260 . S
O314 Zn309 1.996 . S
O314 C321 1.257 . S
C315 O310 1.254 . S
C315 O311 1.269 . S
C316 O317 1.249 . S
C316 O318 1.270 . S
O317 Zn309 1.943 . S
O317 C316 1.249 . S
O318 Zn308 2.067 . S
O318 C316 1.270 . S
C319 O312 1.262 . S
C319 O320 1.232 . S
O320 C319 1.232 . S
C321 O313 1.260 . S
C321 O314 1.257 . S
Zn322 O325 2.031 . S
Zn322 O327 2.049 . S
Zn322 O332 2.067 . S
Zn323 O324 1.962 . S
Zn323 O326 1.986 . S
Zn323 O328 1.996 . S
Zn323 O331 1.943 . S
O324 Zn323 1.962 . S
O324 C329 1.254 . S
O325 Zn322 2.031 . S
O325 C329 1.269 . S
O326 Zn323 1.986 . S
O326 C333 1.262 . S
O327 Zn322 2.049 . S
O327 C335 1.260 . S
O328 Zn323 1.996 . S
O328 C335 1.257 . S
C329 O324 1.254 . S
C329 O325 1.269 . S
C330 O331 1.249 . S
C330 O332 1.270 . S
O331 Zn323 1.943 . S
O331 C330 1.249 . S
O332 Zn322 2.067 . S
O332 C330 1.270 . S
C333 O326 1.262 . S
C333 O334 1.232 . S
O334 C333 1.232 . S
C335 O327 1.260 . S
C335 O328 1.257 . S
Dy336 O339 2.307 . S
Dy336 O341 2.395 . S
Dy336 O342 2.379 . S
Dy336 O344 2.339 . S
Dy336 O346 2.298 . S
Dy336 O350 2.275 . S
Dy336 C358 2.738 . S
Dy337 O340 2.293 1_655 S
Dy337 O343 2.261 1_655 S
Dy337 O345 2.309 1_655 S
Dy337 O347 2.427 . S
Dy337 O348 2.409 1_554 S
Dy337 O351 2.322 1_654 S
Dy337 C367 2.773 . S
C338 O350 1.254 1_556 S
C338 O351 1.257 . S
O339 Dy336 2.307 . S
O339 C349 1.266 . S
O340 Dy337 2.293 1_455 S
O340 C349 1.236 . S
O341 Dy336 2.395 . S
O341 C358 1.255 . S
O342 Dy336 2.379 . S
O342 C358 1.249 . S
O343 Dy337 2.261 1_455 S
O343 C359 1.254 . S
O344 Dy336 2.339 . S
O344 C359 1.257 . S
O345 Dy337 2.309 1_455 S
O345 C360 1.254 1_545 S
O346 Dy336 2.298 . S
O346 C360 1.236 1_545 S
O347 Dy337 2.427 . S
O347 C367 1.255 . S
O348 Dy337 2.409 1_556 S
O348 C367 1.249 1_556 S
C349 O339 1.266 . S
C349 O340 1.236 . S
O350 Dy336 2.275 . S
O350 C338 1.254 1_554 S
O351 Dy337 2.322 1_456 S
O351 C338 1.257 . S
C352 C355 1.344 . S
C352 C356 1.328 . S
C352 C358 1.516 . S
C353 C354 1.304 . S
C353 C357 1.323 . S
C354 C353 1.304 . S
C354 C355 1.371 . S
C354 H368 0.935 . S
C355 C352 1.344 . S
C355 C354 1.371 . S
C355 H369 0.931 . S
C356 C352 1.328 . S
C356 C357 1.433 . S
C356 H370 0.931 . S
C357 C353 1.323 . S
C357 C356 1.433 . S
C357 H371 0.933 . S
C358 Dy336 2.738 . S
C358 O341 1.255 . S
C358 O342 1.249 . S
C358 C352 1.516 . S
C359 O343 1.254 . S
C359 O344 1.257 . S
C360 O345 1.254 1_565 S
C360 O346 1.236 1_565 S
C361 C364 1.344 . S
C361 C365 1.328 1_554 S
C361 C367 1.516 . S
C362 C363 1.304 . S
C362 C366 1.323 1_554 S
C363 C362 1.304 . S
C363 C364 1.371 . S
C363 H372 0.930 . S
C364 C361 1.344 . S
C364 C363 1.371 . S
C364 H373 0.931 . S
C365 C361 1.328 1_556 S
C365 C366 1.433 . S
C365 H374 0.931 . S
C366 C362 1.323 1_556 S
C366 C365 1.433 . S
C366 H375 0.933 . S
C367 Dy337 2.773 . S
C367 O347 1.255 . S
C367 O348 1.249 1_554 S
C367 C361 1.516 . S
H368 C354 0.935 . S
H369 C355 0.931 . S
H370 C356 0.931 . S
H371 C357 0.933 . S
H372 C363 0.930 . S
H373 C364 0.931 . S
H374 C365 0.931 . S
H375 C366 0.933 . S
Dy376 O379 2.307 . S
Dy376 O381 2.395 . S
Dy376 O382 2.379 . S
Dy376 O384 2.339 . S
Dy376 O386 2.298 . S
Dy376 O390 2.275 . S
Dy376 C398 2.738 . S
Dy377 O380 2.298 . S
Dy377 O383 2.275 . S
Dy377 O385 2.307 . S
Dy377 O387 2.395 . S
Dy377 O388 2.379 . S
Dy377 O391 2.339 . S
Dy377 C407 2.738 . S
C378 O390 1.254 . S
C378 O391 1.257 . S
O379 Dy376 2.307 . S
O379 C389 1.266 . S
O380 Dy377 2.298 . S
O380 C389 1.236 . S
O381 Dy376 2.395 . S
O381 C398 1.255 . S
O382 Dy376 2.379 . S
O382 C398 1.249 . S
O383 Dy377 2.275 . S
O383 C399 1.254 . S
O384 Dy376 2.339 . S
O384 C399 1.257 . S
O385 Dy377 2.307 . S
O385 C400 1.266 . S
O386 Dy376 2.298 . S
O386 C400 1.236 . S
O387 Dy377 2.395 . S
O387 C407 1.255 . S
O388 Dy377 2.379 . S
O388 C407 1.249 . S
C389 O379 1.266 . S
C389 O380 1.236 . S
O390 Dy376 2.275 . S
O390 C378 1.254 . S
O391 Dy377 2.339 . S
O391 C378 1.257 . S
C392 C395 1.344 . S
C392 C396 1.328 . S
C392 C398 1.516 . S
C393 C394 1.304 . S
C393 C397 1.323 . S
C394 C393 1.304 . S
C394 C395 1.371 . S
C394 H408 0.930 . S
C395 C392 1.344 . S
C395 C394 1.371 . S
C395 H409 0.931 . S
C396 C392 1.328 . S
C396 C397 1.433 . S
C396 H410 0.931 . S
C397 C393 1.323 . S
C397 C396 1.433 . S
C397 H411 0.933 . S
C398 Dy376 2.738 . S
C398 O381 1.255 . S
C398 O382 1.249 . S
C398 C392 1.516 . S
C399 O383 1.254 . S
C399 O384 1.257 . S
C400 O385 1.266 . S
C400 O386 1.236 . S
C401 C404 1.344 . S
C401 C405 1.328 . S
C401 C407 1.516 . S
C402 C403 1.304 . S
C402 C406 1.323 . S
C403 C402 1.304 . S
C403 C404 1.371 . S
C403 H412 0.930 . S
C404 C401 1.344 . S
C404 C403 1.371 . S
C404 H413 0.931 . S
C405 C401 1.328 . S
C405 C406 1.433 . S
C405 H414 0.931 . S
C406 C402 1.323 . S
C406 C405 1.433 . S
C406 H415 0.933 . S
C407 Dy377 2.738 . S
C407 O387 1.255 . S
C407 O388 1.249 . S
C407 C401 1.516 . S
H408 C394 0.930 . S
H409 C395 0.931 . S
H410 C396 0.931 . S
H411 C397 0.933 . S
H412 C403 0.930 . S
H413 C404 0.931 . S
H414 C405 0.931 . S
H415 C406 0.933 . S
Dy416 O419 2.307 1_545 S
Dy416 O421 2.395 . S
Dy416 O422 2.379 . S
Dy416 O424 2.339 . S
Dy416 O426 2.298 . S
Dy416 O430 2.275 . S
Dy416 C438 2.738 . S
Dy417 O420 2.298 . S
Dy417 O423 2.275 . S
Dy417 O425 2.307 . S
Dy417 O427 2.395 . S
Dy417 O428 2.379 . S
Dy417 O431 2.339 . S
Dy417 C447 2.738 . S
C418 O430 1.254 . S
C418 O431 1.257 . S
O419 Dy416 2.307 1_565 S
O419 C429 1.266 . S
O420 Dy417 2.298 . S
O420 C429 1.236 1_545 S
O421 Dy416 2.395 . S
O421 C438 1.255 . S
O422 Dy416 2.379 . S
O422 C438 1.249 . S
O423 Dy417 2.275 . S
O423 C439 1.254 . S
O424 Dy416 2.339 . S
O424 C439 1.257 . S
O425 Dy417 2.307 . S
O425 C440 1.266 . S
O426 Dy416 2.298 . S
O426 C440 1.236 . S
O427 Dy417 2.395 . S
O427 C447 1.255 . S
O428 Dy417 2.379 . S
O428 C447 1.249 . S
C429 O419 1.266 . S
C429 O420 1.236 1_565 S
O430 Dy416 2.275 . S
O430 C418 1.254 . S
O431 Dy417 2.339 . S
O431 C418 1.257 . S
C432 C435 1.344 . S
C432 C436 1.328 . S
C432 C438 1.516 . S
C433 C434 1.304 . S
C433 C437 1.323 . S
C434 C433 1.304 . S
C434 C435 1.371 . S
C434 H448 0.930 . S
C435 C432 1.344 . S
C435 C434 1.371 . S
C435 H449 0.931 . S
C436 C432 1.328 . S
C436 C437 1.433 . S
C436 H450 0.931 . S
C437 C433 1.323 . S
C437 C436 1.433 . S
C437 H451 0.933 . S
C438 Dy416 2.738 . S
C438 O421 1.255 . S
C438 O422 1.249 . S
C438 C432 1.516 . S
C439 O423 1.254 . S
C439 O424 1.257 . S
C440 O425 1.266 . S
C440 O426 1.236 . S
C441 C444 1.344 1_545 S
C441 C445 1.333 . S
C441 C447 1.516 . S
C442 C443 1.304 . S
C442 C446 1.323 . S
C443 C442 1.304 . S
C443 C444 1.371 . S
C443 H452 0.930 . S
C444 C441 1.344 1_565 S
C444 C443 1.371 . S
C444 H453 0.931 . S
C445 C441 1.333 . S
C445 C446 1.405 1_545 S
C445 H454 0.955 . S
C446 C442 1.323 . S
C446 C445 1.405 1_565 S
C446 H455 0.933 . S
C447 Dy417 2.738 . S
C447 O427 1.255 . S
C447 O428 1.249 . S
C447 C441 1.516 . S
H448 C434 0.930 . S
H449 C435 0.931 . S
H450 C436 0.931 . S
H451 C437 0.933 . S
H452 C443 0.930 . S
H453 C444 0.931 . S
H454 C445 0.955 . S
H455 C446 0.933 . S
Dy456 O459 2.307 . S
Dy456 O461 2.395 . S
Dy456 O462 2.379 . S
Dy456 O464 2.339 . S
Dy456 O466 2.298 . S
Dy456 O470 2.275 . S
Dy456 C478 2.738 . S
Dy457 O460 2.298 . S
Dy457 O463 2.275 . S
Dy457 O465 2.307 . S
Dy457 O467 2.395 . S
Dy457 O468 2.379 . S
Dy457 O471 2.339 . S
Dy457 C487 2.738 . S
C458 O470 1.254 . S
C458 O471 1.257 . S
O459 Dy456 2.307 . S
O459 C469 1.266 . S
O460 Dy457 2.298 . S
O460 C469 1.236 . S
O461 Dy456 2.395 . S
O461 C478 1.255 . S
O462 Dy456 2.379 . S
O462 C478 1.249 . S
O463 Dy457 2.275 . S
O463 C479 1.254 . S
O464 Dy456 2.339 . S
O464 C479 1.257 . S
O465 Dy457 2.307 . S
O465 C480 1.266 . S
O466 Dy456 2.298 . S
O466 C480 1.236 . S
O467 Dy457 2.395 . S
O467 C487 1.255 . S
O468 Dy457 2.379 . S
O468 C487 1.249 . S
C469 O459 1.266 . S
C469 O460 1.236 . S
O470 Dy456 2.275 . S
O470 C458 1.254 . S
O471 Dy457 2.339 . S
O471 C458 1.257 . S
C472 C475 1.344 . S
C472 C476 1.328 . S
C472 C478 1.516 . S
C473 C474 1.304 . S
C473 C477 1.323 . S
C474 C473 1.304 . S
C474 C475 1.371 . S
C474 H488 0.930 . S
C475 C472 1.344 . S
C475 C474 1.371 . S
C475 H489 0.931 . S
C476 C472 1.328 . S
C476 C477 1.433 . S
C476 H490 0.931 . S
C477 C473 1.323 . S
C477 C476 1.433 . S
C477 H491 0.933 . S
C478 Dy456 2.738 . S
C478 O461 1.255 . S
C478 O462 1.249 . S
C478 C472 1.516 . S
C479 O463 1.254 . S
C479 O464 1.257 . S
C480 O465 1.266 . S
C480 O466 1.236 . S
C481 C484 1.344 . S
C481 C485 1.328 . S
C481 C487 1.516 . S
C482 C483 1.304 . S
C482 C486 1.323 . S
C483 C482 1.304 . S
C483 C484 1.371 . S
C483 H492 0.930 . S
C484 C481 1.344 . S
C484 C483 1.371 . S
C484 H493 0.931 . S
C485 C481 1.328 . S
C485 C486 1.433 . S
C485 H494 0.931 . S
C486 C482 1.323 . S
C486 C485 1.433 . S
C486 H495 0.933 . S
C487 Dy457 2.738 . S
C487 O467 1.255 . S
C487 O468 1.249 . S
C487 C481 1.516 . S
H488 C474 0.930 . S
H489 C475 0.931 . S
H490 C476 0.931 . S
H491 C477 0.933 . S
H492 C483 0.930 . S
H493 C484 0.931 . S
H494 C485 0.931 . S
H495 C486 0.933 . S
Dy496 O499 2.307 . S
Dy496 O501 2.395 1_545 S
Dy496 O502 2.379 1_545 S
Dy496 O504 2.339 . S
Dy496 O506 2.298 . S
Dy496 O510 2.275 . S
Dy496 C518 2.738 1_545 S
Dy497 O500 2.298 . S
Dy497 O503 2.275 . S
Dy497 O505 2.307 . S
Dy497 O507 2.395 . S
Dy497 O508 2.382 . S
Dy497 O511 2.339 1_455 S
Dy497 C527 2.738 . S
C498 O510 1.254 1_655 S
C498 O511 1.257 . S
O499 Dy496 2.307 . S
O499 C509 1.266 . S
O500 Dy497 2.298 . S
O500 C509 1.236 . S
O501 Dy496 2.395 1_565 S
O501 C518 1.255 . S
O502 Dy496 2.379 1_565 S
O502 C518 1.249 . S
O503 Dy497 2.275 . S
O503 C519 1.254 . S
O504 Dy496 2.339 . S
O504 C519 1.257 . S
O505 Dy497 2.307 . S
O505 C520 1.266 . S
O506 Dy496 2.298 . S
O506 C520 1.236 . S
O507 Dy497 2.395 . S
O507 C527 1.255 . S
O508 Dy497 2.382 . S
O508 C527 1.253 . S
C509 O499 1.266 . S
C509 O500 1.236 . S
O510 Dy496 2.275 . S
O510 C498 1.254 1_455 S
O511 Dy497 2.339 1_655 S
O511 C498 1.257 . S
C512 C515 1.344 . S
C512 C516 1.328 . S
C512 C518 1.516 . S
C513 C514 1.304 . S
C513 C517 1.323 . S
C514 C513 1.304 . S
C514 C515 1.371 . S
C514 H528 0.930 . S
C515 C512 1.344 . S
C515 C514 1.371 . S
C515 H529 0.931 . S
C516 C512 1.328 . S
C516 C517 1.433 . S
C516 H530 0.931 . S
C517 C513 1.323 . S
C517 C516 1.433 . S
C517 H531 0.933 . S
C518 Dy496 2.738 1_565 S
C518 O501 1.255 . S
C518 O502 1.249 . S
C518 C512 1.516 . S
C519 O503 1.254 . S
C519 O504 1.257 . S
C520 O505 1.266 . S
C520 O506 1.236 . S
C521 C524 1.344 . S
C521 C525 1.328 1_455 S
C521 C527 1.516 . S
C522 C523 1.304 . S
C522 C526 1.323 1_455 S
C523 C522 1.304 . S
C523 C524 1.371 . S
C523 H532 0.930 . S
C524 C521 1.344 . S
C524 C523 1.371 . S
C524 H533 0.931 . S
C525 C521 1.328 1_655 S
C525 C526 1.433 . S
C525 H534 0.931 . S
C526 C522 1.323 1_655 S
C526 C525 1.433 . S
C526 H535 0.933 . S
C527 Dy497 2.738 . S
C527 O507 1.255 . S
C527 O508 1.253 . S
C527 C521 1.516 . S
H528 C514 0.930 . S
H529 C515 0.931 . S
H530 C516 0.931 . S
H531 C517 0.933 . S
H532 C523 0.930 . S
H533 C524 0.931 . S
H534 C525 0.931 . S
H535 C526 0.933 . S
Dy536 O539 2.307 . S
Dy536 O541 2.395 . S
Dy536 O542 2.379 . S
Dy536 O544 2.339 . S
Dy536 O546 2.298 . S
Dy536 O550 2.275 . S
Dy536 C558 2.738 . S
Dy537 O540 2.298 . S
Dy537 O543 2.275 . S
Dy537 O545 2.307 . S
Dy537 O547 2.395 . S
Dy537 O548 2.379 . S
Dy537 O551 2.339 . S
Dy537 C567 2.738 . S
C538 O550 1.254 . S
C538 O551 1.257 . S
O539 Dy536 2.307 . S
O539 C549 1.266 . S
O540 Dy537 2.298 . S
O540 C549 1.236 . S
O541 Dy536 2.395 . S
O541 C558 1.255 . S
O542 Dy536 2.379 . S
O542 C558 1.249 . S
O543 Dy537 2.275 . S
O543 C559 1.254 . S
O544 Dy536 2.339 . S
O544 C559 1.257 . S
O545 Dy537 2.307 . S
O545 C560 1.266 . S
O546 Dy536 2.298 . S
O546 C560 1.236 . S
O547 Dy537 2.395 . S
O547 C567 1.255 . S
O548 Dy537 2.379 . S
O548 C567 1.249 . S
C549 O539 1.266 . S
C549 O540 1.236 . S
O550 Dy536 2.275 . S
O550 C538 1.254 . S
O551 Dy537 2.339 . S
O551 C538 1.257 . S
C552 C555 1.344 . S
C552 C556 1.328 . S
C552 C558 1.516 . S
C553 C554 1.304 . S
C553 C557 1.323 . S
C554 C553 1.304 . S
C554 C555 1.371 . S
C554 H568 0.930 . S
C555 C552 1.344 . S
C555 C554 1.371 . S
C555 H569 0.931 . S
C556 C552 1.328 . S
C556 C557 1.433 . S
C556 H570 0.931 . S
C557 C553 1.323 . S
C557 C556 1.433 . S
C557 H571 0.933 . S
C558 Dy536 2.738 . S
C558 O541 1.255 . S
C558 O542 1.249 . S
C558 C552 1.516 . S
C559 O543 1.254 . S
C559 O544 1.257 . S
C560 O545 1.266 . S
C560 O546 1.236 . S
C561 C564 1.344 . S
C561 C565 1.328 . S
C561 C567 1.516 . S
C562 C563 1.304 . S
C562 C566 1.323 . S
C563 C562 1.304 . S
C563 C564 1.371 . S
C563 H572 0.930 . S
C564 C561 1.344 . S
C564 C563 1.371 . S
C564 H573 0.931 . S
C565 C561 1.328 . S
C565 C566 1.433 . S
C565 H574 0.931 . S
C566 C562 1.323 . S
C566 C565 1.433 . S
C566 H575 0.933 . S
C567 Dy537 2.738 . S
C567 O547 1.255 . S
C567 O548 1.249 . S
C567 C561 1.516 . S
H568 C554 0.930 . S
H569 C555 0.931 . S
H570 C556 0.931 . S
H571 C557 0.933 . S
H572 C563 0.930 . S
H573 C564 0.931 . S
H574 C565 0.931 . S
H575 C566 0.933 . S
Dy576 O579 2.307 1_556 S
Dy576 O581 2.395 . S
Dy576 O582 2.379 . S
Dy576 O584 2.339 1_556 S
Dy576 O586 2.298 1_556 S
Dy576 O590 2.275 1_556 S
Dy576 C598 2.738 . S
Dy577 O580 2.298 . S
Dy577 O583 2.275 . S
Dy577 O585 2.307 . S
Dy577 O587 2.395 . S
Dy577 O588 2.379 . S
Dy577 O591 2.339 . S
Dy577 C607 2.738 . S
C578 O590 1.254 . S
C578 O591 1.257 . S
O579 Dy576 2.307 1_554 S
O579 C589 1.266 . S
O580 Dy577 2.298 . S
O580 C589 1.236 . S
O581 Dy576 2.395 . S
O581 C598 1.255 . S
O582 Dy576 2.379 . S
O582 C598 1.249 . S
O583 Dy577 2.275 . S
O583 C599 1.254 . S
O584 Dy576 2.339 1_554 S
O584 C599 1.257 . S
O585 Dy577 2.307 . S
O585 C600 1.266 . S
O586 Dy576 2.298 1_554 S
O586 C600 1.236 . S
O587 Dy577 2.395 . S
O587 C607 1.255 . S
O588 Dy577 2.379 . S
O588 C607 1.249 . S
C589 O579 1.266 . S
C589 O580 1.236 . S
O590 Dy576 2.275 1_554 S
O590 C578 1.254 . S
O591 Dy577 2.339 . S
O591 C578 1.257 . S
C592 C595 1.344 . S
C592 C596 1.328 . S
C592 C598 1.516 . S
C593 C594 1.304 . S
C593 C597 1.323 . S
C594 C593 1.304 . S
C594 C595 1.371 . S
C594 H608 0.930 . S
C595 C592 1.344 . S
C595 C594 1.371 . S
C595 H609 0.931 . S
C596 C592 1.328 . S
C596 C597 1.433 . S
C596 H610 0.931 . S
C597 C593 1.323 . S
C597 C596 1.433 . S
C597 H611 0.933 . S
C598 Dy576 2.738 . S
C598 O581 1.255 . S
C598 O582 1.249 . S
C598 C592 1.516 . S
C599 O583 1.254 . S
C599 O584 1.257 . S
C600 O585 1.266 . S
C600 O586 1.236 . S
C601 C604 1.344 . S
C601 C605 1.328 1_545 S
C601 C607 1.516 . S
C602 C603 1.304 1_565 S
C602 C606 1.323 . S
C603 C602 1.304 1_545 S
C603 C604 1.371 . S
C603 H612 0.930 . S
C604 C601 1.344 . S
C604 C603 1.371 . S
C604 H613 0.931 . S
C605 C601 1.328 1_565 S
C605 C606 1.433 . S
C605 H614 0.931 . S
C606 C602 1.323 . S
C606 C605 1.433 . S
C606 H615 0.933 . S
C607 Dy577 2.738 . S
C607 O587 1.255 . S
C607 O588 1.249 . S
C607 C601 1.516 . S
H608 C594 0.930 . S
H609 C595 0.931 . S
H610 C596 0.931 . S
H611 C597 0.933 . S
H612 C603 0.930 . S
H613 C604 0.931 . S
H614 C605 0.931 . S
H615 C606 0.933 . S
Dy616 O619 2.307 . S
Dy616 O621 2.395 . S
Dy616 O622 2.379 . S
Dy616 O624 2.339 . S
Dy616 O626 2.298 . S
Dy616 O630 2.275 . S
Dy616 C638 2.738 . S
Dy617 O620 2.298 . S
Dy617 O623 2.275 . S
Dy617 O625 2.307 . S
Dy617 O627 2.395 . S
Dy617 O628 2.379 . S
Dy617 O631 2.339 . S
Dy617 C647 2.738 . S
C618 O630 1.254 . S
C618 O631 1.257 . S
O619 Dy616 2.307 . S
O619 C629 1.266 . S
O620 Dy617 2.298 . S
O620 C629 1.236 . S
O621 Dy616 2.395 . S
O621 C638 1.255 . S
O622 Dy616 2.379 . S
O622 C638 1.249 . S
O623 Dy617 2.275 . S
O623 C639 1.254 . S
O624 Dy616 2.339 . S
O624 C639 1.257 . S
O625 Dy617 2.307 . S
O625 C640 1.266 . S
O626 Dy616 2.298 . S
O626 C640 1.236 . S
O627 Dy617 2.395 . S
O627 C647 1.255 . S
O628 Dy617 2.379 . S
O628 C647 1.249 . S
C629 O619 1.266 . S
C629 O620 1.236 . S
O630 Dy616 2.275 . S
O630 C618 1.254 . S
O631 Dy617 2.339 . S
O631 C618 1.257 . S
C632 C635 1.344 . S
C632 C636 1.328 . S
C632 C638 1.516 . S
C633 C634 1.304 . S
C633 C637 1.323 . S
C634 C633 1.304 . S
C634 C635 1.371 . S
C634 H648 0.930 . S
C635 C632 1.344 . S
C635 C634 1.371 . S
C635 H649 0.931 . S
C636 C632 1.328 . S
C636 C637 1.433 . S
C636 H650 0.931 . S
C637 C633 1.323 . S
C637 C636 1.433 . S
C637 H651 0.933 . S
C638 Dy616 2.738 . S
C638 O621 1.255 . S
C638 O622 1.249 . S
C638 C632 1.516 . S
C639 O623 1.254 . S
C639 O624 1.257 . S
C640 O625 1.266 . S
C640 O626 1.236 . S
C641 C644 1.344 . S
C641 C645 1.328 . S
C641 C647 1.516 . S
C642 C643 1.304 . S
C642 C646 1.323 . S
C643 C642 1.304 . S
C643 C644 1.371 . S
C643 H652 0.930 . S
C644 C641 1.344 . S
C644 C643 1.371 . S
C644 H653 0.931 . S
C645 C641 1.328 . S
C645 C646 1.433 . S
C645 H654 0.931 . S
C646 C642 1.323 . S
C646 C645 1.433 . S
C646 H655 0.933 . S
C647 Dy617 2.738 . S
C647 O627 1.255 . S
C647 O628 1.249 . S
C647 C641 1.516 . S
H648 C634 0.930 . S
H649 C635 0.931 . S
H650 C636 0.931 . S
H651 C637 0.933 . S
H652 C643 0.930 . S
H653 C644 0.931 . S
H654 C645 0.931 . S
H655 C646 0.933 . S
Dy656 O659 2.307 1_554 S
Dy656 O661 2.395 . S
Dy656 O662 2.379 . S
Dy656 O664 2.339 . S
Dy656 O666 2.298 . S
Dy656 O670 2.275 . S
Dy656 C678 2.738 . S
Dy657 O660 2.298 1_554 S
Dy657 O663 2.275 . S
Dy657 O665 2.307 . S
Dy657 O667 2.395 . S
Dy657 O668 2.379 . S
Dy657 O671 2.339 . S
Dy657 C687 2.738 . S
C658 O670 1.254 . S
C658 O671 1.257 . S
O659 Dy656 2.307 1_556 S
O659 C669 1.266 . S
O660 Dy657 2.298 1_556 S
O660 C669 1.236 . S
O661 Dy656 2.395 . S
O661 C678 1.255 . S
O662 Dy656 2.379 . S
O662 C678 1.249 . S
O663 Dy657 2.275 . S
O663 C679 1.254 . S
O664 Dy656 2.339 . S
O664 C679 1.257 . S
O665 Dy657 2.307 . S
O665 C680 1.266 . S
O666 Dy656 2.298 . S
O666 C680 1.236 . S
O667 Dy657 2.395 . S
O667 C687 1.255 . S
O668 Dy657 2.379 . S
O668 C687 1.249 . S
C669 O659 1.266 . S
C669 O660 1.236 . S
O670 Dy656 2.275 . S
O670 C658 1.254 . S
O671 Dy657 2.339 . S
O671 C658 1.257 . S
C672 C675 1.344 . S
C672 C676 1.328 . S
C672 C678 1.516 . S
C673 C674 1.304 . S
C673 C677 1.323 . S
C674 C673 1.304 . S
C674 C675 1.371 . S
C674 H688 0.930 . S
C675 C672 1.344 . S
C675 C674 1.371 . S
C675 H689 0.931 . S
C676 C672 1.328 . S
C676 C677 1.433 . S
C676 H690 0.931 . S
C677 C673 1.323 . S
C677 C676 1.433 . S
C677 H691 0.933 . S
C678 Dy656 2.738 . S
C678 O661 1.255 . S
C678 O662 1.249 . S
C678 C672 1.516 . S
C679 O663 1.254 . S
C679 O664 1.257 . S
C680 O665 1.266 . S
C680 O666 1.236 . S
C681 C684 1.344 . S
C681 C685 1.328 . S
C681 C687 1.516 1_556 S
C682 C683 1.304 . S
C682 C686 1.323 . S
C683 C682 1.304 . S
C683 C684 1.371 . S
C683 H692 0.930 . S
C684 C681 1.344 . S
C684 C683 1.371 . S
C684 H693 0.931 . S
C685 C681 1.328 . S
C685 C686 1.433 . S
C685 H694 0.912 1_556 S
C686 C682 1.323 . S
C686 C685 1.433 . S
C686 H695 0.933 . S
C687 Dy657 2.738 . S
C687 O667 1.255 . S
C687 O668 1.249 . S
C687 C681 1.516 1_554 S
H688 C674 0.930 . S
H689 C675 0.931 . S
H690 C676 0.931 . S
H691 C677 0.933 . S
H692 C683 0.930 . S
H693 C684 0.931 . S
H694 C685 0.912 1_554 S
H695 C686 0.933 . S
Dy696 O699 2.307 . S
Dy696 O701 2.395 . S
Dy696 O702 2.379 . S
Dy696 O704 2.339 . S
Dy696 O706 2.298 . S
Dy696 O710 2.275 . S
Dy696 C718 2.738 . S
Dy697 O700 2.298 . S
Dy697 O703 2.275 . S
Dy697 O705 2.307 . S
Dy697 O707 2.395 . S
Dy697 O708 2.379 . S
Dy697 O711 2.339 . S
Dy697 C727 2.738 . S
C698 O710 1.254 . S
C698 O711 1.257 . S
O699 Dy696 2.307 . S
O699 C709 1.266 . S
O700 Dy697 2.298 . S
O700 C709 1.236 . S
O701 Dy696 2.395 . S
O701 C718 1.255 . S
O702 Dy696 2.379 . S
O702 C718 1.249 . S
O703 Dy697 2.275 . S
O703 C719 1.254 . S
O704 Dy696 2.339 . S
O704 C719 1.257 . S
O705 Dy697 2.307 . S
O705 C720 1.266 . S
O706 Dy696 2.298 . S
O706 C720 1.236 . S
O707 Dy697 2.395 . S
O707 C727 1.255 . S
O708 Dy697 2.379 . S
O708 C727 1.249 . S
C709 O699 1.266 . S
C709 O700 1.236 . S
O710 Dy696 2.275 . S
O710 C698 1.254 . S
O711 Dy697 2.339 . S
O711 C698 1.257 . S
C712 C715 1.344 . S
C712 C716 1.328 . S
C712 C718 1.516 . S
C713 C714 1.304 . S
C713 C717 1.323 . S
C714 C713 1.304 . S
C714 C715 1.371 . S
C714 H728 0.930 . S
C715 C712 1.344 . S
C715 C714 1.371 . S
C715 H729 0.931 . S
C716 C712 1.328 . S
C716 C717 1.433 . S
C716 H730 0.931 . S
C717 C713 1.323 . S
C717 C716 1.433 . S
C717 H731 0.933 . S
C718 Dy696 2.738 . S
C718 O701 1.255 . S
C718 O702 1.249 . S
C718 C712 1.516 . S
C719 O703 1.254 . S
C719 O704 1.257 . S
C720 O705 1.266 . S
C720 O706 1.236 . S
C721 C724 1.344 . S
C721 C725 1.328 . S
C721 C727 1.516 . S
C722 C723 1.304 . S
C722 C726 1.323 . S
C723 C722 1.304 . S
C723 C724 1.371 . S
C723 H732 0.930 . S
C724 C721 1.344 . S
C724 C723 1.371 . S
C724 H733 0.931 . S
C725 C721 1.328 . S
C725 C726 1.433 . S
C725 H734 0.931 . S
C726 C722 1.323 . S
C726 C725 1.433 . S
C726 H735 0.933 . S
C727 Dy697 2.738 . S
C727 O707 1.255 . S
C727 O708 1.249 . S
C727 C721 1.516 . S
H728 C714 0.930 . S
H729 C715 0.931 . S
H730 C716 0.931 . S
H731 C717 0.933 . S
H732 C723 0.930 . S
H733 C724 0.931 . S
H734 C725 0.931 . S
H735 C726 0.933 . S
Dy736 O739 2.307 1_455 S
Dy736 O741 2.395 . S
Dy736 O742 2.379 . S
Dy736 O744 2.339 . S
Dy736 O746 2.298 . S
Dy736 O750 2.275 . S
Dy736 C758 2.738 . S
Dy737 O740 2.298 1_455 S
Dy737 O743 2.275 . S
Dy737 O745 2.307 . S
Dy737 O747 2.395 . S
Dy737 O748 2.379 . S
Dy737 O751 2.339 . S
Dy737 C767 2.738 . S
C738 O750 1.254 . S
C738 O751 1.257 . S
O739 Dy736 2.307 1_655 S
O739 C749 1.266 . S
O740 Dy737 2.298 1_655 S
O740 C749 1.236 . S
O741 Dy736 2.395 . S
O741 C758 1.255 . S
O742 Dy736 2.379 . S
O742 C758 1.249 . S
O743 Dy737 2.275 . S
O743 C759 1.254 . S
O744 Dy736 2.339 . S
O744 C759 1.257 . S
O745 Dy737 2.307 . S
O745 C760 1.266 . S
O746 Dy736 2.298 . S
O746 C760 1.236 . S
O747 Dy737 2.395 . S
O747 C767 1.255 . S
O748 Dy737 2.379 . S
O748 C767 1.249 . S
C749 O739 1.266 . S
C749 O740 1.236 . S
O750 Dy736 2.275 . S
O750 C738 1.254 . S
O751 Dy737 2.339 . S
O751 C738 1.257 . S
C752 C755 1.344 . S
C752 C756 1.328 . S
C752 C758 1.516 . S
C753 C754 1.304 . S
C753 C757 1.323 . S
C754 C753 1.304 . S
C754 C755 1.371 . S
C754 H768 0.930 . S
C755 C752 1.344 . S
C755 C754 1.371 . S
C755 H769 0.931 . S
C756 C752 1.328 . S
C756 C757 1.433 . S
C756 H770 0.931 . S
C757 C753 1.323 . S
C757 C756 1.433 . S
C757 H771 0.933 . S
C758 Dy736 2.738 . S
C758 O741 1.255 . S
C758 O742 1.249 . S
C758 C752 1.516 . S
C759 O743 1.254 . S
C759 O744 1.257 . S
C760 O745 1.266 . S
C760 O746 1.236 . S
C761 C764 1.344 . S
C761 C765 1.328 . S
C761 C767 1.516 1_655 S
C762 C763 1.304 . S
C762 C766 1.323 . S
C763 C762 1.304 . S
C763 C764 1.371 . S
C763 H772 0.930 . S
C764 C761 1.344 . S
C764 C763 1.371 . S
C764 H773 0.931 . S
C765 C761 1.328 . S
C765 C766 1.433 . S
C765 H774 0.931 . S
C766 C762 1.323 . S
C766 C765 1.433 . S
C766 H775 0.933 . S
C767 Dy737 2.738 . S
C767 O747 1.255 . S
C767 O748 1.249 . S
C767 C761 1.516 1_455 S
H768 C754 0.930 . S
H769 C755 0.931 . S
H770 C756 0.931 . S
H771 C757 0.933 . S
H772 C763 0.930 . S
H773 C764 0.931 . S
H774 C765 0.931 . S
H775 C766 0.933 . S
Dy776 O779 2.307 . S
Dy776 O781 2.395 . S
Dy776 O782 2.379 . S
Dy776 O784 2.339 . S
Dy776 O786 2.298 . S
Dy776 O790 2.275 . S
Dy776 C798 2.738 . S
Dy777 O780 2.298 . S
Dy777 O783 2.275 . S
Dy777 O785 2.307 . S
Dy777 O787 2.395 . S
Dy777 O788 2.379 . S
Dy777 O791 2.339 . S
Dy777 C807 2.738 . S
C778 O790 1.254 . S
C778 O791 1.257 . S
O779 Dy776 2.307 . S
O779 C789 1.266 . S
O780 Dy777 2.298 . S
O780 C789 1.236 . S
O781 Dy776 2.395 . S
O781 C798 1.255 . S
O782 Dy776 2.379 . S
O782 C798 1.249 . S
O783 Dy777 2.275 . S
O783 C799 1.254 . S
O784 Dy776 2.339 . S
O784 C799 1.257 . S
O785 Dy777 2.307 . S
O785 C800 1.266 . S
O786 Dy776 2.298 . S
O786 C800 1.236 . S
O787 Dy777 2.395 . S
O787 C807 1.255 . S
O788 Dy777 2.379 . S
O788 C807 1.249 . S
C789 O779 1.266 . S
C789 O780 1.236 . S
O790 Dy776 2.275 . S
O790 C778 1.254 . S
O791 Dy777 2.339 . S
O791 C778 1.257 . S
C792 C795 1.344 . S
C792 C796 1.328 . S
C792 C798 1.516 . S
C793 C794 1.304 . S
C793 C797 1.323 . S
C794 C793 1.304 . S
C794 C795 1.371 . S
C794 H808 0.930 . S
C795 C792 1.344 . S
C795 C794 1.371 . S
C795 H809 0.931 . S
C796 C792 1.328 . S
C796 C797 1.433 . S
C796 H810 0.931 . S
C797 C793 1.323 . S
C797 C796 1.433 . S
C797 H811 0.933 . S
C798 Dy776 2.738 . S
C798 O781 1.255 . S
C798 O782 1.249 . S
C798 C792 1.516 . S
C799 O783 1.254 . S
C799 O784 1.257 . S
C800 O785 1.266 . S
C800 O786 1.236 . S
C801 C804 1.344 . S
C801 C805 1.328 . S
C801 C807 1.516 . S
C802 C803 1.304 . S
C802 C806 1.323 . S
C803 C802 1.304 . S
C803 C804 1.371 . S
C803 H812 0.930 . S
C804 C801 1.344 . S
C804 C803 1.371 . S
C804 H813 0.931 . S
C805 C801 1.328 . S
C805 C806 1.433 . S
C805 H814 0.931 . S
C806 C802 1.323 . S
C806 C805 1.433 . S
C806 H815 0.933 . S
C807 Dy777 2.738 . S
C807 O787 1.255 . S
C807 O788 1.249 . S
C807 C801 1.516 . S
H808 C794 0.930 . S
H809 C795 0.931 . S
H810 C796 0.931 . S
H811 C797 0.933 . S
H812 C803 0.930 . S
H813 C804 0.931 . S
H814 C805 0.931 . S
H815 C806 0.933 . S
Dy816 O819 2.307 . S
Dy816 O821 2.395 . S
Dy816 O822 2.379 . S
Dy816 O824 2.339 . S
Dy816 O826 2.298 . S
Dy816 O830 2.275 . S
Dy816 C838 2.738 . S
Dy817 O820 2.298 . S
Dy817 O823 2.275 . S
Dy817 O825 2.307 . S
Dy817 O827 2.395 . S
Dy817 O828 2.379 . S
Dy817 O831 2.339 . S
Dy817 C847 2.738 . S
C818 O830 1.254 . S
C818 O831 1.257 . S
O819 Dy816 2.307 . S
O819 C829 1.266 . S
O820 Dy817 2.298 . S
O820 C829 1.236 . S
O821 Dy816 2.395 . S
O821 C838 1.255 . S
O822 Dy816 2.379 . S
O822 C838 1.249 . S
O823 Dy817 2.275 . S
O823 C839 1.254 . S
O824 Dy816 2.339 . S
O824 C839 1.257 . S
O825 Dy817 2.307 . S
O825 C840 1.266 . S
O826 Dy816 2.298 . S
O826 C840 1.236 . S
O827 Dy817 2.395 . S
O827 C847 1.255 . S
O828 Dy817 2.379 . S
O828 C847 1.249 . S
C829 O819 1.266 . S
C829 O820 1.236 . S
O830 Dy816 2.275 . S
O830 C818 1.254 . S
O831 Dy817 2.339 . S
O831 C818 1.257 . S
C832 C835 1.344 . S
C832 C836 1.328 . S
C832 C838 1.516 . S
C833 C834 1.304 . S
C833 C837 1.323 . S
C834 C833 1.304 . S
C834 C835 1.371 . S
C834 H848 0.930 . S
C835 C832 1.344 . S
C835 C834 1.371 . S
C835 H849 0.931 . S
C836 C832 1.328 . S
C836 C837 1.433 . S
C836 H850 0.931 . S
C837 C833 1.323 . S
C837 C836 1.433 . S
C837 H851 0.933 . S
C838 Dy816 2.738 . S
C838 O821 1.255 . S
C838 O822 1.249 . S
C838 C832 1.516 . S
C839 O823 1.254 . S
C839 O824 1.257 . S
C840 O825 1.266 . S
C840 O826 1.236 . S
C841 C844 1.344 . S
C841 C845 1.328 . S
C841 C847 1.516 . S
C842 C843 1.304 . S
C842 C846 1.323 . S
C843 C842 1.304 . S
C843 C844 1.371 . S
C843 H852 0.930 . S
C844 C841 1.344 . S
C844 C843 1.371 . S
C844 H853 0.931 . S
C845 C841 1.328 . S
C845 C846 1.433 . S
C845 H854 0.931 . S
C846 C842 1.323 . S
C846 C845 1.433 . S
C846 H855 0.933 . S
C847 Dy817 2.738 . S
C847 O827 1.255 . S
C847 O828 1.249 . S
C847 C841 1.516 . S
H848 C834 0.930 . S
H849 C835 0.931 . S
H850 C836 0.931 . S
H851 C837 0.933 . S
H852 C843 0.930 . S
H853 C844 0.931 . S
H854 C845 0.931 . S
H855 C846 0.933 . S
Dy856 O859 2.307 . S
Dy856 O861 2.395 . S
Dy856 O862 2.379 . S
Dy856 O864 2.339 . S
Dy856 O866 2.298 . S
Dy856 O870 2.275 . S
Dy856 C878 2.738 . S
Dy857 O860 2.298 . S
Dy857 O863 2.275 . S
Dy857 O865 2.307 . S
Dy857 O867 2.395 . S
Dy857 O868 2.379 . S
Dy857 O871 2.339 . S
Dy857 C887 2.738 . S
C858 O870 1.254 . S
C858 O871 1.257 . S
O859 Dy856 2.307 . S
O859 C869 1.266 . S
O860 Dy857 2.298 . S
O860 C869 1.236 . S
O861 Dy856 2.395 . S
O861 C878 1.255 . S
O862 Dy856 2.379 . S
O862 C878 1.249 . S
O863 Dy857 2.275 . S
O863 C879 1.254 . S
O864 Dy856 2.339 . S
O864 C879 1.257 . S
O865 Dy857 2.307 . S
O865 C880 1.266 . S
O866 Dy856 2.298 . S
O866 C880 1.236 . S
O867 Dy857 2.395 . S
O867 C887 1.255 . S
O868 Dy857 2.379 . S
O868 C887 1.249 . S
C869 O859 1.266 . S
C869 O860 1.236 . S
O870 Dy856 2.275 . S
O870 C858 1.254 . S
O871 Dy857 2.339 . S
O871 C858 1.257 . S
C872 C875 1.344 . S
C872 C876 1.328 . S
C872 C878 1.516 . S
C873 C874 1.304 . S
C873 C877 1.323 . S
C874 C873 1.304 . S
C874 C875 1.371 . S
C874 H888 0.930 . S
C875 C872 1.344 . S
C875 C874 1.371 . S
C875 H889 0.931 . S
C876 C872 1.328 . S
C876 C877 1.433 . S
C876 H890 0.931 . S
C877 C873 1.323 . S
C877 C876 1.433 . S
C877 H891 0.933 . S
C878 Dy856 2.738 . S
C878 O861 1.255 . S
C878 O862 1.249 . S
C878 C872 1.516 . S
C879 O863 1.254 . S
C879 O864 1.257 . S
C880 O865 1.266 . S
C880 O866 1.236 . S
C881 C884 1.344 . S
C881 C885 1.328 . S
C881 C887 1.516 . S
C882 C883 1.304 . S
C882 C886 1.323 . S
C883 C882 1.304 . S
C883 C884 1.371 . S
C883 H892 0.930 . S
C884 C881 1.344 . S
C884 C883 1.371 . S
C884 H893 0.931 . S
C885 C881 1.328 . S
C885 C886 1.433 . S
C885 H894 0.931 . S
C886 C882 1.323 . S
C886 C885 1.433 . S
C886 H895 0.933 . S
C887 Dy857 2.738 . S
C887 O867 1.255 . S
C887 O868 1.249 . S
C887 C881 1.516 . S
H888 C874 0.930 . S
H889 C875 0.931 . S
H890 C876 0.931 . S
H891 C877 0.933 . S
H892 C883 0.930 . S
H893 C884 0.931 . S
H894 C885 0.931 . S
H895 C886 0.933 . S
Dy896 O899 2.307 . S
Dy896 O901 2.395 . S
Dy896 O902 2.379 . S
Dy896 O904 2.339 . S
Dy896 O906 2.298 . S
Dy896 O910 2.275 . S
Dy896 C918 2.738 . S
Dy897 O900 2.298 . S
Dy897 O903 2.275 . S
Dy897 O905 2.307 . S
Dy897 O907 2.395 . S
Dy897 O908 2.379 . S
Dy897 O911 2.339 . S
Dy897 C927 2.738 . S
C898 O910 1.254 . S
C898 O911 1.257 . S
O899 Dy896 2.307 . S
O899 C909 1.266 . S
O900 Dy897 2.298 . S
O900 C909 1.236 . S
O901 Dy896 2.395 . S
O901 C918 1.255 . S
O902 Dy896 2.379 . S
O902 C918 1.249 . S
O903 Dy897 2.275 . S
O903 C919 1.254 . S
O904 Dy896 2.339 . S
O904 C919 1.257 . S
O905 Dy897 2.307 . S
O905 C920 1.266 . S
O906 Dy896 2.298 . S
O906 C920 1.236 . S
O907 Dy897 2.395 . S
O907 C927 1.255 . S
O908 Dy897 2.379 . S
O908 C927 1.249 . S
C909 O899 1.266 . S
C909 O900 1.236 . S
O910 Dy896 2.275 . S
O910 C898 1.254 . S
O911 Dy897 2.339 . S
O911 C898 1.257 . S
C912 C915 1.344 . S
C912 C916 1.328 . S
C912 C918 1.516 . S
C913 C914 1.304 . S
C913 C917 1.323 . S
C914 C913 1.304 . S
C914 C915 1.371 . S
C914 H928 0.930 . S
C915 C912 1.344 . S
C915 C914 1.371 . S
C915 H929 0.931 . S
C916 C912 1.328 . S
C916 C917 1.433 . S
C916 H930 0.931 . S
C917 C913 1.323 . S
C917 C916 1.433 . S
C917 H931 0.933 . S
C918 Dy896 2.738 . S
C918 O901 1.255 . S
C918 O902 1.249 . S
C918 C912 1.516 . S
C919 O903 1.254 . S
C919 O904 1.257 . S
C920 O905 1.266 . S
C920 O906 1.236 . S
C921 C924 1.344 . S
C921 C925 1.328 . S
C921 C927 1.516 . S
C922 C923 1.304 . S
C922 C926 1.323 . S
C923 C922 1.304 . S
C923 C924 1.371 . S
C923 H932 0.930 . S
C924 C921 1.344 . S
C924 C923 1.371 . S
C924 H933 0.931 . S
C925 C921 1.328 . S
C925 C926 1.433 . S
C925 H934 0.931 . S
C926 C922 1.323 . S
C926 C925 1.433 . S
C926 H935 0.933 . S
C927 Dy897 2.738 . S
C927 O907 1.255 . S
C927 O908 1.249 . S
C927 C921 1.516 . S
H928 C914 0.930 . S
H929 C915 0.931 . S
H930 C916 0.931 . S
H931 C917 0.933 . S
H932 C923 0.930 . S
H933 C924 0.931 . S
H934 C925 0.931 . S
H935 C926 0.933 . S
Dy936 O939 2.307 1_655 S
Dy936 O941 2.395 . S
Dy936 O942 2.379 . S
Dy936 O944 2.339 1_655 S
Dy936 O946 2.298 1_655 S
Dy936 O950 2.275 1_655 S
Dy936 C958 2.738 . S
Dy937 O940 2.298 . S
Dy937 O943 2.275 . S
Dy937 O945 2.307 . S
Dy937 O947 2.395 . S
Dy937 O948 2.379 1_554 S
Dy937 O951 2.339 1_554 S
Dy937 C967 2.738 . S
C938 O950 1.254 1_556 S
C938 O951 1.257 . S
O939 Dy936 2.307 1_455 S
O939 C949 1.266 . S
O940 Dy937 2.298 . S
O940 C949 1.236 . S
O941 Dy936 2.395 . S
O941 C958 1.255 . S
O942 Dy936 2.379 . S
O942 C958 1.249 . S
O943 Dy937 2.275 . S
O943 C959 1.254 . S
O944 Dy936 2.339 1_455 S
O944 C959 1.257 . S
O945 Dy937 2.307 . S
O945 C960 1.266 . S
O946 Dy936 2.298 1_455 S
O946 C960 1.236 . S
O947 Dy937 2.395 . S
O947 C967 1.255 . S
O948 Dy937 2.379 1_556 S
O948 C967 1.249 1_556 S
C949 O939 1.266 . S
C949 O940 1.236 . S
O950 Dy936 2.275 1_455 S
O950 C938 1.254 1_554 S
O951 Dy937 2.339 1_556 S
O951 C938 1.257 . S
C952 C955 1.344 . S
C952 C956 1.328 . S
C952 C958 1.516 . S
C953 C954 1.304 . S
C953 C957 1.323 . S
C954 C953 1.304 . S
C954 C955 1.371 . S
C954 H968 0.930 . S
C955 C952 1.344 . S
C955 C954 1.371 . S
C955 H969 0.931 . S
C956 C952 1.328 . S
C956 C957 1.433 . S
C956 H970 0.931 . S
C957 C953 1.323 . S
C957 C956 1.433 . S
C957 H971 0.933 . S
C958 Dy936 2.738 . S
C958 O941 1.255 . S
C958 O942 1.249 . S
C958 C952 1.516 . S
C959 O943 1.254 . S
C959 O944 1.257 . S
C960 O945 1.266 . S
C960 O946 1.236 . S
C961 C964 1.344 . S
C961 C965 1.328 1_554 S
C961 C967 1.516 . S
C962 C963 1.304 . S
C962 C966 1.323 1_554 S
C963 C962 1.304 . S
C963 C964 1.371 . S
C963 H972 0.930 . S
C964 C961 1.344 . S
C964 C963 1.371 . S
C964 H973 0.931 . S
C965 C961 1.328 1_556 S
C965 C966 1.433 . S
C965 H974 0.931 . S
C966 C962 1.323 1_556 S
C966 C965 1.433 . S
C966 H975 0.933 . S
C967 Dy937 2.738 . S
C967 O947 1.255 . S
C967 O948 1.249 1_554 S
C967 C961 1.516 . S
H968 C954 0.930 . S
H969 C955 0.931 . S
H970 C956 0.931 . S
H971 C957 0.933 . S
H972 C963 0.930 . S
H973 C964 0.931 . S
H974 C965 0.931 . S
H975 C966 0.933 . S
H976 C982 0.930 . S
H977 C986 0.930 1_655 S
H978 C991 0.929 . S
H979 C989 0.929 . S
H980 C984 0.929 . S
H981 C990 0.929 . S
C982 H976 0.930 . S
C982 C983 1.341 1_454 S
C982 C990 1.378 . S
C983 C982 1.341 1_656 S
C983 C991 1.447 . S
C984 H980 0.929 . S
C984 C986 1.378 1_655 S
C984 C988 1.350 1_655 S
C985 C988 1.463 . S
C985 C990 1.350 . S
C985 N993 1.432 1_455 S
C986 H977 0.930 1_455 S
C986 C984 1.378 1_455 S
C986 C987 1.367 . S
C987 C986 1.367 . S
C987 C989 1.433 . S
C988 C984 1.350 1_455 S
C988 C985 1.463 . S
C988 N992 1.427 . S
C989 H979 0.929 . S
C989 C987 1.433 . S
C989 N992 1.384 . S
C990 H981 0.929 . S
C990 C982 1.378 . S
C990 C985 1.350 . S
C991 H978 0.929 . S
C991 C983 1.447 . S
C991 N993 1.375 1_556 S
N992 C988 1.427 . S
N992 C989 1.384 . S
N993 C985 1.432 1_655 S
N993 C991 1.375 1_554 S
H994 C1000 0.930 . S
H995 C1004 0.930 . S
H996 C1009 0.929 . S
H997 C1007 0.929 . S
H998 C1002 0.929 . S
H999 C1008 0.929 . S
C1000 H994 0.930 . S
C1000 C1001 1.367 . S
C1000 C1008 1.378 . S
C1001 C1000 1.367 . S
C1001 C1009 1.433 . S
C1002 H998 0.929 . S
C1002 C1004 1.378 . S
C1002 C1006 1.350 . S
C1003 C1006 1.463 . S
C1003 C1008 1.350 . S
C1003 N1011 1.427 . S
C1004 H995 0.930 . S
C1004 C1002 1.378 . S
C1004 C1005 1.367 . S
C1005 C1004 1.367 . S
C1005 C1007 1.433 . S
C1006 C1002 1.350 . S
C1006 C1003 1.463 . S
C1006 N1010 1.427 . S
C1007 H997 0.929 . S
C1007 C1005 1.433 . S
C1007 N1010 1.384 . S
C1008 H999 0.929 . S
C1008 C1000 1.378 . S
C1008 C1003 1.350 . S
C1009 H996 0.929 . S
C1009 C1001 1.433 . S
C1009 N1011 1.384 . S
N1010 C1006 1.427 . S
N1010 C1007 1.384 . S
N1011 C1003 1.427 . S
N1011 C1009 1.384 . S
H1012 C1018 0.930 . S
H1013 C1022 0.930 . S
H1014 C1027 0.929 . S
H1015 C1025 0.929 . S
H1016 C1020 0.929 . S
H1017 C1026 0.929 . S
C1018 H1012 0.930 . S
C1018 C1019 1.367 . S
C1018 C1026 1.378 . S
C1019 C1018 1.367 . S
C1019 C1027 1.433 . S
C1020 H1016 0.929 . S
C1020 C1022 1.378 . S
C1020 C1024 1.350 . S
C1021 C1024 1.463 . S
C1021 C1026 1.350 . S
C1021 N1029 1.427 . S
C1022 H1013 0.930 . S
C1022 C1020 1.378 . S
C1022 C1023 1.367 . S
C1023 C1022 1.367 . S
C1023 C1025 1.433 . S
C1024 C1020 1.350 . S
C1024 C1021 1.463 . S
C1024 N1028 1.427 . S
C1025 H1015 0.929 . S
C1025 C1023 1.433 . S
C1025 N1028 1.384 . S
C1026 H1017 0.929 . S
C1026 C1018 1.378 . S
C1026 C1021 1.350 . S
C1027 H1014 0.929 . S
C1027 C1019 1.433 . S
C1027 N1029 1.384 . S
N1028 C1024 1.427 . S
N1028 C1025 1.384 . S
N1029 C1021 1.427 . S
N1029 C1027 1.384 . S
H1030 C1036 0.930 . S
H1031 C1040 0.930 . S
H1032 C1045 0.929 . S
H1033 C1043 0.929 . S
H1034 C1038 0.929 . S
H1035 C1044 0.929 . S
C1036 H1030 0.930 . S
C1036 C1037 1.367 . S
C1036 C1044 1.378 . S
C1037 C1036 1.367 . S
C1037 C1045 1.433 . S
C1038 H1034 0.929 . S
C1038 C1040 1.378 . S
C1038 C1042 1.350 . S
C1039 C1042 1.463 . S
C1039 C1044 1.350 . S
C1039 N1047 1.427 . S
C1040 H1031 0.930 . S
C1040 C1038 1.378 . S
C1040 C1041 1.367 . S
C1041 C1040 1.367 . S
C1041 C1043 1.433 . S
C1042 C1038 1.350 . S
C1042 C1039 1.463 . S
C1042 N1046 1.427 . S
C1043 H1033 0.929 . S
C1043 C1041 1.433 . S
C1043 N1046 1.384 . S
C1044 H1035 0.929 . S
C1044 C1036 1.378 . S
C1044 C1039 1.350 . S
C1045 H1032 0.929 . S
C1045 C1037 1.433 . S
C1045 N1047 1.384 . S
N1046 C1042 1.427 . S
N1046 C1043 1.384 . S
N1047 C1039 1.427 . S
N1047 C1045 1.384 . S
H1048 C1054 0.892 1_655 S
H1049 C1058 0.930 . S
H1050 C1063 0.929 . S
H1051 C1061 0.929 . S
H1052 C1056 0.929 . S
H1053 C1062 0.929 . S
C1054 H1048 0.892 1_455 S
C1054 C1055 1.367 . S
C1054 C1062 1.378 . S
C1055 C1054 1.367 . S
C1055 C1063 1.433 . S
C1056 H1052 0.929 . S
C1056 C1058 1.378 . S
C1056 C1060 1.350 . S
C1057 C1060 1.463 . S
C1057 C1062 1.350 . S
C1057 N1065 1.427 . S
C1058 H1049 0.930 . S
C1058 C1056 1.378 . S
C1058 C1059 1.367 . S
C1059 C1058 1.367 . S
C1059 C1061 1.433 . S
C1060 C1056 1.350 . S
C1060 C1057 1.463 . S
C1060 N1064 1.427 . S
C1061 H1051 0.929 . S
C1061 C1059 1.433 . S
C1061 N1064 1.384 . S
C1062 H1053 0.929 . S
C1062 C1054 1.378 . S
C1062 C1057 1.350 . S
C1063 H1050 0.929 . S
C1063 C1055 1.433 . S
C1063 N1065 1.384 . S
N1064 C1060 1.427 . S
N1064 C1061 1.384 . S
N1065 C1057 1.427 . S
N1065 C1063 1.384 . S
H1066 C1072 0.930 . S
H1067 C1076 0.930 . S
H1068 C1081 0.929 . S
H1069 C1079 0.929 . S
H1070 C1074 0.929 . S
H1071 C1080 0.929 . S
C1072 H1066 0.930 . S
C1072 C1073 1.367 . S
C1072 C1080 1.378 . S
C1073 C1072 1.367 . S
C1073 C1081 1.433 . S
C1074 H1070 0.929 . S
C1074 C1076 1.378 . S
C1074 C1078 1.350 . S
C1075 C1078 1.463 . S
C1075 C1080 1.350 . S
C1075 N1083 1.427 . S
C1076 H1067 0.930 . S
C1076 C1074 1.378 . S
C1076 C1077 1.367 . S
C1077 C1076 1.367 . S
C1077 C1079 1.433 . S
C1078 C1074 1.350 . S
C1078 C1075 1.463 . S
C1078 N1082 1.427 . S
C1079 H1069 0.929 . S
C1079 C1077 1.433 . S
C1079 N1082 1.384 . S
C1080 H1071 0.929 . S
C1080 C1072 1.378 . S
C1080 C1075 1.350 . S
C1081 H1068 0.929 . S
C1081 C1073 1.433 . S
C1081 N1083 1.384 . S
N1082 C1078 1.427 . S
N1082 C1079 1.384 . S
N1083 C1075 1.427 . S
N1083 C1081 1.384 . S
H1084 C1090 0.930 . S
H1085 C1094 0.930 . S
H1086 C1099 0.929 . S
H1087 C1097 0.929 . S
H1088 C1092 0.929 . S
H1089 C1098 0.929 . S
C1090 H1084 0.930 . S
C1090 C1091 1.367 . S
C1090 C1098 1.378 . S
C1091 C1090 1.367 . S
C1091 C1099 1.433 . S
C1092 H1088 0.929 . S
C1092 C1094 1.378 . S
C1092 C1096 1.350 . S
C1093 C1096 1.463 . S
C1093 C1098 1.350 . S
C1093 N1101 1.427 . S
C1094 H1085 0.930 . S
C1094 C1092 1.378 . S
C1094 C1095 1.367 . S
C1095 C1094 1.367 . S
C1095 C1097 1.433 . S
C1096 C1092 1.350 . S
C1096 C1093 1.463 . S
C1096 N1100 1.427 . S
C1097 H1087 0.929 . S
C1097 C1095 1.433 . S
C1097 N1100 1.384 . S
C1098 H1089 0.929 . S
C1098 C1090 1.378 . S
C1098 C1093 1.350 . S
C1099 H1086 0.929 . S
C1099 C1091 1.433 . S
C1099 N1101 1.384 . S
N1100 C1096 1.427 . S
N1100 C1097 1.384 . S
N1101 C1093 1.427 . S
N1101 C1099 1.384 . S
H1102 C1108 0.930 . S
H1103 C1112 0.930 . S
H1104 C1117 0.929 . S
H1105 C1115 0.929 . S
H1106 C1110 0.929 . S
H1107 C1116 0.929 . S
C1108 H1102 0.930 . S
C1108 C1109 1.367 . S
C1108 C1116 1.378 . S
C1109 C1108 1.367 . S
C1109 C1117 1.433 . S
C1110 H1106 0.929 . S
C1110 C1112 1.378 . S
C1110 C1114 1.350 . S
C1111 C1114 1.463 . S
C1111 C1116 1.350 . S
C1111 N1119 1.427 . S
C1112 H1103 0.930 . S
C1112 C1110 1.378 . S
C1112 C1113 1.367 . S
C1113 C1112 1.367 . S
C1113 C1115 1.433 . S
C1114 C1110 1.350 . S
C1114 C1111 1.463 . S
C1114 N1118 1.427 . S
C1115 H1105 0.929 . S
C1115 C1113 1.433 . S
C1115 N1118 1.384 . S
C1116 H1107 0.929 . S
C1116 C1108 1.378 . S
C1116 C1111 1.350 . S
C1117 H1104 0.929 . S
C1117 C1109 1.433 . S
C1117 N1119 1.384 . S
N1118 C1114 1.427 . S
N1118 C1115 1.384 . S
N1119 C1111 1.427 . S
N1119 C1117 1.384 . S
H1120 C1126 0.930 . S
H1121 C1130 0.930 . S
H1122 C1135 0.930 1_455 S
H1123 C1133 0.931 1_655 S
H1124 C1128 0.929 . S
H1125 C1134 0.929 . S
C1126 H1120 0.930 . S
C1126 C1127 1.367 . S
C1126 C1134 1.378 . S
C1127 C1126 1.367 . S
C1127 C1135 1.433 . S
C1128 H1124 0.929 . S
C1128 C1130 1.378 . S
C1128 C1132 1.350 . S
C1129 C1132 1.463 1_655 S
C1129 C1134 1.350 . S
C1129 N1137 1.427 1_655 S
C1130 H1121 0.930 . S
C1130 C1128 1.378 . S
C1130 C1131 1.367 . S
C1131 C1130 1.367 . S
C1131 C1133 1.433 . S
C1132 C1128 1.350 . S
C1132 C1129 1.463 1_455 S
C1132 N1136 1.427 1_455 S
C1133 H1123 0.931 1_455 S
C1133 C1131 1.433 . S
C1133 N1136 1.384 1_455 S
C1134 H1125 0.929 . S
C1134 C1126 1.378 . S
C1134 C1129 1.350 . S
C1135 H1122 0.930 1_655 S
C1135 C1127 1.433 . S
C1135 N1137 1.384 1_655 S
N1136 C1132 1.427 1_655 S
N1136 C1133 1.384 1_655 S
N1137 C1129 1.427 1_455 S
N1137 C1135 1.384 1_455 S
H1138 C1144 0.930 . S
H1139 C1148 0.930 . S
H1140 C1153 0.929 . S
H1141 C1151 0.929 . S
H1142 C1146 0.929 . S
H1143 C1152 0.929 . S
C1144 H1138 0.930 . S
C1144 C1145 1.367 . S
C1144 C1152 1.378 . S
C1145 C1144 1.367 . S
C1145 C1153 1.433 . S
C1146 H1142 0.929 . S
C1146 C1148 1.378 . S
C1146 C1150 1.350 . S
C1147 C1150 1.463 . S
C1147 C1152 1.350 . S
C1147 N1155 1.427 . S
C1148 H1139 0.930 . S
C1148 C1146 1.378 . S
C1148 C1149 1.367 . S
C1149 C1148 1.367 . S
C1149 C1151 1.433 . S
C1150 C1146 1.350 . S
C1150 C1147 1.463 . S
C1150 N1154 1.427 . S
C1151 H1141 0.929 . S
C1151 C1149 1.433 . S
C1151 N1154 1.384 . S
C1152 H1143 0.929 . S
C1152 C1144 1.378 . S
C1152 C1147 1.350 . S
C1153 H1140 0.929 . S
C1153 C1145 1.433 . S
C1153 N1155 1.384 . S
N1154 C1150 1.427 . S
N1154 C1151 1.384 . S
N1155 C1147 1.427 . S
N1155 C1153 1.384 . S
H1156 C1162 0.930 . S
H1157 C1166 0.930 . S
H1158 C1171 0.929 . S
H1159 C1169 0.929 . S
H1160 C1164 0.929 . S
H1161 C1170 0.929 . S
C1162 H1156 0.930 . S
C1162 C1163 1.367 . S
C1162 C1170 1.378 . S
C1163 C1162 1.367 . S
C1163 C1171 1.433 . S
C1164 H1160 0.929 . S
C1164 C1166 1.378 . S
C1164 C1168 1.350 . S
C1165 C1168 1.463 . S
C1165 C1170 1.350 . S
C1165 N1173 1.427 . S
C1166 H1157 0.930 . S
C1166 C1164 1.378 . S
C1166 C1167 1.367 . S
C1167 C1166 1.367 . S
C1167 C1169 1.433 . S
C1168 C1164 1.350 . S
C1168 C1165 1.463 . S
C1168 N1172 1.427 . S
C1169 H1159 0.929 . S
C1169 C1167 1.433 . S
C1169 N1172 1.384 . S
C1170 H1161 0.929 . S
C1170 C1162 1.378 . S
C1170 C1165 1.350 . S
C1171 H1158 0.929 . S
C1171 C1163 1.433 . S
C1171 N1173 1.384 . S
N1172 C1168 1.427 . S
N1172 C1169 1.384 . S
N1173 C1165 1.427 . S
N1173 C1171 1.384 . S
H1174 C1180 0.930 . S
H1175 C1184 0.930 . S
H1176 C1189 0.929 . S
H1177 C1187 0.929 . S
H1178 C1182 0.929 . S
H1179 C1188 0.929 . S
C1180 H1174 0.930 . S
C1180 C1181 1.367 . S
C1180 C1188 1.378 . S
C1181 C1180 1.367 . S
C1181 C1189 1.433 . S
C1182 H1178 0.929 . S
C1182 C1184 1.378 . S
C1182 C1186 1.350 . S
C1183 C1186 1.463 . S
C1183 C1188 1.350 . S
C1183 N1191 1.427 . S
C1184 H1175 0.930 . S
C1184 C1182 1.378 . S
C1184 C1185 1.367 . S
C1185 C1184 1.367 . S
C1185 C1187 1.433 . S
C1186 C1182 1.350 . S
C1186 C1183 1.463 . S
C1186 N1190 1.427 . S
C1187 H1177 0.929 . S
C1187 C1185 1.433 . S
C1187 N1190 1.384 . S
C1188 H1179 0.929 . S
C1188 C1180 1.378 . S
C1188 C1183 1.350 . S
C1189 H1176 0.929 . S
C1189 C1181 1.433 . S
C1189 N1191 1.384 . S
N1190 C1186 1.427 . S
N1190 C1187 1.384 . S
N1191 C1183 1.427 . S
N1191 C1189 1.384 . S
H1192 C1198 0.935 . S
H1193 C1202 0.930 . S
H1194 C1207 0.929 . S
H1195 C1205 0.929 . S
H1196 C1200 0.929 . S
H1197 C1206 0.929 . S
C1198 H1192 0.935 . S
C1198 C1199 1.359 1_455 S
C1198 C1206 1.381 . S
C1199 C1198 1.359 1_655 S
C1199 C1207 1.433 . S
C1200 H1196 0.929 . S
C1200 C1202 1.378 . S
C1200 C1204 1.350 1_655 S
C1201 C1204 1.463 1_655 S
C1201 C1206 1.350 1_655 S
C1201 N1209 1.427 . S
C1202 H1193 0.930 . S
C1202 C1200 1.378 . S
C1202 C1203 1.367 1_655 S
C1203 C1202 1.367 1_455 S
C1203 C1205 1.433 . S
C1204 C1200 1.350 1_455 S
C1204 C1201 1.463 1_455 S
C1204 N1208 1.427 . S
C1205 H1195 0.929 . S
C1205 C1203 1.433 . S
C1205 N1208 1.384 . S
C1206 H1197 0.929 . S
C1206 C1198 1.381 . S
C1206 C1201 1.350 1_455 S
C1207 H1194 0.929 . S
C1207 C1199 1.433 . S
C1207 N1209 1.384 . S
N1208 C1204 1.427 . S
N1208 C1205 1.384 . S
N1209 C1201 1.427 . S
N1209 C1207 1.384 . S
H1210 C1216 0.930 . S
H1211 C1220 0.930 . S
H1212 C1225 0.929 . S
H1213 C1223 0.929 . S
H1214 C1218 0.929 . S
H1215 C1224 0.929 . S
C1216 H1210 0.930 . S
C1216 C1217 1.367 . S
C1216 C1224 1.378 . S
C1217 C1216 1.367 . S
C1217 C1225 1.433 . S
C1218 H1214 0.929 . S
C1218 C1220 1.378 . S
C1218 C1222 1.350 . S
C1219 C1222 1.463 . S
C1219 C1224 1.350 . S
C1219 N1227 1.427 . S
C1220 H1211 0.930 . S
C1220 C1218 1.378 . S
C1220 C1221 1.367 . S
C1221 C1220 1.367 . S
C1221 C1223 1.433 . S
C1222 C1218 1.350 . S
C1222 C1219 1.463 . S
C1222 N1226 1.427 . S
C1223 H1213 0.929 . S
C1223 C1221 1.433 . S
C1223 N1226 1.384 . S
C1224 H1215 0.929 . S
C1224 C1216 1.378 . S
C1224 C1219 1.350 . S
C1225 H1212 0.929 . S
C1225 C1217 1.433 . S
C1225 N1227 1.384 . S
N1226 C1222 1.427 . S
N1226 C1223 1.384 . S
N1227 C1219 1.427 . S
N1227 C1225 1.384 . S
H1228 C1234 0.930 . S
H1229 C1238 0.930 . S
H1230 C1243 0.929 . S
H1231 C1241 0.929 . S
H1232 C1236 0.929 . S
H1233 C1242 0.929 . S
C1234 H1228 0.930 . S
C1234 C1235 1.367 . S
C1234 C1242 1.378 . S
C1235 C1234 1.367 . S
C1235 C1243 1.433 . S
C1236 H1232 0.929 . S
C1236 C1238 1.378 . S
C1236 C1240 1.350 . S
C1237 C1240 1.463 . S
C1237 C1242 1.350 . S
C1237 N1245 1.427 . S
C1238 H1229 0.930 . S
C1238 C1236 1.378 . S
C1238 C1239 1.367 . S
C1239 C1238 1.367 . S
C1239 C1241 1.433 . S
C1240 C1236 1.350 . S
C1240 C1237 1.463 . S
C1240 N1244 1.427 . S
C1241 H1231 0.929 . S
C1241 C1239 1.433 . S
C1241 N1244 1.384 . S
C1242 H1233 0.929 . S
C1242 C1234 1.378 . S
C1242 C1237 1.350 . S
C1243 H1230 0.929 . S
C1243 C1235 1.433 . S
C1243 N1245 1.384 . S
N1244 C1240 1.427 . S
N1244 C1241 1.384 . S
N1245 C1237 1.427 . S
N1245 C1243 1.384 . S
H1246 C1252 0.930 . S
H1247 C1256 0.930 . S
H1248 C1261 0.929 . S
H1249 C1259 0.929 . S
H1250 C1254 0.929 . S
H1251 C1260 0.929 . S
C1252 H1246 0.930 . S
C1252 C1253 1.367 . S
C1252 C1260 1.378 . S
C1253 C1252 1.367 . S
C1253 C1261 1.433 . S
C1254 H1250 0.929 . S
C1254 C1256 1.378 . S
C1254 C1258 1.350 . S
C1255 C1258 1.463 . S
C1255 C1260 1.350 . S
C1255 N1263 1.427 . S
C1256 H1247 0.930 . S
C1256 C1254 1.378 . S
C1256 C1257 1.367 . S
C1257 C1256 1.367 . S
C1257 C1259 1.433 . S
C1258 C1254 1.350 . S
C1258 C1255 1.463 . S
C1258 N1262 1.427 . S
C1259 H1249 0.929 . S
C1259 C1257 1.433 . S
C1259 N1262 1.384 . S
C1260 H1251 0.929 . S
C1260 C1252 1.378 . S
C1260 C1255 1.350 . S
C1261 H1248 0.929 . S
C1261 C1253 1.433 . S
C1261 N1263 1.384 . S
N1262 C1258 1.427 . S
N1262 C1259 1.384 . S
N1263 C1255 1.427 . S
N1263 C1261 1.384 . S
H1264 C1270 0.930 . S
H1265 C1274 0.930 . S
H1266 C1279 0.929 . S
H1267 C1277 0.929 . S
H1268 C1272 0.929 . S
H1269 C1278 0.929 . S
C1270 H1264 0.930 . S
C1270 C1271 1.367 . S
C1270 C1278 1.378 . S
C1271 C1270 1.367 . S
C1271 C1279 1.433 1_554 S
C1272 H1268 0.929 . S
C1272 C1274 1.378 1_565 S
C1272 C1276 1.350 . S
C1273 C1276 1.463 . S
C1273 C1278 1.350 . S
C1273 N1281 1.427 1_554 S
C1274 H1265 0.930 . S
C1274 C1272 1.378 1_545 S
C1274 C1275 1.367 . S
C1275 C1274 1.367 . S
C1275 C1277 1.433 . S
C1276 C1272 1.350 . S
C1276 C1273 1.463 . S
C1276 N1280 1.427 . S
C1277 H1267 0.929 . S
C1277 C1275 1.433 . S
C1277 N1280 1.384 1_545 S
C1278 H1269 0.929 . S
C1278 C1270 1.378 . S
C1278 C1273 1.350 . S
C1279 H1266 0.929 . S
C1279 C1271 1.433 1_556 S
C1279 N1281 1.384 . S
N1280 C1276 1.427 . S
N1280 C1277 1.384 1_565 S
N1281 C1273 1.427 1_556 S
N1281 C1279 1.384 . S
H1282 C1288 0.973 . S
H1283 C1292 0.930 . S
H1284 C1297 0.929 . S
H1285 C1295 0.915 1_556 S
H1286 C1290 0.929 . S
H1287 C1296 0.944 . S
C1288 H1282 0.973 . S
C1288 C1289 1.336 1_556 S
C1288 C1296 1.372 . S
C1289 C1288 1.336 1_554 S
C1289 C1297 1.433 . S
C1290 H1286 0.929 . S
C1290 C1292 1.378 . S
C1290 C1294 1.350 . S
C1291 C1294 1.463 . S
C1291 C1296 1.329 1_554 S
C1291 N1299 1.427 . S
C1292 H1283 0.930 . S
C1292 C1290 1.378 . S
C1292 C1293 1.367 . S
C1293 C1292 1.367 . S
C1293 C1295 1.453 . S
C1294 C1290 1.350 . S
C1294 C1291 1.463 . S
C1294 N1298 1.435 . S
C1295 H1285 0.915 1_554 S
C1295 C1293 1.453 . S
C1295 N1298 1.381 . S
C1296 H1287 0.944 . S
C1296 C1288 1.372 . S
C1296 C1291 1.329 1_556 S
C1297 H1284 0.929 . S
C1297 C1289 1.433 . S
C1297 N1299 1.384 . S
N1298 C1294 1.435 . S
N1298 C1295 1.381 . S
N1299 C1291 1.427 . S
N1299 C1297 1.384 . S
H1300 C1306 0.930 . S
H1301 C1310 0.930 . S
H1302 C1315 0.929 . S
H1303 C1313 0.929 . S
H1304 C1308 0.929 . S
H1305 C1314 0.929 . S
C1306 H1300 0.930 . S
C1306 C1307 1.367 . S
C1306 C1314 1.378 . S
C1307 C1306 1.367 . S
C1307 C1315 1.433 . S
C1308 H1304 0.929 . S
C1308 C1310 1.378 . S
C1308 C1312 1.350 . S
C1309 C1312 1.463 . S
C1309 C1314 1.350 . S
C1309 N1317 1.427 . S
C1310 H1301 0.930 . S
C1310 C1308 1.378 . S
C1310 C1311 1.367 . S
C1311 C1310 1.367 . S
C1311 C1313 1.433 . S
C1312 C1308 1.350 . S
C1312 C1309 1.463 . S
C1312 N1316 1.427 . S
C1313 H1303 0.929 . S
C1313 C1311 1.433 . S
C1313 N1316 1.384 . S
C1314 H1305 0.929 . S
C1314 C1306 1.378 . S
C1314 C1309 1.350 . S
C1315 H1302 0.929 . S
C1315 C1307 1.433 . S
C1315 N1317 1.384 . S
N1316 C1312 1.427 . S
N1316 C1313 1.384 . S
N1317 C1309 1.427 . S
N1317 C1315 1.384 . S
H1318 C1324 0.930 . S
H1319 C1328 0.930 . S
H1320 C1333 0.929 . S
H1321 C1331 0.929 . S
H1322 C1326 0.929 . S
H1323 C1332 0.929 . S
C1324 H1318 0.930 . S
C1324 C1325 1.367 . S
C1324 C1332 1.378 . S
C1325 C1324 1.367 . S
C1325 C1333 1.433 . S
C1326 H1322 0.929 . S
C1326 C1328 1.378 . S
C1326 C1330 1.350 . S
C1327 C1330 1.463 . S
C1327 C1332 1.350 . S
C1327 N1335 1.427 . S
C1328 H1319 0.930 . S
C1328 C1326 1.378 . S
C1328 C1329 1.367 . S
C1329 C1328 1.367 . S
C1329 C1331 1.433 . S
C1330 C1326 1.350 . S
C1330 C1327 1.463 . S
C1330 N1334 1.427 . S
C1331 H1321 0.929 . S
C1331 C1329 1.433 . S
C1331 N1334 1.384 . S
C1332 H1323 0.929 . S
C1332 C1324 1.378 . S
C1332 C1327 1.350 . S
C1333 H1320 0.929 . S
C1333 C1325 1.433 . S
C1333 N1335 1.384 . S
N1334 C1330 1.427 . S
N1334 C1331 1.384 . S
N1335 C1327 1.427 . S
N1335 C1333 1.384 . S
H1336 C1342 0.930 . S
H1337 C1346 0.930 . S
H1338 C1351 0.929 . S
H1339 C1349 0.929 . S
H1340 C1344 0.929 . S
H1341 C1350 0.929 . S
C1342 H1336 0.930 . S
C1342 C1343 1.367 . S
C1342 C1350 1.378 . S
C1343 C1342 1.367 . S
C1343 C1351 1.433 . S
C1344 H1340 0.929 . S
C1344 C1346 1.378 . S
C1344 C1348 1.350 . S
C1345 C1348 1.463 . S
C1345 C1350 1.350 . S
C1345 N1353 1.427 . S
C1346 H1337 0.930 . S
C1346 C1344 1.378 . S
C1346 C1347 1.367 . S
C1347 C1346 1.367 . S
C1347 C1349 1.433 . S
C1348 C1344 1.350 . S
C1348 C1345 1.463 . S
C1348 N1352 1.427 . S
C1349 H1339 0.929 . S
C1349 C1347 1.433 . S
C1349 N1352 1.384 . S
C1350 H1341 0.929 . S
C1350 C1342 1.378 . S
C1350 C1345 1.350 . S
C1351 H1338 0.929 . S
C1351 C1343 1.433 . S
C1351 N1353 1.384 . S
N1352 C1348 1.427 . S
N1352 C1349 1.384 . S
N1353 C1345 1.427 . S
N1353 C1351 1.384 . S
H1354 C1360 0.930 . S
H1355 C1364 0.930 . S
H1356 C1369 0.929 . S
H1357 C1367 0.929 . S
H1358 C1362 0.929 . S
H1359 C1368 0.929 . S
C1360 H1354 0.930 . S
C1360 C1361 1.367 . S
C1360 C1368 1.378 . S
C1361 C1360 1.367 . S
C1361 C1369 1.433 . S
C1362 H1358 0.929 . S
C1362 C1364 1.378 . S
C1362 C1366 1.350 . S
C1363 C1366 1.463 . S
C1363 C1368 1.350 . S
C1363 N1371 1.427 . S
C1364 H1355 0.930 . S
C1364 C1362 1.378 . S
C1364 C1365 1.367 . S
C1365 C1364 1.367 . S
C1365 C1367 1.433 . S
C1366 C1362 1.350 . S
C1366 C1363 1.463 . S
C1366 N1370 1.427 . S
C1367 H1357 0.929 . S
C1367 C1365 1.433 . S
C1367 N1370 1.384 . S
C1368 H1359 0.929 . S
C1368 C1360 1.378 . S
C1368 C1363 1.350 . S
C1369 H1356 0.929 . S
C1369 C1361 1.433 . S
C1369 N1371 1.384 . S
N1370 C1366 1.427 . S
N1370 C1367 1.384 . S
N1371 C1363 1.427 . S
N1371 C1369 1.384 . S
H1372 C1378 0.930 . S
H1373 C1382 0.930 . S
H1374 C1387 0.929 . S
H1375 C1385 0.929 . S
H1376 C1380 0.929 . S
H1377 C1386 0.929 . S
C1378 H1372 0.930 . S
C1378 C1379 1.367 . S
C1378 C1386 1.378 . S
C1379 C1378 1.367 . S
C1379 C1387 1.433 . S
C1380 H1376 0.929 . S
C1380 C1382 1.378 . S
C1380 C1384 1.350 . S
C1381 C1384 1.463 . S
C1381 C1386 1.350 . S
C1381 N1389 1.427 . S
C1382 H1373 0.930 . S
C1382 C1380 1.378 . S
C1382 C1383 1.367 . S
C1383 C1382 1.367 . S
C1383 C1385 1.433 . S
C1384 C1380 1.350 . S
C1384 C1381 1.463 . S
C1384 N1388 1.427 . S
C1385 H1375 0.929 . S
C1385 C1383 1.433 . S
C1385 N1388 1.384 . S
C1386 H1377 0.929 . S
C1386 C1378 1.378 . S
C1386 C1381 1.350 . S
C1387 H1374 0.929 . S
C1387 C1379 1.433 . S
C1387 N1389 1.384 . S
N1388 C1384 1.427 . S
N1388 C1385 1.384 . S
N1389 C1381 1.427 . S
N1389 C1387 1.384 . S
H1390 C1396 0.930 . S
H1391 C1400 0.930 . S
H1392 C1405 0.929 . S
H1393 C1403 0.929 . S
H1394 C1398 0.929 . S
H1395 C1404 0.929 . S
C1396 H1390 0.930 . S
C1396 C1397 1.367 . S
C1396 C1404 1.378 . S
C1397 C1396 1.367 . S
C1397 C1405 1.433 . S
C1398 H1394 0.929 . S
C1398 C1400 1.378 . S
C1398 C1402 1.350 . S
C1399 C1402 1.463 . S
C1399 C1404 1.350 . S
C1399 N1407 1.427 . S
C1400 H1391 0.930 . S
C1400 C1398 1.378 . S
C1400 C1401 1.367 . S
C1401 C1400 1.367 . S
C1401 C1403 1.433 . S
C1402 C1398 1.350 . S
C1402 C1399 1.463 . S
C1402 N1406 1.427 . S
C1403 H1393 0.929 . S
C1403 C1401 1.433 . S
C1403 N1406 1.384 . S
C1404 H1395 0.929 . S
C1404 C1396 1.378 . S
C1404 C1399 1.350 . S
C1405 H1392 0.929 . S
C1405 C1397 1.433 . S
C1405 N1407 1.384 . S
N1406 C1402 1.427 . S
N1406 C1403 1.384 . S
N1407 C1399 1.427 . S
N1407 C1405 1.384 . S
H1408 C1414 0.930 . S
H1409 C1418 0.930 . S
H1410 C1423 0.929 . S
H1411 C1421 0.929 . S
H1412 C1416 0.929 . S
H1413 C1422 0.929 . S
C1414 H1408 0.930 . S
C1414 C1415 1.367 . S
C1414 C1422 1.378 . S
C1415 C1414 1.367 . S
C1415 C1423 1.433 . S
C1416 H1412 0.929 . S
C1416 C1418 1.378 . S
C1416 C1420 1.350 . S
C1417 C1420 1.463 . S
C1417 C1422 1.350 . S
C1417 N1425 1.427 . S
C1418 H1409 0.930 . S
C1418 C1416 1.378 . S
C1418 C1419 1.367 . S
C1419 C1418 1.367 . S
C1419 C1421 1.433 . S
C1420 C1416 1.350 . S
C1420 C1417 1.463 . S
C1420 N1424 1.427 . S
C1421 H1411 0.929 . S
C1421 C1419 1.433 . S
C1421 N1424 1.384 . S
C1422 H1413 0.929 . S
C1422 C1414 1.378 . S
C1422 C1417 1.350 . S
C1423 H1410 0.929 . S
C1423 C1415 1.433 . S
C1423 N1425 1.384 . S
N1424 C1420 1.427 . S
N1424 C1421 1.384 . S
N1425 C1417 1.427 . S
N1425 C1423 1.384 . S
H1426 C1432 0.930 . S
H1427 C1436 0.930 . S
H1428 C1441 0.929 . S
H1429 C1439 0.929 . S
H1430 C1434 0.929 . S
H1431 C1440 0.929 . S
C1432 H1426 0.930 . S
C1432 C1433 1.367 . S
C1432 C1440 1.378 . S
C1433 C1432 1.367 . S
C1433 C1441 1.433 . S
C1434 H1430 0.929 . S
C1434 C1436 1.378 . S
C1434 C1438 1.350 . S
C1435 C1438 1.463 . S
C1435 C1440 1.350 . S
C1435 N1443 1.427 . S
C1436 H1427 0.930 . S
C1436 C1434 1.378 . S
C1436 C1437 1.367 . S
C1437 C1436 1.367 . S
C1437 C1439 1.433 . S
C1438 C1434 1.350 . S
C1438 C1435 1.463 . S
C1438 N1442 1.427 . S
C1439 H1429 0.929 . S
C1439 C1437 1.433 . S
C1439 N1442 1.384 . S
C1440 H1431 0.929 . S
C1440 C1432 1.378 . S
C1440 C1435 1.350 . S
C1441 H1428 0.929 . S
C1441 C1433 1.433 . S
C1441 N1443 1.384 . S
N1442 C1438 1.427 . S
N1442 C1439 1.384 . S
N1443 C1435 1.427 . S
N1443 C1441 1.384 . S
H1444 C1450 0.930 . S
H1445 C1454 0.930 . S
H1446 C1459 0.929 . S
H1447 C1457 0.929 . S
H1448 C1452 0.929 . S
H1449 C1458 0.929 . S
C1450 H1444 0.930 . S
C1450 C1451 1.367 . S
C1450 C1458 1.378 . S
C1451 C1450 1.367 . S
C1451 C1459 1.433 . S
C1452 H1448 0.929 . S
C1452 C1454 1.378 . S
C1452 C1456 1.350 . S
C1453 C1456 1.463 . S
C1453 C1458 1.350 . S
C1453 N1461 1.427 . S
C1454 H1445 0.930 . S
C1454 C1452 1.378 . S
C1454 C1455 1.367 . S
C1455 C1454 1.367 . S
C1455 C1457 1.433 . S
C1456 C1452 1.350 . S
C1456 C1453 1.463 . S
C1456 N1460 1.427 . S
C1457 H1447 0.929 . S
C1457 C1455 1.433 . S
C1457 N1460 1.384 . S
C1458 H1449 0.929 . S
C1458 C1450 1.378 . S
C1458 C1453 1.350 . S
C1459 H1446 0.929 . S
C1459 C1451 1.433 . S
C1459 N1461 1.384 . S
N1460 C1456 1.427 . S
N1460 C1457 1.384 . S
N1461 C1453 1.427 . S
N1461 C1459 1.384 . S
H1462 C1468 0.930 . S
H1463 C1472 0.930 . S
H1464 C1477 0.929 . S
H1465 C1475 0.929 . S
H1466 C1470 0.929 . S
H1467 C1476 0.929 . S
C1468 H1462 0.930 . S
C1468 C1469 1.367 . S
C1468 C1476 1.378 . S
C1469 C1468 1.367 . S
C1469 C1477 1.433 . S
C1470 H1466 0.929 . S
C1470 C1472 1.378 . S
C1470 C1474 1.350 . S
C1471 C1474 1.463 . S
C1471 C1476 1.350 . S
C1471 N1479 1.427 . S
C1472 H1463 0.930 . S
C1472 C1470 1.378 . S
C1472 C1473 1.367 . S
C1473 C1472 1.367 . S
C1473 C1475 1.433 . S
C1474 C1470 1.350 . S
C1474 C1471 1.463 . S
C1474 N1478 1.427 . S
C1475 H1465 0.929 . S
C1475 C1473 1.433 . S
C1475 N1478 1.384 . S
C1476 H1467 0.929 . S
C1476 C1468 1.378 . S
C1476 C1471 1.350 . S
C1477 H1464 0.929 . S
C1477 C1469 1.433 . S
C1477 N1479 1.384 . S
N1478 C1474 1.427 . S
N1478 C1475 1.384 . S
N1479 C1471 1.427 . S
N1479 C1477 1.384 . S
H1480 C1486 0.930 . S
H1481 C1490 0.930 . S
H1482 C1495 0.929 . S
H1483 C1493 0.929 . S
H1484 C1488 0.929 . S
H1485 C1494 0.929 . S
C1486 H1480 0.930 . S
C1486 C1487 1.367 . S
C1486 C1494 1.378 . S
C1487 C1486 1.367 . S
C1487 C1495 1.433 . S
C1488 H1484 0.929 . S
C1488 C1490 1.378 . S
C1488 C1492 1.350 . S
C1489 C1492 1.463 . S
C1489 C1494 1.350 . S
C1489 N1497 1.427 . S
C1490 H1481 0.930 . S
C1490 C1488 1.378 . S
C1490 C1491 1.367 . S
C1491 C1490 1.367 . S
C1491 C1493 1.433 . S
C1492 C1488 1.350 . S
C1492 C1489 1.463 . S
C1492 N1496 1.427 . S
C1493 H1483 0.929 . S
C1493 C1491 1.433 . S
C1493 N1496 1.384 . S
C1494 H1485 0.929 . S
C1494 C1486 1.378 . S
C1494 C1489 1.350 . S
C1495 H1482 0.929 . S
C1495 C1487 1.433 . S
C1495 N1497 1.384 . S
N1496 C1492 1.427 . S
N1496 C1493 1.384 . S
N1497 C1489 1.427 . S
N1497 C1495 1.384 . S
H1498 C1504 0.930 . S
H1499 C1508 0.930 . S
H1500 C1513 0.929 . S
H1501 C1511 0.929 . S
H1502 C1506 0.929 . S
H1503 C1512 0.929 . S
C1504 H1498 0.930 . S
C1504 C1505 1.367 . S
C1504 C1512 1.378 . S
C1505 C1504 1.367 . S
C1505 C1513 1.433 . S
C1506 H1502 0.929 . S
C1506 C1508 1.378 . S
C1506 C1510 1.350 . S
C1507 C1510 1.463 . S
C1507 C1512 1.350 . S
C1507 N1515 1.427 . S
C1508 H1499 0.930 . S
C1508 C1506 1.378 . S
C1508 C1509 1.367 . S
C1509 C1508 1.367 . S
C1509 C1511 1.433 . S
C1510 C1506 1.350 . S
C1510 C1507 1.463 . S
C1510 N1514 1.427 . S
C1511 H1501 0.929 . S
C1511 C1509 1.433 . S
C1511 N1514 1.384 . S
C1512 H1503 0.929 . S
C1512 C1504 1.378 . S
C1512 C1507 1.350 . S
C1513 H1500 0.929 . S
C1513 C1505 1.433 . S
C1513 N1515 1.384 . S
N1514 C1510 1.427 . S
N1514 C1511 1.384 . S
N1515 C1507 1.427 . S
N1515 C1513 1.384 . S
H1516 C1522 0.930 . S
H1517 C1526 0.930 1_554 S
H1518 C1531 0.929 . S
H1519 C1529 0.929 1_545 S
H1520 C1524 0.929 . S
H1521 C1530 0.929 . S
C1522 H1516 0.930 . S
C1522 C1523 1.367 . S
C1522 C1530 1.378 . S
C1523 C1522 1.367 . S
C1523 C1531 1.433 . S
C1524 H1520 0.929 . S
C1524 C1526 1.378 . S
C1524 C1528 1.350 . S
C1525 C1528 1.463 . S
C1525 C1530 1.350 . S
C1525 N1533 1.427 . S
C1526 H1517 0.930 1_556 S
C1526 C1524 1.378 . S
C1526 C1527 1.367 . S
C1527 C1526 1.367 . S
C1527 C1529 1.433 . S
C1528 C1524 1.350 . S
C1528 C1525 1.463 . S
C1528 N1532 1.427 . S
C1529 H1519 0.929 1_565 S
C1529 C1527 1.433 . S
C1529 N1532 1.384 . S
C1530 H1521 0.929 . S
C1530 C1522 1.378 . S
C1530 C1525 1.350 . S
C1531 H1518 0.929 . S
C1531 C1523 1.433 . S
C1531 N1533 1.384 . S
N1532 C1528 1.427 . S
N1532 C1529 1.384 . S
N1533 C1525 1.427 . S
N1533 C1531 1.384 . S
H1534 C1540 0.930 . S
H1535 C1544 0.930 . S
H1536 C1549 0.929 . S
H1537 C1547 0.929 . S
H1538 C1542 0.929 . S
H1539 C1548 0.929 . S
C1540 H1534 0.930 . S
C1540 C1541 1.367 . S
C1540 C1548 1.378 . S
C1541 C1540 1.367 . S
C1541 C1549 1.433 . S
C1542 H1538 0.929 . S
C1542 C1544 1.378 . S
C1542 C1546 1.350 . S
C1543 C1546 1.463 . S
C1543 C1548 1.350 . S
C1543 N1551 1.427 . S
C1544 H1535 0.930 . S
C1544 C1542 1.378 . S
C1544 C1545 1.367 . S
C1545 C1544 1.367 . S
C1545 C1547 1.433 . S
C1546 C1542 1.350 . S
C1546 C1543 1.463 . S
C1546 N1550 1.427 . S
C1547 H1537 0.929 . S
C1547 C1545 1.433 . S
C1547 N1550 1.384 . S
C1548 H1539 0.929 . S
C1548 C1540 1.378 . S
C1548 C1543 1.350 . S
C1549 H1536 0.929 . S
C1549 C1541 1.433 . S
C1549 N1551 1.384 . S
N1550 C1546 1.427 . S
N1550 C1547 1.384 . S
N1551 C1543 1.427 . S
N1551 C1549 1.384 . S
H1552 C1558 0.930 . S
H1553 C1562 0.930 . S
H1554 C1567 0.929 . S
H1555 C1565 0.929 . S
H1556 C1560 0.929 . S
H1557 C1566 0.929 . S
C1558 H1552 0.930 . S
C1558 C1559 1.367 . S
C1558 C1566 1.378 . S
C1559 C1558 1.367 . S
C1559 C1567 1.433 . S
C1560 H1556 0.929 . S
C1560 C1562 1.378 . S
C1560 C1564 1.350 . S
C1561 C1564 1.463 . S
C1561 C1566 1.350 . S
C1561 N1569 1.427 . S
C1562 H1553 0.930 . S
C1562 C1560 1.378 . S
C1562 C1563 1.367 . S
C1563 C1562 1.367 . S
C1563 C1565 1.433 . S
C1564 C1560 1.350 . S
C1564 C1561 1.463 . S
C1564 N1568 1.427 . S
C1565 H1555 0.929 . S
C1565 C1563 1.433 . S
C1565 N1568 1.384 . S
C1566 H1557 0.929 . S
C1566 C1558 1.378 . S
C1566 C1561 1.350 . S
C1567 H1554 0.929 . S
C1567 C1559 1.433 . S
C1567 N1569 1.384 . S
N1568 C1564 1.427 . S
N1568 C1565 1.384 . S
N1569 C1561 1.427 . S
N1569 C1567 1.384 . S
H1570 C1576 0.930 . S
H1571 C1580 0.930 . S
H1572 C1585 0.929 . S
H1573 C1583 0.929 . S
H1574 C1578 0.929 . S
H1575 C1584 0.929 . S
C1576 H1570 0.930 . S
C1576 C1577 1.367 . S
C1576 C1584 1.378 . S
C1577 C1576 1.367 . S
C1577 C1585 1.433 . S
C1578 H1574 0.929 . S
C1578 C1580 1.378 . S
C1578 C1582 1.350 . S
C1579 C1582 1.463 . S
C1579 C1584 1.350 . S
C1579 N1587 1.427 . S
C1580 H1571 0.930 . S
C1580 C1578 1.378 . S
C1580 C1581 1.367 . S
C1581 C1580 1.367 . S
C1581 C1583 1.433 . S
C1582 C1578 1.350 . S
C1582 C1579 1.463 . S
C1582 N1586 1.427 . S
C1583 H1573 0.929 . S
C1583 C1581 1.433 . S
C1583 N1586 1.384 . S
C1584 H1575 0.929 . S
C1584 C1576 1.378 . S
C1584 C1579 1.350 . S
C1585 H1572 0.929 . S
C1585 C1577 1.433 . S
C1585 N1587 1.384 . S
N1586 C1582 1.427 . S
N1586 C1583 1.384 . S
N1587 C1579 1.427 . S
N1587 C1585 1.384 . S
H1588 C1594 0.930 . S
H1589 C1598 0.930 . S
H1590 C1603 0.929 . S
H1591 C1601 0.929 . S
H1592 C1596 0.929 1_565 S
H1593 C1602 0.929 . S
C1594 H1588 0.930 . S
C1594 C1595 1.367 . S
C1594 C1602 1.378 . S
C1595 C1594 1.367 . S
C1595 C1603 1.433 1_545 S
C1596 H1592 0.929 1_545 S
C1596 C1598 1.378 . S
C1596 C1600 1.350 . S
C1597 C1600 1.463 . S
C1597 C1602 1.350 . S
C1597 N1605 1.427 1_545 S
C1598 H1589 0.930 . S
C1598 C1596 1.378 . S
C1598 C1599 1.367 . S
C1599 C1598 1.367 . S
C1599 C1601 1.433 . S
C1600 C1596 1.350 . S
C1600 C1597 1.463 . S
C1600 N1604 1.427 . S
C1601 H1591 0.929 . S
C1601 C1599 1.433 . S
C1601 N1604 1.384 . S
C1602 H1593 0.929 . S
C1602 C1594 1.378 . S
C1602 C1597 1.350 . S
C1603 H1590 0.929 . S
C1603 C1595 1.433 1_565 S
C1603 N1605 1.384 . S
N1604 C1600 1.427 . S
N1604 C1601 1.384 . S
N1605 C1597 1.427 1_565 S
N1605 C1603 1.384 . S
H1606 C1612 0.930 . S
H1607 C1616 0.930 . S
H1608 C1621 0.929 . S
H1609 C1619 0.929 . S
H1610 C1614 0.929 . S
H1611 C1620 0.929 . S
C1612 H1606 0.930 . S
C1612 C1613 1.367 . S
C1612 C1620 1.378 . S
C1613 C1612 1.367 . S
C1613 C1621 1.433 . S
C1614 H1610 0.929 . S
C1614 C1616 1.378 . S
C1614 C1618 1.350 . S
C1615 C1618 1.463 . S
C1615 C1620 1.350 . S
C1615 N1623 1.427 . S
C1616 H1607 0.930 . S
C1616 C1614 1.378 . S
C1616 C1617 1.367 . S
C1617 C1616 1.367 . S
C1617 C1619 1.433 . S
C1618 C1614 1.350 . S
C1618 C1615 1.463 . S
C1618 N1622 1.427 . S
C1619 H1609 0.929 . S
C1619 C1617 1.433 . S
C1619 N1622 1.384 . S
C1620 H1611 0.929 . S
C1620 C1612 1.378 . S
C1620 C1615 1.350 . S
C1621 H1608 0.929 . S
C1621 C1613 1.433 . S
C1621 N1623 1.384 . S
N1622 C1618 1.427 . S
N1622 C1619 1.384 . S
N1623 C1615 1.427 . S
N1623 C1621 1.384 . S
H1624 C1630 0.930 . S
H1625 C1634 0.930 . S
H1626 C1639 0.929 . S
H1627 C1637 0.929 . S
H1628 C1632 0.929 . S
H1629 C1638 0.929 . S
C1630 H1624 0.930 . S
C1630 C1631 1.367 . S
C1630 C1638 1.378 . S
C1631 C1630 1.367 . S
C1631 C1639 1.433 . S
C1632 H1628 0.929 . S
C1632 C1634 1.378 . S
C1632 C1636 1.350 . S
C1633 C1636 1.463 . S
C1633 C1638 1.350 . S
C1633 N1641 1.427 . S
C1634 H1625 0.930 . S
C1634 C1632 1.378 . S
C1634 C1635 1.367 . S
C1635 C1634 1.367 . S
C1635 C1637 1.433 . S
C1636 C1632 1.350 . S
C1636 C1633 1.463 . S
C1636 N1640 1.427 . S
C1637 H1627 0.929 . S
C1637 C1635 1.433 . S
C1637 N1640 1.384 . S
C1638 H1629 0.929 . S
C1638 C1630 1.378 . S
C1638 C1633 1.350 . S
C1639 H1626 0.929 . S
C1639 C1631 1.433 . S
C1639 N1641 1.384 . S
N1640 C1636 1.427 . S
N1640 C1637 1.384 . S
N1641 C1633 1.427 . S
N1641 C1639 1.384 . S
H1642 C1648 0.930 . S
H1643 C1652 0.930 . S
H1644 C1657 0.929 . S
H1645 C1655 0.929 . S
H1646 C1650 0.929 . S
H1647 C1656 0.929 . S
C1648 H1642 0.930 . S
C1648 C1649 1.367 . S
C1648 C1656 1.378 . S
C1649 C1648 1.367 . S
C1649 C1657 1.433 . S
C1650 H1646 0.929 . S
C1650 C1652 1.378 . S
C1650 C1654 1.350 . S
C1651 C1654 1.463 . S
C1651 C1656 1.350 . S
C1651 N1659 1.427 . S
C1652 H1643 0.930 . S
C1652 C1650 1.378 . S
C1652 C1653 1.367 . S
C1653 C1652 1.367 . S
C1653 C1655 1.433 . S
C1654 C1650 1.350 . S
C1654 C1651 1.463 . S
C1654 N1658 1.427 . S
C1655 H1645 0.929 . S
C1655 C1653 1.433 . S
C1655 N1658 1.384 . S
C1656 H1647 0.929 . S
C1656 C1648 1.378 . S
C1656 C1651 1.350 . S
C1657 H1644 0.929 . S
C1657 C1649 1.433 . S
C1657 N1659 1.384 . S
N1658 C1654 1.427 . S
N1658 C1655 1.384 . S
N1659 C1651 1.427 . S
N1659 C1657 1.384 . S
H1660 C1666 0.930 . S
H1661 C1670 0.930 . S
H1662 C1675 0.929 . S
H1663 C1673 0.929 . S
H1664 C1668 0.929 . S
H1665 C1674 0.929 . S
C1666 H1660 0.930 . S
C1666 C1667 1.367 . S
C1666 C1674 1.378 . S
C1667 C1666 1.367 . S
C1667 C1675 1.433 1_545 S
C1668 H1664 0.929 . S
C1668 C1670 1.378 . S
C1668 C1672 1.350 . S
C1669 C1672 1.463 . S
C1669 C1674 1.350 1_565 S
C1669 N1677 1.427 . S
C1670 H1661 0.930 . S
C1670 C1668 1.378 . S
C1670 C1671 1.367 . S
C1671 C1670 1.367 . S
C1671 C1673 1.433 1_565 S
C1672 C1668 1.350 . S
C1672 C1669 1.463 . S
C1672 N1676 1.427 1_565 S
C1673 H1663 0.929 . S
C1673 C1671 1.433 1_545 S
C1673 N1676 1.384 . S
C1674 H1665 0.929 . S
C1674 C1666 1.378 . S
C1674 C1669 1.350 1_545 S
C1675 H1662 0.929 . S
C1675 C1667 1.433 1_565 S
C1675 N1677 1.384 . S
N1676 C1672 1.427 1_545 S
N1676 C1673 1.384 . S
N1677 C1669 1.427 . S
N1677 C1675 1.384 . S
H1678 C1684 0.930 . S
H1679 C1688 0.930 . S
H1680 C1693 0.929 . S
H1681 C1691 0.929 . S
H1682 C1686 0.929 . S
H1683 C1692 0.929 . S
C1684 H1678 0.930 . S
C1684 C1685 1.367 . S
C1684 C1692 1.378 . S
C1685 C1684 1.367 . S
C1685 C1693 1.433 . S
C1686 H1682 0.929 . S
C1686 C1688 1.378 . S
C1686 C1690 1.350 . S
C1687 C1690 1.463 . S
C1687 C1692 1.350 . S
C1687 N1695 1.427 . S
C1688 H1679 0.930 . S
C1688 C1686 1.378 . S
C1688 C1689 1.367 . S
C1689 C1688 1.367 . S
C1689 C1691 1.433 . S
C1690 C1686 1.350 . S
C1690 C1687 1.463 . S
C1690 N1694 1.427 . S
C1691 H1681 0.929 . S
C1691 C1689 1.433 . S
C1691 N1694 1.384 . S
C1692 H1683 0.929 . S
C1692 C1684 1.378 . S
C1692 C1687 1.350 . S
C1693 H1680 0.929 . S
C1693 C1685 1.433 . S
C1693 N1695 1.384 . S
N1694 C1690 1.427 . S
N1694 C1691 1.384 . S
N1695 C1687 1.427 . S
N1695 C1693 1.384 . S
H1696 C1702 0.930 . S
H1697 C1706 0.930 . S
H1698 C1711 0.929 . S
H1699 C1709 0.929 . S
H1700 C1704 0.929 . S
H1701 C1710 0.929 . S
C1702 H1696 0.930 . S
C1702 C1703 1.367 . S
C1702 C1710 1.378 . S
C1703 C1702 1.367 . S
C1703 C1711 1.433 . S
C1704 H1700 0.929 . S
C1704 C1706 1.378 . S
C1704 C1708 1.350 . S
C1705 C1708 1.463 . S
C1705 C1710 1.350 . S
C1705 N1713 1.427 . S
C1706 H1697 0.930 . S
C1706 C1704 1.378 . S
C1706 C1707 1.367 . S
C1707 C1706 1.367 . S
C1707 C1709 1.433 . S
C1708 C1704 1.350 . S
C1708 C1705 1.463 . S
C1708 N1712 1.427 . S
C1709 H1699 0.929 . S
C1709 C1707 1.433 . S
C1709 N1712 1.384 . S
C1710 H1701 0.929 . S
C1710 C1702 1.378 . S
C1710 C1705 1.350 . S
C1711 H1698 0.929 . S
C1711 C1703 1.433 . S
C1711 N1713 1.384 . S
N1712 C1708 1.427 . S
N1712 C1709 1.384 . S
N1713 C1705 1.427 . S
N1713 C1711 1.384 . S
H1714 C1720 0.930 . S
H1715 C1724 0.930 . S
H1716 C1729 0.929 . S
H1717 C1727 0.929 . S
H1718 C1722 0.929 . S
H1719 C1728 0.929 . S
C1720 H1714 0.930 . S
C1720 C1721 1.367 . S
C1720 C1728 1.378 . S
C1721 C1720 1.367 . S
C1721 C1729 1.433 . S
C1722 H1718 0.929 . S
C1722 C1724 1.378 . S
C1722 C1726 1.350 . S
C1723 C1726 1.463 . S
C1723 C1728 1.350 . S
C1723 N1731 1.427 . S
C1724 H1715 0.930 . S
C1724 C1722 1.378 . S
C1724 C1725 1.367 . S
C1725 C1724 1.367 . S
C1725 C1727 1.433 . S
C1726 C1722 1.350 . S
C1726 C1723 1.463 . S
C1726 N1730 1.427 . S
C1727 H1717 0.929 . S
C1727 C1725 1.433 . S
C1727 N1730 1.384 . S
C1728 H1719 0.929 . S
C1728 C1720 1.378 . S
C1728 C1723 1.350 . S
C1729 H1716 0.929 . S
C1729 C1721 1.433 . S
C1729 N1731 1.384 . S
N1730 C1726 1.427 . S
N1730 C1727 1.384 . S
N1731 C1723 1.427 . S
N1731 C1729 1.384 . S
H1732 C1738 0.930 . S
H1733 C1742 0.930 . S
H1734 C1747 0.929 . S
H1735 C1745 0.929 . S
H1736 C1740 0.929 . S
H1737 C1746 0.929 . S
C1738 H1732 0.930 . S
C1738 C1739 1.367 . S
C1738 C1746 1.378 . S
C1739 C1738 1.367 . S
C1739 C1747 1.433 . S
C1740 H1736 0.929 . S
C1740 C1742 1.378 . S
C1740 C1744 1.350 . S
C1741 C1744 1.463 . S
C1741 C1746 1.350 . S
C1741 N1749 1.427 . S
C1742 H1733 0.930 . S
C1742 C1740 1.378 . S
C1742 C1743 1.367 . S
C1743 C1742 1.367 . S
C1743 C1745 1.433 . S
C1744 C1740 1.350 . S
C1744 C1741 1.463 . S
C1744 N1748 1.427 . S
C1745 H1735 0.929 . S
C1745 C1743 1.433 . S
C1745 N1748 1.384 . S
C1746 H1737 0.929 . S
C1746 C1738 1.378 . S
C1746 C1741 1.350 . S
C1747 H1734 0.929 . S
C1747 C1739 1.433 . S
C1747 N1749 1.384 . S
N1748 C1744 1.427 . S
N1748 C1745 1.384 . S
N1749 C1741 1.427 . S
N1749 C1747 1.384 . S
H1750 C1756 0.930 . S
H1751 C1760 0.930 . S
H1752 C1765 0.929 . S
H1753 C1763 0.929 . S
H1754 C1758 0.929 . S
H1755 C1764 0.929 . S
C1756 H1750 0.930 . S
C1756 C1757 1.367 . S
C1756 C1764 1.378 . S
C1757 C1756 1.367 . S
C1757 C1765 1.433 . S
C1758 H1754 0.929 . S
C1758 C1760 1.378 . S
C1758 C1762 1.350 . S
C1759 C1762 1.463 . S
C1759 C1764 1.350 . S
C1759 N1767 1.427 . S
C1760 H1751 0.930 . S
C1760 C1758 1.378 . S
C1760 C1761 1.367 . S
C1761 C1760 1.367 . S
C1761 C1763 1.433 . S
C1762 C1758 1.350 . S
C1762 C1759 1.463 . S
C1762 N1766 1.427 . S
C1763 H1753 0.929 . S
C1763 C1761 1.433 . S
C1763 N1766 1.384 . S
C1764 H1755 0.929 . S
C1764 C1756 1.378 . S
C1764 C1759 1.350 . S
C1765 H1752 0.929 . S
C1765 C1757 1.433 . S
C1765 N1767 1.384 . S
N1766 C1762 1.427 . S
N1766 C1763 1.384 . S
N1767 C1759 1.427 . S
N1767 C1765 1.384 . S
H1768 C1774 0.930 . S
H1769 C1778 0.930 . S
H1770 C1783 0.929 . S
H1771 C1781 0.929 . S
H1772 C1776 0.929 . S
H1773 C1782 0.929 1_565 S
C1774 H1768 0.930 . S
C1774 C1775 1.367 . S
C1774 C1782 1.378 . S
C1775 C1774 1.367 . S
C1775 C1783 1.433 . S
C1776 H1772 0.929 . S
C1776 C1778 1.378 . S
C1776 C1780 1.350 . S
C1777 C1780 1.463 . S
C1777 C1782 1.350 1_565 S
C1777 N1785 1.411 1_565 S
C1778 H1769 0.930 . S
C1778 C1776 1.378 . S
C1778 C1779 1.367 . S
C1779 C1778 1.367 . S
C1779 C1781 1.433 . S
C1780 C1776 1.350 . S
C1780 C1777 1.463 . S
C1780 N1784 1.427 . S
C1781 H1771 0.929 . S
C1781 C1779 1.433 . S
C1781 N1784 1.384 . S
C1782 H1773 0.929 1_545 S
C1782 C1774 1.378 . S
C1782 C1777 1.350 1_545 S
C1783 H1770 0.929 . S
C1783 C1775 1.433 . S
C1783 N1785 1.416 . S
N1784 C1780 1.427 . S
N1784 C1781 1.384 . S
N1785 C1777 1.411 1_545 S
N1785 C1783 1.416 . S
H1786 C1792 0.930 . S
H1787 C1796 0.930 . S
H1788 C1801 0.929 . S
H1789 C1799 0.929 . S
H1790 C1794 0.929 . S
H1791 C1800 0.929 . S
C1792 H1786 0.930 . S
C1792 C1793 1.367 . S
C1792 C1800 1.378 . S
C1793 C1792 1.367 . S
C1793 C1801 1.433 . S
C1794 H1790 0.929 . S
C1794 C1796 1.378 . S
C1794 C1798 1.350 . S
C1795 C1798 1.463 . S
C1795 C1800 1.350 . S
C1795 N1803 1.427 . S
C1796 H1787 0.930 . S
C1796 C1794 1.378 . S
C1796 C1797 1.367 . S
C1797 C1796 1.367 . S
C1797 C1799 1.433 . S
C1798 C1794 1.350 . S
C1798 C1795 1.463 . S
C1798 N1802 1.427 . S
C1799 H1789 0.929 . S
C1799 C1797 1.433 . S
C1799 N1802 1.384 . S
C1800 H1791 0.929 . S
C1800 C1792 1.378 . S
C1800 C1795 1.350 . S
C1801 H1788 0.929 . S
C1801 C1793 1.433 . S
C1801 N1803 1.384 . S
N1802 C1798 1.427 . S
N1802 C1799 1.384 . S
N1803 C1795 1.427 . S
N1803 C1801 1.384 . S
H1804 C1810 0.930 . S
H1805 C1814 0.930 . S
H1806 C1819 0.929 . S
H1807 C1817 0.929 . S
H1808 C1812 0.929 . S
H1809 C1818 0.929 . S
C1810 H1804 0.930 . S
C1810 C1811 1.367 . S
C1810 C1818 1.378 . S
C1811 C1810 1.367 . S
C1811 C1819 1.433 . S
C1812 H1808 0.929 . S
C1812 C1814 1.378 . S
C1812 C1816 1.350 . S
C1813 C1816 1.463 . S
C1813 C1818 1.350 . S
C1813 N1821 1.427 . S
C1814 H1805 0.930 . S
C1814 C1812 1.378 . S
C1814 C1815 1.367 . S
C1815 C1814 1.367 . S
C1815 C1817 1.433 . S
C1816 C1812 1.350 . S
C1816 C1813 1.463 . S
C1816 N1820 1.427 . S
C1817 H1807 0.929 . S
C1817 C1815 1.433 . S
C1817 N1820 1.384 . S
C1818 H1809 0.929 . S
C1818 C1810 1.378 . S
C1818 C1813 1.350 . S
C1819 H1806 0.929 . S
C1819 C1811 1.433 . S
C1819 N1821 1.384 . S
N1820 C1816 1.427 . S
N1820 C1817 1.384 . S
N1821 C1813 1.427 . S
N1821 C1819 1.384 . S
H1822 C1828 0.930 . S
H1823 C1832 0.930 . S
H1824 C1837 0.929 . S
H1825 C1835 0.929 . S
H1826 C1830 0.929 . S
H1827 C1836 0.929 . S
C1828 H1822 0.930 . S
C1828 C1829 1.367 . S
C1828 C1836 1.378 . S
C1829 C1828 1.367 . S
C1829 C1837 1.433 . S
C1830 H1826 0.929 . S
C1830 C1832 1.378 . S
C1830 C1834 1.350 . S
C1831 C1834 1.463 . S
C1831 C1836 1.350 . S
C1831 N1839 1.427 . S
C1832 H1823 0.930 . S
C1832 C1830 1.378 . S
C1832 C1833 1.367 . S
C1833 C1832 1.367 . S
C1833 C1835 1.433 . S
C1834 C1830 1.350 . S
C1834 C1831 1.463 . S
C1834 N1838 1.427 . S
C1835 H1825 0.929 . S
C1835 C1833 1.433 . S
C1835 N1838 1.384 . S
C1836 H1827 0.929 . S
C1836 C1828 1.378 . S
C1836 C1831 1.350 . S
C1837 H1824 0.929 . S
C1837 C1829 1.433 . S
C1837 N1839 1.384 . S
N1838 C1834 1.427 . S
N1838 C1835 1.384 . S
N1839 C1831 1.427 . S
N1839 C1837 1.384 . S
H1840 C1846 0.930 . S
H1841 C1850 0.930 . S
H1842 C1855 0.929 . S
H1843 C1853 0.929 . S
H1844 C1848 0.929 . S
H1845 C1854 0.929 . S
C1846 H1840 0.930 . S
C1846 C1847 1.367 . S
C1846 C1854 1.378 . S
C1847 C1846 1.367 . S
C1847 C1855 1.433 . S
C1848 H1844 0.929 . S
C1848 C1850 1.378 . S
C1848 C1852 1.350 . S
C1849 C1852 1.463 . S
C1849 C1854 1.350 . S
C1849 N1857 1.427 . S
C1850 H1841 0.930 . S
C1850 C1848 1.378 . S
C1850 C1851 1.367 . S
C1851 C1850 1.367 . S
C1851 C1853 1.433 . S
C1852 C1848 1.350 . S
C1852 C1849 1.463 . S
C1852 N1856 1.427 . S
C1853 H1843 0.929 . S
C1853 C1851 1.433 . S
C1853 N1856 1.384 . S
C1854 H1845 0.929 . S
C1854 C1846 1.378 . S
C1854 C1849 1.350 . S
C1855 H1842 0.929 . S
C1855 C1847 1.433 . S
C1855 N1857 1.384 . S
N1856 C1852 1.427 . S
N1856 C1853 1.384 . S
N1857 C1849 1.427 . S
N1857 C1855 1.384 . S
H1858 C1864 0.930 . S
H1859 C1868 0.930 . S
H1860 C1873 0.929 . S
H1861 C1871 0.929 . S
H1862 C1866 0.929 . S
H1863 C1872 0.929 . S
C1864 H1858 0.930 . S
C1864 C1865 1.367 . S
C1864 C1872 1.378 . S
C1865 C1864 1.367 . S
C1865 C1873 1.433 . S
C1866 H1862 0.929 . S
C1866 C1868 1.378 . S
C1866 C1870 1.350 . S
C1867 C1870 1.463 . S
C1867 C1872 1.350 . S
C1867 N1875 1.427 . S
C1868 H1859 0.930 . S
C1868 C1866 1.378 . S
C1868 C1869 1.367 . S
C1869 C1868 1.367 . S
C1869 C1871 1.433 . S
C1870 C1866 1.350 . S
C1870 C1867 1.463 . S
C1870 N1874 1.427 . S
C1871 H1861 0.929 . S
C1871 C1869 1.433 . S
C1871 N1874 1.384 . S
C1872 H1863 0.929 . S
C1872 C1864 1.378 . S
C1872 C1867 1.350 . S
C1873 H1860 0.929 . S
C1873 C1865 1.433 . S
C1873 N1875 1.384 . S
N1874 C1870 1.427 . S
N1874 C1871 1.384 . S
N1875 C1867 1.427 . S
N1875 C1873 1.384 . S
H1876 C1882 0.930 . S
H1877 C1886 0.930 . S
H1878 C1891 0.929 . S
H1879 C1889 0.929 . S
H1880 C1884 0.929 1_556 S
H1881 C1890 0.929 . S
C1882 H1876 0.930 . S
C1882 C1883 1.367 1_654 S
C1882 C1890 1.378 . S
C1883 C1882 1.367 1_456 S
C1883 C1891 1.433 . S
C1884 H1880 0.929 1_554 S
C1884 C1886 1.378 . S
C1884 C1888 1.350 . S
C1885 C1888 1.463 . S
C1885 C1890 1.350 1_455 S
C1885 N1893 1.427 1_554 S
C1886 H1877 0.930 . S
C1886 C1884 1.378 . S
C1886 C1887 1.367 . S
C1887 C1886 1.367 . S
C1887 C1889 1.433 1_455 S
C1888 C1884 1.350 . S
C1888 C1885 1.463 . S
C1888 N1892 1.427 1_455 S
C1889 H1879 0.929 . S
C1889 C1887 1.433 1_655 S
C1889 N1892 1.384 . S
C1890 H1881 0.929 . S
C1890 C1882 1.378 . S
C1890 C1885 1.350 1_655 S
C1891 H1878 0.929 . S
C1891 C1883 1.433 . S
C1891 N1893 1.384 . S
N1892 C1888 1.427 1_655 S
N1892 C1889 1.384 . S
N1893 C1885 1.427 1_556 S
N1893 C1891 1.384 . S
H1894 C1900 0.930 . S
H1895 C1904 0.930 . S
H1896 C1909 0.929 . S
H1897 C1907 0.929 . S
H1898 C1902 0.929 . S
H1899 C1908 0.929 . S
C1900 H1894 0.930 . S
C1900 C1901 1.367 1_655 S
C1900 C1908 1.378 . S
C1901 C1900 1.367 1_455 S
C1901 C1909 1.433 . S
C1902 H1898 0.929 . S
C1902 C1904 1.378 . S
C1902 C1906 1.350 . S
C1903 C1906 1.463 . S
C1903 C1908 1.350 . S
C1903 N1911 1.427 . S
C1904 H1895 0.930 . S
C1904 C1902 1.378 . S
C1904 C1905 1.367 . S
C1905 C1904 1.367 . S
C1905 C1907 1.433 . S
C1906 C1902 1.350 . S
C1906 C1903 1.463 . S
C1906 N1910 1.427 . S
C1907 H1897 0.929 . S
C1907 C1905 1.433 . S
C1907 N1910 1.384 . S
C1908 H1899 0.929 . S
C1908 C1900 1.378 . S
C1908 C1903 1.350 . S
C1909 H1896 0.929 . S
C1909 C1901 1.433 . S
C1909 N1911 1.384 1_455 S
N1910 C1906 1.427 . S
N1910 C1907 1.384 . S
N1911 C1903 1.427 . S
N1911 C1909 1.384 1_655 S
H1912 C1918 0.930 . S
H1913 C1922 0.930 . S
H1914 C1927 0.929 . S
H1915 C1925 0.929 . S
H1916 C1920 0.929 . S
H1917 C1926 0.929 . S
C1918 H1912 0.930 . S
C1918 C1919 1.367 . S
C1918 C1926 1.378 . S
C1919 C1918 1.367 . S
C1919 C1927 1.433 . S
C1920 H1916 0.929 . S
C1920 C1922 1.378 . S
C1920 C1924 1.350 . S
C1921 C1924 1.463 . S
C1921 C1926 1.350 . S
C1921 N1929 1.427 . S
C1922 H1913 0.930 . S
C1922 C1920 1.378 . S
C1922 C1923 1.367 . S
C1923 C1922 1.367 . S
C1923 C1925 1.433 . S
C1924 C1920 1.350 . S
C1924 C1921 1.463 . S
C1924 N1928 1.427 . S
C1925 H1915 0.929 . S
C1925 C1923 1.433 . S
C1925 N1928 1.384 . S
C1926 H1917 0.929 . S
C1926 C1918 1.378 . S
C1926 C1921 1.350 . S
C1927 H1914 0.929 . S
C1927 C1919 1.433 . S
C1927 N1929 1.384 . S
N1928 C1924 1.427 . S
N1928 C1925 1.384 . S
N1929 C1921 1.427 . S
N1929 C1927 1.384 . S
H1930 C1936 0.930 . S
H1931 C1940 0.930 . S
H1932 C1945 0.929 . S
H1933 C1943 0.929 . S
H1934 C1938 0.929 . S
H1935 C1944 0.929 . S
C1936 H1930 0.930 . S
C1936 C1937 1.367 . S
C1936 C1944 1.378 . S
C1937 C1936 1.367 . S
C1937 C1945 1.433 . S
C1938 H1934 0.929 . S
C1938 C1940 1.378 . S
C1938 C1942 1.350 . S
C1939 C1942 1.463 . S
C1939 C1944 1.350 . S
C1939 N1947 1.427 . S
C1940 H1931 0.930 . S
C1940 C1938 1.378 . S
C1940 C1941 1.367 . S
C1941 C1940 1.367 . S
C1941 C1943 1.433 . S
C1942 C1938 1.350 . S
C1942 C1939 1.463 . S
C1942 N1946 1.427 . S
C1943 H1933 0.929 . S
C1943 C1941 1.433 . S
C1943 N1946 1.384 . S
C1944 H1935 0.929 . S
C1944 C1936 1.378 . S
C1944 C1939 1.350 . S
C1945 H1932 0.929 . S
C1945 C1937 1.433 . S
C1945 N1947 1.384 . S
N1946 C1942 1.427 . S
N1946 C1943 1.384 . S
N1947 C1939 1.427 . S
N1947 C1945 1.384 . S
H1948 C1954 0.930 . S
H1949 C1958 0.930 . S
H1950 C1963 0.929 . S
H1951 C1961 0.929 . S
H1952 C1956 0.929 . S
H1953 C1962 0.929 . S
C1954 H1948 0.930 . S
C1954 C1955 1.367 . S
C1954 C1962 1.378 . S
C1955 C1954 1.367 . S
C1955 C1963 1.433 . S
C1956 H1952 0.929 . S
C1956 C1958 1.378 . S
C1956 C1960 1.350 . S
C1957 C1960 1.463 . S
C1957 C1962 1.350 . S
C1957 N1965 1.427 . S
C1958 H1949 0.930 . S
C1958 C1956 1.378 . S
C1958 C1959 1.367 . S
C1959 C1958 1.367 . S
C1959 C1961 1.433 . S
C1960 C1956 1.350 . S
C1960 C1957 1.463 . S
C1960 N1964 1.427 . S
C1961 H1951 0.929 . S
C1961 C1959 1.433 . S
C1961 N1964 1.384 . S
C1962 H1953 0.929 . S
C1962 C1954 1.378 . S
C1962 C1957 1.350 . S
C1963 H1950 0.929 . S
C1963 C1955 1.433 . S
C1963 N1965 1.384 . S
N1964 C1960 1.427 . S
N1964 C1961 1.384 . S
N1965 C1957 1.427 . S
N1965 C1963 1.384 . S
H1966 C1972 0.930 . S
H1967 C1976 0.930 . S
H1968 C1981 0.929 . S
H1969 C1979 0.929 . S
H1970 C1974 0.929 . S
H1971 C1980 0.929 . S
C1972 H1966 0.930 . S
C1972 C1973 1.367 . S
C1972 C1980 1.378 . S
C1973 C1972 1.367 . S
C1973 C1981 1.433 . S
C1974 H1970 0.929 . S
C1974 C1976 1.378 . S
C1974 C1978 1.350 . S
C1975 C1978 1.463 . S
C1975 C1980 1.350 . S
C1975 N1983 1.427 . S
C1976 H1967 0.930 . S
C1976 C1974 1.378 . S
C1976 C1977 1.367 . S
C1977 C1976 1.367 . S
C1977 C1979 1.433 . S
C1978 C1974 1.350 . S
C1978 C1975 1.463 . S
C1978 N1982 1.427 . S
C1979 H1969 0.929 . S
C1979 C1977 1.433 . S
C1979 N1982 1.384 . S
C1980 H1971 0.929 . S
C1980 C1972 1.378 . S
C1980 C1975 1.350 . S
C1981 H1968 0.929 . S
C1981 C1973 1.433 . S
C1981 N1983 1.384 . S
N1982 C1978 1.427 . S
N1982 C1979 1.384 . S
N1983 C1975 1.427 . S
N1983 C1981 1.384 . S
H1984 C1990 0.930 . S
H1985 C1994 0.930 . S
H1986 C1999 0.929 . S
H1987 C1997 0.929 . S
H1988 C1992 0.929 . S
H1989 C1998 0.929 . S
C1990 H1984 0.930 . S
C1990 C1991 1.367 . S
C1990 C1998 1.378 . S
C1991 C1990 1.367 . S
C1991 C1999 1.433 . S
C1992 H1988 0.929 . S
C1992 C1994 1.378 . S
C1992 C1996 1.350 . S
C1993 C1996 1.463 . S
C1993 C1998 1.350 . S
C1993 N2001 1.427 . S
C1994 H1985 0.930 . S
C1994 C1992 1.378 . S
C1994 C1995 1.367 . S
C1995 C1994 1.367 . S
C1995 C1997 1.433 . S
C1996 C1992 1.350 . S
C1996 C1993 1.463 . S
C1996 N2000 1.427 . S
C1997 H1987 0.929 . S
C1997 C1995 1.433 . S
C1997 N2000 1.384 . S
C1998 H1989 0.929 . S
C1998 C1990 1.378 . S
C1998 C1993 1.350 . S
C1999 H1986 0.929 . S
C1999 C1991 1.433 . S
C1999 N2001 1.384 . S
N2000 C1996 1.427 . S
N2000 C1997 1.384 . S
N2001 C1993 1.427 . S
N2001 C1999 1.384 . S
H2002 C2008 0.930 . S
H2003 C2012 0.930 . S
H2004 C2017 0.929 . S
H2005 C2015 0.929 . S
H2006 C2010 0.929 . S
H2007 C2016 0.929 . S
C2008 H2002 0.930 . S
C2008 C2009 1.367 . S
C2008 C2016 1.378 . S
C2009 C2008 1.367 . S
C2009 C2017 1.433 1_554 S
C2010 H2006 0.929 . S
C2010 C2012 1.378 . S
C2010 C2014 1.350 . S
C2011 C2014 1.463 . S
C2011 C2016 1.350 1_556 S
C2011 N2019 1.427 . S
C2012 H2003 0.930 . S
C2012 C2010 1.378 . S
C2012 C2013 1.367 . S
C2013 C2012 1.367 . S
C2013 C2015 1.433 . S
C2014 C2010 1.350 . S
C2014 C2011 1.463 . S
C2014 N2018 1.427 . S
C2015 H2005 0.929 . S
C2015 C2013 1.433 . S
C2015 N2018 1.384 . S
C2016 H2007 0.929 . S
C2016 C2008 1.378 . S
C2016 C2011 1.350 1_554 S
C2017 H2004 0.929 . S
C2017 C2009 1.433 1_556 S
C2017 N2019 1.384 . S
N2018 C2014 1.427 . S
N2018 C2015 1.384 . S
N2019 C2011 1.427 . S
N2019 C2017 1.384 . S
H2020 C2026 0.930 . S
H2021 C2030 0.930 . S
H2022 C2035 0.929 . S
H2023 C2033 0.929 . S
H2024 C2028 0.929 . S
H2025 C2034 0.929 . S
C2026 H2020 0.930 . S
C2026 C2027 1.367 . S
C2026 C2034 1.378 . S
C2027 C2026 1.367 . S
C2027 C2035 1.433 . S
C2028 H2024 0.929 . S
C2028 C2030 1.378 . S
C2028 C2032 1.350 . S
C2029 C2032 1.463 . S
C2029 C2034 1.350 . S
C2029 N2037 1.427 . S
C2030 H2021 0.930 . S
C2030 C2028 1.378 . S
C2030 C2031 1.367 . S
C2031 C2030 1.367 . S
C2031 C2033 1.433 . S
C2032 C2028 1.350 . S
C2032 C2029 1.463 . S
C2032 N2036 1.427 . S
C2033 H2023 0.929 . S
C2033 C2031 1.433 . S
C2033 N2036 1.384 . S
C2034 H2025 0.929 . S
C2034 C2026 1.378 . S
C2034 C2029 1.350 . S
C2035 H2022 0.929 . S
C2035 C2027 1.433 . S
C2035 N2037 1.384 . S
N2036 C2032 1.427 . S
N2036 C2033 1.384 . S
N2037 C2029 1.427 . S
N2037 C2035 1.384 . S
H2038 C2044 0.930 . S
H2039 C2048 0.930 . S
H2040 C2053 0.929 . S
H2041 C2051 0.929 . S
H2042 C2046 0.929 . S
H2043 C2052 0.929 . S
C2044 H2038 0.930 . S
C2044 C2045 1.367 . S
C2044 C2052 1.378 . S
C2045 C2044 1.367 . S
C2045 C2053 1.433 . S
C2046 H2042 0.929 . S
C2046 C2048 1.378 . S
C2046 C2050 1.350 . S
C2047 C2050 1.463 . S
C2047 C2052 1.350 . S
C2047 N2055 1.427 . S
C2048 H2039 0.930 . S
C2048 C2046 1.378 . S
C2048 C2049 1.367 . S
C2049 C2048 1.367 . S
C2049 C2051 1.433 . S
C2050 C2046 1.350 . S
C2050 C2047 1.463 . S
C2050 N2054 1.427 . S
C2051 H2041 0.929 . S
C2051 C2049 1.433 . S
C2051 N2054 1.384 . S
C2052 H2043 0.929 . S
C2052 C2044 1.378 . S
C2052 C2047 1.350 . S
C2053 H2040 0.929 . S
C2053 C2045 1.433 . S
C2053 N2055 1.384 . S
N2054 C2050 1.427 . S
N2054 C2051 1.384 . S
N2055 C2047 1.427 . S
N2055 C2053 1.384 . S
H2056 C2062 0.930 . S
H2057 C2066 0.930 . S
H2058 C2071 0.929 . S
H2059 C2069 0.929 . S
H2060 C2064 0.929 . S
H2061 C2070 0.929 . S
C2062 H2056 0.930 . S
C2062 C2063 1.367 . S
C2062 C2070 1.378 . S
C2063 C2062 1.367 . S
C2063 C2071 1.433 . S
C2064 H2060 0.929 . S
C2064 C2066 1.378 . S
C2064 C2068 1.350 . S
C2065 C2068 1.463 . S
C2065 C2070 1.350 . S
C2065 N2073 1.427 . S
C2066 H2057 0.930 . S
C2066 C2064 1.378 . S
C2066 C2067 1.367 . S
C2067 C2066 1.367 . S
C2067 C2069 1.433 . S
C2068 C2064 1.350 . S
C2068 C2065 1.463 . S
C2068 N2072 1.427 . S
C2069 H2059 0.929 . S
C2069 C2067 1.433 . S
C2069 N2072 1.384 . S
C2070 H2061 0.929 . S
C2070 C2062 1.378 . S
C2070 C2065 1.350 . S
C2071 H2058 0.929 . S
C2071 C2063 1.433 . S
C2071 N2073 1.384 . S
N2072 C2068 1.427 . S
N2072 C2069 1.384 . S
N2073 C2065 1.427 . S
N2073 C2071 1.384 . S
H2074 C2080 0.930 . S
H2075 C2084 0.930 . S
H2076 C2089 0.929 . S
H2077 C2087 0.929 . S
H2078 C2082 0.929 . S
H2079 C2088 0.929 . S
C2080 H2074 0.930 . S
C2080 C2081 1.367 . S
C2080 C2088 1.378 . S
C2081 C2080 1.367 . S
C2081 C2089 1.433 . S
C2082 H2078 0.929 . S
C2082 C2084 1.378 . S
C2082 C2086 1.350 . S
C2083 C2086 1.463 . S
C2083 C2088 1.350 . S
C2083 N2091 1.427 . S
C2084 H2075 0.930 . S
C2084 C2082 1.378 . S
C2084 C2085 1.367 . S
C2085 C2084 1.367 . S
C2085 C2087 1.433 . S
C2086 C2082 1.350 . S
C2086 C2083 1.463 . S
C2086 N2090 1.427 . S
C2087 H2077 0.929 . S
C2087 C2085 1.433 . S
C2087 N2090 1.384 . S
C2088 H2079 0.929 . S
C2088 C2080 1.378 . S
C2088 C2083 1.350 . S
C2089 H2076 0.929 . S
C2089 C2081 1.433 . S
C2089 N2091 1.384 . S
N2090 C2086 1.427 . S
N2090 C2087 1.384 . S
N2091 C2083 1.427 . S
N2091 C2089 1.384 . S
H2092 C2098 0.930 . S
H2093 C2102 0.930 . S
H2094 C2107 0.929 . S
H2095 C2105 0.929 . S
H2096 C2100 0.929 . S
H2097 C2106 0.929 . S
C2098 H2092 0.930 . S
C2098 C2099 1.367 . S
C2098 C2106 1.378 . S
C2099 C2098 1.367 . S
C2099 C2107 1.433 . S
C2100 H2096 0.929 . S
C2100 C2102 1.378 . S
C2100 C2104 1.350 . S
C2101 C2104 1.463 . S
C2101 C2106 1.350 . S
C2101 N2109 1.427 . S
C2102 H2093 0.930 . S
C2102 C2100 1.378 . S
C2102 C2103 1.367 . S
C2103 C2102 1.367 . S
C2103 C2105 1.433 . S
C2104 C2100 1.350 . S
C2104 C2101 1.463 . S
C2104 N2108 1.427 . S
C2105 H2095 0.929 . S
C2105 C2103 1.433 . S
C2105 N2108 1.384 . S
C2106 H2097 0.929 . S
C2106 C2098 1.378 . S
C2106 C2101 1.350 . S
C2107 H2094 0.929 . S
C2107 C2099 1.433 . S
C2107 N2109 1.384 . S
N2108 C2104 1.427 . S
N2108 C2105 1.384 . S
N2109 C2101 1.427 . S
N2109 C2107 1.384 . S
H2110 C2116 0.930 . S
H2111 C2120 0.930 . S
H2112 C2125 0.929 . S
H2113 C2123 0.929 . S
H2114 C2118 0.929 . S
H2115 C2124 0.929 . S
C2116 H2110 0.930 . S
C2116 C2117 1.367 . S
C2116 C2124 1.378 . S
C2117 C2116 1.367 . S
C2117 C2125 1.433 . S
C2118 H2114 0.929 . S
C2118 C2120 1.378 . S
C2118 C2122 1.350 . S
C2119 C2122 1.463 . S
C2119 C2124 1.350 . S
C2119 N2127 1.427 . S
C2120 H2111 0.930 . S
C2120 C2118 1.378 . S
C2120 C2121 1.367 . S
C2121 C2120 1.367 . S
C2121 C2123 1.433 . S
C2122 C2118 1.350 . S
C2122 C2119 1.463 . S
C2122 N2126 1.427 . S
C2123 H2113 0.929 . S
C2123 C2121 1.433 . S
C2123 N2126 1.384 . S
C2124 H2115 0.929 . S
C2124 C2116 1.378 . S
C2124 C2119 1.350 . S
C2125 H2112 0.929 . S
C2125 C2117 1.433 . S
C2125 N2127 1.384 . S
N2126 C2122 1.427 . S
N2126 C2123 1.384 . S
N2127 C2119 1.427 . S
N2127 C2125 1.384 . S
H2128 C2134 0.930 . S
H2129 C2138 0.930 . S
H2130 C2143 0.929 . S
H2131 C2141 0.929 . S
H2132 C2136 0.929 . S
H2133 C2142 0.929 . S
C2134 H2128 0.930 . S
C2134 C2135 1.367 . S
C2134 C2142 1.378 . S
C2135 C2134 1.367 . S
C2135 C2143 1.433 . S
C2136 H2132 0.929 . S
C2136 C2138 1.378 . S
C2136 C2140 1.350 . S
C2137 C2140 1.463 . S
C2137 C2142 1.350 . S
C2137 N2145 1.427 . S
C2138 H2129 0.930 . S
C2138 C2136 1.378 . S
C2138 C2139 1.367 . S
C2139 C2138 1.367 . S
C2139 C2141 1.433 . S
C2140 C2136 1.350 . S
C2140 C2137 1.463 . S
C2140 N2144 1.427 . S
C2141 H2131 0.929 . S
C2141 C2139 1.433 . S
C2141 N2144 1.384 . S
C2142 H2133 0.929 . S
C2142 C2134 1.378 . S
C2142 C2137 1.350 . S
C2143 H2130 0.929 . S
C2143 C2135 1.433 . S
C2143 N2145 1.384 . S
N2144 C2140 1.427 . S
N2144 C2141 1.384 . S
N2145 C2137 1.427 . S
N2145 C2143 1.384 . S
H2146 C2152 0.930 . S
H2147 C2156 0.930 . S
H2148 C2161 0.929 . S
H2149 C2159 0.929 . S
H2150 C2154 0.929 . S
H2151 C2160 0.929 . S
C2152 H2146 0.930 . S
C2152 C2153 1.367 . S
C2152 C2160 1.378 . S
C2153 C2152 1.367 . S
C2153 C2161 1.433 . S
C2154 H2150 0.929 . S
C2154 C2156 1.378 . S
C2154 C2158 1.350 . S
C2155 C2158 1.463 . S
C2155 C2160 1.350 . S
C2155 N2163 1.427 . S
C2156 H2147 0.930 . S
C2156 C2154 1.378 . S
C2156 C2157 1.367 . S
C2157 C2156 1.367 . S
C2157 C2159 1.433 . S
C2158 C2154 1.350 . S
C2158 C2155 1.463 . S
C2158 N2162 1.427 . S
C2159 H2149 0.929 . S
C2159 C2157 1.433 . S
C2159 N2162 1.384 . S
C2160 H2151 0.929 . S
C2160 C2152 1.378 . S
C2160 C2155 1.350 . S
C2161 H2148 0.929 . S
C2161 C2153 1.433 . S
C2161 N2163 1.384 . S
N2162 C2158 1.427 . S
N2162 C2159 1.384 . S
N2163 C2155 1.427 . S
N2163 C2161 1.384 . S
H2164 C2170 0.930 . S
H2165 C2174 0.930 . S
H2166 C2179 0.929 . S
H2167 C2177 0.929 . S
H2168 C2172 0.929 . S
H2169 C2178 0.929 . S
C2170 H2164 0.930 . S
C2170 C2171 1.367 1_545 S
C2170 C2178 1.378 1_545 S
C2171 C2170 1.367 1_565 S
C2171 C2179 1.433 . S
C2172 H2168 0.929 . S
C2172 C2174 1.378 . S
C2172 C2176 1.350 . S
C2173 C2176 1.463 . S
C2173 C2178 1.350 . S
C2173 N2181 1.427 . S
C2174 H2165 0.930 . S
C2174 C2172 1.378 . S
C2174 C2175 1.367 . S
C2175 C2174 1.367 . S
C2175 C2177 1.433 . S
C2176 C2172 1.350 . S
C2176 C2173 1.463 . S
C2176 N2180 1.427 . S
C2177 H2167 0.929 . S
C2177 C2175 1.433 . S
C2177 N2180 1.384 . S
C2178 H2169 0.929 . S
C2178 C2170 1.378 1_565 S
C2178 C2173 1.350 . S
C2179 H2166 0.929 . S
C2179 C2171 1.433 . S
C2179 N2181 1.384 . S
N2180 C2176 1.427 . S
N2180 C2177 1.384 . S
N2181 C2173 1.427 . S
N2181 C2179 1.384 . S
H2182 C2188 0.930 . S
H2183 C2192 0.947 . S
H2184 C2197 0.929 . S
H2185 C2195 0.929 . S
H2186 C2190 0.929 . S
H2187 C2196 0.929 . S
C2188 H2182 0.930 . S
C2188 C2189 1.367 . S
C2188 C2196 1.378 . S
C2189 C2188 1.367 . S
C2189 C2197 1.433 1_554 S
C2190 H2186 0.929 . S
C2190 C2192 1.377 1_565 S
C2190 C2194 1.350 1_556 S
C2191 C2194 1.463 . S
C2191 C2196 1.350 . S
C2191 N2199 1.427 1_554 S
C2192 H2183 0.947 . S
C2192 C2190 1.377 1_545 S
C2192 C2193 1.352 1_556 S
C2193 C2192 1.352 1_554 S
C2193 C2195 1.433 . S
C2194 C2190 1.350 1_554 S
C2194 C2191 1.463 . S
C2194 N2198 1.427 1_565 S
C2195 H2185 0.929 . S
C2195 C2193 1.433 . S
C2195 N2198 1.384 . S
C2196 H2187 0.929 . S
C2196 C2188 1.378 . S
C2196 C2191 1.350 . S
C2197 H2184 0.929 . S
C2197 C2189 1.433 1_556 S
C2197 N2199 1.384 . S
N2198 C2194 1.427 1_545 S
N2198 C2195 1.384 . S
N2199 C2191 1.427 1_556 S
N2199 C2197 1.384 . S
H2200 C2206 0.930 . S
H2201 C2210 0.930 . S
H2202 C2215 0.929 . S
H2203 C2213 0.929 . S
H2204 C2208 0.929 . S
H2205 C2214 0.929 . S
C2206 H2200 0.930 . S
C2206 C2207 1.367 . S
C2206 C2214 1.378 . S
C2207 C2206 1.367 . S
C2207 C2215 1.433 . S
C2208 H2204 0.929 . S
C2208 C2210 1.378 . S
C2208 C2212 1.350 . S
C2209 C2212 1.463 . S
C2209 C2214 1.350 . S
C2209 N2217 1.427 . S
C2210 H2201 0.930 . S
C2210 C2208 1.378 . S
C2210 C2211 1.367 . S
C2211 C2210 1.367 . S
C2211 C2213 1.433 . S
C2212 C2208 1.350 . S
C2212 C2209 1.463 . S
C2212 N2216 1.427 . S
C2213 H2203 0.929 . S
C2213 C2211 1.433 . S
C2213 N2216 1.384 . S
C2214 H2205 0.929 . S
C2214 C2206 1.378 . S
C2214 C2209 1.350 . S
C2215 H2202 0.929 . S
C2215 C2207 1.433 . S
C2215 N2217 1.384 . S
N2216 C2212 1.427 . S
N2216 C2213 1.384 . S
N2217 C2209 1.427 . S
N2217 C2215 1.384 . S
H2218 C2224 0.930 1_556 S
H2219 C2228 0.930 . S
H2220 C2233 0.929 . S
H2221 C2231 0.929 . S
H2222 C2226 0.929 . S
H2223 C2232 0.929 . S
C2224 H2218 0.930 1_554 S
C2224 C2225 1.367 . S
C2224 C2232 1.378 . S
C2225 C2224 1.367 . S
C2225 C2233 1.433 . S
C2226 H2222 0.929 . S
C2226 C2228 1.378 . S
C2226 C2230 1.350 . S
C2227 C2230 1.463 . S
C2227 C2232 1.350 . S
C2227 N2235 1.427 . S
C2228 H2219 0.930 . S
C2228 C2226 1.378 . S
C2228 C2229 1.367 . S
C2229 C2228 1.367 . S
C2229 C2231 1.433 . S
C2230 C2226 1.350 . S
C2230 C2227 1.463 . S
C2230 N2234 1.427 . S
C2231 H2221 0.929 . S
C2231 C2229 1.433 . S
C2231 N2234 1.384 . S
C2232 H2223 0.929 . S
C2232 C2224 1.378 . S
C2232 C2227 1.350 . S
C2233 H2220 0.929 . S
C2233 C2225 1.433 . S
C2233 N2235 1.384 . S
N2234 C2230 1.427 . S
N2234 C2231 1.384 . S
N2235 C2227 1.427 . S
N2235 C2233 1.384 . S
H2236 C2242 0.930 . S
H2237 C2246 0.930 . S
H2238 C2251 0.929 . S
H2239 C2249 0.929 . S
H2240 C2244 0.929 . S
H2241 C2250 0.929 . S
C2242 H2236 0.930 . S
C2242 C2243 1.367 . S
C2242 C2250 1.378 . S
C2243 C2242 1.367 . S
C2243 C2251 1.433 . S
C2244 H2240 0.929 . S
C2244 C2246 1.378 . S
C2244 C2248 1.350 . S
C2245 C2248 1.463 . S
C2245 C2250 1.350 . S
C2245 N2253 1.427 . S
C2246 H2237 0.930 . S
C2246 C2244 1.378 . S
C2246 C2247 1.367 . S
C2247 C2246 1.367 . S
C2247 C2249 1.433 . S
C2248 C2244 1.350 . S
C2248 C2245 1.463 . S
C2248 N2252 1.427 . S
C2249 H2239 0.929 . S
C2249 C2247 1.433 . S
C2249 N2252 1.384 . S
C2250 H2241 0.929 . S
C2250 C2242 1.378 . S
C2250 C2245 1.350 . S
C2251 H2238 0.929 . S
C2251 C2243 1.433 . S
C2251 N2253 1.384 . S
N2252 C2248 1.427 . S
N2252 C2249 1.384 . S
N2253 C2245 1.427 . S
N2253 C2251 1.384 . S
H2254 C2260 0.930 . S
H2255 C2264 0.930 . S
H2256 C2269 0.929 . S
H2257 C2267 0.929 . S
H2258 C2262 0.929 . S
H2259 C2268 0.929 . S
C2260 H2254 0.930 . S
C2260 C2261 1.367 . S
C2260 C2268 1.378 . S
C2261 C2260 1.367 . S
C2261 C2269 1.433 . S
C2262 H2258 0.929 . S
C2262 C2264 1.378 . S
C2262 C2266 1.350 . S
C2263 C2266 1.463 . S
C2263 C2268 1.350 . S
C2263 N2271 1.427 . S
C2264 H2255 0.930 . S
C2264 C2262 1.378 . S
C2264 C2265 1.367 . S
C2265 C2264 1.367 . S
C2265 C2267 1.433 . S
C2266 C2262 1.350 . S
C2266 C2263 1.463 . S
C2266 N2270 1.427 . S
C2267 H2257 0.929 . S
C2267 C2265 1.433 . S
C2267 N2270 1.384 . S
C2268 H2259 0.929 . S
C2268 C2260 1.378 . S
C2268 C2263 1.350 . S
C2269 H2256 0.929 . S
C2269 C2261 1.433 . S
C2269 N2271 1.384 . S
N2270 C2266 1.427 . S
N2270 C2267 1.384 . S
N2271 C2263 1.427 . S
N2271 C2269 1.384 . S
H2272 C2278 0.930 . S
H2273 C2282 0.930 . S
H2274 C2287 0.929 . S
H2275 C2285 0.929 . S
H2276 C2280 0.929 . S
H2277 C2286 0.929 . S
C2278 H2272 0.930 . S
C2278 C2279 1.367 . S
C2278 C2286 1.378 . S
C2279 C2278 1.367 . S
C2279 C2287 1.433 . S
C2280 H2276 0.929 . S
C2280 C2282 1.378 . S
C2280 C2284 1.350 . S
C2281 C2284 1.463 . S
C2281 C2286 1.350 . S
C2281 N2289 1.427 . S
C2282 H2273 0.930 . S
C2282 C2280 1.378 . S
C2282 C2283 1.367 . S
C2283 C2282 1.367 . S
C2283 C2285 1.433 . S
C2284 C2280 1.350 . S
C2284 C2281 1.463 . S
C2284 N2288 1.427 . S
C2285 H2275 0.929 . S
C2285 C2283 1.433 . S
C2285 N2288 1.384 . S
C2286 H2277 0.929 . S
C2286 C2278 1.378 . S
C2286 C2281 1.350 . S
C2287 H2274 0.929 . S
C2287 C2279 1.433 . S
C2287 N2289 1.384 . S
N2288 C2284 1.427 . S
N2288 C2285 1.384 . S
N2289 C2281 1.427 . S
N2289 C2287 1.384 . S
H2290 C2296 0.930 . S
H2291 C2300 0.930 . S
H2292 C2305 0.929 . S
H2293 C2303 0.929 . S
H2294 C2298 0.929 . S
H2295 C2304 0.929 . S
C2296 H2290 0.930 . S
C2296 C2297 1.367 . S
C2296 C2304 1.378 . S
C2297 C2296 1.367 . S
C2297 C2305 1.433 . S
C2298 H2294 0.929 . S
C2298 C2300 1.378 . S
C2298 C2302 1.350 . S
C2299 C2302 1.463 . S
C2299 C2304 1.350 . S
C2299 N2307 1.427 . S
C2300 H2291 0.930 . S
C2300 C2298 1.378 . S
C2300 C2301 1.367 . S
C2301 C2300 1.367 . S
C2301 C2303 1.433 . S
C2302 C2298 1.350 . S
C2302 C2299 1.463 . S
C2302 N2306 1.427 . S
C2303 H2293 0.929 . S
C2303 C2301 1.433 . S
C2303 N2306 1.384 . S
C2304 H2295 0.929 . S
C2304 C2296 1.378 . S
C2304 C2299 1.350 . S
C2305 H2292 0.929 . S
C2305 C2297 1.433 . S
C2305 N2307 1.384 . S
N2306 C2302 1.427 . S
N2306 C2303 1.384 . S
N2307 C2299 1.427 . S
N2307 C2305 1.384 . S
H2308 C2314 0.930 . S
H2309 C2318 0.930 . S
H2310 C2323 0.929 . S
H2311 C2321 0.929 . S
H2312 C2316 0.929 . S
H2313 C2322 0.929 . S
C2314 H2308 0.930 . S
C2314 C2315 1.367 . S
C2314 C2322 1.378 . S
C2315 C2314 1.367 . S
C2315 C2323 1.433 . S
C2316 H2312 0.929 . S
C2316 C2318 1.378 . S
C2316 C2320 1.350 . S
C2317 C2320 1.463 . S
C2317 C2322 1.350 . S
C2317 N2325 1.427 . S
C2318 H2309 0.930 . S
C2318 C2316 1.378 . S
C2318 C2319 1.367 . S
C2319 C2318 1.367 . S
C2319 C2321 1.433 . S
C2320 C2316 1.350 . S
C2320 C2317 1.463 . S
C2320 N2324 1.427 . S
C2321 H2311 0.929 . S
C2321 C2319 1.433 . S
C2321 N2324 1.384 . S
C2322 H2313 0.929 . S
C2322 C2314 1.378 . S
C2322 C2317 1.350 . S
C2323 H2310 0.929 . S
C2323 C2315 1.433 . S
C2323 N2325 1.384 . S
N2324 C2320 1.427 . S
N2324 C2321 1.384 . S
N2325 C2317 1.427 . S
N2325 C2323 1.384 . S
H2326 C2332 0.930 . S
H2327 C2336 0.930 . S
H2328 C2341 0.929 . S
H2329 C2339 0.929 . S
H2330 C2334 0.929 . S
H2331 C2340 0.929 . S
C2332 H2326 0.930 . S
C2332 C2333 1.367 . S
C2332 C2340 1.378 . S
C2333 C2332 1.367 . S
C2333 C2341 1.433 . S
C2334 H2330 0.929 . S
C2334 C2336 1.378 . S
C2334 C2338 1.350 . S
C2335 C2338 1.463 . S
C2335 C2340 1.350 . S
C2335 N2343 1.427 . S
C2336 H2327 0.930 . S
C2336 C2334 1.378 . S
C2336 C2337 1.367 . S
C2337 C2336 1.367 . S
C2337 C2339 1.433 . S
C2338 C2334 1.350 . S
C2338 C2335 1.463 . S
C2338 N2342 1.427 . S
C2339 H2329 0.929 . S
C2339 C2337 1.433 . S
C2339 N2342 1.384 . S
C2340 H2331 0.929 . S
C2340 C2332 1.378 . S
C2340 C2335 1.350 . S
C2341 H2328 0.929 . S
C2341 C2333 1.433 . S
C2341 N2343 1.384 . S
N2342 C2338 1.427 . S
N2342 C2339 1.384 . S
N2343 C2335 1.427 . S
N2343 C2341 1.384 . S
H2344 C2350 0.930 . S
H2345 C2354 0.930 . S
H2346 C2359 0.929 . S
H2347 C2357 0.929 . S
H2348 C2352 0.929 . S
H2349 C2358 0.929 . S
C2350 H2344 0.930 . S
C2350 C2351 1.367 . S
C2350 C2358 1.378 . S
C2351 C2350 1.367 . S
C2351 C2359 1.433 . S
C2352 H2348 0.929 . S
C2352 C2354 1.378 . S
C2352 C2356 1.350 . S
C2353 C2356 1.463 . S
C2353 C2358 1.350 . S
C2353 N2361 1.427 . S
C2354 H2345 0.930 . S
C2354 C2352 1.378 . S
C2354 C2355 1.367 . S
C2355 C2354 1.367 . S
C2355 C2357 1.433 . S
C2356 C2352 1.350 . S
C2356 C2353 1.463 . S
C2356 N2360 1.427 . S
C2357 H2347 0.929 . S
C2357 C2355 1.433 . S
C2357 N2360 1.384 . S
C2358 H2349 0.929 . S
C2358 C2350 1.378 . S
C2358 C2353 1.350 . S
C2359 H2346 0.929 . S
C2359 C2351 1.433 . S
C2359 N2361 1.384 . S
N2360 C2356 1.427 . S
N2360 C2357 1.384 . S
N2361 C2353 1.427 . S
N2361 C2359 1.384 . S
H2362 C2368 0.930 . S
H2363 C2372 0.930 . S
H2364 C2377 0.929 . S
H2365 C2375 0.929 . S
H2366 C2370 0.929 . S
H2367 C2376 0.929 . S
C2368 H2362 0.930 . S
C2368 C2369 1.367 . S
C2368 C2376 1.378 . S
C2369 C2368 1.367 . S
C2369 C2377 1.433 . S
C2370 H2366 0.929 . S
C2370 C2372 1.378 . S
C2370 C2374 1.350 . S
C2371 C2374 1.463 . S
C2371 C2376 1.350 . S
C2371 N2379 1.427 . S
C2372 H2363 0.930 . S
C2372 C2370 1.378 . S
C2372 C2373 1.367 . S
C2373 C2372 1.367 . S
C2373 C2375 1.433 . S
C2374 C2370 1.350 . S
C2374 C2371 1.463 . S
C2374 N2378 1.427 . S
C2375 H2365 0.929 . S
C2375 C2373 1.433 . S
C2375 N2378 1.384 . S
C2376 H2367 0.929 . S
C2376 C2368 1.378 . S
C2376 C2371 1.350 . S
C2377 H2364 0.929 . S
C2377 C2369 1.433 . S
C2377 N2379 1.384 . S
N2378 C2374 1.427 . S
N2378 C2375 1.384 . S
N2379 C2371 1.427 . S
N2379 C2377 1.384 . S
H2380 C2386 0.930 . S
H2381 C2390 0.930 . S
H2382 C2395 0.929 . S
H2383 C2393 0.929 . S
H2384 C2388 0.929 . S
H2385 C2394 0.929 . S
C2386 H2380 0.930 . S
C2386 C2387 1.367 . S
C2386 C2394 1.378 . S
C2387 C2386 1.367 . S
C2387 C2395 1.433 . S
C2388 H2384 0.929 . S
C2388 C2390 1.378 . S
C2388 C2392 1.350 . S
C2389 C2392 1.463 . S
C2389 C2394 1.350 . S
C2389 N2397 1.427 . S
C2390 H2381 0.930 . S
C2390 C2388 1.378 . S
C2390 C2391 1.367 . S
C2391 C2390 1.367 . S
C2391 C2393 1.433 . S
C2392 C2388 1.350 . S
C2392 C2389 1.463 . S
C2392 N2396 1.427 . S
C2393 H2383 0.929 . S
C2393 C2391 1.433 . S
C2393 N2396 1.384 . S
C2394 H2385 0.929 . S
C2394 C2386 1.378 . S
C2394 C2389 1.350 . S
C2395 H2382 0.929 . S
C2395 C2387 1.433 . S
C2395 N2397 1.384 . S
N2396 C2392 1.427 . S
N2396 C2393 1.384 . S
N2397 C2389 1.427 . S
N2397 C2395 1.384 . S
H2398 C2404 0.930 . S
H2399 C2408 0.930 . S
H2400 C2413 0.929 . S
H2401 C2411 0.929 . S
H2402 C2406 0.929 . S
H2403 C2412 0.929 . S
C2404 H2398 0.930 . S
C2404 C2405 1.367 . S
C2404 C2412 1.378 . S
C2405 C2404 1.367 . S
C2405 C2413 1.433 . S
C2406 H2402 0.929 . S
C2406 C2408 1.378 . S
C2406 C2410 1.350 . S
C2407 C2410 1.463 . S
C2407 C2412 1.350 . S
C2407 N2415 1.427 . S
C2408 H2399 0.930 . S
C2408 C2406 1.378 . S
C2408 C2409 1.367 . S
C2409 C2408 1.367 . S
C2409 C2411 1.433 . S
C2410 C2406 1.350 . S
C2410 C2407 1.463 . S
C2410 N2414 1.427 . S
C2411 H2401 0.929 . S
C2411 C2409 1.433 . S
C2411 N2414 1.384 . S
C2412 H2403 0.929 . S
C2412 C2404 1.378 . S
C2412 C2407 1.350 . S
C2413 H2400 0.929 . S
C2413 C2405 1.433 . S
C2413 N2415 1.384 . S
N2414 C2410 1.427 . S
N2414 C2411 1.384 . S
N2415 C2407 1.427 . S
N2415 C2413 1.384 . S
H2416 C2422 0.930 . S
H2417 C2426 0.930 . S
H2418 C2431 0.929 . S
H2419 C2429 0.929 . S
H2420 C2424 0.929 . S
H2421 C2430 0.929 . S
C2422 H2416 0.930 . S
C2422 C2423 1.367 . S
C2422 C2430 1.378 . S
C2423 C2422 1.367 . S
C2423 C2431 1.433 . S
C2424 H2420 0.929 . S
C2424 C2426 1.378 . S
C2424 C2428 1.350 . S
C2425 C2428 1.463 . S
C2425 C2430 1.350 . S
C2425 N2433 1.427 . S
C2426 H2417 0.930 . S
C2426 C2424 1.378 . S
C2426 C2427 1.367 . S
C2427 C2426 1.367 . S
C2427 C2429 1.433 . S
C2428 C2424 1.350 . S
C2428 C2425 1.463 . S
C2428 N2432 1.427 . S
C2429 H2419 0.929 . S
C2429 C2427 1.433 . S
C2429 N2432 1.384 . S
C2430 H2421 0.929 . S
C2430 C2422 1.378 . S
C2430 C2425 1.350 . S
C2431 H2418 0.929 . S
C2431 C2423 1.433 . S
C2431 N2433 1.384 . S
N2432 C2428 1.427 . S
N2432 C2429 1.384 . S
N2433 C2425 1.427 . S
N2433 C2431 1.384 . S
H2434 C2440 0.930 . S
H2435 C2444 0.930 . S
H2436 C2449 0.929 . S
H2437 C2447 0.929 . S
H2438 C2442 0.929 . S
H2439 C2448 0.929 . S
C2440 H2434 0.930 . S
C2440 C2441 1.367 . S
C2440 C2448 1.378 . S
C2441 C2440 1.367 . S
C2441 C2449 1.433 . S
C2442 H2438 0.929 . S
C2442 C2444 1.378 . S
C2442 C2446 1.350 . S
C2443 C2446 1.463 . S
C2443 C2448 1.350 . S
C2443 N2451 1.427 . S
C2444 H2435 0.930 . S
C2444 C2442 1.378 . S
C2444 C2445 1.367 . S
C2445 C2444 1.367 . S
C2445 C2447 1.433 . S
C2446 C2442 1.350 . S
C2446 C2443 1.463 . S
C2446 N2450 1.427 . S
C2447 H2437 0.929 . S
C2447 C2445 1.433 . S
C2447 N2450 1.384 . S
C2448 H2439 0.929 . S
C2448 C2440 1.378 . S
C2448 C2443 1.350 . S
C2449 H2436 0.929 . S
C2449 C2441 1.433 . S
C2449 N2451 1.384 . S
N2450 C2446 1.427 . S
N2450 C2447 1.384 . S
N2451 C2443 1.427 . S
N2451 C2449 1.384 . S
H2452 C2458 0.930 . S
H2453 C2462 0.930 1_455 S
H2454 C2467 0.929 . S
H2455 C2465 0.929 . S
H2456 C2460 0.929 . S
H2457 C2466 0.929 . S
C2458 H2452 0.930 . S
C2458 C2459 1.367 . S
C2458 C2466 1.378 . S
C2459 C2458 1.367 . S
C2459 C2467 1.433 . S
C2460 H2456 0.929 . S
C2460 C2462 1.378 . S
C2460 C2464 1.350 . S
C2461 C2464 1.463 . S
C2461 C2466 1.350 . S
C2461 N2469 1.427 . S
C2462 H2453 0.930 1_655 S
C2462 C2460 1.378 . S
C2462 C2463 1.367 . S
C2463 C2462 1.367 . S
C2463 C2465 1.433 . S
C2464 C2460 1.350 . S
C2464 C2461 1.463 . S
C2464 N2468 1.427 . S
C2465 H2455 0.929 . S
C2465 C2463 1.433 . S
C2465 N2468 1.384 . S
C2466 H2457 0.929 . S
C2466 C2458 1.378 . S
C2466 C2461 1.350 . S
C2467 H2454 0.929 . S
C2467 C2459 1.433 . S
C2467 N2469 1.384 . S
N2468 C2464 1.427 . S
N2468 C2465 1.384 . S
N2469 C2461 1.427 . S
N2469 C2467 1.384 . S
H2470 C2476 0.930 . S
H2471 C2480 0.930 . S
H2472 C2485 0.929 . S
H2473 C2483 0.929 . S
H2474 C2478 0.929 . S
H2475 C2484 0.929 . S
C2476 H2470 0.930 . S
C2476 C2477 1.367 . S
C2476 C2484 1.378 . S
C2477 C2476 1.367 . S
C2477 C2485 1.433 . S
C2478 H2474 0.929 . S
C2478 C2480 1.378 . S
C2478 C2482 1.350 . S
C2479 C2482 1.463 . S
C2479 C2484 1.350 . S
C2479 N2487 1.427 . S
C2480 H2471 0.930 . S
C2480 C2478 1.378 . S
C2480 C2481 1.367 . S
C2481 C2480 1.367 . S
C2481 C2483 1.433 . S
C2482 C2478 1.350 . S
C2482 C2479 1.463 . S
C2482 N2486 1.427 . S
C2483 H2473 0.929 . S
C2483 C2481 1.433 . S
C2483 N2486 1.384 . S
C2484 H2475 0.929 . S
C2484 C2476 1.378 . S
C2484 C2479 1.350 . S
C2485 H2472 0.929 . S
C2485 C2477 1.433 . S
C2485 N2487 1.384 . S
N2486 C2482 1.427 . S
N2486 C2483 1.384 . S
N2487 C2479 1.427 . S
N2487 C2485 1.384 . S
H2488 C2494 0.930 . S
H2489 C2498 0.930 . S
H2490 C2503 0.929 . S
H2491 C2501 0.929 . S
H2492 C2496 0.929 . S
H2493 C2502 0.929 . S
C2494 H2488 0.930 . S
C2494 C2495 1.367 . S
C2494 C2502 1.378 . S
C2495 C2494 1.367 . S
C2495 C2503 1.433 . S
C2496 H2492 0.929 . S
C2496 C2498 1.378 . S
C2496 C2500 1.350 . S
C2497 C2500 1.463 . S
C2497 C2502 1.350 . S
C2497 N2505 1.427 . S
C2498 H2489 0.930 . S
C2498 C2496 1.378 . S
C2498 C2499 1.367 . S
C2499 C2498 1.367 . S
C2499 C2501 1.433 . S
C2500 C2496 1.350 . S
C2500 C2497 1.463 . S
C2500 N2504 1.427 . S
C2501 H2491 0.929 . S
C2501 C2499 1.433 . S
C2501 N2504 1.384 . S
C2502 H2493 0.929 . S
C2502 C2494 1.378 . S
C2502 C2497 1.350 . S
C2503 H2490 0.929 . S
C2503 C2495 1.433 . S
C2503 N2505 1.384 . S
N2504 C2500 1.427 . S
N2504 C2501 1.384 . S
N2505 C2497 1.427 . S
N2505 C2503 1.384 . S
H2506 C2512 0.930 . S
H2507 C2516 0.930 . S
H2508 C2521 0.929 . S
H2509 C2519 0.929 . S
H2510 C2514 0.929 . S
H2511 C2520 0.929 . S
C2512 H2506 0.930 . S
C2512 C2513 1.367 . S
C2512 C2520 1.378 . S
C2513 C2512 1.367 . S
C2513 C2521 1.433 . S
C2514 H2510 0.929 . S
C2514 C2516 1.378 . S
C2514 C2518 1.350 . S
C2515 C2518 1.463 . S
C2515 C2520 1.350 . S
C2515 N2523 1.427 . S
C2516 H2507 0.930 . S
C2516 C2514 1.378 . S
C2516 C2517 1.367 . S
C2517 C2516 1.367 . S
C2517 C2519 1.433 . S
C2518 C2514 1.350 . S
C2518 C2515 1.463 . S
C2518 N2522 1.427 . S
C2519 H2509 0.929 . S
C2519 C2517 1.433 . S
C2519 N2522 1.384 . S
C2520 H2511 0.929 . S
C2520 C2512 1.378 . S
C2520 C2515 1.350 . S
C2521 H2508 0.929 . S
C2521 C2513 1.433 . S
C2521 N2523 1.384 . S
N2522 C2518 1.427 . S
N2522 C2519 1.384 . S
N2523 C2515 1.427 . S
N2523 C2521 1.384 . S
H2524 C2530 0.930 . S
H2525 C2534 0.930 . S
H2526 C2539 0.929 . S
H2527 C2537 0.929 . S
H2528 C2532 0.929 . S
H2529 C2538 0.929 . S
C2530 H2524 0.930 . S
C2530 C2531 1.367 . S
C2530 C2538 1.378 . S
C2531 C2530 1.367 . S
C2531 C2539 1.433 . S
C2532 H2528 0.929 . S
C2532 C2534 1.378 . S
C2532 C2536 1.350 . S
C2533 C2536 1.463 . S
C2533 C2538 1.350 . S
C2533 N2541 1.427 . S
C2534 H2525 0.930 . S
C2534 C2532 1.378 . S
C2534 C2535 1.367 . S
C2535 C2534 1.367 . S
C2535 C2537 1.433 . S
C2536 C2532 1.350 . S
C2536 C2533 1.463 . S
C2536 N2540 1.427 . S
C2537 H2527 0.929 . S
C2537 C2535 1.433 . S
C2537 N2540 1.384 . S
C2538 H2529 0.929 . S
C2538 C2530 1.378 . S
C2538 C2533 1.350 . S
C2539 H2526 0.929 . S
C2539 C2531 1.433 . S
C2539 N2541 1.384 . S
N2540 C2536 1.427 . S
N2540 C2537 1.384 . S
N2541 C2533 1.427 . S
N2541 C2539 1.384 . S
H2542 C2548 0.930 . S
H2543 C2552 0.930 . S
H2544 C2557 0.929 . S
H2545 C2555 0.929 . S
H2546 C2550 0.929 . S
H2547 C2556 0.929 . S
C2548 H2542 0.930 . S
C2548 C2549 1.367 . S
C2548 C2556 1.378 . S
C2549 C2548 1.367 . S
C2549 C2557 1.433 . S
C2550 H2546 0.929 . S
C2550 C2552 1.378 . S
C2550 C2554 1.350 . S
C2551 C2554 1.463 . S
C2551 C2556 1.350 . S
C2551 N2559 1.427 . S
C2552 H2543 0.930 . S
C2552 C2550 1.378 . S
C2552 C2553 1.367 . S
C2553 C2552 1.367 . S
C2553 C2555 1.433 . S
C2554 C2550 1.350 . S
C2554 C2551 1.463 . S
C2554 N2558 1.427 . S
C2555 H2545 0.929 . S
C2555 C2553 1.433 . S
C2555 N2558 1.384 . S
C2556 H2547 0.929 . S
C2556 C2548 1.378 . S
C2556 C2551 1.350 . S
C2557 H2544 0.929 . S
C2557 C2549 1.433 . S
C2557 N2559 1.384 . S
N2558 C2554 1.427 . S
N2558 C2555 1.384 . S
N2559 C2551 1.427 . S
N2559 C2557 1.384 . S
H2560 C2566 0.930 . S
H2561 C2570 0.930 . S
H2562 C2575 0.929 . S
H2563 C2573 0.929 . S
H2564 C2568 0.929 . S
H2565 C2574 0.929 . S
C2566 H2560 0.930 . S
C2566 C2567 1.367 . S
C2566 C2574 1.378 . S
C2567 C2566 1.367 . S
C2567 C2575 1.433 . S
C2568 H2564 0.929 . S
C2568 C2570 1.378 . S
C2568 C2572 1.350 . S
C2569 C2572 1.463 . S
C2569 C2574 1.350 . S
C2569 N2577 1.427 . S
C2570 H2561 0.930 . S
C2570 C2568 1.378 . S
C2570 C2571 1.367 . S
C2571 C2570 1.367 . S
C2571 C2573 1.433 . S
C2572 C2568 1.350 . S
C2572 C2569 1.463 . S
C2572 N2576 1.427 . S
C2573 H2563 0.929 . S
C2573 C2571 1.433 . S
C2573 N2576 1.384 . S
C2574 H2565 0.929 . S
C2574 C2566 1.378 . S
C2574 C2569 1.350 . S
C2575 H2562 0.929 . S
C2575 C2567 1.433 . S
C2575 N2577 1.384 . S
N2576 C2572 1.427 . S
N2576 C2573 1.384 . S
N2577 C2569 1.427 . S
N2577 C2575 1.384 . S
H2578 C2584 0.930 . S
H2579 C2588 0.930 . S
H2580 C2593 0.929 . S
H2581 C2591 0.929 . S
H2582 C2586 0.929 . S
H2583 C2592 0.929 . S
C2584 H2578 0.930 . S
C2584 C2585 1.367 . S
C2584 C2592 1.378 . S
C2585 C2584 1.367 . S
C2585 C2593 1.433 . S
C2586 H2582 0.929 . S
C2586 C2588 1.378 . S
C2586 C2590 1.350 . S
C2587 C2590 1.463 . S
C2587 C2592 1.350 . S
C2587 N2595 1.427 . S
C2588 H2579 0.930 . S
C2588 C2586 1.378 . S
C2588 C2589 1.371 1_565 S
C2589 C2588 1.371 1_545 S
C2589 C2591 1.431 . S
C2590 C2586 1.350 . S
C2590 C2587 1.463 . S
C2590 N2594 1.427 . S
C2591 H2581 0.929 . S
C2591 C2589 1.431 . S
C2591 N2594 1.384 1_545 S
C2592 H2583 0.929 . S
C2592 C2584 1.378 . S
C2592 C2587 1.350 . S
C2593 H2580 0.929 . S
C2593 C2585 1.433 . S
C2593 N2595 1.384 . S
N2594 C2590 1.427 . S
N2594 C2591 1.384 1_565 S
N2595 C2587 1.427 . S
N2595 C2593 1.384 . S
H2596 C2602 0.930 . S
H2597 C2606 0.930 . S
H2598 C2611 0.929 . S
H2599 C2609 0.929 . S
H2600 C2604 0.929 . S
H2601 C2610 0.929 . S
C2602 H2596 0.930 . S
C2602 C2603 1.367 . S
C2602 C2610 1.378 . S
C2603 C2602 1.367 . S
C2603 C2611 1.433 . S
C2604 H2600 0.929 . S
C2604 C2606 1.378 . S
C2604 C2608 1.350 . S
C2605 C2608 1.463 . S
C2605 C2610 1.350 . S
C2605 N2613 1.427 . S
C2606 H2597 0.930 . S
C2606 C2604 1.378 . S
C2606 C2607 1.367 . S
C2607 C2606 1.367 . S
C2607 C2609 1.433 . S
C2608 C2604 1.350 . S
C2608 C2605 1.463 . S
C2608 N2612 1.427 . S
C2609 H2599 0.929 . S
C2609 C2607 1.433 . S
C2609 N2612 1.384 . S
C2610 H2601 0.929 . S
C2610 C2602 1.378 . S
C2610 C2605 1.350 . S
C2611 H2598 0.929 . S
C2611 C2603 1.433 . S
C2611 N2613 1.384 . S
N2612 C2608 1.427 . S
N2612 C2609 1.384 . S
N2613 C2605 1.427 . S
N2613 C2611 1.384 . S
H2614 C2620 0.930 . S
H2615 C2624 0.930 . S
H2616 C2629 0.929 . S
H2617 C2627 0.929 . S
H2618 C2622 0.929 . S
H2619 C2628 0.929 . S
C2620 H2614 0.930 . S
C2620 C2621 1.367 . S
C2620 C2628 1.378 . S
C2621 C2620 1.367 . S
C2621 C2629 1.433 . S
C2622 H2618 0.929 . S
C2622 C2624 1.378 . S
C2622 C2626 1.350 . S
C2623 C2626 1.463 . S
C2623 C2628 1.350 . S
C2623 N2631 1.427 . S
C2624 H2615 0.930 . S
C2624 C2622 1.378 . S
C2624 C2625 1.367 . S
C2625 C2624 1.367 . S
C2625 C2627 1.433 . S
C2626 C2622 1.350 . S
C2626 C2623 1.463 . S
C2626 N2630 1.427 . S
C2627 H2617 0.929 . S
C2627 C2625 1.433 . S
C2627 N2630 1.384 . S
C2628 H2619 0.929 . S
C2628 C2620 1.378 . S
C2628 C2623 1.350 . S
C2629 H2616 0.929 . S
C2629 C2621 1.433 . S
C2629 N2631 1.384 . S
N2630 C2626 1.427 . S
N2630 C2627 1.384 . S
N2631 C2623 1.427 . S
N2631 C2629 1.384 . S
H2632 C2638 0.930 . S
H2633 C2642 0.930 . S
H2634 C2647 0.929 . S
H2635 C2645 0.929 . S
H2636 C2640 0.929 . S
H2637 C2646 0.929 . S
C2638 H2632 0.930 . S
C2638 C2639 1.367 . S
C2638 C2646 1.378 . S
C2639 C2638 1.367 . S
C2639 C2647 1.433 . S
C2640 H2636 0.929 . S
C2640 C2642 1.378 . S
C2640 C2644 1.350 . S
C2641 C2644 1.463 . S
C2641 C2646 1.350 . S
C2641 N2649 1.427 . S
C2642 H2633 0.930 . S
C2642 C2640 1.378 . S
C2642 C2643 1.367 . S
C2643 C2642 1.367 . S
C2643 C2645 1.433 . S
C2644 C2640 1.350 . S
C2644 C2641 1.463 . S
C2644 N2648 1.427 . S
C2645 H2635 0.929 . S
C2645 C2643 1.433 . S
C2645 N2648 1.384 . S
C2646 H2637 0.929 . S
C2646 C2638 1.378 . S
C2646 C2641 1.350 . S
C2647 H2634 0.929 . S
C2647 C2639 1.433 . S
C2647 N2649 1.384 . S
N2648 C2644 1.427 . S
N2648 C2645 1.384 . S
N2649 C2641 1.427 . S
N2649 C2647 1.384 . S
H2650 C2656 0.930 . S
H2651 C2660 0.930 . S
H2652 C2665 0.929 . S
H2653 C2663 0.929 . S
H2654 C2658 0.929 . S
H2655 C2664 0.929 1_556 S
C2656 H2650 0.930 . S
C2656 C2657 1.367 . S
C2656 C2664 1.378 . S
C2657 C2656 1.367 . S
C2657 C2665 1.433 . S
C2658 H2654 0.929 . S
C2658 C2660 1.378 . S
C2658 C2662 1.350 . S
C2659 C2662 1.463 . S
C2659 C2664 1.350 . S
C2659 N2667 1.427 . S
C2660 H2651 0.930 . S
C2660 C2658 1.378 . S
C2660 C2661 1.367 . S
C2661 C2660 1.367 . S
C2661 C2663 1.433 1_554 S
C2662 C2658 1.350 . S
C2662 C2659 1.463 . S
C2662 N2666 1.427 1_554 S
C2663 H2653 0.929 . S
C2663 C2661 1.433 1_556 S
C2663 N2666 1.384 . S
C2664 H2655 0.929 1_554 S
C2664 C2656 1.378 . S
C2664 C2659 1.350 . S
C2665 H2652 0.929 . S
C2665 C2657 1.433 . S
C2665 N2667 1.384 . S
N2666 C2662 1.427 1_556 S
N2666 C2663 1.384 . S
N2667 C2659 1.427 . S
N2667 C2665 1.384 . S
H2668 C2674 0.930 . S
H2669 C2678 0.930 . S
H2670 C2683 0.929 . S
H2671 C2681 0.929 . S
H2672 C2676 0.929 . S
H2673 C2682 0.929 . S
C2674 H2668 0.930 . S
C2674 C2675 1.367 . S
C2674 C2682 1.378 . S
C2675 C2674 1.367 . S
C2675 C2683 1.433 . S
C2676 H2672 0.929 . S
C2676 C2678 1.378 . S
C2676 C2680 1.350 . S
C2677 C2680 1.463 . S
C2677 C2682 1.350 . S
C2677 N2685 1.427 . S
C2678 H2669 0.930 . S
C2678 C2676 1.378 . S
C2678 C2679 1.367 . S
C2679 C2678 1.367 . S
C2679 C2681 1.433 . S
C2680 C2676 1.350 . S
C2680 C2677 1.463 . S
C2680 N2684 1.427 . S
C2681 H2671 0.929 . S
C2681 C2679 1.433 . S
C2681 N2684 1.384 . S
C2682 H2673 0.929 . S
C2682 C2674 1.378 . S
C2682 C2677 1.350 . S
C2683 H2670 0.929 . S
C2683 C2675 1.433 . S
C2683 N2685 1.384 . S
N2684 C2680 1.427 . S
N2684 C2681 1.384 . S
N2685 C2677 1.427 . S
N2685 C2683 1.384 . S
H2686 C2692 0.930 . S
H2687 C2696 0.930 . S
H2688 C2701 0.929 . S
H2689 C2699 0.929 . S
H2690 C2694 0.929 . S
H2691 C2700 0.929 . S
C2692 H2686 0.930 . S
C2692 C2693 1.367 . S
C2692 C2700 1.378 . S
C2693 C2692 1.367 . S
C2693 C2701 1.433 . S
C2694 H2690 0.929 . S
C2694 C2696 1.378 . S
C2694 C2698 1.350 . S
C2695 C2698 1.463 . S
C2695 C2700 1.350 . S
C2695 N2703 1.427 . S
C2696 H2687 0.930 . S
C2696 C2694 1.378 . S
C2696 C2697 1.367 . S
C2697 C2696 1.367 . S
C2697 C2699 1.433 . S
C2698 C2694 1.350 . S
C2698 C2695 1.463 . S
C2698 N2702 1.427 . S
C2699 H2689 0.929 . S
C2699 C2697 1.433 . S
C2699 N2702 1.384 . S
C2700 H2691 0.929 . S
C2700 C2692 1.378 . S
C2700 C2695 1.350 . S
C2701 H2688 0.929 . S
C2701 C2693 1.433 . S
C2701 N2703 1.384 . S
N2702 C2698 1.427 . S
N2702 C2699 1.384 . S
N2703 C2695 1.427 . S
N2703 C2701 1.384 . S
C983 C111 2.202 . S
C987 C349 2.158 . S
C1001 C64 2.042 . S
C1005 C400 2.102 . S
C1019 C77 1.520 . S
C1023 C429 1.514 . S
C1041 C473 1.268 . S
C1037 C95 1.308 . S
C1055 C25 1.195 . S
C1059 C513 1.167 . S
C1077 C549 1.603 . S
C1073 C36 1.546 . S
C1095 C599 1.880 . S
C1091 C50 1.815 . S
C1109 C11 2.236 . S
C1113 C629 2.216 . S
C1131 C359 1.860 . S
C1127 C237 1.836 . S
C1145 C245 0.555 . S
C1149 C402 0.592 . S
C1167 C439 1.124 . S
C1163 C279 1.077 . S
C1185 C469 1.332 . S
C1181 C175 1.342 . S
C1199 C231 1.351 . S
C1203 C509 1.342 . S
C1221 C559 0.793 . S
C1217 C251 0.758 . S
C1239 C593 0.848 . S
C1235 C273 0.854 . S
C1257 C639 1.862 . S
C1253 C181 1.837 . S
C1275 C353 1.055 . S
C1271 C165 1.122 1_554 S
C1289 C288 1.657 . S
C1293 C679 1.693 . S
C1311 C713 1.363 . S
C1307 C333 1.433 . S
C1329 C749 0.824 . S
C1325 C316 0.837 . S
C1343 C123 1.322 . S
C1347 C633 1.252 . S
C1361 C137 1.473 . S
C1365 C433 1.391 . S
C1379 C330 1.576 . S
C1383 C799 1.614 . S
C1401 C818 0.204 . S
C1397 C302 0.394 . S
C1419 C360 2.278 . S
C1415 C63 2.297 . S
C1437 C829 2.147 . S
C1433 C106 2.158 . S
C1451 C97 1.571 . S
C1455 C440 1.619 . S
C1469 C81 1.334 . S
C1473 C802 1.304 . S
C1491 C522 1.266 . S
C1487 C13 1.211 . S
C1505 C55 1.552 . S
C1509 C720 1.614 . S
C1527 C578 1.834 1_566 S
C1523 C35 1.807 . S
C1545 C880 2.403 . S
C1541 C21 2.426 . S
C1563 C338 1.977 . S
C1559 C147 2.018 . S
C1581 C833 0.533 . S
C1577 C321 0.593 . S
C1595 C119 1.188 . S
C1599 C418 1.176 . S
C1613 C293 1.389 . S
C1617 C800 1.468 . S
C1631 C153 1.447 . S
C1635 C520 1.517 . S
C1653 C698 0.853 . S
C1649 C315 0.845 . S
C1667 C125 0.773 1_545 S
C1671 C602 0.786 . S
C1685 C287 2.008 . S
C1689 C858 1.969 . S
C1703 C193 1.118 . S
C1707 C362 1.090 . S
C1721 C176 1.708 . S
C1725 C658 1.715 . S
C1739 C263 1.378 . S
C1743 C562 1.345 . S
C1757 C246 0.943 . S
C1761 C760 0.968 . S
C1779 C882 1.321 . S
C1775 C277 1.333 . S
C1793 C221 1.438 . S
C1797 C442 1.407 . S
C1815 C458 1.658 . S
C1811 C260 1.651 . S
C1833 C399 0.382 . S
C1829 C204 0.464 . S
C1847 C83 2.189 . S
C1851 C909 2.165 . S
C1869 C840 2.095 . S
C1865 C92 2.051 . S
C1883 C105 1.519 . S
C1887 C949 1.510 . S
C1901 C67 1.308 . S
C1905 C793 1.269 . S
C1919 C53 1.195 . S
C1923 C673 1.166 . S
C1941 C709 1.602 . S
C1937 C8 1.574 . S
C1959 C759 1.877 . S
C1955 C22 1.814 . S
C1977 C869 2.219 . S
C1973 C39 2.231 . S
C1995 C919 1.857 . S
C1991 C265 1.839 . S
C2009 C189 0.535 . S
C2013 C842 0.563 . S
C2031 C959 1.136 . S
C2027 C209 1.051 . S
C2049 C789 1.339 . S
C2045 C217 1.342 . S
C2067 C669 1.342 . S
C2063 C259 1.346 . S
C2081 C195 0.796 . S
C2085 C719 0.779 . S
C2103 C753 0.838 . S
C2099 C203 0.851 . S
C2117 C223 1.844 . S
C2121 C879 1.856 . S
C2139 C913 1.069 . S
C2135 C319 1.132 . S
C2153 C134 1.657 . S
C2157 C519 1.694 . S
C2175 C553 1.364 . S
C2171 C151 1.433 1_565 S
C2193 C589 0.822 . S
C2189 C162 0.822 . S
C2211 C873 1.253 . S
C2207 C305 1.324 . S
C2225 C291 1.476 . S
C2229 C953 1.406 . S
C2247 C479 1.615 . S
C2243 C148 1.575 . S
C2265 C378 0.232 . S
C2261 C120 0.402 . S
C2279 C91 2.299 . S
C2283 C920 2.286 . S
C2301 C389 2.151 . S
C2297 C78 2.157 . S
C2315 C69 1.558 . S
C2319 C960 1.615 . S
C2333 C109 1.336 . S
C2337 C482 1.309 . S
C2351 C41 1.187 . S
C2355 C682 1.252 . S
C2373 C560 1.614 . S
C2369 C27 1.552 . S
C2387 C7 1.803 . S
C2391 C738 1.835 . S
C2405 C49 2.426 . S
C2409 C640 2.403 . S
C2427 C898 1.982 . S
C2423 C329 2.019 . S
C2441 C167 0.568 . S
C2445 C393 0.519 . S
C2463 C938 1.176 1_655 S
C2459 C301 1.189 . S
C2477 C139 1.390 . S
C2481 C480 1.468 . S
C2495 C335 1.450 . S
C2499 C680 1.519 . S
C2517 C538 0.852 . S
C2513 C161 0.852 . S
C2531 C307 0.789 . S
C2535 C762 0.796 . S
C2553 C618 1.964 . S
C2549 C133 2.007 . S
C2571 C922 1.084 . S
C2567 C249 1.112 . S
C2589 C498 1.719 . S
C2585 C218 1.715 . S
C2603 C235 1.371 . S
C2607 C722 1.340 . S
C2625 C600 0.966 . S
C2621 C190 0.947 . S
C2639 C207 1.317 . S
C2643 C642 1.313 . S
C2657 C179 1.429 . S
C2661 C962 1.396 . S
C2679 C778 1.654 . S
C2675 C232 1.647 . S
C2697 C839 0.353 . S
C2693 C274 0.504 . S
