# Generated by pormake.
# Topology ocu, (6,8)-cn, num edge types: 1
# Building blocks:
#     Node 0, Type 0, BuildingBlock: KUMJIN_clean_sbu_1, # of connection points: 6
#     Node 1, Type 0, BuildingBlock: KUMJIN_clean_sbu_1, # of connection points: 6
#     Node 2, Type 0, BuildingBlock: KUMJIN_clean_sbu_1, # of connection points: 6
#     Node 3, Type 0, BuildingBlock: KUMJIN_clean_sbu_1, # of connection points: 6
#     Node 4, Type 0, BuildingBlock: KUMJIN_clean_sbu_1, # of connection points: 6
#     Node 5, Type 0, BuildingBlock: KUMJIN_clean_sbu_1, # of connection points: 6
#     Node 6, Type 0, BuildingBlock: KUMJIN_clean_sbu_1, # of connection points: 6
#     Node 7, Type 0, BuildingBlock: KUMJIN_clean_sbu_1, # of connection points: 6
#     Node 8, Type 1, BuildingBlock: TAGTUT_clean_sbu_1, # of connection points: 8
#     Node 9, Type 1, BuildingBlock: TAGTUT_clean_sbu_1, # of connection points: 8
#     Node 10, Type 1, BuildingBlock: TAGTUT_clean_sbu_1, # of connection points: 8
#     Node 11, Type 1, BuildingBlock: TAGTUT_clean_sbu_1, # of connection points: 8
#     Node 12, Type 1, BuildingBlock: TAGTUT_clean_sbu_1, # of connection points: 8
#     Node 13, Type 1, BuildingBlock: TAGTUT_clean_sbu_1, # of connection points: 8
#     Edge 14, Type (0, 1), BuildingBlock: KIFKEQ_clean_linker_1, # of connection points: 2
#     Edge 15, Type (0, 1), BuildingBlock: KIFKEQ_clean_linker_1, # of connection points: 2
#     Edge 16, Type (0, 1), BuildingBlock: KIFKEQ_clean_linker_1, # of connection points: 2
#     Edge 17, Type (0, 1), BuildingBlock: KIFKEQ_clean_linker_1, # of connection points: 2
#     Edge 18, Type (0, 1), BuildingBlock: KIFKEQ_clean_linker_1, # of connection points: 2
#     Edge 19, Type (0, 1), BuildingBlock: KIFKEQ_clean_linker_1, # of connection points: 2
#     Edge 20, Type (0, 1), BuildingBlock: KIFKEQ_clean_linker_1, # of connection points: 2
#     Edge 21, Type (0, 1), BuildingBlock: KIFKEQ_clean_linker_1, # of connection points: 2
#     Edge 22, Type (0, 1), BuildingBlock: KIFKEQ_clean_linker_1, # of connection points: 2
#     Edge 23, Type (0, 1), BuildingBlock: KIFKEQ_clean_linker_1, # of connection points: 2
#     Edge 24, Type (0, 1), BuildingBlock: KIFKEQ_clean_linker_1, # of connection points: 2
#     Edge 25, Type (0, 1), BuildingBlock: KIFKEQ_clean_linker_1, # of connection points: 2
#     Edge 26, Type (0, 1), BuildingBlock: KIFKEQ_clean_linker_1, # of connection points: 2
#     Edge 27, Type (0, 1), BuildingBlock: KIFKEQ_clean_linker_1, # of connection points: 2
#     Edge 28, Type (0, 1), BuildingBlock: KIFKEQ_clean_linker_1, # of connection points: 2
#     Edge 29, Type (0, 1), BuildingBlock: KIFKEQ_clean_linker_1, # of connection points: 2
#     Edge 30, Type (0, 1), BuildingBlock: KIFKEQ_clean_linker_1, # of connection points: 2
#     Edge 31, Type (0, 1), BuildingBlock: KIFKEQ_clean_linker_1, # of connection points: 2
#     Edge 32, Type (0, 1), BuildingBlock: KIFKEQ_clean_linker_1, # of connection points: 2
#     Edge 33, Type (0, 1), BuildingBlock: KIFKEQ_clean_linker_1, # of connection points: 2
#     Edge 34, Type (0, 1), BuildingBlock: KIFKEQ_clean_linker_1, # of connection points: 2
#     Edge 35, Type (0, 1), BuildingBlock: KIFKEQ_clean_linker_1, # of connection points: 2
#     Edge 36, Type (0, 1), BuildingBlock: KIFKEQ_clean_linker_1, # of connection points: 2
#     Edge 37, Type (0, 1), BuildingBlock: KIFKEQ_clean_linker_1, # of connection points: 2
#     Edge 38, Type (0, 1), BuildingBlock: KIFKEQ_clean_linker_1, # of connection points: 2
#     Edge 39, Type (0, 1), BuildingBlock: KIFKEQ_clean_linker_1, # of connection points: 2
#     Edge 40, Type (0, 1), BuildingBlock: KIFKEQ_clean_linker_1, # of connection points: 2
#     Edge 41, Type (0, 1), BuildingBlock: KIFKEQ_clean_linker_1, # of connection points: 2
#     Edge 42, Type (0, 1), BuildingBlock: KIFKEQ_clean_linker_1, # of connection points: 2
#     Edge 43, Type (0, 1), BuildingBlock: KIFKEQ_clean_linker_1, # of connection points: 2
#     Edge 44, Type (0, 1), BuildingBlock: KIFKEQ_clean_linker_1, # of connection points: 2
#     Edge 45, Type (0, 1), BuildingBlock: KIFKEQ_clean_linker_1, # of connection points: 2
#     Edge 46, Type (0, 1), BuildingBlock: KIFKEQ_clean_linker_1, # of connection points: 2
#     Edge 47, Type (0, 1), BuildingBlock: KIFKEQ_clean_linker_1, # of connection points: 2
#     Edge 48, Type (0, 1), BuildingBlock: KIFKEQ_clean_linker_1, # of connection points: 2
#     Edge 49, Type (0, 1), BuildingBlock: KIFKEQ_clean_linker_1, # of connection points: 2
#     Edge 50, Type (0, 1), BuildingBlock: KIFKEQ_clean_linker_1, # of connection points: 2
#     Edge 51, Type (0, 1), BuildingBlock: KIFKEQ_clean_linker_1, # of connection points: 2
#     Edge 52, Type (0, 1), BuildingBlock: KIFKEQ_clean_linker_1, # of connection points: 2
#     Edge 53, Type (0, 1), BuildingBlock: KIFKEQ_clean_linker_1, # of connection points: 2
#     Edge 54, Type (0, 1), BuildingBlock: KIFKEQ_clean_linker_1, # of connection points: 2
#     Edge 55, Type (0, 1), BuildingBlock: KIFKEQ_clean_linker_1, # of connection points: 2
#     Edge 56, Type (0, 1), BuildingBlock: KIFKEQ_clean_linker_1, # of connection points: 2
#     Edge 57, Type (0, 1), BuildingBlock: KIFKEQ_clean_linker_1, # of connection points: 2
#     Edge 58, Type (0, 1), BuildingBlock: KIFKEQ_clean_linker_1, # of connection points: 2
#     Edge 59, Type (0, 1), BuildingBlock: KIFKEQ_clean_linker_1, # of connection points: 2
#     Edge 60, Type (0, 1), BuildingBlock: KIFKEQ_clean_linker_1, # of connection points: 2
#     Edge 61, Type (0, 1), BuildingBlock: KIFKEQ_clean_linker_1, # of connection points: 2
# Relax obj value: 0.068
# Max RMSD: 0.173
# Mean RMSD: 0.095
data_MOF--net-ocu--node1-KUMJIN_clean_sbu_1--node2-TAGTUT_clean_sbu_1--edge1-KIFKEQ_clean_linker_1
_symmetry_space_group_name_H-M    P1
_symmetry_Int_Tables_number       1
_symmetry_cell_setting            triclinic
loop_
_symmetry_equiv_pos_as_xyz
'x, y, z'
_cell_length_a     40.903209
_cell_length_b     39.56528
_cell_length_c     43.333327
_cell_angle_alpha  100.3962
_cell_angle_beta   81.811537
_cell_angle_gamma 113.29701
loop_
_atom_site_label
_atom_site_type_symbol
_atom_site_fract_x
_atom_site_fract_y
_atom_site_fract_z
_atom_type_partial_charge
Eu0 Eu 0.23336 0.24105 0.2235 0.0
C1 C 0.3285 0.3463 0.32538 0.0
N2 N 0.33908 0.32876 0.29824 0.0
C3 C 0.38639 0.38624 0.28769 0.0
C4 C 0.3455 0.38499 0.33392 0.0
C5 C 0.3691 0.34776 0.28054 0.0
C6 C 0.37407 0.40508 0.31414 0.0
C7 C 0.29307 0.34181 0.37557 0.0
C8 C 0.30263 0.32509 0.34604 0.0
C9 C 0.30844 0.38057 0.38333 0.0
C10 C 0.33456 0.40212 0.36253 0.0
Eu11 Eu 0.30545 0.26393 0.28713 0.0
N12 N 0.28806 0.28771 0.33785 0.0
C13 C 0.26928 0.31892 0.39683 0.0
C14 C 0.26705 0.26506 0.35924 0.0
C15 C 0.25678 0.28032 0.38885 0.0
H16 H 0.38014 0.3334 0.26097 0.0
H17 H 0.23925 0.26236 0.40545 0.0
H18 H 0.1769 0.15707 0.24152 0.0
H19 H 0.30981 0.2807 0.11254 0.0
H20 H 0.25759 0.23529 0.35295 0.0
H21 H 0.26132 0.3307 0.41979 0.0
H22 H 0.28428 0.29145 0.16664 0.0
H23 H 0.40955 0.40124 0.27307 0.0
H24 H 0.30113 0.39401 0.40577 0.0
H25 H 0.34705 0.43186 0.36929 0.0
H26 H 0.15508 0.09208 0.21617 0.0
H27 H 0.38783 0.43483 0.31986 0.0
H28 H 0.29377 0.21656 0.08481 0.0
N29 N 0.21183 0.17781 0.202 0.0
C30 C 0.2229 0.17002 0.17139 0.0
C31 C 0.17441 0.11368 0.20343 0.0
C32 C 0.21086 0.13319 0.15592 0.0
C33 C 0.18721 0.15054 0.21787 0.0
C34 C 0.18644 0.1049 0.17239 0.0
N35 N 0.25806 0.23427 0.17116 0.0
C36 C 0.27908 0.26346 0.15563 0.0
C37 C 0.25984 0.19142 0.1243 0.0
C38 C 0.24717 0.19891 0.15577 0.0
C39 C 0.28341 0.22117 0.10896 0.0
C40 C 0.29271 0.25739 0.12459 0.0
H41 H 0.17653 0.07627 0.16131 0.0
H42 H 0.21497 0.09754 0.11253 0.0
H43 H 0.25783 0.14845 0.08488 0.0
O44 O 0.20869 0.26006 0.19198 0.0
O45 O 0.26658 0.20454 0.21975 0.0
O46 O 0.32109 0.24416 0.23699 0.0
O47 O 0.17595 0.22732 0.22786 0.0
O48 O 0.27911 0.29767 0.22512 0.0
O49 O 0.32633 0.28855 0.24096 0.0
O50 O 0.31302 0.21848 0.30342 0.0
O51 O 0.25556 0.27656 0.30268 0.0
O52 O 0.24493 0.29409 0.25892 0.0
O53 O 0.35375 0.27345 0.30906 0.0
O54 O 0.25797 0.20833 0.28268 0.0
O55 O 0.21036 0.21852 0.26973 0.0
C56 C 0.30167 0.21526 0.2182 0.0
C57 C 0.15935 0.27434 0.21635 0.0
C58 C 0.13212 0.31428 0.20261 0.0
C59 C 0.12597 0.32538 0.23495 0.0
C60 C 0.15332 0.28646 0.24839 0.0
C61 C 0.13663 0.31167 0.25754 0.0
C62 C 0.14873 0.28837 0.19349 0.0
C63 C 0.31358 0.30582 0.22538 0.0
C64 C 0.17718 0.24764 0.20682 0.0
C65 C 0.22377 0.12569 0.12472 0.0
C66 C 0.24825 0.15469 0.109 0.0
C67 C 0.24227 0.29521 0.28963 0.0
C68 C 0.37245 0.2234 0.30167 0.0
C69 C 0.4108 0.19374 0.313 0.0
C70 C 0.42509 0.19394 0.28146 0.0
C71 C 0.38718 0.22352 0.27045 0.0
C72 C 0.38431 0.20863 0.32293 0.0
C73 C 0.41331 0.20875 0.26039 0.0
C74 C 0.22385 0.20316 0.28641 0.0
C75 C 0.34486 0.23882 0.31221 0.0
H76 H 0.1126 0.34454 0.2429 0.0
H77 H 0.16143 0.27639 0.26646 0.0
H78 H 0.13187 0.32061 0.2823 0.0
H79 H 0.154 0.27961 0.16875 0.0
H80 H 0.44577 0.18312 0.27315 0.0
H81 H 0.37857 0.23527 0.25403 0.0
H82 H 0.37263 0.20836 0.34701 0.0
H83 H 0.4246 0.20894 0.23623 0.0
Eu84 Eu 0.73729 0.2739 0.26031 0.0
C85 C 0.8768 0.25717 0.2038 0.0
N86 N 0.8437 0.22992 0.20282 0.0
C87 C 0.85465 0.21269 0.14764 0.0
C88 C 0.89971 0.26435 0.17617 0.0
C89 C 0.83274 0.20687 0.17564 0.0
C90 C 0.88811 0.24186 0.14782 0.0
C91 C 0.92212 0.30584 0.23449 0.0
C92 C 0.88771 0.27766 0.23262 0.0
C93 C 0.9445 0.31426 0.20684 0.0
C94 C 0.93335 0.29352 0.17775 0.0
Eu95 Eu 0.80764 0.22277 0.25049 0.0
N96 N 0.8655 0.26867 0.25897 0.0
C97 C 0.93346 0.32385 0.2642 0.0
C98 C 0.87781 0.28367 0.28801 0.0
C99 C 0.91148 0.31214 0.2911 0.0
H100 H 0.80686 0.18442 0.17558 0.0
H101 H 0.92067 0.3246 0.31424 0.0
H102 H 0.76061 0.3434 0.32072 0.0
H103 H 0.60602 0.1637 0.2455 0.0
H104 H 0.86212 0.2733 0.30889 0.0
H105 H 0.95969 0.34567 0.26666 0.0
H106 H 0.66651 0.20652 0.22834 0.0
H107 H 0.84565 0.19485 0.12595 0.0
H108 H 0.97085 0.33612 0.20779 0.0
H109 H 0.95115 0.29986 0.1567 0.0
H110 H 0.74375 0.35426 0.37762 0.0
H111 H 0.90492 0.24651 0.12605 0.0
H112 H 0.58492 0.16709 0.30204 0.0
N113 N 0.72018 0.28948 0.31382 0.0
C114 C 0.68887 0.26544 0.32584 0.0
C115 C 0.72841 0.32876 0.36349 0.0
C116 C 0.67707 0.27107 0.35784 0.0
C117 C 0.73849 0.32217 0.33147 0.0
C118 C 0.69799 0.30263 0.37694 0.0
N119 N 0.67908 0.23293 0.27473 0.0
C120 C 0.65715 0.20814 0.25298 0.0
C121 C 0.63325 0.2129 0.31646 0.0
C122 C 0.66724 0.23677 0.30552 0.0
C123 C 0.61124 0.18598 0.29459 0.0
C124 C 0.62306 0.18396 0.26264 0.0
H125 H 0.68993 0.30798 0.40167 0.0
H126 H 0.63488 0.24955 0.39395 0.0
H127 H 0.59646 0.19854 0.35766 0.0
O128 O 0.71624 0.28372 0.22087 0.0
O129 O 0.72114 0.21438 0.27 0.0
O130 O 0.76795 0.21536 0.29335 0.0
O131 O 0.71907 0.31983 0.26487 0.0
O132 O 0.74112 0.23906 0.21368 0.0
O133 O 0.75926 0.19258 0.22158 0.0
O134 O 0.84277 0.19807 0.26208 0.0
O135 O 0.80885 0.25908 0.21497 0.0
O136 O 0.79528 0.30645 0.24461 0.0
O137 O 0.79211 0.16255 0.24383 0.0
O138 O 0.80139 0.25704 0.29736 0.0
O139 O 0.78856 0.30459 0.28499 0.0
C140 C 0.73352 0.20527 0.29214 0.0
C141 C 0.72435 0.34506 0.21819 0.0
C142 C 0.71045 0.38366 0.18856 0.0
C143 C 0.74696 0.40107 0.17956 0.0
C144 C 0.7608 0.36289 0.20943 0.0
C145 C 0.77203 0.39092 0.19025 0.0
C146 C 0.69934 0.35583 0.20808 0.0
C147 C 0.74258 0.20587 0.20587 0.0
C148 C 0.71157 0.31327 0.23569 0.0
C149 C 0.64416 0.24601 0.36934 0.0
C150 C 0.62222 0.21704 0.34865 0.0
C151 C 0.81378 0.29433 0.22115 0.0
C152 C 0.81183 0.14255 0.28356 0.0
C153 C 0.83424 0.12029 0.32176 0.0
C154 C 0.7999 0.10777 0.33738 0.0
C155 C 0.77766 0.12985 0.29952 0.0
C156 C 0.83992 0.13724 0.29458 0.0
C157 C 0.77177 0.11233 0.32615 0.0
C158 C 0.80136 0.29087 0.30369 0.0
C159 C 0.81939 0.16428 0.25728 0.0
H160 H 0.75599 0.42246 0.16433 0.0
H161 H 0.78038 0.35472 0.21698 0.0
H162 H 0.80015 0.40442 0.1833 0.0
H163 H 0.67111 0.34162 0.21444 0.0
H164 H 0.79487 0.09447 0.35829 0.0
H165 H 0.75562 0.13399 0.29182 0.0
H166 H 0.86649 0.14765 0.28277 0.0
H167 H 0.74544 0.10277 0.3384 0.0
Eu168 Eu 0.76038 0.71708 0.28863 0.0
C169 C 0.85743 0.82668 0.18908 0.0
N170 N 0.84113 0.83554 0.21722 0.0
C171 C 0.89351 0.89002 0.2288 0.0
C172 C 0.89302 0.84884 0.18018 0.0
C173 C 0.85806 0.86752 0.23646 0.0
C174 C 0.91123 0.88039 0.20075 0.0
C175 C 0.85342 0.78784 0.13829 0.0
C176 C 0.83795 0.79641 0.16834 0.0
C177 C 0.88923 0.8091 0.12984 0.0
C178 C 0.909 0.83944 0.15076 0.0
Eu179 Eu 0.78185 0.79427 0.22802 0.0
N180 N 0.80354 0.77574 0.1773 0.0
C181 C 0.83212 0.75871 0.11735 0.0
C182 C 0.78201 0.74898 0.1564 0.0
C183 C 0.79609 0.73968 0.12625 0.0
H184 H 0.84426 0.8761 0.25764 0.0
H185 H 0.77917 0.71783 0.10993 0.0
H186 H 0.69956 0.63355 0.26043 0.0
H187 H 0.7601 0.80143 0.40287 0.0
H188 H 0.75417 0.73462 0.16323 0.0
H189 H 0.84299 0.75136 0.094 0.0
H190 H 0.78585 0.78297 0.3505 0.0
H191 H 0.90701 0.91502 0.24437 0.0
H192 H 0.90169 0.80275 0.10696 0.0
H193 H 0.9364 0.856 0.14364 0.0
H194 H 0.63787 0.59272 0.27513 0.0
H195 H 0.93861 0.89808 0.19476 0.0
H196 H 0.69771 0.76452 0.42046 0.0
N197 N 0.70206 0.67463 0.3003 0.0
C198 C 0.6858 0.6837 0.32839 0.0
C199 C 0.65092 0.6184 0.29014 0.0
C200 C 0.65083 0.66061 0.33803 0.0
C201 C 0.68571 0.64192 0.28167 0.0
C202 C 0.63325 0.62796 0.31827 0.0
N203 N 0.73815 0.73762 0.33834 0.0
C204 C 0.75857 0.76721 0.35794 0.0
C205 C 0.68876 0.72489 0.37786 0.0
C206 C 0.70452 0.7156 0.34816 0.0
C207 C 0.70889 0.75647 0.39748 0.0
C208 C 0.74409 0.77746 0.38761 0.0
H209 H 0.60636 0.60952 0.32485 0.0
H210 H 0.60781 0.65305 0.37493 0.0
H211 H 0.641 0.70922 0.40976 0.0
O212 O 0.80216 0.72016 0.31658 0.0
O213 O 0.73129 0.75814 0.29954 0.0
O214 O 0.76335 0.81285 0.27763 0.0
O215 O 0.76016 0.66713 0.30349 0.0
O216 O 0.81331 0.76329 0.27824 0.0
O217 O 0.80802 0.81691 0.27407 0.0
O218 O 0.73701 0.79353 0.20547 0.0
O219 O 0.80707 0.75044 0.21322 0.0
O220 O 0.78288 0.69888 0.24063 0.0
O221 O 0.78377 0.84404 0.21163 0.0
O222 O 0.72973 0.74619 0.2369 0.0
O223 O 0.73457 0.69274 0.2426 0.0
C224 C 0.7384 0.79348 0.29756 0.0
C225 C 0.8174 0.6676 0.30664 0.0
C226 C 0.86265 0.64832 0.32038 0.0
C227 C 0.87014 0.63783 0.28823 0.0
C228 C 0.82488 0.65632 0.27474 0.0
C229 C 0.85127 0.64174 0.26562 0.0
C230 C 0.83622 0.66342 0.32944 0.0
C231 C 0.82025 0.79833 0.28838 0.0
C232 C 0.79053 0.6843 0.31617 0.0
C233 C 0.63473 0.67038 0.36726 0.0
C234 C 0.65365 0.70236 0.38712 0.0
C235 C 0.80372 0.7171 0.21798 0.0
C236 C 0.72836 0.85001 0.21348 0.0
C237 C 0.68365 0.87196 0.20224 0.0
C238 C 0.68661 0.89279 0.23251 0.0
C239 C 0.73032 0.87051 0.24359 0.0
C240 C 0.70468 0.8503 0.19309 0.0
C241 C 0.70945 0.89167 0.25304 0.0
C242 C 0.72377 0.71122 0.22683 0.0
C243 C 0.75133 0.82878 0.20289 0.0
H244 H 0.88996 0.62566 0.2806 0.0
H245 H 0.81025 0.65859 0.25688 0.0
H246 H 0.85687 0.6331 0.24096 0.0
H247 H 0.83039 0.67201 0.35411 0.0
H248 H 0.67188 0.91066 0.2403 0.0
H249 H 0.74837 0.87054 0.25958 0.0
H250 H 0.70281 0.8336 0.17017 0.0
H251 H 0.7114 0.90777 0.27621 0.0
Eu252 Eu 0.23328 0.76402 0.25498 0.0
C253 C 0.29838 0.67899 0.31424 0.0
N254 N 0.3121 0.71578 0.31117 0.0
C255 C 0.32845 0.73194 0.36434 0.0
C256 C 0.29892 0.66741 0.34304 0.0
C257 C 0.32737 0.74221 0.33543 0.0
C258 C 0.31412 0.69441 0.3682 0.0
C259 C 0.26866 0.61465 0.29172 0.0
C260 C 0.28289 0.65289 0.28875 0.0
C261 C 0.26912 0.60319 0.32043 0.0
C262 C 0.28413 0.62945 0.346 0.0
Eu263 Eu 0.31004 0.73006 0.26133 0.0
N264 N 0.28241 0.66462 0.26107 0.0
C265 C 0.25504 0.58884 0.26552 0.0
C266 C 0.27151 0.6392 0.23494 0.0
C267 C 0.257 0.60117 0.23693 0.0
H268 H 0.33936 0.77114 0.33223 0.0
H269 H 0.24814 0.58133 0.21614 0.0
H270 H 0.21053 0.73008 0.18127 0.0
H271 H 0.27589 0.90792 0.31429 0.0
H272 H 0.27539 0.64746 0.21199 0.0
H273 H 0.24407 0.55928 0.26685 0.0
H274 H 0.25379 0.84047 0.31165 0.0
H275 H 0.34053 0.75296 0.38356 0.0
H276 H 0.25819 0.57395 0.32304 0.0
H277 H 0.28429 0.62007 0.36795 0.0
H278 H 0.21105 0.75375 0.13207 0.0
H279 H 0.31501 0.68655 0.39067 0.0
H280 H 0.2843 0.93629 0.26601 0.0
N281 N 0.23399 0.78381 0.20683 0.0
C282 C 0.24554 0.82116 0.20708 0.0
C283 C 0.22105 0.77297 0.1529 0.0
C284 C 0.24578 0.83584 0.17966 0.0
C285 C 0.22117 0.75963 0.18059 0.0
C286 C 0.23355 0.81124 0.15237 0.0
N287 N 0.25536 0.82992 0.26141 0.0
C288 C 0.26013 0.85208 0.28989 0.0
C289 C 0.26779 0.88352 0.23571 0.0
C290 C 0.2569 0.84476 0.23488 0.0
C291 C 0.27603 0.90646 0.26442 0.0
C292 C 0.27156 0.89059 0.29169 0.0
H293 H 0.23331 0.82149 0.13088 0.0
H294 H 0.25837 0.88618 0.15943 0.0
H295 H 0.27727 0.92786 0.20849 0.0
O296 O 0.19052 0.76741 0.28978 0.0
O297 O 0.28038 0.77746 0.21777 0.0
O298 O 0.32723 0.78632 0.24551 0.0
O299 O 0.18068 0.75425 0.24072 0.0
O300 O 0.262 0.7842 0.30075 0.0
O301 O 0.31959 0.78853 0.2847 0.0
O302 O 0.35116 0.72529 0.22521 0.0
O303 O 0.26312 0.71835 0.29876 0.0
O304 O 0.21761 0.70743 0.26924 0.0
O305 O 0.36139 0.73301 0.27381 0.0
O306 O 0.28273 0.70995 0.21488 0.0
O307 O 0.22534 0.70653 0.23026 0.0
C308 C 0.31472 0.79199 0.22158 0.0
C309 C 0.16123 0.79935 0.27105 0.0
C310 C 0.16805 0.86048 0.29924 0.0
C311 C 0.15812 0.86944 0.27308 0.0
C312 C 0.15057 0.80817 0.2451 0.0
C313 C 0.14892 0.84306 0.24625 0.0
C314 C 0.16901 0.82541 0.29811 0.0
C315 C 0.2966 0.79888 0.3043 0.0
C316 C 0.17023 0.76636 0.26867 0.0
C317 C 0.25787 0.87442 0.1803 0.0
C318 C 0.26879 0.89817 0.20823 0.0
C319 C 0.22916 0.70254 0.29395 0.0
C320 C 0.37625 0.68692 0.23977 0.0
C321 C 0.36284 0.62493 0.21033 0.0
C322 C 0.38367 0.61812 0.22978 0.0
C323 C 0.39711 0.67998 0.25896 0.0
C324 C 0.35846 0.65883 0.21636 0.0
C325 C 0.40043 0.64549 0.25415 0.0
C326 C 0.2486 0.69765 0.20996 0.0
C327 C 0.37048 0.72202 0.24506 0.0
H328 H 0.15701 0.89643 0.27358 0.0
H329 H 0.14476 0.7887 0.22366 0.0
H330 H 0.14112 0.84989 0.22608 0.0
H331 H 0.17777 0.8192 0.31813 0.0
H332 H 0.38807 0.59238 0.22552 0.0
H333 H 0.41048 0.70099 0.27771 0.0
H334 H 0.34129 0.66346 0.20217 0.0
H335 H 0.41661 0.64021 0.26894 0.0
Eu336 Eu 0.23523 0.77604 0.75953 0.0
C337 C 0.37246 0.75837 0.70198 0.0
N338 N 0.33949 0.73088 0.7019 0.0
C339 C 0.34874 0.71297 0.64658 0.0
C340 C 0.39442 0.76532 0.67381 0.0
C341 C 0.32782 0.70736 0.67509 0.0
C342 C 0.38201 0.74237 0.64586 0.0
C343 C 0.4185 0.80785 0.73137 0.0
C344 C 0.38417 0.77942 0.7304 0.0
C345 C 0.43996 0.81593 0.70321 0.0
C346 C 0.42797 0.79468 0.6745 0.0
Eu347 Eu 0.30482 0.72449 0.75034 0.0
N348 N 0.36278 0.77084 0.75723 0.0
C349 C 0.43065 0.82653 0.76069 0.0
C350 C 0.37587 0.78658 0.78589 0.0
C351 C 0.40952 0.81529 0.7881 0.0
H352 H 0.30214 0.68468 0.67572 0.0
H353 H 0.41934 0.82832 0.81093 0.0
H354 H 0.25964 0.84635 0.81953 0.0
H355 H 0.10262 0.66876 0.74449 0.0
H356 H 0.3608 0.77664 0.80714 0.0
H357 H 0.45685 0.84855 0.76246 0.0
H358 H 0.16394 0.70975 0.72745 0.0
H359 H 0.33915 0.69474 0.6252 0.0
H360 H 0.46624 0.83797 0.70346 0.0
H361 H 0.44506 0.8008 0.65305 0.0
H362 H 0.24234 0.85829 0.87615 0.0
H363 H 0.39807 0.74682 0.62371 0.0
H364 H 0.0811 0.67342 0.8009 0.0
N365 N 0.21845 0.79282 0.81284 0.0
C366 C 0.18662 0.76947 0.82479 0.0
C367 C 0.22677 0.83279 0.86216 0.0
C368 C 0.17455 0.7759 0.85661 0.0
C369 C 0.2371 0.82553 0.83029 0.0
C370 C 0.19576 0.8074 0.87559 0.0
N371 N 0.17664 0.73623 0.7738 0.0
C372 C 0.1545 0.71181 0.75205 0.0
C373 C 0.13016 0.71806 0.81536 0.0
C374 C 0.16469 0.74086 0.80451 0.0
C375 C 0.10785 0.69145 0.79351 0.0
C376 C 0.1199 0.68872 0.76163 0.0
H377 H 0.18749 0.81332 0.90017 0.0
H378 H 0.13156 0.756 0.8925 0.0
H379 H 0.09265 0.70534 0.85634 0.0
O380 O 0.2211 0.7904 0.71822 0.0
O381 O 0.21797 0.71672 0.77045 0.0
O382 O 0.26533 0.71803 0.79323 0.0
O383 O 0.21131 0.81734 0.76441 0.0
O384 O 0.23583 0.73791 0.7141 0.0
O385 O 0.25594 0.69291 0.7223 0.0
O386 O 0.34041 0.70069 0.76262 0.0
O387 O 0.30415 0.75966 0.71467 0.0
O388 O 0.29317 0.80859 0.74377 0.0
O389 O 0.29004 0.6644 0.7443 0.0
O390 O 0.29915 0.75938 0.79704 0.0
O391 O 0.28644 0.8069 0.7844 0.0
C392 C 0.23081 0.70743 0.7922 0.0
C393 C 0.22225 0.851 0.72211 0.0
C394 C 0.20834 0.8936 0.69682 0.0
C395 C 0.24311 0.92014 0.70154 0.0
C396 C 0.25684 0.87749 0.72613 0.0
C397 C 0.26717 0.91192 0.7158 0.0
C398 C 0.19836 0.85884 0.70714 0.0
C399 C 0.2385 0.70521 0.70649 0.0
C400 C 0.21008 0.81548 0.73434 0.0
C401 C 0.14107 0.75178 0.86803 0.0
C402 C 0.11886 0.723 0.84741 0.0
C403 C 0.31089 0.79532 0.72044 0.0
C404 C 0.30978 0.64546 0.78459 0.0
C405 C 0.33151 0.62114 0.82172 0.0
C406 C 0.29809 0.61178 0.83901 0.0
C407 C 0.27645 0.63571 0.80212 0.0
C408 C 0.3371 0.63765 0.79431 0.0
C409 C 0.27067 0.61879 0.82907 0.0
C410 C 0.2995 0.79338 0.80307 0.0
C411 C 0.31737 0.66671 0.758 0.0
H412 H 0.25172 0.94753 0.69469 0.0
H413 H 0.27558 0.87169 0.73756 0.0
H414 H 0.29379 0.93253 0.7192 0.0
H415 H 0.17202 0.83764 0.70354 0.0
H416 H 0.29325 0.599 0.86019 0.0
H417 H 0.25503 0.64167 0.79532 0.0
H418 H 0.36308 0.64569 0.78125 0.0
H419 H 0.24502 0.61158 0.84255 0.0
Eu420 Eu 0.26265 0.2203 0.78923 0.0
C421 C 0.34878 0.30969 0.67741 0.0
N422 N 0.34171 0.32028 0.70862 0.0
C423 C 0.40359 0.35937 0.71292 0.0
C424 C 0.38404 0.32252 0.66329 0.0
C425 C 0.36833 0.3461 0.72597 0.0
C426 C 0.41156 0.34721 0.6816 0.0
C427 C 0.3275 0.27424 0.62713 0.0
C428 C 0.3207 0.28598 0.65925 0.0
C429 C 0.36265 0.28666 0.61334 0.0
C430 C 0.39079 0.31073 0.63133 0.0
Eu431 Eu 0.28041 0.2964 0.72677 0.0
N432 N 0.28689 0.27321 0.67332 0.0
C433 C 0.29873 0.25009 0.60983 0.0
C434 C 0.2587 0.25047 0.65647 0.0
C435 C 0.26416 0.23834 0.62453 0.0
H436 H 0.36288 0.35764 0.74966 0.0
H437 H 0.24172 0.22008 0.61126 0.0
H438 H 0.1971 0.13977 0.7596 0.0
H439 H 0.26445 0.28877 0.91056 0.0
H440 H 0.232 0.24234 0.66756 0.0
H441 H 0.30291 0.24048 0.5851 0.0
H442 H 0.29073 0.2706 0.85831 0.0
H443 H 0.42456 0.37946 0.72694 0.0
H444 H 0.36838 0.27785 0.58871 0.0
H445 H 0.41774 0.32024 0.62023 0.0
H446 H 0.13212 0.10777 0.76909 0.0
H447 H 0.43894 0.35773 0.67157 0.0
H448 H 0.19878 0.26538 0.92153 0.0
N449 N 0.20089 0.18379 0.79732 0.0
C450 C 0.1841 0.19511 0.82417 0.0
C451 C 0.14627 0.13269 0.78444 0.0
C452 C 0.14707 0.17669 0.83114 0.0
C453 C 0.18307 0.15138 0.77884 0.0
C454 C 0.12801 0.14593 0.81029 0.0
N455 N 0.24038 0.23846 0.83998 0.0
C456 C 0.26208 0.2602 0.86312 0.0
C457 C 0.18831 0.2325 0.87567 0.0
C458 C 0.20445 0.22278 0.8463 0.0
C459 C 0.21019 0.25731 0.89867 0.0
C460 C 0.24728 0.27051 0.89261 0.0
H461 H 0.09956 0.13107 0.81482 0.0
H462 H 0.10207 0.17472 0.86493 0.0
H463 H 0.13819 0.22355 0.9039 0.0
O464 O 0.304 0.21905 0.81535 0.0
O465 O 0.2529 0.27403 0.80765 0.0
O466 O 0.23402 0.2861 0.76488 0.0
O467 O 0.25923 0.16848 0.80302 0.0
O468 O 0.31342 0.26585 0.77368 0.0
O469 O 0.3081 0.31973 0.77173 0.0
O470 O 0.25152 0.31477 0.69877 0.0
O471 O 0.3007 0.24914 0.70882 0.0
O472 O 0.28977 0.20511 0.74268 0.0
O473 O 0.29154 0.35562 0.72948 0.0
O474 O 0.22711 0.25076 0.73627 0.0
O475 O 0.23439 0.1984 0.74364 0.0
C476 C 0.23602 0.29012 0.79547 0.0
C477 C 0.31491 0.16404 0.8043 0.0
C478 C 0.36152 0.1454 0.81589 0.0
C479 C 0.36478 0.13078 0.78406 0.0
C480 C 0.31792 0.14844 0.77279 0.0
C481 C 0.34295 0.13217 0.76272 0.0
C482 C 0.33657 0.16226 0.82583 0.0
C483 C 0.32096 0.30077 0.78477 0.0
C484 C 0.29016 0.18322 0.81479 0.0
C485 C 0.13055 0.18823 0.85943 0.0
C486 C 0.15113 0.21602 0.88165 0.0
C487 C 0.30297 0.2191 0.71608 0.0
C488 C 0.26159 0.37978 0.69943 0.0
C489 C 0.22316 0.40169 0.6773 0.0
C490 C 0.24787 0.43833 0.68369 0.0
C491 C 0.28598 0.41657 0.70549 0.0
C492 C 0.23038 0.37235 0.68478 0.0
C493 C 0.27918 0.44562 0.69747 0.0
C494 C 0.22008 0.21514 0.72919 0.0
C495 C 0.26835 0.34958 0.70931 0.0
H496 H 0.38348 0.11728 0.77586 0.0
H497 H 0.30108 0.14897 0.75591 0.0
H498 H 0.34527 0.12036 0.73834 0.0
H499 H 0.33411 0.17408 0.85024 0.0
H500 H 0.24301 0.46133 0.67781 0.0
H501 H 0.31028 0.42292 0.7165 0.0
H502 H 0.21125 0.34407 0.68013 0.0
H503 H 0.29812 0.47391 0.70218 0.0
Eu504 Eu 0.73649 0.27406 0.74897 0.0
C505 C 0.80043 0.2082 0.83697 0.0
N506 N 0.81787 0.23843 0.8218 0.0
C507 C 0.85081 0.27143 0.86661 0.0
C508 C 0.80719 0.2088 0.86812 0.0
C509 C 0.84317 0.26957 0.83578 0.0
C510 C 0.83266 0.24097 0.88291 0.0
C511 C 0.75571 0.14557 0.83721 0.0
C512 C 0.77495 0.17688 0.82161 0.0
C513 C 0.76252 0.14607 0.86819 0.0
C514 C 0.78817 0.17756 0.88358 0.0
Eu515 Eu 0.8034 0.2326 0.77006 0.0
N516 N 0.76809 0.17756 0.79192 0.0
C517 C 0.72985 0.11484 0.82135 0.0
C518 C 0.7438 0.14718 0.77598 0.0
C519 C 0.72404 0.11559 0.79055 0.0
H520 H 0.85779 0.29283 0.823 0.0
H521 H 0.7045 0.09172 0.77793 0.0
H522 H 0.67981 0.21357 0.6978 0.0
H523 H 0.83841 0.41251 0.73729 0.0
H524 H 0.73972 0.1468 0.75197 0.0
H525 H 0.7144 0.09034 0.83258 0.0
H526 H 0.80236 0.35874 0.76476 0.0
H527 H 0.8708 0.29627 0.87771 0.0
H528 H 0.74792 0.12229 0.88053 0.0
H529 H 0.79297 0.17754 0.90753 0.0
H530 H 0.66592 0.20891 0.64312 0.0
H531 H 0.83859 0.24253 0.90683 0.0
H532 H 0.82774 0.41263 0.68257 0.0
N533 N 0.721 0.26709 0.69743 0.0
C534 C 0.73895 0.29654 0.68141 0.0
C535 C 0.68664 0.2336 0.65353 0.0
C536 C 0.73176 0.29521 0.65025 0.0
C537 C 0.69475 0.23615 0.68433 0.0
C538 C 0.70531 0.26319 0.63635 0.0
N539 N 0.7726 0.32776 0.72566 0.0
C540 C 0.79783 0.35799 0.74079 0.0
C541 C 0.7851 0.3582 0.67945 0.0
C542 C 0.76534 0.32777 0.69592 0.0
C543 C 0.81187 0.3888 0.69449 0.0
C544 C 0.81809 0.38876 0.72534 0.0
H545 H 0.69902 0.26109 0.61245 0.0
H546 H 0.74616 0.32507 0.60994 0.0
H547 H 0.79285 0.38007 0.63542 0.0
O548 O 0.71644 0.31681 0.77006 0.0
O549 O 0.78049 0.27055 0.71117 0.0
O550 O 0.82514 0.28067 0.74184 0.0
O551 O 0.67942 0.26313 0.75092 0.0
O552 O 0.76544 0.3017 0.79397 0.0
O553 O 0.81901 0.29468 0.78126 0.0
O554 O 0.826 0.19215 0.74768 0.0
O555 O 0.75912 0.23539 0.80768 0.0
O556 O 0.71352 0.2266 0.77818 0.0
O557 O 0.86083 0.24578 0.76911 0.0
O558 O 0.77385 0.2047 0.72534 0.0
O559 O 0.72035 0.21193 0.73824 0.0
C560 C 0.81455 0.28124 0.71492 0.0
C561 C 0.66251 0.29047 0.80019 0.0
C562 C 0.6606 0.30658 0.85736 0.0
C563 C 0.62371 0.28465 0.859 0.0
C564 C 0.62588 0.26882 0.80227 0.0
C565 C 0.60671 0.26551 0.83166 0.0
C566 C 0.67984 0.3079 0.82788 0.0
C567 C 0.79886 0.31026 0.79934 0.0
C568 C 0.68317 0.294 0.76943 0.0
C569 C 0.75129 0.32561 0.63391 0.0
C570 C 0.77788 0.35697 0.64844 0.0
C571 C 0.72489 0.22449 0.8043 0.0
C572 C 0.87999 0.22226 0.7193 0.0
C573 C 0.88142 0.21312 0.66198 0.0
C574 C 0.91909 0.22809 0.66072 0.0
C575 C 0.91731 0.23701 0.71769 0.0
C576 C 0.86249 0.21298 0.69156 0.0
C577 C 0.93677 0.24073 0.68843 0.0
C578 C 0.74035 0.19618 0.72015 0.0
C579 C 0.85877 0.21609 0.74955 0.0
H580 H 0.60754 0.28329 0.88114 0.0
H581 H 0.61218 0.2545 0.78124 0.0
H582 H 0.57837 0.24889 0.8332 0.0
H583 H 0.70842 0.32325 0.82651 0.0
H584 H 0.93513 0.2285 0.63858 0.0
H585 H 0.93127 0.24528 0.73893 0.0
H586 H 0.83373 0.20379 0.69305 0.0
H587 H 0.96566 0.25189 0.68715 0.0
Eu588 Eu 0.73476 0.73874 0.72522 0.0
C589 C 0.83368 0.84815 0.83036 0.0
N590 N 0.84333 0.83271 0.80164 0.0
C591 C 0.89182 0.89032 0.79397 0.0
C592 C 0.85262 0.88577 0.84171 0.0
C593 C 0.87244 0.85288 0.78374 0.0
C594 C 0.88175 0.90691 0.82298 0.0
C595 C 0.79458 0.84144 0.87865 0.0
C596 C 0.80487 0.82623 0.84868 0.0
C597 C 0.81325 0.87897 0.88983 0.0
C598 C 0.84212 0.90106 0.87141 0.0
Eu599 Eu 0.80865 0.76927 0.78727 0.0
N600 N 0.78643 0.79025 0.83691 0.0
C601 C 0.7657 0.81847 0.89646 0.0
C602 C 0.7594 0.76734 0.85469 0.0
C603 C 0.74825 0.78118 0.88453 0.0
H604 H 0.88139 0.8401 0.76185 0.0
H605 H 0.72642 0.763 0.89841 0.0
H606 H 0.65863 0.67239 0.75117 0.0
H607 H 0.81515 0.73806 0.6135 0.0
H608 H 0.74673 0.73839 0.84608 0.0
H609 H 0.75696 0.82913 0.91958 0.0
H610 H 0.79683 0.7653 0.66556 0.0
H611 H 0.91476 0.90626 0.77963 0.0
H612 H 0.8056 0.89116 0.91273 0.0
H613 H 0.85632 0.92993 0.88044 0.0
H614 H 0.62173 0.6068 0.73454 0.0
H615 H 0.89696 0.9359 0.83088 0.0
H616 H 0.78149 0.67218 0.59355 0.0
N617 N 0.6966 0.67632 0.71151 0.0
C618 C 0.70527 0.65931 0.68319 0.0
C619 C 0.64532 0.62114 0.72002 0.0
C620 C 0.68437 0.62205 0.67245 0.0
C621 C 0.66664 0.65818 0.72962 0.0
C622 C 0.65434 0.6029 0.69143 0.0
N623 N 0.75493 0.71511 0.67566 0.0
C624 C 0.78266 0.73647 0.65739 0.0
C625 C 0.74402 0.6627 0.63481 0.0
C626 C 0.73484 0.67939 0.66454 0.0
C627 C 0.77357 0.68399 0.61652 0.0
C628 C 0.79275 0.72115 0.62775 0.0
H629 H 0.63763 0.57425 0.684 0.0
H630 H 0.67811 0.57657 0.63449 0.0
H631 H 0.73026 0.61213 0.60157 0.0
O632 O 0.72929 0.78123 0.70253 0.0
O633 O 0.77168 0.70611 0.71788 0.0
O634 O 0.825 0.74452 0.73904 0.0
O635 O 0.68472 0.72931 0.70641 0.0
O636 O 0.78076 0.7955 0.7272 0.0
O637 O 0.83051 0.78968 0.74013 0.0
O638 O 0.81636 0.72969 0.81208 0.0
O639 O 0.77151 0.8017 0.79326 0.0
O640 O 0.71796 0.76107 0.77421 0.0
O641 O 0.85985 0.78161 0.80526 0.0
O642 O 0.76375 0.71173 0.7852 0.0
O643 O 0.71378 0.71712 0.77195 0.0
C644 C 0.80613 0.71552 0.71993 0.0
C645 C 0.67144 0.7823 0.70916 0.0
C646 C 0.63736 0.81686 0.69821 0.0
C647 C 0.62461 0.81912 0.73015 0.0
C648 C 0.65816 0.78472 0.74076 0.0
C649 C 0.63502 0.80318 0.75123 0.0
C650 C 0.66098 0.79831 0.68785 0.0
C651 C 0.81529 0.80313 0.72337 0.0
C652 C 0.69555 0.76239 0.69843 0.0
C653 C 0.69381 0.6052 0.64305 0.0
C654 C 0.7235 0.62547 0.62428 0.0
C655 C 0.73659 0.79064 0.79288 0.0
C656 C 0.87475 0.73003 0.80509 0.0
C657 C 0.90792 0.6951 0.81714 0.0
C658 C 0.92198 0.69342 0.78555 0.0
C659 C 0.88936 0.72822 0.77385 0.0
C660 C 0.88413 0.71356 0.82677 0.0
C661 C 0.91269 0.70986 0.76412 0.0
C662 C 0.72898 0.7027 0.7878 0.0
C663 C 0.85017 0.74955 0.81499 0.0
H664 H 0.60603 0.83265 0.73879 0.0
H665 H 0.66535 0.77183 0.75718 0.0
H666 H 0.62484 0.80481 0.77569 0.0
H667 H 0.67134 0.7965 0.66341 0.0
H668 H 0.94071 0.67994 0.7775 0.0
H669 H 0.88299 0.74147 0.75717 0.0
H670 H 0.87276 0.7149 0.85093 0.0
H671 H 0.92388 0.70867 0.73994 0.0
C672 C 0.90613 0.0483 0.52033 0.0
C673 C 0.9824 0.06269 0.44521 0.0
C674 C 0.98771 0.93473 0.46035 0.0
Mg675 Mg 0.98938 0.07867 0.51627 0.0
O676 O 0.97815 0.0284 0.51825 0.0
Mg677 Mg 0.94574 0.98993 0.48736 0.0
Mg678 Mg 1.01881 0.01182 0.50936 0.0
O679 O 0.05954 0.99557 0.50053 0.0
Mg680 Mg 0.05254 0.94573 0.50033 0.0
Mg681 Mg 0.09363 0.03571 0.52918 0.0
C682 C 0.05035 0.08847 0.55924 0.0
C683 C 0.08434 0.0732 0.47178 0.0
O684 O 0.90385 0.01584 0.50689 0.0
O685 O 0.93567 0.07516 0.52694 0.0
O686 O 0.9631 0.02909 0.4494 0.0
O687 O 0.99937 0.08653 0.46734 0.0
O688 O 0.03051 0.10315 0.55088 0.0
O689 O 0.04785 0.05538 0.54802 0.0
C690 C 0.95174 0.9513 0.54597 0.0
O691 O 0.98577 0.96953 0.54411 0.0
O692 O 0.93175 0.95426 0.52711 0.0
O693 O 0.13617 0.0141 0.50507 0.0
O694 O 0.10714 0.95492 0.48328 0.0
O695 O 0.08134 0.99675 0.56645 0.0
C696 C 0.13583 0.98363 0.48873 0.0
O697 O 0.0487 0.93769 0.54904 0.0
O698 O 1.00765 0.92012 0.46881 0.0
C699 C 0.06538 0.96266 0.57073 0.0
O700 O 0.99069 0.96811 0.47108 0.0
O701 O 0.05067 0.05366 0.47379 0.0
O702 O 0.10485 0.07165 0.4907 0.0
C703 C 0.44253 0.08329 0.06521 0.0
C704 C 0.47751 0.07222 0.96672 0.0
C705 C 0.45451 0.93176 0.97402 0.0
Mg706 Mg 0.5149 0.0861 0.02721 0.0
O707 O 0.4946 0.03496 0.03034 0.0
Mg708 Mg 0.44563 0.00672 0.01535 0.0
Mg709 Mg 0.51914 1.00106 0.00769 0.0
O710 O 0.54355 0.96722 0.98492 0.0
Mg711 Mg 0.52297 0.91568 0.98639 0.0
Mg712 Mg 0.5923 0.99491 1.00031 0.0
C713 C 0.58393 0.07042 0.03958 0.0
C714 C 0.57989 0.04472 0.95457 0.0
O715 O 0.42717 0.05 0.05113 0.0
O716 O 0.47623 0.10181 0.06044 0.0
O717 O 0.45543 0.04238 0.97672 0.0
O718 O 0.50511 0.09334 0.98124 0.0
O719 O 0.56866 0.09317 0.03847 0.0
O720 O 0.56837 0.03508 0.03279 0.0
C721 C 0.45951 0.95911 0.06202 0.0
O722 O 0.49104 0.96474 0.04852 0.0
O723 O 0.43899 0.97229 0.05316 0.0
O724 O 0.61081 0.95193 0.964 0.0
O725 O 0.56168 0.90076 0.95299 0.0
O726 O 0.58135 0.95822 0.03899 0.0
C727 C 0.59547 0.91916 0.94898 0.0
O728 O 0.53235 0.90664 0.03168 0.0
O729 O 0.46958 0.90867 0.9743 0.0
C730 C 0.55893 0.92758 0.0475 0.0
O731 O 0.46982 0.96684 0.98257 0.0
O732 O 0.54786 0.03809 0.9673 0.0
O733 O 0.60003 0.03085 0.96314 0.0
C734 C 0.94612 0.58672 0.06867 0.0
C735 C 0.98407 0.58157 0.97087 0.0
C736 C 0.9556 0.43657 0.97103 0.0
Mg737 Mg 1.01853 0.5891 0.03208 0.0
O738 O 0.99657 0.53749 0.03185 0.0
Mg739 Mg 0.94797 0.51179 0.01557 0.0
Mg740 Mg 1.02054 0.50379 0.00833 0.0
O741 O 0.04469 0.47039 0.98454 0.0
Mg742 Mg 0.02304 0.41863 0.98369 0.0
Mg743 Mg 0.0937 0.49651 1.00004 0.0
C744 C 0.08619 0.5713 0.04427 0.0
C745 C 0.0815 0.54898 0.95658 0.0
O746 O 0.93036 0.55488 0.05239 0.0
O747 O 0.98016 0.60402 0.06579 0.0
O748 O 0.9606 0.55081 0.97832 0.0
O749 O 1.01087 0.60047 0.98709 0.0
O750 O 0.0712 0.5946 0.04449 0.0
O751 O 0.0706 0.53633 0.03472 0.0
C752 C 0.95942 0.46081 0.06105 0.0
O753 O 0.99097 0.46607 0.0477 0.0
O754 O 0.9394 0.47498 0.05262 0.0
O755 O 0.11132 0.45407 0.96237 0.0
O756 O 0.06157 0.40457 0.94945 0.0
O757 O 0.08164 0.45652 0.03659 0.0
C758 C 0.09553 0.42221 0.94612 0.0
O759 O 0.03123 0.40685 0.02849 0.0
O760 O 0.97049 0.41315 0.97065 0.0
C761 C 0.05846 0.42569 0.04425 0.0
O762 O 0.97088 0.47128 0.98166 0.0
O763 O 0.04961 0.54175 0.96954 0.0
O764 O 0.10241 0.53525 0.96401 0.0
C765 C 0.44183 0.55435 0.03239 0.0
C766 C 0.47954 0.55384 0.93955 0.0
C767 C 0.47434 0.42359 0.96541 0.0
Mg768 Mg 0.50646 0.58024 0.00741 0.0
O769 O 0.4863 0.52598 0.01087 0.0
Mg770 Mg 0.44303 0.4829 0.98616 0.0
Mg771 Mg 0.52203 0.50172 1.00531 0.0
O772 O 0.55739 0.4767 0.99936 0.0
Mg773 Mg 0.53049 0.42432 0.00796 0.0
Mg774 Mg 0.6 0.51914 0.02508 0.0
C775 C 0.56623 0.58013 0.04745 0.0
C776 C 0.59261 0.55387 0.96425 0.0
O777 O 0.45886 0.5326 0.02354 0.0
O778 O 0.46013 0.58895 0.03304 0.0
O779 O 0.45897 0.52187 0.9474 0.0
O780 O 0.50212 0.57873 0.95776 0.0
O781 O 0.55162 0.59824 0.03629 0.0
O782 O 0.55738 0.54487 0.04017 0.0
C783 C 0.45145 0.44827 0.04649 0.0
O784 O 0.48555 0.46583 0.04376 0.0
O785 O 0.43125 0.44932 0.02689 0.0
O786 O 0.58414 0.46506 0.99135 0.0
O787 O 0.57168 0.4055 0.98618 0.0
O788 O 0.58256 0.48306 0.0656 0.0
C789 C 0.59534 0.43823 0.98709 0.0
O790 O 0.53542 0.42864 0.0579 0.0
O791 O 0.48501 0.4045 0.97958 0.0
C792 C 0.55995 0.45264 0.07486 0.0
O793 O 0.48656 0.45912 0.97063 0.0
O794 O 0.55839 0.53766 0.96722 0.0
O795 O 0.61253 0.55109 0.98321 0.0
C796 C 0.94323 0.57724 0.57049 0.0
C797 C 0.97274 0.56679 0.47156 0.0
C798 C 0.95349 0.42742 0.47539 0.0
Mg799 Mg 1.0139 0.5804 0.52926 0.0
O800 O 0.99468 0.5294 0.53298 0.0
Mg801 Mg 0.94485 0.50075 0.51993 0.0
Mg802 Mg 1.01905 0.49705 0.50691 0.0
O803 O 0.0434 0.46479 0.48076 0.0
Mg804 Mg 0.0245 0.41322 0.48274 0.0
Mg805 Mg 0.09317 0.49369 0.49381 0.0
C806 C 0.08503 0.56714 0.53723 0.0
C807 C 0.07405 0.54298 0.45268 0.0
O808 O 0.92742 0.54348 0.5575 0.0
O809 O 0.97652 0.59597 0.56388 0.0
O810 O 0.95112 0.53716 0.48227 0.0
O811 O 1.00169 0.58727 0.48433 0.0
O812 O 0.06878 0.58941 0.53802 0.0
O813 O 0.06997 0.53187 0.52961 0.0
C814 C 0.96402 0.45136 0.56136 0.0
O815 O 0.99476 0.45866 0.54593 0.0
O816 O 0.94164 0.46464 0.55631 0.0
O817 O 0.11088 0.45205 0.45546 0.0
O818 O 0.06232 0.39946 0.44712 0.0
O819 O 0.08596 0.45696 0.53121 0.0
C820 C 0.09556 0.41892 0.44109 0.0
O821 O 0.03683 0.40513 0.52736 0.0
O822 O 0.96964 0.40486 0.47372 0.0
C823 C 0.06474 0.42675 0.54122 0.0
O824 O 0.96841 0.46242 0.48433 0.0
O825 O 0.04306 0.53515 0.46767 0.0
O826 O 0.09668 0.53028 0.45811 0.0
C827 C 0.4444 0.08768 0.56685 0.0
C828 C 0.48633 0.08413 0.46992 0.0
C829 C 0.45588 0.93813 0.47088 0.0
Mg830 Mg 0.51791 0.0905 0.53232 0.0
O831 O 0.49539 0.03876 0.53165 0.0
Mg832 Mg 0.44759 0.0133 0.51357 0.0
Mg833 Mg 0.52002 0.00568 0.50847 0.0
O834 O 0.54479 0.97263 0.48512 0.0
Mg835 Mg 0.52333 0.92096 0.48443 0.0
Mg836 Mg 0.59333 0.99869 0.50147 0.0
C837 C 0.58441 0.07256 0.54699 0.0
C838 C 0.58194 0.05098 0.45738 0.0
O839 O 0.42894 0.056 0.5502 0.0
O840 O 0.47847 0.10492 0.56479 0.0
O841 O 0.46237 0.05341 0.4769 0.0
O842 O 0.51252 0.10277 0.48689 0.0
O843 O 0.56971 0.09604 0.54698 0.0
O844 O 0.5693 0.03792 0.53613 0.0
C845 C 0.45625 0.9596 0.558 0.0
O846 O 0.48894 0.96702 0.5469 0.0
O847 O 0.43657 0.97388 0.5491 0.0
O848 O 0.61165 0.95637 0.46409 0.0
O849 O 0.56211 0.90678 0.45083 0.0
O850 O 0.58082 0.95905 0.53812 0.0
C851 C 0.59608 0.92445 0.4478 0.0
O852 O 0.53063 0.9093 0.52942 0.0
O853 O 0.4709 0.91504 0.47132 0.0
C854 C 0.55746 0.92826 0.54559 0.0
O855 O 0.47121 0.97319 0.48034 0.0
O856 O 0.55012 0.04435 0.47033 0.0
O857 O 0.60242 0.03686 0.46501 0.0
H858 H 0.15542 0.19634 0.30803 0.0
H859 H 0.23969 0.16227 0.32238 0.0
H860 H 0.1194 0.16614 0.35272 0.0
H861 H 0.20371 0.13215 0.36683 0.0
H862 H 0.15258 0.12353 0.46565 0.0
H863 H 0.18387 0.15385 0.42019 0.0
H864 H 0.08703 0.10395 0.37198 0.0
H865 H 0.05529 0.07312 0.41787 0.0
C866 C 0.16613 0.18205 0.32044 0.0
C867 C 0.20062 0.18198 0.31169 0.0
C868 C 0.14541 0.16472 0.34605 0.0
C869 C 0.15881 0.14711 0.36359 0.0
C870 C 0.19283 0.14608 0.35419 0.0
C871 C 0.2134 0.16316 0.32855 0.0
C872 C 0.13766 0.11913 0.44555 0.0
C873 C 0.10132 0.09559 0.44549 0.0
C874 C 0.15579 0.13639 0.41933 0.0
C875 C 0.13818 0.13078 0.39219 0.0
C876 C 0.10139 0.10879 0.39253 0.0
C877 C 0.08315 0.09124 0.41889 0.0
H878 H 0.85429 0.14297 0.38149 0.0
H879 H 0.8817 0.09011 0.29109 0.0
H880 H 0.90111 0.13411 0.4042 0.0
H881 H 0.92868 0.08085 0.31397 0.0
H882 H 0.99756 0.13432 0.43653 0.0
H883 H 0.96883 0.15312 0.40093 0.0
H884 H 0.9246 0.03994 0.35555 0.0
H885 H 0.95318 0.0209 0.39112 0.0
C886 C 0.87059 0.12969 0.36647 0.0
C887 C 0.86427 0.11692 0.33466 0.0
C888 C 0.89765 0.125 0.37934 0.0
C889 C 0.91872 0.10702 0.36077 0.0
C890 C 0.91289 0.09489 0.32875 0.0
C891 C 0.88612 0.10018 0.3157 0.0
C892 C 0.98295 0.11363 0.41818 0.0
C893 C 0.97707 0.07593 0.41713 0.0
C894 C 0.96623 0.12441 0.39796 0.0
C895 C 0.94387 0.09785 0.37599 0.0
C896 C 0.94162 0.06101 0.37232 0.0
C897 C 0.95803 0.05012 0.39274 0.0
H898 H 0.86943 0.77783 0.30814 0.0
H899 H 0.82496 0.86256 0.32634 0.0
H900 H 0.90861 0.80982 0.35049 0.0
H901 H 0.86267 0.89368 0.36975 0.0
H902 H 0.95534 0.8589 0.44504 0.0
H903 H 0.91321 0.82519 0.40484 0.0
H904 H 0.92098 0.92974 0.38081 0.0
H905 H 0.96134 0.96278 0.42159 0.0
C906 C 0.86785 0.80318 0.32142 0.0
C907 C 0.84437 0.81788 0.31381 0.0
C908 C 0.89011 0.82141 0.34594 0.0
C909 C 0.88902 0.8545 0.36375 0.0
C910 C 0.86501 0.8688 0.35624 0.0
C911 C 0.84325 0.85093 0.33137 0.0
C912 C 0.94772 0.87451 0.43127 0.0
C913 C 0.96141 0.91349 0.43674 0.0
C914 C 0.92375 0.85525 0.40804 0.0
C915 C 0.91345 0.8746 0.3894 0.0
C916 C 0.92737 0.91364 0.39502 0.0
C917 C 0.95075 0.93273 0.41847 0.0
H918 H 0.21363 0.93385 0.30559 0.0
H919 H 0.14425 0.84563 0.35834 0.0
H920 H 0.23045 0.97542 0.35522 0.0
H921 H 0.16089 0.88584 0.40687 0.0
H922 H 0.16753 0.02518 0.44261 0.0
H923 H 0.19604 1.00296 0.39492 0.0
H924 H 0.20592 0.92128 0.44314 0.0
H925 H 0.17426 0.94162 0.49011 0.0
C926 C 0.20209 0.92347 0.32774 0.0
C927 C 0.17752 0.88676 0.3283 0.0
C928 C 0.21216 0.9469 0.356 0.0
C929 C 0.19783 0.93372 0.38501 0.0
C930 C 0.17368 0.89673 0.38515 0.0
C931 C 0.16355 0.87372 0.35724 0.0
C932 C 0.17765 1.00387 0.44346 0.0
C933 C 0.16799 0.98412 0.46928 0.0
C934 C 0.19424 0.99122 0.41613 0.0
C935 C 0.20145 0.95911 0.41496 0.0
C936 C 0.19926 0.94522 0.44323 0.0
C937 C 0.18131 0.95682 0.47013 0.0
H938 H 0.13494 0.86962 0.70833 0.0
H939 H 0.22303 0.93702 0.64988 0.0
H940 H 0.09349 0.88421 0.68273 0.0
H941 H 0.1817 0.95319 0.62617 0.0
H942 H 0.10584 0.00759 0.61822 0.0
H943 H 0.13683 0.98927 0.65197 0.0
H944 H 0.07783 0.87387 0.61951 0.0
H945 H 0.047 0.89191 0.58481 0.0
C946 C 0.14561 0.88737 0.69005 0.0
C947 C 0.18265 0.90226 0.68141 0.0
C948 C 0.12178 0.8959 0.67564 0.0
C949 C 0.13456 0.92016 0.6529 0.0
C950 C 0.17132 0.9349 0.64412 0.0
C951 C 0.19501 0.92579 0.65793 0.0
C952 C 0.09851 0.97822 0.61879 0.0
C953 C 0.07433 0.95124 0.59822 0.0
C954 C 0.11649 0.96783 0.63807 0.0
C955 C 0.11012 0.93028 0.63779 0.0
C956 C 0.08323 0.90305 0.61996 0.0
C957 C 0.06551 0.91344 0.60021 0.0
H958 H 0.16989 0.23627 0.71332 0.0
H959 H 0.20637 0.14541 0.69627 0.0
H960 H 0.12921 0.2062 0.67243 0.0
H961 H 0.16377 0.11389 0.65598 0.0
H962 H 0.11853 0.09285 0.5606 0.0
H963 H 0.1569 0.12041 0.60381 0.0
H964 H 0.0765 0.1573 0.65713 0.0
H965 H 0.03851 0.13021 0.61333 0.0
C966 C 0.16868 0.20938 0.70122 0.0
C967 C 0.19164 0.19335 0.70779 0.0
C968 C 0.14507 0.19197 0.67782 0.0
C969 C 0.14325 0.15768 0.66067 0.0
C970 C 0.16498 0.14067 0.66832 0.0
C971 C 0.18902 0.1584 0.69166 0.0
C972 C 0.10898 0.10662 0.58159 0.0
C973 C 0.07538 0.10907 0.58372 0.0
C974 C 0.13094 0.12234 0.60649 0.0
C975 C 0.11969 0.14067 0.63423 0.0
C976 C 0.08626 0.14372 0.63604 0.0
C977 C 0.06449 0.12833 0.61094 0.0
H978 H 0.90107 0.22367 0.59961 0.0
H979 H 0.81646 0.15332 0.65899 0.0
H980 H 0.88306 0.17549 0.55537 0.0
H981 H 0.79633 0.10745 0.61416 0.0
H982 H 0.88344 0.0876 0.48999 0.0
H983 H 0.85214 0.12707 0.51706 0.0
H984 H 0.82953 0.06967 0.59843 0.0
H985 H 0.85953 0.02999 0.57077 0.0
C986 C 0.87795 0.19864 0.60318 0.0
C987 C 0.86205 0.19178 0.63353 0.0
C988 C 0.86691 0.17113 0.57746 0.0
C989 C 0.83923 0.13661 0.5816 0.0
C990 C 0.81871 0.13309 0.6105 0.0
C991 C 0.83038 0.15998 0.6364 0.0
C992 C 0.86957 0.08204 0.5129 0.0
C993 C 0.87403 0.05642 0.52872 0.0
C994 C 0.85196 0.10483 0.52853 0.0
C995 C 0.83974 0.10279 0.5604 0.0
C996 C 0.8388 0.07253 0.57401 0.0
C997 C 0.85605 0.04953 0.55821 0.0
H998 H 0.79663 0.84605 0.69188 0.0
H999 H 0.88444 0.81469 0.70054 0.0
H1000 H 0.8313 0.88166 0.64988 0.0
H1001 H 0.919 0.84985 0.65796 0.0
H1002 H 0.98117 0.94537 0.59735 0.0
H1003 H 0.94988 0.91115 0.64151 0.0
H1004 H 0.85135 0.86958 0.59614 0.0
H1005 H 0.88211 0.90407 0.55276 0.0
C1006 C 0.82342 0.84687 0.68493 0.0
C1007 C 0.83768 0.82746 0.69964 0.0
C1008 C 0.84326 0.86709 0.66061 0.0
C1009 C 0.8779 0.86834 0.65014 0.0
C1010 C 0.89258 0.84979 0.66549 0.0
C1011 C 0.8727 0.82958 0.68993 0.0
C1012 C 0.95289 0.92871 0.59674 0.0
C1013 C 0.93418 0.92784 0.57153 0.0
C1014 C 0.93492 0.90902 0.62206 0.0
C1015 C 0.89788 0.88802 0.62273 0.0
C1016 C 0.87963 0.8862 0.59695 0.0
C1017 C 0.89744 0.90583 0.57183 0.0
H1018 H 0.27427 0.1456 0.1831 0.0
H1019 H 0.3731 0.2386 0.20097 0.0
H1020 H 0.30637 0.11439 0.14468 0.0
H1021 H 0.40573 0.20592 0.16642 0.0
H1022 H 0.45909 0.15756 0.08361 0.0
H1023 H 0.4242 0.18828 0.11788 0.0
H1024 H 0.34201 0.08135 0.1328 0.0
H1025 H 0.3763 0.05082 0.09627 0.0
C1026 C 0.3028 0.15949 0.17882 0.0
C1027 C 0.32076 0.19496 0.19501 0.0
C1028 C 0.32158 0.14115 0.15719 0.0
C1029 C 0.35917 0.15723 0.15179 0.0
C1030 C 0.37695 0.1925 0.16866 0.0
C1031 C 0.35809 0.2112 0.18931 0.0
C1032 C 0.43354 0.14052 0.09416 0.0
C1033 C 0.42072 0.1016 0.08712 0.0
C1034 C 0.41339 0.15825 0.11431 0.0
C1035 C 0.37995 0.13774 0.12902 0.0
C1036 C 0.36716 0.09861 0.1219 0.0
C1037 C 0.38705 0.08087 0.10104 0.0
H1038 H 0.83221 0.27731 0.15924 0.0
H1039 H 0.85068 0.36929 0.23416 0.0
H1040 H 0.87399 0.31863 0.12352 0.0
H1041 H 0.89206 0.41109 0.1981 0.0
H1042 H 0.91555 0.47304 0.11055 0.0
H1043 H 0.88454 0.434 0.15118 0.0
H1044 H 0.93883 0.35976 0.11294 0.0
H1045 H 0.97023 0.39936 0.07173 0.0
C1046 C 0.84562 0.30633 0.16818 0.0
C1047 C 0.83849 0.32 0.19958 0.0
C1048 C 0.86965 0.32998 0.14772 0.0
C1049 C 0.88662 0.36808 0.15802 0.0
C1050 C 0.87938 0.38184 0.18946 0.0
C1051 C 0.85558 0.35801 0.21005 0.0
C1052 C 0.92127 0.44862 0.11097 0.0
C1053 C 0.94505 0.43903 0.08775 0.0
C1054 C 0.90368 0.42641 0.13446 0.0
C1055 C 0.90908 0.39372 0.13525 0.0
C1056 C 0.93394 0.3847 0.11275 0.0
C1057 C 0.95208 0.40741 0.08933 0.0
H1058 H 0.6928 0.86729 0.1374 0.0
H1059 H 0.61962 0.88137 0.21662 0.0
H1060 H 0.65546 0.87485 0.10215 0.0
H1061 H 0.58416 0.89166 0.18123 0.0
H1062 H 0.58707 0.96909 0.10147 0.0
H1063 H 0.61232 0.95032 0.14029 0.0
H1064 H 0.57869 0.83892 0.09047 0.0
H1065 H 0.55216 0.85728 0.05213 0.0
C1066 C 0.66865 0.87142 0.14742 0.0
C1067 C 0.65965 0.874 0.18017 0.0
C1068 C 0.6474 0.87595 0.12712 0.0
C1069 C 0.61712 0.88385 0.13913 0.0
C1070 C 0.60752 0.88568 0.17154 0.0
C1071 C 0.62821 0.88024 0.19178 0.0
C1072 C 0.5841 0.94033 0.09939 0.0
C1073 C 0.56738 0.91453 0.07404 0.0
C1074 C 0.5986 0.92967 0.12148 0.0
C1075 C 0.59744 0.89329 0.11815 0.0
C1076 C 0.57975 0.86711 0.09345 0.0
C1077 C 0.56435 0.87753 0.07177 0.0
H1078 H 0.19033 0.6339 0.20689 0.0
H1079 H 0.27448 0.70548 0.14885 0.0
H1080 H 0.15928 0.59871 0.16029 0.0
H1081 H 0.2429 0.67059 0.1018 0.0
H1082 H 0.11343 0.53207 0.07195 0.0
H1083 H 0.16126 0.558 0.10774 0.0
H1084 H 0.18323 0.66802 0.08716 0.0
H1085 H 0.13551 0.6423 0.05161 0.0
C1086 C 0.20261 0.64137 0.18395 0.0
C1087 C 0.23477 0.67218 0.18131 0.0
C1088 C 0.18494 0.62116 0.15725 0.0
C1089 C 0.19865 0.63185 0.12735 0.0
C1090 C 0.23179 0.66167 0.12454 0.0
C1091 C 0.24997 0.68142 0.15133 0.0
C1092 C 0.12922 0.56162 0.07427 0.0
C1093 C 0.12037 0.58519 0.05924 0.0
C1094 C 0.15648 0.57648 0.09491 0.0
C1095 C 0.17579 0.61508 0.10046 0.0
C1096 C 0.16904 0.63818 0.08324 0.0
C1097 C 0.14151 0.62342 0.06299 0.0
H1098 H 0.32242 0.86915 0.81856 0.0
H1099 H 0.31097 0.76941 0.85385 0.0
H1100 H 0.34825 0.90615 0.86654 0.0
H1101 H 0.34117 0.80606 0.89939 0.0
H1102 H 0.39416 0.87049 0.98202 0.0
H1103 H 0.34714 0.84071 0.94599 0.0
H1104 H 0.3989 0.93088 0.88985 0.0
H1105 H 0.44269 0.96198 0.92801 0.0
C1106 C 0.32534 0.85512 0.83664 0.0
C1107 C 0.31455 0.81635 0.83241 0.0
C1108 C 0.34084 0.87642 0.86406 0.0
C1109 C 0.34752 0.85959 0.88725 0.0
C1110 C 0.33602 0.82057 0.88294 0.0
C1111 C 0.31921 0.79931 0.85625 0.0
C1112 C 0.39435 0.88432 0.96253 0.0
C1113 C 0.42191 0.91822 0.95751 0.0
C1114 C 0.36785 0.86702 0.94142 0.0
C1115 C 0.36964 0.8823 0.91389 0.0
C1116 C 0.39595 0.91784 0.9105 0.0
C1117 C 0.42141 0.93584 0.93241 0.0
H1118 H 0.17841 0.30343 0.78383 0.0
H1119 H 0.24972 0.32469 0.85563 0.0
H1120 H 0.14563 0.33654 0.81941 0.0
H1121 H 0.21618 0.35651 0.89176 0.0
H1122 H 0.16874 0.44316 0.93808 0.0
H1123 H 0.20315 0.41247 0.90159 0.0
H1124 H 0.10536 0.32976 0.86619 0.0
H1125 H 0.07114 0.36057 0.90214 0.0
C1126 C 0.18703 0.31504 0.80728 0.0
C1127 C 0.21638 0.31083 0.81703 0.0
C1128 C 0.16802 0.3338 0.82784 0.0
C1129 C 0.17798 0.34913 0.85868 0.0
C1130 C 0.20775 0.34536 0.8682 0.0
C1131 C 0.2267 0.32655 0.84763 0.0
C1132 C 0.15457 0.41857 0.92238 0.0
C1133 C 0.11704 0.4045 0.92318 0.0
C1134 C 0.17432 0.40074 0.90158 0.0
C1135 C 0.15714 0.36851 0.88081 0.0
C1136 C 0.11966 0.35472 0.88145 0.0
C1137 C 0.09995 0.37236 0.90232 0.0
H1138 H 0.73635 0.22219 0.86425 0.0
H1139 H 0.65442 0.17894 0.79861 0.0
H1140 H 0.69731 0.17952 0.90019 0.0
H1141 H 0.61486 0.13687 0.83532 0.0
H1142 H 0.55185 0.08807 0.93153 0.0
H1143 H 0.58338 0.13518 0.896 0.0
H1144 H 0.67599 0.10675 0.88844 0.0
H1145 H 0.64527 0.06028 0.92295 0.0
C1146 C 0.70988 0.2039 0.85762 0.0
C1147 C 0.69893 0.20322 0.82816 0.0
C1148 C 0.68745 0.17964 0.87831 0.0
C1149 C 0.65322 0.15468 0.87035 0.0
C1150 C 0.6411 0.15589 0.842 0.0
C1151 C 0.66382 0.17991 0.82101 0.0
C1152 C 0.57879 0.09174 0.92208 0.0
C1153 C 0.59605 0.07067 0.93064 0.0
C1154 C 0.59679 0.11865 0.90178 0.0
C1155 C 0.63236 0.12503 0.89009 0.0
C1156 C 0.6489 0.10299 0.89767 0.0
C1157 C 0.63104 0.07617 0.91747 0.0
H1158 H 0.92601 0.72339 0.87778 0.0
H1159 H 0.91421 0.62778 0.80741 0.0
H1160 H 0.94645 0.69588 0.91356 0.0
H1161 H 0.93575 0.601 0.84255 0.0
H1162 H 0.93513 0.54617 0.92729 0.0
H1163 H 0.9167 0.57374 0.89064 0.0
H1164 H 0.99788 0.68066 0.91965 0.0
H1165 H 1.016 0.65314 0.95703 0.0
C1166 C 0.92762 0.69645 0.87001 0.0
C1167 C 0.91861 0.67783 0.8397 0.0
C1168 C 0.9398 0.68093 0.89032 0.0
C1169 C 0.94302 0.64636 0.88082 0.0
C1170 C 0.93344 0.62756 0.8507 0.0
C1171 C 0.92136 0.64306 0.83044 0.0
C1172 C 0.94943 0.57548 0.92564 0.0
C1173 C 0.97707 0.59741 0.94517 0.0
C1174 C 0.93886 0.5913 0.90453 0.0
C1175 C 0.95563 0.62948 0.90234 0.0
C1176 C 0.98406 0.65126 0.92111 0.0
C1177 C 0.99476 0.63538 0.94223 0.0
H1178 H 0.13803 0.38591 0.20493 0.0
H1179 H 0.10197 0.27925 0.1466 0.0
H1180 H 0.11707 0.41181 0.16895 0.0
H1181 H 0.08266 0.30594 0.10931 0.0
H1182 H 0.02109 0.35723 0.06422 0.0
H1183 H 0.03829 0.32979 0.10235 0.0
H1184 H 0.13155 0.43057 0.11871 0.0
H1185 H 0.11393 0.4582 0.08182 0.0
C1186 C 0.12562 0.3679 0.18437 0.0
C1187 C 0.12139 0.33032 0.17894 0.0
C1188 C 0.11395 0.38295 0.16343 0.0
C1189 C 0.09808 0.36106 0.13611 0.0
C1190 C 0.09427 0.32353 0.13033 0.0
C1191 C 0.10583 0.30835 0.15148 0.0
C1192 C 0.04495 0.3737 0.07635 0.0
C1193 C 0.06603 0.41 0.0699 0.0
C1194 C 0.05506 0.35779 0.09795 0.0
C1195 C 0.08644 0.37783 0.1136 0.0
C1196 C 0.10697 0.41437 0.10755 0.0
C1197 C 0.09685 0.43025 0.08618 0.0
H1198 H 0.16269 0.65652 0.78614 0.0
H1199 H 0.24431 0.7067 0.85174 0.0
H1200 H 0.12176 0.62119 0.8262 0.0
H1201 H 0.20437 0.66994 0.89127 0.0
H1202 H 0.11833 0.62326 0.96604 0.0
H1203 H 0.15194 0.66331 0.92604 0.0
H1204 H 0.11267 0.57012 0.85319 0.0
H1205 H 0.07848 0.53071 0.89341 0.0
C1206 C 0.17175 0.66015 0.80923 0.0
C1207 C 0.20637 0.68492 0.81602 0.0
C1208 C 0.14848 0.63956 0.83209 0.0
C1209 C 0.15954 0.64285 0.86217 0.0
C1210 C 0.19453 0.66728 0.86869 0.0
C1211 C 0.21763 0.68804 0.8459 0.0
C1212 C 0.11621 0.61183 0.94138 0.0
C1213 C 0.09556 0.57425 0.93259 0.0
C1214 C 0.1358 0.63452 0.91847 0.0
C1215 C 0.13542 0.61992 0.88631 0.0
C1216 C 0.11338 0.5825 0.87762 0.0
C1217 C 0.09375 0.55987 0.90059 0.0
H1218 H 0.43321 0.16003 0.81107 0.0
H1219 H 0.33699 0.1198 0.87226 0.0
H1220 H 0.466 0.14491 0.84628 0.0
H1221 H 0.36962 0.10469 0.90717 0.0
H1222 H 0.42281 0.03173 0.92985 0.0
H1223 H 0.39786 0.05393 0.89403 0.0
H1224 H 0.48333 0.16165 0.90698 0.0
H1225 H 0.50852 0.13967 0.94382 0.0
C1226 C 0.41924 0.14835 0.8322 0.0
C1227 C 0.38253 0.14081 0.83887 0.0
C1228 C 0.43801 0.13994 0.85234 0.0
C1229 C 0.42018 0.12331 0.87914 0.0
C1230 C 0.38386 0.1172 0.88644 0.0
C1231 C 0.36527 0.12607 0.86661 0.0
C1232 C 0.43674 0.06008 0.92495 0.0
C1233 C 0.46744 0.08411 0.94017 0.0
C1234 C 0.42223 0.07279 0.90451 0.0
C1235 C 0.43826 0.10966 0.89837 0.0
C1236 C 0.47038 0.13313 0.91163 0.0
C1237 C 0.48482 0.12049 0.93255 0.0
H1238 H 0.86326 0.36727 0.80142 0.0
H1239 H 0.76989 0.31049 0.86004 0.0
H1240 H 0.89393 0.40293 0.8483 0.0
H1241 H 0.80108 0.34543 0.90726 0.0
H1242 H 0.90376 0.3669 0.96433 0.0
H1243 H 0.85879 0.34159 0.92592 0.0
H1244 H 0.88996 0.45055 0.89902 0.0
H1245 H 0.93446 0.47619 0.93807 0.0
C1246 C 0.84904 0.3632 0.8244 0.0
C1247 C 0.8142 0.33648 0.82722 0.0
C1248 C 0.86653 0.38359 0.85121 0.0
C1249 C 0.84985 0.37704 0.88143 0.0
C1250 C 0.81446 0.35117 0.88425 0.0
C1251 C 0.79657 0.33141 0.85732 0.0
C1252 C 0.90018 0.3857 0.951 0.0
C1253 C 0.92275 0.42352 0.95417 0.0
C1254 C 0.87439 0.37119 0.92902 0.0
C1255 C 0.87111 0.39405 0.9093 0.0
C1256 C 0.89203 0.43231 0.91388 0.0
C1257 C 0.91731 0.44701 0.93639 0.0
H1258 H 0.66489 0.76617 0.81013 0.0
H1259 H 0.76331 0.8598 0.82821 0.0
H1260 H 0.63198 0.79815 0.84541 0.0
H1261 H 0.73107 0.89014 0.86716 0.0
H1262 H 0.66133 0.95246 0.91777 0.0
H1263 H 0.69533 0.9227 0.88007 0.0
H1264 H 0.61384 0.81512 0.89425 0.0
H1265 H 0.57916 0.84517 0.92968 0.0
C1266 C 0.67967 0.79365 0.82179 0.0
C1267 C 0.7169 0.8104 0.81586 0.0
C1268 C 0.66071 0.81189 0.8429 0.0
C1269 C 0.67839 0.84707 0.86 0.0
C1270 C 0.7159 0.86355 0.85439 0.0
C1271 C 0.73473 0.84575 0.83233 0.0
C1272 C 0.65071 0.92244 0.91261 0.0
C1273 C 0.61729 0.90133 0.92664 0.0
C1274 C 0.67041 0.90513 0.89106 0.0
C1275 C 0.6577 0.86605 0.88339 0.0
C1276 C 0.62455 0.84514 0.89824 0.0
C1277 C 0.60455 0.86246 0.91907 0.0
H1278 H 0.78675 0.67794 0.15992 0.0
H1279 H 0.86593 0.71273 0.22696 0.0
H1280 H 0.82089 0.64657 0.12359 0.0
H1281 H 0.89926 0.67984 0.1918 0.0
H1282 H 0.97037 0.65133 0.10953 0.0
H1283 H 0.93599 0.68249 0.14454 0.0
H1284 H 0.83815 0.5944 0.11459 0.0
H1285 H 0.87278 0.56356 0.0787 0.0
C1286 C 0.81163 0.67898 0.16671 0.0
C1287 C 0.82415 0.6982 0.19587 0.0
C1288 C 0.83098 0.66054 0.14616 0.0
C1289 C 0.86309 0.66057 0.15453 0.0
C1290 C 0.87517 0.67969 0.18407 0.0
C1291 C 0.85599 0.69836 0.20439 0.0
C1292 C 0.94152 0.63844 0.11031 0.0
C1293 C 0.92451 0.60478 0.09109 0.0
C1294 C 0.92168 0.65631 0.13069 0.0
C1295 C 0.88409 0.64112 0.13265 0.0
C1296 C 0.867 0.60732 0.11354 0.0
C1297 C 0.88691 0.58939 0.09309 0.0
H1298 H 0.38696 0.83195 0.2238 0.0
H1299 H 0.29976 0.80256 0.16557 0.0
H1300 H 0.42719 0.87212 0.18592 0.0
H1301 H 0.33935 0.84366 0.12892 0.0
H1302 H 0.40423 0.96007 0.10402 0.0
H1303 H 0.37312 0.91842 0.14253 0.0
H1304 H 0.4496 0.86587 0.11999 0.0
H1305 H 0.48123 0.90784 0.08027 0.0
C1306 C 0.37632 0.834 0.20302 0.0
C1307 C 0.33979 0.81486 0.1982 0.0
C1308 C 0.39942 0.85679 0.18133 0.0
C1309 C 0.38621 0.86107 0.15475 0.0
C1310 C 0.35008 0.84103 0.14944 0.0
C1311 C 0.32727 0.81788 0.17069 0.0
C1312 C 0.41479 0.93985 0.10712 0.0
C1313 C 0.44489 0.93679 0.08845 0.0
C1314 C 0.39687 0.91603 0.1293 0.0
C1315 C 0.40864 0.88866 0.13377 0.0
C1316 C 0.44002 0.8868 0.11676 0.0
C1317 C 0.45806 0.91075 0.09412 0.0
H1318 H 0.70643 0.22494 0.16868 0.0
H1319 H 0.74192 0.13755 0.17666 0.0
H1320 H 0.67826 0.19017 0.12182 0.0
H1321 H 0.71423 0.10269 0.12813 0.0
H1322 H 0.6075 0.03739 0.07638 0.0
H1323 H 0.65475 0.06906 0.11193 0.0
H1324 H 0.68665 0.16853 0.06819 0.0
H1325 H 0.63777 0.13737 0.03407 0.0
C1326 C 0.70877 0.19846 0.16019 0.0
C1327 C 0.72648 0.18407 0.17659 0.0
C1328 C 0.69293 0.17863 0.13283 0.0
C1329 C 0.6945 0.14386 0.12076 0.0
C1330 C 0.71262 0.12946 0.13681 0.0
C1331 C 0.72845 0.1494 0.16458 0.0
C1332 C 0.62533 0.06568 0.07377 0.0
C1333 C 0.61855 0.0854 0.05321 0.0
C1334 C 0.65256 0.08382 0.09408 0.0
C1335 C 0.67371 0.12171 0.0936 0.0
C1336 C 0.66991 0.1397 0.06991 0.0
C1337 C 0.64214 0.12189 0.05023 0.0
H1338 H 0.74708 0.65735 0.8168 0.0
H1339 H 0.66013 0.69132 0.81118 0.0
H1340 H 0.71227 0.62032 0.85796 0.0
H1341 H 0.62554 0.65489 0.85291 0.0
H1342 H 0.56283 0.55989 0.91314 0.0
H1343 H 0.59399 0.59345 0.86858 0.0
H1344 H 0.6935 0.63201 0.912 0.0
H1345 H 0.66291 0.59812 0.95566 0.0
C1346 C 0.72044 0.65673 0.8242 0.0
C1347 C 0.70645 0.6773 0.81064 0.0
C1348 C 0.70052 0.63572 0.84801 0.0
C1349 C 0.66618 0.63492 0.85912 0.0
C1350 C 0.65172 0.65455 0.84482 0.0
C1351 C 0.67161 0.67548 0.82085 0.0
C1352 C 0.59135 0.5756 0.91314 0.0
C1353 C 0.61036 0.57588 0.93788 0.0
C1354 C 0.60921 0.59493 0.88763 0.0
C1355 C 0.64643 0.61499 0.88638 0.0
C1356 C 0.66506 0.61605 0.91162 0.0
C1357 C 0.64735 0.59675 0.93689 0.0
H1358 H 0.35823 0.64723 0.87881 0.0
H1359 H 0.37018 0.58088 0.79058 0.0
H1360 H 0.40326 0.63352 0.89985 0.0
H1361 H 0.41512 0.56649 0.81186 0.0
H1362 H 0.49957 0.62421 0.92518 0.0
H1363 H 0.47001 0.64355 0.89074 0.0
H1364 H 0.40905 0.5288 0.8575 0.0
H1365 H 0.43835 0.50915 0.89206 0.0
C1366 C 0.37082 0.62996 0.86388 0.0
C1367 C 0.36074 0.61492 0.83321 0.0
C1368 C 0.39677 0.62237 0.87577 0.0
C1369 C 0.41281 0.59911 0.85739 0.0
C1370 C 0.40321 0.58457 0.82644 0.0
C1371 C 0.37765 0.59281 0.8143 0.0
C1372 C 0.48084 0.60299 0.90976 0.0
C1373 C 0.47091 0.56507 0.91184 0.0
C1374 C 0.46372 0.61416 0.89019 0.0
C1375 C 0.43683 0.58767 0.87192 0.0
C1376 C 0.42969 0.54981 0.87135 0.0
C1377 C 0.44649 0.53859 0.89121 0.0
H1378 H 0.3659 0.27826 0.80845 0.0
H1379 H 0.3177 0.36 0.82651 0.0
H1380 H 0.39784 0.30602 0.85583 0.0
H1381 H 0.34936 0.38764 0.87416 0.0
H1382 H 0.43335 0.34898 0.95424 0.0
H1383 H 0.3916 0.31751 0.91343 0.0
H1384 H 0.41134 0.42339 0.88472 0.0
H1385 H 0.45267 0.45455 0.92512 0.0
C1386 C 0.36175 0.30183 0.82286 0.0
C1387 C 0.33942 0.31703 0.81386 0.0
C1388 C 0.37988 0.31762 0.85007 0.0
C1389 C 0.37611 0.34901 0.86877 0.0
C1390 C 0.35314 0.36373 0.86003 0.0
C1391 C 0.33509 0.34798 0.83276 0.0
C1392 C 0.42838 0.36553 0.93948 0.0
C1393 C 0.44622 0.40436 0.94313 0.0
C1394 C 0.40458 0.3475 0.91604 0.0
C1395 C 0.39819 0.36796 0.89583 0.0
C1396 C 0.41515 0.40682 0.90021 0.0
C1397 C 0.43891 0.42475 0.92349 0.0
H1398 H 0.71578 0.37555 0.85939 0.0
H1399 H 0.64616 0.29514 0.91946 0.0
H1400 H 0.73078 0.42264 0.90448 0.0
H1401 H 0.65799 0.34315 0.96394 0.0
H1402 H 0.6277 0.41362 0.02354 0.0
H1403 H 0.67625 0.39322 1.00209 0.0
H1404 H 0.69322 0.45267 0.92285 0.0
H1405 H 0.64705 0.47494 0.94577 0.0
C1406 C 0.70424 0.36734 0.88223 0.0
C1407 C 0.67792 0.33172 0.88542 0.0
C1408 C 0.71274 0.3948 0.90827 0.0
C1409 C 0.69376 0.38778 0.93761 0.0
C1410 C 0.67251 0.35053 0.94168 0.0
C1411 C 0.66487 0.32278 0.91583 0.0
C1412 C 0.64363 0.42414 1.00259 0.0
C1413 C 0.63301 0.4442 0.98527 0.0
C1414 C 0.67122 0.41222 0.99007 0.0
C1415 C 0.68629 0.41822 0.95928 0.0
C1416 C 0.68129 0.44576 0.94596 0.0
C1417 C 0.65457 0.45875 0.95906 0.0
H1418 H 0.66154 0.4096 0.22218 0.0
H1419 H 0.69896 0.37802 0.12747 0.0
H1420 H 0.61683 0.42487 0.2013 0.0
H1421 H 0.65373 0.39209 0.10675 0.0
H1422 H 0.54441 0.38193 0.0854 0.0
H1423 H 0.57706 0.36343 0.11764 0.0
H1424 H 0.62994 0.47776 0.15705 0.0
H1425 H 0.59805 0.49678 0.12416 0.0
C1426 C 0.65998 0.40581 0.19696 0.0
C1427 C 0.68367 0.393 0.1763 0.0
C1428 C 0.63452 0.41442 0.18513 0.0
C1429 C 0.63183 0.40924 0.15257 0.0
C1430 C 0.65518 0.3959 0.13199 0.0
C1431 C 0.68113 0.38818 0.14375 0.0
C1432 C 0.5618 0.40307 0.10187 0.0
C1433 C 0.56885 0.44091 0.10203 0.0
C1434 C 0.58068 0.39242 0.1201 0.0
C1435 C 0.60611 0.41929 0.13942 0.0
C1436 C 0.61033 0.45663 0.1423 0.0
C1437 C 0.592 0.46743 0.12357 0.0
H1438 H 0.681 0.735 0.20094 0.0
H1439 H 0.71312 0.64212 0.19433 0.0
H1440 H 0.64635 0.70505 0.15596 0.0
H1441 H 0.67566 0.61026 0.15064 0.0
H1442 H 0.63112 0.5771 0.05405 0.0
H1443 H 0.6694 0.60838 0.09723 0.0
H1444 H 0.59419 0.65832 0.14064 0.0
H1445 H 0.5572 0.62838 0.09685 0.0
C1446 C 0.68063 0.70809 0.1899 0.0
C1447 C 0.70031 0.69126 0.20096 0.0
C1448 C 0.66015 0.69048 0.16429 0.0
C1449 C 0.65789 0.65499 0.1495 0.0
C1450 C 0.67713 0.6378 0.16098 0.0
C1451 C 0.69823 0.65583 0.18634 0.0
C1452 C 0.62284 0.59467 0.07287 0.0
C1453 C 0.59115 0.60023 0.07214 0.0
C1454 C 0.64474 0.61261 0.09774 0.0
C1455 C 0.63506 0.63601 0.12265 0.0
C1456 C 0.60318 0.64134 0.12168 0.0
C1457 C 0.5818 0.62405 0.09659 0.0
H1458 H 0.33439 0.54804 0.20038 0.0
H1459 H 0.3609 0.64461 0.15394 0.0
H1460 H 0.32446 0.50884 0.14934 0.0
H1461 H 0.3508 0.607 0.10472 0.0
H1462 H 0.41568 0.50411 0.07282 0.0
H1463 H 0.36735 0.50111 0.11237 0.0
H1464 H 0.33405 0.56516 0.06149 0.0
H1465 H 0.38585 0.57186 0.02375 0.0
C1466 C 0.33739 0.5608 0.1795 0.0
C1467 C 0.34942 0.59956 0.18127 0.0
C1468 C 0.33139 0.53837 0.15027 0.0
C1469 C 0.33809 0.55453 0.12237 0.0
C1470 C 0.34531 0.59275 0.12508 0.0
C1471 C 0.35143 0.61489 0.1539 0.0
C1472 C 0.39732 0.51659 0.0696 0.0
C1473 C 0.40535 0.54012 0.04668 0.0
C1474 C 0.36906 0.51454 0.09223 0.0
C1475 C 0.34868 0.53599 0.09176 0.0
C1476 C 0.35119 0.55096 0.06391 0.0
C1477 C 0.38072 0.55485 0.04224 0.0
H1478 H 0.30401 0.36161 0.20371 0.0
H1479 H 0.3791 0.30839 0.19801 0.0
H1480 H 0.33988 0.39747 0.16203 0.0
H1481 H 0.4151 0.34438 0.15619 0.0
H1482 H 0.48266 0.44053 0.09604 0.0
H1483 H 0.45253 0.40884 0.14182 0.0
H1484 H 0.35061 0.37898 0.10507 0.0
H1485 H 0.38029 0.40991 0.05955 0.0
C1486 C 0.32847 0.35797 0.19387 0.0
C1487 C 0.33846 0.33184 0.20392 0.0
C1488 C 0.34891 0.37833 0.16983 0.0
C1489 C 0.38005 0.37333 0.15541 0.0
C1490 C 0.3913 0.34892 0.16683 0.0
C1491 C 0.37069 0.32835 0.19083 0.0
C1492 C 0.45389 0.42677 0.0975 0.0
C1493 C 0.43407 0.42768 0.07383 0.0
C1494 C 0.43662 0.40873 0.12383 0.0
C1495 C 0.39912 0.39176 0.12729 0.0
C1496 C 0.37946 0.39236 0.10347 0.0
C1497 C 0.39663 0.40993 0.07715 0.0
H1498 H 0.87802 0.73693 0.70446 0.0
H1499 H 0.77793 0.64648 0.68478 0.0
H1500 H 0.90999 0.70232 0.67133 0.0
H1501 H 0.80959 0.61344 0.64795 0.0
H1502 H 0.87713 0.54635 0.60244 0.0
H1503 H 0.84394 0.57852 0.63861 0.0
H1504 H 0.92796 0.68393 0.62246 0.0
H1505 H 0.96165 0.65174 0.58848 0.0
C1506 C 0.86271 0.70952 0.69307 0.0
C1507 C 0.82529 0.69439 0.69798 0.0
C1508 C 0.88114 0.6898 0.67315 0.0
C1509 C 0.86279 0.65472 0.65626 0.0
C1510 C 0.82513 0.63989 0.66072 0.0
C1511 C 0.80674 0.65922 0.68154 0.0
C1512 C 0.88855 0.5764 0.60692 0.0
C1513 C 0.92233 0.59629 0.5927 0.0
C1514 C 0.86932 0.59506 0.62753 0.0
C1515 C 0.88298 0.63425 0.63409 0.0
C1516 C 0.91656 0.6539 0.61923 0.0
C1517 C 0.936 0.63529 0.59928 0.0
H1518 H 0.35523 0.86883 0.73074 0.0
H1519 H 0.31968 0.77552 0.65765 0.0
H1520 H 0.39511 0.90717 0.69128 0.0
H1521 H 0.35933 0.8133 0.61868 0.0
H1522 H 0.38892 0.90905 0.55906 0.0
H1523 H 0.35665 0.86916 0.59894 0.0
H1524 H 0.4515 0.91006 0.64944 0.0
H1525 H 0.48445 0.95019 0.60866 0.0
C1526 C 0.35597 0.85661 0.70631 0.0
C1527 C 0.33437 0.8193 0.6972 0.0
C1528 C 0.37907 0.87831 0.68387 0.0
C1529 C 0.38039 0.86312 0.65196 0.0
C1530 C 0.35885 0.82576 0.64307 0.0
C1531 C 0.33616 0.80414 0.6654 0.0
C1532 C 0.4031 0.90931 0.57847 0.0
C1533 C 0.43916 0.93276 0.58081 0.0
C1534 C 0.38461 0.88638 0.60127 0.0
C1535 C 0.40149 0.88663 0.62736 0.0
C1536 C 0.43783 0.90958 0.62962 0.0
C1537 C 0.4567 0.9322 0.60624 0.0
H1538 H 0.17408 0.43196 0.69963 0.0
H1539 H 0.1976 0.3565 0.62321 0.0
H1540 H 0.12514 0.43021 0.67237 0.0
H1541 H 0.14927 0.35563 0.59513 0.0
H1542 H 0.05546 0.35709 0.55201 0.0
H1543 H 0.08571 0.34283 0.59007 0.0
H1544 H 0.12998 0.45942 0.6272 0.0
H1545 H 0.09973 0.47319 0.58997 0.0
C1546 C 0.16834 0.41458 0.67713 0.0
C1547 C 0.18987 0.3949 0.6632 0.0
C1548 C 0.1404 0.41359 0.66148 0.0
C1549 C 0.13375 0.39341 0.63127 0.0
C1550 C 0.15355 0.37135 0.61841 0.0
C1551 C 0.18134 0.37197 0.63435 0.0
C1552 C 0.07072 0.37932 0.56909 0.0
C1553 C 0.07536 0.41625 0.56807 0.0
C1554 C 0.08834 0.37125 0.5906 0.0
C1555 C 0.11037 0.39997 0.61164 0.0
C1556 C 0.11288 0.43647 0.61176 0.0
C1557 C 0.09567 0.44447 0.59025 0.0
H1558 H 0.67567 0.13962 0.71758 0.0
H1559 H 0.76954 0.19642 0.65947 0.0
H1560 H 0.64503 0.10479 0.67048 0.0
H1561 H 0.73842 0.16225 0.61204 0.0
H1562 H 0.63613 0.1423 0.55479 0.0
H1563 H 0.6808 0.16698 0.59349 0.0
H1564 H 0.64904 0.05746 0.61938 0.0
H1565 H 0.60489 0.03246 0.58003 0.0
C1566 C 0.69 0.14387 0.69466 0.0
C1567 C 0.72497 0.17037 0.69207 0.0
C1568 C 0.67253 0.12395 0.66772 0.0
C1569 C 0.68937 0.13075 0.63759 0.0
C1570 C 0.72489 0.15636 0.63497 0.0
C1571 C 0.74275 0.17566 0.66204 0.0
C1572 C 0.63948 0.12326 0.56799 0.0
C1573 C 0.61688 0.08545 0.56441 0.0
C1574 C 0.66511 0.1374 0.59013 0.0
C1575 C 0.66818 0.11419 0.60962 0.0
C1576 C 0.64716 0.07597 0.6047 0.0
C1577 C 0.62205 0.06164 0.58203 0.0
H1578 H 0.82306 0.36634 0.3202 0.0
H1579 H 0.81184 0.26605 0.35441 0.0
H1580 H 0.84673 0.40254 0.36907 0.0
H1581 H 0.84046 0.30207 0.40078 0.0
H1582 H 0.89393 0.36521 0.48321 0.0
H1583 H 0.84656 0.33565 0.4475 0.0
H1584 H 0.8961 0.42799 0.39338 0.0
H1585 H 0.93987 0.45875 0.43137 0.0
C1586 C 0.82564 0.35203 0.33823 0.0
C1587 C 0.81548 0.31334 0.33344 0.0
C1588 C 0.83996 0.37289 0.36618 0.0
C1589 C 0.84639 0.35578 0.3893 0.0
C1590 C 0.83551 0.31681 0.38443 0.0
C1591 C 0.81966 0.29592 0.35723 0.0
C1592 C 0.89344 0.37952 0.46429 0.0
C1593 C 0.92041 0.4139 0.4597 0.0
C1594 C 0.86679 0.36236 0.44331 0.0
C1595 C 0.86798 0.37829 0.4163 0.0
C1596 C 0.89356 0.41435 0.41356 0.0
C1597 C 0.91906 0.43219 0.43539 0.0
H1598 H 0.67443 0.763 0.33167 0.0
H1599 H 0.75652 0.86859 0.31426 0.0
H1600 H 0.64198 0.79483 0.36872 0.0
H1601 H 0.72272 0.90068 0.34935 0.0
H1602 H 0.66945 0.94844 0.43696 0.0
H1603 H 0.70416 0.91716 0.4018 0.0
H1604 H 0.60639 0.82913 0.37152 0.0
H1605 H 0.57198 0.85957 0.40727 0.0
C1606 C 0.68565 0.79304 0.33577 0.0
C1607 C 0.71827 0.81307 0.32 0.0
C1608 C 0.66666 0.81146 0.3567 0.0
C1609 C 0.67936 0.8506 0.36211 0.0
C1610 C 0.71209 0.87062 0.34629 0.0
C1611 C 0.73133 0.85213 0.3257 0.0
C1612 C 0.65536 0.92242 0.42279 0.0
C1613 C 0.61778 0.90661 0.42523 0.0
C1614 C 0.67532 0.90447 0.4024 0.0
C1615 C 0.65829 0.87026 0.38373 0.0
C1616 C 0.6207 0.85488 0.38588 0.0
C1617 C 0.60083 0.87266 0.40633 0.0
H1618 H 0.24064 0.69661 0.35303 0.0
H1619 H 0.15876 0.65903 0.28774 0.0
H1620 H 0.19796 0.65984 0.39111 0.0
H1621 H 0.11567 0.62328 0.32636 0.0
H1622 H 0.06864 0.52714 0.38972 0.0
H1623 H 0.10403 0.56782 0.35066 0.0
H1624 H 0.14471 0.65796 0.42554 0.0
H1625 H 0.10956 0.61688 0.46435 0.0
C1626 C 0.21358 0.68044 0.34676 0.0
C1627 C 0.20324 0.68043 0.31722 0.0
C1628 C 0.18893 0.6598 0.36879 0.0
C1629 C 0.15329 0.63886 0.36186 0.0
C1630 C 0.14294 0.63894 0.33234 0.0
C1631 C 0.16763 0.65955 0.31028 0.0
C1632 C 0.08413 0.55606 0.39758 0.0
C1633 C 0.08605 0.5693 0.42978 0.0
C1634 C 0.10454 0.57931 0.37532 0.0
C1635 C 0.12755 0.616 0.38504 0.0
C1636 C 0.12768 0.6297 0.41734 0.0
C1637 C 0.10719 0.60647 0.43952 0.0
H1638 H 0.42649 0.22167 0.37421 0.0
H1639 H 0.42389 0.1299 0.30209 0.0
H1640 H 0.44794 0.19555 0.41033 0.0
H1641 H 0.44631 0.10449 0.33774 0.0
H1642 H 0.44136 0.04803 0.42339 0.0
H1643 H 0.42461 0.07513 0.3852 0.0
H1644 H 0.50089 0.18341 0.41858 0.0
H1645 H 0.51742 0.15627 0.45739 0.0
C1646 C 0.43048 0.19594 0.36608 0.0
C1647 C 0.42353 0.17789 0.33525 0.0
C1648 C 0.44321 0.18123 0.38662 0.0
C1649 C 0.44905 0.14804 0.37685 0.0
C1650 C 0.44195 0.12999 0.34607 0.0
C1651 C 0.42937 0.14473 0.32555 0.0
C1652 C 0.45499 0.07756 0.42236 0.0
C1653 C 0.48072 0.09997 0.44353 0.0
C1654 C 0.44541 0.09309 0.40036 0.0
C1655 C 0.46122 0.13148 0.39896 0.0
C1656 C 0.48787 0.1538 0.41937 0.0
C1657 C 0.49765 0.13818 0.44133 0.0
H1658 H 0.63037 0.88387 0.7082 0.0
H1659 H 0.61743 0.78772 0.63817 0.0
H1660 H 0.60743 0.90995 0.67363 0.0
H1661 H 0.59572 0.81462 0.60289 0.0
H1662 H 0.52573 0.85679 0.55976 0.0
H1663 H 0.54424 0.82963 0.59717 0.0
H1664 H 0.62536 0.93685 0.62558 0.0
H1665 H 0.60648 0.96404 0.589 0.0
C1666 C 0.62264 0.86829 0.68538 0.0
C1667 C 0.62554 0.8336 0.67604 0.0
C1668 C 0.60977 0.88341 0.66543 0.0
C1669 C 0.59956 0.86433 0.63552 0.0
C1670 C 0.60283 0.82979 0.62597 0.0
C1671 C 0.61575 0.81462 0.64599 0.0
C1672 C 0.54702 0.87468 0.57445 0.0
C1673 C 0.5646 0.9126 0.57134 0.0
C1674 C 0.55794 0.85902 0.59559 0.0
C1675 C 0.5865 0.88099 0.61418 0.0
C1676 C 0.60309 0.91914 0.61186 0.0
C1677 C 0.59228 0.93474 0.59076 0.0
H1678 H 0.66902 0.14893 0.28327 0.0
H1679 H 0.74196 0.21224 0.3544 0.0
H1680 H 0.62694 0.11346 0.32288 0.0
H1681 H 0.70017 0.17654 0.39405 0.0
H1682 H 0.60446 0.12627 0.46271 0.0
H1683 H 0.6389 0.16545 0.42201 0.0
H1684 H 0.62683 0.06693 0.35504 0.0
H1685 H 0.5929 0.02822 0.39574 0.0
C1686 C 0.67591 0.15528 0.30744 0.0
C1687 C 0.70855 0.18333 0.31589 0.0
C1688 C 0.65194 0.13494 0.33007 0.0
C1689 C 0.66013 0.14235 0.36164 0.0
C1690 C 0.69284 0.17057 0.37004 0.0
C1691 C 0.71694 0.19066 0.34732 0.0
C1692 C 0.60846 0.11324 0.43902 0.0
C1693 C 0.59582 0.07442 0.43205 0.0
C1694 C 0.62843 0.13553 0.41587 0.0
C1695 C 0.63573 0.11925 0.38536 0.0
C1696 C 0.62142 0.08033 0.37818 0.0
C1697 C 0.60198 0.05816 0.4014 0.0
H1698 H 0.83317 0.61718 0.37404 0.0
H1699 H 0.93403 0.66379 0.32024 0.0
H1700 H 0.86256 0.59941 0.40996 0.0
H1701 H 0.96339 0.64546 0.35596 0.0
H1702 H 1.0042 0.63364 0.44813 0.0
H1703 H 0.97906 0.65679 0.41241 0.0
H1704 H 0.88963 0.5516 0.40286 0.0
H1705 H 0.91439 0.52845 0.43817 0.0
C1706 C 0.86171 0.62412 0.37018 0.0
C1707 C 0.88126 0.64159 0.34421 0.0
C1708 C 0.87847 0.61361 0.39053 0.0
C1709 C 0.91518 0.62058 0.38546 0.0
C1710 C 0.93508 0.63971 0.36041 0.0
C1711 C 0.91825 0.64996 0.33989 0.0
C1712 C 0.97949 0.61527 0.43799 0.0
C1713 C 0.96121 0.57929 0.44626 0.0
C1714 C 0.96506 0.62858 0.41764 0.0
C1715 C 0.93204 0.60623 0.4054 0.0
C1716 C 0.91468 0.56978 0.41255 0.0
C1717 C 0.92911 0.55644 0.43261 0.0
H1718 H 0.35674 0.86091 0.3051 0.0
H1719 H 0.26969 0.79712 0.36583 0.0
H1720 H 0.38716 0.89985 0.35094 0.0
H1721 H 0.30057 0.83585 0.41214 0.0
H1722 H 0.40492 0.86818 0.46777 0.0
H1723 H 0.35855 0.8395 0.43095 0.0
H1724 H 0.385 0.9457 0.40008 0.0
H1725 H 0.43148 0.97461 0.43727 0.0
C1726 C 0.34376 0.85586 0.32837 0.0
C1727 C 0.3109 0.82615 0.33202 0.0
C1728 C 0.36107 0.87827 0.35463 0.0
C1729 C 0.34627 0.87099 0.38519 0.0
C1730 C 0.31257 0.84217 0.38887 0.0
C1731 C 0.29481 0.82019 0.36246 0.0
C1732 C 0.4001 0.88568 0.45386 0.0
C1733 C 0.42208 0.9236 0.45523 0.0
C1734 C 0.37338 0.86924 0.43283 0.0
C1735 C 0.36833 0.89025 0.41238 0.0
C1736 C 0.38847 0.92877 0.41542 0.0
C1737 C 0.41489 0.94538 0.43688 0.0
H1738 H 0.23051 0.3569 0.28127 0.0
H1739 H 0.20436 0.27605 0.34488 0.0
H1740 H 0.19548 0.38812 0.31705 0.0
H1741 H 0.17005 0.3071 0.38044 0.0
H1742 H 0.07835 0.34543 0.41787 0.0
H1743 H 0.11347 0.3168 0.38047 0.0
H1744 H 0.19672 0.42463 0.37267 0.0
H1745 H 0.16153 0.45357 0.41048 0.0
C1746 C 0.21735 0.34584 0.30284 0.0
C1747 C 0.22051 0.31419 0.31032 0.0
C1748 C 0.19751 0.36384 0.32344 0.0
C1749 C 0.17991 0.35014 0.35167 0.0
C1750 C 0.18295 0.31829 0.35886 0.0
C1751 C 0.20298 0.30068 0.33856 0.0
C1752 C 0.10405 0.36321 0.40815 0.0
C1753 C 0.11702 0.40192 0.41737 0.0
C1754 C 0.12431 0.3467 0.38677 0.0
C1755 C 0.158 0.36835 0.37356 0.0
C1756 C 0.17078 0.40715 0.38222 0.0
C1757 C 0.15068 0.4237 0.40405 0.0
H1758 H 0.29631 0.19636 0.65268 0.0
H1759 H 0.35541 0.19944 0.72852 0.0
H1760 H 0.32971 0.164 0.61619 0.0
H1761 H 0.38794 0.16628 0.69276 0.0
H1762 H 0.46743 0.1458 0.61394 0.0
H1763 H 0.43311 0.17743 0.64866 0.0
H1764 H 0.33728 0.10296 0.60476 0.0
H1765 H 0.37187 0.07113 0.56958 0.0
C1766 C 0.31652 0.1902 0.66146 0.0
C1767 C 0.32316 0.20017 0.69342 0.0
C1768 C 0.33536 0.17127 0.64072 0.0
C1769 C 0.36154 0.16236 0.65149 0.0
C1770 C 0.36823 0.17282 0.68349 0.0
C1771 C 0.3493 0.19143 0.70412 0.0
C1772 C 0.43903 0.13598 0.6116 0.0
C1773 C 0.42253 0.10575 0.58884 0.0
C1774 C 0.41926 0.1541 0.63171 0.0
C1775 C 0.38234 0.14282 0.62962 0.0
C1776 C 0.36571 0.11263 0.60686 0.0
C1777 C 0.38551 0.09417 0.58686 0.0
H1778 H 0.883 0.32994 0.72326 0.0
H1779 H 0.80604 0.27997 0.65318 0.0
H1780 H 0.92476 0.36906 0.68593 0.0
H1781 H 0.8479 0.31936 0.61589 0.0
H1782 H 0.94319 0.37665 0.54902 0.0
H1783 H 0.9098 0.33183 0.5858 0.0
H1784 H 0.92244 0.42236 0.66157 0.0
H1785 H 0.95514 0.46689 0.62462 0.0
C1786 C 0.87515 0.32693 0.69976 0.0
C1787 C 0.84107 0.30209 0.69124 0.0
C1788 C 0.89903 0.34948 0.67847 0.0
C1789 C 0.88958 0.34728 0.64806 0.0
C1790 C 0.85606 0.32137 0.63908 0.0
C1791 C 0.83201 0.29903 0.66049 0.0
C1792 C 0.93972 0.3867 0.57375 0.0
C1793 C 0.95214 0.42496 0.58431 0.0
C1794 C 0.92032 0.3612 0.59466 0.0
C1795 C 0.9135 0.37365 0.6265 0.0
C1796 C 0.92763 0.41196 0.63725 0.0
C1797 C 0.94642 0.43742 0.61623 0.0
H1798 H 0.23865 0.6368 0.67834 0.0
H1799 H 0.20212 0.72276 0.66832 0.0
H1800 H 0.21254 0.60138 0.62935 0.0
H1801 H 0.17541 0.68737 0.62098 0.0
H1802 H 0.13855 0.63437 0.53209 0.0
H1803 H 0.18598 0.66627 0.56762 0.0
H1804 H 0.15421 0.56665 0.61112 0.0
H1805 H 0.10848 0.53435 0.57418 0.0
C1806 C 0.22524 0.6482 0.66574 0.0
C1807 C 0.22264 0.6827 0.67728 0.0
C1808 C 0.2103 0.62794 0.6377 0.0
C1809 C 0.19243 0.6418 0.62086 0.0
C1810 C 0.18998 0.67627 0.63258 0.0
C1811 C 0.20495 0.69644 0.66023 0.0
C1812 C 0.14278 0.619 0.54843 0.0
C1813 C 0.11962 0.58226 0.55092 0.0
C1814 C 0.16966 0.63726 0.56897 0.0
C1815 C 0.17293 0.61943 0.59304 0.0
C1816 C 0.1524 0.58132 0.59302 0.0
C1817 C 0.12611 0.56277 0.57186 0.0
loop_
_geom_bond_atom_site_label_1
_geom_bond_atom_site_label_2
_geom_bond_distance
_geom_bond_site_symmetry_2
_ccdc_geom_bond_type
Eu0 N29 2.600 . S
Eu0 N35 2.562 . S
Eu0 O44 2.462 . S
Eu0 O45 2.373 . S
Eu0 O47 2.432 . S
Eu0 O48 2.291 . S
Eu0 O52 2.335 . S
Eu0 O55 2.372 . S
Eu0 C64 2.787 . S
C1 N2 1.365 . S
C1 C4 1.405 . S
C1 C8 1.448 . S
N2 C1 1.365 . S
N2 C5 1.319 . S
N2 Eu11 2.600 . S
C3 C5 1.397 . S
C3 C6 1.367 . S
C3 H23 0.931 . S
C4 C1 1.405 . S
C4 C6 1.403 . S
C4 C10 1.439 . S
C5 N2 1.319 . S
C5 C3 1.397 . S
C5 H16 0.930 . S
C6 C3 1.367 . S
C6 C4 1.403 . S
C6 H27 0.929 . S
C7 C8 1.430 . S
C7 C9 1.387 . S
C7 C13 1.404 . S
C8 C1 1.448 . S
C8 C7 1.430 . S
C8 N12 1.351 . S
C9 C7 1.387 . S
C9 C10 1.374 . S
C9 H24 0.931 . S
C10 C4 1.439 . S
C10 C9 1.374 . S
C10 H25 0.931 . S
Eu11 N2 2.600 . S
Eu11 N12 2.562 . S
Eu11 O46 2.335 . S
Eu11 O49 2.372 . S
Eu11 O50 2.462 . S
Eu11 O51 2.373 . S
Eu11 O53 2.432 . S
Eu11 O54 2.291 . S
Eu11 C75 2.787 . S
N12 C8 1.351 . S
N12 Eu11 2.562 . S
N12 C14 1.325 . S
C13 C7 1.404 . S
C13 C15 1.366 . S
C13 H21 0.930 . S
C14 N12 1.325 . S
C14 C15 1.416 . S
C14 H20 0.929 . S
C15 C13 1.366 . S
C15 C14 1.416 . S
C15 H17 0.930 . S
H16 C5 0.930 . S
H17 C15 0.930 . S
H18 C33 0.930 . S
H19 C40 0.930 . S
H20 C14 0.929 . S
H21 C13 0.930 . S
H22 C36 0.929 . S
H23 C3 0.931 . S
H24 C9 0.931 . S
H25 C10 0.931 . S
H26 C31 0.931 . S
H27 C6 0.929 . S
H28 C39 0.930 . S
N29 Eu0 2.600 . S
N29 C30 1.365 . S
N29 C33 1.319 . S
C30 N29 1.365 . S
C30 C32 1.405 . S
C30 C38 1.448 . S
C31 H26 0.931 . S
C31 C33 1.397 . S
C31 C34 1.367 . S
C32 C30 1.405 . S
C32 C34 1.403 . S
C32 C65 1.439 . S
C33 H18 0.930 . S
C33 N29 1.319 . S
C33 C31 1.397 . S
C34 C31 1.367 . S
C34 C32 1.403 . S
C34 H41 0.929 . S
N35 Eu0 2.562 . S
N35 C36 1.325 . S
N35 C38 1.351 . S
C36 H22 0.929 . S
C36 N35 1.325 . S
C36 C40 1.416 . S
C37 C38 1.430 . S
C37 C39 1.404 . S
C37 C66 1.387 . S
C38 C30 1.448 . S
C38 N35 1.351 . S
C38 C37 1.430 . S
C39 H28 0.930 . S
C39 C37 1.404 . S
C39 C40 1.366 . S
C40 H19 0.930 . S
C40 C36 1.416 . S
C40 C39 1.366 . S
H41 C34 0.929 . S
H42 C65 0.931 . S
H43 C66 0.931 . S
O44 Eu0 2.462 . S
O44 C64 1.252 . S
O45 Eu0 2.373 . S
O45 C56 1.249 . S
O46 Eu11 2.335 . S
O46 C56 1.264 . S
O47 Eu0 2.432 . S
O47 C64 1.268 . S
O48 Eu0 2.291 . S
O48 C63 1.255 . S
O49 Eu11 2.372 . S
O49 C63 1.257 . S
O50 Eu11 2.462 . S
O50 C75 1.252 . S
O51 Eu11 2.373 . S
O51 C67 1.249 . S
O52 Eu0 2.335 . S
O52 C67 1.264 . S
O53 Eu11 2.432 . S
O53 C75 1.268 . S
O54 Eu11 2.291 . S
O54 C74 1.255 . S
O55 Eu0 2.372 . S
O55 C74 1.257 . S
C56 O45 1.249 . S
C56 O46 1.264 . S
C57 C60 1.382 . S
C57 C62 1.390 . S
C57 C64 1.506 . S
C58 C59 1.398 . S
C58 C62 1.392 . S
C59 C58 1.398 . S
C59 C61 1.372 . S
C59 H76 0.931 . S
C60 C57 1.382 . S
C60 C61 1.390 . S
C60 H77 0.931 . S
C61 C59 1.372 . S
C61 C60 1.390 . S
C61 H78 0.929 . S
C62 C57 1.390 . S
C62 C58 1.392 . S
C62 H79 0.930 . S
C63 O48 1.255 . S
C63 O49 1.257 . S
C64 Eu0 2.787 . S
C64 O44 1.252 . S
C64 O47 1.268 . S
C64 C57 1.506 . S
C65 C32 1.439 . S
C65 H42 0.931 . S
C65 C66 1.374 . S
C66 C37 1.387 . S
C66 H43 0.931 . S
C66 C65 1.374 . S
C67 O51 1.249 . S
C67 O52 1.264 . S
C68 C71 1.382 . S
C68 C72 1.390 . S
C68 C75 1.506 . S
C69 C70 1.398 . S
C69 C72 1.392 . S
C70 C69 1.398 . S
C70 C73 1.372 . S
C70 H80 0.931 . S
C71 C68 1.382 . S
C71 C73 1.390 . S
C71 H81 0.931 . S
C72 C68 1.390 . S
C72 C69 1.392 . S
C72 H82 0.930 . S
C73 C70 1.372 . S
C73 C71 1.390 . S
C73 H83 0.929 . S
C74 O54 1.255 . S
C74 O55 1.257 . S
C75 Eu11 2.787 . S
C75 O50 1.252 . S
C75 O53 1.268 . S
C75 C68 1.506 . S
H76 C59 0.931 . S
H77 C60 0.931 . S
H78 C61 0.929 . S
H79 C62 0.930 . S
H80 C70 0.931 . S
H81 C71 0.931 . S
H82 C72 0.930 . S
H83 C73 0.929 . S
Eu84 N113 2.600 . S
Eu84 N119 2.562 . S
Eu84 O128 2.462 . S
Eu84 O129 2.373 . S
Eu84 O131 2.432 . S
Eu84 O132 2.291 . S
Eu84 O136 2.335 . S
Eu84 O139 2.372 . S
Eu84 C148 2.787 . S
C85 N86 1.365 . S
C85 C88 1.405 . S
C85 C92 1.448 . S
N86 C85 1.365 . S
N86 C89 1.319 . S
N86 Eu95 2.600 . S
C87 C89 1.397 . S
C87 C90 1.367 . S
C87 H107 0.931 . S
C88 C85 1.405 . S
C88 C90 1.403 . S
C88 C94 1.439 . S
C89 N86 1.319 . S
C89 C87 1.397 . S
C89 H100 0.930 . S
C90 C87 1.367 . S
C90 C88 1.403 . S
C90 H111 0.929 . S
C91 C92 1.430 . S
C91 C93 1.387 . S
C91 C97 1.404 . S
C92 C85 1.448 . S
C92 C91 1.430 . S
C92 N96 1.351 . S
C93 C91 1.387 . S
C93 C94 1.374 . S
C93 H108 0.931 . S
C94 C88 1.439 . S
C94 C93 1.374 . S
C94 H109 0.931 . S
Eu95 N86 2.600 . S
Eu95 N96 2.562 . S
Eu95 O130 2.335 . S
Eu95 O133 2.372 . S
Eu95 O134 2.462 . S
Eu95 O135 2.373 . S
Eu95 O137 2.432 . S
Eu95 O138 2.291 . S
Eu95 C159 2.787 . S
N96 C92 1.351 . S
N96 Eu95 2.562 . S
N96 C98 1.325 . S
C97 C91 1.404 . S
C97 C99 1.366 . S
C97 H105 0.930 . S
C98 N96 1.325 . S
C98 C99 1.416 . S
C98 H104 0.929 . S
C99 C97 1.366 . S
C99 C98 1.416 . S
C99 H101 0.930 . S
H100 C89 0.930 . S
H101 C99 0.930 . S
H102 C117 0.930 . S
H103 C124 0.930 . S
H104 C98 0.929 . S
H105 C97 0.930 . S
H106 C120 0.929 . S
H107 C87 0.931 . S
H108 C93 0.931 . S
H109 C94 0.931 . S
H110 C115 0.931 . S
H111 C90 0.929 . S
H112 C123 0.930 . S
N113 Eu84 2.600 . S
N113 C114 1.365 . S
N113 C117 1.319 . S
C114 N113 1.365 . S
C114 C116 1.405 . S
C114 C122 1.448 . S
C115 H110 0.931 . S
C115 C117 1.397 . S
C115 C118 1.367 . S
C116 C114 1.405 . S
C116 C118 1.403 . S
C116 C149 1.439 . S
C117 H102 0.930 . S
C117 N113 1.319 . S
C117 C115 1.397 . S
C118 C115 1.367 . S
C118 C116 1.403 . S
C118 H125 0.929 . S
N119 Eu84 2.562 . S
N119 C120 1.325 . S
N119 C122 1.351 . S
C120 H106 0.929 . S
C120 N119 1.325 . S
C120 C124 1.416 . S
C121 C122 1.430 . S
C121 C123 1.404 . S
C121 C150 1.387 . S
C122 C114 1.448 . S
C122 N119 1.351 . S
C122 C121 1.430 . S
C123 H112 0.930 . S
C123 C121 1.404 . S
C123 C124 1.366 . S
C124 H103 0.930 . S
C124 C120 1.416 . S
C124 C123 1.366 . S
H125 C118 0.929 . S
H126 C149 0.931 . S
H127 C150 0.931 . S
O128 Eu84 2.462 . S
O128 C148 1.252 . S
O129 Eu84 2.373 . S
O129 C140 1.249 . S
O130 Eu95 2.335 . S
O130 C140 1.264 . S
O131 Eu84 2.432 . S
O131 C148 1.268 . S
O132 Eu84 2.291 . S
O132 C147 1.255 . S
O133 Eu95 2.372 . S
O133 C147 1.257 . S
O134 Eu95 2.462 . S
O134 C159 1.252 . S
O135 Eu95 2.373 . S
O135 C151 1.249 . S
O136 Eu84 2.335 . S
O136 C151 1.264 . S
O137 Eu95 2.432 . S
O137 C159 1.268 . S
O138 Eu95 2.291 . S
O138 C158 1.255 . S
O139 Eu84 2.372 . S
O139 C158 1.257 . S
C140 O129 1.249 . S
C140 O130 1.264 . S
C141 C144 1.382 . S
C141 C146 1.390 . S
C141 C148 1.506 . S
C142 C143 1.398 . S
C142 C146 1.392 . S
C143 C142 1.398 . S
C143 C145 1.372 . S
C143 H160 0.931 . S
C144 C141 1.382 . S
C144 C145 1.390 . S
C144 H161 0.931 . S
C145 C143 1.372 . S
C145 C144 1.390 . S
C145 H162 0.929 . S
C146 C141 1.390 . S
C146 C142 1.392 . S
C146 H163 0.930 . S
C147 O132 1.255 . S
C147 O133 1.257 . S
C148 Eu84 2.787 . S
C148 O128 1.252 . S
C148 O131 1.268 . S
C148 C141 1.506 . S
C149 C116 1.439 . S
C149 H126 0.931 . S
C149 C150 1.374 . S
C150 C121 1.387 . S
C150 H127 0.931 . S
C150 C149 1.374 . S
C151 O135 1.249 . S
C151 O136 1.264 . S
C152 C155 1.382 . S
C152 C156 1.390 . S
C152 C159 1.506 . S
C153 C154 1.398 . S
C153 C156 1.392 . S
C154 C153 1.398 . S
C154 C157 1.372 . S
C154 H164 0.931 . S
C155 C152 1.382 . S
C155 C157 1.390 . S
C155 H165 0.931 . S
C156 C152 1.390 . S
C156 C153 1.392 . S
C156 H166 0.930 . S
C157 C154 1.372 . S
C157 C155 1.390 . S
C157 H167 0.929 . S
C158 O138 1.255 . S
C158 O139 1.257 . S
C159 Eu95 2.787 . S
C159 O134 1.252 . S
C159 O137 1.268 . S
C159 C152 1.506 . S
H160 C143 0.931 . S
H161 C144 0.931 . S
H162 C145 0.929 . S
H163 C146 0.930 . S
H164 C154 0.931 . S
H165 C155 0.931 . S
H166 C156 0.930 . S
H167 C157 0.929 . S
Eu168 N197 2.600 . S
Eu168 N203 2.562 . S
Eu168 O212 2.462 . S
Eu168 O213 2.373 . S
Eu168 O215 2.432 . S
Eu168 O216 2.291 . S
Eu168 O220 2.335 . S
Eu168 O223 2.372 . S
Eu168 C232 2.787 . S
C169 N170 1.365 . S
C169 C172 1.405 . S
C169 C176 1.448 . S
N170 C169 1.365 . S
N170 C173 1.319 . S
N170 Eu179 2.600 . S
C171 C173 1.397 . S
C171 C174 1.367 . S
C171 H191 0.931 . S
C172 C169 1.405 . S
C172 C174 1.403 . S
C172 C178 1.439 . S
C173 N170 1.319 . S
C173 C171 1.397 . S
C173 H184 0.930 . S
C174 C171 1.367 . S
C174 C172 1.403 . S
C174 H195 0.929 . S
C175 C176 1.430 . S
C175 C177 1.387 . S
C175 C181 1.404 . S
C176 C169 1.448 . S
C176 C175 1.430 . S
C176 N180 1.351 . S
C177 C175 1.387 . S
C177 C178 1.374 . S
C177 H192 0.931 . S
C178 C172 1.439 . S
C178 C177 1.374 . S
C178 H193 0.931 . S
Eu179 N170 2.600 . S
Eu179 N180 2.562 . S
Eu179 O214 2.335 . S
Eu179 O217 2.372 . S
Eu179 O218 2.462 . S
Eu179 O219 2.373 . S
Eu179 O221 2.432 . S
Eu179 O222 2.291 . S
Eu179 C243 2.787 . S
N180 C176 1.351 . S
N180 Eu179 2.562 . S
N180 C182 1.325 . S
C181 C175 1.404 . S
C181 C183 1.366 . S
C181 H189 0.930 . S
C182 N180 1.325 . S
C182 C183 1.416 . S
C182 H188 0.929 . S
C183 C181 1.366 . S
C183 C182 1.416 . S
C183 H185 0.930 . S
H184 C173 0.930 . S
H185 C183 0.930 . S
H186 C201 0.930 . S
H187 C208 0.930 . S
H188 C182 0.929 . S
H189 C181 0.930 . S
H190 C204 0.929 . S
H191 C171 0.931 . S
H192 C177 0.931 . S
H193 C178 0.931 . S
H194 C199 0.931 . S
H195 C174 0.929 . S
H196 C207 0.930 . S
N197 Eu168 2.600 . S
N197 C198 1.365 . S
N197 C201 1.319 . S
C198 N197 1.365 . S
C198 C200 1.405 . S
C198 C206 1.448 . S
C199 H194 0.931 . S
C199 C201 1.397 . S
C199 C202 1.367 . S
C200 C198 1.405 . S
C200 C202 1.403 . S
C200 C233 1.439 . S
C201 H186 0.930 . S
C201 N197 1.319 . S
C201 C199 1.397 . S
C202 C199 1.367 . S
C202 C200 1.403 . S
C202 H209 0.929 . S
N203 Eu168 2.562 . S
N203 C204 1.325 . S
N203 C206 1.351 . S
C204 H190 0.929 . S
C204 N203 1.325 . S
C204 C208 1.416 . S
C205 C206 1.430 . S
C205 C207 1.404 . S
C205 C234 1.387 . S
C206 C198 1.448 . S
C206 N203 1.351 . S
C206 C205 1.430 . S
C207 H196 0.930 . S
C207 C205 1.404 . S
C207 C208 1.366 . S
C208 H187 0.930 . S
C208 C204 1.416 . S
C208 C207 1.366 . S
H209 C202 0.929 . S
H210 C233 0.931 . S
H211 C234 0.931 . S
O212 Eu168 2.462 . S
O212 C232 1.252 . S
O213 Eu168 2.373 . S
O213 C224 1.249 . S
O214 Eu179 2.335 . S
O214 C224 1.264 . S
O215 Eu168 2.432 . S
O215 C232 1.268 . S
O216 Eu168 2.291 . S
O216 C231 1.255 . S
O217 Eu179 2.372 . S
O217 C231 1.257 . S
O218 Eu179 2.462 . S
O218 C243 1.252 . S
O219 Eu179 2.373 . S
O219 C235 1.249 . S
O220 Eu168 2.335 . S
O220 C235 1.264 . S
O221 Eu179 2.432 . S
O221 C243 1.268 . S
O222 Eu179 2.291 . S
O222 C242 1.255 . S
O223 Eu168 2.372 . S
O223 C242 1.257 . S
C224 O213 1.249 . S
C224 O214 1.264 . S
C225 C228 1.382 . S
C225 C230 1.390 . S
C225 C232 1.506 . S
C226 C227 1.398 . S
C226 C230 1.392 . S
C227 C226 1.398 . S
C227 C229 1.372 . S
C227 H244 0.931 . S
C228 C225 1.382 . S
C228 C229 1.390 . S
C228 H245 0.931 . S
C229 C227 1.372 . S
C229 C228 1.390 . S
C229 H246 0.929 . S
C230 C225 1.390 . S
C230 C226 1.392 . S
C230 H247 0.930 . S
C231 O216 1.255 . S
C231 O217 1.257 . S
C232 Eu168 2.787 . S
C232 O212 1.252 . S
C232 O215 1.268 . S
C232 C225 1.506 . S
C233 C200 1.439 . S
C233 H210 0.931 . S
C233 C234 1.374 . S
C234 C205 1.387 . S
C234 H211 0.931 . S
C234 C233 1.374 . S
C235 O219 1.249 . S
C235 O220 1.264 . S
C236 C239 1.382 . S
C236 C240 1.390 . S
C236 C243 1.506 . S
C237 C238 1.398 . S
C237 C240 1.392 . S
C238 C237 1.398 . S
C238 C241 1.372 . S
C238 H248 0.931 . S
C239 C236 1.382 . S
C239 C241 1.390 . S
C239 H249 0.931 . S
C240 C236 1.390 . S
C240 C237 1.392 . S
C240 H250 0.930 . S
C241 C238 1.372 . S
C241 C239 1.390 . S
C241 H251 0.929 . S
C242 O222 1.255 . S
C242 O223 1.257 . S
C243 Eu179 2.787 . S
C243 O218 1.252 . S
C243 O221 1.268 . S
C243 C236 1.506 . S
H244 C227 0.931 . S
H245 C228 0.931 . S
H246 C229 0.929 . S
H247 C230 0.930 . S
H248 C238 0.931 . S
H249 C239 0.931 . S
H250 C240 0.930 . S
H251 C241 0.929 . S
Eu252 N281 2.600 . S
Eu252 N287 2.562 . S
Eu252 O296 2.462 . S
Eu252 O297 2.373 . S
Eu252 O299 2.432 . S
Eu252 O300 2.291 . S
Eu252 O304 2.335 . S
Eu252 O307 2.372 . S
Eu252 C316 2.787 . S
C253 N254 1.365 . S
C253 C256 1.405 . S
C253 C260 1.448 . S
N254 C253 1.365 . S
N254 C257 1.319 . S
N254 Eu263 2.600 . S
C255 C257 1.397 . S
C255 C258 1.367 . S
C255 H275 0.931 . S
C256 C253 1.405 . S
C256 C258 1.403 . S
C256 C262 1.439 . S
C257 N254 1.319 . S
C257 C255 1.397 . S
C257 H268 0.930 . S
C258 C255 1.367 . S
C258 C256 1.403 . S
C258 H279 0.929 . S
C259 C260 1.430 . S
C259 C261 1.387 . S
C259 C265 1.404 . S
C260 C253 1.448 . S
C260 C259 1.430 . S
C260 N264 1.351 . S
C261 C259 1.387 . S
C261 C262 1.374 . S
C261 H276 0.931 . S
C262 C256 1.439 . S
C262 C261 1.374 . S
C262 H277 0.931 . S
Eu263 N254 2.600 . S
Eu263 N264 2.562 . S
Eu263 O298 2.335 . S
Eu263 O301 2.372 . S
Eu263 O302 2.462 . S
Eu263 O303 2.373 . S
Eu263 O305 2.432 . S
Eu263 O306 2.291 . S
Eu263 C327 2.787 . S
N264 C260 1.351 . S
N264 Eu263 2.562 . S
N264 C266 1.325 . S
C265 C259 1.404 . S
C265 C267 1.366 . S
C265 H273 0.930 . S
C266 N264 1.325 . S
C266 C267 1.416 . S
C266 H272 0.929 . S
C267 C265 1.366 . S
C267 C266 1.416 . S
C267 H269 0.930 . S
H268 C257 0.930 . S
H269 C267 0.930 . S
H270 C285 0.930 . S
H271 C292 0.930 . S
H272 C266 0.929 . S
H273 C265 0.930 . S
H274 C288 0.929 . S
H275 C255 0.931 . S
H276 C261 0.931 . S
H277 C262 0.931 . S
H278 C283 0.931 . S
H279 C258 0.929 . S
H280 C291 0.930 . S
N281 Eu252 2.600 . S
N281 C282 1.365 . S
N281 C285 1.319 . S
C282 N281 1.365 . S
C282 C284 1.405 . S
C282 C290 1.448 . S
C283 H278 0.931 . S
C283 C285 1.397 . S
C283 C286 1.367 . S
C284 C282 1.405 . S
C284 C286 1.403 . S
C284 C317 1.439 . S
C285 H270 0.930 . S
C285 N281 1.319 . S
C285 C283 1.397 . S
C286 C283 1.367 . S
C286 C284 1.403 . S
C286 H293 0.929 . S
N287 Eu252 2.562 . S
N287 C288 1.325 . S
N287 C290 1.351 . S
C288 H274 0.929 . S
C288 N287 1.325 . S
C288 C292 1.416 . S
C289 C290 1.430 . S
C289 C291 1.404 . S
C289 C318 1.387 . S
C290 C282 1.448 . S
C290 N287 1.351 . S
C290 C289 1.430 . S
C291 H280 0.930 . S
C291 C289 1.404 . S
C291 C292 1.366 . S
C292 H271 0.930 . S
C292 C288 1.416 . S
C292 C291 1.366 . S
H293 C286 0.929 . S
H294 C317 0.931 . S
H295 C318 0.931 . S
O296 Eu252 2.462 . S
O296 C316 1.252 . S
O297 Eu252 2.373 . S
O297 C308 1.249 . S
O298 Eu263 2.335 . S
O298 C308 1.264 . S
O299 Eu252 2.432 . S
O299 C316 1.268 . S
O300 Eu252 2.291 . S
O300 C315 1.255 . S
O301 Eu263 2.372 . S
O301 C315 1.257 . S
O302 Eu263 2.462 . S
O302 C327 1.252 . S
O303 Eu263 2.373 . S
O303 C319 1.249 . S
O304 Eu252 2.335 . S
O304 C319 1.264 . S
O305 Eu263 2.432 . S
O305 C327 1.268 . S
O306 Eu263 2.291 . S
O306 C326 1.255 . S
O307 Eu252 2.372 . S
O307 C326 1.257 . S
C308 O297 1.249 . S
C308 O298 1.264 . S
C309 C312 1.382 . S
C309 C314 1.390 . S
C309 C316 1.506 . S
C310 C311 1.398 . S
C310 C314 1.392 . S
C311 C310 1.398 . S
C311 C313 1.372 . S
C311 H328 0.931 . S
C312 C309 1.382 . S
C312 C313 1.390 . S
C312 H329 0.931 . S
C313 C311 1.372 . S
C313 C312 1.390 . S
C313 H330 0.929 . S
C314 C309 1.390 . S
C314 C310 1.392 . S
C314 H331 0.930 . S
C315 O300 1.255 . S
C315 O301 1.257 . S
C316 Eu252 2.787 . S
C316 O296 1.252 . S
C316 O299 1.268 . S
C316 C309 1.506 . S
C317 C284 1.439 . S
C317 H294 0.931 . S
C317 C318 1.374 . S
C318 C289 1.387 . S
C318 H295 0.931 . S
C318 C317 1.374 . S
C319 O303 1.249 . S
C319 O304 1.264 . S
C320 C323 1.382 . S
C320 C324 1.390 . S
C320 C327 1.506 . S
C321 C322 1.398 . S
C321 C324 1.392 . S
C322 C321 1.398 . S
C322 C325 1.372 . S
C322 H332 0.931 . S
C323 C320 1.382 . S
C323 C325 1.390 . S
C323 H333 0.931 . S
C324 C320 1.390 . S
C324 C321 1.392 . S
C324 H334 0.930 . S
C325 C322 1.372 . S
C325 C323 1.390 . S
C325 H335 0.929 . S
C326 O306 1.255 . S
C326 O307 1.257 . S
C327 Eu263 2.787 . S
C327 O302 1.252 . S
C327 O305 1.268 . S
C327 C320 1.506 . S
H328 C311 0.931 . S
H329 C312 0.931 . S
H330 C313 0.929 . S
H331 C314 0.930 . S
H332 C322 0.931 . S
H333 C323 0.931 . S
H334 C324 0.930 . S
H335 C325 0.929 . S
Eu336 N365 2.600 . S
Eu336 N371 2.562 . S
Eu336 O380 2.462 . S
Eu336 O381 2.373 . S
Eu336 O383 2.432 . S
Eu336 O384 2.291 . S
Eu336 O388 2.335 . S
Eu336 O391 2.372 . S
Eu336 C400 2.787 . S
C337 N338 1.365 . S
C337 C340 1.405 . S
C337 C344 1.448 . S
N338 C337 1.365 . S
N338 C341 1.319 . S
N338 Eu347 2.600 . S
C339 C341 1.397 . S
C339 C342 1.367 . S
C339 H359 0.931 . S
C340 C337 1.405 . S
C340 C342 1.403 . S
C340 C346 1.439 . S
C341 N338 1.319 . S
C341 C339 1.397 . S
C341 H352 0.930 . S
C342 C339 1.367 . S
C342 C340 1.403 . S
C342 H363 0.929 . S
C343 C344 1.430 . S
C343 C345 1.387 . S
C343 C349 1.404 . S
C344 C337 1.448 . S
C344 C343 1.430 . S
C344 N348 1.351 . S
C345 C343 1.387 . S
C345 C346 1.374 . S
C345 H360 0.931 . S
C346 C340 1.439 . S
C346 C345 1.374 . S
C346 H361 0.931 . S
Eu347 N338 2.600 . S
Eu347 N348 2.562 . S
Eu347 O382 2.335 . S
Eu347 O385 2.372 . S
Eu347 O386 2.462 . S
Eu347 O387 2.373 . S
Eu347 O389 2.432 . S
Eu347 O390 2.291 . S
Eu347 C411 2.787 . S
N348 C344 1.351 . S
N348 Eu347 2.562 . S
N348 C350 1.325 . S
C349 C343 1.404 . S
C349 C351 1.366 . S
C349 H357 0.930 . S
C350 N348 1.325 . S
C350 C351 1.416 . S
C350 H356 0.929 . S
C351 C349 1.366 . S
C351 C350 1.416 . S
C351 H353 0.930 . S
H352 C341 0.930 . S
H353 C351 0.930 . S
H354 C369 0.930 . S
H355 C376 0.930 . S
H356 C350 0.929 . S
H357 C349 0.930 . S
H358 C372 0.929 . S
H359 C339 0.931 . S
H360 C345 0.931 . S
H361 C346 0.931 . S
H362 C367 0.931 . S
H363 C342 0.929 . S
H364 C375 0.930 . S
N365 Eu336 2.600 . S
N365 C366 1.365 . S
N365 C369 1.319 . S
C366 N365 1.365 . S
C366 C368 1.405 . S
C366 C374 1.448 . S
C367 H362 0.931 . S
C367 C369 1.397 . S
C367 C370 1.367 . S
C368 C366 1.405 . S
C368 C370 1.403 . S
C368 C401 1.439 . S
C369 H354 0.930 . S
C369 N365 1.319 . S
C369 C367 1.397 . S
C370 C367 1.367 . S
C370 C368 1.403 . S
C370 H377 0.929 . S
N371 Eu336 2.562 . S
N371 C372 1.325 . S
N371 C374 1.351 . S
C372 H358 0.929 . S
C372 N371 1.325 . S
C372 C376 1.416 . S
C373 C374 1.430 . S
C373 C375 1.404 . S
C373 C402 1.387 . S
C374 C366 1.448 . S
C374 N371 1.351 . S
C374 C373 1.430 . S
C375 H364 0.930 . S
C375 C373 1.404 . S
C375 C376 1.366 . S
C376 H355 0.930 . S
C376 C372 1.416 . S
C376 C375 1.366 . S
H377 C370 0.929 . S
H378 C401 0.931 . S
H379 C402 0.931 . S
O380 Eu336 2.462 . S
O380 C400 1.252 . S
O381 Eu336 2.373 . S
O381 C392 1.249 . S
O382 Eu347 2.335 . S
O382 C392 1.264 . S
O383 Eu336 2.432 . S
O383 C400 1.268 . S
O384 Eu336 2.291 . S
O384 C399 1.255 . S
O385 Eu347 2.372 . S
O385 C399 1.257 . S
O386 Eu347 2.462 . S
O386 C411 1.252 . S
O387 Eu347 2.373 . S
O387 C403 1.249 . S
O388 Eu336 2.335 . S
O388 C403 1.264 . S
O389 Eu347 2.432 . S
O389 C411 1.268 . S
O390 Eu347 2.291 . S
O390 C410 1.255 . S
O391 Eu336 2.372 . S
O391 C410 1.257 . S
C392 O381 1.249 . S
C392 O382 1.264 . S
C393 C396 1.382 . S
C393 C398 1.390 . S
C393 C400 1.506 . S
C394 C395 1.398 . S
C394 C398 1.392 . S
C395 C394 1.398 . S
C395 C397 1.372 . S
C395 H412 0.931 . S
C396 C393 1.382 . S
C396 C397 1.390 . S
C396 H413 0.931 . S
C397 C395 1.372 . S
C397 C396 1.390 . S
C397 H414 0.929 . S
C398 C393 1.390 . S
C398 C394 1.392 . S
C398 H415 0.930 . S
C399 O384 1.255 . S
C399 O385 1.257 . S
C400 Eu336 2.787 . S
C400 O380 1.252 . S
C400 O383 1.268 . S
C400 C393 1.506 . S
C401 C368 1.439 . S
C401 H378 0.931 . S
C401 C402 1.374 . S
C402 C373 1.387 . S
C402 H379 0.931 . S
C402 C401 1.374 . S
C403 O387 1.249 . S
C403 O388 1.264 . S
C404 C407 1.382 . S
C404 C408 1.390 . S
C404 C411 1.506 . S
C405 C406 1.398 . S
C405 C408 1.392 . S
C406 C405 1.398 . S
C406 C409 1.372 . S
C406 H416 0.931 . S
C407 C404 1.382 . S
C407 C409 1.390 . S
C407 H417 0.931 . S
C408 C404 1.390 . S
C408 C405 1.392 . S
C408 H418 0.930 . S
C409 C406 1.372 . S
C409 C407 1.390 . S
C409 H419 0.929 . S
C410 O390 1.255 . S
C410 O391 1.257 . S
C411 Eu347 2.787 . S
C411 O386 1.252 . S
C411 O389 1.268 . S
C411 C404 1.506 . S
H412 C395 0.931 . S
H413 C396 0.931 . S
H414 C397 0.929 . S
H415 C398 0.930 . S
H416 C406 0.931 . S
H417 C407 0.931 . S
H418 C408 0.930 . S
H419 C409 0.929 . S
Eu420 N449 2.600 . S
Eu420 N455 2.562 . S
Eu420 O464 2.462 . S
Eu420 O465 2.373 . S
Eu420 O467 2.432 . S
Eu420 O468 2.291 . S
Eu420 O472 2.335 . S
Eu420 O475 2.372 . S
Eu420 C484 2.787 . S
C421 N422 1.365 . S
C421 C424 1.405 . S
C421 C428 1.448 . S
N422 C421 1.365 . S
N422 C425 1.319 . S
N422 Eu431 2.600 . S
C423 C425 1.397 . S
C423 C426 1.367 . S
C423 H443 0.931 . S
C424 C421 1.405 . S
C424 C426 1.403 . S
C424 C430 1.439 . S
C425 N422 1.319 . S
C425 C423 1.397 . S
C425 H436 0.930 . S
C426 C423 1.367 . S
C426 C424 1.403 . S
C426 H447 0.929 . S
C427 C428 1.430 . S
C427 C429 1.387 . S
C427 C433 1.404 . S
C428 C421 1.448 . S
C428 C427 1.430 . S
C428 N432 1.351 . S
C429 C427 1.387 . S
C429 C430 1.374 . S
C429 H444 0.931 . S
C430 C424 1.439 . S
C430 C429 1.374 . S
C430 H445 0.931 . S
Eu431 N422 2.600 . S
Eu431 N432 2.562 . S
Eu431 O466 2.335 . S
Eu431 O469 2.372 . S
Eu431 O470 2.462 . S
Eu431 O471 2.373 . S
Eu431 O473 2.432 . S
Eu431 O474 2.291 . S
Eu431 C495 2.787 . S
N432 C428 1.351 . S
N432 Eu431 2.562 . S
N432 C434 1.325 . S
C433 C427 1.404 . S
C433 C435 1.366 . S
C433 H441 0.930 . S
C434 N432 1.325 . S
C434 C435 1.416 . S
C434 H440 0.929 . S
C435 C433 1.366 . S
C435 C434 1.416 . S
C435 H437 0.930 . S
H436 C425 0.930 . S
H437 C435 0.930 . S
H438 C453 0.930 . S
H439 C460 0.930 . S
H440 C434 0.929 . S
H441 C433 0.930 . S
H442 C456 0.929 . S
H443 C423 0.931 . S
H444 C429 0.931 . S
H445 C430 0.931 . S
H446 C451 0.931 . S
H447 C426 0.929 . S
H448 C459 0.930 . S
N449 Eu420 2.600 . S
N449 C450 1.365 . S
N449 C453 1.319 . S
C450 N449 1.365 . S
C450 C452 1.405 . S
C450 C458 1.448 . S
C451 H446 0.931 . S
C451 C453 1.397 . S
C451 C454 1.367 . S
C452 C450 1.405 . S
C452 C454 1.403 . S
C452 C485 1.439 . S
C453 H438 0.930 . S
C453 N449 1.319 . S
C453 C451 1.397 . S
C454 C451 1.367 . S
C454 C452 1.403 . S
C454 H461 0.929 . S
N455 Eu420 2.562 . S
N455 C456 1.325 . S
N455 C458 1.351 . S
C456 H442 0.929 . S
C456 N455 1.325 . S
C456 C460 1.416 . S
C457 C458 1.430 . S
C457 C459 1.404 . S
C457 C486 1.387 . S
C458 C450 1.448 . S
C458 N455 1.351 . S
C458 C457 1.430 . S
C459 H448 0.930 . S
C459 C457 1.404 . S
C459 C460 1.366 . S
C460 H439 0.930 . S
C460 C456 1.416 . S
C460 C459 1.366 . S
H461 C454 0.929 . S
H462 C485 0.931 . S
H463 C486 0.931 . S
O464 Eu420 2.462 . S
O464 C484 1.252 . S
O465 Eu420 2.373 . S
O465 C476 1.249 . S
O466 Eu431 2.335 . S
O466 C476 1.264 . S
O467 Eu420 2.432 . S
O467 C484 1.268 . S
O468 Eu420 2.291 . S
O468 C483 1.255 . S
O469 Eu431 2.372 . S
O469 C483 1.257 . S
O470 Eu431 2.462 . S
O470 C495 1.252 . S
O471 Eu431 2.373 . S
O471 C487 1.249 . S
O472 Eu420 2.335 . S
O472 C487 1.264 . S
O473 Eu431 2.432 . S
O473 C495 1.268 . S
O474 Eu431 2.291 . S
O474 C494 1.255 . S
O475 Eu420 2.372 . S
O475 C494 1.257 . S
C476 O465 1.249 . S
C476 O466 1.264 . S
C477 C480 1.382 . S
C477 C482 1.390 . S
C477 C484 1.506 . S
C478 C479 1.398 . S
C478 C482 1.392 . S
C479 C478 1.398 . S
C479 C481 1.372 . S
C479 H496 0.931 . S
C480 C477 1.382 . S
C480 C481 1.390 . S
C480 H497 0.931 . S
C481 C479 1.372 . S
C481 C480 1.390 . S
C481 H498 0.929 . S
C482 C477 1.390 . S
C482 C478 1.392 . S
C482 H499 0.930 . S
C483 O468 1.255 . S
C483 O469 1.257 . S
C484 Eu420 2.787 . S
C484 O464 1.252 . S
C484 O467 1.268 . S
C484 C477 1.506 . S
C485 C452 1.439 . S
C485 H462 0.931 . S
C485 C486 1.374 . S
C486 C457 1.387 . S
C486 H463 0.931 . S
C486 C485 1.374 . S
C487 O471 1.249 . S
C487 O472 1.264 . S
C488 C491 1.382 . S
C488 C492 1.390 . S
C488 C495 1.506 . S
C489 C490 1.398 . S
C489 C492 1.392 . S
C490 C489 1.398 . S
C490 C493 1.372 . S
C490 H500 0.931 . S
C491 C488 1.382 . S
C491 C493 1.390 . S
C491 H501 0.931 . S
C492 C488 1.390 . S
C492 C489 1.392 . S
C492 H502 0.930 . S
C493 C490 1.372 . S
C493 C491 1.390 . S
C493 H503 0.929 . S
C494 O474 1.255 . S
C494 O475 1.257 . S
C495 Eu431 2.787 . S
C495 O470 1.252 . S
C495 O473 1.268 . S
C495 C488 1.506 . S
H496 C479 0.931 . S
H497 C480 0.931 . S
H498 C481 0.929 . S
H499 C482 0.930 . S
H500 C490 0.931 . S
H501 C491 0.931 . S
H502 C492 0.930 . S
H503 C493 0.929 . S
Eu504 N533 2.600 . S
Eu504 N539 2.562 . S
Eu504 O548 2.462 . S
Eu504 O549 2.373 . S
Eu504 O551 2.432 . S
Eu504 O552 2.291 . S
Eu504 O556 2.335 . S
Eu504 O559 2.372 . S
Eu504 C568 2.787 . S
C505 N506 1.365 . S
C505 C508 1.405 . S
C505 C512 1.448 . S
N506 C505 1.365 . S
N506 C509 1.319 . S
N506 Eu515 2.600 . S
C507 C509 1.397 . S
C507 C510 1.367 . S
C507 H527 0.931 . S
C508 C505 1.405 . S
C508 C510 1.403 . S
C508 C514 1.439 . S
C509 N506 1.319 . S
C509 C507 1.397 . S
C509 H520 0.930 . S
C510 C507 1.367 . S
C510 C508 1.403 . S
C510 H531 0.929 . S
C511 C512 1.430 . S
C511 C513 1.387 . S
C511 C517 1.404 . S
C512 C505 1.448 . S
C512 C511 1.430 . S
C512 N516 1.351 . S
C513 C511 1.387 . S
C513 C514 1.374 . S
C513 H528 0.931 . S
C514 C508 1.439 . S
C514 C513 1.374 . S
C514 H529 0.931 . S
Eu515 N506 2.600 . S
Eu515 N516 2.562 . S
Eu515 O550 2.335 . S
Eu515 O553 2.372 . S
Eu515 O554 2.462 . S
Eu515 O555 2.373 . S
Eu515 O557 2.432 . S
Eu515 O558 2.291 . S
Eu515 C579 2.787 . S
N516 C512 1.351 . S
N516 Eu515 2.562 . S
N516 C518 1.325 . S
C517 C511 1.404 . S
C517 C519 1.366 . S
C517 H525 0.930 . S
C518 N516 1.325 . S
C518 C519 1.416 . S
C518 H524 0.929 . S
C519 C517 1.366 . S
C519 C518 1.416 . S
C519 H521 0.930 . S
H520 C509 0.930 . S
H521 C519 0.930 . S
H522 C537 0.930 . S
H523 C544 0.930 . S
H524 C518 0.929 . S
H525 C517 0.930 . S
H526 C540 0.929 . S
H527 C507 0.931 . S
H528 C513 0.931 . S
H529 C514 0.931 . S
H530 C535 0.931 . S
H531 C510 0.929 . S
H532 C543 0.930 . S
N533 Eu504 2.600 . S
N533 C534 1.365 . S
N533 C537 1.319 . S
C534 N533 1.365 . S
C534 C536 1.405 . S
C534 C542 1.448 . S
C535 H530 0.931 . S
C535 C537 1.397 . S
C535 C538 1.367 . S
C536 C534 1.405 . S
C536 C538 1.403 . S
C536 C569 1.439 . S
C537 H522 0.930 . S
C537 N533 1.319 . S
C537 C535 1.397 . S
C538 C535 1.367 . S
C538 C536 1.403 . S
C538 H545 0.929 . S
N539 Eu504 2.562 . S
N539 C540 1.325 . S
N539 C542 1.351 . S
C540 H526 0.929 . S
C540 N539 1.325 . S
C540 C544 1.416 . S
C541 C542 1.430 . S
C541 C543 1.404 . S
C541 C570 1.387 . S
C542 C534 1.448 . S
C542 N539 1.351 . S
C542 C541 1.430 . S
C543 H532 0.930 . S
C543 C541 1.404 . S
C543 C544 1.366 . S
C544 H523 0.930 . S
C544 C540 1.416 . S
C544 C543 1.366 . S
H545 C538 0.929 . S
H546 C569 0.931 . S
H547 C570 0.931 . S
O548 Eu504 2.462 . S
O548 C568 1.252 . S
O549 Eu504 2.373 . S
O549 C560 1.249 . S
O550 Eu515 2.335 . S
O550 C560 1.264 . S
O551 Eu504 2.432 . S
O551 C568 1.268 . S
O552 Eu504 2.291 . S
O552 C567 1.255 . S
O553 Eu515 2.372 . S
O553 C567 1.257 . S
O554 Eu515 2.462 . S
O554 C579 1.252 . S
O555 Eu515 2.373 . S
O555 C571 1.249 . S
O556 Eu504 2.335 . S
O556 C571 1.264 . S
O557 Eu515 2.432 . S
O557 C579 1.268 . S
O558 Eu515 2.291 . S
O558 C578 1.255 . S
O559 Eu504 2.372 . S
O559 C578 1.257 . S
C560 O549 1.249 . S
C560 O550 1.264 . S
C561 C564 1.382 . S
C561 C566 1.390 . S
C561 C568 1.506 . S
C562 C563 1.398 . S
C562 C566 1.392 . S
C563 C562 1.398 . S
C563 C565 1.372 . S
C563 H580 0.931 . S
C564 C561 1.382 . S
C564 C565 1.390 . S
C564 H581 0.931 . S
C565 C563 1.372 . S
C565 C564 1.390 . S
C565 H582 0.929 . S
C566 C561 1.390 . S
C566 C562 1.392 . S
C566 H583 0.930 . S
C567 O552 1.255 . S
C567 O553 1.257 . S
C568 Eu504 2.787 . S
C568 O548 1.252 . S
C568 O551 1.268 . S
C568 C561 1.506 . S
C569 C536 1.439 . S
C569 H546 0.931 . S
C569 C570 1.374 . S
C570 C541 1.387 . S
C570 H547 0.931 . S
C570 C569 1.374 . S
C571 O555 1.249 . S
C571 O556 1.264 . S
C572 C575 1.382 . S
C572 C576 1.390 . S
C572 C579 1.506 . S
C573 C574 1.398 . S
C573 C576 1.392 . S
C574 C573 1.398 . S
C574 C577 1.372 . S
C574 H584 0.931 . S
C575 C572 1.382 . S
C575 C577 1.390 . S
C575 H585 0.931 . S
C576 C572 1.390 . S
C576 C573 1.392 . S
C576 H586 0.930 . S
C577 C574 1.372 . S
C577 C575 1.390 . S
C577 H587 0.929 . S
C578 O558 1.255 . S
C578 O559 1.257 . S
C579 Eu515 2.787 . S
C579 O554 1.252 . S
C579 O557 1.268 . S
C579 C572 1.506 . S
H580 C563 0.931 . S
H581 C564 0.931 . S
H582 C565 0.929 . S
H583 C566 0.930 . S
H584 C574 0.931 . S
H585 C575 0.931 . S
H586 C576 0.930 . S
H587 C577 0.929 . S
Eu588 N617 2.600 . S
Eu588 N623 2.562 . S
Eu588 O632 2.462 . S
Eu588 O633 2.373 . S
Eu588 O635 2.432 . S
Eu588 O636 2.291 . S
Eu588 O640 2.335 . S
Eu588 O643 2.372 . S
Eu588 C652 2.787 . S
C589 N590 1.365 . S
C589 C592 1.405 . S
C589 C596 1.448 . S
N590 C589 1.365 . S
N590 C593 1.319 . S
N590 Eu599 2.600 . S
C591 C593 1.397 . S
C591 C594 1.367 . S
C591 H611 0.931 . S
C592 C589 1.405 . S
C592 C594 1.403 . S
C592 C598 1.439 . S
C593 N590 1.319 . S
C593 C591 1.397 . S
C593 H604 0.930 . S
C594 C591 1.367 . S
C594 C592 1.403 . S
C594 H615 0.929 . S
C595 C596 1.430 . S
C595 C597 1.387 . S
C595 C601 1.404 . S
C596 C589 1.448 . S
C596 C595 1.430 . S
C596 N600 1.351 . S
C597 C595 1.387 . S
C597 C598 1.374 . S
C597 H612 0.931 . S
C598 C592 1.439 . S
C598 C597 1.374 . S
C598 H613 0.931 . S
Eu599 N590 2.600 . S
Eu599 N600 2.562 . S
Eu599 O634 2.335 . S
Eu599 O637 2.372 . S
Eu599 O638 2.462 . S
Eu599 O639 2.373 . S
Eu599 O641 2.432 . S
Eu599 O642 2.291 . S
Eu599 C663 2.787 . S
N600 C596 1.351 . S
N600 Eu599 2.562 . S
N600 C602 1.325 . S
C601 C595 1.404 . S
C601 C603 1.366 . S
C601 H609 0.930 . S
C602 N600 1.325 . S
C602 C603 1.416 . S
C602 H608 0.929 . S
C603 C601 1.366 . S
C603 C602 1.416 . S
C603 H605 0.930 . S
H604 C593 0.930 . S
H605 C603 0.930 . S
H606 C621 0.930 . S
H607 C628 0.930 . S
H608 C602 0.929 . S
H609 C601 0.930 . S
H610 C624 0.929 . S
H611 C591 0.931 . S
H612 C597 0.931 . S
H613 C598 0.931 . S
H614 C619 0.931 . S
H615 C594 0.929 . S
H616 C627 0.930 . S
N617 Eu588 2.600 . S
N617 C618 1.365 . S
N617 C621 1.319 . S
C618 N617 1.365 . S
C618 C620 1.405 . S
C618 C626 1.448 . S
C619 H614 0.931 . S
C619 C621 1.397 . S
C619 C622 1.367 . S
C620 C618 1.405 . S
C620 C622 1.403 . S
C620 C653 1.439 . S
C621 H606 0.930 . S
C621 N617 1.319 . S
C621 C619 1.397 . S
C622 C619 1.367 . S
C622 C620 1.403 . S
C622 H629 0.929 . S
N623 Eu588 2.562 . S
N623 C624 1.325 . S
N623 C626 1.351 . S
C624 H610 0.929 . S
C624 N623 1.325 . S
C624 C628 1.416 . S
C625 C626 1.430 . S
C625 C627 1.404 . S
C625 C654 1.387 . S
C626 C618 1.448 . S
C626 N623 1.351 . S
C626 C625 1.430 . S
C627 H616 0.930 . S
C627 C625 1.404 . S
C627 C628 1.366 . S
C628 H607 0.930 . S
C628 C624 1.416 . S
C628 C627 1.366 . S
H629 C622 0.929 . S
H630 C653 0.931 . S
H631 C654 0.931 . S
O632 Eu588 2.462 . S
O632 C652 1.252 . S
O633 Eu588 2.373 . S
O633 C644 1.249 . S
O634 Eu599 2.335 . S
O634 C644 1.264 . S
O635 Eu588 2.432 . S
O635 C652 1.268 . S
O636 Eu588 2.291 . S
O636 C651 1.255 . S
O637 Eu599 2.372 . S
O637 C651 1.257 . S
O638 Eu599 2.462 . S
O638 C663 1.252 . S
O639 Eu599 2.373 . S
O639 C655 1.249 . S
O640 Eu588 2.335 . S
O640 C655 1.264 . S
O641 Eu599 2.432 . S
O641 C663 1.268 . S
O642 Eu599 2.291 . S
O642 C662 1.255 . S
O643 Eu588 2.372 . S
O643 C662 1.257 . S
C644 O633 1.249 . S
C644 O634 1.264 . S
C645 C648 1.382 . S
C645 C650 1.390 . S
C645 C652 1.506 . S
C646 C647 1.398 . S
C646 C650 1.392 . S
C647 C646 1.398 . S
C647 C649 1.372 . S
C647 H664 0.931 . S
C648 C645 1.382 . S
C648 C649 1.390 . S
C648 H665 0.931 . S
C649 C647 1.372 . S
C649 C648 1.390 . S
C649 H666 0.929 . S
C650 C645 1.390 . S
C650 C646 1.392 . S
C650 H667 0.930 . S
C651 O636 1.255 . S
C651 O637 1.257 . S
C652 Eu588 2.787 . S
C652 O632 1.252 . S
C652 O635 1.268 . S
C652 C645 1.506 . S
C653 C620 1.439 . S
C653 H630 0.931 . S
C653 C654 1.374 . S
C654 C625 1.387 . S
C654 H631 0.931 . S
C654 C653 1.374 . S
C655 O639 1.249 . S
C655 O640 1.264 . S
C656 C659 1.382 . S
C656 C660 1.390 . S
C656 C663 1.506 . S
C657 C658 1.398 . S
C657 C660 1.392 . S
C658 C657 1.398 . S
C658 C661 1.372 . S
C658 H668 0.931 . S
C659 C656 1.382 . S
C659 C661 1.390 . S
C659 H669 0.931 . S
C660 C656 1.390 . S
C660 C657 1.392 . S
C660 H670 0.930 . S
C661 C658 1.372 . S
C661 C659 1.390 . S
C661 H671 0.929 . S
C662 O642 1.255 . S
C662 O643 1.257 . S
C663 Eu599 2.787 . S
C663 O638 1.252 . S
C663 O641 1.268 . S
C663 C656 1.506 . S
H664 C647 0.931 . S
H665 C648 0.931 . S
H666 C649 0.929 . S
H667 C650 0.930 . S
H668 C658 0.931 . S
H669 C659 0.931 . S
H670 C660 0.930 . S
H671 C661 0.929 . S
C672 O684 1.241 . S
C672 O685 1.280 . S
C673 O686 1.277 . S
C673 O687 1.245 . S
C674 O698 1.247 . S
C674 O700 1.289 . S
Mg675 O676 1.926 . S
Mg675 O685 1.984 . S
Mg675 O687 1.988 . S
Mg675 O688 2.061 1_655 S
O676 Mg675 1.926 . S
O676 Mg677 1.986 1_545 S
O676 Mg678 1.908 1_655 S
Mg677 O676 1.986 1_565 S
Mg677 O684 2.042 1_565 S
Mg677 O686 2.041 1_565 S
Mg677 O692 2.038 . S
Mg677 O700 2.238 . S
Mg678 O676 1.908 1_455 S
Mg678 O679 1.925 1_545 S
Mg678 O689 2.115 . S
Mg678 O691 2.077 1_445 S
Mg678 O700 2.098 1_445 S
Mg678 O701 2.081 . S
O679 Mg678 1.925 1_565 S
O679 Mg680 1.926 . S
O679 Mg681 1.986 1_565 S
Mg680 O679 1.926 . S
Mg680 O694 1.984 . S
Mg680 O697 1.988 . S
Mg680 O698 2.061 1_455 S
Mg681 O679 1.986 1_545 S
Mg681 O689 2.238 . S
Mg681 O693 2.042 1_545 S
Mg681 O695 2.041 1_545 S
Mg681 O702 2.038 . S
C682 O688 1.247 . S
C682 O689 1.289 . S
C683 O701 1.245 . S
C683 O702 1.274 . S
O684 C672 1.241 . S
O684 Mg677 2.042 1_545 S
O685 C672 1.280 . S
O685 Mg675 1.984 . S
O686 C673 1.277 . S
O686 Mg677 2.041 1_545 S
O687 C673 1.245 . S
O687 Mg675 1.988 . S
O688 Mg675 2.061 1_455 S
O688 C682 1.247 . S
O689 Mg678 2.115 . S
O689 Mg681 2.238 . S
O689 C682 1.289 . S
C690 O691 1.245 . S
C690 O692 1.274 . S
O691 Mg678 2.077 1_665 S
O691 C690 1.245 . S
O692 Mg677 2.038 . S
O692 C690 1.274 . S
O693 Mg681 2.042 1_565 S
O693 C696 1.241 . S
O694 Mg680 1.984 . S
O694 C696 1.280 . S
O695 Mg681 2.041 1_565 S
O695 C699 1.277 . S
C696 O693 1.241 . S
C696 O694 1.280 . S
O697 Mg680 1.988 . S
O697 C699 1.245 . S
O698 C674 1.247 . S
O698 Mg680 2.061 1_655 S
C699 O695 1.277 . S
C699 O697 1.245 . S
O700 C674 1.289 . S
O700 Mg677 2.238 . S
O700 Mg678 2.098 1_665 S
O701 Mg678 2.081 . S
O701 C683 1.245 . S
O702 Mg681 2.038 . S
O702 C683 1.274 . S
C703 O715 1.241 . S
C703 O716 1.280 . S
C704 O717 1.277 . S
C704 O718 1.245 . S
C705 O729 1.247 . S
C705 O731 1.289 . S
Mg706 O707 1.926 . S
Mg706 O716 1.984 . S
Mg706 O718 1.988 1_554 S
Mg706 O719 2.061 . S
O707 Mg706 1.926 . S
O707 Mg708 1.986 1_545 S
O707 Mg709 1.918 . S
Mg708 O707 1.986 1_565 S
Mg708 O715 2.042 1_565 S
Mg708 O717 2.041 1_564 S
Mg708 O723 2.038 . S
Mg708 O731 2.238 1_554 S
Mg709 O707 1.918 . S
Mg709 O710 1.916 1_544 S
Mg709 O720 2.110 . S
Mg709 O722 2.083 1_545 S
Mg709 O731 2.103 1_544 S
Mg709 O732 2.074 1_554 S
O710 Mg709 1.916 1_566 S
O710 Mg711 1.926 . S
O710 Mg712 1.986 1_565 S
Mg711 O710 1.926 . S
Mg711 O725 1.984 . S
Mg711 O728 1.988 1_556 S
Mg711 O729 2.061 . S
Mg712 O710 1.986 1_545 S
Mg712 O720 2.238 1_556 S
Mg712 O724 2.042 1_545 S
Mg712 O726 2.041 1_546 S
Mg712 O733 2.038 . S
C713 O719 1.247 . S
C713 O720 1.289 . S
C714 O732 1.245 . S
C714 O733 1.274 . S
O715 C703 1.241 . S
O715 Mg708 2.042 1_545 S
O716 C703 1.280 . S
O716 Mg706 1.984 . S
O717 C704 1.277 . S
O717 Mg708 2.041 1_546 S
O718 C704 1.245 . S
O718 Mg706 1.988 1_556 S
O719 Mg706 2.061 . S
O719 C713 1.247 . S
O720 Mg709 2.110 . S
O720 Mg712 2.238 1_554 S
O720 C713 1.289 . S
C721 O722 1.245 . S
C721 O723 1.274 . S
O722 Mg709 2.083 1_565 S
O722 C721 1.245 . S
O723 Mg708 2.038 . S
O723 C721 1.274 . S
O724 Mg712 2.042 1_565 S
O724 C727 1.241 . S
O725 Mg711 1.984 . S
O725 C727 1.280 . S
O726 Mg712 2.041 1_564 S
O726 C730 1.277 . S
C727 O724 1.241 . S
C727 O725 1.280 . S
O728 Mg711 1.988 1_554 S
O728 C730 1.245 . S
O729 C705 1.247 . S
O729 Mg711 2.061 . S
C730 O726 1.277 . S
C730 O728 1.245 . S
O731 C705 1.289 . S
O731 Mg708 2.238 1_556 S
O731 Mg709 2.103 1_566 S
O732 Mg709 2.074 1_556 S
O732 C714 1.245 . S
O733 Mg712 2.038 . S
O733 C714 1.274 . S
C734 O746 1.241 . S
C734 O747 1.280 . S
C735 O748 1.277 . S
C735 O749 1.245 . S
C736 O760 1.247 . S
C736 O762 1.289 . S
Mg737 O738 1.926 . S
Mg737 O747 1.984 . S
Mg737 O749 1.988 1_554 S
Mg737 O750 2.061 1_655 S
O738 Mg737 1.926 . S
O738 Mg739 1.986 . S
O738 Mg740 1.909 1_655 S
Mg739 O738 1.986 . S
Mg739 O746 2.042 . S
Mg739 O748 2.041 1_554 S
Mg739 O754 2.038 . S
Mg739 O762 2.238 1_554 S
Mg740 O738 1.909 1_455 S
Mg740 O741 1.925 1_554 S
Mg740 O751 2.118 . S
Mg740 O753 2.082 1_455 S
Mg740 O762 2.095 1_454 S
Mg740 O763 2.075 1_554 S
O741 Mg740 1.925 1_556 S
O741 Mg742 1.926 . S
O741 Mg743 1.986 . S
Mg742 O741 1.926 . S
Mg742 O756 1.984 . S
Mg742 O759 1.988 1_556 S
Mg742 O760 2.061 1_455 S
Mg743 O741 1.986 . S
Mg743 O751 2.238 1_556 S
Mg743 O755 2.042 . S
Mg743 O757 2.041 1_556 S
Mg743 O764 2.038 . S
C744 O750 1.247 . S
C744 O751 1.289 . S
C745 O763 1.245 . S
C745 O764 1.274 . S
O746 C734 1.241 . S
O746 Mg739 2.042 . S
O747 C734 1.280 . S
O747 Mg737 1.984 . S
O748 C735 1.277 . S
O748 Mg739 2.041 1_556 S
O749 C735 1.245 . S
O749 Mg737 1.988 1_556 S
O750 Mg737 2.061 1_455 S
O750 C744 1.247 . S
O751 Mg740 2.118 . S
O751 Mg743 2.238 1_554 S
O751 C744 1.289 . S
C752 O753 1.245 . S
C752 O754 1.274 . S
O753 Mg740 2.082 1_655 S
O753 C752 1.245 . S
O754 Mg739 2.038 . S
O754 C752 1.274 . S
O755 Mg743 2.042 . S
O755 C758 1.241 . S
O756 Mg742 1.984 . S
O756 C758 1.280 . S
O757 Mg743 2.041 1_554 S
O757 C761 1.277 . S
C758 O755 1.241 . S
C758 O756 1.280 . S
O759 Mg742 1.988 1_554 S
O759 C761 1.245 . S
O760 C736 1.247 . S
O760 Mg742 2.061 1_655 S
C761 O757 1.277 . S
C761 O759 1.245 . S
O762 C736 1.289 . S
O762 Mg739 2.238 1_556 S
O762 Mg740 2.095 1_656 S
O763 Mg740 2.075 1_556 S
O763 C745 1.245 . S
O764 Mg743 2.038 . S
O764 C745 1.274 . S
C765 O777 1.241 . S
C765 O778 1.280 . S
C766 O779 1.277 . S
C766 O780 1.245 . S
C767 O791 1.247 . S
C767 O793 1.289 . S
Mg768 O769 1.926 . S
Mg768 O778 1.984 . S
Mg768 O780 1.988 1_554 S
Mg768 O781 2.061 . S
O769 Mg768 1.926 . S
O769 Mg770 1.986 . S
O769 Mg771 1.918 . S
Mg770 O769 1.986 . S
Mg770 O777 2.042 . S
Mg770 O779 2.041 1_554 S
Mg770 O785 2.038 . S
Mg770 O793 2.238 1_554 S
Mg771 O769 1.918 . S
Mg771 O772 1.916 1_554 S
Mg771 O782 2.110 . S
Mg771 O784 2.084 . S
Mg771 O793 2.103 1_554 S
Mg771 O794 2.074 1_554 S
O772 Mg771 1.916 1_556 S
O772 Mg773 1.926 . S
O772 Mg774 1.986 . S
Mg773 O772 1.926 . S
Mg773 O787 1.984 . S
Mg773 O790 1.988 1_556 S
Mg773 O791 2.061 . S
Mg774 O772 1.986 . S
Mg774 O782 2.238 1_556 S
Mg774 O786 2.042 . S
Mg774 O788 2.041 1_556 S
Mg774 O795 2.038 . S
C775 O781 1.247 . S
C775 O782 1.289 . S
C776 O794 1.245 . S
C776 O795 1.274 . S
O777 C765 1.241 . S
O777 Mg770 2.042 . S
O778 C765 1.280 . S
O778 Mg768 1.984 . S
O779 C766 1.277 . S
O779 Mg770 2.041 1_556 S
O780 C766 1.245 . S
O780 Mg768 1.988 1_556 S
O781 Mg768 2.061 . S
O781 C775 1.247 . S
O782 Mg771 2.110 . S
O782 Mg774 2.238 1_554 S
O782 C775 1.289 . S
C783 O784 1.245 . S
C783 O785 1.274 . S
O784 Mg771 2.084 . S
O784 C783 1.245 . S
O785 Mg770 2.038 . S
O785 C783 1.274 . S
O786 Mg774 2.042 . S
O786 C789 1.241 . S
O787 Mg773 1.984 . S
O787 C789 1.280 . S
O788 Mg774 2.041 1_554 S
O788 C792 1.277 . S
C789 O786 1.241 . S
C789 O787 1.280 . S
O790 Mg773 1.988 1_554 S
O790 C792 1.245 . S
O791 C767 1.247 . S
O791 Mg773 2.061 . S
C792 O788 1.277 . S
C792 O790 1.245 . S
O793 C767 1.289 . S
O793 Mg770 2.238 1_556 S
O793 Mg771 2.103 1_556 S
O794 Mg771 2.074 1_556 S
O794 C776 1.245 . S
O795 Mg774 2.038 . S
O795 C776 1.274 . S
C796 O808 1.241 . S
C796 O809 1.280 . S
C797 O810 1.277 . S
C797 O811 1.245 . S
C798 O822 1.247 . S
C798 O824 1.289 . S
Mg799 O800 1.926 . S
Mg799 O809 1.984 . S
Mg799 O811 1.988 . S
Mg799 O812 2.061 1_655 S
O800 Mg799 1.926 . S
O800 Mg801 1.986 . S
O800 Mg802 1.908 1_655 S
Mg801 O800 1.986 . S
Mg801 O808 2.042 . S
Mg801 O810 2.041 . S
Mg801 O816 2.038 . S
Mg801 O824 2.238 . S
Mg802 O800 1.908 1_455 S
Mg802 O803 1.926 . S
Mg802 O813 2.114 . S
Mg802 O815 2.077 1_455 S
Mg802 O824 2.098 1_455 S
Mg802 O825 2.080 . S
O803 Mg802 1.926 . S
O803 Mg804 1.926 . S
O803 Mg805 1.986 . S
Mg804 O803 1.926 . S
Mg804 O818 1.984 . S
Mg804 O821 1.988 . S
Mg804 O822 2.061 1_455 S
Mg805 O803 1.986 . S
Mg805 O813 2.238 . S
Mg805 O817 2.042 . S
Mg805 O819 2.041 . S
Mg805 O826 2.038 . S
C806 O812 1.247 . S
C806 O813 1.289 . S
C807 O825 1.245 . S
C807 O826 1.274 . S
O808 C796 1.241 . S
O808 Mg801 2.042 . S
O809 C796 1.280 . S
O809 Mg799 1.984 . S
O810 C797 1.277 . S
O810 Mg801 2.041 . S
O811 C797 1.245 . S
O811 Mg799 1.988 . S
O812 Mg799 2.061 1_455 S
O812 C806 1.247 . S
O813 Mg802 2.114 . S
O813 Mg805 2.238 . S
O813 C806 1.289 . S
C814 O815 1.245 . S
C814 O816 1.274 . S
O815 Mg802 2.077 1_655 S
O815 C814 1.245 . S
O816 Mg801 2.038 . S
O816 C814 1.274 . S
O817 Mg805 2.042 . S
O817 C820 1.241 . S
O818 Mg804 1.984 . S
O818 C820 1.280 . S
O819 Mg805 2.041 . S
O819 C823 1.277 . S
C820 O817 1.241 . S
C820 O818 1.280 . S
O821 Mg804 1.988 . S
O821 C823 1.245 . S
O822 C798 1.247 . S
O822 Mg804 2.061 1_655 S
C823 O819 1.277 . S
C823 O821 1.245 . S
O824 C798 1.289 . S
O824 Mg801 2.238 . S
O824 Mg802 2.098 1_655 S
O825 Mg802 2.080 . S
O825 C807 1.245 . S
O826 Mg805 2.038 . S
O826 C807 1.274 . S
C827 O839 1.241 . S
C827 O840 1.280 . S
C828 O841 1.277 . S
C828 O842 1.245 . S
C829 O853 1.247 . S
C829 O855 1.289 . S
Mg830 O831 1.926 . S
Mg830 O840 1.984 . S
Mg830 O842 1.988 . S
Mg830 O843 2.061 . S
O831 Mg830 1.926 . S
O831 Mg832 1.986 1_545 S
O831 Mg833 1.917 . S
Mg832 O831 1.986 1_565 S
Mg832 O839 2.042 1_565 S
Mg832 O841 2.041 1_565 S
Mg832 O847 2.038 . S
Mg832 O855 2.238 . S
Mg833 O831 1.917 . S
Mg833 O834 1.917 1_545 S
Mg833 O844 2.106 . S
Mg833 O846 2.079 1_545 S
Mg833 O855 2.106 1_545 S
Mg833 O856 2.079 . S
O834 Mg833 1.917 1_565 S
O834 Mg835 1.926 . S
O834 Mg836 1.986 1_565 S
Mg835 O834 1.926 . S
Mg835 O849 1.984 . S
Mg835 O852 1.988 . S
Mg835 O853 2.061 . S
Mg836 O834 1.986 1_545 S
Mg836 O844 2.238 . S
Mg836 O848 2.042 1_545 S
Mg836 O850 2.041 1_545 S
Mg836 O857 2.038 . S
C837 O843 1.247 . S
C837 O844 1.289 . S
C838 O856 1.245 . S
C838 O857 1.274 . S
O839 C827 1.241 . S
O839 Mg832 2.042 1_545 S
O840 C827 1.280 . S
O840 Mg830 1.984 . S
O841 C828 1.277 . S
O841 Mg832 2.041 1_545 S
O842 C828 1.245 . S
O842 Mg830 1.988 . S
O843 Mg830 2.061 . S
O843 C837 1.247 . S
O844 Mg833 2.106 . S
O844 Mg836 2.238 . S
O844 C837 1.289 . S
C845 O846 1.245 . S
C845 O847 1.274 . S
O846 Mg833 2.079 1_565 S
O846 C845 1.245 . S
O847 Mg832 2.038 . S
O847 C845 1.274 . S
O848 Mg836 2.042 1_565 S
O848 C851 1.241 . S
O849 Mg835 1.984 . S
O849 C851 1.280 . S
O850 Mg836 2.041 1_565 S
O850 C854 1.277 . S
C851 O848 1.241 . S
C851 O849 1.280 . S
O852 Mg835 1.988 . S
O852 C854 1.245 . S
O853 C829 1.247 . S
O853 Mg835 2.061 . S
C854 O850 1.277 . S
C854 O852 1.245 . S
O855 C829 1.289 . S
O855 Mg832 2.238 . S
O855 Mg833 2.106 1_565 S
O856 Mg833 2.079 . S
O856 C838 1.245 . S
O857 Mg836 2.038 . S
O857 C838 1.274 . S
H858 C866 0.950 . S
H859 C871 0.950 . S
H860 C868 0.950 . S
H861 C870 0.950 . S
H862 C872 0.950 . S
H863 C874 0.950 . S
H864 C876 0.950 . S
H865 C877 0.950 . S
C866 H858 0.950 . S
C866 C867 1.386 . S
C866 C868 1.391 . S
C867 C866 1.386 . S
C867 C871 1.393 . S
C868 H860 0.950 . S
C868 C866 1.391 . S
C868 C869 1.400 . S
C869 C868 1.400 . S
C869 C870 1.398 . S
C869 C875 1.491 . S
C870 H861 0.950 . S
C870 C869 1.398 . S
C870 C871 1.391 . S
C871 H859 0.950 . S
C871 C867 1.393 . S
C871 C870 1.391 . S
C872 H862 0.950 . S
C872 C873 1.386 . S
C872 C874 1.391 . S
C873 C872 1.386 . S
C873 C877 1.393 . S
C874 H863 0.950 . S
C874 C872 1.391 . S
C874 C875 1.400 . S
C875 C869 1.491 . S
C875 C874 1.400 . S
C875 C876 1.398 . S
C876 H864 0.950 . S
C876 C875 1.398 . S
C876 C877 1.391 . S
C877 H865 0.950 . S
C877 C873 1.393 . S
C877 C876 1.391 . S
H878 C886 0.950 . S
H879 C891 0.950 . S
H880 C888 0.950 . S
H881 C890 0.950 . S
H882 C892 0.950 . S
H883 C894 0.950 . S
H884 C896 0.950 . S
H885 C897 0.950 . S
C886 H878 0.950 . S
C886 C887 1.386 . S
C886 C888 1.391 . S
C887 C886 1.386 . S
C887 C891 1.393 . S
C888 H880 0.950 . S
C888 C886 1.391 . S
C888 C889 1.400 . S
C889 C888 1.400 . S
C889 C890 1.398 . S
C889 C895 1.491 . S
C890 H881 0.950 . S
C890 C889 1.398 . S
C890 C891 1.391 . S
C891 H879 0.950 . S
C891 C887 1.393 . S
C891 C890 1.391 . S
C892 H882 0.950 . S
C892 C893 1.386 . S
C892 C894 1.391 . S
C893 C892 1.386 . S
C893 C897 1.393 . S
C894 H883 0.950 . S
C894 C892 1.391 . S
C894 C895 1.400 . S
C895 C889 1.491 . S
C895 C894 1.400 . S
C895 C896 1.398 . S
C896 H884 0.950 . S
C896 C895 1.398 . S
C896 C897 1.391 . S
C897 H885 0.950 . S
C897 C893 1.393 . S
C897 C896 1.391 . S
H898 C906 0.950 . S
H899 C911 0.950 . S
H900 C908 0.950 . S
H901 C910 0.950 . S
H902 C912 0.950 . S
H903 C914 0.950 . S
H904 C916 0.950 . S
H905 C917 0.950 . S
C906 H898 0.950 . S
C906 C907 1.386 . S
C906 C908 1.391 . S
C907 C906 1.386 . S
C907 C911 1.393 . S
C908 H900 0.950 . S
C908 C906 1.391 . S
C908 C909 1.400 . S
C909 C908 1.400 . S
C909 C910 1.398 . S
C909 C915 1.491 . S
C910 H901 0.950 . S
C910 C909 1.398 . S
C910 C911 1.391 . S
C911 H899 0.950 . S
C911 C907 1.393 . S
C911 C910 1.391 . S
C912 H902 0.950 . S
C912 C913 1.386 . S
C912 C914 1.391 . S
C913 C912 1.386 . S
C913 C917 1.393 . S
C914 H903 0.950 . S
C914 C912 1.391 . S
C914 C915 1.400 . S
C915 C909 1.491 . S
C915 C914 1.400 . S
C915 C916 1.398 . S
C916 H904 0.950 . S
C916 C915 1.398 . S
C916 C917 1.391 . S
C917 H905 0.950 . S
C917 C913 1.393 . S
C917 C916 1.391 . S
H918 C926 0.950 . S
H919 C931 0.950 . S
H920 C928 0.950 . S
H921 C930 0.950 . S
H922 C932 0.950 . S
H923 C934 0.950 . S
H924 C936 0.950 . S
H925 C937 0.950 . S
C926 H918 0.950 . S
C926 C927 1.386 . S
C926 C928 1.391 . S
C927 C926 1.386 . S
C927 C931 1.393 . S
C928 H920 0.950 . S
C928 C926 1.391 . S
C928 C929 1.400 . S
C929 C928 1.400 . S
C929 C930 1.398 . S
C929 C935 1.491 . S
C930 H921 0.950 . S
C930 C929 1.398 . S
C930 C931 1.391 . S
C931 H919 0.950 . S
C931 C927 1.393 . S
C931 C930 1.391 . S
C932 H922 0.950 . S
C932 C933 1.386 . S
C932 C934 1.391 . S
C933 C932 1.386 . S
C933 C937 1.393 . S
C934 H923 0.950 . S
C934 C932 1.391 . S
C934 C935 1.400 . S
C935 C929 1.491 . S
C935 C934 1.400 . S
C935 C936 1.398 . S
C936 H924 0.950 . S
C936 C935 1.398 . S
C936 C937 1.391 . S
C937 H925 0.950 . S
C937 C933 1.393 . S
C937 C936 1.391 . S
H938 C946 0.950 . S
H939 C951 0.950 . S
H940 C948 0.950 . S
H941 C950 0.950 . S
H942 C952 0.950 . S
H943 C954 0.950 . S
H944 C956 0.950 . S
H945 C957 0.950 . S
C946 H938 0.950 . S
C946 C947 1.386 . S
C946 C948 1.391 . S
C947 C946 1.386 . S
C947 C951 1.393 . S
C948 H940 0.950 . S
C948 C946 1.391 . S
C948 C949 1.400 . S
C949 C948 1.400 . S
C949 C950 1.398 . S
C949 C955 1.491 . S
C950 H941 0.950 . S
C950 C949 1.398 . S
C950 C951 1.391 . S
C951 H939 0.950 . S
C951 C947 1.393 . S
C951 C950 1.391 . S
C952 H942 0.950 . S
C952 C953 1.386 . S
C952 C954 1.391 . S
C953 C952 1.386 . S
C953 C957 1.393 . S
C954 H943 0.950 . S
C954 C952 1.391 . S
C954 C955 1.400 . S
C955 C949 1.491 . S
C955 C954 1.400 . S
C955 C956 1.398 . S
C956 H944 0.950 . S
C956 C955 1.398 . S
C956 C957 1.391 . S
C957 H945 0.950 . S
C957 C953 1.393 . S
C957 C956 1.391 . S
H958 C966 0.950 . S
H959 C971 0.950 . S
H960 C968 0.950 . S
H961 C970 0.950 . S
H962 C972 0.950 . S
H963 C974 0.950 . S
H964 C976 0.950 . S
H965 C977 0.950 . S
C966 H958 0.950 . S
C966 C967 1.386 . S
C966 C968 1.391 . S
C967 C966 1.386 . S
C967 C971 1.393 . S
C968 H960 0.950 . S
C968 C966 1.391 . S
C968 C969 1.400 . S
C969 C968 1.400 . S
C969 C970 1.398 . S
C969 C975 1.491 . S
C970 H961 0.950 . S
C970 C969 1.398 . S
C970 C971 1.391 . S
C971 H959 0.950 . S
C971 C967 1.393 . S
C971 C970 1.391 . S
C972 H962 0.950 . S
C972 C973 1.386 . S
C972 C974 1.391 . S
C973 C972 1.386 . S
C973 C977 1.393 . S
C974 H963 0.950 . S
C974 C972 1.391 . S
C974 C975 1.400 . S
C975 C969 1.491 . S
C975 C974 1.400 . S
C975 C976 1.398 . S
C976 H964 0.950 . S
C976 C975 1.398 . S
C976 C977 1.391 . S
C977 H965 0.950 . S
C977 C973 1.393 . S
C977 C976 1.391 . S
H978 C986 0.950 . S
H979 C991 0.950 . S
H980 C988 0.950 . S
H981 C990 0.950 . S
H982 C992 0.950 . S
H983 C994 0.950 . S
H984 C996 0.950 . S
H985 C997 0.950 . S
C986 H978 0.950 . S
C986 C987 1.386 . S
C986 C988 1.391 . S
C987 C986 1.386 . S
C987 C991 1.393 . S
C988 H980 0.950 . S
C988 C986 1.391 . S
C988 C989 1.400 . S
C989 C988 1.400 . S
C989 C990 1.398 . S
C989 C995 1.491 . S
C990 H981 0.950 . S
C990 C989 1.398 . S
C990 C991 1.391 . S
C991 H979 0.950 . S
C991 C987 1.393 . S
C991 C990 1.391 . S
C992 H982 0.950 . S
C992 C993 1.386 . S
C992 C994 1.391 . S
C993 C992 1.386 . S
C993 C997 1.393 . S
C994 H983 0.950 . S
C994 C992 1.391 . S
C994 C995 1.400 . S
C995 C989 1.491 . S
C995 C994 1.400 . S
C995 C996 1.398 . S
C996 H984 0.950 . S
C996 C995 1.398 . S
C996 C997 1.391 . S
C997 H985 0.950 . S
C997 C993 1.393 . S
C997 C996 1.391 . S
H998 C1006 0.950 . S
H999 C1011 0.950 . S
H1000 C1008 0.950 . S
H1001 C1010 0.950 . S
H1002 C1012 0.950 . S
H1003 C1014 0.950 . S
H1004 C1016 0.950 . S
H1005 C1017 0.950 . S
C1006 H998 0.950 . S
C1006 C1007 1.386 . S
C1006 C1008 1.391 . S
C1007 C1006 1.386 . S
C1007 C1011 1.393 . S
C1008 H1000 0.950 . S
C1008 C1006 1.391 . S
C1008 C1009 1.400 . S
C1009 C1008 1.400 . S
C1009 C1010 1.398 . S
C1009 C1015 1.491 . S
C1010 H1001 0.950 . S
C1010 C1009 1.398 . S
C1010 C1011 1.391 . S
C1011 H999 0.950 . S
C1011 C1007 1.393 . S
C1011 C1010 1.391 . S
C1012 H1002 0.950 . S
C1012 C1013 1.386 . S
C1012 C1014 1.391 . S
C1013 C1012 1.386 . S
C1013 C1017 1.393 . S
C1014 H1003 0.950 . S
C1014 C1012 1.391 . S
C1014 C1015 1.400 . S
C1015 C1009 1.491 . S
C1015 C1014 1.400 . S
C1015 C1016 1.398 . S
C1016 H1004 0.950 . S
C1016 C1015 1.398 . S
C1016 C1017 1.391 . S
C1017 H1005 0.950 . S
C1017 C1013 1.393 . S
C1017 C1016 1.391 . S
H1018 C1026 0.950 . S
H1019 C1031 0.950 . S
H1020 C1028 0.950 . S
H1021 C1030 0.950 . S
H1022 C1032 0.950 . S
H1023 C1034 0.950 . S
H1024 C1036 0.950 . S
H1025 C1037 0.950 . S
C1026 H1018 0.950 . S
C1026 C1027 1.386 . S
C1026 C1028 1.391 . S
C1027 C1026 1.386 . S
C1027 C1031 1.393 . S
C1028 H1020 0.950 . S
C1028 C1026 1.391 . S
C1028 C1029 1.400 . S
C1029 C1028 1.400 . S
C1029 C1030 1.398 . S
C1029 C1035 1.491 . S
C1030 H1021 0.950 . S
C1030 C1029 1.398 . S
C1030 C1031 1.391 . S
C1031 H1019 0.950 . S
C1031 C1027 1.393 . S
C1031 C1030 1.391 . S
C1032 H1022 0.950 . S
C1032 C1033 1.386 . S
C1032 C1034 1.391 . S
C1033 C1032 1.386 . S
C1033 C1037 1.393 . S
C1034 H1023 0.950 . S
C1034 C1032 1.391 . S
C1034 C1035 1.400 . S
C1035 C1029 1.491 . S
C1035 C1034 1.400 . S
C1035 C1036 1.398 . S
C1036 H1024 0.950 . S
C1036 C1035 1.398 . S
C1036 C1037 1.391 . S
C1037 H1025 0.950 . S
C1037 C1033 1.393 . S
C1037 C1036 1.391 . S
H1038 C1046 0.950 . S
H1039 C1051 0.950 . S
H1040 C1048 0.950 . S
H1041 C1050 0.950 . S
H1042 C1052 0.950 . S
H1043 C1054 0.950 . S
H1044 C1056 0.950 . S
H1045 C1057 0.950 . S
C1046 H1038 0.950 . S
C1046 C1047 1.386 . S
C1046 C1048 1.391 . S
C1047 C1046 1.386 . S
C1047 C1051 1.393 . S
C1048 H1040 0.950 . S
C1048 C1046 1.391 . S
C1048 C1049 1.400 . S
C1049 C1048 1.400 . S
C1049 C1050 1.398 . S
C1049 C1055 1.491 . S
C1050 H1041 0.950 . S
C1050 C1049 1.398 . S
C1050 C1051 1.391 . S
C1051 H1039 0.950 . S
C1051 C1047 1.393 . S
C1051 C1050 1.391 . S
C1052 H1042 0.950 . S
C1052 C1053 1.386 . S
C1052 C1054 1.391 . S
C1053 C1052 1.386 . S
C1053 C1057 1.393 . S
C1054 H1043 0.950 . S
C1054 C1052 1.391 . S
C1054 C1055 1.400 . S
C1055 C1049 1.491 . S
C1055 C1054 1.400 . S
C1055 C1056 1.398 . S
C1056 H1044 0.950 . S
C1056 C1055 1.398 . S
C1056 C1057 1.391 . S
C1057 H1045 0.950 . S
C1057 C1053 1.393 . S
C1057 C1056 1.391 . S
H1058 C1066 0.950 . S
H1059 C1071 0.950 . S
H1060 C1068 0.950 . S
H1061 C1070 0.950 . S
H1062 C1072 0.950 . S
H1063 C1074 0.950 . S
H1064 C1076 0.950 . S
H1065 C1077 0.950 . S
C1066 H1058 0.950 . S
C1066 C1067 1.386 . S
C1066 C1068 1.391 . S
C1067 C1066 1.386 . S
C1067 C1071 1.393 . S
C1068 H1060 0.950 . S
C1068 C1066 1.391 . S
C1068 C1069 1.400 . S
C1069 C1068 1.400 . S
C1069 C1070 1.398 . S
C1069 C1075 1.491 . S
C1070 H1061 0.950 . S
C1070 C1069 1.398 . S
C1070 C1071 1.391 . S
C1071 H1059 0.950 . S
C1071 C1067 1.393 . S
C1071 C1070 1.391 . S
C1072 H1062 0.950 . S
C1072 C1073 1.386 . S
C1072 C1074 1.391 . S
C1073 C1072 1.386 . S
C1073 C1077 1.393 . S
C1074 H1063 0.950 . S
C1074 C1072 1.391 . S
C1074 C1075 1.400 . S
C1075 C1069 1.491 . S
C1075 C1074 1.400 . S
C1075 C1076 1.398 . S
C1076 H1064 0.950 . S
C1076 C1075 1.398 . S
C1076 C1077 1.391 . S
C1077 H1065 0.950 . S
C1077 C1073 1.393 . S
C1077 C1076 1.391 . S
H1078 C1086 0.950 . S
H1079 C1091 0.950 . S
H1080 C1088 0.950 . S
H1081 C1090 0.950 . S
H1082 C1092 0.950 . S
H1083 C1094 0.950 . S
H1084 C1096 0.950 . S
H1085 C1097 0.950 . S
C1086 H1078 0.950 . S
C1086 C1087 1.386 . S
C1086 C1088 1.391 . S
C1087 C1086 1.386 . S
C1087 C1091 1.393 . S
C1088 H1080 0.950 . S
C1088 C1086 1.391 . S
C1088 C1089 1.400 . S
C1089 C1088 1.400 . S
C1089 C1090 1.398 . S
C1089 C1095 1.491 . S
C1090 H1081 0.950 . S
C1090 C1089 1.398 . S
C1090 C1091 1.391 . S
C1091 H1079 0.950 . S
C1091 C1087 1.393 . S
C1091 C1090 1.391 . S
C1092 H1082 0.950 . S
C1092 C1093 1.386 . S
C1092 C1094 1.391 . S
C1093 C1092 1.386 . S
C1093 C1097 1.393 . S
C1094 H1083 0.950 . S
C1094 C1092 1.391 . S
C1094 C1095 1.400 . S
C1095 C1089 1.491 . S
C1095 C1094 1.400 . S
C1095 C1096 1.398 . S
C1096 H1084 0.950 . S
C1096 C1095 1.398 . S
C1096 C1097 1.391 . S
C1097 H1085 0.950 . S
C1097 C1093 1.393 . S
C1097 C1096 1.391 . S
H1098 C1106 0.950 . S
H1099 C1111 0.950 . S
H1100 C1108 0.950 . S
H1101 C1110 0.950 . S
H1102 C1112 0.950 . S
H1103 C1114 0.950 . S
H1104 C1116 0.950 . S
H1105 C1117 0.950 . S
C1106 H1098 0.950 . S
C1106 C1107 1.386 . S
C1106 C1108 1.391 . S
C1107 C1106 1.386 . S
C1107 C1111 1.393 . S
C1108 H1100 0.950 . S
C1108 C1106 1.391 . S
C1108 C1109 1.400 . S
C1109 C1108 1.400 . S
C1109 C1110 1.398 . S
C1109 C1115 1.491 . S
C1110 H1101 0.950 . S
C1110 C1109 1.398 . S
C1110 C1111 1.391 . S
C1111 H1099 0.950 . S
C1111 C1107 1.393 . S
C1111 C1110 1.391 . S
C1112 H1102 0.950 . S
C1112 C1113 1.386 . S
C1112 C1114 1.391 . S
C1113 C1112 1.386 . S
C1113 C1117 1.393 . S
C1114 H1103 0.950 . S
C1114 C1112 1.391 . S
C1114 C1115 1.400 . S
C1115 C1109 1.491 . S
C1115 C1114 1.400 . S
C1115 C1116 1.398 . S
C1116 H1104 0.950 . S
C1116 C1115 1.398 . S
C1116 C1117 1.391 . S
C1117 H1105 0.950 . S
C1117 C1113 1.393 . S
C1117 C1116 1.391 . S
H1118 C1126 0.950 . S
H1119 C1131 0.950 . S
H1120 C1128 0.950 . S
H1121 C1130 0.950 . S
H1122 C1132 0.950 . S
H1123 C1134 0.950 . S
H1124 C1136 0.950 . S
H1125 C1137 0.950 . S
C1126 H1118 0.950 . S
C1126 C1127 1.386 . S
C1126 C1128 1.391 . S
C1127 C1126 1.386 . S
C1127 C1131 1.393 . S
C1128 H1120 0.950 . S
C1128 C1126 1.391 . S
C1128 C1129 1.400 . S
C1129 C1128 1.400 . S
C1129 C1130 1.398 . S
C1129 C1135 1.491 . S
C1130 H1121 0.950 . S
C1130 C1129 1.398 . S
C1130 C1131 1.391 . S
C1131 H1119 0.950 . S
C1131 C1127 1.393 . S
C1131 C1130 1.391 . S
C1132 H1122 0.950 . S
C1132 C1133 1.386 . S
C1132 C1134 1.391 . S
C1133 C1132 1.386 . S
C1133 C1137 1.393 . S
C1134 H1123 0.950 . S
C1134 C1132 1.391 . S
C1134 C1135 1.400 . S
C1135 C1129 1.491 . S
C1135 C1134 1.400 . S
C1135 C1136 1.398 . S
C1136 H1124 0.950 . S
C1136 C1135 1.398 . S
C1136 C1137 1.391 . S
C1137 H1125 0.950 . S
C1137 C1133 1.393 . S
C1137 C1136 1.391 . S
H1138 C1146 0.950 . S
H1139 C1151 0.950 . S
H1140 C1148 0.950 . S
H1141 C1150 0.950 . S
H1142 C1152 0.950 . S
H1143 C1154 0.950 . S
H1144 C1156 0.950 . S
H1145 C1157 0.950 . S
C1146 H1138 0.950 . S
C1146 C1147 1.386 . S
C1146 C1148 1.391 . S
C1147 C1146 1.386 . S
C1147 C1151 1.393 . S
C1148 H1140 0.950 . S
C1148 C1146 1.391 . S
C1148 C1149 1.400 . S
C1149 C1148 1.400 . S
C1149 C1150 1.398 . S
C1149 C1155 1.491 . S
C1150 H1141 0.950 . S
C1150 C1149 1.398 . S
C1150 C1151 1.391 . S
C1151 H1139 0.950 . S
C1151 C1147 1.393 . S
C1151 C1150 1.391 . S
C1152 H1142 0.950 . S
C1152 C1153 1.386 . S
C1152 C1154 1.391 . S
C1153 C1152 1.386 . S
C1153 C1157 1.393 . S
C1154 H1143 0.950 . S
C1154 C1152 1.391 . S
C1154 C1155 1.400 . S
C1155 C1149 1.491 . S
C1155 C1154 1.400 . S
C1155 C1156 1.398 . S
C1156 H1144 0.950 . S
C1156 C1155 1.398 . S
C1156 C1157 1.391 . S
C1157 H1145 0.950 . S
C1157 C1153 1.393 . S
C1157 C1156 1.391 . S
H1158 C1166 0.950 . S
H1159 C1171 0.950 . S
H1160 C1168 0.950 . S
H1161 C1170 0.950 . S
H1162 C1172 0.950 . S
H1163 C1174 0.950 . S
H1164 C1176 0.950 . S
H1165 C1177 0.950 . S
C1166 H1158 0.950 . S
C1166 C1167 1.386 . S
C1166 C1168 1.391 . S
C1167 C1166 1.386 . S
C1167 C1171 1.393 . S
C1168 H1160 0.950 . S
C1168 C1166 1.391 . S
C1168 C1169 1.400 . S
C1169 C1168 1.400 . S
C1169 C1170 1.398 . S
C1169 C1175 1.491 . S
C1170 H1161 0.950 . S
C1170 C1169 1.398 . S
C1170 C1171 1.391 . S
C1171 H1159 0.950 . S
C1171 C1167 1.393 . S
C1171 C1170 1.391 . S
C1172 H1162 0.950 . S
C1172 C1173 1.386 . S
C1172 C1174 1.391 . S
C1173 C1172 1.386 . S
C1173 C1177 1.393 . S
C1174 H1163 0.950 . S
C1174 C1172 1.391 . S
C1174 C1175 1.400 . S
C1175 C1169 1.491 . S
C1175 C1174 1.400 . S
C1175 C1176 1.398 . S
C1176 H1164 0.950 . S
C1176 C1175 1.398 . S
C1176 C1177 1.391 . S
C1177 H1165 0.950 . S
C1177 C1173 1.393 . S
C1177 C1176 1.391 . S
H1178 C1186 0.950 . S
H1179 C1191 0.950 . S
H1180 C1188 0.950 . S
H1181 C1190 0.950 . S
H1182 C1192 0.950 . S
H1183 C1194 0.950 . S
H1184 C1196 0.950 . S
H1185 C1197 0.950 . S
C1186 H1178 0.950 . S
C1186 C1187 1.386 . S
C1186 C1188 1.391 . S
C1187 C1186 1.386 . S
C1187 C1191 1.393 . S
C1188 H1180 0.950 . S
C1188 C1186 1.391 . S
C1188 C1189 1.400 . S
C1189 C1188 1.400 . S
C1189 C1190 1.398 . S
C1189 C1195 1.491 . S
C1190 H1181 0.950 . S
C1190 C1189 1.398 . S
C1190 C1191 1.391 . S
C1191 H1179 0.950 . S
C1191 C1187 1.393 . S
C1191 C1190 1.391 . S
C1192 H1182 0.950 . S
C1192 C1193 1.386 . S
C1192 C1194 1.391 . S
C1193 C1192 1.386 . S
C1193 C1197 1.393 . S
C1194 H1183 0.950 . S
C1194 C1192 1.391 . S
C1194 C1195 1.400 . S
C1195 C1189 1.491 . S
C1195 C1194 1.400 . S
C1195 C1196 1.398 . S
C1196 H1184 0.950 . S
C1196 C1195 1.398 . S
C1196 C1197 1.391 . S
C1197 H1185 0.950 . S
C1197 C1193 1.393 . S
C1197 C1196 1.391 . S
H1198 C1206 0.950 . S
H1199 C1211 0.950 . S
H1200 C1208 0.950 . S
H1201 C1210 0.950 . S
H1202 C1212 0.950 . S
H1203 C1214 0.950 . S
H1204 C1216 0.950 . S
H1205 C1217 0.950 . S
C1206 H1198 0.950 . S
C1206 C1207 1.386 . S
C1206 C1208 1.391 . S
C1207 C1206 1.386 . S
C1207 C1211 1.393 . S
C1208 H1200 0.950 . S
C1208 C1206 1.391 . S
C1208 C1209 1.400 . S
C1209 C1208 1.400 . S
C1209 C1210 1.398 . S
C1209 C1215 1.491 . S
C1210 H1201 0.950 . S
C1210 C1209 1.398 . S
C1210 C1211 1.391 . S
C1211 H1199 0.950 . S
C1211 C1207 1.393 . S
C1211 C1210 1.391 . S
C1212 H1202 0.950 . S
C1212 C1213 1.386 . S
C1212 C1214 1.391 . S
C1213 C1212 1.386 . S
C1213 C1217 1.393 . S
C1214 H1203 0.950 . S
C1214 C1212 1.391 . S
C1214 C1215 1.400 . S
C1215 C1209 1.491 . S
C1215 C1214 1.400 . S
C1215 C1216 1.398 . S
C1216 H1204 0.950 . S
C1216 C1215 1.398 . S
C1216 C1217 1.391 . S
C1217 H1205 0.950 . S
C1217 C1213 1.393 . S
C1217 C1216 1.391 . S
H1218 C1226 0.950 . S
H1219 C1231 0.950 . S
H1220 C1228 0.950 . S
H1221 C1230 0.950 . S
H1222 C1232 0.950 . S
H1223 C1234 0.950 . S
H1224 C1236 0.950 . S
H1225 C1237 0.950 . S
C1226 H1218 0.950 . S
C1226 C1227 1.386 . S
C1226 C1228 1.391 . S
C1227 C1226 1.386 . S
C1227 C1231 1.393 . S
C1228 H1220 0.950 . S
C1228 C1226 1.391 . S
C1228 C1229 1.400 . S
C1229 C1228 1.400 . S
C1229 C1230 1.398 . S
C1229 C1235 1.491 . S
C1230 H1221 0.950 . S
C1230 C1229 1.398 . S
C1230 C1231 1.391 . S
C1231 H1219 0.950 . S
C1231 C1227 1.393 . S
C1231 C1230 1.391 . S
C1232 H1222 0.950 . S
C1232 C1233 1.386 . S
C1232 C1234 1.391 . S
C1233 C1232 1.386 . S
C1233 C1237 1.393 . S
C1234 H1223 0.950 . S
C1234 C1232 1.391 . S
C1234 C1235 1.400 . S
C1235 C1229 1.491 . S
C1235 C1234 1.400 . S
C1235 C1236 1.398 . S
C1236 H1224 0.950 . S
C1236 C1235 1.398 . S
C1236 C1237 1.391 . S
C1237 H1225 0.950 . S
C1237 C1233 1.393 . S
C1237 C1236 1.391 . S
H1238 C1246 0.950 . S
H1239 C1251 0.950 . S
H1240 C1248 0.950 . S
H1241 C1250 0.950 . S
H1242 C1252 0.950 . S
H1243 C1254 0.950 . S
H1244 C1256 0.950 . S
H1245 C1257 0.950 . S
C1246 H1238 0.950 . S
C1246 C1247 1.386 . S
C1246 C1248 1.391 . S
C1247 C1246 1.386 . S
C1247 C1251 1.393 . S
C1248 H1240 0.950 . S
C1248 C1246 1.391 . S
C1248 C1249 1.400 . S
C1249 C1248 1.400 . S
C1249 C1250 1.398 . S
C1249 C1255 1.491 . S
C1250 H1241 0.950 . S
C1250 C1249 1.398 . S
C1250 C1251 1.391 . S
C1251 H1239 0.950 . S
C1251 C1247 1.393 . S
C1251 C1250 1.391 . S
C1252 H1242 0.950 . S
C1252 C1253 1.386 . S
C1252 C1254 1.391 . S
C1253 C1252 1.386 . S
C1253 C1257 1.393 . S
C1254 H1243 0.950 . S
C1254 C1252 1.391 . S
C1254 C1255 1.400 . S
C1255 C1249 1.491 . S
C1255 C1254 1.400 . S
C1255 C1256 1.398 . S
C1256 H1244 0.950 . S
C1256 C1255 1.398 . S
C1256 C1257 1.391 . S
C1257 H1245 0.950 . S
C1257 C1253 1.393 . S
C1257 C1256 1.391 . S
H1258 C1266 0.950 . S
H1259 C1271 0.950 . S
H1260 C1268 0.950 . S
H1261 C1270 0.950 . S
H1262 C1272 0.950 . S
H1263 C1274 0.950 . S
H1264 C1276 0.950 . S
H1265 C1277 0.950 . S
C1266 H1258 0.950 . S
C1266 C1267 1.386 . S
C1266 C1268 1.391 . S
C1267 C1266 1.386 . S
C1267 C1271 1.393 . S
C1268 H1260 0.950 . S
C1268 C1266 1.391 . S
C1268 C1269 1.400 . S
C1269 C1268 1.400 . S
C1269 C1270 1.398 . S
C1269 C1275 1.491 . S
C1270 H1261 0.950 . S
C1270 C1269 1.398 . S
C1270 C1271 1.391 . S
C1271 H1259 0.950 . S
C1271 C1267 1.393 . S
C1271 C1270 1.391 . S
C1272 H1262 0.950 . S
C1272 C1273 1.386 . S
C1272 C1274 1.391 . S
C1273 C1272 1.386 . S
C1273 C1277 1.393 . S
C1274 H1263 0.950 . S
C1274 C1272 1.391 . S
C1274 C1275 1.400 . S
C1275 C1269 1.491 . S
C1275 C1274 1.400 . S
C1275 C1276 1.398 . S
C1276 H1264 0.950 . S
C1276 C1275 1.398 . S
C1276 C1277 1.391 . S
C1277 H1265 0.950 . S
C1277 C1273 1.393 . S
C1277 C1276 1.391 . S
H1278 C1286 0.950 . S
H1279 C1291 0.950 . S
H1280 C1288 0.950 . S
H1281 C1290 0.950 . S
H1282 C1292 0.950 . S
H1283 C1294 0.950 . S
H1284 C1296 0.950 . S
H1285 C1297 0.950 . S
C1286 H1278 0.950 . S
C1286 C1287 1.386 . S
C1286 C1288 1.391 . S
C1287 C1286 1.386 . S
C1287 C1291 1.393 . S
C1288 H1280 0.950 . S
C1288 C1286 1.391 . S
C1288 C1289 1.400 . S
C1289 C1288 1.400 . S
C1289 C1290 1.398 . S
C1289 C1295 1.491 . S
C1290 H1281 0.950 . S
C1290 C1289 1.398 . S
C1290 C1291 1.391 . S
C1291 H1279 0.950 . S
C1291 C1287 1.393 . S
C1291 C1290 1.391 . S
C1292 H1282 0.950 . S
C1292 C1293 1.386 . S
C1292 C1294 1.391 . S
C1293 C1292 1.386 . S
C1293 C1297 1.393 . S
C1294 H1283 0.950 . S
C1294 C1292 1.391 . S
C1294 C1295 1.400 . S
C1295 C1289 1.491 . S
C1295 C1294 1.400 . S
C1295 C1296 1.398 . S
C1296 H1284 0.950 . S
C1296 C1295 1.398 . S
C1296 C1297 1.391 . S
C1297 H1285 0.950 . S
C1297 C1293 1.393 . S
C1297 C1296 1.391 . S
H1298 C1306 0.950 . S
H1299 C1311 0.950 . S
H1300 C1308 0.950 . S
H1301 C1310 0.950 . S
H1302 C1312 0.950 . S
H1303 C1314 0.950 . S
H1304 C1316 0.950 . S
H1305 C1317 0.950 . S
C1306 H1298 0.950 . S
C1306 C1307 1.386 . S
C1306 C1308 1.391 . S
C1307 C1306 1.386 . S
C1307 C1311 1.393 . S
C1308 H1300 0.950 . S
C1308 C1306 1.391 . S
C1308 C1309 1.400 . S
C1309 C1308 1.400 . S
C1309 C1310 1.398 . S
C1309 C1315 1.491 . S
C1310 H1301 0.950 . S
C1310 C1309 1.398 . S
C1310 C1311 1.391 . S
C1311 H1299 0.950 . S
C1311 C1307 1.393 . S
C1311 C1310 1.391 . S
C1312 H1302 0.950 . S
C1312 C1313 1.386 . S
C1312 C1314 1.391 . S
C1313 C1312 1.386 . S
C1313 C1317 1.393 . S
C1314 H1303 0.950 . S
C1314 C1312 1.391 . S
C1314 C1315 1.400 . S
C1315 C1309 1.491 . S
C1315 C1314 1.400 . S
C1315 C1316 1.398 . S
C1316 H1304 0.950 . S
C1316 C1315 1.398 . S
C1316 C1317 1.391 . S
C1317 H1305 0.950 . S
C1317 C1313 1.393 . S
C1317 C1316 1.391 . S
H1318 C1326 0.950 . S
H1319 C1331 0.950 . S
H1320 C1328 0.950 . S
H1321 C1330 0.950 . S
H1322 C1332 0.950 . S
H1323 C1334 0.950 . S
H1324 C1336 0.950 . S
H1325 C1337 0.950 . S
C1326 H1318 0.950 . S
C1326 C1327 1.386 . S
C1326 C1328 1.391 . S
C1327 C1326 1.386 . S
C1327 C1331 1.393 . S
C1328 H1320 0.950 . S
C1328 C1326 1.391 . S
C1328 C1329 1.400 . S
C1329 C1328 1.400 . S
C1329 C1330 1.398 . S
C1329 C1335 1.491 . S
C1330 H1321 0.950 . S
C1330 C1329 1.398 . S
C1330 C1331 1.391 . S
C1331 H1319 0.950 . S
C1331 C1327 1.393 . S
C1331 C1330 1.391 . S
C1332 H1322 0.950 . S
C1332 C1333 1.386 . S
C1332 C1334 1.391 . S
C1333 C1332 1.386 . S
C1333 C1337 1.393 . S
C1334 H1323 0.950 . S
C1334 C1332 1.391 . S
C1334 C1335 1.400 . S
C1335 C1329 1.491 . S
C1335 C1334 1.400 . S
C1335 C1336 1.398 . S
C1336 H1324 0.950 . S
C1336 C1335 1.398 . S
C1336 C1337 1.391 . S
C1337 H1325 0.950 . S
C1337 C1333 1.393 . S
C1337 C1336 1.391 . S
H1338 C1346 0.950 . S
H1339 C1351 0.950 . S
H1340 C1348 0.950 . S
H1341 C1350 0.950 . S
H1342 C1352 0.950 . S
H1343 C1354 0.950 . S
H1344 C1356 0.950 . S
H1345 C1357 0.950 . S
C1346 H1338 0.950 . S
C1346 C1347 1.386 . S
C1346 C1348 1.391 . S
C1347 C1346 1.386 . S
C1347 C1351 1.393 . S
C1348 H1340 0.950 . S
C1348 C1346 1.391 . S
C1348 C1349 1.400 . S
C1349 C1348 1.400 . S
C1349 C1350 1.398 . S
C1349 C1355 1.491 . S
C1350 H1341 0.950 . S
C1350 C1349 1.398 . S
C1350 C1351 1.391 . S
C1351 H1339 0.950 . S
C1351 C1347 1.393 . S
C1351 C1350 1.391 . S
C1352 H1342 0.950 . S
C1352 C1353 1.386 . S
C1352 C1354 1.391 . S
C1353 C1352 1.386 . S
C1353 C1357 1.393 . S
C1354 H1343 0.950 . S
C1354 C1352 1.391 . S
C1354 C1355 1.400 . S
C1355 C1349 1.491 . S
C1355 C1354 1.400 . S
C1355 C1356 1.398 . S
C1356 H1344 0.950 . S
C1356 C1355 1.398 . S
C1356 C1357 1.391 . S
C1357 H1345 0.950 . S
C1357 C1353 1.393 . S
C1357 C1356 1.391 . S
H1358 C1366 0.950 . S
H1359 C1371 0.950 . S
H1360 C1368 0.950 . S
H1361 C1370 0.950 . S
H1362 C1372 0.950 . S
H1363 C1374 0.950 . S
H1364 C1376 0.950 . S
H1365 C1377 0.950 . S
C1366 H1358 0.950 . S
C1366 C1367 1.386 . S
C1366 C1368 1.391 . S
C1367 C1366 1.386 . S
C1367 C1371 1.393 . S
C1368 H1360 0.950 . S
C1368 C1366 1.391 . S
C1368 C1369 1.400 . S
C1369 C1368 1.400 . S
C1369 C1370 1.398 . S
C1369 C1375 1.491 . S
C1370 H1361 0.950 . S
C1370 C1369 1.398 . S
C1370 C1371 1.391 . S
C1371 H1359 0.950 . S
C1371 C1367 1.393 . S
C1371 C1370 1.391 . S
C1372 H1362 0.950 . S
C1372 C1373 1.386 . S
C1372 C1374 1.391 . S
C1373 C1372 1.386 . S
C1373 C1377 1.393 . S
C1374 H1363 0.950 . S
C1374 C1372 1.391 . S
C1374 C1375 1.400 . S
C1375 C1369 1.491 . S
C1375 C1374 1.400 . S
C1375 C1376 1.398 . S
C1376 H1364 0.950 . S
C1376 C1375 1.398 . S
C1376 C1377 1.391 . S
C1377 H1365 0.950 . S
C1377 C1373 1.393 . S
C1377 C1376 1.391 . S
H1378 C1386 0.950 . S
H1379 C1391 0.950 . S
H1380 C1388 0.950 . S
H1381 C1390 0.950 . S
H1382 C1392 0.950 . S
H1383 C1394 0.950 . S
H1384 C1396 0.950 . S
H1385 C1397 0.950 . S
C1386 H1378 0.950 . S
C1386 C1387 1.386 . S
C1386 C1388 1.391 . S
C1387 C1386 1.386 . S
C1387 C1391 1.393 . S
C1388 H1380 0.950 . S
C1388 C1386 1.391 . S
C1388 C1389 1.400 . S
C1389 C1388 1.400 . S
C1389 C1390 1.398 . S
C1389 C1395 1.491 . S
C1390 H1381 0.950 . S
C1390 C1389 1.398 . S
C1390 C1391 1.391 . S
C1391 H1379 0.950 . S
C1391 C1387 1.393 . S
C1391 C1390 1.391 . S
C1392 H1382 0.950 . S
C1392 C1393 1.386 . S
C1392 C1394 1.391 . S
C1393 C1392 1.386 . S
C1393 C1397 1.393 . S
C1394 H1383 0.950 . S
C1394 C1392 1.391 . S
C1394 C1395 1.400 . S
C1395 C1389 1.491 . S
C1395 C1394 1.400 . S
C1395 C1396 1.398 . S
C1396 H1384 0.950 . S
C1396 C1395 1.398 . S
C1396 C1397 1.391 . S
C1397 H1385 0.950 . S
C1397 C1393 1.393 . S
C1397 C1396 1.391 . S
H1398 C1406 0.950 . S
H1399 C1411 0.950 . S
H1400 C1408 0.950 . S
H1401 C1410 0.950 . S
H1402 C1412 0.950 . S
H1403 C1414 0.950 . S
H1404 C1416 0.950 . S
H1405 C1417 0.950 . S
C1406 H1398 0.950 . S
C1406 C1407 1.386 . S
C1406 C1408 1.391 . S
C1407 C1406 1.386 . S
C1407 C1411 1.393 . S
C1408 H1400 0.950 . S
C1408 C1406 1.391 . S
C1408 C1409 1.400 . S
C1409 C1408 1.400 . S
C1409 C1410 1.398 . S
C1409 C1415 1.491 . S
C1410 H1401 0.950 . S
C1410 C1409 1.398 . S
C1410 C1411 1.391 . S
C1411 H1399 0.950 . S
C1411 C1407 1.393 . S
C1411 C1410 1.391 . S
C1412 H1402 0.950 . S
C1412 C1413 1.386 . S
C1412 C1414 1.391 . S
C1413 C1412 1.386 . S
C1413 C1417 1.393 . S
C1414 H1403 0.950 . S
C1414 C1412 1.391 . S
C1414 C1415 1.400 . S
C1415 C1409 1.491 . S
C1415 C1414 1.400 . S
C1415 C1416 1.398 . S
C1416 H1404 0.950 . S
C1416 C1415 1.398 . S
C1416 C1417 1.391 . S
C1417 H1405 0.950 . S
C1417 C1413 1.393 . S
C1417 C1416 1.391 . S
H1418 C1426 0.950 . S
H1419 C1431 0.950 . S
H1420 C1428 0.950 . S
H1421 C1430 0.950 . S
H1422 C1432 0.950 . S
H1423 C1434 0.950 . S
H1424 C1436 0.950 . S
H1425 C1437 0.950 . S
C1426 H1418 0.950 . S
C1426 C1427 1.386 . S
C1426 C1428 1.391 . S
C1427 C1426 1.386 . S
C1427 C1431 1.393 . S
C1428 H1420 0.950 . S
C1428 C1426 1.391 . S
C1428 C1429 1.400 . S
C1429 C1428 1.400 . S
C1429 C1430 1.398 . S
C1429 C1435 1.491 . S
C1430 H1421 0.950 . S
C1430 C1429 1.398 . S
C1430 C1431 1.391 . S
C1431 H1419 0.950 . S
C1431 C1427 1.393 . S
C1431 C1430 1.391 . S
C1432 H1422 0.950 . S
C1432 C1433 1.386 . S
C1432 C1434 1.391 . S
C1433 C1432 1.386 . S
C1433 C1437 1.393 . S
C1434 H1423 0.950 . S
C1434 C1432 1.391 . S
C1434 C1435 1.400 . S
C1435 C1429 1.491 . S
C1435 C1434 1.400 . S
C1435 C1436 1.398 . S
C1436 H1424 0.950 . S
C1436 C1435 1.398 . S
C1436 C1437 1.391 . S
C1437 H1425 0.950 . S
C1437 C1433 1.393 . S
C1437 C1436 1.391 . S
H1438 C1446 0.950 . S
H1439 C1451 0.950 . S
H1440 C1448 0.950 . S
H1441 C1450 0.950 . S
H1442 C1452 0.950 . S
H1443 C1454 0.950 . S
H1444 C1456 0.950 . S
H1445 C1457 0.950 . S
C1446 H1438 0.950 . S
C1446 C1447 1.386 . S
C1446 C1448 1.391 . S
C1447 C1446 1.386 . S
C1447 C1451 1.393 . S
C1448 H1440 0.950 . S
C1448 C1446 1.391 . S
C1448 C1449 1.400 . S
C1449 C1448 1.400 . S
C1449 C1450 1.398 . S
C1449 C1455 1.491 . S
C1450 H1441 0.950 . S
C1450 C1449 1.398 . S
C1450 C1451 1.391 . S
C1451 H1439 0.950 . S
C1451 C1447 1.393 . S
C1451 C1450 1.391 . S
C1452 H1442 0.950 . S
C1452 C1453 1.386 . S
C1452 C1454 1.391 . S
C1453 C1452 1.386 . S
C1453 C1457 1.393 . S
C1454 H1443 0.950 . S
C1454 C1452 1.391 . S
C1454 C1455 1.400 . S
C1455 C1449 1.491 . S
C1455 C1454 1.400 . S
C1455 C1456 1.398 . S
C1456 H1444 0.950 . S
C1456 C1455 1.398 . S
C1456 C1457 1.391 . S
C1457 H1445 0.950 . S
C1457 C1453 1.393 . S
C1457 C1456 1.391 . S
H1458 C1466 0.950 . S
H1459 C1471 0.950 . S
H1460 C1468 0.950 . S
H1461 C1470 0.950 . S
H1462 C1472 0.950 . S
H1463 C1474 0.950 . S
H1464 C1476 0.950 . S
H1465 C1477 0.950 . S
C1466 H1458 0.950 . S
C1466 C1467 1.386 . S
C1466 C1468 1.391 . S
C1467 C1466 1.386 . S
C1467 C1471 1.393 . S
C1468 H1460 0.950 . S
C1468 C1466 1.391 . S
C1468 C1469 1.400 . S
C1469 C1468 1.400 . S
C1469 C1470 1.398 . S
C1469 C1475 1.491 . S
C1470 H1461 0.950 . S
C1470 C1469 1.398 . S
C1470 C1471 1.391 . S
C1471 H1459 0.950 . S
C1471 C1467 1.393 . S
C1471 C1470 1.391 . S
C1472 H1462 0.950 . S
C1472 C1473 1.386 . S
C1472 C1474 1.391 . S
C1473 C1472 1.386 . S
C1473 C1477 1.393 . S
C1474 H1463 0.950 . S
C1474 C1472 1.391 . S
C1474 C1475 1.400 . S
C1475 C1469 1.491 . S
C1475 C1474 1.400 . S
C1475 C1476 1.398 . S
C1476 H1464 0.950 . S
C1476 C1475 1.398 . S
C1476 C1477 1.391 . S
C1477 H1465 0.950 . S
C1477 C1473 1.393 . S
C1477 C1476 1.391 . S
H1478 C1486 0.950 . S
H1479 C1491 0.950 . S
H1480 C1488 0.950 . S
H1481 C1490 0.950 . S
H1482 C1492 0.950 . S
H1483 C1494 0.950 . S
H1484 C1496 0.950 . S
H1485 C1497 0.950 . S
C1486 H1478 0.950 . S
C1486 C1487 1.386 . S
C1486 C1488 1.391 . S
C1487 C1486 1.386 . S
C1487 C1491 1.393 . S
C1488 H1480 0.950 . S
C1488 C1486 1.391 . S
C1488 C1489 1.400 . S
C1489 C1488 1.400 . S
C1489 C1490 1.398 . S
C1489 C1495 1.491 . S
C1490 H1481 0.950 . S
C1490 C1489 1.398 . S
C1490 C1491 1.391 . S
C1491 H1479 0.950 . S
C1491 C1487 1.393 . S
C1491 C1490 1.391 . S
C1492 H1482 0.950 . S
C1492 C1493 1.386 . S
C1492 C1494 1.391 . S
C1493 C1492 1.386 . S
C1493 C1497 1.393 . S
C1494 H1483 0.950 . S
C1494 C1492 1.391 . S
C1494 C1495 1.400 . S
C1495 C1489 1.491 . S
C1495 C1494 1.400 . S
C1495 C1496 1.398 . S
C1496 H1484 0.950 . S
C1496 C1495 1.398 . S
C1496 C1497 1.391 . S
C1497 H1485 0.950 . S
C1497 C1493 1.393 . S
C1497 C1496 1.391 . S
H1498 C1506 0.950 . S
H1499 C1511 0.950 . S
H1500 C1508 0.950 . S
H1501 C1510 0.950 . S
H1502 C1512 0.950 . S
H1503 C1514 0.950 . S
H1504 C1516 0.950 . S
H1505 C1517 0.950 . S
C1506 H1498 0.950 . S
C1506 C1507 1.386 . S
C1506 C1508 1.391 . S
C1507 C1506 1.386 . S
C1507 C1511 1.393 . S
C1508 H1500 0.950 . S
C1508 C1506 1.391 . S
C1508 C1509 1.400 . S
C1509 C1508 1.400 . S
C1509 C1510 1.398 . S
C1509 C1515 1.491 . S
C1510 H1501 0.950 . S
C1510 C1509 1.398 . S
C1510 C1511 1.391 . S
C1511 H1499 0.950 . S
C1511 C1507 1.393 . S
C1511 C1510 1.391 . S
C1512 H1502 0.950 . S
C1512 C1513 1.386 . S
C1512 C1514 1.391 . S
C1513 C1512 1.386 . S
C1513 C1517 1.393 . S
C1514 H1503 0.950 . S
C1514 C1512 1.391 . S
C1514 C1515 1.400 . S
C1515 C1509 1.491 . S
C1515 C1514 1.400 . S
C1515 C1516 1.398 . S
C1516 H1504 0.950 . S
C1516 C1515 1.398 . S
C1516 C1517 1.391 . S
C1517 H1505 0.950 . S
C1517 C1513 1.393 . S
C1517 C1516 1.391 . S
H1518 C1526 0.950 . S
H1519 C1531 0.950 . S
H1520 C1528 0.950 . S
H1521 C1530 0.950 . S
H1522 C1532 0.950 . S
H1523 C1534 0.950 . S
H1524 C1536 0.950 . S
H1525 C1537 0.950 . S
C1526 H1518 0.950 . S
C1526 C1527 1.386 . S
C1526 C1528 1.391 . S
C1527 C1526 1.386 . S
C1527 C1531 1.393 . S
C1528 H1520 0.950 . S
C1528 C1526 1.391 . S
C1528 C1529 1.400 . S
C1529 C1528 1.400 . S
C1529 C1530 1.398 . S
C1529 C1535 1.491 . S
C1530 H1521 0.950 . S
C1530 C1529 1.398 . S
C1530 C1531 1.391 . S
C1531 H1519 0.950 . S
C1531 C1527 1.393 . S
C1531 C1530 1.391 . S
C1532 H1522 0.950 . S
C1532 C1533 1.386 . S
C1532 C1534 1.391 . S
C1533 C1532 1.386 . S
C1533 C1537 1.393 . S
C1534 H1523 0.950 . S
C1534 C1532 1.391 . S
C1534 C1535 1.400 . S
C1535 C1529 1.491 . S
C1535 C1534 1.400 . S
C1535 C1536 1.398 . S
C1536 H1524 0.950 . S
C1536 C1535 1.398 . S
C1536 C1537 1.391 . S
C1537 H1525 0.950 . S
C1537 C1533 1.393 . S
C1537 C1536 1.391 . S
H1538 C1546 0.950 . S
H1539 C1551 0.950 . S
H1540 C1548 0.950 . S
H1541 C1550 0.950 . S
H1542 C1552 0.950 . S
H1543 C1554 0.950 . S
H1544 C1556 0.950 . S
H1545 C1557 0.950 . S
C1546 H1538 0.950 . S
C1546 C1547 1.386 . S
C1546 C1548 1.391 . S
C1547 C1546 1.386 . S
C1547 C1551 1.393 . S
C1548 H1540 0.950 . S
C1548 C1546 1.391 . S
C1548 C1549 1.400 . S
C1549 C1548 1.400 . S
C1549 C1550 1.398 . S
C1549 C1555 1.491 . S
C1550 H1541 0.950 . S
C1550 C1549 1.398 . S
C1550 C1551 1.391 . S
C1551 H1539 0.950 . S
C1551 C1547 1.393 . S
C1551 C1550 1.391 . S
C1552 H1542 0.950 . S
C1552 C1553 1.386 . S
C1552 C1554 1.391 . S
C1553 C1552 1.386 . S
C1553 C1557 1.393 . S
C1554 H1543 0.950 . S
C1554 C1552 1.391 . S
C1554 C1555 1.400 . S
C1555 C1549 1.491 . S
C1555 C1554 1.400 . S
C1555 C1556 1.398 . S
C1556 H1544 0.950 . S
C1556 C1555 1.398 . S
C1556 C1557 1.391 . S
C1557 H1545 0.950 . S
C1557 C1553 1.393 . S
C1557 C1556 1.391 . S
H1558 C1566 0.950 . S
H1559 C1571 0.950 . S
H1560 C1568 0.950 . S
H1561 C1570 0.950 . S
H1562 C1572 0.950 . S
H1563 C1574 0.950 . S
H1564 C1576 0.950 . S
H1565 C1577 0.950 . S
C1566 H1558 0.950 . S
C1566 C1567 1.386 . S
C1566 C1568 1.391 . S
C1567 C1566 1.386 . S
C1567 C1571 1.393 . S
C1568 H1560 0.950 . S
C1568 C1566 1.391 . S
C1568 C1569 1.400 . S
C1569 C1568 1.400 . S
C1569 C1570 1.398 . S
C1569 C1575 1.491 . S
C1570 H1561 0.950 . S
C1570 C1569 1.398 . S
C1570 C1571 1.391 . S
C1571 H1559 0.950 . S
C1571 C1567 1.393 . S
C1571 C1570 1.391 . S
C1572 H1562 0.950 . S
C1572 C1573 1.386 . S
C1572 C1574 1.391 . S
C1573 C1572 1.386 . S
C1573 C1577 1.393 . S
C1574 H1563 0.950 . S
C1574 C1572 1.391 . S
C1574 C1575 1.400 . S
C1575 C1569 1.491 . S
C1575 C1574 1.400 . S
C1575 C1576 1.398 . S
C1576 H1564 0.950 . S
C1576 C1575 1.398 . S
C1576 C1577 1.391 . S
C1577 H1565 0.950 . S
C1577 C1573 1.393 . S
C1577 C1576 1.391 . S
H1578 C1586 0.950 . S
H1579 C1591 0.950 . S
H1580 C1588 0.950 . S
H1581 C1590 0.950 . S
H1582 C1592 0.950 . S
H1583 C1594 0.950 . S
H1584 C1596 0.950 . S
H1585 C1597 0.950 . S
C1586 H1578 0.950 . S
C1586 C1587 1.386 . S
C1586 C1588 1.391 . S
C1587 C1586 1.386 . S
C1587 C1591 1.393 . S
C1588 H1580 0.950 . S
C1588 C1586 1.391 . S
C1588 C1589 1.400 . S
C1589 C1588 1.400 . S
C1589 C1590 1.398 . S
C1589 C1595 1.491 . S
C1590 H1581 0.950 . S
C1590 C1589 1.398 . S
C1590 C1591 1.391 . S
C1591 H1579 0.950 . S
C1591 C1587 1.393 . S
C1591 C1590 1.391 . S
C1592 H1582 0.950 . S
C1592 C1593 1.386 . S
C1592 C1594 1.391 . S
C1593 C1592 1.386 . S
C1593 C1597 1.393 . S
C1594 H1583 0.950 . S
C1594 C1592 1.391 . S
C1594 C1595 1.400 . S
C1595 C1589 1.491 . S
C1595 C1594 1.400 . S
C1595 C1596 1.398 . S
C1596 H1584 0.950 . S
C1596 C1595 1.398 . S
C1596 C1597 1.391 . S
C1597 H1585 0.950 . S
C1597 C1593 1.393 . S
C1597 C1596 1.391 . S
H1598 C1606 0.950 . S
H1599 C1611 0.950 . S
H1600 C1608 0.950 . S
H1601 C1610 0.950 . S
H1602 C1612 0.950 . S
H1603 C1614 0.950 . S
H1604 C1616 0.950 . S
H1605 C1617 0.950 . S
C1606 H1598 0.950 . S
C1606 C1607 1.386 . S
C1606 C1608 1.391 . S
C1607 C1606 1.386 . S
C1607 C1611 1.393 . S
C1608 H1600 0.950 . S
C1608 C1606 1.391 . S
C1608 C1609 1.400 . S
C1609 C1608 1.400 . S
C1609 C1610 1.398 . S
C1609 C1615 1.491 . S
C1610 H1601 0.950 . S
C1610 C1609 1.398 . S
C1610 C1611 1.391 . S
C1611 H1599 0.950 . S
C1611 C1607 1.393 . S
C1611 C1610 1.391 . S
C1612 H1602 0.950 . S
C1612 C1613 1.386 . S
C1612 C1614 1.391 . S
C1613 C1612 1.386 . S
C1613 C1617 1.393 . S
C1614 H1603 0.950 . S
C1614 C1612 1.391 . S
C1614 C1615 1.400 . S
C1615 C1609 1.491 . S
C1615 C1614 1.400 . S
C1615 C1616 1.398 . S
C1616 H1604 0.950 . S
C1616 C1615 1.398 . S
C1616 C1617 1.391 . S
C1617 H1605 0.950 . S
C1617 C1613 1.393 . S
C1617 C1616 1.391 . S
H1618 C1626 0.950 . S
H1619 C1631 0.950 . S
H1620 C1628 0.950 . S
H1621 C1630 0.950 . S
H1622 C1632 0.950 . S
H1623 C1634 0.950 . S
H1624 C1636 0.950 . S
H1625 C1637 0.950 . S
C1626 H1618 0.950 . S
C1626 C1627 1.386 . S
C1626 C1628 1.391 . S
C1627 C1626 1.386 . S
C1627 C1631 1.393 . S
C1628 H1620 0.950 . S
C1628 C1626 1.391 . S
C1628 C1629 1.400 . S
C1629 C1628 1.400 . S
C1629 C1630 1.398 . S
C1629 C1635 1.491 . S
C1630 H1621 0.950 . S
C1630 C1629 1.398 . S
C1630 C1631 1.391 . S
C1631 H1619 0.950 . S
C1631 C1627 1.393 . S
C1631 C1630 1.391 . S
C1632 H1622 0.950 . S
C1632 C1633 1.386 . S
C1632 C1634 1.391 . S
C1633 C1632 1.386 . S
C1633 C1637 1.393 . S
C1634 H1623 0.950 . S
C1634 C1632 1.391 . S
C1634 C1635 1.400 . S
C1635 C1629 1.491 . S
C1635 C1634 1.400 . S
C1635 C1636 1.398 . S
C1636 H1624 0.950 . S
C1636 C1635 1.398 . S
C1636 C1637 1.391 . S
C1637 H1625 0.950 . S
C1637 C1633 1.393 . S
C1637 C1636 1.391 . S
H1638 C1646 0.950 . S
H1639 C1651 0.950 . S
H1640 C1648 0.950 . S
H1641 C1650 0.950 . S
H1642 C1652 0.950 . S
H1643 C1654 0.950 . S
H1644 C1656 0.950 . S
H1645 C1657 0.950 . S
C1646 H1638 0.950 . S
C1646 C1647 1.386 . S
C1646 C1648 1.391 . S
C1647 C1646 1.386 . S
C1647 C1651 1.393 . S
C1648 H1640 0.950 . S
C1648 C1646 1.391 . S
C1648 C1649 1.400 . S
C1649 C1648 1.400 . S
C1649 C1650 1.398 . S
C1649 C1655 1.491 . S
C1650 H1641 0.950 . S
C1650 C1649 1.398 . S
C1650 C1651 1.391 . S
C1651 H1639 0.950 . S
C1651 C1647 1.393 . S
C1651 C1650 1.391 . S
C1652 H1642 0.950 . S
C1652 C1653 1.386 . S
C1652 C1654 1.391 . S
C1653 C1652 1.386 . S
C1653 C1657 1.393 . S
C1654 H1643 0.950 . S
C1654 C1652 1.391 . S
C1654 C1655 1.400 . S
C1655 C1649 1.491 . S
C1655 C1654 1.400 . S
C1655 C1656 1.398 . S
C1656 H1644 0.950 . S
C1656 C1655 1.398 . S
C1656 C1657 1.391 . S
C1657 H1645 0.950 . S
C1657 C1653 1.393 . S
C1657 C1656 1.391 . S
H1658 C1666 0.950 . S
H1659 C1671 0.950 . S
H1660 C1668 0.950 . S
H1661 C1670 0.950 . S
H1662 C1672 0.950 . S
H1663 C1674 0.950 . S
H1664 C1676 0.950 . S
H1665 C1677 0.950 . S
C1666 H1658 0.950 . S
C1666 C1667 1.386 . S
C1666 C1668 1.391 . S
C1667 C1666 1.386 . S
C1667 C1671 1.393 . S
C1668 H1660 0.950 . S
C1668 C1666 1.391 . S
C1668 C1669 1.400 . S
C1669 C1668 1.400 . S
C1669 C1670 1.398 . S
C1669 C1675 1.491 . S
C1670 H1661 0.950 . S
C1670 C1669 1.398 . S
C1670 C1671 1.391 . S
C1671 H1659 0.950 . S
C1671 C1667 1.393 . S
C1671 C1670 1.391 . S
C1672 H1662 0.950 . S
C1672 C1673 1.386 . S
C1672 C1674 1.391 . S
C1673 C1672 1.386 . S
C1673 C1677 1.393 . S
C1674 H1663 0.950 . S
C1674 C1672 1.391 . S
C1674 C1675 1.400 . S
C1675 C1669 1.491 . S
C1675 C1674 1.400 . S
C1675 C1676 1.398 . S
C1676 H1664 0.950 . S
C1676 C1675 1.398 . S
C1676 C1677 1.391 . S
C1677 H1665 0.950 . S
C1677 C1673 1.393 . S
C1677 C1676 1.391 . S
H1678 C1686 0.950 . S
H1679 C1691 0.950 . S
H1680 C1688 0.950 . S
H1681 C1690 0.950 . S
H1682 C1692 0.950 . S
H1683 C1694 0.950 . S
H1684 C1696 0.950 . S
H1685 C1697 0.950 . S
C1686 H1678 0.950 . S
C1686 C1687 1.386 . S
C1686 C1688 1.391 . S
C1687 C1686 1.386 . S
C1687 C1691 1.393 . S
C1688 H1680 0.950 . S
C1688 C1686 1.391 . S
C1688 C1689 1.400 . S
C1689 C1688 1.400 . S
C1689 C1690 1.398 . S
C1689 C1695 1.491 . S
C1690 H1681 0.950 . S
C1690 C1689 1.398 . S
C1690 C1691 1.391 . S
C1691 H1679 0.950 . S
C1691 C1687 1.393 . S
C1691 C1690 1.391 . S
C1692 H1682 0.950 . S
C1692 C1693 1.386 . S
C1692 C1694 1.391 . S
C1693 C1692 1.386 . S
C1693 C1697 1.393 . S
C1694 H1683 0.950 . S
C1694 C1692 1.391 . S
C1694 C1695 1.400 . S
C1695 C1689 1.491 . S
C1695 C1694 1.400 . S
C1695 C1696 1.398 . S
C1696 H1684 0.950 . S
C1696 C1695 1.398 . S
C1696 C1697 1.391 . S
C1697 H1685 0.950 . S
C1697 C1693 1.393 . S
C1697 C1696 1.391 . S
H1698 C1706 0.950 . S
H1699 C1711 0.950 . S
H1700 C1708 0.950 . S
H1701 C1710 0.950 . S
H1702 C1712 0.950 . S
H1703 C1714 0.950 . S
H1704 C1716 0.950 . S
H1705 C1717 0.950 . S
C1706 H1698 0.950 . S
C1706 C1707 1.386 . S
C1706 C1708 1.391 . S
C1707 C1706 1.386 . S
C1707 C1711 1.393 . S
C1708 H1700 0.950 . S
C1708 C1706 1.391 . S
C1708 C1709 1.400 . S
C1709 C1708 1.400 . S
C1709 C1710 1.398 . S
C1709 C1715 1.491 . S
C1710 H1701 0.950 . S
C1710 C1709 1.398 . S
C1710 C1711 1.391 . S
C1711 H1699 0.950 . S
C1711 C1707 1.393 . S
C1711 C1710 1.391 . S
C1712 H1702 0.950 . S
C1712 C1713 1.386 . S
C1712 C1714 1.391 . S
C1713 C1712 1.386 . S
C1713 C1717 1.393 . S
C1714 H1703 0.950 . S
C1714 C1712 1.391 . S
C1714 C1715 1.400 . S
C1715 C1709 1.491 . S
C1715 C1714 1.400 . S
C1715 C1716 1.398 . S
C1716 H1704 0.950 . S
C1716 C1715 1.398 . S
C1716 C1717 1.391 . S
C1717 H1705 0.950 . S
C1717 C1713 1.393 . S
C1717 C1716 1.391 . S
H1718 C1726 0.950 . S
H1719 C1731 0.950 . S
H1720 C1728 0.950 . S
H1721 C1730 0.950 . S
H1722 C1732 0.950 . S
H1723 C1734 0.950 . S
H1724 C1736 0.950 . S
H1725 C1737 0.950 . S
C1726 H1718 0.950 . S
C1726 C1727 1.386 . S
C1726 C1728 1.391 . S
C1727 C1726 1.386 . S
C1727 C1731 1.393 . S
C1728 H1720 0.950 . S
C1728 C1726 1.391 . S
C1728 C1729 1.400 . S
C1729 C1728 1.400 . S
C1729 C1730 1.398 . S
C1729 C1735 1.491 . S
C1730 H1721 0.950 . S
C1730 C1729 1.398 . S
C1730 C1731 1.391 . S
C1731 H1719 0.950 . S
C1731 C1727 1.393 . S
C1731 C1730 1.391 . S
C1732 H1722 0.950 . S
C1732 C1733 1.386 . S
C1732 C1734 1.391 . S
C1733 C1732 1.386 . S
C1733 C1737 1.393 . S
C1734 H1723 0.950 . S
C1734 C1732 1.391 . S
C1734 C1735 1.400 . S
C1735 C1729 1.491 . S
C1735 C1734 1.400 . S
C1735 C1736 1.398 . S
C1736 H1724 0.950 . S
C1736 C1735 1.398 . S
C1736 C1737 1.391 . S
C1737 H1725 0.950 . S
C1737 C1733 1.393 . S
C1737 C1736 1.391 . S
H1738 C1746 0.950 . S
H1739 C1751 0.950 . S
H1740 C1748 0.950 . S
H1741 C1750 0.950 . S
H1742 C1752 0.950 . S
H1743 C1754 0.950 . S
H1744 C1756 0.950 . S
H1745 C1757 0.950 . S
C1746 H1738 0.950 . S
C1746 C1747 1.386 . S
C1746 C1748 1.391 . S
C1747 C1746 1.386 . S
C1747 C1751 1.393 . S
C1748 H1740 0.950 . S
C1748 C1746 1.391 . S
C1748 C1749 1.400 . S
C1749 C1748 1.400 . S
C1749 C1750 1.398 . S
C1749 C1755 1.491 . S
C1750 H1741 0.950 . S
C1750 C1749 1.398 . S
C1750 C1751 1.391 . S
C1751 H1739 0.950 . S
C1751 C1747 1.393 . S
C1751 C1750 1.391 . S
C1752 H1742 0.950 . S
C1752 C1753 1.386 . S
C1752 C1754 1.391 . S
C1753 C1752 1.386 . S
C1753 C1757 1.393 . S
C1754 H1743 0.950 . S
C1754 C1752 1.391 . S
C1754 C1755 1.400 . S
C1755 C1749 1.491 . S
C1755 C1754 1.400 . S
C1755 C1756 1.398 . S
C1756 H1744 0.950 . S
C1756 C1755 1.398 . S
C1756 C1757 1.391 . S
C1757 H1745 0.950 . S
C1757 C1753 1.393 . S
C1757 C1756 1.391 . S
H1758 C1766 0.950 . S
H1759 C1771 0.950 . S
H1760 C1768 0.950 . S
H1761 C1770 0.950 . S
H1762 C1772 0.950 . S
H1763 C1774 0.950 . S
H1764 C1776 0.950 . S
H1765 C1777 0.950 . S
C1766 H1758 0.950 . S
C1766 C1767 1.386 . S
C1766 C1768 1.391 . S
C1767 C1766 1.386 . S
C1767 C1771 1.393 . S
C1768 H1760 0.950 . S
C1768 C1766 1.391 . S
C1768 C1769 1.400 . S
C1769 C1768 1.400 . S
C1769 C1770 1.398 . S
C1769 C1775 1.491 . S
C1770 H1761 0.950 . S
C1770 C1769 1.398 . S
C1770 C1771 1.391 . S
C1771 H1759 0.950 . S
C1771 C1767 1.393 . S
C1771 C1770 1.391 . S
C1772 H1762 0.950 . S
C1772 C1773 1.386 . S
C1772 C1774 1.391 . S
C1773 C1772 1.386 . S
C1773 C1777 1.393 . S
C1774 H1763 0.950 . S
C1774 C1772 1.391 . S
C1774 C1775 1.400 . S
C1775 C1769 1.491 . S
C1775 C1774 1.400 . S
C1775 C1776 1.398 . S
C1776 H1764 0.950 . S
C1776 C1775 1.398 . S
C1776 C1777 1.391 . S
C1777 H1765 0.950 . S
C1777 C1773 1.393 . S
C1777 C1776 1.391 . S
H1778 C1786 0.950 . S
H1779 C1791 0.950 . S
H1780 C1788 0.950 . S
H1781 C1790 0.950 . S
H1782 C1792 0.950 . S
H1783 C1794 0.950 . S
H1784 C1796 0.950 . S
H1785 C1797 0.950 . S
C1786 H1778 0.950 . S
C1786 C1787 1.386 . S
C1786 C1788 1.391 . S
C1787 C1786 1.386 . S
C1787 C1791 1.393 . S
C1788 H1780 0.950 . S
C1788 C1786 1.391 . S
C1788 C1789 1.400 . S
C1789 C1788 1.400 . S
C1789 C1790 1.398 . S
C1789 C1795 1.491 . S
C1790 H1781 0.950 . S
C1790 C1789 1.398 . S
C1790 C1791 1.391 . S
C1791 H1779 0.950 . S
C1791 C1787 1.393 . S
C1791 C1790 1.391 . S
C1792 H1782 0.950 . S
C1792 C1793 1.386 . S
C1792 C1794 1.391 . S
C1793 C1792 1.386 . S
C1793 C1797 1.393 . S
C1794 H1783 0.950 . S
C1794 C1792 1.391 . S
C1794 C1795 1.400 . S
C1795 C1789 1.491 . S
C1795 C1794 1.400 . S
C1795 C1796 1.398 . S
C1796 H1784 0.950 . S
C1796 C1795 1.398 . S
C1796 C1797 1.391 . S
C1797 H1785 0.950 . S
C1797 C1793 1.393 . S
C1797 C1796 1.391 . S
H1798 C1806 0.950 . S
H1799 C1811 0.950 . S
H1800 C1808 0.950 . S
H1801 C1810 0.950 . S
H1802 C1812 0.950 . S
H1803 C1814 0.950 . S
H1804 C1816 0.950 . S
H1805 C1817 0.950 . S
C1806 H1798 0.950 . S
C1806 C1807 1.386 . S
C1806 C1808 1.391 . S
C1807 C1806 1.386 . S
C1807 C1811 1.393 . S
C1808 H1800 0.950 . S
C1808 C1806 1.391 . S
C1808 C1809 1.400 . S
C1809 C1808 1.400 . S
C1809 C1810 1.398 . S
C1809 C1815 1.491 . S
C1810 H1801 0.950 . S
C1810 C1809 1.398 . S
C1810 C1811 1.391 . S
C1811 H1799 0.950 . S
C1811 C1807 1.393 . S
C1811 C1810 1.391 . S
C1812 H1802 0.950 . S
C1812 C1813 1.386 . S
C1812 C1814 1.391 . S
C1813 C1812 1.386 . S
C1813 C1817 1.393 . S
C1814 H1803 0.950 . S
C1814 C1812 1.391 . S
C1814 C1815 1.400 . S
C1815 C1809 1.491 . S
C1815 C1814 1.400 . S
C1815 C1816 1.398 . S
C1816 H1804 0.950 . S
C1816 C1815 1.398 . S
C1816 C1817 1.391 . S
C1817 H1805 0.950 . S
C1817 C1813 1.393 . S
C1817 C1816 1.391 . S
C873 C683 1.659 . S
C867 C74 1.655 . S
C893 C673 1.382 . S
C887 C153 1.306 . S
C913 C674 1.235 . S
C907 C231 1.230 . S
C927 C310 0.735 . S
C933 C696 0.526 . S
C947 C394 1.303 . S
C953 C699 1.384 . S
C973 C682 1.255 . S
C967 C494 1.243 . S
C987 C573 0.729 . S
C993 C672 0.534 . S
C1007 C651 1.652 . S
C1013 C690 1.651 . S
C1033 C703 2.461 . S
C1027 C56 2.538 . S
C1047 C151 1.608 . S
C1053 C752 1.564 . S
C1073 C730 1.414 . S
C1067 C237 1.396 . S
C1093 C744 1.237 . S
C1087 C326 1.234 . S
C1107 C410 1.234 . S
C1113 C705 1.221 . S
C1133 C758 2.456 . S
C1127 C476 2.549 . S
C1147 C571 1.607 . S
C1153 C714 1.581 . S
C1167 C657 1.349 . S
C1173 C735 1.408 . S
C1187 C58 1.331 . S
C1193 C761 1.409 . S
C1207 C392 1.607 . S
C1213 C745 1.565 . S
C1233 C704 1.429 . S
C1227 C478 1.390 . S
C1253 C736 1.220 . S
C1247 C567 1.236 . S
C1267 C655 2.538 . S
C1273 C727 2.461 . S
C1287 C235 2.549 . S
C1293 C734 2.456 . S
C1313 C721 1.584 . S
C1307 C308 1.605 . S
C1327 C147 1.228 . S
C1333 C713 1.212 . S
C1347 C662 1.634 . S
C1353 C776 1.648 . S
C1367 C405 1.302 . S
C1373 C766 1.386 . S
C1393 C767 1.233 . S
C1387 C483 1.233 . S
C1413 C789 0.601 . S
C1407 C562 0.766 . S
C1427 C142 1.315 . S
C1433 C792 1.401 . S
C1453 C775 1.252 . S
C1447 C242 1.240 . S
C1467 C321 0.773 . S
C1473 C765 0.605 . S
C1487 C63 1.655 . S
C1493 C783 1.656 . S
C1507 C644 2.540 . S
C1513 C796 2.452 . S
C1533 C845 1.554 . S
C1527 C403 1.608 . S
C1547 C489 1.367 . S
C1553 C823 1.427 . S
C1567 C578 1.216 . S
C1573 C837 1.225 . S
C1593 C798 1.205 . S
C1587 C158 1.223 . S
C1607 C224 2.549 . S
C1613 C851 2.459 . S
C1633 C807 1.569 . S
C1627 C319 1.611 . S
C1653 C828 1.398 . S
C1647 C69 1.351 . S
C1673 C854 1.406 . S
C1667 C646 1.351 . S
C1687 C140 1.607 . S
C1693 C838 1.569 . S
C1707 C226 1.378 . S
C1713 C797 1.406 . S
C1733 C829 1.219 . S
C1727 C315 1.234 . S
C1747 C67 2.538 . S
C1753 C820 2.454 . S
C1767 C487 2.549 . S
C1773 C827 2.456 . S
C1793 C814 1.576 . S
C1787 C560 1.608 . S
C1813 C806 1.222 . S
C1807 C399 1.234 . S
