# Generated by pormake.
# Topology zzz, (3,6)-cn, num edge types: 1
# Building blocks:
#     Node 0, Type 0, BuildingBlock: WUSLED_clean_sbu_0, # of connection points: 3
#     Node 1, Type 0, BuildingBlock: WUSLED_clean_sbu_0, # of connection points: 3
#     Node 2, Type 0, BuildingBlock: WUSLED_clean_sbu_0, # of connection points: 3
#     Node 3, Type 0, BuildingBlock: WUSLED_clean_sbu_0, # of connection points: 3
#     Node 4, Type 0, BuildingBlock: WUSLED_clean_sbu_0, # of connection points: 3
#     Node 5, Type 0, BuildingBlock: WUSLED_clean_sbu_0, # of connection points: 3
#     Node 6, Type 0, BuildingBlock: WUSLED_clean_sbu_0, # of connection points: 3
#     Node 7, Type 0, BuildingBlock: WUSLED_clean_sbu_0, # of connection points: 3
#     Node 8, Type 1, BuildingBlock: INOVEN_clean_sbu_0, # of connection points: 6
#     Node 9, Type 1, BuildingBlock: INOVEN_clean_sbu_0, # of connection points: 6
#     Node 10, Type 1, BuildingBlock: INOVEN_clean_sbu_0, # of connection points: 6
#     Node 11, Type 1, BuildingBlock: INOVEN_clean_sbu_0, # of connection points: 6
#     Edge 12, Type (0, 1), BuildingBlock: KIFKEQ_clean_linker_1, # of connection points: 2
#     Edge 13, Type (0, 1), BuildingBlock: KIFKEQ_clean_linker_1, # of connection points: 2
#     Edge 14, Type (0, 1), BuildingBlock: KIFKEQ_clean_linker_1, # of connection points: 2
#     Edge 15, Type (0, 1), BuildingBlock: KIFKEQ_clean_linker_1, # of connection points: 2
#     Edge 16, Type (0, 1), BuildingBlock: KIFKEQ_clean_linker_1, # of connection points: 2
#     Edge 17, Type (0, 1), BuildingBlock: KIFKEQ_clean_linker_1, # of connection points: 2
#     Edge 18, Type (0, 1), BuildingBlock: KIFKEQ_clean_linker_1, # of connection points: 2
#     Edge 19, Type (0, 1), BuildingBlock: KIFKEQ_clean_linker_1, # of connection points: 2
#     Edge 20, Type (0, 1), BuildingBlock: KIFKEQ_clean_linker_1, # of connection points: 2
#     Edge 21, Type (0, 1), BuildingBlock: KIFKEQ_clean_linker_1, # of connection points: 2
#     Edge 22, Type (0, 1), BuildingBlock: KIFKEQ_clean_linker_1, # of connection points: 2
#     Edge 23, Type (0, 1), BuildingBlock: KIFKEQ_clean_linker_1, # of connection points: 2
#     Edge 24, Type (0, 1), BuildingBlock: KIFKEQ_clean_linker_1, # of connection points: 2
#     Edge 25, Type (0, 1), BuildingBlock: KIFKEQ_clean_linker_1, # of connection points: 2
#     Edge 26, Type (0, 1), BuildingBlock: KIFKEQ_clean_linker_1, # of connection points: 2
#     Edge 27, Type (0, 1), BuildingBlock: KIFKEQ_clean_linker_1, # of connection points: 2
#     Edge 28, Type (0, 1), BuildingBlock: KIFKEQ_clean_linker_1, # of connection points: 2
#     Edge 29, Type (0, 1), BuildingBlock: KIFKEQ_clean_linker_1, # of connection points: 2
#     Edge 30, Type (0, 1), BuildingBlock: KIFKEQ_clean_linker_1, # of connection points: 2
#     Edge 31, Type (0, 1), BuildingBlock: KIFKEQ_clean_linker_1, # of connection points: 2
#     Edge 32, Type (0, 1), BuildingBlock: KIFKEQ_clean_linker_1, # of connection points: 2
#     Edge 33, Type (0, 1), BuildingBlock: KIFKEQ_clean_linker_1, # of connection points: 2
#     Edge 34, Type (0, 1), BuildingBlock: KIFKEQ_clean_linker_1, # of connection points: 2
#     Edge 35, Type (0, 1), BuildingBlock: KIFKEQ_clean_linker_1, # of connection points: 2
# Relax obj value: 0.399
# Max RMSD: 0.264
# Mean RMSD: 0.245
data_MOF--net-zzz--node1-WUSLED_clean_sbu_0--node2-INOVEN_clean_sbu_0--edge1-KIFKEQ_clean_linker_1
_symmetry_space_group_name_H-M    P1
_symmetry_Int_Tables_number       1
_symmetry_cell_setting            triclinic
loop_
_symmetry_equiv_pos_as_xyz
'x, y, z'
_cell_length_a     64.048569
_cell_length_b     64.142478
_cell_length_c     19.486188
_cell_angle_alpha  90.197911
_cell_angle_beta   90.019138
_cell_angle_gamma 90.298394
loop_
_atom_site_label
_atom_site_type_symbol
_atom_site_fract_x
_atom_site_fract_y
_atom_site_fract_z
_atom_type_partial_charge
C0 C 0.77837 0.5278 0.50684 0.0
C1 C 0.79495 0.52554 0.46032 0.0
C2 C 0.82066 0.52886 0.55347 0.0
C3 C 0.81579 0.52613 0.48328 0.0
C4 C 0.80395 0.5307 0.60006 0.0
C5 C 0.78312 0.53028 0.57694 0.0
U6 U 0.73322 0.52847 0.37074 0.0
O7 O 0.70347 0.51099 0.37117 0.0
O8 O 0.70307 0.54506 0.37257 0.0
C9 C 0.69214 0.52786 0.36339 0.0
C10 C 0.7561 0.52762 0.48404 0.0
C11 C 0.67762 0.5277 0.30339 0.0
C12 C 0.64215 0.52887 0.25703 0.0
C13 C 0.65597 0.52926 0.31325 0.0
C14 C 0.67137 0.52521 0.17962 0.0
C15 C 0.64959 0.52673 0.18926 0.0
C16 C 0.68519 0.52578 0.23584 0.0
C17 C 0.76878 0.52917 0.20592 0.0
C18 C 0.78234 0.52332 0.09186 0.0
C19 C 0.80592 0.53162 0.18592 0.0
C20 C 0.78898 0.5328 0.23092 0.0
C21 C 0.80256 0.52664 0.11649 0.0
C22 C 0.76552 0.5247 0.1364 0.0
C23 C 0.75046 0.52936 0.2496 0.0
O24 O 0.749 0.54488 0.4564 0.0
O25 O 0.7494 0.5108 0.45193 0.0
O26 O 0.74589 0.51193 0.28154 0.0
O27 O 0.74667 0.54634 0.28535 0.0
H28 H 0.79179 0.52339 0.40618 0.0
H29 H 0.82816 0.52431 0.4459 0.0
H30 H 0.80697 0.53295 0.65429 0.0
H31 H 0.77064 0.53202 0.61403 0.0
H32 H 0.62554 0.52989 0.26681 0.0
H33 H 0.6497 0.53069 0.36466 0.0
H34 H 0.67778 0.52381 0.12839 0.0
H35 H 0.70182 0.52465 0.22653 0.0
H36 H 0.77961 0.51947 0.0384 0.0
H37 H 0.8216 0.53403 0.20537 0.0
H38 H 0.79162 0.53627 0.28466 0.0
H39 H 0.7499 0.52195 0.11674 0.0
C40 C 0.0209 0.78072 0.50833 0.0
C41 C 0.02925 0.79686 0.46794 0.0
C42 C 0.02061 0.82287 0.5562 0.0
C43 C 0.0292 0.81762 0.49175 0.0
C44 C 1.01215 0.80667 0.59627 0.0
C45 C 1.01242 0.78589 0.57278 0.0
U46 U 0.02187 0.73491 0.37397 0.0
O47 O 0.03929 0.70528 0.37677 0.0
O48 O 1.00517 0.70476 0.37654 0.0
C49 C 0.02235 0.69387 0.3686 0.0
C50 C 0.02136 0.7584 0.48603 0.0
C51 C 0.02248 0.67918 0.309 0.0
C52 C 0.02538 0.64377 0.26292 0.0
C53 C 0.02559 0.65773 0.3189 0.0
C54 C 1.01901 0.67247 0.18581 0.0
C55 C 0.0219 0.65088 0.19547 0.0
C56 C 0.01938 0.68641 0.2417 0.0
C57 C 0.02232 0.76988 0.20864 0.0
C58 C 0.02719 0.78347 0.09426 0.0
C59 C 0.01992 0.80695 0.18932 0.0
C60 C 0.01912 0.79004 0.23425 0.0
C61 C 0.02413 0.80364 0.11934 0.0
C62 C 0.02617 0.76665 0.13875 0.0
C63 C 0.02202 0.75156 0.25205 0.0
O64 O 1.00441 0.75092 0.4566 0.0
O65 O 0.03859 0.75168 0.45671 0.0
O66 O 0.0392 0.74748 0.28621 0.0
O67 O 1.00473 0.74747 0.28583 0.0
H68 H 0.03588 0.79341 0.41808 0.0
H69 H 0.03568 0.82968 0.45919 0.0
H70 H 1.0056 0.81001 0.64633 0.0
H71 H 1.00605 0.77376 0.60535 0.0
H72 H 0.0275 0.62731 0.27272 0.0
H73 H 0.02803 0.65172 0.37014 0.0
H74 H 1.0166 0.67865 0.13478 0.0
H75 H 1.01712 0.70289 0.23234 0.0
H76 H 0.03042 0.78076 0.04038 0.0
H77 H 1.0177 0.82259 0.20915 0.0
H78 H 1.0162 0.79264 0.28837 0.0
H79 H 0.02858 0.75107 0.11864 0.0
C80 C 0.76236 1.01473 0.50407 0.0
C81 C 0.74631 0.02307 0.46354 0.0
C82 C 0.72012 1.01508 0.55221 0.0
C83 C 0.72552 0.02325 0.48726 0.0
C84 C 0.73631 1.0067 0.59251 0.0
C85 C 0.75708 1.00657 0.5688 0.0
U86 U 0.80824 1.01531 0.36984 0.0
O87 O 0.83815 0.03257 0.37327 0.0
O88 O 0.83825 0.99852 0.37218 0.0
C89 C 0.8494 1.01565 0.36525 0.0
C90 C 0.78472 1.01497 0.48176 0.0
C91 C 0.86445 1.0159 0.30662 0.0
C92 C 0.90039 1.01668 0.2637 0.0
C93 C 0.88609 1.01628 0.31866 0.0
C94 C 0.87169 1.01643 0.18326 0.0
C95 C 0.89345 1.0169 0.19501 0.0
C96 C 0.85741 1.01587 0.23821 0.0
C97 C 0.77269 1.01533 0.20578 0.0
C98 C 0.75834 1.01713 0.0913 0.0
C99 C 0.73528 1.01541 0.19012 0.0
C100 C 0.75257 1.01478 0.23381 0.0
C101 C 0.73816 1.0168 0.11868 0.0
C102 C 0.7755 1.01632 0.1347 0.0
C103 C 0.79137 1.0153 0.24791 0.0
O104 O 0.7919 0.99799 0.45222 0.0
O105 O 0.79174 0.03211 0.45259 0.0
O106 O 0.79564 0.03249 0.2821 0.0
O107 O 0.79555 0.9981 0.28151 0.0
H108 H 0.74983 0.02951 0.41355 0.0
H109 H 0.71361 0.02959 0.45403 0.0
H110 H 0.73302 1.00052 0.64302 0.0
H111 H 0.76914 1.00022 0.60155 0.0
H112 H 0.91693 1.01724 0.2751 0.0
H113 H 0.89197 1.01637 0.37078 0.0
H114 H 0.86564 1.01632 0.13134 0.0
H115 H 0.84083 1.01549 0.22722 0.0
H116 H 0.76081 1.01811 0.03639 0.0
H117 H 0.71973 1.01537 0.212 0.0
H118 H 0.75029 1.01406 0.28883 0.0
H119 H 0.79104 1.0167 0.11273 0.0
C120 C 0.51987 0.76433 0.50735 0.0
C121 C 0.50976 0.74855 0.46949 0.0
C122 C 0.52069 0.72194 0.5525 0.0
C123 C 0.51021 0.72768 0.49168 0.0
C124 C 0.53036 0.73789 0.59116 0.0
C125 C 0.53002 0.75874 0.56869 0.0
U126 U 0.51945 0.80987 0.37303 0.0
O127 O 0.50276 0.8399 0.37568 0.0
O128 O 0.53687 0.83967 0.37406 0.0
C129 C 0.51992 0.85092 0.36683 0.0
C130 C 0.51973 0.78668 0.48536 0.0
C131 C 0.51985 0.86565 0.30755 0.0
C132 C 0.52158 0.90129 0.26327 0.0
C133 C 0.52152 0.88726 0.31872 0.0
C134 C 0.51793 0.87244 0.18401 0.0
C135 C 0.5197 0.89407 0.19526 0.0
C136 C 0.51816 0.85838 0.23944 0.0
C137 C 0.51818 0.77432 0.20835 0.0
C138 C 0.51371 0.76053 0.0938 0.0
C139 C 0.52064 0.73722 0.18911 0.0
C140 C 0.52125 0.75422 0.23409 0.0
C141 C 0.51675 0.7404 0.1189 0.0
C142 C 0.51453 0.77742 0.13836 0.0
C143 C 0.51876 0.79276 0.2515 0.0
O144 O 0.53676 0.79383 0.45568 0.0
O145 O 0.50258 0.79371 0.45642 0.0
O146 O 0.50171 0.79723 0.28587 0.0
O147 O 0.53618 0.7967 0.28489 0.0
H148 H 0.5016 0.75231 0.42248 0.0
H149 H 0.50229 0.71595 0.46102 0.0
H150 H 0.53868 0.73418 0.6379 0.0
H151 H 0.53783 0.77057 0.59929 0.0
H152 H 0.52281 0.91785 0.27359 0.0
H153 H 0.52279 0.89331 0.37051 0.0
H154 H 0.51653 0.8664 0.13222 0.0
H155 H 0.51694 0.84181 0.22912 0.0
H156 H 0.51075 0.76317 0.03977 0.0
H157 H 0.52279 0.72163 0.20905 0.0
H158 H 0.52403 0.75172 0.2883 0.0
H159 H 0.51224 0.79297 0.11816 0.0
C160 C 0.26186 0.50852 0.88488 0.0
C161 C 0.24554 0.50083 0.92597 0.0
C162 C 0.22 0.50761 0.8348 0.0
C163 C 0.22489 0.50032 0.90114 0.0
C164 C 0.23644 0.51525 0.79386 0.0
C165 C 0.25707 0.51561 0.81852 0.0
U166 U 0.30713 0.50759 0.02118 0.0
O167 O 0.33818 0.49289 1.01522 0.0
O168 O 0.33575 0.52683 0.02145 0.0
C169 C 0.34813 0.51061 0.02561 0.0
C170 C 0.28397 0.50911 0.90876 0.0
C171 C 0.36315 0.511 0.08401 0.0
C172 C 0.3988 0.51491 0.12718 0.0
C173 C 0.38456 0.51413 0.07219 0.0
C174 C 0.37047 0.50918 0.20699 0.0
C175 C 0.39197 0.51235 0.19536 0.0
C176 C 0.35622 0.50864 0.15207 0.0
C177 C 0.27133 0.50332 0.18373 0.0
C178 C 0.25668 0.50491 0.29796 0.0
C179 C 0.23429 0.50867 0.19814 0.0
C180 C 0.25149 0.50603 0.15501 0.0
C181 C 0.23701 0.50859 0.26964 0.0
C182 C 0.27379 0.50231 0.25505 0.0
C183 C 0.29023 0.50417 0.14263 0.0
O184 O 0.28996 0.52573 0.94335 0.0
O185 O 0.29173 0.49176 0.9338 0.0
O186 O 0.29476 0.48789 0.1044 0.0
O187 O 0.29427 0.52216 0.11337 0.0
H188 H 0.24877 0.4952 0.97718 0.0
H189 H 0.21265 0.49451 0.93441 0.0
H190 H 0.23339 0.52076 0.74235 0.0
H191 H 0.26937 0.52145 0.78547 0.0
H192 H 0.41523 0.51719 0.11626 0.0
H193 H 0.3903 0.516 0.02029 0.0
H194 H 0.36462 0.50735 0.25879 0.0
H195 H 0.33977 0.50639 0.16277 0.0
H196 H 0.25892 0.505 0.35309 0.0
H197 H 0.21905 0.5115 0.17599 0.0
H198 H 0.24948 0.50699 0.09994 0.0
H199 H 0.28914 0.50045 0.27761 0.0
C200 C 0.02932 0.2631 0.88489 0.0
C201 C 0.03034 0.24638 0.93106 0.0
C202 C 0.02911 0.22108 0.83647 0.0
C203 C 0.03015 0.22564 0.90721 0.0
C204 C 0.02845 0.23784 0.79016 0.0
C205 C 0.02842 0.25858 0.81417 0.0
U206 U 0.03029 0.30873 0.02079 0.0
O207 O 0.04455 0.34013 1.0144 0.0
O208 O 1.01063 0.33682 0.02081 0.0
C209 C 0.02668 0.3496 0.02524 0.0
C210 C 0.0286 0.28525 0.90861 0.0
C211 C 0.02618 0.36449 0.08419 0.0
C212 C 0.027 0.4002 0.12872 0.0
C213 C 0.02766 0.38608 0.07323 0.0
C214 C 0.02345 0.37135 0.20741 0.0
C215 C 0.02499 0.39306 0.1968 0.0
C216 C 0.02401 0.35729 0.15194 0.0
C217 C 0.03541 0.27346 0.18348 0.0
C218 C 0.02976 0.25787 0.29477 0.0
C219 C 0.03372 0.23601 0.19365 0.0
C220 C 0.03669 0.2537 0.15334 0.0
C221 C 0.02956 0.2381 0.2642 0.0
C222 C 0.03259 0.27548 0.25441 0.0
C223 C 0.03436 0.29234 0.1427 0.0
O224 O 1.01207 0.29091 0.94399 0.0
O225 O 0.04598 0.29342 0.93299 0.0
O226 O 0.05044 0.297 0.10364 0.0
O227 O 1.0162 0.296 0.11397 0.0
H228 H 0.03099 0.24937 0.98555 0.0
H229 H 0.03079 0.21309 0.94419 0.0
H230 H 0.02745 0.2349 0.73548 0.0
H231 H 0.02748 0.27115 0.77732 0.0
H232 H 0.02846 0.41671 0.11834 0.0
H233 H 0.02937 0.39206 0.02161 0.0
H234 H 0.02161 0.3652 0.25875 0.0
H235 H 0.02272 0.34073 0.16201 0.0
H236 H 0.02637 0.25978 0.3489 0.0
H237 H 0.03376 0.22077 0.16944 0.0
H238 H 0.03908 0.25201 0.09877 0.0
H239 H 0.03149 0.29076 0.27807 0.0
C240 C 0.27959 0.03812 0.88309 0.0
C241 C 0.29617 0.04115 0.92923 0.0
C242 C 0.32184 0.03691 0.83676 0.0
C243 C 0.317 0.04044 0.90647 0.0
C244 C 0.30517 0.03443 0.79028 0.0
C245 C 0.28433 0.03488 0.81331 0.0
U246 U 0.23439 0.03894 0.01935 0.0
O247 O 0.20356 0.05435 0.01682 0.0
O248 O 0.20537 0.02034 0.01833 0.0
C249 C 0.19333 0.03673 0.02563 0.0
C250 C 0.25735 0.03791 0.90617 0.0
C251 C 0.17842 0.03601 0.08461 0.0
C252 C 0.14303 0.04017 0.12991 0.0
C253 C 0.15733 0.04124 0.07512 0.0
C254 C 0.17054 0.02835 0.20499 0.0
C255 C 0.1494 0.03353 0.19541 0.0
C256 C 0.18492 0.02976 0.15047 0.0
C257 C 0.26994 0.0412 0.18405 0.0
C258 C 0.28362 0.03683 0.2987 0.0
C259 C 0.3072 0.0388 0.20128 0.0
C260 C 0.29021 0.04121 0.15713 0.0
C261 C 0.30382 0.03614 0.27192 0.0
C262 C 0.26675 0.03948 0.25487 0.0
C263 C 0.25148 0.04092 0.14082 0.0
O264 O 0.25094 0.02115 0.93888 0.0
O265 O 0.25002 0.05519 0.93341 0.0
O266 O 0.24732 0.05762 0.10448 0.0
O267 O 0.2473 0.02326 0.10929 0.0
H268 H 0.29299 0.0439 0.98295 0.0
H269 H 0.32941 0.04268 0.94358 0.0
H270 H 0.30825 0.03156 0.73642 0.0
H271 H 0.27185 0.0325 0.7765 0.0
H272 H 0.12686 0.04414 0.12076 0.0
H273 H 0.15187 0.04605 0.02503 0.0
H274 H 0.17598 0.02332 0.25488 0.0
H275 H 0.20109 0.02577 0.15965 0.0
H276 H 0.28089 0.03477 0.35314 0.0
H277 H 0.32285 0.03818 0.18026 0.0
H278 H 0.2928 0.04241 0.10249 0.0
H279 H 0.2511 0.03939 0.27602 0.0
C280 C 0.5146 0.28047 0.88182 0.0
C281 C 0.50957 0.29679 0.92696 0.0
C282 C 0.51297 0.32256 0.83462 0.0
C283 C 0.50875 0.31753 0.90374 0.0
C284 C 0.51801 0.30612 0.78951 0.0
C285 C 0.51874 0.28538 0.8128 0.0
U286 U 0.51411 0.23533 0.01763 0.0
O287 O 0.49927 0.20418 1.01275 0.0
O288 O 0.53323 0.20681 0.01905 0.0
C289 C 0.51694 0.19435 0.02356 0.0
C290 C 0.51543 0.25828 0.90479 0.0
C291 C 0.51712 0.17945 0.08232 0.0
C292 C 0.51925 0.14374 0.12572 0.0
C293 C 0.51897 0.1579 0.07061 0.0
C294 C 0.51566 0.17239 0.2056 0.0
C295 C 0.51746 0.15074 0.19411 0.0
C296 C 0.5156 0.18655 0.15054 0.0
C297 C 0.50968 0.27142 0.18004 0.0
C298 C 0.51154 0.28607 0.2943 0.0
C299 C 0.51354 0.30868 0.19474 0.0
C300 C 0.51143 0.29137 0.15154 0.0
C301 C 0.51405 0.30591 0.26612 0.0
C302 C 0.50927 0.2689 0.25133 0.0
C303 C 0.51067 0.25259 0.13863 0.0
O304 O 0.53213 0.25257 0.93912 0.0
O305 O 0.49815 0.25023 0.93011 0.0
O306 O 0.49438 0.24773 0.10068 0.0
O307 O 0.52871 0.24875 0.10925 0.0
H308 H 0.50617 0.29347 0.9801 0.0
H309 H 0.50503 0.32972 0.94027 0.0
H310 H 0.52112 0.30925 0.73587 0.0
H311 H 0.52249 0.2731 0.77661 0.0
H312 H 0.52045 0.12723 0.11469 0.0
H313 H 0.52015 0.15199 0.01863 0.0
H314 H 0.51447 0.17842 0.25743 0.0
H315 H 0.51431 0.20307 0.16127 0.0
H316 H 0.51218 0.2838 0.34935 0.0
H317 H 0.51571 0.32402 0.17267 0.0
H318 H 0.51205 0.29344 0.09659 0.0
H319 H 0.50815 0.25349 0.27376 0.0
Gd320 Gd 0.0399 0.01849 0.74879 0.0
Gd321 Gd 1.00383 0.02611 0.639 0.0
C322 C 1.01734 0.97888 0.66754 0.0
C323 C 0.0588 1.00439 0.85379 0.0
C324 C 0.05518 0.98352 0.88127 0.0
C325 C 0.07211 0.97045 0.89568 0.0
C326 C 0.03488 0.97516 0.87921 0.0
C327 C 0.04831 0.94117 0.90762 0.0
C328 C 0.03149 0.95421 0.89243 0.0
C329 C 0.06869 0.94931 0.90886 0.0
C330 C 0.05665 0.02456 0.62049 0.0
C331 C 0.0264 0.06571 0.72103 0.0
C332 C 0.98518 0.04105 0.53489 0.0
C333 C 0.98671 0.06289 0.51413 0.0
C334 C 0.96861 0.07419 0.49923 0.0
C335 C 1.00589 0.07344 0.52081 0.0
C336 C 0.98922 0.10591 0.49324 0.0
C337 C 1.00715 0.09479 0.51033 0.0
C338 C 0.9699 0.09564 0.4881 0.0
C339 C 0.98621 0.02034 0.76573 0.0
O340 O 0.02838 0.98585 0.72065 0.0
O341 O 1.00759 0.99145 0.62427 0.0
O342 O 0.06721 1.00417 0.79273 0.0
O343 O 0.04324 1.01757 0.85937 0.0
O344 O 0.06754 0.02145 0.67542 0.0
O345 O 0.03774 0.02494 0.63878 0.0
O346 O 1.01493 0.05879 0.66886 0.0
O347 O 0.03646 0.05311 0.76328 0.0
O348 O 0.97577 0.03851 0.59374 0.0
O349 O 1.00223 0.02989 0.5287 0.0
O350 O 0.97606 0.02263 0.70888 0.0
O351 O 1.00555 0.02 0.75089 0.0
H352 H 0.08794 0.97649 0.8948 0.0
H353 H 0.02164 0.98463 0.86492 0.0
H354 H 1.01568 0.94811 0.89026 0.0
H355 H 0.08185 0.93939 0.9207 0.0
H356 H 0.95356 0.06645 0.49658 0.0
H357 H 0.01988 0.06524 0.53517 0.0
H358 H 0.02223 0.10251 0.51305 0.0
H359 H 0.95599 0.10415 0.47394 0.0
Gd360 Gd 0.52446 0.04047 0.74018 0.0
Gd361 Gd 0.51651 1.0057 0.64564 0.0
C362 C 0.56443 1.01564 0.67166 0.0
C363 C 0.54167 0.06383 0.8307 0.0
C364 C 0.56232 0.05964 0.85966 0.0
C365 C 0.57718 0.07564 0.86681 0.0
C366 C 0.56833 0.03883 0.86936 0.0
C367 C 0.60344 0.04998 0.89542 0.0
C368 C 0.58865 0.03405 0.88747 0.0
C369 C 0.59775 0.07081 0.88469 0.0
C370 C 0.51357 0.05389 0.61322 0.0
C371 C 0.47736 0.02821 0.72268 0.0
C372 C 0.50192 0.98645 0.54053 0.0
C373 C 0.48136 0.99025 0.51037 0.0
C374 C 0.46771 0.97352 0.49715 0.0
C375 C 0.47389 1.01075 0.50729 0.0
C376 C 0.43957 0.99788 0.47667 0.0
C377 C 0.45322 1.01451 0.49062 0.0
C378 C 0.44685 0.97731 0.48032 0.0
C379 C 0.51961 0.98755 0.77156 0.0
O380 O 0.55731 0.02972 0.71526 0.0
O381 O 0.55155 1.00363 0.63604 0.0
O382 O 0.54199 0.06842 0.76553 0.0
O383 O 0.52706 0.05029 0.84631 0.0
O384 O 0.50668 0.06169 0.67037 0.0
O385 O 0.52568 0.03876 0.62626 0.0
O386 O 0.4841 0.01913 0.66596 0.0
O387 O 0.49076 0.03579 0.76766 0.0
O388 O 0.50101 0.97871 0.60217 0.0
O389 O 0.51566 1.00156 0.53511 0.0
O390 O 0.51729 0.97768 0.71429 0.0
O391 O 0.52138 1.00695 0.75997 0.0
H392 H 0.57296 0.09171 0.85733 0.0
H393 H 0.55743 0.02614 0.86103 0.0
H394 H 0.59289 1.01788 0.89503 0.0
H395 H 0.6091 0.08325 0.89101 0.0
H396 H 0.47306 0.95758 0.5016 0.0
H397 H 0.48384 0.02394 0.51993 0.0
H398 H 0.44781 0.03048 0.48931 0.0
H399 H 0.43651 0.96428 0.46956 0.0
Gd400 Gd 0.50458 0.52554 0.73937 0.0
Gd401 Gd 0.53672 0.51866 0.6442 0.0
C402 C 0.52651 0.56579 0.66772 0.0
C403 C 0.48135 0.54127 0.833 0.0
C404 C 0.48441 0.56187 0.86374 0.0
C405 C 0.4676 0.57564 0.87041 0.0
C406 C 0.50485 0.56908 0.87526 0.0
C407 C 0.49175 0.60346 0.90045 0.0
C408 C 0.50847 0.58965 0.8936 0.0
C409 C 0.47126 0.59643 0.88872 0.0
C410 C 0.48887 0.51551 0.61372 0.0
C411 C 0.51504 0.47828 0.718 0.0
C412 C 0.55826 0.5032 0.54581 0.0
C413 C 0.55586 0.4821 0.5178 0.0
C414 C 0.57312 0.4688 0.5153 0.0
C415 C 0.53578 0.47406 0.50436 0.0
C416 C 0.55024 0.43962 0.48849 0.0
C417 C 0.53303 0.45302 0.48962 0.0
C418 C 0.57034 0.44768 0.5006 0.0
C419 C 0.55276 0.52772 0.77065 0.0
O420 O 0.51793 0.5584 0.72427 0.0
O421 O 0.53364 0.55276 0.62119 0.0
O422 O 0.47634 0.54177 0.76815 0.0
O423 O 0.49583 0.52755 0.84646 0.0
O424 O 0.48206 0.50814 0.67134 0.0
O425 O 0.50399 0.52786 0.62505 0.0
O426 O 0.52473 0.48555 0.66312 0.0
O427 O 0.50691 0.4914 0.76257 0.0
O428 O 0.56511 0.5039 0.60884 0.0
O429 O 0.54265 0.51582 0.53525 0.0
O430 O 0.56017 0.53463 0.71304 0.0
O431 O 0.53717 0.51599 0.75867 0.0
H432 H 0.4518 0.57046 0.85971 0.0
H433 H 0.51818 0.55905 0.86768 0.0
H434 H 0.52442 0.59488 0.90135 0.0
H435 H 0.45817 0.60694 0.89409 0.0
H436 H 0.58862 0.47463 0.5271 0.0
H437 H 0.52207 0.48385 0.5074 0.0
H438 H 0.51741 0.44724 0.47931 0.0
H439 H 0.58383 0.43756 0.50017 0.0
Gd440 Gd 1.01718 0.50609 0.74219 0.0
Gd441 Gd 0.02452 0.53847 0.64846 0.0
C442 C 0.97695 0.5289 0.67135 0.0
C443 C 1.00114 0.48435 0.83889 0.0
C444 C 0.9807 0.48844 0.86923 0.0
C445 C 0.96655 0.47209 0.88076 0.0
C446 C 0.974 0.50918 0.87531 0.0
C447 C 0.93922 0.49728 0.90353 0.0
C448 C 0.95345 0.51354 0.89188 0.0
C449 C 0.94587 0.47649 0.89812 0.0
C450 C 0.02627 0.49026 0.61603 0.0
C451 C 0.0646 0.51516 0.71937 0.0
C452 C 0.04082 0.56027 0.55208 0.0
C453 C 0.06112 0.55592 0.52091 0.0
C454 C 0.07514 0.5721 0.50582 0.0
C455 C 0.06779 0.53515 0.51672 0.0
C456 C 0.10236 0.54665 0.48341 0.0
C457 C 0.08821 0.53058 0.49899 0.0
C458 C 0.09566 0.56749 0.48667 0.0
C459 C 1.01551 0.55416 0.77484 0.0
O460 O 0.98423 0.51816 0.72371 0.0
O461 O 0.99001 0.53774 0.62805 0.0
O462 O 1.00036 0.47847 0.77477 0.0
O463 O 1.01537 0.49864 0.85027 0.0
O464 O 0.03315 0.48297 0.67365 0.0
O465 O 1.01466 0.50586 0.6276 0.0
O466 O 0.05738 0.52582 0.66667 0.0
O467 O 0.05149 0.50673 0.76321 0.0
O468 O 0.04185 0.56587 0.61643 0.0
O469 O 0.02632 0.54626 0.54058 0.0
O470 O 1.00841 0.56143 0.71747 0.0
O471 O 0.02721 0.53867 0.76278 0.0
H472 H 0.97137 0.45603 0.87458 0.0
H473 H 0.98443 0.52212 0.86467 0.0
H474 H 0.94861 0.52969 0.89442 0.0
H475 H 0.93512 0.46371 0.90741 0.0
H476 H 0.07035 0.58822 0.51031 0.0
H477 H 0.05744 0.52235 0.52978 0.0
H478 H 0.09299 0.51441 0.49892 0.0
H479 H 0.10621 0.58018 0.47437 0.0
H480 H 0.13839 0.99858 0.26699 0.0
H481 H 0.12546 0.0642 0.25399 0.0
H482 H 0.11326 0.99509 0.35975 0.0
H483 H 0.10146 0.06143 0.3508 0.0
H484 H 0.05129 0.05183 0.5113 0.0
H485 H 0.07142 0.05321 0.40492 0.0
H486 H 0.10567 0.99871 0.46982 0.0
H487 H 0.08466 0.997 0.57263 0.0
C488 C 0.1303 1.01237 0.28484 0.0
C489 C 0.13401 0.03166 0.25318 0.0
C490 C 0.11588 1.01048 0.33897 0.0
C491 C 0.10507 0.028 0.36512 0.0
C492 C 0.10888 0.04735 0.33267 0.0
C493 C 0.1229 0.04908 0.27716 0.0
C494 C 0.06251 0.03973 0.50119 0.0
C495 C 0.06597 0.02407 0.55004 0.0
C496 C 0.0746 0.04073 0.44056 0.0
C497 C 0.09069 0.02617 0.42714 0.0
C498 C 0.09348 1.01015 0.47581 0.0
C499 C 0.0814 1.00918 0.53579 0.0
H500 H 0.49038 0.14995 0.30269 0.0
H501 H 0.54301 0.11695 0.21914 0.0
H502 H 0.48874 0.12578 0.39763 0.0
H503 H 0.5425 0.09326 0.31707 0.0
H504 H 0.52946 0.04411 0.48395 0.0
H505 H 0.53012 0.06625 0.38158 0.0
H506 H 0.50088 0.11565 0.49815 0.0
H507 H 0.49897 0.09321 0.59664 0.0
C508 C 0.50189 0.13766 0.30526 0.0
C509 C 0.5169 0.13561 0.25313 0.0
C510 C 0.50113 0.1237 0.36061 0.0
C511 C 0.51573 0.10736 0.36742 0.0
C512 C 0.53073 0.10526 0.31459 0.0
C513 C 0.53116 0.11902 0.25815 0.0
C514 C 0.52293 0.05963 0.48698 0.0
C515 C 0.51395 0.06668 0.54874 0.0
C516 C 0.52348 0.07255 0.42822 0.0
C517 C 0.51534 0.09306 0.42969 0.0
C518 C 0.50671 0.09996 0.49238 0.0
C519 C 0.5058 0.087 0.55006 0.0
H520 H 0.42335 0.54074 0.22294 0.0
H521 H 0.39522 0.48441 0.30044 0.0
H522 H 0.44707 0.54175 0.32096 0.0
H523 H 0.41963 0.48432 0.39546 0.0
H524 H 0.45103 0.49703 0.59655 0.0
H525 H 0.4285 0.49691 0.49746 0.0
H526 H 0.47518 0.53133 0.38326 0.0
H527 H 0.49725 0.53256 0.48588 0.0
C528 C 0.42242 0.5284 0.26063 0.0
C529 C 0.40717 0.51262 0.25408 0.0
C530 C 0.4362 0.52885 0.31704 0.0
C531 C 0.43548 0.51326 0.36812 0.0
C532 C 0.42053 0.49714 0.3597 0.0
C533 C 0.40648 0.49701 0.3044 0.0
C534 C 0.45656 0.5046 0.55033 0.0
C535 C 0.47602 0.51479 0.54956 0.0
C536 C 0.4436 0.50434 0.4924 0.0
C537 C 0.44975 0.51387 0.43037 0.0
C538 C 0.46947 0.52397 0.42949 0.0
C539 C 0.48234 0.52454 0.48836 0.0
H540 H 1.00522 0.43117 0.20883 0.0
H541 H 0.04487 0.38912 0.32067 0.0
H542 H 1.00464 0.45479 0.30727 0.0
H543 H 0.04531 0.41288 0.41727 0.0
H544 H 0.03072 0.44826 0.60822 0.0
H545 H 0.02907 0.42569 0.50902 0.0
H546 H 0.01912 0.47928 0.37898 0.0
H547 H 0.01926 0.5018 0.48095 0.0
C548 C 1.01401 0.42703 0.25423 0.0
C549 C 0.02492 0.40802 0.25661 0.0
C550 C 1.01378 0.44071 0.31107 0.0
C551 C 0.02473 0.436 0.37202 0.0
C552 C 0.036 0.41711 0.37321 0.0
C553 C 0.03591 0.40335 0.31705 0.0
C554 C 0.02817 0.4553 0.55849 0.0
C555 C 0.0253 0.47694 0.55283 0.0
C556 C 0.02743 0.44226 0.50071 0.0
C557 C 0.02441 0.45034 0.4342 0.0
C558 C 0.02133 0.47213 0.42863 0.0
C559 C 0.02155 0.4852 0.4872 0.0
H560 H 0.89089 0.04068 0.07858 0.0
H561 H 0.93089 0.99602 0.17733 0.0
H562 H 0.91477 0.0425 0.98216 0.0
H563 H 0.95468 0.99714 0.07889 0.0
H564 H 1.00124 1.0146 0.90143 0.0
H565 H 0.98021 1.01427 1.0077 0.0
H566 H 0.92453 0.02424 0.88726 0.0
H567 H 0.94506 0.02493 0.78449 0.0
C568 C 0.90469 0.031 0.07942 0.0
C569 C 0.90868 1.01803 0.13593 0.0
C570 C 0.91852 0.03195 0.02354 0.0
C571 C 0.93677 0.01966 0.02098 0.0
C572 C 0.94101 1.00699 0.07835 0.0
C573 C 0.92725 1.00626 0.13498 0.0
C574 C 0.98453 1.01667 0.89805 0.0
C575 C 0.975 0.01966 0.83367 0.0
C576 C 0.97236 1.01647 0.95909 0.0
C577 C 0.95043 0.01952 0.95726 0.0
C578 C 0.94124 0.02239 0.89247 0.0
C579 C 0.9532 0.02253 0.83253 0.0
H580 H 0.48683 0.90343 0.11165 0.0
H581 H 0.55148 0.91876 0.14642 0.0
H582 H 0.48568 0.92802 1.01629 0.0
H583 H 0.55091 0.94267 0.04853 0.0
H584 H 0.54054 0.99582 0.89457 0.0
H585 H 0.54018 0.97455 0.99919 0.0
H586 H 0.49573 0.93261 0.90382 0.0
H587 H 0.49605 0.95389 0.80131 0.0
C588 C 0.50088 0.91197 0.09831 0.0
C589 C 0.51924 0.90909 0.13645 0.0
C590 C 0.50033 0.92606 0.04315 0.0
C591 C 0.51827 0.93749 0.02331 0.0
C592 C 0.53664 0.93458 0.06216 0.0
C593 C 0.53706 0.92071 0.11813 0.0
C594 C 0.53045 0.98229 0.89671 0.0
C595 C 0.5183 0.97666 0.83937 0.0
C596 C 0.53039 0.96984 0.95653 0.0
C597 C 0.51793 0.95159 0.961 0.0
C598 C 0.50536 0.94652 0.9039 0.0
C599 C 0.50564 0.95874 0.84438 0.0
H600 H 0.65047 0.5008 0.07631 0.0
H601 H 0.61489 0.55094 0.16542 0.0
H602 H 0.62662 0.49965 0.97866 0.0
H603 H 0.59125 0.55019 0.06706 0.0
H604 H 0.54149 0.53275 0.90616 0.0
H605 H 0.56411 0.53201 1.00768 0.0
H606 H 0.61684 0.51748 0.87819 0.0
H607 H 0.59425 0.51867 0.77749 0.0
C608 C 0.63766 0.51174 0.07485 0.0
C609 C 0.63476 0.52601 0.12911 0.0
C610 C 0.62391 0.51113 0.01849 0.0
C611 C 0.60683 0.52488 1.01394 0.0
C612 C 0.60389 0.53907 0.06858 0.0
C613 C 0.61756 0.53957 0.12522 0.0
C614 C 0.55791 0.52945 0.89958 0.0
C615 C 0.56608 0.52611 0.83353 0.0
C616 C 0.57099 0.52909 0.95786 0.0
C617 C 0.59255 0.52479 0.95198 0.0
C618 C 0.60044 0.52075 0.88569 0.0
C619 C 0.58747 0.5216 0.82752 0.0
H620 H 0.99427 0.65064 0.08776 0.0
H621 H 0.04695 0.6169 0.16743 0.0
H622 H 0.99208 0.62674 0.99153 0.0
H623 H 0.04562 0.59336 0.06892 0.0
H624 H 0.03062 0.54419 0.90403 0.0
H625 H 0.0317 0.56642 1.00648 0.0
H626 H 1.00436 0.61661 0.88969 0.0
H627 H 1.00214 0.59408 0.79044 0.0
C628 C 1.00565 0.63826 0.08421 0.0
C629 C 0.02086 0.63592 0.13566 0.0
C630 C 1.00451 0.62444 0.02822 0.0
C631 C 1.01884 0.6079 0.0204 0.0
C632 C 0.03402 0.60552 0.07241 0.0
C633 C 0.03491 0.61918 0.12922 0.0
C634 C 0.02466 0.55993 0.90083 0.0
C635 C 1.01616 0.56721 0.83884 0.0
C636 C 0.02544 0.57288 0.95964 0.0
C637 C 1.01801 0.59363 0.958 0.0
C638 C 1.00973 0.60075 0.8952 0.0
C639 C 1.00862 0.58776 0.83727 0.0
H640 H 0.99795 0.21239 0.23049 0.0
H641 H 0.04383 0.22439 0.38826 0.0
H642 H 0.98472 0.18286 0.29472 0.0
H643 H 0.03142 0.1938 0.4516 0.0
H644 H 0.99666 0.14194 0.56524 0.0
H645 H 1.00437 0.17634 0.51539 0.0
H646 H 0.99769 0.14961 0.31205 0.0
H647 H 0.98877 0.11629 0.36198 0.0
C648 C 1.00539 0.2084 0.27861 0.0
C649 C 0.02223 0.22011 0.30377 0.0
C650 C 0.99783 0.19155 0.31552 0.0
C651 C 1.00735 0.18569 0.37744 0.0
C652 C 0.02373 0.19795 0.40411 0.0
C653 C 0.03102 0.21522 0.36764 0.0
C654 C 0.99632 0.14388 0.51003 0.0
C655 C 0.99165 0.12697 0.46681 0.0
C656 C 1.00095 0.16334 0.48153 0.0
C657 C 1.00135 0.16577 0.40974 0.0
C658 C 0.99677 0.14856 0.36741 0.0
C659 C 0.99174 0.12944 0.39574 0.0
H660 H 0.33291 0.06261 0.32258 0.0
H661 H 0.31318 0.99824 0.32201 0.0
H662 H 0.36409 0.0533 0.38789 0.0
H663 H 0.34481 0.98856 0.38471 0.0
H664 H 0.40269 0.98129 0.52444 0.0
H665 H 0.36726 0.9913 0.48887 0.0
H666 H 0.39381 0.0346 0.3429 0.0
H667 H 0.42856 0.02485 0.3784 0.0
C668 C 0.3353 0.04652 0.33718 0.0
C669 C 0.32119 0.03101 0.31698 0.0
C670 C 0.353 0.04115 0.37431 0.0
C671 C 0.357 0.02015 0.39006 0.0
C672 C 0.34207 1.00484 0.37347 0.0
C673 C 0.32418 1.0103 0.33718 0.0
C674 C 0.40074 0.99288 0.48466 0.0
C675 C 0.41819 1.00252 0.45441 0.0
C676 C 0.38061 0.99865 0.46465 0.0
C677 C 0.37786 1.01408 0.41435 0.0
C678 C 0.39542 0.02321 0.38346 0.0
C679 C 0.41532 1.01752 0.40333 0.0
H680 H 0.48819 0.3343 0.32371 0.0
H681 H 0.55261 0.31562 0.30952 0.0
H682 H 0.49842 0.36447 0.39343 0.0
H683 H 0.56302 0.34528 0.38092 0.0
H684 H 0.57281 0.41643 0.39927 0.0
H685 H 0.56486 0.38159 0.35814 0.0
H686 H 0.5128 0.37779 0.49907 0.0
H687 H 0.52047 0.41316 0.53866 0.0
C688 C 0.5045 0.33668 0.33644 0.0
C689 C 0.51976 0.32322 0.311 0.0
C690 C 0.51037 0.35368 0.37691 0.0
C691 C 0.53157 0.35729 0.39218 0.0
C692 C 0.54664 0.34307 0.36904 0.0
C693 C 0.54075 0.32618 0.32843 0.0
C694 C 0.55998 0.40796 0.42257 0.0
C695 C 0.54717 0.41745 0.47166 0.0
C696 C 0.55545 0.38795 0.39926 0.0
C697 C 0.53811 0.377 0.42513 0.0
C698 C 0.52603 0.38602 0.4774 0.0
C699 C 0.53046 0.40617 0.5002 0.0
H700 H 0.21339 0.48258 0.34676 0.0
H701 H 0.22258 0.54721 0.29379 0.0
H702 H 0.18256 0.49198 0.41457 0.0
H703 H 0.1918 0.55675 0.3612 0.0
H704 H 0.13914 0.56654 0.51717 0.0
H705 H 0.17438 0.55711 0.47928 0.0
H706 H 0.14877 0.50496 0.36581 0.0
H707 H 0.11395 0.5146 0.4009 0.0
C708 C 0.20884 0.49879 0.3506 0.0
C709 C 0.21974 0.51421 0.31465 0.0
C710 C 0.1914 0.50418 0.38928 0.0
C711 C 0.18483 0.52505 0.39248 0.0
C712 C 0.19665 0.5406 0.35985 0.0
C713 C 0.21399 0.53516 0.32078 0.0
C714 C 0.14111 0.55314 0.48387 0.0
C715 C 0.12379 0.54127 0.46218 0.0
C716 C 0.16121 0.54767 0.46285 0.0
C717 C 0.16419 0.53013 0.42069 0.0
C718 C 0.14693 0.51822 0.39984 0.0
C719 C 0.12697 0.5238 0.4199 0.0
H720 H 0.05899 0.81587 0.05275 0.0
H721 H 0.99389 0.83041 0.08099 0.0
H722 H 0.06383 0.84779 0.9867 0.0
H723 H 0.99816 0.86166 1.01113 0.0
H724 H 0.02143 0.92847 1.00422 0.0
H725 H 1.01409 0.89327 0.04081 0.0
H726 H 0.05771 0.86964 0.89003 0.0
H727 H 0.06563 0.90556 0.85508 0.0
C728 C 0.04566 0.82578 0.04318 0.0
C729 C 0.02623 0.82129 0.07276 0.0
C730 C 0.04833 0.84387 1.00481 0.0
C731 C 0.03145 0.85745 0.99486 0.0
C732 C 1.01159 0.85182 0.01976 0.0
C733 C 1.00908 0.83402 0.05949 0.0
C734 C 0.0293 0.91572 0.97853 0.0
C735 C 0.04406 0.91954 0.92717 0.0
C736 C 0.02494 0.89551 0.99884 0.0
C737 C 0.03507 0.87859 0.96762 0.0
C738 C 0.04973 0.88239 0.91523 0.0
C739 C 0.0543 0.90282 0.89535 0.0
H740 H 0.73184 0.04709 0.0246 0.0
H741 H 0.70444 0.99124 0.10948 0.0
H742 H 0.70005 0.05344 0.95925 0.0
H743 H 0.67298 0.99685 0.04154 0.0
H744 H 0.61231 0.03176 1.01499 0.0
H745 H 0.64618 0.0213 0.05775 0.0
H746 H 0.67521 0.04428 0.87195 0.0
H747 H 0.64085 0.05559 0.83051 0.0
C748 C 0.71911 0.03594 0.02779 0.0
C749 C 0.72017 0.01897 0.07284 0.0
C750 C 0.70101 0.03945 0.99003 0.0
C751 C 0.68387 0.02586 0.99634 0.0
C752 C 0.68572 1.00793 0.03728 0.0
C753 C 0.70364 1.00467 0.07601 0.0
C754 C 0.62599 0.03458 0.98356 0.0
C755 C 0.62426 0.04455 0.92015 0.0
C756 C 0.64535 0.02834 1.0074 0.0
C757 C 0.66336 0.03165 0.96774 0.0
C758 C 0.6616 0.04162 0.90375 0.0
C759 C 0.64209 0.04814 0.88016 0.0
H760 H 0.54641 0.71181 0.09034 0.0
H761 H 0.48329 0.72974 0.04183 0.0
H762 H 0.54231 0.68039 0.02042 0.0
H763 H 0.4786 0.69781 0.97504 0.0
H764 H 0.47842 0.63974 0.84186 0.0
H765 H 0.48701 0.67531 0.87964 0.0
H766 H 0.523 0.65 0.04767 0.0
H767 H 0.51487 0.61504 1.00909 0.0
C768 C 0.53171 0.70893 0.06434 0.0
C769 C 0.515 0.72267 0.07201 0.0
C770 C 0.52932 0.69107 0.02449 0.0
C771 C 0.50997 0.68645 0.99363 0.0
C772 C 0.4937 0.70098 0.99789 0.0
C773 C 0.49627 0.71908 0.03659 0.0
C774 C 0.48815 0.64201 0.88679 0.0
C775 C 0.49604 0.62487 0.92284 0.0
C776 C 0.49314 0.66223 0.90816 0.0
C777 C 0.50593 0.66541 0.966 0.0
C778 C 0.51366 0.64812 1.00169 0.0
C779 C 0.50883 0.62809 0.98017 0.0
H780 H 0.8148 0.49038 0.05987 0.0
H781 H 0.8293 0.55605 0.0695 0.0
H782 H 0.84651 0.48418 0.9936 0.0
H783 H 0.86051 0.55026 0.99988 0.0
H784 H 0.9274 0.52593 0.99725 0.0
H785 H 0.89242 0.53454 0.03331 0.0
H786 H 0.86725 0.48889 0.89127 0.0
H787 H 0.9028 0.48008 0.85529 0.0
C788 C 0.82467 0.50349 0.04621 0.0
C789 C 0.8202 0.52356 0.07038 0.0
C790 C 0.84262 0.50004 1.00773 0.0
C791 C 0.85612 0.51671 0.99242 0.0
C792 C 0.85063 0.53706 1.01243 0.0
C793 C 0.83289 0.54042 0.05204 0.0
C794 C 0.9144 0.51793 0.97294 0.0
C795 C 0.91772 0.50234 0.92367 0.0
C796 C 0.89432 0.52298 0.99318 0.0
C797 C 0.87707 0.51256 0.96453 0.0
C798 C 0.88031 0.49709 0.91438 0.0
C799 C 0.90056 0.49199 0.89411 0.0
H800 H 0.05476 0.20062 0.74473 0.0
H801 H 1.00055 0.19145 0.87195 0.0
H802 H 0.05417 0.16356 0.71324 0.0
H803 H 0.99902 0.15492 0.83802 0.0
H804 H 1.01459 0.0862 0.83657 0.0
H805 H 1.01469 0.12356 0.859 0.0
H806 H 0.03949 0.13463 0.65585 0.0
H807 H 0.0395 0.09689 0.63453 0.0
C808 C 0.04254 0.19071 0.76524 0.0
C809 C 0.02793 0.1989 0.81197 0.0
C810 C 0.04209 0.1694 0.74691 0.0
C811 C 0.02679 0.15576 0.77398 0.0
C812 C 1.01158 0.16444 0.81786 0.0
C813 C 1.0123 0.18554 0.8371 0.0
C814 C 0.0202 0.09665 0.79699 0.0
C815 C 0.02713 0.08861 0.73407 0.0
C816 C 0.02002 0.11822 0.80932 0.0
C817 C 0.02696 0.13256 0.75928 0.0
C818 C 0.03413 0.12435 0.69616 0.0
C819 C 0.03402 0.10268 0.68357 0.0
H820 H 0.34176 0.05575 0.72671 0.0
H821 H 0.35253 1.01344 0.89421 0.0
H822 H 0.37889 0.05397 0.6957 0.0
H823 H 0.38915 1.011 0.86237 0.0
H824 H 0.45728 0.0286 0.84608 0.0
H825 H 0.41999 0.03062 0.86884 0.0
H826 H 0.40777 0.03395 0.65106 0.0
H827 H 0.44542 0.03206 0.62874 0.0
C828 C 0.352 0.0459 0.75652 0.0
C829 C 0.34419 0.03505 0.81392 0.0
C830 C 0.37334 0.04481 0.7386 0.0
C831 C 0.38739 0.03264 0.77721 0.0
C832 C 0.3792 0.02113 0.83261 0.0
C833 C 0.35807 0.02243 0.85087 0.0
C834 C 0.44667 0.02986 0.80302 0.0
C835 C 0.45441 0.03004 0.73562 0.0
C836 C 0.42514 0.03081 0.81595 0.0
C837 C 0.41052 0.0322 0.76195 0.0
C838 C 0.41835 0.0329 0.69425 0.0
C839 C 0.43998 0.03164 0.6813 0.0
H840 H 0.4835 0.35217 0.86406 0.0
H841 H 0.54021 0.34349 0.74875 0.0
H842 H 0.48254 0.38846 0.82982 0.0
H843 H 0.54016 0.38019 0.71728 0.0
H844 H 0.53144 0.44631 0.64009 0.0
H845 H 0.52973 0.40897 0.66123 0.0
H846 H 0.49468 0.42068 0.84701 0.0
H847 H 0.49557 0.45769 0.8235 0.0
C848 C 0.49597 0.3581 0.83198 0.0
C849 C 0.51209 0.34482 0.81027 0.0
C850 C 0.49557 0.37917 0.81249 0.0
C851 C 0.51155 0.38799 0.77171 0.0
C852 C 0.52738 0.37442 0.74824 0.0
C853 C 0.52752 0.35319 0.76669 0.0
C854 C 0.52311 0.44086 0.68494 0.0
C855 C 0.51355 0.4552 0.7298 0.0
C856 C 0.52227 0.41926 0.69765 0.0
C857 C 0.51196 0.41119 0.75602 0.0
C858 C 0.50237 0.42572 0.80053 0.0
C859 C 0.50306 0.44724 0.78746 0.0
H860 H 0.19069 0.47637 0.84463 0.0
H861 H 0.19909 0.53852 0.76554 0.0
H862 H 0.15434 0.47669 0.80855 0.0
H863 H 0.16244 0.53947 0.73244 0.0
H864 H 0.09674 0.53389 0.648 0.0
H865 H 0.13419 0.53062 0.6666 0.0
H866 H 0.12215 0.48852 0.83517 0.0
H867 H 0.08498 0.49101 0.81373 0.0
C868 C 0.18469 0.49023 0.82009 0.0
C869 C 0.19785 0.50751 0.80909 0.0
C870 C 0.16366 0.49052 0.79958 0.0
C871 C 0.15485 0.5083 0.76853 0.0
C872 C 0.16831 0.52535 0.75552 0.0
C873 C 0.18947 0.52489 0.77497 0.0
C874 C 0.10212 0.5237 0.68838 0.0
C875 C 0.08767 0.51272 0.72926 0.0
C876 C 0.12376 0.52198 0.69979 0.0
C877 C 0.1317 0.50934 0.75293 0.0
C878 C 0.11709 0.49816 0.79296 0.0
C879 C 0.09553 0.49977 0.78118 0.0
H880 H 0.9882 0.84495 0.61426 0.0
H881 H 0.05273 0.85127 0.55541 0.0
H882 H 0.98711 0.88187 0.64395 0.0
H883 H 0.05235 0.88772 0.58919 0.0
H884 H 0.04272 0.95733 0.58212 0.0
H885 H 0.04366 0.92004 0.5604 0.0
H886 H 0.99343 0.91105 0.70621 0.0
H887 H 0.99216 0.94878 0.72468 0.0
C888 C 1.00229 0.8542 0.60857 0.0
C889 C 0.02043 0.84514 0.58084 0.0
C890 C 1.00176 0.87554 0.6261 0.0
C891 C 0.0195 0.88851 0.61783 0.0
C892 C 0.03796 0.87894 0.59381 0.0
C893 C 0.03832 0.85779 0.57483 0.0
C894 C 0.03175 0.94733 0.60884 0.0
C895 C 1.01719 0.956 0.6542 0.0
C896 C 0.03245 0.92571 0.59737 0.0
C897 C 1.01872 0.91186 0.63155 0.0
C898 C 1.00415 0.92078 0.67762 0.0
C899 C 1.00342 0.94252 0.68873 0.0
H900 H 0.69047 0.04555 0.53436 0.0
H901 H 0.69872 0.98527 0.62792 0.0
H902 H 0.65386 0.04511 0.56677 0.0
H903 H 0.66207 0.98517 0.66295 0.0
H904 H 0.58931 0.98163 0.64123 0.0
H905 H 0.6271 0.98139 0.61993 0.0
H906 H 0.62947 0.04786 0.65578 0.0
H907 H 0.59203 0.04795 0.67681 0.0
C908 C 0.68453 0.03214 0.5619 0.0
C909 C 0.69776 1.0153 0.57717 0.0
C910 C 0.66342 0.03201 0.58153 0.0
C911 C 0.65462 1.01503 0.61737 0.0
C912 C 0.66798 0.9984 0.63443 0.0
C913 C 0.68919 0.99857 0.6149 0.0
C914 C 0.59796 0.99616 0.64432 0.0
C915 C 0.58754 1.01482 0.66008 0.0
C916 C 0.61973 0.99604 0.63273 0.0
C917 C 0.63162 1.01467 0.6351 0.0
C918 C 0.62106 0.03322 0.65203 0.0
C919 C 0.59948 0.03326 0.6647 0.0
H920 H 0.52936 0.68854 0.47051 0.0
H921 H 0.51641 0.70397 0.6815 0.0
H922 H 0.53254 0.65231 0.50011 0.0
H923 H 0.51799 0.66712 0.71173 0.0
H924 H 0.53155 0.59848 0.75948 0.0
H925 H 0.53147 0.63584 0.73524 0.0
H926 H 0.51924 0.6219 0.52118 0.0
H927 H 0.52138 0.58516 0.5454 0.0
C928 C 0.52673 0.68409 0.52338 0.0
C929 C 0.52233 0.69935 0.57308 0.0
C930 C 0.52835 0.66296 0.54081 0.0
C931 C 0.525 0.6559 0.60864 0.0
C932 C 0.52085 0.67135 0.6589 0.0
C933 C 0.51978 0.69271 0.64152 0.0
C934 C 0.52915 0.60358 0.70716 0.0
C935 C 0.52679 0.58877 0.65421 0.0
C936 C 0.5289 0.62518 0.69295 0.0
C937 C 0.52561 0.63268 0.62547 0.0
C938 C 0.52273 0.61751 0.57336 0.0
C939 C 0.52373 0.59609 0.58725 0.0
H940 H 0.83928 0.5113 0.66794 0.0
H941 H 0.85296 0.54996 0.4932 0.0
H942 H 0.8756 0.51316 0.70316 0.0
H943 H 0.88926 0.55079 0.52406 0.0
H944 H 0.95543 0.55668 0.59142 0.0
H945 H 0.91831 0.55885 0.572 0.0
H946 H 0.90871 0.50564 0.70526 0.0
H947 H 0.94579 0.50498 0.72852 0.0
C948 C 0.8501 0.52022 0.63683 0.0
C949 C 0.84306 0.53027 0.57703 0.0
C950 C 0.8713 0.5211 0.65651 0.0
C951 C 0.88637 0.53198 0.61684 0.0
C952 C 0.8789 0.54236 0.55778 0.0
C953 C 0.85777 0.54162 0.53873 0.0
C954 C 0.94532 0.54554 0.61686 0.0
C955 C 0.9538 0.53055 0.661 0.0
C956 C 0.92369 0.54653 0.60502 0.0
C957 C 0.90959 0.53207 0.63497 0.0
C958 C 0.9183 0.51731 0.68059 0.0
C959 C 0.93991 0.51675 0.69388 0.0
loop_
_geom_bond_atom_site_label_1
_geom_bond_atom_site_label_2
_geom_bond_distance
_geom_bond_site_symmetry_2
_ccdc_geom_bond_type
C0 C1 1.264 . S
C0 C5 1.479 . S
C0 C10 1.465 . S
C1 C0 1.264 . S
C1 C3 1.339 . S
C1 H28 0.931 . S
C2 C3 1.395 . S
C2 C4 1.320 . S
C3 C1 1.339 . S
C3 C2 1.395 . S
C3 H29 0.929 . S
C4 C2 1.320 . S
C4 C5 1.405 . S
C4 H30 0.930 . S
C5 C0 1.479 . S
C5 C4 1.405 . S
C5 H31 0.931 . S
U6 O7 2.454 . S
U6 O8 2.458 . S
U6 C9 2.984 . S
U6 C10 2.847 . S
U6 C23 2.882 . S
U6 O24 2.441 . S
U6 O25 2.420 . S
U6 O26 2.455 . S
U6 O27 2.449 . S
O7 U6 2.454 . S
O7 C9 1.353 . S
O8 U6 2.458 . S
O8 C9 1.286 . S
C9 U6 2.984 . S
C9 O7 1.353 . S
C9 O8 1.286 . S
C9 C11 1.363 . S
C10 C0 1.465 . S
C10 U6 2.847 . S
C10 O24 1.249 . S
C10 O25 1.202 . S
C11 C9 1.363 . S
C11 C13 1.408 . S
C11 C16 1.342 . S
C12 C13 1.310 . S
C12 C15 1.461 . S
C12 H32 0.932 . S
C13 C11 1.408 . S
C13 C12 1.310 . S
C13 H33 0.930 . S
C14 C15 1.474 . S
C14 C16 1.285 . S
C14 H34 0.929 . S
C15 C12 1.461 . S
C15 C14 1.474 . S
C16 C11 1.342 . S
C16 C14 1.285 . S
C16 H35 0.930 . S
C17 C20 1.424 . S
C17 C22 1.245 . S
C17 C23 1.428 . S
C18 C21 1.260 . S
C18 C22 1.477 . S
C18 H36 0.932 . S
C19 C20 1.384 . S
C19 C21 1.479 . S
C19 H37 0.929 . S
C20 C17 1.424 . S
C20 C19 1.384 . S
C20 H38 0.928 . S
C21 C18 1.260 . S
C21 C19 1.479 . S
C22 C17 1.245 . S
C22 C18 1.477 . S
C22 H39 0.932 . S
C23 U6 2.882 . S
C23 C17 1.428 . S
C23 O26 1.301 . S
C23 O27 1.282 . S
O24 U6 2.441 . S
O24 C10 1.249 . S
O25 U6 2.420 . S
O25 C10 1.202 . S
O26 U6 2.455 . S
O26 C23 1.301 . S
O27 U6 2.449 . S
O27 C23 1.282 . S
H28 C1 0.931 . S
H29 C3 0.929 . S
H30 C4 0.930 . S
H31 C5 0.931 . S
H32 C12 0.932 . S
H33 C13 0.930 . S
H34 C14 0.929 . S
H35 C16 0.930 . S
H36 C18 0.932 . S
H37 C19 0.929 . S
H38 C20 0.928 . S
H39 C22 0.932 . S
C40 C41 1.264 . S
C40 C45 1.479 . S
C40 C50 1.465 . S
C41 C40 1.264 . S
C41 C43 1.339 . S
C41 H68 0.931 . S
C42 C43 1.395 . S
C42 C44 1.320 . S
C43 C41 1.339 . S
C43 C42 1.395 . S
C43 H69 0.929 . S
C44 C42 1.320 . S
C44 C45 1.405 . S
C44 H70 0.919 1_455 S
C45 C40 1.479 . S
C45 C44 1.405 . S
C45 H71 0.931 . S
U46 O47 2.454 . S
U46 O48 2.458 . S
U46 C49 2.984 . S
U46 C50 2.847 . S
U46 C63 2.882 . S
U46 O64 2.441 . S
U46 O65 2.420 . S
U46 O66 2.455 . S
U46 O67 2.449 . S
O47 U46 2.454 . S
O47 C49 1.353 . S
O48 U46 2.458 . S
O48 C49 1.286 . S
C49 U46 2.984 . S
C49 O47 1.353 . S
C49 O48 1.286 . S
C49 C51 1.363 . S
C50 C40 1.465 . S
C50 U46 2.847 . S
C50 O64 1.249 . S
C50 O65 1.202 . S
C51 C49 1.363 . S
C51 C53 1.408 . S
C51 C56 1.342 . S
C52 C53 1.310 . S
C52 C55 1.461 1_455 S
C52 H72 0.935 . S
C53 C51 1.408 . S
C53 C52 1.310 . S
C53 H73 0.930 . S
C54 C55 1.474 . S
C54 C56 1.284 1_655 S
C54 H74 0.932 . S
C55 C52 1.461 1_655 S
C55 C54 1.474 . S
C56 C51 1.342 . S
C56 C54 1.284 1_455 S
C56 H75 0.932 . S
C57 C60 1.424 . S
C57 C62 1.245 . S
C57 C63 1.428 . S
C58 C61 1.260 . S
C58 C62 1.477 . S
C58 H76 0.932 . S
C59 C60 1.384 . S
C59 C61 1.479 . S
C59 H77 0.929 . S
C60 C57 1.424 . S
C60 C59 1.384 . S
C60 H78 0.928 . S
C61 C58 1.260 . S
C61 C59 1.479 . S
C62 C57 1.245 . S
C62 C58 1.477 . S
C62 H79 0.932 . S
C63 U46 2.882 . S
C63 C57 1.428 . S
C63 O66 1.301 . S
C63 O67 1.282 . S
O64 U46 2.441 . S
O64 C50 1.249 . S
O65 U46 2.420 . S
O65 C50 1.202 . S
O66 U46 2.455 . S
O66 C63 1.301 . S
O67 U46 2.449 . S
O67 C63 1.282 . S
H68 C41 0.931 . S
H69 C43 0.929 . S
H70 C44 0.919 1_655 S
H71 C45 0.931 . S
H72 C52 0.935 . S
H73 C53 0.930 . S
H74 C54 0.932 . S
H75 C56 0.932 . S
H76 C58 0.932 . S
H77 C59 0.929 . S
H78 C60 0.928 . S
H79 C62 0.932 . S
C80 C81 1.264 . S
C80 C85 1.486 . S
C80 C90 1.465 . S
C81 C80 1.264 . S
C81 C83 1.339 . S
C81 H108 0.931 . S
C82 C83 1.395 1_565 S
C82 C84 1.320 . S
C83 C81 1.339 . S
C83 C82 1.395 1_545 S
C83 H109 0.929 . S
C84 C82 1.320 . S
C84 C85 1.395 1_565 S
C84 H110 0.930 . S
C85 C80 1.486 . S
C85 C84 1.395 1_545 S
C85 H111 0.937 . S
U86 O87 2.455 1_545 S
U86 O88 2.462 . S
U86 C89 2.984 1_545 S
U86 C90 2.847 . S
U86 C103 2.882 . S
U86 O104 2.441 . S
U86 O105 2.420 . S
U86 O106 2.455 . S
U86 O107 2.449 . S
O87 U86 2.455 1_565 S
O87 C89 1.353 . S
O88 U86 2.462 . S
O88 C89 1.285 1_545 S
C89 U86 2.984 1_565 S
C89 O87 1.353 . S
C89 O88 1.285 1_565 S
C89 C91 1.363 . S
C90 C80 1.465 . S
C90 U86 2.847 . S
C90 O104 1.249 . S
C90 O105 1.202 . S
C91 C89 1.363 . S
C91 C93 1.408 . S
C91 C96 1.342 . S
C92 C93 1.310 . S
C92 C95 1.461 . S
C92 H112 0.932 . S
C93 C91 1.408 . S
C93 C92 1.310 . S
C93 H113 0.930 . S
C94 C95 1.474 . S
C94 C96 1.285 . S
C94 H114 0.929 . S
C95 C92 1.461 . S
C95 C94 1.474 . S
C96 C91 1.342 . S
C96 C94 1.285 . S
C96 H115 0.930 . S
C97 C100 1.424 . S
C97 C102 1.245 . S
C97 C103 1.428 . S
C98 C101 1.257 1_545 S
C98 C102 1.479 . S
C98 H116 0.933 . S
C99 C100 1.382 1_565 S
C99 C101 1.481 . S
C99 H117 0.928 1_565 S
C100 C97 1.424 . S
C100 C99 1.382 1_545 S
C100 H118 0.928 1_545 S
C101 C98 1.257 1_565 S
C101 C99 1.481 . S
C102 C97 1.245 . S
C102 C98 1.479 . S
C102 H119 0.932 . S
C103 U86 2.882 . S
C103 C97 1.428 . S
C103 O106 1.301 . S
C103 O107 1.282 . S
O104 U86 2.441 . S
O104 C90 1.249 . S
O105 U86 2.420 . S
O105 C90 1.202 . S
O106 U86 2.455 . S
O106 C103 1.301 . S
O107 U86 2.449 . S
O107 C103 1.282 . S
H108 C81 0.931 . S
H109 C83 0.929 . S
H110 C84 0.930 . S
H111 C85 0.937 . S
H112 C92 0.932 . S
H113 C93 0.930 . S
H114 C94 0.929 . S
H115 C96 0.930 . S
H116 C98 0.933 . S
H117 C99 0.928 1_545 S
H118 C100 0.928 1_565 S
H119 C102 0.932 . S
C120 C121 1.264 . S
C120 C125 1.479 . S
C120 C130 1.465 . S
C121 C120 1.264 . S
C121 C123 1.339 . S
C121 H148 0.931 . S
C122 C123 1.395 . S
C122 C124 1.320 . S
C123 C121 1.339 . S
C123 C122 1.395 . S
C123 H149 0.929 . S
C124 C122 1.320 . S
C124 C125 1.405 . S
C124 H150 0.930 . S
C125 C120 1.479 . S
C125 C124 1.405 . S
C125 H151 0.931 . S
U126 O127 2.454 . S
U126 O128 2.458 . S
U126 C129 2.984 . S
U126 C130 2.847 . S
U126 C143 2.882 . S
U126 O144 2.441 . S
U126 O145 2.420 . S
U126 O146 2.455 . S
U126 O147 2.449 . S
O127 U126 2.454 . S
O127 C129 1.353 . S
O128 U126 2.458 . S
O128 C129 1.286 . S
C129 U126 2.984 . S
C129 O127 1.353 . S
C129 O128 1.286 . S
C129 C131 1.363 . S
C130 C120 1.465 . S
C130 U126 2.847 . S
C130 O144 1.249 . S
C130 O145 1.202 . S
C131 C129 1.363 . S
C131 C133 1.408 . S
C131 C136 1.342 . S
C132 C133 1.310 . S
C132 C135 1.461 . S
C132 H152 0.932 . S
C133 C131 1.408 . S
C133 C132 1.310 . S
C133 H153 0.930 . S
C134 C135 1.474 . S
C134 C136 1.285 . S
C134 H154 0.929 . S
C135 C132 1.461 . S
C135 C134 1.474 . S
C136 C131 1.342 . S
C136 C134 1.285 . S
C136 H155 0.930 . S
C137 C140 1.424 . S
C137 C142 1.245 . S
C137 C143 1.428 . S
C138 C141 1.260 . S
C138 C142 1.477 . S
C138 H156 0.932 . S
C139 C140 1.384 . S
C139 C141 1.479 . S
C139 H157 0.929 . S
C140 C137 1.424 . S
C140 C139 1.384 . S
C140 H158 0.928 . S
C141 C138 1.260 . S
C141 C139 1.479 . S
C142 C137 1.245 . S
C142 C138 1.477 . S
C142 H159 0.932 . S
C143 U126 2.882 . S
C143 C137 1.428 . S
C143 O146 1.301 . S
C143 O147 1.282 . S
O144 U126 2.441 . S
O144 C130 1.249 . S
O145 U126 2.420 . S
O145 C130 1.202 . S
O146 U126 2.455 . S
O146 C143 1.301 . S
O147 U126 2.449 . S
O147 C143 1.282 . S
H148 C121 0.931 . S
H149 C123 0.929 . S
H150 C124 0.930 . S
H151 C125 0.931 . S
H152 C132 0.932 . S
H153 C133 0.930 . S
H154 C134 0.929 . S
H155 C136 0.930 . S
H156 C138 0.932 . S
H157 C139 0.929 . S
H158 C140 0.928 . S
H159 C142 0.932 . S
C160 C161 1.264 . S
C160 C165 1.479 . S
C160 C170 1.465 . S
C161 C160 1.264 . S
C161 C163 1.339 . S
C161 H188 0.931 . S
C162 C163 1.395 . S
C162 C164 1.320 . S
C163 C161 1.339 . S
C163 C162 1.395 . S
C163 H189 0.929 . S
C164 C162 1.320 . S
C164 C165 1.405 . S
C164 H190 0.930 . S
C165 C160 1.479 . S
C165 C164 1.405 . S
C165 H191 0.931 . S
U166 O167 2.454 . S
U166 O168 2.458 . S
U166 C169 2.984 . S
U166 C170 2.847 1_554 S
U166 C183 2.882 . S
U166 O184 2.441 1_554 S
U166 O185 2.420 1_554 S
U166 O186 2.455 . S
U166 O187 2.449 . S
O167 U166 2.454 . S
O167 C169 1.353 . S
O168 U166 2.458 . S
O168 C169 1.286 . S
C169 U166 2.984 . S
C169 O167 1.353 . S
C169 O168 1.286 . S
C169 C171 1.363 . S
C170 C160 1.465 . S
C170 U166 2.847 1_556 S
C170 O184 1.249 . S
C170 O185 1.202 . S
C171 C169 1.363 . S
C171 C173 1.408 . S
C171 C176 1.342 . S
C172 C173 1.310 . S
C172 C175 1.461 . S
C172 H192 0.932 . S
C173 C171 1.408 . S
C173 C172 1.310 . S
C173 H193 0.930 1_554 S
C174 C175 1.474 . S
C174 C176 1.285 . S
C174 H194 0.929 . S
C175 C172 1.461 . S
C175 C174 1.474 . S
C176 C171 1.342 . S
C176 C174 1.285 . S
C176 H195 0.930 . S
C177 C180 1.424 . S
C177 C182 1.245 . S
C177 C183 1.428 . S
C178 C181 1.260 . S
C178 C182 1.477 . S
C178 H196 0.932 . S
C179 C180 1.384 . S
C179 C181 1.479 . S
C179 H197 0.929 . S
C180 C177 1.424 . S
C180 C179 1.384 . S
C180 H198 0.928 . S
C181 C178 1.260 . S
C181 C179 1.479 . S
C182 C177 1.245 . S
C182 C178 1.477 . S
C182 H199 0.932 . S
C183 U166 2.882 . S
C183 C177 1.428 . S
C183 O186 1.301 . S
C183 O187 1.282 . S
O184 U166 2.441 1_556 S
O184 C170 1.249 . S
O185 U166 2.420 1_556 S
O185 C170 1.202 . S
O186 U166 2.455 . S
O186 C183 1.301 . S
O187 U166 2.449 . S
O187 C183 1.282 . S
H188 C161 0.931 . S
H189 C163 0.929 . S
H190 C164 0.930 . S
H191 C165 0.931 . S
H192 C172 0.932 . S
H193 C173 0.930 1_556 S
H194 C174 0.929 . S
H195 C176 0.930 . S
H196 C178 0.932 . S
H197 C179 0.929 . S
H198 C180 0.928 . S
H199 C182 0.932 . S
C200 C201 1.264 . S
C200 C205 1.479 . S
C200 C210 1.465 . S
C201 C200 1.264 . S
C201 C203 1.339 . S
C201 H228 0.931 . S
C202 C203 1.395 . S
C202 C204 1.320 . S
C203 C201 1.339 . S
C203 C202 1.395 . S
C203 H229 0.929 . S
C204 C202 1.320 . S
C204 C205 1.405 . S
C204 H230 0.930 . S
C205 C200 1.479 . S
C205 C204 1.405 . S
C205 H231 0.931 . S
U206 O207 2.454 . S
U206 O208 2.458 . S
U206 C209 2.984 . S
U206 C210 2.847 1_554 S
U206 C223 2.882 . S
U206 O224 2.441 1_554 S
U206 O225 2.420 1_554 S
U206 O226 2.455 . S
U206 O227 2.449 . S
O207 U206 2.454 . S
O207 C209 1.353 . S
O208 U206 2.458 . S
O208 C209 1.286 . S
C209 U206 2.984 . S
C209 O207 1.353 . S
C209 O208 1.286 . S
C209 C211 1.363 . S
C210 C200 1.465 . S
C210 U206 2.847 1_556 S
C210 O224 1.249 . S
C210 O225 1.202 . S
C211 C209 1.363 . S
C211 C213 1.408 . S
C211 C216 1.342 . S
C212 C213 1.310 . S
C212 C215 1.461 . S
C212 H232 0.932 . S
C213 C211 1.408 . S
C213 C212 1.310 . S
C213 H233 0.930 1_554 S
C214 C215 1.474 . S
C214 C216 1.285 . S
C214 H234 0.929 . S
C215 C212 1.461 . S
C215 C214 1.474 . S
C216 C211 1.342 . S
C216 C214 1.285 . S
C216 H235 0.930 . S
C217 C220 1.424 . S
C217 C222 1.245 . S
C217 C223 1.428 . S
C218 C221 1.260 . S
C218 C222 1.477 . S
C218 H236 0.932 . S
C219 C220 1.384 . S
C219 C221 1.479 . S
C219 H237 0.929 . S
C220 C217 1.424 . S
C220 C219 1.384 . S
C220 H238 0.928 . S
C221 C218 1.260 . S
C221 C219 1.479 . S
C222 C217 1.245 . S
C222 C218 1.477 . S
C222 H239 0.932 . S
C223 U206 2.882 . S
C223 C217 1.428 . S
C223 O226 1.301 . S
C223 O227 1.282 . S
O224 U206 2.441 1_556 S
O224 C210 1.249 . S
O225 U206 2.420 1_556 S
O225 C210 1.202 . S
O226 U206 2.455 . S
O226 C223 1.301 . S
O227 U206 2.449 . S
O227 C223 1.282 . S
H228 C201 0.931 . S
H229 C203 0.929 . S
H230 C204 0.930 . S
H231 C205 0.931 . S
H232 C212 0.932 . S
H233 C213 0.930 1_556 S
H234 C214 0.929 . S
H235 C216 0.930 . S
H236 C218 0.932 . S
H237 C219 0.929 . S
H238 C220 0.928 . S
H239 C222 0.932 . S
C240 C241 1.264 . S
C240 C245 1.479 . S
C240 C250 1.465 . S
C241 C240 1.264 . S
C241 C243 1.339 . S
C241 H268 0.931 . S
C242 C243 1.395 . S
C242 C244 1.320 . S
C243 C241 1.339 . S
C243 C242 1.395 . S
C243 H269 0.929 . S
C244 C242 1.320 . S
C244 C245 1.405 . S
C244 H270 0.930 . S
C245 C240 1.479 . S
C245 C244 1.405 . S
C245 H271 0.931 . S
U246 O247 2.454 . S
U246 O248 2.458 . S
U246 C249 2.984 . S
U246 C250 2.847 1_554 S
U246 C263 2.882 . S
U246 O264 2.441 1_554 S
U246 O265 2.420 1_554 S
U246 O266 2.455 . S
U246 O267 2.449 . S
O247 U246 2.454 . S
O247 C249 1.353 . S
O248 U246 2.458 . S
O248 C249 1.286 . S
C249 U246 2.984 . S
C249 O247 1.353 . S
C249 O248 1.286 . S
C249 C251 1.363 . S
C250 C240 1.465 . S
C250 U246 2.847 1_556 S
C250 O264 1.249 . S
C250 O265 1.202 . S
C251 C249 1.363 . S
C251 C253 1.408 . S
C251 C256 1.342 . S
C252 C253 1.310 . S
C252 C255 1.461 . S
C252 H272 0.932 . S
C253 C251 1.408 . S
C253 C252 1.310 . S
C253 H273 0.930 1_554 S
C254 C255 1.474 . S
C254 C256 1.285 . S
C254 H274 0.929 . S
C255 C252 1.461 . S
C255 C254 1.474 . S
C256 C251 1.342 . S
C256 C254 1.285 . S
C256 H275 0.930 . S
C257 C260 1.424 . S
C257 C262 1.245 . S
C257 C263 1.428 . S
C258 C261 1.260 . S
C258 C262 1.477 . S
C258 H276 0.932 . S
C259 C260 1.384 . S
C259 C261 1.479 . S
C259 H277 0.929 . S
C260 C257 1.424 . S
C260 C259 1.384 . S
C260 H278 0.928 . S
C261 C258 1.260 . S
C261 C259 1.479 . S
C262 C257 1.245 . S
C262 C258 1.477 . S
C262 H279 0.932 . S
C263 U246 2.882 . S
C263 C257 1.428 . S
C263 O266 1.301 . S
C263 O267 1.282 . S
O264 U246 2.441 1_556 S
O264 C250 1.249 . S
O265 U246 2.420 1_556 S
O265 C250 1.202 . S
O266 U246 2.455 . S
O266 C263 1.301 . S
O267 U246 2.449 . S
O267 C263 1.282 . S
H268 C241 0.931 . S
H269 C243 0.929 . S
H270 C244 0.930 . S
H271 C245 0.931 . S
H272 C252 0.932 . S
H273 C253 0.930 1_556 S
H274 C254 0.929 . S
H275 C256 0.930 . S
H276 C258 0.932 . S
H277 C259 0.929 . S
H278 C260 0.928 . S
H279 C262 0.932 . S
C280 C281 1.264 . S
C280 C285 1.479 . S
C280 C290 1.465 . S
C281 C280 1.264 . S
C281 C283 1.339 . S
C281 H308 0.931 . S
C282 C283 1.395 . S
C282 C284 1.320 . S
C283 C281 1.339 . S
C283 C282 1.395 . S
C283 H309 0.929 . S
C284 C282 1.320 . S
C284 C285 1.405 . S
C284 H310 0.930 . S
C285 C280 1.479 . S
C285 C284 1.405 . S
C285 H311 0.931 . S
U286 O287 2.453 1_554 S
U286 O288 2.458 . S
U286 C289 2.984 . S
U286 C290 2.847 1_554 S
U286 C303 2.882 . S
U286 O304 2.441 1_554 S
U286 O305 2.420 1_554 S
U286 O306 2.455 . S
U286 O307 2.449 . S
O287 U286 2.453 1_556 S
O287 C289 1.350 1_556 S
O288 U286 2.458 . S
O288 C289 1.286 . S
C289 U286 2.984 . S
C289 O287 1.350 1_554 S
C289 O288 1.286 . S
C289 C291 1.363 . S
C290 C280 1.465 . S
C290 U286 2.847 1_556 S
C290 O304 1.249 . S
C290 O305 1.202 . S
C291 C289 1.363 . S
C291 C293 1.408 . S
C291 C296 1.342 . S
C292 C293 1.310 . S
C292 C295 1.461 . S
C292 H312 0.932 . S
C293 C291 1.408 . S
C293 C292 1.310 . S
C293 H313 0.930 1_554 S
C294 C295 1.474 . S
C294 C296 1.285 . S
C294 H314 0.929 . S
C295 C292 1.461 . S
C295 C294 1.474 . S
C296 C291 1.342 . S
C296 C294 1.285 . S
C296 H315 0.930 . S
C297 C300 1.424 . S
C297 C302 1.245 . S
C297 C303 1.428 . S
C298 C301 1.260 . S
C298 C302 1.477 . S
C298 H316 0.932 . S
C299 C300 1.384 . S
C299 C301 1.479 . S
C299 H317 0.929 . S
C300 C297 1.424 . S
C300 C299 1.384 . S
C300 H318 0.928 . S
C301 C298 1.260 . S
C301 C299 1.479 . S
C302 C297 1.245 . S
C302 C298 1.477 . S
C302 H319 0.932 . S
C303 U286 2.882 . S
C303 C297 1.428 . S
C303 O306 1.301 . S
C303 O307 1.282 . S
O304 U286 2.441 1_556 S
O304 C290 1.249 . S
O305 U286 2.420 1_556 S
O305 C290 1.202 . S
O306 U286 2.455 . S
O306 C303 1.301 . S
O307 U286 2.449 . S
O307 C303 1.282 . S
H308 C281 0.931 . S
H309 C283 0.929 . S
H310 C284 0.930 . S
H311 C285 0.931 . S
H312 C292 0.932 . S
H313 C293 0.930 1_556 S
H314 C294 0.929 . S
H315 C296 0.930 . S
H316 C298 0.932 . S
H317 C299 0.929 . S
H318 C300 0.928 . S
H319 C302 0.932 . S
Gd320 C323 2.818 . S
Gd320 O340 2.377 . S
Gd320 O342 2.448 . S
Gd320 O343 2.506 . S
Gd320 O344 2.435 . S
Gd320 O345 2.717 1_565 S
Gd320 O347 2.395 1_565 S
Gd320 O351 2.327 1_455 S
Gd321 C332 2.818 . S
Gd321 O341 2.395 1_545 S
Gd321 O345 2.327 1_655 S
Gd321 O346 2.377 . S
Gd321 O348 2.448 . S
Gd321 O349 2.522 . S
Gd321 O350 2.435 . S
Gd321 O351 2.717 1_545 S
C322 O340 1.240 1_655 S
C322 O341 1.240 . S
C323 Gd320 2.818 . S
C323 C324 1.510 . S
C323 O342 1.249 . S
C323 O343 1.252 . S
C324 C323 1.510 . S
C324 C325 1.404 . S
C324 C326 1.352 . S
C325 C324 1.404 . S
C325 C329 1.389 . S
C325 H352 0.930 . S
C326 C324 1.352 . S
C326 C328 1.374 . S
C326 H353 0.931 1_455 S
C327 C328 1.359 . S
C327 C329 1.364 . S
C328 C326 1.374 . S
C328 C327 1.359 . S
C328 H354 0.931 1_455 S
C329 C325 1.389 . S
C329 C327 1.364 . S
C329 H355 0.931 . S
C330 O344 1.256 1_545 S
C330 O345 1.257 . S
C331 O346 1.240 1_455 S
C331 O347 1.240 . S
C332 Gd321 2.818 . S
C332 C333 1.510 . S
C332 O348 1.249 . S
C332 O349 1.292 . S
C333 C332 1.510 . S
C333 C334 1.404 . S
C333 C335 1.352 . S
C334 C333 1.404 . S
C334 C338 1.389 . S
C334 H356 0.930 . S
C335 C333 1.352 . S
C335 C337 1.374 . S
C335 H357 0.931 1_655 S
C336 C337 1.359 . S
C336 C338 1.364 . S
C337 C335 1.374 . S
C337 C336 1.359 . S
C337 H358 0.931 1_655 S
C338 C334 1.389 . S
C338 C336 1.364 . S
C338 H359 0.931 . S
C339 O350 1.256 . S
C339 O351 1.257 1_545 S
O340 Gd320 2.377 . S
O340 C322 1.240 1_455 S
O341 Gd321 2.395 1_565 S
O341 C322 1.240 . S
O342 Gd320 2.448 . S
O342 C323 1.249 . S
O343 Gd320 2.506 . S
O343 C323 1.252 . S
O344 Gd320 2.435 . S
O344 C330 1.256 1_565 S
O345 Gd320 2.717 1_545 S
O345 Gd321 2.327 1_455 S
O345 C330 1.257 . S
O346 Gd321 2.377 . S
O346 C331 1.240 1_655 S
O347 Gd320 2.395 1_545 S
O347 C331 1.240 . S
O348 Gd321 2.448 . S
O348 C332 1.249 . S
O349 Gd321 2.522 . S
O349 C332 1.292 . S
O350 Gd321 2.435 . S
O350 C339 1.256 . S
O351 Gd320 2.327 1_655 S
O351 Gd321 2.717 1_565 S
O351 C339 1.257 1_565 S
H352 C325 0.930 . S
H353 C326 0.931 1_655 S
H354 C328 0.931 1_655 S
H355 C329 0.931 . S
H356 C334 0.930 . S
H357 C335 0.931 1_455 S
H358 C337 0.931 1_455 S
H359 C338 0.931 . S
Gd360 C363 2.818 . S
Gd360 O380 2.377 . S
Gd360 O382 2.448 . S
Gd360 O383 2.506 . S
Gd360 O384 2.435 . S
Gd360 O385 2.717 . S
Gd360 O387 2.395 . S
Gd360 O391 2.327 1_545 S
Gd361 C372 2.818 . S
Gd361 O381 2.395 . S
Gd361 O385 2.327 1_565 S
Gd361 O386 2.377 . S
Gd361 O388 2.448 . S
Gd361 O389 2.506 1_565 S
Gd361 O390 2.435 . S
Gd361 O391 2.717 . S
C362 O380 1.240 1_565 S
C362 O381 1.240 . S
C363 Gd360 2.818 . S
C363 C364 1.510 . S
C363 O382 1.249 . S
C363 O383 1.252 . S
C364 C363 1.510 . S
C364 C365 1.404 . S
C364 C366 1.352 . S
C365 C364 1.404 . S
C365 C369 1.389 . S
C365 H392 0.930 . S
C366 C364 1.352 . S
C366 C368 1.374 . S
C366 H393 0.931 1_545 S
C367 C368 1.359 . S
C367 C369 1.364 . S
C368 C366 1.374 . S
C368 C367 1.359 . S
C368 H394 0.931 1_545 S
C369 C365 1.389 . S
C369 C367 1.364 . S
C369 H395 0.931 . S
C370 O384 1.256 . S
C370 O385 1.257 . S
C371 O386 1.240 1_545 S
C371 O387 1.240 . S
C372 Gd361 2.818 . S
C372 C373 1.510 . S
C372 O388 1.249 . S
C372 O389 1.252 1_565 S
C373 C372 1.510 . S
C373 C374 1.404 . S
C373 C375 1.307 1_565 S
C374 C373 1.404 . S
C374 C378 1.389 . S
C374 H396 0.930 . S
C375 C373 1.307 1_545 S
C375 C377 1.371 1_545 S
C375 H397 0.981 . S
C376 C377 1.377 . S
C376 C378 1.364 . S
C377 C375 1.371 1_565 S
C377 C376 1.377 . S
C377 H398 0.914 1_565 S
C378 C374 1.389 . S
C378 C376 1.364 . S
C378 H399 0.931 . S
C379 O390 1.256 . S
C379 O391 1.257 . S
O380 Gd360 2.377 . S
O380 C362 1.240 1_545 S
O381 Gd361 2.395 . S
O381 C362 1.240 . S
O382 Gd360 2.448 . S
O382 C363 1.249 . S
O383 Gd360 2.506 . S
O383 C363 1.252 . S
O384 Gd360 2.435 . S
O384 C370 1.256 . S
O385 Gd360 2.717 . S
O385 Gd361 2.327 1_545 S
O385 C370 1.257 . S
O386 Gd361 2.377 . S
O386 C371 1.240 1_565 S
O387 Gd360 2.395 . S
O387 C371 1.240 . S
O388 Gd361 2.448 . S
O388 C372 1.249 . S
O389 Gd361 2.506 1_545 S
O389 C372 1.252 1_545 S
O390 Gd361 2.435 . S
O390 C379 1.256 . S
O391 Gd360 2.327 1_565 S
O391 Gd361 2.717 . S
O391 C379 1.257 . S
H392 C365 0.930 . S
H393 C366 0.931 1_565 S
H394 C368 0.931 1_565 S
H395 C369 0.931 . S
H396 C374 0.930 . S
H397 C375 0.981 . S
H398 C377 0.914 1_545 S
H399 C378 0.931 . S
Gd400 C403 2.818 . S
Gd400 O420 2.377 . S
Gd400 O422 2.448 . S
Gd400 O423 2.506 . S
Gd400 O424 2.435 . S
Gd400 O425 2.717 . S
Gd400 O427 2.395 . S
Gd400 O431 2.327 . S
Gd401 C412 2.818 . S
Gd401 O421 2.395 . S
Gd401 O425 2.327 . S
Gd401 O426 2.377 . S
Gd401 O428 2.448 . S
Gd401 O429 2.506 . S
Gd401 O430 2.435 . S
Gd401 O431 2.717 . S
C402 O420 1.240 . S
C402 O421 1.240 . S
C403 Gd400 2.818 . S
C403 C404 1.510 . S
C403 O422 1.249 . S
C403 O423 1.252 . S
C404 C403 1.510 . S
C404 C405 1.404 . S
C404 C406 1.352 . S
C405 C404 1.404 . S
C405 C409 1.389 . S
C405 H432 0.930 . S
C406 C404 1.352 . S
C406 C408 1.374 . S
C406 H433 0.931 . S
C407 C408 1.359 . S
C407 C409 1.364 . S
C408 C406 1.374 . S
C408 C407 1.359 . S
C408 H434 0.931 . S
C409 C405 1.389 . S
C409 C407 1.364 . S
C409 H435 0.931 . S
C410 O424 1.256 . S
C410 O425 1.257 . S
C411 O426 1.240 . S
C411 O427 1.240 . S
C412 Gd401 2.818 . S
C412 C413 1.510 . S
C412 O428 1.249 . S
C412 O429 1.252 . S
C413 C412 1.510 . S
C413 C414 1.404 . S
C413 C415 1.352 . S
C414 C413 1.404 . S
C414 C418 1.389 . S
C414 H436 0.930 . S
C415 C413 1.352 . S
C415 C417 1.374 . S
C415 H437 0.931 . S
C416 C417 1.359 . S
C416 C418 1.364 . S
C417 C415 1.374 . S
C417 C416 1.359 . S
C417 H438 0.931 . S
C418 C414 1.389 . S
C418 C416 1.364 . S
C418 H439 0.931 . S
C419 O430 1.256 . S
C419 O431 1.257 . S
O420 Gd400 2.377 . S
O420 C402 1.240 . S
O421 Gd401 2.395 . S
O421 C402 1.240 . S
O422 Gd400 2.448 . S
O422 C403 1.249 . S
O423 Gd400 2.506 . S
O423 C403 1.252 . S
O424 Gd400 2.435 . S
O424 C410 1.256 . S
O425 Gd400 2.717 . S
O425 Gd401 2.327 . S
O425 C410 1.257 . S
O426 Gd401 2.377 . S
O426 C411 1.240 . S
O427 Gd400 2.395 . S
O427 C411 1.240 . S
O428 Gd401 2.448 . S
O428 C412 1.249 . S
O429 Gd401 2.506 . S
O429 C412 1.252 . S
O430 Gd401 2.435 . S
O430 C419 1.256 . S
O431 Gd400 2.327 . S
O431 Gd401 2.717 . S
O431 C419 1.257 . S
H432 C405 0.930 . S
H433 C406 0.931 . S
H434 C408 0.931 . S
H435 C409 0.931 . S
H436 C414 0.930 . S
H437 C415 0.931 . S
H438 C417 0.931 . S
H439 C418 0.931 . S
Gd440 C443 2.818 . S
Gd440 O460 2.377 . S
Gd440 O462 2.448 . S
Gd440 O463 2.506 . S
Gd440 O464 2.435 . S
Gd440 O465 2.717 1_655 S
Gd440 O467 2.395 1_655 S
Gd440 O471 2.327 . S
Gd441 C452 2.818 . S
Gd441 O461 2.395 1_455 S
Gd441 O465 2.327 . S
Gd441 O466 2.377 . S
Gd441 O468 2.448 . S
Gd441 O469 2.506 . S
Gd441 O470 2.435 . S
Gd441 O471 2.717 1_455 S
C442 O460 1.240 . S
C442 O461 1.240 . S
C443 Gd440 2.818 . S
C443 C444 1.510 . S
C443 O462 1.249 . S
C443 O463 1.252 . S
C444 C443 1.510 . S
C444 C445 1.404 . S
C444 C446 1.352 . S
C445 C444 1.404 . S
C445 C449 1.389 . S
C445 H472 0.930 . S
C446 C444 1.352 . S
C446 C448 1.374 . S
C446 H473 0.931 . S
C447 C448 1.359 . S
C447 C449 1.364 . S
C448 C446 1.374 . S
C448 C447 1.359 . S
C448 H474 0.931 . S
C449 C445 1.389 . S
C449 C447 1.364 . S
C449 H475 0.931 . S
C450 O464 1.252 1_455 S
C450 O465 1.260 . S
C451 O466 1.240 . S
C451 O467 1.240 . S
C452 Gd441 2.818 . S
C452 C453 1.510 . S
C452 O468 1.249 . S
C452 O469 1.252 . S
C453 C452 1.510 . S
C453 C454 1.404 . S
C453 C455 1.352 . S
C454 C453 1.404 . S
C454 C458 1.389 . S
C454 H476 0.930 . S
C455 C453 1.352 . S
C455 C457 1.374 . S
C455 H477 0.931 . S
C456 C457 1.359 . S
C456 C458 1.364 . S
C457 C455 1.374 . S
C457 C456 1.359 . S
C457 H478 0.931 . S
C458 C454 1.389 . S
C458 C456 1.364 . S
C458 H479 0.931 . S
C459 O470 1.256 . S
C459 O471 1.257 1_455 S
O460 Gd440 2.377 . S
O460 C442 1.240 . S
O461 Gd441 2.395 1_655 S
O461 C442 1.240 . S
O462 Gd440 2.448 . S
O462 C443 1.249 . S
O463 Gd440 2.506 . S
O463 C443 1.252 . S
O464 Gd440 2.435 . S
O464 C450 1.252 1_655 S
O465 Gd440 2.717 1_455 S
O465 Gd441 2.327 . S
O465 C450 1.260 . S
O466 Gd441 2.377 . S
O466 C451 1.240 . S
O467 Gd440 2.395 1_455 S
O467 C451 1.240 . S
O468 Gd441 2.448 . S
O468 C452 1.249 . S
O469 Gd441 2.506 . S
O469 C452 1.252 . S
O470 Gd441 2.435 . S
O470 C459 1.256 . S
O471 Gd440 2.327 . S
O471 Gd441 2.717 1_655 S
O471 C459 1.257 1_655 S
H472 C445 0.930 . S
H473 C446 0.931 . S
H474 C448 0.931 . S
H475 C449 0.931 . S
H476 C454 0.930 . S
H477 C455 0.931 . S
H478 C457 0.931 . S
H479 C458 0.931 . S
H480 C488 0.950 . S
H481 C493 0.950 . S
H482 C490 0.950 . S
H483 C492 0.950 . S
H484 C494 0.950 . S
H485 C496 0.950 . S
H486 C498 0.950 . S
H487 C499 0.950 . S
C488 H480 0.950 . S
C488 C489 1.386 1_565 S
C488 C490 1.391 . S
C489 C488 1.386 1_545 S
C489 C493 1.393 . S
C490 H482 0.950 . S
C490 C488 1.391 . S
C490 C491 1.400 1_565 S
C491 C490 1.400 1_545 S
C491 C492 1.398 . S
C491 C497 1.491 . S
C492 H483 0.950 . S
C492 C491 1.398 . S
C492 C493 1.391 . S
C493 H481 0.950 . S
C493 C489 1.393 . S
C493 C492 1.391 . S
C494 H484 0.950 . S
C494 C495 1.386 . S
C494 C496 1.391 . S
C495 C494 1.386 . S
C495 C499 1.393 1_545 S
C496 H485 0.950 . S
C496 C494 1.391 . S
C496 C497 1.400 . S
C497 C491 1.491 . S
C497 C496 1.400 . S
C497 C498 1.398 1_545 S
C498 H486 0.950 . S
C498 C497 1.398 1_565 S
C498 C499 1.391 . S
C499 H487 0.950 . S
C499 C495 1.393 1_565 S
C499 C498 1.391 . S
H500 C508 0.950 . S
H501 C513 0.950 . S
H502 C510 0.950 . S
H503 C512 0.950 . S
H504 C514 0.950 . S
H505 C516 0.950 . S
H506 C518 0.950 . S
H507 C519 0.950 . S
C508 H500 0.950 . S
C508 C509 1.386 . S
C508 C510 1.391 . S
C509 C508 1.386 . S
C509 C513 1.393 . S
C510 H502 0.950 . S
C510 C508 1.391 . S
C510 C511 1.400 . S
C511 C510 1.400 . S
C511 C512 1.398 . S
C511 C517 1.491 . S
C512 H503 0.950 . S
C512 C511 1.398 . S
C512 C513 1.391 . S
C513 H501 0.950 . S
C513 C509 1.393 . S
C513 C512 1.391 . S
C514 H504 0.950 . S
C514 C515 1.386 . S
C514 C516 1.391 . S
C515 C514 1.386 . S
C515 C519 1.393 . S
C516 H505 0.950 . S
C516 C514 1.391 . S
C516 C517 1.400 . S
C517 C511 1.491 . S
C517 C516 1.400 . S
C517 C518 1.398 . S
C518 H506 0.950 . S
C518 C517 1.398 . S
C518 C519 1.391 . S
C519 H507 0.950 . S
C519 C515 1.393 . S
C519 C518 1.391 . S
H520 C528 0.950 . S
H521 C533 0.950 . S
H522 C530 0.950 . S
H523 C532 0.950 . S
H524 C534 0.950 . S
H525 C536 0.950 . S
H526 C538 0.950 . S
H527 C539 0.950 . S
C528 H520 0.950 . S
C528 C529 1.386 . S
C528 C530 1.391 . S
C529 C528 1.386 . S
C529 C533 1.393 . S
C530 H522 0.950 . S
C530 C528 1.391 . S
C530 C531 1.400 . S
C531 C530 1.400 . S
C531 C532 1.398 . S
C531 C537 1.491 . S
C532 H523 0.950 . S
C532 C531 1.398 . S
C532 C533 1.391 . S
C533 H521 0.950 . S
C533 C529 1.393 . S
C533 C532 1.391 . S
C534 H524 0.950 . S
C534 C535 1.386 . S
C534 C536 1.391 . S
C535 C534 1.386 . S
C535 C539 1.393 . S
C536 H525 0.950 . S
C536 C534 1.391 . S
C536 C537 1.400 . S
C537 C531 1.491 . S
C537 C536 1.400 . S
C537 C538 1.398 . S
C538 H526 0.950 . S
C538 C537 1.398 . S
C538 C539 1.391 . S
C539 H527 0.950 . S
C539 C535 1.393 . S
C539 C538 1.391 . S
H540 C548 0.950 . S
H541 C553 0.950 . S
H542 C550 0.950 . S
H543 C552 0.950 . S
H544 C554 0.950 . S
H545 C556 0.950 . S
H546 C558 0.963 . S
H547 C559 0.950 . S
C548 H540 0.950 . S
C548 C549 1.386 1_655 S
C548 C550 1.391 . S
C549 C548 1.386 1_455 S
C549 C553 1.393 . S
C550 H542 0.950 . S
C550 C548 1.391 . S
C550 C551 1.400 1_655 S
C551 C550 1.400 1_455 S
C551 C552 1.398 . S
C551 C557 1.491 . S
C552 H543 0.950 . S
C552 C551 1.398 . S
C552 C553 1.391 . S
C553 H541 0.950 . S
C553 C549 1.393 . S
C553 C552 1.391 . S
C554 H544 0.950 . S
C554 C555 1.386 . S
C554 C556 1.391 . S
C555 C554 1.386 . S
C555 C559 1.393 1_455 S
C556 H545 0.950 . S
C556 C554 1.391 . S
C556 C557 1.400 . S
C557 C551 1.491 . S
C557 C556 1.400 . S
C557 C558 1.387 1_455 S
C558 H546 0.963 . S
C558 C557 1.387 1_655 S
C558 C559 1.393 . S
C559 H547 0.950 . S
C559 C555 1.393 1_655 S
C559 C558 1.393 . S
H560 C568 0.950 . S
H561 C573 0.950 . S
H562 C570 0.950 . S
H563 C572 0.950 . S
H564 C574 0.950 . S
H565 C576 0.950 . S
H566 C578 0.950 . S
H567 C579 0.950 . S
C568 H560 0.950 . S
C568 C569 1.386 1_545 S
C568 C570 1.391 . S
C569 C568 1.386 1_565 S
C569 C573 1.393 . S
C570 H562 0.950 . S
C570 C568 1.391 . S
C570 C571 1.400 1_545 S
C571 C570 1.400 1_565 S
C571 C572 1.398 . S
C571 C577 1.491 1_554 S
C572 H563 0.950 . S
C572 C571 1.398 . S
C572 C573 1.391 . S
C573 H561 0.950 . S
C573 C569 1.393 . S
C573 C572 1.391 . S
C574 H564 0.950 . S
C574 C575 1.402 . S
C574 C576 1.391 . S
C575 C574 1.402 . S
C575 C579 1.380 1_565 S
C576 H565 0.950 . S
C576 C574 1.391 . S
C576 C577 1.400 . S
C577 C571 1.491 1_556 S
C577 C576 1.400 . S
C577 C578 1.398 1_565 S
C578 H566 0.950 . S
C578 C577 1.398 1_545 S
C578 C579 1.391 . S
C579 H567 0.950 . S
C579 C575 1.380 1_545 S
C579 C578 1.391 . S
H580 C588 0.950 . S
H581 C593 0.950 . S
H582 C590 0.950 . S
H583 C592 0.950 . S
H584 C594 0.950 . S
H585 C596 0.950 . S
H586 C598 0.950 . S
H587 C599 0.950 . S
C588 H580 0.950 . S
C588 C589 1.386 . S
C588 C590 1.391 . S
C589 C588 1.386 . S
C589 C593 1.393 . S
C590 H582 0.950 . S
C590 C588 1.391 . S
C590 C591 1.400 . S
C591 C590 1.400 . S
C591 C592 1.398 . S
C591 C597 1.491 1_554 S
C592 H583 0.950 . S
C592 C591 1.398 . S
C592 C593 1.391 . S
C593 H581 0.950 . S
C593 C589 1.393 . S
C593 C592 1.391 . S
C594 H584 0.950 . S
C594 C595 1.386 . S
C594 C596 1.391 . S
C595 C594 1.386 . S
C595 C599 1.393 . S
C596 H585 0.950 . S
C596 C594 1.391 . S
C596 C597 1.400 . S
C597 C591 1.491 1_556 S
C597 C596 1.400 . S
C597 C598 1.398 . S
C598 H586 0.950 . S
C598 C597 1.398 . S
C598 C599 1.391 . S
C599 H587 0.950 . S
C599 C595 1.393 . S
C599 C598 1.391 . S
H600 C608 0.950 . S
H601 C613 0.950 . S
H602 C610 0.950 . S
H603 C612 0.950 . S
H604 C614 0.950 . S
H605 C616 0.950 . S
H606 C618 0.950 . S
H607 C619 0.950 . S
C608 H600 0.950 . S
C608 C609 1.386 . S
C608 C610 1.391 . S
C609 C608 1.386 . S
C609 C613 1.393 . S
C610 H602 0.950 . S
C610 C608 1.391 . S
C610 C611 1.400 . S
C611 C610 1.400 . S
C611 C612 1.398 . S
C611 C617 1.491 1_554 S
C612 H603 0.950 . S
C612 C611 1.398 . S
C612 C613 1.391 . S
C613 H601 0.950 . S
C613 C609 1.393 . S
C613 C612 1.391 . S
C614 H604 0.950 . S
C614 C615 1.386 . S
C614 C616 1.391 . S
C615 C614 1.386 . S
C615 C619 1.393 . S
C616 H605 0.950 . S
C616 C614 1.391 . S
C616 C617 1.400 . S
C617 C611 1.491 1_556 S
C617 C616 1.400 . S
C617 C618 1.398 . S
C618 H606 0.950 . S
C618 C617 1.398 . S
C618 C619 1.391 . S
C619 H607 0.950 . S
C619 C615 1.393 . S
C619 C618 1.391 . S
H620 C628 0.950 . S
H621 C633 0.950 . S
H622 C630 0.950 . S
H623 C632 0.950 . S
H624 C634 0.950 . S
H625 C636 0.950 . S
H626 C638 0.950 . S
H627 C639 0.950 . S
C628 H620 0.950 . S
C628 C629 1.375 1_655 S
C628 C630 1.391 . S
C629 C628 1.375 1_455 S
C629 C633 1.404 . S
C630 H622 0.950 . S
C630 C628 1.391 . S
C630 C631 1.395 1_655 S
C631 C630 1.395 1_455 S
C631 C632 1.404 . S
C631 C637 1.490 1_454 S
C632 H623 0.950 . S
C632 C631 1.404 . S
C632 C633 1.391 . S
C633 H621 0.950 . S
C633 C629 1.404 . S
C633 C632 1.391 . S
C634 H624 0.950 . S
C634 C635 1.373 1_455 S
C634 C636 1.391 . S
C635 C634 1.373 1_655 S
C635 C639 1.407 . S
C636 H625 0.950 . S
C636 C634 1.391 . S
C636 C637 1.393 1_455 S
C637 C631 1.490 1_656 S
C637 C636 1.393 1_655 S
C637 C638 1.406 . S
C638 H626 0.950 . S
C638 C637 1.406 . S
C638 C639 1.391 . S
C639 H627 0.950 . S
C639 C635 1.407 . S
C639 C638 1.391 . S
H640 C648 0.949 . S
H641 C653 0.950 . S
H642 C650 0.950 . S
H643 C652 0.950 . S
H644 C654 0.950 . S
H645 C656 0.950 . S
H646 C658 0.950 . S
H647 C659 0.950 . S
C648 H640 0.949 . S
C648 C649 1.386 . S
C648 C650 1.390 1_455 S
C649 C648 1.386 . S
C649 C653 1.393 . S
C650 H642 0.950 . S
C650 C648 1.390 1_655 S
C650 C651 1.400 . S
C651 C650 1.400 . S
C651 C652 1.418 . S
C651 C657 1.491 . S
C652 H643 0.950 . S
C652 C651 1.418 . S
C652 C653 1.374 1_655 S
C653 H641 0.950 . S
C653 C649 1.393 . S
C653 C652 1.374 1_455 S
C654 H644 0.950 . S
C654 C655 1.386 . S
C654 C656 1.391 . S
C655 C654 1.386 . S
C655 C659 1.393 . S
C656 H645 0.950 . S
C656 C654 1.391 . S
C656 C657 1.400 . S
C657 C651 1.491 . S
C657 C656 1.400 . S
C657 C658 1.398 . S
C658 H646 0.950 . S
C658 C657 1.398 . S
C658 C659 1.391 . S
C659 H647 0.950 . S
C659 C655 1.393 . S
C659 C658 1.391 . S
H660 C668 0.950 . S
H661 C673 0.950 . S
H662 C670 0.950 . S
H663 C672 0.950 . S
H664 C674 0.950 . S
H665 C676 0.950 . S
H666 C678 0.950 . S
H667 C679 0.950 1_545 S
C668 H660 0.950 . S
C668 C669 1.386 . S
C668 C670 1.391 . S
C669 C668 1.386 . S
C669 C673 1.393 1_545 S
C670 H662 0.950 . S
C670 C668 1.391 . S
C670 C671 1.440 . S
C671 C670 1.440 . S
C671 C672 1.376 1_545 S
C671 C677 1.476 1_545 S
C672 H663 0.950 . S
C672 C671 1.376 1_565 S
C672 C673 1.391 . S
C673 H661 0.950 . S
C673 C669 1.393 1_565 S
C673 C672 1.391 . S
C674 H664 0.950 . S
C674 C675 1.386 . S
C674 C676 1.391 . S
C675 C674 1.386 . S
C675 C679 1.393 . S
C676 H665 0.950 . S
C676 C674 1.391 . S
C676 C677 1.400 . S
C677 C671 1.476 1_565 S
C677 C676 1.400 . S
C677 C678 1.398 1_565 S
C678 H666 0.950 . S
C678 C677 1.398 1_545 S
C678 C679 1.391 1_545 S
C679 H667 0.950 1_565 S
C679 C675 1.393 . S
C679 C678 1.391 1_565 S
H680 C688 0.950 . S
H681 C693 0.950 . S
H682 C690 0.950 . S
H683 C692 0.950 . S
H684 C694 0.950 . S
H685 C696 0.950 . S
H686 C698 0.950 . S
H687 C699 0.950 . S
C688 H680 0.950 . S
C688 C689 1.386 . S
C688 C690 1.391 . S
C689 C688 1.386 . S
C689 C693 1.393 . S
C690 H682 0.950 . S
C690 C688 1.391 . S
C690 C691 1.400 . S
C691 C690 1.400 . S
C691 C692 1.398 . S
C691 C697 1.491 . S
C692 H683 0.950 . S
C692 C691 1.398 . S
C692 C693 1.391 . S
C693 H681 0.950 . S
C693 C689 1.393 . S
C693 C692 1.391 . S
C694 H684 0.950 . S
C694 C695 1.386 . S
C694 C696 1.391 . S
C695 C694 1.386 . S
C695 C699 1.393 . S
C696 H685 0.950 . S
C696 C694 1.391 . S
C696 C697 1.400 . S
C697 C691 1.491 . S
C697 C696 1.400 . S
C697 C698 1.398 . S
C698 H686 0.950 . S
C698 C697 1.398 . S
C698 C699 1.391 . S
C699 H687 0.950 . S
C699 C695 1.393 . S
C699 C698 1.391 . S
H700 C708 0.950 . S
H701 C713 0.950 . S
H702 C710 0.950 . S
H703 C712 0.950 . S
H704 C714 0.950 . S
H705 C716 0.950 . S
H706 C718 0.950 . S
H707 C719 0.950 . S
C708 H700 0.950 . S
C708 C709 1.386 . S
C708 C710 1.391 . S
C709 C708 1.386 . S
C709 C713 1.393 . S
C710 H702 0.950 . S
C710 C708 1.391 . S
C710 C711 1.400 . S
C711 C710 1.400 . S
C711 C712 1.398 . S
C711 C717 1.491 . S
C712 H703 0.950 . S
C712 C711 1.398 . S
C712 C713 1.391 . S
C713 H701 0.950 . S
C713 C709 1.393 . S
C713 C712 1.391 . S
C714 H704 0.950 . S
C714 C715 1.386 . S
C714 C716 1.391 . S
C715 C714 1.386 . S
C715 C719 1.393 . S
C716 H705 0.950 . S
C716 C714 1.391 . S
C716 C717 1.400 . S
C717 C711 1.491 . S
C717 C716 1.400 . S
C717 C718 1.398 . S
C718 H706 0.950 . S
C718 C717 1.398 . S
C718 C719 1.391 . S
C719 H707 0.950 . S
C719 C715 1.393 . S
C719 C718 1.391 . S
H720 C728 0.950 . S
H721 C733 0.950 . S
H722 C730 0.950 . S
H723 C732 0.950 . S
H724 C734 0.950 . S
H725 C736 0.950 1_655 S
H726 C738 0.950 . S
H727 C739 0.950 . S
C728 H720 0.950 . S
C728 C729 1.386 1_455 S
C728 C730 1.391 1_554 S
C729 C728 1.386 1_655 S
C729 C733 1.393 . S
C730 H722 0.950 . S
C730 C728 1.391 1_556 S
C730 C731 1.400 . S
C731 C730 1.400 . S
C731 C732 1.398 1_456 S
C731 C737 1.491 . S
C732 H723 0.950 . S
C732 C731 1.398 1_654 S
C732 C733 1.391 . S
C733 H721 0.950 . S
C733 C729 1.393 . S
C733 C732 1.391 . S
C734 H724 0.950 . S
C734 C735 1.386 . S
C734 C736 1.391 . S
C735 C734 1.386 . S
C735 C739 1.393 . S
C736 H725 0.950 1_455 S
C736 C734 1.391 . S
C736 C737 1.400 . S
C737 C731 1.491 . S
C737 C736 1.400 . S
C737 C738 1.398 . S
C738 H726 0.950 . S
C738 C737 1.398 . S
C738 C739 1.391 . S
C739 H727 0.950 . S
C739 C735 1.393 . S
C739 C738 1.391 . S
H740 C748 0.950 . S
H741 C753 0.950 . S
H742 C750 0.950 . S
H743 C752 0.950 . S
H744 C754 0.950 . S
H745 C756 0.947 1_554 S
H746 C758 0.950 . S
H747 C759 0.950 . S
C748 H740 0.950 . S
C748 C749 1.386 1_546 S
C748 C750 1.391 . S
C749 C748 1.386 1_564 S
C749 C753 1.393 . S
C750 H742 0.950 . S
C750 C748 1.391 . S
C750 C751 1.400 . S
C751 C750 1.400 . S
C751 C752 1.398 1_546 S
C751 C757 1.491 . S
C752 H743 0.950 . S
C752 C751 1.398 1_564 S
C752 C753 1.391 . S
C753 H741 0.950 . S
C753 C749 1.393 . S
C753 C752 1.391 . S
C754 H744 0.950 . S
C754 C755 1.386 . S
C754 C756 1.391 . S
C755 C754 1.386 . S
C755 C759 1.393 . S
C756 H745 0.947 1_556 S
C756 C754 1.391 . S
C756 C757 1.400 . S
C757 C751 1.491 . S
C757 C756 1.400 . S
C757 C758 1.398 . S
C758 H746 0.950 . S
C758 C757 1.398 . S
C758 C759 1.391 . S
C759 H747 0.950 . S
C759 C755 1.393 . S
C759 C758 1.391 . S
H760 C768 0.950 . S
H761 C773 0.950 . S
H762 C770 0.950 . S
H763 C772 0.950 . S
H764 C774 0.950 . S
H765 C776 0.950 . S
H766 C778 0.950 . S
H767 C779 0.950 . S
C768 H760 0.950 . S
C768 C769 1.386 . S
C768 C770 1.391 . S
C769 C768 1.386 . S
C769 C773 1.393 . S
C770 H762 0.950 . S
C770 C768 1.391 . S
C770 C771 1.400 1_554 S
C771 C770 1.400 1_556 S
C771 C772 1.398 . S
C771 C777 1.491 . S
C772 H763 0.950 . S
C772 C771 1.398 . S
C772 C773 1.391 1_556 S
C773 H761 0.950 . S
C773 C769 1.393 . S
C773 C772 1.391 1_554 S
C774 H764 0.950 . S
C774 C775 1.386 . S
C774 C776 1.391 . S
C775 C774 1.386 . S
C775 C779 1.393 . S
C776 H765 0.950 . S
C776 C774 1.391 . S
C776 C777 1.400 . S
C777 C771 1.491 . S
C777 C776 1.400 . S
C777 C778 1.398 . S
C778 H766 0.950 . S
C778 C777 1.398 . S
C778 C779 1.391 . S
C779 H767 0.950 . S
C779 C775 1.393 . S
C779 C778 1.391 . S
H780 C788 0.950 . S
H781 C793 0.950 . S
H782 C790 0.950 1_556 S
H783 C792 0.950 1_556 S
H784 C794 0.950 . S
H785 C796 0.950 . S
H786 C798 0.950 . S
H787 C799 0.950 . S
C788 H780 0.950 . S
C788 C789 1.386 . S
C788 C790 1.391 . S
C789 C788 1.386 . S
C789 C793 1.393 . S
C790 H782 0.950 1_554 S
C790 C788 1.391 . S
C790 C791 1.400 1_554 S
C791 C790 1.400 1_556 S
C791 C792 1.398 1_556 S
C791 C797 1.491 . S
C792 H783 0.950 1_554 S
C792 C791 1.398 1_554 S
C792 C793 1.391 . S
C793 H781 0.950 . S
C793 C789 1.393 . S
C793 C792 1.391 . S
C794 H784 0.950 . S
C794 C795 1.386 . S
C794 C796 1.391 . S
C795 C794 1.386 . S
C795 C799 1.393 . S
C796 H785 0.950 . S
C796 C794 1.391 . S
C796 C797 1.400 . S
C797 C791 1.491 . S
C797 C796 1.400 . S
C797 C798 1.398 . S
C798 H786 0.950 . S
C798 C797 1.398 . S
C798 C799 1.391 . S
C799 H787 0.950 . S
C799 C795 1.393 . S
C799 C798 1.391 . S
H800 C808 0.950 . S
H801 C813 0.950 . S
H802 C810 0.950 . S
H803 C812 0.950 . S
H804 C814 0.950 . S
H805 C816 0.950 . S
H806 C818 0.950 . S
H807 C819 0.950 . S
C808 H800 0.950 . S
C808 C809 1.386 . S
C808 C810 1.391 . S
C809 C808 1.386 . S
C809 C813 1.393 1_455 S
C810 H802 0.950 . S
C810 C808 1.391 . S
C810 C811 1.400 . S
C811 C810 1.400 . S
C811 C812 1.398 1_455 S
C811 C817 1.491 . S
C812 H803 0.950 . S
C812 C811 1.398 1_655 S
C812 C813 1.391 . S
C813 H801 0.950 . S
C813 C809 1.393 1_655 S
C813 C812 1.391 . S
C814 H804 0.950 . S
C814 C815 1.386 1_655 S
C814 C816 1.391 . S
C815 C814 1.386 1_455 S
C815 C819 1.393 . S
C816 H805 0.950 . S
C816 C814 1.391 . S
C816 C817 1.400 1_655 S
C817 C811 1.491 . S
C817 C816 1.400 1_455 S
C817 C818 1.398 . S
C818 H806 0.950 . S
C818 C817 1.398 . S
C818 C819 1.391 . S
C819 H807 0.950 . S
C819 C815 1.393 . S
C819 C818 1.391 . S
H820 C828 0.950 . S
H821 C833 0.946 1_565 S
H822 C830 0.950 . S
H823 C832 0.972 . S
H824 C834 0.933 1_565 S
H825 C836 0.934 1_565 S
H826 C838 0.950 . S
H827 C839 0.950 . S
C828 H820 0.950 . S
C828 C829 1.386 . S
C828 C830 1.391 . S
C829 C828 1.386 . S
C829 C833 1.393 . S
C830 H822 0.950 . S
C830 C828 1.391 . S
C830 C831 1.400 . S
C831 C830 1.400 . S
C831 C832 1.398 . S
C831 C837 1.491 . S
C832 H823 0.972 . S
C832 C831 1.398 . S
C832 C833 1.391 . S
C833 H821 0.946 1_545 S
C833 C829 1.393 . S
C833 C832 1.391 . S
C834 H824 0.933 1_545 S
C834 C835 1.386 . S
C834 C836 1.391 . S
C835 C834 1.386 . S
C835 C839 1.393 . S
C836 H825 0.934 1_545 S
C836 C834 1.391 . S
C836 C837 1.400 . S
C837 C831 1.491 . S
C837 C836 1.400 . S
C837 C838 1.398 . S
C838 H826 0.950 . S
C838 C837 1.398 . S
C838 C839 1.391 . S
C839 H827 0.950 . S
C839 C835 1.393 . S
C839 C838 1.391 . S
H840 C848 0.950 . S
H841 C853 0.950 . S
H842 C850 0.950 . S
H843 C852 0.950 . S
H844 C854 0.950 . S
H845 C856 0.950 . S
H846 C858 0.950 . S
H847 C859 0.950 . S
C848 H840 0.950 . S
C848 C849 1.386 . S
C848 C850 1.391 . S
C849 C848 1.386 . S
C849 C853 1.393 . S
C850 H842 0.950 . S
C850 C848 1.391 . S
C850 C851 1.400 . S
C851 C850 1.400 . S
C851 C852 1.398 . S
C851 C857 1.491 . S
C852 H843 0.950 . S
C852 C851 1.398 . S
C852 C853 1.391 . S
C853 H841 0.950 . S
C853 C849 1.393 . S
C853 C852 1.391 . S
C854 H844 0.950 . S
C854 C855 1.386 . S
C854 C856 1.391 . S
C855 C854 1.386 . S
C855 C859 1.393 . S
C856 H845 0.950 . S
C856 C854 1.391 . S
C856 C857 1.400 . S
C857 C851 1.491 . S
C857 C856 1.400 . S
C857 C858 1.398 . S
C858 H846 0.950 . S
C858 C857 1.398 . S
C858 C859 1.391 . S
C859 H847 0.950 . S
C859 C855 1.393 . S
C859 C858 1.391 . S
H860 C868 0.950 . S
H861 C873 0.950 . S
H862 C870 0.950 . S
H863 C872 0.950 . S
H864 C874 0.950 . S
H865 C876 0.950 . S
H866 C878 0.950 . S
H867 C879 0.950 . S
C868 H860 0.950 . S
C868 C869 1.386 . S
C868 C870 1.391 . S
C869 C868 1.386 . S
C869 C873 1.393 . S
C870 H862 0.950 . S
C870 C868 1.391 . S
C870 C871 1.400 . S
C871 C870 1.400 . S
C871 C872 1.398 . S
C871 C877 1.491 . S
C872 H863 0.950 . S
C872 C871 1.398 . S
C872 C873 1.391 . S
C873 H861 0.950 . S
C873 C869 1.393 . S
C873 C872 1.391 . S
C874 H864 0.950 . S
C874 C875 1.386 . S
C874 C876 1.391 . S
C875 C874 1.386 . S
C875 C879 1.393 . S
C876 H865 0.950 . S
C876 C874 1.391 . S
C876 C877 1.400 . S
C877 C871 1.491 . S
C877 C876 1.400 . S
C877 C878 1.398 . S
C878 H866 0.950 . S
C878 C877 1.398 . S
C878 C879 1.391 . S
C879 H867 0.950 . S
C879 C875 1.393 . S
C879 C878 1.391 . S
H880 C888 0.950 . S
H881 C893 0.950 . S
H882 C890 0.950 . S
H883 C892 0.950 . S
H884 C894 0.950 . S
H885 C896 0.950 . S
H886 C898 0.950 . S
H887 C899 0.950 . S
C888 H880 0.950 . S
C888 C889 1.386 . S
C888 C890 1.391 . S
C889 C888 1.386 . S
C889 C893 1.393 1_655 S
C890 H882 0.950 . S
C890 C888 1.391 . S
C890 C891 1.400 . S
C891 C890 1.400 . S
C891 C892 1.398 1_655 S
C891 C897 1.491 . S
C892 H883 0.950 . S
C892 C891 1.398 1_455 S
C892 C893 1.391 . S
C893 H881 0.950 . S
C893 C889 1.393 1_455 S
C893 C892 1.391 . S
C894 H884 0.950 . S
C894 C895 1.386 1_455 S
C894 C896 1.391 . S
C895 C894 1.386 1_655 S
C895 C899 1.393 . S
C896 H885 0.950 . S
C896 C894 1.391 . S
C896 C897 1.400 1_455 S
C897 C891 1.491 . S
C897 C896 1.400 1_655 S
C897 C898 1.398 . S
C898 H886 0.950 . S
C898 C897 1.398 . S
C898 C899 1.391 . S
C899 H887 0.950 . S
C899 C895 1.393 . S
C899 C898 1.391 . S
H900 C908 0.950 . S
H901 C913 0.950 . S
H902 C910 0.950 . S
H903 C912 0.950 . S
H904 C914 0.950 . S
H905 C916 0.950 . S
H906 C918 0.950 . S
H907 C919 0.950 . S
C908 H900 0.950 . S
C908 C909 1.386 1_545 S
C908 C910 1.391 . S
C909 C908 1.386 1_565 S
C909 C913 1.393 . S
C910 H902 0.950 . S
C910 C908 1.391 . S
C910 C911 1.400 1_545 S
C911 C910 1.400 1_565 S
C911 C912 1.398 . S
C911 C917 1.491 . S
C912 H903 0.950 . S
C912 C911 1.398 . S
C912 C913 1.391 . S
C913 H901 0.950 . S
C913 C909 1.393 . S
C913 C912 1.391 . S
C914 H904 0.950 . S
C914 C915 1.386 . S
C914 C916 1.391 . S
C915 C914 1.386 . S
C915 C919 1.393 1_565 S
C916 H905 0.950 . S
C916 C914 1.391 . S
C916 C917 1.400 . S
C917 C911 1.491 . S
C917 C916 1.400 . S
C917 C918 1.398 1_565 S
C918 H906 0.950 . S
C918 C917 1.398 1_545 S
C918 C919 1.391 . S
C919 H907 0.950 . S
C919 C915 1.393 1_545 S
C919 C918 1.391 . S
H920 C928 0.950 . S
H921 C933 0.950 . S
H922 C930 0.950 . S
H923 C932 0.950 . S
H924 C934 0.950 . S
H925 C936 0.950 . S
H926 C938 0.950 . S
H927 C939 0.950 . S
C928 H920 0.950 . S
C928 C929 1.386 . S
C928 C930 1.391 . S
C929 C928 1.386 . S
C929 C933 1.393 . S
C930 H922 0.950 . S
C930 C928 1.391 . S
C930 C931 1.400 . S
C931 C930 1.400 . S
C931 C932 1.398 . S
C931 C937 1.491 . S
C932 H923 0.950 . S
C932 C931 1.398 . S
C932 C933 1.391 . S
C933 H921 0.950 . S
C933 C929 1.393 . S
C933 C932 1.391 . S
C934 H924 0.950 . S
C934 C935 1.386 . S
C934 C936 1.391 . S
C935 C934 1.386 . S
C935 C939 1.393 . S
C936 H925 0.950 . S
C936 C934 1.391 . S
C936 C937 1.400 . S
C937 C931 1.491 . S
C937 C936 1.400 . S
C937 C938 1.398 . S
C938 H926 0.950 . S
C938 C937 1.398 . S
C938 C939 1.391 . S
C939 H927 0.950 . S
C939 C935 1.393 . S
C939 C938 1.391 . S
H940 C948 0.950 . S
H941 C953 0.950 . S
H942 C950 0.950 . S
H943 C952 0.950 . S
H944 C954 0.950 . S
H945 C956 0.950 . S
H946 C958 0.950 . S
H947 C959 0.950 . S
C948 H940 0.950 . S
C948 C949 1.386 . S
C948 C950 1.391 . S
C949 C948 1.386 . S
C949 C953 1.393 . S
C950 H942 0.950 . S
C950 C948 1.391 . S
C950 C951 1.400 . S
C951 C950 1.400 . S
C951 C952 1.398 . S
C951 C957 1.491 . S
C952 H943 0.950 . S
C952 C951 1.398 . S
C952 C953 1.391 . S
C953 H941 0.950 . S
C953 C949 1.393 . S
C953 C952 1.391 . S
C954 H944 0.950 . S
C954 C955 1.386 . S
C954 C956 1.391 . S
C955 C954 1.386 . S
C955 C959 1.393 . S
C956 H945 0.950 . S
C956 C954 1.391 . S
C956 C957 1.400 . S
C957 C951 1.491 . S
C957 C956 1.400 . S
C957 C958 1.398 . S
C958 H946 0.950 . S
C958 C957 1.398 . S
C958 C959 1.391 . S
C959 H947 0.950 . S
C959 C955 1.393 . S
C959 C958 1.391 . S
C489 C255 2.225 . S
C495 C330 2.425 . S
C515 C370 2.418 . S
C509 C295 2.239 . S
C535 C410 2.413 . S
C529 C175 2.211 . S
C555 C450 2.405 . S
C549 C215 2.209 . S
C575 C339 2.411 1_565 S
C569 C95 2.226 . S
C589 C135 2.236 . S
C595 C379 2.415 . S
C609 C15 2.243 . S
C615 C419 2.431 . S
C629 C55 2.219 1_455 S
C635 C459 2.413 1_655 S
C655 C336 0.498 . S
C649 C221 0.428 . S
C675 C376 0.494 . S
C669 C261 0.479 . S
C695 C416 0.448 . S
C689 C301 0.456 . S
C709 C181 0.478 . S
C715 C456 0.482 . S
C729 C61 0.564 1_655 S
C735 C327 0.486 . S
C755 C367 0.519 . S
C749 C101 0.589 . S
C775 C407 0.432 . S
C769 C141 0.475 . S
C789 C21 0.579 . S
C795 C447 0.496 . S
C809 C202 3.100 . S
C815 C331 3.462 . S
C829 C242 3.116 . S
C835 C371 3.472 . S
C855 C411 3.478 . S
C849 C282 3.117 . S
C875 C451 3.468 . S
C869 C162 3.111 . S
C889 C42 3.136 1_655 S
C895 C322 3.476 . S
C915 C362 3.462 . S
C909 C82 3.111 . S
C935 C402 3.466 . S
C929 C122 3.129 . S
C949 C2 3.124 . S
C955 C442 3.482 . S
